# Generated by pormake.
# Topology ske, (6)-cn, num edge types: 1
# Building blocks:
#     Node 0, Type 0, BuildingBlock: BETGAK_clean_sbu_0, # of connection points: 6
#     Node 1, Type 0, BuildingBlock: BETGAK_clean_sbu_0, # of connection points: 6
#     Node 2, Type 0, BuildingBlock: BETGAK_clean_sbu_0, # of connection points: 6
#     Node 3, Type 0, BuildingBlock: BETGAK_clean_sbu_0, # of connection points: 6
#     Node 4, Type 0, BuildingBlock: BETGAK_clean_sbu_0, # of connection points: 6
#     Node 5, Type 0, BuildingBlock: BETGAK_clean_sbu_0, # of connection points: 6
#     Node 6, Type 0, BuildingBlock: BETGAK_clean_sbu_0, # of connection points: 6
#     Node 7, Type 0, BuildingBlock: BETGAK_clean_sbu_0, # of connection points: 6
#     Edge 8, Type (0, 0), BuildingBlock: CIFDUS_clean_linker_0, # of connection points: 2
#     Edge 9, Type (0, 0), BuildingBlock: CIFDUS_clean_linker_0, # of connection points: 2
#     Edge 10, Type (0, 0), BuildingBlock: CIFDUS_clean_linker_0, # of connection points: 2
#     Edge 11, Type (0, 0), BuildingBlock: CIFDUS_clean_linker_0, # of connection points: 2
#     Edge 12, Type (0, 0), BuildingBlock: CIFDUS_clean_linker_0, # of connection points: 2
#     Edge 13, Type (0, 0), BuildingBlock: CIFDUS_clean_linker_0, # of connection points: 2
#     Edge 14, Type (0, 0), BuildingBlock: CIFDUS_clean_linker_0, # of connection points: 2
#     Edge 15, Type (0, 0), BuildingBlock: CIFDUS_clean_linker_0, # of connection points: 2
#     Edge 16, Type (0, 0), BuildingBlock: CIFDUS_clean_linker_0, # of connection points: 2
#     Edge 17, Type (0, 0), BuildingBlock: CIFDUS_clean_linker_0, # of connection points: 2
#     Edge 18, Type (0, 0), BuildingBlock: CIFDUS_clean_linker_0, # of connection points: 2
#     Edge 19, Type (0, 0), BuildingBlock: CIFDUS_clean_linker_0, # of connection points: 2
#     Edge 20, Type (0, 0), BuildingBlock: CIFDUS_clean_linker_0, # of connection points: 2
#     Edge 21, Type (0, 0), BuildingBlock: CIFDUS_clean_linker_0, # of connection points: 2
#     Edge 22, Type (0, 0), BuildingBlock: CIFDUS_clean_linker_0, # of connection points: 2
#     Edge 23, Type (0, 0), BuildingBlock: CIFDUS_clean_linker_0, # of connection points: 2
#     Edge 24, Type (0, 0), BuildingBlock: CIFDUS_clean_linker_0, # of connection points: 2
#     Edge 25, Type (0, 0), BuildingBlock: CIFDUS_clean_linker_0, # of connection points: 2
#     Edge 26, Type (0, 0), BuildingBlock: CIFDUS_clean_linker_0, # of connection points: 2
#     Edge 27, Type (0, 0), BuildingBlock: CIFDUS_clean_linker_0, # of connection points: 2
#     Edge 28, Type (0, 0), BuildingBlock: CIFDUS_clean_linker_0, # of connection points: 2
#     Edge 29, Type (0, 0), BuildingBlock: CIFDUS_clean_linker_0, # of connection points: 2
#     Edge 30, Type (0, 0), BuildingBlock: CIFDUS_clean_linker_0, # of connection points: 2
#     Edge 31, Type (0, 0), BuildingBlock: CIFDUS_clean_linker_0, # of connection points: 2
# Relax obj value: 0.199
# Max RMSD: 0.205
# Mean RMSD: 0.198
data_MOF--net-ske--node1-BETGAK_clean_sbu_0--edge1-CIFDUS_clean_linker_0
_symmetry_space_group_name_H-M    P1
_symmetry_Int_Tables_number       1
_symmetry_cell_setting            triclinic
loop_
_symmetry_equiv_pos_as_xyz
'x, y, z'
_cell_length_a     95.853931
_cell_length_b     25.398778
_cell_length_c     13.553552
_cell_angle_alpha  90.874775
_cell_angle_beta   89.932978
_cell_angle_gamma 84.54685
loop_
_atom_site_label
_atom_site_type_symbol
_atom_site_fract_x
_atom_site_fract_y
_atom_site_fract_z
_atom_type_partial_charge
La0 La 0.16789 0.26191 0.54578 0.0
La1 La 0.13648 0.27035 0.56569 0.0
C2 C 0.1935 0.27887 0.5539 0.0
C3 C 0.20671 0.27034 0.6111 0.0
C4 C 0.21836 0.24095 0.56794 0.0
C5 C 0.23153 0.23848 0.61312 0.0
C6 C 0.23344 0.26568 0.70265 0.0
C7 C 0.22167 0.29425 0.74688 0.0
C8 C 0.20847 0.2965 0.70182 0.0
C9 C 0.15731 0.16989 0.54075 0.0
C10 C 0.15372 0.26511 0.76015 0.0
C11 C 0.11085 0.25486 0.5701 0.0
C12 C 0.09615 0.2586 0.53532 0.0
C13 C 0.08698 0.30453 0.55169 0.0
C14 C 0.07246 0.30311 0.54101 0.0
C15 C 0.06683 0.25564 0.51459 0.0
C16 C 0.07612 0.21071 0.49285 0.0
C17 C 0.09057 0.21216 0.50337 0.0
C18 C 0.1474 0.36266 0.56285 0.0
C19 C 0.15012 0.26492 0.35102 0.0
O20 O 0.18894 0.23812 0.5084 0.0
O21 O 0.18324 0.31073 0.59105 0.0
O22 O 0.16897 0.17915 0.49964 0.0
O23 O 0.15291 0.20935 0.59406 0.0
O24 O 0.16487 0.27222 0.70589 0.0
O25 O 0.14176 0.25529 0.71907 0.0
O26 O 0.1159 0.29607 0.61041 0.0
O27 O 0.12042 0.22371 0.52388 0.0
O28 O 0.13597 0.35403 0.60783 0.0
O29 O 0.15149 0.32175 0.51337 0.0
O30 O 0.13906 0.25818 0.4064 0.0
O31 O 0.16226 0.27509 0.39082 0.0
H32 H 0.21736 0.2209 0.49751 0.0
H33 H 0.24023 0.21536 0.57737 0.0
H34 H 0.22271 0.31636 0.81497 0.0
H35 H 0.19977 0.32008 0.73669 0.0
H36 H 0.09093 0.34079 0.57777 0.0
H37 H 0.06562 0.33841 0.55886 0.0
H38 H 0.07219 0.17374 0.47067 0.0
H39 H 0.09734 0.17593 0.49165 0.0
La40 La 0.88094 0.27134 0.56631 0.0
La41 La 0.91226 0.26078 0.55234 0.0
C42 C 0.85543 0.25572 0.58892 0.0
C43 C 0.842 0.26361 0.64466 0.0
C44 C 0.83121 0.30099 0.61304 0.0
C45 C 0.81767 0.3023 0.65304 0.0
C46 C 0.8145 0.26593 0.72532 0.0
C47 C 0.82541 0.22907 0.75772 0.0
C48 C 0.83894 0.22799 0.71812 0.0
C49 C 0.89176 0.36285 0.55024 0.0
C50 C 0.89911 0.26811 0.76452 0.0
C51 C 0.93808 0.26667 0.52923 0.0
C52 C 0.95327 0.2701 0.51562 0.0
C53 C 0.96243 0.22413 0.50092 0.0
C54 C 0.9769 0.22714 0.49327 0.0
C55 C 0.98258 0.27622 0.50136 0.0
C56 C 0.97331 0.32211 0.51655 0.0
C57 C 0.95884 0.31911 0.52296 0.0
C58 C 0.90081 0.17055 0.56943 0.0
C59 C 0.89439 0.26565 0.35561 0.0
O60 O 0.85967 0.29545 0.54054 0.0
O61 O 0.86592 0.22522 0.62517 0.0
O62 O 0.87949 0.35328 0.51949 0.0
O63 O 0.89699 0.32349 0.59809 0.0
O64 O 0.8867 0.26393 0.72321 0.0
O65 O 0.9104 0.27353 0.71084 0.0
O66 O 0.93256 0.22174 0.53417 0.0
O67 O 0.92894 0.30816 0.53305 0.0
O68 O 0.91254 0.18075 0.60875 0.0
O69 O 0.89617 0.20956 0.51884 0.0
O70 O 0.90637 0.2753 0.39761 0.0
O71 O 0.88364 0.25371 0.40935 0.0
H72 H 0.83311 0.32828 0.55494 0.0
H73 H 0.80969 0.3317 0.62666 0.0
H74 H 0.82342 0.19961 0.81152 0.0
H75 H 0.84687 0.19777 0.7425 0.0
H76 H 0.95843 0.1857 0.49563 0.0
H77 H 0.98358 0.19091 0.48019 0.0
H78 H 0.97719 0.36052 0.52556 0.0
H79 H 0.95205 0.35516 0.53568 0.0
La80 La 0.13683 0.76859 0.52423 0.0
La81 La 0.16828 0.76257 0.51227 0.0
C82 C 0.11137 0.75179 0.5368 0.0
C83 C 0.09665 0.76111 0.57022 0.0
C84 C 0.08899 0.81091 0.56321 0.0
C85 C 0.07442 0.81618 0.57679 0.0
C86 C 0.06718 0.77179 0.59742 0.0
C87 C 0.07499 0.72234 0.60703 0.0
C88 C 0.08953 0.71715 0.5935 0.0
C89 C 0.14713 0.862 0.51621 0.0
C90 C 0.15443 0.7671 0.72283 0.0
C91 C 0.19365 0.78058 0.49352 0.0
C92 C 0.20707 0.7729 0.43787 0.0
C93 C 0.21766 0.73402 0.46685 0.0
C94 C 0.23122 0.73266 0.42749 0.0
C95 C 0.2346 0.77041 0.35854 0.0
C96 C 0.2239 0.80866 0.32842 0.0
C97 C 0.21034 0.80984 0.36742 0.0
C98 C 0.1581 0.66951 0.52698 0.0
C99 C 0.15079 0.76114 0.31414 0.0
O100 O 0.11618 0.78589 0.47747 0.0
O101 O 0.12108 0.72877 0.59373 0.0
O102 O 0.13498 0.85207 0.48395 0.0
O103 O 0.15237 0.82183 0.56057 0.0
O104 O 0.14242 0.75735 0.68079 0.0
O105 O 0.16519 0.77926 0.66925 0.0
O106 O 0.18952 0.74036 0.54089 0.0
O107 O 0.18311 0.81085 0.45716 0.0
O108 O 0.17039 0.67973 0.5563 0.0
O109 O 0.15274 0.7086 0.47958 0.0
O110 O 0.16271 0.77201 0.35562 0.0
O111 O 0.14017 0.74865 0.36849 0.0
H112 H 0.09417 0.8454 0.54356 0.0
H113 H 0.06878 0.85476 0.56738 0.0
H114 H 0.06986 0.68738 0.62402 0.0
H115 H 0.09517 0.67818 0.59745 0.0
H116 H 0.21561 0.70557 0.52253 0.0
H117 H 0.23907 0.70217 0.45184 0.0
H118 H 0.22608 0.83909 0.27711 0.0
H119 H 0.20256 0.84111 0.34516 0.0
La120 La 0.91375 0.76297 0.52792 0.0
La121 La 0.88226 0.76864 0.51512 0.0
C122 C 0.93909 0.78108 0.54027 0.0
C123 C 0.95386 0.77358 0.57191 0.0
C124 C 0.96095 0.72312 0.58364 0.0
C125 C 0.97558 0.71709 0.59335 0.0
C126 C 0.98347 0.76125 0.58942 0.0
C127 C 0.97617 0.81181 0.58149 0.0
C128 C 0.96156 0.81779 0.57337 0.0
C129 C 0.90351 0.66926 0.51759 0.0
C130 C 0.89601 0.76505 0.72595 0.0
C131 C 0.85702 0.74993 0.4928 0.0
C132 C 0.8437 0.75844 0.43731 0.0
C133 C 0.83296 0.79602 0.47099 0.0
C134 C 0.81936 0.79631 0.43322 0.0
C135 C 0.81617 0.7589 0.36099 0.0
C136 C 0.82712 0.72317 0.32387 0.0
C137 C 0.84068 0.72273 0.36194 0.0
C138 C 0.89222 0.86186 0.53296 0.0
C139 C 0.89992 0.76896 0.31737 0.0
O140 O 0.93445 0.74528 0.48187 0.0
O141 O 0.92931 0.80502 0.59709 0.0
O142 O 0.91589 0.67834 0.48901 0.0
O143 O 0.89814 0.71013 0.56139 0.0
O144 O 0.90802 0.7751 0.68463 0.0
O145 O 0.88532 0.75228 0.67154 0.0
O146 O 0.86095 0.78877 0.54732 0.0
O147 O 0.86766 0.72174 0.45146 0.0
O148 O 0.87993 0.8515 0.5616 0.0
O149 O 0.89776 0.82251 0.4846 0.0
O150 O 0.88794 0.75881 0.35826 0.0
O151 O 0.9106 0.78089 0.37225 0.0
H152 H 0.95526 0.68826 0.58173 0.0
H153 H 0.98071 0.67758 0.60169 0.0
H154 H 0.98172 0.84684 0.5765 0.0
H155 H 0.95632 0.857 0.56252 0.0
H156 H 0.83487 0.82351 0.53026 0.0
H157 H 0.81122 0.82414 0.46448 0.0
H158 H 0.82516 0.69448 0.26688 0.0
H159 H 0.84864 0.69277 0.33521 0.0
La160 La 0.66957 0.76511 0.05851 0.0
La161 La 0.63746 0.76914 0.0427 0.0
C162 C 0.69392 0.79401 0.07189 0.0
C163 C 0.70755 0.78533 0.12372 0.0
C164 C 0.71825 0.7481 0.08798 0.0
C165 C 0.73192 0.74745 0.125 0.0
C166 C 0.7352 0.78411 0.19838 0.0
C167 C 0.7243 0.81935 0.23745 0.0
C168 C 0.71069 0.82013 0.2003 0.0
C169 C 0.66242 0.66619 0.06254 0.0
C170 C 0.65116 0.76346 0.25404 0.0
C171 C 0.6119 0.75922 1.02196 0.0
C172 C 0.59677 0.75409 1.00929 0.0
C173 C 0.58765 0.79762 0.97992 0.0
C174 C 0.57313 0.79486 0.97976 0.0
C175 C 0.56741 0.74838 1.00862 0.0
C176 C 0.57665 0.70433 1.03454 0.0
C177 C 0.59114 0.7073 0.03558 0.0
C178 C 0.64806 0.86137 0.07218 0.0
C179 C 0.65559 0.76255 0.84679 0.0
O180 O 0.69046 0.75738 1.00968 0.0
O181 O 0.68312 0.81597 0.12219 0.0
O182 O 0.67501 0.67998 0.07021 0.0
O183 O 0.65429 0.70835 0.0551 0.0
O184 O 0.66329 0.77303 0.21423 0.0
O185 O 0.64006 0.75546 0.19983 0.0
O186 O 0.61792 0.79913 0.98653 0.0
O187 O 0.62051 0.72323 0.06448 0.0
O188 O 0.63614 0.84977 0.106 0.0
O189 O 0.65305 0.82312 1.01892 0.0
O190 O 0.64351 0.75354 0.88812 0.0
O191 O 0.66655 0.7736 0.90002 0.0
H192 H 0.71624 0.72104 1.02825 0.0
H193 H 0.74002 0.71992 0.09256 0.0
H194 H 0.72633 0.8474 0.29542 0.0
H195 H 0.70275 0.8496 0.22897 0.0
H196 H 0.5917 0.8345 0.96042 0.0
H197 H 0.56641 0.82986 0.96049 0.0
H198 H 0.57271 0.66748 0.05513 0.0
H199 H 0.5979 0.67319 0.05891 0.0
La200 La 0.38303 0.76637 0.06695 0.0
La201 La 0.41355 0.76356 0.05758 0.0
C202 C 0.35766 0.74822 0.08814 0.0
C203 C 0.34429 0.75657 0.14442 0.0
C204 C 0.33371 0.79548 0.11537 0.0
C205 C 0.32017 0.79718 0.15536 0.0
C206 C 0.3168 0.75974 0.22497 0.0
C207 C 0.3275 0.72153 0.25527 0.0
C208 C 0.34104 0.72004 0.21569 0.0
C209 C 0.39224 0.86174 0.04974 0.0
C210 C 0.39991 0.77196 0.26635 0.0
C211 C 0.43902 0.78002 0.04444 0.0
C212 C 0.45383 0.77304 1.01255 0.0
C213 C 0.46253 0.72668 1.03268 0.0
C214 C 0.47707 0.72502 1.01911 0.0
C215 C 0.48323 0.7698 0.98591 0.0
C216 C 0.4744 0.81568 0.96444 0.0
C217 C 0.45991 0.81714 0.97729 0.0
C218 C 0.40461 0.66757 0.0734 0.0
C219 C 0.39655 0.76085 0.85744 0.0
O220 O 0.36172 0.7876 0.03816 0.0
O221 O 0.36826 0.71884 0.12551 0.0
O222 O 0.38043 0.84855 1.01662 0.0
O223 O 0.39775 0.82405 0.10017 0.0
O224 O 0.38836 0.75796 0.22425 0.0
O225 O 0.41021 0.78671 0.2117 0.0
O226 O 0.43429 0.74468 0.10116 0.0
O227 O 0.42926 0.80445 0.98988 0.0
O228 O 0.41573 0.68342 0.11251 0.0
O229 O 0.39902 0.7049 1.02162 0.0
O230 O 0.4083 0.77266 0.90006 0.0
O231 O 0.38595 0.74765 0.91101 0.0
H232 H 0.33574 0.82366 0.05914 0.0
H233 H 0.31233 0.82766 0.13087 0.0
H234 H 0.32534 0.69133 0.30709 0.0
H235 H 0.34881 0.68876 0.23808 0.0
H236 H 0.45817 0.69224 0.0617 0.0
H237 H 0.48347 0.68877 0.03546 0.0
H238 H 0.4787 0.85137 0.94103 0.0
H239 H 0.4535 0.85379 0.96387 0.0
La240 La 0.63568 0.2678 0.98499 0.0
La241 La 0.66583 0.26658 1.00854 0.0
C242 C 0.61015 0.24929 0.98016 0.0
C243 C 0.59528 0.26187 1.01053 0.0
C244 C 0.58736 0.30743 0.97641 0.0
C245 C 0.57275 0.3133 0.98655 0.0
C246 C 0.56561 0.27406 1.03192 0.0
C247 C 0.57363 0.22934 0.06903 0.0
C248 C 0.58826 0.22328 0.05805 0.0
C249 C 0.64426 0.3648 0.98236 0.0
C250 C 0.64864 0.26988 0.2019 0.0
C251 C 0.69164 0.28176 1.00544 0.0
C252 C 0.70503 0.27573 0.94864 0.0
C253 C 0.71582 0.23758 0.97721 0.0
C254 C 0.72931 0.23683 0.93683 0.0
C255 C 0.73243 0.27431 0.86658 0.0
C256 C 0.7215 0.31164 0.83622 0.0
C257 C 0.708 0.31234 0.87661 0.0
C258 C 0.65648 0.17117 1.01638 0.0
C259 C 0.65318 0.26266 0.79279 0.0
O260 O 0.61575 0.28266 0.92358 0.0
O261 O 0.61927 0.22608 0.04109 0.0
O262 O 0.63403 0.34844 0.93271 0.0
O263 O 0.64901 0.32761 0.03788 0.0
O264 O 0.63798 0.25886 0.1456 0.0
O265 O 0.66038 0.28304 0.16228 0.0
O266 O 0.68678 0.23903 0.03817 0.0
O267 O 0.68155 0.31675 0.97773 0.0
O268 O 0.6666 0.18687 0.06835 0.0
O269 O 0.65237 0.20752 0.95759 0.0
O270 O 0.66356 0.27622 0.84869 0.0
O271 O 0.64176 0.24735 0.83337 0.0
H272 H 0.59236 0.3376 0.93767 0.0
H273 H 0.56705 0.34782 0.95502 0.0
H274 H 0.56863 0.19851 0.10563 0.0
H275 H 0.59403 0.18729 0.08342 0.0
H276 H 0.71395 0.20918 1.03342 0.0
H277 H 0.73732 0.20695 0.96129 0.0
H278 H 0.72345 0.34167 0.78348 0.0
H279 H 0.70003 0.3428 0.85379 0.0
La280 La 0.41189 0.26615 0.99539 0.0
La281 La 0.37945 0.2688 1.01204 0.0
C282 C 0.43716 0.2878 0.99312 0.0
C283 C 0.45217 0.27279 1.01582 0.0
C284 C 0.45993 0.23132 0.96423 0.0
C285 C 0.47458 0.22453 0.97116 0.0
C286 C 0.48191 0.25871 1.03042 0.0
C287 C 0.47405 0.29909 0.08453 0.0
C288 C 0.4594 0.30609 0.07698 0.0
C289 C 0.40198 0.17107 0.9981 0.0
C290 C 0.39742 0.27212 0.209 0.0
C291 C 0.35492 0.24061 1.00924 0.0
C292 C 0.34129 0.25082 0.95717 0.0
C293 C 0.32985 0.27979 1.00399 0.0
C294 C 0.31652 0.28385 0.96053 0.0
C295 C 0.31425 0.25868 0.86933 0.0
C296 C 0.32579 0.23033 0.82213 0.0
C297 C 0.3391 0.22664 0.86512 0.0
C298 C 0.3866 0.36712 0.987 0.0
C299 C 0.39384 0.27055 0.8025 0.0
O300 O 0.43131 0.26133 0.92351 0.0
O301 O 0.42838 0.30262 0.06462 0.0
O302 O 0.41392 0.18061 0.96105 0.0
O303 O 0.39705 0.21278 0.04218 0.0
O304 O 0.40885 0.27594 0.15499 0.0
O305 O 0.38506 0.2647 0.16897 0.0
O306 O 0.35888 0.27743 0.06928 0.0
O307 O 0.36543 0.21742 0.95786 0.0
O308 O 0.37394 0.35419 0.99481 0.0
O309 O 0.39455 0.32459 0.99091 0.0
O310 O 0.38348 0.25457 0.85513 0.0
O311 O 0.40518 0.2863 0.84507 0.0
H312 H 0.45477 0.20537 0.91506 0.0
H313 H 0.48016 0.19356 0.92676 0.0
H314 H 0.4792 0.32583 0.13211 0.0
H315 H 0.45374 0.33893 0.11634 0.0
H316 H 0.33113 0.29843 0.0754 0.0
H317 H 0.30799 0.30666 0.99875 0.0
H318 H 0.32451 0.20947 0.75297 0.0
H319 H 0.34758 0.20338 0.8272 0.0
H320 H 0.25895 0.26682 0.61107 0.0
H321 H 0.24001 0.26246 0.89972 0.0
H322 H 0.26304 0.26153 0.97625 0.0
H323 H 0.28867 0.25911 0.96176 0.0
H324 H 0.3075 0.26431 0.67274 0.0
H325 H 0.2845 0.26541 0.59663 0.0
C326 C 0.25982 0.26499 0.69071 0.0
C327 C 0.24763 0.26466 0.74913 0.0
C328 C 0.27315 0.26393 0.73458 0.0
C329 C 0.24909 0.26348 0.85245 0.0
C330 C 0.26231 0.26255 0.8965 0.0
C331 C 0.28779 0.26125 0.88217 0.0
C332 C 0.29997 0.26136 0.82359 0.0
C333 C 0.27443 0.26266 0.83836 0.0
C334 C 0.29845 0.26317 0.72028 0.0
C335 C 0.28524 0.26423 0.67637 0.0
H336 H 0.75766 0.25324 0.9619 0.0
H337 H 0.74015 0.29673 0.67788 0.0
H338 H 0.76364 0.29948 0.6105 0.0
H339 H 0.78926 0.28729 0.62995 0.0
H340 H 0.80674 0.24449 0.91447 0.0
H341 H 0.78327 0.24169 0.98168 0.0
C342 C 0.75892 0.26271 0.88489 0.0
C343 C 0.74698 0.27485 0.82553 0.0
C344 C 0.77255 0.26377 0.84585 0.0
C345 C 0.74902 0.28799 0.7263 0.0
C346 C 0.76251 0.28921 0.68722 0.0
C347 C 0.788 0.27803 0.70705 0.0
C348 C 0.79994 0.2659 0.76644 0.0
C349 C 0.77437 0.27715 0.74618 0.0
C350 C 0.79789 0.25307 0.86585 0.0
C351 C 0.78441 0.25185 0.9049 0.0
H352 H 0.29183 0.78353 0.12848 0.0
H353 H 0.30872 0.73577 0.41213 0.0
H354 H 0.2851 0.73321 0.47692 0.0
H355 H 0.25956 0.74669 0.45529 0.0
H356 H 0.24269 0.79456 0.17166 0.0
H357 H 0.26631 0.79713 0.10692 0.0
C358 C 0.29041 0.77327 0.20493 0.0
C359 C 0.30221 0.75979 0.26486 0.0
C360 C 0.27672 0.77248 0.24255 0.0
C361 C 0.29996 0.74555 0.36326 0.0
C362 C 0.2864 0.74444 0.40088 0.0
C363 C 0.26099 0.75701 0.37887 0.0
C364 C 0.2492 0.7705 0.31889 0.0
C365 C 0.27469 0.75783 0.34129 0.0
C366 C 0.25144 0.78478 0.22053 0.0
C367 C 0.265 0.78589 0.18295 0.0
H368 H 0.75585 0.70346 0.22717 0.0
H369 H 0.748 0.87367 0.2401 0.0
H370 H 0.77203 0.88094 0.29246 0.0
H371 H 0.79552 0.83946 0.33114 0.0
H372 H 0.80337 0.66921 0.31924 0.0
H373 H 0.77935 0.66193 0.26654 0.0
C374 C 0.7594 0.7422 0.24063 0.0
C375 C 0.74999 0.78784 0.23037 0.0
C376 C 0.77336 0.74629 0.26973 0.0
C377 C 0.75484 0.83765 0.24932 0.0
C378 C 0.76866 0.84197 0.2785 0.0
C379 C 0.79198 0.80069 0.31789 0.0
C380 C 0.8014 0.75506 0.32841 0.0
C381 C 0.77803 0.79658 0.28891 0.0
C382 C 0.79655 0.70523 0.30968 0.0
C383 C 0.78272 0.70091 0.28035 0.0
H384 H 0.13143 0.95336 0.4787 0.0
H385 H 0.17182 0.89256 0.58974 0.0
H386 H 0.1783 0.98316 0.6128 0.0
H387 H 0.17263 0.08 0.5952 0.0
H388 H 0.13206 0.13867 0.48611 0.0
H389 H 0.12531 0.04897 0.47093 0.0
C390 C 0.14166 0.95987 0.50812 0.0
C391 C 0.1512 0.91635 0.53133 0.0
C392 C 0.14516 1.01183 0.52301 0.0
C393 C 0.16435 0.92544 0.57036 0.0
C394 C 0.16803 0.97721 0.58387 0.0
C395 C 0.16222 0.07296 0.57005 0.0
C396 C 0.15263 0.11619 0.54518 0.0
C397 C 0.15853 0.02075 0.55988 0.0
C398 C 0.13932 0.10666 0.51066 0.0
C399 C 0.13558 0.05506 0.49993 0.0
H400 H 0.87532 0.45508 0.54095 0.0
H401 H 0.91839 0.39318 0.5742 0.0
H402 H 0.92591 0.48181 0.56089 0.0
H403 H 0.92014 0.5775 0.53598 0.0
H404 H 0.87684 0.64073 0.53346 0.0
H405 H 0.8694 0.5515 0.53963 0.0
C406 C 0.88636 0.46096 0.54562 0.0
C407 C 0.89636 0.41699 0.5544 0.0
C408 C 0.8905 0.51256 0.5435 0.0
C409 C 0.91055 0.42563 0.56357 0.0
C410 C 0.91483 0.47662 0.55688 0.0
C411 C 0.90907 0.57167 0.53673 0.0
C412 C 0.89902 0.61559 0.5301 0.0
C413 C 0.90489 0.52034 0.54564 0.0
C414 C 0.88475 0.60764 0.53491 0.0
C415 C 0.8805 0.55655 0.53925 0.0
H416 H 0.87503 0.95204 0.52721 0.0
H417 H 0.91874 0.89377 0.52948 0.0
H418 H 0.92527 0.98463 0.54334 0.0
H419 H 0.91833 0.08048 0.56194 0.0
H420 H 0.87475 0.13864 0.53874 0.0
H421 H 0.86829 0.04787 0.52572 0.0
C422 C 0.886 0.95927 0.53016 0.0
C423 C 0.89641 0.9163 0.52958 0.0
C424 C 0.88963 1.0115 0.5349 0.0
C425 C 0.91056 0.92615 0.53116 0.0
C426 C 0.91427 0.97809 0.5391 0.0
C427 C 0.90742 0.07319 0.55401 0.0
C428 C 0.89695 0.11606 0.55444 0.0
C429 C 0.90387 0.02101 0.54249 0.0
C430 C 0.88292 0.1063 0.54096 0.0
C431 C 0.87925 0.05441 0.53306 0.0
H432 H 0.17453 0.57747 0.50826 0.0
H433 H 0.13138 0.64032 0.53758 0.0
H434 H 0.12426 0.55084 0.55404 0.0
H435 H 0.13059 0.45465 0.5673 0.0
H436 H 0.17322 0.39142 0.51154 0.0
H437 H 0.18036 0.48086 0.49825 0.0
C438 C 0.16355 0.57149 0.51752 0.0
C439 C 0.1535 0.61553 0.52412 0.0
C440 C 0.15952 0.51981 0.52288 0.0
C441 C 0.1393 0.60725 0.53383 0.0
C442 C 0.13525 0.55601 0.54316 0.0
C443 C 0.14144 0.46049 0.552 0.0
C444 C 0.1515 0.41643 0.54443 0.0
C445 C 0.14531 0.51203 0.53923 0.0
C446 C 0.1654 0.42451 0.52122 0.0
C447 C 0.16945 0.47574 0.51278 0.0
H448 H 0.6395 0.61691 0.99077 0.0
H449 H 0.67916 0.58703 0.13919 0.0
H450 H 0.67733 0.49236 0.13143 0.0
H451 H 0.66502 0.41578 0.07637 0.0
H452 H 0.62575 0.44499 0.92268 0.0
H453 H 0.62682 0.53995 0.93948 0.0
C454 C 0.64758 0.58969 1.02293 0.0
C455 C 0.65941 0.60953 0.06603 0.0
C456 C 0.64661 0.53421 1.01685 0.0
C457 C 0.66989 0.57322 0.10567 0.0
C458 C 0.6689 0.51869 0.10115 0.0
C459 C 0.65667 0.44295 0.0472 0.0
C460 C 0.64534 0.42275 0.99821 0.0
C461 C 0.65741 0.49838 0.05586 0.0
C462 C 0.63468 0.45897 0.96041 0.0
C463 C 0.63524 0.51369 0.97005 0.0
H464 H 0.37523 0.95372 0.05071 0.0
H465 H 0.41877 0.89361 0.04931 0.0
H466 H 0.42562 0.9833 1.02937 0.0
H467 H 0.41911 0.07914 1.00639 0.0
H468 H 0.37586 0.14017 0.03809 0.0
H469 H 0.36897 0.05054 0.05143 0.0
C470 C 0.38623 0.96032 0.04658 0.0
C471 C 0.39648 0.9167 0.049 0.0
C472 C 0.3901 1.0124 0.03959 0.0
C473 C 0.41067 0.92612 0.04596 0.0
C474 C 0.41459 0.97756 1.03469 0.0
C475 C 0.40817 0.07285 1.01628 0.0
C476 C 0.39792 0.11664 1.0164 0.0
C477 C 0.40438 0.02102 1.03017 0.0
C478 C 0.38389 0.10762 1.03313 0.0
C479 C 0.37996 0.05611 0.04199 0.0
H480 H 0.40868 0.41586 0.06903 0.0
H481 H 0.37108 0.44515 0.89697 0.0
H482 H 0.3729 0.54019 0.90601 0.0
H483 H 0.3846 0.61691 0.9695 0.0
H484 H 0.4216 0.58733 0.14858 0.0
H485 H 0.42061 0.4925 0.13005 0.0
C486 C 0.40113 0.44303 1.0315 0.0
C487 C 0.38988 0.42318 0.98082 0.0
C488 C 0.402 0.49843 0.03937 0.0
C489 C 0.37994 0.45928 0.93539 0.0
C490 C 0.3809 0.51387 0.94107 0.0
C491 C 0.39243 0.58967 1.00428 0.0
C492 C 0.40315 0.60974 0.06038 0.0
C493 C 0.39177 0.53425 0.99415 0.0
C494 C 0.41318 0.57346 0.10499 0.0
C495 C 0.41267 0.51881 0.09431 0.0
H496 H 0.66882 0.08909 0.11935 0.0
H497 H 0.63664 0.12672 0.90294 0.0
H498 H 0.63151 0.03366 0.89761 0.0
H499 H 0.63593 0.94117 0.9586 0.0
H500 H 0.66844 0.90543 0.17315 0.0
H501 H 0.67381 0.99771 0.17452 0.0
C502 C 0.66069 0.07702 0.07071 0.0
C503 C 0.65311 0.11499 1.01168 0.0
C504 C 0.65792 0.02351 0.06753 0.0
C505 C 0.64262 0.09845 0.94919 0.0
C506 C 0.6397 0.04517 0.94614 0.0
C507 C 0.64428 0.95373 1.00476 0.0
C508 C 0.65191 0.91645 0.06515 0.0
C509 C 0.64726 1.00728 1.00531 0.0
C510 C 0.66262 0.93309 0.12498 0.0
C511 C 0.6656 0.986 0.1263 0.0
H512 H 0.16998 0.27486 0.21026 0.0
H513 H 0.12618 0.25311 0.24656 0.0
H514 H 0.12315 0.25112 0.06785 0.0
H515 H 0.13318 0.25514 0.89912 0.0
H516 H 0.17712 0.27722 0.86728 0.0
H517 H 0.17976 0.27913 0.04523 0.0
C518 C 0.15978 0.26941 0.17929 0.0
C519 C 0.14839 0.26393 0.24213 0.0
C520 C 0.15812 0.26789 0.07637 0.0
C521 C 0.13521 0.25724 0.20015 0.0
C522 C 0.13345 0.25597 0.09763 0.0
C523 C 0.14336 0.26 0.93114 0.0
C524 C 0.15498 0.26566 0.86927 0.0
C525 C 0.14488 0.26108 1.03469 0.0
C526 C 0.16801 0.27251 0.91244 0.0
C527 C 0.16956 0.27357 1.01456 0.0
H528 H 0.91475 0.2773 0.21792 0.0
H529 H 0.87098 0.25285 0.24684 0.0
H530 H 0.86851 0.25159 0.06798 0.0
H531 H 0.87871 0.25725 0.90236 0.0
H532 H 0.92254 0.28098 0.87342 0.0
H533 H 0.92497 0.28263 0.05223 0.0
C534 C 0.90466 0.27177 0.18522 0.0
C535 C 0.89308 0.26519 0.2463 0.0
C536 C 0.90329 0.2709 0.08175 0.0
C537 C 0.88011 0.25792 0.20211 0.0
C538 C 0.87866 0.25722 0.09951 0.0
C539 C 0.8888 0.26285 0.93502 0.0
C540 C 0.90039 0.26908 0.87389 0.0
C541 C 0.89017 0.26364 0.03848 0.0
C542 C 0.91339 0.27612 0.9181 0.0
C543 C 0.91482 0.27708 1.02071 0.0
H544 H 0.17045 0.77925 0.17514 0.0
H545 H 0.1278 0.74043 0.20674 0.0
H546 H 0.12508 0.73894 1.02811 0.0
H547 H 0.13473 0.74866 0.86168 0.0
H548 H 0.17739 0.78746 0.83053 0.0
H549 H 0.18009 0.78889 1.00899 0.0
C550 C 0.16057 0.77037 0.14308 0.0
C551 C 0.14939 0.75982 0.20487 0.0
C552 C 0.15902 0.7696 0.03974 0.0
C553 C 0.13664 0.74854 0.16147 0.0
C554 C 0.13504 0.74772 0.05898 0.0
C555 C 0.14461 0.75745 0.89384 0.0
C556 C 0.1558 0.76797 0.83213 0.0
C557 C 0.14615 0.75819 0.99723 0.0
C558 C 0.16855 0.77925 0.87565 0.0
C559 C 0.17014 0.78007 0.97808 0.0
H560 H 0.91585 0.78198 0.86535 0.0
H561 H 0.87295 0.74594 0.83294 0.0
H562 H 0.87031 0.74415 1.01144 0.0
H563 H 0.88008 0.75264 0.1779 0.0
H564 H 0.92298 0.78862 0.2106 0.0
H565 H 0.92562 0.79059 1.032 0.0
C566 C 0.90592 0.77376 0.89723 0.0
C567 C 0.89465 0.76412 0.8352 0.0
C568 C 0.90442 0.77276 1.00059 0.0
C569 C 0.88186 0.75348 0.87835 0.0
C570 C 0.8803 0.75245 0.98079 0.0
C571 C 0.89001 0.76095 0.14608 0.0
C572 C 0.90129 0.77049 0.20817 0.0
C573 C 0.89151 0.76202 0.04276 0.0
C574 C 0.91407 0.78119 0.1651 0.0
C575 C 0.91563 0.78231 0.06263 0.0
H576 H 0.67134 0.77512 0.39394 0.0
H577 H 0.62781 0.74745 0.36187 0.0
H578 H 0.6253 0.74428 0.54052 0.0
H579 H 0.63536 0.7496 0.7073 0.0
H580 H 0.67891 0.77727 0.73864 0.0
H581 H 0.6814 0.78014 0.56023 0.0
C582 C 0.66129 0.76839 0.42579 0.0
C583 C 0.64981 0.76157 0.36363 0.0
C584 C 0.65988 0.76653 0.52924 0.0
C585 C 0.63688 0.75284 0.40713 0.0
C586 C 0.63541 0.75101 0.50972 0.0
C587 C 0.64541 0.75604 0.67523 0.0
C588 C 0.65691 0.76298 0.73718 0.0
C589 C 0.64682 0.75777 0.5717 0.0
C590 C 0.66983 0.77163 0.69355 0.0
C591 C 0.6713 0.77335 0.59106 0.0
H592 H 0.41578 0.78485 0.71923 0.0
H593 H 0.37409 0.73569 0.74898 0.0
H594 H 0.37137 0.73513 0.57047 0.0
H595 H 0.38073 0.74838 0.40468 0.0
H596 H 0.42238 0.79768 0.37438 0.0
H597 H 0.42513 0.79833 0.5531 0.0
C598 C 0.40611 0.77389 0.68674 0.0
C599 C 0.39521 0.76014 0.74807 0.0
C600 C 0.40455 0.77375 0.58332 0.0
C601 C 0.38273 0.7463 0.70415 0.0
C602 C 0.38112 0.74601 0.60169 0.0
C603 C 0.3904 0.75943 0.43707 0.0
C604 C 0.40128 0.7732 0.37565 0.0
C605 C 0.39195 0.75967 0.54042 0.0
C606 C 0.41376 0.78716 0.41941 0.0
C607 C 0.41537 0.78745 0.52193 0.0
H608 H 0.66868 0.28289 0.34177 0.0
H609 H 0.6255 0.25074 0.30806 0.0
H610 H 0.6231 0.24472 0.48648 0.0
H611 H 0.63318 0.24868 0.65316 0.0
H612 H 0.67634 0.28111 0.68666 0.0
H613 H 0.67876 0.28675 0.50825 0.0
C614 C 0.65871 0.27479 0.37333 0.0
C615 C 0.64727 0.26758 0.31105 0.0
C616 C 0.65739 0.27117 0.47648 0.0
C617 C 0.63449 0.25668 0.35377 0.0
C618 C 0.6331 0.25313 0.45609 0.0
C619 C 0.64315 0.25667 0.62147 0.0
C620 C 0.65458 0.26418 0.68367 0.0
C621 C 0.64447 0.26021 0.51829 0.0
C622 C 0.66736 0.27501 0.64095 0.0
C623 C 0.66877 0.27833 0.53864 0.0
H624 H 0.37736 0.26022 0.34996 0.0
H625 H 0.42085 0.28796 0.31589 0.0
H626 H 0.42363 0.29079 0.49431 0.0
H627 H 0.41384 0.28505 0.66198 0.0
H628 H 0.37042 0.25629 0.69537 0.0
H629 H 0.3676 0.25444 0.51703 0.0
C630 C 0.38745 0.267 0.38136 0.0
C631 C 0.39885 0.27397 0.31863 0.0
C632 C 0.38904 0.26848 0.48486 0.0
C633 C 0.41184 0.28249 0.36157 0.0
C634 C 0.41347 0.28415 0.4641 0.0
C635 C 0.40374 0.27861 0.63033 0.0
C636 C 0.39238 0.27087 0.69287 0.0
C637 C 0.40216 0.27722 0.52673 0.0
C638 C 0.37941 0.26224 0.64978 0.0
C639 C 0.37775 0.26119 0.54732 0.0
H640 H 0.04574 0.32737 0.4497 0.0
H641 H 0.05311 0.17472 0.58578 0.0
H642 H 0.028 0.16711 0.59195 0.0
H643 H 1.00389 0.20474 0.5644 0.0
H644 H 0.99638 0.35592 0.42238 0.0
H645 H 1.02147 0.36375 0.41671 0.0
C646 C 0.04185 0.29255 0.48109 0.0
C647 C 0.05139 0.25158 0.51653 0.0
C648 C 0.02731 0.28836 0.48483 0.0
C649 C 0.0461 0.20653 0.55619 0.0
C650 C 0.0317 0.20225 0.56054 0.0
C651 C 1.00766 0.23909 0.53058 0.0
C652 C 0.99806 0.27978 0.4946 0.0
C653 C 1.02219 0.24296 0.52531 0.0
C654 C 1.00336 0.32434 0.45291 0.0
C655 C 1.01778 0.32874 0.4487 0.0
H656 H 1.00198 0.82805 0.66493 0.0
H657 H 1.00068 0.67938 0.50727 0.0
H658 H 0.02613 0.66861 0.50001 0.0
H659 H 0.04885 0.70276 0.53131 0.0
H660 H 0.05022 0.85255 0.68411 0.0
H661 H 0.02471 0.86232 0.69591 0.0
C662 C 1.00718 0.79343 0.62804 0.0
C663 C 0.9992 0.75445 0.58758 0.0
C664 C 1.02193 0.78794 0.62167 0.0
C665 C 1.00636 0.70961 0.54154 0.0
C666 C 1.021 0.70359 0.5362 0.0
C667 C 0.04362 0.73726 0.56847 0.0
C668 C 0.05156 0.77685 0.60672 0.0
C669 C 0.02889 0.74259 0.57553 0.0
C670 C 0.04446 0.82171 0.65274 0.0
C671 C 0.02983 0.8272 0.66016 0.0
H672 H 0.54691 0.79503 0.88849 0.0
H673 H 0.55282 0.69758 0.14633 0.0
H674 H 0.52763 0.69386 0.15968 0.0
H675 H 0.50378 0.7208 0.10259 0.0
H676 H 0.49783 0.81843 0.84504 0.0
H677 H 0.52305 0.82137 0.83057 0.0
C678 C 0.54273 0.77336 0.94827 0.0
C679 C 0.5519 0.74635 1.01576 0.0
C680 C 0.52813 0.77199 0.95676 0.0
C681 C 0.54615 0.71789 0.09176 0.0
C682 C 0.53168 0.71611 0.1002 0.0
C683 C 0.50796 0.74206 0.04223 0.0
C684 C 0.49877 0.76942 0.97523 0.0
C685 C 0.52256 0.7431 1.0333 0.0
C686 C 0.50452 0.79763 0.8989 0.0
C687 C 0.51901 0.79906 0.88996 0.0
H688 H 0.49991 0.33665 0.04689 0.0
H689 H 0.49961 0.167 1.02166 0.0
H690 H 0.52511 0.15687 1.01855 0.0
H691 H 0.54762 0.19584 1.01985 0.0
H692 H 0.54791 0.3649 0.05838 0.0
H693 H 0.52242 0.37509 0.05956 0.0
C694 C 0.50535 0.29728 0.04237 0.0
C695 C 0.49764 0.25275 1.03375 0.0
C696 C 0.52013 0.29147 0.04247 0.0
C697 C 0.5051 0.20228 1.02622 0.0
C698 C 0.51976 0.19632 1.02522 0.0
C699 C 0.54218 0.23493 1.03024 0.0
C700 C 0.54989 0.27952 0.03815 0.0
C701 C 0.5274 0.24062 1.03284 0.0
C702 C 0.54243 0.32978 0.0498 0.0
C703 C 0.52777 0.33572 0.05132 0.0
loop_
_geom_bond_atom_site_label_1
_geom_bond_atom_site_label_2
_geom_bond_distance
_geom_bond_site_symmetry_2
_ccdc_geom_bond_type
La0 C2 2.928 . S
La0 O20 2.521 . S
La0 O21 2.628 . S
La0 O22 2.554 . S
La0 O23 2.757 . S
La0 O24 2.470 . S
La0 O29 2.482 . S
La0 O31 2.503 . S
La1 C11 2.928 . S
La1 O23 2.482 . S
La1 O25 2.503 . S
La1 O26 2.521 . S
La1 O27 2.628 . S
La1 O28 2.554 . S
La1 O29 2.757 . S
La1 O30 2.470 . S
C2 La0 2.928 . S
C2 C3 1.503 . S
C2 O20 1.261 . S
C2 O21 1.243 . S
C3 C2 1.503 . S
C3 C4 1.394 . S
C3 C8 1.373 . S
C4 C3 1.394 . S
C4 C5 1.380 . S
C4 H32 0.930 . S
C5 C4 1.380 . S
C5 C6 1.376 . S
C5 H33 0.930 . S
C6 C5 1.376 . S
C6 C7 1.370 . S
C7 C6 1.370 . S
C7 C8 1.396 . S
C7 H34 0.929 . S
C8 C3 1.373 . S
C8 C7 1.396 . S
C8 H35 0.929 . S
C9 O22 1.240 . S
C9 O23 1.289 . S
C10 O24 1.258 . S
C10 O25 1.256 . S
C11 La1 2.928 . S
C11 C12 1.503 . S
C11 O26 1.261 . S
C11 O27 1.243 . S
C12 C11 1.503 . S
C12 C13 1.394 . S
C12 C17 1.373 . S
C13 C12 1.394 . S
C13 C14 1.380 . S
C13 H36 0.930 . S
C14 C13 1.380 . S
C14 C15 1.376 . S
C14 H37 0.930 . S
C15 C14 1.376 . S
C15 C16 1.370 . S
C16 C15 1.370 . S
C16 C17 1.396 . S
C16 H38 0.929 . S
C17 C12 1.373 . S
C17 C16 1.396 . S
C17 H39 0.929 . S
C18 O28 1.240 . S
C18 O29 1.289 . S
C19 O30 1.258 . S
C19 O31 1.256 . S
O20 La0 2.521 . S
O20 C2 1.261 . S
O21 La0 2.628 . S
O21 C2 1.243 . S
O22 La0 2.554 . S
O22 C9 1.240 . S
O23 La0 2.757 . S
O23 La1 2.482 . S
O23 C9 1.289 . S
O24 La0 2.470 . S
O24 C10 1.258 . S
O25 La1 2.503 . S
O25 C10 1.256 . S
O26 La1 2.521 . S
O26 C11 1.261 . S
O27 La1 2.628 . S
O27 C11 1.243 . S
O28 La1 2.554 . S
O28 C18 1.240 . S
O29 La0 2.482 . S
O29 La1 2.757 . S
O29 C18 1.289 . S
O30 La1 2.470 . S
O30 C19 1.258 . S
O31 La0 2.503 . S
O31 C19 1.256 . S
H32 C4 0.930 . S
H33 C5 0.930 . S
H34 C7 0.929 . S
H35 C8 0.929 . S
H36 C13 0.930 . S
H37 C14 0.930 . S
H38 C16 0.929 . S
H39 C17 0.929 . S
La40 C42 2.928 . S
La40 O60 2.521 . S
La40 O61 2.628 . S
La40 O62 2.554 . S
La40 O63 2.757 . S
La40 O64 2.470 . S
La40 O69 2.482 . S
La40 O71 2.503 . S
La41 C51 2.928 . S
La41 O63 2.482 . S
La41 O65 2.503 . S
La41 O66 2.521 . S
La41 O67 2.628 . S
La41 O68 2.554 . S
La41 O69 2.757 . S
La41 O70 2.470 . S
C42 La40 2.928 . S
C42 C43 1.503 . S
C42 O60 1.261 . S
C42 O61 1.243 . S
C43 C42 1.503 . S
C43 C44 1.394 . S
C43 C48 1.373 . S
C44 C43 1.394 . S
C44 C45 1.380 . S
C44 H72 0.930 . S
C45 C44 1.380 . S
C45 C46 1.376 . S
C45 H73 0.930 . S
C46 C45 1.376 . S
C46 C47 1.370 . S
C47 C46 1.370 . S
C47 C48 1.396 . S
C47 H74 0.929 . S
C48 C43 1.373 . S
C48 C47 1.396 . S
C48 H75 0.929 . S
C49 O62 1.240 . S
C49 O63 1.289 . S
C50 O64 1.258 . S
C50 O65 1.256 . S
C51 La41 2.928 . S
C51 C52 1.503 . S
C51 O66 1.261 . S
C51 O67 1.243 . S
C52 C51 1.503 . S
C52 C53 1.394 . S
C52 C57 1.373 . S
C53 C52 1.394 . S
C53 C54 1.380 . S
C53 H76 0.930 . S
C54 C53 1.380 . S
C54 C55 1.376 . S
C54 H77 0.930 . S
C55 C54 1.376 . S
C55 C56 1.370 . S
C56 C55 1.370 . S
C56 C57 1.396 . S
C56 H78 0.929 . S
C57 C52 1.373 . S
C57 C56 1.396 . S
C57 H79 0.929 . S
C58 O68 1.240 . S
C58 O69 1.289 . S
C59 O70 1.258 . S
C59 O71 1.256 . S
O60 La40 2.521 . S
O60 C42 1.261 . S
O61 La40 2.628 . S
O61 C42 1.243 . S
O62 La40 2.554 . S
O62 C49 1.240 . S
O63 La40 2.757 . S
O63 La41 2.482 . S
O63 C49 1.289 . S
O64 La40 2.470 . S
O64 C50 1.258 . S
O65 La41 2.503 . S
O65 C50 1.256 . S
O66 La41 2.521 . S
O66 C51 1.261 . S
O67 La41 2.628 . S
O67 C51 1.243 . S
O68 La41 2.554 . S
O68 C58 1.240 . S
O69 La40 2.482 . S
O69 La41 2.757 . S
O69 C58 1.289 . S
O70 La41 2.470 . S
O70 C59 1.258 . S
O71 La40 2.503 . S
O71 C59 1.256 . S
H72 C44 0.930 . S
H73 C45 0.930 . S
H74 C47 0.929 . S
H75 C48 0.929 . S
H76 C53 0.930 . S
H77 C54 0.930 . S
H78 C56 0.929 . S
H79 C57 0.929 . S
La80 C82 2.928 . S
La80 O100 2.521 . S
La80 O101 2.628 . S
La80 O102 2.554 . S
La80 O103 2.757 . S
La80 O104 2.470 . S
La80 O109 2.482 . S
La80 O111 2.503 . S
La81 C91 2.928 . S
La81 O103 2.482 . S
La81 O105 2.503 . S
La81 O106 2.521 . S
La81 O107 2.628 . S
La81 O108 2.554 . S
La81 O109 2.757 . S
La81 O110 2.470 . S
C82 La80 2.928 . S
C82 C83 1.503 . S
C82 O100 1.261 . S
C82 O101 1.243 . S
C83 C82 1.503 . S
C83 C84 1.394 . S
C83 C88 1.373 . S
C84 C83 1.394 . S
C84 C85 1.380 . S
C84 H112 0.930 . S
C85 C84 1.380 . S
C85 C86 1.376 . S
C85 H113 0.930 . S
C86 C85 1.376 . S
C86 C87 1.370 . S
C87 C86 1.370 . S
C87 C88 1.396 . S
C87 H114 0.929 . S
C88 C83 1.373 . S
C88 C87 1.396 . S
C88 H115 0.929 . S
C89 O102 1.240 . S
C89 O103 1.289 . S
C90 O104 1.258 . S
C90 O105 1.256 . S
C91 La81 2.928 . S
C91 C92 1.503 . S
C91 O106 1.261 . S
C91 O107 1.243 . S
C92 C91 1.503 . S
C92 C93 1.394 . S
C92 C97 1.373 . S
C93 C92 1.394 . S
C93 C94 1.380 . S
C93 H116 0.930 . S
C94 C93 1.380 . S
C94 C95 1.376 . S
C94 H117 0.930 . S
C95 C94 1.376 . S
C95 C96 1.370 . S
C96 C95 1.370 . S
C96 C97 1.396 . S
C96 H118 0.929 . S
C97 C92 1.373 . S
C97 C96 1.396 . S
C97 H119 0.929 . S
C98 O108 1.240 . S
C98 O109 1.289 . S
C99 O110 1.258 . S
C99 O111 1.256 . S
O100 La80 2.521 . S
O100 C82 1.261 . S
O101 La80 2.628 . S
O101 C82 1.243 . S
O102 La80 2.554 . S
O102 C89 1.240 . S
O103 La80 2.757 . S
O103 La81 2.482 . S
O103 C89 1.289 . S
O104 La80 2.470 . S
O104 C90 1.258 . S
O105 La81 2.503 . S
O105 C90 1.256 . S
O106 La81 2.521 . S
O106 C91 1.261 . S
O107 La81 2.628 . S
O107 C91 1.243 . S
O108 La81 2.554 . S
O108 C98 1.240 . S
O109 La80 2.482 . S
O109 La81 2.757 . S
O109 C98 1.289 . S
O110 La81 2.470 . S
O110 C99 1.258 . S
O111 La80 2.503 . S
O111 C99 1.256 . S
H112 C84 0.930 . S
H113 C85 0.930 . S
H114 C87 0.929 . S
H115 C88 0.929 . S
H116 C93 0.930 . S
H117 C94 0.930 . S
H118 C96 0.929 . S
H119 C97 0.929 . S
La120 C122 2.928 . S
La120 O140 2.521 . S
La120 O141 2.628 . S
La120 O142 2.554 . S
La120 O143 2.757 . S
La120 O144 2.470 . S
La120 O149 2.482 . S
La120 O151 2.503 . S
La121 C131 2.928 . S
La121 O143 2.482 . S
La121 O145 2.503 . S
La121 O146 2.521 . S
La121 O147 2.628 . S
La121 O148 2.554 . S
La121 O149 2.757 . S
La121 O150 2.470 . S
C122 La120 2.928 . S
C122 C123 1.503 . S
C122 O140 1.261 . S
C122 O141 1.243 . S
C123 C122 1.503 . S
C123 C124 1.394 . S
C123 C128 1.373 . S
C124 C123 1.394 . S
C124 C125 1.380 . S
C124 H152 0.930 . S
C125 C124 1.380 . S
C125 C126 1.376 . S
C125 H153 0.930 . S
C126 C125 1.376 . S
C126 C127 1.370 . S
C127 C126 1.370 . S
C127 C128 1.396 . S
C127 H154 0.929 . S
C128 C123 1.373 . S
C128 C127 1.396 . S
C128 H155 0.929 . S
C129 O142 1.240 . S
C129 O143 1.289 . S
C130 O144 1.258 . S
C130 O145 1.256 . S
C131 La121 2.928 . S
C131 C132 1.503 . S
C131 O146 1.261 . S
C131 O147 1.243 . S
C132 C131 1.503 . S
C132 C133 1.394 . S
C132 C137 1.373 . S
C133 C132 1.394 . S
C133 C134 1.380 . S
C133 H156 0.930 . S
C134 C133 1.380 . S
C134 C135 1.376 . S
C134 H157 0.930 . S
C135 C134 1.376 . S
C135 C136 1.370 . S
C136 C135 1.370 . S
C136 C137 1.396 . S
C136 H158 0.929 . S
C137 C132 1.373 . S
C137 C136 1.396 . S
C137 H159 0.929 . S
C138 O148 1.240 . S
C138 O149 1.289 . S
C139 O150 1.258 . S
C139 O151 1.256 . S
O140 La120 2.521 . S
O140 C122 1.261 . S
O141 La120 2.628 . S
O141 C122 1.243 . S
O142 La120 2.554 . S
O142 C129 1.240 . S
O143 La120 2.757 . S
O143 La121 2.482 . S
O143 C129 1.289 . S
O144 La120 2.470 . S
O144 C130 1.258 . S
O145 La121 2.503 . S
O145 C130 1.256 . S
O146 La121 2.521 . S
O146 C131 1.261 . S
O147 La121 2.628 . S
O147 C131 1.243 . S
O148 La121 2.554 . S
O148 C138 1.240 . S
O149 La120 2.482 . S
O149 La121 2.757 . S
O149 C138 1.289 . S
O150 La121 2.470 . S
O150 C139 1.258 . S
O151 La120 2.503 . S
O151 C139 1.256 . S
H152 C124 0.930 . S
H153 C125 0.930 . S
H154 C127 0.929 . S
H155 C128 0.929 . S
H156 C133 0.930 . S
H157 C134 0.930 . S
H158 C136 0.929 . S
H159 C137 0.929 . S
La160 C162 2.928 1_556 S
La160 O180 2.521 1_556 S
La160 O181 2.628 1_556 S
La160 O182 2.554 . S
La160 O183 2.757 . S
La160 O184 2.470 1_556 S
La160 O189 2.482 1_556 S
La160 O191 2.503 . S
La161 C171 2.928 1_554 S
La161 O183 2.482 1_554 S
La161 O185 2.503 . S
La161 O186 2.521 1_554 S
La161 O187 2.628 1_554 S
La161 O188 2.554 . S
La161 O189 2.757 . S
La161 O190 2.470 1_554 S
C162 La160 2.928 1_554 S
C162 C163 1.503 . S
C162 O180 1.261 . S
C162 O181 1.243 . S
C163 C162 1.503 . S
C163 C164 1.394 . S
C163 C168 1.373 . S
C164 C163 1.394 . S
C164 C165 1.380 . S
C164 H192 0.930 . S
C165 C164 1.380 . S
C165 C166 1.376 . S
C165 H193 0.930 . S
C166 C165 1.376 . S
C166 C167 1.370 . S
C167 C166 1.370 . S
C167 C168 1.396 . S
C167 H194 0.929 . S
C168 C163 1.373 . S
C168 C167 1.396 . S
C168 H195 0.929 . S
C169 O182 1.240 . S
C169 O183 1.289 . S
C170 O184 1.258 . S
C170 O185 1.256 . S
C171 La161 2.928 1_556 S
C171 C172 1.503 . S
C171 O186 1.261 . S
C171 O187 1.243 . S
C172 C171 1.503 . S
C172 C173 1.394 . S
C172 C177 1.373 . S
C173 C172 1.394 . S
C173 C174 1.380 . S
C173 H196 0.930 . S
C174 C173 1.380 . S
C174 C175 1.376 . S
C174 H197 0.930 . S
C175 C174 1.376 . S
C175 C176 1.370 . S
C176 C175 1.370 . S
C176 C177 1.396 . S
C176 H198 0.929 . S
C177 C172 1.373 . S
C177 C176 1.396 . S
C177 H199 0.929 . S
C178 O188 1.240 . S
C178 O189 1.289 . S
C179 O190 1.258 . S
C179 O191 1.256 . S
O180 La160 2.521 1_554 S
O180 C162 1.261 . S
O181 La160 2.628 1_554 S
O181 C162 1.243 . S
O182 La160 2.554 . S
O182 C169 1.240 . S
O183 La160 2.757 . S
O183 La161 2.482 1_556 S
O183 C169 1.289 . S
O184 La160 2.470 1_554 S
O184 C170 1.258 . S
O185 La161 2.503 . S
O185 C170 1.256 . S
O186 La161 2.521 1_556 S
O186 C171 1.261 . S
O187 La161 2.628 1_556 S
O187 C171 1.243 . S
O188 La161 2.554 . S
O188 C178 1.240 . S
O189 La160 2.482 1_554 S
O189 La161 2.757 . S
O189 C178 1.289 . S
O190 La161 2.470 1_556 S
O190 C179 1.258 . S
O191 La160 2.503 . S
O191 C179 1.256 . S
H192 C164 0.930 . S
H193 C165 0.930 . S
H194 C167 0.929 . S
H195 C168 0.929 . S
H196 C173 0.930 . S
H197 C174 0.930 . S
H198 C176 0.929 . S
H199 C177 0.929 . S
La200 C202 2.928 1_556 S
La200 O220 2.521 1_556 S
La200 O221 2.628 1_556 S
La200 O222 2.554 . S
La200 O223 2.757 . S
La200 O224 2.470 1_556 S
La200 O229 2.482 1_556 S
La200 O231 2.503 . S
La201 C211 2.928 1_554 S
La201 O223 2.482 1_554 S
La201 O225 2.503 . S
La201 O226 2.521 1_554 S
La201 O227 2.628 1_554 S
La201 O228 2.554 . S
La201 O229 2.757 . S
La201 O230 2.470 1_554 S
C202 La200 2.928 1_554 S
C202 C203 1.503 . S
C202 O220 1.261 . S
C202 O221 1.243 . S
C203 C202 1.503 . S
C203 C204 1.394 . S
C203 C208 1.373 . S
C204 C203 1.394 . S
C204 C205 1.380 . S
C204 H232 0.930 . S
C205 C204 1.380 . S
C205 C206 1.376 . S
C205 H233 0.930 . S
C206 C205 1.376 . S
C206 C207 1.370 . S
C207 C206 1.370 . S
C207 C208 1.396 . S
C207 H234 0.929 . S
C208 C203 1.373 . S
C208 C207 1.396 . S
C208 H235 0.929 . S
C209 O222 1.240 . S
C209 O223 1.289 . S
C210 O224 1.258 . S
C210 O225 1.256 . S
C211 La201 2.928 1_556 S
C211 C212 1.503 . S
C211 O226 1.261 . S
C211 O227 1.243 . S
C212 C211 1.503 . S
C212 C213 1.394 . S
C212 C217 1.373 . S
C213 C212 1.394 . S
C213 C214 1.380 . S
C213 H236 0.930 . S
C214 C213 1.380 . S
C214 C215 1.376 . S
C214 H237 0.930 . S
C215 C214 1.376 . S
C215 C216 1.370 . S
C216 C215 1.370 . S
C216 C217 1.396 . S
C216 H238 0.929 . S
C217 C212 1.373 . S
C217 C216 1.396 . S
C217 H239 0.929 . S
C218 O228 1.240 . S
C218 O229 1.289 . S
C219 O230 1.258 . S
C219 O231 1.256 . S
O220 La200 2.521 1_554 S
O220 C202 1.261 . S
O221 La200 2.628 1_554 S
O221 C202 1.243 . S
O222 La200 2.554 . S
O222 C209 1.240 . S
O223 La200 2.757 . S
O223 La201 2.482 1_556 S
O223 C209 1.289 . S
O224 La200 2.470 1_554 S
O224 C210 1.258 . S
O225 La201 2.503 . S
O225 C210 1.256 . S
O226 La201 2.521 1_556 S
O226 C211 1.261 . S
O227 La201 2.628 1_556 S
O227 C211 1.243 . S
O228 La201 2.554 . S
O228 C218 1.240 . S
O229 La200 2.482 1_554 S
O229 La201 2.757 . S
O229 C218 1.289 . S
O230 La201 2.470 1_556 S
O230 C219 1.258 . S
O231 La200 2.503 . S
O231 C219 1.256 . S
H232 C204 0.930 . S
H233 C205 0.930 . S
H234 C207 0.929 . S
H235 C208 0.929 . S
H236 C213 0.930 . S
H237 C214 0.930 . S
H238 C216 0.929 . S
H239 C217 0.929 . S
La240 C242 2.928 1_556 S
La240 O260 2.521 1_556 S
La240 O261 2.628 1_556 S
La240 O262 2.554 . S
La240 O263 2.757 . S
La240 O264 2.470 1_556 S
La240 O269 2.482 1_556 S
La240 O271 2.503 . S
La241 C251 2.928 1_554 S
La241 O263 2.482 1_554 S
La241 O265 2.503 . S
La241 O266 2.521 1_554 S
La241 O267 2.628 1_554 S
La241 O268 2.554 . S
La241 O269 2.757 . S
La241 O270 2.470 1_554 S
C242 La240 2.928 1_554 S
C242 C243 1.503 . S
C242 O260 1.261 . S
C242 O261 1.243 . S
C243 C242 1.503 . S
C243 C244 1.394 . S
C243 C248 1.373 . S
C244 C243 1.394 . S
C244 C245 1.380 . S
C244 H272 0.930 . S
C245 C244 1.380 . S
C245 C246 1.376 . S
C245 H273 0.930 . S
C246 C245 1.376 . S
C246 C247 1.370 . S
C247 C246 1.370 . S
C247 C248 1.396 . S
C247 H274 0.929 . S
C248 C243 1.373 . S
C248 C247 1.396 . S
C248 H275 0.929 . S
C249 O262 1.240 . S
C249 O263 1.289 . S
C250 O264 1.258 . S
C250 O265 1.256 . S
C251 La241 2.928 1_556 S
C251 C252 1.503 . S
C251 O266 1.261 . S
C251 O267 1.243 . S
C252 C251 1.503 . S
C252 C253 1.394 . S
C252 C257 1.373 . S
C253 C252 1.394 . S
C253 C254 1.380 . S
C253 H276 0.930 . S
C254 C253 1.380 . S
C254 C255 1.376 . S
C254 H277 0.930 . S
C255 C254 1.376 . S
C255 C256 1.370 . S
C256 C255 1.370 . S
C256 C257 1.396 . S
C256 H278 0.929 . S
C257 C252 1.373 . S
C257 C256 1.396 . S
C257 H279 0.929 . S
C258 O268 1.240 . S
C258 O269 1.289 . S
C259 O270 1.258 . S
C259 O271 1.256 . S
O260 La240 2.521 1_554 S
O260 C242 1.261 . S
O261 La240 2.628 1_554 S
O261 C242 1.243 . S
O262 La240 2.554 . S
O262 C249 1.240 . S
O263 La240 2.757 . S
O263 La241 2.482 1_556 S
O263 C249 1.289 . S
O264 La240 2.470 1_554 S
O264 C250 1.258 . S
O265 La241 2.503 . S
O265 C250 1.256 . S
O266 La241 2.521 1_556 S
O266 C251 1.261 . S
O267 La241 2.628 1_556 S
O267 C251 1.243 . S
O268 La241 2.554 . S
O268 C258 1.240 . S
O269 La240 2.482 1_554 S
O269 La241 2.757 . S
O269 C258 1.289 . S
O270 La241 2.470 1_556 S
O270 C259 1.258 . S
O271 La240 2.503 . S
O271 C259 1.256 . S
H272 C244 0.930 . S
H273 C245 0.930 . S
H274 C247 0.929 . S
H275 C248 0.929 . S
H276 C253 0.930 . S
H277 C254 0.930 . S
H278 C256 0.929 . S
H279 C257 0.929 . S
La280 C282 2.928 1_556 S
La280 O300 2.521 1_556 S
La280 O301 2.628 1_556 S
La280 O302 2.554 . S
La280 O303 2.757 . S
La280 O304 2.470 1_556 S
La280 O309 2.482 1_556 S
La280 O311 2.503 . S
La281 C291 2.928 1_554 S
La281 O303 2.482 1_554 S
La281 O305 2.503 . S
La281 O306 2.521 1_554 S
La281 O307 2.628 1_554 S
La281 O308 2.554 . S
La281 O309 2.757 . S
La281 O310 2.470 1_554 S
C282 La280 2.928 1_554 S
C282 C283 1.503 . S
C282 O300 1.261 . S
C282 O301 1.243 . S
C283 C282 1.503 . S
C283 C284 1.394 . S
C283 C288 1.373 . S
C284 C283 1.394 . S
C284 C285 1.380 . S
C284 H312 0.930 . S
C285 C284 1.380 . S
C285 C286 1.376 . S
C285 H313 0.930 . S
C286 C285 1.376 . S
C286 C287 1.370 . S
C287 C286 1.370 . S
C287 C288 1.396 . S
C287 H314 0.929 . S
C288 C283 1.373 . S
C288 C287 1.396 . S
C288 H315 0.929 . S
C289 O302 1.240 . S
C289 O303 1.289 . S
C290 O304 1.258 . S
C290 O305 1.256 . S
C291 La281 2.928 1_556 S
C291 C292 1.503 . S
C291 O306 1.261 . S
C291 O307 1.243 . S
C292 C291 1.503 . S
C292 C293 1.394 . S
C292 C297 1.373 . S
C293 C292 1.394 . S
C293 C294 1.380 . S
C293 H316 0.930 . S
C294 C293 1.380 . S
C294 C295 1.376 . S
C294 H317 0.930 . S
C295 C294 1.376 . S
C295 C296 1.370 . S
C296 C295 1.370 . S
C296 C297 1.396 . S
C296 H318 0.929 . S
C297 C292 1.373 . S
C297 C296 1.396 . S
C297 H319 0.929 . S
C298 O308 1.240 . S
C298 O309 1.289 . S
C299 O310 1.258 . S
C299 O311 1.256 . S
O300 La280 2.521 1_554 S
O300 C282 1.261 . S
O301 La280 2.628 1_554 S
O301 C282 1.243 . S
O302 La280 2.554 . S
O302 C289 1.240 . S
O303 La280 2.757 . S
O303 La281 2.482 1_556 S
O303 C289 1.289 . S
O304 La280 2.470 1_554 S
O304 C290 1.258 . S
O305 La281 2.503 . S
O305 C290 1.256 . S
O306 La281 2.521 1_556 S
O306 C291 1.261 . S
O307 La281 2.628 1_556 S
O307 C291 1.243 . S
O308 La281 2.554 . S
O308 C298 1.240 . S
O309 La280 2.482 1_554 S
O309 La281 2.757 . S
O309 C298 1.289 . S
O310 La281 2.470 1_556 S
O310 C299 1.258 . S
O311 La280 2.503 . S
O311 C299 1.256 . S
H312 C284 0.930 . S
H313 C285 0.930 . S
H314 C287 0.929 . S
H315 C288 0.929 . S
H316 C293 0.930 . S
H317 C294 0.930 . S
H318 C296 0.929 . S
H319 C297 0.929 . S
H320 C326 0.930 . S
H321 C329 0.930 . S
H322 C330 0.930 . S
H323 C331 0.930 . S
H324 C334 0.930 . S
H325 C335 0.930 . S
C326 H320 0.930 . S
C326 C327 1.355 . S
C326 C328 1.415 . S
C327 C326 1.355 . S
C327 C329 1.419 . S
C328 C326 1.415 . S
C328 C333 1.425 . S
C328 C335 1.409 . S
C329 H321 0.930 . S
C329 C327 1.419 . S
C329 C330 1.362 . S
C330 H322 0.930 . S
C330 C329 1.362 . S
C330 C333 1.409 . S
C331 H323 0.930 . S
C331 C332 1.355 . S
C331 C333 1.415 . S
C332 C331 1.355 . S
C332 C334 1.419 . S
C333 C328 1.425 . S
C333 C330 1.409 . S
C333 C331 1.415 . S
C334 H324 0.930 . S
C334 C332 1.419 . S
C334 C335 1.362 . S
C335 H325 0.930 . S
C335 C328 1.409 . S
C335 C334 1.362 . S
H336 C342 0.930 . S
H337 C345 0.930 . S
H338 C346 0.930 . S
H339 C347 0.930 . S
H340 C350 0.930 . S
H341 C351 0.930 . S
C342 H336 0.930 . S
C342 C343 1.355 . S
C342 C344 1.415 . S
C343 C342 1.355 . S
C343 C345 1.419 . S
C344 C342 1.415 . S
C344 C349 1.425 . S
C344 C351 1.409 . S
C345 H337 0.930 . S
C345 C343 1.419 . S
C345 C346 1.362 . S
C346 H338 0.930 . S
C346 C345 1.362 . S
C346 C349 1.409 . S
C347 H339 0.930 . S
C347 C348 1.355 . S
C347 C349 1.415 . S
C348 C347 1.355 . S
C348 C350 1.419 . S
C349 C344 1.425 . S
C349 C346 1.409 . S
C349 C347 1.415 . S
C350 H340 0.930 . S
C350 C348 1.419 . S
C350 C351 1.362 . S
C351 H341 0.930 . S
C351 C344 1.409 . S
C351 C350 1.362 . S
H352 C358 0.930 . S
H353 C361 0.930 . S
H354 C362 0.930 . S
H355 C363 0.930 . S
H356 C366 0.930 . S
H357 C367 0.930 . S
C358 H352 0.930 . S
C358 C359 1.355 . S
C358 C360 1.415 . S
C359 C358 1.355 . S
C359 C361 1.419 . S
C360 C358 1.415 . S
C360 C365 1.425 . S
C360 C367 1.409 . S
C361 H353 0.930 . S
C361 C359 1.419 . S
C361 C362 1.362 . S
C362 H354 0.930 . S
C362 C361 1.362 . S
C362 C365 1.409 . S
C363 H355 0.930 . S
C363 C364 1.355 . S
C363 C365 1.415 . S
C364 C363 1.355 . S
C364 C366 1.419 . S
C365 C360 1.425 . S
C365 C362 1.409 . S
C365 C363 1.415 . S
C366 H356 0.930 . S
C366 C364 1.419 . S
C366 C367 1.362 . S
C367 H357 0.930 . S
C367 C360 1.409 . S
C367 C366 1.362 . S
H368 C374 0.930 . S
H369 C377 0.930 . S
H370 C378 0.930 . S
H371 C379 0.930 . S
H372 C382 0.930 . S
H373 C383 0.930 . S
C374 H368 0.930 . S
C374 C375 1.355 . S
C374 C376 1.415 . S
C375 C374 1.355 . S
C375 C377 1.419 . S
C376 C374 1.415 . S
C376 C381 1.425 . S
C376 C383 1.409 . S
C377 H369 0.930 . S
C377 C375 1.419 . S
C377 C378 1.362 . S
C378 H370 0.930 . S
C378 C377 1.362 . S
C378 C381 1.409 . S
C379 H371 0.930 . S
C379 C380 1.355 . S
C379 C381 1.415 . S
C380 C379 1.355 . S
C380 C382 1.419 . S
C381 C376 1.425 . S
C381 C378 1.409 . S
C381 C379 1.415 . S
C382 H372 0.930 . S
C382 C380 1.419 . S
C382 C383 1.362 . S
C383 H373 0.930 . S
C383 C376 1.409 . S
C383 C382 1.362 . S
H384 C390 0.930 . S
H385 C393 0.930 . S
H386 C394 0.930 1_545 S
H387 C395 0.930 . S
H388 C398 0.930 . S
H389 C399 0.930 1_565 S
C390 H384 0.930 . S
C390 C391 1.355 . S
C390 C392 1.415 . S
C391 C390 1.355 . S
C391 C393 1.419 . S
C392 C390 1.415 . S
C392 C397 1.425 1_565 S
C392 C399 1.409 1_565 S
C393 H385 0.930 . S
C393 C391 1.419 . S
C393 C394 1.362 . S
C394 H386 0.930 1_565 S
C394 C393 1.362 . S
C394 C397 1.409 1_565 S
C395 H387 0.930 . S
C395 C396 1.355 . S
C395 C397 1.415 . S
C396 C395 1.355 . S
C396 C398 1.419 . S
C397 C392 1.425 1_545 S
C397 C394 1.409 1_545 S
C397 C395 1.415 . S
C398 H388 0.930 . S
C398 C396 1.419 . S
C398 C399 1.362 . S
C399 H389 0.930 1_545 S
C399 C392 1.409 1_545 S
C399 C398 1.362 . S
H400 C406 0.930 . S
H401 C409 0.930 . S
H402 C410 0.930 . S
H403 C411 0.930 . S
H404 C414 0.930 . S
H405 C415 0.930 . S
C406 H400 0.930 . S
C406 C407 1.355 . S
C406 C408 1.415 . S
C407 C406 1.355 . S
C407 C409 1.419 . S
C408 C406 1.415 . S
C408 C413 1.425 . S
C408 C415 1.409 . S
C409 H401 0.930 . S
C409 C407 1.419 . S
C409 C410 1.362 . S
C410 H402 0.930 . S
C410 C409 1.362 . S
C410 C413 1.409 . S
C411 H403 0.930 . S
C411 C412 1.355 . S
C411 C413 1.415 . S
C412 C411 1.355 . S
C412 C414 1.419 . S
C413 C408 1.425 . S
C413 C410 1.409 . S
C413 C411 1.415 . S
C414 H404 0.930 . S
C414 C412 1.419 . S
C414 C415 1.362 . S
C415 H405 0.930 . S
C415 C408 1.409 . S
C415 C414 1.362 . S
H416 C422 0.930 . S
H417 C425 0.930 . S
H418 C426 0.930 1_545 S
H419 C427 0.930 . S
H420 C430 0.930 . S
H421 C431 0.923 1_565 S
C422 H416 0.930 . S
C422 C423 1.355 . S
C422 C424 1.415 . S
C423 C422 1.355 . S
C423 C425 1.419 . S
C424 C422 1.415 . S
C424 C429 1.425 1_565 S
C424 C431 1.409 1_565 S
C425 H417 0.930 . S
C425 C423 1.419 . S
C425 C426 1.362 . S
C426 H418 0.930 1_565 S
C426 C425 1.362 . S
C426 C429 1.409 1_565 S
C427 H419 0.930 . S
C427 C428 1.355 . S
C427 C429 1.415 . S
C428 C427 1.355 . S
C428 C430 1.419 . S
C429 C424 1.425 1_545 S
C429 C426 1.409 1_545 S
C429 C427 1.415 . S
C430 H420 0.930 . S
C430 C428 1.419 . S
C430 C431 1.362 . S
C431 H421 0.923 1_545 S
C431 C424 1.409 1_545 S
C431 C430 1.362 . S
H432 C438 0.930 . S
H433 C441 0.930 . S
H434 C442 0.930 . S
H435 C443 0.930 . S
H436 C446 0.930 . S
H437 C447 0.930 . S
C438 H432 0.930 . S
C438 C439 1.355 . S
C438 C440 1.415 . S
C439 C438 1.355 . S
C439 C441 1.419 . S
C440 C438 1.415 . S
C440 C445 1.425 . S
C440 C447 1.409 . S
C441 H433 0.930 . S
C441 C439 1.419 . S
C441 C442 1.362 . S
C442 H434 0.930 . S
C442 C441 1.362 . S
C442 C445 1.409 . S
C443 H435 0.930 . S
C443 C444 1.355 . S
C443 C445 1.415 . S
C444 C443 1.355 . S
C444 C446 1.419 . S
C445 C440 1.425 . S
C445 C442 1.409 . S
C445 C443 1.415 . S
C446 H436 0.930 . S
C446 C444 1.419 . S
C446 C447 1.362 . S
C447 H437 0.930 . S
C447 C440 1.409 . S
C447 C446 1.362 . S
H448 C454 0.930 . S
H449 C457 0.930 . S
H450 C458 0.930 . S
H451 C459 0.930 . S
H452 C462 0.930 . S
H453 C463 0.930 . S
C454 H448 0.930 . S
C454 C455 1.355 1_554 S
C454 C456 1.415 . S
C455 C454 1.355 1_556 S
C455 C457 1.419 . S
C456 C454 1.415 . S
C456 C461 1.425 1_554 S
C456 C463 1.409 . S
C457 H449 0.930 . S
C457 C455 1.419 . S
C457 C458 1.362 . S
C458 H450 0.930 . S
C458 C457 1.362 . S
C458 C461 1.409 . S
C459 H451 0.930 . S
C459 C460 1.355 . S
C459 C461 1.415 . S
C460 C459 1.355 . S
C460 C462 1.419 1_556 S
C461 C456 1.425 1_556 S
C461 C458 1.409 . S
C461 C459 1.415 . S
C462 H452 0.930 . S
C462 C460 1.419 1_554 S
C462 C463 1.362 . S
C463 H453 0.930 . S
C463 C456 1.409 . S
C463 C462 1.362 . S
H464 C470 0.930 . S
H465 C473 0.930 . S
H466 C474 0.930 . S
H467 C475 0.930 . S
H468 C478 0.930 . S
H469 C479 0.930 . S
C470 H464 0.930 . S
C470 C471 1.355 . S
C470 C472 1.415 . S
C471 C470 1.355 . S
C471 C473 1.419 1_556 S
C472 C470 1.415 . S
C472 C477 1.425 1_566 S
C472 C479 1.409 1_565 S
C473 H465 0.930 . S
C473 C471 1.419 1_554 S
C473 C474 1.362 . S
C474 H466 0.930 . S
C474 C473 1.362 . S
C474 C477 1.409 1_565 S
C475 H467 0.930 . S
C475 C476 1.355 1_554 S
C475 C477 1.415 . S
C476 C475 1.355 1_556 S
C476 C478 1.419 . S
C477 C472 1.425 1_544 S
C477 C474 1.409 1_545 S
C477 C475 1.415 . S
C478 H468 0.930 . S
C478 C476 1.419 . S
C478 C479 1.362 . S
C479 H469 0.930 . S
C479 C472 1.409 1_545 S
C479 C478 1.362 . S
H480 C486 0.930 . S
H481 C489 0.930 . S
H482 C490 0.930 . S
H483 C491 0.930 . S
H484 C494 0.930 . S
H485 C495 0.930 . S
C486 H480 0.930 . S
C486 C487 1.355 1_556 S
C486 C488 1.415 . S
C487 C486 1.355 1_554 S
C487 C489 1.419 . S
C488 C486 1.415 . S
C488 C493 1.425 1_556 S
C488 C495 1.409 . S
C489 H481 0.930 . S
C489 C487 1.419 . S
C489 C490 1.362 . S
C490 H482 0.930 . S
C490 C489 1.362 . S
C490 C493 1.409 . S
C491 H483 0.930 . S
C491 C492 1.355 . S
C491 C493 1.415 . S
C492 C491 1.355 . S
C492 C494 1.418 1_554 S
C493 C488 1.425 1_554 S
C493 C490 1.409 . S
C493 C491 1.415 . S
C494 H484 0.930 . S
C494 C492 1.418 1_556 S
C494 C495 1.362 . S
C495 H485 0.930 . S
C495 C488 1.409 . S
C495 C494 1.362 . S
H496 C502 0.930 . S
H497 C505 0.930 . S
H498 C506 0.930 . S
H499 C507 0.930 . S
H500 C510 0.930 . S
H501 C511 0.930 . S
C502 H496 0.930 . S
C502 C503 1.355 1_554 S
C502 C504 1.415 . S
C503 C502 1.355 1_556 S
C503 C505 1.419 . S
C504 C502 1.415 . S
C504 C509 1.425 1_544 S
C504 C511 1.409 1_545 S
C505 H497 0.930 . S
C505 C503 1.419 . S
C505 C506 1.362 . S
C506 H498 0.930 . S
C506 C505 1.362 . S
C506 C509 1.409 1_545 S
C507 H499 0.930 . S
C507 C508 1.355 1_556 S
C507 C509 1.415 . S
C508 C507 1.355 1_554 S
C508 C510 1.419 . S
C509 C504 1.425 1_566 S
C509 C506 1.409 1_565 S
C509 C507 1.415 . S
C510 H500 0.930 . S
C510 C508 1.419 . S
C510 C511 1.362 . S
C511 H501 0.930 . S
C511 C504 1.409 1_565 S
C511 C510 1.362 . S
H512 C518 0.930 . S
H513 C521 0.930 . S
H514 C522 0.930 . S
H515 C523 0.930 . S
H516 C526 0.930 . S
H517 C527 0.930 . S
C518 H512 0.930 . S
C518 C519 1.355 . S
C518 C520 1.415 1_554 S
C519 C518 1.355 . S
C519 C521 1.419 . S
C520 C518 1.415 1_556 S
C520 C525 1.425 . S
C520 C527 1.409 . S
C521 H513 0.930 . S
C521 C519 1.419 . S
C521 C522 1.362 1_554 S
C522 H514 0.930 . S
C522 C521 1.362 1_556 S
C522 C525 1.409 . S
C523 H515 0.930 . S
C523 C524 1.355 . S
C523 C525 1.415 . S
C524 C523 1.355 . S
C524 C526 1.419 . S
C525 C520 1.425 . S
C525 C522 1.409 . S
C525 C523 1.415 . S
C526 H516 0.930 . S
C526 C524 1.419 . S
C526 C527 1.362 . S
C527 H517 0.930 . S
C527 C520 1.409 . S
C527 C526 1.362 . S
H528 C534 0.930 . S
H529 C537 0.930 . S
H530 C538 0.930 . S
H531 C539 0.930 . S
H532 C542 0.930 . S
H533 C543 0.930 . S
C534 H528 0.930 . S
C534 C535 1.355 . S
C534 C536 1.415 1_554 S
C535 C534 1.355 . S
C535 C537 1.419 . S
C536 C534 1.415 1_556 S
C536 C541 1.425 . S
C536 C543 1.409 . S
C537 H529 0.930 . S
C537 C535 1.419 . S
C537 C538 1.362 1_554 S
C538 H530 0.930 . S
C538 C537 1.362 1_556 S
C538 C541 1.409 . S
C539 H531 0.930 . S
C539 C540 1.355 . S
C539 C541 1.415 . S
C540 C539 1.355 . S
C540 C542 1.419 . S
C541 C536 1.425 . S
C541 C538 1.409 . S
C541 C539 1.415 . S
C542 H532 0.930 . S
C542 C540 1.419 . S
C542 C543 1.362 . S
C543 H533 0.930 . S
C543 C536 1.409 . S
C543 C542 1.362 . S
H544 C550 0.930 . S
H545 C553 0.930 . S
H546 C554 0.930 . S
H547 C555 0.930 . S
H548 C558 0.930 . S
H549 C559 0.931 . S
C550 H544 0.930 . S
C550 C551 1.355 . S
C550 C552 1.415 . S
C551 C550 1.355 . S
C551 C553 1.419 . S
C552 C550 1.415 . S
C552 C557 1.425 . S
C552 C559 1.416 . S
C553 H545 0.930 . S
C553 C551 1.419 . S
C553 C554 1.362 . S
C554 H546 0.930 . S
C554 C553 1.362 . S
C554 C557 1.409 . S
C555 H547 0.930 . S
C555 C556 1.355 . S
C555 C557 1.415 1_556 S
C556 C555 1.355 . S
C556 C558 1.419 . S
C557 C552 1.425 . S
C557 C554 1.409 . S
C557 C555 1.415 1_554 S
C558 H548 0.930 . S
C558 C556 1.419 . S
C558 C559 1.355 1_556 S
C559 H549 0.931 . S
C559 C552 1.416 . S
C559 C558 1.355 1_554 S
H560 C566 0.930 . S
H561 C569 0.930 . S
H562 C570 0.930 . S
H563 C571 0.930 . S
H564 C574 0.930 . S
H565 C575 0.930 . S
C566 H560 0.930 . S
C566 C567 1.355 . S
C566 C568 1.415 1_556 S
C567 C566 1.355 . S
C567 C569 1.419 . S
C568 C566 1.415 1_554 S
C568 C573 1.425 . S
C568 C575 1.409 . S
C569 H561 0.930 . S
C569 C567 1.419 . S
C569 C570 1.361 1_556 S
C570 H562 0.930 . S
C570 C569 1.361 1_554 S
C570 C573 1.410 . S
C571 H563 0.930 . S
C571 C572 1.355 . S
C571 C573 1.415 . S
C572 C571 1.355 . S
C572 C574 1.419 . S
C573 C568 1.425 . S
C573 C570 1.410 . S
C573 C571 1.415 . S
C574 H564 0.930 . S
C574 C572 1.419 . S
C574 C575 1.362 . S
C575 H565 0.930 . S
C575 C568 1.409 . S
C575 C574 1.362 . S
H576 C582 0.930 . S
H577 C585 0.930 . S
H578 C586 0.930 . S
H579 C587 0.930 . S
H580 C590 0.930 . S
H581 C591 0.930 . S
C582 H576 0.930 . S
C582 C583 1.355 . S
C582 C584 1.415 . S
C583 C582 1.355 . S
C583 C585 1.419 . S
C584 C582 1.415 . S
C584 C589 1.425 . S
C584 C591 1.409 . S
C585 H577 0.930 . S
C585 C583 1.419 . S
C585 C586 1.362 . S
C586 H578 0.930 . S
C586 C585 1.362 . S
C586 C589 1.409 . S
C587 H579 0.930 . S
C587 C588 1.355 . S
C587 C589 1.415 . S
C588 C587 1.355 . S
C588 C590 1.419 . S
C589 C584 1.425 . S
C589 C586 1.409 . S
C589 C587 1.415 . S
C590 H580 0.930 . S
C590 C588 1.419 . S
C590 C591 1.362 . S
C591 H581 0.930 . S
C591 C584 1.409 . S
C591 C590 1.362 . S
H592 C598 0.930 . S
H593 C601 0.930 . S
H594 C602 0.930 . S
H595 C603 0.930 . S
H596 C606 0.930 . S
H597 C607 0.930 . S
C598 H592 0.930 . S
C598 C599 1.355 . S
C598 C600 1.415 . S
C599 C598 1.355 . S
C599 C601 1.419 . S
C600 C598 1.415 . S
C600 C605 1.425 . S
C600 C607 1.409 . S
C601 H593 0.930 . S
C601 C599 1.419 . S
C601 C602 1.362 . S
C602 H594 0.930 . S
C602 C601 1.362 . S
C602 C605 1.409 . S
C603 H595 0.930 . S
C603 C604 1.355 . S
C603 C605 1.415 . S
C604 C603 1.355 . S
C604 C606 1.419 . S
C605 C600 1.425 . S
C605 C602 1.409 . S
C605 C603 1.415 . S
C606 H596 0.930 . S
C606 C604 1.419 . S
C606 C607 1.362 . S
C607 H597 0.930 . S
C607 C600 1.409 . S
C607 C606 1.362 . S
H608 C614 0.930 . S
H609 C617 0.930 . S
H610 C618 0.930 . S
H611 C619 0.930 . S
H612 C622 0.930 . S
H613 C623 0.930 . S
C614 H608 0.930 . S
C614 C615 1.355 . S
C614 C616 1.415 . S
C615 C614 1.355 . S
C615 C617 1.419 . S
C616 C614 1.415 . S
C616 C621 1.425 . S
C616 C623 1.409 . S
C617 H609 0.930 . S
C617 C615 1.419 . S
C617 C618 1.362 . S
C618 H610 0.930 . S
C618 C617 1.362 . S
C618 C621 1.409 . S
C619 H611 0.930 . S
C619 C620 1.355 . S
C619 C621 1.415 . S
C620 C619 1.355 . S
C620 C622 1.419 . S
C621 C616 1.425 . S
C621 C618 1.409 . S
C621 C619 1.415 . S
C622 H612 0.930 . S
C622 C620 1.419 . S
C622 C623 1.362 . S
C623 H613 0.930 . S
C623 C616 1.409 . S
C623 C622 1.362 . S
H624 C630 0.930 . S
H625 C633 0.930 . S
H626 C634 0.930 . S
H627 C635 0.930 . S
H628 C638 0.930 . S
H629 C639 0.930 . S
C630 H624 0.930 . S
C630 C631 1.355 . S
C630 C632 1.415 . S
C631 C630 1.355 . S
C631 C633 1.419 . S
C632 C630 1.415 . S
C632 C637 1.425 . S
C632 C639 1.409 . S
C633 H625 0.930 . S
C633 C631 1.419 . S
C633 C634 1.362 . S
C634 H626 0.930 . S
C634 C633 1.362 . S
C634 C637 1.409 . S
C635 H627 0.930 . S
C635 C636 1.355 . S
C635 C637 1.415 . S
C636 C635 1.355 . S
C636 C638 1.419 . S
C637 C632 1.425 . S
C637 C634 1.409 . S
C637 C635 1.415 . S
C638 H628 0.930 . S
C638 C636 1.419 . S
C638 C639 1.362 . S
C639 H629 0.930 . S
C639 C632 1.409 . S
C639 C638 1.362 . S
H640 C646 0.930 . S
H641 C649 0.930 . S
H642 C650 0.930 . S
H643 C651 0.930 . S
H644 C654 0.930 . S
H645 C655 0.930 . S
C646 H640 0.930 . S
C646 C647 1.355 . S
C646 C648 1.415 . S
C647 C646 1.355 . S
C647 C649 1.419 . S
C648 C646 1.415 . S
C648 C653 1.425 1_455 S
C648 C655 1.409 1_455 S
C649 H641 0.930 . S
C649 C647 1.419 . S
C649 C650 1.362 . S
C650 H642 0.930 . S
C650 C649 1.362 . S
C650 C653 1.409 1_455 S
C651 H643 0.930 . S
C651 C652 1.355 . S
C651 C653 1.415 . S
C652 C651 1.355 . S
C652 C654 1.419 . S
C653 C648 1.425 1_655 S
C653 C650 1.409 1_655 S
C653 C651 1.415 . S
C654 H644 0.930 . S
C654 C652 1.419 . S
C654 C655 1.362 . S
C655 H645 0.930 . S
C655 C648 1.409 1_655 S
C655 C654 1.362 . S
H656 C662 0.930 . S
H657 C665 0.930 . S
H658 C666 0.930 . S
H659 C667 0.930 . S
H660 C670 0.930 . S
H661 C671 0.930 . S
C662 H656 0.930 . S
C662 C663 1.355 . S
C662 C664 1.415 . S
C663 C662 1.355 . S
C663 C665 1.419 . S
C664 C662 1.415 . S
C664 C669 1.425 1_655 S
C664 C671 1.409 1_655 S
C665 H657 0.930 . S
C665 C663 1.419 . S
C665 C666 1.362 . S
C666 H658 0.930 . S
C666 C665 1.362 . S
C666 C669 1.409 1_655 S
C667 H659 0.930 . S
C667 C668 1.355 . S
C667 C669 1.415 . S
C668 C667 1.355 . S
C668 C670 1.419 . S
C669 C664 1.425 1_455 S
C669 C666 1.409 1_455 S
C669 C667 1.415 . S
C670 H660 0.930 . S
C670 C668 1.419 . S
C670 C671 1.362 . S
C671 H661 0.930 . S
C671 C664 1.409 1_455 S
C671 C670 1.362 . S
H672 C678 0.930 . S
H673 C681 0.930 . S
H674 C682 0.930 . S
H675 C683 0.930 . S
H676 C686 0.930 . S
H677 C687 0.930 . S
C678 H672 0.930 . S
C678 C679 1.355 . S
C678 C680 1.415 . S
C679 C678 1.355 . S
C679 C681 1.419 . S
C680 C678 1.415 . S
C680 C685 1.425 . S
C680 C687 1.409 . S
C681 H673 0.930 . S
C681 C679 1.419 . S
C681 C682 1.362 . S
C682 H674 0.930 . S
C682 C681 1.362 . S
C682 C685 1.409 . S
C683 H675 0.930 . S
C683 C684 1.355 . S
C683 C685 1.415 . S
C684 C683 1.355 . S
C684 C686 1.419 . S
C685 C680 1.425 . S
C685 C682 1.409 . S
C685 C683 1.415 . S
C686 H676 0.930 . S
C686 C684 1.419 . S
C686 C687 1.362 . S
C687 H677 0.930 . S
C687 C680 1.409 . S
C687 C686 1.362 . S
H688 C694 0.930 . S
H689 C697 0.930 . S
H690 C698 0.930 . S
H691 C699 0.930 . S
H692 C702 0.930 . S
H693 C703 0.930 . S
C694 H688 0.930 . S
C694 C695 1.355 . S
C694 C696 1.415 . S
C695 C694 1.355 . S
C695 C697 1.419 . S
C696 C694 1.415 . S
C696 C701 1.425 . S
C696 C703 1.409 . S
C697 H689 0.930 . S
C697 C695 1.419 . S
C697 C698 1.362 . S
C698 H690 0.930 . S
C698 C697 1.362 . S
C698 C701 1.409 . S
C699 H691 0.930 . S
C699 C700 1.355 . S
C699 C701 1.415 . S
C700 C699 1.355 . S
C700 C702 1.419 . S
C701 C696 1.425 . S
C701 C698 1.409 . S
C701 C699 1.415 . S
C702 H692 0.930 . S
C702 C700 1.419 . S
C702 C703 1.362 . S
C703 H693 0.930 . S
C703 C696 1.409 . S
C703 C702 1.362 . S
C327 C6 1.682 . S
C332 C295 1.682 . S
C343 C255 1.684 . S
C348 C46 1.683 . S
C359 C206 1.685 . S
C364 C95 1.684 . S
C375 C166 1.667 . S
C380 C135 1.667 . S
C391 C89 1.568 . S
C396 C9 1.582 . S
C407 C49 1.616 . S
C412 C129 1.592 . S
C423 C138 1.617 . S
C428 C58 1.599 . S
C439 C98 1.615 . S
C444 C18 1.591 . S
C455 C169 1.399 . S
C460 C249 1.397 . S
C471 C209 1.466 . S
C476 C289 1.461 . S
C487 C298 1.399 . S
C492 C218 1.406 . S
C503 C258 1.407 1_556 S
C508 C178 1.400 . S
C519 C19 2.056 . S
C524 C10 2.056 . S
C535 C59 2.004 . S
C540 C50 2.004 . S
C551 C99 2.007 . S
C556 C90 2.007 . S
C567 C130 2.003 . S
C572 C139 2.003 . S
C583 C170 2.011 . S
C588 C179 2.011 . S
C599 C219 2.003 . S
C604 C210 2.003 . S
C615 C250 2.055 . S
C620 C259 2.055 . S
C631 C290 2.044 . S
C636 C299 2.044 . S
C647 C15 2.247 . S
C652 C55 2.281 . S
C663 C126 2.250 . S
C668 C86 2.276 . S
C679 C175 2.248 . S
C684 C215 2.283 . S
C695 C286 2.256 . S
C700 C246 2.273 . S
