# Generated by pormake.
# Topology rob, (6)-cn, num edge types: 1
# Building blocks:
#     Node 0, Type 0, BuildingBlock: KUMBOL_clean_sbu_0, # of connection points: 6
#     Node 1, Type 0, BuildingBlock: KUMBOL_clean_sbu_0, # of connection points: 6
#     Node 2, Type 0, BuildingBlock: KUMBOL_clean_sbu_0, # of connection points: 6
#     Node 3, Type 0, BuildingBlock: KUMBOL_clean_sbu_0, # of connection points: 6
#     Edge 4, Type (0, 0), BuildingBlock: TEMPAE_clean_linker_10, # of connection points: 2
#     Edge 5, Type (0, 0), BuildingBlock: TEMPAE_clean_linker_10, # of connection points: 2
#     Edge 6, Type (0, 0), BuildingBlock: TEMPAE_clean_linker_10, # of connection points: 2
#     Edge 7, Type (0, 0), BuildingBlock: TEMPAE_clean_linker_10, # of connection points: 2
#     Edge 8, Type (0, 0), BuildingBlock: TEMPAE_clean_linker_10, # of connection points: 2
#     Edge 9, Type (0, 0), BuildingBlock: TEMPAE_clean_linker_10, # of connection points: 2
#     Edge 10, Type (0, 0), BuildingBlock: TEMPAE_clean_linker_10, # of connection points: 2
#     Edge 11, Type (0, 0), BuildingBlock: TEMPAE_clean_linker_10, # of connection points: 2
#     Edge 12, Type (0, 0), BuildingBlock: TEMPAE_clean_linker_10, # of connection points: 2
#     Edge 13, Type (0, 0), BuildingBlock: TEMPAE_clean_linker_10, # of connection points: 2
#     Edge 14, Type (0, 0), BuildingBlock: TEMPAE_clean_linker_10, # of connection points: 2
#     Edge 15, Type (0, 0), BuildingBlock: TEMPAE_clean_linker_10, # of connection points: 2
# Relax obj value: 0.035
# Max RMSD: 0.159
# Mean RMSD: 0.159
data_MOF--net-rob--node1-KUMBOL_clean_sbu_0--edge1-TEMPAE_clean_linker_10
_symmetry_space_group_name_H-M    P1
_symmetry_Int_Tables_number       1
_symmetry_cell_setting            triclinic
loop_
_symmetry_equiv_pos_as_xyz
'x, y, z'
_cell_length_a     16.213669
_cell_length_b     26.442421
_cell_length_c     34.411487
_cell_angle_alpha  119.48762
_cell_angle_beta   90.084241
_cell_angle_gamma 89.853388
loop_
_atom_site_label
_atom_site_type_symbol
_atom_site_fract_x
_atom_site_fract_y
_atom_site_fract_z
_atom_type_partial_charge
Gd0 Gd 0.32848 0.19969 0.97568 0.0
Gd1 Gd 0.17502 0.30056 0.05563 0.0
C2 C 0.97147 0.38566 1.01531 0.0
C3 C 0.00731 0.48778 0.05857 0.0
C4 C 0.0903 0.41513 0.06421 0.0
C5 C 0.03987 0.37175 0.03372 0.0
C6 C 0.07429 0.47372 0.07731 0.0
C7 C 0.9559 0.44389 0.0276 0.0
C8 C 0.92001 0.34074 0.98574 0.0
C9 C 0.93589 0.28395 0.97635 0.0
N10 N 0.05632 0.31611 0.02306 0.0
C11 C 0.00388 0.27248 0.99591 0.0
H12 H 0.01498 0.22831 0.98809 0.0
C13 C 0.2016 0.44181 0.11494 0.0
N14 N 0.15389 0.40011 0.08204 0.0
C15 C 0.18884 0.50054 0.12861 0.0
C16 C 0.1254 0.5165 0.10933 0.0
H17 H 0.25103 0.42963 0.12978 0.0
H18 H 0.90402 0.4555 1.01365 0.0
H19 H 0.48896 0.2707 0.04313 0.0
H20 H 0.86718 0.34956 0.97065 0.0
H21 H 0.8958 0.24893 0.95403 0.0
H22 H 0.99488 0.53248 0.06788 0.0
H23 H 0.25124 0.07116 0.90105 0.0
H24 H 0.63493 0.14816 0.05998 0.0
H25 H 0.60766 0.24911 0.07698 0.0
H26 H 0.50489 0.96618 0.96255 0.0
H27 H 0.22794 0.5334 0.15392 0.0
H28 H 0.11567 0.56184 0.11972 0.0
H29 H 0.59676 0.04246 0.01674 0.0
H30 H 0.27279 0.96724 0.87668 0.0
N31 N 0.44674 0.18316 1.00793 0.0
C32 C 0.58236 0.15741 0.04499 0.0
C33 C 0.56724 0.21438 0.05459 0.0
C34 C 0.53046 0.11288 1.01534 0.0
C35 C 0.46245 0.12734 0.99705 0.0
C36 C 0.49956 0.22642 0.03517 0.0
N37 N 0.34842 0.09992 0.94878 0.0
C38 C 0.4116 0.08436 0.96649 0.0
C39 C 0.31221 0.99977 0.90201 0.0
C40 C 0.37514 0.98327 0.92122 0.0
C41 C 0.30033 0.05861 0.91582 0.0
C42 C 0.42669 0.02562 0.95328 0.0
H43 H 0.3841 0.93783 0.91073 0.0
O44 O 0.33749 0.16961 0.90453 0.0
O45 O 0.22049 0.25635 0.98603 0.0
O46 O 0.13094 0.20656 0.02013 0.0
O47 O 0.24875 0.148 0.99721 0.0
O48 O 0.21877 0.17639 0.92952 0.0
O49 O 0.43111 0.22669 0.94962 0.0
O50 O 0.16583 0.33164 0.12692 0.0
O51 O 0.28309 0.24409 0.04532 0.0
O52 O 0.37293 0.29359 1.01141 0.0
O53 O 0.25523 0.35227 0.03425 0.0
O54 O 0.28473 0.32397 0.10184 0.0
O55 O 0.07332 0.27309 0.08191 0.0
C56 C 0.1804 0.2253 0.95072 0.0
C57 C 0.4932 0.01101 0.97195 0.0
C58 C 0.54517 0.05449 1.00289 0.0
C59 C 0.40563 0.19761 0.90838 0.0
C60 C 0.46834 0.16751 0.8736 0.0
C61 C 0.51995 0.12524 0.87408 0.0
C62 C 0.47723 0.18221 0.83966 0.0
C63 C 0.53879 0.15587 0.80683 0.0
C64 C 0.58061 0.09848 0.84131 0.0
C65 C 0.59048 0.1139 0.80808 0.0
C66 C 0.16964 0.15675 1.0082 0.0
C67 C 0.32317 0.27507 0.08066 0.0
C68 C 0.09837 0.30302 0.12318 0.0
C69 C 0.03513 0.33284 0.15769 0.0
C70 C 0.98293 0.37457 0.1568 0.0
C71 C 0.02633 0.31838 0.19176 0.0
C72 C 0.9643 0.34444 0.22435 0.0
C73 C 0.92178 0.40105 0.18933 0.0
C74 C 0.91203 0.38588 0.2227 0.0
C75 C 0.33439 0.34345 0.02334 0.0
H76 H 0.51356 0.11326 0.89985 0.0
H77 H 0.43749 0.21512 0.83942 0.0
H78 H 0.62047 0.06588 0.84178 0.0
H79 H 0.63813 0.09274 0.78314 0.0
H80 H 0.98923 0.38635 0.13092 0.0
H81 H 0.06651 0.28586 0.19228 0.0
H82 H 0.88146 0.43323 0.18855 0.0
H83 H 0.86401 0.40683 0.24745 0.0
Gd84 Gd 0.82763 0.69849 0.97483 0.0
Gd85 Gd 0.67889 0.8015 0.05776 0.0
C86 C 0.46001 0.86512 1.00907 0.0
C87 C 0.48144 0.96936 0.04837 0.0
C88 C 0.57674 0.90607 0.0588 0.0
C89 C 0.53161 0.85821 0.02941 0.0
C90 C 0.55135 0.96237 0.06931 0.0
C91 C 0.43596 0.92089 0.01816 0.0
C92 C 0.41353 0.81598 0.98116 0.0
C93 C 0.43695 0.76203 0.97556 0.0
N94 N 0.55572 0.80514 0.02219 0.0
C95 C 0.50762 0.75751 0.99702 0.0
H96 H 0.52427 0.71527 0.99199 0.0
C97 C 0.6839 0.94414 0.11214 0.0
N98 N 0.64318 0.89778 0.07889 0.0
C99 C 0.66173 0.00088 0.12338 0.0
C100 C 0.5957 0.01 0.10143 0.0
H101 H 0.735 0.93704 0.12913 0.0
H102 H 0.38153 0.92714 1.00267 0.0
H103 H 0.9823 0.785 0.0403 0.0
H104 H 0.35849 0.81945 0.96471 0.0
H105 H 0.40055 0.72383 0.95473 0.0
H106 H 0.46162 0.01208 0.05557 0.0
H107 H 0.7715 0.5628 0.90386 0.0
H108 H 0.14875 0.68129 0.0677 0.0
H109 H 0.10634 0.77674 0.07747 0.0
H110 H 0.04603 0.48848 0.97723 0.0
H111 H 0.69542 0.03746 0.14895 0.0
H112 H 0.57825 0.05383 0.11014 0.0
H113 H 0.12598 0.57359 0.02997 0.0
H114 H 0.81137 0.46251 0.88425 0.0
N115 N 0.95094 0.69515 1.01041 0.0
C116 C 0.09354 0.68463 0.05131 0.0
C117 C 0.06993 0.73848 0.05679 0.0
C118 C 0.04705 0.63541 0.02357 0.0
C119 C 0.97522 0.64216 1.0033 0.0
C120 C 0.99907 0.74283 0.03538 0.0
N121 N 0.86344 0.60232 0.95399 0.0
C122 C 0.93009 0.5942 0.97405 0.0
C123 C 0.84508 0.49917 0.90972 0.0
C124 C 0.91136 0.49023 0.93161 0.0
C125 C 0.82273 0.55584 0.92085 0.0
C126 C 0.95575 0.53796 0.96358 0.0
H127 H 0.92895 0.44645 0.92299 0.0
O128 O 0.8301 0.65888 0.90245 0.0
O129 O 0.71981 0.75591 0.98711 0.0
O130 O 0.63872 0.70807 0.03145 0.0
O131 O 0.74716 0.64378 0.9931 0.0
O132 O 0.71309 0.67403 0.93238 0.0
O133 O 0.92234 0.72245 0.94237 0.0
O134 O 0.67664 0.84068 0.13011 0.0
O135 O 0.78679 0.74418 0.04546 0.0
O136 O 0.86751 0.79195 1.00093 0.0
O137 O 0.75922 0.85628 0.03951 0.0
O138 O 0.79361 0.8261 0.10009 0.0
O139 O 0.58419 0.77737 0.09013 0.0
C140 C 0.67722 0.7241 0.95295 0.0
C141 C 0.02597 0.53114 0.98441 0.0
C142 C 0.07137 0.57971 1.01454 0.0
C143 C 0.89485 0.68774 0.90228 0.0
C144 C 0.95653 0.65619 0.8673 0.0
C145 C 0.00606 0.61284 0.86756 0.0
C146 C 0.96688 0.67092 0.83352 0.0
C147 C 0.02779 0.64346 0.80057 0.0
C148 C 0.06603 0.58489 0.83455 0.0
C149 C 0.0774 0.60035 0.80144 0.0
C150 C 0.67345 0.65587 1.01219 0.0
C151 C 0.82956 0.77607 0.07952 0.0
C152 C 0.61183 0.81185 0.13023 0.0
C153 C 0.55029 0.84335 0.1653 0.0
C154 C 0.50065 0.88671 0.16512 0.0
C155 C 0.54017 0.82859 0.19908 0.0
C156 C 0.47936 0.85601 0.23209 0.0
C157 C 0.44079 0.91463 0.1982 0.0
C158 C 0.42964 0.89912 0.2313 0.0
C159 C 0.8328 0.84417 0.02027 0.0
H160 H 0.99869 0.60097 0.89332 0.0
H161 H 0.92893 0.70477 0.83353 0.0
H162 H 0.10428 0.55144 0.83481 0.0
H163 H 0.12465 0.57849 0.77638 0.0
H164 H 0.50785 0.8986 0.13936 0.0
H165 H 0.57821 0.79474 0.19902 0.0
H166 H 0.40245 0.94807 0.198 0.0
H167 H 0.38245 0.92094 0.25641 0.0
Gd168 Gd 0.32812 0.80173 0.55718 0.0
Gd169 Gd 0.17779 0.69948 0.47611 0.0
C170 C 0.97835 0.60782 0.51222 0.0
C171 C 0.0191 0.50661 0.46797 0.0
C172 C 0.0988 0.58204 0.4647 0.0
C173 C 0.04625 0.62389 0.49509 0.0
C174 C 0.08565 0.52285 0.45055 0.0
C175 C 0.96538 0.54896 0.49872 0.0
C176 C 0.92482 0.65128 0.54179 0.0
C177 C 0.93827 0.70879 0.55246 0.0
N178 N 0.06019 0.6802 0.50692 0.0
C179 C 0.00585 0.72243 0.5341 0.0
H180 H 0.0151 0.76708 0.54276 0.0
C181 C 0.21188 0.55901 0.41552 0.0
N182 N 0.16179 0.59916 0.44809 0.0
C183 C 0.20206 0.49981 0.40088 0.0
C184 C 0.13913 0.4817 0.41882 0.0
H185 H 0.26093 0.57273 0.40164 0.0
H186 H 0.91381 0.53571 0.51161 0.0
H187 H 0.49137 0.73425 0.49101 0.0
H188 H 0.87229 0.64078 0.55593 0.0
H189 H 0.89659 0.74269 0.5748 0.0
H190 H 0.00869 0.46138 0.45772 0.0
H191 H 0.24466 0.92849 0.63143 0.0
H192 H 0.63283 0.86032 0.47681 0.0
H193 H 0.60955 0.75859 0.45869 0.0
H194 H 0.495 0.03956 0.57403 0.0
H195 H 0.24303 0.46823 0.37584 0.0
H196 H 0.13175 0.43594 0.40762 0.0
H197 H 0.5903 0.96528 0.52042 0.0
H198 H 0.26174 0.03291 0.65666 0.0
N199 N 0.44563 0.82099 0.52632 0.0
C200 C 0.5805 0.84986 0.4911 0.0
C201 C 0.56763 0.79244 0.48086 0.0
C202 C 0.52666 0.89327 0.52045 0.0
C203 C 0.45907 0.87723 0.5378 0.0
C204 C 0.50027 0.77884 0.49938 0.0
N205 N 0.34359 0.90201 0.58486 0.0
C206 C 0.40629 0.91907 0.56804 0.0
C207 C 0.30278 0.00132 0.63168 0.0
C208 C 0.3653 0.01935 0.61344 0.0
C209 C 0.29344 0.94217 0.61738 0.0
C210 C 0.41892 0.9782 0.58181 0.0
H211 H 0.37226 0.06504 0.62434 0.0
O212 O 0.33723 0.83132 0.62825 0.0
O213 O 0.22181 0.74367 0.54606 0.0
O214 O 0.13068 0.7928 0.51248 0.0
O215 O 0.24713 0.85222 0.53495 0.0
O216 O 0.2182 0.82316 0.60295 0.0
O217 O 0.43205 0.77543 0.58312 0.0
O218 O 0.16835 0.67004 0.40506 0.0
O219 O 0.28434 0.75725 0.48721 0.0
O220 O 0.37528 0.70842 0.52109 0.0
O221 O 0.25903 0.64874 0.49796 0.0
O222 O 0.28772 0.67788 0.43029 0.0
O223 O 0.07445 0.72669 0.45048 0.0
C224 C 0.18104 0.77395 0.5813 0.0
C225 C 0.48507 0.99439 0.56411 0.0
C226 C 0.53901 0.95206 0.53352 0.0
C227 C 0.4063 0.80401 0.62434 0.0
C228 C 0.46862 0.83452 0.65923 0.0
C229 C 0.51965 0.87689 0.65874 0.0
C230 C 0.47785 0.81995 0.69322 0.0
C231 C 0.5392 0.84651 0.72611 0.0
C232 C 0.58015 0.90386 0.69158 0.0
C233 C 0.59039 0.88854 0.72486 0.0
C234 C 0.16808 0.8428 0.52403 0.0
C235 C 0.32518 0.72696 0.452 0.0
C236 C 0.09973 0.69791 0.40918 0.0
C237 C 0.03686 0.66791 0.37454 0.0
C238 C 0.9846 0.62641 0.37549 0.0
C239 C 0.02816 0.68226 0.34041 0.0
C240 C 0.96614 0.65637 0.30784 0.0
C241 C 0.92342 0.60009 0.34296 0.0
C242 C 0.91372 0.61521 0.30954 0.0
C243 C 0.338 0.65822 0.50908 0.0
H244 H 0.513 0.88876 0.63291 0.0
H245 H 0.43857 0.78696 0.69344 0.0
H246 H 0.6196 0.93651 0.6911 0.0
H247 H 0.63791 0.90982 0.74985 0.0
H248 H 0.99081 0.61474 0.40145 0.0
H249 H 0.06837 0.71461 0.33985 0.0
H250 H 0.883 0.56813 0.34381 0.0
H251 H 0.86564 0.59446 0.28481 0.0
Gd252 Gd 0.82874 0.30006 0.55631 0.0
Gd253 Gd 0.67663 0.19935 0.4746 0.0
C254 C 0.4569 0.14052 0.52576 0.0
C255 C 0.47547 0.03595 0.48707 0.0
C256 C 0.57207 0.0971 0.47525 0.0
C257 C 0.52836 0.14588 0.50468 0.0
C258 C 0.54531 0.04141 0.46543 0.0
C259 C 0.43148 0.08536 0.51733 0.0
C260 C 0.41192 0.19056 0.55375 0.0
C261 C 0.43668 0.24389 0.55875 0.0
N262 N 0.55379 0.19835 0.5113 0.0
C263 C 0.50718 0.24689 0.53661 0.0
H264 H 0.52491 0.28871 0.54125 0.0
C265 C 0.67776 0.05664 0.42118 0.0
N266 N 0.63848 0.10391 0.45447 0.0
C267 C 0.65424 0.00046 0.41063 0.0
C268 C 0.58828 0.99284 0.4333 0.0
H269 H 0.72884 0.06258 0.40366 0.0
H270 H 0.3771 0.08031 0.53338 0.0
H271 H 0.98096 0.21178 0.48947 0.0
H272 H 0.35703 0.18829 0.57075 0.0
H273 H 0.40147 0.28279 0.57967 0.0
H274 H 0.45447 0.99373 0.48035 0.0
H275 H 0.77539 0.43643 0.62783 0.0
H276 H 0.14758 0.31364 0.46075 0.0
H277 H 0.10412 0.21865 0.45124 0.0
H278 H 0.04862 0.50761 0.55207 0.0
H279 H 0.68686 0.96317 0.38505 0.0
H280 H 0.56987 0.94944 0.42515 0.0
H281 H 0.12661 0.42158 0.4987 0.0
H282 H 0.81651 0.53624 0.64709 0.0
N283 N 0.95127 0.30203 0.51979 0.0
C284 C 0.09281 0.31093 0.47764 0.0
C285 C 0.0686 0.25733 0.4723 0.0
C286 C 0.04746 0.36068 0.50583 0.0
C287 C 0.97617 0.35476 0.52675 0.0
C288 C 0.99827 0.25377 0.49431 0.0
N289 N 0.86592 0.39587 0.577 0.0
C290 C 0.93213 0.40323 0.55638 0.0
C291 C 0.84935 0.49921 0.62136 0.0
C292 C 0.91511 0.50739 0.59889 0.0
C293 C 0.82632 0.4428 0.61045 0.0
C294 C 0.95837 0.45916 0.56656 0.0
H295 H 0.93317 0.55097 0.60733 0.0
O296 O 0.83333 0.33925 0.62859 0.0
O297 O 0.71966 0.24425 0.54488 0.0
O298 O 0.63921 0.29334 0.5009 0.0
O299 O 0.7494 0.35589 0.53866 0.0
O300 O 0.71555 0.326 0.59987 0.0
O301 O 0.92409 0.27468 0.58769 0.0
O302 O 0.67161 0.15902 0.40224 0.0
O303 O 0.7857 0.25502 0.48607 0.0
O304 O 0.8667 0.2061 0.52957 0.0
O305 O 0.75617 0.14362 0.49239 0.0
O306 O 0.78991 0.17343 0.43102 0.0
O307 O 0.58246 0.22516 0.44288 0.0
C308 C 0.67828 0.27657 0.57942 0.0
C309 C 0.02804 0.46519 0.54507 0.0
C310 C 0.07237 0.4161 0.51462 0.0
C311 C 0.89791 0.30959 0.62804 0.0
C312 C 0.96069 0.3403 0.66244 0.0
C313 C 0.01161 0.3824 0.66145 0.0
C314 C 0.9706 0.32597 0.69644 0.0
C315 C 0.03239 0.35255 0.72894 0.0
C316 C 0.07257 0.40949 0.69401 0.0
C317 C 0.08345 0.39441 0.72738 0.0
C318 C 0.67538 0.34492 0.52003 0.0
C319 C 0.82714 0.22288 0.45151 0.0
C320 C 0.60799 0.18934 0.40258 0.0
C321 C 0.5446 0.15908 0.36843 0.0
C322 C 0.49338 0.11722 0.36958 0.0
C323 C 0.5344 0.17359 0.33454 0.0
C324 C 0.47208 0.14739 0.30228 0.0
C325 C 0.43191 0.09052 0.33729 0.0
C326 C 0.42079 0.10575 0.30401 0.0
C327 C 0.83041 0.15457 0.5108 0.0
H328 H 0.00455 0.39394 0.63547 0.0
H329 H 0.93154 0.29304 0.69695 0.0
H330 H 0.11192 0.44197 0.69319 0.0
H331 H 0.1314 0.41561 0.75212 0.0
H332 H 0.50063 0.10556 0.39548 0.0
H333 H 0.57369 0.20634 0.33392 0.0
H334 H 0.39235 0.05822 0.33822 0.0
H335 H 0.37245 0.08481 0.27947 0.0
C336 C 0.58441 0.62138 0.05313 0.0
C337 C 0.62645 0.60926 1.01391 0.0
C338 C 0.53689 0.57876 0.05559 0.0
C339 C 0.52928 0.52305 0.01744 0.0
C340 C 0.57145 0.51067 0.9776 0.0
C341 C 0.62059 0.55377 0.97653 0.0
C342 C 0.49544 0.59327 0.09915 0.0
C343 C 0.5635 0.45226 0.93592 0.0
C344 C 0.46812 0.39458 0.03196 0.0
C345 C 0.38296 0.39112 0.02393 0.0
C346 C 0.51612 0.43781 0.03062 0.0
C347 C 0.4785 0.47753 0.01962 0.0
C348 C 0.39238 0.47413 1.01135 0.0
C349 C 0.34541 0.43149 1.0143 0.0
C350 C 0.6071 0.44106 0.04113 0.0
C351 C 0.35009 0.51478 0.99857 0.0
H352 H 0.58963 0.6642 0.08223 0.0
H353 H 0.65222 0.54465 0.94605 0.0
H354 H 0.42763 0.5887 0.09453 0.0
H355 H 0.51587 0.56233 0.11027 0.0
H356 H 0.50932 0.63816 0.12602 0.0
H357 H 0.5986 0.45003 0.90741 0.0
H358 H 0.5862 0.41746 0.94235 0.0
H359 H 0.49759 0.44309 0.92628 0.0
H360 H 0.4973 0.36372 0.03974 0.0
H361 H 0.27968 0.42862 1.00769 0.0
H362 H 0.62268 0.485 0.0688 0.0
H363 H 0.64383 0.43391 1.01168 0.0
H364 H 0.62617 0.40839 0.05081 0.0
H365 H 0.35702 0.56035 0.02571 0.0
H366 H 0.28326 0.50518 0.99179 0.0
H367 H 0.37963 0.51147 0.96833 0.0
C368 C 0.47347 0.61015 0.50385 0.0
C369 C 0.38753 0.61097 0.5087 0.0
C370 C 0.52193 0.56702 0.50523 0.0
C371 C 0.48373 0.52455 0.51279 0.0
C372 C 0.39688 0.52525 0.51782 0.0
C373 C 0.34968 0.56804 0.51511 0.0
C374 C 0.61399 0.56678 0.49838 0.0
C375 C 0.35391 0.48141 0.52677 0.0
C376 C 0.59366 0.38166 0.47816 0.0
C377 C 0.63011 0.39207 0.51835 0.0
C378 C 0.54715 0.42477 0.47571 0.0
C379 C 0.53468 0.47896 0.51479 0.0
C380 C 0.57143 0.4896 0.55557 0.0
C381 C 0.61996 0.44619 0.55669 0.0
C382 C 0.51163 0.41235 0.43127 0.0
C383 C 0.55798 0.54629 0.59815 0.0
H384 H 0.50296 0.64303 0.4986 0.0
H385 H 0.2833 0.5688 0.51924 0.0
H386 H 0.64703 0.57256 0.52854 0.0
H387 H 0.63346 0.52425 0.47015 0.0
H388 H 0.63369 0.60169 0.49135 0.0
H389 H 0.2863 0.48909 0.53131 0.0
H390 H 0.36464 0.43689 0.49868 0.0
H391 H 0.37989 0.48312 0.55725 0.0
H392 H 0.60235 0.33979 0.44844 0.0
H393 H 0.64754 0.45379 0.58781 0.0
H394 H 0.53279 0.44569 0.42287 0.0
H395 H 0.44335 0.41475 0.43319 0.0
H396 H 0.52975 0.36878 0.40377 0.0
H397 H 0.58081 0.58301 0.59421 0.0
H398 H 0.58973 0.54733 0.62717 0.0
H399 H 0.49099 0.55343 0.60551 0.0
C400 C 0.15908 0.06935 0.01803 0.0
C401 C 0.12139 0.10909 1.00776 0.0
C402 C 0.11238 0.02673 0.02113 0.0
C403 C 0.02644 0.02266 1.01232 0.0
C404 C 0.9887 0.06171 1.00066 0.0
C405 C 0.03639 0.10499 0.99921 0.0
C406 C 0.15475 0.98683 0.03464 0.0
C407 C 0.89794 0.05767 0.98953 0.0
C408 C 0.92229 0.87842 0.97932 0.0
C409 C 0.8796 0.89077 0.01842 0.0
C410 C 0.96947 0.92107 0.97673 0.0
C411 C 0.97599 0.9771 1.01462 0.0
C412 C 0.93314 0.98974 0.05433 0.0
C413 C 0.88443 0.94656 0.05554 0.0
C414 C 0.01172 0.90626 0.9333 0.0
C415 C 0.9399 0.04853 0.09575 0.0
H416 H 0.22468 0.07273 0.02502 0.0
H417 H 0.00715 0.13537 0.99093 0.0
H418 H 0.1247 0.99043 0.06486 0.0
H419 H 0.14859 0.94105 1.00774 0.0
H420 H 0.2214 0.99693 0.04177 0.0
H421 H 0.87879 0.08987 0.97938 0.0
H422 H 0.88317 0.01346 0.96201 0.0
H423 H 0.86065 0.06497 0.01885 0.0
H424 H 0.91785 0.83538 0.9504 0.0
H425 H 0.85228 0.95588 0.08593 0.0
H426 H 0.0794 0.91138 0.93833 0.0
H427 H 0.99117 0.93668 0.9217 0.0
H428 H 0.99865 0.86112 0.90661 0.0
H429 H 0.00557 0.05828 0.10579 0.0
H430 H 0.90429 0.05097 0.12419 0.0
H431 H 0.91704 0.08283 0.08879 0.0
C432 C 0.9163 0.11928 0.55231 0.0
C433 C 0.87588 0.10757 0.51274 0.0
C434 C 0.96289 0.07636 0.55499 0.0
C435 C 0.97118 0.02084 0.51672 0.0
C436 C 0.93032 0.00879 0.47658 0.0
C437 C 0.88201 0.05219 0.47528 0.0
C438 C 0.00297 0.09045 0.59883 0.0
C439 C 0.93914 0.95055 0.43481 0.0
C440 C 0.15588 0.93045 0.51474 0.0
C441 C 0.11867 0.8898 0.52403 0.0
C442 C 0.10845 0.97272 0.51143 0.0
C443 C 0.02218 0.9754 0.51895 0.0
C444 C 0.98477 0.93532 0.52948 0.0
C445 C 0.03331 0.89247 0.53123 0.0
C446 C 0.15049 0.01384 0.49918 0.0
C447 C 0.89354 0.93789 0.53917 0.0
H448 H 0.91069 0.16205 0.58145 0.0
H449 H 0.85142 0.04347 0.44459 0.0
H450 H 0.98261 0.05894 0.60932 0.0
H451 H 0.07094 0.08646 0.59487 0.0
H452 H 0.98788 0.13505 0.62585 0.0
H453 H 0.90419 0.94837 0.40622 0.0
H454 H 0.0052 0.94172 0.4254 0.0
H455 H 0.91691 0.91549 0.44098 0.0
H456 H 0.22179 0.92817 0.50876 0.0
H457 H 0.00443 0.86133 0.53872 0.0
H458 H 0.14282 0.05928 0.52649 0.0
H459 H 0.12134 0.01076 0.46889 0.0
H460 H 0.21749 0.00456 0.49274 0.0
H461 H 0.87697 0.98153 0.56699 0.0
H462 H 0.87455 0.90472 0.54827 0.0
H463 H 0.85751 0.93104 0.50955 0.0
C464 C 0.38087 0.18367 0.26259 0.0
C465 C 0.45888 0.16487 0.2678 0.0
C466 C 0.36728 0.20159 0.23087 0.0
C467 C 0.4328 0.19909 0.20272 0.0
C468 C 0.51176 0.17978 0.20767 0.0
C469 C 0.52411 0.16369 0.24063 0.0
C470 C 0.28291 0.22389 0.22791 0.0
C471 C 0.58354 0.17669 0.17866 0.0
C472 C 0.35824 0.19425 0.09615 0.0
C473 C 0.36679 0.25235 0.10676 0.0
C474 C 0.38378 0.17562 0.12608 0.0
C475 C 0.41764 0.21622 0.16795 0.0
C476 C 0.43029 0.27433 0.17786 0.0
C477 C 0.40509 0.29156 0.14703 0.0
C478 C 0.36946 0.11324 0.11395 0.0
C479 C 0.46483 0.31932 0.22232 0.0
H480 H 0.33075 0.18543 0.28406 0.0
H481 H 0.58458 0.14932 0.24472 0.0
H482 H 0.28817 0.26787 0.23157 0.0
H483 H 0.2554 0.19513 0.19466 0.0
H484 H 0.24006 0.22624 0.25392 0.0
H485 H 0.63383 0.14848 0.17929 0.0
H486 H 0.5638 0.1602 0.14357 0.0
H487 H 0.6091 0.22086 0.19108 0.0
H488 H 0.32778 0.16381 0.06555 0.0
H489 H 0.41131 0.33666 0.15549 0.0
H490 H 0.31488 0.11062 0.13226 0.0
H491 H 0.42317 0.09601 0.12382 0.0
H492 H 0.35774 0.08528 0.07763 0.0
H493 H 0.42112 0.32624 0.2493 0.0
H494 H 0.47565 0.36167 0.22373 0.0
H495 H 0.5238 0.304 0.22927 0.0
C496 C 0.38759 0.81918 0.27091 0.0
C497 C 0.46563 0.83823 0.26633 0.0
C498 C 0.37324 0.80126 0.30255 0.0
C499 C 0.43794 0.80418 0.33136 0.0
C500 C 0.51699 0.82372 0.32701 0.0
C501 C 0.53018 0.83966 0.29404 0.0
C502 C 0.289 0.7784 0.30465 0.0
C503 C 0.58805 0.82714 0.35662 0.0
C504 C 0.35956 0.80826 0.43702 0.0
C505 C 0.36931 0.75026 0.42653 0.0
C506 C 0.38598 0.82718 0.40743 0.0
C507 C 0.42187 0.78695 0.366 0.0
C508 C 0.43554 0.72896 0.35625 0.0
C509 C 0.40953 0.71147 0.38676 0.0
C510 C 0.37058 0.88943 0.41943 0.0
C511 C 0.47206 0.68429 0.31222 0.0
H512 H 0.33803 0.81726 0.24903 0.0
H513 H 0.5907 0.85418 0.29038 0.0
H514 H 0.29478 0.73451 0.30115 0.0
H515 H 0.26019 0.80703 0.33756 0.0
H516 H 0.24699 0.77564 0.27813 0.0
H517 H 0.63748 0.85638 0.35699 0.0
H518 H 0.56727 0.84254 0.3914 0.0
H519 H 0.61524 0.78327 0.34388 0.0
H520 H 0.32754 0.83834 0.46721 0.0
H521 H 0.41666 0.66644 0.37839 0.0
H522 H 0.31722 0.89157 0.40009 0.0
H523 H 0.4248 0.90729 0.41066 0.0
H524 H 0.35645 0.91713 0.4555 0.0
H525 H 0.42988 0.67754 0.28464 0.0
H526 H 0.48245 0.64181 0.31071 0.0
H527 H 0.5316 0.69984 0.3063 0.0
C528 C 0.6 0.70634 0.88474 0.0
C529 C 0.63587 0.74608 0.92563 0.0
C530 C 0.57766 0.72286 0.85309 0.0
C531 C 0.59004 0.78096 0.86285 0.0
C532 C 0.62148 0.82215 0.90528 0.0
C533 C 0.64464 0.8041 0.93595 0.0
C534 C 0.54702 0.67696 0.8079 0.0
C535 C 0.63656 0.88449 0.91746 0.0
C536 C 0.62974 0.81244 0.76772 0.0
C537 C 0.55144 0.8294 0.76097 0.0
C538 C 0.64272 0.7957 0.8002 0.0
C539 C 0.5762 0.79743 0.82753 0.0
C540 C 0.49699 0.81488 0.82104 0.0
C541 C 0.48531 0.82993 0.78743 0.0
C542 C 0.72759 0.77565 0.80496 0.0
C543 C 0.42467 0.81767 0.84961 0.0
H544 H 0.59373 0.66129 0.87643 0.0
H545 H 0.67346 0.83498 0.96706 0.0
H546 H 0.48997 0.69161 0.79858 0.0
H547 H 0.59419 0.66937 0.78224 0.0
H548 H 0.53433 0.63505 0.80687 0.0
H549 H 0.5904 0.89999 0.90185 0.0
H550 H 0.63551 0.91353 0.95425 0.0
H551 H 0.69847 0.88805 0.90535 0.0
H552 H 0.68071 0.81133 0.74695 0.0
H553 H 0.42473 0.84316 0.78235 0.0
H554 H 0.72378 0.73239 0.80272 0.0
H555 H 0.75342 0.8063 0.83822 0.0
H556 H 0.77105 0.77267 0.77897 0.0
H557 H 0.40674 0.77313 0.84157 0.0
H558 H 0.37008 0.83898 0.84425 0.0
H559 H 0.44193 0.84149 0.88548 0.0
C560 C 0.64419 0.19689 0.59647 0.0
C561 C 0.63638 0.255 0.6068 0.0
C562 C 0.62045 0.17905 0.62713 0.0
C563 C 0.58935 0.22053 0.66959 0.0
C564 C 0.57777 0.27874 0.67932 0.0
C565 C 0.60079 0.29507 0.64769 0.0
C566 C 0.63477 0.11655 0.61489 0.0
C567 C 0.54722 0.32489 0.72446 0.0
C568 C 0.48461 0.1726 0.74548 0.0
C569 C 0.55078 0.17303 0.77198 0.0
C570 C 0.49627 0.18736 0.71171 0.0
C571 C 0.5755 0.20435 0.70506 0.0
C572 C 0.64207 0.20592 0.73239 0.0
C573 C 0.6291 0.18957 0.76507 0.0
C574 C 0.42409 0.1844 0.68292 0.0
C575 C 0.72708 0.2252 0.7273 0.0
H576 H 0.67276 0.16572 0.56535 0.0
H577 H 0.59521 0.34017 0.656 0.0
H578 H 0.69771 0.11211 0.62555 0.0
H579 H 0.59007 0.10177 0.63155 0.0
H580 H 0.63083 0.08745 0.57817 0.0
H581 H 0.53464 0.36678 0.72536 0.0
H582 H 0.49012 0.31055 0.73384 0.0
H583 H 0.59442 0.33241 0.75014 0.0
H584 H 0.42405 0.15958 0.75059 0.0
H585 H 0.68015 0.19054 0.78581 0.0
H586 H 0.44067 0.15797 0.64708 0.0
H587 H 0.40852 0.22859 0.68906 0.0
H588 H 0.36835 0.16563 0.68969 0.0
H589 H 0.75239 0.19422 0.69396 0.0
H590 H 0.77074 0.2279 0.75318 0.0
H591 H 0.72366 0.26844 0.72945 0.0
C592 C 0.86181 0.69654 0.09707 0.0
C593 C 0.8713 0.7543 0.10686 0.0
C594 C 0.88498 0.679 0.12804 0.0
C595 C 0.91735 0.7204 0.17015 0.0
C596 C 0.93078 0.77813 0.17926 0.0
C597 C 0.90823 0.79418 0.14737 0.0
C598 C 0.86899 0.61704 0.11665 0.0
C599 C 0.9628 0.82419 0.22403 0.0
C600 C 0.87674 0.69114 0.2663 0.0
C601 C 0.95452 0.67327 0.27284 0.0
C602 C 0.86432 0.70759 0.23361 0.0
C603 C 0.93084 0.70458 0.20584 0.0
C604 C 0.00958 0.68634 0.2122 0.0
C605 C 0.02073 0.67163 0.24603 0.0
C606 C 0.78005 0.72871 0.22912 0.0
C607 C 0.08206 0.68247 0.18337 0.0
H608 H 0.8323 0.66557 0.06621 0.0
H609 H 0.91515 0.83901 0.15523 0.0
H610 H 0.91699 0.60115 0.13107 0.0
H611 H 0.80865 0.61465 0.13079 0.0
H612 H 0.86628 0.58765 0.07993 0.0
H613 H 0.97621 0.86568 0.22451 0.0
H614 H 0.91612 0.83272 0.25013 0.0
H615 H 0.01973 0.80918 0.23315 0.0
H616 H 0.82575 0.69317 0.28738 0.0
H617 H 0.08094 0.65779 0.251 0.0
H618 H 0.75345 0.69831 0.196 0.0
H619 H 0.78512 0.77182 0.23119 0.0
H620 H 0.73657 0.73243 0.25534 0.0
H621 H 0.06402 0.66027 0.14761 0.0
H622 H 0.13511 0.65906 0.18774 0.0
H623 H 0.10279 0.7268 0.19228 0.0
C624 C 0.86058 0.30286 0.43472 0.0
C625 C 0.8686 0.24468 0.42417 0.0
C626 C 0.88395 0.32098 0.40417 0.0
C627 C 0.91483 0.2797 0.36161 0.0
C628 C 0.92661 0.22142 0.35164 0.0
C629 C 0.90398 0.2048 0.38317 0.0
C630 C 0.8695 0.38356 0.41668 0.0
C631 C 0.95707 0.1755 0.3064 0.0
C632 C 0.87427 0.3109 0.26632 0.0
C633 C 0.95249 0.32751 0.25933 0.0
C634 C 0.86156 0.29456 0.29903 0.0
C635 C 0.9283 0.29616 0.32628 0.0
C636 C 0.00738 0.31332 0.3196 0.0
C637 C 0.01878 0.32809 0.28583 0.0
C638 C 0.77665 0.27523 0.30422 0.0
C639 C 0.0797 0.3164 0.34835 0.0
H640 H 0.83218 0.33389 0.46594 0.0
H641 H 0.90973 0.15965 0.37469 0.0
H642 H 0.80647 0.38807 0.40615 0.0
H643 H 0.87359 0.41247 0.45342 0.0
H644 H 0.91405 0.39853 0.40008 0.0
H645 H 0.96942 0.13342 0.30522 0.0
H646 H 0.90995 0.16834 0.28076 0.0
H647 H 0.01429 0.18991 0.29717 0.0
H648 H 0.82311 0.30981 0.2456 0.0
H649 H 0.07925 0.3412 0.28067 0.0
H650 H 0.75159 0.30604 0.33767 0.0
H651 H 0.78019 0.23188 0.30187 0.0
H652 H 0.73274 0.27274 0.27851 0.0
H653 H 0.06314 0.3427 0.3842 0.0
H654 H 0.13525 0.33538 0.34161 0.0
H655 H 0.09558 0.27222 0.34212 0.0
C656 C 0.1231 0.31598 0.76856 0.0
C657 C 0.04534 0.33518 0.76348 0.0
C658 C 0.1364 0.29801 0.80027 0.0
C659 C 0.07084 0.30095 0.82856 0.0
C660 C 0.99212 0.32065 0.82371 0.0
C661 C 0.98003 0.33673 0.79073 0.0
C662 C 0.22046 0.27517 0.80307 0.0
C663 C 0.92024 0.32412 0.85278 0.0
C664 C 0.09789 0.20883 0.88456 0.0
C665 C 0.13666 0.248 0.92466 0.0
C666 C 0.07262 0.226 0.8537 0.0
C667 C 0.08583 0.28397 0.86341 0.0
C668 C 0.12017 0.32456 0.90514 0.0
C669 C 0.14559 0.30603 0.93513 0.0
C670 C 0.03736 0.18107 0.80943 0.0
C671 C 0.13507 0.38678 0.91701 0.0
H672 H 0.17323 0.31391 0.74699 0.0
H673 H 0.91973 0.35135 0.78667 0.0
H674 H 0.2483 0.30374 0.83625 0.0
H675 H 0.21458 0.23122 0.79941 0.0
H676 H 0.26332 0.27255 0.77696 0.0
H677 H 0.87085 0.35325 0.85268 0.0
H678 H 0.89337 0.28022 0.83993 0.0
H679 H 0.94008 0.33968 0.88774 0.0
H680 H 0.09132 0.1638 0.87623 0.0
H681 H 0.17636 0.33644 0.96565 0.0
H682 H 0.08059 0.174 0.78221 0.0
H683 H 0.97825 0.19656 0.80278 0.0
H684 H 0.02654 0.13877 0.80809 0.0
H685 H 0.18851 0.38889 0.89778 0.0
H686 H 0.14877 0.41469 0.9531 0.0
H687 H 0.08075 0.40442 0.90795 0.0
C688 C 0.09783 0.78921 0.64685 0.0
C689 C 0.1373 0.75051 0.6068 0.0
C690 C 0.07212 0.77143 0.67724 0.0
C691 C 0.08531 0.71323 0.66707 0.0
C692 C 0.12043 0.67312 0.62537 0.0
C693 C 0.1466 0.69233 0.59592 0.0
C694 C 0.03637 0.81596 0.72154 0.0
C695 C 0.13518 0.61064 0.61292 0.0
C696 C 0.11986 0.67989 0.76157 0.0
C697 C 0.04166 0.6612 0.76631 0.0
C698 C 0.13424 0.69795 0.73002 0.0
C699 C 0.06937 0.69558 0.70147 0.0
C700 C 0.99021 0.67631 0.70593 0.0
C701 C 0.97702 0.66019 0.7388 0.0
C702 C 0.21868 0.72042 0.72774 0.0
C703 C 0.91902 0.67337 0.67656 0.0
H704 H 0.09103 0.83438 0.65553 0.0
H705 H 0.17802 0.66228 0.56549 0.0
H706 H 0.97681 0.80056 0.7276 0.0
H707 H 0.0789 0.8222 0.74885 0.0
H708 H 0.02623 0.85866 0.72339 0.0
H709 H 0.14897 0.58317 0.57678 0.0
H710 H 0.18852 0.60796 0.63203 0.0
H711 H 0.08077 0.59288 0.62164 0.0
H712 H 0.16952 0.68147 0.78329 0.0
H713 H 0.91639 0.64591 0.74257 0.0
H714 H 0.21334 0.76453 0.73161 0.0
H715 H 0.2469 0.69192 0.69464 0.0
H716 H 0.26096 0.72255 0.75394 0.0
H717 H 0.89233 0.71741 0.68944 0.0
H718 H 0.8693 0.64437 0.67627 0.0
H719 H 0.93954 0.65796 0.64174 0.0
loop_
_geom_bond_atom_site_label_1
_geom_bond_atom_site_label_2
_geom_bond_distance
_geom_bond_site_symmetry_2
_ccdc_geom_bond_type
Gd0 N31 2.661 . S
Gd0 N37 2.601 . S
Gd0 O44 2.545 . S
Gd0 O45 2.606 . S
Gd0 O47 2.429 . S
Gd0 O48 2.545 . S
Gd0 O49 2.412 . S
Gd0 O51 2.362 1_556 S
Gd0 O52 2.324 . S
Gd0 C59 2.828 . S
Gd1 N10 2.661 . S
Gd1 N14 2.601 . S
Gd1 O45 2.362 1_554 S
Gd1 O46 2.324 . S
Gd1 O50 2.545 . S
Gd1 O51 2.606 . S
Gd1 O53 2.429 . S
Gd1 O54 2.545 . S
Gd1 O55 2.412 . S
Gd1 C68 2.828 . S
C2 C5 1.417 1_556 S
C2 C7 1.431 . S
C2 C8 1.412 . S
C3 C6 1.437 . S
C3 C7 1.317 1_554 S
C3 H22 0.929 . S
C4 C5 1.426 1_455 S
C4 C6 1.413 1_455 S
C4 N14 1.359 . S
C5 C2 1.417 1_554 S
C5 C4 1.426 1_655 S
C5 N10 1.350 1_655 S
C6 C3 1.437 . S
C6 C4 1.413 1_655 S
C6 C16 1.391 1_655 S
C7 C2 1.431 . S
C7 C3 1.317 1_556 S
C7 H18 0.930 . S
C8 C2 1.412 . S
C8 C9 1.355 . S
C8 H20 0.930 . S
C9 C8 1.355 . S
C9 C11 1.402 . S
C9 H21 0.930 . S
N10 Gd1 2.661 . S
N10 C5 1.350 1_455 S
N10 C11 1.307 1_454 S
C11 C9 1.402 . S
C11 N10 1.307 1_656 S
C11 H12 0.930 1_655 S
H12 C11 0.930 1_455 S
C13 N14 1.334 . S
C13 C15 1.394 . S
C13 H17 0.930 . S
N14 Gd1 2.601 . S
N14 C4 1.359 . S
N14 C13 1.334 . S
C15 C13 1.394 . S
C15 C16 1.359 . S
C15 H27 0.930 . S
C16 C6 1.391 1_455 S
C16 C15 1.359 . S
C16 H28 0.929 1_455 S
H17 C13 0.930 . S
H18 C7 0.930 . S
H19 C36 0.930 . S
H20 C8 0.930 . S
H21 C9 0.930 . S
H22 C3 0.929 . S
H23 C41 0.930 . S
H24 C32 0.930 . S
H25 C33 0.930 . S
H26 C57 0.929 . S
H27 C15 0.930 . S
H28 C16 0.929 1_655 S
H29 C58 0.930 . S
H30 C39 0.940 . S
N31 Gd0 2.661 . S
N31 C35 1.350 . S
N31 C36 1.307 1_556 S
C32 H24 0.930 . S
C32 C33 1.355 . S
C32 C34 1.412 . S
C33 H25 0.930 . S
C33 C32 1.355 . S
C33 C36 1.402 . S
C34 C32 1.412 . S
C34 C35 1.417 1_554 S
C34 C58 1.431 . S
C35 N31 1.350 . S
C35 C34 1.417 1_556 S
C35 C38 1.426 . S
C36 H19 0.930 . S
C36 N31 1.307 1_554 S
C36 C33 1.402 . S
N37 Gd0 2.601 . S
N37 C38 1.359 . S
N37 C41 1.334 . S
C38 C35 1.426 . S
C38 N37 1.359 . S
C38 C42 1.413 . S
C39 H30 0.940 . S
C39 C40 1.362 1_565 S
C39 C41 1.382 1_565 S
C40 C39 1.362 1_545 S
C40 C42 1.391 . S
C40 H43 0.929 1_545 S
C41 H23 0.930 . S
C41 N37 1.334 . S
C41 C39 1.382 1_545 S
C42 C38 1.413 . S
C42 C40 1.391 . S
C42 C57 1.437 . S
H43 C40 0.929 1_565 S
O44 Gd0 2.545 . S
O44 C59 1.258 . S
O45 Gd0 2.606 . S
O45 Gd1 2.362 1_556 S
O45 C56 1.284 . S
O46 Gd1 2.324 . S
O46 C66 1.254 1_554 S
O47 Gd0 2.429 . S
O47 C66 1.268 . S
O48 Gd0 2.545 . S
O48 C56 1.250 . S
O49 Gd0 2.412 . S
O49 C59 1.252 . S
O50 Gd1 2.545 . S
O50 C68 1.258 . S
O51 Gd0 2.362 1_554 S
O51 Gd1 2.606 . S
O51 C67 1.284 . S
O52 Gd0 2.324 . S
O52 C75 1.254 1_556 S
O53 Gd1 2.429 . S
O53 C75 1.268 . S
O54 Gd1 2.545 . S
O54 C67 1.250 . S
O55 Gd1 2.412 . S
O55 C68 1.252 . S
C56 O45 1.284 . S
C56 O48 1.250 . S
C57 H26 0.929 . S
C57 C42 1.437 . S
C57 C58 1.317 1_556 S
C58 H29 0.930 . S
C58 C34 1.431 . S
C58 C57 1.317 1_554 S
C59 Gd0 2.828 . S
C59 O44 1.258 . S
C59 O49 1.252 . S
C59 C60 1.497 . S
C60 C59 1.497 . S
C60 C61 1.395 . S
C60 C62 1.380 . S
C61 C60 1.395 . S
C61 C64 1.398 . S
C61 H76 0.930 . S
C62 C60 1.380 . S
C62 C63 1.391 . S
C62 H77 0.930 . S
C63 C62 1.391 . S
C63 C65 1.387 . S
C64 C61 1.398 . S
C64 C65 1.380 . S
C64 H78 0.930 . S
C65 C63 1.387 . S
C65 C64 1.380 . S
C65 H79 0.930 . S
C66 O46 1.254 1_556 S
C66 O47 1.268 . S
C67 O51 1.284 . S
C67 O54 1.250 . S
C68 Gd1 2.828 . S
C68 O50 1.258 . S
C68 O55 1.252 . S
C68 C69 1.497 . S
C69 C68 1.497 . S
C69 C70 1.395 . S
C69 C71 1.380 . S
C70 C69 1.395 . S
C70 C73 1.398 1_455 S
C70 H80 0.930 . S
C71 C69 1.380 . S
C71 C72 1.391 1_455 S
C71 H81 0.930 . S
C72 C71 1.391 1_655 S
C72 C74 1.387 . S
C73 C70 1.398 1_655 S
C73 C74 1.380 . S
C73 H82 0.930 . S
C74 C72 1.387 . S
C74 C73 1.380 . S
C74 H83 0.930 . S
C75 O52 1.254 1_554 S
C75 O53 1.268 . S
H76 C61 0.930 . S
H77 C62 0.930 . S
H78 C64 0.930 . S
H79 C65 0.930 . S
H80 C70 0.930 . S
H81 C71 0.930 . S
H82 C73 0.930 . S
H83 C74 0.930 . S
Gd84 N115 2.661 . S
Gd84 N121 2.601 . S
Gd84 O128 2.545 . S
Gd84 O129 2.606 . S
Gd84 O131 2.429 . S
Gd84 O132 2.545 . S
Gd84 O133 2.412 . S
Gd84 O135 2.362 1_556 S
Gd84 O136 2.324 . S
Gd84 C143 2.828 . S
Gd85 N94 2.661 . S
Gd85 N98 2.601 . S
Gd85 O129 2.362 1_554 S
Gd85 O130 2.324 . S
Gd85 O134 2.545 . S
Gd85 O135 2.606 . S
Gd85 O137 2.429 . S
Gd85 O138 2.545 . S
Gd85 O139 2.412 . S
Gd85 C152 2.828 . S
C86 C89 1.417 1_556 S
C86 C91 1.431 . S
C86 C92 1.412 . S
C87 C90 1.437 . S
C87 C91 1.317 1_554 S
C87 H106 0.929 . S
C88 C89 1.426 . S
C88 C90 1.413 . S
C88 N98 1.359 . S
C89 C86 1.417 1_554 S
C89 C88 1.426 . S
C89 N94 1.350 . S
C90 C87 1.437 . S
C90 C88 1.413 . S
C90 C100 1.391 . S
C91 C86 1.431 . S
C91 C87 1.317 1_556 S
C91 H102 0.930 . S
C92 C86 1.412 . S
C92 C93 1.355 . S
C92 H104 0.930 . S
C93 C92 1.355 . S
C93 C95 1.402 . S
C93 H105 0.930 . S
N94 Gd85 2.661 . S
N94 C89 1.350 . S
N94 C95 1.307 1_554 S
C95 C93 1.402 . S
C95 N94 1.307 1_556 S
C95 H96 0.930 . S
H96 C95 0.930 . S
C97 N98 1.334 . S
C97 C99 1.381 1_565 S
C97 H101 0.930 . S
N98 Gd85 2.601 . S
N98 C88 1.359 . S
N98 C97 1.334 . S
C99 C97 1.381 1_545 S
C99 C100 1.362 1_545 S
C99 H111 0.940 . S
C100 C90 1.391 . S
C100 C99 1.362 1_565 S
C100 H112 0.929 1_565 S
H101 C97 0.930 . S
H102 C91 0.930 . S
H103 C120 0.930 1_655 S
H104 C92 0.930 . S
H105 C93 0.930 . S
H106 C87 0.929 . S
H107 C125 0.930 . S
H108 C116 0.930 . S
H109 C117 0.930 . S
H110 C141 0.929 . S
H111 C99 0.940 . S
H112 C100 0.929 1_545 S
H113 C142 0.930 . S
H114 C123 0.930 . S
N115 Gd84 2.661 . S
N115 C119 1.350 1_655 S
N115 C120 1.307 1_656 S
C116 H108 0.930 . S
C116 C117 1.355 . S
C116 C118 1.412 . S
C117 H109 0.930 . S
C117 C116 1.355 . S
C117 C120 1.402 . S
C118 C116 1.412 . S
C118 C119 1.417 1_554 S
C118 C142 1.431 . S
C119 N115 1.350 1_455 S
C119 C118 1.417 1_556 S
C119 C122 1.426 1_455 S
C120 H103 0.930 1_455 S
C120 N115 1.307 1_454 S
C120 C117 1.402 . S
N121 Gd84 2.601 . S
N121 C122 1.359 . S
N121 C125 1.334 . S
C122 C119 1.426 1_655 S
C122 N121 1.359 . S
C122 C126 1.413 1_655 S
C123 H114 0.930 . S
C123 C124 1.359 . S
C123 C125 1.394 . S
C124 C123 1.359 . S
C124 C126 1.391 1_655 S
C124 H127 0.929 1_655 S
C125 H107 0.930 . S
C125 N121 1.334 . S
C125 C123 1.394 . S
C126 C122 1.413 1_455 S
C126 C124 1.391 1_455 S
C126 C141 1.437 . S
H127 C124 0.929 1_455 S
O128 Gd84 2.545 . S
O128 C143 1.258 . S
O129 Gd84 2.606 . S
O129 Gd85 2.362 1_556 S
O129 C140 1.284 . S
O130 Gd85 2.324 . S
O130 C150 1.254 1_554 S
O131 Gd84 2.429 . S
O131 C150 1.268 . S
O132 Gd84 2.545 . S
O132 C140 1.250 . S
O133 Gd84 2.412 . S
O133 C143 1.252 . S
O134 Gd85 2.545 . S
O134 C152 1.258 . S
O135 Gd84 2.362 1_554 S
O135 Gd85 2.606 . S
O135 C151 1.284 . S
O136 Gd84 2.324 . S
O136 C159 1.254 1_556 S
O137 Gd85 2.429 . S
O137 C159 1.268 . S
O138 Gd85 2.545 . S
O138 C151 1.250 . S
O139 Gd85 2.412 . S
O139 C152 1.252 . S
C140 O129 1.284 . S
C140 O132 1.250 . S
C141 H110 0.929 . S
C141 C126 1.437 . S
C141 C142 1.317 1_556 S
C142 H113 0.930 . S
C142 C118 1.431 . S
C142 C141 1.317 1_554 S
C143 Gd84 2.828 . S
C143 O128 1.258 . S
C143 O133 1.252 . S
C143 C144 1.497 . S
C144 C143 1.497 . S
C144 C145 1.395 . S
C144 C146 1.380 . S
C145 C144 1.395 . S
C145 C148 1.398 1_655 S
C145 H160 0.930 . S
C146 C144 1.380 . S
C146 C147 1.391 1_655 S
C146 H161 0.930 . S
C147 C146 1.391 1_455 S
C147 C149 1.387 . S
C148 C145 1.398 1_455 S
C148 C149 1.380 . S
C148 H162 0.930 . S
C149 C147 1.387 . S
C149 C148 1.380 . S
C149 H163 0.930 . S
C150 O130 1.254 1_556 S
C150 O131 1.268 . S
C151 O135 1.284 . S
C151 O138 1.250 . S
C152 Gd85 2.828 . S
C152 O134 1.258 . S
C152 O139 1.252 . S
C152 C153 1.497 . S
C153 C152 1.497 . S
C153 C154 1.395 . S
C153 C155 1.380 . S
C154 C153 1.395 . S
C154 C157 1.398 . S
C154 H164 0.930 . S
C155 C153 1.380 . S
C155 C156 1.391 . S
C155 H165 0.930 . S
C156 C155 1.391 . S
C156 C158 1.387 . S
C157 C154 1.398 . S
C157 C158 1.380 . S
C157 H166 0.930 . S
C158 C156 1.387 . S
C158 C157 1.380 . S
C158 H167 0.930 . S
C159 O136 1.254 1_554 S
C159 O137 1.268 . S
H160 C145 0.930 . S
H161 C146 0.930 . S
H162 C148 0.930 . S
H163 C149 0.930 . S
H164 C154 0.930 . S
H165 C155 0.930 . S
H166 C157 0.930 . S
H167 C158 0.930 . S
Gd168 N199 2.661 . S
Gd168 N205 2.601 . S
Gd168 O212 2.545 . S
Gd168 O213 2.606 . S
Gd168 O215 2.429 . S
Gd168 O216 2.545 . S
Gd168 O217 2.412 . S
Gd168 O219 2.362 . S
Gd168 O220 2.324 . S
Gd168 C227 2.828 . S
Gd169 N178 2.661 . S
Gd169 N182 2.601 . S
Gd169 O213 2.362 . S
Gd169 O214 2.324 . S
Gd169 O218 2.545 . S
Gd169 O219 2.606 . S
Gd169 O221 2.429 . S
Gd169 O222 2.545 . S
Gd169 O223 2.412 . S
Gd169 C236 2.828 . S
C170 C173 1.417 . S
C170 C175 1.431 . S
C170 C176 1.412 . S
C171 C174 1.437 . S
C171 C175 1.317 . S
C171 H190 0.929 . S
C172 C173 1.426 1_455 S
C172 C174 1.413 1_455 S
C172 N182 1.359 . S
C173 C170 1.417 . S
C173 C172 1.426 1_655 S
C173 N178 1.350 1_655 S
C174 C171 1.437 . S
C174 C172 1.413 1_655 S
C174 C184 1.391 1_655 S
C175 C170 1.431 . S
C175 C171 1.317 . S
C175 H186 0.930 . S
C176 C170 1.412 . S
C176 C177 1.355 . S
C176 H188 0.930 . S
C177 C176 1.355 . S
C177 C179 1.402 . S
C177 H189 0.930 . S
N178 Gd169 2.661 . S
N178 C173 1.350 1_455 S
N178 C179 1.307 1_455 S
C179 C177 1.402 . S
C179 N178 1.307 1_655 S
C179 H180 0.930 1_655 S
H180 C179 0.930 1_455 S
C181 N182 1.334 . S
C181 C183 1.394 . S
C181 H185 0.930 . S
N182 Gd169 2.601 . S
N182 C172 1.359 . S
N182 C181 1.334 . S
C183 C181 1.394 . S
C183 C184 1.359 . S
C183 H195 0.930 . S
C184 C174 1.391 1_455 S
C184 C183 1.359 . S
C184 H196 0.929 1_455 S
H185 C181 0.930 . S
H186 C175 0.930 . S
H187 C204 0.930 . S
H188 C176 0.930 . S
H189 C177 0.930 . S
H190 C171 0.929 . S
H191 C209 0.930 . S
H192 C200 0.930 . S
H193 C201 0.930 . S
H194 C225 0.929 . S
H195 C183 0.930 . S
H196 C184 0.929 1_655 S
H197 C226 0.930 . S
H198 C207 0.940 . S
N199 Gd168 2.661 . S
N199 C203 1.350 . S
N199 C204 1.307 . S
C200 H192 0.930 . S
C200 C201 1.355 . S
C200 C202 1.412 . S
C201 H193 0.930 . S
C201 C200 1.355 . S
C201 C204 1.402 . S
C202 C200 1.412 . S
C202 C203 1.417 . S
C202 C226 1.431 . S
C203 N199 1.350 . S
C203 C202 1.417 . S
C203 C206 1.426 . S
C204 H187 0.930 . S
C204 N199 1.307 . S
C204 C201 1.402 . S
N205 Gd168 2.601 . S
N205 C206 1.359 . S
N205 C209 1.334 . S
C206 C203 1.426 . S
C206 N205 1.359 . S
C206 C210 1.413 . S
C207 H198 0.940 . S
C207 C208 1.362 1_545 S
C207 C209 1.381 1_545 S
C208 C207 1.362 1_565 S
C208 C210 1.391 . S
C208 H211 0.929 1_565 S
C209 H191 0.930 . S
C209 N205 1.334 . S
C209 C207 1.381 1_565 S
C210 C206 1.413 . S
C210 C208 1.391 . S
C210 C225 1.437 . S
H211 C208 0.929 1_545 S
O212 Gd168 2.545 . S
O212 C227 1.258 . S
O213 Gd168 2.606 . S
O213 Gd169 2.362 . S
O213 C224 1.284 . S
O214 Gd169 2.324 . S
O214 C234 1.254 . S
O215 Gd168 2.429 . S
O215 C234 1.268 . S
O216 Gd168 2.545 . S
O216 C224 1.250 . S
O217 Gd168 2.412 . S
O217 C227 1.252 . S
O218 Gd169 2.545 . S
O218 C236 1.258 . S
O219 Gd168 2.362 . S
O219 Gd169 2.606 . S
O219 C235 1.284 . S
O220 Gd168 2.324 . S
O220 C243 1.254 . S
O221 Gd169 2.429 . S
O221 C243 1.268 . S
O222 Gd169 2.545 . S
O222 C235 1.250 . S
O223 Gd169 2.412 . S
O223 C236 1.252 . S
C224 O213 1.284 . S
C224 O216 1.250 . S
C225 H194 0.929 . S
C225 C210 1.437 . S
C225 C226 1.317 . S
C226 H197 0.930 . S
C226 C202 1.431 . S
C226 C225 1.317 . S
C227 Gd168 2.828 . S
C227 O212 1.258 . S
C227 O217 1.252 . S
C227 C228 1.497 . S
C228 C227 1.497 . S
C228 C229 1.395 . S
C228 C230 1.380 . S
C229 C228 1.395 . S
C229 C232 1.398 . S
C229 H244 0.930 . S
C230 C228 1.380 . S
C230 C231 1.391 . S
C230 H245 0.930 . S
C231 C230 1.391 . S
C231 C233 1.387 . S
C232 C229 1.398 . S
C232 C233 1.380 . S
C232 H246 0.930 . S
C233 C231 1.387 . S
C233 C232 1.380 . S
C233 H247 0.930 . S
C234 O214 1.254 . S
C234 O215 1.268 . S
C235 O219 1.284 . S
C235 O222 1.250 . S
C236 Gd169 2.828 . S
C236 O218 1.258 . S
C236 O223 1.252 . S
C236 C237 1.497 . S
C237 C236 1.497 . S
C237 C238 1.395 . S
C237 C239 1.380 . S
C238 C237 1.395 . S
C238 C241 1.398 1_455 S
C238 H248 0.930 . S
C239 C237 1.380 . S
C239 C240 1.391 1_455 S
C239 H249 0.930 . S
C240 C239 1.391 1_655 S
C240 C242 1.387 . S
C241 C238 1.398 1_655 S
C241 C242 1.380 . S
C241 H250 0.930 . S
C242 C240 1.387 . S
C242 C241 1.380 . S
C242 H251 0.930 . S
C243 O220 1.254 . S
C243 O221 1.268 . S
H244 C229 0.930 . S
H245 C230 0.930 . S
H246 C232 0.930 . S
H247 C233 0.930 . S
H248 C238 0.930 . S
H249 C239 0.930 . S
H250 C241 0.930 . S
H251 C242 0.930 . S
Gd252 N283 2.661 . S
Gd252 N289 2.601 . S
Gd252 O296 2.545 . S
Gd252 O297 2.606 . S
Gd252 O299 2.429 . S
Gd252 O300 2.545 . S
Gd252 O301 2.412 . S
Gd252 O303 2.362 . S
Gd252 O304 2.324 . S
Gd252 C311 2.828 . S
Gd253 N262 2.661 . S
Gd253 N266 2.601 . S
Gd253 O297 2.362 . S
Gd253 O298 2.324 . S
Gd253 O302 2.545 . S
Gd253 O303 2.606 . S
Gd253 O305 2.429 . S
Gd253 O306 2.545 . S
Gd253 O307 2.412 . S
Gd253 C320 2.828 . S
C254 C257 1.417 . S
C254 C259 1.431 . S
C254 C260 1.412 . S
C255 C258 1.437 . S
C255 C259 1.317 . S
C255 H274 0.929 . S
C256 C257 1.426 . S
C256 C258 1.413 . S
C256 N266 1.359 . S
C257 C254 1.417 . S
C257 C256 1.426 . S
C257 N262 1.350 . S
C258 C255 1.437 . S
C258 C256 1.413 . S
C258 C268 1.391 . S
C259 C254 1.431 . S
C259 C255 1.317 . S
C259 H270 0.930 . S
C260 C254 1.412 . S
C260 C261 1.355 . S
C260 H272 0.930 . S
C261 C260 1.355 . S
C261 C263 1.402 . S
C261 H273 0.930 . S
N262 Gd253 2.661 . S
N262 C257 1.350 . S
N262 C263 1.307 . S
C263 C261 1.402 . S
C263 N262 1.307 . S
C263 H264 0.930 . S
H264 C263 0.930 . S
C265 N266 1.334 . S
C265 C267 1.381 1_545 S
C265 H269 0.930 . S
N266 Gd253 2.601 . S
N266 C256 1.359 . S
N266 C265 1.334 . S
C267 C265 1.381 1_565 S
C267 C268 1.362 1_565 S
C267 H279 0.940 . S
C268 C258 1.391 . S
C268 C267 1.362 1_545 S
C268 H280 0.929 1_545 S
H269 C265 0.930 . S
H270 C259 0.930 . S
H271 C288 0.930 1_655 S
H272 C260 0.930 . S
H273 C261 0.930 . S
H274 C255 0.929 . S
H275 C293 0.930 . S
H276 C284 0.930 . S
H277 C285 0.930 . S
H278 C309 0.929 . S
H279 C267 0.940 . S
H280 C268 0.929 1_565 S
H281 C310 0.930 . S
H282 C291 0.930 . S
N283 Gd252 2.661 . S
N283 C287 1.350 1_655 S
N283 C288 1.307 1_655 S
C284 H276 0.930 . S
C284 C285 1.355 . S
C284 C286 1.412 . S
C285 H277 0.930 . S
C285 C284 1.355 . S
C285 C288 1.402 . S
C286 C284 1.412 . S
C286 C287 1.417 . S
C286 C310 1.431 . S
C287 N283 1.350 1_455 S
C287 C286 1.417 . S
C287 C290 1.426 1_455 S
C288 H271 0.930 1_455 S
C288 N283 1.307 1_455 S
C288 C285 1.402 . S
N289 Gd252 2.601 . S
N289 C290 1.359 . S
N289 C293 1.334 . S
C290 C287 1.426 1_655 S
C290 N289 1.359 . S
C290 C294 1.413 1_655 S
C291 H282 0.930 . S
C291 C292 1.359 . S
C291 C293 1.394 . S
C292 C291 1.359 . S
C292 C294 1.391 1_655 S
C292 H295 0.929 1_655 S
C293 H275 0.930 . S
C293 N289 1.334 . S
C293 C291 1.394 . S
C294 C290 1.413 1_455 S
C294 C292 1.391 1_455 S
C294 C309 1.437 . S
H295 C292 0.929 1_455 S
O296 Gd252 2.545 . S
O296 C311 1.258 . S
O297 Gd252 2.606 . S
O297 Gd253 2.362 . S
O297 C308 1.284 . S
O298 Gd253 2.324 . S
O298 C318 1.254 . S
O299 Gd252 2.429 . S
O299 C318 1.268 . S
O300 Gd252 2.545 . S
O300 C308 1.250 . S
O301 Gd252 2.412 . S
O301 C311 1.252 . S
O302 Gd253 2.545 . S
O302 C320 1.258 . S
O303 Gd252 2.362 . S
O303 Gd253 2.606 . S
O303 C319 1.284 . S
O304 Gd252 2.324 . S
O304 C327 1.254 . S
O305 Gd253 2.429 . S
O305 C327 1.268 . S
O306 Gd253 2.545 . S
O306 C319 1.250 . S
O307 Gd253 2.412 . S
O307 C320 1.252 . S
C308 O297 1.284 . S
C308 O300 1.250 . S
C309 H278 0.929 . S
C309 C294 1.437 . S
C309 C310 1.317 . S
C310 H281 0.930 . S
C310 C286 1.431 . S
C310 C309 1.317 . S
C311 Gd252 2.828 . S
C311 O296 1.258 . S
C311 O301 1.252 . S
C311 C312 1.497 . S
C312 C311 1.497 . S
C312 C313 1.395 . S
C312 C314 1.380 . S
C313 C312 1.395 . S
C313 C316 1.398 1_655 S
C313 H328 0.930 . S
C314 C312 1.380 . S
C314 C315 1.391 1_655 S
C314 H329 0.930 . S
C315 C314 1.391 1_455 S
C315 C317 1.387 . S
C316 C313 1.398 1_455 S
C316 C317 1.380 . S
C316 H330 0.930 . S
C317 C315 1.387 . S
C317 C316 1.380 . S
C317 H331 0.930 . S
C318 O298 1.254 . S
C318 O299 1.268 . S
C319 O303 1.284 . S
C319 O306 1.250 . S
C320 Gd253 2.828 . S
C320 O302 1.258 . S
C320 O307 1.252 . S
C320 C321 1.497 . S
C321 C320 1.497 . S
C321 C322 1.395 . S
C321 C323 1.380 . S
C322 C321 1.395 . S
C322 C325 1.398 . S
C322 H332 0.930 . S
C323 C321 1.380 . S
C323 C324 1.391 . S
C323 H333 0.930 . S
C324 C323 1.391 . S
C324 C326 1.387 . S
C325 C322 1.398 . S
C325 C326 1.380 . S
C325 H334 0.930 . S
C326 C324 1.387 . S
C326 C325 1.380 . S
C326 H335 0.930 . S
C327 O304 1.254 . S
C327 O305 1.268 . S
H328 C313 0.930 . S
H329 C314 0.930 . S
H330 C316 0.930 . S
H331 C317 0.930 . S
H332 C322 0.930 . S
H333 C323 0.930 . S
H334 C325 0.930 . S
H335 C326 0.930 . S
C336 C337 1.391 1_554 S
C336 C338 1.394 . S
C336 H352 0.931 . S
C337 C336 1.391 1_556 S
C337 C341 1.376 . S
C338 C336 1.394 . S
C338 C339 1.369 1_554 S
C338 C342 1.531 . S
C339 C338 1.369 1_556 S
C339 C340 1.410 . S
C339 C347 1.503 . S
C340 C339 1.410 . S
C340 C341 1.392 . S
C340 C343 1.511 . S
C341 C337 1.376 . S
C341 C340 1.392 . S
C341 H353 0.929 . S
C342 C338 1.531 . S
C342 H354 0.960 . S
C342 H355 0.962 . S
C342 H356 0.960 . S
C343 C340 1.511 . S
C343 H357 0.961 . S
C343 H358 0.961 . S
C343 H359 0.961 . S
C344 C345 1.370 . S
C344 C346 1.363 . S
C344 H360 0.931 . S
C345 C344 1.370 . S
C345 C349 1.408 1_554 S
C346 C344 1.363 . S
C346 C347 1.370 1_554 S
C346 C350 1.524 . S
C347 C339 1.503 . S
C347 C346 1.370 1_556 S
C347 C348 1.403 . S
C348 C347 1.403 . S
C348 C349 1.404 . S
C348 C351 1.539 . S
C349 C345 1.408 1_556 S
C349 C348 1.404 . S
C349 H361 0.930 . S
C350 C346 1.524 . S
C350 H362 0.956 . S
C350 H363 0.961 . S
C350 H364 0.961 . S
C351 C348 1.539 . S
C351 H365 0.958 . S
C351 H366 0.961 . S
C351 H367 0.960 . S
H352 C336 0.931 . S
H353 C341 0.929 . S
H354 C342 0.960 . S
H355 C342 0.962 . S
H356 C342 0.960 . S
H357 C343 0.961 . S
H358 C343 0.961 . S
H359 C343 0.961 . S
H360 C344 0.931 . S
H361 C349 0.930 . S
H362 C350 0.956 . S
H363 C350 0.961 . S
H364 C350 0.961 . S
H365 C351 0.958 . S
H366 C351 0.961 . S
H367 C351 0.960 . S
C368 C369 1.391 . S
C368 C370 1.394 . S
C368 H384 0.931 . S
C369 C368 1.391 . S
C369 C373 1.376 . S
C370 C368 1.394 . S
C370 C371 1.369 . S
C370 C374 1.531 . S
C371 C370 1.369 . S
C371 C372 1.410 . S
C371 C379 1.503 . S
C372 C371 1.410 . S
C372 C373 1.392 . S
C372 C375 1.511 . S
C373 C369 1.376 . S
C373 C372 1.392 . S
C373 H385 0.929 . S
C374 C370 1.531 . S
C374 H386 0.960 . S
C374 H387 0.962 . S
C374 H388 0.960 . S
C375 C372 1.511 . S
C375 H389 0.961 . S
C375 H390 0.961 . S
C375 H391 0.961 . S
C376 C377 1.370 . S
C376 C378 1.363 . S
C376 H392 0.931 . S
C377 C376 1.370 . S
C377 C381 1.408 . S
C378 C376 1.363 . S
C378 C379 1.370 . S
C378 C382 1.524 . S
C379 C371 1.503 . S
C379 C378 1.370 . S
C379 C380 1.403 . S
C380 C379 1.403 . S
C380 C381 1.404 . S
C380 C383 1.539 . S
C381 C377 1.408 . S
C381 C380 1.404 . S
C381 H393 0.930 . S
C382 C378 1.524 . S
C382 H394 0.956 . S
C382 H395 0.961 . S
C382 H396 0.961 . S
C383 C380 1.539 . S
C383 H397 0.958 . S
C383 H398 0.961 . S
C383 H399 0.960 . S
H384 C368 0.931 . S
H385 C373 0.929 . S
H386 C374 0.960 . S
H387 C374 0.962 . S
H388 C374 0.960 . S
H389 C375 0.961 . S
H390 C375 0.961 . S
H391 C375 0.961 . S
H392 C376 0.931 . S
H393 C381 0.930 . S
H394 C382 0.956 . S
H395 C382 0.961 . S
H396 C382 0.961 . S
H397 C383 0.958 . S
H398 C383 0.961 . S
H399 C383 0.960 . S
C400 C401 1.403 . S
C400 C402 1.394 . S
C400 H416 0.931 . S
C401 C400 1.403 . S
C401 C405 1.370 1_554 S
C402 C400 1.394 . S
C402 C403 1.369 . S
C402 C406 1.531 . S
C403 C402 1.369 . S
C403 C404 1.412 1_554 S
C403 C411 1.503 1_445 S
C404 C403 1.412 1_556 S
C404 C405 1.401 . S
C404 C407 1.500 1_455 S
C405 C401 1.370 1_556 S
C405 C404 1.401 . S
C405 H417 0.929 . S
C406 C402 1.531 . S
C406 H418 0.960 . S
C406 H419 0.962 1_545 S
C406 H420 0.960 . S
C407 C404 1.500 1_655 S
C407 H421 0.961 . S
C407 H422 0.961 . S
C407 H423 0.961 . S
C408 C409 1.370 1_556 S
C408 C410 1.363 . S
C408 H424 0.931 . S
C409 C408 1.370 1_554 S
C409 C413 1.408 . S
C410 C408 1.363 . S
C410 C411 1.370 1_556 S
C410 C414 1.524 1_655 S
C411 C403 1.503 1_665 S
C411 C410 1.370 1_554 S
C411 C412 1.403 1_565 S
C412 C411 1.403 1_545 S
C412 C413 1.400 1_545 S
C412 C415 1.543 . S
C413 C409 1.408 . S
C413 C412 1.400 1_565 S
C413 H425 0.930 . S
C414 C410 1.524 1_455 S
C414 H426 0.956 . S
C414 H427 0.961 . S
C414 H428 0.961 . S
C415 C412 1.543 . S
C415 H429 0.958 . S
C415 H430 0.961 . S
C415 H431 0.960 . S
H416 C400 0.931 . S
H417 C405 0.929 . S
H418 C406 0.960 . S
H419 C406 0.962 1_565 S
H420 C406 0.960 . S
H421 C407 0.961 . S
H422 C407 0.961 . S
H423 C407 0.961 . S
H424 C408 0.931 . S
H425 C413 0.930 . S
H426 C414 0.956 . S
H427 C414 0.961 . S
H428 C414 0.961 . S
H429 C415 0.958 . S
H430 C415 0.961 . S
H431 C415 0.960 . S
C432 C433 1.391 . S
C432 C434 1.394 . S
C432 H448 0.931 . S
C433 C432 1.391 . S
C433 C437 1.376 . S
C434 C432 1.394 . S
C434 C435 1.369 . S
C434 C438 1.531 1_655 S
C435 C434 1.369 . S
C435 C436 1.410 . S
C435 C443 1.503 1_645 S
C436 C435 1.410 . S
C436 C437 1.392 . S
C436 C439 1.511 1_545 S
C437 C433 1.376 . S
C437 C436 1.392 . S
C437 H449 0.929 . S
C438 C434 1.531 1_455 S
C438 H450 0.960 . S
C438 H451 0.962 . S
C438 H452 0.965 . S
C439 C436 1.511 1_565 S
C439 H453 0.961 . S
C439 H454 0.961 . S
C439 H455 0.961 . S
C440 C441 1.370 . S
C440 C442 1.363 . S
C440 H456 0.931 . S
C441 C440 1.370 . S
C441 C445 1.408 . S
C442 C440 1.363 . S
C442 C443 1.370 . S
C442 C446 1.524 1_565 S
C443 C435 1.503 1_465 S
C443 C442 1.370 . S
C443 C444 1.403 . S
C444 C443 1.403 . S
C444 C445 1.405 . S
C444 C447 1.537 1_455 S
C445 C441 1.408 . S
C445 C444 1.405 . S
C445 H457 0.930 . S
C446 C442 1.524 1_545 S
C446 H458 0.956 . S
C446 H459 0.961 1_545 S
C446 H460 0.961 1_545 S
C447 C444 1.537 1_655 S
C447 H461 0.958 . S
C447 H462 0.961 . S
C447 H463 0.960 . S
H448 C432 0.931 . S
H449 C437 0.929 . S
H450 C438 0.960 . S
H451 C438 0.962 . S
H452 C438 0.965 . S
H453 C439 0.961 . S
H454 C439 0.961 . S
H455 C439 0.961 . S
H456 C440 0.931 . S
H457 C445 0.930 . S
H458 C446 0.956 . S
H459 C446 0.961 1_565 S
H460 C446 0.961 1_565 S
H461 C447 0.958 . S
H462 C447 0.961 . S
H463 C447 0.960 . S
C464 C465 1.391 . S
C464 C466 1.394 . S
C464 H480 0.931 . S
C465 C464 1.391 . S
C465 C469 1.376 . S
C466 C464 1.394 . S
C466 C467 1.369 . S
C466 C470 1.531 . S
C467 C466 1.369 . S
C467 C468 1.410 . S
C467 C475 1.503 . S
C468 C467 1.410 . S
C468 C469 1.392 . S
C468 C471 1.511 . S
C469 C465 1.376 . S
C469 C468 1.392 . S
C469 H481 0.929 . S
C470 C466 1.531 . S
C470 H482 0.960 . S
C470 H483 0.962 . S
C470 H484 0.960 . S
C471 C468 1.511 . S
C471 H485 0.961 . S
C471 H486 0.961 . S
C471 H487 0.961 . S
C472 C473 1.370 . S
C472 C474 1.363 . S
C472 H488 0.931 . S
C473 C472 1.370 . S
C473 C477 1.408 . S
C474 C472 1.363 . S
C474 C475 1.370 . S
C474 C478 1.524 . S
C475 C467 1.503 . S
C475 C474 1.370 . S
C475 C476 1.403 . S
C476 C475 1.403 . S
C476 C477 1.404 . S
C476 C479 1.539 . S
C477 C473 1.408 . S
C477 C476 1.404 . S
C477 H489 0.930 . S
C478 C474 1.524 . S
C478 H490 0.956 . S
C478 H491 0.961 . S
C478 H492 0.961 . S
C479 C476 1.539 . S
C479 H493 0.958 . S
C479 H494 0.961 . S
C479 H495 0.960 . S
H480 C464 0.931 . S
H481 C469 0.929 . S
H482 C470 0.960 . S
H483 C470 0.962 . S
H484 C470 0.960 . S
H485 C471 0.961 . S
H486 C471 0.961 . S
H487 C471 0.961 . S
H488 C472 0.931 . S
H489 C477 0.930 . S
H490 C478 0.956 . S
H491 C478 0.961 . S
H492 C478 0.961 . S
H493 C479 0.958 . S
H494 C479 0.961 . S
H495 C479 0.960 . S
C496 C497 1.391 . S
C496 C498 1.394 . S
C496 H512 0.931 . S
C497 C496 1.391 . S
C497 C501 1.376 . S
C498 C496 1.394 . S
C498 C499 1.369 . S
C498 C502 1.531 . S
C499 C498 1.369 . S
C499 C500 1.410 . S
C499 C507 1.503 . S
C500 C499 1.410 . S
C500 C501 1.392 . S
C500 C503 1.511 . S
C501 C497 1.376 . S
C501 C500 1.392 . S
C501 H513 0.929 . S
C502 C498 1.531 . S
C502 H514 0.960 . S
C502 H515 0.962 . S
C502 H516 0.960 . S
C503 C500 1.511 . S
C503 H517 0.961 . S
C503 H518 0.961 . S
C503 H519 0.961 . S
C504 C505 1.370 . S
C504 C506 1.363 . S
C504 H520 0.931 . S
C505 C504 1.370 . S
C505 C509 1.408 . S
C506 C504 1.363 . S
C506 C507 1.370 . S
C506 C510 1.524 . S
C507 C499 1.503 . S
C507 C506 1.370 . S
C507 C508 1.403 . S
C508 C507 1.403 . S
C508 C509 1.404 . S
C508 C511 1.539 . S
C509 C505 1.408 . S
C509 C508 1.404 . S
C509 H521 0.930 . S
C510 C506 1.524 . S
C510 H522 0.956 . S
C510 H523 0.961 . S
C510 H524 0.961 . S
C511 C508 1.539 . S
C511 H525 0.958 . S
C511 H526 0.961 . S
C511 H527 0.960 . S
H512 C496 0.931 . S
H513 C501 0.929 . S
H514 C502 0.960 . S
H515 C502 0.962 . S
H516 C502 0.960 . S
H517 C503 0.961 . S
H518 C503 0.961 . S
H519 C503 0.961 . S
H520 C504 0.931 . S
H521 C509 0.930 . S
H522 C510 0.956 . S
H523 C510 0.961 . S
H524 C510 0.961 . S
H525 C511 0.958 . S
H526 C511 0.961 . S
H527 C511 0.960 . S
C528 C529 1.391 . S
C528 C530 1.394 . S
C528 H544 0.931 . S
C529 C528 1.391 . S
C529 C533 1.376 . S
C530 C528 1.394 . S
C530 C531 1.369 . S
C530 C534 1.531 . S
C531 C530 1.369 . S
C531 C532 1.410 . S
C531 C539 1.503 . S
C532 C531 1.410 . S
C532 C533 1.392 . S
C532 C535 1.511 . S
C533 C529 1.376 . S
C533 C532 1.392 . S
C533 H545 0.929 . S
C534 C530 1.531 . S
C534 H546 0.960 . S
C534 H547 0.962 . S
C534 H548 0.960 . S
C535 C532 1.511 . S
C535 H549 0.961 . S
C535 H550 0.961 . S
C535 H551 0.961 . S
C536 C537 1.370 . S
C536 C538 1.363 . S
C536 H552 0.931 . S
C537 C536 1.370 . S
C537 C541 1.408 . S
C538 C536 1.363 . S
C538 C539 1.370 . S
C538 C542 1.524 . S
C539 C531 1.503 . S
C539 C538 1.370 . S
C539 C540 1.403 . S
C540 C539 1.403 . S
C540 C541 1.404 . S
C540 C543 1.539 . S
C541 C537 1.408 . S
C541 C540 1.404 . S
C541 H553 0.930 . S
C542 C538 1.524 . S
C542 H554 0.956 . S
C542 H555 0.961 . S
C542 H556 0.961 . S
C543 C540 1.539 . S
C543 H557 0.958 . S
C543 H558 0.961 . S
C543 H559 0.960 . S
H544 C528 0.931 . S
H545 C533 0.929 . S
H546 C534 0.960 . S
H547 C534 0.962 . S
H548 C534 0.960 . S
H549 C535 0.961 . S
H550 C535 0.961 . S
H551 C535 0.961 . S
H552 C536 0.931 . S
H553 C541 0.930 . S
H554 C542 0.956 . S
H555 C542 0.961 . S
H556 C542 0.961 . S
H557 C543 0.958 . S
H558 C543 0.961 . S
H559 C543 0.960 . S
C560 C561 1.391 . S
C560 C562 1.394 . S
C560 H576 0.931 . S
C561 C560 1.391 . S
C561 C565 1.376 . S
C562 C560 1.394 . S
C562 C563 1.369 . S
C562 C566 1.531 . S
C563 C562 1.369 . S
C563 C564 1.410 . S
C563 C571 1.503 . S
C564 C563 1.410 . S
C564 C565 1.392 . S
C564 C567 1.511 . S
C565 C561 1.376 . S
C565 C564 1.392 . S
C565 H577 0.929 . S
C566 C562 1.531 . S
C566 H578 0.960 . S
C566 H579 0.962 . S
C566 H580 0.960 . S
C567 C564 1.511 . S
C567 H581 0.961 . S
C567 H582 0.961 . S
C567 H583 0.961 . S
C568 C569 1.370 . S
C568 C570 1.363 . S
C568 H584 0.931 . S
C569 C568 1.370 . S
C569 C573 1.408 . S
C570 C568 1.363 . S
C570 C571 1.370 . S
C570 C574 1.524 . S
C571 C563 1.503 . S
C571 C570 1.370 . S
C571 C572 1.403 . S
C572 C571 1.403 . S
C572 C573 1.404 . S
C572 C575 1.539 . S
C573 C569 1.408 . S
C573 C572 1.404 . S
C573 H585 0.930 . S
C574 C570 1.524 . S
C574 H586 0.956 . S
C574 H587 0.961 . S
C574 H588 0.961 . S
C575 C572 1.539 . S
C575 H589 0.958 . S
C575 H590 0.961 . S
C575 H591 0.960 . S
H576 C560 0.931 . S
H577 C565 0.929 . S
H578 C566 0.960 . S
H579 C566 0.962 . S
H580 C566 0.960 . S
H581 C567 0.961 . S
H582 C567 0.961 . S
H583 C567 0.961 . S
H584 C568 0.931 . S
H585 C573 0.930 . S
H586 C574 0.956 . S
H587 C574 0.961 . S
H588 C574 0.961 . S
H589 C575 0.958 . S
H590 C575 0.961 . S
H591 C575 0.960 . S
C592 C593 1.391 . S
C592 C594 1.394 . S
C592 H608 0.931 . S
C593 C592 1.391 . S
C593 C597 1.376 . S
C594 C592 1.394 . S
C594 C595 1.369 . S
C594 C598 1.531 . S
C595 C594 1.369 . S
C595 C596 1.410 . S
C595 C603 1.503 . S
C596 C595 1.410 . S
C596 C597 1.392 . S
C596 C599 1.511 1_655 S
C597 C593 1.376 . S
C597 C596 1.392 . S
C597 H609 0.929 . S
C598 C594 1.531 . S
C598 H610 0.960 . S
C598 H611 0.962 . S
C598 H612 0.960 . S
C599 C596 1.511 1_455 S
C599 H613 0.961 . S
C599 H614 0.961 . S
C599 H615 0.961 . S
C600 C601 1.370 . S
C600 C602 1.363 . S
C600 H616 0.931 . S
C601 C600 1.370 . S
C601 C605 1.408 1_655 S
C602 C600 1.363 . S
C602 C603 1.370 . S
C602 C606 1.524 . S
C603 C595 1.503 . S
C603 C602 1.370 . S
C603 C604 1.403 . S
C604 C603 1.403 . S
C604 C605 1.404 1_655 S
C604 C607 1.539 1_655 S
C605 C601 1.408 1_455 S
C605 C604 1.404 1_455 S
C605 H617 0.930 . S
C606 C602 1.524 . S
C606 H618 0.956 . S
C606 H619 0.961 . S
C606 H620 0.961 . S
C607 C604 1.539 1_455 S
C607 H621 0.958 1_455 S
C607 H622 0.961 . S
C607 H623 0.960 . S
H608 C592 0.931 . S
H609 C597 0.929 . S
H610 C598 0.960 . S
H611 C598 0.962 . S
H612 C598 0.960 . S
H613 C599 0.961 . S
H614 C599 0.961 . S
H615 C599 0.961 . S
H616 C600 0.931 . S
H617 C605 0.930 . S
H618 C606 0.956 . S
H619 C606 0.961 . S
H620 C606 0.961 . S
H621 C607 0.958 1_655 S
H622 C607 0.961 . S
H623 C607 0.960 . S
C624 C625 1.391 . S
C624 C626 1.394 . S
C624 H640 0.931 . S
C625 C624 1.391 . S
C625 C629 1.376 . S
C626 C624 1.394 . S
C626 C627 1.369 . S
C626 C630 1.531 1_655 S
C627 C626 1.369 . S
C627 C628 1.410 . S
C627 C635 1.503 . S
C628 C627 1.410 . S
C628 C629 1.392 . S
C628 C631 1.511 . S
C629 C625 1.376 . S
C629 C628 1.392 . S
C629 H641 0.929 . S
C630 C626 1.531 1_455 S
C630 H642 0.960 . S
C630 H643 0.962 . S
C630 H644 0.960 . S
C631 C628 1.511 . S
C631 H645 0.961 . S
C631 H646 0.961 . S
C631 H647 0.961 . S
C632 C633 1.370 . S
C632 C634 1.363 . S
C632 H648 0.931 . S
C633 C632 1.370 . S
C633 C637 1.408 1_655 S
C634 C632 1.363 . S
C634 C635 1.370 . S
C634 C638 1.524 . S
C635 C627 1.503 . S
C635 C634 1.370 . S
C635 C636 1.403 . S
C636 C635 1.403 . S
C636 C637 1.404 1_655 S
C636 C639 1.539 1_655 S
C637 C633 1.408 1_455 S
C637 C636 1.404 1_455 S
C637 H649 0.930 . S
C638 C634 1.524 . S
C638 H650 0.956 . S
C638 H651 0.961 . S
C638 H652 0.961 . S
C639 C636 1.539 1_455 S
C639 H653 0.958 . S
C639 H654 0.961 . S
C639 H655 0.960 1_455 S
H640 C624 0.931 . S
H641 C629 0.929 . S
H642 C630 0.960 . S
H643 C630 0.962 . S
H644 C630 0.960 . S
H645 C631 0.961 . S
H646 C631 0.961 . S
H647 C631 0.961 . S
H648 C632 0.931 . S
H649 C637 0.930 . S
H650 C638 0.956 . S
H651 C638 0.961 . S
H652 C638 0.961 . S
H653 C639 0.958 . S
H654 C639 0.961 . S
H655 C639 0.960 1_655 S
C656 C657 1.391 . S
C656 C658 1.394 . S
C656 H672 0.931 . S
C657 C656 1.391 . S
C657 C661 1.376 1_455 S
C658 C656 1.394 . S
C658 C659 1.369 . S
C658 C662 1.531 . S
C659 C658 1.369 . S
C659 C660 1.410 . S
C659 C667 1.503 . S
C660 C659 1.410 . S
C660 C661 1.392 1_455 S
C660 C663 1.511 1_455 S
C661 C657 1.376 1_655 S
C661 C660 1.392 1_655 S
C661 H673 0.929 . S
C662 C658 1.531 . S
C662 H674 0.960 . S
C662 H675 0.962 . S
C662 H676 0.960 . S
C663 C660 1.511 1_655 S
C663 H677 0.961 . S
C663 H678 0.961 . S
C663 H679 0.961 . S
C664 C665 1.370 . S
C664 C666 1.363 . S
C664 H680 0.931 . S
C665 C664 1.370 . S
C665 C669 1.408 . S
C666 C664 1.363 . S
C666 C667 1.370 . S
C666 C670 1.524 . S
C667 C659 1.503 . S
C667 C666 1.370 . S
C667 C668 1.403 . S
C668 C667 1.403 . S
C668 C669 1.404 . S
C668 C671 1.539 . S
C669 C665 1.408 . S
C669 C668 1.404 . S
C669 H681 0.930 . S
C670 C666 1.524 . S
C670 H682 0.956 . S
C670 H683 0.961 1_455 S
C670 H684 0.961 1_455 S
C671 C668 1.539 . S
C671 H685 0.958 . S
C671 H686 0.961 . S
C671 H687 0.960 . S
H672 C656 0.931 . S
H673 C661 0.929 . S
H674 C662 0.960 . S
H675 C662 0.962 . S
H676 C662 0.960 . S
H677 C663 0.961 . S
H678 C663 0.961 . S
H679 C663 0.961 . S
H680 C664 0.931 . S
H681 C669 0.930 . S
H682 C670 0.956 . S
H683 C670 0.961 1_655 S
H684 C670 0.961 1_655 S
H685 C671 0.958 . S
H686 C671 0.961 . S
H687 C671 0.960 . S
C688 C689 1.391 . S
C688 C690 1.394 . S
C688 H704 0.931 . S
C689 C688 1.391 . S
C689 C693 1.376 . S
C690 C688 1.394 . S
C690 C691 1.369 . S
C690 C694 1.531 . S
C691 C690 1.369 . S
C691 C692 1.410 . S
C691 C699 1.503 . S
C692 C691 1.410 . S
C692 C693 1.392 . S
C692 C695 1.511 . S
C693 C689 1.376 . S
C693 C692 1.392 . S
C693 H705 0.929 . S
C694 C690 1.531 . S
C694 H706 0.960 . S
C694 H707 0.962 . S
C694 H708 0.960 . S
C695 C692 1.511 . S
C695 H709 0.961 . S
C695 H710 0.961 . S
C695 H711 0.961 1_455 S
C696 C697 1.370 . S
C696 C698 1.363 . S
C696 H712 0.931 . S
C697 C696 1.370 . S
C697 C701 1.408 1_455 S
C698 C696 1.363 . S
C698 C699 1.370 . S
C698 C702 1.524 . S
C699 C691 1.503 . S
C699 C698 1.370 . S
C699 C700 1.403 1_455 S
C700 C699 1.403 1_655 S
C700 C701 1.404 . S
C700 C703 1.539 . S
C701 C697 1.408 1_655 S
C701 C700 1.404 . S
C701 H713 0.930 . S
C702 C698 1.524 . S
C702 H714 0.956 . S
C702 H715 0.961 . S
C702 H716 0.961 . S
C703 C700 1.539 . S
C703 H717 0.958 . S
C703 H718 0.961 . S
C703 H719 0.960 . S
H704 C688 0.931 . S
H705 C693 0.929 . S
H706 C694 0.960 . S
H707 C694 0.962 . S
H708 C694 0.960 . S
H709 C695 0.961 . S
H710 C695 0.961 . S
H711 C695 0.961 1_655 S
H712 C696 0.931 . S
H713 C701 0.930 . S
H714 C702 0.956 . S
H715 C702 0.961 . S
H716 C702 0.961 . S
H717 C703 0.958 . S
H718 C703 0.961 . S
H719 C703 0.960 . S
C337 C150 1.470 . S
C345 C75 1.515 . S
C369 C243 1.521 . S
C377 C318 1.493 . S
C401 C66 1.488 1_554 S
C409 C159 1.507 . S
C433 C327 1.529 . S
C441 C234 1.491 . S
C465 C324 1.252 . S
C473 C67 1.200 . S
C497 C156 1.254 . S
C505 C235 1.198 . S
C529 C140 1.188 . S
C537 C231 1.233 . S
C561 C308 1.150 . S
C569 C63 1.233 . S
C593 C151 1.244 . S
C601 C240 1.199 . S
C625 C319 1.187 . S
C633 C72 1.231 . S
C657 C315 1.173 . S
C665 C56 1.208 . S
C689 C224 1.225 . S
C697 C147 1.221 . S
