# Generated by pormake.
# Topology tfs, (6)-cn, num edge types: 1
# Building blocks:
#     Node 0, Type 0, BuildingBlock: UKALOJ_clean_sbu_0, # of connection points: 6
#     Node 1, Type 0, BuildingBlock: UKALOJ_clean_sbu_0, # of connection points: 6
#     Node 2, Type 0, BuildingBlock: UKALOJ_clean_sbu_0, # of connection points: 6
#     Node 3, Type 0, BuildingBlock: UKALOJ_clean_sbu_0, # of connection points: 6
#     Node 4, Type 0, BuildingBlock: UKALOJ_clean_sbu_0, # of connection points: 6
#     Node 5, Type 0, BuildingBlock: UKALOJ_clean_sbu_0, # of connection points: 6
#     Edge 6, Type (0, 0), BuildingBlock: AJUNOK_clean_linker_0, # of connection points: 2
#     Edge 7, Type (0, 0), BuildingBlock: AJUNOK_clean_linker_0, # of connection points: 2
#     Edge 8, Type (0, 0), BuildingBlock: AJUNOK_clean_linker_0, # of connection points: 2
#     Edge 9, Type (0, 0), BuildingBlock: AJUNOK_clean_linker_0, # of connection points: 2
#     Edge 10, Type (0, 0), BuildingBlock: AJUNOK_clean_linker_0, # of connection points: 2
#     Edge 11, Type (0, 0), BuildingBlock: AJUNOK_clean_linker_0, # of connection points: 2
#     Edge 12, Type (0, 0), BuildingBlock: AJUNOK_clean_linker_0, # of connection points: 2
#     Edge 13, Type (0, 0), BuildingBlock: AJUNOK_clean_linker_0, # of connection points: 2
#     Edge 14, Type (0, 0), BuildingBlock: AJUNOK_clean_linker_0, # of connection points: 2
#     Edge 15, Type (0, 0), BuildingBlock: AJUNOK_clean_linker_0, # of connection points: 2
#     Edge 16, Type (0, 0), BuildingBlock: AJUNOK_clean_linker_0, # of connection points: 2
#     Edge 17, Type (0, 0), BuildingBlock: AJUNOK_clean_linker_0, # of connection points: 2
#     Edge 18, Type (0, 0), BuildingBlock: AJUNOK_clean_linker_0, # of connection points: 2
#     Edge 19, Type (0, 0), BuildingBlock: AJUNOK_clean_linker_0, # of connection points: 2
#     Edge 20, Type (0, 0), BuildingBlock: AJUNOK_clean_linker_0, # of connection points: 2
#     Edge 21, Type (0, 0), BuildingBlock: AJUNOK_clean_linker_0, # of connection points: 2
#     Edge 22, Type (0, 0), BuildingBlock: AJUNOK_clean_linker_0, # of connection points: 2
#     Edge 23, Type (0, 0), BuildingBlock: AJUNOK_clean_linker_0, # of connection points: 2
# Relax obj value: 0.234
# Max RMSD: 0.159
# Mean RMSD: 0.159
data_MOF--net-tfs--node1-UKALOJ_clean_sbu_0--edge1-AJUNOK_clean_linker_0
_symmetry_space_group_name_H-M    P1
_symmetry_Int_Tables_number       1
_symmetry_cell_setting            triclinic
loop_
_symmetry_equiv_pos_as_xyz
'x, y, z'
_cell_length_a     37.094959
_cell_length_b     37.119961
_cell_length_c     11.359222
_cell_angle_alpha  89.988884
_cell_angle_beta   90.042802
_cell_angle_gamma 119.97584
loop_
_atom_site_label
_atom_site_type_symbol
_atom_site_fract_x
_atom_site_fract_y
_atom_site_fract_z
_atom_type_partial_charge
Zn0 Zn 0.19349 0.45389 -0.00992 0.0
O1 O 0.19363 0.45481 0.17796 0.0
C2 C 0.28488 0.48827 -0.00724 0.0
Zn3 Zn 0.20922 0.40315 -0.01088 0.0
C4 C 0.20064 0.42897 0.2326 0.0
O5 O 0.20748 0.40392 0.17374 0.0
C6 C 0.20209 0.42734 0.74658 0.0
O7 O 0.14412 0.35767 0.98464 0.0
O8 O 0.12999 0.40836 -0.00796 0.0
N9 N 0.22388 0.35653 -0.00134 0.0
C10 C 0.25708 0.3541 0.96073 0.0
C11 C 0.21941 0.29947 0.06139 0.0
N12 N 0.20045 0.32241 0.06063 0.0
N13 N 0.25516 0.31878 -0.00012 0.0
C14 C 0.19705 0.53927 0.01792 0.0
C15 C 0.14354 0.52915 0.92105 0.0
N16 N 0.17753 0.4994 0.98112 0.0
N17 N 0.14416 0.49315 0.92156 0.0
N18 N 0.17653 0.55864 0.98043 0.0
H19 H 0.23489 0.53519 0.15542 0.0
H20 H 0.2365 0.58471 0.14665 0.0
H21 H 0.26322 0.57106 0.03926 0.0
C22 C 0.23497 0.55864 0.09485 0.0
C23 C 0.29019 0.38519 0.88095 0.0
H24 H 0.27724 0.39952 0.82141 0.0
H25 H 0.30431 0.37027 0.8281 0.0
H26 H 0.31502 0.41026 0.93433 0.0
O27 O 0.21048 0.40304 0.804 0.0
O28 O 0.19354 0.4518 0.80265 0.0
C29 C 0.11743 0.36967 -0.01135 0.0
O30 O 0.25718 0.49876 -0.01247 0.0
O31 O 0.27377 0.44982 -0.00484 0.0
Zn32 Zn 0.74405 0.18658 -0.00831 0.0
O33 O 0.74309 0.18628 0.17687 0.0
C34 C 0.8006 0.27844 -0.00405 0.0
Zn35 Zn 0.81094 0.2036 -0.00882 0.0
C36 C 0.77554 0.19384 0.23442 0.0
O37 O 0.80838 0.20167 0.17851 0.0
C38 C 0.77847 0.19587 0.7484 0.0
O39 O 0.79221 0.13914 -0.01396 0.0
O40 O 0.72675 0.12286 -0.00809 0.0
N41 N 0.87232 0.21851 -6e-05 0.0
C42 C 0.90784 0.25169 0.96169 0.0
C43 C 0.92504 0.2138 0.06053 0.0
N44 N 0.88315 0.19493 0.06074 0.0
N45 N 0.94133 0.24963 -0.00051 0.0
C46 C 0.66132 0.1887 0.02124 0.0
C47 C 0.6182 0.13433 0.92743 0.0
N48 N 0.6823 0.16989 0.98355 0.0
N49 N 0.65534 0.13601 0.92576 0.0
N50 N 0.62111 0.16709 -0.01325 0.0
H51 H 0.70499 0.22902 0.15208 0.0
H52 H 0.65551 0.2276 0.15198 0.0
H53 H 0.69292 0.25489 0.03769 0.0
C54 C 0.67973 0.22717 0.09568 0.0
C55 C 0.90961 0.28486 0.88259 0.0
H56 H 0.88231 0.27187 0.82305 0.0
H57 H 0.93866 0.29927 0.82978 0.0
H58 H 0.90911 0.30944 0.93647 0.0
O59 O 0.81193 0.20493 0.8032 0.0
O60 O 0.74594 0.18695 0.8071 0.0
C61 C 0.75386 0.1115 -0.01225 0.0
O62 O 0.76246 0.25053 -0.00961 0.0
O63 O 0.82819 0.26764 -0.00226 0.0
Zn64 Zn 0.56173 0.73949 -0.00883 0.0
O65 O 0.56067 0.73881 0.17898 0.0
C66 C 0.5282 0.79728 -0.00763 0.0
Zn67 Zn 0.61294 0.80562 -0.00988 0.0
C68 C 0.58672 0.77154 0.23367 0.0
O69 O 0.612 0.8033 0.17485 0.0
C70 C 0.58865 0.7742 0.74763 0.0
O71 O 0.65813 0.78575 -0.01315 0.0
O72 O 0.60717 0.72112 -0.00597 0.0
N73 N 0.65979 0.86658 -0.00045 0.0
C74 C 0.66327 0.90225 0.95799 0.0
C75 C 0.71661 0.9188 0.06447 0.0
N76 N 0.69309 0.87701 0.06525 0.0
N77 N 0.69858 0.9355 -0.00201 0.0
C78 C 0.47621 0.65747 0.01939 0.0
C79 C 0.48778 0.61369 0.93053 0.0
N80 N 0.51619 0.67807 0.98331 0.0
N81 N 0.52329 0.65071 0.92858 0.0
N82 N 0.45772 0.61712 -0.01308 0.0
H83 H 0.47904 0.70195 0.14641 0.0
H84 H 0.43106 0.65243 0.1474 0.0
H85 H 0.44134 0.6889 0.03043 0.0
C86 C 0.45585 0.67629 0.0907 0.0
C87 C 0.63308 0.90441 0.87455 0.0
H88 H 0.61611 0.87543 0.82272 0.0
H89 H 0.64958 0.93127 0.81401 0.0
H90 H 0.61002 0.90871 0.92513 0.0
O91 O 0.61325 0.80673 0.80505 0.0
O92 O 0.5638 0.74135 0.80371 0.0
C93 C 0.64594 0.74707 -0.00906 0.0
O94 O 0.51715 0.75893 -0.01221 0.0
O95 O 0.5668 0.82415 -0.00529 0.0
Zn96 Zn 0.82808 0.55605 -0.00766 0.0
O97 O 0.82801 0.55532 0.18033 0.0
C98 C 0.73625 0.52141 -0.00442 0.0
Zn99 Zn 0.81152 0.60618 -0.00834 0.0
C100 C 0.82069 0.58093 0.23503 0.0
O101 O 0.81349 0.60575 0.17622 0.0
C102 C 0.81889 0.58204 0.749 0.0
O103 O 0.87632 0.65147 -0.0137 0.0
O104 O 0.89205 0.60191 -0.00652 0.0
N105 N 0.79701 0.65292 0.00058 0.0
C106 C 0.76382 0.65539 0.96265 0.0
C107 C 0.80176 0.71017 0.06253 0.0
N108 N 0.82061 0.68714 0.06204 0.0
N109 N 0.7659 0.69082 0.00132 0.0
C110 C 0.82425 0.4705 0.02173 0.0
C111 C 0.87892 0.48112 0.93074 0.0
N112 N 0.84385 0.51038 -0.01516 0.0
N113 N 0.87789 0.51691 0.92874 0.0
N114 N 0.84553 0.45149 -0.01159 0.0
H115 H 0.78348 0.47414 0.15037 0.0
H116 H 0.78448 0.4259 0.15132 0.0
H117 H 0.75796 0.43627 0.03536 0.0
C118 C 0.7854 0.45068 0.09455 0.0
C119 C 0.73057 0.62421 0.88323 0.0
H120 H 0.74342 0.6098 0.8237 0.0
H121 H 0.71638 0.63908 0.83036 0.0
H122 H 0.70582 0.59921 0.93687 0.0
O123 O 0.81004 0.60598 0.80647 0.0
O124 O 0.82793 0.55789 0.805 0.0
C125 C 0.90375 0.64044 -0.01134 0.0
O126 O 0.76411 0.51114 -0.01016 0.0
O127 O 0.74715 0.55979 -0.00171 0.0
Zn128 Zn 0.27792 0.82395 -0.00966 0.0
O129 O 0.27856 0.82364 0.17835 0.0
C130 C 0.2221 0.73184 -0.01097 0.0
Zn131 Zn 0.21078 0.80584 -0.0104 0.0
C132 C 0.24526 0.81511 0.23305 0.0
O133 O 0.213 0.80716 0.17427 0.0
C134 C 0.24251 0.81425 0.74693 0.0
O135 O 0.22924 0.87045 -0.0139 0.0
O136 O 0.29487 0.88734 -0.00755 0.0
N137 N 0.14936 0.79065 -0.00143 0.0
C138 C 0.11369 0.75742 0.96106 0.0
C139 C 0.09701 0.79632 0.05651 0.0
N140 N 0.13884 0.81479 0.05751 0.0
N141 N 0.08032 0.76016 -0.0033 0.0
C142 C 0.36084 0.82244 0.02191 0.0
C143 C 0.40347 0.87568 0.92329 0.0
N144 N 0.33968 0.84083 0.98225 0.0
N145 N 0.36634 0.87402 0.9215 0.0
N146 N 0.40083 0.8436 -0.01434 0.0
H147 H 0.31664 0.7825 0.15256 0.0
H148 H 0.36727 0.78648 0.16055 0.0
H149 H 0.33155 0.75663 0.04573 0.0
C150 C 0.34298 0.78498 0.10031 0.0
C151 C 0.11182 0.72338 0.88577 0.0
H152 H 0.13994 0.73531 0.82983 0.0
H153 H 0.0837 0.70971 0.82901 0.0
H154 H 0.11044 0.69855 0.94318 0.0
O155 O 0.20953 0.80482 0.8043 0.0
O156 O 0.27587 0.82402 0.80303 0.0
C157 C 0.26751 0.89835 -0.0115 0.0
O158 O 0.26004 0.76031 -0.01372 0.0
O159 O 0.19396 0.74185 -0.00639 0.0
Zn160 Zn 0.45941 0.27022 -0.00916 0.0
O161 O 0.46063 0.27109 0.17596 0.0
C162 C 0.49304 0.21251 -0.00758 0.0
Zn163 Zn 0.40825 0.20409 -0.01024 0.0
C164 C 0.43513 0.23896 0.23334 0.0
O165 O 0.40927 0.20658 0.17722 0.0
C166 C 0.43337 0.23627 0.74723 0.0
O167 O 0.3631 0.22403 -0.01401 0.0
O168 O 0.41403 0.28865 -0.00663 0.0
N169 N 0.36125 0.14317 -0.00113 0.0
C170 C 0.35781 0.10744 0.95808 0.0
C171 C 0.3041 0.09108 0.06244 0.0
N172 N 0.32772 0.13287 0.06323 0.0
N173 N 0.32229 0.07426 -0.00273 0.0
C174 C 0.54488 0.35217 0.0202 0.0
C175 C 0.5336 0.39594 0.93 0.0
N176 N 0.50499 0.33159 0.98315 0.0
N177 N 0.49806 0.35894 0.92757 0.0
N178 N 0.56347 0.3925 -0.01244 0.0
H179 H 0.54174 0.30757 0.14741 0.0
H180 H 0.58959 0.35718 0.1499 0.0
H181 H 0.57987 0.3209 0.03279 0.0
C182 C 0.56506 0.33335 0.09242 0.0
C183 C 0.38824 0.10519 0.87601 0.0
H184 H 0.40501 0.13398 0.82323 0.0
H185 H 0.37203 0.07803 0.81634 0.0
H186 H 0.41144 0.10145 0.9278 0.0
O187 O 0.4082 0.20315 0.80189 0.0
O188 O 0.45756 0.26855 0.80604 0.0
C189 C 0.37526 0.26271 -0.00996 0.0
O190 O 0.50398 0.25082 -0.0123 0.0
O191 O 0.45445 0.18555 -0.00517 0.0
C192 C 0.30353 0.25174 0.95388 0.0
C193 C 0.34485 0.27769 -0.00825 0.0
C194 C 0.27451 0.2656 0.95502 0.0
C195 C 0.28581 0.30588 -0.00657 0.0
H196 H 0.29354 0.22057 0.9227 0.0
H197 H 0.24299 0.24478 0.92557 0.0
S198 S 0.38815 0.38407 0.11476 0.0
N199 N 0.39448 0.34472 0.0764 0.0
N200 N 0.33962 0.37001 0.08041 0.0
C201 C 0.32655 0.33171 0.03406 0.0
C202 C 0.35614 0.31782 0.03256 0.0
C203 C 0.05672 0.29796 0.95244 0.0
C204 C 0.07207 0.33921 -0.00938 0.0
C205 C 0.01384 0.26897 0.95376 0.0
C206 C 0.98487 0.28024 -0.00731 0.0
H207 H 0.07791 0.28801 0.92085 0.0
H208 H 1.00314 0.2375 0.92408 0.0
S209 S 1.00902 0.38238 0.11514 0.0
N210 N 0.05467 0.38872 0.07624 0.0
N211 N 0.97457 0.33393 0.08057 0.0
C212 C 0.99977 0.3209 0.03368 0.0
C213 C 0.04324 0.35046 0.03199 0.0
C214 C 0.69827 0.03665 0.00411 0.0
C215 C 0.74049 0.06644 -0.01399 0.0
C216 C 0.68462 0.99397 0.00571 0.0
C217 C 0.71248 0.97923 -0.01224 0.0
H218 H 0.67551 0.0463 0.01947 0.0
H219 H 0.65224 0.97249 0.02491 0.0
S220 S 0.82585 0.04347 0.93384 0.0
N221 N 0.81001 0.07765 0.94828 0.0
N222 N 0.78392 0.9973 0.95033 0.0
C223 C 0.75462 0.00842 0.96887 0.0
C224 C 0.76869 0.05198 0.96776 0.0
C225 C 0.74661 0.74404 0.95617 0.0
C226 C 0.7353 0.70379 -0.00511 0.0
C227 C 0.71762 0.75794 0.95491 0.0
C228 C 0.67633 0.73206 -0.00707 0.0
H229 H 0.7781 0.76479 0.92656 0.0
H230 H 0.72761 0.78908 0.92346 0.0
S231 S 0.63305 0.62581 0.11682 0.0
N232 N 0.68153 0.63979 0.0824 0.0
N233 N 0.62673 0.66515 0.07812 0.0
C234 C 0.66503 0.69197 0.03409 0.0
C235 C 0.6946 0.67804 0.03574 0.0
C236 C 0.02133 0.68803 0.00976 0.0
C237 C 0.03647 0.73043 -0.01299 0.0
C238 C 0.97851 0.65927 0.00878 0.0
C239 C 0.94897 0.67179 -0.01342 0.0
H240 H 0.04261 0.67713 0.03197 0.0
H241 H 0.96854 0.62704 0.02785 0.0
S242 S 0.97295 0.77955 0.9203 0.0
N243 N 0.01895 0.7836 0.94008 0.0
N244 N 0.93842 0.72988 0.93937 0.0
C245 C 0.96382 0.71421 0.96342 0.0
C246 C 1.00749 0.74341 0.9638 0.0
C247 C 0.32277 0.97323 0.00604 0.0
C248 C 0.28062 0.94334 -0.01277 0.0
C249 C 0.33631 0.01588 0.00718 0.0
C250 C 0.30842 0.03051 -0.012 0.0
H251 H 0.34558 0.9637 0.02213 0.0
H252 H 0.36865 0.03743 0.0268 0.0
S253 S 0.19514 0.96596 0.93254 0.0
N254 N 0.21108 0.93188 0.94807 0.0
N255 N 0.23696 0.0122 0.94919 0.0
C256 C 0.26631 1.00121 0.96872 0.0
C257 C 0.25235 0.95766 0.96811 0.0
C258 C 0.17197 0.6564 0.02862 0.0
C259 C 0.21095 0.68751 -0.01349 0.0
C260 C 0.16108 0.61431 0.02775 0.0
C261 C 0.18885 0.60197 -0.0144 0.0
H262 H 0.14981 0.6646 0.06319 0.0
H263 H 0.13085 0.59119 0.06062 0.0
S264 S 0.29229 0.67009 0.85231 0.0
N265 N 0.27588 0.70221 0.89243 0.0
N266 N 0.2551 0.62324 0.89109 0.0
C267 C 0.22735 0.63245 0.94067 0.0
C268 C 0.2385 0.6752 0.94122 0.0
C269 C 0.5664 0.22879 0.9603 0.0
C270 C 0.52533 0.19998 -0.00571 0.0
C271 C 0.5977 0.21813 0.96019 0.0
C272 C 0.58923 0.17829 -0.00566 0.0
H273 H 0.57441 0.25969 0.93128 0.0
H274 H 0.6285 0.24087 0.93013 0.0
S275 S 0.4878 0.09179 0.09522 0.0
N276 N 0.47853 0.13006 0.067 0.0
N277 N 0.53747 0.11007 0.06437 0.0
C278 C 0.54856 0.14919 0.02874 0.0
C279 C 0.51662 0.16004 0.0296 0.0
C280 C 0.38334 0.59287 0.95453 0.0
C281 C 0.41471 0.5853 -0.00499 0.0
C282 C 0.3415 0.5613 0.95461 0.0
C283 C 0.32948 0.52092 -0.005 0.0
H284 H 0.39136 0.62311 0.91969 0.0
H285 H 0.31853 0.56847 0.92054 0.0
S286 S 0.40017 0.4866 0.11766 0.0
N287 N 0.43139 0.5356 0.08023 0.0
N288 N 0.35266 0.47612 0.08278 0.0
C289 C 0.3607 0.51328 0.03752 0.0
C290 C 0.40332 0.54547 0.03672 0.0
C291 C 0.79476 0.37716 0.95818 0.0
C292 C 0.83395 0.4084 -0.00247 0.0
C293 C 0.78416 0.33522 0.95903 0.0
C294 C 0.81244 0.323 -0.00099 0.0
H295 H 0.77261 0.38537 0.92353 0.0
H296 H 0.75388 0.31233 0.9257 0.0
S297 S 0.91777 0.39326 0.12038 0.0
N298 N 0.90028 0.4247 0.08234 0.0
N299 N 0.88045 0.34585 0.08645 0.0
C300 C 0.85144 0.35409 0.04105 0.0
C301 C 0.86219 0.39678 0.03944 0.0
C302 C 0.42373 0.79213 0.96074 0.0
C303 C 0.43253 0.83217 -0.0063 0.0
C304 C 0.45485 0.78123 0.96106 0.0
C305 C 0.49606 0.81 -0.0058 0.0
H306 H 0.39281 0.76942 0.93126 0.0
H307 H 0.4466 0.7502 0.93279 0.0
S308 S 0.53439 0.91868 0.09206 0.0
N309 N 0.4847 0.90054 0.06169 0.0
N310 N 0.54332 0.8801 0.06502 0.0
C311 C 0.50507 0.85014 0.02847 0.0
C312 C 0.47332 0.86123 0.02726 0.0
C313 C 0.67974 0.44832 0.95731 0.0
C314 C 0.69169 0.48866 -0.00219 0.0
C315 C 0.6379 0.41674 0.95662 0.0
C316 C 0.60647 0.42428 -0.00346 0.0
H317 H 0.70276 0.4412 0.92349 0.0
H318 H 0.62992 0.38652 0.92165 0.0
S319 S 0.62081 0.52287 0.11937 0.0
N320 N 0.66837 0.53337 0.08528 0.0
N321 N 0.58965 0.47389 0.08149 0.0
C322 C 0.61779 0.46405 0.03848 0.0
C323 C 0.66041 0.49625 0.03995 0.0
C324 C 0.19366 0.4549 0.55298 0.0
C325 C 0.20205 0.42714 0.6157 0.0
C326 C 0.19326 0.45531 0.42949 0.0
C327 C 0.20117 0.42793 0.36342 0.0
H328 H 0.18734 0.47663 0.59944 0.0
H329 H 0.18667 0.47732 0.38569 0.0
S330 S 0.22505 0.34907 0.48478 0.0
N331 N 0.21861 0.37155 0.6018 0.0
N332 N 0.21784 0.37222 0.37063 0.0
C333 C 0.20966 0.4 0.42505 0.0
C334 C 0.21011 0.39963 0.55075 0.0
C335 C 0.81288 0.20523 0.5517 0.0
C336 C 0.77697 0.19527 0.61756 0.0
C337 C 0.81208 0.20457 0.42821 0.0
C338 C 0.77534 0.19397 0.36528 0.0
H339 H 0.84196 0.21363 0.59566 0.0
H340 H 0.84063 0.21256 0.3819 0.0
S341 S 0.67255 0.16525 0.49556 0.0
N342 N 0.70338 0.17438 0.6099 0.0
N343 N 0.70199 0.17322 0.37873 0.0
C344 C 0.73917 0.18397 0.43001 0.0
C345 C 0.73995 0.1846 0.5557 0.0
C346 C 0.56069 0.7385 0.55392 0.0
C347 C 0.58883 0.77442 0.61677 0.0
C348 C 0.56017 0.73782 0.43043 0.0
C349 C 0.58781 0.773 0.3645 0.0
H350 H 0.53874 0.71054 0.60027 0.0
H351 H 0.53788 0.7094 0.38652 0.0
S352 S 0.66776 0.87513 0.48627 0.0
N353 N 0.64511 0.84624 0.60316 0.0
N354 N 0.64422 0.84503 0.37198 0.0
C355 C 0.61615 0.8092 0.42627 0.0
C356 C 0.61663 0.80989 0.55196 0.0
C357 C 0.82743 0.55466 0.5553 0.0
C358 C 0.819 0.58235 0.61813 0.0
C359 C 0.82796 0.55441 0.43182 0.0
C360 C 0.82014 0.58188 0.36586 0.0
H361 H 0.83368 0.53286 0.60168 0.0
H362 H 0.83454 0.53243 0.38794 0.0
S363 S 0.79634 0.66074 0.48754 0.0
N364 N 0.80259 0.63806 0.60446 0.0
N365 N 0.8036 0.63768 0.37329 0.0
C366 C 0.81163 0.60978 0.4276 0.0
C367 C 0.81105 0.60999 0.5533 0.0
C368 C 0.28029 0.82745 0.42992 0.0
C369 C 0.24371 0.81428 0.36384 0.0
C370 C 0.27958 0.82729 0.55341 0.0
C371 C 0.24223 0.81389 0.61608 0.0
H372 H 0.30987 0.83821 0.38611 0.0
H373 H 0.30868 0.83793 0.59991 0.0
S374 S 0.13735 0.77479 0.48505 0.0
N375 N 0.1687 0.78642 0.3709 0.0
N376 N 0.16744 0.78614 0.60212 0.0
C377 C 0.20532 0.80027 0.5511 0.0
C378 C 0.20603 0.80045 0.4254 0.0
C379 C 0.40511 0.20344 0.55047 0.0
C380 C 0.43468 0.23758 0.61644 0.0
C381 C 0.40552 0.20419 0.42698 0.0
C382 C 0.43554 0.23907 0.36419 0.0
H383 H 0.38125 0.1759 0.59436 0.0
H384 H 0.38193 0.17714 0.38057 0.0
S385 S 0.52092 0.33616 0.49487 0.0
N386 N 0.49558 0.30707 0.60913 0.0
N387 N 0.49628 0.30839 0.37791 0.0
C388 C 0.46554 0.27332 0.42905 0.0
C389 C 0.46513 0.27259 0.55475 0.0
loop_
_geom_bond_atom_site_label_1
_geom_bond_atom_site_label_2
_geom_bond_distance
_geom_bond_site_symmetry_2
_ccdc_geom_bond_type
Zn0 O1 2.055 . S
Zn0 O8 2.046 . S
Zn0 N16 2.036 1_554 S
Zn0 O28 2.053 1_554 S
Zn0 O30 2.066 . S
O1 Zn0 2.055 . S
O1 C4 1.259 . S
C2 O30 1.256 . S
C2 O31 1.244 . S
Zn3 O5 2.046 . S
Zn3 O7 2.055 . S
Zn3 N9 2.036 . S
Zn3 O27 2.066 1_554 S
Zn3 O31 2.053 . S
C4 O1 1.259 . S
C4 O5 1.254 . S
O5 Zn3 2.046 . S
O5 C4 1.254 . S
C6 O27 1.256 . S
C6 O28 1.244 . S
O7 Zn3 2.055 . S
O7 C29 1.259 . S
O8 Zn0 2.046 . S
O8 C29 1.255 . S
N9 Zn3 2.036 . S
N9 C10 1.298 1_554 S
N9 N12 1.398 . S
C10 N9 1.298 1_556 S
C10 N13 1.367 . S
C10 C23 1.481 . S
C11 N12 1.299 . S
C11 N13 1.379 1_554 S
N12 N9 1.398 . S
N12 C11 1.299 . S
N13 C10 1.367 . S
N13 C11 1.379 1_556 S
C14 N16 1.298 1_554 S
C14 N18 1.367 1_554 S
C14 C22 1.481 . S
C15 N17 1.299 . S
C15 N18 1.379 . S
N16 Zn0 2.036 1_556 S
N16 C14 1.298 1_556 S
N16 N17 1.398 . S
N17 C15 1.299 . S
N17 N16 1.398 . S
N18 C14 1.367 1_556 S
N18 C15 1.379 . S
H19 C22 0.980 . S
H20 C22 0.981 . S
H21 C22 0.981 . S
C22 C14 1.481 . S
C22 H19 0.980 . S
C22 H20 0.981 . S
C22 H21 0.981 . S
C23 C10 1.481 . S
C23 H24 0.980 . S
C23 H25 0.981 . S
C23 H26 0.981 . S
H24 C23 0.980 . S
H25 C23 0.981 . S
H26 C23 0.981 . S
O27 Zn3 2.066 1_556 S
O27 C6 1.256 . S
O28 Zn0 2.053 1_556 S
O28 C6 1.244 . S
C29 O7 1.259 . S
C29 O8 1.255 . S
O30 Zn0 2.066 . S
O30 C2 1.256 . S
O31 C2 1.244 . S
O31 Zn3 2.053 . S
Zn32 O33 2.055 . S
Zn32 O40 2.046 . S
Zn32 N48 2.036 1_554 S
Zn32 O60 2.053 1_554 S
Zn32 O62 2.066 . S
O33 Zn32 2.055 . S
O33 C36 1.259 . S
C34 O62 1.256 . S
C34 O63 1.244 . S
Zn35 O37 2.046 . S
Zn35 O39 2.055 . S
Zn35 N41 2.036 . S
Zn35 O59 2.066 1_554 S
Zn35 O63 2.053 . S
C36 O33 1.259 . S
C36 O37 1.254 . S
O37 Zn35 2.046 . S
O37 C36 1.254 . S
C38 O59 1.256 . S
C38 O60 1.244 . S
O39 Zn35 2.055 . S
O39 C61 1.259 . S
O40 Zn32 2.046 . S
O40 C61 1.255 . S
N41 Zn35 2.036 . S
N41 C42 1.298 1_554 S
N41 N44 1.398 . S
C42 N41 1.298 1_556 S
C42 N45 1.367 . S
C42 C55 1.481 . S
C43 N44 1.299 . S
C43 N45 1.379 1_554 S
N44 N41 1.398 . S
N44 C43 1.299 . S
N45 C42 1.367 . S
N45 C43 1.379 1_556 S
C46 N48 1.298 1_554 S
C46 N50 1.367 1_554 S
C46 C54 1.481 . S
C47 N49 1.299 . S
C47 N50 1.379 . S
N48 Zn32 2.036 1_556 S
N48 C46 1.298 1_556 S
N48 N49 1.398 . S
N49 C47 1.299 . S
N49 N48 1.398 . S
N50 C46 1.367 1_556 S
N50 C47 1.379 . S
H51 C54 0.980 . S
H52 C54 0.981 . S
H53 C54 0.981 . S
C54 C46 1.481 . S
C54 H51 0.980 . S
C54 H52 0.981 . S
C54 H53 0.981 . S
C55 C42 1.481 . S
C55 H56 0.980 . S
C55 H57 0.981 . S
C55 H58 0.981 . S
H56 C55 0.980 . S
H57 C55 0.981 . S
H58 C55 0.981 . S
O59 Zn35 2.066 1_556 S
O59 C38 1.256 . S
O60 Zn32 2.053 1_556 S
O60 C38 1.244 . S
C61 O39 1.259 . S
C61 O40 1.255 . S
O62 Zn32 2.066 . S
O62 C34 1.256 . S
O63 C34 1.244 . S
O63 Zn35 2.053 . S
Zn64 O65 2.055 . S
Zn64 O72 2.046 . S
Zn64 N80 2.036 1_554 S
Zn64 O92 2.053 1_554 S
Zn64 O94 2.066 . S
O65 Zn64 2.055 . S
O65 C68 1.259 . S
C66 O94 1.256 . S
C66 O95 1.244 . S
Zn67 O69 2.046 . S
Zn67 O71 2.055 . S
Zn67 N73 2.036 . S
Zn67 O91 2.066 1_554 S
Zn67 O95 2.053 . S
C68 O65 1.259 . S
C68 O69 1.254 . S
O69 Zn67 2.046 . S
O69 C68 1.254 . S
C70 O91 1.256 . S
C70 O92 1.244 . S
O71 Zn67 2.055 . S
O71 C93 1.259 . S
O72 Zn64 2.046 . S
O72 C93 1.255 . S
N73 Zn67 2.036 . S
N73 C74 1.298 1_554 S
N73 N76 1.398 . S
C74 N73 1.298 1_556 S
C74 N77 1.367 . S
C74 C87 1.481 . S
C75 N76 1.299 . S
C75 N77 1.379 1_554 S
N76 N73 1.398 . S
N76 C75 1.299 . S
N77 C74 1.367 . S
N77 C75 1.379 1_556 S
C78 N80 1.298 1_554 S
C78 N82 1.367 1_554 S
C78 C86 1.481 . S
C79 N81 1.299 . S
C79 N82 1.379 . S
N80 Zn64 2.036 1_556 S
N80 C78 1.298 1_556 S
N80 N81 1.398 . S
N81 C79 1.299 . S
N81 N80 1.398 . S
N82 C78 1.367 1_556 S
N82 C79 1.379 . S
H83 C86 0.980 . S
H84 C86 0.981 . S
H85 C86 0.981 . S
C86 C78 1.481 . S
C86 H83 0.980 . S
C86 H84 0.981 . S
C86 H85 0.981 . S
C87 C74 1.481 . S
C87 H88 0.980 . S
C87 H89 0.981 . S
C87 H90 0.981 . S
H88 C87 0.980 . S
H89 C87 0.981 . S
H90 C87 0.981 . S
O91 Zn67 2.066 1_556 S
O91 C70 1.256 . S
O92 Zn64 2.053 1_556 S
O92 C70 1.244 . S
C93 O71 1.259 . S
C93 O72 1.255 . S
O94 Zn64 2.066 . S
O94 C66 1.256 . S
O95 C66 1.244 . S
O95 Zn67 2.053 . S
Zn96 O97 2.055 . S
Zn96 O104 2.046 . S
Zn96 N112 2.036 1_554 S
Zn96 O124 2.053 1_554 S
Zn96 O126 2.066 . S
O97 Zn96 2.055 . S
O97 C100 1.259 . S
C98 O126 1.256 . S
C98 O127 1.244 . S
Zn99 O101 2.046 . S
Zn99 O103 2.055 . S
Zn99 N105 2.036 . S
Zn99 O123 2.066 1_554 S
Zn99 O127 2.053 . S
C100 O97 1.259 . S
C100 O101 1.254 . S
O101 Zn99 2.046 . S
O101 C100 1.254 . S
C102 O123 1.256 . S
C102 O124 1.244 . S
O103 Zn99 2.055 . S
O103 C125 1.259 . S
O104 Zn96 2.046 . S
O104 C125 1.255 . S
N105 Zn99 2.036 . S
N105 C106 1.298 1_554 S
N105 N108 1.398 . S
C106 N105 1.298 1_556 S
C106 N109 1.367 . S
C106 C119 1.481 . S
C107 N108 1.299 . S
C107 N109 1.379 1_554 S
N108 N105 1.398 . S
N108 C107 1.299 . S
N109 C106 1.367 . S
N109 C107 1.379 1_556 S
C110 N112 1.298 1_554 S
C110 N114 1.367 1_554 S
C110 C118 1.481 . S
C111 N113 1.299 . S
C111 N114 1.379 . S
N112 Zn96 2.036 1_556 S
N112 C110 1.298 1_556 S
N112 N113 1.398 . S
N113 C111 1.299 . S
N113 N112 1.398 . S
N114 C110 1.367 1_556 S
N114 C111 1.379 . S
H115 C118 0.980 . S
H116 C118 0.981 . S
H117 C118 0.981 . S
C118 C110 1.481 . S
C118 H115 0.980 . S
C118 H116 0.981 . S
C118 H117 0.981 . S
C119 C106 1.481 . S
C119 H120 0.980 . S
C119 H121 0.981 . S
C119 H122 0.981 . S
H120 C119 0.980 . S
H121 C119 0.981 . S
H122 C119 0.981 . S
O123 Zn99 2.066 1_556 S
O123 C102 1.256 . S
O124 Zn96 2.053 1_556 S
O124 C102 1.244 . S
C125 O103 1.259 . S
C125 O104 1.255 . S
O126 Zn96 2.066 . S
O126 C98 1.256 . S
O127 C98 1.244 . S
O127 Zn99 2.053 . S
Zn128 O129 2.055 . S
Zn128 O136 2.046 . S
Zn128 N144 2.036 1_554 S
Zn128 O156 2.053 1_554 S
Zn128 O158 2.066 . S
O129 Zn128 2.055 . S
O129 C132 1.259 . S
C130 O158 1.256 . S
C130 O159 1.244 . S
Zn131 O133 2.046 . S
Zn131 O135 2.055 . S
Zn131 N137 2.036 . S
Zn131 O155 2.066 1_554 S
Zn131 O159 2.053 . S
C132 O129 1.259 . S
C132 O133 1.254 . S
O133 Zn131 2.046 . S
O133 C132 1.254 . S
C134 O155 1.256 . S
C134 O156 1.244 . S
O135 Zn131 2.055 . S
O135 C157 1.259 . S
O136 Zn128 2.046 . S
O136 C157 1.255 . S
N137 Zn131 2.036 . S
N137 C138 1.298 1_554 S
N137 N140 1.398 . S
C138 N137 1.298 1_556 S
C138 N141 1.367 . S
C138 C151 1.481 . S
C139 N140 1.299 . S
C139 N141 1.379 1_554 S
N140 N137 1.398 . S
N140 C139 1.299 . S
N141 C138 1.367 . S
N141 C139 1.379 1_556 S
C142 N144 1.298 1_554 S
C142 N146 1.367 1_554 S
C142 C150 1.481 . S
C143 N145 1.299 . S
C143 N146 1.379 . S
N144 Zn128 2.036 1_556 S
N144 C142 1.298 1_556 S
N144 N145 1.398 . S
N145 C143 1.299 . S
N145 N144 1.398 . S
N146 C142 1.367 1_556 S
N146 C143 1.379 . S
H147 C150 0.980 . S
H148 C150 0.981 . S
H149 C150 0.981 . S
C150 C142 1.481 . S
C150 H147 0.980 . S
C150 H148 0.981 . S
C150 H149 0.981 . S
C151 C138 1.481 . S
C151 H152 0.980 . S
C151 H153 0.981 . S
C151 H154 0.981 . S
H152 C151 0.980 . S
H153 C151 0.981 . S
H154 C151 0.981 . S
O155 Zn131 2.066 1_556 S
O155 C134 1.256 . S
O156 Zn128 2.053 1_556 S
O156 C134 1.244 . S
C157 O135 1.259 . S
C157 O136 1.255 . S
O158 Zn128 2.066 . S
O158 C130 1.256 . S
O159 C130 1.244 . S
O159 Zn131 2.053 . S
Zn160 O161 2.055 . S
Zn160 O168 2.046 . S
Zn160 N176 2.036 1_554 S
Zn160 O188 2.053 1_554 S
Zn160 O190 2.066 . S
O161 Zn160 2.055 . S
O161 C164 1.259 . S
C162 O190 1.256 . S
C162 O191 1.244 . S
Zn163 O165 2.046 . S
Zn163 O167 2.055 . S
Zn163 N169 2.036 . S
Zn163 O187 2.066 1_554 S
Zn163 O191 2.053 . S
C164 O161 1.259 . S
C164 O165 1.254 . S
O165 Zn163 2.046 . S
O165 C164 1.254 . S
C166 O187 1.256 . S
C166 O188 1.244 . S
O167 Zn163 2.055 . S
O167 C189 1.259 . S
O168 Zn160 2.046 . S
O168 C189 1.255 . S
N169 Zn163 2.036 . S
N169 C170 1.298 1_554 S
N169 N172 1.398 . S
C170 N169 1.298 1_556 S
C170 N173 1.367 . S
C170 C183 1.481 . S
C171 N172 1.299 . S
C171 N173 1.379 1_554 S
N172 N169 1.398 . S
N172 C171 1.299 . S
N173 C170 1.367 . S
N173 C171 1.379 1_556 S
C174 N176 1.298 1_554 S
C174 N178 1.367 1_554 S
C174 C182 1.481 . S
C175 N177 1.299 . S
C175 N178 1.379 . S
N176 Zn160 2.036 1_556 S
N176 C174 1.298 1_556 S
N176 N177 1.398 . S
N177 C175 1.299 . S
N177 N176 1.398 . S
N178 C174 1.367 1_556 S
N178 C175 1.379 . S
H179 C182 0.980 . S
H180 C182 0.981 . S
H181 C182 0.981 . S
C182 C174 1.481 . S
C182 H179 0.980 . S
C182 H180 0.981 . S
C182 H181 0.981 . S
C183 C170 1.481 . S
C183 H184 0.980 . S
C183 H185 0.981 . S
C183 H186 0.981 . S
H184 C183 0.980 . S
H185 C183 0.981 . S
H186 C183 0.981 . S
O187 Zn163 2.066 1_556 S
O187 C166 1.256 . S
O188 Zn160 2.053 1_556 S
O188 C166 1.244 . S
C189 O167 1.259 . S
C189 O168 1.255 . S
O190 Zn160 2.066 . S
O190 C162 1.256 . S
O191 C162 1.244 . S
O191 Zn163 2.053 . S
C192 C193 1.369 . S
C192 C194 1.419 . S
C192 H196 0.930 . S
C193 C192 1.369 . S
C193 C202 1.429 . S
C194 C192 1.419 . S
C194 C195 1.363 . S
C194 H197 0.929 . S
C195 C194 1.363 . S
C195 C201 1.428 . S
H196 C192 0.930 . S
H197 C194 0.929 . S
S198 N199 1.613 . S
S198 N200 1.610 . S
N199 S198 1.613 . S
N199 C202 1.350 1_554 S
N200 S198 1.610 . S
N200 C201 1.351 1_554 S
C201 C195 1.428 . S
C201 N200 1.351 1_556 S
C201 C202 1.434 . S
C202 C193 1.429 . S
C202 N199 1.350 1_556 S
C202 C201 1.434 . S
C203 C204 1.369 1_554 S
C203 C205 1.419 . S
C203 H207 0.930 . S
C204 C203 1.369 1_556 S
C204 C213 1.429 . S
C205 C203 1.419 . S
C205 C206 1.363 1_454 S
C205 H208 0.929 1_455 S
C206 C205 1.363 1_656 S
C206 C212 1.428 1_655 S
H207 C203 0.930 . S
H208 C205 0.929 1_655 S
S209 N210 1.613 . S
S209 N211 1.610 . S
N210 S209 1.613 . S
N210 C213 1.350 . S
N211 S209 1.610 . S
N211 C212 1.351 . S
C212 C206 1.428 1_455 S
C212 N211 1.351 . S
C212 C213 1.434 . S
C213 C204 1.429 . S
C213 N210 1.350 . S
C213 C212 1.434 . S
C214 C215 1.369 . S
C214 C216 1.419 . S
C214 H218 0.930 . S
C215 C214 1.369 . S
C215 C224 1.429 1_556 S
C216 C214 1.419 . S
C216 C217 1.363 1_545 S
C216 H219 0.929 . S
C217 C216 1.363 1_565 S
C217 C223 1.428 1_566 S
H218 C214 0.930 . S
H219 C216 0.929 . S
S220 N221 1.613 . S
S220 N222 1.610 . S
N221 S220 1.613 . S
N221 C224 1.350 . S
N222 S220 1.610 . S
N222 C223 1.351 . S
C223 C217 1.428 1_544 S
C223 N222 1.351 . S
C223 C224 1.434 . S
C224 C215 1.429 1_554 S
C224 N221 1.350 . S
C224 C223 1.434 . S
C225 C226 1.369 1_554 S
C225 C227 1.419 . S
C225 H229 0.930 . S
C226 C225 1.369 1_556 S
C226 C235 1.429 . S
C227 C225 1.419 . S
C227 C228 1.363 1_554 S
C227 H230 0.929 . S
C228 C227 1.363 1_556 S
C228 C234 1.428 . S
H229 C225 0.930 . S
H230 C227 0.929 . S
S231 N232 1.613 . S
S231 N233 1.610 . S
N232 S231 1.613 . S
N232 C235 1.350 . S
N233 S231 1.610 . S
N233 C234 1.351 . S
C234 C228 1.428 . S
C234 N233 1.351 . S
C234 C235 1.434 . S
C235 C226 1.429 . S
C235 N232 1.350 . S
C235 C234 1.434 . S
C236 C237 1.369 1_655 S
C236 C238 1.419 . S
C236 H240 0.930 . S
C237 C236 1.369 1_455 S
C237 C246 1.429 1_456 S
C238 C236 1.419 . S
C238 C239 1.363 . S
C238 H241 0.929 . S
C239 C238 1.363 . S
C239 C245 1.428 1_556 S
H240 C236 0.930 . S
H241 C238 0.929 . S
S242 N243 1.613 1_655 S
S242 N244 1.610 . S
N243 S242 1.613 1_455 S
N243 C246 1.350 1_455 S
N244 S242 1.610 . S
N244 C245 1.351 . S
C245 C239 1.428 1_554 S
C245 N244 1.351 . S
C245 C246 1.434 . S
C246 C237 1.429 1_654 S
C246 N243 1.350 1_655 S
C246 C245 1.434 . S
C247 C248 1.369 1_554 S
C247 C249 1.419 1_554 S
C247 H251 0.930 . S
C248 C247 1.369 1_556 S
C248 C257 1.429 . S
C249 C247 1.419 1_556 S
C249 C250 1.363 1_565 S
C249 H252 0.929 1_566 S
C250 C249 1.363 1_545 S
C250 C256 1.428 1_545 S
H251 C247 0.930 . S
H252 C249 0.929 1_544 S
S253 N254 1.613 . S
S253 N255 1.610 . S
N254 S253 1.613 . S
N254 C257 1.350 . S
N255 S253 1.610 . S
N255 C256 1.351 . S
C256 C250 1.428 1_565 S
C256 N255 1.351 . S
C256 C257 1.434 . S
C257 C248 1.429 . S
C257 N254 1.350 . S
C257 C256 1.434 . S
C258 C259 1.369 . S
C258 C260 1.419 . S
C258 H262 0.930 . S
C259 C258 1.369 . S
C259 C268 1.429 1_554 S
C260 C258 1.419 . S
C260 C261 1.363 . S
C260 H263 0.929 . S
C261 C260 1.363 . S
C261 C267 1.428 1_554 S
H262 C258 0.930 . S
H263 C260 0.929 . S
S264 N265 1.613 . S
S264 N266 1.610 . S
N265 S264 1.613 . S
N265 C268 1.350 . S
N266 S264 1.610 . S
N266 C267 1.351 . S
C267 C261 1.428 1_556 S
C267 N266 1.351 . S
C267 C268 1.434 . S
C268 C259 1.429 1_556 S
C268 N265 1.350 . S
C268 C267 1.434 . S
C269 C270 1.369 . S
C269 C271 1.419 1_554 S
C269 H273 0.930 1_554 S
C270 C269 1.369 . S
C270 C279 1.429 . S
C271 C269 1.419 1_556 S
C271 C272 1.363 1_556 S
C271 H274 0.929 . S
C272 C271 1.363 1_554 S
C272 C278 1.428 . S
H273 C269 0.930 1_556 S
H274 C271 0.929 . S
S275 N276 1.613 . S
S275 N277 1.610 . S
N276 S275 1.613 . S
N276 C279 1.350 . S
N277 S275 1.610 . S
N277 C278 1.351 . S
C278 C272 1.428 . S
C278 N277 1.351 . S
C278 C279 1.434 . S
C279 C270 1.429 . S
C279 N276 1.350 . S
C279 C278 1.434 . S
C280 C281 1.369 . S
C280 C282 1.419 . S
C280 H284 0.930 . S
C281 C280 1.369 . S
C281 C290 1.429 1_554 S
C282 C280 1.419 . S
C282 C283 1.363 . S
C282 H285 0.929 . S
C283 C282 1.363 . S
C283 C289 1.428 1_554 S
H284 C280 0.930 . S
H285 C282 0.929 . S
S286 N287 1.613 . S
S286 N288 1.610 . S
N287 S286 1.613 . S
N287 C290 1.350 . S
N288 S286 1.610 . S
N288 C289 1.351 . S
C289 C283 1.428 1_556 S
C289 N288 1.351 . S
C289 C290 1.434 . S
C290 C281 1.429 1_556 S
C290 N287 1.350 . S
C290 C289 1.434 . S
C291 C292 1.369 1_556 S
C291 C293 1.419 . S
C291 H295 0.930 . S
C292 C291 1.369 1_554 S
C292 C301 1.429 . S
C293 C291 1.419 . S
C293 C294 1.363 1_556 S
C293 H296 0.929 . S
C294 C293 1.363 1_554 S
C294 C300 1.428 . S
H295 C291 0.930 . S
H296 C293 0.929 . S
S297 N298 1.613 . S
S297 N299 1.610 . S
N298 S297 1.613 . S
N298 C301 1.350 . S
N299 S297 1.610 . S
N299 C300 1.351 . S
C300 C294 1.428 . S
C300 N299 1.351 . S
C300 C301 1.434 . S
C301 C292 1.429 . S
C301 N298 1.350 . S
C301 C300 1.434 . S
C302 C303 1.369 1_556 S
C302 C304 1.419 . S
C302 H306 0.930 . S
C303 C302 1.369 1_554 S
C303 C312 1.429 . S
C304 C302 1.419 . S
C304 C305 1.363 1_556 S
C304 H307 0.929 . S
C305 C304 1.363 1_554 S
C305 C311 1.428 . S
H306 C302 0.930 . S
H307 C304 0.929 . S
S308 N309 1.613 . S
S308 N310 1.610 . S
N309 S308 1.613 . S
N309 C312 1.350 . S
N310 S308 1.610 . S
N310 C311 1.351 . S
C311 C305 1.428 . S
C311 N310 1.351 . S
C311 C312 1.434 . S
C312 C303 1.429 . S
C312 N309 1.350 . S
C312 C311 1.434 . S
C313 C314 1.369 1_556 S
C313 C315 1.419 . S
C313 H317 0.930 . S
C314 C313 1.369 1_554 S
C314 C323 1.429 . S
C315 C313 1.419 . S
C315 C316 1.363 1_556 S
C315 H318 0.929 . S
C316 C315 1.363 1_554 S
C316 C322 1.428 . S
H317 C313 0.930 . S
H318 C315 0.929 . S
S319 N320 1.613 . S
S319 N321 1.610 . S
N320 S319 1.613 . S
N320 C323 1.350 . S
N321 S319 1.610 . S
N321 C322 1.351 . S
C322 C316 1.428 . S
C322 N321 1.351 . S
C322 C323 1.434 . S
C323 C314 1.429 . S
C323 N320 1.350 . S
C323 C322 1.434 . S
C324 C325 1.369 . S
C324 C326 1.419 . S
C324 H328 0.930 . S
C325 C324 1.369 . S
C325 C334 1.429 . S
C326 C324 1.419 . S
C326 C327 1.363 . S
C326 H329 0.929 . S
C327 C326 1.363 . S
C327 C333 1.428 . S
H328 C324 0.930 . S
H329 C326 0.929 . S
S330 N331 1.613 . S
S330 N332 1.610 . S
N331 S330 1.613 . S
N331 C334 1.350 . S
N332 S330 1.610 . S
N332 C333 1.351 . S
C333 C327 1.428 . S
C333 N332 1.351 . S
C333 C334 1.434 . S
C334 C325 1.429 . S
C334 N331 1.350 . S
C334 C333 1.434 . S
C335 C336 1.369 . S
C335 C337 1.419 . S
C335 H339 0.930 . S
C336 C335 1.369 . S
C336 C345 1.429 . S
C337 C335 1.419 . S
C337 C338 1.363 . S
C337 H340 0.929 . S
C338 C337 1.363 . S
C338 C344 1.428 . S
H339 C335 0.930 . S
H340 C337 0.929 . S
S341 N342 1.613 . S
S341 N343 1.610 . S
N342 S341 1.613 . S
N342 C345 1.350 . S
N343 S341 1.610 . S
N343 C344 1.351 . S
C344 C338 1.428 . S
C344 N343 1.351 . S
C344 C345 1.434 . S
C345 C336 1.429 . S
C345 N342 1.350 . S
C345 C344 1.434 . S
C346 C347 1.369 . S
C346 C348 1.419 . S
C346 H350 0.930 . S
C347 C346 1.369 . S
C347 C356 1.429 . S
C348 C346 1.419 . S
C348 C349 1.363 . S
C348 H351 0.929 . S
C349 C348 1.363 . S
C349 C355 1.428 . S
H350 C346 0.930 . S
H351 C348 0.929 . S
S352 N353 1.613 . S
S352 N354 1.610 . S
N353 S352 1.613 . S
N353 C356 1.350 . S
N354 S352 1.610 . S
N354 C355 1.351 . S
C355 C349 1.428 . S
C355 N354 1.351 . S
C355 C356 1.434 . S
C356 C347 1.429 . S
C356 N353 1.350 . S
C356 C355 1.434 . S
C357 C358 1.369 . S
C357 C359 1.419 . S
C357 H361 0.930 . S
C358 C357 1.369 . S
C358 C367 1.429 . S
C359 C357 1.419 . S
C359 C360 1.363 . S
C359 H362 0.929 . S
C360 C359 1.363 . S
C360 C366 1.428 . S
H361 C357 0.930 . S
H362 C359 0.929 . S
S363 N364 1.613 . S
S363 N365 1.610 . S
N364 S363 1.613 . S
N364 C367 1.350 . S
N365 S363 1.610 . S
N365 C366 1.351 . S
C366 C360 1.428 . S
C366 N365 1.351 . S
C366 C367 1.434 . S
C367 C358 1.429 . S
C367 N364 1.350 . S
C367 C366 1.434 . S
C368 C369 1.369 . S
C368 C370 1.419 . S
C368 H372 0.930 . S
C369 C368 1.369 . S
C369 C378 1.429 . S
C370 C368 1.419 . S
C370 C371 1.363 . S
C370 H373 0.929 . S
C371 C370 1.363 . S
C371 C377 1.428 . S
H372 C368 0.930 . S
H373 C370 0.929 . S
S374 N375 1.613 . S
S374 N376 1.610 . S
N375 S374 1.613 . S
N375 C378 1.350 . S
N376 S374 1.610 . S
N376 C377 1.351 . S
C377 C371 1.428 . S
C377 N376 1.351 . S
C377 C378 1.434 . S
C378 C369 1.429 . S
C378 N375 1.350 . S
C378 C377 1.434 . S
C379 C380 1.369 . S
C379 C381 1.419 . S
C379 H383 0.930 . S
C380 C379 1.369 . S
C380 C389 1.429 . S
C381 C379 1.419 . S
C381 C382 1.363 . S
C381 H384 0.929 . S
C382 C381 1.363 . S
C382 C388 1.428 . S
H383 C379 0.930 . S
H384 C381 0.929 . S
S385 N386 1.613 . S
S385 N387 1.610 . S
N386 S385 1.613 . S
N386 C389 1.350 . S
N387 S385 1.610 . S
N387 C388 1.351 . S
C388 C382 1.428 . S
C388 N387 1.351 . S
C388 C389 1.434 . S
C389 C380 1.429 . S
C389 N386 1.350 . S
C389 C388 1.434 . S
C193 C189 1.522 1_556 S
C195 N13 1.367 . S
C204 C29 1.525 1_556 S
C206 N45 1.377 . S
C215 C61 1.525 1_556 S
C217 N77 1.377 . S
C226 N109 1.375 . S
C228 C93 1.524 1_556 S
C237 N141 1.366 . S
C239 C125 1.523 1_556 S
C248 C157 1.526 1_556 S
C250 N173 1.379 . S
C259 C130 1.558 . S
C261 N18 1.558 1_554 S
C270 C162 1.562 . S
C272 N50 1.559 1_554 S
C281 N82 1.557 1_554 S
C283 C2 1.560 . S
C292 N114 1.560 1_554 S
C294 C34 1.561 . S
C303 N146 1.561 1_554 S
C305 C66 1.561 . S
C314 C98 1.562 . S
C316 N178 1.560 1_554 S
C325 C6 1.526 . S
C327 C4 1.509 . S
C336 C38 1.525 . S
C338 C36 1.510 . S
C347 C70 1.525 . S
C349 C68 1.510 . S
C358 C102 1.526 . S
C360 C100 1.509 . S
C369 C132 1.512 . S
C371 C134 1.523 . S
C380 C166 1.523 . S
C382 C164 1.512 . S
