# Generated by pormake.
# Topology wio, (6)-cn, num edge types: 1
# Building blocks:
#     Node 0, Type 0, BuildingBlock: KUMBUR_clean_sbu_1, # of connection points: 6
#     Node 1, Type 0, BuildingBlock: KUMBUR_clean_sbu_1, # of connection points: 6
#     Node 2, Type 0, BuildingBlock: KUMBUR_clean_sbu_1, # of connection points: 6
#     Node 3, Type 0, BuildingBlock: KUMBUR_clean_sbu_1, # of connection points: 6
#     Node 4, Type 0, BuildingBlock: KUMBUR_clean_sbu_1, # of connection points: 6
#     Node 5, Type 0, BuildingBlock: KUMBUR_clean_sbu_1, # of connection points: 6
#     Node 6, Type 0, BuildingBlock: KUMBUR_clean_sbu_1, # of connection points: 6
#     Node 7, Type 0, BuildingBlock: KUMBUR_clean_sbu_1, # of connection points: 6
#     Node 8, Type 0, BuildingBlock: KUMBUR_clean_sbu_1, # of connection points: 6
#     Node 9, Type 0, BuildingBlock: KUMBUR_clean_sbu_1, # of connection points: 6
#     Node 10, Type 0, BuildingBlock: KUMBUR_clean_sbu_1, # of connection points: 6
#     Node 11, Type 0, BuildingBlock: KUMBUR_clean_sbu_1, # of connection points: 6
#     Node 12, Type 0, BuildingBlock: KUMBUR_clean_sbu_1, # of connection points: 6
#     Node 13, Type 0, BuildingBlock: KUMBUR_clean_sbu_1, # of connection points: 6
#     Node 14, Type 0, BuildingBlock: KUMBUR_clean_sbu_1, # of connection points: 6
#     Node 15, Type 0, BuildingBlock: KUMBUR_clean_sbu_1, # of connection points: 6
#     Node 16, Type 0, BuildingBlock: KUMBUR_clean_sbu_1, # of connection points: 6
#     Node 17, Type 0, BuildingBlock: KUMBUR_clean_sbu_1, # of connection points: 6
#     Node 18, Type 0, BuildingBlock: KUMBUR_clean_sbu_1, # of connection points: 6
#     Node 19, Type 0, BuildingBlock: KUMBUR_clean_sbu_1, # of connection points: 6
#     Node 20, Type 0, BuildingBlock: KUMBUR_clean_sbu_1, # of connection points: 6
#     Node 21, Type 0, BuildingBlock: KUMBUR_clean_sbu_1, # of connection points: 6
#     Node 22, Type 0, BuildingBlock: KUMBUR_clean_sbu_1, # of connection points: 6
#     Node 23, Type 0, BuildingBlock: KUMBUR_clean_sbu_1, # of connection points: 6
#     Node 24, Type 0, BuildingBlock: KUMBUR_clean_sbu_1, # of connection points: 6
#     Node 25, Type 0, BuildingBlock: KUMBUR_clean_sbu_1, # of connection points: 6
#     Node 26, Type 0, BuildingBlock: KUMBUR_clean_sbu_1, # of connection points: 6
#     Node 27, Type 0, BuildingBlock: KUMBUR_clean_sbu_1, # of connection points: 6
#     Node 28, Type 0, BuildingBlock: KUMBUR_clean_sbu_1, # of connection points: 6
#     Node 29, Type 0, BuildingBlock: KUMBUR_clean_sbu_1, # of connection points: 6
#     Node 30, Type 0, BuildingBlock: KUMBUR_clean_sbu_1, # of connection points: 6
#     Node 31, Type 0, BuildingBlock: KUMBUR_clean_sbu_1, # of connection points: 6
#     Edge 32, Type (0, 0), BuildingBlock: MIFKUJ_clean_linker_0, # of connection points: 2
#     Edge 33, Type (0, 0), BuildingBlock: MIFKUJ_clean_linker_0, # of connection points: 2
#     Edge 34, Type (0, 0), BuildingBlock: MIFKUJ_clean_linker_0, # of connection points: 2
#     Edge 35, Type (0, 0), BuildingBlock: MIFKUJ_clean_linker_0, # of connection points: 2
#     Edge 36, Type (0, 0), BuildingBlock: MIFKUJ_clean_linker_0, # of connection points: 2
#     Edge 37, Type (0, 0), BuildingBlock: MIFKUJ_clean_linker_0, # of connection points: 2
#     Edge 38, Type (0, 0), BuildingBlock: MIFKUJ_clean_linker_0, # of connection points: 2
#     Edge 39, Type (0, 0), BuildingBlock: MIFKUJ_clean_linker_0, # of connection points: 2
#     Edge 40, Type (0, 0), BuildingBlock: MIFKUJ_clean_linker_0, # of connection points: 2
#     Edge 41, Type (0, 0), BuildingBlock: MIFKUJ_clean_linker_0, # of connection points: 2
#     Edge 42, Type (0, 0), BuildingBlock: MIFKUJ_clean_linker_0, # of connection points: 2
#     Edge 43, Type (0, 0), BuildingBlock: MIFKUJ_clean_linker_0, # of connection points: 2
#     Edge 44, Type (0, 0), BuildingBlock: MIFKUJ_clean_linker_0, # of connection points: 2
#     Edge 45, Type (0, 0), BuildingBlock: MIFKUJ_clean_linker_0, # of connection points: 2
#     Edge 46, Type (0, 0), BuildingBlock: MIFKUJ_clean_linker_0, # of connection points: 2
#     Edge 47, Type (0, 0), BuildingBlock: MIFKUJ_clean_linker_0, # of connection points: 2
#     Edge 48, Type (0, 0), BuildingBlock: MIFKUJ_clean_linker_0, # of connection points: 2
#     Edge 49, Type (0, 0), BuildingBlock: MIFKUJ_clean_linker_0, # of connection points: 2
#     Edge 50, Type (0, 0), BuildingBlock: MIFKUJ_clean_linker_0, # of connection points: 2
#     Edge 51, Type (0, 0), BuildingBlock: MIFKUJ_clean_linker_0, # of connection points: 2
#     Edge 52, Type (0, 0), BuildingBlock: MIFKUJ_clean_linker_0, # of connection points: 2
#     Edge 53, Type (0, 0), BuildingBlock: MIFKUJ_clean_linker_0, # of connection points: 2
#     Edge 54, Type (0, 0), BuildingBlock: MIFKUJ_clean_linker_0, # of connection points: 2
#     Edge 55, Type (0, 0), BuildingBlock: MIFKUJ_clean_linker_0, # of connection points: 2
#     Edge 56, Type (0, 0), BuildingBlock: MIFKUJ_clean_linker_0, # of connection points: 2
#     Edge 57, Type (0, 0), BuildingBlock: MIFKUJ_clean_linker_0, # of connection points: 2
#     Edge 58, Type (0, 0), BuildingBlock: MIFKUJ_clean_linker_0, # of connection points: 2
#     Edge 59, Type (0, 0), BuildingBlock: MIFKUJ_clean_linker_0, # of connection points: 2
#     Edge 60, Type (0, 0), BuildingBlock: MIFKUJ_clean_linker_0, # of connection points: 2
#     Edge 61, Type (0, 0), BuildingBlock: MIFKUJ_clean_linker_0, # of connection points: 2
#     Edge 62, Type (0, 0), BuildingBlock: MIFKUJ_clean_linker_0, # of connection points: 2
#     Edge 63, Type (0, 0), BuildingBlock: MIFKUJ_clean_linker_0, # of connection points: 2
#     Edge 64, Type (0, 0), BuildingBlock: MIFKUJ_clean_linker_0, # of connection points: 2
#     Edge 65, Type (0, 0), BuildingBlock: MIFKUJ_clean_linker_0, # of connection points: 2
#     Edge 66, Type (0, 0), BuildingBlock: MIFKUJ_clean_linker_0, # of connection points: 2
#     Edge 67, Type (0, 0), BuildingBlock: MIFKUJ_clean_linker_0, # of connection points: 2
#     Edge 68, Type (0, 0), BuildingBlock: MIFKUJ_clean_linker_0, # of connection points: 2
#     Edge 69, Type (0, 0), BuildingBlock: MIFKUJ_clean_linker_0, # of connection points: 2
#     Edge 70, Type (0, 0), BuildingBlock: MIFKUJ_clean_linker_0, # of connection points: 2
#     Edge 71, Type (0, 0), BuildingBlock: MIFKUJ_clean_linker_0, # of connection points: 2
#     Edge 72, Type (0, 0), BuildingBlock: MIFKUJ_clean_linker_0, # of connection points: 2
#     Edge 73, Type (0, 0), BuildingBlock: MIFKUJ_clean_linker_0, # of connection points: 2
#     Edge 74, Type (0, 0), BuildingBlock: MIFKUJ_clean_linker_0, # of connection points: 2
#     Edge 75, Type (0, 0), BuildingBlock: MIFKUJ_clean_linker_0, # of connection points: 2
#     Edge 76, Type (0, 0), BuildingBlock: MIFKUJ_clean_linker_0, # of connection points: 2
#     Edge 77, Type (0, 0), BuildingBlock: MIFKUJ_clean_linker_0, # of connection points: 2
#     Edge 78, Type (0, 0), BuildingBlock: MIFKUJ_clean_linker_0, # of connection points: 2
#     Edge 79, Type (0, 0), BuildingBlock: MIFKUJ_clean_linker_0, # of connection points: 2
#     Edge 80, Type (0, 0), BuildingBlock: MIFKUJ_clean_linker_0, # of connection points: 2
#     Edge 81, Type (0, 0), BuildingBlock: MIFKUJ_clean_linker_0, # of connection points: 2
#     Edge 82, Type (0, 0), BuildingBlock: MIFKUJ_clean_linker_0, # of connection points: 2
#     Edge 83, Type (0, 0), BuildingBlock: MIFKUJ_clean_linker_0, # of connection points: 2
#     Edge 84, Type (0, 0), BuildingBlock: MIFKUJ_clean_linker_0, # of connection points: 2
#     Edge 85, Type (0, 0), BuildingBlock: MIFKUJ_clean_linker_0, # of connection points: 2
#     Edge 86, Type (0, 0), BuildingBlock: MIFKUJ_clean_linker_0, # of connection points: 2
#     Edge 87, Type (0, 0), BuildingBlock: MIFKUJ_clean_linker_0, # of connection points: 2
#     Edge 88, Type (0, 0), BuildingBlock: MIFKUJ_clean_linker_0, # of connection points: 2
#     Edge 89, Type (0, 0), BuildingBlock: MIFKUJ_clean_linker_0, # of connection points: 2
#     Edge 90, Type (0, 0), BuildingBlock: MIFKUJ_clean_linker_0, # of connection points: 2
#     Edge 91, Type (0, 0), BuildingBlock: MIFKUJ_clean_linker_0, # of connection points: 2
#     Edge 92, Type (0, 0), BuildingBlock: MIFKUJ_clean_linker_0, # of connection points: 2
#     Edge 93, Type (0, 0), BuildingBlock: MIFKUJ_clean_linker_0, # of connection points: 2
#     Edge 94, Type (0, 0), BuildingBlock: MIFKUJ_clean_linker_0, # of connection points: 2
#     Edge 95, Type (0, 0), BuildingBlock: MIFKUJ_clean_linker_0, # of connection points: 2
#     Edge 96, Type (0, 0), BuildingBlock: MIFKUJ_clean_linker_0, # of connection points: 2
#     Edge 97, Type (0, 0), BuildingBlock: MIFKUJ_clean_linker_0, # of connection points: 2
#     Edge 98, Type (0, 0), BuildingBlock: MIFKUJ_clean_linker_0, # of connection points: 2
#     Edge 99, Type (0, 0), BuildingBlock: MIFKUJ_clean_linker_0, # of connection points: 2
#     Edge 100, Type (0, 0), BuildingBlock: MIFKUJ_clean_linker_0, # of connection points: 2
#     Edge 101, Type (0, 0), BuildingBlock: MIFKUJ_clean_linker_0, # of connection points: 2
#     Edge 102, Type (0, 0), BuildingBlock: MIFKUJ_clean_linker_0, # of connection points: 2
#     Edge 103, Type (0, 0), BuildingBlock: MIFKUJ_clean_linker_0, # of connection points: 2
#     Edge 104, Type (0, 0), BuildingBlock: MIFKUJ_clean_linker_0, # of connection points: 2
#     Edge 105, Type (0, 0), BuildingBlock: MIFKUJ_clean_linker_0, # of connection points: 2
#     Edge 106, Type (0, 0), BuildingBlock: MIFKUJ_clean_linker_0, # of connection points: 2
#     Edge 107, Type (0, 0), BuildingBlock: MIFKUJ_clean_linker_0, # of connection points: 2
#     Edge 108, Type (0, 0), BuildingBlock: MIFKUJ_clean_linker_0, # of connection points: 2
#     Edge 109, Type (0, 0), BuildingBlock: MIFKUJ_clean_linker_0, # of connection points: 2
#     Edge 110, Type (0, 0), BuildingBlock: MIFKUJ_clean_linker_0, # of connection points: 2
#     Edge 111, Type (0, 0), BuildingBlock: MIFKUJ_clean_linker_0, # of connection points: 2
#     Edge 112, Type (0, 0), BuildingBlock: MIFKUJ_clean_linker_0, # of connection points: 2
#     Edge 113, Type (0, 0), BuildingBlock: MIFKUJ_clean_linker_0, # of connection points: 2
#     Edge 114, Type (0, 0), BuildingBlock: MIFKUJ_clean_linker_0, # of connection points: 2
#     Edge 115, Type (0, 0), BuildingBlock: MIFKUJ_clean_linker_0, # of connection points: 2
#     Edge 116, Type (0, 0), BuildingBlock: MIFKUJ_clean_linker_0, # of connection points: 2
#     Edge 117, Type (0, 0), BuildingBlock: MIFKUJ_clean_linker_0, # of connection points: 2
#     Edge 118, Type (0, 0), BuildingBlock: MIFKUJ_clean_linker_0, # of connection points: 2
#     Edge 119, Type (0, 0), BuildingBlock: MIFKUJ_clean_linker_0, # of connection points: 2
#     Edge 120, Type (0, 0), BuildingBlock: MIFKUJ_clean_linker_0, # of connection points: 2
#     Edge 121, Type (0, 0), BuildingBlock: MIFKUJ_clean_linker_0, # of connection points: 2
#     Edge 122, Type (0, 0), BuildingBlock: MIFKUJ_clean_linker_0, # of connection points: 2
#     Edge 123, Type (0, 0), BuildingBlock: MIFKUJ_clean_linker_0, # of connection points: 2
#     Edge 124, Type (0, 0), BuildingBlock: MIFKUJ_clean_linker_0, # of connection points: 2
#     Edge 125, Type (0, 0), BuildingBlock: MIFKUJ_clean_linker_0, # of connection points: 2
#     Edge 126, Type (0, 0), BuildingBlock: MIFKUJ_clean_linker_0, # of connection points: 2
#     Edge 127, Type (0, 0), BuildingBlock: MIFKUJ_clean_linker_0, # of connection points: 2
# Relax obj value: 0.176
# Max RMSD: 0.227
# Mean RMSD: 0.227
data_MOF--net-wio--node1-KUMBUR_clean_sbu_1--edge1-MIFKUJ_clean_linker_0
_symmetry_space_group_name_H-M    P1
_symmetry_Int_Tables_number       1
_symmetry_cell_setting            triclinic
loop_
_symmetry_equiv_pos_as_xyz
'x, y, z'
_cell_length_a     74.958397
_cell_length_b     75.222844
_cell_length_c     66.927419
_cell_angle_alpha  89.802037
_cell_angle_beta   89.962707
_cell_angle_gamma 89.988131
loop_
_atom_site_label
_atom_site_type_symbol
_atom_site_fract_x
_atom_site_fract_y
_atom_site_fract_z
_atom_type_partial_charge
Tb0 Tb 0.10753 0.11697 0.28948 0.0
C1 C 0.18901 0.11764 0.3139 0.0
N2 N 0.17967 0.1303 0.30379 0.0
C3 C 0.19308 0.15295 0.32417 0.0
C4 C 0.19978 0.12204 0.33043 0.0
C5 C 0.18265 0.14792 0.30783 0.0
C6 C 0.20135 0.13993 0.33582 0.0
C7 C 0.19856 0.08686 0.31657 0.0
C8 C 0.18861 0.10031 0.30696 0.0
C9 C 0.20846 0.09101 0.33372 0.0
C10 C 0.20909 0.10857 0.34062 0.0
Tb11 Tb 0.16185 0.11986 0.27836 0.0
N12 N 0.17847 0.09669 0.29064 0.0
C13 C 0.19835 0.0697 0.30854 0.0
C14 C 0.17912 0.08024 0.28203 0.0
C15 C 0.1888 0.06645 0.29101 0.0
H16 H 0.17658 0.1582 0.29876 0.0
H17 H 0.1889 0.05334 0.28438 0.0
H18 H 0.09855 0.07485 0.27614 0.0
H19 H 0.07141 0.17787 0.27405 0.0
H20 H 0.17228 0.07775 0.26818 0.0
H21 H 0.20576 0.05899 0.31552 0.0
H22 H 0.09152 0.15842 0.29337 0.0
H23 H 0.19479 0.16687 0.32771 0.0
H24 H 0.21598 0.08082 0.3415 0.0
H25 H 0.2172 0.11167 0.35355 0.0
H26 H 0.08204 0.0602 0.24923 0.0
H27 H 0.20948 0.14386 0.34843 0.0
H28 H 0.0549 0.16584 0.24509 0.0
N29 N 0.09038 0.10102 0.2677 0.0
C30 C 0.07917 0.11077 0.25608 0.0
C31 C 0.08121 0.07443 0.2509 0.0
C32 C 0.06904 0.10278 0.24083 0.0
C33 C 0.09086 0.08292 0.26595 0.0
C34 C 0.07045 0.0844 0.23808 0.0
N35 N 0.08766 0.13596 0.27464 0.0
C36 C 0.08497 0.1532 0.28032 0.0
C37 C 0.0659 0.13936 0.24837 0.0
C38 C 0.07779 0.12884 0.25966 0.0
C39 C 0.06395 0.15731 0.25335 0.0
C40 C 0.0733 0.16417 0.26963 0.0
H41 H 0.06297 0.07775 0.22645 0.0
H42 H 0.04997 0.10745 0.21706 0.0
H43 H 0.04708 0.13948 0.22379 0.0
O44 O 0.08779 0.12576 0.30992 0.0
O45 O 0.11554 0.11735 0.25783 0.0
O46 O 0.14185 0.13339 0.25877 0.0
O47 O 0.09674 0.0986 0.30965 0.0
O48 O 0.12003 0.14322 0.28905 0.0
O49 O 0.14971 0.13978 0.29781 0.0
O50 O 0.18068 0.1116 0.25642 0.0
O51 O 0.15298 0.10194 0.3021 0.0
O52 O 0.12794 0.1162 0.31365 0.0
O53 O 0.17859 0.13919 0.26588 0.0
O54 O 0.14656 0.09958 0.26273 0.0
O55 O 0.12314 0.09326 0.28454 0.0
C56 C 0.12844 0.12616 0.2487 0.0
C57 C 0.06762 0.10364 0.32217 0.0
C58 C 0.04219 0.10287 0.34504 0.0
C59 C 0.03541 0.08815 0.33469 0.0
C60 C 0.06039 0.08908 0.31184 0.0
C61 C 0.04438 0.08142 0.31811 0.0
C62 C 0.0583 0.11069 0.33867 0.0
C63 C 0.13455 0.14856 0.29809 0.0
C64 C 0.08584 0.11 0.31766 0.0
C65 C 0.05775 0.11333 0.22897 0.0
C66 C 0.05613 0.13157 0.23279 0.0
C67 C 0.14072 0.1042 0.3159 0.0
C68 C 0.20215 0.13279 0.24218 0.0
C69 C 0.22759 0.12521 0.22107 0.0
C70 C 0.23303 0.14306 0.22153 0.0
C71 C 0.20787 0.15059 0.24225 0.0
C72 C 0.21196 0.12007 0.23126 0.0
C73 C 0.22316 0.15566 0.23192 0.0
C74 C 0.13447 0.08887 0.27042 0.0
C75 C 0.18727 0.12755 0.25536 0.0
H76 H 0.02314 0.08183 0.33952 0.0
H77 H 0.06733 0.08327 0.29929 0.0
H78 H 0.03906 0.07002 0.3103 0.0
H79 H 0.06388 0.1217 0.347 0.0
H80 H 0.24496 0.14729 0.21371 0.0
H81 H 0.20073 0.1606 0.25067 0.0
H82 H 0.20788 0.10625 0.23123 0.0
H83 H 0.22752 0.16937 0.23217 0.0
Tb84 Tb 0.13491 0.85575 0.53914 0.0
C85 C 0.12806 0.93532 0.57191 0.0
N86 N 0.11693 0.92682 0.55895 0.0
C87 C 0.09158 0.93811 0.57675 0.0
C88 C 0.1213 0.94435 0.58871 0.0
C89 C 0.09896 0.92956 0.56018 0.0
C90 C 0.1028 0.9451 0.5914 0.0
C91 C 0.15793 0.94594 0.57984 0.0
C92 C 0.14618 0.93643 0.5674 0.0
C93 C 0.15136 0.95387 0.59729 0.0
C94 C 0.13309 0.95313 0.60168 0.0
Tb95 Tb 0.13122 0.91337 0.53295 0.0
N96 N 0.15223 0.92848 0.55047 0.0
C97 C 0.17583 0.94753 0.57408 0.0
C98 C 0.16906 0.93183 0.54363 0.0
C99 C 0.18132 0.9407 0.55571 0.0
H100 H 0.09036 0.92587 0.54802 0.0
H101 H 0.19492 0.94236 0.55077 0.0
H102 H 0.17566 0.83978 0.52611 0.0
H103 H 0.06836 0.83684 0.51693 0.0
H104 H 0.17305 0.92759 0.52895 0.0
H105 H 0.18534 0.95458 0.58332 0.0
H106 H 0.09062 0.85322 0.53668 0.0
H107 H 0.07728 0.93977 0.57792 0.0
H108 H 0.16021 0.96109 0.60716 0.0
H109 H 0.12813 0.95993 0.6148 0.0
H110 H 0.18741 0.81871 0.50169 0.0
H111 H 0.09706 0.95198 0.60406 0.0
H112 H 0.07823 0.81516 0.49151 0.0
N113 N 0.14844 0.83698 0.51684 0.0
C114 C 0.13689 0.82725 0.5056 0.0
C115 C 0.17321 0.82122 0.50237 0.0
C116 C 0.14318 0.81448 0.49188 0.0
C117 C 0.16641 0.83361 0.51591 0.0
C118 C 0.16157 0.81174 0.49017 0.0
N119 N 0.11289 0.84176 0.52194 0.0
C120 C 0.09512 0.84423 0.52531 0.0
C121 C 0.10633 0.81972 0.49691 0.0
C122 C 0.11862 0.82966 0.50826 0.0
C123 C 0.08808 0.82252 0.49996 0.0
C124 C 0.08246 0.83479 0.51427 0.0
H125 H 0.16689 0.80202 0.47983 0.0
H126 H 0.13555 0.79455 0.47023 0.0
H127 H 0.10336 0.79946 0.4742 0.0
O128 O 0.1238 0.83451 0.55576 0.0
O129 O 0.12673 0.86605 0.50882 0.0
O130 O 0.12419 0.8977 0.50586 0.0
O131 O 0.15151 0.84176 0.55889 0.0
O132 O 0.11474 0.87278 0.55394 0.0
O133 O 0.10562 0.89929 0.53819 0.0
O134 O 0.14372 0.92628 0.50825 0.0
O135 O 0.14918 0.90278 0.55625 0.0
O136 O 0.13597 0.87581 0.56362 0.0
O137 O 0.12141 0.93791 0.52381 0.0
O138 O 0.14403 0.88899 0.52766 0.0
O139 O 0.16089 0.86652 0.53108 0.0
C140 C 0.12354 0.8811 0.49858 0.0
C141 C 0.1436 0.81245 0.56872 0.0
C142 C 0.14472 0.78756 0.59214 0.0
C143 C 0.15585 0.77835 0.57887 0.0
C144 C 0.15448 0.80288 0.55551 0.0
C145 C 0.16057 0.78593 0.56059 0.0
C146 C 0.13848 0.80458 0.58697 0.0
C147 C 0.10234 0.88462 0.54884 0.0
C148 C 0.1388 0.83116 0.56484 0.0
C149 C 0.13095 0.80455 0.48063 0.0
C150 C 0.1126 0.80725 0.48301 0.0
C151 C 0.14819 0.8881 0.56711 0.0
C152 C 0.12578 0.94817 0.49118 0.0
C153 C 0.12612 0.97341 0.46798 0.0
C154 C 0.10856 0.96924 0.46239 0.0
C155 C 0.10837 0.94408 0.48497 0.0
C156 C 0.1348 0.9627 0.48233 0.0
C157 C 0.09984 0.9546 0.47069 0.0
C158 C 0.15998 0.88279 0.52536 0.0
C159 C 0.13298 0.93991 0.50947 0.0
H160 H 0.16083 0.76524 0.58266 0.0
H161 H 0.15855 0.80852 0.54146 0.0
H162 H 0.16913 0.77871 0.55042 0.0
H163 H 0.1302 0.81189 0.5974 0.0
H164 H 0.1016 0.97732 0.45146 0.0
H165 H 0.10108 0.93322 0.49183 0.0
H166 H 0.1481 0.9662 0.48732 0.0
H167 H 0.08628 0.9516 0.46631 0.0
Tb168 Tb 0.3899 0.88177 0.78817 0.0
C169 C 0.30912 0.87573 0.81813 0.0
N170 N 0.32009 0.86503 0.80735 0.0
C171 C 0.31093 0.8399 0.82693 0.0
C172 C 0.29894 0.86895 0.83415 0.0
C173 C 0.32023 0.84714 0.81074 0.0
C174 C 0.30034 0.85087 0.83881 0.0
C175 C 0.29658 0.90507 0.82369 0.0
C176 C 0.30806 0.89358 0.81307 0.0
C177 C 0.28631 0.89832 0.83953 0.0
C178 C 0.28761 0.88034 0.84486 0.0
Tb179 Tb 0.33529 0.87872 0.78209 0.0
N180 N 0.31901 0.89987 0.79847 0.0
C181 C 0.29633 0.92313 0.8186 0.0
C182 C 0.31914 0.91758 0.7939 0.0
C183 C 0.30776 0.92942 0.80372 0.0
H184 H 0.32716 0.83827 0.8008 0.0
H185 H 0.30794 0.94342 0.79991 0.0
H186 H 0.40906 0.91981 0.77498 0.0
H187 H 0.40872 0.81401 0.7731 0.0
H188 H 0.32794 0.92278 0.7828 0.0
H189 H 0.28771 0.93237 0.82638 0.0
H190 H 0.39309 0.8379 0.79104 0.0
H191 H 0.31169 0.82584 0.83002 0.0
H192 H 0.27754 0.90696 0.84795 0.0
H193 H 0.2797 0.87536 0.85722 0.0
H194 H 0.42998 0.93032 0.74893 0.0
H195 H 0.29293 0.84516 0.85117 0.0
H196 H 0.42888 0.82145 0.74503 0.0
N197 N 0.40876 0.89319 0.76464 0.0
C198 C 0.41726 0.88086 0.75326 0.0
C199 C 0.42619 0.91644 0.74962 0.0
C200 C 0.43032 0.88598 0.73921 0.0
C201 C 0.41373 0.91066 0.76375 0.0
C202 C 0.43434 0.90408 0.73707 0.0
N203 N 0.40233 0.85842 0.77175 0.0
C204 C 0.40094 0.84121 0.77813 0.0
C205 C 0.42399 0.84977 0.747 0.0
C206 C 0.41417 0.86293 0.75714 0.0
C207 C 0.42153 0.83194 0.75242 0.0
C208 C 0.41012 0.82768 0.76823 0.0
H209 H 0.44435 0.90852 0.72649 0.0
H210 H 0.44972 0.87658 0.71768 0.0
H211 H 0.44416 0.84491 0.72447 0.0
O212 O 0.40057 0.87333 0.81607 0.0
O213 O 0.37796 0.8671 0.76263 0.0
O214 O 0.35127 0.88061 0.75499 0.0
O215 O 0.41588 0.88926 0.79604 0.0
O216 O 0.37392 0.86408 0.80671 0.0
O217 O 0.35166 0.85459 0.78575 0.0
O218 O 0.31353 0.8879 0.76503 0.0
O219 O 0.34625 0.88738 0.81123 0.0
O220 O 0.37381 0.90093 0.80513 0.0
O221 O 0.31959 0.85979 0.76677 0.0
O222 O 0.34825 0.90178 0.76852 0.0
O223 O 0.37821 0.90694 0.77746 0.0
C224 C 0.36658 0.87375 0.74955 0.0
C225 C 0.42399 0.89123 0.82965 0.0
C226 C 0.44745 0.89304 0.85484 0.0
C227 C 0.44305 0.91094 0.85806 0.0
C228 C 0.42007 0.90929 0.83271 0.0
C229 C 0.42939 0.91898 0.8471 0.0
C230 C 0.43776 0.88316 0.84075 0.0
C231 C 0.36245 0.852 0.80102 0.0
C232 C 0.41573 0.88131 0.81312 0.0
C233 C 0.43963 0.87289 0.72852 0.0
C234 C 0.43648 0.85484 0.73242 0.0
C235 C 0.3597 0.89781 0.81653 0.0
C236 C 0.2911 0.86826 0.7523 0.0
C237 C 0.26655 0.8745 0.72912 0.0
C238 C 0.25734 0.85974 0.73679 0.0
C239 C 0.28163 0.85355 0.75972 0.0
C240 C 0.28349 0.87868 0.73685 0.0
C241 C 0.26484 0.84935 0.75194 0.0
C242 C 0.36311 0.91128 0.76828 0.0
C243 C 0.30961 0.87209 0.75866 0.0
H244 H 0.45042 0.91875 0.86885 0.0
H245 H 0.41001 0.91594 0.82378 0.0
H246 H 0.42625 0.93287 0.84947 0.0
H247 H 0.44134 0.86942 0.83795 0.0
H248 H 0.2444 0.85614 0.73084 0.0
H249 H 0.28729 0.84518 0.77128 0.0
H250 H 0.29082 0.88985 0.73068 0.0
H251 H 0.25765 0.83789 0.75755 0.0
Tb252 Tb 0.36384 0.1376 0.04061 0.0
C253 C 0.3729 0.05738 0.06967 0.0
N254 N 0.38398 0.06827 0.05905 0.0
C255 C 0.40819 0.06075 0.08098 0.0
C256 C 0.37889 0.04861 0.08708 0.0
C257 C 0.40174 0.06888 0.06363 0.0
C258 C 0.39662 0.0509 0.09301 0.0
C259 C 0.34433 0.04212 0.07254 0.0
C260 C 0.35579 0.05398 0.06243 0.0
C261 C 0.35014 0.0339 0.0902 0.0
C262 C 0.3673 0.03721 0.09752 0.0
Tb263 Tb 0.37104 0.08072 0.03145 0.0
N264 N 0.35045 0.06221 0.04532 0.0
C265 C 0.32748 0.03864 0.06442 0.0
C266 C 0.33452 0.05798 0.03664 0.0
C267 C 0.32264 0.04644 0.04626 0.0
H268 H 0.41127 0.07495 0.05372 0.0
H269 H 0.30984 0.04349 0.03958 0.0
H270 H 0.32356 0.1536 0.02652 0.0
H271 H 0.43091 0.15921 0.02357 0.0
H272 H 0.33091 0.06351 0.02231 0.0
H273 H 0.31827 0.02968 0.07184 0.0
H274 H 0.40804 0.14301 0.04274 0.0
H275 H 0.42219 0.06169 0.08476 0.0
H276 H 0.34163 0.02458 0.09802 0.0
H277 H 0.37169 0.03044 0.11096 0.0
H278 H 0.31242 0.17486 1.00168 0.0
H279 H 0.40174 0.04437 0.10627 0.0
H280 H 0.42186 0.17968 0.99641 0.0
N281 N 0.351 0.15694 0.01847 0.0
C282 C 0.36285 0.16681 1.00774 0.0
C283 C 0.32662 0.17249 1.00298 0.0
C284 C 0.35693 0.17937 0.99351 0.0
C285 C 0.33306 0.16012 0.01681 0.0
C286 C 0.33858 0.18198 0.99107 0.0
N287 N 0.38641 0.15268 0.02544 0.0
C288 C 0.40399 0.15111 0.03034 0.0
C289 C 0.39364 0.17458 1.00031 0.0
C290 C 0.38106 0.16459 1.01126 0.0
C291 C 0.41178 0.17227 1.00452 0.0
C292 C 0.41695 0.16065 0.01977 0.0
H293 H 0.33353 0.19158 0.98037 0.0
H294 H 0.36515 0.1987 0.97127 0.0
H295 H 0.39724 0.1944 0.97708 0.0
O296 O 0.37369 0.15839 0.05879 0.0
O297 O 0.37206 0.12909 1.00935 0.0
O298 O 0.37354 0.0977 1.00452 0.0
O299 O 0.34606 0.15022 0.06011 0.0
O300 O 0.38243 0.11871 0.05496 0.0
O301 O 0.39531 0.09658 0.03635 0.0
O302 O 0.36132 0.06464 1.00748 0.0
O303 O 0.35188 0.0888 0.05474 0.0
O304 O 0.36248 0.11649 0.06457 0.0
O305 O 0.38809 0.06143 0.02044 0.0
O306 O 0.35656 0.10455 0.02822 0.0
O307 O 0.33873 0.12653 0.03036 0.0
C308 C 0.37437 0.11451 0.99803 0.0
C309 C 0.35258 0.17953 0.0714 0.0
C310 C 0.35282 0.20483 0.0943 0.0
C311 C 0.33877 0.21254 0.08345 0.0
C312 C 0.33855 0.18759 0.0608 0.0
C313 C 0.3318 0.20403 0.06674 0.0
C314 C 0.35988 0.18839 0.08808 0.0
C315 C 0.39677 0.11068 0.04801 0.0
C316 C 0.35816 0.16106 0.06705 0.0
C317 C 0.36947 0.1891 0.98237 0.0
C318 C 0.38775 0.18667 0.9857 0.0
C319 C 0.3515 0.10269 0.06692 0.0
C320 C 0.38065 0.04061 0.99443 0.0
C321 C 0.37242 0.01411 0.97547 0.0
C322 C 0.39057 0.00965 0.974 0.0
C323 C 0.3987 0.0358 0.99249 0.0
C324 C 0.36741 0.02986 0.98548 0.0
C325 C 0.40358 0.02048 0.98232 0.0
C326 C 0.34064 0.11042 0.02448 0.0
C327 C 0.37614 0.05546 1.00792 0.0
H328 H 0.33309 0.22513 0.08807 0.0
H329 H 0.33238 0.18101 0.04833 0.0
H330 H 0.32085 0.21002 0.0586 0.0
H331 H 0.37041 0.18216 0.09672 0.0
H332 H 0.39475 -0.00218 0.96607 0.0
H333 H 0.40914 0.04373 0.99921 0.0
H334 H 0.35343 0.03329 0.98693 0.0
H335 H 0.41751 0.0169 0.98104 0.0
Tb336 Tb 0.10676 0.878 0.24312 0.0
C337 C 0.18775 0.87383 0.21196 0.0
N338 N 0.17736 0.86244 0.2227 0.0
C339 C 0.18871 0.83786 0.20388 0.0
C340 C 0.19812 0.86776 0.19581 0.0
C341 C 0.17866 0.84455 0.21979 0.0
C342 C 0.19815 0.84956 0.19153 0.0
C343 C 0.19962 0.90362 0.20739 0.0
C344 C 0.1886 0.89152 0.21776 0.0
C345 C 0.20931 0.8978 0.19069 0.0
C346 C 0.20857 0.87991 0.18492 0.0
Tb347 Tb 0.1622 0.87495 0.24849 0.0
N348 N 0.17872 0.8968 0.23373 0.0
C349 C 0.20065 0.92116 0.21424 0.0
C350 C 0.18042 0.9136 0.24112 0.0
C351 C 0.19118 0.92608 0.23132 0.0
H352 H 0.17197 0.83536 0.2297 0.0
H353 H 0.19229 0.93942 0.23703 0.0
H354 H 0.09967 0.92052 0.25803 0.0
H355 H 0.07897 0.81585 0.26686 0.0
H356 H 0.17403 0.91721 0.25493 0.0
H357 H 0.20895 0.93088 0.20669 0.0
H358 H 0.09731 0.83569 0.2454 0.0
H359 H 0.18926 0.82368 0.20123 0.0
H360 H 0.21767 0.90695 0.18237 0.0
H361 H 0.21646 0.87553 0.1723 0.0
H362 H 0.08428 0.93512 0.28567 0.0
H363 H 0.20595 0.84434 0.17925 0.0
H364 H 0.0628 0.82837 0.29586 0.0
N365 N 0.0942 0.89409 0.26842 0.0
C366 C 0.08441 0.88409 0.28143 0.0
C367 C 0.08447 0.92075 0.28485 0.0
C368 C 0.07454 0.89212 0.2969 0.0
C369 C 0.09369 0.91228 0.26943 0.0
C370 C 0.07496 0.91063 0.29873 0.0
N371 N 0.09274 0.8584 0.26326 0.0
C372 C 0.09086 0.8409 0.25853 0.0
C373 C 0.0724 0.85518 0.29082 0.0
C374 C 0.08334 0.86578 0.2785 0.0
C375 C 0.07112 0.83696 0.28676 0.0
C376 C 0.08029 0.82981 0.27045 0.0
H377 H 0.0675 0.91728 0.31039 0.0
H378 H 0.05636 0.88747 0.32155 0.0
H379 H 0.05446 0.8552 0.3162 0.0
O380 O 0.09065 0.86673 0.22046 0.0
O381 O 0.11928 0.86337 0.26871 0.0
O382 O 0.14596 0.87739 0.27526 0.0
O383 O 0.08184 0.88945 0.23681 0.0
O384 O 0.1205 0.85842 0.22511 0.0
O385 O 0.14551 0.85132 0.2437 0.0
O386 O 0.18462 0.88321 0.26538 0.0
O387 O 0.15255 0.88631 0.21984 0.0
O388 O 0.12163 0.89223 0.21953 0.0
O389 O 0.17751 0.85517 0.26287 0.0
O390 O 0.14743 0.89597 0.26331 0.0
O391 O 0.12194 0.90245 0.24473 0.0
C392 C 0.13113 0.86983 0.28143 0.0
C393 C 0.0723 0.8876 0.20354 0.0
C394 C 0.05166 0.88963 0.17531 0.0
C395 C 0.06027 0.90531 0.16913 0.0
C396 C 0.08056 0.90337 0.1971 0.0
C397 C 0.07456 0.91213 0.18 0.0
C398 C 0.05767 0.88082 0.1927 0.0
C399 C 0.13483 0.84886 0.2283 0.0
C400 C 0.07835 0.87884 0.2221 0.0
C401 C 0.06402 0.88151 0.30958 0.0
C402 C 0.06291 0.86312 0.30651 0.0
C403 C 0.13787 0.89286 0.21156 0.0
C404 C 0.20426 0.86205 0.28234 0.0
C405 C 0.22917 0.86974 0.30443 0.0
C406 C 0.23523 0.85211 0.30311 0.0
C407 C 0.21069 0.84455 0.28143 0.0
C408 C 0.21351 0.87472 0.29408 0.0
C409 C 0.22604 0.83965 0.29175 0.0
C410 C 0.13572 0.90697 0.25568 0.0
C411 C 0.1887 0.86692 0.26985 0.0
H412 H 0.05571 0.91245 0.156 0.0
H413 H 0.09157 0.90901 0.20541 0.0
H414 H 0.08096 0.92432 0.17521 0.0
H415 H 0.05104 0.86881 0.19772 0.0
H416 H 0.2471 0.84792 0.31109 0.0
H417 H 0.20401 0.83465 0.27239 0.0
H418 H 0.20878 0.88832 0.29489 0.0
H419 H 0.23092 0.82613 0.29086 0.0
Tb420 Tb 0.36352 0.8539 0.4894 0.0
C421 C 0.37085 0.9354 0.46184 0.0
N422 N 0.38195 0.92529 0.47335 0.0
C423 C 0.40713 0.9358 0.45472 0.0
C424 C 0.37748 0.94533 0.44555 0.0
C425 C 0.39999 0.92639 0.47085 0.0
C426 C 0.39582 0.94496 0.4417 0.0
C427 C 0.3415 0.94854 0.45682 0.0
C428 C 0.35305 0.93713 0.46744 0.0
C429 C 0.34789 0.9577 0.44001 0.0
C430 C 0.3658 0.95604 0.43432 0.0
Tb431 Tb 0.3681 0.91049 0.49874 0.0
N432 N 0.34727 0.92819 0.48389 0.0
C433 C 0.32401 0.9508 0.46376 0.0
C434 C 0.33056 0.93116 0.4914 0.0
C435 C 0.31861 0.94225 0.48129 0.0
H436 H 0.40905 0.92042 0.48143 0.0
H437 H 0.30528 0.94427 0.4871 0.0
H438 H 0.32566 0.83612 0.50744 0.0
H439 H 0.43274 0.83538 0.49987 0.0
H440 H 0.32642 0.9251 0.50521 0.0
H441 H 0.31474 0.95944 0.45599 0.0
H442 H 0.40787 0.85029 0.48283 0.0
H443 H 0.42141 0.9363 0.45277 0.0
H444 H 0.33921 0.96653 0.43168 0.0
H445 H 0.37065 0.96362 0.42164 0.0
H446 H 0.31735 0.81507 0.53381 0.0
H447 H 0.40146 0.95249 0.42941 0.0
H448 H 0.42684 0.81502 0.5282 0.0
N449 N 0.35373 0.83415 0.51295 0.0
C450 C 0.36673 0.82494 0.52258 0.0
C451 C 0.33129 0.81793 0.53104 0.0
C452 C 0.36249 0.81253 0.53769 0.0
C453 C 0.33614 0.83017 0.51627 0.0
C454 C 0.34451 0.80928 0.54204 0.0
N455 N 0.38796 0.83975 0.50221 0.0
C456 C 0.40502 0.84207 0.49559 0.0
C457 C 0.39823 0.81876 0.52706 0.0
C458 C 0.38439 0.82793 0.51717 0.0
C459 C 0.41582 0.82179 0.52097 0.0
C460 C 0.4192 0.83333 0.50503 0.0
H461 H 0.34071 0.79981 0.55351 0.0
H462 H 0.37328 0.7942 0.55959 0.0
H463 H 0.40457 0.79973 0.5504 0.0
O464 O 0.37008 0.83132 0.47144 0.0
O465 O 0.36979 0.8622 0.52114 0.0
O466 O 0.37293 0.89336 0.52495 0.0
O467 O 0.34313 0.84246 0.47293 0.0
O468 O 0.38365 0.8705 0.47366 0.0
O469 O 0.39271 0.89537 0.49242 0.0
O470 O 0.35571 0.92388 0.52262 0.0
O471 O 0.34985 0.90173 0.47509 0.0
O472 O 0.36172 0.87457 0.46504 0.0
O473 O 0.383 0.92959 0.51414 0.0
O474 O 0.35446 0.88635 0.5021 0.0
O475 O 0.33786 0.86383 0.49906 0.0
C476 C 0.373 0.87678 0.53201 0.0
C477 C 0.34621 0.81679 0.45184 0.0
C478 C 0.34967 0.79294 0.42761 0.0
C479 C 0.33108 0.79224 0.42534 0.0
C480 C 0.32758 0.81571 0.44942 0.0
C481 C 0.32012 0.80353 0.43624 0.0
C482 C 0.35732 0.80525 0.44088 0.0
C483 C 0.39531 0.88312 0.4785 0.0
C484 C 0.35352 0.83028 0.46554 0.0
C485 C 0.37627 0.80365 0.5478 0.0
C486 C 0.39409 0.80679 0.54255 0.0
C487 C 0.3505 0.88815 0.46255 0.0
C488 C 0.3657 0.95354 0.52601 0.0
C489 C 0.35837 0.97994 0.54527 0.0
C490 C 0.35947 0.99029 0.52786 0.0
C491 C 0.36704 0.96416 0.50875 0.0
C492 C 0.36144 0.96154 0.54434 0.0
C493 C 0.36381 0.98241 0.50968 0.0
C494 C 0.33855 0.88004 0.50459 0.0
C495 C 0.36942 0.93432 0.52518 0.0
H496 H 0.32505 0.78281 0.41516 0.0
H497 H 0.31868 0.82432 0.45771 0.0
H498 H 0.30578 0.80285 0.43447 0.0
H499 H 0.37168 0.80582 0.44259 0.0
H500 H 0.35744 0.00455 0.52847 0.0
H501 H 0.37087 0.95845 0.49462 0.0
H502 H 0.36086 0.95357 0.55786 0.0
H503 H 0.36496 0.9905 0.49634 0.0
Tb504 Tb 0.39282 0.11066 0.74062 0.0
C505 C 0.30779 0.12811 0.71413 0.0
N506 N 0.32015 0.13674 0.7255 0.0
C507 C 0.31116 0.16462 0.71128 0.0
C508 C 0.29688 0.13748 0.70057 0.0
C509 C 0.32135 0.15484 0.72494 0.0
C510 C 0.29898 0.1559 0.69894 0.0
C511 C 0.29277 0.10055 0.70516 0.0
C512 C 0.30572 0.1098 0.71636 0.0
C513 C 0.28193 0.1099 0.69169 0.0
C514 C 0.28405 0.12828 0.6893 0.0
Tb515 Tb 0.33492 0.1189 0.74748 0.0
N516 N 0.31691 0.10095 0.72888 0.0
C517 C 0.29125 0.08213 0.70764 0.0
C518 C 0.31634 0.08283 0.73013 0.0
C519 C 0.3031 0.07327 0.72022 0.0
H520 H 0.32991 0.16186 0.73519 0.0
H521 H 0.30222 0.05904 0.72206 0.0
H522 H 0.40958 0.07141 0.75548 0.0
H523 H 0.41235 0.17828 0.75666 0.0
H524 H 0.32667 0.07568 0.73758 0.0
H525 H 0.2813 0.07459 0.69956 0.0
H526 H 0.39689 0.15489 0.7378 0.0
H527 H 0.31246 0.17894 0.71054 0.0
H528 H 0.27196 0.10301 0.68292 0.0
H529 H 0.27558 0.13529 0.6788 0.0
H530 H 0.43053 0.06095 0.78114 0.0
H531 H 0.29095 0.16357 0.68857 0.0
H532 H 0.43252 0.17015 0.78448 0.0
N533 N 0.41231 0.09885 0.76314 0.0
C534 C 0.42145 0.11096 0.77408 0.0
C535 C 0.42796 0.07504 0.77947 0.0
C536 C 0.43372 0.1055 0.78883 0.0
C537 C 0.41593 0.08108 0.76504 0.0
C538 C 0.43673 0.08728 0.79161 0.0
N539 N 0.40716 0.13374 0.75547 0.0
C540 C 0.40512 0.15115 0.75024 0.0
C541 C 0.42818 0.14187 0.78113 0.0
C542 C 0.41879 0.12895 0.77016 0.0
C543 C 0.42555 0.15981 0.7764 0.0
C544 C 0.41412 0.16446 0.76075 0.0
H545 H 0.44607 0.08256 0.80277 0.0
H546 H 0.45218 0.11441 0.81157 0.0
H547 H 0.44727 0.14623 0.80492 0.0
O548 O 0.41485 0.11843 0.72178 0.0
O549 O 0.3829 0.11788 0.77078 0.0
O550 O 0.35183 0.12342 0.77394 0.0
O551 O 0.40557 0.09102 0.72455 0.0
O552 O 0.37764 0.1311 0.72409 0.0
O553 O 0.35359 0.14095 0.7435 0.0
O554 O 0.31883 0.1056 0.76845 0.0
O555 O 0.34263 0.10619 0.71905 0.0
O556 O 0.3737 0.10192 0.71815 0.0
O557 O 0.31693 0.13402 0.76446 0.0
O558 O 0.35615 0.10082 0.75199 0.0
O559 O 0.38122 0.08687 0.75384 0.0
C560 C 0.36836 0.12227 0.78105 0.0
C561 C 0.43007 0.0949 0.70175 0.0
C562 C 0.45372 0.0984 0.67681 0.0
C563 C 0.45309 0.08007 0.67313 0.0
C564 C 0.42991 0.07651 0.69773 0.0
C565 C 0.44131 0.06922 0.68355 0.0
C566 C 0.44217 0.10592 0.69121 0.0
C567 C 0.36459 0.1424 0.7282 0.0
C568 C 0.41676 0.10192 0.71615 0.0
C569 C 0.44279 0.11835 0.80006 0.0
C570 C 0.44001 0.13648 0.79626 0.0
C571 C 0.35753 0.10043 0.71057 0.0
C572 C 0.29092 0.11897 0.77551 0.0
C573 C 0.26467 0.11179 0.79563 0.0
C574 C 0.25369 0.11768 0.77996 0.0
C575 C 0.27969 0.12494 0.7601 0.0
C576 C 0.28333 0.11253 0.79337 0.0
C577 C 0.26118 0.12427 0.76235 0.0
C578 C 0.36448 0.0869 0.75867 0.0
C579 C 0.3105 0.12006 0.77364 0.0
H580 H 0.46189 0.07411 0.66216 0.0
H581 H 0.42081 0.06763 0.70541 0.0
H582 H 0.44096 0.05508 0.6806 0.0
H583 H 0.44252 0.1201 0.69401 0.0
H584 H 0.2393 0.11757 0.78155 0.0
H585 H 0.28516 0.13036 0.74645 0.0
H586 H 0.29189 0.10819 0.8055 0.0
H587 H 0.25261 0.12903 0.75048 0.0
Tb588 Tb 0.13165 0.1378 0.99124 0.0
C589 C 0.12662 0.05896 0.95775 0.0
N590 N 0.11535 0.06888 0.96911 0.0
C591 C 0.09047 0.05902 0.94953 0.0
C592 C 0.12025 0.0492 0.94128 0.0
C593 C 0.0974 0.06833 0.96581 0.0
C594 C 0.10198 0.04961 0.93704 0.0
C595 C 0.15652 0.04781 0.95165 0.0
C596 C 0.1446 0.05832 0.96287 0.0
C597 C 0.15027 0.03839 0.93501 0.0
C598 C 0.1322 0.03911 0.92981 0.0
Tb599 Tb 0.1282 0.08278 0.99561 0.0
N600 N 0.15035 0.06796 0.9788 0.0
C601 C 0.17436 0.04691 0.95758 0.0
C602 C 0.1677 0.06648 0.98508 0.0
C603 C 0.17995 0.05618 0.97443 0.0
H604 H 0.08835 0.07428 0.97625 0.0
H605 H 0.19362 0.05512 0.97949 0.0
H606 H 0.17186 0.15323 1.00369 0.0
H607 H 0.06516 0.16075 1.00835 0.0
H608 H 0.17227 0.07259 0.99867 0.0
H609 H 0.18375 0.03869 0.94954 0.0
H610 H 0.08757 0.14292 0.99038 0.0
H611 H 0.07623 0.0588 0.94691 0.0
H612 H 0.1593 0.03037 0.92615 0.0
H613 H 0.12755 0.0316 0.91705 0.0
H614 H 0.18409 0.17499 0.02754 0.0
H615 H 0.09656 0.04226 0.92454 0.0
H616 H 0.07481 0.18274 0.03352 0.0
N617 N 0.14483 0.15806 1.01177 0.0
C618 C 0.1334 0.16836 0.02236 0.0
C619 C 0.16981 0.17319 0.02632 0.0
C620 C 0.13977 0.18123 0.03586 0.0
C621 C 0.16283 0.16077 1.01294 0.0
C622 C 0.15823 0.18337 0.03797 0.0
N623 N 0.1096 0.15396 1.00588 0.0
C624 C 0.09192 0.15212 1.0016 0.0
C625 C 0.10291 0.177 0.02969 0.0
C626 C 0.11521 0.16632 0.01926 0.0
C627 C 0.0847 0.17479 0.02583 0.0
C628 C 0.0792 0.16237 1.01163 0.0
H629 H 0.16366 0.19307 0.04823 0.0
H630 H 0.13219 0.20163 0.05702 0.0
H631 H 0.09992 0.19791 0.05165 0.0
O632 O 0.1223 0.15829 0.97112 0.0
O633 O 0.11952 0.12828 0.01959 0.0
O634 O 0.12474 0.09765 0.02349 0.0
O635 O 0.14974 0.14963 0.97209 0.0
O636 O 0.11347 0.12121 0.97425 0.0
O637 O 0.10333 0.09852 0.99417 0.0
O638 O 0.1391 0.06368 0.01545 0.0
O639 O 0.13532 0.09475 0.96646 0.0
O640 O 0.1502 0.12019 0.97559 0.0
O641 O 0.11252 0.06091 1.00412 0.0
O642 O 0.15257 0.09555 1.00521 0.0
O643 O 0.15206 0.12646 1.01023 0.0
C644 C 0.12116 0.11364 0.03063 0.0
C645 C 0.14529 0.17665 0.95411 0.0
C646 C 0.14307 0.20024 0.92866 0.0
C647 C 0.16152 0.20298 0.93013 0.0
C648 C 0.16373 0.18024 0.95551 0.0
C649 C 0.17172 0.19316 0.94353 0.0
C650 C 0.13488 0.187 0.94069 0.0
C651 C 0.10038 0.11132 0.98099 0.0
C652 C 0.13822 0.15998 0.9634 0.0
C653 C 0.12755 0.19171 0.04653 0.0
C654 C 0.10918 0.1896 0.04345 0.0
C655 C 0.14723 0.10726 0.9629 0.0
C656 C 0.11889 0.04639 0.03481 0.0
C657 C 0.12149 0.02316 0.06041 0.0
C658 C 0.10514 0.02879 0.06848 0.0
C659 C 0.10277 0.05193 0.04346 0.0
C660 C 0.12845 0.03213 0.04358 0.0
C661 C 0.09597 0.04316 0.06017 0.0
C662 C 0.15919 0.11058 1.0119 0.0
C663 C 0.12476 0.05402 0.01553 0.0
H664 H 0.16806 0.21292 0.92093 0.0
H665 H 0.17228 0.17254 0.96531 0.0
H666 H 0.18595 0.19543 0.94446 0.0
H667 H 0.12075 0.18434 0.93906 0.0
H668 H 0.09947 0.02204 0.08132 0.0
H669 H 0.0952 0.0628 0.03703 0.0
H670 H 0.14084 0.02762 0.03692 0.0
H671 H 0.0834 0.04736 0.06656 0.0
Tb672 Tb 0.83415 0.87731 0.7478 0.0
C673 C 0.92098 0.88159 0.77615 0.0
N674 N 0.91131 0.89353 0.7653 0.0
C675 C 0.92493 0.91749 0.78346 0.0
C676 C 0.93272 0.88722 0.79135 0.0
C677 C 0.91384 0.91139 0.76815 0.0
C678 C 0.93435 0.90538 0.79515 0.0
C679 C 0.92832 0.85085 0.78372 0.0
C680 C 0.91875 0.86356 0.77244 0.0
C681 C 0.94029 0.85648 0.79851 0.0
C682 C 0.94238 0.87461 0.80241 0.0
Tb683 Tb 0.89283 0.88122 0.74172 0.0
N684 N 0.90638 0.85847 0.75872 0.0
C685 C 0.92516 0.83281 0.78029 0.0
C686 C 0.90259 0.84086 0.75621 0.0
C687 C 0.91212 0.82781 0.76659 0.0
H688 H 0.90756 0.92117 0.75866 0.0
H689 H 0.90914 0.81388 0.7643 0.0
H690 H 0.81709 0.83818 0.73413 0.0
H691 H 0.80458 0.94253 0.73744 0.0
H692 H 0.89197 0.83661 0.74675 0.0
H693 H 0.9323 0.82266 0.78857 0.0
H694 H 0.82039 0.91925 0.75647 0.0
H695 H 0.92642 0.93153 0.78621 0.0
H696 H 0.94772 0.8469 0.80731 0.0
H697 H 0.95146 0.87874 0.81411 0.0
H698 H 0.79797 0.82704 0.70692 0.0
H699 H 0.94302 0.91021 0.8069 0.0
H700 H 0.79026 0.93512 0.70522 0.0
N701 N 0.81637 0.86504 0.72395 0.0
C702 C 0.80756 0.87695 0.71225 0.0
C703 C 0.80085 0.8411 0.70797 0.0
C704 C 0.79649 0.87125 0.69651 0.0
C705 C 0.81178 0.84748 0.7233 0.0
C706 C 0.79371 0.85299 0.69405 0.0
N707 N 0.8172 0.89953 0.73411 0.0
C708 C 0.81507 0.91611 0.74198 0.0
C709 C 0.79814 0.90743 0.70646 0.0
C710 C 0.80797 0.89478 0.71748 0.0
C711 C 0.79762 0.92498 0.71329 0.0
C712 C 0.80571 0.92923 0.73144 0.0
H713 H 0.78521 0.84804 0.68222 0.0
H714 H 0.77942 0.87979 0.67218 0.0
H715 H 0.78118 0.91155 0.68066 0.0
O716 O 0.81604 0.8878 0.76979 0.0
O717 O 0.84416 0.89399 0.72326 0.0
O718 O 0.87305 0.88323 0.71641 0.0
O719 O 0.81937 0.85923 0.76394 0.0
O720 O 0.85912 0.88943 0.75166 0.0
O721 O 0.8817 0.90666 0.74924 0.0
O722 O 0.91508 0.8714 0.72531 0.0
O723 O 0.88266 0.87396 0.7723 0.0
O724 O 0.85101 0.87481 0.77508 0.0
O725 O 0.90635 0.89869 0.72278 0.0
O726 O 0.87759 0.85941 0.72827 0.0
O727 O 0.84695 0.85349 0.73495 0.0
C728 C 0.85903 0.89362 0.71244 0.0
C729 C 0.79649 0.86618 0.78792 0.0
C730 C 0.77057 0.87237 0.80917 0.0
C731 C 0.76769 0.85398 0.81104 0.0
C732 C 0.79308 0.84787 0.7902 0.0
C733 C 0.77887 0.84188 0.80169 0.0
C734 C 0.78525 0.87855 0.79774 0.0
C735 C 0.86525 0.9054 0.75399 0.0
C736 C 0.81056 0.87158 0.7735 0.0
C737 C 0.78766 0.88391 0.68463 0.0
C738 C 0.78858 0.90199 0.68952 0.0
C739 C 0.86743 0.87288 0.78268 0.0
C740 C 0.9354 0.89255 0.71033 0.0
C741 C 0.95866 0.89258 0.68466 0.0
C742 C 0.96589 0.90801 0.69319 0.0
C743 C 0.94309 0.90781 0.7188 0.0
C744 C 0.94348 0.88475 0.69342 0.0
C745 C 0.95828 0.91543 0.71025 0.0
C746 C 0.86275 0.84988 0.72666 0.0
C747 C 0.91741 0.88663 0.71638 0.0
H748 H 0.75671 0.84889 0.81992 0.0
H749 H 0.80124 0.838 0.7828 0.0
H750 H 0.7764 0.82777 0.8032 0.0
H751 H 0.78745 0.8927 0.79594 0.0
H752 H 0.97749 0.91433 0.68659 0.0
H753 H 0.93699 0.91421 0.73156 0.0
H754 H 0.93745 0.87322 0.68648 0.0
H755 H 0.96395 0.92737 0.71661 0.0
Tb756 Tb 0.86791 0.08198 0.49931 0.0
C757 C 0.86031 0.16829 0.52115 0.0
N758 N 0.84882 0.15798 0.51054 0.0
C759 C 0.82393 0.17285 0.52584 0.0
C760 C 0.85397 0.18089 0.53502 0.0
C761 C 0.83077 0.16049 0.51231 0.0
C762 C 0.83555 0.18297 0.53739 0.0
C763 C 0.89082 0.17666 0.52895 0.0
C764 C 0.87856 0.16629 0.51803 0.0
C765 C 0.88452 0.18901 0.54296 0.0
C766 C 0.86616 0.19115 0.54596 0.0
Tb767 Tb 0.86212 0.13881 0.48853 0.0
N768 N 0.88428 0.15407 0.50448 0.0
C769 C 0.90906 0.17435 0.52543 0.0
C770 C 0.90209 0.15213 0.50065 0.0
C771 C 0.9147 0.16212 0.51114 0.0
H772 H 0.82143 0.15371 0.50275 0.0
H773 H 0.92879 0.16045 0.50809 0.0
H774 H 0.9089 0.06788 0.4868 0.0
H775 H 0.8052 0.04891 0.48432 0.0
H776 H 0.9068 0.1432 0.48934 0.0
H777 H 0.91889 0.18207 0.53351 0.0
H778 H 0.82617 0.06628 0.50445 0.0
H779 H 0.80966 0.17477 0.52711 0.0
H780 H 0.89375 0.19706 0.5515 0.0
H781 H 0.86151 0.20083 0.55672 0.0
H782 H 0.92267 0.05226 0.45829 0.0
H783 H 0.83018 0.19258 0.54781 0.0
H784 H 0.81531 0.03465 0.45308 0.0
N785 N 0.88255 0.06576 0.47547 0.0
C786 C 0.87179 0.05643 0.46292 0.0
C787 C 0.90833 0.05375 0.45908 0.0
C788 C 0.87891 0.04657 0.44691 0.0
C789 C 0.90055 0.06312 0.47487 0.0
C790 C 0.89745 0.04591 0.44465 0.0
N791 N 0.84767 0.06378 0.48386 0.0
C792 C 0.83069 0.06076 0.49058 0.0
C793 C 0.84236 0.04453 0.45575 0.0
C794 C 0.8538 0.05515 0.46743 0.0
C795 C 0.82457 0.04258 0.46171 0.0
C796 C 0.81881 0.05052 0.47938 0.0
H797 H 0.90347 0.03845 0.43258 0.0
H798 H 0.87261 0.02951 0.42183 0.0
H799 H 0.84053 0.02793 0.42946 0.0
O800 O 0.85451 0.06897 0.5229 0.0
O801 O 0.84989 0.09022 0.47495 0.0
O802 O 0.86201 0.11721 0.46548 0.0
O803 O 0.88249 0.06427 0.51703 0.0
O804 O 0.85408 0.1061 0.50229 0.0
O805 O 0.83641 0.12751 0.49618 0.0
O806 O 0.87199 0.15971 0.47063 0.0
O807 O 0.86793 0.13092 0.52031 0.0
O808 O 0.87466 0.10016 0.52448 0.0
O809 O 0.84462 0.15109 0.46831 0.0
O810 O 0.88468 0.12347 0.4764 0.0
O811 O 0.89272 0.09566 0.4905 0.0
C812 C 0.85041 0.10411 0.46273 0.0
C813 C 0.86574 0.03999 0.52865 0.0
C814 C 0.85835 0.01398 0.54877 0.0
C815 C 0.86234 0.00303 0.53239 0.0
C816 C 0.86965 0.02884 0.51242 0.0
C817 C 0.86797 0.01045 0.51434 0.0
C818 C 0.86011 0.03251 0.54681 0.0
C819 C 0.8378 0.11179 0.50347 0.0
C820 C 0.86845 0.0593 0.52714 0.0
C821 C 0.86741 0.03689 0.43443 0.0
C822 C 0.84915 0.0359 0.43882 0.0
C823 C 0.87315 0.11685 0.53108 0.0
C824 C 0.85117 0.1805 0.45782 0.0
C825 C 0.85031 0.20549 0.43473 0.0
C826 C 0.83832 0.21426 0.44746 0.0
C827 C 0.8393 0.1895 0.47046 0.0
C828 C 0.8569 0.1887 0.44007 0.0
C829 C 0.83297 0.20633 0.46532 0.0
C830 C 0.89577 0.10988 0.47916 0.0
C831 C 0.85673 0.16212 0.46181 0.0
H832 H 0.86154 0.98869 0.5337 0.0
H833 H 0.87429 0.03429 0.49838 0.0
H834 H 0.87125 0.00191 0.50189 0.0
H835 H 0.8573 0.04106 0.55942 0.0
H836 H 0.83316 0.22728 0.44359 0.0
H837 H 0.83465 0.18352 0.48408 0.0
H838 H 0.86597 0.1818 0.43011 0.0
H839 H 0.82373 0.21316 0.47507 0.0
Tb840 Tb 0.66311 0.11706 0.2443 0.0
C841 C 0.58015 0.10943 0.27498 0.0
N842 N 0.58957 0.09863 0.2626 0.0
C843 C 0.57356 0.07321 0.2747 0.0
C844 C 0.56726 0.10238 0.28812 0.0
C845 C 0.58585 0.0809 0.26153 0.0
C846 C 0.56438 0.08397 0.28823 0.0
C847 C 0.57179 0.13941 0.2846 0.0
C848 C 0.58245 0.12777 0.2733 0.0
C849 C 0.55939 0.1324 0.29827 0.0
C850 C 0.55718 0.11395 0.30007 0.0
Tb851 Tb 0.60869 0.11294 0.24174 0.0
N852 N 0.59447 0.13417 0.25979 0.0
C853 C 0.57343 0.15774 0.28127 0.0
C854 C 0.59514 0.15191 0.2554 0.0
C855 C 0.58497 0.16399 0.26641 0.0
H856 H 0.59234 0.07275 0.25038 0.0
H857 H 0.58583 0.17808 0.26323 0.0
H858 H 0.67141 0.1563 0.22292 0.0
H859 H 0.67909 0.04954 0.22253 0.0
H860 H 0.60349 0.15674 0.24347 0.0
H861 H 0.56541 0.16713 0.28961 0.0
H862 H 0.66302 0.07229 0.24145 0.0
H863 H 0.57096 0.05906 0.27417 0.0
H864 H 0.55112 0.14115 0.30715 0.0
H865 H 0.54723 0.10878 0.3103 0.0
H866 H 0.68899 0.16734 0.19448 0.0
H867 H 0.55464 0.07802 0.29818 0.0
H868 H 0.69975 0.05851 0.1955 0.0
N869 N 0.67672 0.12905 0.21707 0.0
C870 C 0.68655 0.11729 0.20626 0.0
C871 C 0.6882 0.15321 0.19743 0.0
C872 C 0.69734 0.12308 0.19028 0.0
C873 C 0.67777 0.14686 0.21322 0.0
C874 C 0.698 0.14127 0.18587 0.0
N875 N 0.67474 0.0941 0.22628 0.0
C876 C 0.67228 0.07648 0.23032 0.0
C877 C 0.69508 0.08668 0.19967 0.0
C878 C 0.68565 0.09929 0.21111 0.0
C879 C 0.69287 0.06861 0.20406 0.0
C880 C 0.68124 0.06349 0.21931 0.0
H881 H 0.70619 0.14625 0.17374 0.0
H882 H 0.71562 0.11482 0.16699 0.0
H883 H 0.71345 0.08297 0.17503 0.0
O884 O 0.68605 0.10703 0.25918 0.0
O885 O 0.64901 0.1082 0.21678 0.0
O886 O 0.62432 0.09226 0.22726 0.0
O887 O 0.68328 0.1348 0.25256 0.0
O888 O 0.65186 0.09648 0.26335 0.0
O889 O 0.62257 0.08926 0.25347 0.0
O890 O 0.59996 0.11983 0.21242 0.0
O891 O 0.61928 0.12742 0.26797 0.0
O892 O 0.64938 0.12052 0.2729 0.0
O893 O 0.58236 0.1074 0.23315 0.0
O894 O 0.62414 0.13158 0.22387 0.0
O895 O 0.64764 0.14184 0.24237 0.0
C896 C 0.63726 0.09521 0.21436 0.0
C897 C 0.70111 0.12752 0.28081 0.0
C898 C 0.72343 0.12261 0.30714 0.0
C899 C 0.71922 0.13933 0.31509 0.0
C900 C 0.69717 0.14413 0.28937 0.0
C901 C 0.70617 0.14994 0.30631 0.0
C902 C 0.71429 0.11662 0.28994 0.0
C903 C 0.63734 0.0866 0.26414 0.0
C904 C 0.69306 0.12274 0.26122 0.0
C905 C 0.70718 0.11059 0.17926 0.0
C906 C 0.70601 0.09245 0.1839 0.0
C907 C 0.63343 0.12503 0.27951 0.0
C908 C 0.57479 0.10365 0.19951 0.0
C909 C 0.5511 0.10161 0.17426 0.0
C910 C 0.55466 0.08333 0.17252 0.0
C911 C 0.57791 0.08534 0.19756 0.0
C912 C 0.56119 0.11174 0.18793 0.0
C913 C 0.56791 0.07529 0.18411 0.0
C914 C 0.63449 0.14457 0.22968 0.0
C915 C 0.58385 0.1139 0.21538 0.0
H916 H 0.72618 0.14426 0.32813 0.0
H917 H 0.68737 0.15293 0.28274 0.0
H918 H 0.70319 0.16287 0.31253 0.0
H919 H 0.71781 0.10395 0.28336 0.0
H920 H 0.54701 0.07521 0.16229 0.0
H921 H 0.58779 0.07878 0.20678 0.0
H922 H 0.55836 0.12578 0.1897 0.0
H923 H 0.57031 0.06115 0.18279 0.0
Tb924 Tb 0.62524 0.91042 0.99949 0.0
C925 C 0.63366 0.82894 0.02756 0.0
N926 N 0.64436 0.83944 0.01604 0.0
C927 C 0.67039 0.8267 0.03134 0.0
C928 C 0.64102 0.81714 0.04174 0.0
C929 C 0.66255 0.83797 0.01722 0.0
C930 C 0.65959 0.81635 0.04377 0.0
C931 C 0.6039 0.81798 0.03542 0.0
C932 C 0.61524 0.82927 0.02441 0.0
C933 C 0.61121 0.80654 0.04987 0.0
C934 C 0.62969 0.80612 0.05302 0.0
Tb935 Tb 0.6292 0.85533 0.99246 0.0
N936 N 0.60845 0.84065 1.01049 0.0
C937 C 0.58555 0.81845 0.03146 0.0
C938 C 0.59077 0.84045 1.00571 0.0
C939 C 0.57898 0.82963 0.01644 0.0
H940 H 0.67119 0.84489 1.00689 0.0
H941 H 0.56489 0.82972 1.01292 0.0
H942 H 0.5847 0.91784 0.97991 0.0
H943 H 0.68864 0.94181 0.98547 0.0
H944 H 0.58587 0.84854 0.99358 0.0
H945 H 0.57639 0.80999 0.03965 0.0
H946 H 0.66718 0.92341 1.00436 0.0
H947 H 0.68477 0.82568 0.03231 0.0
H948 H 0.60269 0.79779 0.05854 0.0
H949 H 0.63512 0.797 0.064 0.0
H950 H 0.57263 0.9318 0.94952 0.0
H951 H 0.66574 0.80742 0.05447 0.0
H952 H 0.67937 0.9564 0.95389 0.0
N953 N 0.61174 0.92409 0.97298 0.0
C954 C 0.62274 0.93413 0.96133 0.0
C955 C 0.58681 0.93232 0.9525 0.0
C956 C 0.61634 0.94283 0.9441 0.0
C957 C 0.59379 0.92404 0.96953 0.0
C958 C 0.59819 0.94146 0.9395 0.0
N959 N 0.64611 0.92733 0.98362 0.0
C960 C 0.66303 0.92967 0.99063 0.0
C961 C 0.65225 0.94652 0.95557 0.0
C962 C 0.64044 0.93608 0.96701 0.0
C963 C 0.66986 0.94846 0.96222 0.0
C964 C 0.67517 0.94024 0.98002 0.0
H965 H 0.59273 0.9479 0.92636 0.0
H966 H 0.62354 0.95947 0.91884 0.0
H967 H 0.65498 0.96265 0.92886 0.0
O968 O 0.63484 0.92866 0.02045 0.0
O969 O 0.6395 0.90099 0.97247 0.0
O970 O 0.64632 0.87036 0.97182 0.0
O971 O 0.6072 0.92906 1.01215 0.0
O972 O 0.64666 0.89624 0.01464 0.0
O973 O 0.65359 0.8696 0.99838 0.0
O974 O 0.61755 0.84231 0.96762 0.0
O975 O 0.6148 0.86557 0.01932 0.0
O976 O 0.62628 0.89348 0.02557 0.0
O977 O 0.63949 0.83072 0.98345 0.0
O978 O 0.61292 0.87339 0.9752 0.0
O979 O 0.60105 0.89414 0.99591 0.0
C980 C 0.64703 0.88675 0.96449 0.0
C981 C 0.62006 0.9556 0.02653 0.0
C982 C 0.62926 0.98043 0.04783 0.0
C983 C 0.62161 0.99229 0.03403 0.0
C984 C 0.61247 0.96768 1.01298 0.0
C985 C 0.61322 0.98594 0.01681 0.0
C986 C 0.62832 0.96206 0.04404 0.0
C987 C 0.65779 0.88402 1.00839 0.0
C988 C 0.61955 0.9362 0.02326 0.0
C989 C 0.62817 0.95285 0.93227 0.0
C990 C 0.64608 0.95471 0.938 0.0
C991 C 0.61981 0.87826 0.03173 0.0
C992 C 0.6377 0.82379 0.94953 0.0
C993 C 0.64259 0.80146 0.92358 0.0
C994 C 0.65756 0.81105 0.91699 0.0
C995 C 0.65276 0.8331 0.94266 0.0
C996 C 0.63253 0.808 0.93978 0.0
C997 C 0.6625 0.82684 0.92638 0.0
C998 C 0.59913 0.88182 0.98217 0.0
C999 C 0.62887 0.82917 0.96828 0.0
H1000 H 0.62179 0.00647 0.03679 0.0
H1001 H 0.60599 0.96304 0.99952 0.0
H1002 H 0.60721 0.99523 1.00643 0.0
H1003 H 0.63404 0.95279 0.05469 0.0
H1004 H 0.6655 0.80624 0.9046 0.0
H1005 H 0.65733 0.84491 0.95025 0.0
H1006 H 0.6212 0.80047 0.94527 0.0
H1007 H 0.67415 0.83407 0.92129 0.0
Tb1008 Tb 0.83378 0.11848 0.78241 0.0
C1009 C 0.91916 0.10916 0.75877 0.0
N1010 N 0.90818 0.09874 0.7699 0.0
C1011 C 0.92253 0.07258 0.75719 0.0
C1012 C 0.9321 0.10165 0.74606 0.0
C1013 C 0.90984 0.08064 0.76951 0.0
C1014 C 0.93365 0.08312 0.74531 0.0
C1015 C 0.92846 0.13877 0.74878 0.0
C1016 C 0.91741 0.12747 0.76016 0.0
C1017 C 0.94126 0.13137 0.73592 0.0
C1018 C 0.94309 0.11286 0.73458 0.0
Tb1019 Tb 0.88835 0.11355 0.7896 0.0
N1020 N 0.90462 0.13416 0.77244 0.0
C1021 C 0.9263 0.15718 0.75067 0.0
C1022 C 0.90285 0.15207 0.77483 0.0
C1023 C 0.91353 0.16384 0.76387 0.0
H1024 H 0.90181 0.07237 0.77919 0.0
H1025 H 0.91197 0.17805 0.76571 0.0
H1026 H 0.82424 0.15843 0.80063 0.0
H1027 H 0.81014 0.0527 0.80193 0.0
H1028 H 0.89343 0.15737 0.78529 0.0
H1029 H 0.93453 0.16633 0.74219 0.0
H1030 H 0.82666 0.07435 0.78174 0.0
H1031 H 0.92384 0.05825 0.75701 0.0
H1032 H 0.94984 0.13984 0.72699 0.0
H1033 H 0.95307 0.10734 0.72466 0.0
H1034 H 0.80813 0.17071 0.8295 0.0
H1035 H 0.94348 0.07684 0.73579 0.0
H1036 H 0.79208 0.06268 0.83045 0.0
N1037 N 0.81953 0.13154 0.80856 0.0
C1038 C 0.80987 0.12028 0.82025 0.0
C1039 C 0.80875 0.15647 0.82729 0.0
C1040 C 0.79962 0.12672 0.83635 0.0
C1041 C 0.81842 0.14947 0.81129 0.0
C1042 C 0.79945 0.14503 0.84002 0.0
N1043 N 0.81997 0.09644 0.80014 0.0
C1044 C 0.81972 0.07893 0.79477 0.0
C1045 C 0.79976 0.09024 0.82733 0.0
C1046 C 0.80995 0.10222 0.81581 0.0
C1047 C 0.79992 0.07225 0.82221 0.0
C1048 C 0.80999 0.06658 0.80594 0.0
H1049 H 0.79177 0.1505 0.85226 0.0
H1050 H 0.78157 0.1195 0.86032 0.0
H1051 H 0.7815 0.08768 0.85226 0.0
O1052 O 0.81258 0.10725 0.76559 0.0
O1053 O 0.84556 0.11048 0.81153 0.0
O1054 O 0.87096 0.09438 0.8047 0.0
O1055 O 0.81395 0.13574 0.77135 0.0
O1056 O 0.84566 0.0962 0.76638 0.0
O1057 O 0.87505 0.09084 0.77718 0.0
O1058 O 0.90775 0.12514 0.80901 0.0
O1059 O 0.88073 0.12203 0.75905 0.0
O1060 O 0.84956 0.12274 0.75539 0.0
O1061 O 0.9009 0.09757 0.81081 0.0
O1062 O 0.87091 0.13197 0.805 0.0
O1063 O 0.8494 0.14326 0.78464 0.0
C1064 C 0.85646 0.09714 0.8152 0.0
C1065 C 0.78796 0.12547 0.75301 0.0
C1066 C 0.76542 0.11627 0.72876 0.0
C1067 C 0.75377 0.12913 0.73651 0.0
C1068 C 0.77612 0.13837 0.76027 0.0
C1069 C 0.75912 0.14013 0.75209 0.0
C1070 C 0.78262 0.11443 0.73704 0.0
C1071 C 0.86028 0.08657 0.76775 0.0
C1072 C 0.80498 0.12264 0.76361 0.0
C1073 C 0.78959 0.11478 0.84795 0.0
C1074 C 0.78959 0.09663 0.84339 0.0
C1075 C 0.86598 0.1237 0.74827 0.0
C1076 C 0.92973 0.1046 0.82211 0.0
C1077 C 0.95511 0.10427 0.84508 0.0
C1078 C 0.96215 0.08956 0.83497 0.0
C1079 C 0.93727 0.08992 0.8122 0.0
C1080 C 0.93889 0.11188 0.83861 0.0
C1081 C 0.95332 0.08251 0.81857 0.0
C1082 C 0.8626 0.14566 0.79737 0.0
C1083 C 0.91108 0.11001 0.81776 0.0
H1084 H 0.74055 0.13086 0.73022 0.0
H1085 H 0.77985 0.1468 0.77269 0.0
H1086 H 0.75002 0.15002 0.7579 0.0
H1087 H 0.79165 0.10444 0.73124 0.0
H1088 H 0.97445 0.08341 0.83996 0.0
H1089 H 0.93045 0.08356 0.80007 0.0
H1090 H 0.93308 0.12281 0.84688 0.0
H1091 H 0.95872 0.071 0.81102 0.0
Tb1092 Tb 0.63022 0.08369 0.53069 0.0
C1093 C 0.63205 0.16742 0.50233 0.0
N1094 N 0.64513 0.15817 0.51186 0.0
C1095 C 0.66727 0.17217 0.49117 0.0
C1096 C 0.63607 0.17885 0.48621 0.0
C1097 C 0.66266 0.16098 0.50705 0.0
C1098 C 0.65391 0.18098 0.48054 0.0
C1099 C 0.60063 0.17475 0.49924 0.0
C1100 C 0.61452 0.16544 0.50885 0.0
C1101 C 0.60455 0.18588 0.48291 0.0
C1102 C 0.62222 0.18795 0.47645 0.0
Tb1103 Tb 0.63565 0.14107 0.53806 0.0
N1104 N 0.61116 0.15457 0.52474 0.0
C1105 C 0.58323 0.1728 0.50651 0.0
C1106 C 0.59441 0.15348 0.5326 0.0
C1107 C 0.58014 0.16226 0.52338 0.0
H1108 H 0.67333 0.15504 0.51556 0.0
H1109 H 0.56683 0.16117 0.52953 0.0
H1110 H 0.58917 0.07663 0.55021 0.0
H1111 H 0.69303 0.05062 0.54421 0.0
H1112 H 0.59208 0.14644 0.54635 0.0
H1113 H 0.57218 0.17972 0.49952 0.0
H1114 H 0.67171 0.06865 0.52472 0.0
H1115 H 0.68115 0.17416 0.4873 0.0
H1116 H 0.59404 0.19312 0.47533 0.0
H1117 H 0.62505 0.19674 0.46399 0.0
H1118 H 0.57704 0.06239 0.58027 0.0
H1119 H 0.65755 0.18969 0.46826 0.0
H1120 H 0.68348 0.03673 0.57603 0.0
N1121 N 0.61632 0.07069 0.55732 0.0
C1122 C 0.62728 0.06035 0.56876 0.0
C1123 C 0.59126 0.06204 0.57745 0.0
C1124 C 0.62073 0.05137 0.58577 0.0
C1125 C 0.59832 0.07058 0.56064 0.0
C1126 C 0.60256 0.0527 0.5903 0.0
N1127 N 0.65092 0.06642 0.54618 0.0
C1128 C 0.66765 0.06325 0.53893 0.0
C1129 C 0.65658 0.04718 0.57428 0.0
C1130 C 0.64501 0.05799 0.56293 0.0
C1131 C 0.67417 0.04488 0.56768 0.0
C1132 C 0.67964 0.05276 0.54977 0.0
H1133 H 0.597 0.04597 0.60322 0.0
H1134 H 0.62756 0.03411 0.61061 0.0
H1135 H 0.65895 0.03064 0.60069 0.0
O1136 O 0.64121 0.06634 0.50802 0.0
O1137 O 0.64745 0.09292 0.55543 0.0
O1138 O 0.63744 0.12165 0.56352 0.0
O1139 O 0.61362 0.06474 0.51887 0.0
O1140 O 0.64433 0.10764 0.52696 0.0
O1141 O 0.66152 0.1299 0.53082 0.0
O1142 O 0.62728 0.16353 0.55548 0.0
O1143 O 0.62899 0.1312 0.50723 0.0
O1144 O 0.62734 0.09978 0.50301 0.0
O1145 O 0.65524 0.15585 0.55236 0.0
O1146 O 0.61678 0.12338 0.55397 0.0
O1147 O 0.60593 0.09962 0.53525 0.0
C1148 C 0.6475 0.10733 0.56689 0.0
C1149 C 0.62129 0.0419 0.4953 0.0
C1150 C 0.62862 0.01632 0.47399 0.0
C1151 C 0.61101 0.01021 0.47626 0.0
C1152 C 0.60383 0.03512 0.49718 0.0
C1153 C 0.59878 0.01953 0.4877 0.0
C1154 C 0.63375 0.03249 0.4833 0.0
C1155 C 0.66046 0.11361 0.52531 0.0
C1156 C 0.62596 0.05783 0.50748 0.0
C1157 C 0.63235 0.04094 0.59738 0.0
C1158 C 0.65023 0.0389 0.5917 0.0
C1159 C 0.62652 0.11653 0.49633 0.0
C1160 C 0.65028 0.18249 0.57148 0.0
C1161 C 0.64711 0.20487 0.59772 0.0
C1162 C 0.66464 0.21052 0.59388 0.0
C1163 C 0.6677 0.18865 0.56787 0.0
C1164 C 0.63979 0.19087 0.58632 0.0
C1165 C 0.67478 0.20256 0.57898 0.0
C1166 C 0.60359 0.11317 0.54757 0.0
C1167 C 0.64383 0.16701 0.55993 0.0
H1168 H 0.60659 -0.00185 0.46896 0.0
H1169 H 0.59389 0.04175 0.50624 0.0
H1170 H 0.5853 0.01457 0.48935 0.0
H1171 H 0.64729 0.03732 0.48173 0.0
H1172 H 0.67052 0.22118 0.60249 0.0
H1173 H 0.67597 0.18263 0.55646 0.0
H1174 H 0.62635 0.18627 0.58934 0.0
H1175 H 0.68825 0.2071 0.57615 0.0
Tb1176 Tb 0.66272 0.87639 0.28305 0.0
C1177 C 0.58038 0.88361 0.25251 0.0
N1178 N 0.58882 0.89361 0.26647 0.0
C1179 C 0.57159 0.91912 0.25705 0.0
C1180 C 0.56749 0.89121 0.23977 0.0
C1181 C 0.58396 0.91085 0.26967 0.0
C1182 C 0.56355 0.90933 0.2418 0.0
C1183 C 0.57301 0.85422 0.24011 0.0
C1184 C 0.58315 0.86531 0.25264 0.0
C1185 C 0.56095 0.86186 0.22651 0.0
C1186 C 0.55824 0.88031 0.2263 0.0
Tb1187 Tb 0.60826 0.87855 0.28619 0.0
N1188 N 0.59455 0.85829 0.26637 0.0
C1189 C 0.57458 0.83576 0.24241 0.0
C1190 C 0.59499 0.84038 0.26985 0.0
C1191 C 0.58538 0.82883 0.25758 0.0
H1192 H 0.5898 0.91824 0.28188 0.0
H1193 H 0.5861 0.81461 0.26001 0.0
H1194 H 0.67193 0.83697 0.30329 0.0
H1195 H 0.68011 0.94374 0.30394 0.0
H1196 H 0.60289 0.83508 0.28195 0.0
H1197 H 0.56694 0.82678 0.23313 0.0
H1198 H 0.66415 0.92123 0.28474 0.0
H1199 H 0.56812 0.93295 0.25925 0.0
H1200 H 0.55315 0.85356 0.21662 0.0
H1201 H 0.54837 0.88592 0.21627 0.0
H1202 H 0.68917 0.82579 0.33187 0.0
H1203 H 0.55374 0.91568 0.23227 0.0
H1204 H 0.69978 0.93459 0.33177 0.0
N1205 N 0.67601 0.86427 0.31035 0.0
C1206 C 0.68535 0.87603 0.32164 0.0
C1207 C 0.688 0.83996 0.32935 0.0
C1208 C 0.69628 0.87013 0.33746 0.0
C1209 C 0.67777 0.8464 0.31346 0.0
C1210 C 0.69725 0.85188 0.34146 0.0
N1211 N 0.6741 0.89929 0.30132 0.0
C1212 C 0.67253 0.9169 0.29664 0.0
C1213 C 0.6942 0.90654 0.32812 0.0
C1214 C 0.68443 0.89405 0.31694 0.0
C1215 C 0.69261 0.92459 0.32338 0.0
C1216 C 0.68158 0.9298 0.30766 0.0
H1217 H 0.70549 0.84683 0.3535 0.0
H1218 H 0.7151 0.8782 0.36024 0.0
H1219 H 0.71367 0.91004 0.35148 0.0
O1220 O 0.68651 0.88662 0.26997 0.0
O1221 O 0.64779 0.88282 0.31068 0.0
O1222 O 0.62318 0.8994 0.30168 0.0
O1223 O 0.68208 0.85852 0.2729 0.0
O1224 O 0.65054 0.89784 0.26565 0.0
O1225 O 0.62059 0.9032 0.27488 0.0
O1226 O 0.6009 0.87144 0.31575 0.0
O1227 O 0.62074 0.86386 0.26095 0.0
O1228 O 0.6488 0.87545 0.25451 0.0
O1229 O 0.58143 0.88101 0.29521 0.0
O1230 O 0.62366 0.85918 0.30306 0.0
O1231 O 0.64798 0.85102 0.28419 0.0
C1232 C 0.63711 0.89658 0.31328 0.0
C1233 C 0.70401 0.86725 0.24871 0.0
C1234 C 0.72754 0.87563 0.22474 0.0
C1235 C 0.72869 0.85779 0.21884 0.0
C1236 C 0.70565 0.84953 0.24225 0.0
C1237 C 0.71784 0.84491 0.22748 0.0
C1238 C 0.7151 0.88044 0.23976 0.0
C1239 C 0.63548 0.90705 0.26492 0.0
C1240 C 0.69306 0.87085 0.26688 0.0
C1241 C 0.70636 0.88252 0.34828 0.0
C1242 C 0.70546 0.90064 0.34345 0.0
C1243 C 0.63317 0.86959 0.24845 0.0
C1244 C 0.57539 0.88625 0.32906 0.0
C1245 C 0.55195 0.88953 0.35448 0.0
C1246 C 0.55775 0.90705 0.35771 0.0
C1247 C 0.58074 0.90383 0.33249 0.0
C1248 C 0.56078 0.87916 0.33993 0.0
C1249 C 0.57194 0.91414 0.34672 0.0
C1250 C 0.63509 0.84723 0.29695 0.0
C1251 C 0.58419 0.87566 0.3133 0.0
H1252 H 0.7382 0.85376 0.2075 0.0
H1253 H 0.69788 0.839 0.24907 0.0
H1254 H 0.71908 0.83117 0.22292 0.0
H1255 H 0.71451 0.89408 0.24486 0.0
H1256 H 0.5511 0.91536 0.36861 0.0
H1257 H 0.59162 0.90962 0.32402 0.0
H1258 H 0.55637 0.86568 0.33713 0.0
H1259 H 0.57609 0.92774 0.34922 0.0
Tb1260 Tb 0.87006 0.91024 0.0302 0.0
C1261 C 0.86317 0.83088 1.00199 0.0
N1262 N 0.85292 0.84041 0.01494 0.0
C1263 C 0.82637 0.82729 1.00132 0.0
C1264 C 0.85527 0.81904 0.98833 0.0
C1265 C 0.83478 0.83813 0.01535 0.0
C1266 C 0.83665 0.81775 0.9877 0.0
C1267 C 0.89266 0.82068 0.9919 0.0
C1268 C 0.88175 0.83164 1.00376 0.0
C1269 C 0.88477 0.80903 0.97818 0.0
C1270 C 0.86616 0.80812 0.97653 0.0
Tb1271 Tb 0.86909 0.85541 0.03834 0.0
N1272 N 0.88908 0.84242 0.01787 0.0
C1273 C 0.91116 0.82109 0.99492 0.0
C1274 C 0.90695 0.8421 0.02176 0.0
C1275 C 0.91832 0.83176 1.00999 0.0
H1276 H 0.82667 0.84403 0.02691 0.0
H1277 H 0.93253 0.83173 1.01281 0.0
H1278 H 0.90971 0.92058 0.04936 0.0
H1279 H 0.80471 0.93879 0.0416 0.0
H1280 H 0.91231 0.84983 0.03395 0.0
H1281 H 0.91997 0.81282 0.9861 0.0
H1282 H 0.82725 0.9206 0.02414 0.0
H1283 H 0.812 0.82579 1.00153 0.0
H1284 H 0.89293 0.80024 0.96922 0.0
H1285 H 0.86028 0.79843 0.9666 0.0
H1286 H 0.92093 0.93686 0.07869 0.0
H1287 H 0.83011 0.80888 0.97729 0.0
H1288 H 0.81309 0.95564 0.0719 0.0
N1289 N 0.88243 0.92603 0.05565 0.0
C1290 C 0.87085 0.9361 0.06642 0.0
C1291 C 0.90676 0.93654 0.07559 0.0
C1292 C 0.87667 0.94604 0.08296 0.0
C1293 C 0.90032 0.92699 0.05921 0.0
C1294 C 0.89485 0.94584 0.08775 0.0
N1295 N 0.84805 0.92679 0.04457 0.0
C1296 C 0.83101 0.92774 0.03744 0.0
C1297 C 0.84069 0.94712 0.07109 0.0
C1298 C 0.85311 0.93668 0.06055 0.0
C1299 C 0.82304 0.94774 0.06425 0.0
C1300 C 0.81825 0.9382 0.04717 0.0
H1301 H 0.89988 0.95326 0.10039 0.0
H1302 H 0.86843 0.96363 0.10684 0.0
H1303 H 0.83692 0.96456 0.09645 0.0
O1304 O 0.86097 0.93038 1.01081 0.0
O1305 O 0.85861 0.90098 0.05909 0.0
O1306 O 0.85242 0.8702 0.06005 0.0
O1307 O 0.88908 0.92588 0.01476 0.0
O1308 O 0.84807 0.89537 0.01706 0.0
O1309 O 0.84406 0.86909 0.03516 0.0
O1310 O 0.88037 0.84224 0.06345 0.0
O1311 O 0.88293 0.86778 1.0122 0.0
O1312 O 0.86787 0.8934 1.00419 0.0
O1313 O 0.86148 0.82925 0.04469 0.0
O1314 O 0.88742 0.87094 0.0559 0.0
O1315 O 0.89446 0.89437 0.03498 0.0
C1316 C 0.8517 0.88657 0.06758 0.0
C1317 C 0.8798 0.95446 1.00193 0.0
C1318 C 0.87372 0.98107 0.98154 0.0
C1319 C 0.88693 0.99016 0.99241 0.0
C1320 C 0.8927 0.96399 1.01262 0.0
C1321 C 0.89624 0.98171 1.0078 0.0
C1322 C 0.87032 0.96308 0.98635 0.0
C1323 C 0.8392 0.88085 0.02182 0.0
C1324 C 0.87688 0.93525 1.00559 0.0
C1325 C 0.86424 0.95605 0.09393 0.0
C1326 C 0.8463 0.95661 0.08799 0.0
C1327 C 0.87546 0.87848 0.99894 0.0
C1328 C 0.86089 0.82077 0.07799 0.0
C1329 C 0.85621 0.79684 0.1022 0.0
C1330 C 0.83872 0.80296 0.10517 0.0
C1331 C 0.84352 0.8269 0.08165 0.0
C1332 C 0.86736 0.80583 0.08855 0.0
C1333 C 0.83249 0.81791 0.09499 0.0
C1334 C 0.8975 0.88439 0.05085 0.0
C1335 C 0.87084 0.82799 0.06084 0.0
H1336 H 0.89034 0.00378 0.98877 0.0
H1337 H 0.90025 0.95768 0.02448 0.0
H1338 H 0.90642 0.9889 0.01589 0.0
H1339 H 0.86041 0.95575 0.97794 0.0
H1340 H 0.82981 0.79594 0.11519 0.0
H1341 H 0.83814 0.8381 0.07338 0.0
H1342 H 0.8806 0.80073 0.08544 0.0
H1343 H 0.81888 0.82223 0.09685 0.0
Tb1344 Tb 0.60559 0.61189 0.78915 0.0
C1345 C 0.68856 0.62306 0.81649 0.0
N1346 N 0.67862 0.6338 0.8044 0.0
C1347 C 0.6895 0.65945 0.82175 0.0
C1348 C 0.69846 0.63011 0.83251 0.0
C1349 C 0.68005 0.65186 0.80592 0.0
C1350 C 0.69834 0.64851 0.83543 0.0
C1351 C 0.70194 0.59404 0.82255 0.0
C1352 C 0.6904 0.60519 0.81156 0.0
C1353 C 0.71068 0.60075 0.83943 0.0
C1354 C 0.70895 0.61875 0.8444 0.0
Tb1355 Tb 0.66325 0.61911 0.78006 0.0
N1356 N 0.68182 0.59909 0.79508 0.0
C1357 C 0.70488 0.57668 0.8158 0.0
C1358 C 0.68595 0.58276 0.78744 0.0
C1359 C 0.69714 0.57115 0.79791 0.0
H1360 H 0.67389 0.66055 0.79504 0.0
H1361 H 0.69991 0.55803 0.79208 0.0
H1362 H 0.59156 0.57142 0.77394 0.0
H1363 H 0.57781 0.67699 0.7754 0.0
H1364 H 0.68069 0.57856 0.77325 0.0
H1365 H 0.71363 0.5677 0.82384 0.0
H1366 H 0.59499 0.65447 0.79428 0.0
H1367 H 0.69009 0.67376 0.8233 0.0
H1368 H 0.71936 0.59232 0.84827 0.0
H1369 H 0.7164 0.62391 0.85697 0.0
H1370 H 0.57281 0.5596 0.74714 0.0
H1371 H 0.70579 0.65445 0.84755 0.0
H1372 H 0.56014 0.66793 0.74591 0.0
N1373 N 0.58763 0.59865 0.76575 0.0
C1374 C 0.57761 0.61003 0.75465 0.0
C1375 C 0.57431 0.57382 0.74883 0.0
C1376 C 0.56642 0.60377 0.73928 0.0
C1377 C 0.58524 0.58067 0.76385 0.0
C1378 C 0.56512 0.58543 0.73622 0.0
N1379 N 0.58862 0.63346 0.7746 0.0
C1380 C 0.58809 0.65064 0.78091 0.0
C1381 C 0.56767 0.64021 0.7483 0.0
C1382 C 0.5781 0.62801 0.75923 0.0
C1383 C 0.56797 0.65812 0.75392 0.0
C1384 C 0.578 0.6633 0.7705 0.0
H1385 H 0.55653 0.58007 0.72472 0.0
H1386 H 0.54805 0.61141 0.71579 0.0
H1387 H 0.5492 0.64334 0.72362 0.0
O1388 O 0.58266 0.61816 0.80693 0.0
O1389 O 0.61414 0.61961 0.75788 0.0
O1390 O 0.64542 0.6241 0.75424 0.0
O1391 O 0.59508 0.59187 0.80711 0.0
O1392 O 0.62007 0.63488 0.80214 0.0
O1393 O 0.64812 0.64316 0.78784 0.0
O1394 O 0.67578 0.6064 0.7558 0.0
O1395 O 0.65473 0.60103 0.80433 0.0
O1396 O 0.62668 0.61179 0.81315 0.0
O1397 O 0.68212 0.63357 0.76352 0.0
O1398 O 0.63912 0.6057 0.77743 0.0
O1399 O 0.61772 0.5874 0.77941 0.0
C1400 C 0.62875 0.62358 0.74719 0.0
C1401 C 0.56894 0.5947 0.82798 0.0
C1402 C 0.54484 0.59795 0.85232 0.0
C1403 C 0.54438 0.57942 0.85468 0.0
C1404 C 0.56802 0.57615 0.83057 0.0
C1405 C 0.55587 0.56862 0.84383 0.0
C1406 C 0.55715 0.60569 0.83889 0.0
C1407 C 0.63385 0.64587 0.79928 0.0
C1408 C 0.5823 0.60194 0.81383 0.0
C1409 C 0.55652 0.61596 0.72786 0.0
C1410 C 0.55715 0.63414 0.73234 0.0
C1411 C 0.64039 0.60078 0.81608 0.0
C1412 C 0.70569 0.61566 0.75154 0.0
C1413 C 0.73205 0.60782 0.73213 0.0
C1414 C 0.7424 0.60842 0.74955 0.0
C1415 C 0.71639 0.61658 0.76874 0.0
C1416 C 0.71362 0.61129 0.73314 0.0
C1417 C 0.73457 0.61276 0.76777 0.0
C1418 C 0.63378 0.58974 0.77378 0.0
C1419 C 0.68646 0.61981 0.75265 0.0
H1420 H 0.53499 0.57329 0.86492 0.0
H1421 H 0.5767 0.56737 0.82226 0.0
H1422 H 0.55533 0.55432 0.84566 0.0
H1423 H 0.55756 0.62 0.83703 0.0
H1424 H 0.75665 0.60606 0.74891 0.0
H1425 H 0.71081 0.62059 0.78286 0.0
H1426 H 0.70565 0.6111 0.71963 0.0
H1427 H 0.74269 0.61355 0.7811 0.0
Tb1428 Tb 0.63398 0.35611 0.03869 0.0
C1429 C 0.62146 0.43889 0.0681 0.0
N1430 N 0.61119 0.4272 0.05769 0.0
C1431 C 0.58502 0.43774 0.07444 0.0
C1432 C 0.61384 0.45026 0.08245 0.0
C1433 C 0.59313 0.42684 0.06021 0.0
C1434 C 0.5954 0.44945 0.08565 0.0
C1435 C 0.65087 0.45075 0.07568 0.0
C1436 C 0.63978 0.43926 0.06465 0.0
C1437 C 0.64325 0.4623 0.08973 0.0
C1438 C 0.6248 0.46204 0.09312 0.0
Tb1439 Tb 0.6262 0.41213 0.03369 0.0
N1440 N 0.64684 0.42746 0.0515 0.0
C1441 C 0.66932 0.44993 0.07264 0.0
C1442 C 0.66484 0.42566 0.04964 0.0
C1443 C 0.6763 0.43726 0.05961 0.0
H1444 H 0.5848 0.41859 0.05094 0.0
H1445 H 0.69049 0.43642 0.05726 0.0
H1446 H 0.67447 0.33936 0.0285 0.0
H1447 H 0.56798 0.33338 0.01929 0.0
H1448 H 0.67038 0.41501 0.04106 0.0
H1449 H 0.6783 0.45865 0.08065 0.0
H1450 H 0.59002 0.35023 0.03887 0.0
H1451 H 0.57071 0.4373 0.07653 0.0
H1452 H 0.65155 0.47127 0.09829 0.0
H1453 H 0.61915 0.47091 0.10416 0.0
H1454 H 0.68707 0.31728 1.00521 0.0
H1455 H 0.58904 0.45795 0.09658 0.0
H1456 H 0.57816 0.31272 0.99294 0.0
N1457 N 0.64772 0.33579 0.01847 0.0
C1458 C 0.63652 0.32603 1.00694 0.0
C1459 C 0.67285 0.31976 1.00537 0.0
C1460 C 0.64315 0.31328 0.99344 0.0
C1461 C 0.66565 0.33232 0.01846 0.0
C1462 C 0.66158 0.3104 0.99257 0.0
N1463 N 0.61236 0.34021 0.02297 0.0
C1464 C 0.59458 0.34168 0.02712 0.0
C1465 C 0.60619 0.31807 0.99799 0.0
C1466 C 0.61827 0.32825 1.00931 0.0
C1467 C 0.58788 0.32026 1.00137 0.0
C1468 C 0.58208 0.33195 0.01619 0.0
H1469 H 0.66719 0.30067 0.98244 0.0
H1470 H 0.63603 0.29382 0.97101 0.0
H1471 H 0.60367 0.29813 0.97488 0.0
O1472 O 0.62314 0.33634 0.05822 0.0
O1473 O 0.62003 0.36593 1.01108 0.0
O1474 O 0.62566 0.39638 1.00605 0.0
O1475 O 0.65056 0.34422 0.05982 0.0
O1476 O 0.61551 0.37311 0.05534 0.0
O1477 O 0.60268 0.39526 0.0366 0.0
O1478 O 0.63718 0.43318 0.01544 0.0
O1479 O 0.63508 0.40154 0.063 0.0
O1480 O 0.65055 0.37574 0.05473 0.0
O1481 O 0.6085 0.42842 0.01872 0.0
O1482 O 0.64587 0.39416 0.02324 0.0
O1483 O 0.65647 0.3664 0.02158 0.0
C1484 C 0.62189 0.3802 0.99938 0.0
C1485 C 0.64426 0.31555 0.07254 0.0
C1486 C 0.64322 0.2905 0.09594 0.0
C1487 C 0.65918 0.28399 0.08785 0.0
C1488 C 0.66022 0.30859 0.06466 0.0
C1489 C 0.66755 0.29293 0.07223 0.0
C1490 C 0.63569 0.30628 0.08824 0.0
C1491 C 0.60135 0.38166 0.0489 0.0
C1492 C 0.63839 0.33379 0.06709 0.0
C1493 C 0.63118 0.30351 0.98164 0.0
C1494 C 0.61274 0.30594 0.98387 0.0
C1495 C 0.64634 0.38848 0.06745 0.0
C1496 C 0.616 0.45252 0.99635 0.0
C1497 C 0.62235 0.4775 0.97367 0.0
C1498 C 0.60398 0.47884 0.9697 0.0
C1499 C 0.59773 0.45459 0.99206 0.0
C1500 C 0.6285 0.46403 0.9869 0.0
C1501 C 0.59185 0.46755 0.97885 0.0
C1502 C 0.65792 0.38319 0.01684 0.0
C1503 C 0.62103 0.43788 1.01029 0.0
H1504 H 0.66526 0.27201 0.0938 0.0
H1505 H 0.66755 0.31558 0.05323 0.0
H1506 H 0.68 0.28793 0.06626 0.0
H1507 H 0.62368 0.31165 0.09495 0.0
H1508 H 0.59893 0.48879 0.95941 0.0
H1509 H 0.58777 0.44606 0.99884 0.0
H1510 H 0.64263 0.4627 0.98995 0.0
H1511 H 0.57775 0.46885 0.97568 0.0
Tb1512 Tb 0.89223 0.38124 0.28911 0.0
C1513 C 0.80694 0.37154 0.31399 0.0
N1514 N 0.81662 0.36062 0.30196 0.0
C1515 C 0.80235 0.33523 0.31675 0.0
C1516 C 0.79593 0.36462 0.32922 0.0
C1517 C 0.81318 0.34278 0.30191 0.0
C1518 C 0.79427 0.34616 0.33096 0.0
C1519 C 0.7946 0.40094 0.31983 0.0
C1520 C 0.806 0.38945 0.30914 0.0
C1521 C 0.78528 0.39444 0.33651 0.0
C1522 C 0.78588 0.37627 0.34115 0.0
Tb1523 Tb 0.83437 0.37493 0.27926 0.0
N1524 N 0.81509 0.39524 0.29281 0.0
C1525 C 0.79228 0.41835 0.31286 0.0
C1526 C 0.81128 0.41153 0.28475 0.0
C1527 C 0.80027 0.42349 0.29491 0.0
H1528 H 0.81924 0.33423 0.29087 0.0
H1529 H 0.79787 0.43663 0.28882 0.0
H1530 H 0.90771 0.42275 0.28133 0.0
H1531 H 0.91041 0.31778 0.25697 0.0
H1532 H 0.81689 0.41554 0.2706 0.0
H1533 H 0.78368 0.4276 0.32066 0.0
H1534 H 0.89255 0.33777 0.27771 0.0
H1535 H 0.80031 0.32099 0.31725 0.0
H1536 H 0.77681 0.40315 0.34522 0.0
H1537 H 0.77773 0.37124 0.35329 0.0
H1538 H 0.92935 0.43708 0.25895 0.0
H1539 H 0.78586 0.34029 0.34238 0.0
H1540 H 0.9342 0.32998 0.23534 0.0
N1541 N 0.91209 0.39665 0.26976 0.0
C1542 C 0.92236 0.3864 0.25762 0.0
C1543 C 0.92736 0.42284 0.25825 0.0
C1544 C 0.9351 0.39414 0.24474 0.0
C1545 C 0.91487 0.41462 0.27072 0.0
C1546 C 0.93739 0.4126 0.24504 0.0
N1547 N 0.90719 0.361 0.27002 0.0
C1548 C 0.90351 0.34322 0.26949 0.0
C1549 C 0.93003 0.35712 0.245 0.0
C1550 C 0.92 0.36804 0.25791 0.0
C1551 C 0.92677 0.3388 0.24504 0.0
C1552 C 0.91339 0.33186 0.25727 0.0
H1553 H 0.94703 0.41903 0.23535 0.0
H1554 H 0.95495 0.389 0.22192 0.0
H1555 H 0.95044 0.35664 0.22207 0.0
O1556 O 0.91433 0.37114 0.30555 0.0
O1557 O 0.88383 0.37497 0.25753 0.0
O1558 O 0.85269 0.36965 0.25388 0.0
O1559 O 0.90308 0.39692 0.31173 0.0
O1560 O 0.87776 0.35784 0.30012 0.0
O1561 O 0.84759 0.35124 0.29163 0.0
O1562 O 0.82158 0.38719 0.25489 0.0
O1563 O 0.84248 0.39257 0.30377 0.0
O1564 O 0.87041 0.38148 0.31232 0.0
O1565 O 0.81813 0.35911 0.26112 0.0
O1566 O 0.85875 0.38858 0.27682 0.0
O1567 O 0.88085 0.4063 0.27992 0.0
C1568 C 0.86938 0.37042 0.24698 0.0
C1569 C 0.93279 0.39227 0.32303 0.0
C1570 C 0.95783 0.39149 0.34656 0.0
C1571 C 0.96342 0.40813 0.33943 0.0
C1572 C 0.93873 0.40897 0.31629 0.0
C1573 C 0.95398 0.41674 0.32433 0.0
C1574 C 0.94253 0.38348 0.33824 0.0
C1575 C 0.86319 0.3478 0.30034 0.0
C1576 C 0.91517 0.38527 0.31673 0.0
C1577 C 0.94518 0.38327 0.23199 0.0
C1578 C 0.94266 0.36482 0.23213 0.0
C1579 C 0.8569 0.39266 0.31534 0.0
C1580 C 0.79305 0.37497 0.24959 0.0
C1581 C 0.76675 0.38362 0.23069 0.0
C1582 C 0.75603 0.37978 0.24737 0.0
C1583 C 0.78209 0.37097 0.26605 0.0
C1584 C 0.78529 0.38116 0.23183 0.0
C1585 C 0.76369 0.37342 0.26493 0.0
C1586 C 0.86469 0.40461 0.27407 0.0
C1587 C 0.81251 0.37283 0.25087 0.0
H1588 H 0.97502 0.41458 0.34579 0.0
H1589 H 0.93127 0.41641 0.30536 0.0
H1590 H 0.95827 0.42971 0.31916 0.0
H1591 H 0.93784 0.37087 0.34413 0.0
H1592 H 0.74166 0.38128 0.24663 0.0
H1593 H 0.78764 0.36584 0.27974 0.0
H1594 H 0.79363 0.38407 0.21897 0.0
H1595 H 0.75534 0.37024 0.27765 0.0
Tb1596 Tb 0.86517 0.63951 0.53953 0.0
C1597 C 0.87251 0.55594 0.56564 0.0
N1598 N 0.88357 0.56594 0.55396 0.0
C1599 C 0.90898 0.55396 0.57111 0.0
C1600 C 0.87931 0.54536 0.5813 0.0
C1601 C 0.90161 0.56396 0.55553 0.0
C1602 C 0.89775 0.54496 0.58436 0.0
C1603 C 0.84301 0.54338 0.57125 0.0
C1604 C 0.85454 0.55482 0.56061 0.0
C1605 C 0.84956 0.53373 0.58764 0.0
C1606 C 0.86766 0.53473 0.59267 0.0
Tb1607 Tb 0.86948 0.58197 0.52963 0.0
N1608 N 0.84856 0.56438 0.54469 0.0
C1609 C 0.8253 0.54173 0.56487 0.0
C1610 C 0.8316 0.56196 0.5377 0.0
C1611 C 0.81965 0.55089 0.54786 0.0
H1612 H 0.9104 0.56951 0.54443 0.0
H1613 H 0.80615 0.54929 0.54242 0.0
H1614 H 0.82509 0.65393 0.52187 0.0
H1615 H 0.93275 0.65961 0.52274 0.0
H1616 H 0.82725 0.56827 0.52412 0.0
H1617 H 0.81604 0.53308 0.57266 0.0
H1618 H 0.9096 0.64312 0.54104 0.0
H1619 H 0.92331 0.55281 0.57253 0.0
H1620 H 0.84085 0.52506 0.59617 0.0
H1621 H 0.87265 0.5267 0.60492 0.0
H1622 H 0.81486 0.6743 0.49581 0.0
H1623 H 0.90345 0.53689 0.59616 0.0
H1624 H 0.92427 0.68082 0.49609 0.0
N1625 N 0.85294 0.65809 0.51601 0.0
C1626 C 0.86502 0.66825 0.50593 0.0
C1627 C 0.82899 0.6725 0.49834 0.0
C1628 C 0.85949 0.68046 0.49113 0.0
C1629 C 0.83502 0.66051 0.51283 0.0
C1630 C 0.84126 0.6824 0.48733 0.0
N1631 N 0.88808 0.65413 0.52436 0.0
C1632 C 0.90563 0.65193 0.52917 0.0
C1633 C 0.89595 0.67605 0.49949 0.0
C1634 C 0.88309 0.66617 0.51017 0.0
C1635 C 0.91399 0.67349 0.50399 0.0
C1636 C 0.91884 0.66147 0.51896 0.0
H1637 H 0.8365 0.69167 0.47611 0.0
H1638 H 0.86825 0.69967 0.46903 0.0
H1639 H 0.90015 0.69573 0.47624 0.0
O1640 O 0.87476 0.6607 0.55716 0.0
O1641 O 0.87145 0.63113 0.50786 0.0
O1642 O 0.87375 0.59986 0.50382 0.0
O1643 O 0.8473 0.65246 0.55877 0.0
O1644 O 0.88627 0.6228 0.5526 0.0
O1645 O 0.89455 0.59606 0.53642 0.0
O1646 O 0.85616 0.56887 0.50614 0.0
O1647 O 0.8526 0.59077 0.55463 0.0
O1648 O 0.86472 0.61822 0.56327 0.0
O1649 O 0.88386 0.56345 0.51273 0.0
O1650 O 0.85666 0.60672 0.52721 0.0
O1651 O 0.83944 0.62877 0.53264 0.0
C1652 C 0.87419 0.6165 0.49688 0.0
C1653 C 0.85364 0.68214 0.56817 0.0
C1654 C 0.85095 0.70791 0.59008 0.0
C1655 C 0.84051 0.71642 0.57547 0.0
C1656 C 0.84327 0.69097 0.55381 0.0
C1657 C 0.83677 0.70801 0.55745 0.0
C1658 C 0.85766 0.69077 0.58626 0.0
C1659 C 0.8975 0.60955 0.54876 0.0
C1660 C 0.85928 0.66354 0.56535 0.0
C1661 C 0.87228 0.69031 0.48051 0.0
C1662 C 0.89045 0.68808 0.48463 0.0
C1663 C 0.85342 0.60484 0.56652 0.0
C1664 C 0.86648 0.53936 0.50133 0.0
C1665 C 0.86124 0.51254 0.48176 0.0
C1666 C 0.8622 0.50231 0.49929 0.0
C1667 C 0.86767 0.52878 0.51862 0.0
C1668 C 0.86312 0.53115 0.48282 0.0
C1669 C 0.8653 0.51042 0.51762 0.0
C1670 C 0.84055 0.61287 0.52615 0.0
C1671 C 0.86986 0.5587 0.5024 0.0
H1672 H 0.83535 0.7297 0.57791 0.0
H1673 H 0.83996 0.6847 0.53991 0.0
H1674 H 0.82871 0.71469 0.54631 0.0
H1675 H 0.86551 0.68397 0.59754 0.0
H1676 H 0.86089 0.48797 0.49869 0.0
H1677 H 0.87088 0.5346 0.53283 0.0
H1678 H 0.86267 0.53907 0.46927 0.0
H1679 H 0.86629 0.50242 0.53105 0.0
Tb1680 Tb 0.60736 0.37846 0.74231 0.0
C1681 C 0.68762 0.37339 0.71344 0.0
N1682 N 0.67665 0.36249 0.72404 0.0
C1683 C 0.6851 0.33802 0.70315 0.0
C1684 C 0.69694 0.36728 0.69652 0.0
C1685 C 0.67646 0.34472 0.72005 0.0
C1686 C 0.69506 0.34945 0.69102 0.0
C1687 C 0.70228 0.40202 0.71059 0.0
C1688 C 0.69021 0.3905 0.72027 0.0
C1689 C 0.71104 0.39628 0.69322 0.0
C1690 C 0.70829 0.37897 0.68612 0.0
Tb1691 Tb 0.66206 0.37537 0.75042 0.0
N1692 N 0.68097 0.39576 0.73666 0.0
C1693 C 0.70546 0.41873 0.719 0.0
C1694 C 0.68402 0.41202 0.74493 0.0
C1695 C 0.69659 0.42351 0.73656 0.0
H1696 H 0.67025 0.33555 0.7302 0.0
H1697 H 0.69958 0.43587 0.74396 0.0
H1698 H 0.59699 0.41978 0.759 0.0
H1699 H 0.5846 0.31311 0.7625 0.0
H1700 H 0.67738 0.41578 0.75855 0.0
H1701 H 0.715 0.42782 0.71236 0.0
H1702 H 0.60254 0.33479 0.74328 0.0
H1703 H 0.68443 0.32397 0.69977 0.0
H1704 H 0.7202 0.405 0.68538 0.0
H1705 H 0.71542 0.37458 0.67294 0.0
H1706 H 0.57755 0.4321 0.78473 0.0
H1707 H 0.70194 0.3442 0.67808 0.0
H1708 H 0.56452 0.32359 0.78933 0.0
N1709 N 0.5922 0.39261 0.76716 0.0
C1710 C 0.58198 0.38139 0.77841 0.0
C1711 C 0.57887 0.41783 0.7833 0.0
C1712 C 0.56969 0.38811 0.79243 0.0
C1713 C 0.59038 0.41067 0.76903 0.0
C1714 C 0.56849 0.40652 0.79506 0.0
N1715 N 0.59426 0.35687 0.76068 0.0
C1716 C 0.59454 0.33931 0.75564 0.0
C1717 C 0.57183 0.35126 0.78564 0.0
C1718 C 0.58289 0.36307 0.77494 0.0
C1719 C 0.57282 0.33307 0.7814 0.0
C1720 C 0.58416 0.32708 0.76628 0.0
H1721 H 0.55922 0.41216 0.80573 0.0
H1722 H 0.54844 0.38135 0.81301 0.0
H1723 H 0.55083 0.34917 0.80775 0.0
O1724 O 0.59263 0.36678 0.71861 0.0
O1725 O 0.61895 0.36458 0.76894 0.0
O1726 O 0.64457 0.37993 0.77573 0.0
O1727 O 0.58235 0.38897 0.73471 0.0
O1728 O 0.62474 0.36213 0.7243 0.0
O1729 O 0.64586 0.35106 0.74545 0.0
O1730 O 0.68169 0.38328 0.77102 0.0
O1731 O 0.65392 0.38938 0.72255 0.0
O1732 O 0.62279 0.39401 0.72026 0.0
O1733 O 0.6769 0.35563 0.76586 0.0
O1734 O 0.6478 0.39822 0.76291 0.0
O1735 O 0.62082 0.40367 0.7463 0.0
C1736 C 0.63021 0.37168 0.7818 0.0
C1737 C 0.57315 0.38685 0.70138 0.0
C1738 C 0.55073 0.38995 0.67487 0.0
C1739 C 0.55919 0.40564 0.66854 0.0
C1740 C 0.58104 0.40279 0.69494 0.0
C1741 C 0.57423 0.41198 0.6785 0.0
C1742 C 0.55785 0.38045 0.69131 0.0
C1743 C 0.63415 0.34881 0.73093 0.0
C1744 C 0.57964 0.37822 0.71994 0.0
C1745 C 0.55844 0.37636 0.80279 0.0
C1746 C 0.55967 0.35801 0.79963 0.0
C1747 C 0.63946 0.39597 0.71374 0.0
C1748 C 0.70554 0.3641 0.77971 0.0
C1749 C 0.73255 0.37081 0.79941 0.0
C1750 C 0.74101 0.35627 0.79017 0.0
C1751 C 0.71454 0.3499 0.77068 0.0
C1752 C 0.71463 0.37454 0.79415 0.0
C1753 C 0.73213 0.34603 0.77596 0.0
C1754 C 0.63537 0.40884 0.75568 0.0
C1755 C 0.68629 0.36728 0.77574 0.0
H1756 H 0.55392 0.41317 0.65603 0.0
H1757 H 0.59223 0.40839 0.70297 0.0
H1758 H 0.58045 0.42426 0.67369 0.0
H1759 H 0.55125 0.36849 0.69654 0.0
H1760 H 0.75449 0.35253 0.79423 0.0
H1761 H 0.70792 0.34157 0.75981 0.0
H1762 H 0.70772 0.38544 0.80134 0.0
H1763 H 0.73887 0.33485 0.76916 0.0
Tb1764 Tb 0.86453 0.35515 0.98772 0.0
C1765 C 0.87251 0.435 0.96519 0.0
N1766 N 0.88297 0.42447 0.97685 0.0
C1767 C 0.90889 0.43484 0.95915 0.0
C1768 C 0.87968 0.44509 0.94932 0.0
C1769 C 0.90111 0.42539 0.97496 0.0
C1770 C 0.89808 0.44442 0.94598 0.0
C1771 C 0.84358 0.44861 0.95973 0.0
C1772 C 0.85483 0.43693 0.97037 0.0
C1773 C 0.8504 0.45799 0.94326 0.0
C1774 C 0.86842 0.4562 0.93802 0.0
Tb1775 Tb 0.86867 0.40914 1.00201 0.0
N1776 N 0.84885 0.42779 0.98649 0.0
C1777 C 0.82601 0.45091 0.96637 0.0
C1778 C 0.83213 0.43087 0.99381 0.0
C1779 C 0.82035 0.44219 0.98371 0.0
H1780 H 0.90974 0.41899 0.98571 0.0
H1781 H 0.80696 0.44422 0.98933 0.0
H1782 H 0.82644 0.33712 1.0016 0.0
H1783 H 0.93305 0.33958 1.00715 0.0
H1784 H 0.82789 0.42454 1.00736 0.0
H1785 H 0.81692 0.45971 0.95856 0.0
H1786 H 0.90943 0.353 0.98671 0.0
H1787 H 0.92324 0.43499 0.95737 0.0
H1788 H 0.84203 0.4671 0.93493 0.0
H1789 H 0.87366 0.46396 0.92568 0.0
H1790 H 0.81574 0.31605 0.02721 0.0
H1791 H 0.90414 0.45196 0.93394 0.0
H1792 H 0.92515 0.3192 0.03486 0.0
N1793 N 0.85348 0.33519 1.01004 0.0
C1794 C 0.86572 0.32638 0.02121 0.0
C1795 C 0.82982 0.31905 0.02596 0.0
C1796 C 0.86039 0.31395 0.03585 0.0
C1797 C 0.8358 0.3314 1.01182 0.0
C1798 C 0.84217 0.31042 0.03821 0.0
N1799 N 0.88819 0.34243 1.00399 0.0
C1800 C 0.90569 0.34518 0.99941 0.0
C1801 C 0.89672 0.32168 0.02993 0.0
C1802 C 0.88364 0.33026 0.01827 0.0
C1803 C 0.91467 0.3255 0.02621 0.0
C1804 C 0.91918 0.33709 1.01068 0.0
H1805 H 0.83753 0.3009 0.04924 0.0
H1806 H 0.86956 0.29609 0.05912 0.0
H1807 H 0.90136 0.30283 0.05396 0.0
O1808 O 0.8739 0.33425 0.96956 0.0
O1809 O 0.8647 0.36275 0.01976 0.0
O1810 O 0.8818 0.38784 0.01901 0.0
O1811 O 0.84609 0.34158 0.96959 0.0
O1812 O 0.88503 0.37068 0.97281 0.0
O1813 O 0.89236 0.39289 0.99502 0.0
O1814 O 0.85906 0.42328 0.02725 0.0
O1815 O 0.85019 0.40155 0.9779 0.0
O1816 O 0.86236 0.3761 0.96448 0.0
O1817 O 0.88529 0.42777 0.01581 0.0
O1818 O 0.846 0.3942 0.01466 0.0
O1819 O 0.83986 0.36915 0.99449 0.0
C1820 C 0.87349 0.37537 0.02919 0.0
C1821 C 0.85341 0.31256 0.95746 0.0
C1822 C 0.85447 0.2876 0.93418 0.0
C1823 C 0.84207 0.27848 0.94611 0.0
C1824 C 0.84101 0.30315 0.96913 0.0
C1825 C 0.83549 0.28618 0.96353 0.0
C1826 C 0.86027 0.3046 0.93999 0.0
C1827 C 0.89509 0.38402 0.97839 0.0
C1828 C 0.85822 0.33117 0.962 0.0
C1829 C 0.87338 0.30559 0.04769 0.0
C1830 C 0.89149 0.30946 0.04477 0.0
C1831 C 0.85126 0.38969 0.96354 0.0
C1832 C 0.87096 0.45265 0.02984 0.0
C1833 C 0.8637 0.47892 0.04971 0.0
C1834 C 0.86947 0.48979 0.03388 0.0
C1835 C 0.87649 0.46388 1.01414 0.0
C1836 C 0.86463 0.46028 0.0477 0.0
C1837 C 0.87584 0.4823 0.01626 0.0
C1838 C 0.8354 0.38144 1.00774 0.0
C1839 C 0.87325 0.43314 0.0283 0.0
H1840 H 0.83736 0.26542 0.9418 0.0
H1841 H 0.83525 0.30896 0.98231 0.0
H1842 H 0.82582 0.27908 0.97254 0.0
H1843 H 0.86958 0.31184 0.93059 0.0
H1844 H 0.86938 0.50414 0.0353 0.0
H1845 H 0.88166 0.45846 1.00034 0.0
H1846 H 0.8606 0.45178 0.06002 0.0
H1847 H 0.88045 0.49082 1.00425 0.0
Tb1848 Tb 0.8911 0.61505 0.24179 0.0
C1849 C 0.81142 0.61963 0.21089 0.0
N1850 N 0.82127 0.63074 0.22248 0.0
C1851 C 0.80994 0.65594 0.20449 0.0
C1852 C 0.80092 0.62628 0.19509 0.0
C1853 C 0.81996 0.64873 0.22016 0.0
C1854 C 0.80052 0.64466 0.19176 0.0
C1855 C 0.80162 0.58959 0.20335 0.0
C1856 C 0.81171 0.60148 0.21503 0.0
C1857 C 0.79133 0.59616 0.18744 0.0
C1858 C 0.79099 0.61444 0.18331 0.0
Tb1859 Tb 0.83621 0.61728 0.24791 0.0
N1860 N 0.82209 0.59551 0.23031 0.0
C1861 C 0.80223 0.57144 0.20797 0.0
C1862 C 0.82221 0.57791 0.2353 0.0
C1863 C 0.8125 0.5656 0.22409 0.0
H1864 H 0.82637 0.65765 0.23051 0.0
H1865 H 0.81275 0.55164 0.22809 0.0
H1866 H 0.90261 0.57405 0.2577 0.0
H1867 H 0.91613 0.67984 0.25882 0.0
H1868 H 0.82923 0.57331 0.24822 0.0
H1869 H 0.79468 0.56188 0.19935 0.0
H1870 H 0.89748 0.65798 0.24082 0.0
H1871 H 0.80929 0.67019 0.20242 0.0
H1872 H 0.78353 0.58722 0.17827 0.0
H1873 H 0.78288 0.61931 0.17107 0.0
H1874 H 0.92196 0.56148 0.28356 0.0
H1875 H 0.79266 0.6503 0.17973 0.0
H1876 H 0.93576 0.66973 0.28633 0.0
N1877 N 0.90691 0.60105 0.26638 0.0
C1878 C 0.91692 0.61219 0.27779 0.0
C1879 C 0.92046 0.57575 0.28231 0.0
C1880 C 0.92914 0.60545 0.29192 0.0
C1881 C 0.909 0.583 0.26799 0.0
C1882 C 0.93053 0.58701 0.29438 0.0
N1883 N 0.9049 0.63644 0.25954 0.0
C1884 C 0.90522 0.65377 0.25354 0.0
C1885 C 0.92748 0.64221 0.28419 0.0
C1886 C 0.91609 0.63041 0.27404 0.0
C1887 C 0.92712 0.66026 0.27895 0.0
C1888 C 0.91603 0.66604 0.26346 0.0
H1889 H 0.93979 0.58133 0.30505 0.0
H1890 H 0.94973 0.61227 0.31326 0.0
H1891 H 0.94831 0.64439 0.30646 0.0
O1892 O 0.90323 0.6236 0.21462 0.0
O1893 O 0.87892 0.62971 0.26707 0.0
O1894 O 0.85232 0.61586 0.27503 0.0
O1895 O 0.91706 0.60665 0.23503 0.0
O1896 O 0.87558 0.63385 0.22426 0.0
O1897 O 0.85204 0.64185 0.24481 0.0
O1898 O 0.81301 0.60739 0.26278 0.0
O1899 O 0.84805 0.61025 0.21838 0.0
O1900 O 0.87541 0.59645 0.2241 0.0
O1901 O 0.81943 0.63565 0.26238 0.0
O1902 O 0.84952 0.59525 0.26314 0.0
O1903 O 0.87726 0.59022 0.24786 0.0
C1904 C 0.86766 0.62292 0.28021 0.0
C1905 C 0.92649 0.60488 0.20163 0.0
C1906 C 0.94927 0.60333 0.17535 0.0
C1907 C 0.94607 0.58499 0.17372 0.0
C1908 C 0.9236 0.58651 0.19966 0.0
C1909 C 0.93339 0.57666 0.18582 0.0
C1910 C 0.93947 0.61324 0.18948 0.0
C1911 C 0.86338 0.64517 0.23015 0.0
C1912 C 0.91792 0.61488 0.21807 0.0
C1913 C 0.94018 0.61723 0.30245 0.0
C1914 C 0.93938 0.63554 0.29858 0.0
C1915 C 0.86061 0.59859 0.21365 0.0
C1916 C 0.79176 0.62752 0.27953 0.0
C1917 C 0.76677 0.61953 0.30178 0.0
C1918 C 0.75936 0.63641 0.29826 0.0
C1919 C 0.7839 0.64427 0.27658 0.0
C1920 C 0.78314 0.61506 0.29237 0.0
C1921 C 0.76786 0.64863 0.28585 0.0
C1922 C 0.86356 0.58534 0.25899 0.0
C1923 C 0.80827 0.6233 0.26806 0.0
H1924 H 0.95364 0.57702 0.16324 0.0
H1925 H 0.91411 0.57969 0.2092 0.0
H1926 H 0.93129 0.56247 0.1846 0.0
H1927 H 0.94213 0.62732 0.19121 0.0
H1928 H 0.74693 0.64024 0.30533 0.0
H1929 H 0.79003 0.65398 0.26673 0.0
H1930 H 0.78896 0.60204 0.29481 0.0
H1931 H 0.76193 0.66156 0.28332 0.0
Tb1932 Tb 0.63337 0.6378 0.49161 0.0
C1933 C 0.62493 0.55785 0.45996 0.0
N1934 N 0.61388 0.56745 0.47185 0.0
C1935 C 0.58857 0.55698 0.45353 0.0
C1936 C 0.61829 0.54803 0.44374 0.0
C1937 C 0.59587 0.56673 0.46927 0.0
C1938 C 0.59986 0.54775 0.44056 0.0
C1939 C 0.65482 0.54722 0.4529 0.0
C1940 C 0.6429 0.55724 0.46467 0.0
C1941 C 0.64842 0.5382 0.43604 0.0
C1942 C 0.63016 0.53849 0.43156 0.0
Tb1943 Tb 0.62726 0.58321 0.49659 0.0
N1944 N 0.64851 0.56591 0.48126 0.0
C1945 C 0.67271 0.54622 0.45872 0.0
C1946 C 0.66555 0.56336 0.48807 0.0
C1947 C 0.67799 0.55411 0.47658 0.0
H1948 H 0.58716 0.57313 0.47978 0.0
H1949 H 0.69161 0.55305 0.4816 0.0
H1950 H 0.67416 0.64984 0.50735 0.0
H1951 H 0.56792 0.66426 0.50682 0.0
H1952 H 0.66981 0.56857 0.50229 0.0
H1953 H 0.68237 0.53889 0.44996 0.0
H1954 H 0.58991 0.64562 0.48907 0.0
H1955 H 0.57425 0.55642 0.45157 0.0
H1956 H 0.65739 0.53056 0.42671 0.0
H1957 H 0.62531 0.53104 0.41885 0.0
H1958 H 0.68663 0.67074 0.53186 0.0
H1959 H 0.59426 0.54 0.42853 0.0
H1960 H 0.57789 0.68447 0.53369 0.0
N1961 N 0.64702 0.65584 0.51445 0.0
C1962 C 0.63583 0.66656 0.52487 0.0
C1963 C 0.67232 0.66956 0.5302 0.0
C1964 C 0.64246 0.67882 0.53892 0.0
C1965 C 0.66514 0.6576 0.51646 0.0
C1966 C 0.66093 0.68013 0.54159 0.0
N1967 N 0.61185 0.65445 0.50647 0.0
C1968 C 0.59431 0.65409 0.50104 0.0
C1969 C 0.60568 0.67697 0.53104 0.0
C1970 C 0.61769 0.66583 0.52079 0.0
C1971 C 0.58755 0.67614 0.52613 0.0
C1972 C 0.58186 0.66474 0.51097 0.0
H1973 H 0.66654 0.6895 0.55212 0.0
H1974 H 0.63535 0.69911 0.56041 0.0
H1975 H 0.60314 0.69737 0.55365 0.0
O1976 O 0.62462 0.65781 0.47036 0.0
O1977 O 0.61763 0.62797 0.51748 0.0
O1978 O 0.62754 0.5993 0.52373 0.0
O1979 O 0.65252 0.6529 0.47736 0.0
O1980 O 0.61424 0.62305 0.47369 0.0
O1981 O 0.60351 0.6004 0.49377 0.0
O1982 O 0.63705 0.56714 0.5199 0.0
O1983 O 0.63328 0.59419 0.46655 0.0
O1984 O 0.64947 0.62001 0.47261 0.0
O1985 O 0.61023 0.5638 0.50922 0.0
O1986 O 0.65316 0.59507 0.49949 0.0
O1987 O 0.6533 0.62444 0.50988 0.0
C1988 C 0.62201 0.61495 0.52985 0.0
C1989 C 0.64809 0.67635 0.45343 0.0
C1990 C 0.64475 0.70088 0.42947 0.0
C1991 C 0.66337 0.70243 0.42849 0.0
C1992 C 0.66675 0.67846 0.45205 0.0
C1993 C 0.67424 0.6914 0.43979 0.0
C1994 C 0.63697 0.68773 0.44197 0.0
C1995 C 0.60123 0.61253 0.47962 0.0
C1996 C 0.64121 0.66235 0.46725 0.0
C1997 C 0.63051 0.68971 0.54945 0.0
C1998 C 0.61217 0.68873 0.54557 0.0
C1999 C 0.64554 0.60605 0.46155 0.0
C2000 C 0.62488 0.5384 0.52329 0.0
C2001 C 0.63227 0.51257 0.54408 0.0
C2002 C 0.63008 0.50156 0.5274 0.0
C2003 C 0.62274 0.52711 0.50681 0.0
C2004 C 0.62959 0.53102 0.542 0.0
C2005 C 0.62528 0.50879 0.50892 0.0
C2006 C 0.65998 0.60835 0.50937 0.0
C2007 C 0.6225 0.55785 0.52134 0.0
H2008 H 0.66954 0.7124 0.419 0.0
H2009 H 0.67576 0.67009 0.46053 0.0
H2010 H 0.68859 0.69283 0.43898 0.0
H2011 H 0.62259 0.68655 0.44291 0.0
H2012 H 0.63187 0.48731 0.52876 0.0
H2013 H 0.61908 0.53241 0.49233 0.0
H2014 H 0.63123 0.5396 0.55485 0.0
H2015 H 0.62351 0.50015 0.49618 0.0
Tb2016 Tb 0.33432 0.37463 0.24413 0.0
C2017 C 0.41966 0.38203 0.27219 0.0
N2018 N 0.40898 0.39344 0.26201 0.0
C2019 C 0.42357 0.41829 0.27751 0.0
C2020 C 0.43239 0.38832 0.28598 0.0
C2021 C 0.41116 0.41143 0.26403 0.0
C2022 C 0.43413 0.40668 0.2887 0.0
C2023 C 0.42901 0.3517 0.27868 0.0
C2024 C 0.41808 0.36398 0.26848 0.0
C2025 C 0.4414 0.35786 0.29279 0.0
C2026 C 0.44311 0.37612 0.2964 0.0
Tb2027 Tb 0.38931 0.38044 0.24036 0.0
N2028 N 0.40592 0.35847 0.25475 0.0
C2029 C 0.42728 0.33362 0.27423 0.0
C2030 C 0.40472 0.34095 0.24977 0.0
C2031 C 0.41519 0.32825 0.25958 0.0
H2032 H 0.40336 0.42059 0.2552 0.0
H2033 H 0.41404 0.31433 0.25572 0.0
H2034 H 0.32655 0.33658 0.22149 0.0
H2035 H 0.30436 0.43969 0.23405 0.0
H2036 H 0.39593 0.3367 0.2381 0.0
H2037 H 0.43542 0.32376 0.28175 0.0
H2038 H 0.32125 0.4172 0.25195 0.0
H2039 H 0.42505 0.43252 0.27918 0.0
H2040 H 0.44987 0.34862 0.30083 0.0
H2041 H 0.45289 0.38069 0.30713 0.0
H2042 H 0.31199 0.32633 0.19055 0.0
H2043 H 0.44377 0.41203 0.29912 0.0
H2044 H 0.29134 0.43311 0.20091 0.0
N2045 N 0.32098 0.36375 0.21626 0.0
C2046 C 0.31168 0.37574 0.20515 0.0
C2047 C 0.31206 0.34032 0.19429 0.0
C2048 C 0.30274 0.37054 0.18762 0.0
C2049 C 0.32071 0.34616 0.21155 0.0
C2050 C 0.30322 0.35261 0.18211 0.0
N2051 N 0.31927 0.39761 0.22894 0.0
C2052 C 0.31653 0.41402 0.2372 0.0
C2053 C 0.30085 0.40591 0.20084 0.0
C2054 C 0.31084 0.39323 0.21165 0.0
C2055 C 0.29908 0.42305 0.20864 0.0
C2056 C 0.30659 0.42693 0.22715 0.0
H2057 H 0.29644 0.34804 0.16879 0.0
H2058 H 0.28647 0.37956 0.16283 0.0
H2059 H 0.28478 0.41051 0.17443 0.0
O2060 O 0.31448 0.38382 0.26418 0.0
O2061 O 0.34697 0.38179 0.21534 0.0
O2062 O 0.37104 0.39863 0.22481 0.0
O2063 O 0.31392 0.3568 0.25259 0.0
O2064 O 0.34591 0.39861 0.25549 0.0
O2065 O 0.37697 0.4 0.25927 0.0
O2066 O 0.40943 0.37238 0.21901 0.0
O2067 O 0.38041 0.3682 0.26867 0.0
O2068 O 0.34925 0.3708 0.27188 0.0
O2069 O 0.40286 0.40004 0.22504 0.0
O2070 O 0.37394 0.36148 0.22281 0.0
O2071 O 0.35113 0.35072 0.2425 0.0
C2072 C 0.358 0.39514 0.21233 0.0
C2073 C 0.28939 0.36524 0.27471 0.0
C2074 C 0.2664 0.37376 0.29888 0.0
C2075 C 0.25615 0.35914 0.29279 0.0
C2076 C 0.27885 0.35067 0.26908 0.0
C2077 C 0.26237 0.34768 0.27807 0.0
C2078 C 0.28316 0.37681 0.28986 0.0
C2079 C 0.36066 0.40573 0.26213 0.0
C2080 C 0.30602 0.3688 0.26346 0.0
C2081 C 0.29335 0.38328 0.17641 0.0
C2082 C 0.29241 0.40092 0.183 0.0
C2083 C 0.36541 0.36817 0.27919 0.0
C2084 C 0.42612 0.39638 0.20083 0.0
C2085 C 0.45063 0.39368 0.17683 0.0
C2086 C 0.45055 0.41219 0.17427 0.0
C2087 C 0.42654 0.41496 0.19793 0.0
C2088 C 0.43836 0.38565 0.19018 0.0
C2089 C 0.43861 0.42273 0.18478 0.0
C2090 C 0.36399 0.34826 0.22928 0.0
C2091 C 0.4129 0.38909 0.21525 0.0
H2092 H 0.24327 0.35653 0.29958 0.0
H2093 H 0.28319 0.34174 0.25738 0.0
H2094 H 0.2543 0.33648 0.27351 0.0
H2095 H 0.29106 0.38818 0.29436 0.0
H2096 H 0.45989 0.41853 0.16412 0.0
H2097 H 0.41747 0.42366 0.20586 0.0
H2098 H 0.43841 0.37136 0.19226 0.0
H2099 H 0.43873 0.43701 0.18275 0.0
Tb2100 Tb 0.36804 0.58579 0.99972 0.0
C2101 C 0.36508 0.66697 0.02744 0.0
N2102 N 0.35333 0.65663 0.0172 0.0
C2103 C 0.32888 0.66979 0.03501 0.0
C2104 C 0.3591 0.67903 0.04206 0.0
C2105 C 0.33535 0.65825 0.02039 0.0
C2106 C 0.34078 0.68019 0.04592 0.0
C2107 C 0.39579 0.67587 0.03368 0.0
C2108 C 0.3833 0.66532 0.02343 0.0
C2109 C 0.38982 0.68796 0.04815 0.0
C2110 C 0.37156 0.6895 0.05237 0.0
Tb2111 Tb 0.36632 0.64026 0.99257 0.0
N2112 N 0.38875 0.65322 1.00964 0.0
C2113 C 0.41391 0.67406 0.02891 0.0
C2114 C 0.40625 0.65195 1.00424 0.0
C2115 C 0.41914 0.66213 1.01404 0.0
H2116 H 0.32577 0.65129 1.0113 0.0
H2117 H 0.43305 0.66098 1.00991 0.0
H2118 H 0.4088 0.57602 0.98293 0.0
H2119 H 0.30318 0.55877 0.98188 0.0
H2120 H 0.41022 0.64334 0.99219 0.0
H2121 H 0.42392 0.682 0.03639 0.0
H2122 H 0.3244 0.57694 1.00097 0.0
H2123 H 0.31466 0.67094 0.03756 0.0
H2124 H 0.39923 0.69621 0.05618 0.0
H2125 H 0.3672 0.69886 0.06362 0.0
H2126 H 0.42168 0.55986 0.95437 0.0
H2127 H 0.33568 0.68924 0.05712 0.0
H2128 H 0.31391 0.54055 0.95353 0.0
N2129 N 0.38195 0.57007 0.97514 0.0
C2130 C 0.37105 0.55994 0.96361 0.0
C2131 C 0.40739 0.55993 0.95667 0.0
C2132 C 0.37787 0.54992 0.94757 0.0
C2133 C 0.4 0.56941 0.97261 0.0
C2134 C 0.39625 0.55034 0.94391 0.0
N2135 N 0.34679 0.56994 0.9831 0.0
C2136 C 0.32917 0.56959 0.98828 0.0
C2137 C 0.34126 0.54905 0.95657 0.0
C2138 C 0.35295 0.5596 0.96796 0.0
C2139 C 0.32318 0.54881 0.96167 0.0
C2140 C 0.31711 0.55908 0.97763 0.0
H2141 H 0.40201 0.54294 0.93163 0.0
H2142 H 0.37117 0.53204 0.92337 0.0
H2143 H 0.33912 0.53116 0.93136 0.0
O2144 O 0.3583 0.56468 0.01731 0.0
O2145 O 0.35993 0.596 0.9698 0.0
O2146 O 0.34842 0.62478 0.97328 0.0
O2147 O 0.38648 0.57019 0.01616 0.0
O2148 O 0.34524 0.59961 1.01307 0.0
O2149 O 0.34091 0.62717 0.99722 0.0
O2150 O 0.37685 0.6538 0.9673 0.0
O2151 O 0.37931 0.62907 0.0199 0.0
O2152 O 0.36481 0.60252 0.02583 0.0
O2153 O 0.35646 0.66552 0.98527 0.0
O2154 O 0.38411 0.62438 0.97452 0.0
O2155 O 0.3924 0.60193 0.99603 0.0
C2156 C 0.34956 0.6093 0.96392 0.0
C2157 C 0.3772 0.54122 0.02821 0.0
C2158 C 0.37088 0.51478 0.04874 0.0
C2159 C 0.38412 0.50554 0.03815 0.0
C2160 C 0.39033 0.53163 0.0179 0.0
C2161 C 0.39377 0.51392 0.02294 0.0
C2162 C 0.36756 0.53273 0.04378 0.0
C2163 C 0.33549 0.61349 1.00797 0.0
C2164 C 0.37394 0.56032 0.02401 0.0
C2165 C 0.36619 0.53972 0.93585 0.0
C2166 C 0.34795 0.5392 0.94042 0.0
C2167 C 0.37358 0.61643 0.03214 0.0
C2168 C 0.35688 0.67424 0.95171 0.0
C2169 C 0.35447 0.69548 0.92404 0.0
C2170 C 0.33751 0.68856 0.91961 0.0
C2171 C 0.33975 0.66794 0.94723 0.0
C2172 C 0.36417 0.68825 0.94022 0.0
C2173 C 0.33019 0.67495 0.93119 0.0
C2174 C 0.39531 0.61207 0.98024 0.0
C2175 C 0.3663 0.66741 0.9695 0.0
H2176 H 0.38721 0.49185 0.04188 0.0
H2177 H 0.39804 0.53786 1.00611 0.0
H2178 H 0.40406 0.50663 0.01509 0.0
H2179 H 0.35753 0.54008 0.05201 0.0
H2180 H 0.32972 0.69399 0.9074 0.0
H2181 H 0.3336 0.65793 0.95655 0.0
H2182 H 0.37719 0.69356 0.94391 0.0
H2183 H 0.31696 0.67 0.92791 0.0
Tb2184 Tb 0.16305 0.61842 0.74905 0.0
C2185 C 0.07894 0.6099 0.77533 0.0
N2186 N 0.08854 0.59977 0.7625 0.0
C2187 C 0.07367 0.57356 0.77468 0.0
C2188 C 0.06681 0.60219 0.78893 0.0
C2189 C 0.08536 0.5819 0.76135 0.0
C2190 C 0.06457 0.58372 0.7888 0.0
C2191 C 0.06957 0.63932 0.78562 0.0
C2192 C 0.08022 0.62817 0.77367 0.0
C2193 C 0.05814 0.63173 0.79993 0.0
C2194 C 0.05675 0.6132 0.80158 0.0
Tb2195 Tb 0.10746 0.61508 0.74168 0.0
N2196 N 0.09106 0.63498 0.75937 0.0
C2197 C 0.07027 0.6577 0.78229 0.0
C2198 C 0.09102 0.65273 0.75524 0.0
C2199 C 0.08087 0.66442 0.76682 0.0
H2200 H 0.09157 0.57411 0.74985 0.0
H2201 H 0.08105 0.67854 0.76366 0.0
H2202 H 0.17307 0.65959 0.73497 0.0
H2203 H 0.19594 0.55575 0.73361 0.0
H2204 H 0.09864 0.65765 0.74279 0.0
H2205 H 0.06225 0.66674 0.79112 0.0
H2206 H 0.17641 0.57583 0.75219 0.0
H2207 H 0.07147 0.55936 0.77382 0.0
H2208 H 0.04992 0.64007 0.80937 0.0
H2209 H 0.04746 0.60752 0.81223 0.0
H2210 H 0.19165 0.67397 0.70913 0.0
H2211 H 0.05533 0.57728 0.79896 0.0
H2212 H 0.21397 0.56725 0.70543 0.0
N2213 N 0.18003 0.63331 0.72622 0.0
C2214 C 0.19112 0.62314 0.71499 0.0
C2215 C 0.19147 0.65963 0.71046 0.0
C2216 C 0.20221 0.63077 0.70028 0.0
C2217 C 0.18076 0.65141 0.72492 0.0
C2218 C 0.20197 0.64924 0.69781 0.0
N2219 N 0.18163 0.59841 0.7338 0.0
C2220 C 0.1834 0.581 0.73946 0.0
C2221 C 0.20398 0.59415 0.70831 0.0
C2222 C 0.19209 0.60512 0.71905 0.0
C2223 C 0.20506 0.57612 0.71336 0.0
C2224 C 0.19485 0.56957 0.72917 0.0
H2225 H 0.21029 0.65564 0.68666 0.0
H2226 H 0.22202 0.62542 0.67746 0.0
H2227 H 0.22347 0.59331 0.68442 0.0
O2228 O 0.17991 0.60811 0.77123 0.0
O2229 O 0.1535 0.61067 0.719 0.0
O2230 O 0.12546 0.59806 0.72448 0.0
O2231 O 0.17975 0.63614 0.76483 0.0
O2232 O 0.15029 0.59316 0.75504 0.0
O2233 O 0.11891 0.59234 0.7574 0.0
O2234 O 0.08628 0.62611 0.72427 0.0
O2235 O 0.11928 0.63039 0.76661 0.0
O2236 O 0.14554 0.61626 0.77477 0.0
O2237 O 0.09615 0.59992 0.71897 0.0
O2238 O 0.12306 0.63431 0.72454 0.0
O2239 O 0.14629 0.64216 0.74545 0.0
C2240 C 0.13976 0.60073 0.71343 0.0
C2241 C 0.20671 0.62313 0.7772 0.0
C2242 C 0.23288 0.6148 0.79688 0.0
C2243 C 0.24389 0.62056 0.78116 0.0
C2244 C 0.21795 0.62891 0.76171 0.0
C2245 C 0.23645 0.62765 0.76375 0.0
C2246 C 0.21426 0.61623 0.79486 0.0
C2247 C 0.135 0.58542 0.75932 0.0
C2248 C 0.18715 0.62337 0.77513 0.0
C2249 C 0.21356 0.61982 0.689 0.0
C2250 C 0.21444 0.60155 0.693 0.0
C2251 C 0.13041 0.62364 0.77988 0.0
C2252 C 0.0667 0.60515 0.7083 0.0
C2253 C 0.04196 0.60434 0.6846 0.0
C2254 C 0.03561 0.5888 0.69379 0.0
C2255 C 0.06001 0.58956 0.7172 0.0
C2256 C 0.05746 0.61263 0.69195 0.0
C2257 C 0.04454 0.58153 0.71007 0.0
C2258 C 0.1359 0.64513 0.72992 0.0
C2259 C 0.08466 0.61185 0.71355 0.0
H2260 H 0.25828 0.6199 0.78253 0.0
H2261 H 0.21248 0.63434 0.74805 0.0
H2262 H 0.24506 0.63219 0.7518 0.0
H2263 H 0.20566 0.61177 0.80692 0.0
H2264 H 0.02381 0.58218 0.68815 0.0
H2265 H 0.06704 0.58307 0.72912 0.0
H2266 H 0.06272 0.6243 0.68444 0.0
H2267 H 0.03971 0.56938 0.71688 0.0
Tb2268 Tb 0.13108 0.41284 0.49731 0.0
C2269 C 0.13612 0.32669 0.52437 0.0
N2270 N 0.14764 0.33587 0.51243 0.0
C2271 C 0.17216 0.31855 0.52507 0.0
C2272 C 0.1424 0.31354 0.53771 0.0
C2273 C 0.16535 0.33127 0.51186 0.0
C2274 C 0.16069 0.30983 0.53825 0.0
C2275 C 0.10555 0.31958 0.53372 0.0
C2276 C 0.1178 0.32942 0.52216 0.0
C2277 C 0.11186 0.307 0.54755 0.0
C2278 C 0.13021 0.30395 0.54948 0.0
Tb2279 Tb 0.13393 0.35502 0.49074 0.0
N2280 N 0.11198 0.34149 0.50843 0.0
C2281 C 0.08727 0.32247 0.53082 0.0
C2282 C 0.0942 0.34394 0.50504 0.0
C2283 C 0.08159 0.33464 0.51635 0.0
H2284 H 0.17429 0.33702 0.50093 0.0
H2285 H 0.06749 0.33671 0.51377 0.0
H2286 H 0.08909 0.42526 0.48649 0.0
H2287 H 0.1937 0.44298 0.47574 0.0
H2288 H 0.08976 0.35289 0.49351 0.0
H2289 H 0.07745 0.31517 0.53944 0.0
H2290 H 0.17373 0.42599 0.49793 0.0
H2291 H 0.1862 0.3152 0.52475 0.0
H2292 H 0.10264 0.29931 0.55656 0.0
H2293 H 0.13483 0.29386 0.55985 0.0
H2294 H 0.07423 0.44197 0.45975 0.0
H2295 H 0.16599 0.29977 0.54824 0.0
H2296 H 0.1816 0.4578 0.44568 0.0
N2297 N 0.11513 0.42848 0.47423 0.0
C2298 C 0.1253 0.43788 0.46102 0.0
C2299 C 0.08858 0.44052 0.45955 0.0
C2300 C 0.11738 0.448 0.44567 0.0
C2301 C 0.09705 0.43066 0.4745 0.0
C2302 C 0.09876 0.44891 0.4448 0.0
N2303 N 0.15085 0.42964 0.47959 0.0
C2304 C 0.16841 0.43178 0.48448 0.0
C2305 C 0.15452 0.44895 0.45114 0.0
C2306 C 0.14367 0.43865 0.46391 0.0
C2307 C 0.17281 0.45007 0.45519 0.0
C2308 C 0.17971 0.44169 0.47213 0.0
H2309 H 0.09221 0.45683 0.43344 0.0
H2310 H 0.12234 0.46522 0.42023 0.0
H2311 H 0.15488 0.46582 0.42486 0.0
O2312 O 0.1459 0.42709 0.51868 0.0
O2313 O 0.14642 0.40344 0.47099 0.0
O2314 O 0.14483 0.3721 0.46654 0.0
O2315 O 0.11747 0.43107 0.51535 0.0
O2316 O 0.14351 0.38803 0.50059 0.0
O2317 O 0.15973 0.36486 0.50078 0.0
O2318 O 0.11987 0.33639 0.4729 0.0
O2319 O 0.12255 0.36569 0.51961 0.0
O2320 O 0.12962 0.3961 0.52431 0.0
O2321 O 0.14849 0.33841 0.47186 0.0
O2322 O 0.11783 0.37548 0.47539 0.0
O2323 O 0.10571 0.39878 0.4924 0.0
C2324 C 0.14926 0.3885 0.46082 0.0
C2325 C 0.13449 0.45581 0.52541 0.0
C2326 C 0.13872 0.48243 0.54552 0.0
C2327 C 0.13649 0.49294 0.52835 0.0
C2328 C 0.13233 0.46655 0.50839 0.0
C2329 C 0.13343 0.48502 0.50987 0.0
C2330 C 0.13787 0.46381 0.54401 0.0
C2331 C 0.1592 0.38161 0.50427 0.0
C2332 C 0.13207 0.43642 0.52416 0.0
C2333 C 0.12821 0.45761 0.43232 0.0
C2334 C 0.14674 0.45802 0.435 0.0
C2335 C 0.1249 0.38009 0.53097 0.0
C2336 C 0.13667 0.31076 0.46292 0.0
C2337 C 0.14043 0.28553 0.44055 0.0
C2338 C 0.14691 0.27535 0.4566 0.0
C2339 C 0.14285 0.30022 0.47881 0.0
C2340 C 0.13516 0.30323 0.44379 0.0
C2341 C 0.14797 0.28264 0.47564 0.0
C2342 C 0.10367 0.38409 0.48182 0.0
C2343 C 0.13453 0.33012 0.46515 0.0
H2344 H 0.1369 0.50732 0.52933 0.0
H2345 H 0.12942 0.46073 0.49405 0.0
H2346 H 0.13158 0.49322 0.49672 0.0
H2347 H 0.13918 0.45565 0.55733 0.0
H2348 H 0.15099 0.26167 0.45443 0.0
H2349 H 0.14421 0.30559 0.49356 0.0
H2350 H 0.13065 0.3113 0.43132 0.0
H2351 H 0.15297 0.27471 0.48794 0.0
Tb2352 Tb 0.3372 0.62069 0.27657 0.0
C2353 C 0.41937 0.61167 0.2561 0.0
N2354 N 0.40862 0.60073 0.26689 0.0
C2355 C 0.4205 0.57527 0.25011 0.0
C2356 C 0.43113 0.60474 0.24169 0.0
C2357 C 0.40919 0.58273 0.26443 0.0
C2358 C 0.43153 0.58631 0.23869 0.0
C2359 C 0.42857 0.6417 0.24763 0.0
C2360 C 0.41801 0.62997 0.25904 0.0
C2361 C 0.44064 0.63482 0.23356 0.0
C2362 C 0.442 0.6164 0.23072 0.0
Tb2363 Tb 0.39144 0.61453 0.28992 0.0
N2364 N 0.40612 0.63622 0.27278 0.0
C2365 C 0.4267 0.66 0.25073 0.0
C2366 C 0.40457 0.65402 0.27621 0.0
C2367 C 0.41469 0.66616 0.2651 0.0
H2368 H 0.40108 0.57407 0.27358 0.0
H2369 H 0.41336 0.68028 0.26778 0.0
H2370 H 0.32817 0.66053 0.29641 0.0
H2371 H 0.30438 0.55743 0.28608 0.0
H2372 H 0.39589 0.65901 0.28767 0.0
H2373 H 0.43456 0.66946 0.24223 0.0
H2374 H 0.32339 0.57955 0.26888 0.0
H2375 H 0.42081 0.56101 0.24802 0.0
H2376 H 0.44896 0.64363 0.22474 0.0
H2377 H 0.45141 0.61131 0.21986 0.0
H2378 H 0.31226 0.67198 0.32588 0.0
H2379 H 0.44031 0.58049 0.22763 0.0
H2380 H 0.28795 0.56585 0.31675 0.0
N2381 N 0.32153 0.63348 0.30222 0.0
C2382 C 0.31061 0.62238 0.31267 0.0
C2383 C 0.31194 0.65792 0.32255 0.0
C2384 C 0.30078 0.62838 0.32927 0.0
C2385 C 0.32134 0.65129 0.3061 0.0
C2386 C 0.30191 0.64635 0.33445 0.0
N2387 N 0.31864 0.59984 0.29026 0.0
C2388 C 0.31651 0.58325 0.28242 0.0
C2389 C 0.29762 0.59299 0.31641 0.0
C2390 C 0.30884 0.60503 0.30625 0.0
C2391 C 0.29629 0.57557 0.30926 0.0
C2392 C 0.3056 0.57075 0.29201 0.0
H2393 H 0.29459 0.65152 0.34712 0.0
H2394 H 0.28241 0.62069 0.35282 0.0
H2395 H 0.2798 0.58962 0.34165 0.0
O2396 O 0.32262 0.61201 0.25112 0.0
O2397 O 0.34433 0.60375 0.30267 0.0
O2398 O 0.37133 0.61445 0.31407 0.0
O2399 O 0.31889 0.638 0.26327 0.0
O2400 O 0.35172 0.59828 0.26369 0.0
O2401 O 0.37507 0.59139 0.28584 0.0
O2402 O 0.41385 0.62221 0.30743 0.0
O2403 O 0.38311 0.61496 0.25836 0.0
O2404 O 0.35904 0.63339 0.25964 0.0
O2405 O 0.40409 0.59515 0.30701 0.0
O2406 O 0.37744 0.63642 0.30395 0.0
O2407 O 0.35364 0.64417 0.28339 0.0
C2408 C 0.35709 0.60434 0.31626 0.0
C2409 C 0.29335 0.62494 0.24852 0.0
C2410 C 0.26671 0.61534 0.22999 0.0
C2411 C 0.2562 0.62591 0.24271 0.0
C2412 C 0.28224 0.63494 0.26122 0.0
C2413 C 0.26389 0.6355 0.25819 0.0
C2414 C 0.28545 0.61508 0.23283 0.0
C2415 C 0.36325 0.58736 0.27213 0.0
C2416 C 0.31309 0.62644 0.25047 0.0
C2417 C 0.28989 0.61637 0.33985 0.0
C2418 C 0.28832 0.5987 0.33344 0.0
C2419 C 0.37105 0.62468 0.24921 0.0
C2420 C 0.43266 0.5993 0.32183 0.0
C2421 C 0.45581 0.59969 0.34748 0.0
C2422 C 0.46144 0.58281 0.3412 0.0
C2423 C 0.43874 0.58254 0.31557 0.0
C2424 C 0.44148 0.608 0.33764 0.0
C2425 C 0.45307 0.57439 0.32523 0.0
C2426 C 0.36392 0.64668 0.29909 0.0
C2427 C 0.41536 0.60625 0.31486 0.0
H2428 H 0.24193 0.62706 0.24049 0.0
H2429 H 0.28772 0.64279 0.27329 0.0
H2430 H 0.25558 0.64362 0.26774 0.0
H2431 H 0.29382 0.60746 0.22282 0.0
H2432 H 0.47237 0.57613 0.34872 0.0
H2433 H 0.43202 0.57544 0.3037 0.0
H2434 H 0.43664 0.62073 0.34295 0.0
H2435 H 0.45748 0.56134 0.3206 0.0
Tb2436 Tb 0.12824 0.58386 0.03092 0.0
C2437 C 0.13265 0.66703 0.99981 0.0
N2438 N 0.14491 0.65782 1.01078 0.0
C2439 C 0.16871 0.67252 0.99308 0.0
C2440 C 0.1381 0.67893 0.98462 0.0
C2441 C 0.1628 0.6611 1.00817 0.0
C2442 C 0.15633 0.68132 0.98111 0.0
C2443 C 0.10161 0.67465 0.99324 0.0
C2444 C 0.11449 0.66501 1.00412 0.0
C2445 C 0.10708 0.68627 0.97797 0.0
C2446 C 0.12523 0.68838 0.97367 0.0
Tb2447 Tb 0.1323 0.64094 0.03568 0.0
N2448 N 0.10943 0.6533 0.01864 0.0
C2449 C 0.08357 0.67233 0.99803 0.0
C2450 C 0.09197 0.65161 0.02403 0.0
C2451 C 0.07874 0.66086 1.01358 0.0
H2452 H 0.17276 0.65565 0.0181 0.0
H2453 H 0.06486 0.65933 0.01768 0.0
H2454 H 0.08698 0.57458 0.04809 0.0
H2455 H 0.1909 0.5502 0.04435 0.0
H2456 H 0.08823 0.64341 0.03655 0.0
H2457 H 0.07328 0.67952 0.99 0.0
H2458 H 0.16968 0.56799 0.02469 0.0
H2459 H 0.18285 0.67485 0.99101 0.0
H2460 H 0.09735 0.69377 0.96944 0.0
H2461 H 0.12921 0.69754 0.96196 0.0
H2462 H 0.07433 0.55911 0.07715 0.0
H2463 H 0.161 0.69035 0.96959 0.0
H2464 H 0.18134 0.53658 0.07631 0.0
N2465 N 0.114 0.56932 0.0562 0.0
C2466 C 0.12498 0.55946 0.06809 0.0
C2467 C 0.08864 0.55944 0.07504 0.0
C2468 C 0.11823 0.55002 0.08465 0.0
C2469 C 0.09593 0.56858 0.05876 0.0
C2470 C 0.09988 0.55039 0.08824 0.0
N2471 N 0.14888 0.56627 0.04625 0.0
C2472 C 0.16557 0.56289 0.03901 0.0
C2473 C 0.15444 0.54699 0.07435 0.0
C2474 C 0.1429 0.55775 0.06289 0.0
C2475 C 0.17206 0.54474 0.0679 0.0
C2476 C 0.17754 0.55244 0.04992 0.0
H2477 H 0.09424 0.54302 0.10063 0.0
H2478 H 0.1249 0.53282 0.1096 0.0
H2479 H 0.15662 0.53032 0.10068 0.0
O2480 O 0.14026 0.5688 1.00822 0.0
O2481 O 0.14359 0.59357 0.05736 0.0
O2482 O 0.14576 0.6253 0.05995 0.0
O2483 O 0.11215 0.56576 0.01535 0.0
O2484 O 0.14093 0.60833 0.02735 0.0
O2485 O 0.15849 0.63033 0.02845 0.0
O2486 O 0.11979 0.65577 0.05866 0.0
O2487 O 0.11945 0.62915 1.00792 0.0
O2488 O 0.12912 0.59968 1.00315 0.0
O2489 O 0.14324 0.66537 0.04395 0.0
O2490 O 0.11589 0.62207 0.05323 0.0
O2491 O 0.10356 0.59895 0.03548 0.0
C2492 C 0.14857 0.60864 0.06648 0.0
C2493 C 0.12784 0.54027 1.00398 0.0
C2494 C 0.13585 0.51377 0.98502 0.0
C2495 C 0.13265 0.50332 1.00205 0.0
C2496 C 0.12459 0.52956 0.02082 0.0
C2497 C 0.12696 0.51118 0.0198 0.0
C2498 C 0.13334 0.53229 0.98601 0.0
C2499 C 0.15694 0.6139 0.02389 0.0
C2500 C 0.1257 0.55973 1.00497 0.0
C2501 C 0.12986 0.53994 0.09665 0.0
C2502 C 0.14792 0.53848 0.09155 0.0
C2503 C 0.1232 0.61519 0.99625 0.0
C2504 C 0.1402 0.67331 0.07728 0.0
C2505 C 0.14345 0.69493 0.10402 0.0
C2506 C 0.15957 0.68685 0.10959 0.0
C2507 C 0.15615 0.66516 0.08341 0.0
C2508 C 0.13368 0.68807 0.08786 0.0
C2509 C 0.16576 0.67189 0.09949 0.0
C2510 C 0.10191 0.61261 0.04773 0.0
C2511 C 0.13196 0.66809 0.05827 0.0
H2512 H 0.1342 0.489 1.00148 0.0
H2513 H 0.12019 0.53538 0.03474 0.0
H2514 H 0.12432 0.50298 0.03279 0.0
H2515 H 0.13572 0.54044 0.97287 0.0
H2516 H 0.16747 0.69238 0.12159 0.0
H2517 H 0.1616 0.65414 0.07512 0.0
H2518 H 0.12163 0.69473 0.08293 0.0
H2519 H 0.17829 0.66581 0.10372 0.0
Tb2520 Tb 0.16244 0.37646 0.78103 0.0
C2521 C 0.08046 0.37996 0.75007 0.0
N2522 N 0.08921 0.39244 0.76111 0.0
C2523 C 0.0749 0.4157 0.74211 0.0
C2524 C 0.06909 0.38501 0.7342 0.0
C2525 C 0.08572 0.41019 0.75791 0.0
C2526 C 0.06673 0.40308 0.73005 0.0
C2527 C 0.07284 0.3489 0.74436 0.0
C2528 C 0.0822 0.36199 0.75515 0.0
C2529 C 0.06184 0.35397 0.72838 0.0
C2530 C 0.06 0.37194 0.72331 0.0
Tb2531 Tb 0.1051 0.38045 0.78734 0.0
N2532 N 0.09321 0.35731 0.77049 0.0
C2533 C 0.07479 0.33106 0.74999 0.0
C2534 C 0.0945 0.34005 0.77665 0.0
C2535 C 0.08557 0.32664 0.76628 0.0
H2536 H 0.09046 0.42041 0.76787 0.0
H2537 H 0.08679 0.31293 0.77104 0.0
H2538 H 0.17092 0.33525 0.79858 0.0
H2539 H 0.20321 0.43557 0.7891 0.0
H2540 H 0.10208 0.33666 0.78977 0.0
H2541 H 0.06782 0.32064 0.74205 0.0
H2542 H 0.18332 0.41524 0.77108 0.0
H2543 H 0.07247 0.42972 0.73961 0.0
H2544 H 0.05458 0.34409 0.71991 0.0
H2545 H 0.05125 0.37562 0.71109 0.0
H2546 H 0.18595 0.32243 0.82786 0.0
H2547 H 0.0581 0.40744 0.71801 0.0
H2548 H 0.21546 0.42688 0.82202 0.0
N2549 N 0.1771 0.36205 0.80617 0.0
C2550 C 0.18766 0.37269 0.81755 0.0
C2551 C 0.18616 0.33666 0.82542 0.0
C2552 C 0.19697 0.36585 0.83415 0.0
C2553 C 0.17722 0.34406 0.80907 0.0
C2554 C 0.1958 0.34767 0.83823 0.0
N2555 N 0.18251 0.39594 0.79448 0.0
C2556 C 0.18798 0.41145 0.78572 0.0
C2557 C 0.20246 0.40116 0.82205 0.0
C2558 C 0.19055 0.39014 0.81146 0.0
C2559 C 0.20642 0.418 0.8143 0.0
C2560 C 0.19952 0.42296 0.79576 0.0
H2561 H 0.20315 0.34194 0.85057 0.0
H2562 H 0.21487 0.37213 0.85855 0.0
H2563 H 0.21953 0.40313 0.84804 0.0
O2564 O 0.17666 0.38698 0.75671 0.0
O2565 O 0.15361 0.39204 0.80772 0.0
O2566 O 0.12171 0.39253 0.81203 0.0
O2567 O 0.17899 0.35913 0.76487 0.0
O2568 O 0.13808 0.39024 0.77946 0.0
O2569 O 0.11502 0.40671 0.78029 0.0
O2570 O 0.08896 0.36842 0.80969 0.0
O2571 O 0.11778 0.36724 0.76035 0.0
O2572 O 0.14585 0.37971 0.75433 0.0
O2573 O 0.08074 0.39219 0.7948 0.0
O2574 O 0.12378 0.364 0.80495 0.0
O2575 O 0.14672 0.35214 0.78608 0.0
C2576 C 0.1386 0.39608 0.8178 0.0
C2577 C 0.20474 0.37371 0.75198 0.0
C2578 C 0.23111 0.38194 0.73253 0.0
C2579 C 0.24183 0.3782 0.74921 0.0
C2580 C 0.21576 0.37 0.76844 0.0
C2581 C 0.23419 0.3722 0.767 0.0
C2582 C 0.2125 0.37956 0.73393 0.0
C2583 C 0.13157 0.40593 0.77582 0.0
C2584 C 0.18519 0.37211 0.7537 0.0
C2585 C 0.20789 0.37712 0.84552 0.0
C2586 C 0.21057 0.39477 0.83952 0.0
C2587 C 0.13055 0.37299 0.74795 0.0
C2588 C 0.07091 0.38892 0.82762 0.0
C2589 C 0.04996 0.39013 0.85539 0.0
C2590 C 0.05799 0.40592 0.86193 0.0
C2591 C 0.07823 0.40513 0.83392 0.0
C2592 C 0.05652 0.38153 0.83827 0.0
C2593 C 0.07203 0.41342 0.85116 0.0
C2594 C 0.1336 0.35036 0.79921 0.0
C2595 C 0.07696 0.38089 0.80878 0.0
H2596 H 0.2562 0.37962 0.74836 0.0
H2597 H 0.21013 0.36544 0.78244 0.0
H2598 H 0.2426 0.36923 0.77971 0.0
H2599 H 0.20411 0.38244 0.72113 0.0
H2600 H 0.05301 0.41274 0.87503 0.0
H2601 H 0.08828 0.41163 0.825 0.0
H2602 H 0.05023 0.36944 0.83304 0.0
H2603 H 0.07781 0.4259 0.85588 0.0
Tb2604 Tb 0.36759 0.40872 0.5287 0.0
C2605 C 0.3657 0.32594 0.49912 0.0
N2606 N 0.35313 0.3356 0.50907 0.0
C2607 C 0.33032 0.32377 0.48759 0.0
C2608 C 0.36102 0.31516 0.48273 0.0
C2609 C 0.33547 0.33416 0.50385 0.0
C2610 C 0.34313 0.3143 0.47693 0.0
C2611 C 0.39679 0.31741 0.49511 0.0
C2612 C 0.38347 0.32711 0.50517 0.0
C2613 C 0.39212 0.30668 0.47881 0.0
C2614 C 0.37431 0.30559 0.47262 0.0
Tb2615 Tb 0.36403 0.35082 0.53615 0.0
N2616 N 0.38769 0.33799 0.52071 0.0
C2617 C 0.41442 0.31869 0.50184 0.0
C2618 C 0.40466 0.33863 0.52791 0.0
C2619 C 0.41834 0.32922 0.51843 0.0
H2620 H 0.325 0.34045 0.51227 0.0
H2621 H 0.43183 0.32985 0.52413 0.0
H2622 H 0.40917 0.41922 0.54379 0.0
H2623 H 0.30406 0.43986 0.54447 0.0
H2624 H 0.40752 0.34577 0.54141 0.0
H2625 H 0.42504 0.31137 0.49457 0.0
H2626 H 0.32519 0.42244 0.52436 0.0
H2627 H 0.3164 0.32288 0.48345 0.0
H2628 H 0.40219 0.29914 0.47088 0.0
H2629 H 0.37094 0.29726 0.46 0.0
H2630 H 0.42236 0.43598 0.57162 0.0
H2631 H 0.33903 0.30621 0.46438 0.0
H2632 H 0.31455 0.45526 0.57487 0.0
N2633 N 0.38232 0.42459 0.55248 0.0
C2634 C 0.37148 0.43459 0.56436 0.0
C2635 C 0.40801 0.43549 0.5699 0.0
C2636 C 0.37853 0.44471 0.58019 0.0
C2637 C 0.40043 0.42573 0.55431 0.0
C2638 C 0.397 0.44473 0.58312 0.0
N2639 N 0.34693 0.42603 0.54432 0.0
C2640 C 0.32973 0.42826 0.53808 0.0
C2641 C 0.34183 0.44617 0.57163 0.0
C2642 C 0.35331 0.43549 0.56004 0.0
C2643 C 0.3238 0.44727 0.56629 0.0
C2644 C 0.31781 0.43853 0.54921 0.0
H2645 H 0.40294 0.45234 0.59513 0.0
H2646 H 0.3722 0.46252 0.60459 0.0
H2647 H 0.34009 0.46366 0.59718 0.0
O2648 O 0.35415 0.42301 0.50602 0.0
O2649 O 0.3532 0.39951 0.55579 0.0
O2650 O 0.35381 0.36802 0.5608 0.0
O2651 O 0.38228 0.42717 0.51183 0.0
O2652 O 0.35451 0.38413 0.52552 0.0
O2653 O 0.33768 0.36192 0.5315 0.0
O2654 O 0.37476 0.33269 0.5573 0.0
O2655 O 0.37262 0.36139 0.50633 0.0
O2656 O 0.37127 0.39259 0.50172 0.0
O2657 O 0.34929 0.3282 0.54392 0.0
O2658 O 0.38394 0.36734 0.55219 0.0
O2659 O 0.39212 0.39353 0.53473 0.0
C2660 C 0.35022 0.38473 0.5664 0.0
C2661 C 0.36596 0.45191 0.49935 0.0
C2662 C 0.35991 0.47819 0.47846 0.0
C2663 C 0.36275 0.489 0.49523 0.0
C2664 C 0.36877 0.46314 0.51576 0.0
C2665 C 0.36721 0.48153 0.51366 0.0
C2666 C 0.36169 0.45953 0.48056 0.0
C2667 C 0.33839 0.37798 0.5249 0.0
C2668 C 0.36831 0.4324 0.50159 0.0
C2669 C 0.36702 0.45485 0.59221 0.0
C2670 C 0.34873 0.45554 0.58797 0.0
C2671 C 0.37372 0.37611 0.4953 0.0
C2672 C 0.35327 0.31667 0.57626 0.0
C2673 C 0.35369 0.29669 0.60509 0.0
C2674 C 0.33797 0.30469 0.61213 0.0
C2675 C 0.33726 0.32404 0.58329 0.0
C2676 C 0.36136 0.30275 0.58709 0.0
C2677 C 0.32977 0.31822 0.60121 0.0
C2678 C 0.39467 0.38108 0.54856 0.0
C2679 C 0.36076 0.32251 0.55694 0.0
H2680 H 0.36183 0.50334 0.49398 0.0
H2681 H 0.37239 0.45772 0.53018 0.0
H2682 H 0.36957 0.49006 0.52637 0.0
H2683 H 0.35975 0.45103 0.4677 0.0
H2684 H 0.33173 0.30007 0.6258 0.0
H2685 H 0.33029 0.33396 0.57462 0.0
H2686 H 0.3734 0.29654 0.58146 0.0
H2687 H 0.3174 0.32399 0.60645 0.0
H2688 H 0.26227 0.11688 0.22722 0.0
H2689 H 0.28282 0.10564 0.20187 0.0
H2690 H 0.23849 0.09479 0.1628 0.0
H2691 H 0.21778 0.10618 0.18822 0.0
H2692 H 0.27696 0.07081 0.16373 0.0
H2693 H 0.24733 0.1288 0.15082 0.0
H2694 H 0.23557 0.1565 0.16545 0.0
H2695 H 0.2873 0.16842 0.18948 0.0
H2696 H 0.29924 0.14055 0.17534 0.0
H2697 H 0.32681 0.07692 0.07526 0.0
H2698 H 0.30445 0.07672 0.10071 0.0
H2699 H 0.32897 0.12266 0.12795 0.0
H2700 H 0.34943 0.12499 0.09958 0.0
H2701 H 0.2984 0.12728 0.13355 0.0
H2702 H 0.32954 0.07084 0.14452 0.0
H2703 H 0.34085 0.04082 0.13667 0.0
H2704 H 0.28805 0.02413 0.12045 0.0
H2705 H 0.27645 0.05401 0.12816 0.0
C2706 C 0.25686 0.11131 0.2136 0.0
C2707 C 0.23852 0.11255 0.2095 0.0
C2708 C 0.26859 0.10487 0.19917 0.0
C2709 C 0.26215 0.0996 0.18047 0.0
C2710 C 0.24366 0.09873 0.17724 0.0
C2711 C 0.23185 0.10522 0.19173 0.0
C2712 C 0.27467 0.0992 0.16342 0.0
C2713 C 0.2816 0.08304 0.15681 0.0
C2714 C 0.28092 0.11524 0.15498 0.0
C2715 C 0.27415 0.13263 0.16205 0.0
C2716 C 0.25619 0.13736 0.15919 0.0
C2717 C 0.24949 0.15306 0.16743 0.0
C2718 C 0.2607 0.16424 0.17834 0.0
C2719 C 0.27865 0.15977 0.18097 0.0
C2720 C 0.28539 0.14403 0.17284 0.0
C2721 C 0.32735 0.0873 0.08631 0.0
C2722 C 0.3397 0.10135 0.08479 0.0
C2723 C 0.3147 0.08679 0.1015 0.0
C2724 C 0.31509 0.09923 0.11705 0.0
C2725 C 0.32809 0.11282 0.11622 0.0
C2726 C 0.34001 0.11409 0.10006 0.0
C2727 C 0.30143 0.09863 0.13346 0.0
C2728 C 0.2941 0.11481 0.14014 0.0
C2729 C 0.29499 0.08245 0.14208 0.0
C2730 C 0.30216 0.06468 0.13687 0.0
C2731 C 0.32038 0.06079 0.13918 0.0
C2732 C 0.32682 0.04379 0.13481 0.0
C2733 C 0.31516 0.03057 0.12814 0.0
C2734 C 0.29706 0.03436 0.12568 0.0
C2735 C 0.29054 0.0513 0.13009 0.0
H2736 H 0.32014 0.01739 0.1249 0.0
H2737 H 0.25547 0.17634 0.1848 0.0
H2738 H 0.16196 0.07511 0.32074 0.0
H2739 H 0.1637 0.05454 0.34842 0.0
H2740 H 0.12089 0.08243 0.3779 0.0
H2741 H 0.11972 0.10394 0.35012 0.0
H2742 H 0.14601 0.07455 0.40394 0.0
H2743 H 0.11743 0.03974 0.35146 0.0
H2744 H 0.11334 0.02264 0.32042 0.0
H2745 H 0.16049 0.99229 0.33337 0.0
H2746 H 0.1653 0.00968 0.3639 0.0
H2747 H 0.11577 0.00792 0.47062 0.0
H2748 H 0.12396 0.03207 0.448 0.0
H2749 H 0.1638 -0.00158 0.42087 0.0
H2750 H 0.15518 0.97406 0.44335 0.0
H2751 H 0.14362 0.00937 0.394 0.0
H2752 H 0.17463 0.04149 0.44335 0.0
H2753 H 0.18051 0.05479 0.47632 0.0
H2754 H 0.13368 0.08731 0.47048 0.0
H2755 H 0.12752 0.07415 0.43748 0.0
C2756 C 0.15308 0.07721 0.33316 0.0
C2757 C 0.14092 0.09153 0.33318 0.0
C2758 C 0.15386 0.06508 0.34895 0.0
C2759 C 0.14223 0.06658 0.36523 0.0
C2760 C 0.13 0.08086 0.36546 0.0
C2761 C 0.1293 0.09318 0.34956 0.0
C2762 C 0.14334 0.05365 0.38224 0.0
C2763 C 0.14526 0.06028 0.40172 0.0
C2764 C 0.14357 0.03492 0.37951 0.0
C2765 C 0.14187 0.02624 0.35979 0.0
C2766 C 0.12719 0.02976 0.34738 0.0
C2767 C 0.1247 0.01994 0.32991 0.0
C2768 C 0.13675 0.0065 0.32477 0.0
C2769 C 0.15136 0.00292 0.33706 0.0
C2770 C 0.154 0.01279 0.35441 0.0
C2771 C 0.1267 0.00592 0.46027 0.0
C2772 C 0.13478 0.98912 0.45862 0.0
C2773 C 0.1315 0.0198 0.44739 0.0
C2774 C 0.14452 0.01722 0.43257 0.0
C2775 C 0.15368 0.00084 0.43209 0.0
C2776 C 0.14886 0.98692 0.44503 0.0
C2777 C 0.14615 0.0302 0.41564 0.0
C2778 C 0.14469 0.02361 0.3962 0.0
C2779 C 0.147 0.04884 0.41833 0.0
C2780 C 0.15053 0.05672 0.43811 0.0
C2781 C 0.16553 0.05138 0.44919 0.0
C2782 C 0.16894 0.05894 0.46783 0.0
C2783 C 0.15744 0.07185 0.47552 0.0
C2784 C 0.14256 0.07731 0.46452 0.0
C2785 C 0.13913 0.06985 0.44582 0.0
H2786 H 0.16008 0.07765 0.48999 0.0
H2787 H 0.13474 -0.00114 0.31128 0.0
H2788 H 0.27558 0.87429 0.68965 0.0
H2789 H 0.25651 0.8837 0.66182 0.0
H2790 H 0.21909 0.90626 0.70367 0.0
H2791 H 0.23811 0.89668 0.73144 0.0
H2792 H 0.20376 0.88142 0.68213 0.0
H2793 H 0.23846 0.93269 0.66742 0.0
H2794 H 0.26624 0.9495 0.66163 0.0
H2795 H 0.27751 0.91766 0.61003 0.0
H2796 H 0.24986 0.90055 0.6156 0.0
H2797 H 0.14638 0.91083 0.59854 0.0
H2798 H 0.16782 0.91377 0.62604 0.0
H2799 H 0.19659 0.86821 0.60414 0.0
H2800 H 0.17484 0.86498 0.57689 0.0
H2801 H 0.21535 0.90881 0.61588 0.0
H2802 H 0.18393 0.85411 0.63606 0.0
H2803 H 0.15757 0.83596 0.64438 0.0
H2804 H 0.14141 0.87451 0.68798 0.0
H2805 H 0.16749 0.89313 0.67949 0.0
C2806 C 0.2637 0.88198 0.6928 0.0
C2807 C 0.25828 0.88479 0.71263 0.0
C2808 C 0.25275 0.88733 0.67689 0.0
C2809 C 0.23622 0.89557 0.68062 0.0
C2810 C 0.23169 0.89984 0.7004 0.0
C2811 C 0.24258 0.89444 0.71626 0.0
C2812 C 0.22244 0.8967 0.66459 0.0
C2813 C 0.20623 0.88777 0.66781 0.0
C2814 C 0.22568 0.90468 0.64574 0.0
C2815 C 0.2421 0.91525 0.64199 0.0
C2816 C 0.24689 0.92922 0.65488 0.0
C2817 C 0.26261 0.93882 0.65162 0.0
C2818 C 0.27366 0.93462 0.6355 0.0
C2819 C 0.26894 0.92089 0.62252 0.0
C2820 C 0.25321 0.91127 0.62568 0.0
C2821 C 0.15718 0.90135 0.59973 0.0
C2822 C 0.15896 0.88768 0.58562 0.0
C2823 C 0.16945 0.90309 0.61538 0.0
C2824 C 0.18392 0.89134 0.61698 0.0
C2825 C 0.18555 0.87746 0.60311 0.0
C2826 C 0.17299 0.87545 0.58776 0.0
C2827 C 0.19701 0.89321 0.63351 0.0
C2828 C 0.21293 0.90275 0.63036 0.0
C2829 C 0.19361 0.88581 0.65254 0.0
C2830 C 0.17738 0.87522 0.65677 0.0
C2831 C 0.17451 0.85894 0.64704 0.0
C2832 C 0.15969 0.84851 0.65188 0.0
C2833 C 0.14776 0.85413 0.66662 0.0
C2834 C 0.1506 0.87023 0.67648 0.0
C2835 C 0.16537 0.88075 0.67161 0.0
H2836 H 0.13637 0.84597 0.67047 0.0
H2837 H 0.28586 0.94201 0.63305 0.0
H2838 H 0.33006 0.91203 0.83373 0.0
H2839 H 0.32758 0.93052 0.86307 0.0
H2840 H 0.38377 0.92347 0.87407 0.0
H2841 H 0.3859 0.9045 0.84424 0.0
H2842 H 0.33672 0.92377 0.90341 0.0
H2843 H 0.39623 0.95162 0.88006 0.0
H2844 H 0.41639 0.96782 0.85729 0.0
H2845 H 0.37278 0.00054 0.83765 0.0
H2846 H 0.35229 0.98407 0.85986 0.0
H2847 H 0.36694 0.97893 0.98242 0.0
H2848 H 0.35654 0.95775 0.95758 0.0
H2849 H 0.33912 0.0012 0.92008 0.0
H2850 H 0.35007 0.0224 0.94499 0.0
H2851 H 0.36426 0.98363 0.90288 0.0
H2852 H 0.31002 0.96529 0.93385 0.0
H2853 H 0.29051 0.95526 0.96135 0.0
H2854 H 0.32262 0.90843 0.96895 0.0
H2855 H 0.34238 0.91824 0.94159 0.0
C2856 C 0.34179 0.91414 0.84233 0.0
C2857 C 0.35825 0.90743 0.83591 0.0
C2858 C 0.34045 0.92493 0.85918 0.0
C2859 C 0.35568 0.92929 0.87021 0.0
C2860 C 0.372 0.92127 0.86508 0.0
C2861 C 0.37324 0.9104 0.84806 0.0
C2862 C 0.35393 0.94173 0.88733 0.0
C2863 C 0.34293 0.9368 0.90343 0.0
C2864 C 0.36132 0.95904 0.88711 0.0
C2865 C 0.37261 0.96605 0.87087 0.0
C2866 C 0.39081 0.96171 0.87023 0.0
C2867 C 0.40235 0.97116 0.85768 0.0
C2868 C 0.39589 0.98524 0.84608 0.0
C2869 C 0.37779 0.98965 0.84665 0.0
C2870 C 0.36617 0.98012 0.85902 0.0
C2871 C 0.36004 0.98391 0.96933 0.0
C2872 C 0.35946 0.00228 0.96541 0.0
C2873 C 0.35402 0.97177 0.95511 0.0
C2874 C 0.34719 0.9778 0.93678 0.0
C2875 C 0.3444 0.99618 0.93407 0.0
C2876 C 0.3505 0.00834 0.94833 0.0
C2877 C 0.34734 0.96565 0.91925 0.0
C2878 C 0.35793 0.97064 0.90295 0.0
C2879 C 0.33958 0.9485 0.9194 0.0
C2880 C 0.32774 0.94257 0.9358 0.0
C2881 C 0.31298 0.95292 0.94148 0.0
C2882 C 0.30186 0.94725 0.95701 0.0
C2883 C 0.30535 0.93124 0.96692 0.0
C2884 C 0.31993 0.92082 0.96126 0.0
C2885 C 0.33106 0.92641 0.94572 0.0
H2886 H 0.29675 0.92689 0.97897 0.0
H2887 H 0.40488 0.99265 0.83653 0.0
H2888 H 0.34979 0.86676 0.42875 0.0
H2889 H 0.32929 0.8693 0.40004 0.0
H2890 H 0.30394 0.91443 0.42747 0.0
H2891 H 0.32431 0.91244 0.45529 0.0
H2892 H 0.28634 0.87213 0.40776 0.0
H2893 H 0.31008 0.93536 0.40172 0.0
H2894 H 0.33508 0.95637 0.39774 0.0
H2895 H 0.35488 0.92624 0.34814 0.0
H2896 H 0.33008 0.90488 0.352 0.0
H2897 H 0.21862 0.88628 0.33888 0.0
H2898 H 0.23877 0.89706 0.36511 0.0
H2899 H 0.28361 0.89033 0.32542 0.0
H2900 H 0.26349 0.88012 0.29919 0.0
H2901 H 0.29141 0.91544 0.35189 0.0
H2902 H 0.26706 0.85553 0.35376 0.0
H2903 H 0.24131 0.83513 0.35399 0.0
H2904 H 0.22329 0.85757 0.40937 0.0
H2905 H 0.24877 0.87838 0.40923 0.0
C2906 C 0.34008 0.87742 0.42845 0.0
C2907 C 0.339 0.88956 0.44435 0.0
C2908 C 0.32838 0.87886 0.41205 0.0
C2909 C 0.31539 0.89238 0.41137 0.0
C2910 C 0.31424 0.90433 0.42724 0.0
C2911 C 0.32602 0.90311 0.44327 0.0
C2912 C 0.30199 0.89333 0.39503 0.0
C2913 C 0.28738 0.88169 0.39563 0.0
C2914 C 0.30329 0.90581 0.37922 0.0
C2915 C 0.31853 0.91824 0.37752 0.0
C2916 C 0.32 0.93296 0.3903 0.0
C2917 C 0.33409 0.94498 0.38801 0.0
C2918 C 0.3467 0.94251 0.3729 0.0
C2919 C 0.3452 0.92805 0.35997 0.0
C2920 C 0.33115 0.91597 0.36221 0.0
C2921 C 0.23266 0.88797 0.33549 0.0
C2922 C 0.23956 0.88217 0.31712 0.0
C2923 C 0.24422 0.89397 0.35054 0.0
C2924 C 0.26283 0.89391 0.34749 0.0
C2925 C 0.26938 0.89031 0.32828 0.0
C2926 C 0.25786 0.88445 0.31326 0.0
C2927 C 0.27559 0.89433 0.36465 0.0
C2928 C 0.29018 0.90607 0.36417 0.0
C2929 C 0.2743 0.8819 0.38058 0.0
C2930 C 0.25976 0.86855 0.38144 0.0
C2931 C 0.25764 0.85606 0.36602 0.0
C2932 C 0.24305 0.84449 0.36608 0.0
C2933 C 0.23066 0.84507 0.38168 0.0
C2934 C 0.2329 0.85715 0.39729 0.0
C2935 C 0.24741 0.86884 0.39723 0.0
H2936 H 0.21934 0.83614 0.38167 0.0
H2937 H 0.35755 0.95189 0.37111 0.0
H2938 H 0.3272 0.99142 0.5618 0.0
H2939 H 0.32393 0.0103 0.59149 0.0
H2940 H 0.3811 0.00898 0.59988 0.0
H2941 H 0.38404 0.98926 0.57121 0.0
H2942 H 0.36749 0.00871 0.63341 0.0
H2943 H 0.35493 0.04438 0.5744 0.0
H2944 H 0.33798 0.05202 0.54399 0.0
H2945 H 0.29009 0.05729 0.57877 0.0
H2946 H 0.30675 0.0494 0.60935 0.0
H2947 H 0.385 0.08546 0.68944 0.0
H2948 H 0.38315 0.06494 0.66187 0.0
H2949 H 0.32598 0.07079 0.66075 0.0
H2950 H 0.32773 0.09214 0.68802 0.0
H2951 H 0.33607 0.06634 0.62596 0.0
H2952 H 0.35055 0.01647 0.67986 0.0
H2953 H 0.36905 0.00473 0.70744 0.0
H2954 H 0.41612 0.02539 0.67901 0.0
H2955 H 0.39777 0.03717 0.65136 0.0
C2956 C 0.33892 0.99489 0.57043 0.0
C2957 C 0.35584 0.98893 0.56452 0.0
C2958 C 0.33711 0.00585 0.58716 0.0
C2959 C 0.35231 0.01154 0.59768 0.0
C2960 C 0.36913 0.00489 0.59208 0.0
C2961 C 0.37086 0.99362 0.57572 0.0
C2962 C 0.35116 0.0248 0.61412 0.0
C2963 C 0.36069 0.02136 0.63166 0.0
C2964 C 0.34192 0.04116 0.61228 0.0
C2965 C 0.332 0.04609 0.59403 0.0
C2966 C 0.34076 0.04708 0.57551 0.0
C2967 C 0.33121 0.05144 0.55826 0.0
C2968 C 0.31296 0.05508 0.55944 0.0
C2969 C 0.30422 0.05442 0.57788 0.0
C2970 C 0.3137 0.04999 0.59516 0.0
C2971 C 0.37192 0.08243 0.6835 0.0
C2972 C 0.35636 0.08999 0.69175 0.0
C2973 C 0.3709 0.07023 0.6679 0.0
C2974 C 0.35432 0.06494 0.66028 0.0
C2975 C 0.33894 0.07393 0.66695 0.0
C2976 C 0.33991 0.08619 0.68264 0.0
C2977 C 0.35307 0.05058 0.64498 0.0
C2978 C 0.34281 0.05368 0.62778 0.0
C2979 C 0.36198 0.03398 0.64688 0.0
C2980 C 0.37269 0.02877 0.66439 0.0
C2981 C 0.36475 0.01906 0.67995 0.0
C2982 C 0.37523 0.01216 0.69542 0.0
C2983 C 0.39372 0.01461 0.69519 0.0
C2984 C 0.40177 0.02378 0.67938 0.0
C2985 C 0.39133 0.0306 0.66387 0.0
H2986 H 0.40182 0.00919 0.70712 0.0
H2987 H 0.30559 0.05845 0.54606 0.0
H2988 H 0.14731 0.08215 0.93273 0.0
H2989 H 0.16952 0.07827 0.90625 0.0
H2990 H 0.19665 0.12555 0.92595 0.0
H2991 H 0.17534 0.12886 0.95309 0.0
H2992 H 0.18902 0.12535 0.88521 0.0
H2993 H 0.21814 0.08869 0.9341 0.0
H2994 H 0.22416 0.06431 0.95787 0.0
H2995 H 0.21156 0.02591 0.91273 0.0
H2996 H 0.20546 0.05009 0.88865 0.0
H2997 H 0.26987 0.12559 0.83267 0.0
H2998 H 0.25141 0.12037 0.86243 0.0
H2999 H 0.22203 0.07996 0.83095 0.0
H3000 H 0.24017 0.08546 0.80099 0.0
H3001 H 0.23061 0.07455 0.87671 0.0
H3002 H 0.20217 0.11285 0.82757 0.0
H3003 H 0.20436 0.13739 0.80318 0.0
H3004 H 0.21918 0.17328 0.85011 0.0
H3005 H 0.21745 0.14878 0.87471 0.0
C3006 C 0.15833 0.09134 0.93193 0.0
C3007 C 0.15982 0.10536 0.94572 0.0
C3008 C 0.17095 0.0892 0.91662 0.0
C3009 C 0.18496 0.10143 0.91436 0.0
C3010 C 0.18613 0.11578 0.9276 0.0
C3011 C 0.17382 0.11766 0.94315 0.0
C3012 C 0.19768 0.1002 0.89736 0.0
C3013 C 0.1981 0.11423 0.88348 0.0
C3014 C 0.20944 0.08561 0.89478 0.0
C3015 C 0.21104 0.07118 0.90971 0.0
C3016 C 0.2163 0.07506 0.92937 0.0
C3017 C 0.21993 0.06129 0.94282 0.0
C3018 C 0.21834 0.04359 0.93679 0.0
C3019 C 0.21286 0.03963 0.91735 0.0
C3020 C 0.2093 0.05335 0.9038 0.0
C3021 C 0.25984 0.11523 0.83234 0.0
C3022 C 0.25633 0.10597 0.8146 0.0
C3023 C 0.24932 0.11226 0.84929 0.0
C3024 C 0.23536 0.09982 0.8488 0.0
C3025 C 0.2328 0.08953 0.83161 0.0
C3026 C 0.24309 0.09274 0.81453 0.0
C3027 C 0.22183 0.09964 0.86491 0.0
C3028 C 0.22125 0.08544 0.87843 0.0
C3029 C 0.20994 0.11404 0.86728 0.0
C3030 C 0.20979 0.12901 0.8529 0.0
C3031 C 0.20593 0.12598 0.83265 0.0
C3032 C 0.20712 0.13985 0.8188 0.0
C3033 C 0.21194 0.15688 0.82509 0.0
C3034 C 0.21546 0.16008 0.84527 0.0
C3035 C 0.21436 0.1462 0.85918 0.0
H3036 H 0.21292 0.1676 0.81433 0.0
H3037 H 0.22121 0.03296 0.94723 0.0
H3038 H 0.16468 0.91636 0.20334 0.0
H3039 H 0.16737 0.93719 0.1756 0.0
H3040 H 0.11753 0.91801 0.15187 0.0
H3041 H 0.11524 0.89666 0.17962 0.0
H3042 H 0.14369 0.92189 0.12266 0.0
H3043 H 0.12044 0.95952 0.17741 0.0
H3044 H 0.12061 0.97641 0.20895 0.0
H3045 H 0.1719 -0.0017 0.19418 0.0
H3046 H 0.17199 0.98157 0.16258 0.0
H3047 H 0.11014 0.98899 0.0602 0.0
H3048 H 0.11968 0.96504 0.08239 0.0
H3049 H 0.16213 -0.00172 0.10469 0.0
H3050 H 0.15217 0.02248 0.0826 0.0
H3051 H 0.1456 0.98691 0.13414 0.0
H3052 H 0.17095 0.95532 0.08174 0.0
H3053 H 0.17497 0.94214 0.04838 0.0
H3054 H 0.12839 0.9098 0.05728 0.0
H3055 H 0.12406 0.92286 0.09069 0.0
C3056 C 0.15466 0.91609 0.19193 0.0
C3057 C 0.14002 0.90449 0.19359 0.0
C3058 C 0.15595 0.92839 0.17625 0.0
C3059 C 0.14256 0.92941 0.16166 0.0
C3060 C 0.12803 0.91759 0.16297 0.0
C3061 C 0.1267 0.90539 0.17885 0.0
C3062 C 0.14385 0.94248 0.14485 0.0
C3063 C 0.14389 0.93613 0.12517 0.0
C3064 C 0.14551 0.96104 0.1479 0.0
C3065 C 0.14632 0.96914 0.16787 0.0
C3066 C 0.13186 0.9677 0.18109 0.0
C3067 C 0.13181 0.97745 0.19881 0.0
C3068 C 0.14621 0.98855 0.20343 0.0
C3069 C 0.16076 0.98975 0.19053 0.0
C3070 C 0.16081 0.98016 0.17274 0.0
C3071 C 0.12188 0.99094 0.06936 0.0
C3072 C 0.13044 0.00754 0.06966 0.0
C3073 C 0.12744 0.97717 0.08202 0.0
C3074 C 0.14172 0.97964 0.09533 0.0
C3075 C 0.15107 0.99592 0.09464 0.0
C3076 C 0.14549 0.00973 0.0819 0.0
C3077 C 0.14486 0.96645 0.11181 0.0
C3078 C 0.14566 0.9727 0.13146 0.0
C3079 C 0.14488 0.94782 0.1087 0.0
C3080 C 0.14707 0.94021 0.08855 0.0
C3081 C 0.16147 0.94553 0.07648 0.0
C3082 C 0.16384 0.93803 0.05761 0.0
C3083 C 0.15191 0.92519 0.05068 0.0
C3084 C 0.13761 0.91976 0.06265 0.0
C3085 C 0.13521 0.92717 0.08158 0.0
H3086 H 0.15376 0.91941 0.03605 0.0
H3087 H 0.14622 0.99618 0.21705 0.0
H3088 H 0.73473 0.87326 0.80471 0.0
H3089 H 0.7134 0.88285 0.82964 0.0
H3090 H 0.75582 0.90807 0.86276 0.0
H3091 H 0.77751 0.89711 0.83822 0.0
H3092 H 0.74028 0.8887 0.88644 0.0
H3093 H 0.71467 0.93135 0.84232 0.0
H3094 H 0.70242 0.94341 0.81088 0.0
H3095 H 0.66118 0.90377 0.81162 0.0
H3096 H 0.67324 0.89144 0.843 0.0
H3097 H 0.67687 0.90728 0.96321 0.0
H3098 H 0.69763 0.9114 0.9354 0.0
H3099 H 0.66621 0.87543 0.89974 0.0
H3100 H 0.64513 0.87178 0.92762 0.0
H3101 H 0.67662 0.90506 0.87848 0.0
H3102 H 0.70466 0.86216 0.92255 0.0
H3103 H 0.71814 0.85086 0.95371 0.0
H3104 H 0.75613 0.89358 0.95292 0.0
H3105 H 0.74259 0.90539 0.92202 0.0
C3106 C 0.73942 0.88143 0.81692 0.0
C3107 C 0.7578 0.88427 0.81962 0.0
C3108 C 0.72712 0.88709 0.83122 0.0
C3109 C 0.73278 0.89629 0.84832 0.0
C3110 C 0.751 0.90087 0.84985 0.0
C3111 C 0.76342 0.89484 0.83567 0.0
C3112 C 0.7204 0.89828 0.86578 0.0
C3113 C 0.72651 0.89285 0.88467 0.0
C3114 C 0.70218 0.90311 0.86374 0.0
C3115 C 0.69494 0.91042 0.84489 0.0
C3116 C 0.70306 0.92516 0.83569 0.0
C3117 C 0.69612 0.93206 0.81792 0.0
C3118 C 0.68106 0.92434 0.80923 0.0
C3119 C 0.67284 0.90974 0.81836 0.0
C3120 C 0.67969 0.90283 0.83616 0.0
C3121 C 0.67412 0.90073 0.94927 0.0
C3122 C 0.65918 0.88962 0.94738 0.0
C3123 C 0.68617 0.9028 0.93348 0.0
C3124 C 0.68357 0.89366 0.91546 0.0
C3125 C 0.6685 0.88265 0.91347 0.0
C3126 C 0.6565 0.88053 0.92937 0.0
C3127 C 0.69661 0.89539 0.89877 0.0
C3128 C 0.69054 0.90139 0.88014 0.0
C3129 C 0.71495 0.89141 0.90111 0.0
C3130 C 0.72246 0.88478 0.92016 0.0
C3131 C 0.71571 0.86929 0.92919 0.0
C3132 C 0.72342 0.86276 0.94675 0.0
C3133 C 0.738 0.87149 0.95527 0.0
C3134 C 0.74484 0.88683 0.94631 0.0
C3135 C 0.73713 0.89348 0.92882 0.0
H3136 H 0.74395 0.86642 0.96887 0.0
H3137 H 0.67573 0.92968 0.79544 0.0
H3138 H 0.83342 0.98835 0.5558 0.0
H3139 H 0.83001 0.97055 0.58631 0.0
H3140 H 0.86977 0.00269 0.61552 0.0
H3141 H 0.87304 0.02072 0.58516 0.0
H3142 H 0.8764 0.96339 0.60876 0.0
H3143 H 0.8344 0.00529 0.63546 0.0
H3144 H 0.80718 0.02366 0.63447 0.0
H3145 H 0.77501 0.97666 0.62967 0.0
H3146 H 0.80208 0.95798 0.63027 0.0
H3147 H 0.88491 0.91607 0.699 0.0
H3148 H 0.88206 0.93857 0.67283 0.0
H3149 H 0.82939 0.91905 0.65874 0.0
H3150 H 0.83213 0.89691 0.68539 0.0
H3151 H 0.82783 0.95298 0.65776 0.0
H3152 H 0.86805 0.91113 0.62877 0.0
H3153 H 0.89447 0.89178 0.62577 0.0
H3154 H 0.92883 0.93725 0.63043 0.0
H3155 H 0.90262 0.95684 0.63378 0.0
C3156 C 0.84106 0.9919 0.56893 0.0
C3157 C 0.85362 0.00575 0.56813 0.0
C3158 C 0.83902 0.98182 0.58633 0.0
C3159 C 0.84966 0.98536 0.60306 0.0
C3160 C 0.86139 -0.00011 0.60273 0.0
C3161 C 0.86322 0.01016 0.58543 0.0
C3162 C 0.8508 0.97213 0.61932 0.0
C3163 C 0.86597 0.96129 0.61978 0.0
C3164 C 0.83671 0.969 0.63288 0.0
C3165 C 0.82034 0.9802 0.63275 0.0
C3166 C 0.82155 -0.00115 0.634 0.0
C3167 C 0.80613 0.00933 0.63355 0.0
C3168 C 0.78938 0.00134 0.63198 0.0
C3169 C 0.78801 0.98284 0.63088 0.0
C3170 C 0.80339 0.97229 0.6313 0.0
C3171 C 0.87297 0.91625 0.68994 0.0
C3172 C 0.85883 0.90461 0.69409 0.0
C3173 C 0.87124 0.92923 0.67505 0.0
C3174 C 0.85556 0.93048 0.66353 0.0
C3175 C 0.84159 0.91851 0.66739 0.0
C3176 C 0.84321 0.90577 0.68255 0.0
C3177 C 0.85379 0.94429 0.64759 0.0
C3178 C 0.8384 0.9551 0.64693 0.0
C3179 C 0.86756 0.94725 0.63343 0.0
C3180 C 0.88336 0.93544 0.63174 0.0
C3181 C 0.88124 0.91699 0.62935 0.0
C3182 C 0.89618 0.90598 0.62756 0.0
C3183 C 0.91332 0.91328 0.62797 0.0
C3184 C 0.91555 0.9316 0.63015 0.0
C3185 C 0.90066 0.94267 0.632 0.0
H3186 H 0.92488 0.90474 0.62655 0.0
H3187 H 0.77746 0.00947 0.63166 0.0
H3188 H 0.72117 0.09349 0.33186 0.0
H3189 H 0.74408 0.08383 0.35581 0.0
H3190 H 0.78101 0.12157 0.33008 0.0
H3191 H 0.7586 0.1302 0.30558 0.0
H3192 H 0.79972 0.09727 0.34364 0.0
H3193 H 0.74879 0.12911 0.37263 0.0
H3194 H 0.71685 0.13212 0.38097 0.0
H3195 H 0.71883 0.08327 0.4143 0.0
H3196 H 0.75071 0.07984 0.40588 0.0
H3197 H 0.84949 0.12673 0.42981 0.0
H3198 H 0.82912 0.12512 0.40097 0.0
H3199 H 0.8042 0.07862 0.4264 0.0
H3200 H 0.82425 0.08008 0.45464 0.0
H3201 H 0.77938 0.103 0.41382 0.0
H3202 H 0.83143 0.07387 0.38869 0.0
H3203 H 0.86319 0.07063 0.37987 0.0
H3204 H 0.85911 0.11483 0.33935 0.0
H3205 H 0.8274 0.11858 0.34824 0.0
C3206 C 0.73447 0.09906 0.33081 0.0
C3207 C 0.73815 0.11257 0.31686 0.0
C3208 C 0.74749 0.09382 0.34478 0.0
C3209 C 0.76419 0.10249 0.34546 0.0
C3210 C 0.76829 0.11474 0.33022 0.0
C3211 C 0.75545 0.11968 0.3161 0.0
C3212 C 0.7768 0.10045 0.36278 0.0
C3213 C 0.7952 0.09871 0.35895 0.0
C3214 C 0.7711 0.10179 0.38298 0.0
C3215 C 0.75208 0.10415 0.38849 0.0
C3216 C 0.7424 0.11901 0.38172 0.0
C3217 C 0.7243 0.12077 0.38642 0.0
C3218 C 0.71581 0.10787 0.39812 0.0
C3219 C 0.72541 0.09323 0.4052 0.0
C3220 C 0.74349 0.09137 0.40047 0.0
C3221 C 0.83975 0.11611 0.42917 0.0
C3222 C 0.83869 0.10346 0.44465 0.0
C3223 C 0.82811 0.11519 0.41267 0.0
C3224 C 0.81506 0.10172 0.41149 0.0
C3225 C 0.81406 0.08914 0.42689 0.0
C3226 C 0.82577 0.08991 0.44304 0.0
C3227 C 0.80222 0.10068 0.39446 0.0
C3228 C 0.78383 0.10164 0.39847 0.0
C3229 C 0.80793 0.09878 0.37444 0.0
C3230 C 0.82706 0.09662 0.36927 0.0
C3231 C 0.83734 0.08303 0.37807 0.0
C3232 C 0.85534 0.08108 0.37303 0.0
C3233 C 0.86317 0.09254 0.35909 0.0
C3234 C 0.85303 0.10598 0.35017 0.0
C3235 C 0.83505 0.10803 0.35521 0.0
H3236 H 0.8771 0.09099 0.35516 0.0
H3237 H 0.7018 0.10925 0.40173 0.0
H3238 H 0.65579 0.00511 0.05203 0.0
H3239 H 0.66353 0.02149 0.0825 0.0
H3240 H 0.62711 0.98881 0.11629 0.0
H3241 H 0.61969 0.97211 0.086 0.0
H3242 H 0.61964 0.02799 0.11003 0.0
H3243 H 0.6645 0.98678 0.1332 0.0
H3244 H 0.69236 0.96938 0.13194 0.0
H3245 H 0.72264 0.01737 0.12432 0.0
H3246 H 0.69493 0.03507 0.12536 0.0
H3247 H 0.61788 0.0652 0.20647 0.0
H3248 H 0.62087 0.04493 0.1783 0.0
H3249 H 0.66374 0.07679 0.15455 0.0
H3250 H 0.6599 0.09798 0.18193 0.0
H3251 H 0.67098 0.03862 0.15509 0.0
H3252 H 0.62833 0.07978 0.13102 0.0
H3253 H 0.60142 0.09844 0.12806 0.0
H3254 H 0.56824 0.05216 0.13348 0.0
H3255 H 0.59494 0.03322 0.13682 0.0
C3256 C 0.64994 0.00103 0.06612 0.0
C3257 C 0.63702 0.98746 0.06667 0.0
C3258 C 0.65448 0.0103 0.08353 0.0
C3259 C 0.64597 0.00632 0.10168 0.0
C3260 C 0.63403 0.99193 0.1025 0.0
C3261 C 0.62975 0.98244 0.08518 0.0
C3262 C 0.64606 0.01956 0.11809 0.0
C3263 C 0.63075 0.03006 0.12015 0.0
C3264 C 0.66098 0.02291 0.13048 0.0
C3265 C 0.67758 0.01224 0.12906 0.0
C3266 C 0.67706 0.99362 0.13094 0.0
C3267 C 0.69284 0.9837 0.13038 0.0
C3268 C 0.70925 0.99226 0.12797 0.0
C3269 C 0.70991 0.01075 0.12614 0.0
C3270 C 0.69417 0.02073 0.12674 0.0
C3271 C 0.62785 0.06808 0.1952 0.0
C3272 C 0.63889 0.08314 0.19679 0.0
C3273 C 0.62961 0.05637 0.17914 0.0
C3274 C 0.64267 0.05919 0.16443 0.0
C3275 C 0.65373 0.07419 0.16587 0.0
C3276 C 0.6516 0.08624 0.18166 0.0
C3277 C 0.64424 0.0466 0.1474 0.0
C3278 C 0.65985 0.03642 0.14505 0.0
C3279 C 0.62971 0.04363 0.13439 0.0
C3280 C 0.61364 0.0551 0.13439 0.0
C3281 C 0.6153 0.07361 0.13201 0.0
C3282 C 0.6001 0.08422 0.13015 0.0
C3283 C 0.58319 0.07644 0.13053 0.0
C3284 C 0.58139 0.05811 0.13316 0.0
C3285 C 0.59654 0.04745 0.13507 0.0
H3286 H 0.57149 0.08455 0.12859 0.0
H3287 H 0.72145 0.98457 0.1276 0.0
H3288 H 0.7397 0.09074 0.72751 0.0
H3289 H 0.72242 0.08254 0.69781 0.0
H3290 H 0.75902 0.11222 0.66086 0.0
H3291 H 0.77647 0.1201 0.69048 0.0
H3292 H 0.72301 0.12569 0.66513 0.0
H3293 H 0.75404 0.07132 0.64946 0.0
H3294 H 0.76564 0.04124 0.65636 0.0
H3295 H 0.7125 0.02264 0.66811 0.0
H3296 H 0.70057 0.05266 0.66145 0.0
H3297 H 0.67327 0.13075 0.57712 0.0
H3298 H 0.69621 0.12694 0.60243 0.0
H3299 H 0.66984 0.07938 0.62365 0.0
H3300 H 0.64824 0.0821 0.59639 0.0
H3301 H 0.70111 0.07297 0.62839 0.0
H3302 H 0.66962 0.12623 0.64722 0.0
H3303 H 0.65703 0.15638 0.64323 0.0
H3304 H 0.70922 0.17709 0.63061 0.0
H3305 H 0.72207 0.14709 0.6342 0.0
C3306 C 0.74456 0.09467 0.7129 0.0
C3307 C 0.75941 0.106 0.71119 0.0
C3308 C 0.73468 0.08999 0.69595 0.0
C3309 C 0.7394 0.09681 0.67713 0.0
C3310 C 0.75524 0.10668 0.67522 0.0
C3311 C 0.76525 0.11114 0.69212 0.0
C3312 C 0.72588 0.09755 0.66094 0.0
C3313 C 0.71841 0.11421 0.6568 0.0
C3314 C 0.71924 0.08239 0.651 0.0
C3315 C 0.72642 0.06433 0.65513 0.0
C3316 C 0.74483 0.06088 0.65371 0.0
C3317 C 0.75146 0.04381 0.65752 0.0
C3318 C 0.73982 0.03005 0.66273 0.0
C3319 C 0.72151 0.03332 0.66409 0.0
C3320 C 0.7148 0.05035 0.66025 0.0
C3321 C 0.67222 0.11968 0.58745 0.0
C3322 C 0.65892 0.1068 0.5849 0.0
C3323 C 0.68534 0.1175 0.60209 0.0
C3324 C 0.68464 0.10319 0.61576 0.0
C3325 C 0.6709 0.09057 0.61351 0.0
C3326 C 0.65839 0.09221 0.59804 0.0
C3327 C 0.69829 0.1014 0.6321 0.0
C3328 C 0.70564 0.08453 0.63657 0.0
C3329 C 0.70458 0.11635 0.64294 0.0
C3330 C 0.69677 0.13438 0.64082 0.0
C3331 C 0.67838 0.13721 0.6435 0.0
C3332 C 0.67121 0.15427 0.6413 0.0
C3333 C 0.68233 0.1686 0.63661 0.0
C3334 C 0.70063 0.16596 0.6342 0.0
C3335 C 0.70786 0.14894 0.63632 0.0
H3336 H 0.67682 0.18177 0.63485 0.0
H3337 H 0.74498 0.01686 0.66566 0.0
H3338 H 0.64704 0.02619 0.44018 0.0
H3339 H 0.65564 0.00591 0.41322 0.0
H3340 H 0.64484 0.96104 0.45165 0.0
H3341 H 0.63649 0.98126 0.4785 0.0
H3342 H 0.6694 0.95176 0.42555 0.0
H3343 H 0.60985 0.97555 0.42122 0.0
H3344 H 0.588 9e-05 0.42215 0.0
H3345 H 0.61612 0.02681 0.37507 0.0
H3346 H 0.63754 0.00185 0.37288 0.0
H3347 H 0.64353 0.88744 0.35207 0.0
H3348 H 0.6471 0.90713 0.38058 0.0
H3349 H 0.64407 0.9526 0.34095 0.0
H3350 H 0.63762 0.93276 0.31316 0.0
H3351 H 0.62827 0.96221 0.3688 0.0
H3352 H 0.68988 0.93176 0.37683 0.0
H3353 H 0.70968 0.90625 0.38476 0.0
H3354 H 0.6741 0.88936 0.4311 0.0
H3355 H 0.65484 0.91535 0.42468 0.0
C3356 C 0.64715 0.01206 0.44308 0.0
C3357 C 0.64061 0.00533 0.46125 0.0
C3358 C 0.65193 0.00041 0.42761 0.0
C3359 C 0.65026 0.98187 0.43013 0.0
C3360 C 0.64605 0.97523 0.44916 0.0
C3361 C 0.64132 0.98684 0.46456 0.0
C3362 C 0.65019 0.96957 0.4126 0.0
C3363 C 0.66064 0.95412 0.4129 0.0
C3364 C 0.63836 0.97224 0.39645 0.0
C3365 C 0.6251 0.9868 0.39674 0.0
C3366 C 0.61115 0.98652 0.41078 0.0
C3367 C 0.59879 0.00041 0.41141 0.0
C3368 C 0.60038 0.01471 0.39819 0.0
C3369 C 0.61453 0.01533 0.38461 0.0
C3370 C 0.62669 0.00127 0.38357 0.0
C3371 C 0.64355 0.90168 0.3496 0.0
C3372 C 0.64021 0.90859 0.33046 0.0
C3373 C 0.64608 0.91308 0.36593 0.0
C3374 C 0.64651 0.93172 0.36334 0.0
C3375 C 0.64367 0.93844 0.34386 0.0
C3376 C 0.64004 0.92708 0.32782 0.0
C3377 C 0.64843 0.94443 0.38067 0.0
C3378 C 0.63784 0.95997 0.38069 0.0
C3379 C 0.65984 0.94148 0.39741 0.0
C3380 C 0.67078 0.92528 0.40002 0.0
C3381 C 0.6862 0.92248 0.38854 0.0
C3382 C 0.69733 0.908 0.39279 0.0
C3383 C 0.69287 0.89596 0.40791 0.0
C3384 C 0.67745 0.89857 0.41922 0.0
C3385 C 0.66656 0.91328 0.41549 0.0
H3386 H 0.7015 0.88475 0.41104 0.0
H3387 H 0.59067 0.02532 0.39852 0.0
H3388 H 0.85372 0.87008 0.10402 0.0
H3389 H 0.83447 0.87421 0.13303 0.0
H3390 H 0.80221 0.91123 0.09918 0.0
H3391 H 0.8232 0.90904 0.07174 0.0
H3392 H 0.79745 0.92209 0.13065 0.0
H3393 H 0.78685 0.8588 0.11845 0.0
H3394 H 0.79109 0.82641 0.11517 0.0
H3395 H 0.82571 0.82632 0.16628 0.0
H3396 H 0.82089 0.85858 0.17043 0.0
H3397 H 0.72087 0.89913 0.19438 0.0
H3398 H 0.74299 0.90746 0.1688 0.0
H3399 H 0.78509 0.88898 0.20755 0.0
H3400 H 0.76292 0.87945 0.2321 0.0
H3401 H 0.78407 0.87061 0.17433 0.0
H3402 H 0.78123 0.93383 0.18915 0.0
H3403 H 0.76559 0.96248 0.19305 0.0
H3404 H 0.74728 0.95965 0.13239 0.0
H3405 H 0.76267 0.93092 0.12816 0.0
C3406 C 0.8426 0.87923 0.10296 0.0
C3407 C 0.84001 0.88919 0.08544 0.0
C3408 C 0.83117 0.88132 0.11949 0.0
C3409 C 0.81601 0.89253 0.11858 0.0
C3410 C 0.81357 0.90249 0.10089 0.0
C3411 C 0.82561 0.90114 0.08487 0.0
C3412 C 0.80299 0.89417 0.13591 0.0
C3413 C 0.79444 0.91062 0.13988 0.0
C3414 C 0.79869 0.87962 0.14863 0.0
C3415 C 0.80386 0.86108 0.14443 0.0
C3416 C 0.79563 0.8519 0.12872 0.0
C3417 C 0.79791 0.83354 0.12692 0.0
C3418 C 0.80878 0.82434 0.14041 0.0
C3419 C 0.81737 0.83347 0.15578 0.0
C3420 C 0.81474 0.85175 0.15798 0.0
C3421 C 0.7349 0.89737 0.19754 0.0
C3422 C 0.74014 0.88828 0.21495 0.0
C3423 C 0.74759 0.90227 0.18299 0.0
C3424 C 0.76583 0.89863 0.186 0.0
C3425 C 0.77114 0.8918 0.20468 0.0
C3426 C 0.75846 0.88653 0.21889 0.0
C3427 C 0.77882 0.89827 0.16892 0.0
C3428 C 0.78727 0.88203 0.16502 0.0
C3429 C 0.78215 0.91274 0.15584 0.0
C3430 C 0.77304 0.93013 0.15838 0.0
C3431 C 0.77378 0.93925 0.17667 0.0
C3432 C 0.76498 0.95553 0.17893 0.0
C3433 C 0.75542 0.96287 0.16299 0.0
C3434 C 0.75469 0.95396 0.14473 0.0
C3435 C 0.76349 0.9377 0.14238 0.0
H3436 H 0.7486 0.97545 0.16478 0.0
H3437 H 0.8104 0.81011 0.13909 0.0
H3438 H 0.84893 0.06172 0.81441 0.0
H3439 H 0.84628 0.04118 0.84258 0.0
H3440 H 0.85454 0.08466 0.88336 0.0
H3441 H 0.85682 0.10538 0.85488 0.0
H3442 H 0.87688 0.05636 0.89109 0.0
H3443 H 0.81182 0.06287 0.88829 0.0
H3444 H 0.78138 0.06276 0.87425 0.0
H3445 H 0.79158 0.01247 0.84633 0.0
H3446 H 0.82181 0.01192 0.86102 0.0
H3447 H 0.86057 0.01496 0.98138 0.0
H3448 H 0.85174 0.0327 0.95246 0.0
H3449 H 0.85663 0.98671 0.91468 0.0
H3450 H 0.86583 0.96876 0.94369 0.0
H3451 H 0.82673 0.01497 0.90496 0.0
H3452 H 0.89038 0.00707 0.91342 0.0
H3453 H 0.91589 0.00478 0.93653 0.0
H3454 H 0.90701 0.05848 0.95573 0.0
H3455 H 0.88117 0.06092 0.93302 0.0
C3456 C 0.85001 0.06694 0.82934 0.0
C3457 C 0.85307 0.08515 0.83243 0.0
C3458 C 0.8483 0.05519 0.8455 0.0
C3459 C 0.85003 0.06132 0.86519 0.0
C3460 C 0.85298 0.07959 0.86833 0.0
C3461 C 0.85425 0.09144 0.8521 0.0
C3462 C 0.85041 0.04841 0.8822 0.0
C3463 C 0.86581 0.04747 0.89412 0.0
C3464 C 0.83627 0.03636 0.88608 0.0
C3465 C 0.81907 0.03749 0.87546 0.0
C3466 C 0.80762 0.05192 0.87893 0.0
C3467 C 0.79035 0.05187 0.87107 0.0
C3468 C 0.78458 0.03766 0.85932 0.0
C3469 C 0.79606 0.02345 0.85544 0.0
C3470 C 0.8132 0.02325 0.86365 0.0
C3471 C 0.85948 0.00847 0.96701 0.0
C3472 C 0.86438 0.99051 0.96481 0.0
C3473 C 0.85425 0.01863 0.95051 0.0
C3474 C 0.85374 0.0111 0.93138 0.0
C3475 C 0.85692 0.99278 0.92933 0.0
C3476 C 0.86222 0.98254 0.94594 0.0
C3477 C 0.85309 0.02307 0.91362 0.0
C3478 C 0.83781 0.02377 0.90164 0.0
C3479 C 0.86733 0.03488 0.90958 0.0
C3480 C 0.88389 0.03417 0.92159 0.0
C3481 C 0.89394 0.01841 0.92252 0.0
C3482 C 0.90839 0.01705 0.9356 0.0
C3483 C 0.91306 0.03147 0.94761 0.0
C3484 C 0.90338 0.04733 0.94641 0.0
C3485 C 0.88885 0.04872 0.93341 0.0
H3486 H 0.92419 0.03037 0.95783 0.0
H3487 H 0.77122 0.0377 0.85318 0.0
H3488 H 0.73861 0.57724 0.71132 0.0
H3489 H 0.75794 0.57417 0.68178 0.0
H3490 H 0.76702 0.63093 0.68214 0.0
H3491 H 0.74701 0.63391 0.7106 0.0
H3492 H 0.76502 0.62244 0.64715 0.0
H3493 H 0.7968 0.5957 0.70275 0.0
H3494 H 0.8019 0.574 0.72986 0.0
H3495 H 0.79957 0.53119 0.68764 0.0
H3496 H 0.79421 0.55266 0.66031 0.0
H3497 H 0.84827 0.63079 0.59529 0.0
H3498 H 0.82728 0.62967 0.62359 0.0
H3499 H 0.81199 0.57648 0.60704 0.0
H3500 H 0.83214 0.57769 0.57906 0.0
H3501 H 0.81573 0.58014 0.64793 0.0
H3502 H 0.7906 0.61237 0.59178 0.0
H3503 H 0.79222 0.63732 0.56811 0.0
H3504 H 0.78438 0.67433 0.61607 0.0
H3505 H 0.78445 0.64966 0.64032 0.0
C3506 C 0.74443 0.58901 0.7046 0.0
C3507 C 0.74127 0.60584 0.71286 0.0
C3508 C 0.75569 0.58725 0.68797 0.0
C3509 C 0.76431 0.60227 0.67985 0.0
C3510 C 0.76058 0.6191 0.68796 0.0
C3511 C 0.74914 0.62086 0.70421 0.0
C3512 C 0.77747 0.6009 0.6632 0.0
C3513 C 0.77622 0.6133 0.64756 0.0
C3514 C 0.79187 0.58866 0.6632 0.0
C3515 C 0.79481 0.57574 0.67959 0.0
C3516 C 0.7972 0.58164 0.6993 0.0
C3517 C 0.80017 0.5694 0.71468 0.0
C3518 C 0.80098 0.55123 0.71049 0.0
C3519 C 0.79887 0.54527 0.69088 0.0
C3520 C 0.79585 0.55746 0.67544 0.0
C3521 C 0.84063 0.61879 0.59789 0.0
C3522 C 0.84219 0.60422 0.5849 0.0
C3523 C 0.82864 0.61816 0.61405 0.0
C3524 C 0.81805 0.60296 0.61741 0.0
C3525 C 0.8201 0.58827 0.60491 0.0
C3526 C 0.83183 0.58898 0.58884 0.0
C3527 C 0.80385 0.60253 0.6329 0.0
C3528 C 0.80461 0.58939 0.6478 0.0
C3529 C 0.78935 0.61456 0.63273 0.0
C3530 C 0.78795 0.62916 0.61792 0.0
C3531 C 0.78946 0.62582 0.59734 0.0
C3532 C 0.79018 0.63996 0.58382 0.0
C3533 C 0.78842 0.65744 0.59059 0.0
C3534 C 0.78587 0.6608 0.61088 0.0
C3535 C 0.78576 0.64675 0.62454 0.0
H3536 H 0.78906 0.66841 0.58014 0.0
H3537 H 0.8033 0.54177 0.72243 0.0
H3538 H 0.6674 0.57825 0.82696 0.0
H3539 H 0.66863 0.55715 0.85426 0.0
H3540 H 0.61673 0.57427 0.87405 0.0
H3541 H 0.61501 0.5953 0.84578 0.0
H3542 H 0.64823 0.57274 0.90406 0.0
H3543 H 0.6139 0.53071 0.85904 0.0
H3544 H 0.60923 0.51268 0.82875 0.0
H3545 H 0.66447 0.49748 0.82906 0.0
H3546 H 0.66919 0.51475 0.85995 0.0
H3547 H 0.61999 0.51305 0.97673 0.0
H3548 H 0.62861 0.53429 0.95151 0.0
H3549 H 0.6603 0.49407 0.92217 0.0
H3550 H 0.64967 0.47204 0.94662 0.0
H3551 H 0.64413 0.50742 0.89568 0.0
H3552 H 0.67721 0.53909 0.94347 0.0
H3553 H 0.68451 0.55264 0.97595 0.0
H3554 H 0.6395 0.58766 0.97048 0.0
H3555 H 0.6319 0.57427 0.93801 0.0
C3556 C 0.65612 0.57766 0.83691 0.0
C3557 C 0.64103 0.58859 0.83385 0.0
C3558 C 0.65685 0.56537 0.85254 0.0
C3559 C 0.6427 0.56389 0.86604 0.0
C3560 C 0.62774 0.57504 0.86359 0.0
C3561 C 0.62681 0.58714 0.8475 0.0
C3562 C 0.6442 0.55145 0.8833 0.0
C3563 C 0.64711 0.55845 0.90237 0.0
C3564 C 0.6442 0.5328 0.88097 0.0
C3565 C 0.64195 0.52428 0.86138 0.0
C3566 C 0.62507 0.52373 0.85242 0.0
C3567 C 0.62238 0.51347 0.83534 0.0
C3568 C 0.6366 0.50411 0.82683 0.0
C3569 C 0.65351 0.50482 0.83556 0.0
C3570 C 0.65616 0.51473 0.85293 0.0
C3571 C 0.62934 0.50886 0.96532 0.0
C3572 C 0.63403 0.49084 0.96364 0.0
C3573 C 0.63449 0.52118 0.95082 0.0
C3574 C 0.64537 0.51616 0.93467 0.0
C3575 C 0.65175 0.49847 0.93424 0.0
C3576 C 0.64598 0.48587 0.94846 0.0
C3577 C 0.64756 0.52854 0.9171 0.0
C3578 C 0.64553 0.52164 0.89776 0.0
C3579 C 0.64926 0.54729 0.91915 0.0
C3580 C 0.65394 0.55561 0.93842 0.0
C3581 C 0.66885 0.54965 0.94925 0.0
C3582 C 0.67305 0.55731 0.96763 0.0
C3583 C 0.66245 0.57097 0.9753 0.0
C3584 C 0.6477 0.57709 0.96452 0.0
C3585 C 0.64348 0.56952 0.94609 0.0
H3586 H 0.66568 0.57683 0.98958 0.0
H3587 H 0.63449 0.49626 0.81352 0.0
H3588 H 0.66947 0.36382 0.08255 0.0
H3589 H 0.68965 0.36664 0.11047 0.0
H3590 H 0.66908 0.41904 0.12271 0.0
H3591 H 0.64839 0.41614 0.09461 0.0
H3592 H 0.70429 0.4198 0.12564 0.0
H3593 H 0.65938 0.38291 0.15323 0.0
H3594 H 0.63797 0.35821 0.15668 0.0
H3595 H 0.68095 0.32052 0.15472 0.0
H3596 H 0.70262 0.34496 0.15093 0.0
H3597 H 0.74375 0.4111 0.22492 0.0
H3598 H 0.72476 0.41606 0.19558 0.0
H3599 H 0.75068 0.37256 0.1654 0.0
H3600 H 0.76998 0.36781 0.19452 0.0
H3601 H 0.71132 0.37052 0.17437 0.0
H3602 H 0.75637 0.40641 0.1441 0.0
H3603 H 0.77844 0.43067 0.14348 0.0
H3604 H 0.73659 0.46901 0.15112 0.0
H3605 H 0.71423 0.44491 0.15217 0.0
C3606 C 0.66891 0.3759 0.0912 0.0
C3607 C 0.65741 0.38991 0.08588 0.0
C3608 C 0.68054 0.37748 0.10734 0.0
C3609 C 0.68088 0.39302 0.11888 0.0
C3610 C 0.66917 0.40694 0.11398 0.0
C3611 C 0.65737 0.40529 0.09782 0.0
C3612 C 0.69382 0.3945 0.13567 0.0
C3613 C 0.70578 0.40898 0.13621 0.0
C3614 C 0.69569 0.38061 0.14988 0.0
C3615 C 0.68263 0.36581 0.15162 0.0
C3616 C 0.66427 0.36935 0.15331 0.0
C3617 C 0.65208 0.35539 0.15537 0.0
C3618 C 0.65809 0.33781 0.15588 0.0
C3619 C 0.67631 0.33415 0.15431 0.0
C3620 C 0.68855 0.34805 0.15221 0.0
C3621 C 0.74572 0.40299 0.21175 0.0
C3622 C 0.75817 0.38903 0.21187 0.0
C3623 C 0.73495 0.40586 0.19506 0.0
C3624 C 0.73637 0.39464 0.17848 0.0
C3625 C 0.74953 0.38138 0.17811 0.0
C3626 C 0.76053 0.37871 0.19465 0.0
C3627 C 0.72237 0.39491 0.16308 0.0
C3628 C 0.70999 0.381 0.16328 0.0
C3629 C 0.7203 0.40916 0.14952 0.0
C3630 C 0.73361 0.4238 0.14848 0.0
C3631 C 0.75186 0.41999 0.14586 0.0
C3632 C 0.76443 0.43372 0.14538 0.0
C3633 C 0.75893 0.45136 0.14735 0.0
C3634 C 0.74083 0.45532 0.14965 0.0
C3635 C 0.72819 0.44162 0.15017 0.0
H3636 H 0.76869 0.46195 0.14708 0.0
H3637 H 0.64864 0.32703 0.15751 0.0
H3638 H 0.88652 0.49238 0.46447 0.0
H3639 H 0.88373 0.47397 0.43463 0.0
H3640 H 0.82977 0.49261 0.42626 0.0
H3641 H 0.83263 0.51113 0.45645 0.0
H3642 H 0.83179 0.45686 0.42186 0.0
H3643 H 0.86034 0.50611 0.39296 0.0
H3644 H 0.88169 0.53101 0.3917 0.0
H3645 H 0.92542 0.49413 0.39191 0.0
H3646 H 0.90429 0.46897 0.39326 0.0
H3647 H 0.82931 0.41359 0.32787 0.0
H3648 H 0.82883 0.43543 0.35416 0.0
H3649 H 0.88266 0.42126 0.37037 0.0
H3650 H 0.88339 0.39932 0.34331 0.0
H3651 H 0.87808 0.45743 0.36878 0.0
H3652 H 0.84437 0.40765 0.39766 0.0
H3653 H 0.81985 0.38577 0.39781 0.0
H3654 H 0.78144 0.42804 0.39466 0.0
H3655 H 0.80573 0.45016 0.39425 0.0
C3656 C 0.87419 0.49275 0.45603 0.0
C3657 C 0.85987 0.50327 0.46245 0.0
C3658 C 0.87258 0.48225 0.43901 0.0
C3659 C 0.8566 0.48202 0.42807 0.0
C3660 C 0.84224 0.49264 0.43443 0.0
C3661 C 0.84391 0.5033 0.45148 0.0
C3662 C 0.85507 0.4702 0.41039 0.0
C3663 C 0.84171 0.45715 0.41005 0.0
C3664 C 0.86791 0.47068 0.39492 0.0
C3665 C 0.88074 0.48565 0.39324 0.0
C3666 C 0.87452 0.5033 0.39274 0.0
C3667 C 0.88657 0.51747 0.39202 0.0
C3668 C 0.9049 0.51415 0.39176 0.0
C3669 C 0.91121 0.49666 0.39209 0.0
C3670 C 0.8992 0.48243 0.39274 0.0
C3671 C 0.8411 0.41489 0.33695 0.0
C3672 C 0.85651 0.40471 0.33305 0.0
C3673 C 0.84075 0.42748 0.35216 0.0
C3674 C 0.85564 0.42998 0.36444 0.0
C3675 C 0.87099 0.41963 0.36103 0.0
C3676 C 0.8714 0.40704 0.34554 0.0
C3677 C 0.85517 0.44358 0.38059 0.0
C3678 C 0.86811 0.45711 0.38053 0.0
C3679 C 0.84147 0.44393 0.39526 0.0
C3680 C 0.82689 0.43056 0.39579 0.0
C3681 C 0.8307 0.41228 0.3969 0.0
C3682 C 0.81684 0.39983 0.39704 0.0
C3683 C 0.7991 0.40551 0.3962 0.0
C3684 C 0.79518 0.42365 0.39529 0.0
C3685 C 0.80899 0.43615 0.39513 0.0
H3686 H 0.78839 0.39586 0.39629 0.0
H3687 H 0.91423 0.52513 0.39128 0.0
H3688 H 0.76743 0.38158 0.79837 0.0
H3689 H 0.78573 0.39161 0.82624 0.0
H3690 H 0.73917 0.39394 0.86385 0.0
H3691 H 0.72065 0.38333 0.83599 0.0
H3692 H 0.77494 0.42282 0.86729 0.0
H3693 H 0.75215 0.36154 0.87513 0.0
H3694 H 0.74312 0.33427 0.85742 0.0
H3695 H 0.7958 0.32943 0.83275 0.0
H3696 H 0.80497 0.35694 0.84997 0.0
H3697 H 0.82203 0.41125 0.95949 0.0
H3698 H 0.80212 0.41444 0.9313 0.0
H3699 H 0.8335 0.37636 0.89829 0.0
H3700 H 0.85348 0.3731 0.92693 0.0
H3701 H 0.80296 0.36743 0.89274 0.0
H3702 H 0.82702 0.42744 0.88729 0.0
H3703 H 0.83502 0.4575 0.89887 0.0
H3704 H 0.78076 0.46671 0.91666 0.0
H3705 H 0.77242 0.43674 0.90506 0.0
C3706 C 0.76093 0.38451 0.81243 0.0
C3707 C 0.74257 0.38113 0.81499 0.0
C3708 C 0.77144 0.3905 0.82832 0.0
C3709 C 0.7639 0.39348 0.84718 0.0
C3710 C 0.74529 0.39185 0.84938 0.0
C3711 C 0.73471 0.38572 0.83342 0.0
C3712 C 0.77596 0.39438 0.86494 0.0
C3713 C 0.78092 0.41076 0.87317 0.0
C3714 C 0.78406 0.37873 0.87226 0.0
C3715 C 0.77923 0.36122 0.86382 0.0
C3716 C 0.76181 0.35457 0.86601 0.0
C3717 C 0.75664 0.33915 0.85598 0.0
C3718 C 0.76888 0.33012 0.84396 0.0
C3719 C 0.78634 0.33643 0.84208 0.0
C3720 C 0.79154 0.35192 0.85199 0.0
C3721 C 0.82505 0.40391 0.94609 0.0
C3722 C 0.8396 0.39208 0.94557 0.0
C3723 C 0.81359 0.40584 0.92968 0.0
C3724 C 0.81617 0.39588 0.91212 0.0
C3725 C 0.83094 0.38424 0.91149 0.0
C3726 C 0.84244 0.38234 0.92796 0.0
C3727 C 0.80259 0.3961 0.8954 0.0
C3728 C 0.79719 0.37971 0.88719 0.0
C3729 C 0.7941 0.41187 0.88825 0.0
C3730 C 0.79915 0.4298 0.89543 0.0
C3731 C 0.81683 0.43584 0.89376 0.0
C3732 C 0.8214 0.45289 0.90028 0.0
C3733 C 0.80842 0.46399 0.90857 0.0
C3734 C 0.79081 0.4581 0.91025 0.0
C3735 C 0.78614 0.44112 0.90363 0.0
H3736 H 0.81201 0.47715 0.91366 0.0
H3737 H 0.76483 0.31824 0.8361 0.0
H3738 H 0.88105 0.56992 0.20397 0.0
H3739 H 0.87749 0.5494 0.1765 0.0
H3740 H 0.83128 0.57837 0.15615 0.0
H3741 H 0.8352 0.5997 0.18352 0.0
H3742 H 0.82607 0.54141 0.15487 0.0
H3743 H 0.86776 0.58303 0.13081 0.0
H3744 H 0.89406 0.60259 0.12871 0.0
H3745 H 0.92868 0.55737 0.13406 0.0
H3746 H 0.90258 0.53751 0.13649 0.0
H3747 H 0.83828 0.50448 0.05418 0.0
H3748 H 0.83297 0.52292 0.08375 0.0
H3749 H 0.87136 0.4919 0.11679 0.0
H3750 H 0.87645 0.47318 0.08735 0.0
H3751 H 0.87794 0.53089 0.11037 0.0
H3752 H 0.8329 0.48935 0.13286 0.0
H3753 H 0.80523 0.47194 0.12928 0.0
H3754 H 0.77516 0.52006 0.12156 0.0
H3755 H 0.80269 0.53777 0.12478 0.0
C3756 C 0.87006 0.57209 0.19378 0.0
C3757 C 0.85814 0.58638 0.19637 0.0
C3758 C 0.86806 0.56024 0.17799 0.0
C3759 C 0.85412 0.56228 0.16425 0.0
C3760 C 0.84206 0.57643 0.1667 0.0
C3761 C 0.84422 0.58854 0.18247 0.0
C3762 C 0.85274 0.54972 0.14719 0.0
C3763 C 0.83731 0.53927 0.14495 0.0
C3764 C 0.8674 0.54686 0.13425 0.0
C3765 C 0.88318 0.55879 0.13404 0.0
C3766 C 0.88097 0.57727 0.13186 0.0
C3767 C 0.89584 0.5884 0.13052 0.0
C3768 C 0.91299 0.58121 0.13125 0.0
C3769 C 0.91536 0.56289 0.13349 0.0
C3770 C 0.90053 0.55169 0.13486 0.0
C3771 C 0.84516 0.50128 0.06796 0.0
C3772 C 0.8578 0.48745 0.06853 0.0
C3773 C 0.84207 0.51176 0.08482 0.0
C3774 C 0.85174 0.50873 0.10242 0.0
C3775 C 0.86366 0.49434 0.10336 0.0
C3776 C 0.86653 0.48364 0.08659 0.0
C3777 C 0.8516 0.52221 0.11851 0.0
C3778 C 0.86675 0.53296 0.12039 0.0
C3779 C 0.83651 0.52557 0.13063 0.0
C3780 C 0.81993 0.51489 0.12881 0.0
C3781 C 0.82043 0.49623 0.13017 0.0
C3782 C 0.80475 0.4863 0.12826 0.0
C3783 C 0.78846 0.49489 0.1251 0.0
C3784 C 0.7878 0.51342 0.12396 0.0
C3785 C 0.80344 0.52341 0.12584 0.0
H3786 H 0.77635 0.48719 0.12355 0.0
H3787 H 0.92443 0.58982 0.12996 0.0
H3788 H 0.77685 0.60736 0.33885 0.0
H3789 H 0.75645 0.59732 0.36542 0.0
H3790 H 0.71319 0.5963 0.3231 0.0
H3791 H 0.73348 0.60608 0.29665 0.0
H3792 H 0.71116 0.62219 0.35542 0.0
H3793 H 0.72015 0.55962 0.34419 0.0
H3794 H 0.73698 0.53156 0.34146 0.0
H3795 H 0.75559 0.53747 0.40173 0.0
H3796 H 0.73898 0.56564 0.40478 0.0
H3797 H 0.6386 0.61118 0.42194 0.0
H3798 H 0.65943 0.60796 0.39381 0.0
H3799 H 0.70036 0.59009 0.43454 0.0
H3800 H 0.67935 0.59293 0.46239 0.0
H3801 H 0.70386 0.57182 0.40263 0.0
H3802 H 0.70048 0.63412 0.41383 0.0
H3803 H 0.68881 0.66442 0.41766 0.0
H3804 H 0.6641 0.66142 0.35991 0.0
H3805 H 0.67593 0.63102 0.35561 0.0
C3806 C 0.76323 0.60405 0.33502 0.0
C3807 C 0.75681 0.60746 0.31562 0.0
C3808 C 0.75151 0.5984 0.35025 0.0
C3809 C 0.73321 0.59611 0.34631 0.0
C3810 C 0.72722 0.59789 0.32653 0.0
C3811 C 0.73887 0.60342 0.31138 0.0
C3812 C 0.71986 0.59578 0.36291 0.0
C3813 C 0.70931 0.611 0.3655 0.0
C3814 C 0.71802 0.58153 0.37664 0.0
C3815 C 0.7285 0.5649 0.3746 0.0
C3816 C 0.72803 0.55508 0.35677 0.0
C3817 C 0.73746 0.53909 0.3552 0.0
C3818 C 0.74741 0.53277 0.37138 0.0
C3819 C 0.74792 0.5424 0.38918 0.0
C3820 C 0.73847 0.55836 0.39085 0.0
C3821 C 0.65198 0.60634 0.42475 0.0
C3822 C 0.65739 0.60233 0.44431 0.0
C3823 C 0.66398 0.60467 0.40872 0.0
C3824 C 0.68172 0.59906 0.41192 0.0
C3825 C 0.68687 0.5945 0.43149 0.0
C3826 C 0.67487 0.5962 0.44748 0.0
C3827 C 0.69495 0.59827 0.39503 0.0
C3828 C 0.70554 0.58293 0.39244 0.0
C3829 C 0.69724 0.61261 0.38147 0.0
C3830 C 0.6888 0.63019 0.38458 0.0
C3831 C 0.69229 0.6398 0.4021 0.0
C3832 C 0.68572 0.65706 0.4043 0.0
C3833 C 0.67551 0.66485 0.38915 0.0
C3834 C 0.67191 0.65536 0.3717 0.0
C3835 C 0.67859 0.63812 0.36934 0.0
H3836 H 0.6705 0.67825 0.39088 0.0
H3837 H 0.75467 0.52038 0.37014 0.0
H3838 H 0.66734 0.41905 0.70587 0.0
H3839 H 0.67004 0.44038 0.67831 0.0
H3840 H 0.61862 0.42366 0.65621 0.0
H3841 H 0.61688 0.40137 0.68254 0.0
H3842 H 0.63708 0.427 0.62662 0.0
H3843 H 0.62842 0.46939 0.6811 0.0
H3844 H 0.63289 0.4896 0.70968 0.0
H3845 H 0.68622 0.50066 0.6898 0.0
H3846 H 0.68197 0.48075 0.66098 0.0
H3847 H 0.61003 0.50734 0.57558 0.0
H3848 H 0.6156 0.48886 0.60531 0.0
H3849 H 0.66978 0.48034 0.58598 0.0
H3850 H 0.66405 0.49837 0.55588 0.0
H3851 H 0.65433 0.49019 0.63471 0.0
H3852 H 0.66086 0.44753 0.57886 0.0
H3853 H 0.65043 0.43819 0.54555 0.0
H3854 H 0.59716 0.43222 0.56835 0.0
H3855 H 0.60732 0.44179 0.60174 0.0
C3856 C 0.65684 0.41965 0.69487 0.0
C3857 C 0.64188 0.4084 0.69648 0.0
C3858 C 0.65817 0.43222 0.6793 0.0
C3859 C 0.64441 0.43404 0.66512 0.0
C3860 C 0.62951 0.42272 0.66679 0.0
C3861 C 0.62836 0.41004 0.68208 0.0
C3862 C 0.64568 0.44684 0.64786 0.0
C3863 C 0.64086 0.44078 0.62871 0.0
C3864 C 0.65108 0.4649 0.64982 0.0
C3865 C 0.65497 0.47338 0.66915 0.0
C3866 C 0.64125 0.47576 0.68316 0.0
C3867 C 0.64364 0.48739 0.69919 0.0
C3868 C 0.65972 0.49657 0.70137 0.0
C3869 C 0.67369 0.4937 0.68794 0.0
C3870 C 0.67133 0.48221 0.67182 0.0
C3871 C 0.62322 0.50184 0.57796 0.0
C3872 C 0.63665 0.50433 0.56361 0.0
C3873 C 0.62638 0.49127 0.59485 0.0
C3874 C 0.64306 0.48318 0.59775 0.0
C3875 C 0.65681 0.48644 0.58397 0.0
C3876 C 0.65356 0.49676 0.56688 0.0
C3877 C 0.6455 0.47021 0.61432 0.0
C3878 C 0.65098 0.47624 0.63301 0.0
C3879 C 0.64067 0.45224 0.61211 0.0
C3880 C 0.63479 0.4454 0.59261 0.0
C3881 C 0.64693 0.44421 0.5767 0.0
C3882 C 0.64107 0.43892 0.55784 0.0
C3883 C 0.62313 0.43464 0.55482 0.0
C3884 C 0.61104 0.43553 0.57071 0.0
C3885 C 0.61684 0.44087 0.5896 0.0
H3886 H 0.6186 0.43062 0.54017 0.0
H3887 H 0.66145 0.50575 0.71362 0.0
H3888 H 0.14951 0.41422 0.43158 0.0
H3889 H 0.17026 0.41655 0.40314 0.0
H3890 H 0.19642 0.36842 0.42236 0.0
H3891 H 0.17516 0.36538 0.44977 0.0
H3892 H 0.21487 0.41141 0.41027 0.0
H3893 H 0.189 0.35249 0.39345 0.0
H3894 H 0.16436 0.33168 0.3868 0.0
H3895 H 0.14352 0.36727 0.34229 0.0
H3896 H 0.16769 0.38866 0.34935 0.0
H3897 H 0.27675 0.37533 0.33782 0.0
H3898 H 0.25769 0.38465 0.36573 0.0
H3899 H 0.2193 0.40567 0.3239 0.0
H3900 H 0.23825 0.39621 0.29611 0.0
H3901 H 0.20577 0.37903 0.34668 0.0
H3902 H 0.23857 0.43351 0.35888 0.0
H3903 H 0.26584 0.45107 0.36501 0.0
H3904 H 0.27682 0.42 0.41751 0.0
H3905 H 0.24967 0.40224 0.41167 0.0
C3906 C 0.1596 0.4041 0.42957 0.0
C3907 C 0.16073 0.38966 0.44287 0.0
C3908 C 0.17139 0.4054 0.41335 0.0
C3909 C 0.18467 0.39247 0.4105 0.0
C3910 C 0.18594 0.37822 0.42393 0.0
C3911 C 0.17379 0.37655 0.4396 0.0
C3912 C 0.19756 0.39393 0.39381 0.0
C3913 C 0.21292 0.40438 0.39632 0.0
C3914 C 0.19501 0.38468 0.37572 0.0
C3915 C 0.17975 0.3725 0.37251 0.0
C3916 C 0.17881 0.35619 0.38279 0.0
C3917 C 0.16501 0.34421 0.37882 0.0
C3918 C 0.15227 0.34823 0.36427 0.0
C3919 C 0.15328 0.36426 0.35371 0.0
C3920 C 0.16696 0.37637 0.35779 0.0
C3921 C 0.26469 0.38277 0.33468 0.0
C3922 C 0.25898 0.38514 0.31488 0.0
C3923 C 0.25375 0.38803 0.35062 0.0
C3924 C 0.23697 0.39574 0.3469 0.0
C3925 C 0.23215 0.39971 0.32712 0.0
C3926 C 0.24304 0.39444 0.31125 0.0
C3927 C 0.22325 0.39656 0.36295 0.0
C3928 C 0.20767 0.38642 0.36041 0.0
C3929 C 0.22592 0.40568 0.38116 0.0
C3930 C 0.24214 0.41649 0.38477 0.0
C3931 C 0.24685 0.43038 0.37168 0.0
C3932 C 0.26226 0.44039 0.37513 0.0
C3933 C 0.27307 0.43661 0.39161 0.0
C3934 C 0.26843 0.42291 0.40475 0.0
C3935 C 0.25301 0.41291 0.40142 0.0
H3936 H 0.28505 0.44428 0.39421 0.0
H3937 H 0.14171 0.33885 0.36105 0.0
H3938 H 0.34146 0.38867 0.17628 0.0
H3939 H 0.33812 0.40926 0.14784 0.0
H3940 H 0.36418 0.45046 0.18156 0.0
H3941 H 0.36798 0.42999 0.20957 0.0
H3942 H 0.33169 0.46165 0.16011 0.0
H3943 H 0.38829 0.43199 0.15006 0.0
H3944 H 0.40944 0.40744 0.1442 0.0
H3945 H 0.37961 0.39145 0.09253 0.0
H3946 H 0.35814 0.41579 0.09825 0.0
H3947 H 0.36914 0.52387 0.0884 0.0
H3948 H 0.36015 0.50445 0.11621 0.0
H3949 H 0.34238 0.46493 0.07414 0.0
H3950 H 0.35179 0.48408 0.04647 0.0
H3951 H 0.36639 0.45135 0.09836 0.0
H3952 H 0.31016 0.48378 0.11055 0.0
H3953 H 0.29269 0.51123 0.11599 0.0
H3954 H 0.32723 0.52563 0.16446 0.0
H3955 H 0.34492 0.49838 0.15918 0.0
C3956 C 0.34638 0.40215 0.17765 0.0
C3957 C 0.35503 0.40762 0.19526 0.0
C3958 C 0.34448 0.41391 0.16138 0.0
C3959 C 0.35085 0.43148 0.16255 0.0
C3960 C 0.35904 0.43705 0.1803 0.0
C3961 C 0.36129 0.42525 0.19632 0.0
C3962 C 0.34976 0.44397 0.14517 0.0
C3963 C 0.3396 0.45962 0.14684 0.0
C3964 C 0.35937 0.44096 0.12731 0.0
C3965 C 0.37141 0.4255 0.1248 0.0
C3966 C 0.38602 0.42302 0.13769 0.0
C3967 C 0.39815 0.40921 0.13432 0.0
C3968 C 0.39583 0.39785 0.11805 0.0
C3969 C 0.38135 0.40022 0.10517 0.0
C3970 C 0.36919 0.414 0.10849 0.0
C3971 C 0.36277 0.51128 0.08514 0.0
C3972 C 0.36132 0.50541 0.06527 0.0
C3973 C 0.35757 0.50017 0.10106 0.0
C3974 C 0.35063 0.48308 0.09736 0.0
C3975 C 0.3478 0.47794 0.07745 0.0
C3976 C 0.35316 0.48891 0.06162 0.0
C3977 C 0.34901 0.46957 0.11373 0.0
C3978 C 0.35858 0.45358 0.11177 0.0
C3979 C 0.33932 0.47257 0.13155 0.0
C3980 C 0.32877 0.48901 0.13457 0.0
C3981 C 0.31401 0.49283 0.12234 0.0
C3982 C 0.30408 0.50835 0.12539 0.0
C3983 C 0.30885 0.52016 0.14056 0.0
C3984 C 0.32351 0.51645 0.15276 0.0
C3985 C 0.33343 0.50093 0.14981 0.0
H3986 H 0.30123 0.53221 0.14283 0.0
H3987 H 0.4053 0.38725 0.11538 0.0
H3988 H 0.22787 0.62744 0.83448 0.0
H3989 H 0.24626 0.62105 0.86395 0.0
H3990 H 0.2749 0.58105 0.83092 0.0
H3991 H 0.25684 0.58775 0.80122 0.0
H3992 H 0.26687 0.57514 0.87731 0.0
H3993 H 0.29569 0.61268 0.82777 0.0
H3994 H 0.29354 0.63693 0.80302 0.0
H3995 H 0.27891 0.67344 0.84943 0.0
H3996 H 0.28057 0.64922 0.8744 0.0
H3997 H 0.34889 0.58201 0.93603 0.0
H3998 H 0.32735 0.57767 0.90886 0.0
H3999 H 0.30186 0.62715 0.9242 0.0
H4000 H 0.32251 0.63105 0.9515 0.0
H4001 H 0.30908 0.62551 0.88497 0.0
H4002 H 0.28076 0.58874 0.93467 0.0
H4003 H 0.27558 0.56419 0.95846 0.0
H4004 H 0.28682 0.52614 0.91244 0.0
H4005 H 0.29204 0.5505 0.88835 0.0
C4006 C 0.23772 0.61692 0.83372 0.0
C4007 C 0.24111 0.60821 0.8156 0.0
C4008 C 0.24817 0.61325 0.85053 0.0
C4009 C 0.26194 0.60062 0.84953 0.0
C4010 C 0.26427 0.59077 0.83198 0.0
C4011 C 0.25406 0.59469 0.81504 0.0
C4012 C 0.27575 0.60013 0.86534 0.0
C4013 C 0.27637 0.58593 0.87886 0.0
C4014 C 0.28789 0.61434 0.86741 0.0
C4015 C 0.28815 0.62918 0.85286 0.0
C4016 C 0.29199 0.62589 0.83266 0.0
C4017 C 0.29082 0.6396 0.8186 0.0
C4018 C 0.28607 0.65672 0.82464 0.0
C4019 C 0.28258 0.66017 0.84479 0.0
C4020 C 0.28364 0.64646 0.8589 0.0
C4021 C 0.33842 0.59169 0.93399 0.0
C4022 C 0.33733 0.60668 0.9465 0.0
C4023 C 0.32616 0.58926 0.91832 0.0
C4024 C 0.31282 0.602 0.9146 0.0
C4025 C 0.31195 0.61707 0.92677 0.0
C4026 C 0.32396 0.61934 0.94244 0.0
C4027 C 0.30031 0.60048 0.89741 0.0
C4028 C 0.2999 0.61444 0.88343 0.0
C4029 C 0.28843 0.58597 0.895 0.0
C4030 C 0.28705 0.57142 0.90982 0.0
C4031 C 0.28243 0.57514 0.92972 0.0
C4032 C 0.2793 0.56126 0.9432 0.0
C4033 C 0.28077 0.54362 0.93693 0.0
C4034 C 0.28561 0.53981 0.91724 0.0
C4035 C 0.28865 0.55364 0.90368 0.0
H4036 H 0.27831 0.53289 0.94739 0.0
H4037 H 0.28511 0.66731 0.81372 0.0
H4038 H 0.11323 0.58944 0.68862 0.0
H4039 H 0.11494 0.56763 0.662 0.0
H4040 H 0.17162 0.56254 0.67181 0.0
H4041 H 0.16985 0.58502 0.69784 0.0
H4042 H 0.16703 0.56104 0.63511 0.0
H4043 H 0.13616 0.52725 0.68772 0.0
H4044 H 0.11249 0.51878 0.71158 0.0
H4045 H 0.07272 0.52588 0.66637 0.0
H4046 H 0.0961 0.53372 0.64193 0.0
H4047 H 0.16829 0.48518 0.56929 0.0
H4048 H 0.17132 0.50336 0.59968 0.0
H4049 H 0.11586 0.51838 0.59486 0.0
H4050 H 0.11288 0.50009 0.56501 0.0
H4051 H 0.12317 0.51187 0.6314 0.0
H4052 H 0.1525 0.54511 0.57871 0.0
H4053 H 0.17531 0.5497 0.55263 0.0
H4054 H 0.21679 0.54384 0.5964 0.0
H4055 H 0.1942 0.53892 0.6227 0.0
C4056 C 0.12608 0.58372 0.68516 0.0
C4057 C 0.14145 0.58896 0.69566 0.0
C4058 C 0.12702 0.571 0.66999 0.0
C4059 C 0.14331 0.56277 0.66522 0.0
C4060 C 0.15879 0.56844 0.67523 0.0
C4061 C 0.15785 0.58144 0.69015 0.0
C4062 C 0.14429 0.5488 0.64938 0.0
C4063 C 0.15756 0.55014 0.63457 0.0
C4064 C 0.13185 0.53463 0.64812 0.0
C4065 C 0.11781 0.53143 0.66318 0.0
C4066 C 0.12234 0.52732 0.68299 0.0
C4067 C 0.109 0.52259 0.69659 0.0
C4068 C 0.09115 0.5222 0.69068 0.0
C4069 C 0.08654 0.52635 0.67101 0.0
C4070 C 0.09982 0.53084 0.65724 0.0
C4071 C 0.15676 0.49217 0.57507 0.0
C4072 C 0.14034 0.49131 0.56503 0.0
C4073 C 0.15852 0.50269 0.59222 0.0
C4074 C 0.14389 0.51252 0.59939 0.0
C4075 C 0.12737 0.51102 0.58963 0.0
C4076 C 0.12563 0.50057 0.57261 0.0
C4077 C 0.14538 0.52453 0.61694 0.0
C4078 C 0.1327 0.52272 0.63213 0.0
C4079 C 0.15816 0.53833 0.61831 0.0
C4080 C 0.17169 0.54139 0.60257 0.0
C4081 C 0.16649 0.54465 0.58273 0.0
C4082 C 0.17937 0.54733 0.56792 0.0
C4083 C 0.19749 0.54699 0.57284 0.0
C4084 C 0.20276 0.54404 0.5926 0.0
C4085 C 0.18992 0.5413 0.60746 0.0
H4086 H 0.20744 0.54907 0.56135 0.0
H4087 H 0.0809 0.51848 0.7013 0.0
H4088 H 0.14644 0.58401 0.09672 0.0
H4089 H 0.167 0.58028 0.12511 0.0
H4090 H 0.19835 0.62447 0.10381 0.0
H4091 H 0.17799 0.62824 0.07562 0.0
H4092 H 0.21027 0.57793 0.11982 0.0
H4093 H 0.19679 0.64402 0.13373 0.0
H4094 H 0.17732 0.66931 0.14198 0.0
H4095 H 0.14666 0.63623 0.18142 0.0
H4096 H 0.16648 0.61083 0.174 0.0
H4097 H 0.27682 0.61291 0.19041 0.0
H4098 H 0.25755 0.60436 0.16234 0.0
H4099 H 0.21646 0.5885 0.20377 0.0
H4100 H 0.23569 0.59641 0.23172 0.0
H4101 H 0.2081 0.61791 0.17852 0.0
H4102 H 0.22789 0.55812 0.17549 0.0
H4103 H 0.24859 0.53276 0.17294 0.0
H4104 H 0.26651 0.55157 0.11573 0.0
H4105 H 0.24597 0.57716 0.11798 0.0
C4106 C 0.15766 0.59298 0.09821 0.0
C4107 C 0.16035 0.60669 0.08419 0.0
C4108 C 0.16938 0.59084 0.1144 0.0
C4109 C 0.18406 0.60226 0.1167 0.0
C4110 C 0.18688 0.61578 0.10259 0.0
C4111 C 0.1751 0.61805 0.0866 0.0
C4112 C 0.1967 0.59999 0.13358 0.0
C4113 C 0.20991 0.58671 0.13263 0.0
C4114 C 0.196 0.61112 0.15049 0.0
C4115 C 0.18266 0.62541 0.15274 0.0
C4116 C 0.18557 0.64201 0.14369 0.0
C4117 C 0.17455 0.6564 0.14832 0.0
C4118 C 0.16041 0.65429 0.16173 0.0
C4119 C 0.15741 0.63778 0.17075 0.0
C4120 C 0.16856 0.62339 0.16639 0.0
C4121 C 0.26398 0.60691 0.19355 0.0
C4122 C 0.25763 0.60577 0.21331 0.0
C4123 C 0.25297 0.60203 0.17748 0.0
C4124 C 0.23549 0.59596 0.18098 0.0
C4125 C 0.22986 0.59319 0.20071 0.0
C4126 C 0.24086 0.59786 0.21668 0.0
C4127 C 0.22199 0.5961 0.16473 0.0
C4128 C 0.20854 0.60901 0.16579 0.0
C4129 C 0.22255 0.58455 0.14811 0.0
C4130 C 0.23552 0.56968 0.14702 0.0
C4131 C 0.23642 0.557 0.16249 0.0
C4132 C 0.24806 0.54253 0.16105 0.0
C4133 C 0.25887 0.54057 0.14419 0.0
C4134 C 0.25812 0.55312 0.12877 0.0
C4135 C 0.24646 0.56759 0.13011 0.0
H4136 H 0.26775 0.52927 0.14304 0.0
H4137 H 0.15199 0.66552 0.16537 0.0
H4138 H 0.11477 0.41958 0.83322 0.0
H4139 H 0.11747 0.43823 0.86252 0.0
H4140 H 0.17104 0.41897 0.87169 0.0
H4141 H 0.16748 0.39872 0.84326 0.0
H4142 H 0.15306 0.42443 0.90766 0.0
H4143 H 0.16294 0.45625 0.84753 0.0
H4144 H 0.15261 0.4609 0.8137 0.0
H4145 H 0.10718 0.49014 0.8353 0.0
H4146 H 0.11611 0.48313 0.86992 0.0
H4147 H 0.16546 0.49388 0.97735 0.0
H4148 H 0.17094 0.47521 0.94803 0.0
H4149 H 0.12159 0.49376 0.92193 0.0
H4150 H 0.11692 0.51334 0.95053 0.0
H4151 H 0.14254 0.48851 0.89395 0.0
H4152 H 0.12794 0.45274 0.95181 0.0
H4153 H 0.13278 0.44172 0.98612 0.0
H4154 H 0.18403 0.42115 0.96907 0.0
H4155 H 0.17961 0.43238 0.93474 0.0
C4156 C 0.12676 0.41861 0.84192 0.0
C4157 C 0.14066 0.40729 0.83599 0.0
C4158 C 0.12848 0.42961 0.85854 0.0
C4159 C 0.14455 0.43026 0.86925 0.0
C4160 C 0.15849 0.41876 0.86368 0.0
C4161 C 0.15654 0.40736 0.84722 0.0
C4162 C 0.14703 0.44394 0.88515 0.0
C4163 C 0.15103 0.43847 0.90462 0.0
C4164 C 0.14413 0.46229 0.8814 0.0
C4165 C 0.14006 0.46892 0.86119 0.0
C4166 C 0.15074 0.46368 0.84509 0.0
C4167 C 0.145 0.46666 0.82568 0.0
C4168 C 0.1293 0.4762 0.82207 0.0
C4169 C 0.11929 0.4827 0.83807 0.0
C4170 C 0.12453 0.47892 0.85765 0.0
C4171 C 0.15607 0.49422 0.96505 0.0
C4172 C 0.14073 0.5049 0.96612 0.0
C4173 C 0.15906 0.4834 0.94843 0.0
C4174 C 0.14635 0.48247 0.93303 0.0
C4175 C 0.13156 0.49401 0.93363 0.0
C4176 C 0.12886 0.50523 0.94996 0.0
C4177 C 0.14777 0.46898 0.91677 0.0
C4178 C 0.1447 0.47451 0.8971 0.0
C4179 C 0.1511 0.45067 0.9205 0.0
C4180 C 0.15356 0.44359 0.94089 0.0
C4181 C 0.14027 0.44594 0.95545 0.0
C4182 C 0.14294 0.43968 0.97488 0.0
C4183 C 0.15873 0.4308 0.97979 0.0
C4184 C 0.17184 0.42808 0.96526 0.0
C4185 C 0.16927 0.43441 0.94583 0.0
H4186 H 0.16079 0.42598 0.99486 0.0
H4187 H 0.12481 0.47844 0.80691 0.0
H4188 H 0.32455 0.36216 0.57971 0.0
H4189 H 0.30313 0.36645 0.60661 0.0
H4190 H 0.32712 0.4171 0.62003 0.0
H4191 H 0.34905 0.41247 0.59321 0.0
H4192 H 0.32038 0.39584 0.65401 0.0
H4193 H 0.28452 0.42029 0.60028 0.0
H4194 H 0.2677 0.42291 0.56877 0.0
H4195 H 0.24372 0.37183 0.57922 0.0
H4196 H 0.26012 0.36915 0.61106 0.0
H4197 H 0.25341 0.41005 0.72641 0.0
H4198 H 0.27207 0.41573 0.69703 0.0
H4199 H 0.24816 0.37075 0.66739 0.0
H4200 H 0.22876 0.36581 0.6963 0.0
H4201 H 0.25523 0.39387 0.64119 0.0
H4202 H 0.28965 0.36998 0.69604 0.0
H4203 H 0.30099 0.3706 0.73061 0.0
H4204 H 0.32717 0.42035 0.71881 0.0
H4205 H 0.31565 0.42017 0.68428 0.0
C4206 C 0.32574 0.37387 0.58881 0.0
C4207 C 0.33874 0.38678 0.58443 0.0
C4208 C 0.31311 0.37659 0.60384 0.0
C4209 C 0.31325 0.39226 0.61509 0.0
C4210 C 0.32657 0.40501 0.61132 0.0
C4211 C 0.33911 0.40236 0.596 0.0
C4212 C 0.30001 0.39466 0.63144 0.0
C4213 C 0.30613 0.39572 0.65117 0.0
C4214 C 0.28141 0.39408 0.62796 0.0
C4215 C 0.2737 0.39442 0.60776 0.0
C4216 C 0.27585 0.40953 0.59567 0.0
C4217 C 0.26611 0.41118 0.57799 0.0
C4218 C 0.25453 0.39759 0.57208 0.0
C4219 C 0.25269 0.38233 0.58382 0.0
C4220 C 0.26212 0.38078 0.60171 0.0
C4221 C 0.2519 0.40167 0.71339 0.0
C4222 C 0.23982 0.38739 0.71361 0.0
C4223 C 0.2627 0.40479 0.6967 0.0
C4224 C 0.26211 0.39324 0.68025 0.0
C4225 C 0.2491 0.37974 0.67996 0.0
C4226 C 0.23797 0.37691 0.69645 0.0
C4227 C 0.27552 0.39448 0.66382 0.0
C4228 C 0.26947 0.39407 0.64408 0.0
C4229 C 0.29417 0.39541 0.66736 0.0
C4230 C 0.30165 0.39516 0.68775 0.0
C4231 C 0.29779 0.38106 0.70087 0.0
C4232 C 0.30421 0.38136 0.72045 0.0
C4233 C 0.31475 0.39554 0.72692 0.0
C4234 C 0.31897 0.4094 0.71379 0.0
C4235 C 0.31249 0.40922 0.69423 0.0
H4236 H 0.31968 0.39576 0.74211 0.0
H4237 H 0.24702 0.39882 0.55837 0.0
H4238 H 0.33293 0.5014 0.47003 0.0
H4239 H 0.32982 0.52046 0.44038 0.0
H4240 H 0.37556 0.49509 0.41384 0.0
H4241 H 0.37841 0.47564 0.44329 0.0
H4242 H 0.37573 0.53552 0.42172 0.0
H4243 H 0.34288 0.48819 0.39026 0.0
H4244 H 0.31876 0.46628 0.38576 0.0
H4245 H 0.27981 0.50809 0.38738 0.0
H4246 H 0.30366 0.53024 0.39222 0.0
H4247 H 0.38414 0.58415 0.33202 0.0
H4248 H 0.38262 0.56148 0.35784 0.0
H4249 H 0.32671 0.57284 0.36621 0.0
H4250 H 0.3283 0.59533 0.3397 0.0
H4251 H 0.33045 0.53897 0.36791 0.0
H4252 H 0.36146 0.58624 0.39995 0.0
H4253 H 0.38434 0.60913 0.40608 0.0
H4254 H 0.42515 0.56907 0.40632 0.0
H4255 H 0.40256 0.54596 0.39986 0.0
C4256 C 0.34197 0.49951 0.45758 0.0
C4257 C 0.35588 0.48696 0.45894 0.0
C4258 C 0.34018 0.51041 0.44065 0.0
C4259 C 0.35242 0.5092 0.42485 0.0
C4260 C 0.36587 0.49617 0.42579 0.0
C4261 C 0.36745 0.485 0.44257 0.0
C4262 C 0.3527 0.52306 0.40884 0.0
C4263 C 0.36602 0.53613 0.40972 0.0
C4264 C 0.3395 0.52431 0.39378 0.0
C4265 C 0.32508 0.51088 0.39188 0.0
C4266 C 0.32916 0.4927 0.39002 0.0
C4267 C 0.31553 0.48024 0.3873 0.0
C4268 C 0.29777 0.48579 0.38633 0.0
C4269 C 0.29357 0.50381 0.38817 0.0
C4270 C 0.30714 0.51632 0.3909 0.0
C4271 C 0.37156 0.58202 0.33935 0.0
C4272 C 0.35631 0.59161 0.33349 0.0
C4273 C 0.37068 0.56897 0.35432 0.0
C4274 C 0.3546 0.56542 0.3644 0.0
C4275 C 0.33933 0.57512 0.35872 0.0
C4276 C 0.34019 0.58799 0.34345 0.0
C4277 C 0.35375 0.55145 0.38051 0.0
C4278 C 0.34024 0.53843 0.37982 0.0
C4279 C 0.36661 0.55039 0.39605 0.0
C4280 C 0.38031 0.56437 0.39919 0.0
C4281 C 0.37533 0.58233 0.40105 0.0
C4282 C 0.38825 0.59534 0.40465 0.0
C4283 C 0.40619 0.59056 0.40654 0.0
C4284 C 0.41125 0.57276 0.40481 0.0
C4285 C 0.3984 0.5597 0.40118 0.0
H4286 H 0.41616 0.60065 0.40938 0.0
H4287 H 0.28724 0.47617 0.38406 0.0
H4288 H 0.16692 0.26915 0.42011 0.0
H4289 H 0.1636 0.24958 0.39145 0.0
H4290 H 0.10779 0.26344 0.3875 0.0
H4291 H 0.11109 0.28277 0.41674 0.0
H4292 H 0.11083 0.22926 0.38886 0.0
H4293 H 0.13871 0.27345 0.34771 0.0
H4294 H 0.1609 0.29582 0.33715 0.0
H4295 H 0.2024 0.25656 0.34042 0.0
H4296 H 0.18048 0.23399 0.35108 0.0
H4297 H 0.11455 0.1786 0.29254 0.0
H4298 H 0.11215 0.20409 0.31515 0.0
H4299 H 0.15054 0.17989 0.35471 0.0
H4300 H 0.152 0.15382 0.33304 0.0
H4301 H 0.15265 0.22097 0.33218 0.0
H4302 H 0.12405 0.17833 0.37862 0.0
H4303 H 0.10108 0.15603 0.38689 0.0
H4304 H 0.05991 0.19342 0.3718 0.0
H4305 H 0.08271 0.21584 0.36305 0.0
C4306 C 0.15406 0.26833 0.41278 0.0
C4307 C 0.13921 0.27727 0.42064 0.0
C4308 C 0.15218 0.25726 0.39628 0.0
C4309 C 0.13543 0.25504 0.38723 0.0
C4310 C 0.12083 0.26495 0.39426 0.0
C4311 C 0.12273 0.27606 0.41083 0.0
C4312 C 0.13287 0.24068 0.37238 0.0
C4313 C 0.11976 0.22771 0.37622 0.0
C4314 C 0.14465 0.23839 0.35605 0.0
C4315 C 0.15796 0.25206 0.35027 0.0
C4316 C 0.15259 0.26964 0.34634 0.0
C4317 C 0.16511 0.28233 0.34027 0.0
C4318 C 0.18305 0.27762 0.33812 0.0
C4319 C 0.18851 0.2602 0.34207 0.0
C4320 C 0.17604 0.24744 0.34807 0.0
C4321 C 0.12204 0.17848 0.30636 0.0
C4322 C 0.13337 0.16422 0.31112 0.0
C4323 C 0.12075 0.19306 0.31914 0.0
C4324 C 0.13096 0.19362 0.33663 0.0
C4325 C 0.14239 0.17949 0.34135 0.0
C4326 C 0.14342 0.16479 0.32882 0.0
C4327 C 0.13101 0.20968 0.34904 0.0
C4328 C 0.14361 0.22284 0.34467 0.0
C4329 C 0.11876 0.21217 0.36477 0.0
C4330 C 0.10508 0.19864 0.36981 0.0
C4331 C 0.11012 0.1817 0.37673 0.0
C4332 C 0.09713 0.16906 0.38159 0.0
C4333 C 0.07904 0.17327 0.37977 0.0
C4334 C 0.07392 0.19015 0.37313 0.0
C4335 C 0.08687 0.20282 0.3682 0.0
H4336 H 0.069 0.16349 0.38358 0.0
H4337 H 0.19271 0.28746 0.33339 0.0
H4338 H 0.09436 0.86118 0.57904 0.0
H4339 H 0.06737 0.85897 0.59902 0.0
H4340 H 0.04442 0.90291 0.56669 0.0
H4341 H 0.0708 0.90417 0.54502 0.0
H4342 H 0.04632 0.90136 0.61572 0.0
H4343 H 0.02661 0.87302 0.55461 0.0
H4344 H 0.03058 0.85135 0.52747 0.0
H4345 H 0.02903 0.80851 0.57002 0.0
H4346 H 0.02563 0.83004 0.59753 0.0
H4347 H 0.96048 0.90867 0.6485 0.0
H4348 H 0.98181 0.90202 0.6219 0.0
H4349 H 0.99779 0.85432 0.65296 0.0
H4350 H 0.97636 0.86104 0.6798 0.0
H4351 H -0.0003 0.85534 0.60525 0.0
H4352 H 0.02086 0.88183 0.66605 0.0
H4353 H 0.01755 0.90236 0.69442 0.0
H4354 H 0.01787 0.94688 0.65407 0.0
H4355 H 0.02063 0.9265 0.62538 0.0
C4356 C 0.08364 0.87042 0.57589 0.0
C4357 C 0.08528 0.88337 0.56061 0.0
C4358 C 0.06817 0.86909 0.58749 0.0
C4359 C 0.05397 0.88085 0.58447 0.0
C4360 C 0.05536 0.8938 0.56936 0.0
C4361 C 0.07064 0.89472 0.5572 0.0
C4362 C 0.03779 0.8796 0.59727 0.0
C4363 C 0.03606 0.89144 0.61325 0.0
C4364 C 0.02475 0.86616 0.5946 0.0
C4365 C 0.0262 0.85316 0.57814 0.0
C4366 C 0.02737 0.859 0.55821 0.0
C4367 C 0.02949 0.84675 0.54276 0.0
C4368 C 0.03015 0.82857 0.54703 0.0
C4369 C 0.02859 0.82261 0.56675 0.0
C4370 C 0.0266 0.83484 0.58229 0.0
C4371 C 0.96804 0.8964 0.64925 0.0
C4372 C 0.967 0.88547 0.66625 0.0
C4373 C 0.98018 0.89258 0.63402 0.0
C4374 C 0.99154 0.8778 0.63557 0.0
C4375 C 0.9891 0.86575 0.65143 0.0
C4376 C 0.9769 0.8696 0.66677 0.0
C4377 C 0.00808 0.87745 0.62329 0.0
C4378 C 0.00999 0.86525 0.60764 0.0
C4379 C 0.02155 0.89033 0.62643 0.0
C4380 C 0.02073 0.90266 0.6436 0.0
C4381 C 0.02007 0.89599 0.66323 0.0
C4382 C 0.0183 0.90759 0.67936 0.0
C4383 C 0.01746 0.92591 0.67605 0.0
C4384 C 0.01848 0.93267 0.6566 0.0
C4385 C 0.02013 0.92111 0.64039 0.0
H4386 H 0.01605 0.93488 0.68856 0.0
H4387 H 0.0318 0.8191 0.53503 0.0
H4388 H 0.35796 0.81765 0.78797 0.0
H4389 H 0.35959 0.79038 0.80811 0.0
H4390 H 0.3667 0.82189 0.86132 0.0
H4391 H 0.3661 0.84891 0.84108 0.0
H4392 H 0.3879 0.79622 0.86398 0.0
H4393 H 0.32421 0.79734 0.8477 0.0
H4394 H 0.29784 0.7976 0.82546 0.0
H4395 H 0.31761 0.75151 0.79501 0.0
H4396 H 0.34386 0.75078 0.81721 0.0
H4397 H 0.36409 0.72892 0.9363 0.0
H4398 H 0.3689 0.75509 0.9149 0.0
H4399 H 0.36475 0.72191 0.86262 0.0
H4400 H 0.35943 0.69602 0.88395 0.0
H4401 H 0.34332 0.74786 0.8587 0.0
H4402 H 0.40491 0.74438 0.8774 0.0
H4403 H 0.43097 0.74314 0.89984 0.0
H4404 H 0.41603 0.79324 0.92547 0.0
H4405 H 0.38977 0.79469 0.90335 0.0
C4406 C 0.35967 0.81867 0.80399 0.0
C4407 C 0.36177 0.83537 0.81299 0.0
C4408 C 0.36052 0.80308 0.81556 0.0
C4409 C 0.36295 0.80392 0.83644 0.0
C4410 C 0.36485 0.82071 0.84533 0.0
C4411 C 0.36442 0.8362 0.83374 0.0
C4412 C 0.36402 0.78744 0.84905 0.0
C4413 C 0.37798 0.78576 0.86299 0.0
C4414 C 0.35154 0.77338 0.84749 0.0
C4415 C 0.33605 0.77416 0.83389 0.0
C4416 C 0.32296 0.78737 0.83613 0.0
C4417 C 0.30804 0.78757 0.8236 0.0
C4418 C 0.30617 0.77471 0.80873 0.0
C4419 C 0.31911 0.76151 0.80647 0.0
C4420 C 0.33396 0.76115 0.81907 0.0
C4421 C 0.36473 0.7272 0.92025 0.0
C4422 C 0.36136 0.71048 0.91174 0.0
C4423 C 0.3675 0.74216 0.908 0.0
C4424 C 0.3672 0.74059 0.88703 0.0
C4425 C 0.36495 0.7236 0.87868 0.0
C4426 C 0.36199 0.70877 0.89087 0.0
C4427 C 0.36711 0.75664 0.87375 0.0
C4428 C 0.3533 0.75827 0.85971 0.0
C4429 C 0.37973 0.77059 0.87526 0.0
C4430 C 0.39526 0.76953 0.88889 0.0
C4431 C 0.40707 0.75503 0.88798 0.0
C4432 C 0.42191 0.75432 0.9006 0.0
C4433 C 0.42512 0.76807 0.91411 0.0
C4434 C 0.41351 0.78258 0.91503 0.0
C4435 C 0.39866 0.78336 0.90244 0.0
H4436 H 0.43663 0.7675 0.92385 0.0
H4437 H 0.29462 0.77492 0.79903 0.0
H4438 H 0.39933 0.12269 0.08646 0.0
H4439 H 0.42555 0.12417 0.10771 0.0
H4440 H 0.45796 0.10365 0.05976 0.0
H4441 H 0.4314 0.10166 0.03837 0.0
H4442 H 0.46671 0.08793 0.09335 0.0
H4443 H 0.45671 0.14894 0.07457 0.0
H4444 H 0.43857 0.17611 0.07107 0.0
H4445 H 0.43218 0.17858 0.13475 0.0
H4446 H 0.44994 0.15117 0.13863 0.0
H4447 H 0.55036 0.1044 0.13387 0.0
H4448 H 0.52445 0.10966 0.11263 0.0
H4449 H 0.49295 0.12197 0.16469 0.0
H4450 H 0.51908 0.1162 0.18614 0.0
H4451 H 0.48349 0.14276 0.12988 0.0
H4452 H 0.49181 0.08209 0.14901 0.0
H4453 H 0.50891 0.0544 0.1536 0.0
H4454 H 0.51707 0.05089 0.09024 0.0
H4455 H 0.50042 0.07887 0.0853 0.0
C4456 C 0.41202 0.11858 0.08026 0.0
C4457 C 0.41321 0.11208 0.06056 0.0
C4458 C 0.4271 0.11951 0.09251 0.0
C4459 C 0.44392 0.11436 0.08534 0.0
C4460 C 0.44518 0.10781 0.06569 0.0
C4461 C 0.43 0.10672 0.05342 0.0
C4462 C 0.46007 0.11539 0.09847 0.0
C4463 C 0.4705 0.10003 0.10102 0.0
C4464 C 0.46477 0.13102 0.10916 0.0
C4465 C 0.45457 0.14787 0.10688 0.0
C4466 C 0.45137 0.15521 0.08783 0.0
C4467 C 0.44113 0.17065 0.08578 0.0
C4468 C 0.43419 0.17905 0.10268 0.0
C4469 C 0.43754 0.17205 0.12167 0.0
C4470 C 0.4477 0.15655 0.1238 0.0
C4471 C 0.53801 0.10841 0.14078 0.0
C4472 C 0.53669 0.10947 0.16166 0.0
C4473 C 0.52319 0.11154 0.12861 0.0
C4474 C 0.5066 0.11587 0.13704 0.0
C4475 C 0.50557 0.11855 0.15782 0.0
C4476 C 0.52051 0.11529 0.17007 0.0
C4477 C 0.49017 0.11539 0.12437 0.0
C4478 C 0.47969 0.13075 0.12204 0.0
C4479 C 0.48528 0.09975 0.11395 0.0
C4480 C 0.49505 0.08273 0.1168 0.0
C4481 C 0.4974 0.07552 0.13606 0.0
C4482 C 0.50701 0.05977 0.13873 0.0
C4483 C 0.51412 0.05092 0.12223 0.0
C4484 C 0.51159 0.05779 0.10301 0.0
C4485 C 0.50208 0.07361 0.10027 0.0
H4486 H 0.52155 0.03871 0.12433 0.0
H4487 H 0.42625 0.19099 0.10106 0.0
H4488 H 0.15087 0.84459 0.19248 0.0
H4489 H 0.15102 0.81813 0.17163 0.0
H4490 H 0.11642 0.79178 0.21421 0.0
H4491 H 0.11994 0.81679 0.23692 0.0
H4492 H 0.13309 0.7684 0.20117 0.0
H4493 H 0.1046 0.81547 0.1625 0.0
H4494 H 0.10307 0.84481 0.14592 0.0
H4495 H 0.14861 0.83151 0.10999 0.0
H4496 H 0.15053 0.80223 0.12647 0.0
H4497 H 0.11583 0.69947 0.13019 0.0
H4498 H 0.11003 0.72583 0.15094 0.0
H4499 H 0.15394 0.75299 0.12229 0.0
H4500 H 0.15938 0.72694 0.10148 0.0
H4501 H 0.12783 0.77533 0.12779 0.0
H4502 H 0.1565 0.72911 0.16899 0.0
H4503 H 0.1577 0.70006 0.18622 0.0
H4504 H 0.10919 0.71233 0.21744 0.0
H4505 H 0.10756 0.7413 0.20016 0.0
C4506 C 0.14406 0.83275 0.19771 0.0
C4507 C 0.13592 0.83244 0.21654 0.0
C4508 C 0.14349 0.81781 0.1854 0.0
C4509 C 0.13302 0.80294 0.19067 0.0
C4510 C 0.12464 0.80288 0.20953 0.0
C4511 C 0.12646 0.81728 0.22251 0.0
C4512 C 0.13105 0.78735 0.17694 0.0
C4513 C 0.1315 0.77011 0.18518 0.0
C4514 C 0.1292 0.78916 0.15588 0.0
C4515 C 0.12771 0.80667 0.14574 0.0
C4516 C 0.11427 0.81882 0.15106 0.0
C4517 C 0.11337 0.83545 0.1417 0.0
C4518 C 0.12574 0.84002 0.12692 0.0
C4519 C 0.13903 0.82796 0.12142 0.0
C4520 C 0.14001 0.81134 0.13074 0.0
C4521 C 0.12389 0.71129 0.12811 0.0
C4522 C 0.13798 0.71135 0.11429 0.0
C4523 C 0.12072 0.72624 0.14006 0.0
C4524 C 0.13172 0.74135 0.13839 0.0
C4525 C 0.14527 0.74155 0.12389 0.0
C4526 C 0.1484 0.72669 0.11201 0.0
C4527 C 0.13003 0.75675 0.15216 0.0
C4528 C 0.12891 0.77387 0.14388 0.0
C4529 C 0.1309 0.75486 0.17316 0.0
C4530 C 0.13182 0.73728 0.18315 0.0
C4531 C 0.14601 0.72553 0.17939 0.0
C4532 C 0.14678 0.70909 0.18919 0.0
C4533 C 0.13352 0.70434 0.20289 0.0
C4534 C 0.11944 0.716 0.2068 0.0
C4535 C 0.11858 0.73241 0.19701 0.0
H4536 H 0.13417 0.69165 0.21051 0.0
H4537 H 0.12503 0.8529 0.1197 0.0
H4538 H 0.55015 0.88447 0.39471 0.0
H4539 H 0.5234 0.87945 0.41509 0.0
H4540 H 0.49169 0.87571 0.36156 0.0
H4541 H 0.51861 0.8804 0.34112 0.0
H4542 H 0.47921 0.90113 0.38751 0.0
H4543 H 0.49513 0.84021 0.3908 0.0
H4544 H 0.51323 0.81333 0.39662 0.0
H4545 H 0.519 0.82723 0.45843 0.0
H4546 H 0.50116 0.85436 0.45294 0.0
H4547 H 0.39699 0.8815 0.438 0.0
H4548 H 0.42355 0.88108 0.41661 0.0
H4549 H 0.45706 0.88606 0.46861 0.0
H4550 H 0.43033 0.88695 0.49008 0.0
H4551 H 0.46794 0.85842 0.44267 0.0
H4552 H 0.45817 0.92243 0.43658 0.0
H4553 H 0.44203 0.9504 0.42953 0.0
H4554 H 0.42451 0.92962 0.37321 0.0
H4555 H 0.44117 0.90183 0.37957 0.0
C4556 C 0.53755 0.88202 0.38731 0.0
C4557 C 0.53649 0.88274 0.36633 0.0
C4558 C 0.52224 0.87914 0.39897 0.0
C4559 C 0.50543 0.87721 0.38994 0.0
C4560 C 0.50448 0.87712 0.36892 0.0
C4561 C 0.51988 0.8797 0.35723 0.0
C4562 C 0.48878 0.87755 0.40237 0.0
C4563 C 0.47664 0.89153 0.39931 0.0
C4564 C 0.48553 0.86539 0.41821 0.0
C4565 C 0.49696 0.84949 0.42139 0.0
C4566 C 0.50048 0.83771 0.40557 0.0
C4567 C 0.51063 0.82237 0.40883 0.0
C4568 C 0.5173 0.8186 0.42787 0.0
C4569 C 0.51385 0.83018 0.44368 0.0
C4570 C 0.50372 0.84554 0.4405 0.0
C4571 C 0.41003 0.8827 0.44486 0.0
C4572 C 0.41158 0.88428 0.46573 0.0
C4573 C 0.42522 0.88252 0.4326 0.0
C4574 C 0.4424 0.88356 0.44092 0.0
C4575 C 0.44398 0.88526 0.46179 0.0
C4576 C 0.42872 0.88586 0.47406 0.0
C4577 C 0.45859 0.88209 0.42786 0.0
C4578 C 0.47058 0.86791 0.4308 0.0
C4579 C 0.46178 0.89402 0.41186 0.0
C4580 C 0.45066 0.91001 0.40867 0.0
C4581 C 0.45072 0.92378 0.42279 0.0
C4582 C 0.44164 0.93965 0.41882 0.0
C4583 C 0.43209 0.9417 0.40104 0.0
C4584 C 0.43182 0.92797 0.38704 0.0
C4585 C 0.4412 0.91223 0.39073 0.0
H4586 H 0.42499 0.95396 0.39808 0.0
H4587 H 0.5251 0.80669 0.43038 0.0
H4588 H 0.35677 0.26252 0.59232 0.0
H4589 H 0.3621 0.23617 0.6133 0.0
H4590 H 0.37196 0.26995 0.66401 0.0
H4591 H 0.36612 0.29628 0.64321 0.0
H4592 H 0.39521 0.23533 0.65842 0.0
H4593 H 0.33546 0.25905 0.66566 0.0
H4594 H 0.30716 0.27091 0.65244 0.0
H4595 H 0.29814 0.22217 0.62078 0.0
H4596 H 0.32664 0.21018 0.63349 0.0
H4597 H 0.37041 0.17665 0.73973 0.0
H4598 H 0.37186 0.20308 0.71798 0.0
H4599 H 0.35789 0.17081 0.66721 0.0
H4600 H 0.35733 0.14426 0.68875 0.0
H4601 H 0.33784 0.20485 0.67294 0.0
H4602 H 0.3968 0.18029 0.66789 0.0
H4603 H 0.42528 0.16869 0.68089 0.0
H4604 H 0.43597 0.21887 0.70881 0.0
H4605 H 0.40735 0.23068 0.69628 0.0
C4606 C 0.36064 0.26429 0.60778 0.0
C4607 C 0.36107 0.28135 0.61622 0.0
C4608 C 0.36363 0.24928 0.61974 0.0
C4609 C 0.36738 0.25116 0.64018 0.0
C4610 C 0.36921 0.26825 0.64824 0.0
C4611 C 0.36585 0.28324 0.63639 0.0
C4612 C 0.36683 0.23543 0.65355 0.0
C4613 C 0.38268 0.22875 0.66179 0.0
C4614 C 0.35049 0.22677 0.65773 0.0
C4615 C 0.33328 0.23383 0.65027 0.0
C4616 C 0.32754 0.25095 0.65568 0.0
C4617 C 0.31145 0.25768 0.64832 0.0
C4618 C 0.30088 0.24733 0.63572 0.0
C4619 C 0.30637 0.2302 0.6305 0.0
C4620 C 0.32249 0.22343 0.63777 0.0
C4621 C 0.36761 0.17529 0.72393 0.0
C4622 C 0.36384 0.15855 0.71576 0.0
C4623 C 0.36851 0.19031 0.71155 0.0
C4624 C 0.36513 0.18882 0.69099 0.0
C4625 C 0.36066 0.17218 0.68301 0.0
C4626 C 0.36033 0.15709 0.69526 0.0
C4627 C 0.36622 0.20464 0.6778 0.0
C4628 C 0.3504 0.21138 0.66961 0.0
C4629 C 0.3826 0.21334 0.67379 0.0
C4630 C 0.3998 0.20629 0.68139 0.0
C4631 C 0.4051 0.18879 0.67702 0.0
C4632 C 0.4213 0.18218 0.68425 0.0
C4633 C 0.4324 0.19301 0.69573 0.0
C4634 C 0.42734 0.21048 0.69996 0.0
C4635 C 0.41113 0.21714 0.69279 0.0
H4636 H 0.44495 0.18789 0.70131 0.0
H4637 H 0.28842 0.25255 0.63004 0.0
H4638 H 0.09389 0.13009 0.94682 0.0
H4639 H 0.06687 0.13118 0.92688 0.0
H4640 H 0.04083 0.09564 0.96821 0.0
H4641 H 0.06783 0.09508 0.98913 0.0
H4642 H 0.03871 0.08662 0.92461 0.0
H4643 H 0.02864 0.13551 0.97017 0.0
H4644 H 0.03756 0.16313 0.98715 0.0
H4645 H 0.0427 0.18958 0.9305 0.0
H4646 H 0.03398 0.16203 0.91313 0.0
H4647 H 0.95454 0.08959 0.88195 0.0
H4648 H 0.9769 0.09376 0.90818 0.0
H4649 H 0.00106 0.13595 0.87373 0.0
H4650 H 0.97849 0.13182 0.84751 0.0
H4651 H 0.00392 0.14212 0.91441 0.0
H4652 H 0.01648 0.09655 0.86819 0.0
H4653 H 0.01016 0.07011 0.84778 0.0
H4654 H 0.00443 0.03852 0.90096 0.0
H4655 H 0.01029 0.06493 0.92175 0.0
C4656 C 0.08247 0.1225 0.95191 0.0
C4657 C 0.0833 0.11211 0.9695 0.0
C4658 C 0.06699 0.12318 0.94038 0.0
C4659 C 0.05188 0.11344 0.94599 0.0
C4660 C 0.05244 0.10317 0.96357 0.0
C4661 C 0.06789 0.1028 0.97545 0.0
C4662 C 0.03566 0.11398 0.93325 0.0
C4663 C 0.03084 0.09862 0.92274 0.0
C4664 C 0.02603 0.12993 0.92996 0.0
C4665 C 0.03083 0.14665 0.94035 0.0
C4666 C 0.03179 0.14718 0.96132 0.0
C4667 C 0.03681 0.16282 0.97102 0.0
C4668 C 0.0408 0.17807 0.95991 0.0
C4669 C 0.03965 0.17774 0.93908 0.0
C4670 C 0.03463 0.16212 0.9293 0.0
C4671 C 0.96418 0.10024 0.88043 0.0
C4672 C 0.96474 0.11055 0.86293 0.0
C4673 C 0.97704 0.10252 0.8953 0.0
C4674 C 0.99083 0.11497 0.89277 0.0
C4675 C 0.99054 0.12629 0.87601 0.0
C4676 C 0.97762 0.124 0.8611 0.0
C4677 C 0.0066 0.11458 0.90626 0.0
C4678 C 0.01155 0.13001 0.91659 0.0
C4679 C 0.01674 0.09883 0.90892 0.0
C4680 C 0.01357 0.08279 0.89654 0.0
C4681 C 0.01371 0.08401 0.87555 0.0
C4682 C 0.01022 0.06903 0.86391 0.0
C4683 C 0.00683 0.05266 0.87307 0.0
C4684 C 0.007 0.05123 0.89389 0.0
C4685 C 0.01039 0.06621 0.90562 0.0
H4686 H 0.00413 0.04107 0.86402 0.0
H4687 H 0.04472 0.19016 0.96746 0.0
H4688 H 0.89345 0.83248 0.7143 0.0
H4689 H 0.89558 0.80501 0.69547 0.0
H4690 H 0.83861 0.80561 0.6866 0.0
H4691 H 0.83654 0.83231 0.70621 0.0
H4692 H 0.8485 0.77383 0.69796 0.0
H4693 H 0.87062 0.8173 0.64937 0.0
H4694 H 0.89143 0.84077 0.63826 0.0
H4695 H 0.93568 0.80527 0.6467 0.0
H4696 H 0.91513 0.78164 0.658 0.0
H4697 H 0.82698 0.72461 0.6139 0.0
H4698 H 0.83319 0.74487 0.64119 0.0
H4699 H 0.88932 0.73244 0.6371 0.0
H4700 H 0.88311 0.71257 0.60889 0.0
H4701 H 0.88565 0.76645 0.63724 0.0
H4702 H 0.86308 0.72176 0.68164 0.0
H4703 H 0.84264 0.69869 0.69453 0.0
H4704 H 0.79964 0.73641 0.69512 0.0
H4705 H 0.81981 0.75968 0.68225 0.0
C4706 C 0.88122 0.82644 0.70916 0.0
C4707 C 0.86438 0.83386 0.71372 0.0
C4708 C 0.88256 0.81088 0.69788 0.0
C4709 C 0.86719 0.80295 0.68997 0.0
C4710 C 0.85063 0.81107 0.69316 0.0
C4711 C 0.84932 0.82629 0.70481 0.0
C4712 C 0.86795 0.78606 0.67863 0.0
C4713 C 0.85656 0.77224 0.6846 0.0
C4714 C 0.87908 0.78366 0.66178 0.0
C4715 C 0.89136 0.79776 0.65463 0.0
C4716 C 0.88479 0.81453 0.6489 0.0
C4717 C 0.89654 0.82785 0.64258 0.0
C4718 C 0.91487 0.82452 0.64181 0.0
C4719 C 0.92149 0.80784 0.64731 0.0
C4720 C 0.90979 0.79447 0.65364 0.0
C4721 C 0.84062 0.72598 0.61901 0.0
C4722 C 0.85459 0.71723 0.60912 0.0
C4723 C 0.84416 0.73741 0.63484 0.0
C4724 C 0.86174 0.74013 0.64142 0.0
C4725 C 0.87565 0.73056 0.63232 0.0
C4726 C 0.87209 0.71913 0.61631 0.0
C4727 C 0.86551 0.75448 0.65605 0.0
C4728 C 0.87782 0.76783 0.65079 0.0
C4729 C 0.85523 0.75649 0.67364 0.0
C4730 C 0.84296 0.74243 0.68095 0.0
C4731 C 0.84924 0.72509 0.68441 0.0
C4732 C 0.83771 0.712 0.69176 0.0
C4733 C 0.81985 0.71608 0.69563 0.0
C4734 C 0.81348 0.73327 0.69215 0.0
C4735 C 0.82497 0.74643 0.68491 0.0
H4736 H 0.81095 0.70593 0.70132 0.0
H4737 H 0.92394 0.83486 0.63693 0.0
H4738 H 0.03975 0.08619 0.38072 0.0
H4739 H 0.01737 0.09153 0.40665 0.0
H4740 H -0.00076 0.13813 0.37492 0.0
H4741 H 0.02189 0.13284 0.34893 0.0
H4742 H 0.99586 0.14031 0.41879 0.0
H4743 H 0.97913 0.10415 0.36374 0.0
H4744 H 0.98398 0.0805 0.33895 0.0
H4745 H 0.98539 0.04146 0.38589 0.0
H4746 H 0.98098 0.065 0.41104 0.0
H4747 H 0.90343 0.13244 0.44816 0.0
H4748 H 0.93051 0.13429 0.42823 0.0
H4749 H 0.95368 0.09149 0.46233 0.0
H4750 H 0.9272 0.0906 0.48373 0.0
H4751 H 0.95422 0.08894 0.41684 0.0
H4752 H 0.96916 0.12732 0.47191 0.0
H4753 H 0.96297 0.15215 0.4948 0.0
H4754 H 0.96262 0.18862 0.44531 0.0
H4755 H 0.96839 0.16389 0.42203 0.0
C4756 C 0.03145 0.09795 0.37972 0.0
C4757 C 0.03246 0.10911 0.36291 0.0
C4758 C 0.01866 0.10099 0.39449 0.0
C4759 C 0.00648 0.11509 0.39258 0.0
C4760 C 0.00854 0.12722 0.37672 0.0
C4761 C 0.02145 0.1242 0.3619 0.0
C4762 C 0.99005 0.11512 0.40506 0.0
C4763 C 0.98668 0.12918 0.41825 0.0
C4764 C 0.97798 0.10065 0.4043 0.0
C4765 C 0.97994 0.08634 0.38927 0.0
C4766 C 0.9806 0.09054 0.36879 0.0
C4767 C 0.98327 0.07716 0.35468 0.0
C4768 C 0.98505 0.05949 0.36085 0.0
C4769 C 0.98406 0.05516 0.38115 0.0
C4770 C 0.98148 0.06852 0.39534 0.0
C4771 C 0.91425 0.12341 0.45167 0.0
C4772 C 0.91269 0.11086 0.46733 0.0
C4773 C 0.92975 0.12452 0.44013 0.0
C4774 C 0.94402 0.11293 0.44367 0.0
C4775 C 0.94268 0.10042 0.45921 0.0
C4776 C 0.92734 0.09968 0.47122 0.0
C4777 C 0.96026 0.11386 0.43099 0.0
C4778 C 0.96347 0.10003 0.41751 0.0
C4779 C 0.97188 0.12873 0.43124 0.0
C4780 C 0.96897 0.14371 0.44521 0.0
C4781 C 0.96759 0.1406 0.46588 0.0
C4782 C 0.96418 0.15466 0.47893 0.0
C4783 C 0.96233 0.17194 0.47151 0.0
C4784 C 0.964 0.17521 0.45103 0.0
C4785 C 0.96735 0.16118 0.43789 0.0
H4786 H 0.95966 0.1828 0.48165 0.0
H4787 H 0.98715 0.04915 0.3499 0.0
H4788 H 0.65229 0.29324 0.13495 0.0
H4789 H 0.64684 0.27081 0.1609 0.0
H4790 H 0.61266 0.24206 0.12047 0.0
H4791 H 0.61798 0.26467 0.09461 0.0
H4792 H 0.60151 0.23782 0.15922 0.0
H4793 H 0.6551 0.23243 0.12176 0.0
H4794 H 0.68355 0.24231 0.10699 0.0
H4795 H 0.70522 0.25049 0.16562 0.0
H4796 H 0.67671 0.24102 0.18076 0.0
H4797 H 0.61741 0.14991 0.19424 0.0
H4798 H 0.61578 0.17687 0.17427 0.0
H4799 H 0.64771 0.20449 0.2178 0.0
H4800 H 0.64927 0.17733 0.23828 0.0
H4801 H 0.65902 0.20986 0.17852 0.0
H4802 H 0.60363 0.21132 0.21508 0.0
H4803 H 0.57531 0.19836 0.22685 0.0
H4804 H 0.55694 0.19412 0.1663 0.0
H4805 H 0.58535 0.20668 0.15411 0.0
C4806 C 0.64299 0.28254 0.13197 0.0
C4807 C 0.63539 0.28069 0.11294 0.0
C4808 C 0.64 0.26965 0.14671 0.0
C4809 C 0.62961 0.25456 0.1425 0.0
C4810 C 0.62072 0.25356 0.12406 0.0
C4811 C 0.62369 0.2665 0.10932 0.0
C4812 C 0.63009 0.23884 0.15606 0.0
C4813 C 0.61406 0.23168 0.16341 0.0
C4814 C 0.64647 0.23068 0.1614 0.0
C4815 C 0.66368 0.23627 0.15239 0.0
C4816 C 0.66587 0.23651 0.13151 0.0
C4817 C 0.68201 0.24202 0.12307 0.0
C4818 C 0.69616 0.2471 0.13535 0.0
C4819 C 0.69422 0.24661 0.15612 0.0
C4820 C 0.67806 0.24119 0.16464 0.0
C4821 C 0.62401 0.1617 0.19979 0.0
C4822 C 0.63356 0.16138 0.21793 0.0
C4823 C 0.62303 0.17715 0.18827 0.0
C4824 C 0.63145 0.19276 0.19462 0.0
C4825 C 0.64106 0.19257 0.21266 0.0
C4826 C 0.64197 0.17706 0.22433 0.0
C4827 C 0.63051 0.20911 0.18213 0.0
C4828 C 0.64648 0.21622 0.17468 0.0
C4829 C 0.61405 0.21687 0.17635 0.0
C4830 C 0.59671 0.20982 0.18367 0.0
C4831 C 0.59361 0.20753 0.20425 0.0
C4832 C 0.57753 0.20024 0.211 0.0
C4833 C 0.56434 0.19539 0.19733 0.0
C4834 C 0.56718 0.19787 0.17687 0.0
C4835 C 0.58328 0.20508 0.17003 0.0
H4836 H 0.55191 0.18974 0.20259 0.0
H4837 H 0.70866 0.25135 0.12879 0.0
H4838 H 0.44703 0.87504 0.89016 0.0
H4839 H 0.47287 0.86775 0.91119 0.0
H4840 H 0.50813 0.88765 0.86525 0.0
H4841 H 0.4823 0.89437 0.84409 0.0
H4842 H 0.52426 0.86165 0.88419 0.0
H4843 H 0.49146 0.91406 0.90407 0.0
H4844 H 0.4653 0.93111 0.91557 0.0
H4845 H 0.46198 0.89845 0.9682 0.0
H4846 H 0.48791 0.88099 0.95681 0.0
H4847 H 0.59821 0.88838 0.94252 0.0
H4848 H 0.57255 0.8869 0.92021 0.0
H4849 H 0.53903 0.87216 0.97016 0.0
H4850 H 0.56454 0.87547 0.99278 0.0
H4851 H 0.5217 0.89275 0.94932 0.0
H4852 H 0.55774 0.84194 0.93003 0.0
H4853 H 0.58524 0.82722 0.91828 0.0
H4854 H 0.58403 0.85838 0.86443 0.0
H4855 H 0.55672 0.87347 0.87596 0.0
C4856 C 0.46035 0.87732 0.88441 0.0
C4857 C 0.46279 0.8853 0.86565 0.0
C4858 C 0.47511 0.87329 0.89644 0.0
C4859 C 0.49249 0.87757 0.89003 0.0
C4860 C 0.49491 0.88431 0.87061 0.0
C4861 C 0.48017 0.88819 0.85854 0.0
C4862 C 0.50787 0.87701 0.90415 0.0
C4863 C 0.52374 0.86842 0.89846 0.0
C4864 C 0.50723 0.88575 0.92285 0.0
C4865 C 0.49148 0.8961 0.92948 0.0
C4866 C 0.48504 0.91041 0.918 0.0
C4867 C 0.47027 0.92016 0.9245 0.0
C4868 C 0.46196 0.91584 0.94258 0.0
C4869 C 0.46839 0.90176 0.95417 0.0
C4870 C 0.4831 0.89192 0.94769 0.0
C4871 C 0.58527 0.88499 0.94869 0.0
C4872 C 0.58323 0.88204 0.9693 0.0
C4873 C 0.57065 0.88385 0.93588 0.0
C4874 C 0.55384 0.87875 0.94326 0.0
C4875 C 0.55183 0.87599 0.96398 0.0
C4876 C 0.56635 0.8779 0.97694 0.0
C4877 C 0.53816 0.87714 0.92965 0.0
C4878 C 0.52223 0.88553 0.93532 0.0
C4879 C 0.53888 0.86828 0.91094 0.0
C4880 C 0.55516 0.85888 0.9039 0.0
C4881 C 0.56336 0.84569 0.9157 0.0
C4882 C 0.57893 0.83729 0.90909 0.0
C4883 C 0.58638 0.84187 0.89063 0.0
C4884 C 0.57825 0.85483 0.87873 0.0
C4885 C 0.56271 0.86329 0.88528 0.0
H4886 H 0.59843 0.83536 0.88554 0.0
H4887 H 0.45056 0.92344 0.94762 0.0
H4888 H 0.88619 0.27123 0.92595 0.0
H4889 H 0.89172 0.25036 0.89832 0.0
H4890 H 0.84043 0.26346 0.87317 0.0
H4891 H 0.83497 0.28427 0.90056 0.0
H4892 H 0.84793 0.22586 0.88886 0.0
H4893 H 0.86938 0.27264 0.84445 0.0
H4894 H 0.88937 0.29643 0.83243 0.0
H4895 H 0.93414 0.26097 0.83625 0.0
H4896 H 0.91443 0.23701 0.84845 0.0
H4897 H 0.84534 0.17812 0.79134 0.0
H4898 H 0.8462 0.2041 0.81354 0.0
H4899 H 0.8871 0.17895 0.84883 0.0
H4900 H 0.88522 0.15253 0.82822 0.0
H4901 H 0.88631 0.22216 0.82864 0.0
H4902 H 0.86668 0.17656 0.87648 0.0
H4903 H 0.84764 0.15211 0.88856 0.0
H4904 H 0.80119 0.18488 0.88119 0.0
H4905 H 0.81996 0.20934 0.86831 0.0
C4906 C 0.87651 0.27018 0.91401 0.0
C4907 C 0.86019 0.27931 0.91523 0.0
C4908 C 0.87964 0.25827 0.89828 0.0
C4909 C 0.86647 0.25539 0.88373 0.0
C4910 C 0.8508 0.26559 0.88418 0.0
C4911 C 0.8477 0.27746 0.89978 0.0
C4912 C 0.86723 0.23958 0.87061 0.0
C4913 C 0.85625 0.22511 0.87561 0.0
C4914 C 0.87849 0.23841 0.85372 0.0
C4915 C 0.89047 0.25312 0.84765 0.0
C4916 C 0.88353 0.27001 0.84307 0.0
C4917 C 0.8948 0.28349 0.83609 0.0
C4918 C 0.91302 0.28023 0.83364 0.0
C4919 C 0.92003 0.26349 0.8382 0.0
C4920 C 0.90882 0.24996 0.84514 0.0
C4921 C 0.85409 0.17787 0.80417 0.0
C4922 C 0.86441 0.16272 0.80855 0.0
C4923 C 0.85472 0.1928 0.81671 0.0
C4924 C 0.86625 0.19312 0.83323 0.0
C4925 C 0.87763 0.1787 0.83661 0.0
C4926 C 0.87656 0.16361 0.82463 0.0
C4927 C 0.8668 0.20866 0.84674 0.0
C4928 C 0.87804 0.22296 0.84191 0.0
C4929 C 0.85608 0.20957 0.86408 0.0
C4930 C 0.84468 0.19457 0.87074 0.0
C4931 C 0.85237 0.17837 0.8768 0.0
C4932 C 0.84163 0.16455 0.88396 0.0
C4933 C 0.82319 0.16688 0.88548 0.0
C4934 C 0.81546 0.18304 0.87983 0.0
C4935 C 0.82614 0.19685 0.87251 0.0
H4936 H 0.81491 0.15621 0.89115 0.0
H4937 H 0.9217 0.29066 0.82815 0.0
H4938 H 0.45 0.11336 0.63998 0.0
H4939 H 0.47448 0.1208 0.61706 0.0
H4940 H 0.51237 0.11142 0.66449 0.0
H4941 H 0.48786 0.10483 0.68744 0.0
H4942 H 0.52545 0.13527 0.64188 0.0
H4943 H 0.49689 0.07851 0.62889 0.0
H4944 H 0.47204 0.0587 0.61956 0.0
H4945 H 0.46694 0.08574 0.56324 0.0
H4946 H 0.49154 0.10591 0.57239 0.0
H4947 H 0.60237 0.10985 0.5879 0.0
H4948 H 0.57617 0.1105 0.60961 0.0
H4949 H 0.54238 0.11767 0.55795 0.0
H4950 H 0.56865 0.11555 0.53613 0.0
H4951 H 0.52614 0.0976 0.58126 0.0
H4952 H 0.55732 0.15287 0.5939 0.0
H4953 H 0.58293 0.17148 0.60382 0.0
H4954 H 0.58388 0.14625 0.66144 0.0
H4955 H 0.55851 0.12729 0.65177 0.0
C4956 C 0.46353 0.11377 0.64566 0.0
C4957 C 0.46709 0.1088 0.66551 0.0
C4958 C 0.47756 0.11767 0.63248 0.0
C4959 C 0.49541 0.11612 0.63881 0.0
C4960 C 0.4988 0.11262 0.65911 0.0
C4961 C 0.48478 0.109 0.67232 0.0
C4962 C 0.51059 0.11653 0.62427 0.0
C4963 C 0.52562 0.12697 0.62865 0.0
C4964 C 0.51082 0.10593 0.60677 0.0
C4965 C 0.49593 0.09385 0.60141 0.0
C4966 C 0.49038 0.08032 0.61458 0.0
C4967 C 0.47634 0.06902 0.60932 0.0
C4968 C 0.46789 0.07099 0.59084 0.0
C4969 C 0.47346 0.08426 0.57757 0.0
C4970 C 0.48743 0.09563 0.58279 0.0
C4971 C 0.5893 0.1115 0.58122 0.0
C4972 C 0.58748 0.1128 0.56037 0.0
C4973 C 0.57431 0.11207 0.59366 0.0
C4974 C 0.55718 0.11479 0.58561 0.0
C4975 C 0.55538 0.11571 0.56466 0.0
C4976 C 0.57036 0.11451 0.55216 0.0
C4977 C 0.54113 0.11629 0.59888 0.0
C4978 C 0.52594 0.10613 0.5943 0.0
C4979 C 0.54082 0.12705 0.61628 0.0
C4980 C 0.55605 0.13858 0.62205 0.0
C4981 C 0.56305 0.15123 0.60864 0.0
C4982 C 0.57753 0.16184 0.61422 0.0
C4983 C 0.58503 0.16004 0.63324 0.0
C4984 C 0.57807 0.14763 0.64672 0.0
C4985 C 0.56364 0.13696 0.6412 0.0
H4986 H 0.59623 0.16827 0.63753 0.0
H4987 H 0.45706 0.0622 0.58677 0.0
H4988 H 0.62929 0.81264 0.28586 0.0
H4989 H 0.6267 0.78671 0.30839 0.0
H4990 H 0.6404 0.8198 0.35856 0.0
H4991 H 0.64209 0.84573 0.33636 0.0
H4992 H 0.65987 0.78466 0.35368 0.0
H4993 H 0.60246 0.81214 0.35951 0.0
H4994 H 0.57425 0.82502 0.34729 0.0
H4995 H 0.56045 0.77521 0.32022 0.0
H4996 H 0.58876 0.76211 0.33202 0.0
H4997 H 0.63795 0.73501 0.43908 0.0
H4998 H 0.63248 0.75913 0.4152 0.0
H4999 H 0.6249 0.72078 0.3683 0.0
H5000 H 0.6308 0.69655 0.3922 0.0
H5001 H 0.6012 0.75781 0.37055 0.0
H5002 H 0.66059 0.73111 0.3648 0.0
H5003 H 0.68876 0.71952 0.3787 0.0
H5004 H 0.69856 0.76965 0.40719 0.0
H5005 H 0.67024 0.78141 0.39373 0.0
C5006 C 0.63198 0.81424 0.30165 0.0
C5007 C 0.63619 0.83104 0.30939 0.0
C5008 C 0.63035 0.79952 0.3145 0.0
C5009 C 0.63328 0.80139 0.33514 0.0
C5010 C 0.63804 0.81808 0.34272 0.0
C5011 C 0.63912 0.83282 0.33003 0.0
C5012 C 0.63152 0.78597 0.3489 0.0
C5013 C 0.64704 0.77882 0.35737 0.0
C5014 C 0.61477 0.77836 0.35371 0.0
C5015 C 0.59786 0.78623 0.34636 0.0
C5016 C 0.59354 0.804 0.35071 0.0
C5017 C 0.57749 0.81133 0.34393 0.0
C5018 C 0.5656 0.80096 0.33291 0.0
C5019 C 0.56971 0.78324 0.3287 0.0
C5020 C 0.58575 0.77586 0.33544 0.0
C5021 C 0.63418 0.7317 0.42392 0.0
C5022 C 0.63439 0.71392 0.41758 0.0
C5023 C 0.63124 0.74549 0.41024 0.0
C5024 C 0.62835 0.74175 0.38999 0.0
C5025 C 0.62694 0.72394 0.38392 0.0
C5026 C 0.63011 0.7101 0.3976 0.0
C5027 C 0.6296 0.75635 0.37502 0.0
C5028 C 0.61403 0.76347 0.36655 0.0
C5029 C 0.64629 0.7641 0.37027 0.0
C5030 C 0.6632 0.75703 0.37852 0.0
C5031 C 0.66864 0.73957 0.37425 0.0
C5032 C 0.68466 0.733 0.38198 0.0
C5033 C 0.69542 0.74382 0.39388 0.0
C5034 C 0.69019 0.76126 0.39802 0.0
C5035 C 0.67416 0.76788 0.39035 0.0
H5036 H 0.70783 0.73872 0.39983 0.0
H5037 H 0.55317 0.80664 0.3277 0.0
H5038 H 0.93203 0.88042 0.03836 0.0
H5039 H 0.95856 0.87813 0.06001 0.0
H5040 H 0.92589 0.88929 0.11156 0.0
H5041 H 0.89947 0.89106 0.0901 0.0
H5042 H 0.95806 0.90871 0.11015 0.0
H5043 H 0.93674 0.84913 0.10568 0.0
H5044 H 0.92665 0.82195 0.08861 0.0
H5045 H 0.97793 0.81672 0.0606 0.0
H5046 H 0.98825 0.84406 0.0773 0.0
H5047 H 0.01724 0.88511 0.18795 0.0
H5048 H 0.99081 0.88099 0.16669 0.0
H5049 H 0.02472 0.87602 0.11497 0.0
H5050 H 0.05108 0.88053 0.13607 0.0
H5051 H 0.99179 0.85215 0.1166 0.0
H5052 H 0.01178 0.91352 0.12045 0.0
H5053 H 0.02077 0.94077 0.13814 0.0
H5054 H 0.97015 0.94215 0.1682 0.0
H5055 H 0.961 0.91469 0.15092 0.0
C5056 C 0.9307 0.88275 0.05426 0.0
C5057 C 0.91391 0.88622 0.06264 0.0
C5058 C 0.94573 0.88122 0.06661 0.0
C5059 C 0.94412 0.88339 0.08739 0.0
C5060 C 0.92741 0.88752 0.09559 0.0
C5061 C 0.91239 0.88864 0.08335 0.0
C5062 C 0.95981 0.88145 0.10072 0.0
C5063 C 0.96531 0.89629 0.11169 0.0
C5064 C 0.96932 0.86525 0.10261 0.0
C5065 C 0.9632 0.84879 0.09255 0.0
C5066 C 0.94582 0.8423 0.09572 0.0
C5067 C 0.94007 0.82684 0.08615 0.0
C5068 C 0.95163 0.81765 0.07347 0.0
C5069 C 0.96898 0.82388 0.0704 0.0
C5070 C 0.97479 0.83935 0.07992 0.0
C5071 C 0.01904 0.88261 0.17214 0.0
C5072 C 0.03615 0.88318 0.1636 0.0
C5073 C 0.00397 0.8803 0.16002 0.0
C5074 C 0.00583 0.87827 0.13924 0.0
C5075 C 0.02299 0.87747 0.13095 0.0
C5076 C 0.03801 0.88009 0.14299 0.0
C5077 C 0.99 0.87947 0.12595 0.0
C5078 C 0.9845 0.86453 0.11501 0.0
C5079 C 0.9803 0.89553 0.12415 0.0
C5080 C 0.98583 0.91193 0.13465 0.0
C5081 C 0.00266 0.91951 0.13102 0.0
C5082 C 0.00777 0.93502 0.14093 0.0
C5083 C 0.99607 0.94316 0.15434 0.0
C5084 C 0.97922 0.93581 0.15785 0.0
C5085 C 0.97408 0.92027 0.14801 0.0
H5086 H 3e-05 0.95518 0.16198 0.0
H5087 H 0.94715 0.80568 0.06608 0.0
H5088 H 0.61493 0.67662 0.79356 0.0
H5089 H 0.61176 0.7013 0.81674 0.0
H5090 H 0.65159 0.6776 0.85514 0.0
H5091 H 0.65199 0.65129 0.83374 0.0
H5092 H 0.63042 0.69184 0.87771 0.0
H5093 H 0.65773 0.71675 0.81761 0.0
H5094 H 0.6581 0.72215 0.78121 0.0
H5095 H 0.60762 0.74899 0.78524 0.0
H5096 H 0.60695 0.74364 0.82163 0.0
H5097 H 0.66155 0.77074 0.92508 0.0
H5098 H 0.65679 0.74367 0.90551 0.0
H5099 H 0.60957 0.76693 0.87945 0.0
H5100 H 0.61432 0.79404 0.89926 0.0
H5101 H 0.6313 0.75348 0.85118 0.0
H5102 H 0.60581 0.7315 0.91161 0.0
H5103 H 0.60436 0.72505 0.94772 0.0
H5104 H 0.65131 0.69254 0.94315 0.0
H5105 H 0.65312 0.69897 0.90704 0.0
C5106 C 0.62266 0.67649 0.80719 0.0
C5107 C 0.6338 0.66207 0.81176 0.0
C5108 C 0.62125 0.69092 0.82026 0.0
C5109 C 0.63196 0.69194 0.83752 0.0
C5110 C 0.64323 0.67745 0.84195 0.0
C5111 C 0.6438 0.66254 0.82946 0.0
C5112 C 0.63141 0.70789 0.851 0.0
C5113 C 0.63094 0.70527 0.87179 0.0
C5114 C 0.63131 0.72563 0.84367 0.0
C5115 C 0.63226 0.72973 0.82217 0.0
C5116 C 0.64678 0.72386 0.81068 0.0
C5117 C 0.64701 0.72688 0.79008 0.0
C5118 C 0.63287 0.73588 0.78092 0.0
C5119 C 0.61855 0.74203 0.79236 0.0
C5120 C 0.61826 0.73906 0.81295 0.0
C5121 C 0.64996 0.76988 0.91548 0.0
C5122 C 0.6382 0.78435 0.91377 0.0
C5123 C 0.64721 0.7544 0.90432 0.0
C5124 C 0.63272 0.75312 0.89108 0.0
C5125 C 0.62078 0.76752 0.88963 0.0
C5126 C 0.62342 0.78295 0.90101 0.0
C5127 C 0.63092 0.73732 0.87774 0.0
C5128 C 0.63087 0.74001 0.85703 0.0
C5129 C 0.63069 0.71968 0.88514 0.0
C5130 C 0.62969 0.71586 0.90675 0.0
C5131 C 0.61589 0.7231 0.91837 0.0
C5132 C 0.61499 0.71941 0.93881 0.0
C5133 C 0.62776 0.70843 0.94773 0.0
C5134 C 0.64144 0.70106 0.93622 0.0
C5135 C 0.6424 0.7047 0.91578 0.0
H5136 H 0.62705 0.7056 0.96357 0.0
H5137 H 0.63303 0.7381 0.76494 0.0
H5138 H 0.6004 0.38131 0.08939 0.0
H5139 H 0.57424 0.38005 0.11103 0.0
H5140 H 0.54014 0.37822 0.05906 0.0
H5141 H 0.56645 0.38084 0.03739 0.0
H5142 H 0.52559 0.39815 0.08411 0.0
H5143 H 0.55258 0.33998 0.09165 0.0
H5144 H 0.57724 0.31935 0.09943 0.0
H5145 H 0.58038 0.34025 0.15894 0.0
H5146 H 0.55594 0.36118 0.15144 0.0
H5147 H 0.44772 0.38151 0.13887 0.0
H5148 H 0.47266 0.37484 0.11638 0.0
H5149 H 0.5093 0.37936 0.16581 0.0
H5150 H 0.48427 0.38538 0.18831 0.0
H5151 H 0.52201 0.35614 0.14122 0.0
H5152 H 0.49738 0.41518 0.13359 0.0
H5153 H 0.47433 0.43766 0.12613 0.0
H5154 H 0.46813 0.41639 0.06709 0.0
H5155 H 0.4909 0.39359 0.07432 0.0
C5156 C 0.58729 0.3806 0.08262 0.0
C5157 C 0.58537 0.38096 0.06175 0.0
C5158 C 0.57232 0.37971 0.09501 0.0
C5159 C 0.55511 0.37843 0.08679 0.0
C5160 C 0.55323 0.37904 0.06585 0.0
C5161 C 0.56822 0.38051 0.05345 0.0
C5162 C 0.53904 0.37708 0.09993 0.0
C5163 C 0.52469 0.38866 0.09632 0.0
C5164 C 0.53799 0.36512 0.11635 0.0
C5165 C 0.55244 0.35221 0.12095 0.0
C5166 C 0.55855 0.34021 0.10638 0.0
C5167 C 0.57251 0.32847 0.11073 0.0
C5168 C 0.58038 0.3285 0.12966 0.0
C5169 C 0.57428 0.34023 0.14428 0.0
C5170 C 0.56036 0.35202 0.14 0.0
C5171 C 0.46102 0.38019 0.14503 0.0
C5172 C 0.46409 0.38362 0.16535 0.0
C5173 C 0.47533 0.37671 0.13213 0.0
C5174 C 0.493 0.37709 0.13924 0.0
C5175 C 0.49587 0.37907 0.15988 0.0
C5176 C 0.48155 0.38235 0.1728 0.0
C5177 C 0.50851 0.37706 0.1252 0.0
C5178 C 0.5228 0.36535 0.12875 0.0
C5179 C 0.5096 0.38897 0.10876 0.0
C5180 C 0.49569 0.40253 0.10459 0.0
C5181 C 0.49098 0.41519 0.11909 0.0
C5182 C 0.47798 0.428 0.11489 0.0
C5183 C 0.46974 0.42842 0.09617 0.0
C5184 C 0.47448 0.41602 0.08161 0.0
C5185 C 0.48742 0.40314 0.08575 0.0
H5186 H 0.45971 0.43838 0.09293 0.0
H5187 H 0.59119 0.31942 0.13299 0.0
H5188 H 0.83798 0.33441 0.32541 0.0
H5189 H 0.83936 0.30778 0.34588 0.0
H5190 H 0.89473 0.30134 0.32985 0.0
H5191 H 0.89276 0.32717 0.30812 0.0
H5192 H 0.87844 0.27044 0.32775 0.0
H5193 H 0.88173 0.31703 0.37571 0.0
H5194 H 0.87298 0.34442 0.39332 0.0
H5195 H 0.8231 0.32053 0.40998 0.0
H5196 H 0.8314 0.2931 0.3922 0.0
H5197 H 0.88369 0.21534 0.42286 0.0
H5198 H 0.89072 0.23644 0.39578 0.0
H5199 H 0.83547 0.2365 0.37792 0.0
H5200 H 0.82844 0.21552 0.40477 0.0
H5201 H 0.85658 0.27009 0.39768 0.0
H5202 H 0.85262 0.22501 0.34537 0.0
H5203 H 0.86167 0.19845 0.32643 0.0
H5204 H 0.91408 0.22036 0.31829 0.0
H5205 H 0.90542 0.24692 0.33752 0.0
C5206 C 0.84992 0.32659 0.32499 0.0
C5207 C 0.86447 0.33183 0.31322 0.0
C5208 C 0.85104 0.3118 0.33747 0.0
C5209 C 0.86713 0.30241 0.33919 0.0
C5210 C 0.88206 0.30815 0.32836 0.0
C5211 C 0.88081 0.32284 0.31568 0.0
C5212 C 0.86821 0.28638 0.35191 0.0
C5213 C 0.87397 0.27042 0.34318 0.0
C5214 C 0.86229 0.2864 0.37198 0.0
C5215 C 0.85717 0.303 0.38252 0.0
C5216 C 0.86883 0.31766 0.38298 0.0
C5217 C 0.86395 0.33319 0.39302 0.0
C5218 C 0.84749 0.33422 0.40275 0.0
C5219 C 0.83585 0.31972 0.40244 0.0
C5220 C 0.84065 0.30417 0.3924 0.0
C5221 C 0.87326 0.21934 0.41258 0.0
C5222 C 0.85552 0.2141 0.41585 0.0
C5223 C 0.87728 0.23129 0.39717 0.0
C5224 C 0.86359 0.23786 0.38492 0.0
C5225 C 0.84619 0.23137 0.38714 0.0
C5226 C 0.84218 0.21952 0.40249 0.0
C5227 C 0.86627 0.25422 0.37327 0.0
C5228 C 0.86131 0.27025 0.38234 0.0
C5229 C 0.87299 0.25427 0.35361 0.0
C5230 C 0.87849 0.23778 0.34327 0.0
C5231 C 0.86619 0.22399 0.33996 0.0
C5232 C 0.87122 0.20898 0.32904 0.0
C5233 C 0.88847 0.20767 0.32125 0.0
C5234 C 0.90075 0.22134 0.32441 0.0
C5235 C 0.8958 0.23636 0.33534 0.0
H5236 H 0.89229 0.1961 0.31269 0.0
H5237 H 0.84375 0.34625 0.41054 0.0
H5238 H 0.92993 0.59252 0.5425 0.0
H5239 H 0.95623 0.59314 0.56437 0.0
H5240 H 0.92912 0.62914 0.60407 0.0
H5241 H 0.90258 0.62763 0.58346 0.0
H5242 H 0.96411 0.64018 0.59315 0.0
H5243 H 0.93269 0.59125 0.62084 0.0
H5244 H 0.91709 0.56248 0.62315 0.0
H5245 H 0.96375 0.53569 0.60136 0.0
H5246 H 0.9796 0.56436 0.59875 0.0
H5247 H 0.01802 0.63144 0.68234 0.0
H5248 H 0.99586 0.63571 0.65576 0.0
H5249 H 0.02164 0.59499 0.62083 0.0
H5250 H 0.04358 0.59063 0.64747 0.0
H5251 H 0.98746 0.58712 0.62862 0.0
H5252 H 0.01922 0.63869 0.60385 0.0
H5253 H 0.03334 0.66827 0.60541 0.0
H5254 H 0.98408 0.69106 0.62578 0.0
H5255 H 0.9697 0.66159 0.62448 0.0
C5256 C 0.92935 0.6001 0.55618 0.0
C5257 C 0.91389 0.60964 0.56133 0.0
C5258 C 0.94447 0.60066 0.56851 0.0
C5259 C 0.94456 0.6112 0.58581 0.0
C5260 C 0.92934 0.62097 0.59077 0.0
C5261 C 0.91415 0.62006 0.57884 0.0
C5262 C 0.96052 0.6122 0.59878 0.0
C5263 C 0.96923 0.62862 0.60099 0.0
C5264 C 0.96708 0.59712 0.60901 0.0
C5265 C 0.95726 0.57999 0.60933 0.0
C5266 C 0.93954 0.57927 0.61622 0.0
C5267 C 0.93069 0.56296 0.61774 0.0
C5268 C 0.93945 0.54727 0.61246 0.0
C5269 C 0.957 0.54786 0.60548 0.0
C5270 C 0.96593 0.56414 0.60398 0.0
C5271 C 0.01934 0.62401 0.66858 0.0
C5272 C 0.03249 0.61085 0.66674 0.0
C5273 C 0.00668 0.6264 0.65343 0.0
C5274 C 0.00706 0.61563 0.6363 0.0
C5275 C 0.02108 0.60344 0.63389 0.0
C5276 C 0.03368 0.60104 0.64901 0.0
C5277 C 0.99154 0.61499 0.62256 0.0
C5278 C 0.98265 0.59865 0.62046 0.0
C5279 C 0.98464 0.63025 0.61282 0.0
C5280 C 0.99343 0.64788 0.61423 0.0
C5281 C 0.01145 0.64997 0.60887 0.0
C5282 C 0.01948 0.66674 0.60964 0.0
C5283 C 0.00962 0.68153 0.61573 0.0
C5284 C 0.99171 0.67959 0.62108 0.0
C5285 C 0.9836 0.66286 0.62029 0.0
H5286 H 0.01586 0.6945 0.61626 0.0
H5287 H 0.93264 0.53463 0.61377 0.0
H5288 H 0.61678 0.34336 0.69575 0.0
H5289 H 0.6149 0.31641 0.67599 0.0
H5290 H 0.6468 0.28853 0.71947 0.0
H5291 H 0.64797 0.31544 0.74026 0.0
H5292 H 0.65766 0.28703 0.67508 0.0
H5293 H 0.60814 0.2776 0.72008 0.0
H5294 H 0.58057 0.28714 0.737 0.0
H5295 H 0.5544 0.29283 0.6803 0.0
H5296 H 0.58196 0.28364 0.66298 0.0
H5297 H 0.65426 0.20251 0.63712 0.0
H5298 H 0.64714 0.22483 0.66221 0.0
H5299 H 0.6119 0.25091 0.62053 0.0
H5300 H 0.61938 0.22853 0.59507 0.0
H5301 H 0.60153 0.25334 0.66404 0.0
H5302 H 0.64862 0.26571 0.61856 0.0
H5303 H 0.67551 0.25893 0.59886 0.0
H5304 H 0.7055 0.25138 0.65287 0.0
H5305 H 0.6786 0.2577 0.67294 0.0
C5306 C 0.62334 0.33154 0.70138 0.0
C5307 C 0.63292 0.3318 0.71953 0.0
C5308 C 0.62223 0.3161 0.68994 0.0
C5309 C 0.63077 0.30051 0.69619 0.0
C5310 C 0.6402 0.30051 0.71434 0.0
C5311 C 0.64095 0.31592 0.72613 0.0
C5312 C 0.63006 0.28442 0.68338 0.0
C5313 C 0.64549 0.27944 0.673 0.0
C5314 C 0.61393 0.27511 0.67987 0.0
C5315 C 0.59718 0.28011 0.69023 0.0
C5316 C 0.59656 0.28103 0.7112 0.0
C5317 C 0.58093 0.28636 0.72087 0.0
C5318 C 0.56576 0.29066 0.70973 0.0
C5319 C 0.56617 0.28953 0.6889 0.0
C5320 C 0.58179 0.28424 0.67915 0.0
C5321 C 0.6444 0.21251 0.63358 0.0
C5322 C 0.63741 0.2138 0.61418 0.0
C5323 C 0.64038 0.22533 0.64791 0.0
C5324 C 0.62921 0.23969 0.64315 0.0
C5325 C 0.62056 0.23992 0.62451 0.0
C5326 C 0.62475 0.2271 0.61001 0.0
C5327 C 0.62929 0.25567 0.6562 0.0
C5328 C 0.61375 0.26077 0.66636 0.0
C5329 C 0.64522 0.26546 0.65917 0.0
C5330 C 0.66152 0.26187 0.64725 0.0
C5331 C 0.66089 0.26238 0.62625 0.0
C5332 C 0.67614 0.25867 0.61501 0.0
C5333 C 0.69219 0.25464 0.6246 0.0
C5334 C 0.69303 0.25443 0.64547 0.0
C5335 C 0.67777 0.25806 0.65678 0.0
H5336 H 0.70399 0.25175 0.61587 0.0
H5337 H 0.55368 0.29481 0.71725 0.0
H5338 H 0.92925 0.37897 0.99135 0.0
H5339 H 0.95557 0.37532 0.97017 0.0
H5340 H 0.92457 0.39078 0.91851 0.0
H5341 H 0.89785 0.39215 0.93944 0.0
H5342 H 0.94421 0.36589 0.9077 0.0
H5343 H 0.95761 0.4192 0.94591 0.0
H5344 H 0.96075 0.43518 0.97786 0.0
H5345 H 0.00114 0.3982 0.99666 0.0
H5346 H 0.99807 0.38192 0.96492 0.0
H5347 H 0.01547 0.39286 0.84362 0.0
H5348 H 0.98899 0.38833 0.86448 0.0
H5349 H 0.02241 0.36867 0.91224 0.0
H5350 H 0.0489 0.37398 0.89157 0.0
H5351 H 0.00218 0.39315 0.92575 0.0
H5352 H 0.99057 0.34145 0.88585 0.0
H5353 H 0.98638 0.3247 0.85458 0.0
H5354 H 0.94249 0.35858 0.83859 0.0
H5355 H 0.94652 0.37561 0.86966 0.0
C5356 C 0.92822 0.38183 0.97552 0.0
C5357 C 0.9117 0.386 0.96695 0.0
C5358 C 0.94326 0.3798 0.96338 0.0
C5359 C 0.94229 0.38316 0.94268 0.0
C5360 C 0.92579 0.38805 0.93435 0.0
C5361 C 0.91059 0.38911 0.94632 0.0
C5362 C 0.95831 0.38144 0.9296 0.0
C5363 C 0.95682 0.37206 0.91156 0.0
C5364 C 0.97501 0.38893 0.93473 0.0
C5365 C 0.97757 0.39935 0.95316 0.0
C5366 C 0.9672 0.41455 0.95686 0.0
C5367 C 0.96893 0.42362 0.97493 0.0
C5368 C 0.98112 0.4177 0.98929 0.0
C5369 C 0.99171 0.40278 0.98553 0.0
C5370 C 0.99001 0.39365 0.9675 0.0
C5371 C 0.01701 0.38706 0.85836 0.0
C5372 C 0.03407 0.38358 0.86604 0.0
C5373 C 0.0019 0.38443 0.87027 0.0
C5374 C 0.00363 0.37798 0.88993 0.0
C5375 C 0.0207 0.37362 0.89714 0.0
C5376 C 0.0358 0.37652 0.88535 0.0
C5377 C 0.98804 0.37783 0.9037 0.0
C5378 C 0.98961 0.3869 0.92188 0.0
C5379 C 0.97143 0.37016 0.89857 0.0
C5380 C 0.96894 0.35987 0.87997 0.0
C5381 C 0.9801 0.34538 0.87559 0.0
C5382 C 0.97773 0.33582 0.85792 0.0
C5383 C 0.9642 0.3406 0.84458 0.0
C5384 C 0.95296 0.3549 0.84892 0.0
C5385 C 0.95526 0.36448 0.86657 0.0
H5386 H 0.96241 0.33319 0.83089 0.0
H5387 H 0.98238 0.42468 1.00332 0.0
H5388 H 0.88111 0.79337 0.13183 0.0
H5389 H 0.88557 0.76726 0.15365 0.0
H5390 H 0.84765 0.73773 0.11851 0.0
H5391 H 0.84324 0.76366 0.09683 0.0
H5392 H 0.83944 0.74021 0.15997 0.0
H5393 H 0.88734 0.7249 0.11605 0.0
H5394 H 0.91564 0.72845 0.09772 0.0
H5395 H 0.94389 0.73403 0.15314 0.0
H5396 H 0.91567 0.73083 0.17182 0.0
H5397 H 0.85308 0.64832 0.19176 0.0
H5398 H 0.85428 0.67503 0.17057 0.0
H5399 H 0.87443 0.70526 0.2203 0.0
H5400 H 0.87198 0.6788 0.24193 0.0
H5401 H 0.89299 0.70331 0.17344 0.0
H5402 H 0.84376 0.71984 0.21712 0.0
H5403 H 0.81542 0.71369 0.23445 0.0
H5404 H 0.7896 0.70498 0.17807 0.0
H5405 H 0.81803 0.71045 0.16044 0.0
C5406 C 0.87422 0.78109 0.12846 0.0
C5407 C 0.8619 0.78042 0.11266 0.0
C5408 C 0.8767 0.76624 0.14093 0.0
C5409 C 0.86689 0.75058 0.1377 0.0
C5410 C 0.85531 0.74968 0.12128 0.0
C5411 C 0.85286 0.76444 0.10887 0.0
C5412 C 0.86706 0.73582 0.1525 0.0
C5413 C 0.85117 0.73216 0.16286 0.0
C5414 C 0.88243 0.72546 0.15651 0.0
C5415 C 0.89932 0.72798 0.14532 0.0
C5416 C 0.89953 0.7272 0.12433 0.0
C5417 C 0.91558 0.72906 0.11388 0.0
C5418 C 0.93154 0.73155 0.12425 0.0
C5419 C 0.9315 0.73217 0.14512 0.0
C5420 C 0.91548 0.73035 0.15564 0.0
C5421 C 0.85734 0.66081 0.19822 0.0
C5422 C 0.86207 0.66172 0.21849 0.0
C5423 C 0.8582 0.67595 0.18612 0.0
C5424 C 0.86445 0.69206 0.19391 0.0
C5425 C 0.86946 0.69294 0.21409 0.0
C5426 C 0.86794 0.67792 0.22643 0.0
C5427 C 0.86546 0.70795 0.18087 0.0
C5428 C 0.88143 0.71167 0.17075 0.0
C5429 C 0.85021 0.71842 0.17703 0.0
C5430 C 0.8331 0.71518 0.18751 0.0
C5431 C 0.83213 0.71627 0.20844 0.0
C5432 C 0.81604 0.71297 0.21831 0.0
C5433 C 0.80072 0.70888 0.20737 0.0
C5434 C 0.80148 0.7081 0.18653 0.0
C5435 C 0.8176 0.71124 0.1766 0.0
H5436 H 0.78826 0.70637 0.21504 0.0
H5437 H 0.94396 0.73294 0.11613 0.0
H5438 H 0.5687 0.59621 0.48723 0.0
H5439 H 0.54218 0.59628 0.46566 0.0
H5440 H 0.56839 0.6323 0.42499 0.0
H5441 H 0.59524 0.63125 0.44532 0.0
H5442 H 0.53106 0.64154 0.43926 0.0
H5443 H 0.56689 0.59809 0.40695 0.0
H5444 H 0.58436 0.57108 0.39996 0.0
H5445 H 0.54007 0.53855 0.4179 0.0
H5446 H 0.52244 0.56539 0.42544 0.0
H5447 H 0.47805 0.62844 0.34764 0.0
H5448 H 0.4998 0.63561 0.37394 0.0
H5449 H 0.47629 0.59563 0.41204 0.0
H5450 H 0.45464 0.58854 0.38589 0.0
H5451 H 0.51239 0.58958 0.39906 0.0
H5452 H 0.47604 0.63518 0.429 0.0
H5453 H 0.459 0.66315 0.43112 0.0
H5454 H 0.50539 0.69271 0.41335 0.0
H5455 H 0.52267 0.6649 0.41089 0.0
C5456 C 0.56902 0.60373 0.47341 0.0
C5457 C 0.58443 0.61316 0.46774 0.0
C5458 C 0.55379 0.60392 0.46123 0.0
C5459 C 0.55345 0.61415 0.44365 0.0
C5460 C 0.56844 0.62421 0.43842 0.0
C5461 C 0.5838 0.62357 0.45017 0.0
C5462 C 0.53735 0.61467 0.43082 0.0
C5463 C 0.52698 0.63023 0.43036 0.0
C5464 C 0.53213 0.5999 0.41925 0.0
C5465 C 0.54342 0.5838 0.4171 0.0
C5466 C 0.56102 0.58521 0.40994 0.0
C5467 C 0.57089 0.56991 0.40566 0.0
C5468 C 0.56326 0.55312 0.40833 0.0
C5469 C 0.54592 0.55157 0.41577 0.0
C5470 C 0.53601 0.56682 0.4201 0.0
C5471 C 0.47709 0.62179 0.36198 0.0
C5472 C 0.46484 0.60787 0.3648 0.0
C5473 C 0.48949 0.62587 0.37698 0.0
C5474 C 0.48971 0.61607 0.39488 0.0
C5475 C 0.47634 0.60336 0.39834 0.0
C5476 C 0.46399 0.59931 0.38344 0.0
C5477 C 0.50569 0.61622 0.40794 0.0
C5478 C 0.51626 0.60082 0.40821 0.0
C5479 C 0.5112 0.63125 0.41898 0.0
C5480 C 0.50059 0.6479 0.41949 0.0
C5481 C 0.48254 0.64761 0.42523 0.0
C5482 C 0.47286 0.66345 0.4266 0.0
C5483 C 0.48109 0.67969 0.42232 0.0
C5484 C 0.49902 0.68012 0.41663 0.0
C5485 C 0.50876 0.66432 0.41525 0.0
H5486 H 0.47358 0.69194 0.42347 0.0
H5487 H 0.57076 0.5413 0.4046 0.0
H5488 H 0.33402 0.2096 0.12823 0.0
H5489 H 0.34037 0.23087 0.15483 0.0
H5490 H 0.39127 0.2427 0.12784 0.0
H5491 H 0.38491 0.22116 0.10109 0.0
H5492 H 0.3891 0.24493 0.17379 0.0
H5493 H 0.36429 0.26815 0.11337 0.0
H5494 H 0.34399 0.26674 0.08447 0.0
H5495 H 0.29877 0.26926 0.1238 0.0
H5496 H 0.31887 0.27027 0.153 0.0
H5497 H 0.38482 0.341 0.19686 0.0
H5498 H 0.38598 0.31387 0.17715 0.0
H5499 H 0.34687 0.28967 0.21577 0.0
H5500 H 0.34647 0.31646 0.23664 0.0
H5501 H 0.34546 0.29392 0.1637 0.0
H5502 H 0.37329 0.26938 0.22481 0.0
H5503 H 0.39536 0.27343 0.2517 0.0
H5504 H 0.43741 0.27652 0.20819 0.0
H5505 H 0.41543 0.27297 0.181 0.0
C5506 C 0.34684 0.21625 0.12841 0.0
C5507 C 0.35896 0.21384 0.11266 0.0
C5508 C 0.35048 0.22836 0.1436 0.0
C5509 C 0.36622 0.23845 0.14323 0.0
C5510 C 0.3791 0.23494 0.12848 0.0
C5511 C 0.37546 0.2227 0.11321 0.0
C5512 C 0.36732 0.25465 0.15579 0.0
C5513 C 0.37963 0.25565 0.17153 0.0
C5514 C 0.35517 0.26881 0.15274 0.0
C5515 C 0.34304 0.26909 0.13532 0.0
C5516 C 0.35001 0.2683 0.11584 0.0
C5517 C 0.33856 0.26757 0.09942 0.0
C5518 C 0.3201 0.26786 0.1023 0.0
C5519 C 0.31307 0.269 0.12161 0.0
C5520 C 0.32448 0.26966 0.1381 0.0
C5521 C 0.37652 0.32992 0.20139 0.0
C5522 C 0.36516 0.33117 0.21814 0.0
C5523 C 0.37723 0.31441 0.19003 0.0
C5524 C 0.36647 0.29986 0.19497 0.0
C5525 C 0.35529 0.30083 0.21176 0.0
C5526 C 0.35498 0.31619 0.22357 0.0
C5527 C 0.36669 0.28387 0.18215 0.0
C5528 C 0.35479 0.28309 0.1661 0.0
C5529 C 0.37944 0.27019 0.18472 0.0
C5530 C 0.39274 0.2711 0.20094 0.0
C5531 C 0.38723 0.27104 0.221 0.0
C5532 C 0.39971 0.27326 0.23628 0.0
C5533 C 0.41778 0.27529 0.23166 0.0
C5534 C 0.4234 0.27497 0.21174 0.0
C5535 C 0.41094 0.27286 0.19639 0.0
H5536 H 0.42742 0.27707 0.24351 0.0
H5537 H 0.31124 0.26724 0.08956 0.0
H5538 H 0.54904 0.61102 0.88981 0.0
H5539 H 0.52482 0.61871 0.9129 0.0
H5540 H 0.48683 0.61367 0.86481 0.0
H5541 H 0.51112 0.60664 0.84173 0.0
H5542 H 0.47491 0.63728 0.88964 0.0
H5543 H 0.49978 0.57823 0.89639 0.0
H5544 H 0.52317 0.55594 0.90311 0.0
H5545 H 0.53054 0.57712 0.96202 0.0
H5546 H 0.50744 0.59977 0.95551 0.0
H5547 H 0.3971 0.60978 0.94017 0.0
H5548 H 0.4236 0.61133 0.91902 0.0
H5549 H 0.45678 0.61415 0.97164 0.0
H5550 H 0.43012 0.61147 0.99286 0.0
H5551 H 0.47232 0.59471 0.94632 0.0
H5552 H 0.44379 0.65213 0.93965 0.0
H5553 H 0.41911 0.67275 0.9319 0.0
H5554 H 0.4171 0.65308 0.8718 0.0
H5555 H 0.44154 0.63216 0.87925 0.0
C5556 C 0.53561 0.61243 0.88406 0.0
C5557 C 0.5319 0.60845 0.86401 0.0
C5558 C 0.52172 0.61654 0.89729 0.0
C5559 C 0.50388 0.61626 0.89076 0.0
C5560 C 0.50042 0.61389 0.8703 0.0
C5561 C 0.51431 0.60997 0.85705 0.0
C5562 C 0.48874 0.61636 0.90527 0.0
C5563 C 0.47432 0.62796 0.90203 0.0
C5564 C 0.48797 0.60433 0.92161 0.0
C5565 C 0.50204 0.59084 0.92537 0.0
C5566 C 0.50651 0.57824 0.91071 0.0
C5567 C 0.51971 0.56553 0.91448 0.0
C5568 C 0.52837 0.56514 0.93296 0.0
C5569 C 0.52386 0.57747 0.9477 0.0
C5570 C 0.51074 0.59026 0.94396 0.0
C5571 C 0.41011 0.61047 0.94718 0.0
C5572 C 0.41165 0.61046 0.96809 0.0
C5573 C 0.42525 0.61164 0.93509 0.0
C5574 C 0.44225 0.61351 0.94364 0.0
C5575 C 0.44383 0.61289 0.96462 0.0
C5576 C 0.42865 0.61124 0.97676 0.0
C5577 C 0.45839 0.6156 0.93074 0.0
C5578 C 0.47299 0.60431 0.93421 0.0
C5579 C 0.45918 0.62779 0.9145 0.0
C5580 C 0.44448 0.64049 0.91006 0.0
C5581 C 0.43803 0.65213 0.92481 0.0
C5582 C 0.42407 0.66388 0.92046 0.0
C5583 C 0.41653 0.66422 0.90138 0.0
C5584 C 0.42294 0.65282 0.88658 0.0
C5585 C 0.43686 0.64102 0.89086 0.0
H5586 H 0.40574 0.67332 0.89804 0.0
H5587 H 0.53854 0.55526 0.93589 0.0
H5588 H 0.11245 0.7747 0.60421 0.0
H5589 H 0.1073 0.75388 0.6321 0.0
H5590 H 0.1621 0.75989 0.65036 0.0
H5591 H 0.16725 0.78056 0.62262 0.0
H5592 H 0.13757 0.72245 0.63133 0.0
H5593 H 0.15037 0.77026 0.68357 0.0
H5594 H 0.14125 0.79754 0.70125 0.0
H5595 H 0.08913 0.77552 0.71119 0.0
H5596 H 0.09789 0.74824 0.69332 0.0
H5597 H 0.15472 0.65099 0.69595 0.0
H5598 H 0.1564 0.67827 0.67655 0.0
H5599 H 0.11664 0.70179 0.71537 0.0
H5600 H 0.11993 0.67685 0.73798 0.0
H5601 H 0.12989 0.72639 0.70462 0.0
H5602 H 0.11333 0.67891 0.65823 0.0
H5603 H 0.11713 0.6509 0.63951 0.0
H5604 H 0.1667 0.66998 0.61542 0.0
H5605 H 0.16326 0.69797 0.63408 0.0
C5606 C 0.12312 0.77212 0.61474 0.0
C5607 C 0.14022 0.77916 0.61144 0.0
C5608 C 0.12019 0.76027 0.63061 0.0
C5609 C 0.13427 0.75558 0.6434 0.0
C5610 C 0.15098 0.76365 0.64091 0.0
C5611 C 0.15394 0.77537 0.62505 0.0
C5612 C 0.13294 0.73967 0.65628 0.0
C5613 C 0.13574 0.7231 0.6474 0.0
C5614 C 0.13 0.74062 0.67699 0.0
C5615 C 0.1247 0.75737 0.68685 0.0
C5616 C 0.13688 0.77138 0.68921 0.0
C5617 C 0.1318 0.7868 0.69937 0.0
C5618 C 0.1146 0.78829 0.70728 0.0
C5619 C 0.10242 0.77439 0.70501 0.0
C5620 C 0.10744 0.75897 0.69486 0.0
C5621 C 0.1471 0.66244 0.70076 0.0
C5622 C 0.13734 0.66187 0.71859 0.0
C5623 C 0.14731 0.67787 0.68906 0.0
C5624 C 0.13581 0.69222 0.6934 0.0
C5625 C 0.12579 0.6913 0.71123 0.0
C5626 C 0.1272 0.67668 0.72406 0.0
C5627 C 0.13438 0.70825 0.67993 0.0
C5628 C 0.13119 0.72508 0.68858 0.0
C5629 C 0.13609 0.70737 0.65874 0.0
C5630 C 0.13805 0.69048 0.6476 0.0
C5631 C 0.12504 0.67709 0.64897 0.0
C5632 C 0.12714 0.66122 0.63838 0.0
C5633 C 0.14215 0.65866 0.6263 0.0
C5634 C 0.15508 0.67196 0.62477 0.0
C5635 C 0.15305 0.68783 0.63531 0.0
H5636 H 0.14374 0.64638 0.61811 0.0
H5637 H 0.11073 0.80019 0.71523 0.0
H5638 H 0.98433 0.3667 0.34496 0.0
H5639 H 0.00657 0.36081 0.37109 0.0
H5640 H 0.97692 0.39389 0.41186 0.0
H5641 H 0.95488 0.39986 0.38568 0.0
H5642 H 0.01002 0.40563 0.40682 0.0
H5643 H 0.98399 0.34846 0.42177 0.0
H5644 H 0.97282 0.31828 0.41474 0.0
H5645 H 0.0239 0.30367 0.3908 0.0
H5646 H 0.03535 0.3338 0.3976 0.0
H5647 H 0.07083 0.39995 0.48797 0.0
H5648 H 0.04444 0.39857 0.46651 0.0
H5649 H 0.07169 0.36204 0.42747 0.0
H5650 H 0.09813 0.36358 0.44856 0.0
H5651 H 0.03909 0.35095 0.4324 0.0
H5652 H 0.06373 0.40634 0.4105 0.0
H5653 H 0.07512 0.43707 0.4099 0.0
H5654 H 0.02865 0.45492 0.44158 0.0
H5655 H 0.01677 0.4243 0.44189 0.0
C5656 C 0.98221 0.37204 0.35979 0.0
C5657 C 0.96783 0.38354 0.36345 0.0
C5658 C 0.99493 0.3687 0.37473 0.0
C5659 C 0.99347 0.37688 0.39353 0.0
C5660 C 0.97836 0.38737 0.39754 0.0
C5661 C 0.96569 0.39069 0.38264 0.0
C5662 C 0.00889 0.37705 0.40766 0.0
C5663 C 0.01606 0.39364 0.41284 0.0
C5664 C 0.01746 0.36143 0.41462 0.0
C5665 C 0.01047 0.34345 0.41005 0.0
C5666 C 0.99279 0.33887 0.41483 0.0
C5667 C 0.98643 0.32175 0.41096 0.0
C5668 C 0.99763 0.30908 0.40229 0.0
C5669 C 0.01523 0.3135 0.3975 0.0
C5670 C 0.02167 0.33059 0.40141 0.0
C5671 C 0.07133 0.39181 0.47469 0.0
C5672 C 0.08689 0.38225 0.46986 0.0
C5673 C 0.05617 0.39101 0.46239 0.0
C5674 C 0.05608 0.38044 0.44508 0.0
C5675 C 0.07136 0.37039 0.44063 0.0
C5676 C 0.08654 0.37129 0.4528 0.0
C5677 C 0.04 0.3796 0.43185 0.0
C5678 C 0.03283 0.36293 0.42669 0.0
C5679 C 0.03157 0.39512 0.42445 0.0
C5680 C 0.03953 0.41302 0.42651 0.0
C5681 C 0.0561 0.41678 0.41763 0.0
C5682 C 0.06253 0.43421 0.41712 0.0
C5683 C 0.05263 0.44795 0.42572 0.0
C5684 C 0.0363 0.44427 0.43493 0.0
C5685 C 0.02968 0.4269 0.4352 0.0
H5686 H 0.05764 0.46144 0.42531 0.0
H5687 H 0.99269 0.29583 0.39933 0.0
H5688 H 0.36474 0.79793 0.39109 0.0
H5689 H 0.37317 0.77419 0.36784 0.0
H5690 H 0.36473 0.73531 0.41453 0.0
H5691 H 0.35709 0.75907 0.43777 0.0
H5692 H 0.38872 0.72317 0.39119 0.0
H5693 H 0.33103 0.75104 0.3812 0.0
H5694 H 0.3098 0.77504 0.373 0.0
H5695 H 0.33438 0.78163 0.31548 0.0
H5696 H 0.35598 0.75792 0.3235 0.0
H5697 H 0.35854 0.64798 0.3386 0.0
H5698 H 0.36029 0.67408 0.36017 0.0
H5699 H 0.3694 0.70726 0.30832 0.0
H5700 H 0.36648 0.68113 0.28666 0.0
H5701 H 0.3486 0.72332 0.3323 0.0
H5702 H 0.40382 0.69098 0.34214 0.0
H5703 H 0.42204 0.6648 0.35104 0.0
H5704 H 0.39938 0.66443 0.40996 0.0
H5705 H 0.38079 0.69038 0.40133 0.0
C5706 C 0.36557 0.78437 0.39652 0.0
C5707 C 0.36042 0.7802 0.41613 0.0
C5708 C 0.37012 0.77079 0.38321 0.0
C5709 C 0.36904 0.75289 0.38927 0.0
C5710 C 0.36556 0.74897 0.40943 0.0
C5711 C 0.36127 0.76253 0.42276 0.0
C5712 C 0.36928 0.73819 0.37448 0.0
C5713 C 0.37996 0.72319 0.37829 0.0
C5714 C 0.35793 0.73822 0.35754 0.0
C5715 C 0.34529 0.75289 0.35307 0.0
C5716 C 0.33205 0.75776 0.36691 0.0
C5717 C 0.31992 0.77129 0.36228 0.0
C5718 C 0.32077 0.77989 0.34376 0.0
C5719 C 0.33377 0.77501 0.32984 0.0
C5720 C 0.34598 0.76156 0.33444 0.0
C5721 C 0.36059 0.66096 0.33189 0.0
C5722 C 0.3623 0.66277 0.31112 0.0
C5723 C 0.36187 0.67579 0.34419 0.0
C5724 C 0.3656 0.69257 0.33594 0.0
C5725 C 0.36669 0.69442 0.31503 0.0
C5726 C 0.3649 0.6796 0.30266 0.0
C5727 C 0.36797 0.70828 0.34901 0.0
C5728 C 0.35768 0.72341 0.34493 0.0
C5729 C 0.37944 0.70818 0.36585 0.0
C5730 C 0.39084 0.69264 0.37104 0.0
C5731 C 0.40265 0.68528 0.35696 0.0
C5732 C 0.41305 0.67046 0.36196 0.0
C5733 C 0.41187 0.66296 0.38105 0.0
C5734 C 0.40029 0.67026 0.39518 0.0
C5735 C 0.38983 0.68503 0.39025 0.0
H5736 H 0.41993 0.65151 0.38489 0.0
H5737 H 0.31133 0.7903 0.34016 0.0
H5738 H 0.10071 0.62191 0.08719 0.0
H5739 H 0.07485 0.62252 0.10941 0.0
H5740 H 0.04131 0.60433 0.06134 0.0
H5741 H 0.0673 0.6036 0.03893 0.0
H5742 H 0.02678 0.63299 0.0805 0.0
H5743 H 0.04733 0.5747 0.10147 0.0
H5744 H 0.06704 0.55123 0.11467 0.0
H5745 H 0.08095 0.58438 0.16436 0.0
H5746 H 0.06049 0.60768 0.15199 0.0
H5747 H 0.95025 0.60484 0.13484 0.0
H5748 H 0.97594 0.61115 0.11365 0.0
H5749 H 0.0064 0.62588 0.1657 0.0
H5750 H 0.98048 0.61925 0.18703 0.0
H5751 H 0.02332 0.60126 0.14542 0.0
H5752 H 0.99671 0.65653 0.12718 0.0
H5753 H 0.97368 0.67747 0.11532 0.0
H5754 H 0.97047 0.64955 0.05959 0.0
H5755 H 0.99333 0.62832 0.07119 0.0
C5756 C 0.08784 0.61804 0.08128 0.0
C5757 C 0.08606 0.61282 0.06119 0.0
C5758 C 0.07307 0.61822 0.09411 0.0
C5759 C 0.05608 0.6134 0.08714 0.0
C5760 C 0.05426 0.60811 0.0671 0.0
C5761 C 0.06911 0.6077 0.0543 0.0
C5762 C 0.04014 0.61486 0.10044 0.0
C5763 C 0.02591 0.62589 0.0946 0.0
C5764 C 0.03918 0.60613 0.11916 0.0
C5765 C 0.0527 0.59303 0.12561 0.0
C5766 C 0.05482 0.57708 0.11503 0.0
C5767 C 0.06604 0.56376 0.12244 0.0
C5768 C 0.07559 0.56645 0.14009 0.0
C5769 C 0.0737 0.58237 0.15058 0.0
C5770 C 0.06217 0.59557 0.14348 0.0
C5771 C 0.96225 0.60987 0.1417 0.0
C5772 C 0.96336 0.61145 0.16256 0.0
C5773 C 0.97697 0.61361 0.12954 0.0
C5774 C 0.99324 0.61901 0.13799 0.0
C5775 C 0.99403 0.62172 0.15879 0.0
C5776 C 0.97919 0.61805 0.17097 0.0
C5777 C 0.0098 0.61934 0.12552 0.0
C5778 C 0.02419 0.60861 0.13147 0.0
C5779 C 0.01082 0.62832 0.10689 0.0
C5780 C 0.99665 0.64074 0.10012 0.0
C5781 C 0.99096 0.65473 0.11248 0.0
C5782 C 0.97797 0.66669 0.10578 0.0
C5783 C 0.9706 0.66482 0.08673 0.0
C5784 C 0.97618 0.65098 0.07435 0.0
C5785 C 0.98917 0.63899 0.08097 0.0
H5786 H 0.96058 0.67412 0.08155 0.0
H5787 H 0.08429 0.55611 0.14576 0.0
H5788 H 0.12339 0.34806 0.83835 0.0
H5789 H 0.12251 0.32184 0.85985 0.0
H5790 H 0.1427 0.28976 0.81158 0.0
H5791 H 0.14336 0.3161 0.78976 0.0
H5792 H 0.11531 0.27343 0.82915 0.0
H5793 H 0.17076 0.29773 0.85442 0.0
H5794 H 0.19172 0.31916 0.86926 0.0
H5795 H 0.15487 0.32932 0.91695 0.0
H5796 H 0.13404 0.30718 0.90296 0.0
H5797 H 0.1429 0.1983 0.8881 0.0
H5798 H 0.13681 0.22299 0.86516 0.0
H5799 H 0.1168 0.25407 0.91436 0.0
H5800 H 0.12306 0.22935 0.93729 0.0
H5801 H 0.14281 0.27112 0.89642 0.0
H5802 H 0.08995 0.24241 0.87372 0.0
H5803 H 0.07077 0.21867 0.86025 0.0
H5804 H 0.10275 0.21666 0.80706 0.0
H5805 H 0.12227 0.24021 0.82032 0.0
C5806 C 0.12766 0.33544 0.83223 0.0
C5807 C 0.13345 0.33422 0.81226 0.0
C5808 C 0.12733 0.32043 0.84467 0.0
C5809 C 0.13271 0.30373 0.83749 0.0
C5810 C 0.13851 0.30246 0.81754 0.0
C5811 C 0.13893 0.31753 0.80508 0.0
C5812 C 0.13139 0.28755 0.8505 0.0
C5813 C 0.12155 0.27282 0.84375 0.0
C5814 C 0.13897 0.28684 0.86985 0.0
C5815 C 0.15075 0.30106 0.87748 0.0
C5816 C 0.16703 0.30472 0.86792 0.0
C5817 C 0.17892 0.31694 0.87622 0.0
C5818 C 0.17449 0.32592 0.89378 0.0
C5819 C 0.15823 0.32248 0.90326 0.0
C5820 C 0.14645 0.30998 0.89526 0.0
C5821 C 0.13638 0.21009 0.89381 0.0
C5822 C 0.1332 0.21182 0.91443 0.0
C5823 C 0.13298 0.22429 0.8807 0.0
C5824 C 0.12642 0.24055 0.88797 0.0
C5825 C 0.1219 0.24173 0.90834 0.0
C5826 C 0.12524 0.2275 0.92143 0.0
C5827 C 0.12673 0.2569 0.87512 0.0
C5828 C 0.13643 0.27169 0.88189 0.0
C5829 C 0.11903 0.25758 0.8558 0.0
C5830 C 0.10768 0.24298 0.8481 0.0
C5831 C 0.09303 0.23676 0.85926 0.0
C5832 C 0.08206 0.22337 0.85163 0.0
C5833 C 0.08556 0.21614 0.83283 0.0
C5834 C 0.10006 0.22226 0.82163 0.0
C5835 C 0.11108 0.23563 0.82919 0.0
H5836 H 0.07702 0.20582 0.82692 0.0
H5837 H 0.18373 0.33539 0.90015 0.0
H5838 H 0.51689 0.40066 0.683 0.0
H5839 H 0.49033 0.3968 0.66212 0.0
H5840 H 0.5207 0.36413 0.62158 0.0
H5841 H 0.54738 0.36839 0.64238 0.0
H5842 H 0.50287 0.38744 0.60105 0.0
H5843 H 0.48585 0.34654 0.6521 0.0
H5844 H 0.48067 0.33643 0.68671 0.0
H5845 H 0.44183 0.37778 0.69487 0.0
H5846 H 0.44693 0.38823 0.66036 0.0
H5847 H 0.4281 0.36896 0.53954 0.0
H5848 H 0.45376 0.3667 0.56184 0.0
H5849 H 0.42452 0.39489 0.60745 0.0
H5850 H 0.39803 0.39493 0.58589 0.0
H5851 H 0.44235 0.37179 0.62532 0.0
H5852 H 0.46141 0.41358 0.57388 0.0
H5853 H 0.4665 0.42227 0.53874 0.0
H5854 H 0.50186 0.37783 0.53112 0.0
H5855 H 0.49686 0.36885 0.56616 0.0
C5856 C 0.51771 0.39223 0.66994 0.0
C5857 C 0.53406 0.38449 0.66452 0.0
C5858 C 0.50252 0.39002 0.65796 0.0
C5859 C 0.50328 0.37997 0.64027 0.0
C5860 C 0.51961 0.37188 0.63513 0.0
C5861 C 0.53483 0.37414 0.64712 0.0
C5862 C 0.48748 0.37902 0.6265 0.0
C5863 C 0.4897 0.38376 0.60637 0.0
C5864 C 0.4701 0.37456 0.63321 0.0
C5865 C 0.46688 0.36823 0.65379 0.0
C5866 C 0.47628 0.35352 0.66134 0.0
C5867 C 0.47334 0.34772 0.68091 0.0
C5868 C 0.46096 0.35649 0.693 0.0
C5869 C 0.45143 0.37102 0.6855 0.0
C5870 C 0.45431 0.37686 0.66593 0.0
C5871 C 0.42712 0.37452 0.5544 0.0
C5872 C 0.41104 0.38205 0.56101 0.0
C5873 C 0.44197 0.37352 0.56711 0.0
C5874 C 0.44154 0.38107 0.58636 0.0
C5875 C 0.42544 0.38894 0.59277 0.0
C5876 C 0.41032 0.38916 0.58037 0.0
C5877 C 0.45764 0.38057 0.59988 0.0
C5878 C 0.45549 0.37551 0.61997 0.0
C5879 C 0.47513 0.38469 0.59314 0.0
C5880 C 0.47869 0.39053 0.57247 0.0
C5881 C 0.47028 0.40572 0.56467 0.0
C5882 C 0.47313 0.41066 0.54479 0.0
C5883 C 0.48447 0.40059 0.53269 0.0
C5884 C 0.49309 0.38562 0.54049 0.0
C5885 C 0.49029 0.38062 0.56036 0.0
H5886 H 0.4866 0.4044 0.51727 0.0
H5887 H 0.45873 0.352 0.70817 0.0
H5888 H 0.14097 0.0717 0.2357 0.0
H5889 H 0.14664 0.03958 0.23232 0.0
H5890 H 0.14139 0.0332 0.2961 0.0
H5891 H 0.13441 0.06453 0.29946 0.0
H5892 H 0.17315 0.01619 0.27458 0.0
H5893 H 0.10815 0.01867 0.28227 0.0
H5894 H 0.0774 0.02865 0.27521 0.0
H5895 H 0.08498 0.0178 0.21283 0.0
H5896 H 0.11577 0.00801 0.21955 0.0
H5897 H 0.1426 0.92477 0.28969 0.0
H5898 H 0.15111 0.95633 0.29181 0.0
H5899 H 0.15013 0.95984 0.22747 0.0
H5900 H 0.139 0.92965 0.22553 0.0
H5901 H 0.12333 0.97883 0.24986 0.0
H5902 H 0.18807 0.96834 0.24824 0.0
H5903 H 0.21474 0.95332 0.26209 0.0
H5904 H 0.20534 0.9779 0.31894 0.0
H5905 H 0.17871 0.99293 0.30532 0.0
C5906 C 0.14088 0.06325 0.24884 0.0
C5907 C 0.1372 0.07018 0.26775 0.0
C5908 C 0.14425 0.04521 0.24696 0.0
C5909 C 0.14444 0.03452 0.2641 0.0
C5910 C 0.14119 0.04154 0.28294 0.0
C5911 C 0.13718 0.05928 0.28475 0.0
C5912 C 0.1465 0.01563 0.26241 0.0
C5913 C 0.16247 0.00788 0.26889 0.0
C5914 C 0.13213 0.00524 0.25582 0.0
C5915 C 0.11428 0.01271 0.25139 0.0
C5916 C 0.10332 0.01867 0.26702 0.0
C5917 C 0.08584 0.02416 0.26311 0.0
C5918 C 0.0792 0.02374 0.2436 0.0
C5919 C 0.0901 0.01804 0.22795 0.0
C5920 C 0.10757 0.01251 0.2318 0.0
C5921 C 0.14397 0.9326 0.27615 0.0
C5922 C 0.13977 0.92542 0.25747 0.0
C5923 C 0.14933 0.95021 0.27731 0.0
C5924 C 0.15112 0.96011 0.2597 0.0
C5925 C 0.14842 0.95231 0.24106 0.0
C5926 C 0.14196 0.93525 0.23998 0.0
C5927 C 0.15051 0.97924 0.26062 0.0
C5928 C 0.13439 0.98705 0.25478 0.0
C5929 C 0.16461 0.98951 0.26819 0.0
C5930 C 0.1812 0.98133 0.27594 0.0
C5931 C 0.19164 0.97031 0.26374 0.0
C5932 C 0.20678 0.96189 0.27151 0.0
C5933 C 0.21164 0.96452 0.29144 0.0
C5934 C 0.20151 0.97577 0.30355 0.0
C5935 C 0.18642 0.98425 0.2958 0.0
H5936 H 0.22331 0.95794 0.29745 0.0
H5937 H 0.06565 0.02796 0.2406 0.0
H5938 H 0.18432 0.88976 0.55357 0.0
H5939 H 0.21443 0.90048 0.54823 0.0
H5940 H 0.20314 0.90722 0.48545 0.0
H5941 H 0.17219 0.89747 0.49121 0.0
H5942 H 0.22822 0.87863 0.49986 0.0
H5943 H 0.21946 0.94216 0.50267 0.0
H5944 H 0.20936 0.97089 0.51632 0.0
H5945 H 0.23726 0.96018 0.57109 0.0
H5946 H 0.24757 0.93144 0.55771 0.0
H5947 H 0.31533 0.88435 0.47527 0.0
H5948 H 0.28475 0.89406 0.478 0.0
H5949 H 0.29217 0.90227 0.5413 0.0
H5950 H 0.32401 0.89464 0.53777 0.0
H5951 H 0.26854 0.92562 0.52554 0.0
H5952 H 0.27808 0.86298 0.52394 0.0
H5953 H 0.28939 0.83429 0.51147 0.0
H5954 H 0.25916 0.84082 0.45749 0.0
H5955 H 0.24792 0.8697 0.46943 0.0
C5956 C 0.18794 0.89442 0.53891 0.0
C5957 C 0.17602 0.89325 0.5229 0.0
C5958 C 0.2051 0.90065 0.53586 0.0
C5959 C 0.21078 0.90484 0.51654 0.0
C5960 C 0.19869 0.90444 0.50055 0.0
C5961 C 0.18118 0.89882 0.50379 0.0
C5962 C 0.22995 0.90476 0.51279 0.0
C5963 C 0.23712 0.8891 0.50487 0.0
C5964 C 0.24125 0.91794 0.52069 0.0
C5965 C 0.23422 0.93466 0.52922 0.0
C5966 C 0.2233 0.94588 0.51768 0.0
C5967 C 0.21766 0.96223 0.52531 0.0
C5968 C 0.22274 0.9674 0.54453 0.0
C5969 C 0.2334 0.9562 0.55618 0.0
C5970 C 0.23919 0.93992 0.54856 0.0
C5971 C 0.31092 0.88979 0.48931 0.0
C5972 C 0.32216 0.89002 0.50597 0.0
C5973 C 0.29327 0.89469 0.49106 0.0
C5974 C 0.28624 0.89845 0.5099 0.0
C5975 C 0.29752 0.8994 0.52662 0.0
C5976 C 0.31558 0.89516 0.52463 0.0
C5977 C 0.26686 0.89972 0.51208 0.0
C5978 C 0.25969 0.91529 0.52013 0.0
C5979 C 0.25549 0.88618 0.50474 0.0
C5980 C 0.26229 0.86868 0.49752 0.0
C5981 C 0.27396 0.85841 0.50932 0.0
C5982 C 0.28035 0.84208 0.50236 0.0
C5983 C 0.27504 0.83577 0.48367 0.0
C5984 C 0.26329 0.84574 0.47195 0.0
C5985 C 0.2569 0.86209 0.47881 0.0
H5986 H 0.28001 0.82314 0.4783 0.0
H5987 H 0.21833 0.98004 0.55042 0.0
H5988 H 0.38938 0.93632 0.76117 0.0
H5989 H 0.3844 0.96754 0.75486 0.0
H5990 H 0.32828 0.95755 0.74714 0.0
H5991 H 0.33373 0.92575 0.74968 0.0
H5992 H 0.34131 0.9904 0.73056 0.0
H5993 H 0.33587 0.96787 0.804 0.0
H5994 H 0.34727 0.94678 0.82873 0.0
H5995 H 0.40112 0.95821 0.81085 0.0
H5996 H 0.38991 0.98092 0.78725 0.0
H5997 H 0.32914 0.07683 0.76885 0.0
H5998 H 0.32102 0.04544 0.77054 0.0
H5999 H 0.37595 0.03277 0.78368 0.0
H6000 H 0.38397 0.06355 0.77984 0.0
H6001 H 0.35503 0.00951 0.79983 0.0
H6002 H 0.35914 0.04004 0.73465 0.0
H6003 H 0.35182 0.05467 0.70301 0.0
H6004 H 0.30342 0.02441 0.69874 0.0
H6005 H 0.31025 0.00989 0.73085 0.0
C6006 C 0.37615 0.94045 0.75743 0.0
C6007 C 0.36167 0.92871 0.7582 0.0
C6008 C 0.37328 0.9584 0.75383 0.0
C6009 C 0.3558 0.96473 0.75242 0.0
C6010 C 0.34182 0.95283 0.7492 0.0
C6011 C 0.34495 0.9347 0.75127 0.0
C6012 C 0.3518 0.98281 0.75901 0.0
C6013 C 0.34407 0.99468 0.74573 0.0
C6014 C 0.35518 0.98808 0.77883 0.0
C6015 C 0.36209 0.97561 0.79374 0.0
C6016 C 0.35013 0.96591 0.80549 0.0
C6017 C 0.3566 0.9537 0.81934 0.0
C6018 C 0.37495 0.95075 0.82106 0.0
C6019 C 0.38691 0.96037 0.80929 0.0
C6020 C 0.38054 0.9732 0.79603 0.0
C6021 C 0.33943 0.06735 0.77146 0.0
C6022 C 0.35747 0.07211 0.77088 0.0
C6023 C 0.33472 0.04943 0.77303 0.0
C6024 C 0.34813 0.03672 0.77585 0.0
C6025 C 0.36545 0.04229 0.78059 0.0
C6026 C 0.37005 0.05997 0.77828 0.0
C6027 C 0.34554 0.01792 0.77092 0.0
C6028 C 0.35173 0.00542 0.78473 0.0
C6029 C 0.34104 0.01231 0.75135 0.0
C6030 C 0.33494 0.02429 0.73538 0.0
C6031 C 0.34653 0.03714 0.72747 0.0
C6032 C 0.34249 0.04534 0.70933 0.0
C6033 C 0.32705 0.0406 0.69889 0.0
C6034 C 0.31532 0.02809 0.70687 0.0
C6035 C 0.31913 0.02009 0.72516 0.0
H6036 H 0.32412 0.04635 0.6845 0.0
H6037 H 0.3801 0.94146 0.83184 0.0
H6038 H 0.17752 0.0918 0.03946 0.0
H6039 H 0.20982 0.08602 0.03834 0.0
H6040 H 0.21466 0.12059 0.98697 0.0
H6041 H 0.18282 0.12681 0.98851 0.0
H6042 H 0.23265 0.08526 0.98482 0.0
H6043 H 0.22511 0.13866 0.02397 0.0
H6044 H 0.21041 0.15535 0.051 0.0
H6045 H 0.2307 0.11819 0.09423 0.0
H6046 H 0.24509 0.10098 0.06734 0.0
H6047 H 0.32607 0.10787 0.98799 0.0
H6048 H 0.29435 0.10215 0.98235 0.0
H6049 H 0.28918 0.08384 0.04337 0.0
H6050 H 0.31911 0.09354 0.04953 0.0
H6051 H 0.27024 0.11049 0.03864 0.0
H6052 H 0.28054 0.05781 0.9978 0.0
H6053 H 0.29492 0.04263 0.96942 0.0
H6054 H 0.27008 0.07912 0.92851 0.0
H6055 H 0.25583 0.09471 0.95664 0.0
C6056 C 0.18572 0.0985 0.02844 0.0
C6057 C 0.17817 0.11019 0.01458 0.0
C6058 C 0.20386 0.09493 0.02749 0.0
C6059 C 0.2142 0.10274 1.01238 0.0
C6060 C 0.20663 0.11439 0.99853 0.0
C6061 C 0.18866 0.11826 0.99977 0.0
C6062 C 0.23333 0.10019 1.01218 0.0
C6063 C 0.24105 0.09057 0.99656 0.0
C6064 C 0.24385 0.10752 0.0274 0.0
C6065 C 0.23602 0.11843 0.04365 0.0
C6066 C 0.22633 0.13398 0.03923 0.0
C6067 C 0.21804 0.14353 0.05451 0.0
C6068 C 0.21958 0.13781 0.07432 0.0
C6069 C 0.22949 0.12258 0.07888 0.0
C6070 C 0.2377 0.11292 0.06362 0.0
C6071 C 0.31821 0.10187 0.99982 0.0
C6072 C 0.32525 0.09998 0.01906 0.0
C6073 C 0.30015 0.09848 0.99659 0.0
C6074 C 0.28944 0.09243 1.01246 0.0
C6075 C 0.29721 0.08844 0.0309 0.0
C6076 C 0.31459 0.09341 0.03444 0.0
C6077 C 0.26999 0.09437 1.01182 0.0
C6078 C 0.26208 0.10449 0.02709 0.0
C6079 C 0.25943 0.0875 0.9962 0.0
C6080 C 0.26721 0.07747 0.97932 0.0
C6081 C 0.27817 0.0626 0.98274 0.0
C6082 C 0.28633 0.05395 0.96671 0.0
C6083 C 0.28346 0.05994 0.94718 0.0
C6084 C 0.27232 0.07451 0.94364 0.0
C6085 C 0.26418 0.08324 0.95962 0.0
H6086 H 0.28985 0.05327 0.93479 0.0
H6087 H 0.21313 0.1452 0.08615 0.0
H6088 H 0.84291 0.07012 0.73676 0.0
H6089 H 0.83747 0.03786 0.73418 0.0
H6090 H 0.8653 0.02991 0.79011 0.0
H6091 H 0.87274 0.0608 0.79113 0.0
H6092 H 0.87705 0.00877 0.76495 0.0
H6093 H 0.81456 0.02553 0.7849 0.0
H6094 H 0.78665 0.04233 0.77863 0.0
H6095 H 0.78437 0.02141 0.71909 0.0
H6096 H 0.81211 0.00451 0.72512 0.0
H6097 H 0.85467 0.91945 0.78874 0.0
H6098 H 0.84698 0.95101 0.79321 0.0
H6099 H 0.8461 0.9581 0.7292 0.0
H6100 H 0.85548 0.92771 0.72489 0.0
H6101 H 0.81853 0.9787 0.75785 0.0
H6102 H 0.88071 0.96508 0.73624 0.0
H6103 H 0.91161 0.95396 0.73744 0.0
H6104 H 0.91661 0.97205 0.79794 0.0
H6105 H 0.88553 0.98293 0.79722 0.0
C6106 C 0.84817 0.06121 0.74805 0.0
C6107 C 0.85843 0.06773 0.76391 0.0
C6108 C 0.84472 0.04301 0.74689 0.0
C6109 C 0.85077 0.03165 0.76214 0.0
C6110 C 0.86065 0.03843 0.77808 0.0
C6111 C 0.86499 0.05612 0.77855 0.0
C6112 C 0.84867 0.01239 0.76119 0.0
C6113 C 0.86415 0.00226 0.76392 0.0
C6114 C 0.832 0.00396 0.75892 0.0
C6115 C 0.81538 0.014 0.7554 0.0
C6116 C 0.80809 0.02468 0.77048 0.0
C6117 C 0.79232 0.03415 0.76698 0.0
C6118 C 0.78382 0.03301 0.74845 0.0
C6119 C 0.79098 0.02231 0.73343 0.0
C6120 C 0.80666 0.01274 0.7369 0.0
C6121 C 0.85201 0.92769 0.77576 0.0
C6122 C 0.85489 0.92121 0.75646 0.0
C6123 C 0.84763 0.94551 0.77829 0.0
C6124 C 0.84582 0.95645 0.76144 0.0
C6125 C 0.84714 0.94954 0.74222 0.0
C6126 C 0.8524 0.93215 0.73976 0.0
C6127 C 0.84669 0.97552 0.76329 0.0
C6128 C 0.8312 0.98544 0.75992 0.0
C6129 C 0.8634 0.98393 0.76511 0.0
C6130 C 0.8806 0.97431 0.76687 0.0
C6131 C 0.88813 0.96607 0.75004 0.0
C6132 C 0.90578 0.96005 0.75054 0.0
C6133 C 0.91608 0.96242 0.7677 0.0
C6134 C 0.9086 0.97024 0.78465 0.0
C6135 C 0.89094 0.97623 0.78425 0.0
H6136 H 0.92991 0.95826 0.76781 0.0
H6137 H 0.77164 0.04038 0.74576 0.0
H6138 H 0.68262 0.10405 0.55469 0.0
H6139 H 0.71357 0.09595 0.55094 0.0
H6140 H 0.70673 0.09394 0.48696 0.0
H6141 H 0.67503 0.1019 0.49097 0.0
H6142 H 0.73022 0.06704 0.50501 0.0
H6143 H 0.72019 0.12968 0.50274 0.0
H6144 H 0.70853 0.1588 0.51331 0.0
H6145 H 0.73783 0.15486 0.56823 0.0
H6146 H 0.7494 0.12552 0.55819 0.0
H6147 H 0.81294 0.10566 0.47602 0.0
H6148 H 0.7833 0.09378 0.48161 0.0
H6149 H 0.79569 0.08636 0.54403 0.0
H6150 H 0.82645 0.09658 0.53779 0.0
H6151 H 0.76979 0.11555 0.52849 0.0
H6152 H 0.77921 0.0524 0.53026 0.0
H6153 H 0.78959 0.02287 0.51932 0.0
H6154 H 0.76214 0.02951 0.46348 0.0
H6155 H 0.75154 0.05904 0.47414 0.0
C6156 C 0.68741 0.10116 0.53998 0.0
C6157 C 0.67649 0.10319 0.52321 0.0
C6158 C 0.70514 0.09668 0.53781 0.0
C6159 C 0.71228 0.09472 0.5187 0.0
C6160 C 0.70122 0.09546 0.50182 0.0
C6161 C 0.68324 0.09982 0.50409 0.0
C6162 C 0.73159 0.09361 0.51668 0.0
C6163 C 0.73895 0.07768 0.50988 0.0
C6164 C 0.74266 0.10753 0.52359 0.0
C6165 C 0.73548 0.12517 0.52981 0.0
C6166 C 0.72396 0.13485 0.51721 0.0
C6167 C 0.7174 0.15145 0.52308 0.0
C6168 C 0.72237 0.15864 0.54147 0.0
C6169 C 0.73395 0.14925 0.55401 0.0
C6170 C 0.74051 0.13263 0.54823 0.0
C6171 C 0.80984 0.10004 0.49047 0.0
C6172 C 0.82206 0.101 0.50621 0.0
C6173 C 0.79288 0.09344 0.49374 0.0
C6174 C 0.78758 0.0889 0.51311 0.0
C6175 C 0.79989 0.08934 0.52889 0.0
C6176 C 0.81727 0.09522 0.52538 0.0
C6177 C 0.76847 0.08881 0.51712 0.0
C6178 C 0.76106 0.10477 0.52398 0.0
C6179 C 0.7574 0.07512 0.50996 0.0
C6180 C 0.76468 0.05794 0.50295 0.0
C6181 C 0.77554 0.04763 0.51557 0.0
C6182 C 0.78133 0.03082 0.5095 0.0
C6183 C 0.77648 0.02429 0.49074 0.0
C6184 C 0.76585 0.03456 0.47802 0.0
C6185 C 0.7599 0.0513 0.4841 0.0
H6186 H 0.78101 0.0113 0.48604 0.0
H6187 H 0.71729 0.17149 0.54598 0.0
H6188 H 0.61154 0.06312 0.27537 0.0
H6189 H 0.61561 0.03146 0.27572 0.0
H6190 H 0.67271 0.03866 0.27874 0.0
H6191 H 0.66849 0.07079 0.27708 0.0
H6192 H 0.66183 0.01888 0.24577 0.0
H6193 H 0.65068 0.01826 0.31663 0.0
H6194 H 0.63329 0.03213 0.34363 0.0
H6195 H 0.5851 0.00968 0.31992 0.0
H6196 H 0.60214 0.99607 0.29247 0.0
H6197 H 0.6653 0.92345 0.24966 0.0
H6198 H 0.66882 0.95547 0.24863 0.0
H6199 H 0.6117 0.96188 0.25251 0.0
H6200 H 0.60834 0.92993 0.25486 0.0
H6201 H 0.62832 0.97407 0.28537 0.0
H6202 H 0.6352 0.97939 0.21433 0.0
H6203 H 0.64842 0.96945 0.18254 0.0
H6204 H 0.70051 0.98415 0.20344 0.0
H6205 H 0.6876 0.99395 0.23551 0.0
C6206 C 0.62487 0.05808 0.27607 0.0
C6207 C 0.63957 0.06927 0.27403 0.0
C6208 C 0.62727 0.0399 0.27674 0.0
C6209 C 0.64453 0.03277 0.27671 0.0
C6210 C 0.6593 0.04402 0.27829 0.0
C6211 C 0.65679 0.06235 0.27749 0.0
C6212 C 0.64672 0.01378 0.27267 0.0
C6213 C 0.65499 0.00891 0.25469 0.0
C6214 C 0.6373 0.00106 0.28405 0.0
C6215 C 0.6277 0.00613 0.30254 0.0
C6216 C 0.63642 0.01602 0.3174 0.0
C6217 C 0.62659 0.02399 0.33266 0.0
C6218 C 0.60807 0.02185 0.33341 0.0
C6219 C 0.59943 0.01132 0.31928 0.0
C6220 C 0.60918 0.00342 0.3039 0.0
C6221 C 0.6534 0.93162 0.24997 0.0
C6222 C 0.63661 0.9244 0.25475 0.0
C6223 C 0.65547 0.94996 0.24909 0.0
C6224 C 0.64055 0.96091 0.25151 0.0
C6225 C 0.62343 0.9535 0.25154 0.0
C6226 C 0.6215 0.93523 0.25314 0.0
C6227 C 0.64286 0.97929 0.2581 0.0
C6228 C 0.63559 0.98389 0.27667 0.0
C6229 C 0.65289 0.99176 0.24708 0.0
C6230 C 0.66048 0.9873 0.22731 0.0
C6231 C 0.64948 0.98053 0.21212 0.0
C6232 C 0.65691 0.97488 0.19408 0.0
C6233 C 0.6753 0.97613 0.19099 0.0
C6234 C 0.68627 0.9832 0.20586 0.0
C6235 C 0.6789 0.98884 0.22396 0.0
H6236 H 0.68105 0.97166 0.17704 0.0
H6237 H 0.60034 0.02842 0.34486 0.0
H6238 H 0.67399 0.89966 0.0402 0.0
H6239 H 0.70631 0.90541 0.04326 0.0
H6240 H 0.7144 0.88366 0.98436 0.0
H6241 H 0.6831 0.87663 0.98186 0.0
H6242 H 0.72976 0.86878 0.02993 0.0
H6243 H 0.73728 0.91943 0.96742 0.0
H6244 H 0.72661 0.94914 0.95722 0.0
H6245 H 0.72005 0.96362 0.01881 0.0
H6246 H 0.73047 0.93386 0.0293 0.0
H6247 H 0.82324 0.87241 0.98677 0.0
H6248 H 0.79087 0.87519 0.98002 0.0
H6249 H 0.78305 0.89477 0.04006 0.0
H6250 H 0.81448 0.89062 0.04702 0.0
H6251 H 0.76784 0.91225 0.99364 0.0
H6252 H 0.76895 0.86523 0.05445 0.0
H6253 H 0.78295 0.83682 0.06443 0.0
H6254 H 0.77271 0.81548 1.00611 0.0
H6255 H 0.75907 0.84396 0.9957 0.0
C6256 C 0.68287 0.89616 0.02805 0.0
C6257 C 0.67646 0.88754 1.01093 0.0
C6258 C 0.701 0.89971 0.02967 0.0
C6259 C 0.71222 0.89519 1.01381 0.0
C6260 C 0.7056 0.88742 0.99646 0.0
C6261 C 0.68786 0.88321 0.9952 0.0
C6262 C 0.73123 0.89475 0.01605 0.0
C6263 C 0.73824 0.87846 0.02248 0.0
C6264 C 0.74171 0.907 1.00536 0.0
C6265 C 0.73464 0.9245 0.99909 0.0
C6266 C 0.73353 0.92896 0.97874 0.0
C6267 C 0.72752 0.94579 0.97293 0.0
C6268 C 0.72277 0.95831 0.98737 0.0
C6269 C 0.72376 0.95393 1.00765 0.0
C6270 C 0.72959 0.93704 1.01352 0.0
C6271 C 0.81435 0.8772 0.99831 0.0
C6272 C 0.82073 0.8815 0.01733 0.0
C6273 C 0.79621 0.87888 0.99446 0.0
C6274 C 0.78511 0.88523 1.00961 0.0
C6275 C 0.79175 0.88984 0.02836 0.0
C6276 C 0.80948 0.8875 0.03235 0.0
C6277 C 0.76617 0.8863 1.00729 0.0
C6278 C 0.75924 0.90258 1.00092 0.0
C6279 C 0.75564 0.87397 0.01782 0.0
C6280 C 0.76294 0.8566 0.02437 0.0
C6281 C 0.76961 0.85442 0.04383 0.0
C6282 C 0.77758 0.83837 0.04951 0.0
C6283 C 0.77868 0.82434 0.03592 0.0
C6284 C 0.77185 0.82635 0.01662 0.0
C6285 C 0.76408 0.84247 1.01079 0.0
H6286 H 0.78485 0.81192 0.04034 0.0
H6287 H 0.71821 0.97137 0.98283 0.0
H6288 H 0.63745 0.5755 0.73755 0.0
H6289 H 0.64227 0.54348 0.73256 0.0
H6290 H 0.65863 0.53817 0.79405 0.0
H6291 H 0.65048 0.56862 0.7997 0.0
H6292 H 0.67613 0.51701 0.75326 0.0
H6293 H 0.62709 0.53295 0.79991 0.0
H6294 H 0.59907 0.54661 0.81059 0.0
H6295 H 0.57202 0.52323 0.76065 0.0
H6296 H 0.60028 0.50984 0.74924 0.0
H6297 H 0.65533 0.42566 0.78388 0.0
H6298 H 0.66151 0.45765 0.78544 0.0
H6299 H 0.62704 0.4663 0.7347 0.0
H6300 H 0.62146 0.43458 0.73238 0.0
H6301 H 0.6199 0.48592 0.77097 0.0
H6302 H 0.66597 0.46761 0.7259 0.0
H6303 H 0.69344 0.45765 0.70951 0.0
H6304 H 0.7248 0.48332 0.75466 0.0
H6305 H 0.6974 0.49457 0.77059 0.0
C6306 C 0.64286 0.56755 0.74966 0.0
C6307 C 0.64461 0.57466 0.76885 0.0
C6308 C 0.64545 0.54942 0.74685 0.0
C6309 C 0.65049 0.53885 0.76313 0.0
C6310 C 0.65465 0.54638 0.78146 0.0
C6311 C 0.65046 0.56396 0.78463 0.0
C6312 C 0.64881 0.51977 0.76231 0.0
C6313 C 0.66396 0.51003 0.75727 0.0
C6314 C 0.63268 0.51123 0.76752 0.0
C6315 C 0.6161 0.52085 0.7733 0.0
C6316 C 0.61544 0.53124 0.7907 0.0
C6317 C 0.59938 0.53878 0.79706 0.0
C6318 C 0.58373 0.53588 0.78627 0.0
C6319 C 0.58417 0.52554 0.76898 0.0
C6320 C 0.60024 0.51805 0.76251 0.0
C6321 C 0.64925 0.43444 0.77298 0.0
C6322 C 0.63799 0.42782 0.75799 0.0
C6323 C 0.65287 0.45253 0.77383 0.0
C6324 C 0.64496 0.46394 0.75991 0.0
C6325 C 0.63341 0.45742 0.74528 0.0
C6326 C 0.63005 0.43942 0.7442 0.0
C6327 C 0.64722 0.48298 0.76149 0.0
C6328 C 0.63217 0.49278 0.76706 0.0
C6329 C 0.66341 0.49153 0.75667 0.0
C6330 C 0.67952 0.48204 0.74943 0.0
C6331 C 0.67864 0.47109 0.73249 0.0
C6332 C 0.69426 0.4655 0.72301 0.0
C6333 C 0.71089 0.46989 0.731 0.0
C6334 C 0.71192 0.47996 0.74844 0.0
C6335 C 0.69634 0.48615 0.75754 0.0
H6336 H 0.72297 0.46537 0.72374 0.0
H6337 H 0.57128 0.54162 0.79131 0.0
H6338 H 0.80895 0.35837 0.99703 0.0
H6339 H 0.77762 0.36229 1.00108 0.0
H6340 H 0.78681 0.41341 0.0281 0.0
H6341 H 0.81836 0.40625 0.03102 0.0
H6342 H 0.75736 0.4036 0.03757 0.0
H6343 H 0.77486 0.40421 0.9578 0.0
H6344 H 0.78354 0.38692 0.92808 0.0
H6345 H 0.76002 0.33999 0.95285 0.0
H6346 H 0.7492 0.35739 0.98162 0.0
H6347 H 0.66684 0.41779 1.00819 0.0
H6348 H 0.69806 0.42695 1.00456 0.0
H6349 H 0.71195 0.37266 0.99024 0.0
H6350 H 0.68162 0.36339 0.99644 0.0
H6351 H 0.73096 0.39623 0.97024 0.0
H6352 H 0.7091 0.38476 0.03741 0.0
H6353 H 0.6985 0.38692 0.07189 0.0
H6354 H 0.72659 0.43616 0.07934 0.0
H6355 H 0.7372 0.43444 0.0445 0.0
C6356 C 0.80456 0.36977 1.00525 0.0
C6357 C 0.81646 0.38238 1.01299 0.0
C6358 C 0.78642 0.37258 1.0063 0.0
C6359 C 0.78004 0.38912 1.01233 0.0
C6360 C 0.79156 0.40088 0.02223 0.0
C6361 C 0.80966 0.39701 0.02344 0.0
C6362 C 0.76174 0.39457 1.00757 0.0
C6363 C 0.75168 0.40234 0.02272 0.0
C6364 C 0.75414 0.39243 0.98836 0.0
C6365 C 0.76217 0.38182 0.97228 0.0
C6366 C 0.77191 0.39012 0.95708 0.0
C6367 C 0.77705 0.38037 0.94032 0.0
C6368 C 0.77316 0.36226 0.93896 0.0
C6369 C 0.76338 0.35394 0.95405 0.0
C6370 C 0.75743 0.3638 0.97038 0.0
C6371 C 0.67672 0.40791 1.00441 0.0
C6372 C 0.6727 0.38967 1.00493 0.0
C6373 C 0.69436 0.41322 1.00206 0.0
C6374 C 0.70724 0.4003 0.99813 0.0
C6375 C 0.70216 0.38272 0.99397 0.0
C6376 C 0.68486 0.37738 0.99747 0.0
C6377 C 0.72618 0.40377 1.00065 0.0
C6378 C 0.73694 0.39845 0.98482 0.0
C6379 C 0.73371 0.40629 0.0198 0.0
C6380 C 0.72334 0.40984 0.03809 0.0
C6381 C 0.71229 0.3965 0.04602 0.0
C6382 C 0.70648 0.39752 0.06577 0.0
C6383 C 0.71167 0.41174 0.07778 0.0
C6384 C 0.72249 0.42519 0.06998 0.0
C6385 C 0.7282 0.42433 0.05014 0.0
H6386 H 0.70733 0.41231 0.09309 0.0
H6387 H 0.77736 0.35482 0.92597 0.0
H6388 H 0.84351 0.56965 0.28796 0.0
H6389 H 0.83546 0.53809 0.28926 0.0
H6390 H 0.87123 0.52755 0.2401 0.0
H6391 H 0.87895 0.55873 0.2383 0.0
H6392 H 0.83792 0.51194 0.23546 0.0
H6393 H 0.88543 0.52013 0.28341 0.0
H6394 H 0.89861 0.53519 0.31253 0.0
H6395 H 0.85541 0.51685 0.34942 0.0
H6396 H 0.84173 0.50206 0.32031 0.0
H6397 H 0.86676 0.42234 0.23985 0.0
H6398 H 0.85992 0.45364 0.23583 0.0
H6399 H 0.83363 0.45354 0.29336 0.0
H6400 H 0.84444 0.42405 0.29891 0.0
H6401 H 0.85648 0.47595 0.29404 0.0
H6402 H 0.81244 0.46214 0.24145 0.0
H6403 H 0.80491 0.44677 0.21003 0.0
H6404 H 0.84711 0.47453 0.17971 0.0
H6405 H 0.85497 0.48991 0.21094 0.0
C6406 C 0.84979 0.56048 0.27767 0.0
C6407 C 0.86176 0.56649 0.263 0.0
C6408 C 0.84501 0.54268 0.27823 0.0
C6409 C 0.85249 0.53092 0.2644 0.0
C6410 C 0.86507 0.53673 0.25047 0.0
C6411 C 0.86975 0.55444 0.24981 0.0
C6412 C 0.84858 0.51209 0.26534 0.0
C6413 C 0.84155 0.50391 0.24834 0.0
C6414 C 0.85379 0.50202 0.28204 0.0
C6415 C 0.86246 0.51018 0.29969 0.0
C6416 C 0.8787 0.5194 0.29771 0.0
C6417 C 0.88624 0.52791 0.31419 0.0
C6418 C 0.87781 0.52703 0.33281 0.0
C6419 C 0.86188 0.51756 0.33498 0.0
C6420 C 0.85422 0.50913 0.31849 0.0
C6421 C 0.85867 0.42883 0.25108 0.0
C6422 C 0.85456 0.42022 0.26903 0.0
C6423 C 0.85465 0.44674 0.24875 0.0
C6424 C 0.84561 0.45585 0.264 0.0
C6425 C 0.84039 0.44675 0.28126 0.0
C6426 C 0.84613 0.42957 0.2843 0.0
C6427 C 0.84506 0.4753 0.26426 0.0
C6428 C 0.85172 0.48373 0.28144 0.0
C6429 C 0.83992 0.48549 0.24747 0.0
C6430 C 0.83418 0.47725 0.22847 0.0
C6431 C 0.82 0.46505 0.22803 0.0
C6432 C 0.81573 0.45628 0.21028 0.0
C6433 C 0.82551 0.45969 0.19288 0.0
C6434 C 0.8395 0.47195 0.19316 0.0
C6435 C 0.84381 0.48075 0.21085 0.0
H6436 H 0.82225 0.45282 0.17918 0.0
H6437 H 0.88366 0.53363 0.34556 0.0
H6438 H 0.68438 0.62077 0.48433 0.0
H6439 H 0.71533 0.61083 0.48257 0.0
H6440 H 0.7084 0.5813 0.53745 0.0
H6441 H 0.67681 0.59027 0.53844 0.0
H6442 H 0.73136 0.6195 0.52642 0.0
H6443 H 0.72545 0.55339 0.51874 0.0
H6444 H 0.71575 0.52619 0.50121 0.0
H6445 H 0.73574 0.54723 0.44579 0.0
H6446 H 0.74589 0.57432 0.46315 0.0
H6447 H 0.81713 0.60559 0.55487 0.0
H6448 H 0.78582 0.59962 0.54943 0.0
H6449 H 0.79556 0.59551 0.48596 0.0
H6450 H 0.82752 0.6005 0.49171 0.0
H6451 H 0.77056 0.57288 0.49809 0.0
H6452 H 0.78437 0.63338 0.50617 0.0
H6453 H 0.79179 0.6637 0.51701 0.0
H6454 H 0.7538 0.6599 0.56471 0.0
H6455 H 0.74702 0.62912 0.55527 0.0
C6456 C 0.68959 0.61227 0.49606 0.0
C6457 C 0.67882 0.60669 0.51194 0.0
C6458 C 0.70688 0.60608 0.49462 0.0
C6459 C 0.71364 0.59483 0.50945 0.0
C6460 C 0.70296 0.5894 0.52551 0.0
C6461 C 0.68537 0.59511 0.52656 0.0
C6462 C 0.73275 0.59433 0.51167 0.0
C6463 C 0.74017 0.60914 0.5209 0.0
C6464 C 0.74356 0.58136 0.50278 0.0
C6465 C 0.73617 0.56588 0.49215 0.0
C6466 C 0.72759 0.55224 0.50279 0.0
C6467 C 0.72223 0.53677 0.49295 0.0
C6468 C 0.72512 0.53499 0.4724 0.0
C6469 C 0.73347 0.54863 0.46169 0.0
C6470 C 0.73911 0.56399 0.47153 0.0
C6471 C 0.81282 0.60215 0.53999 0.0
C6472 C 0.82457 0.60275 0.52375 0.0
C6473 C 0.7949 0.59928 0.53682 0.0
C6474 C 0.78858 0.5977 0.5173 0.0
C6475 C 0.80044 0.59686 0.50112 0.0
C6476 C 0.81856 0.59943 0.50437 0.0
C6477 C 0.76948 0.5978 0.51397 0.0
C6478 C 0.76199 0.58316 0.50418 0.0
C6479 C 0.7585 0.6114 0.52193 0.0
C6480 C 0.76522 0.62866 0.52996 0.0
C6481 C 0.77804 0.63865 0.51942 0.0
C6482 C 0.78211 0.65602 0.5253 0.0
C6483 C 0.77324 0.66374 0.54143 0.0
C6484 C 0.7606 0.65396 0.55211 0.0
C6485 C 0.75686 0.63644 0.5467 0.0
H6486 H 0.77621 0.67729 0.5457 0.0
H6487 H 0.72086 0.52305 0.46478 0.0
H6488 H 0.34811 0.5676 0.29998 0.0
H6489 H 0.34408 0.53565 0.29926 0.0
H6490 H 0.36956 0.53371 0.24122 0.0
H6491 H 0.37227 0.56631 0.24137 0.0
H6492 H 0.34031 0.51514 0.24204 0.0
H6493 H 0.39167 0.5199 0.28292 0.0
H6494 H 0.41028 0.53172 0.31018 0.0
H6495 H 0.37251 0.51256 0.35347 0.0
H6496 H 0.35359 0.50077 0.32645 0.0
H6497 H 0.37697 0.43212 0.24351 0.0
H6498 H 0.36846 0.46311 0.24468 0.0
H6499 H 0.33008 0.45141 0.29111 0.0
H6500 H 0.33867 0.41981 0.28981 0.0
H6501 H 0.35937 0.47648 0.29834 0.0
H6502 H 0.30662 0.47707 0.24858 0.0
H6503 H 0.29237 0.46919 0.21647 0.0
H6504 H 0.34225 0.47753 0.18614 0.0
H6505 H 0.35641 0.48574 0.2177 0.0
C6506 C 0.35244 0.5603 0.28693 0.0
C6507 C 0.35986 0.56891 0.27041 0.0
C6508 C 0.35049 0.54218 0.2867 0.0
C6509 C 0.35685 0.5326 0.27037 0.0
C6510 C 0.36462 0.54119 0.25389 0.0
C6511 C 0.36601 0.55954 0.25385 0.0
C6512 C 0.35419 0.51364 0.27019 0.0
C6513 C 0.34455 0.50663 0.25429 0.0
C6514 C 0.35954 0.50289 0.28639 0.0
C6515 C 0.37113 0.5096 0.30267 0.0
C6516 C 0.3873 0.51828 0.29825 0.0
C6517 C 0.39792 0.52495 0.31366 0.0
C6518 C 0.39257 0.52292 0.33354 0.0
C6519 C 0.37664 0.51411 0.33806 0.0
C6520 C 0.36599 0.5074 0.32272 0.0
C6521 C 0.36711 0.43624 0.25435 0.0
C6522 C 0.35886 0.42406 0.26713 0.0
C6523 C 0.36172 0.4537 0.2544 0.0
C6524 C 0.34815 0.45907 0.26735 0.0
C6525 C 0.34016 0.44706 0.2806 0.0
C6526 C 0.34543 0.4294 0.28035 0.0
C6527 C 0.34585 0.47789 0.26994 0.0
C6528 C 0.35461 0.48512 0.28645 0.0
C6529 C 0.34065 0.48869 0.25379 0.0
C6530 C 0.33259 0.48162 0.23543 0.0
C6531 C 0.31451 0.47691 0.23502 0.0
C6532 C 0.30639 0.4726 0.21686 0.0
C6533 C 0.31636 0.47269 0.1992 0.0
C6534 C 0.33444 0.47722 0.19966 0.0
C6535 C 0.34251 0.48178 0.21766 0.0
H6536 H 0.31001 0.46938 0.18519 0.0
H6537 H 0.40076 0.52815 0.34546 0.0
H6538 H 0.31082 0.62135 0.98089 0.0
H6539 H 0.27938 0.61471 0.98232 0.0
H6540 H 0.28545 0.59552 0.04289 0.0
H6541 H 0.31784 0.60104 0.04076 0.0
H6542 H 0.26491 0.5736 0.01925 0.0
H6543 H 0.26672 0.6351 0.03605 0.0
H6544 H 0.27726 0.66602 0.03261 0.0
H6545 H 0.25462 0.66901 0.9738 0.0
H6546 H 0.2441 0.63803 0.97678 0.0
H6547 H 0.18077 0.6021 0.05068 0.0
H6548 H 0.21026 0.5911 0.04341 0.0
H6549 H 0.19865 0.59339 0.98031 0.0
H6550 H 0.16799 0.60291 0.98789 0.0
H6551 H 0.22176 0.62123 1.00178 0.0
H6552 H 0.21612 0.55929 0.98942 0.0
H6553 H 0.2055 0.52882 0.9959 0.0
H6554 H 0.23421 0.5277 0.05138 0.0
H6555 H 0.24476 0.5583 0.04543 0.0
C6556 C 0.30548 0.61588 0.99453 0.0
C6557 C 0.31648 0.61179 1.01073 0.0
C6558 C 0.28756 0.6121 0.99536 0.0
C6559 C 0.28024 0.60495 1.01282 0.0
C6560 C 0.29108 0.6011 0.02934 0.0
C6561 C 0.30933 0.60437 0.02821 0.0
C6562 C 0.26117 0.60154 1.0132 0.0
C6563 C 0.25534 0.58399 0.01579 0.0
C6564 C 0.24907 0.6152 1.00813 0.0
C6565 C 0.25465 0.63418 1.00662 0.0
C6566 C 0.26399 0.64234 0.02237 0.0
C6567 C 0.26998 0.65988 0.0205 0.0
C6568 C 0.26663 0.66947 1.00299 0.0
C6569 C 0.25719 0.66157 0.98736 0.0
C6570 C 0.25116 0.64403 0.98916 0.0
C6571 C 0.18406 0.59923 0.03541 0.0
C6572 C 0.1722 0.60291 0.01986 0.0
C6573 C 0.20086 0.59276 0.03124 0.0
C6574 C 0.20637 0.59132 1.01138 0.0
C6575 C 0.19426 0.59399 0.99572 0.0
C6576 C 0.17698 0.59957 1.00002 0.0
C6577 C 0.22537 0.59325 1.00789 0.0
C6578 C 0.23132 0.61074 1.00494 0.0
C6579 C 0.23735 0.57967 1.01337 0.0
C6580 C 0.23121 0.56116 0.01698 0.0
C6581 C 0.22008 0.55261 1.00308 0.0
C6582 C 0.21409 0.53529 1.00664 0.0
C6583 C 0.21919 0.52632 0.02403 0.0
C6584 C 0.2303 0.53466 0.03789 0.0
C6585 C 0.23632 0.55199 0.03441 0.0
H6586 H 0.21452 0.51292 0.02677 0.0
H6587 H 0.27133 0.68301 1.00153 0.0
H6588 H 0.12342 0.42247 0.74203 0.0
H6589 H 0.13102 0.45281 0.73398 0.0
H6590 H 0.17016 0.45259 0.78164 0.0
H6591 H 0.15709 0.42505 0.79377 0.0
H6592 H 0.15334 0.47675 0.78763 0.0
H6593 H 0.1753 0.46089 0.72122 0.0
H6594 H 0.17172 0.44502 0.68923 0.0
H6595 H 0.1231 0.47351 0.67778 0.0
H6596 H 0.12622 0.48919 0.70979 0.0
H6597 H 0.15908 0.5683 0.78204 0.0
H6598 H 0.1679 0.53731 0.77765 0.0
H6599 H 0.12202 0.52879 0.74009 0.0
H6600 H 0.11566 0.56039 0.74064 0.0
H6601 H 0.1494 0.51122 0.72516 0.0
H6602 H 0.12107 0.51939 0.78893 0.0
H6603 H 0.11725 0.53357 0.82183 0.0
H6604 H 0.16963 0.51626 0.83918 0.0
H6605 H 0.17389 0.50234 0.80618 0.0
C6606 C 0.13388 0.42898 0.75047 0.0
C6607 C 0.14079 0.4211 0.76773 0.0
C6608 C 0.13871 0.44625 0.74546 0.0
C6609 C 0.15174 0.45524 0.75669 0.0
C6610 C 0.15999 0.44621 0.77268 0.0
C6611 C 0.1532 0.43008 0.77927 0.0
C6612 C 0.1533 0.47489 0.75558 0.0
C6613 C 0.15313 0.48394 0.77387 0.0
C6614 C 0.15208 0.48488 0.73764 0.0
C6615 C 0.15114 0.47641 0.71774 0.0
C6616 C 0.16396 0.46387 0.71177 0.0
C6617 C 0.16194 0.45482 0.69369 0.0
C6618 C 0.14722 0.45829 0.68145 0.0
C6619 C 0.13454 0.47089 0.68719 0.0
C6620 C 0.13648 0.47993 0.70524 0.0
C6621 C 0.15091 0.55969 0.77287 0.0
C6622 C 0.13633 0.56646 0.76223 0.0
C6623 C 0.15604 0.54217 0.77017 0.0
C6624 C 0.1457 0.53096 0.75817 0.0
C6625 C 0.13046 0.53747 0.74866 0.0
C6626 C 0.12613 0.55528 0.7501 0.0
C6627 C 0.14947 0.51196 0.75734 0.0
C6628 C 0.15046 0.50342 0.73878 0.0
C6629 C 0.15066 0.50208 0.77506 0.0
C6630 C 0.1479 0.51006 0.79506 0.0
C6631 C 0.13181 0.51874 0.79973 0.0
C6632 C 0.12958 0.52675 0.81836 0.0
C6633 C 0.14322 0.52589 0.83255 0.0
C6634 C 0.1591 0.51698 0.82814 0.0
C6635 C 0.16146 0.50906 0.80948 0.0
H6636 H 0.14147 0.53207 0.84699 0.0
H6637 H 0.14563 0.45119 0.66753 0.0
H6638 H 0.17315 0.39502 0.53848 0.0
H6639 H 0.20462 0.40362 0.54295 0.0
H6640 H 0.21323 0.39809 0.47954 0.0
H6641 H 0.1827 0.38866 0.47549 0.0
H6642 H 0.23145 0.37365 0.50593 0.0
H6643 H 0.22056 0.43762 0.49537 0.0
H6644 H 0.20428 0.46505 0.50432 0.0
H6645 H 0.22284 0.46042 0.5648 0.0
H6646 H 0.23894 0.43291 0.5562 0.0
H6647 H 0.32362 0.38937 0.49046 0.0
H6648 H 0.29214 0.39825 0.48651 0.0
H6649 H 0.28561 0.39655 0.55036 0.0
H6650 H 0.31587 0.38698 0.55413 0.0
H6651 H 0.26635 0.42682 0.52573 0.0
H6652 H 0.27604 0.36384 0.53848 0.0
H6653 H 0.28902 0.3341 0.53331 0.0
H6654 H 0.26954 0.33382 0.47301 0.0
H6655 H 0.25697 0.36388 0.47762 0.0
C6656 C 0.18166 0.39648 0.52551 0.0
C6657 C 0.17551 0.39174 0.50651 0.0
C6658 C 0.19951 0.40137 0.52804 0.0
C6659 C 0.21101 0.40155 0.51149 0.0
C6660 C 0.20441 0.39818 0.49238 0.0
C6661 C 0.1869 0.3929 0.49002 0.0
C6662 C 0.23035 0.40133 0.51413 0.0
C6663 C 0.23914 0.38533 0.50997 0.0
C6664 C 0.24004 0.41641 0.52011 0.0
C6665 C 0.23094 0.43326 0.52514 0.0
C6666 C 0.2211 0.44248 0.51057 0.0
C6667 C 0.2119 0.45802 0.51557 0.0
C6668 C 0.21252 0.46447 0.53512 0.0
C6669 C 0.22239 0.45544 0.54966 0.0
C6670 C 0.2316 0.4399 0.54471 0.0
C6671 C 0.31553 0.39176 0.5036 0.0
C6672 C 0.32223 0.38822 0.52273 0.0
C6673 C 0.29769 0.39677 0.50136 0.0
C6674 C 0.2868 0.39846 0.51831 0.0
C6675 C 0.29394 0.39603 0.53732 0.0
C6676 C 0.31136 0.39047 0.53947 0.0
C6677 C 0.26745 0.39939 0.51643 0.0
C6678 C 0.25866 0.4153 0.52121 0.0
C6679 C 0.25761 0.38405 0.51135 0.0
C6680 C 0.26604 0.36638 0.5082 0.0
C6681 C 0.27496 0.35768 0.52393 0.0
C6682 C 0.28214 0.3407 0.52116 0.0
C6683 C 0.28019 0.33212 0.50281 0.0
C6684 C 0.27114 0.34053 0.48718 0.0
C6685 C 0.26406 0.35758 0.48984 0.0
H6686 H 0.2856 0.3189 0.50075 0.0
H6687 H 0.20535 0.47647 0.53899 0.0
H6688 H 0.12089 0.08662 0.05847 0.0
H6689 H 0.12338 0.08859 0.09463 0.0
H6690 H 0.12316 0.1458 0.0907 0.0
H6691 H 0.12114 0.14393 0.05424 0.0
H6692 H 0.14768 0.13536 0.11717 0.0
H6693 H 0.08511 0.11881 0.10667 0.0
H6694 H 0.06177 0.09918 0.09299 0.0
H6695 H 0.08416 0.05474 0.12467 0.0
H6696 H 0.1077 0.07409 0.13841 0.0
H6697 H 0.13779 0.15217 0.22145 0.0
H6698 H 0.13638 0.15061 0.18498 0.0
H6699 H 0.12088 0.09536 0.18916 0.0
H6700 H 0.1201 0.09779 0.22538 0.0
H6701 H 0.10475 0.10448 0.16159 0.0
H6702 H 0.16702 0.1165 0.17163 0.0
H6703 H 0.19361 0.13237 0.18405 0.0
H6704 H 0.177 0.17969 0.15317 0.0
H6705 H 0.15026 0.16415 0.14071 0.0
C6706 C 0.12113 0.0997 0.06516 0.0
C6707 C 0.12051 0.11513 0.05309 0.0
C6708 C 0.12255 0.1008 0.08606 0.0
C6709 C 0.12317 0.11736 0.09576 0.0
C6710 C 0.1226 0.13281 0.08379 0.0
C6711 C 0.12124 0.13172 0.06281 0.0
C6712 C 0.12448 0.11857 0.11825 0.0
C6713 C 0.13818 0.12876 0.12691 0.0
C6714 C 0.11269 0.10934 0.13123 0.0
C6715 C 0.09819 0.09788 0.12347 0.0
C6716 C 0.08505 0.10485 0.11069 0.0
C6717 C 0.0718 0.09377 0.10293 0.0
C6718 C 0.0715 0.07572 0.10793 0.0
C6719 C 0.0844 0.06872 0.12081 0.0
C6720 C 0.09767 0.07975 0.12862 0.0
C6721 C 0.1341 0.13972 0.21449 0.0
C6722 C 0.1291 0.12513 0.22638 0.0
C6723 C 0.13354 0.13868 0.19346 0.0
C6724 C 0.12897 0.12268 0.18363 0.0
C6725 C 0.12434 0.10801 0.19578 0.0
C6726 C 0.12406 0.10933 0.21671 0.0
C6727 C 0.12819 0.12124 0.16096 0.0
C6728 C 0.1145 0.11103 0.15213 0.0
C6729 C 0.14051 0.12983 0.14788 0.0
C6730 C 0.15657 0.1392 0.15538 0.0
C6731 C 0.16901 0.13031 0.16757 0.0
C6732 C 0.18411 0.13924 0.1746 0.0
C6733 C 0.18697 0.15703 0.16942 0.0
C6734 C 0.17476 0.16591 0.15717 0.0
C6735 C 0.15965 0.15705 0.1501 0.0
H6736 H 0.19867 0.16391 0.17488 0.0
H6737 H 0.06127 0.06716 0.10185 0.0
H6738 H 0.10867 0.85456 0.47545 0.0
H6739 H 0.10871 0.85218 0.439 0.0
H6740 H 0.1389 0.90098 0.43498 0.0
H6741 H 0.1375 0.90402 0.47109 0.0
H6742 H 0.11972 0.90296 0.40716 0.0
H6743 H 0.15544 0.85332 0.42607 0.0
H6744 H 0.16433 0.82521 0.44236 0.0
H6745 H 0.12035 0.79833 0.41462 0.0
H6746 H 0.11106 0.82632 0.39837 0.0
H6747 H 0.14838 0.89111 0.30777 0.0
H6748 H 0.14619 0.89215 0.34367 0.0
H6749 H 0.1049 0.85228 0.34247 0.0
H6750 H 0.10794 0.8502 0.30585 0.0
H6751 H 0.12883 0.84582 0.37198 0.0
H6752 H 0.09708 0.89908 0.35034 0.0
H6753 H 0.09454 0.92753 0.3321 0.0
H6754 H 0.13932 0.94831 0.36439 0.0
H6755 H 0.14229 0.91995 0.38269 0.0
C6756 C 0.11514 0.86484 0.46674 0.0
C6757 C 0.12276 0.87963 0.47629 0.0
C6758 C 0.11544 0.86336 0.44576 0.0
C6759 C 0.1241 0.87621 0.43374 0.0
C6760 C 0.13192 0.89086 0.44347 0.0
C6761 C 0.13108 0.89264 0.46431 0.0
C6762 C 0.12455 0.87487 0.41117 0.0
C6763 C 0.12199 0.8904 0.39967 0.0
C6764 C 0.12731 0.85861 0.4008 0.0
C6765 C 0.13244 0.84196 0.41119 0.0
C6766 C 0.14755 0.84146 0.42363 0.0
C6767 C 0.15269 0.82554 0.4328 0.0
C6768 C 0.14293 0.81 0.42948 0.0
C6769 C 0.12791 0.81038 0.41715 0.0
C6770 C 0.1227 0.82626 0.40796 0.0
C6771 C 0.13872 0.88245 0.31489 0.0
C6772 C 0.1281 0.87067 0.30356 0.0
C6773 C 0.13739 0.88326 0.33566 0.0
C6774 C 0.12507 0.87268 0.34599 0.0
C6775 C 0.11439 0.8608 0.33488 0.0
C6776 C 0.11592 0.85978 0.31388 0.0
C6777 C 0.12392 0.87376 0.36837 0.0
C6778 C 0.12647 0.85825 0.37972 0.0
C6779 C 0.12197 0.89015 0.37861 0.0
C6780 C 0.11995 0.90733 0.36781 0.0
C6781 C 0.10643 0.90968 0.3535 0.0
C6782 C 0.10493 0.92579 0.34314 0.0
C6783 C 0.11679 0.93968 0.34703 0.0
C6784 C 0.13015 0.93753 0.36137 0.0
C6785 C 0.13173 0.92145 0.37177 0.0
H6786 H 0.11559 0.95212 0.33896 0.0
H6787 H 0.14707 0.79765 0.43639 0.0
H6788 H 0.36294 0.9016 0.72424 0.0
H6789 H 0.36456 0.90192 0.68793 0.0
H6790 H 0.37741 0.84595 0.68845 0.0
H6791 H 0.37737 0.84617 0.72517 0.0
H6792 H 0.39397 0.85784 0.66053 0.0
H6793 H 0.33213 0.86947 0.67716 0.0
H6794 H 0.30646 0.88535 0.6917 0.0
H6795 H 0.32024 0.93229 0.65846 0.0
H6796 H 0.34633 0.91689 0.6442 0.0
H6797 H 0.37516 0.84665 0.55618 0.0
H6798 H 0.37378 0.84519 0.59276 0.0
H6799 H 0.37007 0.90233 0.59532 0.0
H6800 H 0.37113 0.9039 0.55919 0.0
H6801 H 0.34766 0.88904 0.62093 0.0
H6802 H 0.4098 0.87898 0.60674 0.0
H6803 H 0.43509 0.86371 0.5906 0.0
H6804 H 0.41944 0.81446 0.61813 0.0
H6805 H 0.39395 0.82943 0.63428 0.0
C6806 C 0.36647 0.88943 0.71661 0.0
C6807 C 0.37017 0.87388 0.72763 0.0
C6808 C 0.367 0.88951 0.69567 0.0
C6809 C 0.37037 0.8738 0.68494 0.0
C6810 C 0.3746 0.85832 0.69605 0.0
C6811 C 0.37468 0.8584 0.71713 0.0
C6812 C 0.36994 0.87355 0.66233 0.0
C6813 C 0.38353 0.86441 0.65206 0.0
C6814 C 0.35677 0.8826 0.65071 0.0
C6815 C 0.34132 0.89203 0.65976 0.0
C6816 C 0.32981 0.88323 0.67311 0.0
C6817 C 0.31515 0.89215 0.68127 0.0
C6818 C 0.31168 0.9098 0.67597 0.0
C6819 C 0.32294 0.91862 0.66257 0.0
C6820 C 0.33769 0.90981 0.65449 0.0
C6821 C 0.37416 0.85889 0.56448 0.0
C6822 C 0.37351 0.87535 0.55441 0.0
C6823 C 0.3734 0.85807 0.58551 0.0
C6824 C 0.37199 0.87368 0.59704 0.0
C6825 C 0.37117 0.89005 0.58698 0.0
C6826 C 0.37198 0.89089 0.56611 0.0
C6827 C 0.3715 0.87322 0.61952 0.0
C6828 C 0.35785 0.88233 0.62964 0.0
C6829 C 0.38454 0.86423 0.63103 0.0
C6830 C 0.39992 0.85527 0.62155 0.0
C6831 C 0.41172 0.86487 0.60926 0.0
C6832 C 0.42609 0.85628 0.60013 0.0
C6833 C 0.42884 0.83811 0.6033 0.0
C6834 C 0.41728 0.82852 0.61567 0.0
C6835 C 0.40288 0.83705 0.62483 0.0
H6836 H 0.43997 0.83148 0.5962 0.0
H6837 H 0.30026 0.91663 0.68222 0.0
H6838 H 0.34812 0.14148 0.8075 0.0
H6839 H 0.34924 0.14057 0.84415 0.0
H6840 H 0.39252 0.10293 0.84153 0.0
H6841 H 0.39179 0.10409 0.80494 0.0
H6842 H 0.36307 0.09356 0.86841 0.0
H6843 H 0.40271 0.1422 0.85349 0.0
H6844 H 0.41073 0.17086 0.83799 0.0
H6845 H 0.36875 0.19674 0.8705 0.0
H6846 H 0.36024 0.16812 0.88591 0.0
H6847 H 0.38689 0.09061 0.97066 0.0
H6848 H 0.38522 0.09195 0.93442 0.0
H6849 H 0.3596 0.14324 0.93813 0.0
H6850 H 0.36202 0.14224 0.97455 0.0
H6851 H 0.37921 0.14574 0.90964 0.0
H6852 H 0.3376 0.09923 0.92348 0.0
H6853 H 0.32374 0.07101 0.93417 0.0
H6854 H 0.36386 0.04162 0.90255 0.0
H6855 H 0.37804 0.06966 0.89175 0.0
C6856 C 0.35808 0.13323 0.81472 0.0
C6857 C 0.3701 0.12316 0.80322 0.0
C6858 C 0.35865 0.13267 0.83569 0.0
C6859 C 0.371 0.12172 0.84565 0.0
C6860 C 0.38292 0.11153 0.83422 0.0
C6861 C 0.38262 0.11238 0.81327 0.0
C6862 C 0.37141 0.12083 0.86798 0.0
C6863 C 0.36685 0.10485 0.87753 0.0
C6864 C 0.37558 0.13577 0.87984 0.0
C6865 C 0.38071 0.15299 0.87067 0.0
C6866 C 0.39507 0.15397 0.85718 0.0
C6867 C 0.39973 0.17021 0.84844 0.0
C6868 C 0.39023 0.18561 0.85322 0.0
C6869 C 0.37607 0.18479 0.86679 0.0
C6870 C 0.37132 0.16856 0.87553 0.0
C6871 C 0.38107 0.10232 0.96381 0.0
C6872 C 0.37488 0.11647 0.97573 0.0
C6873 C 0.37981 0.10292 0.94291 0.0
C6874 C 0.37188 0.1175 0.93312 0.0
C6875 C 0.36582 0.13176 0.94502 0.0
C6876 C 0.36734 0.13128 0.96599 0.0
C6877 C 0.3708 0.1183 0.9106 0.0
C6878 C 0.37532 0.13431 0.90084 0.0
C6879 C 0.36614 0.10341 0.89855 0.0
C6880 C 0.35899 0.08658 0.90699 0.0
C6881 C 0.34368 0.08676 0.91914 0.0
C6882 C 0.3357 0.07079 0.9251 0.0
C6883 C 0.34288 0.05456 0.91897 0.0
C6884 C 0.35829 0.05422 0.90724 0.0
C6885 C 0.36631 0.07014 0.90121 0.0
H6886 H 0.33636 0.04228 0.92315 0.0
H6887 H 0.39387 0.19818 0.84645 0.0
H6888 H 0.84117 0.88088 0.80984 0.0
H6889 H 0.84343 0.88216 0.84612 0.0
H6890 H 0.89872 0.86662 0.84264 0.0
H6891 H 0.8965 0.865 0.80628 0.0
H6892 H 0.88162 0.84813 0.87079 0.0
H6893 H 0.88535 0.91028 0.8529 0.0
H6894 H 0.87482 0.93775 0.83649 0.0
H6895 H 0.82661 0.93603 0.87112 0.0
H6896 H 0.83673 0.90839 0.88753 0.0
H6897 H 0.90009 0.86111 0.97466 0.0
H6898 H 0.90001 0.86045 0.93794 0.0
H6899 H 0.84881 0.88678 0.93739 0.0
H6900 H 0.84942 0.88834 0.97346 0.0
H6901 H 0.86519 0.90115 0.91053 0.0
H6902 H 0.85553 0.83822 0.92114 0.0
H6903 H 0.86077 0.80797 0.93391 0.0
H6904 H 0.915 0.81004 0.91325 0.0
H6905 H 0.90965 0.83998 0.89917 0.0
C6906 C 0.85383 0.87757 0.8167 0.0
C6907 C 0.86868 0.8727 0.80494 0.0
C6908 C 0.85514 0.87855 0.83754 0.0
C6909 C 0.87133 0.87477 0.8472 0.0
C6910 C 0.8861 0.86972 0.83557 0.0
C6911 C 0.88482 0.8688 0.8147 0.0
C6912 C 0.8727 0.87528 0.86946 0.0
C6913 C 0.87834 0.85987 0.87945 0.0
C6914 C 0.86772 0.89032 0.8809 0.0
C6915 C 0.86175 0.90716 0.87133 0.0
C6916 C 0.87246 0.9157 0.85694 0.0
C6917 C 0.86656 0.93131 0.84765 0.0
C6918 C 0.85004 0.93861 0.85273 0.0
C6919 C 0.8394 0.93035 0.86718 0.0
C6920 C 0.84522 0.91472 0.8765 0.0
C6921 C 0.88872 0.86642 0.96665 0.0
C6922 C 0.87476 0.87468 0.97709 0.0
C6923 C 0.8886 0.86604 0.94557 0.0
C6924 C 0.87431 0.87348 0.93453 0.0
C6925 C 0.86014 0.8811 0.94518 0.0
C6926 C 0.86042 0.88178 0.96601 0.0
C6927 C 0.87406 0.87383 0.91203 0.0
C6928 C 0.86862 0.88943 0.90194 0.0
C6929 C 0.87873 0.85885 0.9004 0.0
C6930 C 0.8823 0.84134 0.90947 0.0
C6931 C 0.8686 0.83225 0.91949 0.0
C6932 C 0.87158 0.81515 0.92688 0.0
C6933 C 0.88834 0.8072 0.92483 0.0
C6934 C 0.90207 0.81625 0.91497 0.0
C6935 C 0.89901 0.8332 0.90707 0.0
H6936 H 0.89062 0.79397 0.93068 0.0
H6937 H 0.84549 0.95068 0.84549 0.0
H6938 H 0.89629 0.12237 0.72445 0.0
H6939 H 0.89787 0.12052 0.68803 0.0
H6940 H 0.84055 0.1242 0.68456 0.0
H6941 H 0.83882 0.12565 0.72077 0.0
H6942 H 0.85044 0.10076 0.65911 0.0
H6943 H 0.87054 0.1603 0.67245 0.0
H6944 H 0.88938 0.18305 0.68844 0.0
H6945 H 0.9362 0.15932 0.66287 0.0
H6946 H 0.91764 0.13631 0.6469 0.0
H6947 H 0.84525 0.12597 0.55489 0.0
H6948 H 0.84394 0.12588 0.59162 0.0
H6949 H 0.8996 0.11159 0.59397 0.0
H6950 H 0.90069 0.11097 0.5572 0.0
H6951 H 0.89075 0.13964 0.6197 0.0
H6952 H 0.87032 0.08096 0.60501 0.0
H6953 H 0.85183 0.05711 0.59069 0.0
H6954 H 0.80533 0.07886 0.61898 0.0
H6955 H 0.82352 0.10295 0.6334 0.0
C6956 C 0.88402 0.12306 0.716 0.0
C6957 C 0.86747 0.12448 0.72587 0.0
C6958 C 0.88493 0.12198 0.69502 0.0
C6959 C 0.86933 0.12247 0.68323 0.0
C6960 C 0.85283 0.12382 0.69307 0.0
C6961 C 0.85191 0.12484 0.71397 0.0
C6962 C 0.87008 0.12161 0.66073 0.0
C6963 C 0.85907 0.10948 0.65052 0.0
C6964 C 0.8816 0.1326 0.64927 0.0
C6965 C 0.89273 0.14652 0.65864 0.0
C6966 C 0.88486 0.15989 0.67033 0.0
C6967 C 0.89548 0.17284 0.67938 0.0
C6968 C 0.91398 0.1726 0.67672 0.0
C6969 C 0.92188 0.15947 0.66494 0.0
C6970 C 0.91131 0.14649 0.65586 0.0
C6971 C 0.85725 0.12301 0.56329 0.0
C6972 C 0.8732 0.11882 0.5532 0.0
C6973 C 0.85644 0.12276 0.58428 0.0
C6974 C 0.87165 0.11863 0.5957 0.0
C6975 C 0.88767 0.11478 0.58558 0.0
C6976 C 0.88834 0.11454 0.56457 0.0
C6977 C 0.87106 0.1189 0.61812 0.0
C6978 C 0.88207 0.13097 0.62829 0.0
C6979 C 0.85945 0.1079 0.62948 0.0
C6980 C 0.84827 0.09396 0.62002 0.0
C6981 C 0.85611 0.08085 0.60791 0.0
C6982 C 0.84569 0.06723 0.59985 0.0
C6983 C 0.8274 0.06653 0.6038 0.0
C6984 C 0.81949 0.07946 0.61586 0.0
C6985 C 0.82985 0.09309 0.624 0.0
H6986 H 0.81938 0.05593 0.5976 0.0
H6987 H 0.92218 0.18262 0.68376 0.0
H6988 H 0.60502 0.09919 0.46988 0.0
H6989 H 0.60505 0.10149 0.4335 0.0
H6990 H 0.64851 0.1391 0.43644 0.0
H6991 H 0.64706 0.13815 0.4729 0.0
H6992 H 0.63055 0.14908 0.40855 0.0
H6993 H 0.6517 0.08804 0.42076 0.0
H6994 H 0.64792 0.05908 0.43773 0.0
H6995 H 0.59615 0.05332 0.41106 0.0
H6996 H 0.59992 0.08183 0.39345 0.0
H6997 H 0.65731 0.13854 0.30641 0.0
H6998 H 0.65593 0.13718 0.343 0.0
H6999 H 0.60475 0.11126 0.33954 0.0
H7000 H 0.60616 0.11261 0.30301 0.0
H7001 H 0.62687 0.09477 0.36696 0.0
H7002 H 0.60695 0.1541 0.35289 0.0
H7003 H 0.60849 0.18425 0.33845 0.0
H7004 H 0.65701 0.19422 0.37061 0.0
H7005 H 0.65589 0.16399 0.38502 0.0
C7006 C 0.61438 0.10814 0.4627 0.0
C7007 C 0.62584 0.11867 0.47426 0.0
C7008 C 0.61472 0.10917 0.44176 0.0
C7009 C 0.6273 0.11993 0.43174 0.0
C7010 C 0.63867 0.13059 0.44346 0.0
C7011 C 0.63781 0.13011 0.46441 0.0
C7012 C 0.6284 0.1205 0.40921 0.0
C7013 C 0.63015 0.13708 0.39962 0.0
C7014 C 0.62737 0.10505 0.39706 0.0
C7015 C 0.62608 0.08702 0.40584 0.0
C7016 C 0.63967 0.08039 0.41827 0.0
C7017 C 0.63754 0.06401 0.42794 0.0
C7018 C 0.62186 0.05422 0.42531 0.0
C7019 C 0.60844 0.06066 0.41277 0.0
C7020 C 0.61061 0.07686 0.40282 0.0
C7021 C 0.64559 0.13288 0.31345 0.0
C7022 C 0.63151 0.12628 0.30169 0.0
C7023 C 0.64485 0.13202 0.33441 0.0
C7024 C 0.63015 0.12425 0.34419 0.0
C7025 C 0.61618 0.11745 0.33247 0.0
C7026 C 0.61681 0.11855 0.31151 0.0
C7027 C 0.62934 0.12329 0.36658 0.0
C7028 C 0.62762 0.10666 0.37604 0.0
C7029 C 0.63058 0.13867 0.37865 0.0
C7030 C 0.63145 0.15673 0.36981 0.0
C7031 C 0.61805 0.16266 0.35671 0.0
C7032 C 0.61883 0.17977 0.34857 0.0
C7033 C 0.63287 0.19113 0.35356 0.0
C7034 C 0.64617 0.18539 0.36673 0.0
C7035 C 0.64547 0.16827 0.37488 0.0
H7036 H 0.63343 0.20439 0.34727 0.0
H7037 H 0.61997 0.04175 0.43313 0.0
H7038 H 0.60724 0.85029 0.05572 0.0
H7039 H 0.60941 0.84768 0.09221 0.0
H7040 H 0.63333 0.89975 0.09488 0.0
H7041 H 0.63226 0.90199 0.05907 0.0
H7042 H 0.6505 0.8795 0.11852 0.0
H7043 H 0.58811 0.89134 0.10835 0.0
H7044 H 0.55875 0.88542 0.09312 0.0
H7045 H 0.55812 0.83335 0.11966 0.0
H7046 H 0.58756 0.83893 0.13489 0.0
H7047 H 0.64655 0.8938 0.22246 0.0
H7048 H 0.64346 0.89529 0.1865 0.0
H7049 H 0.61105 0.84782 0.18777 0.0
H7050 H 0.61301 0.84723 0.2244 0.0
H7051 H 0.59845 0.86522 0.16129 0.0
H7052 H 0.66197 0.85325 0.17055 0.0
H7053 H 0.69392 0.85674 0.17859 0.0
H7054 H 0.69408 0.90843 0.15121 0.0
H7055 H 0.66212 0.90532 0.14314 0.0
C7056 C 0.6132 0.861 0.064 0.0
C7057 C 0.61973 0.87614 0.05404 0.0
C7058 C 0.61422 0.85965 0.08499 0.0
C7059 C 0.62144 0.8736 0.09649 0.0
C7060 C 0.62779 0.88873 0.08655 0.0
C7061 C 0.627 0.88996 0.0658 0.0
C7062 C 0.62268 0.87272 0.11883 0.0
C7063 C 0.63907 0.87655 0.12793 0.0
C7064 C 0.60794 0.86861 0.13118 0.0
C7065 C 0.59002 0.8655 0.12265 0.0
C7066 C 0.5817 0.87862 0.1109 0.0
C7067 C 0.56506 0.87533 0.10227 0.0
C7068 C 0.55659 0.859 0.10539 0.0
C7069 C 0.5647 0.84598 0.11725 0.0
C7070 C 0.58133 0.84921 0.12592 0.0
C7071 C 0.63871 0.88363 0.21513 0.0
C7072 C 0.63018 0.87023 0.2264 0.0
C7073 C 0.63719 0.88435 0.19432 0.0
C7074 C 0.62766 0.87126 0.18386 0.0
C7075 C 0.61869 0.85807 0.19519 0.0
C7076 C 0.61978 0.85768 0.21622 0.0
C7077 C 0.62654 0.87165 0.16135 0.0
C7078 C 0.61004 0.86802 0.1521 0.0
C7079 C 0.64129 0.87605 0.14881 0.0
C7080 C 0.65964 0.87906 0.15636 0.0
C7081 C 0.66872 0.86551 0.16664 0.0
C7082 C 0.68685 0.86737 0.17108 0.0
C7083 C 0.69602 0.8827 0.16522 0.0
C7084 C 0.68696 0.89652 0.15562 0.0
C7085 C 0.66885 0.89472 0.15114 0.0
H7086 H 0.71019 0.88371 0.16781 0.0
H7087 H 0.54373 0.85645 0.09865 0.0
H7088 H 0.59925 0.63072 0.72335 0.0
H7089 H 0.59744 0.63001 0.68685 0.0
H7090 H 0.65293 0.61489 0.68385 0.0
H7091 H 0.65498 0.61657 0.71991 0.0
H7092 H 0.64922 0.6349 0.65591 0.0
H7093 H 0.61442 0.58506 0.67473 0.0
H7094 H 0.59105 0.56837 0.69275 0.0
H7095 H 0.55065 0.6007 0.66529 0.0
H7096 H 0.5738 0.61773 0.64727 0.0
H7097 H 0.64446 0.59941 0.5565 0.0
H7098 H 0.64484 0.60176 0.59283 0.0
H7099 H 0.60075 0.63845 0.59046 0.0
H7100 H 0.60055 0.6365 0.5536 0.0
H7101 H 0.59834 0.60737 0.62026 0.0
H7102 H 0.63811 0.65545 0.59973 0.0
H7103 H 0.66409 0.66771 0.58187 0.0
H7104 H 0.69869 0.63145 0.61285 0.0
H7105 H 0.67285 0.61886 0.63085 0.0
C7106 C 0.61107 0.62738 0.71492 0.0
C7107 C 0.62727 0.624 0.72482 0.0
C7108 C 0.61001 0.62676 0.6939 0.0
C7109 C 0.62499 0.62213 0.68219 0.0
C7110 C 0.64113 0.61866 0.69217 0.0
C7111 C 0.64228 0.61968 0.71303 0.0
C7112 C 0.62413 0.62122 0.65965 0.0
C7113 C 0.63811 0.62866 0.6483 0.0
C7114 C 0.6098 0.61308 0.64921 0.0
C7115 C 0.59583 0.60277 0.65981 0.0
C7116 C 0.60055 0.58867 0.67262 0.0
C7117 C 0.58735 0.57914 0.68282 0.0
C7118 C 0.56939 0.58349 0.68016 0.0
C7119 C 0.56458 0.59736 0.66732 0.0
C7120 C 0.57772 0.60693 0.65709 0.0
C7121 C 0.63479 0.60805 0.5636 0.0
C7122 C 0.62235 0.61769 0.55201 0.0
C7123 C 0.63507 0.60937 0.58447 0.0
C7124 C 0.62277 0.62018 0.59451 0.0
C7125 C 0.61033 0.62993 0.58308 0.0
C7126 C 0.61028 0.6289 0.562 0.0
C7127 C 0.62319 0.62131 0.61689 0.0
C7128 C 0.60928 0.61368 0.62809 0.0
C7129 C 0.63798 0.62853 0.62724 0.0
C7130 C 0.65351 0.63609 0.61645 0.0
C7131 C 0.65123 0.64997 0.60259 0.0
C7132 C 0.66594 0.657 0.59246 0.0
C7133 C 0.68302 0.6503 0.5961 0.0
C7134 C 0.68544 0.6366 0.60999 0.0
C7135 C 0.67077 0.62954 0.62019 0.0
H7136 H 0.69438 0.65577 0.58821 0.0
H7137 H 0.55917 0.57606 0.68799 0.0
H7138 H 0.61266 0.34727 0.80626 0.0
H7139 H 0.61222 0.34689 0.84297 0.0
H7140 H 0.64011 0.3971 0.84387 0.0
H7141 H 0.64142 0.39693 0.8077 0.0
H7142 H 0.65338 0.38077 0.87138 0.0
H7143 H 0.59124 0.39125 0.85885 0.0
H7144 H 0.56168 0.3864 0.844 0.0
H7145 H 0.5615 0.3326 0.86584 0.0
H7146 H 0.59083 0.33753 0.88173 0.0
H7147 H 0.63173 0.4052 0.97149 0.0
H7148 H 0.63394 0.40238 0.93546 0.0
H7149 H 0.6164 0.34793 0.93954 0.0
H7150 H 0.61384 0.35073 0.97594 0.0
H7151 H 0.5993 0.36484 0.91013 0.0
H7152 H 0.66128 0.36072 0.92951 0.0
H7153 H 0.68901 0.37078 0.94576 0.0
H7154 H 0.68864 0.41834 0.91012 0.0
H7155 H 0.66074 0.40873 0.8939 0.0
C7156 C 0.61845 0.3583 0.81434 0.0
C7157 C 0.62704 0.37208 0.8039 0.0
C7158 C 0.61817 0.35817 0.83545 0.0
C7159 C 0.62598 0.3721 0.84666 0.0
C7160 C 0.63411 0.38604 0.83602 0.0
C7161 C 0.6347 0.38599 0.81511 0.0
C7162 C 0.62594 0.37228 0.8693 0.0
C7163 C 0.64144 0.37746 0.87975 0.0
C7164 C 0.61064 0.36782 0.88071 0.0
C7165 C 0.59321 0.36467 0.8712 0.0
C7166 C 0.58489 0.37838 0.8604 0.0
C7167 C 0.56817 0.37561 0.85184 0.0
C7168 C 0.5598 0.35908 0.85363 0.0
C7169 C 0.56803 0.34537 0.86436 0.0
C7170 C 0.58461 0.34819 0.87333 0.0
C7171 C 0.6282 0.39255 0.96491 0.0
C7172 C 0.62243 0.37818 0.97699 0.0
C7173 C 0.62973 0.39093 0.94411 0.0
C7174 C 0.62565 0.37485 0.93455 0.0
C7175 C 0.61976 0.36049 0.94645 0.0
C7176 C 0.61828 0.36209 0.96737 0.0
C7177 C 0.62663 0.37335 0.91214 0.0
C7178 C 0.61129 0.36799 0.90175 0.0
C7179 C 0.64195 0.37826 0.90087 0.0
C7180 C 0.65879 0.38406 0.91062 0.0
C7181 C 0.66702 0.37339 0.92525 0.0
C7182 C 0.68279 0.37901 0.93444 0.0
C7183 C 0.69056 0.3952 0.92901 0.0
C7184 C 0.6826 0.40581 0.91434 0.0
C7185 C 0.6668 0.40028 0.90513 0.0
H7186 H 0.70277 0.39951 0.93615 0.0
H7187 H 0.54688 0.35694 0.84686 0.0
H7188 H 0.8754 0.4042 0.05439 0.0
H7189 H 0.87308 0.4047 0.09067 0.0
H7190 H 0.87094 0.34732 0.09148 0.0
H7191 H 0.87099 0.34717 0.05515 0.0
H7192 H 0.8517 0.35552 0.1182 0.0
H7193 H 0.9111 0.38043 0.10489 0.0
H7194 H 0.93245 0.40222 0.09103 0.0
H7195 H 0.90487 0.44454 0.12092 0.0
H7196 H 0.8833 0.42302 0.13481 0.0
H7197 H 0.88305 0.34535 0.22095 0.0
H7198 H 0.88275 0.34662 0.184 0.0
H7199 H 0.85853 0.39853 0.1863 0.0
H7200 H 0.85783 0.39676 0.22286 0.0
H7201 H 0.89003 0.39461 0.15933 0.0
H7202 H 0.83232 0.37127 0.1734 0.0
H7203 H 0.80973 0.35106 0.18764 0.0
H7204 H 0.83337 0.30709 0.15655 0.0
H7205 H 0.85627 0.32704 0.14234 0.0
C7206 C 0.87434 0.39171 0.06227 0.0
C7207 C 0.87344 0.37564 0.05162 0.0
C7208 C 0.87333 0.39195 0.08328 0.0
C7209 C 0.87246 0.37601 0.09445 0.0
C7210 C 0.87163 0.35994 0.08368 0.0
C7211 C 0.87181 0.3598 0.06268 0.0
C7212 C 0.87203 0.37584 0.11713 0.0
C7213 C 0.86049 0.36384 0.12698 0.0
C7214 C 0.88266 0.38724 0.12923 0.0
C7215 C 0.89552 0.40014 0.1207 0.0
C7216 C 0.90955 0.39439 0.1084 0.0
C7217 C 0.92169 0.40669 0.10056 0.0
C7218 C 0.92 0.42475 0.10506 0.0
C7219 C 0.90617 0.43055 0.11743 0.0
C7220 C 0.89399 0.41832 0.12529 0.0
C7221 C 0.87776 0.35702 0.2135 0.0
C7222 C 0.87075 0.3711 0.22478 0.0
C7223 C 0.87751 0.35773 0.19242 0.0
C7224 C 0.87063 0.37271 0.18229 0.0
C7225 C 0.86396 0.38688 0.19365 0.0
C7226 C 0.86372 0.38592 0.21459 0.0
C7227 C 0.87048 0.37376 0.1599 0.0
C7228 C 0.88164 0.38608 0.15028 0.0
C7229 C 0.85951 0.36275 0.14802 0.0
C7230 C 0.84621 0.35059 0.15711 0.0
C7231 C 0.83289 0.35724 0.16987 0.0
C7232 C 0.81997 0.34585 0.17785 0.0
C7233 C 0.82017 0.32778 0.17308 0.0
C7234 C 0.83327 0.32108 0.16029 0.0
C7235 C 0.84623 0.33242 0.15228 0.0
H7236 H 0.81012 0.31899 0.17922 0.0
H7237 H 0.92942 0.43424 0.09899 0.0
H7238 H 0.86976 0.59405 0.30415 0.0
H7239 H 0.87092 0.5931 0.34059 0.0
H7240 H 0.8728 0.65047 0.34196 0.0
H7241 H 0.87293 0.65122 0.30527 0.0
H7242 H 0.89223 0.64027 0.36922 0.0
H7243 H 0.8325 0.6205 0.35233 0.0
H7244 H 0.80994 0.60137 0.33634 0.0
H7245 H 0.83151 0.55566 0.36638 0.0
H7246 H 0.85436 0.57446 0.38233 0.0
H7247 H 0.87285 0.64681 0.47312 0.0
H7248 H 0.87089 0.6485 0.43672 0.0
H7249 H 0.87397 0.59134 0.43327 0.0
H7250 H 0.87546 0.58951 0.4694 0.0
H7251 H 0.85072 0.60178 0.40749 0.0
H7252 H 0.91072 0.61996 0.42238 0.0
H7253 H 0.93372 0.63802 0.4391 0.0
H7254 H 0.91175 0.68543 0.41296 0.0
H7255 H 0.8885 0.66763 0.39624 0.0
C7256 C 0.87085 0.60644 0.31228 0.0
C7257 C 0.87156 0.62271 0.3019 0.0
C7258 C 0.87111 0.60592 0.33321 0.0
C7259 C 0.87131 0.62173 0.34439 0.0
C7260 C 0.87253 0.63802 0.33391 0.0
C7261 C 0.87276 0.63849 0.31289 0.0
C7262 C 0.87075 0.62135 0.36688 0.0
C7263 C 0.88284 0.63208 0.37745 0.0
C7264 C 0.85898 0.61022 0.37804 0.0
C7265 C 0.84525 0.5989 0.36838 0.0
C7266 C 0.8325 0.60636 0.35543 0.0
C7267 C 0.81964 0.59557 0.34641 0.0
C7268 C 0.81928 0.57732 0.35036 0.0
C7269 C 0.83179 0.5698 0.36334 0.0
C7270 C 0.8447 0.58052 0.37238 0.0
C7271 C 0.87325 0.63461 0.4647 0.0
C7272 C 0.87459 0.61809 0.47453 0.0
C7273 C 0.87213 0.63557 0.44374 0.0
C7274 C 0.87251 0.62004 0.432 0.0
C7275 C 0.87367 0.60356 0.44179 0.0
C7276 C 0.87472 0.60259 0.46265 0.0
C7277 C 0.87207 0.62082 0.40958 0.0
C7278 C 0.85989 0.6101 0.39911 0.0
C7279 C 0.88377 0.63182 0.39845 0.0
C7280 C 0.89782 0.64251 0.40824 0.0
C7281 C 0.91077 0.63425 0.42029 0.0
C7282 C 0.92384 0.64443 0.42975 0.0
C7283 C 0.92416 0.66287 0.42714 0.0
C7284 C 0.91146 0.67115 0.41499 0.0
C7285 C 0.89835 0.66103 0.4055 0.0
H7286 H 0.93429 0.67073 0.4345 0.0
H7287 H 0.80931 0.569 0.34336 0.0
H7288 H 0.33982 0.35771 0.30617 0.0
H7289 H 0.3408 0.35965 0.34255 0.0
H7290 H 0.39398 0.38154 0.33897 0.0
H7291 H 0.39339 0.37847 0.30281 0.0
H7292 H 0.39525 0.36278 0.3674 0.0
H7293 H 0.35094 0.40594 0.35184 0.0
H7294 H 0.32347 0.42038 0.33962 0.0
H7295 H 0.2917 0.38398 0.37405 0.0
H7296 H 0.31894 0.36911 0.38618 0.0
H7297 H 0.3933 0.39543 0.46857 0.0
H7298 H 0.39162 0.39443 0.43191 0.0
H7299 H 0.35232 0.35272 0.43575 0.0
H7300 H 0.35406 0.35368 0.47226 0.0
H7301 H 0.34389 0.3824 0.40844 0.0
H7302 H 0.39213 0.34115 0.42401 0.0
H7303 H 0.42087 0.33384 0.43995 0.0
H7304 H 0.44658 0.37532 0.40637 0.0
H7305 H 0.41791 0.38307 0.39049 0.0
C7306 C 0.35185 0.36265 0.31318 0.0
C7307 C 0.36669 0.36755 0.30146 0.0
C7308 C 0.35228 0.3641 0.33409 0.0
C7309 C 0.36733 0.37109 0.3439 0.0
C7310 C 0.38216 0.37597 0.33211 0.0
C7311 C 0.3819 0.37409 0.31127 0.0
C7312 C 0.36811 0.37249 0.36634 0.0
C7313 C 0.38398 0.36741 0.37611 0.0
C7314 C 0.35349 0.37829 0.3783 0.0
C7315 C 0.33703 0.38623 0.36968 0.0
C7316 C 0.3381 0.40079 0.35651 0.0
C7317 C 0.32255 0.40912 0.34967 0.0
C7318 C 0.30584 0.40307 0.35599 0.0
C7319 C 0.30464 0.38861 0.36908 0.0
C7320 C 0.32013 0.38021 0.37591 0.0
C7321 C 0.3846 0.38581 0.46154 0.0
C7322 C 0.37436 0.37411 0.47328 0.0
C7323 C 0.38354 0.38534 0.44063 0.0
C7324 C 0.37191 0.37343 0.43106 0.0
C7325 C 0.36147 0.36193 0.44278 0.0
C7326 C 0.36276 0.36221 0.46366 0.0
C7327 C 0.37084 0.37279 0.40883 0.0
C7328 C 0.35497 0.3779 0.39933 0.0
C7329 C 0.38559 0.36775 0.39702 0.0
C7330 C 0.40287 0.36276 0.40618 0.0
C7331 C 0.4039 0.34876 0.42011 0.0
C7332 C 0.42017 0.34454 0.42913 0.0
C7333 C 0.43554 0.35412 0.4242 0.0
C7334 C 0.43467 0.36791 0.41019 0.0
C7335 C 0.41842 0.37222 0.40116 0.0
H7336 H 0.44813 0.35084 0.43121 0.0
H7337 H 0.29383 0.40962 0.35082 0.0
H7338 H 0.38135 0.59701 0.22573 0.0
H7339 H 0.37995 0.59442 0.18963 0.0
H7340 H 0.35791 0.64736 0.18566 0.0
H7341 H 0.35756 0.64912 0.22228 0.0
H7342 H 0.34439 0.63167 0.15787 0.0
H7343 H 0.40823 0.63263 0.17372 0.0
H7344 H 0.43604 0.62255 0.18968 0.0
H7345 H 0.42702 0.56953 0.1683 0.0
H7346 H 0.39943 0.57953 0.15154 0.0
H7347 H 0.37165 0.64619 0.05657 0.0
H7348 H 0.36958 0.64698 0.09289 0.0
H7349 H 0.37666 0.59015 0.09498 0.0
H7350 H 0.37833 0.58937 0.05852 0.0
H7351 H 0.39703 0.60691 0.12273 0.0
H7352 H 0.33597 0.60699 0.10288 0.0
H7353 H 0.30971 0.61751 0.08408 0.0
H7354 H 0.31382 0.66857 0.11221 0.0
H7355 H 0.34027 0.6584 0.131 0.0
C7356 C 0.37613 0.60811 0.2172 0.0
C7357 C 0.36977 0.6234 0.22697 0.0
C7358 C 0.37561 0.60674 0.19633 0.0
C7359 C 0.36966 0.62101 0.18437 0.0
C7360 C 0.36283 0.63614 0.19422 0.0
C7361 C 0.36268 0.63723 0.21524 0.0
C7362 C 0.37054 0.62015 0.16181 0.0
C7363 C 0.3561 0.62654 0.15033 0.0
C7364 C 0.3854 0.61287 0.1514 0.0
C7365 C 0.40172 0.60676 0.16169 0.0
C7366 C 0.41216 0.61881 0.17255 0.0
C7367 C 0.42789 0.61311 0.1817 0.0
C7368 C 0.43318 0.59533 0.18032 0.0
C7369 C 0.42287 0.58327 0.16947 0.0
C7370 C 0.40726 0.58898 0.16001 0.0
C7371 C 0.373 0.63395 0.06458 0.0
C7372 C 0.37525 0.61782 0.05435 0.0
C7373 C 0.3716 0.63434 0.08552 0.0
C7374 C 0.3727 0.61858 0.0968 0.0
C7375 C 0.37564 0.60251 0.0867 0.0
C7376 C 0.37668 0.60211 0.0658 0.0
C7377 C 0.37121 0.61882 0.1191 0.0
C7378 C 0.38543 0.61217 0.13041 0.0
C7379 C 0.35621 0.62588 0.12924 0.0
C7380 C 0.34021 0.632 0.11818 0.0
C7381 C 0.33135 0.6205 0.10495 0.0
C7382 C 0.31641 0.62639 0.09432 0.0
C7383 C 0.31013 0.64372 0.09691 0.0
C7384 C 0.31872 0.65516 0.1102 0.0
C7385 C 0.33367 0.64934 0.12086 0.0
H7386 H 0.29858 0.64827 0.08864 0.0
H7387 H 0.44534 0.59093 0.18751 0.0
H7388 H 0.11794 0.65048 0.80443 0.0
H7389 H 0.11712 0.64994 0.84134 0.0
H7390 H 0.13406 0.59515 0.84096 0.0
H7391 H 0.13506 0.59572 0.80456 0.0
H7392 H 0.10801 0.59937 0.86689 0.0
H7393 H 0.16335 0.62647 0.85325 0.0
H7394 H 0.18562 0.64746 0.83985 0.0
H7395 H 0.16015 0.69041 0.8709 0.0
H7396 H 0.13757 0.66969 0.88431 0.0
H7397 H 0.13035 0.58912 0.96893 0.0
H7398 H 0.13154 0.59114 0.93287 0.0
H7399 H 0.11661 0.64641 0.93567 0.0
H7400 H 0.11555 0.64452 0.9721 0.0
H7401 H 0.14206 0.64198 0.90842 0.0
H7402 H 0.08638 0.61071 0.92234 0.0
H7403 H 0.06793 0.58661 0.93654 0.0
H7404 H 0.09894 0.54786 0.9048 0.0
H7405 H 0.11767 0.57172 0.89058 0.0
C7406 C 0.12111 0.63827 0.81229 0.0
C7407 C 0.12638 0.6231 0.8016 0.0
C7408 C 0.12091 0.63802 0.83336 0.0
C7409 C 0.12574 0.62255 0.84403 0.0
C7410 C 0.13033 0.60727 0.83322 0.0
C7411 C 0.13079 0.60759 0.81235 0.0
C7412 C 0.12567 0.62191 0.86639 0.0
C7413 C 0.11555 0.60867 0.87592 0.0
C7414 C 0.1356 0.63389 0.87834 0.0
C7415 C 0.14855 0.64657 0.86948 0.0
C7416 C 0.1623 0.64044 0.85695 0.0
C7417 C 0.17505 0.65227 0.84944 0.0
C7418 C 0.17425 0.67027 0.85444 0.0
C7419 C 0.16071 0.67647 0.86697 0.0
C7420 C 0.14793 0.66469 0.87453 0.0
C7421 C 0.12719 0.6018 0.96209 0.0
C7422 C 0.12276 0.61675 0.97387 0.0
C7423 C 0.12782 0.60287 0.94124 0.0
C7424 C 0.12381 0.61883 0.93129 0.0
C7425 C 0.11965 0.63386 0.94288 0.0
C7426 C 0.11902 0.63279 0.96387 0.0
C7427 C 0.12396 0.61977 0.90889 0.0
C7428 C 0.13428 0.63291 0.89935 0.0
C7429 C 0.11465 0.60733 0.89686 0.0
C7430 C 0.1035 0.59299 0.90556 0.0
C7431 C 0.08933 0.59704 0.91852 0.0
C7432 C 0.07881 0.58342 0.92653 0.0
C7433 C 0.08228 0.56571 0.9216 0.0
C7434 C 0.09627 0.56158 0.90862 0.0
C7435 C 0.10683 0.57514 0.90056 0.0
H7436 H 0.07411 0.5552 0.92782 0.0
H7437 H 0.18417 0.67941 0.84867 0.0
H7438 H 0.10517 0.3561 0.72411 0.0
H7439 H 0.10243 0.35764 0.68762 0.0
H7440 H 0.14894 0.39134 0.68494 0.0
H7441 H 0.15091 0.39094 0.72092 0.0
H7442 H 0.12712 0.40343 0.66 0.0
H7443 H 0.14904 0.34455 0.67323 0.0
H7444 H 0.14887 0.31445 0.68797 0.0
H7445 H 0.09874 0.30346 0.65953 0.0
H7446 H 0.09854 0.33358 0.6448 0.0
H7447 H 0.14579 0.39803 0.55705 0.0
H7448 H 0.14659 0.39622 0.59308 0.0
H7449 H 0.10392 0.35765 0.59196 0.0
H7450 H 0.10454 0.35806 0.55526 0.0
H7451 H 0.12265 0.34866 0.6194 0.0
H7452 H 0.10242 0.40939 0.60496 0.0
H7453 H 0.10462 0.43976 0.59104 0.0
H7454 H 0.15392 0.44786 0.62232 0.0
H7455 H 0.15212 0.41751 0.63625 0.0
C7456 C 0.1145 0.36416 0.71581 0.0
C7457 C 0.1281 0.37346 0.72576 0.0
C7458 C 0.11316 0.36479 0.69483 0.0
C7459 C 0.12564 0.37443 0.68329 0.0
C7460 C 0.13909 0.38381 0.69327 0.0
C7461 C 0.14025 0.38341 0.71407 0.0
C7462 C 0.12497 0.37491 0.66089 0.0
C7463 C 0.12623 0.39142 0.65111 0.0
C7464 C 0.12364 0.35936 0.64912 0.0
C7465 C 0.12367 0.34136 0.65813 0.0
C7466 C 0.13791 0.33576 0.67027 0.0
C7467 C 0.1379 0.31869 0.67858 0.0
C7468 C 0.12378 0.30707 0.67474 0.0
C7469 C 0.10965 0.31248 0.66253 0.0
C7470 C 0.1096 0.32954 0.65419 0.0
C7471 C 0.13658 0.38905 0.5644 0.0
C7472 C 0.12492 0.37831 0.55316 0.0
C7473 C 0.13682 0.38829 0.58524 0.0
C7474 C 0.12471 0.37748 0.59573 0.0
C7475 C 0.11329 0.36638 0.58449 0.0
C7476 C 0.11357 0.3666 0.56344 0.0
C7477 C 0.12441 0.37727 0.61825 0.0
C7478 C 0.1232 0.36076 0.62814 0.0
C7479 C 0.12602 0.39289 0.63012 0.0
C7480 C 0.1272 0.41108 0.62147 0.0
C7481 C 0.11378 0.4176 0.60875 0.0
C7482 C 0.11496 0.43483 0.60088 0.0
C7483 C 0.12943 0.44571 0.60574 0.0
C7484 C 0.14274 0.43941 0.61852 0.0
C7485 C 0.14164 0.4222 0.62641 0.0
H7486 H 0.1303 0.45903 0.59963 0.0
H7487 H 0.1238 0.29385 0.68118 0.0
loop_
_geom_bond_atom_site_label_1
_geom_bond_atom_site_label_2
_geom_bond_distance
_geom_bond_site_symmetry_2
_ccdc_geom_bond_type
Tb0 N29 2.617 . S
Tb0 N35 2.572 . S
Tb0 O44 2.465 . S
Tb0 O45 2.387 . S
Tb0 O47 2.428 . S
Tb0 O48 2.308 . S
Tb0 O52 2.349 . S
Tb0 O55 2.393 . S
Tb0 C64 2.802 . S
C1 N2 1.379 . S
C1 C4 1.416 . S
C1 C8 1.424 . S
N2 C1 1.379 . S
N2 C5 1.334 . S
N2 Tb11 2.617 . S
C3 C5 1.390 . S
C3 C6 1.339 . S
C3 H23 0.930 . S
C4 C1 1.416 . S
C4 C6 1.416 . S
C4 C10 1.448 . S
C5 N2 1.334 . S
C5 C3 1.390 . S
C5 H16 0.930 . S
C6 C3 1.339 . S
C6 C4 1.416 . S
C6 H27 0.930 . S
C7 C8 1.413 . S
C7 C9 1.427 . S
C7 C13 1.416 . S
C8 C1 1.424 . S
C8 C7 1.413 . S
C8 N12 1.361 . S
C9 C7 1.427 . S
C9 C10 1.328 . S
C9 H24 0.929 . S
C10 C4 1.448 . S
C10 C9 1.328 . S
C10 H25 0.930 . S
Tb11 N2 2.617 . S
Tb11 N12 2.572 . S
Tb11 O46 2.349 . S
Tb11 O49 2.393 . S
Tb11 O50 2.465 . S
Tb11 O51 2.387 . S
Tb11 O53 2.428 . S
Tb11 O54 2.308 . S
Tb11 C75 2.802 . S
N12 C8 1.361 . S
N12 Tb11 2.572 . S
N12 C14 1.340 . S
C13 C7 1.416 . S
C13 C15 1.332 . S
C13 H21 0.931 . S
C14 N12 1.340 . S
C14 C15 1.407 . S
C14 H20 0.930 . S
C15 C13 1.332 . S
C15 C14 1.407 . S
C15 H17 0.929 . S
H16 C5 0.930 . S
H17 C15 0.929 . S
H18 C33 0.930 . S
H19 C40 0.929 . S
H20 C14 0.930 . S
H21 C13 0.931 . S
H22 C36 0.930 . S
H23 C3 0.930 . S
H24 C9 0.929 . S
H25 C10 0.930 . S
H26 C31 0.930 . S
H27 C6 0.930 . S
H28 C39 0.931 . S
N29 Tb0 2.617 . S
N29 C30 1.379 . S
N29 C33 1.334 . S
C30 N29 1.379 . S
C30 C32 1.416 . S
C30 C38 1.424 . S
C31 H26 0.930 . S
C31 C33 1.390 . S
C31 C34 1.339 . S
C32 C30 1.416 . S
C32 C34 1.416 . S
C32 C65 1.448 . S
C33 H18 0.930 . S
C33 N29 1.334 . S
C33 C31 1.390 . S
C34 C31 1.339 . S
C34 C32 1.416 . S
C34 H41 0.930 . S
N35 Tb0 2.572 . S
N35 C36 1.340 . S
N35 C38 1.361 . S
C36 H22 0.930 . S
C36 N35 1.340 . S
C36 C40 1.407 . S
C37 C38 1.413 . S
C37 C39 1.416 . S
C37 C66 1.427 . S
C38 C30 1.424 . S
C38 N35 1.361 . S
C38 C37 1.413 . S
C39 H28 0.931 . S
C39 C37 1.416 . S
C39 C40 1.332 . S
C40 H19 0.929 . S
C40 C36 1.407 . S
C40 C39 1.332 . S
H41 C34 0.930 . S
H42 C65 0.930 . S
H43 C66 0.929 . S
O44 Tb0 2.465 . S
O44 C64 1.264 . S
O45 Tb0 2.387 . S
O45 C56 1.264 . S
O46 Tb11 2.349 . S
O46 C56 1.243 . S
O47 Tb0 2.428 . S
O47 C64 1.256 . S
O48 Tb0 2.308 . S
O48 C63 1.266 . S
O49 Tb11 2.393 . S
O49 C63 1.248 . S
O50 Tb11 2.465 . S
O50 C75 1.264 . S
O51 Tb11 2.387 . S
O51 C67 1.264 . S
O52 Tb0 2.349 . S
O52 C67 1.243 . S
O53 Tb11 2.428 . S
O53 C75 1.256 . S
O54 Tb11 2.308 . S
O54 C74 1.266 . S
O55 Tb0 2.393 . S
O55 C74 1.248 . S
C56 O45 1.264 . S
C56 O46 1.243 . S
C57 C60 1.399 . S
C57 C62 1.383 . S
C57 C64 1.496 . S
C58 C59 1.399 . S
C58 C62 1.389 . S
C59 C58 1.399 . S
C59 C61 1.380 . S
C59 H76 0.929 . S
C60 C57 1.399 . S
C60 C61 1.392 . S
C60 H77 0.929 . S
C61 C59 1.380 . S
C61 C60 1.392 . S
C61 H78 0.929 . S
C62 C57 1.383 . S
C62 C58 1.389 . S
C62 H79 0.931 . S
C63 O48 1.266 . S
C63 O49 1.248 . S
C64 Tb0 2.802 . S
C64 O44 1.264 . S
C64 O47 1.256 . S
C64 C57 1.496 . S
C65 C32 1.448 . S
C65 H42 0.930 . S
C65 C66 1.328 . S
C66 C37 1.427 . S
C66 H43 0.929 . S
C66 C65 1.328 . S
C67 O51 1.264 . S
C67 O52 1.243 . S
C68 C71 1.399 . S
C68 C72 1.383 . S
C68 C75 1.496 . S
C69 C70 1.399 . S
C69 C72 1.389 . S
C70 C69 1.399 . S
C70 C73 1.380 . S
C70 H80 0.929 . S
C71 C68 1.399 . S
C71 C73 1.392 . S
C71 H81 0.929 . S
C72 C68 1.383 . S
C72 C69 1.389 . S
C72 H82 0.931 . S
C73 C70 1.380 . S
C73 C71 1.392 . S
C73 H83 0.929 . S
C74 O54 1.266 . S
C74 O55 1.248 . S
C75 Tb11 2.802 . S
C75 O50 1.264 . S
C75 O53 1.256 . S
C75 C68 1.496 . S
H76 C59 0.929 . S
H77 C60 0.929 . S
H78 C61 0.929 . S
H79 C62 0.931 . S
H80 C70 0.929 . S
H81 C71 0.929 . S
H82 C72 0.931 . S
H83 C73 0.929 . S
Tb84 N113 2.617 . S
Tb84 N119 2.572 . S
Tb84 O128 2.465 . S
Tb84 O129 2.387 . S
Tb84 O131 2.428 . S
Tb84 O132 2.308 . S
Tb84 O136 2.349 . S
Tb84 O139 2.393 . S
Tb84 C148 2.802 . S
C85 N86 1.379 . S
C85 C88 1.416 . S
C85 C92 1.424 . S
N86 C85 1.379 . S
N86 C89 1.334 . S
N86 Tb95 2.617 . S
C87 C89 1.390 . S
C87 C90 1.339 . S
C87 H107 0.930 . S
C88 C85 1.416 . S
C88 C90 1.416 . S
C88 C94 1.448 . S
C89 N86 1.334 . S
C89 C87 1.390 . S
C89 H100 0.930 . S
C90 C87 1.339 . S
C90 C88 1.416 . S
C90 H111 0.930 . S
C91 C92 1.413 . S
C91 C93 1.427 . S
C91 C97 1.416 . S
C92 C85 1.424 . S
C92 C91 1.413 . S
C92 N96 1.361 . S
C93 C91 1.427 . S
C93 C94 1.328 . S
C93 H108 0.929 . S
C94 C88 1.448 . S
C94 C93 1.328 . S
C94 H109 0.930 . S
Tb95 N86 2.617 . S
Tb95 N96 2.572 . S
Tb95 O130 2.349 . S
Tb95 O133 2.393 . S
Tb95 O134 2.465 . S
Tb95 O135 2.387 . S
Tb95 O137 2.428 . S
Tb95 O138 2.308 . S
Tb95 C159 2.802 . S
N96 C92 1.361 . S
N96 Tb95 2.572 . S
N96 C98 1.340 . S
C97 C91 1.416 . S
C97 C99 1.332 . S
C97 H105 0.931 . S
C98 N96 1.340 . S
C98 C99 1.407 . S
C98 H104 0.930 . S
C99 C97 1.332 . S
C99 C98 1.407 . S
C99 H101 0.929 . S
H100 C89 0.930 . S
H101 C99 0.929 . S
H102 C117 0.930 . S
H103 C124 0.929 . S
H104 C98 0.930 . S
H105 C97 0.931 . S
H106 C120 0.930 . S
H107 C87 0.930 . S
H108 C93 0.929 . S
H109 C94 0.930 . S
H110 C115 0.930 . S
H111 C90 0.930 . S
H112 C123 0.931 . S
N113 Tb84 2.617 . S
N113 C114 1.379 . S
N113 C117 1.334 . S
C114 N113 1.379 . S
C114 C116 1.416 . S
C114 C122 1.424 . S
C115 H110 0.930 . S
C115 C117 1.390 . S
C115 C118 1.339 . S
C116 C114 1.416 . S
C116 C118 1.416 . S
C116 C149 1.448 . S
C117 H102 0.930 . S
C117 N113 1.334 . S
C117 C115 1.390 . S
C118 C115 1.339 . S
C118 C116 1.416 . S
C118 H125 0.930 . S
N119 Tb84 2.572 . S
N119 C120 1.340 . S
N119 C122 1.361 . S
C120 H106 0.930 . S
C120 N119 1.340 . S
C120 C124 1.407 . S
C121 C122 1.413 . S
C121 C123 1.416 . S
C121 C150 1.427 . S
C122 C114 1.424 . S
C122 N119 1.361 . S
C122 C121 1.413 . S
C123 H112 0.931 . S
C123 C121 1.416 . S
C123 C124 1.332 . S
C124 H103 0.929 . S
C124 C120 1.407 . S
C124 C123 1.332 . S
H125 C118 0.930 . S
H126 C149 0.930 . S
H127 C150 0.929 . S
O128 Tb84 2.465 . S
O128 C148 1.264 . S
O129 Tb84 2.387 . S
O129 C140 1.264 . S
O130 Tb95 2.349 . S
O130 C140 1.243 . S
O131 Tb84 2.428 . S
O131 C148 1.256 . S
O132 Tb84 2.308 . S
O132 C147 1.266 . S
O133 Tb95 2.393 . S
O133 C147 1.248 . S
O134 Tb95 2.465 . S
O134 C159 1.264 . S
O135 Tb95 2.387 . S
O135 C151 1.264 . S
O136 Tb84 2.349 . S
O136 C151 1.243 . S
O137 Tb95 2.428 . S
O137 C159 1.256 . S
O138 Tb95 2.308 . S
O138 C158 1.266 . S
O139 Tb84 2.393 . S
O139 C158 1.248 . S
C140 O129 1.264 . S
C140 O130 1.243 . S
C141 C144 1.399 . S
C141 C146 1.383 . S
C141 C148 1.496 . S
C142 C143 1.399 . S
C142 C146 1.389 . S
C143 C142 1.399 . S
C143 C145 1.380 . S
C143 H160 0.929 . S
C144 C141 1.399 . S
C144 C145 1.392 . S
C144 H161 0.929 . S
C145 C143 1.380 . S
C145 C144 1.392 . S
C145 H162 0.929 . S
C146 C141 1.383 . S
C146 C142 1.389 . S
C146 H163 0.931 . S
C147 O132 1.266 . S
C147 O133 1.248 . S
C148 Tb84 2.802 . S
C148 O128 1.264 . S
C148 O131 1.256 . S
C148 C141 1.496 . S
C149 C116 1.448 . S
C149 H126 0.930 . S
C149 C150 1.328 . S
C150 C121 1.427 . S
C150 H127 0.929 . S
C150 C149 1.328 . S
C151 O135 1.264 . S
C151 O136 1.243 . S
C152 C155 1.399 . S
C152 C156 1.383 . S
C152 C159 1.496 . S
C153 C154 1.399 . S
C153 C156 1.389 . S
C154 C153 1.399 . S
C154 C157 1.380 . S
C154 H164 0.929 . S
C155 C152 1.399 . S
C155 C157 1.392 . S
C155 H165 0.929 . S
C156 C152 1.383 . S
C156 C153 1.389 . S
C156 H166 0.931 . S
C157 C154 1.380 . S
C157 C155 1.392 . S
C157 H167 0.929 . S
C158 O138 1.266 . S
C158 O139 1.248 . S
C159 Tb95 2.802 . S
C159 O134 1.264 . S
C159 O137 1.256 . S
C159 C152 1.496 . S
H160 C143 0.929 . S
H161 C144 0.929 . S
H162 C145 0.929 . S
H163 C146 0.931 . S
H164 C154 0.929 . S
H165 C155 0.929 . S
H166 C156 0.931 . S
H167 C157 0.929 . S
Tb168 N197 2.617 . S
Tb168 N203 2.572 . S
Tb168 O212 2.465 . S
Tb168 O213 2.387 . S
Tb168 O215 2.428 . S
Tb168 O216 2.308 . S
Tb168 O220 2.349 . S
Tb168 O223 2.393 . S
Tb168 C232 2.802 . S
C169 N170 1.379 . S
C169 C172 1.416 . S
C169 C176 1.424 . S
N170 C169 1.379 . S
N170 C173 1.334 . S
N170 Tb179 2.617 . S
C171 C173 1.390 . S
C171 C174 1.339 . S
C171 H191 0.930 . S
C172 C169 1.416 . S
C172 C174 1.416 . S
C172 C178 1.448 . S
C173 N170 1.334 . S
C173 C171 1.390 . S
C173 H184 0.930 . S
C174 C171 1.339 . S
C174 C172 1.416 . S
C174 H195 0.930 . S
C175 C176 1.413 . S
C175 C177 1.427 . S
C175 C181 1.416 . S
C176 C169 1.424 . S
C176 C175 1.413 . S
C176 N180 1.361 . S
C177 C175 1.427 . S
C177 C178 1.328 . S
C177 H192 0.929 . S
C178 C172 1.448 . S
C178 C177 1.328 . S
C178 H193 0.930 . S
Tb179 N170 2.617 . S
Tb179 N180 2.572 . S
Tb179 O214 2.349 . S
Tb179 O217 2.393 . S
Tb179 O218 2.465 . S
Tb179 O219 2.387 . S
Tb179 O221 2.428 . S
Tb179 O222 2.308 . S
Tb179 C243 2.802 . S
N180 C176 1.361 . S
N180 Tb179 2.572 . S
N180 C182 1.340 . S
C181 C175 1.416 . S
C181 C183 1.332 . S
C181 H189 0.931 . S
C182 N180 1.340 . S
C182 C183 1.407 . S
C182 H188 0.930 . S
C183 C181 1.332 . S
C183 C182 1.407 . S
C183 H185 0.929 . S
H184 C173 0.930 . S
H185 C183 0.929 . S
H186 C201 0.930 . S
H187 C208 0.929 . S
H188 C182 0.930 . S
H189 C181 0.931 . S
H190 C204 0.930 . S
H191 C171 0.930 . S
H192 C177 0.929 . S
H193 C178 0.930 . S
H194 C199 0.930 . S
H195 C174 0.930 . S
H196 C207 0.931 . S
N197 Tb168 2.617 . S
N197 C198 1.379 . S
N197 C201 1.334 . S
C198 N197 1.379 . S
C198 C200 1.416 . S
C198 C206 1.424 . S
C199 H194 0.930 . S
C199 C201 1.390 . S
C199 C202 1.339 . S
C200 C198 1.416 . S
C200 C202 1.416 . S
C200 C233 1.448 . S
C201 H186 0.930 . S
C201 N197 1.334 . S
C201 C199 1.390 . S
C202 C199 1.339 . S
C202 C200 1.416 . S
C202 H209 0.930 . S
N203 Tb168 2.572 . S
N203 C204 1.340 . S
N203 C206 1.361 . S
C204 H190 0.930 . S
C204 N203 1.340 . S
C204 C208 1.407 . S
C205 C206 1.413 . S
C205 C207 1.416 . S
C205 C234 1.427 . S
C206 C198 1.424 . S
C206 N203 1.361 . S
C206 C205 1.413 . S
C207 H196 0.931 . S
C207 C205 1.416 . S
C207 C208 1.332 . S
C208 H187 0.929 . S
C208 C204 1.407 . S
C208 C207 1.332 . S
H209 C202 0.930 . S
H210 C233 0.930 . S
H211 C234 0.929 . S
O212 Tb168 2.465 . S
O212 C232 1.264 . S
O213 Tb168 2.387 . S
O213 C224 1.264 . S
O214 Tb179 2.349 . S
O214 C224 1.243 . S
O215 Tb168 2.428 . S
O215 C232 1.256 . S
O216 Tb168 2.308 . S
O216 C231 1.266 . S
O217 Tb179 2.393 . S
O217 C231 1.248 . S
O218 Tb179 2.465 . S
O218 C243 1.264 . S
O219 Tb179 2.387 . S
O219 C235 1.264 . S
O220 Tb168 2.349 . S
O220 C235 1.243 . S
O221 Tb179 2.428 . S
O221 C243 1.256 . S
O222 Tb179 2.308 . S
O222 C242 1.266 . S
O223 Tb168 2.393 . S
O223 C242 1.248 . S
C224 O213 1.264 . S
C224 O214 1.243 . S
C225 C228 1.399 . S
C225 C230 1.383 . S
C225 C232 1.496 . S
C226 C227 1.399 . S
C226 C230 1.389 . S
C227 C226 1.399 . S
C227 C229 1.380 . S
C227 H244 0.929 . S
C228 C225 1.399 . S
C228 C229 1.392 . S
C228 H245 0.929 . S
C229 C227 1.380 . S
C229 C228 1.392 . S
C229 H246 0.929 . S
C230 C225 1.383 . S
C230 C226 1.389 . S
C230 H247 0.931 . S
C231 O216 1.266 . S
C231 O217 1.248 . S
C232 Tb168 2.802 . S
C232 O212 1.264 . S
C232 O215 1.256 . S
C232 C225 1.496 . S
C233 C200 1.448 . S
C233 H210 0.930 . S
C233 C234 1.328 . S
C234 C205 1.427 . S
C234 H211 0.929 . S
C234 C233 1.328 . S
C235 O219 1.264 . S
C235 O220 1.243 . S
C236 C239 1.399 . S
C236 C240 1.383 . S
C236 C243 1.496 . S
C237 C238 1.399 . S
C237 C240 1.389 . S
C238 C237 1.399 . S
C238 C241 1.380 . S
C238 H248 0.929 . S
C239 C236 1.399 . S
C239 C241 1.392 . S
C239 H249 0.929 . S
C240 C236 1.383 . S
C240 C237 1.389 . S
C240 H250 0.931 . S
C241 C238 1.380 . S
C241 C239 1.392 . S
C241 H251 0.929 . S
C242 O222 1.266 . S
C242 O223 1.248 . S
C243 Tb179 2.802 . S
C243 O218 1.264 . S
C243 O221 1.256 . S
C243 C236 1.496 . S
H244 C227 0.929 . S
H245 C228 0.929 . S
H246 C229 0.929 . S
H247 C230 0.931 . S
H248 C238 0.929 . S
H249 C239 0.929 . S
H250 C240 0.931 . S
H251 C241 0.929 . S
Tb252 N281 2.617 . S
Tb252 N287 2.572 . S
Tb252 O296 2.465 . S
Tb252 O297 2.387 1_554 S
Tb252 O299 2.428 . S
Tb252 O300 2.308 . S
Tb252 O304 2.349 . S
Tb252 O307 2.393 . S
Tb252 C316 2.802 . S
C253 N254 1.379 . S
C253 C256 1.416 . S
C253 C260 1.424 . S
N254 C253 1.379 . S
N254 C257 1.334 . S
N254 Tb263 2.617 . S
C255 C257 1.390 . S
C255 C258 1.339 . S
C255 H275 0.930 . S
C256 C253 1.416 . S
C256 C258 1.416 . S
C256 C262 1.448 . S
C257 N254 1.334 . S
C257 C255 1.390 . S
C257 H268 0.930 . S
C258 C255 1.339 . S
C258 C256 1.416 . S
C258 H279 0.930 . S
C259 C260 1.413 . S
C259 C261 1.427 . S
C259 C265 1.416 . S
C260 C253 1.424 . S
C260 C259 1.413 . S
C260 N264 1.361 . S
C261 C259 1.427 . S
C261 C262 1.328 . S
C261 H276 0.929 . S
C262 C256 1.448 . S
C262 C261 1.328 . S
C262 H277 0.930 . S
Tb263 N254 2.617 . S
Tb263 N264 2.572 . S
Tb263 O298 2.372 . S
Tb263 O301 2.393 . S
Tb263 O302 2.465 . S
Tb263 O303 2.387 . S
Tb263 O305 2.428 . S
Tb263 O306 2.308 . S
Tb263 C327 2.843 . S
N264 C260 1.361 . S
N264 Tb263 2.572 . S
N264 C266 1.340 . S
C265 C259 1.416 . S
C265 C267 1.332 . S
C265 H273 0.931 . S
C266 N264 1.340 . S
C266 C267 1.407 . S
C266 H272 0.930 . S
C267 C265 1.332 . S
C267 C266 1.407 . S
C267 H269 0.929 . S
H268 C257 0.930 . S
H269 C267 0.929 . S
H270 C285 0.930 1_554 S
H271 C292 0.929 . S
H272 C266 0.930 . S
H273 C265 0.931 . S
H274 C288 0.930 . S
H275 C255 0.930 . S
H276 C261 0.929 . S
H277 C262 0.930 . S
H278 C283 0.930 . S
H279 C258 0.930 . S
H280 C291 0.931 . S
N281 Tb252 2.617 . S
N281 C282 1.379 1_554 S
N281 C285 1.334 1_554 S
C282 N281 1.379 1_556 S
C282 C284 1.416 . S
C282 C290 1.424 . S
C283 H278 0.930 . S
C283 C285 1.390 . S
C283 C286 1.339 . S
C284 C282 1.416 . S
C284 C286 1.416 . S
C284 C317 1.448 . S
C285 H270 0.930 1_556 S
C285 N281 1.334 1_556 S
C285 C283 1.390 . S
C286 C283 1.339 . S
C286 C284 1.416 . S
C286 H293 0.930 . S
N287 Tb252 2.572 . S
N287 C288 1.340 . S
N287 C290 1.361 1_554 S
C288 H274 0.930 . S
C288 N287 1.340 . S
C288 C292 1.407 . S
C289 C290 1.413 . S
C289 C291 1.416 . S
C289 C318 1.427 . S
C290 C282 1.424 . S
C290 N287 1.361 1_556 S
C290 C289 1.413 . S
C291 H280 0.931 . S
C291 C289 1.416 . S
C291 C292 1.332 1_556 S
C292 H271 0.929 . S
C292 C288 1.407 . S
C292 C291 1.332 1_554 S
H293 C286 0.930 . S
H294 C317 0.930 . S
H295 C318 0.929 . S
O296 Tb252 2.465 . S
O296 C316 1.264 . S
O297 Tb252 2.387 1_556 S
O297 C308 1.264 . S
O298 Tb263 2.372 . S
O298 C308 1.232 1_554 S
O299 Tb252 2.428 . S
O299 C316 1.256 . S
O300 Tb252 2.308 . S
O300 C315 1.266 . S
O301 Tb263 2.393 . S
O301 C315 1.248 . S
O302 Tb263 2.465 . S
O302 C327 1.269 . S
O303 Tb263 2.387 . S
O303 C319 1.264 . S
O304 Tb252 2.349 . S
O304 C319 1.243 . S
O305 Tb263 2.428 . S
O305 C327 1.293 . S
O306 Tb263 2.308 . S
O306 C326 1.266 . S
O307 Tb252 2.393 . S
O307 C326 1.248 . S
C308 O297 1.264 . S
C308 O298 1.232 1_556 S
C309 C312 1.399 . S
C309 C314 1.383 . S
C309 C316 1.496 . S
C310 C311 1.399 . S
C310 C314 1.389 . S
C311 C310 1.399 . S
C311 C313 1.380 . S
C311 H328 0.929 . S
C312 C309 1.399 . S
C312 C313 1.392 . S
C312 H329 0.929 . S
C313 C311 1.380 . S
C313 C312 1.392 . S
C313 H330 0.929 . S
C314 C309 1.383 . S
C314 C310 1.389 . S
C314 H331 0.931 . S
C315 O300 1.266 . S
C315 O301 1.248 . S
C316 Tb252 2.802 . S
C316 O296 1.264 . S
C316 O299 1.256 . S
C316 C309 1.496 . S
C317 C284 1.448 . S
C317 H294 0.930 . S
C317 C318 1.328 . S
C318 C289 1.427 . S
C318 H295 0.929 . S
C318 C317 1.328 . S
C319 O303 1.264 . S
C319 O304 1.243 . S
C320 C323 1.399 . S
C320 C324 1.383 . S
C320 C327 1.456 1_556 S
C321 C322 1.399 . S
C321 C324 1.389 . S
C322 C321 1.399 . S
C322 C325 1.380 . S
C322 H332 0.929 . S
C323 C320 1.399 . S
C323 C325 1.392 . S
C323 H333 0.929 . S
C324 C320 1.383 . S
C324 C321 1.389 . S
C324 H334 0.931 . S
C325 C322 1.380 . S
C325 C323 1.392 . S
C325 H335 0.929 . S
C326 O306 1.266 . S
C326 O307 1.248 . S
C327 Tb263 2.843 . S
C327 O302 1.269 . S
C327 O305 1.293 . S
C327 C320 1.456 1_554 S
H328 C311 0.929 . S
H329 C312 0.929 . S
H330 C313 0.929 . S
H331 C314 0.931 . S
H332 C322 0.929 . S
H333 C323 0.929 . S
H334 C324 0.931 . S
H335 C325 0.929 . S
Tb336 N365 2.617 . S
Tb336 N371 2.572 . S
Tb336 O380 2.465 . S
Tb336 O381 2.387 . S
Tb336 O383 2.428 . S
Tb336 O384 2.308 . S
Tb336 O388 2.349 . S
Tb336 O391 2.393 . S
Tb336 C400 2.802 . S
C337 N338 1.379 . S
C337 C340 1.416 . S
C337 C344 1.424 . S
N338 C337 1.379 . S
N338 C341 1.334 . S
N338 Tb347 2.617 . S
C339 C341 1.390 . S
C339 C342 1.339 . S
C339 H359 0.930 . S
C340 C337 1.416 . S
C340 C342 1.416 . S
C340 C346 1.448 . S
C341 N338 1.334 . S
C341 C339 1.390 . S
C341 H352 0.930 . S
C342 C339 1.339 . S
C342 C340 1.416 . S
C342 H363 0.930 . S
C343 C344 1.413 . S
C343 C345 1.427 . S
C343 C349 1.416 . S
C344 C337 1.424 . S
C344 C343 1.413 . S
C344 N348 1.361 . S
C345 C343 1.427 . S
C345 C346 1.328 . S
C345 H360 0.929 . S
C346 C340 1.448 . S
C346 C345 1.328 . S
C346 H361 0.930 . S
Tb347 N338 2.617 . S
Tb347 N348 2.572 . S
Tb347 O382 2.349 . S
Tb347 O385 2.393 . S
Tb347 O386 2.465 . S
Tb347 O387 2.387 . S
Tb347 O389 2.428 . S
Tb347 O390 2.308 . S
Tb347 C411 2.802 . S
N348 C344 1.361 . S
N348 Tb347 2.572 . S
N348 C350 1.340 . S
C349 C343 1.416 . S
C349 C351 1.332 . S
C349 H357 0.931 . S
C350 N348 1.340 . S
C350 C351 1.407 . S
C350 H356 0.930 . S
C351 C349 1.332 . S
C351 C350 1.407 . S
C351 H353 0.929 . S
H352 C341 0.930 . S
H353 C351 0.929 . S
H354 C369 0.930 . S
H355 C376 0.929 . S
H356 C350 0.930 . S
H357 C349 0.931 . S
H358 C372 0.930 . S
H359 C339 0.930 . S
H360 C345 0.929 . S
H361 C346 0.930 . S
H362 C367 0.930 . S
H363 C342 0.930 . S
H364 C375 0.931 . S
N365 Tb336 2.617 . S
N365 C366 1.379 . S
N365 C369 1.334 . S
C366 N365 1.379 . S
C366 C368 1.416 . S
C366 C374 1.424 . S
C367 H362 0.930 . S
C367 C369 1.390 . S
C367 C370 1.339 . S
C368 C366 1.416 . S
C368 C370 1.416 . S
C368 C401 1.448 . S
C369 H354 0.930 . S
C369 N365 1.334 . S
C369 C367 1.390 . S
C370 C367 1.339 . S
C370 C368 1.416 . S
C370 H377 0.930 . S
N371 Tb336 2.572 . S
N371 C372 1.340 . S
N371 C374 1.361 . S
C372 H358 0.930 . S
C372 N371 1.340 . S
C372 C376 1.407 . S
C373 C374 1.413 . S
C373 C375 1.416 . S
C373 C402 1.427 . S
C374 C366 1.424 . S
C374 N371 1.361 . S
C374 C373 1.413 . S
C375 H364 0.931 . S
C375 C373 1.416 . S
C375 C376 1.332 . S
C376 H355 0.929 . S
C376 C372 1.407 . S
C376 C375 1.332 . S
H377 C370 0.930 . S
H378 C401 0.930 . S
H379 C402 0.929 . S
O380 Tb336 2.465 . S
O380 C400 1.264 . S
O381 Tb336 2.387 . S
O381 C392 1.264 . S
O382 Tb347 2.349 . S
O382 C392 1.243 . S
O383 Tb336 2.428 . S
O383 C400 1.256 . S
O384 Tb336 2.308 . S
O384 C399 1.266 . S
O385 Tb347 2.393 . S
O385 C399 1.248 . S
O386 Tb347 2.465 . S
O386 C411 1.264 . S
O387 Tb347 2.387 . S
O387 C403 1.264 . S
O388 Tb336 2.349 . S
O388 C403 1.243 . S
O389 Tb347 2.428 . S
O389 C411 1.256 . S
O390 Tb347 2.308 . S
O390 C410 1.266 . S
O391 Tb336 2.393 . S
O391 C410 1.248 . S
C392 O381 1.264 . S
C392 O382 1.243 . S
C393 C396 1.399 . S
C393 C398 1.383 . S
C393 C400 1.496 . S
C394 C395 1.399 . S
C394 C398 1.389 . S
C395 C394 1.399 . S
C395 C397 1.380 . S
C395 H412 0.929 . S
C396 C393 1.399 . S
C396 C397 1.392 . S
C396 H413 0.929 . S
C397 C395 1.380 . S
C397 C396 1.392 . S
C397 H414 0.929 . S
C398 C393 1.383 . S
C398 C394 1.389 . S
C398 H415 0.931 . S
C399 O384 1.266 . S
C399 O385 1.248 . S
C400 Tb336 2.802 . S
C400 O380 1.264 . S
C400 O383 1.256 . S
C400 C393 1.496 . S
C401 C368 1.448 . S
C401 H378 0.930 . S
C401 C402 1.328 . S
C402 C373 1.427 . S
C402 H379 0.929 . S
C402 C401 1.328 . S
C403 O387 1.264 . S
C403 O388 1.243 . S
C404 C407 1.399 . S
C404 C408 1.383 . S
C404 C411 1.496 . S
C405 C406 1.399 . S
C405 C408 1.389 . S
C406 C405 1.399 . S
C406 C409 1.380 . S
C406 H416 0.929 . S
C407 C404 1.399 . S
C407 C409 1.392 . S
C407 H417 0.929 . S
C408 C404 1.383 . S
C408 C405 1.389 . S
C408 H418 0.931 . S
C409 C406 1.380 . S
C409 C407 1.392 . S
C409 H419 0.929 . S
C410 O390 1.266 . S
C410 O391 1.248 . S
C411 Tb347 2.802 . S
C411 O386 1.264 . S
C411 O389 1.256 . S
C411 C404 1.496 . S
H412 C395 0.929 . S
H413 C396 0.929 . S
H414 C397 0.929 . S
H415 C398 0.931 . S
H416 C406 0.929 . S
H417 C407 0.929 . S
H418 C408 0.931 . S
H419 C409 0.929 . S
Tb420 N449 2.617 . S
Tb420 N455 2.572 . S
Tb420 O464 2.465 . S
Tb420 O465 2.387 . S
Tb420 O467 2.428 . S
Tb420 O468 2.308 . S
Tb420 O472 2.349 . S
Tb420 O475 2.393 . S
Tb420 C484 2.802 . S
C421 N422 1.379 . S
C421 C424 1.416 . S
C421 C428 1.424 . S
N422 C421 1.379 . S
N422 C425 1.334 . S
N422 Tb431 2.617 . S
C423 C425 1.390 . S
C423 C426 1.339 . S
C423 H443 0.930 . S
C424 C421 1.416 . S
C424 C426 1.416 . S
C424 C430 1.448 . S
C425 N422 1.334 . S
C425 C423 1.390 . S
C425 H436 0.930 . S
C426 C423 1.339 . S
C426 C424 1.416 . S
C426 H447 0.930 . S
C427 C428 1.413 . S
C427 C429 1.427 . S
C427 C433 1.416 . S
C428 C421 1.424 . S
C428 C427 1.413 . S
C428 N432 1.361 . S
C429 C427 1.427 . S
C429 C430 1.328 . S
C429 H444 0.929 . S
C430 C424 1.448 . S
C430 C429 1.328 . S
C430 H445 0.930 . S
Tb431 N422 2.617 . S
Tb431 N432 2.572 . S
Tb431 O466 2.349 . S
Tb431 O469 2.393 . S
Tb431 O470 2.465 . S
Tb431 O471 2.387 . S
Tb431 O473 2.428 . S
Tb431 O474 2.308 . S
Tb431 C495 2.802 . S
N432 C428 1.361 . S
N432 Tb431 2.572 . S
N432 C434 1.340 . S
C433 C427 1.416 . S
C433 C435 1.332 . S
C433 H441 0.931 . S
C434 N432 1.340 . S
C434 C435 1.407 . S
C434 H440 0.930 . S
C435 C433 1.332 . S
C435 C434 1.407 . S
C435 H437 0.929 . S
H436 C425 0.930 . S
H437 C435 0.929 . S
H438 C453 0.930 . S
H439 C460 0.929 . S
H440 C434 0.930 . S
H441 C433 0.931 . S
H442 C456 0.930 . S
H443 C423 0.930 . S
H444 C429 0.929 . S
H445 C430 0.930 . S
H446 C451 0.930 . S
H447 C426 0.930 . S
H448 C459 0.931 . S
N449 Tb420 2.617 . S
N449 C450 1.379 . S
N449 C453 1.334 . S
C450 N449 1.379 . S
C450 C452 1.416 . S
C450 C458 1.424 . S
C451 H446 0.930 . S
C451 C453 1.390 . S
C451 C454 1.339 . S
C452 C450 1.416 . S
C452 C454 1.416 . S
C452 C485 1.448 . S
C453 H438 0.930 . S
C453 N449 1.334 . S
C453 C451 1.390 . S
C454 C451 1.339 . S
C454 C452 1.416 . S
C454 H461 0.930 . S
N455 Tb420 2.572 . S
N455 C456 1.340 . S
N455 C458 1.361 . S
C456 H442 0.930 . S
C456 N455 1.340 . S
C456 C460 1.407 . S
C457 C458 1.413 . S
C457 C459 1.416 . S
C457 C486 1.427 . S
C458 C450 1.424 . S
C458 N455 1.361 . S
C458 C457 1.413 . S
C459 H448 0.931 . S
C459 C457 1.416 . S
C459 C460 1.332 . S
C460 H439 0.929 . S
C460 C456 1.407 . S
C460 C459 1.332 . S
H461 C454 0.930 . S
H462 C485 0.930 . S
H463 C486 0.929 . S
O464 Tb420 2.465 . S
O464 C484 1.264 . S
O465 Tb420 2.387 . S
O465 C476 1.264 . S
O466 Tb431 2.349 . S
O466 C476 1.243 . S
O467 Tb420 2.428 . S
O467 C484 1.256 . S
O468 Tb420 2.308 . S
O468 C483 1.266 . S
O469 Tb431 2.393 . S
O469 C483 1.248 . S
O470 Tb431 2.465 . S
O470 C495 1.264 . S
O471 Tb431 2.387 . S
O471 C487 1.264 . S
O472 Tb420 2.349 . S
O472 C487 1.243 . S
O473 Tb431 2.428 . S
O473 C495 1.256 . S
O474 Tb431 2.308 . S
O474 C494 1.266 . S
O475 Tb420 2.393 . S
O475 C494 1.248 . S
C476 O465 1.264 . S
C476 O466 1.243 . S
C477 C480 1.399 . S
C477 C482 1.383 . S
C477 C484 1.496 . S
C478 C479 1.399 . S
C478 C482 1.389 . S
C479 C478 1.399 . S
C479 C481 1.380 . S
C479 H496 0.929 . S
C480 C477 1.399 . S
C480 C481 1.392 . S
C480 H497 0.929 . S
C481 C479 1.380 . S
C481 C480 1.392 . S
C481 H498 0.929 . S
C482 C477 1.383 . S
C482 C478 1.389 . S
C482 H499 0.931 . S
C483 O468 1.266 . S
C483 O469 1.248 . S
C484 Tb420 2.802 . S
C484 O464 1.264 . S
C484 O467 1.256 . S
C484 C477 1.496 . S
C485 C452 1.448 . S
C485 H462 0.930 . S
C485 C486 1.328 . S
C486 C457 1.427 . S
C486 H463 0.929 . S
C486 C485 1.328 . S
C487 O471 1.264 . S
C487 O472 1.243 . S
C488 C491 1.399 . S
C488 C492 1.383 . S
C488 C495 1.496 . S
C489 C490 1.399 . S
C489 C492 1.389 . S
C490 C489 1.399 . S
C490 C493 1.380 . S
C490 H500 0.929 . S
C491 C488 1.399 . S
C491 C493 1.392 . S
C491 H501 0.929 . S
C492 C488 1.383 . S
C492 C489 1.389 . S
C492 H502 0.931 . S
C493 C490 1.380 . S
C493 C491 1.392 . S
C493 H503 0.929 . S
C494 O474 1.266 . S
C494 O475 1.248 . S
C495 Tb431 2.802 . S
C495 O470 1.264 . S
C495 O473 1.256 . S
C495 C488 1.496 . S
H496 C479 0.929 . S
H497 C480 0.929 . S
H498 C481 0.929 . S
H499 C482 0.931 . S
H500 C490 0.929 . S
H501 C491 0.929 . S
H502 C492 0.931 . S
H503 C493 0.929 . S
Tb504 N533 2.617 . S
Tb504 N539 2.572 . S
Tb504 O548 2.465 . S
Tb504 O549 2.387 . S
Tb504 O551 2.428 . S
Tb504 O552 2.308 . S
Tb504 O556 2.349 . S
Tb504 O559 2.393 . S
Tb504 C568 2.802 . S
C505 N506 1.379 . S
C505 C508 1.416 . S
C505 C512 1.424 . S
N506 C505 1.379 . S
N506 C509 1.334 . S
N506 Tb515 2.617 . S
C507 C509 1.390 . S
C507 C510 1.339 . S
C507 H527 0.930 . S
C508 C505 1.416 . S
C508 C510 1.416 . S
C508 C514 1.448 . S
C509 N506 1.334 . S
C509 C507 1.390 . S
C509 H520 0.930 . S
C510 C507 1.339 . S
C510 C508 1.416 . S
C510 H531 0.930 . S
C511 C512 1.413 . S
C511 C513 1.427 . S
C511 C517 1.416 . S
C512 C505 1.424 . S
C512 C511 1.413 . S
C512 N516 1.361 . S
C513 C511 1.427 . S
C513 C514 1.328 . S
C513 H528 0.929 . S
C514 C508 1.448 . S
C514 C513 1.328 . S
C514 H529 0.930 . S
Tb515 N506 2.617 . S
Tb515 N516 2.572 . S
Tb515 O550 2.349 . S
Tb515 O553 2.393 . S
Tb515 O554 2.465 . S
Tb515 O555 2.387 . S
Tb515 O557 2.428 . S
Tb515 O558 2.308 . S
Tb515 C579 2.802 . S
N516 C512 1.361 . S
N516 Tb515 2.572 . S
N516 C518 1.340 . S
C517 C511 1.416 . S
C517 C519 1.332 . S
C517 H525 0.931 . S
C518 N516 1.340 . S
C518 C519 1.407 . S
C518 H524 0.930 . S
C519 C517 1.332 . S
C519 C518 1.407 . S
C519 H521 0.929 . S
H520 C509 0.930 . S
H521 C519 0.929 . S
H522 C537 0.930 . S
H523 C544 0.929 . S
H524 C518 0.930 . S
H525 C517 0.931 . S
H526 C540 0.930 . S
H527 C507 0.930 . S
H528 C513 0.929 . S
H529 C514 0.930 . S
H530 C535 0.930 . S
H531 C510 0.930 . S
H532 C543 0.931 . S
N533 Tb504 2.617 . S
N533 C534 1.379 . S
N533 C537 1.334 . S
C534 N533 1.379 . S
C534 C536 1.416 . S
C534 C542 1.424 . S
C535 H530 0.930 . S
C535 C537 1.390 . S
C535 C538 1.339 . S
C536 C534 1.416 . S
C536 C538 1.416 . S
C536 C569 1.448 . S
C537 H522 0.930 . S
C537 N533 1.334 . S
C537 C535 1.390 . S
C538 C535 1.339 . S
C538 C536 1.416 . S
C538 H545 0.930 . S
N539 Tb504 2.572 . S
N539 C540 1.340 . S
N539 C542 1.361 . S
C540 H526 0.930 . S
C540 N539 1.340 . S
C540 C544 1.407 . S
C541 C542 1.413 . S
C541 C543 1.416 . S
C541 C570 1.427 . S
C542 C534 1.424 . S
C542 N539 1.361 . S
C542 C541 1.413 . S
C543 H532 0.931 . S
C543 C541 1.416 . S
C543 C544 1.332 . S
C544 H523 0.929 . S
C544 C540 1.407 . S
C544 C543 1.332 . S
H545 C538 0.930 . S
H546 C569 0.930 . S
H547 C570 0.929 . S
O548 Tb504 2.465 . S
O548 C568 1.264 . S
O549 Tb504 2.387 . S
O549 C560 1.264 . S
O550 Tb515 2.349 . S
O550 C560 1.243 . S
O551 Tb504 2.428 . S
O551 C568 1.256 . S
O552 Tb504 2.308 . S
O552 C567 1.266 . S
O553 Tb515 2.393 . S
O553 C567 1.248 . S
O554 Tb515 2.465 . S
O554 C579 1.264 . S
O555 Tb515 2.387 . S
O555 C571 1.264 . S
O556 Tb504 2.349 . S
O556 C571 1.243 . S
O557 Tb515 2.428 . S
O557 C579 1.256 . S
O558 Tb515 2.308 . S
O558 C578 1.266 . S
O559 Tb504 2.393 . S
O559 C578 1.248 . S
C560 O549 1.264 . S
C560 O550 1.243 . S
C561 C564 1.399 . S
C561 C566 1.383 . S
C561 C568 1.496 . S
C562 C563 1.399 . S
C562 C566 1.389 . S
C563 C562 1.399 . S
C563 C565 1.380 . S
C563 H580 0.929 . S
C564 C561 1.399 . S
C564 C565 1.392 . S
C564 H581 0.929 . S
C565 C563 1.380 . S
C565 C564 1.392 . S
C565 H582 0.929 . S
C566 C561 1.383 . S
C566 C562 1.389 . S
C566 H583 0.931 . S
C567 O552 1.266 . S
C567 O553 1.248 . S
C568 Tb504 2.802 . S
C568 O548 1.264 . S
C568 O551 1.256 . S
C568 C561 1.496 . S
C569 C536 1.448 . S
C569 H546 0.930 . S
C569 C570 1.328 . S
C570 C541 1.427 . S
C570 H547 0.929 . S
C570 C569 1.328 . S
C571 O555 1.264 . S
C571 O556 1.243 . S
C572 C575 1.399 . S
C572 C576 1.383 . S
C572 C579 1.496 . S
C573 C574 1.399 . S
C573 C576 1.389 . S
C574 C573 1.399 . S
C574 C577 1.380 . S
C574 H584 0.929 . S
C575 C572 1.399 . S
C575 C577 1.392 . S
C575 H585 0.929 . S
C576 C572 1.383 . S
C576 C573 1.389 . S
C576 H586 0.931 . S
C577 C574 1.380 . S
C577 C575 1.392 . S
C577 H587 0.929 . S
C578 O558 1.266 . S
C578 O559 1.248 . S
C579 Tb515 2.802 . S
C579 O554 1.264 . S
C579 O557 1.256 . S
C579 C572 1.496 . S
H580 C563 0.929 . S
H581 C564 0.929 . S
H582 C565 0.929 . S
H583 C566 0.931 . S
H584 C574 0.929 . S
H585 C575 0.929 . S
H586 C576 0.931 . S
H587 C577 0.929 . S
Tb588 N617 2.617 . S
Tb588 N623 2.572 . S
Tb588 O632 2.465 . S
Tb588 O633 2.387 1_556 S
Tb588 O635 2.428 . S
Tb588 O636 2.308 . S
Tb588 O640 2.349 . S
Tb588 O643 2.393 . S
Tb588 C652 2.802 . S
C589 N590 1.379 . S
C589 C592 1.416 . S
C589 C596 1.424 . S
N590 C589 1.379 . S
N590 C593 1.334 . S
N590 Tb599 2.617 . S
C591 C593 1.390 . S
C591 C594 1.339 . S
C591 H611 0.930 . S
C592 C589 1.416 . S
C592 C594 1.416 . S
C592 C598 1.448 . S
C593 N590 1.334 . S
C593 C591 1.390 . S
C593 H604 0.930 . S
C594 C591 1.339 . S
C594 C592 1.416 . S
C594 H615 0.930 . S
C595 C596 1.413 . S
C595 C597 1.427 . S
C595 C601 1.416 . S
C596 C589 1.424 . S
C596 C595 1.413 . S
C596 N600 1.361 . S
C597 C595 1.427 . S
C597 C598 1.328 . S
C597 H612 0.929 . S
C598 C592 1.448 . S
C598 C597 1.328 . S
C598 H613 0.930 . S
Tb599 N590 2.617 . S
Tb599 N600 2.572 . S
Tb599 O634 2.372 . S
Tb599 O637 2.393 . S
Tb599 O638 2.465 . S
Tb599 O639 2.387 . S
Tb599 O641 2.428 . S
Tb599 O642 2.308 . S
Tb599 C663 2.843 . S
N600 C596 1.361 . S
N600 Tb599 2.572 . S
N600 C602 1.340 . S
C601 C595 1.416 . S
C601 C603 1.332 . S
C601 H609 0.931 . S
C602 N600 1.340 . S
C602 C603 1.407 . S
C602 H608 0.930 . S
C603 C601 1.332 . S
C603 C602 1.407 . S
C603 H605 0.929 . S
H604 C593 0.930 . S
H605 C603 0.929 . S
H606 C621 0.930 1_556 S
H607 C628 0.929 . S
H608 C602 0.930 . S
H609 C601 0.931 . S
H610 C624 0.930 . S
H611 C591 0.930 . S
H612 C597 0.929 . S
H613 C598 0.930 . S
H614 C619 0.930 . S
H615 C594 0.930 . S
H616 C627 0.931 . S
N617 Tb588 2.617 . S
N617 C618 1.379 1_556 S
N617 C621 1.334 1_556 S
C618 N617 1.379 1_554 S
C618 C620 1.416 . S
C618 C626 1.424 . S
C619 H614 0.930 . S
C619 C621 1.390 . S
C619 C622 1.339 . S
C620 C618 1.416 . S
C620 C622 1.416 . S
C620 C653 1.448 . S
C621 H606 0.930 1_554 S
C621 N617 1.334 1_554 S
C621 C619 1.390 . S
C622 C619 1.339 . S
C622 C620 1.416 . S
C622 H629 0.930 . S
N623 Tb588 2.572 . S
N623 C624 1.340 . S
N623 C626 1.361 1_556 S
C624 H610 0.930 . S
C624 N623 1.340 . S
C624 C628 1.407 . S
C625 C626 1.413 . S
C625 C627 1.416 . S
C625 C654 1.427 . S
C626 C618 1.424 . S
C626 N623 1.361 1_554 S
C626 C625 1.413 . S
C627 H616 0.931 . S
C627 C625 1.416 . S
C627 C628 1.332 1_554 S
C628 H607 0.929 . S
C628 C624 1.407 . S
C628 C627 1.332 1_556 S
H629 C622 0.930 . S
H630 C653 0.930 . S
H631 C654 0.929 . S
O632 Tb588 2.465 . S
O632 C652 1.264 . S
O633 Tb588 2.387 1_554 S
O633 C644 1.264 . S
O634 Tb599 2.372 . S
O634 C644 1.232 1_556 S
O635 Tb588 2.428 . S
O635 C652 1.256 . S
O636 Tb588 2.308 . S
O636 C651 1.266 . S
O637 Tb599 2.393 . S
O637 C651 1.248 . S
O638 Tb599 2.465 . S
O638 C663 1.269 . S
O639 Tb599 2.387 . S
O639 C655 1.264 . S
O640 Tb588 2.349 . S
O640 C655 1.243 . S
O641 Tb599 2.428 . S
O641 C663 1.293 . S
O642 Tb599 2.308 . S
O642 C662 1.266 . S
O643 Tb588 2.393 . S
O643 C662 1.248 . S
C644 O633 1.264 . S
C644 O634 1.232 1_554 S
C645 C648 1.399 . S
C645 C650 1.383 . S
C645 C652 1.496 . S
C646 C647 1.399 . S
C646 C650 1.389 . S
C647 C646 1.399 . S
C647 C649 1.380 . S
C647 H664 0.929 . S
C648 C645 1.399 . S
C648 C649 1.392 . S
C648 H665 0.929 . S
C649 C647 1.380 . S
C649 C648 1.392 . S
C649 H666 0.929 . S
C650 C645 1.383 . S
C650 C646 1.389 . S
C650 H667 0.931 . S
C651 O636 1.266 . S
C651 O637 1.248 . S
C652 Tb588 2.802 . S
C652 O632 1.264 . S
C652 O635 1.256 . S
C652 C645 1.496 . S
C653 C620 1.448 . S
C653 H630 0.930 . S
C653 C654 1.328 . S
C654 C625 1.427 . S
C654 H631 0.929 . S
C654 C653 1.328 . S
C655 O639 1.264 . S
C655 O640 1.243 . S
C656 C659 1.399 . S
C656 C660 1.383 . S
C656 C663 1.456 1_554 S
C657 C658 1.399 . S
C657 C660 1.389 . S
C658 C657 1.399 . S
C658 C661 1.380 . S
C658 H668 0.929 . S
C659 C656 1.399 . S
C659 C661 1.392 . S
C659 H669 0.929 . S
C660 C656 1.383 . S
C660 C657 1.389 . S
C660 H670 0.931 . S
C661 C658 1.380 . S
C661 C659 1.392 . S
C661 H671 0.929 . S
C662 O642 1.266 . S
C662 O643 1.248 . S
C663 Tb599 2.843 . S
C663 O638 1.269 . S
C663 O641 1.293 . S
C663 C656 1.456 1_556 S
H664 C647 0.929 . S
H665 C648 0.929 . S
H666 C649 0.929 . S
H667 C650 0.931 . S
H668 C658 0.929 . S
H669 C659 0.929 . S
H670 C660 0.931 . S
H671 C661 0.929 . S
Tb672 N701 2.617 . S
Tb672 N707 2.572 . S
Tb672 O716 2.465 . S
Tb672 O717 2.387 . S
Tb672 O719 2.428 . S
Tb672 O720 2.308 . S
Tb672 O724 2.349 . S
Tb672 O727 2.393 . S
Tb672 C736 2.802 . S
C673 N674 1.379 . S
C673 C676 1.416 . S
C673 C680 1.424 . S
N674 C673 1.379 . S
N674 C677 1.334 . S
N674 Tb683 2.617 . S
C675 C677 1.390 . S
C675 C678 1.339 . S
C675 H695 0.930 . S
C676 C673 1.416 . S
C676 C678 1.416 . S
C676 C682 1.448 . S
C677 N674 1.334 . S
C677 C675 1.390 . S
C677 H688 0.930 . S
C678 C675 1.339 . S
C678 C676 1.416 . S
C678 H699 0.930 . S
C679 C680 1.413 . S
C679 C681 1.427 . S
C679 C685 1.416 . S
C680 C673 1.424 . S
C680 C679 1.413 . S
C680 N684 1.361 . S
C681 C679 1.427 . S
C681 C682 1.328 . S
C681 H696 0.929 . S
C682 C676 1.448 . S
C682 C681 1.328 . S
C682 H697 0.930 . S
Tb683 N674 2.617 . S
Tb683 N684 2.572 . S
Tb683 O718 2.349 . S
Tb683 O721 2.393 . S
Tb683 O722 2.465 . S
Tb683 O723 2.387 . S
Tb683 O725 2.428 . S
Tb683 O726 2.308 . S
Tb683 C747 2.802 . S
N684 C680 1.361 . S
N684 Tb683 2.572 . S
N684 C686 1.340 . S
C685 C679 1.416 . S
C685 C687 1.332 . S
C685 H693 0.931 . S
C686 N684 1.340 . S
C686 C687 1.407 . S
C686 H692 0.930 . S
C687 C685 1.332 . S
C687 C686 1.407 . S
C687 H689 0.929 . S
H688 C677 0.930 . S
H689 C687 0.929 . S
H690 C705 0.930 . S
H691 C712 0.929 . S
H692 C686 0.930 . S
H693 C685 0.931 . S
H694 C708 0.930 . S
H695 C675 0.930 . S
H696 C681 0.929 . S
H697 C682 0.930 . S
H698 C703 0.930 . S
H699 C678 0.930 . S
H700 C711 0.931 . S
N701 Tb672 2.617 . S
N701 C702 1.379 . S
N701 C705 1.334 . S
C702 N701 1.379 . S
C702 C704 1.416 . S
C702 C710 1.424 . S
C703 H698 0.930 . S
C703 C705 1.390 . S
C703 C706 1.339 . S
C704 C702 1.416 . S
C704 C706 1.416 . S
C704 C737 1.448 . S
C705 H690 0.930 . S
C705 N701 1.334 . S
C705 C703 1.390 . S
C706 C703 1.339 . S
C706 C704 1.416 . S
C706 H713 0.930 . S
N707 Tb672 2.572 . S
N707 C708 1.340 . S
N707 C710 1.361 . S
C708 H694 0.930 . S
C708 N707 1.340 . S
C708 C712 1.407 . S
C709 C710 1.413 . S
C709 C711 1.416 . S
C709 C738 1.427 . S
C710 C702 1.424 . S
C710 N707 1.361 . S
C710 C709 1.413 . S
C711 H700 0.931 . S
C711 C709 1.416 . S
C711 C712 1.332 . S
C712 H691 0.929 . S
C712 C708 1.407 . S
C712 C711 1.332 . S
H713 C706 0.930 . S
H714 C737 0.930 . S
H715 C738 0.929 . S
O716 Tb672 2.465 . S
O716 C736 1.264 . S
O717 Tb672 2.387 . S
O717 C728 1.264 . S
O718 Tb683 2.349 . S
O718 C728 1.243 . S
O719 Tb672 2.428 . S
O719 C736 1.256 . S
O720 Tb672 2.308 . S
O720 C735 1.266 . S
O721 Tb683 2.393 . S
O721 C735 1.248 . S
O722 Tb683 2.465 . S
O722 C747 1.264 . S
O723 Tb683 2.387 . S
O723 C739 1.264 . S
O724 Tb672 2.349 . S
O724 C739 1.243 . S
O725 Tb683 2.428 . S
O725 C747 1.256 . S
O726 Tb683 2.308 . S
O726 C746 1.266 . S
O727 Tb672 2.393 . S
O727 C746 1.248 . S
C728 O717 1.264 . S
C728 O718 1.243 . S
C729 C732 1.399 . S
C729 C734 1.383 . S
C729 C736 1.496 . S
C730 C731 1.399 . S
C730 C734 1.389 . S
C731 C730 1.399 . S
C731 C733 1.380 . S
C731 H748 0.929 . S
C732 C729 1.399 . S
C732 C733 1.392 . S
C732 H749 0.929 . S
C733 C731 1.380 . S
C733 C732 1.392 . S
C733 H750 0.929 . S
C734 C729 1.383 . S
C734 C730 1.389 . S
C734 H751 0.931 . S
C735 O720 1.266 . S
C735 O721 1.248 . S
C736 Tb672 2.802 . S
C736 O716 1.264 . S
C736 O719 1.256 . S
C736 C729 1.496 . S
C737 C704 1.448 . S
C737 H714 0.930 . S
C737 C738 1.328 . S
C738 C709 1.427 . S
C738 H715 0.929 . S
C738 C737 1.328 . S
C739 O723 1.264 . S
C739 O724 1.243 . S
C740 C743 1.399 . S
C740 C744 1.383 . S
C740 C747 1.496 . S
C741 C742 1.399 . S
C741 C744 1.389 . S
C742 C741 1.399 . S
C742 C745 1.380 . S
C742 H752 0.929 . S
C743 C740 1.399 . S
C743 C745 1.392 . S
C743 H753 0.929 . S
C744 C740 1.383 . S
C744 C741 1.389 . S
C744 H754 0.931 . S
C745 C742 1.380 . S
C745 C743 1.392 . S
C745 H755 0.929 . S
C746 O726 1.266 . S
C746 O727 1.248 . S
C747 Tb683 2.802 . S
C747 O722 1.264 . S
C747 O725 1.256 . S
C747 C740 1.496 . S
H748 C731 0.929 . S
H749 C732 0.929 . S
H750 C733 0.929 . S
H751 C734 0.931 . S
H752 C742 0.929 . S
H753 C743 0.929 . S
H754 C744 0.931 . S
H755 C745 0.929 . S
Tb756 N785 2.617 . S
Tb756 N791 2.572 . S
Tb756 O800 2.465 . S
Tb756 O801 2.387 . S
Tb756 O803 2.428 . S
Tb756 O804 2.308 . S
Tb756 O808 2.349 . S
Tb756 O811 2.393 . S
Tb756 C820 2.802 . S
C757 N758 1.379 . S
C757 C760 1.416 . S
C757 C764 1.424 . S
N758 C757 1.379 . S
N758 C761 1.334 . S
N758 Tb767 2.617 . S
C759 C761 1.390 . S
C759 C762 1.339 . S
C759 H779 0.930 . S
C760 C757 1.416 . S
C760 C762 1.416 . S
C760 C766 1.448 . S
C761 N758 1.334 . S
C761 C759 1.390 . S
C761 H772 0.930 . S
C762 C759 1.339 . S
C762 C760 1.416 . S
C762 H783 0.930 . S
C763 C764 1.413 . S
C763 C765 1.427 . S
C763 C769 1.416 . S
C764 C757 1.424 . S
C764 C763 1.413 . S
C764 N768 1.361 . S
C765 C763 1.427 . S
C765 C766 1.328 . S
C765 H780 0.929 . S
C766 C760 1.448 . S
C766 C765 1.328 . S
C766 H781 0.930 . S
Tb767 N758 2.617 . S
Tb767 N768 2.572 . S
Tb767 O802 2.349 . S
Tb767 O805 2.393 . S
Tb767 O806 2.465 . S
Tb767 O807 2.387 . S
Tb767 O809 2.428 . S
Tb767 O810 2.308 . S
Tb767 C831 2.802 . S
N768 C764 1.361 . S
N768 Tb767 2.572 . S
N768 C770 1.340 . S
C769 C763 1.416 . S
C769 C771 1.332 . S
C769 H777 0.931 . S
C770 N768 1.340 . S
C770 C771 1.407 . S
C770 H776 0.930 . S
C771 C769 1.332 . S
C771 C770 1.407 . S
C771 H773 0.929 . S
H772 C761 0.930 . S
H773 C771 0.929 . S
H774 C789 0.930 . S
H775 C796 0.929 . S
H776 C770 0.930 . S
H777 C769 0.931 . S
H778 C792 0.930 . S
H779 C759 0.930 . S
H780 C765 0.929 . S
H781 C766 0.930 . S
H782 C787 0.930 . S
H783 C762 0.930 . S
H784 C795 0.931 . S
N785 Tb756 2.617 . S
N785 C786 1.379 . S
N785 C789 1.334 . S
C786 N785 1.379 . S
C786 C788 1.416 . S
C786 C794 1.424 . S
C787 H782 0.930 . S
C787 C789 1.390 . S
C787 C790 1.339 . S
C788 C786 1.416 . S
C788 C790 1.416 . S
C788 C821 1.448 . S
C789 H774 0.930 . S
C789 N785 1.334 . S
C789 C787 1.390 . S
C790 C787 1.339 . S
C790 C788 1.416 . S
C790 H797 0.930 . S
N791 Tb756 2.572 . S
N791 C792 1.340 . S
N791 C794 1.361 . S
C792 H778 0.930 . S
C792 N791 1.340 . S
C792 C796 1.407 . S
C793 C794 1.413 . S
C793 C795 1.416 . S
C793 C822 1.427 . S
C794 C786 1.424 . S
C794 N791 1.361 . S
C794 C793 1.413 . S
C795 H784 0.931 . S
C795 C793 1.416 . S
C795 C796 1.332 . S
C796 H775 0.929 . S
C796 C792 1.407 . S
C796 C795 1.332 . S
H797 C790 0.930 . S
H798 C821 0.930 . S
H799 C822 0.929 . S
O800 Tb756 2.465 . S
O800 C820 1.264 . S
O801 Tb756 2.387 . S
O801 C812 1.264 . S
O802 Tb767 2.349 . S
O802 C812 1.243 . S
O803 Tb756 2.428 . S
O803 C820 1.256 . S
O804 Tb756 2.308 . S
O804 C819 1.266 . S
O805 Tb767 2.393 . S
O805 C819 1.248 . S
O806 Tb767 2.465 . S
O806 C831 1.264 . S
O807 Tb767 2.387 . S
O807 C823 1.264 . S
O808 Tb756 2.349 . S
O808 C823 1.243 . S
O809 Tb767 2.428 . S
O809 C831 1.256 . S
O810 Tb767 2.308 . S
O810 C830 1.266 . S
O811 Tb756 2.393 . S
O811 C830 1.248 . S
C812 O801 1.264 . S
C812 O802 1.243 . S
C813 C816 1.399 . S
C813 C818 1.383 . S
C813 C820 1.496 . S
C814 C815 1.399 . S
C814 C818 1.389 . S
C815 C814 1.399 . S
C815 C817 1.380 . S
C815 H832 0.929 . S
C816 C813 1.399 . S
C816 C817 1.392 . S
C816 H833 0.929 . S
C817 C815 1.380 . S
C817 C816 1.392 . S
C817 H834 0.929 . S
C818 C813 1.383 . S
C818 C814 1.389 . S
C818 H835 0.931 . S
C819 O804 1.266 . S
C819 O805 1.248 . S
C820 Tb756 2.802 . S
C820 O800 1.264 . S
C820 O803 1.256 . S
C820 C813 1.496 . S
C821 C788 1.448 . S
C821 H798 0.930 . S
C821 C822 1.328 . S
C822 C793 1.427 . S
C822 H799 0.929 . S
C822 C821 1.328 . S
C823 O807 1.264 . S
C823 O808 1.243 . S
C824 C827 1.399 . S
C824 C828 1.383 . S
C824 C831 1.496 . S
C825 C826 1.399 . S
C825 C828 1.389 . S
C826 C825 1.399 . S
C826 C829 1.380 . S
C826 H836 0.929 . S
C827 C824 1.399 . S
C827 C829 1.392 . S
C827 H837 0.929 . S
C828 C824 1.383 . S
C828 C825 1.389 . S
C828 H838 0.931 . S
C829 C826 1.380 . S
C829 C827 1.392 . S
C829 H839 0.929 . S
C830 O810 1.266 . S
C830 O811 1.248 . S
C831 Tb767 2.802 . S
C831 O806 1.264 . S
C831 O809 1.256 . S
C831 C824 1.496 . S
H832 C815 0.929 . S
H833 C816 0.929 . S
H834 C817 0.929 . S
H835 C818 0.931 . S
H836 C826 0.929 . S
H837 C827 0.929 . S
H838 C828 0.931 . S
H839 C829 0.929 . S
Tb840 N869 2.617 . S
Tb840 N875 2.572 . S
Tb840 O884 2.465 . S
Tb840 O885 2.387 . S
Tb840 O887 2.428 . S
Tb840 O888 2.308 . S
Tb840 O892 2.349 . S
Tb840 O895 2.393 . S
Tb840 C904 2.802 . S
C841 N842 1.379 . S
C841 C844 1.416 . S
C841 C848 1.424 . S
N842 C841 1.379 . S
N842 C845 1.334 . S
N842 Tb851 2.617 . S
C843 C845 1.390 . S
C843 C846 1.339 . S
C843 H863 0.930 . S
C844 C841 1.416 . S
C844 C846 1.416 . S
C844 C850 1.448 . S
C845 N842 1.334 . S
C845 C843 1.390 . S
C845 H856 0.930 . S
C846 C843 1.339 . S
C846 C844 1.416 . S
C846 H867 0.930 . S
C847 C848 1.413 . S
C847 C849 1.427 . S
C847 C853 1.416 . S
C848 C841 1.424 . S
C848 C847 1.413 . S
C848 N852 1.361 . S
C849 C847 1.427 . S
C849 C850 1.328 . S
C849 H864 0.929 . S
C850 C844 1.448 . S
C850 C849 1.328 . S
C850 H865 0.930 . S
Tb851 N842 2.617 . S
Tb851 N852 2.572 . S
Tb851 O886 2.349 . S
Tb851 O889 2.393 . S
Tb851 O890 2.465 . S
Tb851 O891 2.387 . S
Tb851 O893 2.428 . S
Tb851 O894 2.308 . S
Tb851 C915 2.802 . S
N852 C848 1.361 . S
N852 Tb851 2.572 . S
N852 C854 1.340 . S
C853 C847 1.416 . S
C853 C855 1.332 . S
C853 H861 0.931 . S
C854 N852 1.340 . S
C854 C855 1.407 . S
C854 H860 0.930 . S
C855 C853 1.332 . S
C855 C854 1.407 . S
C855 H857 0.929 . S
H856 C845 0.930 . S
H857 C855 0.929 . S
H858 C873 0.930 . S
H859 C880 0.929 . S
H860 C854 0.930 . S
H861 C853 0.931 . S
H862 C876 0.930 . S
H863 C843 0.930 . S
H864 C849 0.929 . S
H865 C850 0.930 . S
H866 C871 0.930 . S
H867 C846 0.930 . S
H868 C879 0.931 . S
N869 Tb840 2.617 . S
N869 C870 1.379 . S
N869 C873 1.334 . S
C870 N869 1.379 . S
C870 C872 1.416 . S
C870 C878 1.424 . S
C871 H866 0.930 . S
C871 C873 1.390 . S
C871 C874 1.339 . S
C872 C870 1.416 . S
C872 C874 1.416 . S
C872 C905 1.448 . S
C873 H858 0.930 . S
C873 N869 1.334 . S
C873 C871 1.390 . S
C874 C871 1.339 . S
C874 C872 1.416 . S
C874 H881 0.930 . S
N875 Tb840 2.572 . S
N875 C876 1.340 . S
N875 C878 1.361 . S
C876 H862 0.930 . S
C876 N875 1.340 . S
C876 C880 1.407 . S
C877 C878 1.413 . S
C877 C879 1.416 . S
C877 C906 1.427 . S
C878 C870 1.424 . S
C878 N875 1.361 . S
C878 C877 1.413 . S
C879 H868 0.931 . S
C879 C877 1.416 . S
C879 C880 1.332 . S
C880 H859 0.929 . S
C880 C876 1.407 . S
C880 C879 1.332 . S
H881 C874 0.930 . S
H882 C905 0.930 . S
H883 C906 0.929 . S
O884 Tb840 2.465 . S
O884 C904 1.264 . S
O885 Tb840 2.387 . S
O885 C896 1.264 . S
O886 Tb851 2.349 . S
O886 C896 1.243 . S
O887 Tb840 2.428 . S
O887 C904 1.256 . S
O888 Tb840 2.308 . S
O888 C903 1.266 . S
O889 Tb851 2.393 . S
O889 C903 1.248 . S
O890 Tb851 2.465 . S
O890 C915 1.264 . S
O891 Tb851 2.387 . S
O891 C907 1.264 . S
O892 Tb840 2.349 . S
O892 C907 1.243 . S
O893 Tb851 2.428 . S
O893 C915 1.256 . S
O894 Tb851 2.308 . S
O894 C914 1.266 . S
O895 Tb840 2.393 . S
O895 C914 1.248 . S
C896 O885 1.264 . S
C896 O886 1.243 . S
C897 C900 1.399 . S
C897 C902 1.383 . S
C897 C904 1.496 . S
C898 C899 1.399 . S
C898 C902 1.389 . S
C899 C898 1.399 . S
C899 C901 1.380 . S
C899 H916 0.929 . S
C900 C897 1.399 . S
C900 C901 1.392 . S
C900 H917 0.929 . S
C901 C899 1.380 . S
C901 C900 1.392 . S
C901 H918 0.929 . S
C902 C897 1.383 . S
C902 C898 1.389 . S
C902 H919 0.931 . S
C903 O888 1.266 . S
C903 O889 1.248 . S
C904 Tb840 2.802 . S
C904 O884 1.264 . S
C904 O887 1.256 . S
C904 C897 1.496 . S
C905 C872 1.448 . S
C905 H882 0.930 . S
C905 C906 1.328 . S
C906 C877 1.427 . S
C906 H883 0.929 . S
C906 C905 1.328 . S
C907 O891 1.264 . S
C907 O892 1.243 . S
C908 C911 1.399 . S
C908 C912 1.383 . S
C908 C915 1.496 . S
C909 C910 1.399 . S
C909 C912 1.389 . S
C910 C909 1.399 . S
C910 C913 1.380 . S
C910 H920 0.929 . S
C911 C908 1.399 . S
C911 C913 1.392 . S
C911 H921 0.929 . S
C912 C908 1.383 . S
C912 C909 1.389 . S
C912 H922 0.931 . S
C913 C910 1.380 . S
C913 C911 1.392 . S
C913 H923 0.929 . S
C914 O894 1.266 . S
C914 O895 1.248 . S
C915 Tb851 2.802 . S
C915 O890 1.264 . S
C915 O893 1.256 . S
C915 C908 1.496 . S
H916 C899 0.929 . S
H917 C900 0.929 . S
H918 C901 0.929 . S
H919 C902 0.931 . S
H920 C910 0.929 . S
H921 C911 0.929 . S
H922 C912 0.931 . S
H923 C913 0.929 . S
Tb924 N953 2.617 . S
Tb924 N959 2.572 . S
Tb924 O968 2.465 . S
Tb924 O969 2.387 . S
Tb924 O971 2.428 . S
Tb924 O972 2.308 . S
Tb924 O976 2.372 . S
Tb924 O979 2.393 . S
Tb924 C988 2.843 . S
C925 N926 1.379 1_554 S
C925 C928 1.416 . S
C925 C932 1.424 . S
N926 C925 1.379 1_556 S
N926 C929 1.334 1_556 S
N926 Tb935 2.617 . S
C927 C929 1.390 . S
C927 C930 1.339 . S
C927 H947 0.930 . S
C928 C925 1.416 . S
C928 C930 1.416 . S
C928 C934 1.448 . S
C929 N926 1.334 1_554 S
C929 C927 1.390 . S
C929 H940 0.930 1_554 S
C930 C927 1.339 . S
C930 C928 1.416 . S
C930 H951 0.930 . S
C931 C932 1.413 . S
C931 C933 1.427 . S
C931 C937 1.416 . S
C932 C925 1.424 . S
C932 C931 1.413 . S
C932 N936 1.361 1_554 S
C933 C931 1.427 . S
C933 C934 1.328 . S
C933 H948 0.929 . S
C934 C928 1.448 . S
C934 C933 1.328 . S
C934 H949 0.930 . S
Tb935 N926 2.617 . S
Tb935 N936 2.572 . S
Tb935 O970 2.349 . S
Tb935 O973 2.393 . S
Tb935 O974 2.465 . S
Tb935 O975 2.387 1_556 S
Tb935 O977 2.428 . S
Tb935 O978 2.308 . S
Tb935 C999 2.802 . S
N936 C932 1.361 1_556 S
N936 Tb935 2.572 . S
N936 C938 1.340 . S
C937 C931 1.416 . S
C937 C939 1.332 1_554 S
C937 H945 0.931 . S
C938 N936 1.340 . S
C938 C939 1.407 . S
C938 H944 0.930 . S
C939 C937 1.332 1_556 S
C939 C938 1.407 . S
C939 H941 0.929 . S
H940 C929 0.930 1_556 S
H941 C939 0.929 . S
H942 C957 0.930 . S
H943 C964 0.929 . S
H944 C938 0.930 . S
H945 C937 0.931 . S
H946 C960 0.930 . S
H947 C927 0.930 . S
H948 C933 0.929 . S
H949 C934 0.930 . S
H950 C955 0.930 . S
H951 C930 0.930 . S
H952 C963 0.931 . S
N953 Tb924 2.617 . S
N953 C954 1.379 . S
N953 C957 1.334 . S
C954 N953 1.379 . S
C954 C956 1.416 . S
C954 C962 1.424 . S
C955 H950 0.930 . S
C955 C957 1.390 . S
C955 C958 1.339 . S
C956 C954 1.416 . S
C956 C958 1.416 . S
C956 C989 1.448 . S
C957 H942 0.930 . S
C957 N953 1.334 . S
C957 C955 1.390 . S
C958 C955 1.339 . S
C958 C956 1.416 . S
C958 H965 0.930 . S
N959 Tb924 2.572 . S
N959 C960 1.340 . S
N959 C962 1.361 . S
C960 H946 0.930 . S
C960 N959 1.340 . S
C960 C964 1.407 . S
C961 C962 1.413 . S
C961 C963 1.416 . S
C961 C990 1.427 . S
C962 C954 1.424 . S
C962 N959 1.361 . S
C962 C961 1.413 . S
C963 H952 0.931 . S
C963 C961 1.416 . S
C963 C964 1.332 . S
C964 H943 0.929 . S
C964 C960 1.407 . S
C964 C963 1.332 . S
H965 C958 0.930 . S
H966 C989 0.930 . S
H967 C990 0.929 . S
O968 Tb924 2.465 . S
O968 C988 1.269 . S
O969 Tb924 2.387 . S
O969 C980 1.264 . S
O970 Tb935 2.349 . S
O970 C980 1.243 . S
O971 Tb924 2.428 . S
O971 C988 1.293 . S
O972 Tb924 2.308 . S
O972 C987 1.266 . S
O973 Tb935 2.393 . S
O973 C987 1.248 . S
O974 Tb935 2.465 . S
O974 C999 1.264 . S
O975 Tb935 2.387 1_554 S
O975 C991 1.264 . S
O976 Tb924 2.372 . S
O976 C991 1.232 1_556 S
O977 Tb935 2.428 . S
O977 C999 1.256 . S
O978 Tb935 2.308 . S
O978 C998 1.266 . S
O979 Tb924 2.393 . S
O979 C998 1.248 . S
C980 O969 1.264 . S
C980 O970 1.243 . S
C981 C984 1.399 . S
C981 C986 1.383 . S
C981 C988 1.456 1_554 S
C982 C983 1.399 . S
C982 C986 1.389 . S
C983 C982 1.399 . S
C983 C985 1.380 . S
C983 H1000 0.929 . S
C984 C981 1.399 . S
C984 C985 1.392 . S
C984 H1001 0.929 . S
C985 C983 1.380 . S
C985 C984 1.392 . S
C985 H1002 0.929 . S
C986 C981 1.383 . S
C986 C982 1.389 . S
C986 H1003 0.931 . S
C987 O972 1.266 . S
C987 O973 1.248 . S
C988 Tb924 2.843 . S
C988 O968 1.269 . S
C988 O971 1.293 . S
C988 C981 1.456 1_556 S
C989 C956 1.448 . S
C989 H966 0.930 . S
C989 C990 1.328 . S
C990 C961 1.427 . S
C990 H967 0.929 . S
C990 C989 1.328 . S
C991 O975 1.264 . S
C991 O976 1.232 1_554 S
C992 C995 1.399 . S
C992 C996 1.383 . S
C992 C999 1.496 . S
C993 C994 1.399 . S
C993 C996 1.389 . S
C994 C993 1.399 . S
C994 C997 1.380 . S
C994 H1004 0.929 . S
C995 C992 1.399 . S
C995 C997 1.392 . S
C995 H1005 0.929 . S
C996 C992 1.383 . S
C996 C993 1.389 . S
C996 H1006 0.931 . S
C997 C994 1.380 . S
C997 C995 1.392 . S
C997 H1007 0.929 . S
C998 O978 1.266 . S
C998 O979 1.248 . S
C999 Tb935 2.802 . S
C999 O974 1.264 . S
C999 O977 1.256 . S
C999 C992 1.496 . S
H1000 C983 0.929 . S
H1001 C984 0.929 . S
H1002 C985 0.929 . S
H1003 C986 0.931 . S
H1004 C994 0.929 . S
H1005 C995 0.929 . S
H1006 C996 0.931 . S
H1007 C997 0.929 . S
Tb1008 N1037 2.617 . S
Tb1008 N1043 2.572 . S
Tb1008 O1052 2.465 . S
Tb1008 O1053 2.387 . S
Tb1008 O1055 2.428 . S
Tb1008 O1056 2.308 . S
Tb1008 O1060 2.349 . S
Tb1008 O1063 2.393 . S
Tb1008 C1072 2.802 . S
C1009 N1010 1.379 . S
C1009 C1012 1.416 . S
C1009 C1016 1.424 . S
N1010 C1009 1.379 . S
N1010 C1013 1.334 . S
N1010 Tb1019 2.617 . S
C1011 C1013 1.390 . S
C1011 C1014 1.339 . S
C1011 H1031 0.930 . S
C1012 C1009 1.416 . S
C1012 C1014 1.416 . S
C1012 C1018 1.448 . S
C1013 N1010 1.334 . S
C1013 C1011 1.390 . S
C1013 H1024 0.930 . S
C1014 C1011 1.339 . S
C1014 C1012 1.416 . S
C1014 H1035 0.930 . S
C1015 C1016 1.413 . S
C1015 C1017 1.427 . S
C1015 C1021 1.416 . S
C1016 C1009 1.424 . S
C1016 C1015 1.413 . S
C1016 N1020 1.361 . S
C1017 C1015 1.427 . S
C1017 C1018 1.328 . S
C1017 H1032 0.929 . S
C1018 C1012 1.448 . S
C1018 C1017 1.328 . S
C1018 H1033 0.930 . S
Tb1019 N1010 2.617 . S
Tb1019 N1020 2.572 . S
Tb1019 O1054 2.349 . S
Tb1019 O1057 2.393 . S
Tb1019 O1058 2.465 . S
Tb1019 O1059 2.387 . S
Tb1019 O1061 2.428 . S
Tb1019 O1062 2.308 . S
Tb1019 C1083 2.802 . S
N1020 C1016 1.361 . S
N1020 Tb1019 2.572 . S
N1020 C1022 1.340 . S
C1021 C1015 1.416 . S
C1021 C1023 1.332 . S
C1021 H1029 0.931 . S
C1022 N1020 1.340 . S
C1022 C1023 1.407 . S
C1022 H1028 0.930 . S
C1023 C1021 1.332 . S
C1023 C1022 1.407 . S
C1023 H1025 0.929 . S
H1024 C1013 0.930 . S
H1025 C1023 0.929 . S
H1026 C1041 0.930 . S
H1027 C1048 0.929 . S
H1028 C1022 0.930 . S
H1029 C1021 0.931 . S
H1030 C1044 0.930 . S
H1031 C1011 0.930 . S
H1032 C1017 0.929 . S
H1033 C1018 0.930 . S
H1034 C1039 0.930 . S
H1035 C1014 0.930 . S
H1036 C1047 0.931 . S
N1037 Tb1008 2.617 . S
N1037 C1038 1.379 . S
N1037 C1041 1.334 . S
C1038 N1037 1.379 . S
C1038 C1040 1.416 . S
C1038 C1046 1.424 . S
C1039 H1034 0.930 . S
C1039 C1041 1.390 . S
C1039 C1042 1.339 . S
C1040 C1038 1.416 . S
C1040 C1042 1.416 . S
C1040 C1073 1.448 . S
C1041 H1026 0.930 . S
C1041 N1037 1.334 . S
C1041 C1039 1.390 . S
C1042 C1039 1.339 . S
C1042 C1040 1.416 . S
C1042 H1049 0.930 . S
N1043 Tb1008 2.572 . S
N1043 C1044 1.340 . S
N1043 C1046 1.361 . S
C1044 H1030 0.930 . S
C1044 N1043 1.340 . S
C1044 C1048 1.407 . S
C1045 C1046 1.413 . S
C1045 C1047 1.416 . S
C1045 C1074 1.427 . S
C1046 C1038 1.424 . S
C1046 N1043 1.361 . S
C1046 C1045 1.413 . S
C1047 H1036 0.931 . S
C1047 C1045 1.416 . S
C1047 C1048 1.332 . S
C1048 H1027 0.929 . S
C1048 C1044 1.407 . S
C1048 C1047 1.332 . S
H1049 C1042 0.930 . S
H1050 C1073 0.930 . S
H1051 C1074 0.929 . S
O1052 Tb1008 2.465 . S
O1052 C1072 1.264 . S
O1053 Tb1008 2.387 . S
O1053 C1064 1.264 . S
O1054 Tb1019 2.349 . S
O1054 C1064 1.243 . S
O1055 Tb1008 2.428 . S
O1055 C1072 1.256 . S
O1056 Tb1008 2.308 . S
O1056 C1071 1.266 . S
O1057 Tb1019 2.393 . S
O1057 C1071 1.248 . S
O1058 Tb1019 2.465 . S
O1058 C1083 1.264 . S
O1059 Tb1019 2.387 . S
O1059 C1075 1.264 . S
O1060 Tb1008 2.349 . S
O1060 C1075 1.243 . S
O1061 Tb1019 2.428 . S
O1061 C1083 1.256 . S
O1062 Tb1019 2.308 . S
O1062 C1082 1.266 . S
O1063 Tb1008 2.393 . S
O1063 C1082 1.248 . S
C1064 O1053 1.264 . S
C1064 O1054 1.243 . S
C1065 C1068 1.399 . S
C1065 C1070 1.383 . S
C1065 C1072 1.496 . S
C1066 C1067 1.399 . S
C1066 C1070 1.389 . S
C1067 C1066 1.399 . S
C1067 C1069 1.380 . S
C1067 H1084 0.929 . S
C1068 C1065 1.399 . S
C1068 C1069 1.392 . S
C1068 H1085 0.929 . S
C1069 C1067 1.380 . S
C1069 C1068 1.392 . S
C1069 H1086 0.929 . S
C1070 C1065 1.383 . S
C1070 C1066 1.389 . S
C1070 H1087 0.931 . S
C1071 O1056 1.266 . S
C1071 O1057 1.248 . S
C1072 Tb1008 2.802 . S
C1072 O1052 1.264 . S
C1072 O1055 1.256 . S
C1072 C1065 1.496 . S
C1073 C1040 1.448 . S
C1073 H1050 0.930 . S
C1073 C1074 1.328 . S
C1074 C1045 1.427 . S
C1074 H1051 0.929 . S
C1074 C1073 1.328 . S
C1075 O1059 1.264 . S
C1075 O1060 1.243 . S
C1076 C1079 1.399 . S
C1076 C1080 1.383 . S
C1076 C1083 1.496 . S
C1077 C1078 1.399 . S
C1077 C1080 1.389 . S
C1078 C1077 1.399 . S
C1078 C1081 1.380 . S
C1078 H1088 0.929 . S
C1079 C1076 1.399 . S
C1079 C1081 1.392 . S
C1079 H1089 0.929 . S
C1080 C1076 1.383 . S
C1080 C1077 1.389 . S
C1080 H1090 0.931 . S
C1081 C1078 1.380 . S
C1081 C1079 1.392 . S
C1081 H1091 0.929 . S
C1082 O1062 1.266 . S
C1082 O1063 1.248 . S
C1083 Tb1019 2.802 . S
C1083 O1058 1.264 . S
C1083 O1061 1.256 . S
C1083 C1076 1.496 . S
H1084 C1067 0.929 . S
H1085 C1068 0.929 . S
H1086 C1069 0.929 . S
H1087 C1070 0.931 . S
H1088 C1078 0.929 . S
H1089 C1079 0.929 . S
H1090 C1080 0.931 . S
H1091 C1081 0.929 . S
Tb1092 N1121 2.617 . S
Tb1092 N1127 2.572 . S
Tb1092 O1136 2.465 . S
Tb1092 O1137 2.387 . S
Tb1092 O1139 2.428 . S
Tb1092 O1140 2.308 . S
Tb1092 O1144 2.349 . S
Tb1092 O1147 2.393 . S
Tb1092 C1156 2.802 . S
C1093 N1094 1.379 . S
C1093 C1096 1.416 . S
C1093 C1100 1.424 . S
N1094 C1093 1.379 . S
N1094 C1097 1.334 . S
N1094 Tb1103 2.617 . S
C1095 C1097 1.390 . S
C1095 C1098 1.339 . S
C1095 H1115 0.930 . S
C1096 C1093 1.416 . S
C1096 C1098 1.416 . S
C1096 C1102 1.448 . S
C1097 N1094 1.334 . S
C1097 C1095 1.390 . S
C1097 H1108 0.930 . S
C1098 C1095 1.339 . S
C1098 C1096 1.416 . S
C1098 H1119 0.930 . S
C1099 C1100 1.413 . S
C1099 C1101 1.427 . S
C1099 C1105 1.416 . S
C1100 C1093 1.424 . S
C1100 C1099 1.413 . S
C1100 N1104 1.361 . S
C1101 C1099 1.427 . S
C1101 C1102 1.328 . S
C1101 H1116 0.929 . S
C1102 C1096 1.448 . S
C1102 C1101 1.328 . S
C1102 H1117 0.930 . S
Tb1103 N1094 2.617 . S
Tb1103 N1104 2.572 . S
Tb1103 O1138 2.349 . S
Tb1103 O1141 2.393 . S
Tb1103 O1142 2.465 . S
Tb1103 O1143 2.387 . S
Tb1103 O1145 2.428 . S
Tb1103 O1146 2.308 . S
Tb1103 C1167 2.802 . S
N1104 C1100 1.361 . S
N1104 Tb1103 2.572 . S
N1104 C1106 1.340 . S
C1105 C1099 1.416 . S
C1105 C1107 1.332 . S
C1105 H1113 0.931 . S
C1106 N1104 1.340 . S
C1106 C1107 1.407 . S
C1106 H1112 0.930 . S
C1107 C1105 1.332 . S
C1107 C1106 1.407 . S
C1107 H1109 0.929 . S
H1108 C1097 0.930 . S
H1109 C1107 0.929 . S
H1110 C1125 0.930 . S
H1111 C1132 0.929 . S
H1112 C1106 0.930 . S
H1113 C1105 0.931 . S
H1114 C1128 0.930 . S
H1115 C1095 0.930 . S
H1116 C1101 0.929 . S
H1117 C1102 0.930 . S
H1118 C1123 0.930 . S
H1119 C1098 0.930 . S
H1120 C1131 0.931 . S
N1121 Tb1092 2.617 . S
N1121 C1122 1.379 . S
N1121 C1125 1.334 . S
C1122 N1121 1.379 . S
C1122 C1124 1.416 . S
C1122 C1130 1.424 . S
C1123 H1118 0.930 . S
C1123 C1125 1.390 . S
C1123 C1126 1.339 . S
C1124 C1122 1.416 . S
C1124 C1126 1.416 . S
C1124 C1157 1.448 . S
C1125 H1110 0.930 . S
C1125 N1121 1.334 . S
C1125 C1123 1.390 . S
C1126 C1123 1.339 . S
C1126 C1124 1.416 . S
C1126 H1133 0.930 . S
N1127 Tb1092 2.572 . S
N1127 C1128 1.340 . S
N1127 C1130 1.361 . S
C1128 H1114 0.930 . S
C1128 N1127 1.340 . S
C1128 C1132 1.407 . S
C1129 C1130 1.413 . S
C1129 C1131 1.416 . S
C1129 C1158 1.427 . S
C1130 C1122 1.424 . S
C1130 N1127 1.361 . S
C1130 C1129 1.413 . S
C1131 H1120 0.931 . S
C1131 C1129 1.416 . S
C1131 C1132 1.332 . S
C1132 H1111 0.929 . S
C1132 C1128 1.407 . S
C1132 C1131 1.332 . S
H1133 C1126 0.930 . S
H1134 C1157 0.930 . S
H1135 C1158 0.929 . S
O1136 Tb1092 2.465 . S
O1136 C1156 1.264 . S
O1137 Tb1092 2.387 . S
O1137 C1148 1.264 . S
O1138 Tb1103 2.349 . S
O1138 C1148 1.243 . S
O1139 Tb1092 2.428 . S
O1139 C1156 1.256 . S
O1140 Tb1092 2.308 . S
O1140 C1155 1.266 . S
O1141 Tb1103 2.393 . S
O1141 C1155 1.248 . S
O1142 Tb1103 2.465 . S
O1142 C1167 1.264 . S
O1143 Tb1103 2.387 . S
O1143 C1159 1.264 . S
O1144 Tb1092 2.349 . S
O1144 C1159 1.243 . S
O1145 Tb1103 2.428 . S
O1145 C1167 1.256 . S
O1146 Tb1103 2.308 . S
O1146 C1166 1.266 . S
O1147 Tb1092 2.393 . S
O1147 C1166 1.248 . S
C1148 O1137 1.264 . S
C1148 O1138 1.243 . S
C1149 C1152 1.399 . S
C1149 C1154 1.383 . S
C1149 C1156 1.496 . S
C1150 C1151 1.399 . S
C1150 C1154 1.389 . S
C1151 C1150 1.399 . S
C1151 C1153 1.380 . S
C1151 H1168 0.929 . S
C1152 C1149 1.399 . S
C1152 C1153 1.392 . S
C1152 H1169 0.929 . S
C1153 C1151 1.380 . S
C1153 C1152 1.392 . S
C1153 H1170 0.929 . S
C1154 C1149 1.383 . S
C1154 C1150 1.389 . S
C1154 H1171 0.931 . S
C1155 O1140 1.266 . S
C1155 O1141 1.248 . S
C1156 Tb1092 2.802 . S
C1156 O1136 1.264 . S
C1156 O1139 1.256 . S
C1156 C1149 1.496 . S
C1157 C1124 1.448 . S
C1157 H1134 0.930 . S
C1157 C1158 1.328 . S
C1158 C1129 1.427 . S
C1158 H1135 0.929 . S
C1158 C1157 1.328 . S
C1159 O1143 1.264 . S
C1159 O1144 1.243 . S
C1160 C1163 1.399 . S
C1160 C1164 1.383 . S
C1160 C1167 1.496 . S
C1161 C1162 1.399 . S
C1161 C1164 1.389 . S
C1162 C1161 1.399 . S
C1162 C1165 1.380 . S
C1162 H1172 0.929 . S
C1163 C1160 1.399 . S
C1163 C1165 1.392 . S
C1163 H1173 0.929 . S
C1164 C1160 1.383 . S
C1164 C1161 1.389 . S
C1164 H1174 0.931 . S
C1165 C1162 1.380 . S
C1165 C1163 1.392 . S
C1165 H1175 0.929 . S
C1166 O1146 1.266 . S
C1166 O1147 1.248 . S
C1167 Tb1103 2.802 . S
C1167 O1142 1.264 . S
C1167 O1145 1.256 . S
C1167 C1160 1.496 . S
H1168 C1151 0.929 . S
H1169 C1152 0.929 . S
H1170 C1153 0.929 . S
H1171 C1154 0.931 . S
H1172 C1162 0.929 . S
H1173 C1163 0.929 . S
H1174 C1164 0.931 . S
H1175 C1165 0.929 . S
Tb1176 N1205 2.617 . S
Tb1176 N1211 2.572 . S
Tb1176 O1220 2.465 . S
Tb1176 O1221 2.387 . S
Tb1176 O1223 2.428 . S
Tb1176 O1224 2.308 . S
Tb1176 O1228 2.349 . S
Tb1176 O1231 2.393 . S
Tb1176 C1240 2.802 . S
C1177 N1178 1.379 . S
C1177 C1180 1.416 . S
C1177 C1184 1.424 . S
N1178 C1177 1.379 . S
N1178 C1181 1.334 . S
N1178 Tb1187 2.617 . S
C1179 C1181 1.390 . S
C1179 C1182 1.339 . S
C1179 H1199 0.930 . S
C1180 C1177 1.416 . S
C1180 C1182 1.416 . S
C1180 C1186 1.448 . S
C1181 N1178 1.334 . S
C1181 C1179 1.390 . S
C1181 H1192 0.930 . S
C1182 C1179 1.339 . S
C1182 C1180 1.416 . S
C1182 H1203 0.930 . S
C1183 C1184 1.413 . S
C1183 C1185 1.427 . S
C1183 C1189 1.416 . S
C1184 C1177 1.424 . S
C1184 C1183 1.413 . S
C1184 N1188 1.361 . S
C1185 C1183 1.427 . S
C1185 C1186 1.328 . S
C1185 H1200 0.929 . S
C1186 C1180 1.448 . S
C1186 C1185 1.328 . S
C1186 H1201 0.930 . S
Tb1187 N1178 2.617 . S
Tb1187 N1188 2.572 . S
Tb1187 O1222 2.349 . S
Tb1187 O1225 2.393 . S
Tb1187 O1226 2.465 . S
Tb1187 O1227 2.387 . S
Tb1187 O1229 2.428 . S
Tb1187 O1230 2.308 . S
Tb1187 C1251 2.802 . S
N1188 C1184 1.361 . S
N1188 Tb1187 2.572 . S
N1188 C1190 1.340 . S
C1189 C1183 1.416 . S
C1189 C1191 1.332 . S
C1189 H1197 0.931 . S
C1190 N1188 1.340 . S
C1190 C1191 1.407 . S
C1190 H1196 0.930 . S
C1191 C1189 1.332 . S
C1191 C1190 1.407 . S
C1191 H1193 0.929 . S
H1192 C1181 0.930 . S
H1193 C1191 0.929 . S
H1194 C1209 0.930 . S
H1195 C1216 0.929 . S
H1196 C1190 0.930 . S
H1197 C1189 0.931 . S
H1198 C1212 0.930 . S
H1199 C1179 0.930 . S
H1200 C1185 0.929 . S
H1201 C1186 0.930 . S
H1202 C1207 0.930 . S
H1203 C1182 0.930 . S
H1204 C1215 0.931 . S
N1205 Tb1176 2.617 . S
N1205 C1206 1.379 . S
N1205 C1209 1.334 . S
C1206 N1205 1.379 . S
C1206 C1208 1.416 . S
C1206 C1214 1.424 . S
C1207 H1202 0.930 . S
C1207 C1209 1.390 . S
C1207 C1210 1.339 . S
C1208 C1206 1.416 . S
C1208 C1210 1.416 . S
C1208 C1241 1.448 . S
C1209 H1194 0.930 . S
C1209 N1205 1.334 . S
C1209 C1207 1.390 . S
C1210 C1207 1.339 . S
C1210 C1208 1.416 . S
C1210 H1217 0.930 . S
N1211 Tb1176 2.572 . S
N1211 C1212 1.340 . S
N1211 C1214 1.361 . S
C1212 H1198 0.930 . S
C1212 N1211 1.340 . S
C1212 C1216 1.407 . S
C1213 C1214 1.413 . S
C1213 C1215 1.416 . S
C1213 C1242 1.427 . S
C1214 C1206 1.424 . S
C1214 N1211 1.361 . S
C1214 C1213 1.413 . S
C1215 H1204 0.931 . S
C1215 C1213 1.416 . S
C1215 C1216 1.332 . S
C1216 H1195 0.929 . S
C1216 C1212 1.407 . S
C1216 C1215 1.332 . S
H1217 C1210 0.930 . S
H1218 C1241 0.930 . S
H1219 C1242 0.929 . S
O1220 Tb1176 2.465 . S
O1220 C1240 1.264 . S
O1221 Tb1176 2.387 . S
O1221 C1232 1.264 . S
O1222 Tb1187 2.349 . S
O1222 C1232 1.243 . S
O1223 Tb1176 2.428 . S
O1223 C1240 1.256 . S
O1224 Tb1176 2.308 . S
O1224 C1239 1.266 . S
O1225 Tb1187 2.393 . S
O1225 C1239 1.248 . S
O1226 Tb1187 2.465 . S
O1226 C1251 1.264 . S
O1227 Tb1187 2.387 . S
O1227 C1243 1.264 . S
O1228 Tb1176 2.349 . S
O1228 C1243 1.243 . S
O1229 Tb1187 2.428 . S
O1229 C1251 1.256 . S
O1230 Tb1187 2.308 . S
O1230 C1250 1.266 . S
O1231 Tb1176 2.393 . S
O1231 C1250 1.248 . S
C1232 O1221 1.264 . S
C1232 O1222 1.243 . S
C1233 C1236 1.399 . S
C1233 C1238 1.383 . S
C1233 C1240 1.496 . S
C1234 C1235 1.399 . S
C1234 C1238 1.389 . S
C1235 C1234 1.399 . S
C1235 C1237 1.380 . S
C1235 H1252 0.929 . S
C1236 C1233 1.399 . S
C1236 C1237 1.392 . S
C1236 H1253 0.929 . S
C1237 C1235 1.380 . S
C1237 C1236 1.392 . S
C1237 H1254 0.929 . S
C1238 C1233 1.383 . S
C1238 C1234 1.389 . S
C1238 H1255 0.931 . S
C1239 O1224 1.266 . S
C1239 O1225 1.248 . S
C1240 Tb1176 2.802 . S
C1240 O1220 1.264 . S
C1240 O1223 1.256 . S
C1240 C1233 1.496 . S
C1241 C1208 1.448 . S
C1241 H1218 0.930 . S
C1241 C1242 1.328 . S
C1242 C1213 1.427 . S
C1242 H1219 0.929 . S
C1242 C1241 1.328 . S
C1243 O1227 1.264 . S
C1243 O1228 1.243 . S
C1244 C1247 1.399 . S
C1244 C1248 1.383 . S
C1244 C1251 1.496 . S
C1245 C1246 1.399 . S
C1245 C1248 1.389 . S
C1246 C1245 1.399 . S
C1246 C1249 1.380 . S
C1246 H1256 0.929 . S
C1247 C1244 1.399 . S
C1247 C1249 1.392 . S
C1247 H1257 0.929 . S
C1248 C1244 1.383 . S
C1248 C1245 1.389 . S
C1248 H1258 0.931 . S
C1249 C1246 1.380 . S
C1249 C1247 1.392 . S
C1249 H1259 0.929 . S
C1250 O1230 1.266 . S
C1250 O1231 1.248 . S
C1251 Tb1187 2.802 . S
C1251 O1226 1.264 . S
C1251 O1229 1.256 . S
C1251 C1244 1.496 . S
H1252 C1235 0.929 . S
H1253 C1236 0.929 . S
H1254 C1237 0.929 . S
H1255 C1238 0.931 . S
H1256 C1246 0.929 . S
H1257 C1247 0.929 . S
H1258 C1248 0.931 . S
H1259 C1249 0.929 . S
Tb1260 N1289 2.617 . S
Tb1260 N1295 2.572 . S
Tb1260 O1304 2.465 . S
Tb1260 O1305 2.387 . S
Tb1260 O1307 2.428 . S
Tb1260 O1308 2.308 . S
Tb1260 O1312 2.372 . S
Tb1260 O1315 2.393 . S
Tb1260 C1324 2.843 . S
C1261 N1262 1.379 1_556 S
C1261 C1264 1.416 . S
C1261 C1268 1.424 . S
N1262 C1261 1.379 1_554 S
N1262 C1265 1.334 1_554 S
N1262 Tb1271 2.617 . S
C1263 C1265 1.390 . S
C1263 C1266 1.339 . S
C1263 H1283 0.930 . S
C1264 C1261 1.416 . S
C1264 C1266 1.416 . S
C1264 C1270 1.448 . S
C1265 N1262 1.334 1_556 S
C1265 C1263 1.390 . S
C1265 H1276 0.930 1_556 S
C1266 C1263 1.339 . S
C1266 C1264 1.416 . S
C1266 H1287 0.930 . S
C1267 C1268 1.413 . S
C1267 C1269 1.427 . S
C1267 C1273 1.416 . S
C1268 C1261 1.424 . S
C1268 C1267 1.413 . S
C1268 N1272 1.361 1_556 S
C1269 C1267 1.427 . S
C1269 C1270 1.328 . S
C1269 H1284 0.929 . S
C1270 C1264 1.448 . S
C1270 C1269 1.328 . S
C1270 H1285 0.930 . S
Tb1271 N1262 2.617 . S
Tb1271 N1272 2.572 . S
Tb1271 O1306 2.349 . S
Tb1271 O1309 2.393 . S
Tb1271 O1310 2.465 . S
Tb1271 O1311 2.387 1_554 S
Tb1271 O1313 2.428 . S
Tb1271 O1314 2.308 . S
Tb1271 C1335 2.802 . S
N1272 C1268 1.361 1_554 S
N1272 Tb1271 2.572 . S
N1272 C1274 1.340 . S
C1273 C1267 1.416 . S
C1273 C1275 1.332 1_556 S
C1273 H1281 0.931 . S
C1274 N1272 1.340 . S
C1274 C1275 1.407 . S
C1274 H1280 0.930 . S
C1275 C1273 1.332 1_554 S
C1275 C1274 1.407 . S
C1275 H1277 0.929 . S
H1276 C1265 0.930 1_554 S
H1277 C1275 0.929 . S
H1278 C1293 0.930 . S
H1279 C1300 0.929 . S
H1280 C1274 0.930 . S
H1281 C1273 0.931 . S
H1282 C1296 0.930 . S
H1283 C1263 0.930 . S
H1284 C1269 0.929 . S
H1285 C1270 0.930 . S
H1286 C1291 0.930 . S
H1287 C1266 0.930 . S
H1288 C1299 0.931 . S
N1289 Tb1260 2.617 . S
N1289 C1290 1.379 . S
N1289 C1293 1.334 . S
C1290 N1289 1.379 . S
C1290 C1292 1.416 . S
C1290 C1298 1.424 . S
C1291 H1286 0.930 . S
C1291 C1293 1.390 . S
C1291 C1294 1.339 . S
C1292 C1290 1.416 . S
C1292 C1294 1.416 . S
C1292 C1325 1.448 . S
C1293 H1278 0.930 . S
C1293 N1289 1.334 . S
C1293 C1291 1.390 . S
C1294 C1291 1.339 . S
C1294 C1292 1.416 . S
C1294 H1301 0.930 . S
N1295 Tb1260 2.572 . S
N1295 C1296 1.340 . S
N1295 C1298 1.361 . S
C1296 H1282 0.930 . S
C1296 N1295 1.340 . S
C1296 C1300 1.407 . S
C1297 C1298 1.413 . S
C1297 C1299 1.416 . S
C1297 C1326 1.427 . S
C1298 C1290 1.424 . S
C1298 N1295 1.361 . S
C1298 C1297 1.413 . S
C1299 H1288 0.931 . S
C1299 C1297 1.416 . S
C1299 C1300 1.332 . S
C1300 H1279 0.929 . S
C1300 C1296 1.407 . S
C1300 C1299 1.332 . S
H1301 C1294 0.930 . S
H1302 C1325 0.930 . S
H1303 C1326 0.929 . S
O1304 Tb1260 2.465 . S
O1304 C1324 1.269 . S
O1305 Tb1260 2.387 . S
O1305 C1316 1.264 . S
O1306 Tb1271 2.349 . S
O1306 C1316 1.243 . S
O1307 Tb1260 2.428 . S
O1307 C1324 1.293 . S
O1308 Tb1260 2.308 . S
O1308 C1323 1.266 . S
O1309 Tb1271 2.393 . S
O1309 C1323 1.248 . S
O1310 Tb1271 2.465 . S
O1310 C1335 1.264 . S
O1311 Tb1271 2.387 1_556 S
O1311 C1327 1.264 . S
O1312 Tb1260 2.372 . S
O1312 C1327 1.232 1_554 S
O1313 Tb1271 2.428 . S
O1313 C1335 1.256 . S
O1314 Tb1271 2.308 . S
O1314 C1334 1.266 . S
O1315 Tb1260 2.393 . S
O1315 C1334 1.248 . S
C1316 O1305 1.264 . S
C1316 O1306 1.243 . S
C1317 C1320 1.399 . S
C1317 C1322 1.383 . S
C1317 C1324 1.456 1_556 S
C1318 C1319 1.399 . S
C1318 C1322 1.389 . S
C1319 C1318 1.399 . S
C1319 C1321 1.380 . S
C1319 H1336 0.929 . S
C1320 C1317 1.399 . S
C1320 C1321 1.392 . S
C1320 H1337 0.929 . S
C1321 C1319 1.380 . S
C1321 C1320 1.392 . S
C1321 H1338 0.929 . S
C1322 C1317 1.383 . S
C1322 C1318 1.389 . S
C1322 H1339 0.931 . S
C1323 O1308 1.266 . S
C1323 O1309 1.248 . S
C1324 Tb1260 2.843 . S
C1324 O1304 1.269 . S
C1324 O1307 1.293 . S
C1324 C1317 1.456 1_554 S
C1325 C1292 1.448 . S
C1325 H1302 0.930 . S
C1325 C1326 1.328 . S
C1326 C1297 1.427 . S
C1326 H1303 0.929 . S
C1326 C1325 1.328 . S
C1327 O1311 1.264 . S
C1327 O1312 1.232 1_556 S
C1328 C1331 1.399 . S
C1328 C1332 1.383 . S
C1328 C1335 1.496 . S
C1329 C1330 1.399 . S
C1329 C1332 1.389 . S
C1330 C1329 1.399 . S
C1330 C1333 1.380 . S
C1330 H1340 0.929 . S
C1331 C1328 1.399 . S
C1331 C1333 1.392 . S
C1331 H1341 0.929 . S
C1332 C1328 1.383 . S
C1332 C1329 1.389 . S
C1332 H1342 0.931 . S
C1333 C1330 1.380 . S
C1333 C1331 1.392 . S
C1333 H1343 0.929 . S
C1334 O1314 1.266 . S
C1334 O1315 1.248 . S
C1335 Tb1271 2.802 . S
C1335 O1310 1.264 . S
C1335 O1313 1.256 . S
C1335 C1328 1.496 . S
H1336 C1319 0.929 . S
H1337 C1320 0.929 . S
H1338 C1321 0.929 . S
H1339 C1322 0.931 . S
H1340 C1330 0.929 . S
H1341 C1331 0.929 . S
H1342 C1332 0.931 . S
H1343 C1333 0.929 . S
Tb1344 N1373 2.617 . S
Tb1344 N1379 2.572 . S
Tb1344 O1388 2.465 . S
Tb1344 O1389 2.387 . S
Tb1344 O1391 2.428 . S
Tb1344 O1392 2.308 . S
Tb1344 O1396 2.349 . S
Tb1344 O1399 2.393 . S
Tb1344 C1408 2.802 . S
C1345 N1346 1.379 . S
C1345 C1348 1.416 . S
C1345 C1352 1.424 . S
N1346 C1345 1.379 . S
N1346 C1349 1.334 . S
N1346 Tb1355 2.617 . S
C1347 C1349 1.390 . S
C1347 C1350 1.339 . S
C1347 H1367 0.930 . S
C1348 C1345 1.416 . S
C1348 C1350 1.416 . S
C1348 C1354 1.448 . S
C1349 N1346 1.334 . S
C1349 C1347 1.390 . S
C1349 H1360 0.930 . S
C1350 C1347 1.339 . S
C1350 C1348 1.416 . S
C1350 H1371 0.930 . S
C1351 C1352 1.413 . S
C1351 C1353 1.427 . S
C1351 C1357 1.416 . S
C1352 C1345 1.424 . S
C1352 C1351 1.413 . S
C1352 N1356 1.361 . S
C1353 C1351 1.427 . S
C1353 C1354 1.328 . S
C1353 H1368 0.929 . S
C1354 C1348 1.448 . S
C1354 C1353 1.328 . S
C1354 H1369 0.930 . S
Tb1355 N1346 2.617 . S
Tb1355 N1356 2.572 . S
Tb1355 O1390 2.349 . S
Tb1355 O1393 2.393 . S
Tb1355 O1394 2.465 . S
Tb1355 O1395 2.387 . S
Tb1355 O1397 2.428 . S
Tb1355 O1398 2.308 . S
Tb1355 C1419 2.802 . S
N1356 C1352 1.361 . S
N1356 Tb1355 2.572 . S
N1356 C1358 1.340 . S
C1357 C1351 1.416 . S
C1357 C1359 1.332 . S
C1357 H1365 0.931 . S
C1358 N1356 1.340 . S
C1358 C1359 1.407 . S
C1358 H1364 0.930 . S
C1359 C1357 1.332 . S
C1359 C1358 1.407 . S
C1359 H1361 0.929 . S
H1360 C1349 0.930 . S
H1361 C1359 0.929 . S
H1362 C1377 0.930 . S
H1363 C1384 0.929 . S
H1364 C1358 0.930 . S
H1365 C1357 0.931 . S
H1366 C1380 0.930 . S
H1367 C1347 0.930 . S
H1368 C1353 0.929 . S
H1369 C1354 0.930 . S
H1370 C1375 0.930 . S
H1371 C1350 0.930 . S
H1372 C1383 0.931 . S
N1373 Tb1344 2.617 . S
N1373 C1374 1.379 . S
N1373 C1377 1.334 . S
C1374 N1373 1.379 . S
C1374 C1376 1.416 . S
C1374 C1382 1.424 . S
C1375 H1370 0.930 . S
C1375 C1377 1.390 . S
C1375 C1378 1.339 . S
C1376 C1374 1.416 . S
C1376 C1378 1.416 . S
C1376 C1409 1.448 . S
C1377 H1362 0.930 . S
C1377 N1373 1.334 . S
C1377 C1375 1.390 . S
C1378 C1375 1.339 . S
C1378 C1376 1.416 . S
C1378 H1385 0.930 . S
N1379 Tb1344 2.572 . S
N1379 C1380 1.340 . S
N1379 C1382 1.361 . S
C1380 H1366 0.930 . S
C1380 N1379 1.340 . S
C1380 C1384 1.407 . S
C1381 C1382 1.413 . S
C1381 C1383 1.416 . S
C1381 C1410 1.427 . S
C1382 C1374 1.424 . S
C1382 N1379 1.361 . S
C1382 C1381 1.413 . S
C1383 H1372 0.931 . S
C1383 C1381 1.416 . S
C1383 C1384 1.332 . S
C1384 H1363 0.929 . S
C1384 C1380 1.407 . S
C1384 C1383 1.332 . S
H1385 C1378 0.930 . S
H1386 C1409 0.930 . S
H1387 C1410 0.929 . S
O1388 Tb1344 2.465 . S
O1388 C1408 1.264 . S
O1389 Tb1344 2.387 . S
O1389 C1400 1.264 . S
O1390 Tb1355 2.349 . S
O1390 C1400 1.243 . S
O1391 Tb1344 2.428 . S
O1391 C1408 1.256 . S
O1392 Tb1344 2.308 . S
O1392 C1407 1.266 . S
O1393 Tb1355 2.393 . S
O1393 C1407 1.248 . S
O1394 Tb1355 2.465 . S
O1394 C1419 1.264 . S
O1395 Tb1355 2.387 . S
O1395 C1411 1.264 . S
O1396 Tb1344 2.349 . S
O1396 C1411 1.243 . S
O1397 Tb1355 2.428 . S
O1397 C1419 1.256 . S
O1398 Tb1355 2.308 . S
O1398 C1418 1.266 . S
O1399 Tb1344 2.393 . S
O1399 C1418 1.248 . S
C1400 O1389 1.264 . S
C1400 O1390 1.243 . S
C1401 C1404 1.399 . S
C1401 C1406 1.383 . S
C1401 C1408 1.496 . S
C1402 C1403 1.399 . S
C1402 C1406 1.389 . S
C1403 C1402 1.399 . S
C1403 C1405 1.380 . S
C1403 H1420 0.929 . S
C1404 C1401 1.399 . S
C1404 C1405 1.392 . S
C1404 H1421 0.929 . S
C1405 C1403 1.380 . S
C1405 C1404 1.392 . S
C1405 H1422 0.929 . S
C1406 C1401 1.383 . S
C1406 C1402 1.389 . S
C1406 H1423 0.931 . S
C1407 O1392 1.266 . S
C1407 O1393 1.248 . S
C1408 Tb1344 2.802 . S
C1408 O1388 1.264 . S
C1408 O1391 1.256 . S
C1408 C1401 1.496 . S
C1409 C1376 1.448 . S
C1409 H1386 0.930 . S
C1409 C1410 1.328 . S
C1410 C1381 1.427 . S
C1410 H1387 0.929 . S
C1410 C1409 1.328 . S
C1411 O1395 1.264 . S
C1411 O1396 1.243 . S
C1412 C1415 1.399 . S
C1412 C1416 1.383 . S
C1412 C1419 1.496 . S
C1413 C1414 1.399 . S
C1413 C1416 1.389 . S
C1414 C1413 1.399 . S
C1414 C1417 1.380 . S
C1414 H1424 0.929 . S
C1415 C1412 1.399 . S
C1415 C1417 1.392 . S
C1415 H1425 0.929 . S
C1416 C1412 1.383 . S
C1416 C1413 1.389 . S
C1416 H1426 0.931 . S
C1417 C1414 1.380 . S
C1417 C1415 1.392 . S
C1417 H1427 0.929 . S
C1418 O1398 1.266 . S
C1418 O1399 1.248 . S
C1419 Tb1355 2.802 . S
C1419 O1394 1.264 . S
C1419 O1397 1.256 . S
C1419 C1412 1.496 . S
H1420 C1403 0.929 . S
H1421 C1404 0.929 . S
H1422 C1405 0.929 . S
H1423 C1406 0.931 . S
H1424 C1414 0.929 . S
H1425 C1415 0.929 . S
H1426 C1416 0.931 . S
H1427 C1417 0.929 . S
Tb1428 N1457 2.617 . S
Tb1428 N1463 2.572 . S
Tb1428 O1472 2.465 . S
Tb1428 O1473 2.387 1_554 S
Tb1428 O1475 2.428 . S
Tb1428 O1476 2.308 . S
Tb1428 O1480 2.349 . S
Tb1428 O1483 2.393 . S
Tb1428 C1492 2.802 . S
C1429 N1430 1.379 . S
C1429 C1432 1.416 . S
C1429 C1436 1.424 . S
N1430 C1429 1.379 . S
N1430 C1433 1.334 . S
N1430 Tb1439 2.617 . S
C1431 C1433 1.390 . S
C1431 C1434 1.339 . S
C1431 H1451 0.930 . S
C1432 C1429 1.416 . S
C1432 C1434 1.416 . S
C1432 C1438 1.448 . S
C1433 N1430 1.334 . S
C1433 C1431 1.390 . S
C1433 H1444 0.930 . S
C1434 C1431 1.339 . S
C1434 C1432 1.416 . S
C1434 H1455 0.930 . S
C1435 C1436 1.413 . S
C1435 C1437 1.427 . S
C1435 C1441 1.416 . S
C1436 C1429 1.424 . S
C1436 C1435 1.413 . S
C1436 N1440 1.361 . S
C1437 C1435 1.427 . S
C1437 C1438 1.328 . S
C1437 H1452 0.929 . S
C1438 C1432 1.448 . S
C1438 C1437 1.328 . S
C1438 H1453 0.930 . S
Tb1439 N1430 2.617 . S
Tb1439 N1440 2.572 . S
Tb1439 O1474 2.372 . S
Tb1439 O1477 2.393 . S
Tb1439 O1478 2.465 . S
Tb1439 O1479 2.387 . S
Tb1439 O1481 2.428 . S
Tb1439 O1482 2.308 . S
Tb1439 C1503 2.843 . S
N1440 C1436 1.361 . S
N1440 Tb1439 2.572 . S
N1440 C1442 1.340 . S
C1441 C1435 1.416 . S
C1441 C1443 1.332 . S
C1441 H1449 0.931 . S
C1442 N1440 1.340 . S
C1442 C1443 1.407 . S
C1442 H1448 0.930 . S
C1443 C1441 1.332 . S
C1443 C1442 1.407 . S
C1443 H1445 0.929 . S
H1444 C1433 0.930 . S
H1445 C1443 0.929 . S
H1446 C1461 0.930 1_554 S
H1447 C1468 0.929 . S
H1448 C1442 0.930 . S
H1449 C1441 0.931 . S
H1450 C1464 0.930 . S
H1451 C1431 0.930 . S
H1452 C1437 0.929 . S
H1453 C1438 0.930 . S
H1454 C1459 0.930 . S
H1455 C1434 0.930 . S
H1456 C1467 0.931 . S
N1457 Tb1428 2.617 . S
N1457 C1458 1.379 1_554 S
N1457 C1461 1.334 1_554 S
C1458 N1457 1.379 1_556 S
C1458 C1460 1.416 . S
C1458 C1466 1.424 . S
C1459 H1454 0.930 . S
C1459 C1461 1.390 . S
C1459 C1462 1.339 . S
C1460 C1458 1.416 . S
C1460 C1462 1.416 . S
C1460 C1493 1.448 . S
C1461 H1446 0.930 1_556 S
C1461 N1457 1.334 1_556 S
C1461 C1459 1.390 . S
C1462 C1459 1.339 . S
C1462 C1460 1.416 . S
C1462 H1469 0.930 . S
N1463 Tb1428 2.572 . S
N1463 C1464 1.340 . S
N1463 C1466 1.361 1_554 S
C1464 H1450 0.930 . S
C1464 N1463 1.340 . S
C1464 C1468 1.407 . S
C1465 C1466 1.413 . S
C1465 C1467 1.416 . S
C1465 C1494 1.427 . S
C1466 C1458 1.424 . S
C1466 N1463 1.361 1_556 S
C1466 C1465 1.413 . S
C1467 H1456 0.931 . S
C1467 C1465 1.416 . S
C1467 C1468 1.332 1_556 S
C1468 H1447 0.929 . S
C1468 C1464 1.407 . S
C1468 C1467 1.332 1_554 S
H1469 C1462 0.930 . S
H1470 C1493 0.930 . S
H1471 C1494 0.929 . S
O1472 Tb1428 2.465 . S
O1472 C1492 1.264 . S
O1473 Tb1428 2.387 1_556 S
O1473 C1484 1.264 . S
O1474 Tb1439 2.372 . S
O1474 C1484 1.232 1_554 S
O1475 Tb1428 2.428 . S
O1475 C1492 1.256 . S
O1476 Tb1428 2.308 . S
O1476 C1491 1.266 . S
O1477 Tb1439 2.393 . S
O1477 C1491 1.248 . S
O1478 Tb1439 2.465 . S
O1478 C1503 1.269 . S
O1479 Tb1439 2.387 . S
O1479 C1495 1.264 . S
O1480 Tb1428 2.349 . S
O1480 C1495 1.243 . S
O1481 Tb1439 2.428 . S
O1481 C1503 1.293 . S
O1482 Tb1439 2.308 . S
O1482 C1502 1.266 . S
O1483 Tb1428 2.393 . S
O1483 C1502 1.248 . S
C1484 O1473 1.264 . S
C1484 O1474 1.232 1_556 S
C1485 C1488 1.399 . S
C1485 C1490 1.383 . S
C1485 C1492 1.496 . S
C1486 C1487 1.399 . S
C1486 C1490 1.389 . S
C1487 C1486 1.399 . S
C1487 C1489 1.380 . S
C1487 H1504 0.929 . S
C1488 C1485 1.399 . S
C1488 C1489 1.392 . S
C1488 H1505 0.929 . S
C1489 C1487 1.380 . S
C1489 C1488 1.392 . S
C1489 H1506 0.929 . S
C1490 C1485 1.383 . S
C1490 C1486 1.389 . S
C1490 H1507 0.931 . S
C1491 O1476 1.266 . S
C1491 O1477 1.248 . S
C1492 Tb1428 2.802 . S
C1492 O1472 1.264 . S
C1492 O1475 1.256 . S
C1492 C1485 1.496 . S
C1493 C1460 1.448 . S
C1493 H1470 0.930 . S
C1493 C1494 1.328 . S
C1494 C1465 1.427 . S
C1494 H1471 0.929 . S
C1494 C1493 1.328 . S
C1495 O1479 1.264 . S
C1495 O1480 1.243 . S
C1496 C1499 1.399 . S
C1496 C1500 1.383 . S
C1496 C1503 1.456 1_556 S
C1497 C1498 1.399 . S
C1497 C1500 1.389 . S
C1498 C1497 1.399 . S
C1498 C1501 1.380 . S
C1498 H1508 0.929 . S
C1499 C1496 1.399 . S
C1499 C1501 1.392 . S
C1499 H1509 0.929 . S
C1500 C1496 1.383 . S
C1500 C1497 1.389 . S
C1500 H1510 0.931 . S
C1501 C1498 1.380 . S
C1501 C1499 1.392 . S
C1501 H1511 0.929 . S
C1502 O1482 1.266 . S
C1502 O1483 1.248 . S
C1503 Tb1439 2.843 . S
C1503 O1478 1.269 . S
C1503 O1481 1.293 . S
C1503 C1496 1.456 1_554 S
H1504 C1487 0.929 . S
H1505 C1488 0.929 . S
H1506 C1489 0.929 . S
H1507 C1490 0.931 . S
H1508 C1498 0.929 . S
H1509 C1499 0.929 . S
H1510 C1500 0.931 . S
H1511 C1501 0.929 . S
Tb1512 N1541 2.617 . S
Tb1512 N1547 2.572 . S
Tb1512 O1556 2.465 . S
Tb1512 O1557 2.387 . S
Tb1512 O1559 2.428 . S
Tb1512 O1560 2.308 . S
Tb1512 O1564 2.349 . S
Tb1512 O1567 2.393 . S
Tb1512 C1576 2.802 . S
C1513 N1514 1.379 . S
C1513 C1516 1.416 . S
C1513 C1520 1.424 . S
N1514 C1513 1.379 . S
N1514 C1517 1.334 . S
N1514 Tb1523 2.617 . S
C1515 C1517 1.390 . S
C1515 C1518 1.339 . S
C1515 H1535 0.930 . S
C1516 C1513 1.416 . S
C1516 C1518 1.416 . S
C1516 C1522 1.448 . S
C1517 N1514 1.334 . S
C1517 C1515 1.390 . S
C1517 H1528 0.930 . S
C1518 C1515 1.339 . S
C1518 C1516 1.416 . S
C1518 H1539 0.930 . S
C1519 C1520 1.413 . S
C1519 C1521 1.427 . S
C1519 C1525 1.416 . S
C1520 C1513 1.424 . S
C1520 C1519 1.413 . S
C1520 N1524 1.361 . S
C1521 C1519 1.427 . S
C1521 C1522 1.328 . S
C1521 H1536 0.929 . S
C1522 C1516 1.448 . S
C1522 C1521 1.328 . S
C1522 H1537 0.930 . S
Tb1523 N1514 2.617 . S
Tb1523 N1524 2.572 . S
Tb1523 O1558 2.349 . S
Tb1523 O1561 2.393 . S
Tb1523 O1562 2.465 . S
Tb1523 O1563 2.387 . S
Tb1523 O1565 2.428 . S
Tb1523 O1566 2.308 . S
Tb1523 C1587 2.802 . S
N1524 C1520 1.361 . S
N1524 Tb1523 2.572 . S
N1524 C1526 1.340 . S
C1525 C1519 1.416 . S
C1525 C1527 1.332 . S
C1525 H1533 0.931 . S
C1526 N1524 1.340 . S
C1526 C1527 1.407 . S
C1526 H1532 0.930 . S
C1527 C1525 1.332 . S
C1527 C1526 1.407 . S
C1527 H1529 0.929 . S
H1528 C1517 0.930 . S
H1529 C1527 0.929 . S
H1530 C1545 0.930 . S
H1531 C1552 0.929 . S
H1532 C1526 0.930 . S
H1533 C1525 0.931 . S
H1534 C1548 0.930 . S
H1535 C1515 0.930 . S
H1536 C1521 0.929 . S
H1537 C1522 0.930 . S
H1538 C1543 0.930 . S
H1539 C1518 0.930 . S
H1540 C1551 0.931 . S
N1541 Tb1512 2.617 . S
N1541 C1542 1.379 . S
N1541 C1545 1.334 . S
C1542 N1541 1.379 . S
C1542 C1544 1.416 . S
C1542 C1550 1.424 . S
C1543 H1538 0.930 . S
C1543 C1545 1.390 . S
C1543 C1546 1.339 . S
C1544 C1542 1.416 . S
C1544 C1546 1.416 . S
C1544 C1577 1.448 . S
C1545 H1530 0.930 . S
C1545 N1541 1.334 . S
C1545 C1543 1.390 . S
C1546 C1543 1.339 . S
C1546 C1544 1.416 . S
C1546 H1553 0.930 . S
N1547 Tb1512 2.572 . S
N1547 C1548 1.340 . S
N1547 C1550 1.361 . S
C1548 H1534 0.930 . S
C1548 N1547 1.340 . S
C1548 C1552 1.407 . S
C1549 C1550 1.413 . S
C1549 C1551 1.416 . S
C1549 C1578 1.427 . S
C1550 C1542 1.424 . S
C1550 N1547 1.361 . S
C1550 C1549 1.413 . S
C1551 H1540 0.931 . S
C1551 C1549 1.416 . S
C1551 C1552 1.332 . S
C1552 H1531 0.929 . S
C1552 C1548 1.407 . S
C1552 C1551 1.332 . S
H1553 C1546 0.930 . S
H1554 C1577 0.930 . S
H1555 C1578 0.929 . S
O1556 Tb1512 2.465 . S
O1556 C1576 1.264 . S
O1557 Tb1512 2.387 . S
O1557 C1568 1.264 . S
O1558 Tb1523 2.349 . S
O1558 C1568 1.243 . S
O1559 Tb1512 2.428 . S
O1559 C1576 1.256 . S
O1560 Tb1512 2.308 . S
O1560 C1575 1.266 . S
O1561 Tb1523 2.393 . S
O1561 C1575 1.248 . S
O1562 Tb1523 2.465 . S
O1562 C1587 1.264 . S
O1563 Tb1523 2.387 . S
O1563 C1579 1.264 . S
O1564 Tb1512 2.349 . S
O1564 C1579 1.243 . S
O1565 Tb1523 2.428 . S
O1565 C1587 1.256 . S
O1566 Tb1523 2.308 . S
O1566 C1586 1.266 . S
O1567 Tb1512 2.393 . S
O1567 C1586 1.248 . S
C1568 O1557 1.264 . S
C1568 O1558 1.243 . S
C1569 C1572 1.399 . S
C1569 C1574 1.383 . S
C1569 C1576 1.496 . S
C1570 C1571 1.399 . S
C1570 C1574 1.389 . S
C1571 C1570 1.399 . S
C1571 C1573 1.380 . S
C1571 H1588 0.929 . S
C1572 C1569 1.399 . S
C1572 C1573 1.392 . S
C1572 H1589 0.929 . S
C1573 C1571 1.380 . S
C1573 C1572 1.392 . S
C1573 H1590 0.929 . S
C1574 C1569 1.383 . S
C1574 C1570 1.389 . S
C1574 H1591 0.931 . S
C1575 O1560 1.266 . S
C1575 O1561 1.248 . S
C1576 Tb1512 2.802 . S
C1576 O1556 1.264 . S
C1576 O1559 1.256 . S
C1576 C1569 1.496 . S
C1577 C1544 1.448 . S
C1577 H1554 0.930 . S
C1577 C1578 1.328 . S
C1578 C1549 1.427 . S
C1578 H1555 0.929 . S
C1578 C1577 1.328 . S
C1579 O1563 1.264 . S
C1579 O1564 1.243 . S
C1580 C1583 1.399 . S
C1580 C1584 1.383 . S
C1580 C1587 1.496 . S
C1581 C1582 1.399 . S
C1581 C1584 1.389 . S
C1582 C1581 1.399 . S
C1582 C1585 1.380 . S
C1582 H1592 0.929 . S
C1583 C1580 1.399 . S
C1583 C1585 1.392 . S
C1583 H1593 0.929 . S
C1584 C1580 1.383 . S
C1584 C1581 1.389 . S
C1584 H1594 0.931 . S
C1585 C1582 1.380 . S
C1585 C1583 1.392 . S
C1585 H1595 0.929 . S
C1586 O1566 1.266 . S
C1586 O1567 1.248 . S
C1587 Tb1523 2.802 . S
C1587 O1562 1.264 . S
C1587 O1565 1.256 . S
C1587 C1580 1.496 . S
H1588 C1571 0.929 . S
H1589 C1572 0.929 . S
H1590 C1573 0.929 . S
H1591 C1574 0.931 . S
H1592 C1582 0.929 . S
H1593 C1583 0.929 . S
H1594 C1584 0.931 . S
H1595 C1585 0.929 . S
Tb1596 N1625 2.617 . S
Tb1596 N1631 2.572 . S
Tb1596 O1640 2.465 . S
Tb1596 O1641 2.387 . S
Tb1596 O1643 2.428 . S
Tb1596 O1644 2.308 . S
Tb1596 O1648 2.349 . S
Tb1596 O1651 2.393 . S
Tb1596 C1660 2.802 . S
C1597 N1598 1.379 . S
C1597 C1600 1.416 . S
C1597 C1604 1.424 . S
N1598 C1597 1.379 . S
N1598 C1601 1.334 . S
N1598 Tb1607 2.617 . S
C1599 C1601 1.390 . S
C1599 C1602 1.339 . S
C1599 H1619 0.930 . S
C1600 C1597 1.416 . S
C1600 C1602 1.416 . S
C1600 C1606 1.448 . S
C1601 N1598 1.334 . S
C1601 C1599 1.390 . S
C1601 H1612 0.930 . S
C1602 C1599 1.339 . S
C1602 C1600 1.416 . S
C1602 H1623 0.930 . S
C1603 C1604 1.413 . S
C1603 C1605 1.427 . S
C1603 C1609 1.416 . S
C1604 C1597 1.424 . S
C1604 C1603 1.413 . S
C1604 N1608 1.361 . S
C1605 C1603 1.427 . S
C1605 C1606 1.328 . S
C1605 H1620 0.929 . S
C1606 C1600 1.448 . S
C1606 C1605 1.328 . S
C1606 H1621 0.930 . S
Tb1607 N1598 2.617 . S
Tb1607 N1608 2.572 . S
Tb1607 O1642 2.349 . S
Tb1607 O1645 2.393 . S
Tb1607 O1646 2.465 . S
Tb1607 O1647 2.387 . S
Tb1607 O1649 2.428 . S
Tb1607 O1650 2.308 . S
Tb1607 C1671 2.802 . S
N1608 C1604 1.361 . S
N1608 Tb1607 2.572 . S
N1608 C1610 1.340 . S
C1609 C1603 1.416 . S
C1609 C1611 1.332 . S
C1609 H1617 0.931 . S
C1610 N1608 1.340 . S
C1610 C1611 1.407 . S
C1610 H1616 0.930 . S
C1611 C1609 1.332 . S
C1611 C1610 1.407 . S
C1611 H1613 0.929 . S
H1612 C1601 0.930 . S
H1613 C1611 0.929 . S
H1614 C1629 0.930 . S
H1615 C1636 0.929 . S
H1616 C1610 0.930 . S
H1617 C1609 0.931 . S
H1618 C1632 0.930 . S
H1619 C1599 0.930 . S
H1620 C1605 0.929 . S
H1621 C1606 0.930 . S
H1622 C1627 0.930 . S
H1623 C1602 0.930 . S
H1624 C1635 0.931 . S
N1625 Tb1596 2.617 . S
N1625 C1626 1.379 . S
N1625 C1629 1.334 . S
C1626 N1625 1.379 . S
C1626 C1628 1.416 . S
C1626 C1634 1.424 . S
C1627 H1622 0.930 . S
C1627 C1629 1.390 . S
C1627 C1630 1.339 . S
C1628 C1626 1.416 . S
C1628 C1630 1.416 . S
C1628 C1661 1.448 . S
C1629 H1614 0.930 . S
C1629 N1625 1.334 . S
C1629 C1627 1.390 . S
C1630 C1627 1.339 . S
C1630 C1628 1.416 . S
C1630 H1637 0.930 . S
N1631 Tb1596 2.572 . S
N1631 C1632 1.340 . S
N1631 C1634 1.361 . S
C1632 H1618 0.930 . S
C1632 N1631 1.340 . S
C1632 C1636 1.407 . S
C1633 C1634 1.413 . S
C1633 C1635 1.416 . S
C1633 C1662 1.427 . S
C1634 C1626 1.424 . S
C1634 N1631 1.361 . S
C1634 C1633 1.413 . S
C1635 H1624 0.931 . S
C1635 C1633 1.416 . S
C1635 C1636 1.332 . S
C1636 H1615 0.929 . S
C1636 C1632 1.407 . S
C1636 C1635 1.332 . S
H1637 C1630 0.930 . S
H1638 C1661 0.930 . S
H1639 C1662 0.929 . S
O1640 Tb1596 2.465 . S
O1640 C1660 1.264 . S
O1641 Tb1596 2.387 . S
O1641 C1652 1.264 . S
O1642 Tb1607 2.349 . S
O1642 C1652 1.243 . S
O1643 Tb1596 2.428 . S
O1643 C1660 1.256 . S
O1644 Tb1596 2.308 . S
O1644 C1659 1.266 . S
O1645 Tb1607 2.393 . S
O1645 C1659 1.248 . S
O1646 Tb1607 2.465 . S
O1646 C1671 1.264 . S
O1647 Tb1607 2.387 . S
O1647 C1663 1.264 . S
O1648 Tb1596 2.349 . S
O1648 C1663 1.243 . S
O1649 Tb1607 2.428 . S
O1649 C1671 1.256 . S
O1650 Tb1607 2.308 . S
O1650 C1670 1.266 . S
O1651 Tb1596 2.393 . S
O1651 C1670 1.248 . S
C1652 O1641 1.264 . S
C1652 O1642 1.243 . S
C1653 C1656 1.399 . S
C1653 C1658 1.383 . S
C1653 C1660 1.496 . S
C1654 C1655 1.399 . S
C1654 C1658 1.389 . S
C1655 C1654 1.399 . S
C1655 C1657 1.380 . S
C1655 H1672 0.929 . S
C1656 C1653 1.399 . S
C1656 C1657 1.392 . S
C1656 H1673 0.929 . S
C1657 C1655 1.380 . S
C1657 C1656 1.392 . S
C1657 H1674 0.929 . S
C1658 C1653 1.383 . S
C1658 C1654 1.389 . S
C1658 H1675 0.931 . S
C1659 O1644 1.266 . S
C1659 O1645 1.248 . S
C1660 Tb1596 2.802 . S
C1660 O1640 1.264 . S
C1660 O1643 1.256 . S
C1660 C1653 1.496 . S
C1661 C1628 1.448 . S
C1661 H1638 0.930 . S
C1661 C1662 1.328 . S
C1662 C1633 1.427 . S
C1662 H1639 0.929 . S
C1662 C1661 1.328 . S
C1663 O1647 1.264 . S
C1663 O1648 1.243 . S
C1664 C1667 1.399 . S
C1664 C1668 1.383 . S
C1664 C1671 1.496 . S
C1665 C1666 1.399 . S
C1665 C1668 1.389 . S
C1666 C1665 1.399 . S
C1666 C1669 1.380 . S
C1666 H1676 0.929 . S
C1667 C1664 1.399 . S
C1667 C1669 1.392 . S
C1667 H1677 0.929 . S
C1668 C1664 1.383 . S
C1668 C1665 1.389 . S
C1668 H1678 0.931 . S
C1669 C1666 1.380 . S
C1669 C1667 1.392 . S
C1669 H1679 0.929 . S
C1670 O1650 1.266 . S
C1670 O1651 1.248 . S
C1671 Tb1607 2.802 . S
C1671 O1646 1.264 . S
C1671 O1649 1.256 . S
C1671 C1664 1.496 . S
H1672 C1655 0.929 . S
H1673 C1656 0.929 . S
H1674 C1657 0.929 . S
H1675 C1658 0.931 . S
H1676 C1666 0.929 . S
H1677 C1667 0.929 . S
H1678 C1668 0.931 . S
H1679 C1669 0.929 . S
Tb1680 N1709 2.617 . S
Tb1680 N1715 2.572 . S
Tb1680 O1724 2.465 . S
Tb1680 O1725 2.387 . S
Tb1680 O1727 2.428 . S
Tb1680 O1728 2.308 . S
Tb1680 O1732 2.349 . S
Tb1680 O1735 2.393 . S
Tb1680 C1744 2.802 . S
C1681 N1682 1.379 . S
C1681 C1684 1.416 . S
C1681 C1688 1.424 . S
N1682 C1681 1.379 . S
N1682 C1685 1.334 . S
N1682 Tb1691 2.617 . S
C1683 C1685 1.390 . S
C1683 C1686 1.339 . S
C1683 H1703 0.930 . S
C1684 C1681 1.416 . S
C1684 C1686 1.416 . S
C1684 C1690 1.448 . S
C1685 N1682 1.334 . S
C1685 C1683 1.390 . S
C1685 H1696 0.930 . S
C1686 C1683 1.339 . S
C1686 C1684 1.416 . S
C1686 H1707 0.930 . S
C1687 C1688 1.413 . S
C1687 C1689 1.427 . S
C1687 C1693 1.416 . S
C1688 C1681 1.424 . S
C1688 C1687 1.413 . S
C1688 N1692 1.361 . S
C1689 C1687 1.427 . S
C1689 C1690 1.328 . S
C1689 H1704 0.929 . S
C1690 C1684 1.448 . S
C1690 C1689 1.328 . S
C1690 H1705 0.930 . S
Tb1691 N1682 2.617 . S
Tb1691 N1692 2.572 . S
Tb1691 O1726 2.349 . S
Tb1691 O1729 2.393 . S
Tb1691 O1730 2.465 . S
Tb1691 O1731 2.387 . S
Tb1691 O1733 2.428 . S
Tb1691 O1734 2.308 . S
Tb1691 C1755 2.802 . S
N1692 C1688 1.361 . S
N1692 Tb1691 2.572 . S
N1692 C1694 1.340 . S
C1693 C1687 1.416 . S
C1693 C1695 1.332 . S
C1693 H1701 0.931 . S
C1694 N1692 1.340 . S
C1694 C1695 1.407 . S
C1694 H1700 0.930 . S
C1695 C1693 1.332 . S
C1695 C1694 1.407 . S
C1695 H1697 0.929 . S
H1696 C1685 0.930 . S
H1697 C1695 0.929 . S
H1698 C1713 0.930 . S
H1699 C1720 0.929 . S
H1700 C1694 0.930 . S
H1701 C1693 0.931 . S
H1702 C1716 0.930 . S
H1703 C1683 0.930 . S
H1704 C1689 0.929 . S
H1705 C1690 0.930 . S
H1706 C1711 0.930 . S
H1707 C1686 0.930 . S
H1708 C1719 0.931 . S
N1709 Tb1680 2.617 . S
N1709 C1710 1.379 . S
N1709 C1713 1.334 . S
C1710 N1709 1.379 . S
C1710 C1712 1.416 . S
C1710 C1718 1.424 . S
C1711 H1706 0.930 . S
C1711 C1713 1.390 . S
C1711 C1714 1.339 . S
C1712 C1710 1.416 . S
C1712 C1714 1.416 . S
C1712 C1745 1.448 . S
C1713 H1698 0.930 . S
C1713 N1709 1.334 . S
C1713 C1711 1.390 . S
C1714 C1711 1.339 . S
C1714 C1712 1.416 . S
C1714 H1721 0.930 . S
N1715 Tb1680 2.572 . S
N1715 C1716 1.340 . S
N1715 C1718 1.361 . S
C1716 H1702 0.930 . S
C1716 N1715 1.340 . S
C1716 C1720 1.407 . S
C1717 C1718 1.413 . S
C1717 C1719 1.416 . S
C1717 C1746 1.427 . S
C1718 C1710 1.424 . S
C1718 N1715 1.361 . S
C1718 C1717 1.413 . S
C1719 H1708 0.931 . S
C1719 C1717 1.416 . S
C1719 C1720 1.332 . S
C1720 H1699 0.929 . S
C1720 C1716 1.407 . S
C1720 C1719 1.332 . S
H1721 C1714 0.930 . S
H1722 C1745 0.930 . S
H1723 C1746 0.929 . S
O1724 Tb1680 2.465 . S
O1724 C1744 1.264 . S
O1725 Tb1680 2.387 . S
O1725 C1736 1.264 . S
O1726 Tb1691 2.349 . S
O1726 C1736 1.243 . S
O1727 Tb1680 2.428 . S
O1727 C1744 1.256 . S
O1728 Tb1680 2.308 . S
O1728 C1743 1.266 . S
O1729 Tb1691 2.393 . S
O1729 C1743 1.248 . S
O1730 Tb1691 2.465 . S
O1730 C1755 1.264 . S
O1731 Tb1691 2.387 . S
O1731 C1747 1.264 . S
O1732 Tb1680 2.349 . S
O1732 C1747 1.243 . S
O1733 Tb1691 2.428 . S
O1733 C1755 1.256 . S
O1734 Tb1691 2.308 . S
O1734 C1754 1.266 . S
O1735 Tb1680 2.393 . S
O1735 C1754 1.248 . S
C1736 O1725 1.264 . S
C1736 O1726 1.243 . S
C1737 C1740 1.399 . S
C1737 C1742 1.383 . S
C1737 C1744 1.496 . S
C1738 C1739 1.399 . S
C1738 C1742 1.389 . S
C1739 C1738 1.399 . S
C1739 C1741 1.380 . S
C1739 H1756 0.929 . S
C1740 C1737 1.399 . S
C1740 C1741 1.392 . S
C1740 H1757 0.929 . S
C1741 C1739 1.380 . S
C1741 C1740 1.392 . S
C1741 H1758 0.929 . S
C1742 C1737 1.383 . S
C1742 C1738 1.389 . S
C1742 H1759 0.931 . S
C1743 O1728 1.266 . S
C1743 O1729 1.248 . S
C1744 Tb1680 2.802 . S
C1744 O1724 1.264 . S
C1744 O1727 1.256 . S
C1744 C1737 1.496 . S
C1745 C1712 1.448 . S
C1745 H1722 0.930 . S
C1745 C1746 1.328 . S
C1746 C1717 1.427 . S
C1746 H1723 0.929 . S
C1746 C1745 1.328 . S
C1747 O1731 1.264 . S
C1747 O1732 1.243 . S
C1748 C1751 1.399 . S
C1748 C1752 1.383 . S
C1748 C1755 1.496 . S
C1749 C1750 1.399 . S
C1749 C1752 1.389 . S
C1750 C1749 1.399 . S
C1750 C1753 1.380 . S
C1750 H1760 0.929 . S
C1751 C1748 1.399 . S
C1751 C1753 1.392 . S
C1751 H1761 0.929 . S
C1752 C1748 1.383 . S
C1752 C1749 1.389 . S
C1752 H1762 0.931 . S
C1753 C1750 1.380 . S
C1753 C1751 1.392 . S
C1753 H1763 0.929 . S
C1754 O1734 1.266 . S
C1754 O1735 1.248 . S
C1755 Tb1691 2.802 . S
C1755 O1730 1.264 . S
C1755 O1733 1.256 . S
C1755 C1748 1.496 . S
H1756 C1739 0.929 . S
H1757 C1740 0.929 . S
H1758 C1741 0.929 . S
H1759 C1742 0.931 . S
H1760 C1750 0.929 . S
H1761 C1751 0.929 . S
H1762 C1752 0.931 . S
H1763 C1753 0.929 . S
Tb1764 N1793 2.617 . S
Tb1764 N1799 2.572 . S
Tb1764 O1808 2.465 . S
Tb1764 O1809 2.387 1_556 S
Tb1764 O1811 2.428 . S
Tb1764 O1812 2.308 . S
Tb1764 O1816 2.349 . S
Tb1764 O1819 2.393 . S
Tb1764 C1828 2.802 . S
C1765 N1766 1.379 . S
C1765 C1768 1.416 . S
C1765 C1772 1.424 . S
N1766 C1765 1.379 . S
N1766 C1769 1.334 . S
N1766 Tb1775 2.617 . S
C1767 C1769 1.390 . S
C1767 C1770 1.339 . S
C1767 H1787 0.930 . S
C1768 C1765 1.416 . S
C1768 C1770 1.416 . S
C1768 C1774 1.448 . S
C1769 N1766 1.334 . S
C1769 C1767 1.390 . S
C1769 H1780 0.930 . S
C1770 C1767 1.339 . S
C1770 C1768 1.416 . S
C1770 H1791 0.930 . S
C1771 C1772 1.413 . S
C1771 C1773 1.427 . S
C1771 C1777 1.416 . S
C1772 C1765 1.424 . S
C1772 C1771 1.413 . S
C1772 N1776 1.361 . S
C1773 C1771 1.427 . S
C1773 C1774 1.328 . S
C1773 H1788 0.929 . S
C1774 C1768 1.448 . S
C1774 C1773 1.328 . S
C1774 H1789 0.930 . S
Tb1775 N1766 2.617 . S
Tb1775 N1776 2.572 . S
Tb1775 O1810 2.372 . S
Tb1775 O1813 2.393 . S
Tb1775 O1814 2.465 . S
Tb1775 O1815 2.387 . S
Tb1775 O1817 2.428 . S
Tb1775 O1818 2.308 . S
Tb1775 C1839 2.843 . S
N1776 C1772 1.361 . S
N1776 Tb1775 2.572 . S
N1776 C1778 1.340 . S
C1777 C1771 1.416 . S
C1777 C1779 1.332 . S
C1777 H1785 0.931 . S
C1778 N1776 1.340 . S
C1778 C1779 1.407 . S
C1778 H1784 0.930 . S
C1779 C1777 1.332 . S
C1779 C1778 1.407 . S
C1779 H1781 0.929 . S
H1780 C1769 0.930 . S
H1781 C1779 0.929 . S
H1782 C1797 0.930 1_556 S
H1783 C1804 0.929 . S
H1784 C1778 0.930 . S
H1785 C1777 0.931 . S
H1786 C1800 0.930 . S
H1787 C1767 0.930 . S
H1788 C1773 0.929 . S
H1789 C1774 0.930 . S
H1790 C1795 0.930 . S
H1791 C1770 0.930 . S
H1792 C1803 0.931 . S
N1793 Tb1764 2.617 . S
N1793 C1794 1.379 1_556 S
N1793 C1797 1.334 1_556 S
C1794 N1793 1.379 1_554 S
C1794 C1796 1.416 . S
C1794 C1802 1.424 . S
C1795 H1790 0.930 . S
C1795 C1797 1.390 . S
C1795 C1798 1.339 . S
C1796 C1794 1.416 . S
C1796 C1798 1.416 . S
C1796 C1829 1.448 . S
C1797 H1782 0.930 1_554 S
C1797 N1793 1.334 1_554 S
C1797 C1795 1.390 . S
C1798 C1795 1.339 . S
C1798 C1796 1.416 . S
C1798 H1805 0.930 . S
N1799 Tb1764 2.572 . S
N1799 C1800 1.340 . S
N1799 C1802 1.361 1_556 S
C1800 H1786 0.930 . S
C1800 N1799 1.340 . S
C1800 C1804 1.407 . S
C1801 C1802 1.413 . S
C1801 C1803 1.416 . S
C1801 C1830 1.427 . S
C1802 C1794 1.424 . S
C1802 N1799 1.361 1_554 S
C1802 C1801 1.413 . S
C1803 H1792 0.931 . S
C1803 C1801 1.416 . S
C1803 C1804 1.332 1_554 S
C1804 H1783 0.929 . S
C1804 C1800 1.407 . S
C1804 C1803 1.332 1_556 S
H1805 C1798 0.930 . S
H1806 C1829 0.930 . S
H1807 C1830 0.929 . S
O1808 Tb1764 2.465 . S
O1808 C1828 1.264 . S
O1809 Tb1764 2.387 1_554 S
O1809 C1820 1.264 . S
O1810 Tb1775 2.372 . S
O1810 C1820 1.232 1_556 S
O1811 Tb1764 2.428 . S
O1811 C1828 1.256 . S
O1812 Tb1764 2.308 . S
O1812 C1827 1.266 . S
O1813 Tb1775 2.393 . S
O1813 C1827 1.248 . S
O1814 Tb1775 2.465 . S
O1814 C1839 1.269 . S
O1815 Tb1775 2.387 . S
O1815 C1831 1.264 . S
O1816 Tb1764 2.349 . S
O1816 C1831 1.243 . S
O1817 Tb1775 2.428 . S
O1817 C1839 1.293 . S
O1818 Tb1775 2.308 . S
O1818 C1838 1.266 . S
O1819 Tb1764 2.393 . S
O1819 C1838 1.248 . S
C1820 O1809 1.264 . S
C1820 O1810 1.232 1_554 S
C1821 C1824 1.399 . S
C1821 C1826 1.383 . S
C1821 C1828 1.496 . S
C1822 C1823 1.399 . S
C1822 C1826 1.389 . S
C1823 C1822 1.399 . S
C1823 C1825 1.380 . S
C1823 H1840 0.929 . S
C1824 C1821 1.399 . S
C1824 C1825 1.392 . S
C1824 H1841 0.929 . S
C1825 C1823 1.380 . S
C1825 C1824 1.392 . S
C1825 H1842 0.929 . S
C1826 C1821 1.383 . S
C1826 C1822 1.389 . S
C1826 H1843 0.931 . S
C1827 O1812 1.266 . S
C1827 O1813 1.248 . S
C1828 Tb1764 2.802 . S
C1828 O1808 1.264 . S
C1828 O1811 1.256 . S
C1828 C1821 1.496 . S
C1829 C1796 1.448 . S
C1829 H1806 0.930 . S
C1829 C1830 1.328 . S
C1830 C1801 1.427 . S
C1830 H1807 0.929 . S
C1830 C1829 1.328 . S
C1831 O1815 1.264 . S
C1831 O1816 1.243 . S
C1832 C1835 1.399 . S
C1832 C1836 1.383 . S
C1832 C1839 1.456 1_554 S
C1833 C1834 1.399 . S
C1833 C1836 1.389 . S
C1834 C1833 1.399 . S
C1834 C1837 1.380 . S
C1834 H1844 0.929 . S
C1835 C1832 1.399 . S
C1835 C1837 1.392 . S
C1835 H1845 0.929 . S
C1836 C1832 1.383 . S
C1836 C1833 1.389 . S
C1836 H1846 0.931 . S
C1837 C1834 1.380 . S
C1837 C1835 1.392 . S
C1837 H1847 0.929 . S
C1838 O1818 1.266 . S
C1838 O1819 1.248 . S
C1839 Tb1775 2.843 . S
C1839 O1814 1.269 . S
C1839 O1817 1.293 . S
C1839 C1832 1.456 1_556 S
H1840 C1823 0.929 . S
H1841 C1824 0.929 . S
H1842 C1825 0.929 . S
H1843 C1826 0.931 . S
H1844 C1834 0.929 . S
H1845 C1835 0.929 . S
H1846 C1836 0.931 . S
H1847 C1837 0.929 . S
Tb1848 N1877 2.617 . S
Tb1848 N1883 2.572 . S
Tb1848 O1892 2.465 . S
Tb1848 O1893 2.387 . S
Tb1848 O1895 2.428 . S
Tb1848 O1896 2.308 . S
Tb1848 O1900 2.349 . S
Tb1848 O1903 2.393 . S
Tb1848 C1912 2.802 . S
C1849 N1850 1.379 . S
C1849 C1852 1.416 . S
C1849 C1856 1.424 . S
N1850 C1849 1.379 . S
N1850 C1853 1.334 . S
N1850 Tb1859 2.617 . S
C1851 C1853 1.390 . S
C1851 C1854 1.339 . S
C1851 H1871 0.930 . S
C1852 C1849 1.416 . S
C1852 C1854 1.416 . S
C1852 C1858 1.448 . S
C1853 N1850 1.334 . S
C1853 C1851 1.390 . S
C1853 H1864 0.930 . S
C1854 C1851 1.339 . S
C1854 C1852 1.416 . S
C1854 H1875 0.930 . S
C1855 C1856 1.413 . S
C1855 C1857 1.427 . S
C1855 C1861 1.416 . S
C1856 C1849 1.424 . S
C1856 C1855 1.413 . S
C1856 N1860 1.361 . S
C1857 C1855 1.427 . S
C1857 C1858 1.328 . S
C1857 H1872 0.929 . S
C1858 C1852 1.448 . S
C1858 C1857 1.328 . S
C1858 H1873 0.930 . S
Tb1859 N1850 2.617 . S
Tb1859 N1860 2.572 . S
Tb1859 O1894 2.349 . S
Tb1859 O1897 2.393 . S
Tb1859 O1898 2.465 . S
Tb1859 O1899 2.387 . S
Tb1859 O1901 2.428 . S
Tb1859 O1902 2.308 . S
Tb1859 C1923 2.802 . S
N1860 C1856 1.361 . S
N1860 Tb1859 2.572 . S
N1860 C1862 1.340 . S
C1861 C1855 1.416 . S
C1861 C1863 1.332 . S
C1861 H1869 0.931 . S
C1862 N1860 1.340 . S
C1862 C1863 1.407 . S
C1862 H1868 0.930 . S
C1863 C1861 1.332 . S
C1863 C1862 1.407 . S
C1863 H1865 0.929 . S
H1864 C1853 0.930 . S
H1865 C1863 0.929 . S
H1866 C1881 0.930 . S
H1867 C1888 0.929 . S
H1868 C1862 0.930 . S
H1869 C1861 0.931 . S
H1870 C1884 0.930 . S
H1871 C1851 0.930 . S
H1872 C1857 0.929 . S
H1873 C1858 0.930 . S
H1874 C1879 0.930 . S
H1875 C1854 0.930 . S
H1876 C1887 0.931 . S
N1877 Tb1848 2.617 . S
N1877 C1878 1.379 . S
N1877 C1881 1.334 . S
C1878 N1877 1.379 . S
C1878 C1880 1.416 . S
C1878 C1886 1.424 . S
C1879 H1874 0.930 . S
C1879 C1881 1.390 . S
C1879 C1882 1.339 . S
C1880 C1878 1.416 . S
C1880 C1882 1.416 . S
C1880 C1913 1.448 . S
C1881 H1866 0.930 . S
C1881 N1877 1.334 . S
C1881 C1879 1.390 . S
C1882 C1879 1.339 . S
C1882 C1880 1.416 . S
C1882 H1889 0.930 . S
N1883 Tb1848 2.572 . S
N1883 C1884 1.340 . S
N1883 C1886 1.361 . S
C1884 H1870 0.930 . S
C1884 N1883 1.340 . S
C1884 C1888 1.407 . S
C1885 C1886 1.413 . S
C1885 C1887 1.416 . S
C1885 C1914 1.427 . S
C1886 C1878 1.424 . S
C1886 N1883 1.361 . S
C1886 C1885 1.413 . S
C1887 H1876 0.931 . S
C1887 C1885 1.416 . S
C1887 C1888 1.332 . S
C1888 H1867 0.929 . S
C1888 C1884 1.407 . S
C1888 C1887 1.332 . S
H1889 C1882 0.930 . S
H1890 C1913 0.930 . S
H1891 C1914 0.929 . S
O1892 Tb1848 2.465 . S
O1892 C1912 1.264 . S
O1893 Tb1848 2.387 . S
O1893 C1904 1.264 . S
O1894 Tb1859 2.349 . S
O1894 C1904 1.243 . S
O1895 Tb1848 2.428 . S
O1895 C1912 1.256 . S
O1896 Tb1848 2.308 . S
O1896 C1911 1.266 . S
O1897 Tb1859 2.393 . S
O1897 C1911 1.248 . S
O1898 Tb1859 2.465 . S
O1898 C1923 1.264 . S
O1899 Tb1859 2.387 . S
O1899 C1915 1.264 . S
O1900 Tb1848 2.349 . S
O1900 C1915 1.243 . S
O1901 Tb1859 2.428 . S
O1901 C1923 1.256 . S
O1902 Tb1859 2.308 . S
O1902 C1922 1.266 . S
O1903 Tb1848 2.393 . S
O1903 C1922 1.248 . S
C1904 O1893 1.264 . S
C1904 O1894 1.243 . S
C1905 C1908 1.399 . S
C1905 C1910 1.383 . S
C1905 C1912 1.496 . S
C1906 C1907 1.399 . S
C1906 C1910 1.389 . S
C1907 C1906 1.399 . S
C1907 C1909 1.380 . S
C1907 H1924 0.929 . S
C1908 C1905 1.399 . S
C1908 C1909 1.392 . S
C1908 H1925 0.929 . S
C1909 C1907 1.380 . S
C1909 C1908 1.392 . S
C1909 H1926 0.929 . S
C1910 C1905 1.383 . S
C1910 C1906 1.389 . S
C1910 H1927 0.931 . S
C1911 O1896 1.266 . S
C1911 O1897 1.248 . S
C1912 Tb1848 2.802 . S
C1912 O1892 1.264 . S
C1912 O1895 1.256 . S
C1912 C1905 1.496 . S
C1913 C1880 1.448 . S
C1913 H1890 0.930 . S
C1913 C1914 1.328 . S
C1914 C1885 1.427 . S
C1914 H1891 0.929 . S
C1914 C1913 1.328 . S
C1915 O1899 1.264 . S
C1915 O1900 1.243 . S
C1916 C1919 1.399 . S
C1916 C1920 1.383 . S
C1916 C1923 1.496 . S
C1917 C1918 1.399 . S
C1917 C1920 1.389 . S
C1918 C1917 1.399 . S
C1918 C1921 1.380 . S
C1918 H1928 0.929 . S
C1919 C1916 1.399 . S
C1919 C1921 1.392 . S
C1919 H1929 0.929 . S
C1920 C1916 1.383 . S
C1920 C1917 1.389 . S
C1920 H1930 0.931 . S
C1921 C1918 1.380 . S
C1921 C1919 1.392 . S
C1921 H1931 0.929 . S
C1922 O1902 1.266 . S
C1922 O1903 1.248 . S
C1923 Tb1859 2.802 . S
C1923 O1898 1.264 . S
C1923 O1901 1.256 . S
C1923 C1916 1.496 . S
H1924 C1907 0.929 . S
H1925 C1908 0.929 . S
H1926 C1909 0.929 . S
H1927 C1910 0.931 . S
H1928 C1918 0.929 . S
H1929 C1919 0.929 . S
H1930 C1920 0.931 . S
H1931 C1921 0.929 . S
Tb1932 N1961 2.617 . S
Tb1932 N1967 2.572 . S
Tb1932 O1976 2.465 . S
Tb1932 O1977 2.387 . S
Tb1932 O1979 2.428 . S
Tb1932 O1980 2.308 . S
Tb1932 O1984 2.349 . S
Tb1932 O1987 2.393 . S
Tb1932 C1996 2.802 . S
C1933 N1934 1.379 . S
C1933 C1936 1.416 . S
C1933 C1940 1.424 . S
N1934 C1933 1.379 . S
N1934 C1937 1.334 . S
N1934 Tb1943 2.617 . S
C1935 C1937 1.390 . S
C1935 C1938 1.339 . S
C1935 H1955 0.930 . S
C1936 C1933 1.416 . S
C1936 C1938 1.416 . S
C1936 C1942 1.448 . S
C1937 N1934 1.334 . S
C1937 C1935 1.390 . S
C1937 H1948 0.930 . S
C1938 C1935 1.339 . S
C1938 C1936 1.416 . S
C1938 H1959 0.930 . S
C1939 C1940 1.413 . S
C1939 C1941 1.427 . S
C1939 C1945 1.416 . S
C1940 C1933 1.424 . S
C1940 C1939 1.413 . S
C1940 N1944 1.361 . S
C1941 C1939 1.427 . S
C1941 C1942 1.328 . S
C1941 H1956 0.929 . S
C1942 C1936 1.448 . S
C1942 C1941 1.328 . S
C1942 H1957 0.930 . S
Tb1943 N1934 2.617 . S
Tb1943 N1944 2.572 . S
Tb1943 O1978 2.349 . S
Tb1943 O1981 2.393 . S
Tb1943 O1982 2.465 . S
Tb1943 O1983 2.387 . S
Tb1943 O1985 2.428 . S
Tb1943 O1986 2.308 . S
Tb1943 C2007 2.802 . S
N1944 C1940 1.361 . S
N1944 Tb1943 2.572 . S
N1944 C1946 1.340 . S
C1945 C1939 1.416 . S
C1945 C1947 1.332 . S
C1945 H1953 0.931 . S
C1946 N1944 1.340 . S
C1946 C1947 1.407 . S
C1946 H1952 0.930 . S
C1947 C1945 1.332 . S
C1947 C1946 1.407 . S
C1947 H1949 0.929 . S
H1948 C1937 0.930 . S
H1949 C1947 0.929 . S
H1950 C1965 0.930 . S
H1951 C1972 0.929 . S
H1952 C1946 0.930 . S
H1953 C1945 0.931 . S
H1954 C1968 0.930 . S
H1955 C1935 0.930 . S
H1956 C1941 0.929 . S
H1957 C1942 0.930 . S
H1958 C1963 0.930 . S
H1959 C1938 0.930 . S
H1960 C1971 0.931 . S
N1961 Tb1932 2.617 . S
N1961 C1962 1.379 . S
N1961 C1965 1.334 . S
C1962 N1961 1.379 . S
C1962 C1964 1.416 . S
C1962 C1970 1.424 . S
C1963 H1958 0.930 . S
C1963 C1965 1.390 . S
C1963 C1966 1.339 . S
C1964 C1962 1.416 . S
C1964 C1966 1.416 . S
C1964 C1997 1.448 . S
C1965 H1950 0.930 . S
C1965 N1961 1.334 . S
C1965 C1963 1.390 . S
C1966 C1963 1.339 . S
C1966 C1964 1.416 . S
C1966 H1973 0.930 . S
N1967 Tb1932 2.572 . S
N1967 C1968 1.340 . S
N1967 C1970 1.361 . S
C1968 H1954 0.930 . S
C1968 N1967 1.340 . S
C1968 C1972 1.407 . S
C1969 C1970 1.413 . S
C1969 C1971 1.416 . S
C1969 C1998 1.427 . S
C1970 C1962 1.424 . S
C1970 N1967 1.361 . S
C1970 C1969 1.413 . S
C1971 H1960 0.931 . S
C1971 C1969 1.416 . S
C1971 C1972 1.332 . S
C1972 H1951 0.929 . S
C1972 C1968 1.407 . S
C1972 C1971 1.332 . S
H1973 C1966 0.930 . S
H1974 C1997 0.930 . S
H1975 C1998 0.929 . S
O1976 Tb1932 2.465 . S
O1976 C1996 1.264 . S
O1977 Tb1932 2.387 . S
O1977 C1988 1.264 . S
O1978 Tb1943 2.349 . S
O1978 C1988 1.243 . S
O1979 Tb1932 2.428 . S
O1979 C1996 1.256 . S
O1980 Tb1932 2.308 . S
O1980 C1995 1.266 . S
O1981 Tb1943 2.393 . S
O1981 C1995 1.248 . S
O1982 Tb1943 2.465 . S
O1982 C2007 1.264 . S
O1983 Tb1943 2.387 . S
O1983 C1999 1.264 . S
O1984 Tb1932 2.349 . S
O1984 C1999 1.243 . S
O1985 Tb1943 2.428 . S
O1985 C2007 1.256 . S
O1986 Tb1943 2.308 . S
O1986 C2006 1.266 . S
O1987 Tb1932 2.393 . S
O1987 C2006 1.248 . S
C1988 O1977 1.264 . S
C1988 O1978 1.243 . S
C1989 C1992 1.399 . S
C1989 C1994 1.383 . S
C1989 C1996 1.496 . S
C1990 C1991 1.399 . S
C1990 C1994 1.389 . S
C1991 C1990 1.399 . S
C1991 C1993 1.380 . S
C1991 H2008 0.929 . S
C1992 C1989 1.399 . S
C1992 C1993 1.392 . S
C1992 H2009 0.929 . S
C1993 C1991 1.380 . S
C1993 C1992 1.392 . S
C1993 H2010 0.929 . S
C1994 C1989 1.383 . S
C1994 C1990 1.389 . S
C1994 H2011 0.931 . S
C1995 O1980 1.266 . S
C1995 O1981 1.248 . S
C1996 Tb1932 2.802 . S
C1996 O1976 1.264 . S
C1996 O1979 1.256 . S
C1996 C1989 1.496 . S
C1997 C1964 1.448 . S
C1997 H1974 0.930 . S
C1997 C1998 1.328 . S
C1998 C1969 1.427 . S
C1998 H1975 0.929 . S
C1998 C1997 1.328 . S
C1999 O1983 1.264 . S
C1999 O1984 1.243 . S
C2000 C2003 1.399 . S
C2000 C2004 1.383 . S
C2000 C2007 1.496 . S
C2001 C2002 1.399 . S
C2001 C2004 1.389 . S
C2002 C2001 1.399 . S
C2002 C2005 1.380 . S
C2002 H2012 0.929 . S
C2003 C2000 1.399 . S
C2003 C2005 1.392 . S
C2003 H2013 0.929 . S
C2004 C2000 1.383 . S
C2004 C2001 1.389 . S
C2004 H2014 0.931 . S
C2005 C2002 1.380 . S
C2005 C2003 1.392 . S
C2005 H2015 0.929 . S
C2006 O1986 1.266 . S
C2006 O1987 1.248 . S
C2007 Tb1943 2.802 . S
C2007 O1982 1.264 . S
C2007 O1985 1.256 . S
C2007 C2000 1.496 . S
H2008 C1991 0.929 . S
H2009 C1992 0.929 . S
H2010 C1993 0.929 . S
H2011 C1994 0.931 . S
H2012 C2002 0.929 . S
H2013 C2003 0.929 . S
H2014 C2004 0.931 . S
H2015 C2005 0.929 . S
Tb2016 N2045 2.617 . S
Tb2016 N2051 2.572 . S
Tb2016 O2060 2.465 . S
Tb2016 O2061 2.387 . S
Tb2016 O2063 2.428 . S
Tb2016 O2064 2.308 . S
Tb2016 O2068 2.349 . S
Tb2016 O2071 2.393 . S
Tb2016 C2080 2.802 . S
C2017 N2018 1.379 . S
C2017 C2020 1.416 . S
C2017 C2024 1.424 . S
N2018 C2017 1.379 . S
N2018 C2021 1.334 . S
N2018 Tb2027 2.617 . S
C2019 C2021 1.390 . S
C2019 C2022 1.339 . S
C2019 H2039 0.930 . S
C2020 C2017 1.416 . S
C2020 C2022 1.416 . S
C2020 C2026 1.448 . S
C2021 N2018 1.334 . S
C2021 C2019 1.390 . S
C2021 H2032 0.930 . S
C2022 C2019 1.339 . S
C2022 C2020 1.416 . S
C2022 H2043 0.930 . S
C2023 C2024 1.413 . S
C2023 C2025 1.427 . S
C2023 C2029 1.416 . S
C2024 C2017 1.424 . S
C2024 C2023 1.413 . S
C2024 N2028 1.361 . S
C2025 C2023 1.427 . S
C2025 C2026 1.328 . S
C2025 H2040 0.929 . S
C2026 C2020 1.448 . S
C2026 C2025 1.328 . S
C2026 H2041 0.930 . S
Tb2027 N2018 2.617 . S
Tb2027 N2028 2.572 . S
Tb2027 O2062 2.349 . S
Tb2027 O2065 2.393 . S
Tb2027 O2066 2.465 . S
Tb2027 O2067 2.387 . S
Tb2027 O2069 2.428 . S
Tb2027 O2070 2.308 . S
Tb2027 C2091 2.802 . S
N2028 C2024 1.361 . S
N2028 Tb2027 2.572 . S
N2028 C2030 1.340 . S
C2029 C2023 1.416 . S
C2029 C2031 1.332 . S
C2029 H2037 0.931 . S
C2030 N2028 1.340 . S
C2030 C2031 1.407 . S
C2030 H2036 0.930 . S
C2031 C2029 1.332 . S
C2031 C2030 1.407 . S
C2031 H2033 0.929 . S
H2032 C2021 0.930 . S
H2033 C2031 0.929 . S
H2034 C2049 0.930 . S
H2035 C2056 0.929 . S
H2036 C2030 0.930 . S
H2037 C2029 0.931 . S
H2038 C2052 0.930 . S
H2039 C2019 0.930 . S
H2040 C2025 0.929 . S
H2041 C2026 0.930 . S
H2042 C2047 0.930 . S
H2043 C2022 0.930 . S
H2044 C2055 0.931 . S
N2045 Tb2016 2.617 . S
N2045 C2046 1.379 . S
N2045 C2049 1.334 . S
C2046 N2045 1.379 . S
C2046 C2048 1.416 . S
C2046 C2054 1.424 . S
C2047 H2042 0.930 . S
C2047 C2049 1.390 . S
C2047 C2050 1.339 . S
C2048 C2046 1.416 . S
C2048 C2050 1.416 . S
C2048 C2081 1.448 . S
C2049 H2034 0.930 . S
C2049 N2045 1.334 . S
C2049 C2047 1.390 . S
C2050 C2047 1.339 . S
C2050 C2048 1.416 . S
C2050 H2057 0.930 . S
N2051 Tb2016 2.572 . S
N2051 C2052 1.340 . S
N2051 C2054 1.361 . S
C2052 H2038 0.930 . S
C2052 N2051 1.340 . S
C2052 C2056 1.407 . S
C2053 C2054 1.413 . S
C2053 C2055 1.416 . S
C2053 C2082 1.427 . S
C2054 C2046 1.424 . S
C2054 N2051 1.361 . S
C2054 C2053 1.413 . S
C2055 H2044 0.931 . S
C2055 C2053 1.416 . S
C2055 C2056 1.332 . S
C2056 H2035 0.929 . S
C2056 C2052 1.407 . S
C2056 C2055 1.332 . S
H2057 C2050 0.930 . S
H2058 C2081 0.930 . S
H2059 C2082 0.929 . S
O2060 Tb2016 2.465 . S
O2060 C2080 1.264 . S
O2061 Tb2016 2.387 . S
O2061 C2072 1.264 . S
O2062 Tb2027 2.349 . S
O2062 C2072 1.243 . S
O2063 Tb2016 2.428 . S
O2063 C2080 1.256 . S
O2064 Tb2016 2.308 . S
O2064 C2079 1.266 . S
O2065 Tb2027 2.393 . S
O2065 C2079 1.248 . S
O2066 Tb2027 2.465 . S
O2066 C2091 1.264 . S
O2067 Tb2027 2.387 . S
O2067 C2083 1.264 . S
O2068 Tb2016 2.349 . S
O2068 C2083 1.243 . S
O2069 Tb2027 2.428 . S
O2069 C2091 1.256 . S
O2070 Tb2027 2.308 . S
O2070 C2090 1.266 . S
O2071 Tb2016 2.393 . S
O2071 C2090 1.248 . S
C2072 O2061 1.264 . S
C2072 O2062 1.243 . S
C2073 C2076 1.399 . S
C2073 C2078 1.383 . S
C2073 C2080 1.496 . S
C2074 C2075 1.399 . S
C2074 C2078 1.389 . S
C2075 C2074 1.399 . S
C2075 C2077 1.380 . S
C2075 H2092 0.929 . S
C2076 C2073 1.399 . S
C2076 C2077 1.392 . S
C2076 H2093 0.929 . S
C2077 C2075 1.380 . S
C2077 C2076 1.392 . S
C2077 H2094 0.929 . S
C2078 C2073 1.383 . S
C2078 C2074 1.389 . S
C2078 H2095 0.931 . S
C2079 O2064 1.266 . S
C2079 O2065 1.248 . S
C2080 Tb2016 2.802 . S
C2080 O2060 1.264 . S
C2080 O2063 1.256 . S
C2080 C2073 1.496 . S
C2081 C2048 1.448 . S
C2081 H2058 0.930 . S
C2081 C2082 1.328 . S
C2082 C2053 1.427 . S
C2082 H2059 0.929 . S
C2082 C2081 1.328 . S
C2083 O2067 1.264 . S
C2083 O2068 1.243 . S
C2084 C2087 1.399 . S
C2084 C2088 1.383 . S
C2084 C2091 1.496 . S
C2085 C2086 1.399 . S
C2085 C2088 1.389 . S
C2086 C2085 1.399 . S
C2086 C2089 1.380 . S
C2086 H2096 0.929 . S
C2087 C2084 1.399 . S
C2087 C2089 1.392 . S
C2087 H2097 0.929 . S
C2088 C2084 1.383 . S
C2088 C2085 1.389 . S
C2088 H2098 0.931 . S
C2089 C2086 1.380 . S
C2089 C2087 1.392 . S
C2089 H2099 0.929 . S
C2090 O2070 1.266 . S
C2090 O2071 1.248 . S
C2091 Tb2027 2.802 . S
C2091 O2066 1.264 . S
C2091 O2069 1.256 . S
C2091 C2084 1.496 . S
H2092 C2075 0.929 . S
H2093 C2076 0.929 . S
H2094 C2077 0.929 . S
H2095 C2078 0.931 . S
H2096 C2086 0.929 . S
H2097 C2087 0.929 . S
H2098 C2088 0.931 . S
H2099 C2089 0.929 . S
Tb2100 N2129 2.617 . S
Tb2100 N2135 2.572 . S
Tb2100 O2144 2.465 . S
Tb2100 O2145 2.387 . S
Tb2100 O2147 2.428 . S
Tb2100 O2148 2.308 . S
Tb2100 O2152 2.372 . S
Tb2100 O2155 2.393 . S
Tb2100 C2164 2.843 . S
C2101 N2102 1.379 1_554 S
C2101 C2104 1.416 . S
C2101 C2108 1.424 . S
N2102 C2101 1.379 1_556 S
N2102 C2105 1.334 1_556 S
N2102 Tb2111 2.617 . S
C2103 C2105 1.390 . S
C2103 C2106 1.339 . S
C2103 H2123 0.930 . S
C2104 C2101 1.416 . S
C2104 C2106 1.416 . S
C2104 C2110 1.448 . S
C2105 N2102 1.334 1_554 S
C2105 C2103 1.390 . S
C2105 H2116 0.930 1_554 S
C2106 C2103 1.339 . S
C2106 C2104 1.416 . S
C2106 H2127 0.930 . S
C2107 C2108 1.413 . S
C2107 C2109 1.427 . S
C2107 C2113 1.416 . S
C2108 C2101 1.424 . S
C2108 C2107 1.413 . S
C2108 N2112 1.361 1_554 S
C2109 C2107 1.427 . S
C2109 C2110 1.328 . S
C2109 H2124 0.929 . S
C2110 C2104 1.448 . S
C2110 C2109 1.328 . S
C2110 H2125 0.930 . S
Tb2111 N2102 2.617 . S
Tb2111 N2112 2.572 . S
Tb2111 O2146 2.349 . S
Tb2111 O2149 2.393 . S
Tb2111 O2150 2.465 . S
Tb2111 O2151 2.387 1_556 S
Tb2111 O2153 2.428 . S
Tb2111 O2154 2.308 . S
Tb2111 C2175 2.802 . S
N2112 C2108 1.361 1_556 S
N2112 Tb2111 2.572 . S
N2112 C2114 1.340 . S
C2113 C2107 1.416 . S
C2113 C2115 1.332 1_554 S
C2113 H2121 0.931 . S
C2114 N2112 1.340 . S
C2114 C2115 1.407 . S
C2114 H2120 0.930 . S
C2115 C2113 1.332 1_556 S
C2115 C2114 1.407 . S
C2115 H2117 0.929 . S
H2116 C2105 0.930 1_556 S
H2117 C2115 0.929 . S
H2118 C2133 0.930 . S
H2119 C2140 0.929 . S
H2120 C2114 0.930 . S
H2121 C2113 0.931 . S
H2122 C2136 0.930 . S
H2123 C2103 0.930 . S
H2124 C2109 0.929 . S
H2125 C2110 0.930 . S
H2126 C2131 0.930 . S
H2127 C2106 0.930 . S
H2128 C2139 0.931 . S
N2129 Tb2100 2.617 . S
N2129 C2130 1.379 . S
N2129 C2133 1.334 . S
C2130 N2129 1.379 . S
C2130 C2132 1.416 . S
C2130 C2138 1.424 . S
C2131 H2126 0.930 . S
C2131 C2133 1.390 . S
C2131 C2134 1.339 . S
C2132 C2130 1.416 . S
C2132 C2134 1.416 . S
C2132 C2165 1.448 . S
C2133 H2118 0.930 . S
C2133 N2129 1.334 . S
C2133 C2131 1.390 . S
C2134 C2131 1.339 . S
C2134 C2132 1.416 . S
C2134 H2141 0.930 . S
N2135 Tb2100 2.572 . S
N2135 C2136 1.340 . S
N2135 C2138 1.361 . S
C2136 H2122 0.930 . S
C2136 N2135 1.340 . S
C2136 C2140 1.407 . S
C2137 C2138 1.413 . S
C2137 C2139 1.416 . S
C2137 C2166 1.427 . S
C2138 C2130 1.424 . S
C2138 N2135 1.361 . S
C2138 C2137 1.413 . S
C2139 H2128 0.931 . S
C2139 C2137 1.416 . S
C2139 C2140 1.332 . S
C2140 H2119 0.929 . S
C2140 C2136 1.407 . S
C2140 C2139 1.332 . S
H2141 C2134 0.930 . S
H2142 C2165 0.930 . S
H2143 C2166 0.929 . S
O2144 Tb2100 2.465 . S
O2144 C2164 1.269 . S
O2145 Tb2100 2.387 . S
O2145 C2156 1.264 . S
O2146 Tb2111 2.349 . S
O2146 C2156 1.243 . S
O2147 Tb2100 2.428 . S
O2147 C2164 1.293 . S
O2148 Tb2100 2.308 . S
O2148 C2163 1.266 . S
O2149 Tb2111 2.393 . S
O2149 C2163 1.248 . S
O2150 Tb2111 2.465 . S
O2150 C2175 1.264 . S
O2151 Tb2111 2.387 1_554 S
O2151 C2167 1.264 . S
O2152 Tb2100 2.372 . S
O2152 C2167 1.232 1_556 S
O2153 Tb2111 2.428 . S
O2153 C2175 1.256 . S
O2154 Tb2111 2.308 . S
O2154 C2174 1.266 . S
O2155 Tb2100 2.393 . S
O2155 C2174 1.248 . S
C2156 O2145 1.264 . S
C2156 O2146 1.243 . S
C2157 C2160 1.399 . S
C2157 C2162 1.383 . S
C2157 C2164 1.456 1_554 S
C2158 C2159 1.399 . S
C2158 C2162 1.389 . S
C2159 C2158 1.399 . S
C2159 C2161 1.380 . S
C2159 H2176 0.929 . S
C2160 C2157 1.399 . S
C2160 C2161 1.392 . S
C2160 H2177 0.929 . S
C2161 C2159 1.380 . S
C2161 C2160 1.392 . S
C2161 H2178 0.929 . S
C2162 C2157 1.383 . S
C2162 C2158 1.389 . S
C2162 H2179 0.931 . S
C2163 O2148 1.266 . S
C2163 O2149 1.248 . S
C2164 Tb2100 2.843 . S
C2164 O2144 1.269 . S
C2164 O2147 1.293 . S
C2164 C2157 1.456 1_556 S
C2165 C2132 1.448 . S
C2165 H2142 0.930 . S
C2165 C2166 1.328 . S
C2166 C2137 1.427 . S
C2166 H2143 0.929 . S
C2166 C2165 1.328 . S
C2167 O2151 1.264 . S
C2167 O2152 1.232 1_554 S
C2168 C2171 1.399 . S
C2168 C2172 1.383 . S
C2168 C2175 1.496 . S
C2169 C2170 1.399 . S
C2169 C2172 1.389 . S
C2170 C2169 1.399 . S
C2170 C2173 1.380 . S
C2170 H2180 0.929 . S
C2171 C2168 1.399 . S
C2171 C2173 1.392 . S
C2171 H2181 0.929 . S
C2172 C2168 1.383 . S
C2172 C2169 1.389 . S
C2172 H2182 0.931 . S
C2173 C2170 1.380 . S
C2173 C2171 1.392 . S
C2173 H2183 0.929 . S
C2174 O2154 1.266 . S
C2174 O2155 1.248 . S
C2175 Tb2111 2.802 . S
C2175 O2150 1.264 . S
C2175 O2153 1.256 . S
C2175 C2168 1.496 . S
H2176 C2159 0.929 . S
H2177 C2160 0.929 . S
H2178 C2161 0.929 . S
H2179 C2162 0.931 . S
H2180 C2170 0.929 . S
H2181 C2171 0.929 . S
H2182 C2172 0.931 . S
H2183 C2173 0.929 . S
Tb2184 N2213 2.617 . S
Tb2184 N2219 2.572 . S
Tb2184 O2228 2.465 . S
Tb2184 O2229 2.387 . S
Tb2184 O2231 2.428 . S
Tb2184 O2232 2.308 . S
Tb2184 O2236 2.349 . S
Tb2184 O2239 2.393 . S
Tb2184 C2248 2.802 . S
C2185 N2186 1.379 . S
C2185 C2188 1.416 . S
C2185 C2192 1.424 . S
N2186 C2185 1.379 . S
N2186 C2189 1.334 . S
N2186 Tb2195 2.617 . S
C2187 C2189 1.390 . S
C2187 C2190 1.339 . S
C2187 H2207 0.930 . S
C2188 C2185 1.416 . S
C2188 C2190 1.416 . S
C2188 C2194 1.448 . S
C2189 N2186 1.334 . S
C2189 C2187 1.390 . S
C2189 H2200 0.930 . S
C2190 C2187 1.339 . S
C2190 C2188 1.416 . S
C2190 H2211 0.930 . S
C2191 C2192 1.413 . S
C2191 C2193 1.427 . S
C2191 C2197 1.416 . S
C2192 C2185 1.424 . S
C2192 C2191 1.413 . S
C2192 N2196 1.361 . S
C2193 C2191 1.427 . S
C2193 C2194 1.328 . S
C2193 H2208 0.929 . S
C2194 C2188 1.448 . S
C2194 C2193 1.328 . S
C2194 H2209 0.930 . S
Tb2195 N2186 2.617 . S
Tb2195 N2196 2.572 . S
Tb2195 O2230 2.349 . S
Tb2195 O2233 2.393 . S
Tb2195 O2234 2.465 . S
Tb2195 O2235 2.387 . S
Tb2195 O2237 2.428 . S
Tb2195 O2238 2.308 . S
Tb2195 C2259 2.802 . S
N2196 C2192 1.361 . S
N2196 Tb2195 2.572 . S
N2196 C2198 1.340 . S
C2197 C2191 1.416 . S
C2197 C2199 1.332 . S
C2197 H2205 0.931 . S
C2198 N2196 1.340 . S
C2198 C2199 1.407 . S
C2198 H2204 0.930 . S
C2199 C2197 1.332 . S
C2199 C2198 1.407 . S
C2199 H2201 0.929 . S
H2200 C2189 0.930 . S
H2201 C2199 0.929 . S
H2202 C2217 0.930 . S
H2203 C2224 0.929 . S
H2204 C2198 0.930 . S
H2205 C2197 0.931 . S
H2206 C2220 0.930 . S
H2207 C2187 0.930 . S
H2208 C2193 0.929 . S
H2209 C2194 0.930 . S
H2210 C2215 0.930 . S
H2211 C2190 0.930 . S
H2212 C2223 0.931 . S
N2213 Tb2184 2.617 . S
N2213 C2214 1.379 . S
N2213 C2217 1.334 . S
C2214 N2213 1.379 . S
C2214 C2216 1.416 . S
C2214 C2222 1.424 . S
C2215 H2210 0.930 . S
C2215 C2217 1.390 . S
C2215 C2218 1.339 . S
C2216 C2214 1.416 . S
C2216 C2218 1.416 . S
C2216 C2249 1.448 . S
C2217 H2202 0.930 . S
C2217 N2213 1.334 . S
C2217 C2215 1.390 . S
C2218 C2215 1.339 . S
C2218 C2216 1.416 . S
C2218 H2225 0.930 . S
N2219 Tb2184 2.572 . S
N2219 C2220 1.340 . S
N2219 C2222 1.361 . S
C2220 H2206 0.930 . S
C2220 N2219 1.340 . S
C2220 C2224 1.407 . S
C2221 C2222 1.413 . S
C2221 C2223 1.416 . S
C2221 C2250 1.427 . S
C2222 C2214 1.424 . S
C2222 N2219 1.361 . S
C2222 C2221 1.413 . S
C2223 H2212 0.931 . S
C2223 C2221 1.416 . S
C2223 C2224 1.332 . S
C2224 H2203 0.929 . S
C2224 C2220 1.407 . S
C2224 C2223 1.332 . S
H2225 C2218 0.930 . S
H2226 C2249 0.930 . S
H2227 C2250 0.929 . S
O2228 Tb2184 2.465 . S
O2228 C2248 1.264 . S
O2229 Tb2184 2.387 . S
O2229 C2240 1.264 . S
O2230 Tb2195 2.349 . S
O2230 C2240 1.243 . S
O2231 Tb2184 2.428 . S
O2231 C2248 1.256 . S
O2232 Tb2184 2.308 . S
O2232 C2247 1.266 . S
O2233 Tb2195 2.393 . S
O2233 C2247 1.248 . S
O2234 Tb2195 2.465 . S
O2234 C2259 1.264 . S
O2235 Tb2195 2.387 . S
O2235 C2251 1.264 . S
O2236 Tb2184 2.349 . S
O2236 C2251 1.243 . S
O2237 Tb2195 2.428 . S
O2237 C2259 1.256 . S
O2238 Tb2195 2.308 . S
O2238 C2258 1.266 . S
O2239 Tb2184 2.393 . S
O2239 C2258 1.248 . S
C2240 O2229 1.264 . S
C2240 O2230 1.243 . S
C2241 C2244 1.399 . S
C2241 C2246 1.383 . S
C2241 C2248 1.496 . S
C2242 C2243 1.399 . S
C2242 C2246 1.389 . S
C2243 C2242 1.399 . S
C2243 C2245 1.380 . S
C2243 H2260 0.929 . S
C2244 C2241 1.399 . S
C2244 C2245 1.392 . S
C2244 H2261 0.929 . S
C2245 C2243 1.380 . S
C2245 C2244 1.392 . S
C2245 H2262 0.929 . S
C2246 C2241 1.383 . S
C2246 C2242 1.389 . S
C2246 H2263 0.931 . S
C2247 O2232 1.266 . S
C2247 O2233 1.248 . S
C2248 Tb2184 2.802 . S
C2248 O2228 1.264 . S
C2248 O2231 1.256 . S
C2248 C2241 1.496 . S
C2249 C2216 1.448 . S
C2249 H2226 0.930 . S
C2249 C2250 1.328 . S
C2250 C2221 1.427 . S
C2250 H2227 0.929 . S
C2250 C2249 1.328 . S
C2251 O2235 1.264 . S
C2251 O2236 1.243 . S
C2252 C2255 1.399 . S
C2252 C2256 1.383 . S
C2252 C2259 1.496 . S
C2253 C2254 1.399 . S
C2253 C2256 1.389 . S
C2254 C2253 1.399 . S
C2254 C2257 1.380 . S
C2254 H2264 0.929 . S
C2255 C2252 1.399 . S
C2255 C2257 1.392 . S
C2255 H2265 0.929 . S
C2256 C2252 1.383 . S
C2256 C2253 1.389 . S
C2256 H2266 0.931 . S
C2257 C2254 1.380 . S
C2257 C2255 1.392 . S
C2257 H2267 0.929 . S
C2258 O2238 1.266 . S
C2258 O2239 1.248 . S
C2259 Tb2195 2.802 . S
C2259 O2234 1.264 . S
C2259 O2237 1.256 . S
C2259 C2252 1.496 . S
H2260 C2243 0.929 . S
H2261 C2244 0.929 . S
H2262 C2245 0.929 . S
H2263 C2246 0.931 . S
H2264 C2254 0.929 . S
H2265 C2255 0.929 . S
H2266 C2256 0.931 . S
H2267 C2257 0.929 . S
Tb2268 N2297 2.617 . S
Tb2268 N2303 2.572 . S
Tb2268 O2312 2.465 . S
Tb2268 O2313 2.387 . S
Tb2268 O2315 2.428 . S
Tb2268 O2316 2.308 . S
Tb2268 O2320 2.349 . S
Tb2268 O2323 2.393 . S
Tb2268 C2332 2.802 . S
C2269 N2270 1.379 . S
C2269 C2272 1.416 . S
C2269 C2276 1.424 . S
N2270 C2269 1.379 . S
N2270 C2273 1.334 . S
N2270 Tb2279 2.617 . S
C2271 C2273 1.390 . S
C2271 C2274 1.339 . S
C2271 H2291 0.930 . S
C2272 C2269 1.416 . S
C2272 C2274 1.416 . S
C2272 C2278 1.448 . S
C2273 N2270 1.334 . S
C2273 C2271 1.390 . S
C2273 H2284 0.930 . S
C2274 C2271 1.339 . S
C2274 C2272 1.416 . S
C2274 H2295 0.930 . S
C2275 C2276 1.413 . S
C2275 C2277 1.427 . S
C2275 C2281 1.416 . S
C2276 C2269 1.424 . S
C2276 C2275 1.413 . S
C2276 N2280 1.361 . S
C2277 C2275 1.427 . S
C2277 C2278 1.328 . S
C2277 H2292 0.929 . S
C2278 C2272 1.448 . S
C2278 C2277 1.328 . S
C2278 H2293 0.930 . S
Tb2279 N2270 2.617 . S
Tb2279 N2280 2.572 . S
Tb2279 O2314 2.349 . S
Tb2279 O2317 2.393 . S
Tb2279 O2318 2.465 . S
Tb2279 O2319 2.387 . S
Tb2279 O2321 2.428 . S
Tb2279 O2322 2.308 . S
Tb2279 C2343 2.802 . S
N2280 C2276 1.361 . S
N2280 Tb2279 2.572 . S
N2280 C2282 1.340 . S
C2281 C2275 1.416 . S
C2281 C2283 1.332 . S
C2281 H2289 0.931 . S
C2282 N2280 1.340 . S
C2282 C2283 1.407 . S
C2282 H2288 0.930 . S
C2283 C2281 1.332 . S
C2283 C2282 1.407 . S
C2283 H2285 0.929 . S
H2284 C2273 0.930 . S
H2285 C2283 0.929 . S
H2286 C2301 0.930 . S
H2287 C2308 0.929 . S
H2288 C2282 0.930 . S
H2289 C2281 0.931 . S
H2290 C2304 0.930 . S
H2291 C2271 0.930 . S
H2292 C2277 0.929 . S
H2293 C2278 0.930 . S
H2294 C2299 0.930 . S
H2295 C2274 0.930 . S
H2296 C2307 0.931 . S
N2297 Tb2268 2.617 . S
N2297 C2298 1.379 . S
N2297 C2301 1.334 . S
C2298 N2297 1.379 . S
C2298 C2300 1.416 . S
C2298 C2306 1.424 . S
C2299 H2294 0.930 . S
C2299 C2301 1.390 . S
C2299 C2302 1.339 . S
C2300 C2298 1.416 . S
C2300 C2302 1.416 . S
C2300 C2333 1.448 . S
C2301 H2286 0.930 . S
C2301 N2297 1.334 . S
C2301 C2299 1.390 . S
C2302 C2299 1.339 . S
C2302 C2300 1.416 . S
C2302 H2309 0.930 . S
N2303 Tb2268 2.572 . S
N2303 C2304 1.340 . S
N2303 C2306 1.361 . S
C2304 H2290 0.930 . S
C2304 N2303 1.340 . S
C2304 C2308 1.407 . S
C2305 C2306 1.413 . S
C2305 C2307 1.416 . S
C2305 C2334 1.427 . S
C2306 C2298 1.424 . S
C2306 N2303 1.361 . S
C2306 C2305 1.413 . S
C2307 H2296 0.931 . S
C2307 C2305 1.416 . S
C2307 C2308 1.332 . S
C2308 H2287 0.929 . S
C2308 C2304 1.407 . S
C2308 C2307 1.332 . S
H2309 C2302 0.930 . S
H2310 C2333 0.930 . S
H2311 C2334 0.929 . S
O2312 Tb2268 2.465 . S
O2312 C2332 1.264 . S
O2313 Tb2268 2.387 . S
O2313 C2324 1.264 . S
O2314 Tb2279 2.349 . S
O2314 C2324 1.243 . S
O2315 Tb2268 2.428 . S
O2315 C2332 1.256 . S
O2316 Tb2268 2.308 . S
O2316 C2331 1.266 . S
O2317 Tb2279 2.393 . S
O2317 C2331 1.248 . S
O2318 Tb2279 2.465 . S
O2318 C2343 1.264 . S
O2319 Tb2279 2.387 . S
O2319 C2335 1.264 . S
O2320 Tb2268 2.349 . S
O2320 C2335 1.243 . S
O2321 Tb2279 2.428 . S
O2321 C2343 1.256 . S
O2322 Tb2279 2.308 . S
O2322 C2342 1.266 . S
O2323 Tb2268 2.393 . S
O2323 C2342 1.248 . S
C2324 O2313 1.264 . S
C2324 O2314 1.243 . S
C2325 C2328 1.399 . S
C2325 C2330 1.383 . S
C2325 C2332 1.496 . S
C2326 C2327 1.399 . S
C2326 C2330 1.389 . S
C2327 C2326 1.399 . S
C2327 C2329 1.380 . S
C2327 H2344 0.929 . S
C2328 C2325 1.399 . S
C2328 C2329 1.392 . S
C2328 H2345 0.929 . S
C2329 C2327 1.380 . S
C2329 C2328 1.392 . S
C2329 H2346 0.929 . S
C2330 C2325 1.383 . S
C2330 C2326 1.389 . S
C2330 H2347 0.931 . S
C2331 O2316 1.266 . S
C2331 O2317 1.248 . S
C2332 Tb2268 2.802 . S
C2332 O2312 1.264 . S
C2332 O2315 1.256 . S
C2332 C2325 1.496 . S
C2333 C2300 1.448 . S
C2333 H2310 0.930 . S
C2333 C2334 1.328 . S
C2334 C2305 1.427 . S
C2334 H2311 0.929 . S
C2334 C2333 1.328 . S
C2335 O2319 1.264 . S
C2335 O2320 1.243 . S
C2336 C2339 1.399 . S
C2336 C2340 1.383 . S
C2336 C2343 1.496 . S
C2337 C2338 1.399 . S
C2337 C2340 1.389 . S
C2338 C2337 1.399 . S
C2338 C2341 1.380 . S
C2338 H2348 0.929 . S
C2339 C2336 1.399 . S
C2339 C2341 1.392 . S
C2339 H2349 0.929 . S
C2340 C2336 1.383 . S
C2340 C2337 1.389 . S
C2340 H2350 0.931 . S
C2341 C2338 1.380 . S
C2341 C2339 1.392 . S
C2341 H2351 0.929 . S
C2342 O2322 1.266 . S
C2342 O2323 1.248 . S
C2343 Tb2279 2.802 . S
C2343 O2318 1.264 . S
C2343 O2321 1.256 . S
C2343 C2336 1.496 . S
H2344 C2327 0.929 . S
H2345 C2328 0.929 . S
H2346 C2329 0.929 . S
H2347 C2330 0.931 . S
H2348 C2338 0.929 . S
H2349 C2339 0.929 . S
H2350 C2340 0.931 . S
H2351 C2341 0.929 . S
Tb2352 N2381 2.617 . S
Tb2352 N2387 2.572 . S
Tb2352 O2396 2.465 . S
Tb2352 O2397 2.387 . S
Tb2352 O2399 2.428 . S
Tb2352 O2400 2.308 . S
Tb2352 O2404 2.349 . S
Tb2352 O2407 2.393 . S
Tb2352 C2416 2.802 . S
C2353 N2354 1.379 . S
C2353 C2356 1.416 . S
C2353 C2360 1.424 . S
N2354 C2353 1.379 . S
N2354 C2357 1.334 . S
N2354 Tb2363 2.617 . S
C2355 C2357 1.390 . S
C2355 C2358 1.339 . S
C2355 H2375 0.930 . S
C2356 C2353 1.416 . S
C2356 C2358 1.416 . S
C2356 C2362 1.448 . S
C2357 N2354 1.334 . S
C2357 C2355 1.390 . S
C2357 H2368 0.930 . S
C2358 C2355 1.339 . S
C2358 C2356 1.416 . S
C2358 H2379 0.930 . S
C2359 C2360 1.413 . S
C2359 C2361 1.427 . S
C2359 C2365 1.416 . S
C2360 C2353 1.424 . S
C2360 C2359 1.413 . S
C2360 N2364 1.361 . S
C2361 C2359 1.427 . S
C2361 C2362 1.328 . S
C2361 H2376 0.929 . S
C2362 C2356 1.448 . S
C2362 C2361 1.328 . S
C2362 H2377 0.930 . S
Tb2363 N2354 2.617 . S
Tb2363 N2364 2.572 . S
Tb2363 O2398 2.349 . S
Tb2363 O2401 2.393 . S
Tb2363 O2402 2.465 . S
Tb2363 O2403 2.387 . S
Tb2363 O2405 2.428 . S
Tb2363 O2406 2.308 . S
Tb2363 C2427 2.802 . S
N2364 C2360 1.361 . S
N2364 Tb2363 2.572 . S
N2364 C2366 1.340 . S
C2365 C2359 1.416 . S
C2365 C2367 1.332 . S
C2365 H2373 0.931 . S
C2366 N2364 1.340 . S
C2366 C2367 1.407 . S
C2366 H2372 0.930 . S
C2367 C2365 1.332 . S
C2367 C2366 1.407 . S
C2367 H2369 0.929 . S
H2368 C2357 0.930 . S
H2369 C2367 0.929 . S
H2370 C2385 0.930 . S
H2371 C2392 0.929 . S
H2372 C2366 0.930 . S
H2373 C2365 0.931 . S
H2374 C2388 0.930 . S
H2375 C2355 0.930 . S
H2376 C2361 0.929 . S
H2377 C2362 0.930 . S
H2378 C2383 0.930 . S
H2379 C2358 0.930 . S
H2380 C2391 0.931 . S
N2381 Tb2352 2.617 . S
N2381 C2382 1.379 . S
N2381 C2385 1.334 . S
C2382 N2381 1.379 . S
C2382 C2384 1.416 . S
C2382 C2390 1.424 . S
C2383 H2378 0.930 . S
C2383 C2385 1.390 . S
C2383 C2386 1.339 . S
C2384 C2382 1.416 . S
C2384 C2386 1.416 . S
C2384 C2417 1.448 . S
C2385 H2370 0.930 . S
C2385 N2381 1.334 . S
C2385 C2383 1.390 . S
C2386 C2383 1.339 . S
C2386 C2384 1.416 . S
C2386 H2393 0.930 . S
N2387 Tb2352 2.572 . S
N2387 C2388 1.340 . S
N2387 C2390 1.361 . S
C2388 H2374 0.930 . S
C2388 N2387 1.340 . S
C2388 C2392 1.407 . S
C2389 C2390 1.413 . S
C2389 C2391 1.416 . S
C2389 C2418 1.427 . S
C2390 C2382 1.424 . S
C2390 N2387 1.361 . S
C2390 C2389 1.413 . S
C2391 H2380 0.931 . S
C2391 C2389 1.416 . S
C2391 C2392 1.332 . S
C2392 H2371 0.929 . S
C2392 C2388 1.407 . S
C2392 C2391 1.332 . S
H2393 C2386 0.930 . S
H2394 C2417 0.930 . S
H2395 C2418 0.929 . S
O2396 Tb2352 2.465 . S
O2396 C2416 1.264 . S
O2397 Tb2352 2.387 . S
O2397 C2408 1.264 . S
O2398 Tb2363 2.349 . S
O2398 C2408 1.243 . S
O2399 Tb2352 2.428 . S
O2399 C2416 1.256 . S
O2400 Tb2352 2.308 . S
O2400 C2415 1.266 . S
O2401 Tb2363 2.393 . S
O2401 C2415 1.248 . S
O2402 Tb2363 2.465 . S
O2402 C2427 1.264 . S
O2403 Tb2363 2.387 . S
O2403 C2419 1.264 . S
O2404 Tb2352 2.349 . S
O2404 C2419 1.243 . S
O2405 Tb2363 2.428 . S
O2405 C2427 1.256 . S
O2406 Tb2363 2.308 . S
O2406 C2426 1.266 . S
O2407 Tb2352 2.393 . S
O2407 C2426 1.248 . S
C2408 O2397 1.264 . S
C2408 O2398 1.243 . S
C2409 C2412 1.399 . S
C2409 C2414 1.383 . S
C2409 C2416 1.496 . S
C2410 C2411 1.399 . S
C2410 C2414 1.389 . S
C2411 C2410 1.399 . S
C2411 C2413 1.380 . S
C2411 H2428 0.929 . S
C2412 C2409 1.399 . S
C2412 C2413 1.392 . S
C2412 H2429 0.929 . S
C2413 C2411 1.380 . S
C2413 C2412 1.392 . S
C2413 H2430 0.929 . S
C2414 C2409 1.383 . S
C2414 C2410 1.389 . S
C2414 H2431 0.931 . S
C2415 O2400 1.266 . S
C2415 O2401 1.248 . S
C2416 Tb2352 2.802 . S
C2416 O2396 1.264 . S
C2416 O2399 1.256 . S
C2416 C2409 1.496 . S
C2417 C2384 1.448 . S
C2417 H2394 0.930 . S
C2417 C2418 1.328 . S
C2418 C2389 1.427 . S
C2418 H2395 0.929 . S
C2418 C2417 1.328 . S
C2419 O2403 1.264 . S
C2419 O2404 1.243 . S
C2420 C2423 1.399 . S
C2420 C2424 1.383 . S
C2420 C2427 1.496 . S
C2421 C2422 1.399 . S
C2421 C2424 1.389 . S
C2422 C2421 1.399 . S
C2422 C2425 1.380 . S
C2422 H2432 0.929 . S
C2423 C2420 1.399 . S
C2423 C2425 1.392 . S
C2423 H2433 0.929 . S
C2424 C2420 1.383 . S
C2424 C2421 1.389 . S
C2424 H2434 0.931 . S
C2425 C2422 1.380 . S
C2425 C2423 1.392 . S
C2425 H2435 0.929 . S
C2426 O2406 1.266 . S
C2426 O2407 1.248 . S
C2427 Tb2363 2.802 . S
C2427 O2402 1.264 . S
C2427 O2405 1.256 . S
C2427 C2420 1.496 . S
H2428 C2411 0.929 . S
H2429 C2412 0.929 . S
H2430 C2413 0.929 . S
H2431 C2414 0.931 . S
H2432 C2422 0.929 . S
H2433 C2423 0.929 . S
H2434 C2424 0.931 . S
H2435 C2425 0.929 . S
Tb2436 N2465 2.617 . S
Tb2436 N2471 2.572 . S
Tb2436 O2480 2.465 . S
Tb2436 O2481 2.387 . S
Tb2436 O2483 2.428 . S
Tb2436 O2484 2.308 . S
Tb2436 O2488 2.372 . S
Tb2436 O2491 2.393 . S
Tb2436 C2500 2.843 . S
C2437 N2438 1.379 1_556 S
C2437 C2440 1.416 . S
C2437 C2444 1.424 . S
N2438 C2437 1.379 1_554 S
N2438 C2441 1.334 1_554 S
N2438 Tb2447 2.617 . S
C2439 C2441 1.390 . S
C2439 C2442 1.339 . S
C2439 H2459 0.930 . S
C2440 C2437 1.416 . S
C2440 C2442 1.416 . S
C2440 C2446 1.448 . S
C2441 N2438 1.334 1_556 S
C2441 C2439 1.390 . S
C2441 H2452 0.930 1_556 S
C2442 C2439 1.339 . S
C2442 C2440 1.416 . S
C2442 H2463 0.930 . S
C2443 C2444 1.413 . S
C2443 C2445 1.427 . S
C2443 C2449 1.416 . S
C2444 C2437 1.424 . S
C2444 C2443 1.413 . S
C2444 N2448 1.361 1_556 S
C2445 C2443 1.427 . S
C2445 C2446 1.328 . S
C2445 H2460 0.929 . S
C2446 C2440 1.448 . S
C2446 C2445 1.328 . S
C2446 H2461 0.930 . S
Tb2447 N2438 2.617 . S
Tb2447 N2448 2.572 . S
Tb2447 O2482 2.349 . S
Tb2447 O2485 2.393 . S
Tb2447 O2486 2.465 . S
Tb2447 O2487 2.387 1_554 S
Tb2447 O2489 2.428 . S
Tb2447 O2490 2.308 . S
Tb2447 C2511 2.802 . S
N2448 C2444 1.361 1_554 S
N2448 Tb2447 2.572 . S
N2448 C2450 1.340 . S
C2449 C2443 1.416 . S
C2449 C2451 1.332 1_556 S
C2449 H2457 0.931 . S
C2450 N2448 1.340 . S
C2450 C2451 1.407 . S
C2450 H2456 0.930 . S
C2451 C2449 1.332 1_554 S
C2451 C2450 1.407 . S
C2451 H2453 0.929 . S
H2452 C2441 0.930 1_554 S
H2453 C2451 0.929 . S
H2454 C2469 0.930 . S
H2455 C2476 0.929 . S
H2456 C2450 0.930 . S
H2457 C2449 0.931 . S
H2458 C2472 0.930 . S
H2459 C2439 0.930 . S
H2460 C2445 0.929 . S
H2461 C2446 0.930 . S
H2462 C2467 0.930 . S
H2463 C2442 0.930 . S
H2464 C2475 0.931 . S
N2465 Tb2436 2.617 . S
N2465 C2466 1.379 . S
N2465 C2469 1.334 . S
C2466 N2465 1.379 . S
C2466 C2468 1.416 . S
C2466 C2474 1.424 . S
C2467 H2462 0.930 . S
C2467 C2469 1.390 . S
C2467 C2470 1.339 . S
C2468 C2466 1.416 . S
C2468 C2470 1.416 . S
C2468 C2501 1.448 . S
C2469 H2454 0.930 . S
C2469 N2465 1.334 . S
C2469 C2467 1.390 . S
C2470 C2467 1.339 . S
C2470 C2468 1.416 . S
C2470 H2477 0.930 . S
N2471 Tb2436 2.572 . S
N2471 C2472 1.340 . S
N2471 C2474 1.361 . S
C2472 H2458 0.930 . S
C2472 N2471 1.340 . S
C2472 C2476 1.407 . S
C2473 C2474 1.413 . S
C2473 C2475 1.416 . S
C2473 C2502 1.427 . S
C2474 C2466 1.424 . S
C2474 N2471 1.361 . S
C2474 C2473 1.413 . S
C2475 H2464 0.931 . S
C2475 C2473 1.416 . S
C2475 C2476 1.332 . S
C2476 H2455 0.929 . S
C2476 C2472 1.407 . S
C2476 C2475 1.332 . S
H2477 C2470 0.930 . S
H2478 C2501 0.930 . S
H2479 C2502 0.929 . S
O2480 Tb2436 2.465 . S
O2480 C2500 1.269 . S
O2481 Tb2436 2.387 . S
O2481 C2492 1.264 . S
O2482 Tb2447 2.349 . S
O2482 C2492 1.243 . S
O2483 Tb2436 2.428 . S
O2483 C2500 1.293 . S
O2484 Tb2436 2.308 . S
O2484 C2499 1.266 . S
O2485 Tb2447 2.393 . S
O2485 C2499 1.248 . S
O2486 Tb2447 2.465 . S
O2486 C2511 1.264 . S
O2487 Tb2447 2.387 1_556 S
O2487 C2503 1.264 . S
O2488 Tb2436 2.372 . S
O2488 C2503 1.232 1_554 S
O2489 Tb2447 2.428 . S
O2489 C2511 1.256 . S
O2490 Tb2447 2.308 . S
O2490 C2510 1.266 . S
O2491 Tb2436 2.393 . S
O2491 C2510 1.248 . S
C2492 O2481 1.264 . S
C2492 O2482 1.243 . S
C2493 C2496 1.399 . S
C2493 C2498 1.383 . S
C2493 C2500 1.456 1_556 S
C2494 C2495 1.399 . S
C2494 C2498 1.389 . S
C2495 C2494 1.399 . S
C2495 C2497 1.380 . S
C2495 H2512 0.929 . S
C2496 C2493 1.399 . S
C2496 C2497 1.392 . S
C2496 H2513 0.929 . S
C2497 C2495 1.380 . S
C2497 C2496 1.392 . S
C2497 H2514 0.929 . S
C2498 C2493 1.383 . S
C2498 C2494 1.389 . S
C2498 H2515 0.931 . S
C2499 O2484 1.266 . S
C2499 O2485 1.248 . S
C2500 Tb2436 2.843 . S
C2500 O2480 1.269 . S
C2500 O2483 1.293 . S
C2500 C2493 1.456 1_554 S
C2501 C2468 1.448 . S
C2501 H2478 0.930 . S
C2501 C2502 1.328 . S
C2502 C2473 1.427 . S
C2502 H2479 0.929 . S
C2502 C2501 1.328 . S
C2503 O2487 1.264 . S
C2503 O2488 1.232 1_556 S
C2504 C2507 1.399 . S
C2504 C2508 1.383 . S
C2504 C2511 1.496 . S
C2505 C2506 1.399 . S
C2505 C2508 1.389 . S
C2506 C2505 1.399 . S
C2506 C2509 1.380 . S
C2506 H2516 0.929 . S
C2507 C2504 1.399 . S
C2507 C2509 1.392 . S
C2507 H2517 0.929 . S
C2508 C2504 1.383 . S
C2508 C2505 1.389 . S
C2508 H2518 0.931 . S
C2509 C2506 1.380 . S
C2509 C2507 1.392 . S
C2509 H2519 0.929 . S
C2510 O2490 1.266 . S
C2510 O2491 1.248 . S
C2511 Tb2447 2.802 . S
C2511 O2486 1.264 . S
C2511 O2489 1.256 . S
C2511 C2504 1.496 . S
H2512 C2495 0.929 . S
H2513 C2496 0.929 . S
H2514 C2497 0.929 . S
H2515 C2498 0.931 . S
H2516 C2506 0.929 . S
H2517 C2507 0.929 . S
H2518 C2508 0.931 . S
H2519 C2509 0.929 . S
Tb2520 N2549 2.617 . S
Tb2520 N2555 2.572 . S
Tb2520 O2564 2.465 . S
Tb2520 O2565 2.387 . S
Tb2520 O2567 2.428 . S
Tb2520 O2568 2.308 . S
Tb2520 O2572 2.349 . S
Tb2520 O2575 2.393 . S
Tb2520 C2584 2.802 . S
C2521 N2522 1.379 . S
C2521 C2524 1.416 . S
C2521 C2528 1.424 . S
N2522 C2521 1.379 . S
N2522 C2525 1.334 . S
N2522 Tb2531 2.617 . S
C2523 C2525 1.390 . S
C2523 C2526 1.339 . S
C2523 H2543 0.930 . S
C2524 C2521 1.416 . S
C2524 C2526 1.416 . S
C2524 C2530 1.448 . S
C2525 N2522 1.334 . S
C2525 C2523 1.390 . S
C2525 H2536 0.930 . S
C2526 C2523 1.339 . S
C2526 C2524 1.416 . S
C2526 H2547 0.930 . S
C2527 C2528 1.413 . S
C2527 C2529 1.427 . S
C2527 C2533 1.416 . S
C2528 C2521 1.424 . S
C2528 C2527 1.413 . S
C2528 N2532 1.361 . S
C2529 C2527 1.427 . S
C2529 C2530 1.328 . S
C2529 H2544 0.929 . S
C2530 C2524 1.448 . S
C2530 C2529 1.328 . S
C2530 H2545 0.930 . S
Tb2531 N2522 2.617 . S
Tb2531 N2532 2.572 . S
Tb2531 O2566 2.349 . S
Tb2531 O2569 2.393 . S
Tb2531 O2570 2.465 . S
Tb2531 O2571 2.387 . S
Tb2531 O2573 2.428 . S
Tb2531 O2574 2.308 . S
Tb2531 C2595 2.802 . S
N2532 C2528 1.361 . S
N2532 Tb2531 2.572 . S
N2532 C2534 1.340 . S
C2533 C2527 1.416 . S
C2533 C2535 1.332 . S
C2533 H2541 0.931 . S
C2534 N2532 1.340 . S
C2534 C2535 1.407 . S
C2534 H2540 0.930 . S
C2535 C2533 1.332 . S
C2535 C2534 1.407 . S
C2535 H2537 0.929 . S
H2536 C2525 0.930 . S
H2537 C2535 0.929 . S
H2538 C2553 0.930 . S
H2539 C2560 0.929 . S
H2540 C2534 0.930 . S
H2541 C2533 0.931 . S
H2542 C2556 0.930 . S
H2543 C2523 0.930 . S
H2544 C2529 0.929 . S
H2545 C2530 0.930 . S
H2546 C2551 0.930 . S
H2547 C2526 0.930 . S
H2548 C2559 0.931 . S
N2549 Tb2520 2.617 . S
N2549 C2550 1.379 . S
N2549 C2553 1.334 . S
C2550 N2549 1.379 . S
C2550 C2552 1.416 . S
C2550 C2558 1.424 . S
C2551 H2546 0.930 . S
C2551 C2553 1.390 . S
C2551 C2554 1.339 . S
C2552 C2550 1.416 . S
C2552 C2554 1.416 . S
C2552 C2585 1.448 . S
C2553 H2538 0.930 . S
C2553 N2549 1.334 . S
C2553 C2551 1.390 . S
C2554 C2551 1.339 . S
C2554 C2552 1.416 . S
C2554 H2561 0.930 . S
N2555 Tb2520 2.572 . S
N2555 C2556 1.340 . S
N2555 C2558 1.361 . S
C2556 H2542 0.930 . S
C2556 N2555 1.340 . S
C2556 C2560 1.407 . S
C2557 C2558 1.413 . S
C2557 C2559 1.416 . S
C2557 C2586 1.427 . S
C2558 C2550 1.424 . S
C2558 N2555 1.361 . S
C2558 C2557 1.413 . S
C2559 H2548 0.931 . S
C2559 C2557 1.416 . S
C2559 C2560 1.332 . S
C2560 H2539 0.929 . S
C2560 C2556 1.407 . S
C2560 C2559 1.332 . S
H2561 C2554 0.930 . S
H2562 C2585 0.930 . S
H2563 C2586 0.929 . S
O2564 Tb2520 2.465 . S
O2564 C2584 1.264 . S
O2565 Tb2520 2.387 . S
O2565 C2576 1.264 . S
O2566 Tb2531 2.349 . S
O2566 C2576 1.243 . S
O2567 Tb2520 2.428 . S
O2567 C2584 1.256 . S
O2568 Tb2520 2.308 . S
O2568 C2583 1.266 . S
O2569 Tb2531 2.393 . S
O2569 C2583 1.248 . S
O2570 Tb2531 2.465 . S
O2570 C2595 1.264 . S
O2571 Tb2531 2.387 . S
O2571 C2587 1.264 . S
O2572 Tb2520 2.349 . S
O2572 C2587 1.243 . S
O2573 Tb2531 2.428 . S
O2573 C2595 1.256 . S
O2574 Tb2531 2.308 . S
O2574 C2594 1.266 . S
O2575 Tb2520 2.393 . S
O2575 C2594 1.248 . S
C2576 O2565 1.264 . S
C2576 O2566 1.243 . S
C2577 C2580 1.399 . S
C2577 C2582 1.383 . S
C2577 C2584 1.496 . S
C2578 C2579 1.399 . S
C2578 C2582 1.389 . S
C2579 C2578 1.399 . S
C2579 C2581 1.380 . S
C2579 H2596 0.929 . S
C2580 C2577 1.399 . S
C2580 C2581 1.392 . S
C2580 H2597 0.929 . S
C2581 C2579 1.380 . S
C2581 C2580 1.392 . S
C2581 H2598 0.929 . S
C2582 C2577 1.383 . S
C2582 C2578 1.389 . S
C2582 H2599 0.931 . S
C2583 O2568 1.266 . S
C2583 O2569 1.248 . S
C2584 Tb2520 2.802 . S
C2584 O2564 1.264 . S
C2584 O2567 1.256 . S
C2584 C2577 1.496 . S
C2585 C2552 1.448 . S
C2585 H2562 0.930 . S
C2585 C2586 1.328 . S
C2586 C2557 1.427 . S
C2586 H2563 0.929 . S
C2586 C2585 1.328 . S
C2587 O2571 1.264 . S
C2587 O2572 1.243 . S
C2588 C2591 1.399 . S
C2588 C2592 1.383 . S
C2588 C2595 1.496 . S
C2589 C2590 1.399 . S
C2589 C2592 1.389 . S
C2590 C2589 1.399 . S
C2590 C2593 1.380 . S
C2590 H2600 0.929 . S
C2591 C2588 1.399 . S
C2591 C2593 1.392 . S
C2591 H2601 0.929 . S
C2592 C2588 1.383 . S
C2592 C2589 1.389 . S
C2592 H2602 0.931 . S
C2593 C2590 1.380 . S
C2593 C2591 1.392 . S
C2593 H2603 0.929 . S
C2594 O2574 1.266 . S
C2594 O2575 1.248 . S
C2595 Tb2531 2.802 . S
C2595 O2570 1.264 . S
C2595 O2573 1.256 . S
C2595 C2588 1.496 . S
H2596 C2579 0.929 . S
H2597 C2580 0.929 . S
H2598 C2581 0.929 . S
H2599 C2582 0.931 . S
H2600 C2590 0.929 . S
H2601 C2591 0.929 . S
H2602 C2592 0.931 . S
H2603 C2593 0.929 . S
Tb2604 N2633 2.617 . S
Tb2604 N2639 2.572 . S
Tb2604 O2648 2.465 . S
Tb2604 O2649 2.387 . S
Tb2604 O2651 2.428 . S
Tb2604 O2652 2.308 . S
Tb2604 O2656 2.349 . S
Tb2604 O2659 2.393 . S
Tb2604 C2668 2.802 . S
C2605 N2606 1.379 . S
C2605 C2608 1.416 . S
C2605 C2612 1.424 . S
N2606 C2605 1.379 . S
N2606 C2609 1.334 . S
N2606 Tb2615 2.617 . S
C2607 C2609 1.390 . S
C2607 C2610 1.339 . S
C2607 H2627 0.930 . S
C2608 C2605 1.416 . S
C2608 C2610 1.416 . S
C2608 C2614 1.448 . S
C2609 N2606 1.334 . S
C2609 C2607 1.390 . S
C2609 H2620 0.930 . S
C2610 C2607 1.339 . S
C2610 C2608 1.416 . S
C2610 H2631 0.930 . S
C2611 C2612 1.413 . S
C2611 C2613 1.427 . S
C2611 C2617 1.416 . S
C2612 C2605 1.424 . S
C2612 C2611 1.413 . S
C2612 N2616 1.361 . S
C2613 C2611 1.427 . S
C2613 C2614 1.328 . S
C2613 H2628 0.929 . S
C2614 C2608 1.448 . S
C2614 C2613 1.328 . S
C2614 H2629 0.930 . S
Tb2615 N2606 2.617 . S
Tb2615 N2616 2.572 . S
Tb2615 O2650 2.349 . S
Tb2615 O2653 2.393 . S
Tb2615 O2654 2.465 . S
Tb2615 O2655 2.387 . S
Tb2615 O2657 2.428 . S
Tb2615 O2658 2.308 . S
Tb2615 C2679 2.802 . S
N2616 C2612 1.361 . S
N2616 Tb2615 2.572 . S
N2616 C2618 1.340 . S
C2617 C2611 1.416 . S
C2617 C2619 1.332 . S
C2617 H2625 0.931 . S
C2618 N2616 1.340 . S
C2618 C2619 1.407 . S
C2618 H2624 0.930 . S
C2619 C2617 1.332 . S
C2619 C2618 1.407 . S
C2619 H2621 0.929 . S
H2620 C2609 0.930 . S
H2621 C2619 0.929 . S
H2622 C2637 0.930 . S
H2623 C2644 0.929 . S
H2624 C2618 0.930 . S
H2625 C2617 0.931 . S
H2626 C2640 0.930 . S
H2627 C2607 0.930 . S
H2628 C2613 0.929 . S
H2629 C2614 0.930 . S
H2630 C2635 0.930 . S
H2631 C2610 0.930 . S
H2632 C2643 0.931 . S
N2633 Tb2604 2.617 . S
N2633 C2634 1.379 . S
N2633 C2637 1.334 . S
C2634 N2633 1.379 . S
C2634 C2636 1.416 . S
C2634 C2642 1.424 . S
C2635 H2630 0.930 . S
C2635 C2637 1.390 . S
C2635 C2638 1.339 . S
C2636 C2634 1.416 . S
C2636 C2638 1.416 . S
C2636 C2669 1.448 . S
C2637 H2622 0.930 . S
C2637 N2633 1.334 . S
C2637 C2635 1.390 . S
C2638 C2635 1.339 . S
C2638 C2636 1.416 . S
C2638 H2645 0.930 . S
N2639 Tb2604 2.572 . S
N2639 C2640 1.340 . S
N2639 C2642 1.361 . S
C2640 H2626 0.930 . S
C2640 N2639 1.340 . S
C2640 C2644 1.407 . S
C2641 C2642 1.413 . S
C2641 C2643 1.416 . S
C2641 C2670 1.427 . S
C2642 C2634 1.424 . S
C2642 N2639 1.361 . S
C2642 C2641 1.413 . S
C2643 H2632 0.931 . S
C2643 C2641 1.416 . S
C2643 C2644 1.332 . S
C2644 H2623 0.929 . S
C2644 C2640 1.407 . S
C2644 C2643 1.332 . S
H2645 C2638 0.930 . S
H2646 C2669 0.930 . S
H2647 C2670 0.929 . S
O2648 Tb2604 2.465 . S
O2648 C2668 1.264 . S
O2649 Tb2604 2.387 . S
O2649 C2660 1.264 . S
O2650 Tb2615 2.349 . S
O2650 C2660 1.243 . S
O2651 Tb2604 2.428 . S
O2651 C2668 1.256 . S
O2652 Tb2604 2.308 . S
O2652 C2667 1.266 . S
O2653 Tb2615 2.393 . S
O2653 C2667 1.248 . S
O2654 Tb2615 2.465 . S
O2654 C2679 1.264 . S
O2655 Tb2615 2.387 . S
O2655 C2671 1.264 . S
O2656 Tb2604 2.349 . S
O2656 C2671 1.243 . S
O2657 Tb2615 2.428 . S
O2657 C2679 1.256 . S
O2658 Tb2615 2.308 . S
O2658 C2678 1.266 . S
O2659 Tb2604 2.393 . S
O2659 C2678 1.248 . S
C2660 O2649 1.264 . S
C2660 O2650 1.243 . S
C2661 C2664 1.399 . S
C2661 C2666 1.383 . S
C2661 C2668 1.496 . S
C2662 C2663 1.399 . S
C2662 C2666 1.389 . S
C2663 C2662 1.399 . S
C2663 C2665 1.380 . S
C2663 H2680 0.929 . S
C2664 C2661 1.399 . S
C2664 C2665 1.392 . S
C2664 H2681 0.929 . S
C2665 C2663 1.380 . S
C2665 C2664 1.392 . S
C2665 H2682 0.929 . S
C2666 C2661 1.383 . S
C2666 C2662 1.389 . S
C2666 H2683 0.931 . S
C2667 O2652 1.266 . S
C2667 O2653 1.248 . S
C2668 Tb2604 2.802 . S
C2668 O2648 1.264 . S
C2668 O2651 1.256 . S
C2668 C2661 1.496 . S
C2669 C2636 1.448 . S
C2669 H2646 0.930 . S
C2669 C2670 1.328 . S
C2670 C2641 1.427 . S
C2670 H2647 0.929 . S
C2670 C2669 1.328 . S
C2671 O2655 1.264 . S
C2671 O2656 1.243 . S
C2672 C2675 1.399 . S
C2672 C2676 1.383 . S
C2672 C2679 1.496 . S
C2673 C2674 1.399 . S
C2673 C2676 1.389 . S
C2674 C2673 1.399 . S
C2674 C2677 1.380 . S
C2674 H2684 0.929 . S
C2675 C2672 1.399 . S
C2675 C2677 1.392 . S
C2675 H2685 0.929 . S
C2676 C2672 1.383 . S
C2676 C2673 1.389 . S
C2676 H2686 0.931 . S
C2677 C2674 1.380 . S
C2677 C2675 1.392 . S
C2677 H2687 0.929 . S
C2678 O2658 1.266 . S
C2678 O2659 1.248 . S
C2679 Tb2615 2.802 . S
C2679 O2654 1.264 . S
C2679 O2657 1.256 . S
C2679 C2672 1.496 . S
H2680 C2663 0.929 . S
H2681 C2664 0.929 . S
H2682 C2665 0.929 . S
H2683 C2666 0.931 . S
H2684 C2674 0.929 . S
H2685 C2675 0.929 . S
H2686 C2676 0.931 . S
H2687 C2677 0.929 . S
H2688 C2706 0.951 . S
H2689 C2708 0.951 . S
H2690 C2710 0.950 . S
H2691 C2711 0.950 . S
H2692 C2713 0.950 . S
H2693 C2716 0.950 . S
H2694 C2717 0.950 . S
H2695 C2719 0.950 . S
H2696 C2720 0.950 . S
H2697 C2721 0.951 . S
H2698 C2723 0.951 . S
H2699 C2725 0.950 . S
H2700 C2726 0.950 . S
H2701 C2728 0.950 . S
H2702 C2731 0.950 . S
H2703 C2732 0.950 . S
H2704 C2734 0.950 . S
H2705 C2735 0.950 . S
C2706 H2688 0.951 . S
C2706 C2707 1.366 . S
C2706 C2708 1.388 . S
C2707 C2706 1.366 . S
C2707 C2711 1.385 . S
C2708 H2689 0.951 . S
C2708 C2706 1.388 . S
C2708 C2709 1.366 . S
C2709 C2708 1.366 . S
C2709 C2710 1.414 . S
C2709 C2712 1.499 . S
C2710 H2690 0.950 . S
C2710 C2709 1.414 . S
C2710 C2711 1.374 . S
C2711 H2691 0.950 . S
C2711 C2707 1.385 . S
C2711 C2710 1.374 . S
C2712 C2709 1.499 . S
C2712 C2713 1.373 . S
C2712 C2714 1.389 . S
C2713 H2692 0.950 . S
C2713 C2712 1.373 . S
C2713 C2729 1.377 . S
C2714 C2712 1.389 . S
C2714 C2715 1.524 . S
C2714 C2728 1.377 . S
C2715 C2714 1.524 . S
C2715 C2716 1.397 . S
C2715 C2720 1.363 . S
C2716 H2693 0.950 . S
C2716 C2715 1.397 . S
C2716 C2717 1.334 . S
C2717 H2694 0.950 . S
C2717 C2716 1.334 . S
C2717 C2718 1.287 . S
C2718 C2717 1.287 . S
C2718 C2719 1.524 . S
C2718 H2737 0.913 . S
C2719 H2695 0.950 . S
C2719 C2718 1.524 . S
C2719 C2720 1.415 . S
C2720 H2696 0.950 . S
C2720 C2715 1.363 . S
C2720 C2719 1.415 . S
C2721 H2697 0.951 . S
C2721 C2722 1.366 . S
C2721 C2723 1.388 . S
C2722 C2721 1.366 . S
C2722 C2726 1.385 . S
C2723 H2698 0.951 . S
C2723 C2721 1.388 . S
C2723 C2724 1.366 . S
C2724 C2723 1.366 . S
C2724 C2725 1.414 . S
C2724 C2727 1.499 . S
C2725 H2699 0.950 . S
C2725 C2724 1.414 . S
C2725 C2726 1.374 . S
C2726 H2700 0.950 . S
C2726 C2722 1.385 . S
C2726 C2725 1.374 . S
C2727 C2724 1.499 . S
C2727 C2728 1.373 . S
C2727 C2729 1.389 . S
C2728 H2701 0.950 . S
C2728 C2714 1.377 . S
C2728 C2727 1.373 . S
C2729 C2713 1.377 . S
C2729 C2727 1.389 . S
C2729 C2730 1.524 . S
C2730 C2729 1.524 . S
C2730 C2731 1.397 . S
C2730 C2735 1.363 . S
C2731 H2702 0.950 . S
C2731 C2730 1.397 . S
C2731 C2732 1.334 . S
C2732 H2703 0.950 . S
C2732 C2731 1.334 . S
C2732 C2733 1.287 . S
C2733 C2732 1.287 . S
C2733 C2734 1.524 . S
C2733 H2736 0.999 . S
C2734 H2704 0.950 . S
C2734 C2733 1.524 . S
C2734 C2735 1.415 . S
C2735 H2705 0.950 . S
C2735 C2730 1.363 . S
C2735 C2734 1.415 . S
H2736 C2733 0.999 . S
H2737 C2718 0.913 . S
H2738 C2756 0.951 . S
H2739 C2758 0.951 . S
H2740 C2760 0.950 . S
H2741 C2761 0.950 . S
H2742 C2763 0.950 . S
H2743 C2766 0.950 . S
H2744 C2767 0.950 . S
H2745 C2769 0.950 1_565 S
H2746 C2770 0.950 . S
H2747 C2771 0.951 . S
H2748 C2773 0.951 . S
H2749 C2775 0.950 . S
H2750 C2776 0.950 . S
H2751 C2778 0.950 . S
H2752 C2781 0.950 . S
H2753 C2782 0.950 . S
H2754 C2784 0.950 . S
H2755 C2785 0.950 . S
C2756 H2738 0.951 . S
C2756 C2757 1.366 . S
C2756 C2758 1.388 . S
C2757 C2756 1.366 . S
C2757 C2761 1.385 . S
C2758 H2739 0.951 . S
C2758 C2756 1.388 . S
C2758 C2759 1.366 . S
C2759 C2758 1.366 . S
C2759 C2760 1.414 . S
C2759 C2762 1.499 . S
C2760 H2740 0.950 . S
C2760 C2759 1.414 . S
C2760 C2761 1.374 . S
C2761 H2741 0.950 . S
C2761 C2757 1.385 . S
C2761 C2760 1.374 . S
C2762 C2759 1.499 . S
C2762 C2763 1.373 . S
C2762 C2764 1.389 . S
C2763 H2742 0.950 . S
C2763 C2762 1.373 . S
C2763 C2779 1.377 . S
C2764 C2762 1.389 . S
C2764 C2765 1.524 . S
C2764 C2778 1.377 . S
C2765 C2764 1.524 . S
C2765 C2766 1.397 . S
C2765 C2770 1.363 . S
C2766 H2743 0.950 . S
C2766 C2765 1.397 . S
C2766 C2767 1.334 . S
C2767 H2744 0.950 . S
C2767 C2766 1.334 . S
C2767 C2768 1.287 . S
C2768 C2767 1.287 . S
C2768 C2769 1.524 . S
C2768 H2787 0.913 . S
C2769 H2745 0.950 1_545 S
C2769 C2768 1.524 . S
C2769 C2770 1.415 . S
C2770 H2746 0.950 . S
C2770 C2765 1.363 . S
C2770 C2769 1.415 . S
C2771 H2747 0.951 . S
C2771 C2772 1.366 . S
C2771 C2773 1.388 1_565 S
C2772 C2771 1.366 . S
C2772 C2776 1.385 . S
C2773 H2748 0.951 . S
C2773 C2771 1.388 1_545 S
C2773 C2774 1.366 . S
C2774 C2773 1.366 . S
C2774 C2775 1.414 1_545 S
C2774 C2777 1.499 . S
C2775 H2749 0.950 . S
C2775 C2774 1.414 1_565 S
C2775 C2776 1.374 . S
C2776 H2750 0.950 . S
C2776 C2772 1.385 . S
C2776 C2775 1.374 . S
C2777 C2774 1.499 . S
C2777 C2778 1.373 . S
C2777 C2779 1.389 . S
C2778 H2751 0.950 . S
C2778 C2764 1.377 . S
C2778 C2777 1.373 . S
C2779 C2763 1.377 . S
C2779 C2777 1.389 . S
C2779 C2780 1.524 . S
C2780 C2779 1.524 . S
C2780 C2781 1.397 . S
C2780 C2785 1.363 . S
C2781 H2752 0.950 . S
C2781 C2780 1.397 . S
C2781 C2782 1.334 . S
C2782 H2753 0.950 . S
C2782 C2781 1.334 . S
C2782 C2783 1.287 . S
C2783 C2782 1.287 . S
C2783 C2784 1.524 . S
C2783 H2786 0.999 . S
C2784 H2754 0.950 . S
C2784 C2783 1.524 . S
C2784 C2785 1.415 . S
C2785 H2755 0.950 . S
C2785 C2780 1.363 . S
C2785 C2784 1.415 . S
H2786 C2783 0.999 . S
H2787 C2768 0.913 . S
H2788 C2806 0.951 . S
H2789 C2808 0.951 . S
H2790 C2810 0.950 . S
H2791 C2811 0.950 . S
H2792 C2813 0.950 . S
H2793 C2816 0.950 . S
H2794 C2817 0.950 . S
H2795 C2819 0.950 . S
H2796 C2820 0.950 . S
H2797 C2821 0.951 . S
H2798 C2823 0.951 . S
H2799 C2825 0.950 . S
H2800 C2826 0.950 . S
H2801 C2828 0.950 . S
H2802 C2831 0.950 . S
H2803 C2832 0.950 . S
H2804 C2834 0.950 . S
H2805 C2835 0.950 . S
C2806 H2788 0.951 . S
C2806 C2807 1.366 . S
C2806 C2808 1.388 . S
C2807 C2806 1.366 . S
C2807 C2811 1.385 . S
C2808 H2789 0.951 . S
C2808 C2806 1.388 . S
C2808 C2809 1.366 . S
C2809 C2808 1.366 . S
C2809 C2810 1.414 . S
C2809 C2812 1.499 . S
C2810 H2790 0.950 . S
C2810 C2809 1.414 . S
C2810 C2811 1.374 . S
C2811 H2791 0.950 . S
C2811 C2807 1.385 . S
C2811 C2810 1.374 . S
C2812 C2809 1.499 . S
C2812 C2813 1.373 . S
C2812 C2814 1.389 . S
C2813 H2792 0.950 . S
C2813 C2812 1.373 . S
C2813 C2829 1.377 . S
C2814 C2812 1.389 . S
C2814 C2815 1.524 . S
C2814 C2828 1.377 . S
C2815 C2814 1.524 . S
C2815 C2816 1.397 . S
C2815 C2820 1.363 . S
C2816 H2793 0.950 . S
C2816 C2815 1.397 . S
C2816 C2817 1.334 . S
C2817 H2794 0.950 . S
C2817 C2816 1.334 . S
C2817 C2818 1.287 . S
C2818 C2817 1.287 . S
C2818 C2819 1.524 . S
C2818 H2837 0.913 . S
C2819 H2795 0.950 . S
C2819 C2818 1.524 . S
C2819 C2820 1.415 . S
C2820 H2796 0.950 . S
C2820 C2815 1.363 . S
C2820 C2819 1.415 . S
C2821 H2797 0.951 . S
C2821 C2822 1.366 . S
C2821 C2823 1.388 . S
C2822 C2821 1.366 . S
C2822 C2826 1.385 . S
C2823 H2798 0.951 . S
C2823 C2821 1.388 . S
C2823 C2824 1.366 . S
C2824 C2823 1.366 . S
C2824 C2825 1.414 . S
C2824 C2827 1.499 . S
C2825 H2799 0.950 . S
C2825 C2824 1.414 . S
C2825 C2826 1.374 . S
C2826 H2800 0.950 . S
C2826 C2822 1.385 . S
C2826 C2825 1.374 . S
C2827 C2824 1.499 . S
C2827 C2828 1.373 . S
C2827 C2829 1.389 . S
C2828 H2801 0.950 . S
C2828 C2814 1.377 . S
C2828 C2827 1.373 . S
C2829 C2813 1.377 . S
C2829 C2827 1.389 . S
C2829 C2830 1.524 . S
C2830 C2829 1.524 . S
C2830 C2831 1.397 . S
C2830 C2835 1.363 . S
C2831 H2802 0.950 . S
C2831 C2830 1.397 . S
C2831 C2832 1.334 . S
C2832 H2803 0.950 . S
C2832 C2831 1.334 . S
C2832 C2833 1.287 . S
C2833 C2832 1.287 . S
C2833 C2834 1.524 . S
C2833 H2836 0.999 . S
C2834 H2804 0.950 . S
C2834 C2833 1.524 . S
C2834 C2835 1.415 . S
C2835 H2805 0.950 . S
C2835 C2830 1.363 . S
C2835 C2834 1.415 . S
H2836 C2833 0.999 . S
H2837 C2818 0.913 . S
H2838 C2856 0.951 . S
H2839 C2858 0.951 . S
H2840 C2860 0.950 . S
H2841 C2861 0.950 . S
H2842 C2863 0.950 . S
H2843 C2866 0.950 . S
H2844 C2867 0.950 . S
H2845 C2869 0.950 1_545 S
H2846 C2870 0.950 . S
H2847 C2871 0.956 . S
H2848 C2873 0.951 . S
H2849 C2875 0.950 . S
H2850 C2876 0.950 . S
H2851 C2878 0.950 . S
H2852 C2881 0.950 . S
H2853 C2882 0.950 . S
H2854 C2884 0.950 . S
H2855 C2885 0.950 . S
C2856 H2838 0.951 . S
C2856 C2857 1.366 . S
C2856 C2858 1.388 . S
C2857 C2856 1.366 . S
C2857 C2861 1.385 . S
C2858 H2839 0.951 . S
C2858 C2856 1.388 . S
C2858 C2859 1.366 . S
C2859 C2858 1.366 . S
C2859 C2860 1.414 . S
C2859 C2862 1.499 . S
C2860 H2840 0.950 . S
C2860 C2859 1.414 . S
C2860 C2861 1.374 . S
C2861 H2841 0.950 . S
C2861 C2857 1.385 . S
C2861 C2860 1.374 . S
C2862 C2859 1.499 . S
C2862 C2863 1.373 . S
C2862 C2864 1.389 . S
C2863 H2842 0.950 . S
C2863 C2862 1.373 . S
C2863 C2879 1.377 . S
C2864 C2862 1.389 . S
C2864 C2865 1.524 . S
C2864 C2878 1.377 . S
C2865 C2864 1.524 . S
C2865 C2866 1.397 . S
C2865 C2870 1.363 . S
C2866 H2843 0.950 . S
C2866 C2865 1.397 . S
C2866 C2867 1.334 . S
C2867 H2844 0.950 . S
C2867 C2866 1.334 . S
C2867 C2868 1.287 . S
C2868 C2867 1.287 . S
C2868 C2869 1.524 . S
C2868 H2887 0.913 . S
C2869 H2845 0.950 1_565 S
C2869 C2868 1.524 . S
C2869 C2870 1.415 . S
C2870 H2846 0.950 . S
C2870 C2865 1.363 . S
C2870 C2869 1.415 . S
C2871 H2847 0.956 . S
C2871 C2872 1.346 1_565 S
C2871 C2873 1.403 . S
C2872 C2871 1.346 1_545 S
C2872 C2876 1.385 . S
C2873 H2848 0.951 . S
C2873 C2871 1.403 . S
C2873 C2874 1.366 . S
C2874 C2873 1.366 . S
C2874 C2875 1.414 1_565 S
C2874 C2877 1.499 . S
C2875 H2849 0.950 . S
C2875 C2874 1.414 1_545 S
C2875 C2876 1.374 . S
C2876 H2850 0.950 . S
C2876 C2872 1.385 . S
C2876 C2875 1.374 . S
C2877 C2874 1.499 . S
C2877 C2878 1.373 . S
C2877 C2879 1.389 . S
C2878 H2851 0.950 . S
C2878 C2864 1.377 . S
C2878 C2877 1.373 . S
C2879 C2863 1.377 . S
C2879 C2877 1.389 . S
C2879 C2880 1.524 . S
C2880 C2879 1.524 . S
C2880 C2881 1.397 . S
C2880 C2885 1.363 . S
C2881 H2852 0.950 . S
C2881 C2880 1.397 . S
C2881 C2882 1.334 . S
C2882 H2853 0.950 . S
C2882 C2881 1.334 . S
C2882 C2883 1.287 . S
C2883 C2882 1.287 . S
C2883 C2884 1.524 . S
C2883 H2886 0.999 . S
C2884 H2854 0.950 . S
C2884 C2883 1.524 . S
C2884 C2885 1.415 . S
C2885 H2855 0.950 . S
C2885 C2880 1.363 . S
C2885 C2884 1.415 . S
H2886 C2883 0.999 . S
H2887 C2868 0.913 . S
H2888 C2906 0.951 . S
H2889 C2908 0.951 . S
H2890 C2910 0.950 . S
H2891 C2911 0.950 . S
H2892 C2913 0.950 . S
H2893 C2916 0.950 . S
H2894 C2917 0.950 . S
H2895 C2919 0.950 . S
H2896 C2920 0.950 . S
H2897 C2921 0.951 . S
H2898 C2923 0.951 . S
H2899 C2925 0.950 . S
H2900 C2926 0.950 . S
H2901 C2928 0.950 . S
H2902 C2931 0.950 . S
H2903 C2932 0.950 . S
H2904 C2934 0.950 . S
H2905 C2935 0.950 . S
C2906 H2888 0.951 . S
C2906 C2907 1.366 . S
C2906 C2908 1.388 . S
C2907 C2906 1.366 . S
C2907 C2911 1.385 . S
C2908 H2889 0.951 . S
C2908 C2906 1.388 . S
C2908 C2909 1.366 . S
C2909 C2908 1.366 . S
C2909 C2910 1.414 . S
C2909 C2912 1.499 . S
C2910 H2890 0.950 . S
C2910 C2909 1.414 . S
C2910 C2911 1.374 . S
C2911 H2891 0.950 . S
C2911 C2907 1.385 . S
C2911 C2910 1.374 . S
C2912 C2909 1.499 . S
C2912 C2913 1.373 . S
C2912 C2914 1.389 . S
C2913 H2892 0.950 . S
C2913 C2912 1.373 . S
C2913 C2929 1.377 . S
C2914 C2912 1.389 . S
C2914 C2915 1.524 . S
C2914 C2928 1.377 . S
C2915 C2914 1.524 . S
C2915 C2916 1.397 . S
C2915 C2920 1.363 . S
C2916 H2893 0.950 . S
C2916 C2915 1.397 . S
C2916 C2917 1.334 . S
C2917 H2894 0.950 . S
C2917 C2916 1.334 . S
C2917 C2918 1.287 . S
C2918 C2917 1.287 . S
C2918 C2919 1.524 . S
C2918 H2937 0.913 . S
C2919 H2895 0.950 . S
C2919 C2918 1.524 . S
C2919 C2920 1.415 . S
C2920 H2896 0.950 . S
C2920 C2915 1.363 . S
C2920 C2919 1.415 . S
C2921 H2897 0.951 . S
C2921 C2922 1.366 . S
C2921 C2923 1.388 . S
C2922 C2921 1.366 . S
C2922 C2926 1.385 . S
C2923 H2898 0.951 . S
C2923 C2921 1.388 . S
C2923 C2924 1.366 . S
C2924 C2923 1.366 . S
C2924 C2925 1.414 . S
C2924 C2927 1.499 . S
C2925 H2899 0.950 . S
C2925 C2924 1.414 . S
C2925 C2926 1.374 . S
C2926 H2900 0.950 . S
C2926 C2922 1.385 . S
C2926 C2925 1.374 . S
C2927 C2924 1.499 . S
C2927 C2928 1.373 . S
C2927 C2929 1.389 . S
C2928 H2901 0.950 . S
C2928 C2914 1.377 . S
C2928 C2927 1.373 . S
C2929 C2913 1.377 . S
C2929 C2927 1.389 . S
C2929 C2930 1.524 . S
C2930 C2929 1.524 . S
C2930 C2931 1.397 . S
C2930 C2935 1.363 . S
C2931 H2902 0.950 . S
C2931 C2930 1.397 . S
C2931 C2932 1.334 . S
C2932 H2903 0.950 . S
C2932 C2931 1.334 . S
C2932 C2933 1.287 . S
C2933 C2932 1.287 . S
C2933 C2934 1.524 . S
C2933 H2936 0.999 . S
C2934 H2904 0.950 . S
C2934 C2933 1.524 . S
C2934 C2935 1.415 . S
C2935 H2905 0.950 . S
C2935 C2930 1.363 . S
C2935 C2934 1.415 . S
H2936 C2933 0.999 . S
H2937 C2918 0.913 . S
H2938 C2956 0.951 . S
H2939 C2958 0.951 . S
H2940 C2960 0.950 . S
H2941 C2961 0.950 . S
H2942 C2963 0.950 . S
H2943 C2966 0.950 . S
H2944 C2967 0.950 . S
H2945 C2969 0.950 . S
H2946 C2970 0.950 . S
H2947 C2971 0.951 . S
H2948 C2973 0.951 . S
H2949 C2975 0.950 . S
H2950 C2976 0.950 . S
H2951 C2978 0.950 . S
H2952 C2981 0.950 . S
H2953 C2982 0.950 . S
H2954 C2984 0.950 . S
H2955 C2985 0.950 . S
C2956 H2938 0.951 . S
C2956 C2957 1.366 . S
C2956 C2958 1.388 1_565 S
C2957 C2956 1.366 . S
C2957 C2961 1.385 . S
C2958 H2939 0.951 . S
C2958 C2956 1.388 1_545 S
C2958 C2959 1.366 . S
C2959 C2958 1.366 . S
C2959 C2960 1.414 . S
C2959 C2962 1.499 . S
C2960 H2940 0.950 . S
C2960 C2959 1.414 . S
C2960 C2961 1.374 1_545 S
C2961 H2941 0.950 . S
C2961 C2957 1.385 . S
C2961 C2960 1.374 1_565 S
C2962 C2959 1.499 . S
C2962 C2963 1.373 . S
C2962 C2964 1.389 . S
C2963 H2942 0.950 . S
C2963 C2962 1.373 . S
C2963 C2979 1.377 . S
C2964 C2962 1.389 . S
C2964 C2965 1.524 . S
C2964 C2978 1.377 . S
C2965 C2964 1.524 . S
C2965 C2966 1.397 . S
C2965 C2970 1.363 . S
C2966 H2943 0.950 . S
C2966 C2965 1.397 . S
C2966 C2967 1.334 . S
C2967 H2944 0.950 . S
C2967 C2966 1.334 . S
C2967 C2968 1.287 . S
C2968 C2967 1.287 . S
C2968 C2969 1.524 . S
C2968 H2987 0.913 . S
C2969 H2945 0.950 . S
C2969 C2968 1.524 . S
C2969 C2970 1.415 . S
C2970 H2946 0.950 . S
C2970 C2965 1.363 . S
C2970 C2969 1.415 . S
C2971 H2947 0.951 . S
C2971 C2972 1.366 . S
C2971 C2973 1.388 . S
C2972 C2971 1.366 . S
C2972 C2976 1.385 . S
C2973 H2948 0.951 . S
C2973 C2971 1.388 . S
C2973 C2974 1.366 . S
C2974 C2973 1.366 . S
C2974 C2975 1.414 . S
C2974 C2977 1.499 . S
C2975 H2949 0.950 . S
C2975 C2974 1.414 . S
C2975 C2976 1.374 . S
C2976 H2950 0.950 . S
C2976 C2972 1.385 . S
C2976 C2975 1.374 . S
C2977 C2974 1.499 . S
C2977 C2978 1.373 . S
C2977 C2979 1.389 . S
C2978 H2951 0.950 . S
C2978 C2964 1.377 . S
C2978 C2977 1.373 . S
C2979 C2963 1.377 . S
C2979 C2977 1.389 . S
C2979 C2980 1.524 . S
C2980 C2979 1.524 . S
C2980 C2981 1.397 . S
C2980 C2985 1.363 . S
C2981 H2952 0.950 . S
C2981 C2980 1.397 . S
C2981 C2982 1.334 . S
C2982 H2953 0.950 . S
C2982 C2981 1.334 . S
C2982 C2983 1.287 . S
C2983 C2982 1.287 . S
C2983 C2984 1.524 . S
C2983 H2986 0.999 . S
C2984 H2954 0.950 . S
C2984 C2983 1.524 . S
C2984 C2985 1.415 . S
C2985 H2955 0.950 . S
C2985 C2980 1.363 . S
C2985 C2984 1.415 . S
H2986 C2983 0.999 . S
H2987 C2968 0.913 . S
H2988 C3006 0.951 . S
H2989 C3008 0.951 . S
H2990 C3010 0.950 . S
H2991 C3011 0.950 . S
H2992 C3013 0.950 . S
H2993 C3016 0.950 . S
H2994 C3017 0.950 . S
H2995 C3019 0.950 . S
H2996 C3020 0.950 . S
H2997 C3021 0.951 . S
H2998 C3023 0.951 . S
H2999 C3025 0.950 . S
H3000 C3026 0.950 . S
H3001 C3028 0.950 . S
H3002 C3031 0.950 . S
H3003 C3032 0.950 . S
H3004 C3034 0.950 . S
H3005 C3035 0.950 . S
C3006 H2988 0.951 . S
C3006 C3007 1.366 . S
C3006 C3008 1.388 . S
C3007 C3006 1.366 . S
C3007 C3011 1.385 . S
C3008 H2989 0.951 . S
C3008 C3006 1.388 . S
C3008 C3009 1.366 . S
C3009 C3008 1.366 . S
C3009 C3010 1.414 . S
C3009 C3012 1.499 . S
C3010 H2990 0.950 . S
C3010 C3009 1.414 . S
C3010 C3011 1.374 . S
C3011 H2991 0.950 . S
C3011 C3007 1.385 . S
C3011 C3010 1.374 . S
C3012 C3009 1.499 . S
C3012 C3013 1.373 . S
C3012 C3014 1.389 . S
C3013 H2992 0.950 . S
C3013 C3012 1.373 . S
C3013 C3029 1.377 . S
C3014 C3012 1.389 . S
C3014 C3015 1.524 . S
C3014 C3028 1.377 . S
C3015 C3014 1.524 . S
C3015 C3016 1.397 . S
C3015 C3020 1.363 . S
C3016 H2993 0.950 . S
C3016 C3015 1.397 . S
C3016 C3017 1.334 . S
C3017 H2994 0.950 . S
C3017 C3016 1.334 . S
C3017 C3018 1.287 . S
C3018 C3017 1.287 . S
C3018 C3019 1.524 . S
C3018 H3037 0.913 . S
C3019 H2995 0.950 . S
C3019 C3018 1.524 . S
C3019 C3020 1.415 . S
C3020 H2996 0.950 . S
C3020 C3015 1.363 . S
C3020 C3019 1.415 . S
C3021 H2997 0.951 . S
C3021 C3022 1.366 . S
C3021 C3023 1.388 . S
C3022 C3021 1.366 . S
C3022 C3026 1.385 . S
C3023 H2998 0.951 . S
C3023 C3021 1.388 . S
C3023 C3024 1.366 . S
C3024 C3023 1.366 . S
C3024 C3025 1.414 . S
C3024 C3027 1.499 . S
C3025 H2999 0.950 . S
C3025 C3024 1.414 . S
C3025 C3026 1.374 . S
C3026 H3000 0.950 . S
C3026 C3022 1.385 . S
C3026 C3025 1.374 . S
C3027 C3024 1.499 . S
C3027 C3028 1.373 . S
C3027 C3029 1.389 . S
C3028 H3001 0.950 . S
C3028 C3014 1.377 . S
C3028 C3027 1.373 . S
C3029 C3013 1.377 . S
C3029 C3027 1.389 . S
C3029 C3030 1.524 . S
C3030 C3029 1.524 . S
C3030 C3031 1.397 . S
C3030 C3035 1.363 . S
C3031 H3002 0.950 . S
C3031 C3030 1.397 . S
C3031 C3032 1.334 . S
C3032 H3003 0.950 . S
C3032 C3031 1.334 . S
C3032 C3033 1.287 . S
C3033 C3032 1.287 . S
C3033 C3034 1.524 . S
C3033 H3036 0.999 . S
C3034 H3004 0.950 . S
C3034 C3033 1.524 . S
C3034 C3035 1.415 . S
C3035 H3005 0.950 . S
C3035 C3030 1.363 . S
C3035 C3034 1.415 . S
H3036 C3033 0.999 . S
H3037 C3018 0.913 . S
H3038 C3056 0.951 . S
H3039 C3058 0.951 . S
H3040 C3060 0.950 . S
H3041 C3061 0.950 . S
H3042 C3063 0.950 . S
H3043 C3066 0.950 . S
H3044 C3067 0.950 . S
H3045 C3069 0.950 1_545 S
H3046 C3070 0.950 . S
H3047 C3071 0.951 . S
H3048 C3073 0.951 . S
H3049 C3075 0.950 . S
H3050 C3076 0.950 . S
H3051 C3078 0.950 . S
H3052 C3081 0.950 . S
H3053 C3082 0.950 . S
H3054 C3084 0.950 . S
H3055 C3085 0.950 . S
C3056 H3038 0.951 . S
C3056 C3057 1.366 . S
C3056 C3058 1.388 . S
C3057 C3056 1.366 . S
C3057 C3061 1.385 . S
C3058 H3039 0.951 . S
C3058 C3056 1.388 . S
C3058 C3059 1.366 . S
C3059 C3058 1.366 . S
C3059 C3060 1.414 . S
C3059 C3062 1.499 . S
C3060 H3040 0.950 . S
C3060 C3059 1.414 . S
C3060 C3061 1.374 . S
C3061 H3041 0.950 . S
C3061 C3057 1.385 . S
C3061 C3060 1.374 . S
C3062 C3059 1.499 . S
C3062 C3063 1.373 . S
C3062 C3064 1.389 . S
C3063 H3042 0.950 . S
C3063 C3062 1.373 . S
C3063 C3079 1.377 . S
C3064 C3062 1.389 . S
C3064 C3065 1.524 . S
C3064 C3078 1.377 . S
C3065 C3064 1.524 . S
C3065 C3066 1.397 . S
C3065 C3070 1.363 . S
C3066 H3043 0.950 . S
C3066 C3065 1.397 . S
C3066 C3067 1.334 . S
C3067 H3044 0.950 . S
C3067 C3066 1.334 . S
C3067 C3068 1.287 . S
C3068 C3067 1.287 . S
C3068 C3069 1.524 . S
C3068 H3087 0.913 . S
C3069 H3045 0.950 1_565 S
C3069 C3068 1.524 . S
C3069 C3070 1.415 . S
C3070 H3046 0.950 . S
C3070 C3065 1.363 . S
C3070 C3069 1.415 . S
C3071 H3047 0.951 . S
C3071 C3072 1.366 . S
C3071 C3073 1.388 1_545 S
C3072 C3071 1.366 . S
C3072 C3076 1.385 . S
C3073 H3048 0.951 . S
C3073 C3071 1.388 1_565 S
C3073 C3074 1.366 . S
C3074 C3073 1.366 . S
C3074 C3075 1.414 1_565 S
C3074 C3077 1.499 . S
C3075 H3049 0.950 . S
C3075 C3074 1.414 1_545 S
C3075 C3076 1.374 . S
C3076 H3050 0.950 . S
C3076 C3072 1.385 . S
C3076 C3075 1.374 . S
C3077 C3074 1.499 . S
C3077 C3078 1.373 . S
C3077 C3079 1.389 . S
C3078 H3051 0.950 . S
C3078 C3064 1.377 . S
C3078 C3077 1.373 . S
C3079 C3063 1.377 . S
C3079 C3077 1.389 . S
C3079 C3080 1.524 . S
C3080 C3079 1.524 . S
C3080 C3081 1.397 . S
C3080 C3085 1.363 . S
C3081 H3052 0.950 . S
C3081 C3080 1.397 . S
C3081 C3082 1.334 . S
C3082 H3053 0.950 . S
C3082 C3081 1.334 . S
C3082 C3083 1.287 . S
C3083 C3082 1.287 . S
C3083 C3084 1.524 . S
C3083 H3086 0.999 . S
C3084 H3054 0.950 . S
C3084 C3083 1.524 . S
C3084 C3085 1.415 . S
C3085 H3055 0.950 . S
C3085 C3080 1.363 . S
C3085 C3084 1.415 . S
H3086 C3083 0.999 . S
H3087 C3068 0.913 . S
H3088 C3106 0.951 . S
H3089 C3108 0.951 . S
H3090 C3110 0.950 . S
H3091 C3111 0.950 . S
H3092 C3113 0.950 . S
H3093 C3116 0.950 . S
H3094 C3117 0.950 . S
H3095 C3119 0.950 . S
H3096 C3120 0.950 . S
H3097 C3121 0.951 . S
H3098 C3123 0.951 . S
H3099 C3125 0.950 . S
H3100 C3126 0.950 . S
H3101 C3128 0.950 . S
H3102 C3131 0.950 . S
H3103 C3132 0.950 . S
H3104 C3134 0.950 . S
H3105 C3135 0.950 . S
C3106 H3088 0.951 . S
C3106 C3107 1.366 . S
C3106 C3108 1.388 . S
C3107 C3106 1.366 . S
C3107 C3111 1.385 . S
C3108 H3089 0.951 . S
C3108 C3106 1.388 . S
C3108 C3109 1.366 . S
C3109 C3108 1.366 . S
C3109 C3110 1.414 . S
C3109 C3112 1.499 . S
C3110 H3090 0.950 . S
C3110 C3109 1.414 . S
C3110 C3111 1.374 . S
C3111 H3091 0.950 . S
C3111 C3107 1.385 . S
C3111 C3110 1.374 . S
C3112 C3109 1.499 . S
C3112 C3113 1.373 . S
C3112 C3114 1.389 . S
C3113 H3092 0.950 . S
C3113 C3112 1.373 . S
C3113 C3129 1.377 . S
C3114 C3112 1.389 . S
C3114 C3115 1.524 . S
C3114 C3128 1.377 . S
C3115 C3114 1.524 . S
C3115 C3116 1.397 . S
C3115 C3120 1.363 . S
C3116 H3093 0.950 . S
C3116 C3115 1.397 . S
C3116 C3117 1.334 . S
C3117 H3094 0.950 . S
C3117 C3116 1.334 . S
C3117 C3118 1.287 . S
C3118 C3117 1.287 . S
C3118 C3119 1.524 . S
C3118 H3137 0.913 . S
C3119 H3095 0.950 . S
C3119 C3118 1.524 . S
C3119 C3120 1.415 . S
C3120 H3096 0.950 . S
C3120 C3115 1.363 . S
C3120 C3119 1.415 . S
C3121 H3097 0.951 . S
C3121 C3122 1.366 . S
C3121 C3123 1.388 . S
C3122 C3121 1.366 . S
C3122 C3126 1.385 . S
C3123 H3098 0.951 . S
C3123 C3121 1.388 . S
C3123 C3124 1.366 . S
C3124 C3123 1.366 . S
C3124 C3125 1.414 . S
C3124 C3127 1.499 . S
C3125 H3099 0.950 . S
C3125 C3124 1.414 . S
C3125 C3126 1.374 . S
C3126 H3100 0.950 . S
C3126 C3122 1.385 . S
C3126 C3125 1.374 . S
C3127 C3124 1.499 . S
C3127 C3128 1.373 . S
C3127 C3129 1.389 . S
C3128 H3101 0.950 . S
C3128 C3114 1.377 . S
C3128 C3127 1.373 . S
C3129 C3113 1.377 . S
C3129 C3127 1.389 . S
C3129 C3130 1.524 . S
C3130 C3129 1.524 . S
C3130 C3131 1.397 . S
C3130 C3135 1.363 . S
C3131 H3102 0.950 . S
C3131 C3130 1.397 . S
C3131 C3132 1.334 . S
C3132 H3103 0.950 . S
C3132 C3131 1.334 . S
C3132 C3133 1.287 . S
C3133 C3132 1.287 . S
C3133 C3134 1.524 . S
C3133 H3136 0.999 . S
C3134 H3104 0.950 . S
C3134 C3133 1.524 . S
C3134 C3135 1.415 . S
C3135 H3105 0.950 . S
C3135 C3130 1.363 . S
C3135 C3134 1.415 . S
H3136 C3133 0.999 . S
H3137 C3118 0.913 . S
H3138 C3156 0.951 . S
H3139 C3158 0.951 . S
H3140 C3160 0.950 . S
H3141 C3161 0.950 . S
H3142 C3163 0.950 . S
H3143 C3166 0.950 . S
H3144 C3167 0.950 . S
H3145 C3169 0.950 . S
H3146 C3170 0.950 . S
H3147 C3171 0.951 . S
H3148 C3173 0.951 . S
H3149 C3175 0.950 . S
H3150 C3176 0.950 . S
H3151 C3178 0.950 . S
H3152 C3181 0.950 . S
H3153 C3182 0.950 . S
H3154 C3184 0.950 . S
H3155 C3185 0.950 . S
C3156 H3138 0.951 . S
C3156 C3157 1.366 . S
C3156 C3158 1.388 1_545 S
C3157 C3156 1.366 . S
C3157 C3161 1.385 . S
C3158 H3139 0.951 . S
C3158 C3156 1.388 1_565 S
C3158 C3159 1.366 . S
C3159 C3158 1.366 . S
C3159 C3160 1.414 1_565 S
C3159 C3162 1.499 . S
C3160 H3140 0.950 . S
C3160 C3159 1.414 1_545 S
C3160 C3161 1.374 . S
C3161 H3141 0.950 . S
C3161 C3157 1.385 . S
C3161 C3160 1.374 . S
C3162 C3159 1.499 . S
C3162 C3163 1.373 . S
C3162 C3164 1.389 . S
C3163 H3142 0.950 . S
C3163 C3162 1.373 . S
C3163 C3179 1.377 . S
C3164 C3162 1.389 . S
C3164 C3165 1.524 . S
C3164 C3178 1.377 . S
C3165 C3164 1.524 . S
C3165 C3166 1.397 1_565 S
C3165 C3170 1.363 . S
C3166 H3143 0.950 . S
C3166 C3165 1.397 1_545 S
C3166 C3167 1.334 . S
C3167 H3144 0.950 . S
C3167 C3166 1.334 . S
C3167 C3168 1.287 . S
C3168 C3167 1.287 . S
C3168 C3169 1.524 1_545 S
C3168 H3187 0.913 . S
C3169 H3145 0.950 . S
C3169 C3168 1.524 1_565 S
C3169 C3170 1.415 . S
C3170 H3146 0.950 . S
C3170 C3165 1.363 . S
C3170 C3169 1.415 . S
C3171 H3147 0.951 . S
C3171 C3172 1.366 . S
C3171 C3173 1.388 . S
C3172 C3171 1.366 . S
C3172 C3176 1.385 . S
C3173 H3148 0.951 . S
C3173 C3171 1.388 . S
C3173 C3174 1.366 . S
C3174 C3173 1.366 . S
C3174 C3175 1.414 . S
C3174 C3177 1.499 . S
C3175 H3149 0.950 . S
C3175 C3174 1.414 . S
C3175 C3176 1.374 . S
C3176 H3150 0.950 . S
C3176 C3172 1.385 . S
C3176 C3175 1.374 . S
C3177 C3174 1.499 . S
C3177 C3178 1.373 . S
C3177 C3179 1.389 . S
C3178 H3151 0.950 . S
C3178 C3164 1.377 . S
C3178 C3177 1.373 . S
C3179 C3163 1.377 . S
C3179 C3177 1.389 . S
C3179 C3180 1.524 . S
C3180 C3179 1.524 . S
C3180 C3181 1.397 . S
C3180 C3185 1.363 . S
C3181 H3152 0.950 . S
C3181 C3180 1.397 . S
C3181 C3182 1.334 . S
C3182 H3153 0.950 . S
C3182 C3181 1.334 . S
C3182 C3183 1.287 . S
C3183 C3182 1.287 . S
C3183 C3184 1.524 . S
C3183 H3186 0.999 . S
C3184 H3154 0.950 . S
C3184 C3183 1.524 . S
C3184 C3185 1.415 . S
C3185 H3155 0.950 . S
C3185 C3180 1.363 . S
C3185 C3184 1.415 . S
H3186 C3183 0.999 . S
H3187 C3168 0.913 . S
H3188 C3206 0.951 . S
H3189 C3208 0.951 . S
H3190 C3210 0.950 . S
H3191 C3211 0.950 . S
H3192 C3213 0.950 . S
H3193 C3216 0.950 . S
H3194 C3217 0.950 . S
H3195 C3219 0.950 . S
H3196 C3220 0.950 . S
H3197 C3221 0.951 . S
H3198 C3223 0.951 . S
H3199 C3225 0.950 . S
H3200 C3226 0.950 . S
H3201 C3228 0.950 . S
H3202 C3231 0.950 . S
H3203 C3232 0.950 . S
H3204 C3234 0.950 . S
H3205 C3235 0.950 . S
C3206 H3188 0.951 . S
C3206 C3207 1.366 . S
C3206 C3208 1.388 . S
C3207 C3206 1.366 . S
C3207 C3211 1.385 . S
C3208 H3189 0.951 . S
C3208 C3206 1.388 . S
C3208 C3209 1.366 . S
C3209 C3208 1.366 . S
C3209 C3210 1.414 . S
C3209 C3212 1.499 . S
C3210 H3190 0.950 . S
C3210 C3209 1.414 . S
C3210 C3211 1.374 . S
C3211 H3191 0.950 . S
C3211 C3207 1.385 . S
C3211 C3210 1.374 . S
C3212 C3209 1.499 . S
C3212 C3213 1.373 . S
C3212 C3214 1.389 . S
C3213 H3192 0.950 . S
C3213 C3212 1.373 . S
C3213 C3229 1.377 . S
C3214 C3212 1.389 . S
C3214 C3215 1.524 . S
C3214 C3228 1.377 . S
C3215 C3214 1.524 . S
C3215 C3216 1.397 . S
C3215 C3220 1.363 . S
C3216 H3193 0.950 . S
C3216 C3215 1.397 . S
C3216 C3217 1.334 . S
C3217 H3194 0.950 . S
C3217 C3216 1.334 . S
C3217 C3218 1.287 . S
C3218 C3217 1.287 . S
C3218 C3219 1.524 . S
C3218 H3237 0.913 . S
C3219 H3195 0.950 . S
C3219 C3218 1.524 . S
C3219 C3220 1.415 . S
C3220 H3196 0.950 . S
C3220 C3215 1.363 . S
C3220 C3219 1.415 . S
C3221 H3197 0.951 . S
C3221 C3222 1.366 . S
C3221 C3223 1.388 . S
C3222 C3221 1.366 . S
C3222 C3226 1.385 . S
C3223 H3198 0.951 . S
C3223 C3221 1.388 . S
C3223 C3224 1.366 . S
C3224 C3223 1.366 . S
C3224 C3225 1.414 . S
C3224 C3227 1.499 . S
C3225 H3199 0.950 . S
C3225 C3224 1.414 . S
C3225 C3226 1.374 . S
C3226 H3200 0.950 . S
C3226 C3222 1.385 . S
C3226 C3225 1.374 . S
C3227 C3224 1.499 . S
C3227 C3228 1.373 . S
C3227 C3229 1.389 . S
C3228 H3201 0.950 . S
C3228 C3214 1.377 . S
C3228 C3227 1.373 . S
C3229 C3213 1.377 . S
C3229 C3227 1.389 . S
C3229 C3230 1.524 . S
C3230 C3229 1.524 . S
C3230 C3231 1.397 . S
C3230 C3235 1.363 . S
C3231 H3202 0.950 . S
C3231 C3230 1.397 . S
C3231 C3232 1.334 . S
C3232 H3203 0.950 . S
C3232 C3231 1.334 . S
C3232 C3233 1.287 . S
C3233 C3232 1.287 . S
C3233 C3234 1.524 . S
C3233 H3236 0.999 . S
C3234 H3204 0.950 . S
C3234 C3233 1.524 . S
C3234 C3235 1.415 . S
C3235 H3205 0.950 . S
C3235 C3230 1.363 . S
C3235 C3234 1.415 . S
H3236 C3233 0.999 . S
H3237 C3218 0.913 . S
H3238 C3256 0.951 . S
H3239 C3258 0.951 . S
H3240 C3260 0.950 . S
H3241 C3261 0.950 . S
H3242 C3263 0.950 . S
H3243 C3266 0.950 . S
H3244 C3267 0.950 . S
H3245 C3269 0.950 . S
H3246 C3270 0.950 . S
H3247 C3271 0.951 . S
H3248 C3273 0.951 . S
H3249 C3275 0.950 . S
H3250 C3276 0.950 . S
H3251 C3278 0.950 . S
H3252 C3281 0.950 . S
H3253 C3282 0.950 . S
H3254 C3284 0.950 . S
H3255 C3285 0.950 . S
C3256 H3238 0.951 . S
C3256 C3257 1.366 . S
C3256 C3258 1.388 1_565 S
C3257 C3256 1.366 . S
C3257 C3261 1.385 . S
C3258 H3239 0.951 . S
C3258 C3256 1.388 1_545 S
C3258 C3259 1.366 . S
C3259 C3258 1.366 . S
C3259 C3260 1.414 1_545 S
C3259 C3262 1.499 . S
C3260 H3240 0.950 . S
C3260 C3259 1.414 1_565 S
C3260 C3261 1.374 . S
C3261 H3241 0.950 . S
C3261 C3257 1.385 . S
C3261 C3260 1.374 . S
C3262 C3259 1.499 . S
C3262 C3263 1.373 . S
C3262 C3264 1.389 . S
C3263 H3242 0.950 . S
C3263 C3262 1.373 . S
C3263 C3279 1.377 . S
C3264 C3262 1.389 . S
C3264 C3265 1.524 . S
C3264 C3278 1.377 . S
C3265 C3264 1.524 . S
C3265 C3266 1.397 1_545 S
C3265 C3270 1.363 . S
C3266 H3243 0.950 . S
C3266 C3265 1.397 1_565 S
C3266 C3267 1.334 . S
C3267 H3244 0.950 . S
C3267 C3266 1.334 . S
C3267 C3268 1.287 . S
C3268 C3267 1.287 . S
C3268 C3269 1.524 1_565 S
C3268 H3287 0.913 . S
C3269 H3245 0.950 . S
C3269 C3268 1.524 1_545 S
C3269 C3270 1.415 . S
C3270 H3246 0.950 . S
C3270 C3265 1.363 . S
C3270 C3269 1.415 . S
C3271 H3247 0.951 . S
C3271 C3272 1.366 . S
C3271 C3273 1.388 . S
C3272 C3271 1.366 . S
C3272 C3276 1.385 . S
C3273 H3248 0.951 . S
C3273 C3271 1.388 . S
C3273 C3274 1.366 . S
C3274 C3273 1.366 . S
C3274 C3275 1.414 . S
C3274 C3277 1.499 . S
C3275 H3249 0.950 . S
C3275 C3274 1.414 . S
C3275 C3276 1.374 . S
C3276 H3250 0.950 . S
C3276 C3272 1.385 . S
C3276 C3275 1.374 . S
C3277 C3274 1.499 . S
C3277 C3278 1.373 . S
C3277 C3279 1.389 . S
C3278 H3251 0.950 . S
C3278 C3264 1.377 . S
C3278 C3277 1.373 . S
C3279 C3263 1.377 . S
C3279 C3277 1.389 . S
C3279 C3280 1.524 . S
C3280 C3279 1.524 . S
C3280 C3281 1.397 . S
C3280 C3285 1.363 . S
C3281 H3252 0.950 . S
C3281 C3280 1.397 . S
C3281 C3282 1.334 . S
C3282 H3253 0.950 . S
C3282 C3281 1.334 . S
C3282 C3283 1.287 . S
C3283 C3282 1.287 . S
C3283 C3284 1.524 . S
C3283 H3286 0.999 . S
C3284 H3254 0.950 . S
C3284 C3283 1.524 . S
C3284 C3285 1.415 . S
C3285 H3255 0.950 . S
C3285 C3280 1.363 . S
C3285 C3284 1.415 . S
H3286 C3283 0.999 . S
H3287 C3268 0.913 . S
H3288 C3306 0.951 . S
H3289 C3308 0.951 . S
H3290 C3310 0.950 . S
H3291 C3311 0.950 . S
H3292 C3313 0.950 . S
H3293 C3316 0.950 . S
H3294 C3317 0.950 . S
H3295 C3319 0.950 . S
H3296 C3320 0.950 . S
H3297 C3321 0.951 . S
H3298 C3323 0.951 . S
H3299 C3325 0.950 . S
H3300 C3326 0.950 . S
H3301 C3328 0.950 . S
H3302 C3331 0.950 . S
H3303 C3332 0.950 . S
H3304 C3334 0.950 . S
H3305 C3335 0.950 . S
C3306 H3288 0.951 . S
C3306 C3307 1.366 . S
C3306 C3308 1.388 . S
C3307 C3306 1.366 . S
C3307 C3311 1.385 . S
C3308 H3289 0.951 . S
C3308 C3306 1.388 . S
C3308 C3309 1.366 . S
C3309 C3308 1.366 . S
C3309 C3310 1.414 . S
C3309 C3312 1.499 . S
C3310 H3290 0.950 . S
C3310 C3309 1.414 . S
C3310 C3311 1.374 . S
C3311 H3291 0.950 . S
C3311 C3307 1.385 . S
C3311 C3310 1.374 . S
C3312 C3309 1.499 . S
C3312 C3313 1.373 . S
C3312 C3314 1.389 . S
C3313 H3292 0.950 . S
C3313 C3312 1.373 . S
C3313 C3329 1.377 . S
C3314 C3312 1.389 . S
C3314 C3315 1.524 . S
C3314 C3328 1.377 . S
C3315 C3314 1.524 . S
C3315 C3316 1.397 . S
C3315 C3320 1.363 . S
C3316 H3293 0.950 . S
C3316 C3315 1.397 . S
C3316 C3317 1.334 . S
C3317 H3294 0.950 . S
C3317 C3316 1.334 . S
C3317 C3318 1.287 . S
C3318 C3317 1.287 . S
C3318 C3319 1.524 . S
C3318 H3337 0.913 . S
C3319 H3295 0.950 . S
C3319 C3318 1.524 . S
C3319 C3320 1.415 . S
C3320 H3296 0.950 . S
C3320 C3315 1.363 . S
C3320 C3319 1.415 . S
C3321 H3297 0.951 . S
C3321 C3322 1.366 . S
C3321 C3323 1.388 . S
C3322 C3321 1.366 . S
C3322 C3326 1.385 . S
C3323 H3298 0.951 . S
C3323 C3321 1.388 . S
C3323 C3324 1.366 . S
C3324 C3323 1.366 . S
C3324 C3325 1.414 . S
C3324 C3327 1.499 . S
C3325 H3299 0.950 . S
C3325 C3324 1.414 . S
C3325 C3326 1.374 . S
C3326 H3300 0.950 . S
C3326 C3322 1.385 . S
C3326 C3325 1.374 . S
C3327 C3324 1.499 . S
C3327 C3328 1.373 . S
C3327 C3329 1.389 . S
C3328 H3301 0.950 . S
C3328 C3314 1.377 . S
C3328 C3327 1.373 . S
C3329 C3313 1.377 . S
C3329 C3327 1.389 . S
C3329 C3330 1.524 . S
C3330 C3329 1.524 . S
C3330 C3331 1.397 . S
C3330 C3335 1.363 . S
C3331 H3302 0.950 . S
C3331 C3330 1.397 . S
C3331 C3332 1.334 . S
C3332 H3303 0.950 . S
C3332 C3331 1.334 . S
C3332 C3333 1.287 . S
C3333 C3332 1.287 . S
C3333 C3334 1.524 . S
C3333 H3336 0.999 . S
C3334 H3304 0.950 . S
C3334 C3333 1.524 . S
C3334 C3335 1.415 . S
C3335 H3305 0.950 . S
C3335 C3330 1.363 . S
C3335 C3334 1.415 . S
H3336 C3333 0.999 . S
H3337 C3318 0.913 . S
H3338 C3356 0.951 . S
H3339 C3358 0.951 . S
H3340 C3360 0.950 . S
H3341 C3361 0.950 . S
H3342 C3363 0.950 . S
H3343 C3366 0.943 1_565 S
H3344 C3367 0.950 . S
H3345 C3369 0.950 . S
H3346 C3370 0.950 . S
H3347 C3371 0.951 . S
H3348 C3373 0.951 . S
H3349 C3375 0.950 . S
H3350 C3376 0.950 . S
H3351 C3378 0.950 . S
H3352 C3381 0.950 . S
H3353 C3382 0.950 . S
H3354 C3384 0.950 . S
H3355 C3385 0.950 . S
C3356 H3338 0.951 . S
C3356 C3357 1.366 . S
C3356 C3358 1.388 . S
C3357 C3356 1.366 . S
C3357 C3361 1.385 1_545 S
C3358 H3339 0.951 . S
C3358 C3356 1.388 . S
C3358 C3359 1.366 1_545 S
C3359 C3358 1.366 1_565 S
C3359 C3360 1.414 . S
C3359 C3362 1.499 . S
C3360 H3340 0.950 . S
C3360 C3359 1.414 . S
C3360 C3361 1.374 . S
C3361 H3341 0.950 . S
C3361 C3357 1.385 1_565 S
C3361 C3360 1.374 . S
C3362 C3359 1.499 . S
C3362 C3363 1.373 . S
C3362 C3364 1.389 . S
C3363 H3342 0.950 . S
C3363 C3362 1.373 . S
C3363 C3379 1.377 . S
C3364 C3362 1.389 . S
C3364 C3365 1.524 . S
C3364 C3378 1.377 . S
C3365 C3364 1.524 . S
C3365 C3366 1.395 1_565 S
C3365 C3370 1.363 1_565 S
C3366 H3343 0.943 1_545 S
C3366 C3365 1.395 1_545 S
C3366 C3367 1.342 . S
C3367 H3344 0.950 . S
C3367 C3366 1.342 . S
C3367 C3368 1.287 . S
C3368 C3367 1.287 . S
C3368 C3369 1.524 . S
C3368 H3387 0.913 . S
C3369 H3345 0.950 . S
C3369 C3368 1.524 . S
C3369 C3370 1.415 . S
C3370 H3346 0.950 . S
C3370 C3365 1.363 1_545 S
C3370 C3369 1.415 . S
C3371 H3347 0.951 . S
C3371 C3372 1.366 . S
C3371 C3373 1.388 . S
C3372 C3371 1.366 . S
C3372 C3376 1.385 . S
C3373 H3348 0.951 . S
C3373 C3371 1.388 . S
C3373 C3374 1.366 . S
C3374 C3373 1.366 . S
C3374 C3375 1.414 . S
C3374 C3377 1.499 . S
C3375 H3349 0.950 . S
C3375 C3374 1.414 . S
C3375 C3376 1.374 . S
C3376 H3350 0.950 . S
C3376 C3372 1.385 . S
C3376 C3375 1.374 . S
C3377 C3374 1.499 . S
C3377 C3378 1.373 . S
C3377 C3379 1.389 . S
C3378 H3351 0.950 . S
C3378 C3364 1.377 . S
C3378 C3377 1.373 . S
C3379 C3363 1.377 . S
C3379 C3377 1.389 . S
C3379 C3380 1.524 . S
C3380 C3379 1.524 . S
C3380 C3381 1.397 . S
C3380 C3385 1.363 . S
C3381 H3352 0.950 . S
C3381 C3380 1.397 . S
C3381 C3382 1.334 . S
C3382 H3353 0.950 . S
C3382 C3381 1.334 . S
C3382 C3383 1.287 . S
C3383 C3382 1.287 . S
C3383 C3384 1.524 . S
C3383 H3386 0.999 . S
C3384 H3354 0.950 . S
C3384 C3383 1.524 . S
C3384 C3385 1.415 . S
C3385 H3355 0.950 . S
C3385 C3380 1.363 . S
C3385 C3384 1.415 . S
H3386 C3383 0.999 . S
H3387 C3368 0.913 . S
H3388 C3406 0.951 . S
H3389 C3408 0.951 . S
H3390 C3410 0.950 . S
H3391 C3411 0.950 . S
H3392 C3413 0.950 . S
H3393 C3416 0.950 . S
H3394 C3417 0.950 . S
H3395 C3419 0.950 . S
H3396 C3420 0.950 . S
H3397 C3421 0.951 . S
H3398 C3423 0.951 . S
H3399 C3425 0.950 . S
H3400 C3426 0.950 . S
H3401 C3428 0.950 . S
H3402 C3431 0.950 . S
H3403 C3432 0.950 . S
H3404 C3434 0.950 . S
H3405 C3435 0.950 . S
C3406 H3388 0.951 . S
C3406 C3407 1.366 . S
C3406 C3408 1.388 . S
C3407 C3406 1.366 . S
C3407 C3411 1.385 . S
C3408 H3389 0.951 . S
C3408 C3406 1.388 . S
C3408 C3409 1.366 . S
C3409 C3408 1.366 . S
C3409 C3410 1.414 . S
C3409 C3412 1.499 . S
C3410 H3390 0.950 . S
C3410 C3409 1.414 . S
C3410 C3411 1.374 . S
C3411 H3391 0.950 . S
C3411 C3407 1.385 . S
C3411 C3410 1.374 . S
C3412 C3409 1.499 . S
C3412 C3413 1.373 . S
C3412 C3414 1.389 . S
C3413 H3392 0.950 . S
C3413 C3412 1.373 . S
C3413 C3429 1.377 . S
C3414 C3412 1.389 . S
C3414 C3415 1.524 . S
C3414 C3428 1.377 . S
C3415 C3414 1.524 . S
C3415 C3416 1.397 . S
C3415 C3420 1.363 . S
C3416 H3393 0.950 . S
C3416 C3415 1.397 . S
C3416 C3417 1.334 . S
C3417 H3394 0.950 . S
C3417 C3416 1.334 . S
C3417 C3418 1.287 . S
C3418 C3417 1.287 . S
C3418 C3419 1.524 . S
C3418 H3437 0.913 . S
C3419 H3395 0.950 . S
C3419 C3418 1.524 . S
C3419 C3420 1.415 . S
C3420 H3396 0.950 . S
C3420 C3415 1.363 . S
C3420 C3419 1.415 . S
C3421 H3397 0.951 . S
C3421 C3422 1.366 . S
C3421 C3423 1.388 . S
C3422 C3421 1.366 . S
C3422 C3426 1.385 . S
C3423 H3398 0.951 . S
C3423 C3421 1.388 . S
C3423 C3424 1.366 . S
C3424 C3423 1.366 . S
C3424 C3425 1.414 . S
C3424 C3427 1.499 . S
C3425 H3399 0.950 . S
C3425 C3424 1.414 . S
C3425 C3426 1.374 . S
C3426 H3400 0.950 . S
C3426 C3422 1.385 . S
C3426 C3425 1.374 . S
C3427 C3424 1.499 . S
C3427 C3428 1.373 . S
C3427 C3429 1.389 . S
C3428 H3401 0.950 . S
C3428 C3414 1.377 . S
C3428 C3427 1.373 . S
C3429 C3413 1.377 . S
C3429 C3427 1.389 . S
C3429 C3430 1.524 . S
C3430 C3429 1.524 . S
C3430 C3431 1.397 . S
C3430 C3435 1.363 . S
C3431 H3402 0.950 . S
C3431 C3430 1.397 . S
C3431 C3432 1.334 . S
C3432 H3403 0.950 . S
C3432 C3431 1.334 . S
C3432 C3433 1.287 . S
C3433 C3432 1.287 . S
C3433 C3434 1.524 . S
C3433 H3436 0.999 . S
C3434 H3404 0.950 . S
C3434 C3433 1.524 . S
C3434 C3435 1.415 . S
C3435 H3405 0.950 . S
C3435 C3430 1.363 . S
C3435 C3434 1.415 . S
H3436 C3433 0.999 . S
H3437 C3418 0.913 . S
H3438 C3456 0.951 . S
H3439 C3458 0.951 . S
H3440 C3460 0.950 . S
H3441 C3461 0.950 . S
H3442 C3463 0.950 . S
H3443 C3466 0.950 . S
H3444 C3467 0.950 . S
H3445 C3469 0.950 . S
H3446 C3470 0.950 . S
H3447 C3471 0.951 . S
H3448 C3473 0.951 . S
H3449 C3475 0.950 . S
H3450 C3476 0.950 . S
H3451 C3478 0.950 . S
H3452 C3481 0.950 . S
H3453 C3482 0.950 . S
H3454 C3484 0.950 . S
H3455 C3485 0.950 . S
C3456 H3438 0.951 . S
C3456 C3457 1.366 . S
C3456 C3458 1.388 . S
C3457 C3456 1.366 . S
C3457 C3461 1.385 . S
C3458 H3439 0.951 . S
C3458 C3456 1.388 . S
C3458 C3459 1.366 . S
C3459 C3458 1.366 . S
C3459 C3460 1.414 . S
C3459 C3462 1.499 . S
C3460 H3440 0.950 . S
C3460 C3459 1.414 . S
C3460 C3461 1.374 . S
C3461 H3441 0.950 . S
C3461 C3457 1.385 . S
C3461 C3460 1.374 . S
C3462 C3459 1.499 . S
C3462 C3463 1.373 . S
C3462 C3464 1.389 . S
C3463 H3442 0.950 . S
C3463 C3462 1.373 . S
C3463 C3479 1.377 . S
C3464 C3462 1.389 . S
C3464 C3465 1.524 . S
C3464 C3478 1.377 . S
C3465 C3464 1.524 . S
C3465 C3466 1.397 . S
C3465 C3470 1.363 . S
C3466 H3443 0.950 . S
C3466 C3465 1.397 . S
C3466 C3467 1.334 . S
C3467 H3444 0.950 . S
C3467 C3466 1.334 . S
C3467 C3468 1.287 . S
C3468 C3467 1.287 . S
C3468 C3469 1.524 . S
C3468 H3487 0.913 . S
C3469 H3445 0.950 . S
C3469 C3468 1.524 . S
C3469 C3470 1.415 . S
C3470 H3446 0.950 . S
C3470 C3465 1.363 . S
C3470 C3469 1.415 . S
C3471 H3447 0.951 . S
C3471 C3472 1.366 1_545 S
C3471 C3473 1.388 . S
C3472 C3471 1.366 1_565 S
C3472 C3476 1.385 . S
C3473 H3448 0.951 . S
C3473 C3471 1.388 . S
C3473 C3474 1.366 . S
C3474 C3473 1.366 . S
C3474 C3475 1.414 1_545 S
C3474 C3477 1.499 . S
C3475 H3449 0.950 . S
C3475 C3474 1.414 1_565 S
C3475 C3476 1.374 . S
C3476 H3450 0.950 . S
C3476 C3472 1.385 . S
C3476 C3475 1.374 . S
C3477 C3474 1.499 . S
C3477 C3478 1.373 . S
C3477 C3479 1.389 . S
C3478 H3451 0.950 . S
C3478 C3464 1.377 . S
C3478 C3477 1.373 . S
C3479 C3463 1.377 . S
C3479 C3477 1.389 . S
C3479 C3480 1.524 . S
C3480 C3479 1.524 . S
C3480 C3481 1.397 . S
C3480 C3485 1.363 . S
C3481 H3452 0.950 . S
C3481 C3480 1.397 . S
C3481 C3482 1.334 . S
C3482 H3453 0.950 . S
C3482 C3481 1.334 . S
C3482 C3483 1.287 . S
C3483 C3482 1.287 . S
C3483 C3484 1.524 . S
C3483 H3486 0.999 . S
C3484 H3454 0.950 . S
C3484 C3483 1.524 . S
C3484 C3485 1.415 . S
C3485 H3455 0.950 . S
C3485 C3480 1.363 . S
C3485 C3484 1.415 . S
H3486 C3483 0.999 . S
H3487 C3468 0.913 . S
H3488 C3506 0.951 . S
H3489 C3508 0.951 . S
H3490 C3510 0.950 . S
H3491 C3511 0.950 . S
H3492 C3513 0.950 . S
H3493 C3516 0.950 . S
H3494 C3517 0.950 . S
H3495 C3519 0.950 . S
H3496 C3520 0.950 . S
H3497 C3521 0.951 . S
H3498 C3523 0.951 . S
H3499 C3525 0.950 . S
H3500 C3526 0.950 . S
H3501 C3528 0.950 . S
H3502 C3531 0.950 . S
H3503 C3532 0.950 . S
H3504 C3534 0.950 . S
H3505 C3535 0.950 . S
C3506 H3488 0.951 . S
C3506 C3507 1.366 . S
C3506 C3508 1.388 . S
C3507 C3506 1.366 . S
C3507 C3511 1.385 . S
C3508 H3489 0.951 . S
C3508 C3506 1.388 . S
C3508 C3509 1.366 . S
C3509 C3508 1.366 . S
C3509 C3510 1.414 . S
C3509 C3512 1.499 . S
C3510 H3490 0.950 . S
C3510 C3509 1.414 . S
C3510 C3511 1.374 . S
C3511 H3491 0.950 . S
C3511 C3507 1.385 . S
C3511 C3510 1.374 . S
C3512 C3509 1.499 . S
C3512 C3513 1.373 . S
C3512 C3514 1.389 . S
C3513 H3492 0.950 . S
C3513 C3512 1.373 . S
C3513 C3529 1.377 . S
C3514 C3512 1.389 . S
C3514 C3515 1.524 . S
C3514 C3528 1.377 . S
C3515 C3514 1.524 . S
C3515 C3516 1.397 . S
C3515 C3520 1.363 . S
C3516 H3493 0.950 . S
C3516 C3515 1.397 . S
C3516 C3517 1.334 . S
C3517 H3494 0.950 . S
C3517 C3516 1.334 . S
C3517 C3518 1.287 . S
C3518 C3517 1.287 . S
C3518 C3519 1.524 . S
C3518 H3537 0.913 . S
C3519 H3495 0.950 . S
C3519 C3518 1.524 . S
C3519 C3520 1.415 . S
C3520 H3496 0.950 . S
C3520 C3515 1.363 . S
C3520 C3519 1.415 . S
C3521 H3497 0.951 . S
C3521 C3522 1.366 . S
C3521 C3523 1.388 . S
C3522 C3521 1.366 . S
C3522 C3526 1.385 . S
C3523 H3498 0.951 . S
C3523 C3521 1.388 . S
C3523 C3524 1.366 . S
C3524 C3523 1.366 . S
C3524 C3525 1.414 . S
C3524 C3527 1.499 . S
C3525 H3499 0.950 . S
C3525 C3524 1.414 . S
C3525 C3526 1.374 . S
C3526 H3500 0.950 . S
C3526 C3522 1.385 . S
C3526 C3525 1.374 . S
C3527 C3524 1.499 . S
C3527 C3528 1.373 . S
C3527 C3529 1.389 . S
C3528 H3501 0.950 . S
C3528 C3514 1.377 . S
C3528 C3527 1.373 . S
C3529 C3513 1.377 . S
C3529 C3527 1.389 . S
C3529 C3530 1.524 . S
C3530 C3529 1.524 . S
C3530 C3531 1.397 . S
C3530 C3535 1.363 . S
C3531 H3502 0.950 . S
C3531 C3530 1.397 . S
C3531 C3532 1.334 . S
C3532 H3503 0.950 . S
C3532 C3531 1.334 . S
C3532 C3533 1.287 . S
C3533 C3532 1.287 . S
C3533 C3534 1.524 . S
C3533 H3536 0.999 . S
C3534 H3504 0.950 . S
C3534 C3533 1.524 . S
C3534 C3535 1.415 . S
C3535 H3505 0.950 . S
C3535 C3530 1.363 . S
C3535 C3534 1.415 . S
H3536 C3533 0.999 . S
H3537 C3518 0.913 . S
H3538 C3556 0.951 . S
H3539 C3558 0.951 . S
H3540 C3560 0.950 . S
H3541 C3561 0.950 . S
H3542 C3563 0.950 . S
H3543 C3566 0.950 . S
H3544 C3567 0.950 . S
H3545 C3569 0.950 . S
H3546 C3570 0.950 . S
H3547 C3571 0.951 . S
H3548 C3573 0.951 . S
H3549 C3575 0.950 . S
H3550 C3576 0.950 . S
H3551 C3578 0.950 . S
H3552 C3581 0.950 . S
H3553 C3582 0.950 . S
H3554 C3584 0.950 . S
H3555 C3585 0.950 . S
C3556 H3538 0.951 . S
C3556 C3557 1.366 . S
C3556 C3558 1.388 . S
C3557 C3556 1.366 . S
C3557 C3561 1.385 . S
C3558 H3539 0.951 . S
C3558 C3556 1.388 . S
C3558 C3559 1.366 . S
C3559 C3558 1.366 . S
C3559 C3560 1.414 . S
C3559 C3562 1.499 . S
C3560 H3540 0.950 . S
C3560 C3559 1.414 . S
C3560 C3561 1.374 . S
C3561 H3541 0.950 . S
C3561 C3557 1.385 . S
C3561 C3560 1.374 . S
C3562 C3559 1.499 . S
C3562 C3563 1.373 . S
C3562 C3564 1.389 . S
C3563 H3542 0.950 . S
C3563 C3562 1.373 . S
C3563 C3579 1.377 . S
C3564 C3562 1.389 . S
C3564 C3565 1.524 . S
C3564 C3578 1.377 . S
C3565 C3564 1.524 . S
C3565 C3566 1.397 . S
C3565 C3570 1.363 . S
C3566 H3543 0.950 . S
C3566 C3565 1.397 . S
C3566 C3567 1.334 . S
C3567 H3544 0.950 . S
C3567 C3566 1.334 . S
C3567 C3568 1.287 . S
C3568 C3567 1.287 . S
C3568 C3569 1.524 . S
C3568 H3587 0.913 . S
C3569 H3545 0.950 . S
C3569 C3568 1.524 . S
C3569 C3570 1.415 . S
C3570 H3546 0.950 . S
C3570 C3565 1.363 . S
C3570 C3569 1.415 . S
C3571 H3547 0.951 . S
C3571 C3572 1.366 . S
C3571 C3573 1.388 . S
C3572 C3571 1.366 . S
C3572 C3576 1.385 . S
C3573 H3548 0.951 . S
C3573 C3571 1.388 . S
C3573 C3574 1.366 . S
C3574 C3573 1.366 . S
C3574 C3575 1.414 . S
C3574 C3577 1.499 . S
C3575 H3549 0.950 . S
C3575 C3574 1.414 . S
C3575 C3576 1.374 . S
C3576 H3550 0.950 . S
C3576 C3572 1.385 . S
C3576 C3575 1.374 . S
C3577 C3574 1.499 . S
C3577 C3578 1.373 . S
C3577 C3579 1.389 . S
C3578 H3551 0.950 . S
C3578 C3564 1.377 . S
C3578 C3577 1.373 . S
C3579 C3563 1.377 . S
C3579 C3577 1.389 . S
C3579 C3580 1.524 . S
C3580 C3579 1.524 . S
C3580 C3581 1.397 . S
C3580 C3585 1.363 . S
C3581 H3552 0.950 . S
C3581 C3580 1.397 . S
C3581 C3582 1.334 . S
C3582 H3553 0.950 . S
C3582 C3581 1.334 . S
C3582 C3583 1.287 . S
C3583 C3582 1.287 . S
C3583 C3584 1.524 . S
C3583 H3586 0.999 . S
C3584 H3554 0.950 . S
C3584 C3583 1.524 . S
C3584 C3585 1.415 . S
C3585 H3555 0.950 . S
C3585 C3580 1.363 . S
C3585 C3584 1.415 . S
H3586 C3583 0.999 . S
H3587 C3568 0.913 . S
H3588 C3606 0.951 . S
H3589 C3608 0.951 . S
H3590 C3610 0.950 . S
H3591 C3611 0.950 . S
H3592 C3613 0.950 . S
H3593 C3616 0.950 . S
H3594 C3617 0.950 . S
H3595 C3619 0.950 . S
H3596 C3620 0.950 . S
H3597 C3621 0.951 . S
H3598 C3623 0.951 . S
H3599 C3625 0.950 . S
H3600 C3626 0.950 . S
H3601 C3628 0.950 . S
H3602 C3631 0.950 . S
H3603 C3632 0.950 . S
H3604 C3634 0.950 . S
H3605 C3635 0.950 . S
C3606 H3588 0.951 . S
C3606 C3607 1.366 . S
C3606 C3608 1.388 . S
C3607 C3606 1.366 . S
C3607 C3611 1.385 . S
C3608 H3589 0.951 . S
C3608 C3606 1.388 . S
C3608 C3609 1.366 . S
C3609 C3608 1.366 . S
C3609 C3610 1.414 . S
C3609 C3612 1.499 . S
C3610 H3590 0.950 . S
C3610 C3609 1.414 . S
C3610 C3611 1.374 . S
C3611 H3591 0.950 . S
C3611 C3607 1.385 . S
C3611 C3610 1.374 . S
C3612 C3609 1.499 . S
C3612 C3613 1.373 . S
C3612 C3614 1.389 . S
C3613 H3592 0.950 . S
C3613 C3612 1.373 . S
C3613 C3629 1.377 . S
C3614 C3612 1.389 . S
C3614 C3615 1.524 . S
C3614 C3628 1.377 . S
C3615 C3614 1.524 . S
C3615 C3616 1.397 . S
C3615 C3620 1.363 . S
C3616 H3593 0.950 . S
C3616 C3615 1.397 . S
C3616 C3617 1.334 . S
C3617 H3594 0.950 . S
C3617 C3616 1.334 . S
C3617 C3618 1.287 . S
C3618 C3617 1.287 . S
C3618 C3619 1.524 . S
C3618 H3637 0.913 . S
C3619 H3595 0.950 . S
C3619 C3618 1.524 . S
C3619 C3620 1.415 . S
C3620 H3596 0.950 . S
C3620 C3615 1.363 . S
C3620 C3619 1.415 . S
C3621 H3597 0.951 . S
C3621 C3622 1.366 . S
C3621 C3623 1.388 . S
C3622 C3621 1.366 . S
C3622 C3626 1.385 . S
C3623 H3598 0.951 . S
C3623 C3621 1.388 . S
C3623 C3624 1.366 . S
C3624 C3623 1.366 . S
C3624 C3625 1.414 . S
C3624 C3627 1.499 . S
C3625 H3599 0.950 . S
C3625 C3624 1.414 . S
C3625 C3626 1.374 . S
C3626 H3600 0.950 . S
C3626 C3622 1.385 . S
C3626 C3625 1.374 . S
C3627 C3624 1.499 . S
C3627 C3628 1.373 . S
C3627 C3629 1.389 . S
C3628 H3601 0.950 . S
C3628 C3614 1.377 . S
C3628 C3627 1.373 . S
C3629 C3613 1.377 . S
C3629 C3627 1.389 . S
C3629 C3630 1.524 . S
C3630 C3629 1.524 . S
C3630 C3631 1.397 . S
C3630 C3635 1.363 . S
C3631 H3602 0.950 . S
C3631 C3630 1.397 . S
C3631 C3632 1.334 . S
C3632 H3603 0.950 . S
C3632 C3631 1.334 . S
C3632 C3633 1.287 . S
C3633 C3632 1.287 . S
C3633 C3634 1.524 . S
C3633 H3636 0.999 . S
C3634 H3604 0.950 . S
C3634 C3633 1.524 . S
C3634 C3635 1.415 . S
C3635 H3605 0.950 . S
C3635 C3630 1.363 . S
C3635 C3634 1.415 . S
H3636 C3633 0.999 . S
H3637 C3618 0.913 . S
H3638 C3656 0.951 . S
H3639 C3658 0.951 . S
H3640 C3660 0.950 . S
H3641 C3661 0.950 . S
H3642 C3663 0.950 . S
H3643 C3666 0.950 . S
H3644 C3667 0.950 . S
H3645 C3669 0.950 . S
H3646 C3670 0.950 . S
H3647 C3671 0.951 . S
H3648 C3673 0.951 . S
H3649 C3675 0.950 . S
H3650 C3676 0.950 . S
H3651 C3678 0.950 . S
H3652 C3681 0.950 . S
H3653 C3682 0.950 . S
H3654 C3684 0.950 . S
H3655 C3685 0.950 . S
C3656 H3638 0.951 . S
C3656 C3657 1.366 . S
C3656 C3658 1.388 . S
C3657 C3656 1.366 . S
C3657 C3661 1.385 . S
C3658 H3639 0.951 . S
C3658 C3656 1.388 . S
C3658 C3659 1.366 . S
C3659 C3658 1.366 . S
C3659 C3660 1.414 . S
C3659 C3662 1.499 . S
C3660 H3640 0.950 . S
C3660 C3659 1.414 . S
C3660 C3661 1.374 . S
C3661 H3641 0.950 . S
C3661 C3657 1.385 . S
C3661 C3660 1.374 . S
C3662 C3659 1.499 . S
C3662 C3663 1.373 . S
C3662 C3664 1.389 . S
C3663 H3642 0.950 . S
C3663 C3662 1.373 . S
C3663 C3679 1.377 . S
C3664 C3662 1.389 . S
C3664 C3665 1.524 . S
C3664 C3678 1.377 . S
C3665 C3664 1.524 . S
C3665 C3666 1.397 . S
C3665 C3670 1.363 . S
C3666 H3643 0.950 . S
C3666 C3665 1.397 . S
C3666 C3667 1.334 . S
C3667 H3644 0.950 . S
C3667 C3666 1.334 . S
C3667 C3668 1.287 . S
C3668 C3667 1.287 . S
C3668 C3669 1.524 . S
C3668 H3687 0.913 . S
C3669 H3645 0.950 . S
C3669 C3668 1.524 . S
C3669 C3670 1.415 . S
C3670 H3646 0.950 . S
C3670 C3665 1.363 . S
C3670 C3669 1.415 . S
C3671 H3647 0.951 . S
C3671 C3672 1.366 . S
C3671 C3673 1.388 . S
C3672 C3671 1.366 . S
C3672 C3676 1.385 . S
C3673 H3648 0.951 . S
C3673 C3671 1.388 . S
C3673 C3674 1.366 . S
C3674 C3673 1.366 . S
C3674 C3675 1.414 . S
C3674 C3677 1.499 . S
C3675 H3649 0.950 . S
C3675 C3674 1.414 . S
C3675 C3676 1.374 . S
C3676 H3650 0.950 . S
C3676 C3672 1.385 . S
C3676 C3675 1.374 . S
C3677 C3674 1.499 . S
C3677 C3678 1.373 . S
C3677 C3679 1.389 . S
C3678 H3651 0.950 . S
C3678 C3664 1.377 . S
C3678 C3677 1.373 . S
C3679 C3663 1.377 . S
C3679 C3677 1.389 . S
C3679 C3680 1.524 . S
C3680 C3679 1.524 . S
C3680 C3681 1.397 . S
C3680 C3685 1.363 . S
C3681 H3652 0.950 . S
C3681 C3680 1.397 . S
C3681 C3682 1.334 . S
C3682 H3653 0.950 . S
C3682 C3681 1.334 . S
C3682 C3683 1.287 . S
C3683 C3682 1.287 . S
C3683 C3684 1.524 . S
C3683 H3686 0.999 . S
C3684 H3654 0.950 . S
C3684 C3683 1.524 . S
C3684 C3685 1.415 . S
C3685 H3655 0.950 . S
C3685 C3680 1.363 . S
C3685 C3684 1.415 . S
H3686 C3683 0.999 . S
H3687 C3668 0.913 . S
H3688 C3706 0.951 . S
H3689 C3708 0.951 . S
H3690 C3710 0.950 . S
H3691 C3711 0.950 . S
H3692 C3713 0.950 . S
H3693 C3716 0.950 . S
H3694 C3717 0.950 . S
H3695 C3719 0.950 . S
H3696 C3720 0.950 . S
H3697 C3721 0.951 . S
H3698 C3723 0.951 . S
H3699 C3725 0.950 . S
H3700 C3726 0.950 . S
H3701 C3728 0.950 . S
H3702 C3731 0.950 . S
H3703 C3732 0.950 . S
H3704 C3734 0.950 . S
H3705 C3735 0.950 . S
C3706 H3688 0.951 . S
C3706 C3707 1.366 . S
C3706 C3708 1.388 . S
C3707 C3706 1.366 . S
C3707 C3711 1.385 . S
C3708 H3689 0.951 . S
C3708 C3706 1.388 . S
C3708 C3709 1.366 . S
C3709 C3708 1.366 . S
C3709 C3710 1.414 . S
C3709 C3712 1.499 . S
C3710 H3690 0.950 . S
C3710 C3709 1.414 . S
C3710 C3711 1.374 . S
C3711 H3691 0.950 . S
C3711 C3707 1.385 . S
C3711 C3710 1.374 . S
C3712 C3709 1.499 . S
C3712 C3713 1.373 . S
C3712 C3714 1.389 . S
C3713 H3692 0.950 . S
C3713 C3712 1.373 . S
C3713 C3729 1.377 . S
C3714 C3712 1.389 . S
C3714 C3715 1.524 . S
C3714 C3728 1.377 . S
C3715 C3714 1.524 . S
C3715 C3716 1.397 . S
C3715 C3720 1.363 . S
C3716 H3693 0.950 . S
C3716 C3715 1.397 . S
C3716 C3717 1.334 . S
C3717 H3694 0.950 . S
C3717 C3716 1.334 . S
C3717 C3718 1.287 . S
C3718 C3717 1.287 . S
C3718 C3719 1.524 . S
C3718 H3737 0.913 . S
C3719 H3695 0.950 . S
C3719 C3718 1.524 . S
C3719 C3720 1.415 . S
C3720 H3696 0.950 . S
C3720 C3715 1.363 . S
C3720 C3719 1.415 . S
C3721 H3697 0.951 . S
C3721 C3722 1.366 . S
C3721 C3723 1.388 . S
C3722 C3721 1.366 . S
C3722 C3726 1.385 . S
C3723 H3698 0.951 . S
C3723 C3721 1.388 . S
C3723 C3724 1.366 . S
C3724 C3723 1.366 . S
C3724 C3725 1.414 . S
C3724 C3727 1.499 . S
C3725 H3699 0.950 . S
C3725 C3724 1.414 . S
C3725 C3726 1.374 . S
C3726 H3700 0.950 . S
C3726 C3722 1.385 . S
C3726 C3725 1.374 . S
C3727 C3724 1.499 . S
C3727 C3728 1.373 . S
C3727 C3729 1.389 . S
C3728 H3701 0.950 . S
C3728 C3714 1.377 . S
C3728 C3727 1.373 . S
C3729 C3713 1.377 . S
C3729 C3727 1.389 . S
C3729 C3730 1.524 . S
C3730 C3729 1.524 . S
C3730 C3731 1.397 . S
C3730 C3735 1.363 . S
C3731 H3702 0.950 . S
C3731 C3730 1.397 . S
C3731 C3732 1.334 . S
C3732 H3703 0.950 . S
C3732 C3731 1.334 . S
C3732 C3733 1.287 . S
C3733 C3732 1.287 . S
C3733 C3734 1.524 . S
C3733 H3736 0.999 . S
C3734 H3704 0.950 . S
C3734 C3733 1.524 . S
C3734 C3735 1.415 . S
C3735 H3705 0.950 . S
C3735 C3730 1.363 . S
C3735 C3734 1.415 . S
H3736 C3733 0.999 . S
H3737 C3718 0.913 . S
H3738 C3756 0.951 . S
H3739 C3758 0.951 . S
H3740 C3760 0.950 . S
H3741 C3761 0.950 . S
H3742 C3763 0.950 . S
H3743 C3766 0.950 . S
H3744 C3767 0.950 . S
H3745 C3769 0.950 . S
H3746 C3770 0.950 . S
H3747 C3771 0.951 . S
H3748 C3773 0.951 . S
H3749 C3775 0.950 . S
H3750 C3776 0.950 . S
H3751 C3778 0.950 . S
H3752 C3781 0.950 . S
H3753 C3782 0.950 . S
H3754 C3784 0.950 . S
H3755 C3785 0.950 . S
C3756 H3738 0.951 . S
C3756 C3757 1.366 . S
C3756 C3758 1.388 . S
C3757 C3756 1.366 . S
C3757 C3761 1.385 . S
C3758 H3739 0.951 . S
C3758 C3756 1.388 . S
C3758 C3759 1.366 . S
C3759 C3758 1.366 . S
C3759 C3760 1.414 . S
C3759 C3762 1.499 . S
C3760 H3740 0.950 . S
C3760 C3759 1.414 . S
C3760 C3761 1.374 . S
C3761 H3741 0.950 . S
C3761 C3757 1.385 . S
C3761 C3760 1.374 . S
C3762 C3759 1.499 . S
C3762 C3763 1.373 . S
C3762 C3764 1.389 . S
C3763 H3742 0.950 . S
C3763 C3762 1.373 . S
C3763 C3779 1.377 . S
C3764 C3762 1.389 . S
C3764 C3765 1.524 . S
C3764 C3778 1.377 . S
C3765 C3764 1.524 . S
C3765 C3766 1.397 . S
C3765 C3770 1.363 . S
C3766 H3743 0.950 . S
C3766 C3765 1.397 . S
C3766 C3767 1.334 . S
C3767 H3744 0.950 . S
C3767 C3766 1.334 . S
C3767 C3768 1.287 . S
C3768 C3767 1.287 . S
C3768 C3769 1.524 . S
C3768 H3787 0.913 . S
C3769 H3745 0.950 . S
C3769 C3768 1.524 . S
C3769 C3770 1.415 . S
C3770 H3746 0.950 . S
C3770 C3765 1.363 . S
C3770 C3769 1.415 . S
C3771 H3747 0.951 . S
C3771 C3772 1.366 . S
C3771 C3773 1.388 . S
C3772 C3771 1.366 . S
C3772 C3776 1.385 . S
C3773 H3748 0.951 . S
C3773 C3771 1.388 . S
C3773 C3774 1.366 . S
C3774 C3773 1.366 . S
C3774 C3775 1.414 . S
C3774 C3777 1.499 . S
C3775 H3749 0.950 . S
C3775 C3774 1.414 . S
C3775 C3776 1.374 . S
C3776 H3750 0.950 . S
C3776 C3772 1.385 . S
C3776 C3775 1.374 . S
C3777 C3774 1.499 . S
C3777 C3778 1.373 . S
C3777 C3779 1.389 . S
C3778 H3751 0.950 . S
C3778 C3764 1.377 . S
C3778 C3777 1.373 . S
C3779 C3763 1.377 . S
C3779 C3777 1.389 . S
C3779 C3780 1.524 . S
C3780 C3779 1.524 . S
C3780 C3781 1.397 . S
C3780 C3785 1.363 . S
C3781 H3752 0.950 . S
C3781 C3780 1.397 . S
C3781 C3782 1.334 . S
C3782 H3753 0.950 . S
C3782 C3781 1.334 . S
C3782 C3783 1.287 . S
C3783 C3782 1.287 . S
C3783 C3784 1.524 . S
C3783 H3786 0.999 . S
C3784 H3754 0.950 . S
C3784 C3783 1.524 . S
C3784 C3785 1.415 . S
C3785 H3755 0.950 . S
C3785 C3780 1.363 . S
C3785 C3784 1.415 . S
H3786 C3783 0.999 . S
H3787 C3768 0.913 . S
H3788 C3806 0.951 . S
H3789 C3808 0.951 . S
H3790 C3810 0.950 . S
H3791 C3811 0.950 . S
H3792 C3813 0.950 . S
H3793 C3816 0.950 . S
H3794 C3817 0.950 . S
H3795 C3819 0.950 . S
H3796 C3820 0.950 . S
H3797 C3821 0.951 . S
H3798 C3823 0.951 . S
H3799 C3825 0.950 . S
H3800 C3826 0.950 . S
H3801 C3828 0.950 . S
H3802 C3831 0.950 . S
H3803 C3832 0.950 . S
H3804 C3834 0.950 . S
H3805 C3835 0.950 . S
C3806 H3788 0.951 . S
C3806 C3807 1.366 . S
C3806 C3808 1.388 . S
C3807 C3806 1.366 . S
C3807 C3811 1.385 . S
C3808 H3789 0.951 . S
C3808 C3806 1.388 . S
C3808 C3809 1.366 . S
C3809 C3808 1.366 . S
C3809 C3810 1.414 . S
C3809 C3812 1.499 . S
C3810 H3790 0.950 . S
C3810 C3809 1.414 . S
C3810 C3811 1.374 . S
C3811 H3791 0.950 . S
C3811 C3807 1.385 . S
C3811 C3810 1.374 . S
C3812 C3809 1.499 . S
C3812 C3813 1.373 . S
C3812 C3814 1.389 . S
C3813 H3792 0.950 . S
C3813 C3812 1.373 . S
C3813 C3829 1.377 . S
C3814 C3812 1.389 . S
C3814 C3815 1.524 . S
C3814 C3828 1.377 . S
C3815 C3814 1.524 . S
C3815 C3816 1.397 . S
C3815 C3820 1.363 . S
C3816 H3793 0.950 . S
C3816 C3815 1.397 . S
C3816 C3817 1.334 . S
C3817 H3794 0.950 . S
C3817 C3816 1.334 . S
C3817 C3818 1.287 . S
C3818 C3817 1.287 . S
C3818 C3819 1.524 . S
C3818 H3837 0.913 . S
C3819 H3795 0.950 . S
C3819 C3818 1.524 . S
C3819 C3820 1.415 . S
C3820 H3796 0.950 . S
C3820 C3815 1.363 . S
C3820 C3819 1.415 . S
C3821 H3797 0.951 . S
C3821 C3822 1.366 . S
C3821 C3823 1.388 . S
C3822 C3821 1.366 . S
C3822 C3826 1.385 . S
C3823 H3798 0.951 . S
C3823 C3821 1.388 . S
C3823 C3824 1.366 . S
C3824 C3823 1.366 . S
C3824 C3825 1.414 . S
C3824 C3827 1.499 . S
C3825 H3799 0.950 . S
C3825 C3824 1.414 . S
C3825 C3826 1.374 . S
C3826 H3800 0.950 . S
C3826 C3822 1.385 . S
C3826 C3825 1.374 . S
C3827 C3824 1.499 . S
C3827 C3828 1.373 . S
C3827 C3829 1.389 . S
C3828 H3801 0.950 . S
C3828 C3814 1.377 . S
C3828 C3827 1.373 . S
C3829 C3813 1.377 . S
C3829 C3827 1.389 . S
C3829 C3830 1.524 . S
C3830 C3829 1.524 . S
C3830 C3831 1.397 . S
C3830 C3835 1.363 . S
C3831 H3802 0.950 . S
C3831 C3830 1.397 . S
C3831 C3832 1.334 . S
C3832 H3803 0.950 . S
C3832 C3831 1.334 . S
C3832 C3833 1.287 . S
C3833 C3832 1.287 . S
C3833 C3834 1.524 . S
C3833 H3836 0.999 . S
C3834 H3804 0.950 . S
C3834 C3833 1.524 . S
C3834 C3835 1.415 . S
C3835 H3805 0.950 . S
C3835 C3830 1.363 . S
C3835 C3834 1.415 . S
H3836 C3833 0.999 . S
H3837 C3818 0.913 . S
H3838 C3856 0.951 . S
H3839 C3858 0.951 . S
H3840 C3860 0.950 . S
H3841 C3861 0.950 . S
H3842 C3863 0.950 . S
H3843 C3866 0.950 . S
H3844 C3867 0.950 . S
H3845 C3869 0.950 . S
H3846 C3870 0.950 . S
H3847 C3871 0.951 . S
H3848 C3873 0.951 . S
H3849 C3875 0.950 . S
H3850 C3876 0.950 . S
H3851 C3878 0.950 . S
H3852 C3881 0.950 . S
H3853 C3882 0.950 . S
H3854 C3884 0.950 . S
H3855 C3885 0.950 . S
C3856 H3838 0.951 . S
C3856 C3857 1.366 . S
C3856 C3858 1.388 . S
C3857 C3856 1.366 . S
C3857 C3861 1.385 . S
C3858 H3839 0.951 . S
C3858 C3856 1.388 . S
C3858 C3859 1.366 . S
C3859 C3858 1.366 . S
C3859 C3860 1.414 . S
C3859 C3862 1.499 . S
C3860 H3840 0.950 . S
C3860 C3859 1.414 . S
C3860 C3861 1.374 . S
C3861 H3841 0.950 . S
C3861 C3857 1.385 . S
C3861 C3860 1.374 . S
C3862 C3859 1.499 . S
C3862 C3863 1.373 . S
C3862 C3864 1.389 . S
C3863 H3842 0.950 . S
C3863 C3862 1.373 . S
C3863 C3879 1.377 . S
C3864 C3862 1.389 . S
C3864 C3865 1.524 . S
C3864 C3878 1.377 . S
C3865 C3864 1.524 . S
C3865 C3866 1.397 . S
C3865 C3870 1.363 . S
C3866 H3843 0.950 . S
C3866 C3865 1.397 . S
C3866 C3867 1.334 . S
C3867 H3844 0.950 . S
C3867 C3866 1.334 . S
C3867 C3868 1.287 . S
C3868 C3867 1.287 . S
C3868 C3869 1.524 . S
C3868 H3887 0.913 . S
C3869 H3845 0.950 . S
C3869 C3868 1.524 . S
C3869 C3870 1.415 . S
C3870 H3846 0.950 . S
C3870 C3865 1.363 . S
C3870 C3869 1.415 . S
C3871 H3847 0.951 . S
C3871 C3872 1.366 . S
C3871 C3873 1.388 . S
C3872 C3871 1.366 . S
C3872 C3876 1.385 . S
C3873 H3848 0.951 . S
C3873 C3871 1.388 . S
C3873 C3874 1.366 . S
C3874 C3873 1.366 . S
C3874 C3875 1.414 . S
C3874 C3877 1.499 . S
C3875 H3849 0.950 . S
C3875 C3874 1.414 . S
C3875 C3876 1.374 . S
C3876 H3850 0.950 . S
C3876 C3872 1.385 . S
C3876 C3875 1.374 . S
C3877 C3874 1.499 . S
C3877 C3878 1.373 . S
C3877 C3879 1.389 . S
C3878 H3851 0.950 . S
C3878 C3864 1.377 . S
C3878 C3877 1.373 . S
C3879 C3863 1.377 . S
C3879 C3877 1.389 . S
C3879 C3880 1.524 . S
C3880 C3879 1.524 . S
C3880 C3881 1.397 . S
C3880 C3885 1.363 . S
C3881 H3852 0.950 . S
C3881 C3880 1.397 . S
C3881 C3882 1.334 . S
C3882 H3853 0.950 . S
C3882 C3881 1.334 . S
C3882 C3883 1.287 . S
C3883 C3882 1.287 . S
C3883 C3884 1.524 . S
C3883 H3886 0.999 . S
C3884 H3854 0.950 . S
C3884 C3883 1.524 . S
C3884 C3885 1.415 . S
C3885 H3855 0.950 . S
C3885 C3880 1.363 . S
C3885 C3884 1.415 . S
H3886 C3883 0.999 . S
H3887 C3868 0.913 . S
H3888 C3906 0.951 . S
H3889 C3908 0.951 . S
H3890 C3910 0.950 . S
H3891 C3911 0.950 . S
H3892 C3913 0.950 . S
H3893 C3916 0.950 . S
H3894 C3917 0.950 . S
H3895 C3919 0.950 . S
H3896 C3920 0.950 . S
H3897 C3921 0.951 . S
H3898 C3923 0.951 . S
H3899 C3925 0.950 . S
H3900 C3926 0.950 . S
H3901 C3928 0.950 . S
H3902 C3931 0.950 . S
H3903 C3932 0.950 . S
H3904 C3934 0.950 . S
H3905 C3935 0.950 . S
C3906 H3888 0.951 . S
C3906 C3907 1.366 . S
C3906 C3908 1.388 . S
C3907 C3906 1.366 . S
C3907 C3911 1.385 . S
C3908 H3889 0.951 . S
C3908 C3906 1.388 . S
C3908 C3909 1.366 . S
C3909 C3908 1.366 . S
C3909 C3910 1.414 . S
C3909 C3912 1.499 . S
C3910 H3890 0.950 . S
C3910 C3909 1.414 . S
C3910 C3911 1.374 . S
C3911 H3891 0.950 . S
C3911 C3907 1.385 . S
C3911 C3910 1.374 . S
C3912 C3909 1.499 . S
C3912 C3913 1.373 . S
C3912 C3914 1.389 . S
C3913 H3892 0.950 . S
C3913 C3912 1.373 . S
C3913 C3929 1.377 . S
C3914 C3912 1.389 . S
C3914 C3915 1.524 . S
C3914 C3928 1.377 . S
C3915 C3914 1.524 . S
C3915 C3916 1.397 . S
C3915 C3920 1.363 . S
C3916 H3893 0.950 . S
C3916 C3915 1.397 . S
C3916 C3917 1.334 . S
C3917 H3894 0.950 . S
C3917 C3916 1.334 . S
C3917 C3918 1.287 . S
C3918 C3917 1.287 . S
C3918 C3919 1.524 . S
C3918 H3937 0.913 . S
C3919 H3895 0.950 . S
C3919 C3918 1.524 . S
C3919 C3920 1.415 . S
C3920 H3896 0.950 . S
C3920 C3915 1.363 . S
C3920 C3919 1.415 . S
C3921 H3897 0.951 . S
C3921 C3922 1.366 . S
C3921 C3923 1.388 . S
C3922 C3921 1.366 . S
C3922 C3926 1.385 . S
C3923 H3898 0.951 . S
C3923 C3921 1.388 . S
C3923 C3924 1.366 . S
C3924 C3923 1.366 . S
C3924 C3925 1.414 . S
C3924 C3927 1.499 . S
C3925 H3899 0.950 . S
C3925 C3924 1.414 . S
C3925 C3926 1.374 . S
C3926 H3900 0.950 . S
C3926 C3922 1.385 . S
C3926 C3925 1.374 . S
C3927 C3924 1.499 . S
C3927 C3928 1.373 . S
C3927 C3929 1.389 . S
C3928 H3901 0.950 . S
C3928 C3914 1.377 . S
C3928 C3927 1.373 . S
C3929 C3913 1.377 . S
C3929 C3927 1.389 . S
C3929 C3930 1.524 . S
C3930 C3929 1.524 . S
C3930 C3931 1.397 . S
C3930 C3935 1.363 . S
C3931 H3902 0.950 . S
C3931 C3930 1.397 . S
C3931 C3932 1.334 . S
C3932 H3903 0.950 . S
C3932 C3931 1.334 . S
C3932 C3933 1.287 . S
C3933 C3932 1.287 . S
C3933 C3934 1.524 . S
C3933 H3936 0.999 . S
C3934 H3904 0.950 . S
C3934 C3933 1.524 . S
C3934 C3935 1.415 . S
C3935 H3905 0.950 . S
C3935 C3930 1.363 . S
C3935 C3934 1.415 . S
H3936 C3933 0.999 . S
H3937 C3918 0.913 . S
H3938 C3956 0.951 . S
H3939 C3958 0.951 . S
H3940 C3960 0.950 . S
H3941 C3961 0.950 . S
H3942 C3963 0.950 . S
H3943 C3966 0.950 . S
H3944 C3967 0.950 . S
H3945 C3969 0.950 . S
H3946 C3970 0.950 . S
H3947 C3971 0.951 . S
H3948 C3973 0.951 . S
H3949 C3975 0.950 . S
H3950 C3976 0.950 . S
H3951 C3978 0.950 . S
H3952 C3981 0.950 . S
H3953 C3982 0.950 . S
H3954 C3984 0.950 . S
H3955 C3985 0.950 . S
C3956 H3938 0.951 . S
C3956 C3957 1.366 . S
C3956 C3958 1.388 . S
C3957 C3956 1.366 . S
C3957 C3961 1.385 . S
C3958 H3939 0.951 . S
C3958 C3956 1.388 . S
C3958 C3959 1.366 . S
C3959 C3958 1.366 . S
C3959 C3960 1.414 . S
C3959 C3962 1.499 . S
C3960 H3940 0.950 . S
C3960 C3959 1.414 . S
C3960 C3961 1.374 . S
C3961 H3941 0.950 . S
C3961 C3957 1.385 . S
C3961 C3960 1.374 . S
C3962 C3959 1.499 . S
C3962 C3963 1.373 . S
C3962 C3964 1.389 . S
C3963 H3942 0.950 . S
C3963 C3962 1.373 . S
C3963 C3979 1.377 . S
C3964 C3962 1.389 . S
C3964 C3965 1.524 . S
C3964 C3978 1.377 . S
C3965 C3964 1.524 . S
C3965 C3966 1.397 . S
C3965 C3970 1.363 . S
C3966 H3943 0.950 . S
C3966 C3965 1.397 . S
C3966 C3967 1.334 . S
C3967 H3944 0.950 . S
C3967 C3966 1.334 . S
C3967 C3968 1.287 . S
C3968 C3967 1.287 . S
C3968 C3969 1.524 . S
C3968 H3987 0.913 . S
C3969 H3945 0.950 . S
C3969 C3968 1.524 . S
C3969 C3970 1.415 . S
C3970 H3946 0.950 . S
C3970 C3965 1.363 . S
C3970 C3969 1.415 . S
C3971 H3947 0.951 . S
C3971 C3972 1.366 . S
C3971 C3973 1.388 . S
C3972 C3971 1.366 . S
C3972 C3976 1.385 . S
C3973 H3948 0.951 . S
C3973 C3971 1.388 . S
C3973 C3974 1.366 . S
C3974 C3973 1.366 . S
C3974 C3975 1.414 . S
C3974 C3977 1.499 . S
C3975 H3949 0.950 . S
C3975 C3974 1.414 . S
C3975 C3976 1.374 . S
C3976 H3950 0.950 . S
C3976 C3972 1.385 . S
C3976 C3975 1.374 . S
C3977 C3974 1.499 . S
C3977 C3978 1.373 . S
C3977 C3979 1.389 . S
C3978 H3951 0.950 . S
C3978 C3964 1.377 . S
C3978 C3977 1.373 . S
C3979 C3963 1.377 . S
C3979 C3977 1.389 . S
C3979 C3980 1.524 . S
C3980 C3979 1.524 . S
C3980 C3981 1.397 . S
C3980 C3985 1.363 . S
C3981 H3952 0.950 . S
C3981 C3980 1.397 . S
C3981 C3982 1.334 . S
C3982 H3953 0.950 . S
C3982 C3981 1.334 . S
C3982 C3983 1.287 . S
C3983 C3982 1.287 . S
C3983 C3984 1.524 . S
C3983 H3986 0.999 . S
C3984 H3954 0.950 . S
C3984 C3983 1.524 . S
C3984 C3985 1.415 . S
C3985 H3955 0.950 . S
C3985 C3980 1.363 . S
C3985 C3984 1.415 . S
H3986 C3983 0.999 . S
H3987 C3968 0.913 . S
H3988 C4006 0.951 . S
H3989 C4008 0.951 . S
H3990 C4010 0.950 . S
H3991 C4011 0.950 . S
H3992 C4013 0.950 . S
H3993 C4016 0.950 . S
H3994 C4017 0.950 . S
H3995 C4019 0.950 . S
H3996 C4020 0.950 . S
H3997 C4021 0.951 . S
H3998 C4023 0.951 . S
H3999 C4025 0.950 . S
H4000 C4026 0.950 . S
H4001 C4028 0.950 . S
H4002 C4031 0.950 . S
H4003 C4032 0.950 . S
H4004 C4034 0.950 . S
H4005 C4035 0.950 . S
C4006 H3988 0.951 . S
C4006 C4007 1.366 . S
C4006 C4008 1.388 . S
C4007 C4006 1.366 . S
C4007 C4011 1.385 . S
C4008 H3989 0.951 . S
C4008 C4006 1.388 . S
C4008 C4009 1.366 . S
C4009 C4008 1.366 . S
C4009 C4010 1.414 . S
C4009 C4012 1.499 . S
C4010 H3990 0.950 . S
C4010 C4009 1.414 . S
C4010 C4011 1.374 . S
C4011 H3991 0.950 . S
C4011 C4007 1.385 . S
C4011 C4010 1.374 . S
C4012 C4009 1.499 . S
C4012 C4013 1.373 . S
C4012 C4014 1.389 . S
C4013 H3992 0.950 . S
C4013 C4012 1.373 . S
C4013 C4029 1.377 . S
C4014 C4012 1.389 . S
C4014 C4015 1.524 . S
C4014 C4028 1.377 . S
C4015 C4014 1.524 . S
C4015 C4016 1.397 . S
C4015 C4020 1.363 . S
C4016 H3993 0.950 . S
C4016 C4015 1.397 . S
C4016 C4017 1.334 . S
C4017 H3994 0.950 . S
C4017 C4016 1.334 . S
C4017 C4018 1.287 . S
C4018 C4017 1.287 . S
C4018 C4019 1.524 . S
C4018 H4037 0.913 . S
C4019 H3995 0.950 . S
C4019 C4018 1.524 . S
C4019 C4020 1.415 . S
C4020 H3996 0.950 . S
C4020 C4015 1.363 . S
C4020 C4019 1.415 . S
C4021 H3997 0.951 . S
C4021 C4022 1.366 . S
C4021 C4023 1.388 . S
C4022 C4021 1.366 . S
C4022 C4026 1.385 . S
C4023 H3998 0.951 . S
C4023 C4021 1.388 . S
C4023 C4024 1.366 . S
C4024 C4023 1.366 . S
C4024 C4025 1.414 . S
C4024 C4027 1.499 . S
C4025 H3999 0.950 . S
C4025 C4024 1.414 . S
C4025 C4026 1.374 . S
C4026 H4000 0.950 . S
C4026 C4022 1.385 . S
C4026 C4025 1.374 . S
C4027 C4024 1.499 . S
C4027 C4028 1.373 . S
C4027 C4029 1.389 . S
C4028 H4001 0.950 . S
C4028 C4014 1.377 . S
C4028 C4027 1.373 . S
C4029 C4013 1.377 . S
C4029 C4027 1.389 . S
C4029 C4030 1.524 . S
C4030 C4029 1.524 . S
C4030 C4031 1.397 . S
C4030 C4035 1.363 . S
C4031 H4002 0.950 . S
C4031 C4030 1.397 . S
C4031 C4032 1.334 . S
C4032 H4003 0.950 . S
C4032 C4031 1.334 . S
C4032 C4033 1.287 . S
C4033 C4032 1.287 . S
C4033 C4034 1.524 . S
C4033 H4036 0.999 . S
C4034 H4004 0.950 . S
C4034 C4033 1.524 . S
C4034 C4035 1.415 . S
C4035 H4005 0.950 . S
C4035 C4030 1.363 . S
C4035 C4034 1.415 . S
H4036 C4033 0.999 . S
H4037 C4018 0.913 . S
H4038 C4056 0.951 . S
H4039 C4058 0.951 . S
H4040 C4060 0.950 . S
H4041 C4061 0.950 . S
H4042 C4063 0.950 . S
H4043 C4066 0.950 . S
H4044 C4067 0.950 . S
H4045 C4069 0.950 . S
H4046 C4070 0.950 . S
H4047 C4071 0.951 . S
H4048 C4073 0.951 . S
H4049 C4075 0.950 . S
H4050 C4076 0.950 . S
H4051 C4078 0.950 . S
H4052 C4081 0.950 . S
H4053 C4082 0.950 . S
H4054 C4084 0.950 . S
H4055 C4085 0.950 . S
C4056 H4038 0.951 . S
C4056 C4057 1.366 . S
C4056 C4058 1.388 . S
C4057 C4056 1.366 . S
C4057 C4061 1.385 . S
C4058 H4039 0.951 . S
C4058 C4056 1.388 . S
C4058 C4059 1.366 . S
C4059 C4058 1.366 . S
C4059 C4060 1.414 . S
C4059 C4062 1.499 . S
C4060 H4040 0.950 . S
C4060 C4059 1.414 . S
C4060 C4061 1.374 . S
C4061 H4041 0.950 . S
C4061 C4057 1.385 . S
C4061 C4060 1.374 . S
C4062 C4059 1.499 . S
C4062 C4063 1.373 . S
C4062 C4064 1.389 . S
C4063 H4042 0.950 . S
C4063 C4062 1.373 . S
C4063 C4079 1.377 . S
C4064 C4062 1.389 . S
C4064 C4065 1.524 . S
C4064 C4078 1.377 . S
C4065 C4064 1.524 . S
C4065 C4066 1.397 . S
C4065 C4070 1.363 . S
C4066 H4043 0.950 . S
C4066 C4065 1.397 . S
C4066 C4067 1.334 . S
C4067 H4044 0.950 . S
C4067 C4066 1.334 . S
C4067 C4068 1.287 . S
C4068 C4067 1.287 . S
C4068 C4069 1.524 . S
C4068 H4087 0.913 . S
C4069 H4045 0.950 . S
C4069 C4068 1.524 . S
C4069 C4070 1.415 . S
C4070 H4046 0.950 . S
C4070 C4065 1.363 . S
C4070 C4069 1.415 . S
C4071 H4047 0.951 . S
C4071 C4072 1.366 . S
C4071 C4073 1.388 . S
C4072 C4071 1.366 . S
C4072 C4076 1.385 . S
C4073 H4048 0.951 . S
C4073 C4071 1.388 . S
C4073 C4074 1.366 . S
C4074 C4073 1.366 . S
C4074 C4075 1.414 . S
C4074 C4077 1.499 . S
C4075 H4049 0.950 . S
C4075 C4074 1.414 . S
C4075 C4076 1.374 . S
C4076 H4050 0.950 . S
C4076 C4072 1.385 . S
C4076 C4075 1.374 . S
C4077 C4074 1.499 . S
C4077 C4078 1.373 . S
C4077 C4079 1.389 . S
C4078 H4051 0.950 . S
C4078 C4064 1.377 . S
C4078 C4077 1.373 . S
C4079 C4063 1.377 . S
C4079 C4077 1.389 . S
C4079 C4080 1.524 . S
C4080 C4079 1.524 . S
C4080 C4081 1.397 . S
C4080 C4085 1.363 . S
C4081 H4052 0.950 . S
C4081 C4080 1.397 . S
C4081 C4082 1.334 . S
C4082 H4053 0.950 . S
C4082 C4081 1.334 . S
C4082 C4083 1.287 . S
C4083 C4082 1.287 . S
C4083 C4084 1.524 . S
C4083 H4086 0.999 . S
C4084 H4054 0.950 . S
C4084 C4083 1.524 . S
C4084 C4085 1.415 . S
C4085 H4055 0.950 . S
C4085 C4080 1.363 . S
C4085 C4084 1.415 . S
H4086 C4083 0.999 . S
H4087 C4068 0.913 . S
H4088 C4106 0.951 . S
H4089 C4108 0.951 . S
H4090 C4110 0.950 . S
H4091 C4111 0.950 . S
H4092 C4113 0.950 . S
H4093 C4116 0.950 . S
H4094 C4117 0.950 . S
H4095 C4119 0.950 . S
H4096 C4120 0.950 . S
H4097 C4121 0.951 . S
H4098 C4123 0.951 . S
H4099 C4125 0.950 . S
H4100 C4126 0.950 . S
H4101 C4128 0.950 . S
H4102 C4131 0.950 . S
H4103 C4132 0.950 . S
H4104 C4134 0.950 . S
H4105 C4135 0.950 . S
C4106 H4088 0.951 . S
C4106 C4107 1.366 . S
C4106 C4108 1.388 . S
C4107 C4106 1.366 . S
C4107 C4111 1.385 . S
C4108 H4089 0.951 . S
C4108 C4106 1.388 . S
C4108 C4109 1.366 . S
C4109 C4108 1.366 . S
C4109 C4110 1.414 . S
C4109 C4112 1.499 . S
C4110 H4090 0.950 . S
C4110 C4109 1.414 . S
C4110 C4111 1.374 . S
C4111 H4091 0.950 . S
C4111 C4107 1.385 . S
C4111 C4110 1.374 . S
C4112 C4109 1.499 . S
C4112 C4113 1.373 . S
C4112 C4114 1.389 . S
C4113 H4092 0.950 . S
C4113 C4112 1.373 . S
C4113 C4129 1.377 . S
C4114 C4112 1.389 . S
C4114 C4115 1.524 . S
C4114 C4128 1.377 . S
C4115 C4114 1.524 . S
C4115 C4116 1.397 . S
C4115 C4120 1.363 . S
C4116 H4093 0.950 . S
C4116 C4115 1.397 . S
C4116 C4117 1.334 . S
C4117 H4094 0.950 . S
C4117 C4116 1.334 . S
C4117 C4118 1.287 . S
C4118 C4117 1.287 . S
C4118 C4119 1.524 . S
C4118 H4137 0.913 . S
C4119 H4095 0.950 . S
C4119 C4118 1.524 . S
C4119 C4120 1.415 . S
C4120 H4096 0.950 . S
C4120 C4115 1.363 . S
C4120 C4119 1.415 . S
C4121 H4097 0.951 . S
C4121 C4122 1.366 . S
C4121 C4123 1.388 . S
C4122 C4121 1.366 . S
C4122 C4126 1.385 . S
C4123 H4098 0.951 . S
C4123 C4121 1.388 . S
C4123 C4124 1.366 . S
C4124 C4123 1.366 . S
C4124 C4125 1.414 . S
C4124 C4127 1.499 . S
C4125 H4099 0.950 . S
C4125 C4124 1.414 . S
C4125 C4126 1.374 . S
C4126 H4100 0.950 . S
C4126 C4122 1.385 . S
C4126 C4125 1.374 . S
C4127 C4124 1.499 . S
C4127 C4128 1.373 . S
C4127 C4129 1.389 . S
C4128 H4101 0.950 . S
C4128 C4114 1.377 . S
C4128 C4127 1.373 . S
C4129 C4113 1.377 . S
C4129 C4127 1.389 . S
C4129 C4130 1.524 . S
C4130 C4129 1.524 . S
C4130 C4131 1.397 . S
C4130 C4135 1.363 . S
C4131 H4102 0.950 . S
C4131 C4130 1.397 . S
C4131 C4132 1.334 . S
C4132 H4103 0.950 . S
C4132 C4131 1.334 . S
C4132 C4133 1.287 . S
C4133 C4132 1.287 . S
C4133 C4134 1.524 . S
C4133 H4136 0.999 . S
C4134 H4104 0.950 . S
C4134 C4133 1.524 . S
C4134 C4135 1.415 . S
C4135 H4105 0.950 . S
C4135 C4130 1.363 . S
C4135 C4134 1.415 . S
H4136 C4133 0.999 . S
H4137 C4118 0.913 . S
H4138 C4156 0.951 . S
H4139 C4158 0.951 . S
H4140 C4160 0.950 . S
H4141 C4161 0.950 . S
H4142 C4163 0.950 . S
H4143 C4166 0.950 . S
H4144 C4167 0.950 . S
H4145 C4169 0.950 . S
H4146 C4170 0.950 . S
H4147 C4171 0.951 . S
H4148 C4173 0.951 . S
H4149 C4175 0.950 . S
H4150 C4176 0.950 . S
H4151 C4178 0.950 . S
H4152 C4181 0.950 . S
H4153 C4182 0.950 . S
H4154 C4184 0.950 . S
H4155 C4185 0.950 . S
C4156 H4138 0.951 . S
C4156 C4157 1.366 . S
C4156 C4158 1.388 . S
C4157 C4156 1.366 . S
C4157 C4161 1.385 . S
C4158 H4139 0.951 . S
C4158 C4156 1.388 . S
C4158 C4159 1.366 . S
C4159 C4158 1.366 . S
C4159 C4160 1.414 . S
C4159 C4162 1.499 . S
C4160 H4140 0.950 . S
C4160 C4159 1.414 . S
C4160 C4161 1.374 . S
C4161 H4141 0.950 . S
C4161 C4157 1.385 . S
C4161 C4160 1.374 . S
C4162 C4159 1.499 . S
C4162 C4163 1.373 . S
C4162 C4164 1.389 . S
C4163 H4142 0.950 . S
C4163 C4162 1.373 . S
C4163 C4179 1.377 . S
C4164 C4162 1.389 . S
C4164 C4165 1.524 . S
C4164 C4178 1.377 . S
C4165 C4164 1.524 . S
C4165 C4166 1.397 . S
C4165 C4170 1.363 . S
C4166 H4143 0.950 . S
C4166 C4165 1.397 . S
C4166 C4167 1.334 . S
C4167 H4144 0.950 . S
C4167 C4166 1.334 . S
C4167 C4168 1.287 . S
C4168 C4167 1.287 . S
C4168 C4169 1.524 . S
C4168 H4187 0.913 . S
C4169 H4145 0.950 . S
C4169 C4168 1.524 . S
C4169 C4170 1.415 . S
C4170 H4146 0.950 . S
C4170 C4165 1.363 . S
C4170 C4169 1.415 . S
C4171 H4147 0.951 . S
C4171 C4172 1.366 . S
C4171 C4173 1.388 . S
C4172 C4171 1.366 . S
C4172 C4176 1.385 . S
C4173 H4148 0.951 . S
C4173 C4171 1.388 . S
C4173 C4174 1.366 . S
C4174 C4173 1.366 . S
C4174 C4175 1.414 . S
C4174 C4177 1.499 . S
C4175 H4149 0.950 . S
C4175 C4174 1.414 . S
C4175 C4176 1.374 . S
C4176 H4150 0.950 . S
C4176 C4172 1.385 . S
C4176 C4175 1.374 . S
C4177 C4174 1.499 . S
C4177 C4178 1.373 . S
C4177 C4179 1.389 . S
C4178 H4151 0.950 . S
C4178 C4164 1.377 . S
C4178 C4177 1.373 . S
C4179 C4163 1.377 . S
C4179 C4177 1.389 . S
C4179 C4180 1.524 . S
C4180 C4179 1.524 . S
C4180 C4181 1.397 . S
C4180 C4185 1.363 . S
C4181 H4152 0.950 . S
C4181 C4180 1.397 . S
C4181 C4182 1.334 . S
C4182 H4153 0.950 . S
C4182 C4181 1.334 . S
C4182 C4183 1.287 . S
C4183 C4182 1.287 . S
C4183 C4184 1.524 . S
C4183 H4186 0.999 . S
C4184 H4154 0.950 . S
C4184 C4183 1.524 . S
C4184 C4185 1.415 . S
C4185 H4155 0.950 . S
C4185 C4180 1.363 . S
C4185 C4184 1.415 . S
H4186 C4183 0.999 . S
H4187 C4168 0.913 . S
H4188 C4206 0.951 . S
H4189 C4208 0.951 . S
H4190 C4210 0.950 . S
H4191 C4211 0.950 . S
H4192 C4213 0.950 . S
H4193 C4216 0.950 . S
H4194 C4217 0.950 . S
H4195 C4219 0.950 . S
H4196 C4220 0.950 . S
H4197 C4221 0.951 . S
H4198 C4223 0.951 . S
H4199 C4225 0.950 . S
H4200 C4226 0.950 . S
H4201 C4228 0.950 . S
H4202 C4231 0.950 . S
H4203 C4232 0.950 . S
H4204 C4234 0.950 . S
H4205 C4235 0.950 . S
C4206 H4188 0.951 . S
C4206 C4207 1.366 . S
C4206 C4208 1.388 . S
C4207 C4206 1.366 . S
C4207 C4211 1.385 . S
C4208 H4189 0.951 . S
C4208 C4206 1.388 . S
C4208 C4209 1.366 . S
C4209 C4208 1.366 . S
C4209 C4210 1.414 . S
C4209 C4212 1.499 . S
C4210 H4190 0.950 . S
C4210 C4209 1.414 . S
C4210 C4211 1.374 . S
C4211 H4191 0.950 . S
C4211 C4207 1.385 . S
C4211 C4210 1.374 . S
C4212 C4209 1.499 . S
C4212 C4213 1.373 . S
C4212 C4214 1.389 . S
C4213 H4192 0.950 . S
C4213 C4212 1.373 . S
C4213 C4229 1.377 . S
C4214 C4212 1.389 . S
C4214 C4215 1.524 . S
C4214 C4228 1.377 . S
C4215 C4214 1.524 . S
C4215 C4216 1.397 . S
C4215 C4220 1.363 . S
C4216 H4193 0.950 . S
C4216 C4215 1.397 . S
C4216 C4217 1.334 . S
C4217 H4194 0.950 . S
C4217 C4216 1.334 . S
C4217 C4218 1.287 . S
C4218 C4217 1.287 . S
C4218 C4219 1.524 . S
C4218 H4237 0.913 . S
C4219 H4195 0.950 . S
C4219 C4218 1.524 . S
C4219 C4220 1.415 . S
C4220 H4196 0.950 . S
C4220 C4215 1.363 . S
C4220 C4219 1.415 . S
C4221 H4197 0.951 . S
C4221 C4222 1.366 . S
C4221 C4223 1.388 . S
C4222 C4221 1.366 . S
C4222 C4226 1.385 . S
C4223 H4198 0.951 . S
C4223 C4221 1.388 . S
C4223 C4224 1.366 . S
C4224 C4223 1.366 . S
C4224 C4225 1.414 . S
C4224 C4227 1.499 . S
C4225 H4199 0.950 . S
C4225 C4224 1.414 . S
C4225 C4226 1.374 . S
C4226 H4200 0.950 . S
C4226 C4222 1.385 . S
C4226 C4225 1.374 . S
C4227 C4224 1.499 . S
C4227 C4228 1.373 . S
C4227 C4229 1.389 . S
C4228 H4201 0.950 . S
C4228 C4214 1.377 . S
C4228 C4227 1.373 . S
C4229 C4213 1.377 . S
C4229 C4227 1.389 . S
C4229 C4230 1.524 . S
C4230 C4229 1.524 . S
C4230 C4231 1.397 . S
C4230 C4235 1.363 . S
C4231 H4202 0.950 . S
C4231 C4230 1.397 . S
C4231 C4232 1.334 . S
C4232 H4203 0.950 . S
C4232 C4231 1.334 . S
C4232 C4233 1.287 . S
C4233 C4232 1.287 . S
C4233 C4234 1.524 . S
C4233 H4236 0.999 . S
C4234 H4204 0.950 . S
C4234 C4233 1.524 . S
C4234 C4235 1.415 . S
C4235 H4205 0.950 . S
C4235 C4230 1.363 . S
C4235 C4234 1.415 . S
H4236 C4233 0.999 . S
H4237 C4218 0.913 . S
H4238 C4256 0.951 . S
H4239 C4258 0.951 . S
H4240 C4260 0.950 . S
H4241 C4261 0.950 . S
H4242 C4263 0.950 . S
H4243 C4266 0.950 . S
H4244 C4267 0.950 . S
H4245 C4269 0.950 . S
H4246 C4270 0.950 . S
H4247 C4271 0.951 . S
H4248 C4273 0.951 . S
H4249 C4275 0.950 . S
H4250 C4276 0.950 . S
H4251 C4278 0.950 . S
H4252 C4281 0.950 . S
H4253 C4282 0.950 . S
H4254 C4284 0.950 . S
H4255 C4285 0.950 . S
C4256 H4238 0.951 . S
C4256 C4257 1.366 . S
C4256 C4258 1.388 . S
C4257 C4256 1.366 . S
C4257 C4261 1.385 . S
C4258 H4239 0.951 . S
C4258 C4256 1.388 . S
C4258 C4259 1.366 . S
C4259 C4258 1.366 . S
C4259 C4260 1.414 . S
C4259 C4262 1.499 . S
C4260 H4240 0.950 . S
C4260 C4259 1.414 . S
C4260 C4261 1.374 . S
C4261 H4241 0.950 . S
C4261 C4257 1.385 . S
C4261 C4260 1.374 . S
C4262 C4259 1.499 . S
C4262 C4263 1.373 . S
C4262 C4264 1.389 . S
C4263 H4242 0.950 . S
C4263 C4262 1.373 . S
C4263 C4279 1.377 . S
C4264 C4262 1.389 . S
C4264 C4265 1.524 . S
C4264 C4278 1.377 . S
C4265 C4264 1.524 . S
C4265 C4266 1.397 . S
C4265 C4270 1.363 . S
C4266 H4243 0.950 . S
C4266 C4265 1.397 . S
C4266 C4267 1.334 . S
C4267 H4244 0.950 . S
C4267 C4266 1.334 . S
C4267 C4268 1.287 . S
C4268 C4267 1.287 . S
C4268 C4269 1.524 . S
C4268 H4287 0.913 . S
C4269 H4245 0.950 . S
C4269 C4268 1.524 . S
C4269 C4270 1.415 . S
C4270 H4246 0.950 . S
C4270 C4265 1.363 . S
C4270 C4269 1.415 . S
C4271 H4247 0.951 . S
C4271 C4272 1.366 . S
C4271 C4273 1.388 . S
C4272 C4271 1.366 . S
C4272 C4276 1.385 . S
C4273 H4248 0.951 . S
C4273 C4271 1.388 . S
C4273 C4274 1.366 . S
C4274 C4273 1.366 . S
C4274 C4275 1.414 . S
C4274 C4277 1.499 . S
C4275 H4249 0.950 . S
C4275 C4274 1.414 . S
C4275 C4276 1.374 . S
C4276 H4250 0.950 . S
C4276 C4272 1.385 . S
C4276 C4275 1.374 . S
C4277 C4274 1.499 . S
C4277 C4278 1.373 . S
C4277 C4279 1.389 . S
C4278 H4251 0.950 . S
C4278 C4264 1.377 . S
C4278 C4277 1.373 . S
C4279 C4263 1.377 . S
C4279 C4277 1.389 . S
C4279 C4280 1.524 . S
C4280 C4279 1.524 . S
C4280 C4281 1.397 . S
C4280 C4285 1.363 . S
C4281 H4252 0.950 . S
C4281 C4280 1.397 . S
C4281 C4282 1.334 . S
C4282 H4253 0.950 . S
C4282 C4281 1.334 . S
C4282 C4283 1.287 . S
C4283 C4282 1.287 . S
C4283 C4284 1.524 . S
C4283 H4286 0.999 . S
C4284 H4254 0.950 . S
C4284 C4283 1.524 . S
C4284 C4285 1.415 . S
C4285 H4255 0.950 . S
C4285 C4280 1.363 . S
C4285 C4284 1.415 . S
H4286 C4283 0.999 . S
H4287 C4268 0.913 . S
H4288 C4306 0.951 . S
H4289 C4308 0.951 . S
H4290 C4310 0.950 . S
H4291 C4311 0.950 . S
H4292 C4313 0.950 . S
H4293 C4316 0.950 . S
H4294 C4317 0.950 . S
H4295 C4319 0.950 . S
H4296 C4320 0.950 . S
H4297 C4321 0.951 . S
H4298 C4323 0.951 . S
H4299 C4325 0.950 . S
H4300 C4326 0.950 . S
H4301 C4328 0.950 . S
H4302 C4331 0.950 . S
H4303 C4332 0.950 . S
H4304 C4334 0.950 . S
H4305 C4335 0.950 . S
C4306 H4288 0.951 . S
C4306 C4307 1.366 . S
C4306 C4308 1.388 . S
C4307 C4306 1.366 . S
C4307 C4311 1.385 . S
C4308 H4289 0.951 . S
C4308 C4306 1.388 . S
C4308 C4309 1.366 . S
C4309 C4308 1.366 . S
C4309 C4310 1.414 . S
C4309 C4312 1.499 . S
C4310 H4290 0.950 . S
C4310 C4309 1.414 . S
C4310 C4311 1.374 . S
C4311 H4291 0.950 . S
C4311 C4307 1.385 . S
C4311 C4310 1.374 . S
C4312 C4309 1.499 . S
C4312 C4313 1.373 . S
C4312 C4314 1.389 . S
C4313 H4292 0.950 . S
C4313 C4312 1.373 . S
C4313 C4329 1.377 . S
C4314 C4312 1.389 . S
C4314 C4315 1.524 . S
C4314 C4328 1.377 . S
C4315 C4314 1.524 . S
C4315 C4316 1.397 . S
C4315 C4320 1.363 . S
C4316 H4293 0.950 . S
C4316 C4315 1.397 . S
C4316 C4317 1.334 . S
C4317 H4294 0.950 . S
C4317 C4316 1.334 . S
C4317 C4318 1.287 . S
C4318 C4317 1.287 . S
C4318 C4319 1.524 . S
C4318 H4337 0.913 . S
C4319 H4295 0.950 . S
C4319 C4318 1.524 . S
C4319 C4320 1.415 . S
C4320 H4296 0.950 . S
C4320 C4315 1.363 . S
C4320 C4319 1.415 . S
C4321 H4297 0.951 . S
C4321 C4322 1.366 . S
C4321 C4323 1.388 . S
C4322 C4321 1.366 . S
C4322 C4326 1.385 . S
C4323 H4298 0.951 . S
C4323 C4321 1.388 . S
C4323 C4324 1.366 . S
C4324 C4323 1.366 . S
C4324 C4325 1.414 . S
C4324 C4327 1.499 . S
C4325 H4299 0.950 . S
C4325 C4324 1.414 . S
C4325 C4326 1.374 . S
C4326 H4300 0.950 . S
C4326 C4322 1.385 . S
C4326 C4325 1.374 . S
C4327 C4324 1.499 . S
C4327 C4328 1.373 . S
C4327 C4329 1.389 . S
C4328 H4301 0.950 . S
C4328 C4314 1.377 . S
C4328 C4327 1.373 . S
C4329 C4313 1.377 . S
C4329 C4327 1.389 . S
C4329 C4330 1.524 . S
C4330 C4329 1.524 . S
C4330 C4331 1.397 . S
C4330 C4335 1.363 . S
C4331 H4302 0.950 . S
C4331 C4330 1.397 . S
C4331 C4332 1.334 . S
C4332 H4303 0.950 . S
C4332 C4331 1.334 . S
C4332 C4333 1.287 . S
C4333 C4332 1.287 . S
C4333 C4334 1.524 . S
C4333 H4336 0.999 . S
C4334 H4304 0.950 . S
C4334 C4333 1.524 . S
C4334 C4335 1.415 . S
C4335 H4305 0.950 . S
C4335 C4330 1.363 . S
C4335 C4334 1.415 . S
H4336 C4333 0.999 . S
H4337 C4318 0.913 . S
H4338 C4356 0.951 . S
H4339 C4358 0.951 . S
H4340 C4360 0.950 . S
H4341 C4361 0.950 . S
H4342 C4363 0.950 . S
H4343 C4366 0.950 . S
H4344 C4367 0.950 . S
H4345 C4369 0.950 . S
H4346 C4370 0.950 . S
H4347 C4371 0.951 . S
H4348 C4373 0.951 . S
H4349 C4375 0.950 . S
H4350 C4376 0.950 . S
H4351 C4378 0.950 . S
H4352 C4381 0.950 . S
H4353 C4382 0.950 . S
H4354 C4384 0.950 . S
H4355 C4385 0.950 . S
C4356 H4338 0.951 . S
C4356 C4357 1.366 . S
C4356 C4358 1.388 . S
C4357 C4356 1.366 . S
C4357 C4361 1.385 . S
C4358 H4339 0.951 . S
C4358 C4356 1.388 . S
C4358 C4359 1.366 . S
C4359 C4358 1.366 . S
C4359 C4360 1.414 . S
C4359 C4362 1.499 . S
C4360 H4340 0.950 . S
C4360 C4359 1.414 . S
C4360 C4361 1.374 . S
C4361 H4341 0.950 . S
C4361 C4357 1.385 . S
C4361 C4360 1.374 . S
C4362 C4359 1.499 . S
C4362 C4363 1.373 . S
C4362 C4364 1.389 . S
C4363 H4342 0.950 . S
C4363 C4362 1.373 . S
C4363 C4379 1.377 . S
C4364 C4362 1.389 . S
C4364 C4365 1.524 . S
C4364 C4378 1.377 . S
C4365 C4364 1.524 . S
C4365 C4366 1.397 . S
C4365 C4370 1.363 . S
C4366 H4343 0.950 . S
C4366 C4365 1.397 . S
C4366 C4367 1.334 . S
C4367 H4344 0.950 . S
C4367 C4366 1.334 . S
C4367 C4368 1.287 . S
C4368 C4367 1.287 . S
C4368 C4369 1.524 . S
C4368 H4387 0.913 . S
C4369 H4345 0.950 . S
C4369 C4368 1.524 . S
C4369 C4370 1.415 . S
C4370 H4346 0.950 . S
C4370 C4365 1.363 . S
C4370 C4369 1.415 . S
C4371 H4347 0.951 . S
C4371 C4372 1.366 . S
C4371 C4373 1.388 . S
C4372 C4371 1.366 . S
C4372 C4376 1.385 . S
C4373 H4348 0.951 . S
C4373 C4371 1.388 . S
C4373 C4374 1.366 . S
C4374 C4373 1.366 . S
C4374 C4375 1.414 . S
C4374 C4377 1.499 1_655 S
C4375 H4349 0.950 . S
C4375 C4374 1.414 . S
C4375 C4376 1.374 . S
C4376 H4350 0.950 . S
C4376 C4372 1.385 . S
C4376 C4375 1.374 . S
C4377 C4374 1.499 1_455 S
C4377 C4378 1.373 . S
C4377 C4379 1.389 . S
C4378 H4351 0.950 . S
C4378 C4364 1.377 . S
C4378 C4377 1.373 . S
C4379 C4363 1.377 . S
C4379 C4377 1.389 . S
C4379 C4380 1.524 . S
C4380 C4379 1.524 . S
C4380 C4381 1.397 . S
C4380 C4385 1.363 . S
C4381 H4352 0.950 . S
C4381 C4380 1.397 . S
C4381 C4382 1.334 . S
C4382 H4353 0.950 . S
C4382 C4381 1.334 . S
C4382 C4383 1.287 . S
C4383 C4382 1.287 . S
C4383 C4384 1.524 . S
C4383 H4386 0.999 . S
C4384 H4354 0.950 . S
C4384 C4383 1.524 . S
C4384 C4385 1.415 . S
C4385 H4355 0.950 . S
C4385 C4380 1.363 . S
C4385 C4384 1.415 . S
H4386 C4383 0.999 . S
H4387 C4368 0.913 . S
H4388 C4406 0.951 . S
H4389 C4408 0.951 . S
H4390 C4410 0.950 . S
H4391 C4411 0.950 . S
H4392 C4413 0.950 . S
H4393 C4416 0.950 . S
H4394 C4417 0.950 . S
H4395 C4419 0.950 . S
H4396 C4420 0.950 . S
H4397 C4421 0.951 . S
H4398 C4423 0.951 . S
H4399 C4425 0.950 . S
H4400 C4426 0.950 . S
H4401 C4428 0.950 . S
H4402 C4431 0.950 . S
H4403 C4432 0.950 . S
H4404 C4434 0.950 . S
H4405 C4435 0.950 . S
C4406 H4388 0.951 . S
C4406 C4407 1.366 . S
C4406 C4408 1.388 . S
C4407 C4406 1.366 . S
C4407 C4411 1.385 . S
C4408 H4389 0.951 . S
C4408 C4406 1.388 . S
C4408 C4409 1.366 . S
C4409 C4408 1.366 . S
C4409 C4410 1.414 . S
C4409 C4412 1.499 . S
C4410 H4390 0.950 . S
C4410 C4409 1.414 . S
C4410 C4411 1.374 . S
C4411 H4391 0.950 . S
C4411 C4407 1.385 . S
C4411 C4410 1.374 . S
C4412 C4409 1.499 . S
C4412 C4413 1.373 . S
C4412 C4414 1.389 . S
C4413 H4392 0.950 . S
C4413 C4412 1.373 . S
C4413 C4429 1.377 . S
C4414 C4412 1.389 . S
C4414 C4415 1.524 . S
C4414 C4428 1.377 . S
C4415 C4414 1.524 . S
C4415 C4416 1.397 . S
C4415 C4420 1.363 . S
C4416 H4393 0.950 . S
C4416 C4415 1.397 . S
C4416 C4417 1.334 . S
C4417 H4394 0.950 . S
C4417 C4416 1.334 . S
C4417 C4418 1.287 . S
C4418 C4417 1.287 . S
C4418 C4419 1.524 . S
C4418 H4437 0.913 . S
C4419 H4395 0.950 . S
C4419 C4418 1.524 . S
C4419 C4420 1.415 . S
C4420 H4396 0.950 . S
C4420 C4415 1.363 . S
C4420 C4419 1.415 . S
C4421 H4397 0.951 . S
C4421 C4422 1.366 . S
C4421 C4423 1.388 . S
C4422 C4421 1.366 . S
C4422 C4426 1.385 . S
C4423 H4398 0.951 . S
C4423 C4421 1.388 . S
C4423 C4424 1.366 . S
C4424 C4423 1.366 . S
C4424 C4425 1.414 . S
C4424 C4427 1.499 . S
C4425 H4399 0.950 . S
C4425 C4424 1.414 . S
C4425 C4426 1.374 . S
C4426 H4400 0.950 . S
C4426 C4422 1.385 . S
C4426 C4425 1.374 . S
C4427 C4424 1.499 . S
C4427 C4428 1.373 . S
C4427 C4429 1.389 . S
C4428 H4401 0.950 . S
C4428 C4414 1.377 . S
C4428 C4427 1.373 . S
C4429 C4413 1.377 . S
C4429 C4427 1.389 . S
C4429 C4430 1.524 . S
C4430 C4429 1.524 . S
C4430 C4431 1.397 . S
C4430 C4435 1.363 . S
C4431 H4402 0.950 . S
C4431 C4430 1.397 . S
C4431 C4432 1.334 . S
C4432 H4403 0.950 . S
C4432 C4431 1.334 . S
C4432 C4433 1.287 . S
C4433 C4432 1.287 . S
C4433 C4434 1.524 . S
C4433 H4436 0.999 . S
C4434 H4404 0.950 . S
C4434 C4433 1.524 . S
C4434 C4435 1.415 . S
C4435 H4405 0.950 . S
C4435 C4430 1.363 . S
C4435 C4434 1.415 . S
H4436 C4433 0.999 . S
H4437 C4418 0.913 . S
H4438 C4456 0.951 . S
H4439 C4458 0.951 . S
H4440 C4460 0.950 . S
H4441 C4461 0.950 . S
H4442 C4463 0.950 . S
H4443 C4466 0.950 . S
H4444 C4467 0.950 . S
H4445 C4469 0.950 . S
H4446 C4470 0.950 . S
H4447 C4471 0.951 . S
H4448 C4473 0.951 . S
H4449 C4475 0.950 . S
H4450 C4476 0.950 . S
H4451 C4478 0.950 . S
H4452 C4481 0.950 . S
H4453 C4482 0.950 . S
H4454 C4484 0.950 . S
H4455 C4485 0.950 . S
C4456 H4438 0.951 . S
C4456 C4457 1.366 . S
C4456 C4458 1.388 . S
C4457 C4456 1.366 . S
C4457 C4461 1.385 . S
C4458 H4439 0.951 . S
C4458 C4456 1.388 . S
C4458 C4459 1.366 . S
C4459 C4458 1.366 . S
C4459 C4460 1.414 . S
C4459 C4462 1.499 . S
C4460 H4440 0.950 . S
C4460 C4459 1.414 . S
C4460 C4461 1.374 . S
C4461 H4441 0.950 . S
C4461 C4457 1.385 . S
C4461 C4460 1.374 . S
C4462 C4459 1.499 . S
C4462 C4463 1.373 . S
C4462 C4464 1.389 . S
C4463 H4442 0.950 . S
C4463 C4462 1.373 . S
C4463 C4479 1.377 . S
C4464 C4462 1.389 . S
C4464 C4465 1.524 . S
C4464 C4478 1.377 . S
C4465 C4464 1.524 . S
C4465 C4466 1.397 . S
C4465 C4470 1.363 . S
C4466 H4443 0.950 . S
C4466 C4465 1.397 . S
C4466 C4467 1.334 . S
C4467 H4444 0.950 . S
C4467 C4466 1.334 . S
C4467 C4468 1.287 . S
C4468 C4467 1.287 . S
C4468 C4469 1.524 . S
C4468 H4487 0.913 . S
C4469 H4445 0.950 . S
C4469 C4468 1.524 . S
C4469 C4470 1.415 . S
C4470 H4446 0.950 . S
C4470 C4465 1.363 . S
C4470 C4469 1.415 . S
C4471 H4447 0.951 . S
C4471 C4472 1.366 . S
C4471 C4473 1.388 . S
C4472 C4471 1.366 . S
C4472 C4476 1.385 . S
C4473 H4448 0.951 . S
C4473 C4471 1.388 . S
C4473 C4474 1.366 . S
C4474 C4473 1.366 . S
C4474 C4475 1.414 . S
C4474 C4477 1.499 . S
C4475 H4449 0.950 . S
C4475 C4474 1.414 . S
C4475 C4476 1.374 . S
C4476 H4450 0.950 . S
C4476 C4472 1.385 . S
C4476 C4475 1.374 . S
C4477 C4474 1.499 . S
C4477 C4478 1.373 . S
C4477 C4479 1.389 . S
C4478 H4451 0.950 . S
C4478 C4464 1.377 . S
C4478 C4477 1.373 . S
C4479 C4463 1.377 . S
C4479 C4477 1.389 . S
C4479 C4480 1.524 . S
C4480 C4479 1.524 . S
C4480 C4481 1.397 . S
C4480 C4485 1.363 . S
C4481 H4452 0.950 . S
C4481 C4480 1.397 . S
C4481 C4482 1.334 . S
C4482 H4453 0.950 . S
C4482 C4481 1.334 . S
C4482 C4483 1.287 . S
C4483 C4482 1.287 . S
C4483 C4484 1.524 . S
C4483 H4486 0.999 . S
C4484 H4454 0.950 . S
C4484 C4483 1.524 . S
C4484 C4485 1.415 . S
C4485 H4455 0.950 . S
C4485 C4480 1.363 . S
C4485 C4484 1.415 . S
H4486 C4483 0.999 . S
H4487 C4468 0.913 . S
H4488 C4506 0.951 . S
H4489 C4508 0.951 . S
H4490 C4510 0.950 . S
H4491 C4511 0.950 . S
H4492 C4513 0.950 . S
H4493 C4516 0.950 . S
H4494 C4517 0.950 . S
H4495 C4519 0.950 . S
H4496 C4520 0.950 . S
H4497 C4521 0.951 . S
H4498 C4523 0.951 . S
H4499 C4525 0.950 . S
H4500 C4526 0.950 . S
H4501 C4528 0.950 . S
H4502 C4531 0.950 . S
H4503 C4532 0.950 . S
H4504 C4534 0.950 . S
H4505 C4535 0.950 . S
C4506 H4488 0.951 . S
C4506 C4507 1.366 . S
C4506 C4508 1.388 . S
C4507 C4506 1.366 . S
C4507 C4511 1.385 . S
C4508 H4489 0.951 . S
C4508 C4506 1.388 . S
C4508 C4509 1.366 . S
C4509 C4508 1.366 . S
C4509 C4510 1.414 . S
C4509 C4512 1.499 . S
C4510 H4490 0.950 . S
C4510 C4509 1.414 . S
C4510 C4511 1.374 . S
C4511 H4491 0.950 . S
C4511 C4507 1.385 . S
C4511 C4510 1.374 . S
C4512 C4509 1.499 . S
C4512 C4513 1.373 . S
C4512 C4514 1.389 . S
C4513 H4492 0.950 . S
C4513 C4512 1.373 . S
C4513 C4529 1.377 . S
C4514 C4512 1.389 . S
C4514 C4515 1.524 . S
C4514 C4528 1.377 . S
C4515 C4514 1.524 . S
C4515 C4516 1.397 . S
C4515 C4520 1.363 . S
C4516 H4493 0.950 . S
C4516 C4515 1.397 . S
C4516 C4517 1.334 . S
C4517 H4494 0.950 . S
C4517 C4516 1.334 . S
C4517 C4518 1.287 . S
C4518 C4517 1.287 . S
C4518 C4519 1.524 . S
C4518 H4537 0.913 . S
C4519 H4495 0.950 . S
C4519 C4518 1.524 . S
C4519 C4520 1.415 . S
C4520 H4496 0.950 . S
C4520 C4515 1.363 . S
C4520 C4519 1.415 . S
C4521 H4497 0.951 . S
C4521 C4522 1.366 . S
C4521 C4523 1.388 . S
C4522 C4521 1.366 . S
C4522 C4526 1.385 . S
C4523 H4498 0.951 . S
C4523 C4521 1.388 . S
C4523 C4524 1.366 . S
C4524 C4523 1.366 . S
C4524 C4525 1.414 . S
C4524 C4527 1.499 . S
C4525 H4499 0.950 . S
C4525 C4524 1.414 . S
C4525 C4526 1.374 . S
C4526 H4500 0.950 . S
C4526 C4522 1.385 . S
C4526 C4525 1.374 . S
C4527 C4524 1.499 . S
C4527 C4528 1.373 . S
C4527 C4529 1.389 . S
C4528 H4501 0.950 . S
C4528 C4514 1.377 . S
C4528 C4527 1.373 . S
C4529 C4513 1.377 . S
C4529 C4527 1.389 . S
C4529 C4530 1.524 . S
C4530 C4529 1.524 . S
C4530 C4531 1.397 . S
C4530 C4535 1.363 . S
C4531 H4502 0.950 . S
C4531 C4530 1.397 . S
C4531 C4532 1.334 . S
C4532 H4503 0.950 . S
C4532 C4531 1.334 . S
C4532 C4533 1.287 . S
C4533 C4532 1.287 . S
C4533 C4534 1.524 . S
C4533 H4536 0.999 . S
C4534 H4504 0.950 . S
C4534 C4533 1.524 . S
C4534 C4535 1.415 . S
C4535 H4505 0.950 . S
C4535 C4530 1.363 . S
C4535 C4534 1.415 . S
H4536 C4533 0.999 . S
H4537 C4518 0.913 . S
H4538 C4556 0.951 . S
H4539 C4558 0.951 . S
H4540 C4560 0.950 . S
H4541 C4561 0.950 . S
H4542 C4563 0.950 . S
H4543 C4566 0.950 . S
H4544 C4567 0.950 . S
H4545 C4569 0.950 . S
H4546 C4570 0.950 . S
H4547 C4571 0.951 . S
H4548 C4573 0.951 . S
H4549 C4575 0.950 . S
H4550 C4576 0.950 . S
H4551 C4578 0.950 . S
H4552 C4581 0.950 . S
H4553 C4582 0.950 . S
H4554 C4584 0.950 . S
H4555 C4585 0.950 . S
C4556 H4538 0.951 . S
C4556 C4557 1.366 . S
C4556 C4558 1.388 . S
C4557 C4556 1.366 . S
C4557 C4561 1.385 . S
C4558 H4539 0.951 . S
C4558 C4556 1.388 . S
C4558 C4559 1.366 . S
C4559 C4558 1.366 . S
C4559 C4560 1.414 . S
C4559 C4562 1.499 . S
C4560 H4540 0.950 . S
C4560 C4559 1.414 . S
C4560 C4561 1.374 . S
C4561 H4541 0.950 . S
C4561 C4557 1.385 . S
C4561 C4560 1.374 . S
C4562 C4559 1.499 . S
C4562 C4563 1.373 . S
C4562 C4564 1.389 . S
C4563 H4542 0.950 . S
C4563 C4562 1.373 . S
C4563 C4579 1.377 . S
C4564 C4562 1.389 . S
C4564 C4565 1.524 . S
C4564 C4578 1.377 . S
C4565 C4564 1.524 . S
C4565 C4566 1.397 . S
C4565 C4570 1.363 . S
C4566 H4543 0.950 . S
C4566 C4565 1.397 . S
C4566 C4567 1.334 . S
C4567 H4544 0.950 . S
C4567 C4566 1.334 . S
C4567 C4568 1.287 . S
C4568 C4567 1.287 . S
C4568 C4569 1.524 . S
C4568 H4587 0.913 . S
C4569 H4545 0.950 . S
C4569 C4568 1.524 . S
C4569 C4570 1.415 . S
C4570 H4546 0.950 . S
C4570 C4565 1.363 . S
C4570 C4569 1.415 . S
C4571 H4547 0.951 . S
C4571 C4572 1.366 . S
C4571 C4573 1.388 . S
C4572 C4571 1.366 . S
C4572 C4576 1.385 . S
C4573 H4548 0.951 . S
C4573 C4571 1.388 . S
C4573 C4574 1.366 . S
C4574 C4573 1.366 . S
C4574 C4575 1.414 . S
C4574 C4577 1.499 . S
C4575 H4549 0.950 . S
C4575 C4574 1.414 . S
C4575 C4576 1.374 . S
C4576 H4550 0.950 . S
C4576 C4572 1.385 . S
C4576 C4575 1.374 . S
C4577 C4574 1.499 . S
C4577 C4578 1.373 . S
C4577 C4579 1.389 . S
C4578 H4551 0.950 . S
C4578 C4564 1.377 . S
C4578 C4577 1.373 . S
C4579 C4563 1.377 . S
C4579 C4577 1.389 . S
C4579 C4580 1.524 . S
C4580 C4579 1.524 . S
C4580 C4581 1.397 . S
C4580 C4585 1.363 . S
C4581 H4552 0.950 . S
C4581 C4580 1.397 . S
C4581 C4582 1.334 . S
C4582 H4553 0.950 . S
C4582 C4581 1.334 . S
C4582 C4583 1.287 . S
C4583 C4582 1.287 . S
C4583 C4584 1.524 . S
C4583 H4586 0.999 . S
C4584 H4554 0.950 . S
C4584 C4583 1.524 . S
C4584 C4585 1.415 . S
C4585 H4555 0.950 . S
C4585 C4580 1.363 . S
C4585 C4584 1.415 . S
H4586 C4583 0.999 . S
H4587 C4568 0.913 . S
H4588 C4606 0.951 . S
H4589 C4608 0.951 . S
H4590 C4610 0.950 . S
H4591 C4611 0.950 . S
H4592 C4613 0.950 . S
H4593 C4616 0.950 . S
H4594 C4617 0.950 . S
H4595 C4619 0.950 . S
H4596 C4620 0.950 . S
H4597 C4621 0.951 . S
H4598 C4623 0.951 . S
H4599 C4625 0.950 . S
H4600 C4626 0.950 . S
H4601 C4628 0.950 . S
H4602 C4631 0.950 . S
H4603 C4632 0.950 . S
H4604 C4634 0.950 . S
H4605 C4635 0.950 . S
C4606 H4588 0.951 . S
C4606 C4607 1.366 . S
C4606 C4608 1.388 . S
C4607 C4606 1.366 . S
C4607 C4611 1.385 . S
C4608 H4589 0.951 . S
C4608 C4606 1.388 . S
C4608 C4609 1.366 . S
C4609 C4608 1.366 . S
C4609 C4610 1.414 . S
C4609 C4612 1.499 . S
C4610 H4590 0.950 . S
C4610 C4609 1.414 . S
C4610 C4611 1.374 . S
C4611 H4591 0.950 . S
C4611 C4607 1.385 . S
C4611 C4610 1.374 . S
C4612 C4609 1.499 . S
C4612 C4613 1.373 . S
C4612 C4614 1.389 . S
C4613 H4592 0.950 . S
C4613 C4612 1.373 . S
C4613 C4629 1.377 . S
C4614 C4612 1.389 . S
C4614 C4615 1.524 . S
C4614 C4628 1.377 . S
C4615 C4614 1.524 . S
C4615 C4616 1.397 . S
C4615 C4620 1.363 . S
C4616 H4593 0.950 . S
C4616 C4615 1.397 . S
C4616 C4617 1.334 . S
C4617 H4594 0.950 . S
C4617 C4616 1.334 . S
C4617 C4618 1.287 . S
C4618 C4617 1.287 . S
C4618 C4619 1.524 . S
C4618 H4637 0.913 . S
C4619 H4595 0.950 . S
C4619 C4618 1.524 . S
C4619 C4620 1.415 . S
C4620 H4596 0.950 . S
C4620 C4615 1.363 . S
C4620 C4619 1.415 . S
C4621 H4597 0.951 . S
C4621 C4622 1.366 . S
C4621 C4623 1.388 . S
C4622 C4621 1.366 . S
C4622 C4626 1.385 . S
C4623 H4598 0.951 . S
C4623 C4621 1.388 . S
C4623 C4624 1.366 . S
C4624 C4623 1.366 . S
C4624 C4625 1.414 . S
C4624 C4627 1.499 . S
C4625 H4599 0.950 . S
C4625 C4624 1.414 . S
C4625 C4626 1.374 . S
C4626 H4600 0.950 . S
C4626 C4622 1.385 . S
C4626 C4625 1.374 . S
C4627 C4624 1.499 . S
C4627 C4628 1.373 . S
C4627 C4629 1.389 . S
C4628 H4601 0.950 . S
C4628 C4614 1.377 . S
C4628 C4627 1.373 . S
C4629 C4613 1.377 . S
C4629 C4627 1.389 . S
C4629 C4630 1.524 . S
C4630 C4629 1.524 . S
C4630 C4631 1.397 . S
C4630 C4635 1.363 . S
C4631 H4602 0.950 . S
C4631 C4630 1.397 . S
C4631 C4632 1.334 . S
C4632 H4603 0.950 . S
C4632 C4631 1.334 . S
C4632 C4633 1.287 . S
C4633 C4632 1.287 . S
C4633 C4634 1.524 . S
C4633 H4636 0.999 . S
C4634 H4604 0.950 . S
C4634 C4633 1.524 . S
C4634 C4635 1.415 . S
C4635 H4605 0.950 . S
C4635 C4630 1.363 . S
C4635 C4634 1.415 . S
H4636 C4633 0.999 . S
H4637 C4618 0.913 . S
H4638 C4656 0.951 . S
H4639 C4658 0.951 . S
H4640 C4660 0.950 . S
H4641 C4661 0.950 . S
H4642 C4663 0.950 . S
H4643 C4666 0.950 . S
H4644 C4667 0.950 . S
H4645 C4669 0.950 . S
H4646 C4670 0.950 . S
H4647 C4671 0.951 . S
H4648 C4673 0.951 . S
H4649 C4675 0.983 . S
H4650 C4676 0.950 . S
H4651 C4678 0.950 . S
H4652 C4681 0.950 . S
H4653 C4682 0.950 . S
H4654 C4684 0.950 . S
H4655 C4685 0.950 . S
C4656 H4638 0.951 . S
C4656 C4657 1.366 . S
C4656 C4658 1.388 . S
C4657 C4656 1.366 . S
C4657 C4661 1.385 . S
C4658 H4639 0.951 . S
C4658 C4656 1.388 . S
C4658 C4659 1.366 . S
C4659 C4658 1.366 . S
C4659 C4660 1.414 . S
C4659 C4662 1.499 . S
C4660 H4640 0.950 . S
C4660 C4659 1.414 . S
C4660 C4661 1.374 . S
C4661 H4641 0.950 . S
C4661 C4657 1.385 . S
C4661 C4660 1.374 . S
C4662 C4659 1.499 . S
C4662 C4663 1.373 . S
C4662 C4664 1.389 . S
C4663 H4642 0.950 . S
C4663 C4662 1.373 . S
C4663 C4679 1.377 . S
C4664 C4662 1.389 . S
C4664 C4665 1.524 . S
C4664 C4678 1.377 . S
C4665 C4664 1.524 . S
C4665 C4666 1.397 . S
C4665 C4670 1.363 . S
C4666 H4643 0.950 . S
C4666 C4665 1.397 . S
C4666 C4667 1.334 . S
C4667 H4644 0.950 . S
C4667 C4666 1.334 . S
C4667 C4668 1.287 . S
C4668 C4667 1.287 . S
C4668 C4669 1.524 . S
C4668 H4687 0.913 . S
C4669 H4645 0.950 . S
C4669 C4668 1.524 . S
C4669 C4670 1.415 . S
C4670 H4646 0.950 . S
C4670 C4665 1.363 . S
C4670 C4669 1.415 . S
C4671 H4647 0.951 . S
C4671 C4672 1.366 . S
C4671 C4673 1.388 . S
C4672 C4671 1.366 . S
C4672 C4676 1.385 . S
C4673 H4648 0.951 . S
C4673 C4671 1.388 . S
C4673 C4674 1.366 . S
C4674 C4673 1.366 . S
C4674 C4675 1.414 . S
C4674 C4677 1.499 1_655 S
C4675 H4649 0.983 . S
C4675 C4674 1.414 . S
C4675 C4676 1.374 . S
C4676 H4650 0.950 . S
C4676 C4672 1.385 . S
C4676 C4675 1.374 . S
C4677 C4674 1.499 1_455 S
C4677 C4678 1.373 . S
C4677 C4679 1.389 . S
C4678 H4651 0.950 . S
C4678 C4664 1.377 . S
C4678 C4677 1.373 . S
C4679 C4663 1.377 . S
C4679 C4677 1.389 . S
C4679 C4680 1.524 . S
C4680 C4679 1.524 . S
C4680 C4681 1.397 . S
C4680 C4685 1.363 . S
C4681 H4652 0.950 . S
C4681 C4680 1.397 . S
C4681 C4682 1.334 . S
C4682 H4653 0.950 . S
C4682 C4681 1.334 . S
C4682 C4683 1.287 . S
C4683 C4682 1.287 . S
C4683 C4684 1.524 . S
C4683 H4686 0.999 . S
C4684 H4654 0.950 . S
C4684 C4683 1.524 . S
C4684 C4685 1.415 . S
C4685 H4655 0.950 . S
C4685 C4680 1.363 . S
C4685 C4684 1.415 . S
H4686 C4683 0.999 . S
H4687 C4668 0.913 . S
H4688 C4706 0.951 . S
H4689 C4708 0.951 . S
H4690 C4710 0.950 . S
H4691 C4711 0.950 . S
H4692 C4713 0.950 . S
H4693 C4716 0.950 . S
H4694 C4717 0.950 . S
H4695 C4719 0.950 . S
H4696 C4720 0.950 . S
H4697 C4721 0.951 . S
H4698 C4723 0.951 . S
H4699 C4725 0.950 . S
H4700 C4726 0.950 . S
H4701 C4728 0.950 . S
H4702 C4731 0.950 . S
H4703 C4732 0.950 . S
H4704 C4734 0.950 . S
H4705 C4735 0.950 . S
C4706 H4688 0.951 . S
C4706 C4707 1.366 . S
C4706 C4708 1.388 . S
C4707 C4706 1.366 . S
C4707 C4711 1.385 . S
C4708 H4689 0.951 . S
C4708 C4706 1.388 . S
C4708 C4709 1.366 . S
C4709 C4708 1.366 . S
C4709 C4710 1.414 . S
C4709 C4712 1.499 . S
C4710 H4690 0.950 . S
C4710 C4709 1.414 . S
C4710 C4711 1.374 . S
C4711 H4691 0.950 . S
C4711 C4707 1.385 . S
C4711 C4710 1.374 . S
C4712 C4709 1.499 . S
C4712 C4713 1.373 . S
C4712 C4714 1.389 . S
C4713 H4692 0.950 . S
C4713 C4712 1.373 . S
C4713 C4729 1.377 . S
C4714 C4712 1.389 . S
C4714 C4715 1.524 . S
C4714 C4728 1.377 . S
C4715 C4714 1.524 . S
C4715 C4716 1.397 . S
C4715 C4720 1.363 . S
C4716 H4693 0.950 . S
C4716 C4715 1.397 . S
C4716 C4717 1.334 . S
C4717 H4694 0.950 . S
C4717 C4716 1.334 . S
C4717 C4718 1.287 . S
C4718 C4717 1.287 . S
C4718 C4719 1.524 . S
C4718 H4737 0.913 . S
C4719 H4695 0.950 . S
C4719 C4718 1.524 . S
C4719 C4720 1.415 . S
C4720 H4696 0.950 . S
C4720 C4715 1.363 . S
C4720 C4719 1.415 . S
C4721 H4697 0.951 . S
C4721 C4722 1.366 . S
C4721 C4723 1.388 . S
C4722 C4721 1.366 . S
C4722 C4726 1.385 . S
C4723 H4698 0.951 . S
C4723 C4721 1.388 . S
C4723 C4724 1.366 . S
C4724 C4723 1.366 . S
C4724 C4725 1.414 . S
C4724 C4727 1.499 . S
C4725 H4699 0.950 . S
C4725 C4724 1.414 . S
C4725 C4726 1.374 . S
C4726 H4700 0.950 . S
C4726 C4722 1.385 . S
C4726 C4725 1.374 . S
C4727 C4724 1.499 . S
C4727 C4728 1.373 . S
C4727 C4729 1.389 . S
C4728 H4701 0.950 . S
C4728 C4714 1.377 . S
C4728 C4727 1.373 . S
C4729 C4713 1.377 . S
C4729 C4727 1.389 . S
C4729 C4730 1.524 . S
C4730 C4729 1.524 . S
C4730 C4731 1.397 . S
C4730 C4735 1.363 . S
C4731 H4702 0.950 . S
C4731 C4730 1.397 . S
C4731 C4732 1.334 . S
C4732 H4703 0.950 . S
C4732 C4731 1.334 . S
C4732 C4733 1.287 . S
C4733 C4732 1.287 . S
C4733 C4734 1.524 . S
C4733 H4736 0.999 . S
C4734 H4704 0.950 . S
C4734 C4733 1.524 . S
C4734 C4735 1.415 . S
C4735 H4705 0.950 . S
C4735 C4730 1.363 . S
C4735 C4734 1.415 . S
H4736 C4733 0.999 . S
H4737 C4718 0.913 . S
H4738 C4756 0.951 . S
H4739 C4758 0.951 . S
H4740 C4760 0.950 . S
H4741 C4761 0.950 . S
H4742 C4763 0.950 . S
H4743 C4766 0.950 . S
H4744 C4767 0.950 . S
H4745 C4769 0.950 . S
H4746 C4770 0.950 . S
H4747 C4771 0.951 . S
H4748 C4773 0.951 . S
H4749 C4775 0.950 . S
H4750 C4776 0.950 . S
H4751 C4778 0.950 . S
H4752 C4781 0.950 . S
H4753 C4782 0.950 . S
H4754 C4784 0.950 . S
H4755 C4785 0.950 . S
C4756 H4738 0.951 . S
C4756 C4757 1.366 . S
C4756 C4758 1.388 . S
C4757 C4756 1.366 . S
C4757 C4761 1.385 . S
C4758 H4739 0.951 . S
C4758 C4756 1.388 . S
C4758 C4759 1.366 . S
C4759 C4758 1.366 . S
C4759 C4760 1.414 . S
C4759 C4762 1.499 1_455 S
C4760 H4740 0.950 . S
C4760 C4759 1.414 . S
C4760 C4761 1.374 . S
C4761 H4741 0.950 . S
C4761 C4757 1.385 . S
C4761 C4760 1.374 . S
C4762 C4759 1.499 1_655 S
C4762 C4763 1.373 . S
C4762 C4764 1.389 . S
C4763 H4742 0.950 . S
C4763 C4762 1.373 . S
C4763 C4779 1.377 . S
C4764 C4762 1.389 . S
C4764 C4765 1.524 . S
C4764 C4778 1.377 . S
C4765 C4764 1.524 . S
C4765 C4766 1.397 . S
C4765 C4770 1.363 . S
C4766 H4743 0.950 . S
C4766 C4765 1.397 . S
C4766 C4767 1.334 . S
C4767 H4744 0.950 . S
C4767 C4766 1.334 . S
C4767 C4768 1.287 . S
C4768 C4767 1.287 . S
C4768 C4769 1.524 . S
C4768 H4787 0.913 . S
C4769 H4745 0.950 . S
C4769 C4768 1.524 . S
C4769 C4770 1.415 . S
C4770 H4746 0.950 . S
C4770 C4765 1.363 . S
C4770 C4769 1.415 . S
C4771 H4747 0.951 . S
C4771 C4772 1.366 . S
C4771 C4773 1.388 . S
C4772 C4771 1.366 . S
C4772 C4776 1.385 . S
C4773 H4748 0.951 . S
C4773 C4771 1.388 . S
C4773 C4774 1.366 . S
C4774 C4773 1.366 . S
C4774 C4775 1.414 . S
C4774 C4777 1.499 . S
C4775 H4749 0.950 . S
C4775 C4774 1.414 . S
C4775 C4776 1.374 . S
C4776 H4750 0.950 . S
C4776 C4772 1.385 . S
C4776 C4775 1.374 . S
C4777 C4774 1.499 . S
C4777 C4778 1.373 . S
C4777 C4779 1.389 . S
C4778 H4751 0.950 . S
C4778 C4764 1.377 . S
C4778 C4777 1.373 . S
C4779 C4763 1.377 . S
C4779 C4777 1.389 . S
C4779 C4780 1.524 . S
C4780 C4779 1.524 . S
C4780 C4781 1.397 . S
C4780 C4785 1.363 . S
C4781 H4752 0.950 . S
C4781 C4780 1.397 . S
C4781 C4782 1.334 . S
C4782 H4753 0.950 . S
C4782 C4781 1.334 . S
C4782 C4783 1.287 . S
C4783 C4782 1.287 . S
C4783 C4784 1.524 . S
C4783 H4786 0.999 . S
C4784 H4754 0.950 . S
C4784 C4783 1.524 . S
C4784 C4785 1.415 . S
C4785 H4755 0.950 . S
C4785 C4780 1.363 . S
C4785 C4784 1.415 . S
H4786 C4783 0.999 . S
H4787 C4768 0.913 . S
H4788 C4806 0.951 . S
H4789 C4808 0.951 . S
H4790 C4810 0.950 . S
H4791 C4811 0.950 . S
H4792 C4813 0.950 . S
H4793 C4816 0.950 . S
H4794 C4817 0.950 . S
H4795 C4819 0.950 . S
H4796 C4820 0.950 . S
H4797 C4821 0.951 . S
H4798 C4823 0.951 . S
H4799 C4825 0.950 . S
H4800 C4826 0.950 . S
H4801 C4828 0.950 . S
H4802 C4831 0.950 . S
H4803 C4832 0.950 . S
H4804 C4834 0.950 . S
H4805 C4835 0.950 . S
C4806 H4788 0.951 . S
C4806 C4807 1.366 . S
C4806 C4808 1.388 . S
C4807 C4806 1.366 . S
C4807 C4811 1.385 . S
C4808 H4789 0.951 . S
C4808 C4806 1.388 . S
C4808 C4809 1.366 . S
C4809 C4808 1.366 . S
C4809 C4810 1.414 . S
C4809 C4812 1.499 . S
C4810 H4790 0.950 . S
C4810 C4809 1.414 . S
C4810 C4811 1.374 . S
C4811 H4791 0.950 . S
C4811 C4807 1.385 . S
C4811 C4810 1.374 . S
C4812 C4809 1.499 . S
C4812 C4813 1.373 . S
C4812 C4814 1.389 . S
C4813 H4792 0.950 . S
C4813 C4812 1.373 . S
C4813 C4829 1.377 . S
C4814 C4812 1.389 . S
C4814 C4815 1.524 . S
C4814 C4828 1.377 . S
C4815 C4814 1.524 . S
C4815 C4816 1.397 . S
C4815 C4820 1.363 . S
C4816 H4793 0.950 . S
C4816 C4815 1.397 . S
C4816 C4817 1.334 . S
C4817 H4794 0.950 . S
C4817 C4816 1.334 . S
C4817 C4818 1.287 . S
C4818 C4817 1.287 . S
C4818 C4819 1.524 . S
C4818 H4837 0.913 . S
C4819 H4795 0.950 . S
C4819 C4818 1.524 . S
C4819 C4820 1.415 . S
C4820 H4796 0.950 . S
C4820 C4815 1.363 . S
C4820 C4819 1.415 . S
C4821 H4797 0.951 . S
C4821 C4822 1.366 . S
C4821 C4823 1.388 . S
C4822 C4821 1.366 . S
C4822 C4826 1.385 . S
C4823 H4798 0.951 . S
C4823 C4821 1.388 . S
C4823 C4824 1.366 . S
C4824 C4823 1.366 . S
C4824 C4825 1.414 . S
C4824 C4827 1.499 . S
C4825 H4799 0.950 . S
C4825 C4824 1.414 . S
C4825 C4826 1.374 . S
C4826 H4800 0.950 . S
C4826 C4822 1.385 . S
C4826 C4825 1.374 . S
C4827 C4824 1.499 . S
C4827 C4828 1.373 . S
C4827 C4829 1.389 . S
C4828 H4801 0.950 . S
C4828 C4814 1.377 . S
C4828 C4827 1.373 . S
C4829 C4813 1.377 . S
C4829 C4827 1.389 . S
C4829 C4830 1.524 . S
C4830 C4829 1.524 . S
C4830 C4831 1.397 . S
C4830 C4835 1.363 . S
C4831 H4802 0.950 . S
C4831 C4830 1.397 . S
C4831 C4832 1.334 . S
C4832 H4803 0.950 . S
C4832 C4831 1.334 . S
C4832 C4833 1.287 . S
C4833 C4832 1.287 . S
C4833 C4834 1.524 . S
C4833 H4836 0.999 . S
C4834 H4804 0.950 . S
C4834 C4833 1.524 . S
C4834 C4835 1.415 . S
C4835 H4805 0.950 . S
C4835 C4830 1.363 . S
C4835 C4834 1.415 . S
H4836 C4833 0.999 . S
H4837 C4818 0.913 . S
H4838 C4856 0.951 . S
H4839 C4858 0.951 . S
H4840 C4860 0.950 . S
H4841 C4861 0.950 . S
H4842 C4863 0.950 . S
H4843 C4866 0.950 . S
H4844 C4867 0.950 . S
H4845 C4869 0.950 . S
H4846 C4870 0.950 . S
H4847 C4871 0.951 . S
H4848 C4873 0.951 . S
H4849 C4875 0.950 . S
H4850 C4876 0.950 . S
H4851 C4878 0.950 . S
H4852 C4881 0.950 . S
H4853 C4882 0.950 . S
H4854 C4884 0.950 . S
H4855 C4885 0.950 . S
C4856 H4838 0.951 . S
C4856 C4857 1.366 . S
C4856 C4858 1.388 . S
C4857 C4856 1.366 . S
C4857 C4861 1.385 . S
C4858 H4839 0.951 . S
C4858 C4856 1.388 . S
C4858 C4859 1.366 . S
C4859 C4858 1.366 . S
C4859 C4860 1.414 . S
C4859 C4862 1.499 . S
C4860 H4840 0.950 . S
C4860 C4859 1.414 . S
C4860 C4861 1.374 . S
C4861 H4841 0.950 . S
C4861 C4857 1.385 . S
C4861 C4860 1.374 . S
C4862 C4859 1.499 . S
C4862 C4863 1.373 . S
C4862 C4864 1.389 . S
C4863 H4842 0.950 . S
C4863 C4862 1.373 . S
C4863 C4879 1.377 . S
C4864 C4862 1.389 . S
C4864 C4865 1.524 . S
C4864 C4878 1.377 . S
C4865 C4864 1.524 . S
C4865 C4866 1.397 . S
C4865 C4870 1.363 . S
C4866 H4843 0.950 . S
C4866 C4865 1.397 . S
C4866 C4867 1.334 . S
C4867 H4844 0.950 . S
C4867 C4866 1.334 . S
C4867 C4868 1.287 . S
C4868 C4867 1.287 . S
C4868 C4869 1.524 . S
C4868 H4887 0.913 . S
C4869 H4845 0.950 . S
C4869 C4868 1.524 . S
C4869 C4870 1.415 . S
C4870 H4846 0.950 . S
C4870 C4865 1.363 . S
C4870 C4869 1.415 . S
C4871 H4847 0.951 . S
C4871 C4872 1.366 . S
C4871 C4873 1.388 . S
C4872 C4871 1.366 . S
C4872 C4876 1.385 . S
C4873 H4848 0.951 . S
C4873 C4871 1.388 . S
C4873 C4874 1.366 . S
C4874 C4873 1.366 . S
C4874 C4875 1.414 . S
C4874 C4877 1.499 . S
C4875 H4849 0.950 . S
C4875 C4874 1.414 . S
C4875 C4876 1.374 . S
C4876 H4850 0.950 . S
C4876 C4872 1.385 . S
C4876 C4875 1.374 . S
C4877 C4874 1.499 . S
C4877 C4878 1.373 . S
C4877 C4879 1.389 . S
C4878 H4851 0.950 . S
C4878 C4864 1.377 . S
C4878 C4877 1.373 . S
C4879 C4863 1.377 . S
C4879 C4877 1.389 . S
C4879 C4880 1.524 . S
C4880 C4879 1.524 . S
C4880 C4881 1.397 . S
C4880 C4885 1.363 . S
C4881 H4852 0.950 . S
C4881 C4880 1.397 . S
C4881 C4882 1.334 . S
C4882 H4853 0.950 . S
C4882 C4881 1.334 . S
C4882 C4883 1.287 . S
C4883 C4882 1.287 . S
C4883 C4884 1.524 . S
C4883 H4886 0.999 . S
C4884 H4854 0.950 . S
C4884 C4883 1.524 . S
C4884 C4885 1.415 . S
C4885 H4855 0.950 . S
C4885 C4880 1.363 . S
C4885 C4884 1.415 . S
H4886 C4883 0.999 . S
H4887 C4868 0.913 . S
H4888 C4906 0.951 . S
H4889 C4908 0.951 . S
H4890 C4910 0.950 . S
H4891 C4911 0.950 . S
H4892 C4913 0.950 . S
H4893 C4916 0.950 . S
H4894 C4917 0.950 . S
H4895 C4919 0.950 . S
H4896 C4920 0.950 . S
H4897 C4921 0.951 . S
H4898 C4923 0.951 . S
H4899 C4925 0.950 . S
H4900 C4926 0.950 . S
H4901 C4928 0.950 . S
H4902 C4931 0.950 . S
H4903 C4932 0.950 . S
H4904 C4934 0.950 . S
H4905 C4935 0.950 . S
C4906 H4888 0.951 . S
C4906 C4907 1.366 . S
C4906 C4908 1.388 . S
C4907 C4906 1.366 . S
C4907 C4911 1.385 . S
C4908 H4889 0.951 . S
C4908 C4906 1.388 . S
C4908 C4909 1.366 . S
C4909 C4908 1.366 . S
C4909 C4910 1.414 . S
C4909 C4912 1.499 . S
C4910 H4890 0.950 . S
C4910 C4909 1.414 . S
C4910 C4911 1.374 . S
C4911 H4891 0.950 . S
C4911 C4907 1.385 . S
C4911 C4910 1.374 . S
C4912 C4909 1.499 . S
C4912 C4913 1.373 . S
C4912 C4914 1.389 . S
C4913 H4892 0.950 . S
C4913 C4912 1.373 . S
C4913 C4929 1.377 . S
C4914 C4912 1.389 . S
C4914 C4915 1.524 . S
C4914 C4928 1.377 . S
C4915 C4914 1.524 . S
C4915 C4916 1.397 . S
C4915 C4920 1.363 . S
C4916 H4893 0.950 . S
C4916 C4915 1.397 . S
C4916 C4917 1.334 . S
C4917 H4894 0.950 . S
C4917 C4916 1.334 . S
C4917 C4918 1.287 . S
C4918 C4917 1.287 . S
C4918 C4919 1.524 . S
C4918 H4937 0.913 . S
C4919 H4895 0.950 . S
C4919 C4918 1.524 . S
C4919 C4920 1.415 . S
C4920 H4896 0.950 . S
C4920 C4915 1.363 . S
C4920 C4919 1.415 . S
C4921 H4897 0.951 . S
C4921 C4922 1.366 . S
C4921 C4923 1.388 . S
C4922 C4921 1.366 . S
C4922 C4926 1.385 . S
C4923 H4898 0.951 . S
C4923 C4921 1.388 . S
C4923 C4924 1.366 . S
C4924 C4923 1.366 . S
C4924 C4925 1.414 . S
C4924 C4927 1.499 . S
C4925 H4899 0.950 . S
C4925 C4924 1.414 . S
C4925 C4926 1.374 . S
C4926 H4900 0.950 . S
C4926 C4922 1.385 . S
C4926 C4925 1.374 . S
C4927 C4924 1.499 . S
C4927 C4928 1.373 . S
C4927 C4929 1.389 . S
C4928 H4901 0.950 . S
C4928 C4914 1.377 . S
C4928 C4927 1.373 . S
C4929 C4913 1.377 . S
C4929 C4927 1.389 . S
C4929 C4930 1.524 . S
C4930 C4929 1.524 . S
C4930 C4931 1.397 . S
C4930 C4935 1.363 . S
C4931 H4902 0.950 . S
C4931 C4930 1.397 . S
C4931 C4932 1.334 . S
C4932 H4903 0.950 . S
C4932 C4931 1.334 . S
C4932 C4933 1.287 . S
C4933 C4932 1.287 . S
C4933 C4934 1.524 . S
C4933 H4936 0.999 . S
C4934 H4904 0.950 . S
C4934 C4933 1.524 . S
C4934 C4935 1.415 . S
C4935 H4905 0.950 . S
C4935 C4930 1.363 . S
C4935 C4934 1.415 . S
H4936 C4933 0.999 . S
H4937 C4918 0.913 . S
H4938 C4956 0.951 . S
H4939 C4958 0.951 . S
H4940 C4960 0.950 . S
H4941 C4961 0.950 . S
H4942 C4963 0.950 . S
H4943 C4966 0.950 . S
H4944 C4967 0.950 . S
H4945 C4969 0.950 . S
H4946 C4970 0.950 . S
H4947 C4971 0.951 . S
H4948 C4973 0.951 . S
H4949 C4975 0.950 . S
H4950 C4976 0.950 . S
H4951 C4978 0.950 . S
H4952 C4981 0.950 . S
H4953 C4982 0.950 . S
H4954 C4984 0.950 . S
H4955 C4985 0.950 . S
C4956 H4938 0.951 . S
C4956 C4957 1.366 . S
C4956 C4958 1.388 . S
C4957 C4956 1.366 . S
C4957 C4961 1.385 . S
C4958 H4939 0.951 . S
C4958 C4956 1.388 . S
C4958 C4959 1.366 . S
C4959 C4958 1.366 . S
C4959 C4960 1.414 . S
C4959 C4962 1.499 . S
C4960 H4940 0.950 . S
C4960 C4959 1.414 . S
C4960 C4961 1.374 . S
C4961 H4941 0.950 . S
C4961 C4957 1.385 . S
C4961 C4960 1.374 . S
C4962 C4959 1.499 . S
C4962 C4963 1.373 . S
C4962 C4964 1.389 . S
C4963 H4942 0.950 . S
C4963 C4962 1.373 . S
C4963 C4979 1.377 . S
C4964 C4962 1.389 . S
C4964 C4965 1.524 . S
C4964 C4978 1.377 . S
C4965 C4964 1.524 . S
C4965 C4966 1.397 . S
C4965 C4970 1.363 . S
C4966 H4943 0.950 . S
C4966 C4965 1.397 . S
C4966 C4967 1.334 . S
C4967 H4944 0.950 . S
C4967 C4966 1.334 . S
C4967 C4968 1.287 . S
C4968 C4967 1.287 . S
C4968 C4969 1.524 . S
C4968 H4987 0.913 . S
C4969 H4945 0.950 . S
C4969 C4968 1.524 . S
C4969 C4970 1.415 . S
C4970 H4946 0.950 . S
C4970 C4965 1.363 . S
C4970 C4969 1.415 . S
C4971 H4947 0.951 . S
C4971 C4972 1.366 . S
C4971 C4973 1.388 . S
C4972 C4971 1.366 . S
C4972 C4976 1.385 . S
C4973 H4948 0.951 . S
C4973 C4971 1.388 . S
C4973 C4974 1.366 . S
C4974 C4973 1.366 . S
C4974 C4975 1.414 . S
C4974 C4977 1.499 . S
C4975 H4949 0.950 . S
C4975 C4974 1.414 . S
C4975 C4976 1.374 . S
C4976 H4950 0.950 . S
C4976 C4972 1.385 . S
C4976 C4975 1.374 . S
C4977 C4974 1.499 . S
C4977 C4978 1.373 . S
C4977 C4979 1.389 . S
C4978 H4951 0.950 . S
C4978 C4964 1.377 . S
C4978 C4977 1.373 . S
C4979 C4963 1.377 . S
C4979 C4977 1.389 . S
C4979 C4980 1.524 . S
C4980 C4979 1.524 . S
C4980 C4981 1.397 . S
C4980 C4985 1.363 . S
C4981 H4952 0.950 . S
C4981 C4980 1.397 . S
C4981 C4982 1.334 . S
C4982 H4953 0.950 . S
C4982 C4981 1.334 . S
C4982 C4983 1.287 . S
C4983 C4982 1.287 . S
C4983 C4984 1.524 . S
C4983 H4986 0.999 . S
C4984 H4954 0.950 . S
C4984 C4983 1.524 . S
C4984 C4985 1.415 . S
C4985 H4955 0.950 . S
C4985 C4980 1.363 . S
C4985 C4984 1.415 . S
H4986 C4983 0.999 . S
H4987 C4968 0.913 . S
H4988 C5006 0.951 . S
H4989 C5008 0.951 . S
H4990 C5010 0.950 . S
H4991 C5011 0.950 . S
H4992 C5013 0.950 . S
H4993 C5016 0.950 . S
H4994 C5017 0.950 . S
H4995 C5019 0.950 . S
H4996 C5020 0.950 . S
H4997 C5021 0.951 . S
H4998 C5023 0.951 . S
H4999 C5025 0.950 . S
H5000 C5026 0.950 . S
H5001 C5028 0.950 . S
H5002 C5031 0.950 . S
H5003 C5032 0.950 . S
H5004 C5034 0.950 . S
H5005 C5035 0.950 . S
C5006 H4988 0.951 . S
C5006 C5007 1.366 . S
C5006 C5008 1.388 . S
C5007 C5006 1.366 . S
C5007 C5011 1.385 . S
C5008 H4989 0.951 . S
C5008 C5006 1.388 . S
C5008 C5009 1.366 . S
C5009 C5008 1.366 . S
C5009 C5010 1.414 . S
C5009 C5012 1.499 . S
C5010 H4990 0.950 . S
C5010 C5009 1.414 . S
C5010 C5011 1.374 . S
C5011 H4991 0.950 . S
C5011 C5007 1.385 . S
C5011 C5010 1.374 . S
C5012 C5009 1.499 . S
C5012 C5013 1.373 . S
C5012 C5014 1.389 . S
C5013 H4992 0.950 . S
C5013 C5012 1.373 . S
C5013 C5029 1.377 . S
C5014 C5012 1.389 . S
C5014 C5015 1.524 . S
C5014 C5028 1.377 . S
C5015 C5014 1.524 . S
C5015 C5016 1.397 . S
C5015 C5020 1.363 . S
C5016 H4993 0.950 . S
C5016 C5015 1.397 . S
C5016 C5017 1.334 . S
C5017 H4994 0.950 . S
C5017 C5016 1.334 . S
C5017 C5018 1.287 . S
C5018 C5017 1.287 . S
C5018 C5019 1.524 . S
C5018 H5037 0.913 . S
C5019 H4995 0.950 . S
C5019 C5018 1.524 . S
C5019 C5020 1.415 . S
C5020 H4996 0.950 . S
C5020 C5015 1.363 . S
C5020 C5019 1.415 . S
C5021 H4997 0.951 . S
C5021 C5022 1.366 . S
C5021 C5023 1.388 . S
C5022 C5021 1.366 . S
C5022 C5026 1.385 . S
C5023 H4998 0.951 . S
C5023 C5021 1.388 . S
C5023 C5024 1.366 . S
C5024 C5023 1.366 . S
C5024 C5025 1.414 . S
C5024 C5027 1.499 . S
C5025 H4999 0.950 . S
C5025 C5024 1.414 . S
C5025 C5026 1.374 . S
C5026 H5000 0.950 . S
C5026 C5022 1.385 . S
C5026 C5025 1.374 . S
C5027 C5024 1.499 . S
C5027 C5028 1.373 . S
C5027 C5029 1.389 . S
C5028 H5001 0.950 . S
C5028 C5014 1.377 . S
C5028 C5027 1.373 . S
C5029 C5013 1.377 . S
C5029 C5027 1.389 . S
C5029 C5030 1.524 . S
C5030 C5029 1.524 . S
C5030 C5031 1.397 . S
C5030 C5035 1.363 . S
C5031 H5002 0.950 . S
C5031 C5030 1.397 . S
C5031 C5032 1.334 . S
C5032 H5003 0.950 . S
C5032 C5031 1.334 . S
C5032 C5033 1.287 . S
C5033 C5032 1.287 . S
C5033 C5034 1.524 . S
C5033 H5036 0.999 . S
C5034 H5004 0.950 . S
C5034 C5033 1.524 . S
C5034 C5035 1.415 . S
C5035 H5005 0.950 . S
C5035 C5030 1.363 . S
C5035 C5034 1.415 . S
H5036 C5033 0.999 . S
H5037 C5018 0.913 . S
H5038 C5056 0.951 . S
H5039 C5058 0.951 . S
H5040 C5060 0.950 . S
H5041 C5061 0.950 . S
H5042 C5063 0.950 . S
H5043 C5066 0.950 . S
H5044 C5067 0.950 . S
H5045 C5069 0.950 . S
H5046 C5070 0.950 . S
H5047 C5071 0.951 . S
H5048 C5073 0.951 1_655 S
H5049 C5075 0.950 . S
H5050 C5076 0.950 . S
H5051 C5078 0.950 . S
H5052 C5081 0.932 1_455 S
H5053 C5082 0.950 . S
H5054 C5084 0.950 . S
H5055 C5085 0.950 . S
C5056 H5038 0.951 . S
C5056 C5057 1.366 . S
C5056 C5058 1.388 . S
C5057 C5056 1.366 . S
C5057 C5061 1.385 . S
C5058 H5039 0.951 . S
C5058 C5056 1.388 . S
C5058 C5059 1.366 . S
C5059 C5058 1.366 . S
C5059 C5060 1.414 . S
C5059 C5062 1.499 . S
C5060 H5040 0.950 . S
C5060 C5059 1.414 . S
C5060 C5061 1.374 . S
C5061 H5041 0.950 . S
C5061 C5057 1.385 . S
C5061 C5060 1.374 . S
C5062 C5059 1.499 . S
C5062 C5063 1.373 . S
C5062 C5064 1.389 . S
C5063 H5042 0.950 . S
C5063 C5062 1.373 . S
C5063 C5079 1.377 . S
C5064 C5062 1.389 . S
C5064 C5065 1.524 . S
C5064 C5078 1.377 . S
C5065 C5064 1.524 . S
C5065 C5066 1.397 . S
C5065 C5070 1.363 . S
C5066 H5043 0.950 . S
C5066 C5065 1.397 . S
C5066 C5067 1.334 . S
C5067 H5044 0.950 . S
C5067 C5066 1.334 . S
C5067 C5068 1.287 . S
C5068 C5067 1.287 . S
C5068 C5069 1.524 . S
C5068 H5087 0.913 . S
C5069 H5045 0.950 . S
C5069 C5068 1.524 . S
C5069 C5070 1.415 . S
C5070 H5046 0.950 . S
C5070 C5065 1.363 . S
C5070 C5069 1.415 . S
C5071 H5047 0.951 . S
C5071 C5072 1.366 . S
C5071 C5073 1.388 . S
C5072 C5071 1.366 . S
C5072 C5076 1.385 . S
C5073 H5048 0.951 1_455 S
C5073 C5071 1.388 . S
C5073 C5074 1.366 . S
C5074 C5073 1.366 . S
C5074 C5075 1.414 . S
C5074 C5077 1.499 1_455 S
C5075 H5049 0.950 . S
C5075 C5074 1.414 . S
C5075 C5076 1.374 . S
C5076 H5050 0.950 . S
C5076 C5072 1.385 . S
C5076 C5075 1.374 . S
C5077 C5074 1.499 1_655 S
C5077 C5078 1.373 . S
C5077 C5079 1.389 . S
C5078 H5051 0.950 . S
C5078 C5064 1.377 . S
C5078 C5077 1.373 . S
C5079 C5063 1.377 . S
C5079 C5077 1.389 . S
C5079 C5080 1.524 . S
C5080 C5079 1.524 . S
C5080 C5081 1.424 . S
C5080 C5085 1.363 . S
C5081 H5052 0.932 1_655 S
C5081 C5080 1.424 . S
C5081 C5082 1.325 1_655 S
C5082 H5053 0.950 . S
C5082 C5081 1.325 1_455 S
C5082 C5083 1.287 1_455 S
C5083 C5082 1.287 1_655 S
C5083 C5084 1.524 . S
C5083 H5086 0.999 . S
C5084 H5054 0.950 . S
C5084 C5083 1.524 . S
C5084 C5085 1.415 . S
C5085 H5055 0.950 . S
C5085 C5080 1.363 . S
C5085 C5084 1.415 . S
H5086 C5083 0.999 . S
H5087 C5068 0.913 . S
H5088 C5106 0.951 . S
H5089 C5108 0.951 . S
H5090 C5110 0.950 . S
H5091 C5111 0.950 . S
H5092 C5113 0.950 . S
H5093 C5116 0.950 . S
H5094 C5117 0.950 . S
H5095 C5119 0.950 . S
H5096 C5120 0.950 . S
H5097 C5121 0.951 . S
H5098 C5123 0.951 . S
H5099 C5125 0.950 . S
H5100 C5126 0.950 . S
H5101 C5128 0.950 . S
H5102 C5131 0.950 . S
H5103 C5132 0.950 . S
H5104 C5134 0.950 . S
H5105 C5135 0.950 . S
C5106 H5088 0.951 . S
C5106 C5107 1.366 . S
C5106 C5108 1.388 . S
C5107 C5106 1.366 . S
C5107 C5111 1.385 . S
C5108 H5089 0.951 . S
C5108 C5106 1.388 . S
C5108 C5109 1.366 . S
C5109 C5108 1.366 . S
C5109 C5110 1.414 . S
C5109 C5112 1.499 . S
C5110 H5090 0.950 . S
C5110 C5109 1.414 . S
C5110 C5111 1.374 . S
C5111 H5091 0.950 . S
C5111 C5107 1.385 . S
C5111 C5110 1.374 . S
C5112 C5109 1.499 . S
C5112 C5113 1.373 . S
C5112 C5114 1.389 . S
C5113 H5092 0.950 . S
C5113 C5112 1.373 . S
C5113 C5129 1.377 . S
C5114 C5112 1.389 . S
C5114 C5115 1.524 . S
C5114 C5128 1.377 . S
C5115 C5114 1.524 . S
C5115 C5116 1.397 . S
C5115 C5120 1.363 . S
C5116 H5093 0.950 . S
C5116 C5115 1.397 . S
C5116 C5117 1.334 . S
C5117 H5094 0.950 . S
C5117 C5116 1.334 . S
C5117 C5118 1.287 . S
C5118 C5117 1.287 . S
C5118 C5119 1.524 . S
C5118 H5137 0.913 . S
C5119 H5095 0.950 . S
C5119 C5118 1.524 . S
C5119 C5120 1.415 . S
C5120 H5096 0.950 . S
C5120 C5115 1.363 . S
C5120 C5119 1.415 . S
C5121 H5097 0.951 . S
C5121 C5122 1.366 . S
C5121 C5123 1.388 . S
C5122 C5121 1.366 . S
C5122 C5126 1.385 . S
C5123 H5098 0.951 . S
C5123 C5121 1.388 . S
C5123 C5124 1.366 . S
C5124 C5123 1.366 . S
C5124 C5125 1.414 . S
C5124 C5127 1.499 . S
C5125 H5099 0.950 . S
C5125 C5124 1.414 . S
C5125 C5126 1.374 . S
C5126 H5100 0.950 . S
C5126 C5122 1.385 . S
C5126 C5125 1.374 . S
C5127 C5124 1.499 . S
C5127 C5128 1.373 . S
C5127 C5129 1.389 . S
C5128 H5101 0.950 . S
C5128 C5114 1.377 . S
C5128 C5127 1.373 . S
C5129 C5113 1.377 . S
C5129 C5127 1.389 . S
C5129 C5130 1.524 . S
C5130 C5129 1.524 . S
C5130 C5131 1.397 . S
C5130 C5135 1.363 . S
C5131 H5102 0.950 . S
C5131 C5130 1.397 . S
C5131 C5132 1.334 . S
C5132 H5103 0.950 . S
C5132 C5131 1.334 . S
C5132 C5133 1.287 . S
C5133 C5132 1.287 . S
C5133 C5134 1.524 . S
C5133 H5136 0.999 . S
C5134 H5104 0.950 . S
C5134 C5133 1.524 . S
C5134 C5135 1.415 . S
C5135 H5105 0.950 . S
C5135 C5130 1.363 . S
C5135 C5134 1.415 . S
H5136 C5133 0.999 . S
H5137 C5118 0.913 . S
H5138 C5156 0.951 . S
H5139 C5158 0.951 . S
H5140 C5160 0.950 . S
H5141 C5161 0.950 . S
H5142 C5163 0.950 . S
H5143 C5166 0.950 . S
H5144 C5167 0.950 . S
H5145 C5169 0.950 . S
H5146 C5170 0.950 . S
H5147 C5171 0.951 . S
H5148 C5173 0.951 . S
H5149 C5175 0.950 . S
H5150 C5176 0.950 . S
H5151 C5178 0.950 . S
H5152 C5181 0.950 . S
H5153 C5182 0.950 . S
H5154 C5184 0.950 . S
H5155 C5185 0.950 . S
C5156 H5138 0.951 . S
C5156 C5157 1.366 . S
C5156 C5158 1.388 . S
C5157 C5156 1.366 . S
C5157 C5161 1.385 . S
C5158 H5139 0.951 . S
C5158 C5156 1.388 . S
C5158 C5159 1.366 . S
C5159 C5158 1.366 . S
C5159 C5160 1.414 . S
C5159 C5162 1.499 . S
C5160 H5140 0.950 . S
C5160 C5159 1.414 . S
C5160 C5161 1.374 . S
C5161 H5141 0.950 . S
C5161 C5157 1.385 . S
C5161 C5160 1.374 . S
C5162 C5159 1.499 . S
C5162 C5163 1.373 . S
C5162 C5164 1.389 . S
C5163 H5142 0.950 . S
C5163 C5162 1.373 . S
C5163 C5179 1.377 . S
C5164 C5162 1.389 . S
C5164 C5165 1.524 . S
C5164 C5178 1.377 . S
C5165 C5164 1.524 . S
C5165 C5166 1.397 . S
C5165 C5170 1.363 . S
C5166 H5143 0.950 . S
C5166 C5165 1.397 . S
C5166 C5167 1.334 . S
C5167 H5144 0.950 . S
C5167 C5166 1.334 . S
C5167 C5168 1.287 . S
C5168 C5167 1.287 . S
C5168 C5169 1.524 . S
C5168 H5187 0.913 . S
C5169 H5145 0.950 . S
C5169 C5168 1.524 . S
C5169 C5170 1.415 . S
C5170 H5146 0.950 . S
C5170 C5165 1.363 . S
C5170 C5169 1.415 . S
C5171 H5147 0.951 . S
C5171 C5172 1.366 . S
C5171 C5173 1.388 . S
C5172 C5171 1.366 . S
C5172 C5176 1.385 . S
C5173 H5148 0.951 . S
C5173 C5171 1.388 . S
C5173 C5174 1.366 . S
C5174 C5173 1.366 . S
C5174 C5175 1.414 . S
C5174 C5177 1.499 . S
C5175 H5149 0.950 . S
C5175 C5174 1.414 . S
C5175 C5176 1.374 . S
C5176 H5150 0.950 . S
C5176 C5172 1.385 . S
C5176 C5175 1.374 . S
C5177 C5174 1.499 . S
C5177 C5178 1.373 . S
C5177 C5179 1.389 . S
C5178 H5151 0.950 . S
C5178 C5164 1.377 . S
C5178 C5177 1.373 . S
C5179 C5163 1.377 . S
C5179 C5177 1.389 . S
C5179 C5180 1.524 . S
C5180 C5179 1.524 . S
C5180 C5181 1.397 . S
C5180 C5185 1.363 . S
C5181 H5152 0.950 . S
C5181 C5180 1.397 . S
C5181 C5182 1.334 . S
C5182 H5153 0.950 . S
C5182 C5181 1.334 . S
C5182 C5183 1.287 . S
C5183 C5182 1.287 . S
C5183 C5184 1.524 . S
C5183 H5186 0.999 . S
C5184 H5154 0.950 . S
C5184 C5183 1.524 . S
C5184 C5185 1.415 . S
C5185 H5155 0.950 . S
C5185 C5180 1.363 . S
C5185 C5184 1.415 . S
H5186 C5183 0.999 . S
H5187 C5168 0.913 . S
H5188 C5206 0.951 . S
H5189 C5208 0.951 . S
H5190 C5210 0.950 . S
H5191 C5211 0.950 . S
H5192 C5213 0.950 . S
H5193 C5216 0.950 . S
H5194 C5217 0.950 . S
H5195 C5219 0.950 . S
H5196 C5220 0.950 . S
H5197 C5221 0.951 . S
H5198 C5223 0.951 . S
H5199 C5225 0.950 . S
H5200 C5226 0.950 . S
H5201 C5228 0.950 . S
H5202 C5231 0.950 . S
H5203 C5232 0.950 . S
H5204 C5234 0.950 . S
H5205 C5235 0.950 . S
C5206 H5188 0.951 . S
C5206 C5207 1.366 . S
C5206 C5208 1.388 . S
C5207 C5206 1.366 . S
C5207 C5211 1.385 . S
C5208 H5189 0.951 . S
C5208 C5206 1.388 . S
C5208 C5209 1.366 . S
C5209 C5208 1.366 . S
C5209 C5210 1.414 . S
C5209 C5212 1.499 . S
C5210 H5190 0.950 . S
C5210 C5209 1.414 . S
C5210 C5211 1.374 . S
C5211 H5191 0.950 . S
C5211 C5207 1.385 . S
C5211 C5210 1.374 . S
C5212 C5209 1.499 . S
C5212 C5213 1.373 . S
C5212 C5214 1.389 . S
C5213 H5192 0.950 . S
C5213 C5212 1.373 . S
C5213 C5229 1.377 . S
C5214 C5212 1.389 . S
C5214 C5215 1.524 . S
C5214 C5228 1.377 . S
C5215 C5214 1.524 . S
C5215 C5216 1.397 . S
C5215 C5220 1.363 . S
C5216 H5193 0.950 . S
C5216 C5215 1.397 . S
C5216 C5217 1.334 . S
C5217 H5194 0.950 . S
C5217 C5216 1.334 . S
C5217 C5218 1.287 . S
C5218 C5217 1.287 . S
C5218 C5219 1.524 . S
C5218 H5237 0.913 . S
C5219 H5195 0.950 . S
C5219 C5218 1.524 . S
C5219 C5220 1.415 . S
C5220 H5196 0.950 . S
C5220 C5215 1.363 . S
C5220 C5219 1.415 . S
C5221 H5197 0.951 . S
C5221 C5222 1.366 . S
C5221 C5223 1.388 . S
C5222 C5221 1.366 . S
C5222 C5226 1.385 . S
C5223 H5198 0.951 . S
C5223 C5221 1.388 . S
C5223 C5224 1.366 . S
C5224 C5223 1.366 . S
C5224 C5225 1.414 . S
C5224 C5227 1.499 . S
C5225 H5199 0.950 . S
C5225 C5224 1.414 . S
C5225 C5226 1.374 . S
C5226 H5200 0.950 . S
C5226 C5222 1.385 . S
C5226 C5225 1.374 . S
C5227 C5224 1.499 . S
C5227 C5228 1.373 . S
C5227 C5229 1.389 . S
C5228 H5201 0.950 . S
C5228 C5214 1.377 . S
C5228 C5227 1.373 . S
C5229 C5213 1.377 . S
C5229 C5227 1.389 . S
C5229 C5230 1.524 . S
C5230 C5229 1.524 . S
C5230 C5231 1.397 . S
C5230 C5235 1.363 . S
C5231 H5202 0.950 . S
C5231 C5230 1.397 . S
C5231 C5232 1.334 . S
C5232 H5203 0.950 . S
C5232 C5231 1.334 . S
C5232 C5233 1.287 . S
C5233 C5232 1.287 . S
C5233 C5234 1.524 . S
C5233 H5236 0.999 . S
C5234 H5204 0.950 . S
C5234 C5233 1.524 . S
C5234 C5235 1.415 . S
C5235 H5205 0.950 . S
C5235 C5230 1.363 . S
C5235 C5234 1.415 . S
H5236 C5233 0.999 . S
H5237 C5218 0.913 . S
H5238 C5256 0.951 . S
H5239 C5258 0.951 . S
H5240 C5260 0.950 . S
H5241 C5261 0.950 . S
H5242 C5263 0.950 . S
H5243 C5266 0.950 . S
H5244 C5267 0.950 . S
H5245 C5269 0.950 . S
H5246 C5270 0.950 . S
H5247 C5271 0.951 . S
H5248 C5273 0.933 1_655 S
H5249 C5275 0.950 . S
H5250 C5276 0.950 . S
H5251 C5278 0.950 . S
H5252 C5281 0.950 . S
H5253 C5282 0.950 . S
H5254 C5284 0.950 . S
H5255 C5285 0.950 . S
C5256 H5238 0.951 . S
C5256 C5257 1.366 . S
C5256 C5258 1.388 . S
C5257 C5256 1.366 . S
C5257 C5261 1.385 . S
C5258 H5239 0.951 . S
C5258 C5256 1.388 . S
C5258 C5259 1.366 . S
C5259 C5258 1.366 . S
C5259 C5260 1.414 . S
C5259 C5262 1.499 . S
C5260 H5240 0.950 . S
C5260 C5259 1.414 . S
C5260 C5261 1.374 . S
C5261 H5241 0.950 . S
C5261 C5257 1.385 . S
C5261 C5260 1.374 . S
C5262 C5259 1.499 . S
C5262 C5263 1.373 . S
C5262 C5264 1.389 . S
C5263 H5242 0.950 . S
C5263 C5262 1.373 . S
C5263 C5279 1.377 . S
C5264 C5262 1.389 . S
C5264 C5265 1.524 . S
C5264 C5278 1.377 . S
C5265 C5264 1.524 . S
C5265 C5266 1.397 . S
C5265 C5270 1.363 . S
C5266 H5243 0.950 . S
C5266 C5265 1.397 . S
C5266 C5267 1.334 . S
C5267 H5244 0.950 . S
C5267 C5266 1.334 . S
C5267 C5268 1.287 . S
C5268 C5267 1.287 . S
C5268 C5269 1.524 . S
C5268 H5287 0.913 . S
C5269 H5245 0.950 . S
C5269 C5268 1.524 . S
C5269 C5270 1.415 . S
C5270 H5246 0.950 . S
C5270 C5265 1.363 . S
C5270 C5269 1.415 . S
C5271 H5247 0.951 . S
C5271 C5272 1.366 . S
C5271 C5273 1.388 . S
C5272 C5271 1.366 . S
C5272 C5276 1.385 . S
C5273 H5248 0.933 1_455 S
C5273 C5271 1.388 . S
C5273 C5274 1.366 . S
C5274 C5273 1.366 . S
C5274 C5275 1.414 . S
C5274 C5277 1.499 1_455 S
C5275 H5249 0.950 . S
C5275 C5274 1.414 . S
C5275 C5276 1.374 . S
C5276 H5250 0.950 . S
C5276 C5272 1.385 . S
C5276 C5275 1.374 . S
C5277 C5274 1.499 1_655 S
C5277 C5278 1.373 . S
C5277 C5279 1.389 . S
C5278 H5251 0.950 . S
C5278 C5264 1.377 . S
C5278 C5277 1.373 . S
C5279 C5263 1.377 . S
C5279 C5277 1.389 . S
C5279 C5280 1.524 . S
C5280 C5279 1.524 . S
C5280 C5281 1.397 1_655 S
C5280 C5285 1.363 . S
C5281 H5252 0.950 . S
C5281 C5280 1.397 1_455 S
C5281 C5282 1.334 . S
C5282 H5253 0.950 . S
C5282 C5281 1.334 . S
C5282 C5283 1.287 . S
C5283 C5282 1.287 . S
C5283 C5284 1.524 1_455 S
C5283 H5286 0.999 . S
C5284 H5254 0.950 . S
C5284 C5283 1.524 1_655 S
C5284 C5285 1.415 . S
C5285 H5255 0.950 . S
C5285 C5280 1.363 . S
C5285 C5284 1.415 . S
H5286 C5283 0.999 . S
H5287 C5268 0.913 . S
H5288 C5306 0.951 . S
H5289 C5308 0.951 . S
H5290 C5310 0.950 . S
H5291 C5311 0.950 . S
H5292 C5313 0.950 . S
H5293 C5316 0.950 . S
H5294 C5317 0.950 . S
H5295 C5319 0.950 . S
H5296 C5320 0.950 . S
H5297 C5321 0.951 . S
H5298 C5323 0.951 . S
H5299 C5325 0.950 . S
H5300 C5326 0.950 . S
H5301 C5328 0.950 . S
H5302 C5331 0.950 . S
H5303 C5332 0.950 . S
H5304 C5334 0.950 . S
H5305 C5335 0.950 . S
C5306 H5288 0.951 . S
C5306 C5307 1.366 . S
C5306 C5308 1.388 . S
C5307 C5306 1.366 . S
C5307 C5311 1.385 . S
C5308 H5289 0.951 . S
C5308 C5306 1.388 . S
C5308 C5309 1.366 . S
C5309 C5308 1.366 . S
C5309 C5310 1.414 . S
C5309 C5312 1.499 . S
C5310 H5290 0.950 . S
C5310 C5309 1.414 . S
C5310 C5311 1.374 . S
C5311 H5291 0.950 . S
C5311 C5307 1.385 . S
C5311 C5310 1.374 . S
C5312 C5309 1.499 . S
C5312 C5313 1.373 . S
C5312 C5314 1.389 . S
C5313 H5292 0.950 . S
C5313 C5312 1.373 . S
C5313 C5329 1.377 . S
C5314 C5312 1.389 . S
C5314 C5315 1.524 . S
C5314 C5328 1.377 . S
C5315 C5314 1.524 . S
C5315 C5316 1.397 . S
C5315 C5320 1.363 . S
C5316 H5293 0.950 . S
C5316 C5315 1.397 . S
C5316 C5317 1.334 . S
C5317 H5294 0.950 . S
C5317 C5316 1.334 . S
C5317 C5318 1.287 . S
C5318 C5317 1.287 . S
C5318 C5319 1.524 . S
C5318 H5337 0.913 . S
C5319 H5295 0.950 . S
C5319 C5318 1.524 . S
C5319 C5320 1.415 . S
C5320 H5296 0.950 . S
C5320 C5315 1.363 . S
C5320 C5319 1.415 . S
C5321 H5297 0.951 . S
C5321 C5322 1.366 . S
C5321 C5323 1.388 . S
C5322 C5321 1.366 . S
C5322 C5326 1.385 . S
C5323 H5298 0.951 . S
C5323 C5321 1.388 . S
C5323 C5324 1.366 . S
C5324 C5323 1.366 . S
C5324 C5325 1.414 . S
C5324 C5327 1.499 . S
C5325 H5299 0.950 . S
C5325 C5324 1.414 . S
C5325 C5326 1.374 . S
C5326 H5300 0.950 . S
C5326 C5322 1.385 . S
C5326 C5325 1.374 . S
C5327 C5324 1.499 . S
C5327 C5328 1.373 . S
C5327 C5329 1.389 . S
C5328 H5301 0.950 . S
C5328 C5314 1.377 . S
C5328 C5327 1.373 . S
C5329 C5313 1.377 . S
C5329 C5327 1.389 . S
C5329 C5330 1.524 . S
C5330 C5329 1.524 . S
C5330 C5331 1.397 . S
C5330 C5335 1.363 . S
C5331 H5302 0.950 . S
C5331 C5330 1.397 . S
C5331 C5332 1.334 . S
C5332 H5303 0.950 . S
C5332 C5331 1.334 . S
C5332 C5333 1.287 . S
C5333 C5332 1.287 . S
C5333 C5334 1.524 . S
C5333 H5336 0.999 . S
C5334 H5304 0.950 . S
C5334 C5333 1.524 . S
C5334 C5335 1.415 . S
C5335 H5305 0.950 . S
C5335 C5330 1.363 . S
C5335 C5334 1.415 . S
H5336 C5333 0.999 . S
H5337 C5318 0.913 . S
H5338 C5356 0.951 . S
H5339 C5358 0.951 . S
H5340 C5360 0.950 . S
H5341 C5361 0.950 . S
H5342 C5363 0.950 . S
H5343 C5366 0.950 . S
H5344 C5367 0.950 . S
H5345 C5369 0.950 . S
H5346 C5370 0.950 . S
H5347 C5371 0.951 . S
H5348 C5373 0.951 1_655 S
H5349 C5375 0.950 . S
H5350 C5376 0.950 . S
H5351 C5378 0.933 1_455 S
H5352 C5381 0.950 . S
H5353 C5382 0.950 . S
H5354 C5384 0.950 . S
H5355 C5385 0.950 . S
C5356 H5338 0.951 . S
C5356 C5357 1.366 . S
C5356 C5358 1.388 . S
C5357 C5356 1.366 . S
C5357 C5361 1.385 . S
C5358 H5339 0.951 . S
C5358 C5356 1.388 . S
C5358 C5359 1.366 . S
C5359 C5358 1.366 . S
C5359 C5360 1.414 . S
C5359 C5362 1.499 . S
C5360 H5340 0.950 . S
C5360 C5359 1.414 . S
C5360 C5361 1.374 . S
C5361 H5341 0.950 . S
C5361 C5357 1.385 . S
C5361 C5360 1.374 . S
C5362 C5359 1.499 . S
C5362 C5363 1.373 . S
C5362 C5364 1.389 . S
C5363 H5342 0.950 . S
C5363 C5362 1.373 . S
C5363 C5379 1.377 . S
C5364 C5362 1.389 . S
C5364 C5365 1.524 . S
C5364 C5378 1.377 . S
C5365 C5364 1.524 . S
C5365 C5366 1.397 . S
C5365 C5370 1.363 . S
C5366 H5343 0.950 . S
C5366 C5365 1.397 . S
C5366 C5367 1.334 . S
C5367 H5344 0.950 . S
C5367 C5366 1.334 . S
C5367 C5368 1.287 . S
C5368 C5367 1.287 . S
C5368 C5369 1.524 . S
C5368 H5387 0.913 . S
C5369 H5345 0.950 . S
C5369 C5368 1.524 . S
C5369 C5370 1.415 . S
C5370 H5346 0.950 . S
C5370 C5365 1.363 . S
C5370 C5369 1.415 . S
C5371 H5347 0.951 . S
C5371 C5372 1.366 . S
C5371 C5373 1.388 . S
C5372 C5371 1.366 . S
C5372 C5376 1.385 . S
C5373 H5348 0.951 1_455 S
C5373 C5371 1.388 . S
C5373 C5374 1.366 . S
C5374 C5373 1.366 . S
C5374 C5375 1.414 . S
C5374 C5377 1.499 1_455 S
C5375 H5349 0.950 . S
C5375 C5374 1.414 . S
C5375 C5376 1.374 . S
C5376 H5350 0.950 . S
C5376 C5372 1.385 . S
C5376 C5375 1.374 . S
C5377 C5374 1.499 1_655 S
C5377 C5378 1.373 . S
C5377 C5379 1.389 . S
C5378 H5351 0.933 1_655 S
C5378 C5364 1.377 . S
C5378 C5377 1.373 . S
C5379 C5363 1.377 . S
C5379 C5377 1.389 . S
C5379 C5380 1.524 . S
C5380 C5379 1.524 . S
C5380 C5381 1.397 . S
C5380 C5385 1.363 . S
C5381 H5352 0.950 . S
C5381 C5380 1.397 . S
C5381 C5382 1.334 . S
C5382 H5353 0.950 . S
C5382 C5381 1.334 . S
C5382 C5383 1.287 . S
C5383 C5382 1.287 . S
C5383 C5384 1.524 . S
C5383 H5386 0.999 . S
C5384 H5354 0.950 . S
C5384 C5383 1.524 . S
C5384 C5385 1.415 . S
C5385 H5355 0.950 . S
C5385 C5380 1.363 . S
C5385 C5384 1.415 . S
H5386 C5383 0.999 . S
H5387 C5368 0.913 . S
H5388 C5406 0.951 . S
H5389 C5408 0.951 . S
H5390 C5410 0.950 . S
H5391 C5411 0.950 . S
H5392 C5413 0.950 . S
H5393 C5416 0.950 . S
H5394 C5417 0.950 . S
H5395 C5419 0.950 . S
H5396 C5420 0.950 . S
H5397 C5421 0.951 . S
H5398 C5423 0.951 . S
H5399 C5425 0.950 . S
H5400 C5426 0.950 . S
H5401 C5428 0.950 . S
H5402 C5431 0.950 . S
H5403 C5432 0.950 . S
H5404 C5434 0.950 . S
H5405 C5435 0.950 . S
C5406 H5388 0.951 . S
C5406 C5407 1.366 . S
C5406 C5408 1.388 . S
C5407 C5406 1.366 . S
C5407 C5411 1.385 . S
C5408 H5389 0.951 . S
C5408 C5406 1.388 . S
C5408 C5409 1.366 . S
C5409 C5408 1.366 . S
C5409 C5410 1.414 . S
C5409 C5412 1.499 . S
C5410 H5390 0.950 . S
C5410 C5409 1.414 . S
C5410 C5411 1.374 . S
C5411 H5391 0.950 . S
C5411 C5407 1.385 . S
C5411 C5410 1.374 . S
C5412 C5409 1.499 . S
C5412 C5413 1.373 . S
C5412 C5414 1.389 . S
C5413 H5392 0.950 . S
C5413 C5412 1.373 . S
C5413 C5429 1.377 . S
C5414 C5412 1.389 . S
C5414 C5415 1.524 . S
C5414 C5428 1.377 . S
C5415 C5414 1.524 . S
C5415 C5416 1.397 . S
C5415 C5420 1.363 . S
C5416 H5393 0.950 . S
C5416 C5415 1.397 . S
C5416 C5417 1.334 . S
C5417 H5394 0.950 . S
C5417 C5416 1.334 . S
C5417 C5418 1.287 . S
C5418 C5417 1.287 . S
C5418 C5419 1.524 . S
C5418 H5437 0.913 . S
C5419 H5395 0.950 . S
C5419 C5418 1.524 . S
C5419 C5420 1.415 . S
C5420 H5396 0.950 . S
C5420 C5415 1.363 . S
C5420 C5419 1.415 . S
C5421 H5397 0.951 . S
C5421 C5422 1.366 . S
C5421 C5423 1.388 . S
C5422 C5421 1.366 . S
C5422 C5426 1.385 . S
C5423 H5398 0.951 . S
C5423 C5421 1.388 . S
C5423 C5424 1.366 . S
C5424 C5423 1.366 . S
C5424 C5425 1.414 . S
C5424 C5427 1.499 . S
C5425 H5399 0.950 . S
C5425 C5424 1.414 . S
C5425 C5426 1.374 . S
C5426 H5400 0.950 . S
C5426 C5422 1.385 . S
C5426 C5425 1.374 . S
C5427 C5424 1.499 . S
C5427 C5428 1.373 . S
C5427 C5429 1.389 . S
C5428 H5401 0.950 . S
C5428 C5414 1.377 . S
C5428 C5427 1.373 . S
C5429 C5413 1.377 . S
C5429 C5427 1.389 . S
C5429 C5430 1.524 . S
C5430 C5429 1.524 . S
C5430 C5431 1.397 . S
C5430 C5435 1.363 . S
C5431 H5402 0.950 . S
C5431 C5430 1.397 . S
C5431 C5432 1.334 . S
C5432 H5403 0.950 . S
C5432 C5431 1.334 . S
C5432 C5433 1.287 . S
C5433 C5432 1.287 . S
C5433 C5434 1.524 . S
C5433 H5436 0.999 . S
C5434 H5404 0.950 . S
C5434 C5433 1.524 . S
C5434 C5435 1.415 . S
C5435 H5405 0.950 . S
C5435 C5430 1.363 . S
C5435 C5434 1.415 . S
H5436 C5433 0.999 . S
H5437 C5418 0.913 . S
H5438 C5456 0.951 . S
H5439 C5458 0.951 . S
H5440 C5460 0.950 . S
H5441 C5461 0.950 . S
H5442 C5463 0.950 . S
H5443 C5466 0.950 . S
H5444 C5467 0.950 . S
H5445 C5469 0.950 . S
H5446 C5470 0.950 . S
H5447 C5471 0.951 . S
H5448 C5473 0.951 . S
H5449 C5475 0.950 . S
H5450 C5476 0.950 . S
H5451 C5478 0.950 . S
H5452 C5481 0.950 . S
H5453 C5482 0.950 . S
H5454 C5484 0.950 . S
H5455 C5485 0.950 . S
C5456 H5438 0.951 . S
C5456 C5457 1.366 . S
C5456 C5458 1.388 . S
C5457 C5456 1.366 . S
C5457 C5461 1.385 . S
C5458 H5439 0.951 . S
C5458 C5456 1.388 . S
C5458 C5459 1.366 . S
C5459 C5458 1.366 . S
C5459 C5460 1.414 . S
C5459 C5462 1.499 . S
C5460 H5440 0.950 . S
C5460 C5459 1.414 . S
C5460 C5461 1.374 . S
C5461 H5441 0.950 . S
C5461 C5457 1.385 . S
C5461 C5460 1.374 . S
C5462 C5459 1.499 . S
C5462 C5463 1.373 . S
C5462 C5464 1.389 . S
C5463 H5442 0.950 . S
C5463 C5462 1.373 . S
C5463 C5479 1.377 . S
C5464 C5462 1.389 . S
C5464 C5465 1.524 . S
C5464 C5478 1.377 . S
C5465 C5464 1.524 . S
C5465 C5466 1.397 . S
C5465 C5470 1.363 . S
C5466 H5443 0.950 . S
C5466 C5465 1.397 . S
C5466 C5467 1.334 . S
C5467 H5444 0.950 . S
C5467 C5466 1.334 . S
C5467 C5468 1.287 . S
C5468 C5467 1.287 . S
C5468 C5469 1.524 . S
C5468 H5487 0.913 . S
C5469 H5445 0.950 . S
C5469 C5468 1.524 . S
C5469 C5470 1.415 . S
C5470 H5446 0.950 . S
C5470 C5465 1.363 . S
C5470 C5469 1.415 . S
C5471 H5447 0.951 . S
C5471 C5472 1.366 . S
C5471 C5473 1.388 . S
C5472 C5471 1.366 . S
C5472 C5476 1.385 . S
C5473 H5448 0.951 . S
C5473 C5471 1.388 . S
C5473 C5474 1.366 . S
C5474 C5473 1.366 . S
C5474 C5475 1.414 . S
C5474 C5477 1.499 . S
C5475 H5449 0.950 . S
C5475 C5474 1.414 . S
C5475 C5476 1.374 . S
C5476 H5450 0.950 . S
C5476 C5472 1.385 . S
C5476 C5475 1.374 . S
C5477 C5474 1.499 . S
C5477 C5478 1.373 . S
C5477 C5479 1.389 . S
C5478 H5451 0.950 . S
C5478 C5464 1.377 . S
C5478 C5477 1.373 . S
C5479 C5463 1.377 . S
C5479 C5477 1.389 . S
C5479 C5480 1.524 . S
C5480 C5479 1.524 . S
C5480 C5481 1.397 . S
C5480 C5485 1.363 . S
C5481 H5452 0.950 . S
C5481 C5480 1.397 . S
C5481 C5482 1.334 . S
C5482 H5453 0.950 . S
C5482 C5481 1.334 . S
C5482 C5483 1.287 . S
C5483 C5482 1.287 . S
C5483 C5484 1.524 . S
C5483 H5486 0.999 . S
C5484 H5454 0.950 . S
C5484 C5483 1.524 . S
C5484 C5485 1.415 . S
C5485 H5455 0.950 . S
C5485 C5480 1.363 . S
C5485 C5484 1.415 . S
H5486 C5483 0.999 . S
H5487 C5468 0.913 . S
H5488 C5506 0.951 . S
H5489 C5508 0.951 . S
H5490 C5510 0.950 . S
H5491 C5511 0.950 . S
H5492 C5513 0.950 . S
H5493 C5516 0.950 . S
H5494 C5517 0.950 . S
H5495 C5519 0.950 . S
H5496 C5520 0.950 . S
H5497 C5521 0.951 . S
H5498 C5523 0.951 . S
H5499 C5525 0.950 . S
H5500 C5526 0.950 . S
H5501 C5528 0.950 . S
H5502 C5531 0.950 . S
H5503 C5532 0.950 . S
H5504 C5534 0.950 . S
H5505 C5535 0.950 . S
C5506 H5488 0.951 . S
C5506 C5507 1.366 . S
C5506 C5508 1.388 . S
C5507 C5506 1.366 . S
C5507 C5511 1.385 . S
C5508 H5489 0.951 . S
C5508 C5506 1.388 . S
C5508 C5509 1.366 . S
C5509 C5508 1.366 . S
C5509 C5510 1.414 . S
C5509 C5512 1.499 . S
C5510 H5490 0.950 . S
C5510 C5509 1.414 . S
C5510 C5511 1.374 . S
C5511 H5491 0.950 . S
C5511 C5507 1.385 . S
C5511 C5510 1.374 . S
C5512 C5509 1.499 . S
C5512 C5513 1.373 . S
C5512 C5514 1.389 . S
C5513 H5492 0.950 . S
C5513 C5512 1.373 . S
C5513 C5529 1.377 . S
C5514 C5512 1.389 . S
C5514 C5515 1.524 . S
C5514 C5528 1.377 . S
C5515 C5514 1.524 . S
C5515 C5516 1.397 . S
C5515 C5520 1.363 . S
C5516 H5493 0.950 . S
C5516 C5515 1.397 . S
C5516 C5517 1.334 . S
C5517 H5494 0.950 . S
C5517 C5516 1.334 . S
C5517 C5518 1.287 . S
C5518 C5517 1.287 . S
C5518 C5519 1.524 . S
C5518 H5537 0.913 . S
C5519 H5495 0.950 . S
C5519 C5518 1.524 . S
C5519 C5520 1.415 . S
C5520 H5496 0.950 . S
C5520 C5515 1.363 . S
C5520 C5519 1.415 . S
C5521 H5497 0.951 . S
C5521 C5522 1.366 . S
C5521 C5523 1.388 . S
C5522 C5521 1.366 . S
C5522 C5526 1.385 . S
C5523 H5498 0.951 . S
C5523 C5521 1.388 . S
C5523 C5524 1.366 . S
C5524 C5523 1.366 . S
C5524 C5525 1.414 . S
C5524 C5527 1.499 . S
C5525 H5499 0.950 . S
C5525 C5524 1.414 . S
C5525 C5526 1.374 . S
C5526 H5500 0.950 . S
C5526 C5522 1.385 . S
C5526 C5525 1.374 . S
C5527 C5524 1.499 . S
C5527 C5528 1.373 . S
C5527 C5529 1.389 . S
C5528 H5501 0.950 . S
C5528 C5514 1.377 . S
C5528 C5527 1.373 . S
C5529 C5513 1.377 . S
C5529 C5527 1.389 . S
C5529 C5530 1.524 . S
C5530 C5529 1.524 . S
C5530 C5531 1.397 . S
C5530 C5535 1.363 . S
C5531 H5502 0.950 . S
C5531 C5530 1.397 . S
C5531 C5532 1.334 . S
C5532 H5503 0.950 . S
C5532 C5531 1.334 . S
C5532 C5533 1.287 . S
C5533 C5532 1.287 . S
C5533 C5534 1.524 . S
C5533 H5536 0.999 . S
C5534 H5504 0.950 . S
C5534 C5533 1.524 . S
C5534 C5535 1.415 . S
C5535 H5505 0.950 . S
C5535 C5530 1.363 . S
C5535 C5534 1.415 . S
H5536 C5533 0.999 . S
H5537 C5518 0.913 . S
H5538 C5556 0.951 . S
H5539 C5558 0.951 . S
H5540 C5560 0.950 . S
H5541 C5561 0.950 . S
H5542 C5563 0.950 . S
H5543 C5566 0.950 . S
H5544 C5567 0.950 . S
H5545 C5569 0.950 . S
H5546 C5570 0.950 . S
H5547 C5571 0.951 . S
H5548 C5573 0.951 . S
H5549 C5575 0.950 . S
H5550 C5576 0.950 . S
H5551 C5578 0.950 . S
H5552 C5581 0.950 . S
H5553 C5582 0.950 . S
H5554 C5584 0.950 . S
H5555 C5585 0.950 . S
C5556 H5538 0.951 . S
C5556 C5557 1.366 . S
C5556 C5558 1.388 . S
C5557 C5556 1.366 . S
C5557 C5561 1.385 . S
C5558 H5539 0.951 . S
C5558 C5556 1.388 . S
C5558 C5559 1.366 . S
C5559 C5558 1.366 . S
C5559 C5560 1.414 . S
C5559 C5562 1.499 . S
C5560 H5540 0.950 . S
C5560 C5559 1.414 . S
C5560 C5561 1.374 . S
C5561 H5541 0.950 . S
C5561 C5557 1.385 . S
C5561 C5560 1.374 . S
C5562 C5559 1.499 . S
C5562 C5563 1.373 . S
C5562 C5564 1.389 . S
C5563 H5542 0.950 . S
C5563 C5562 1.373 . S
C5563 C5579 1.377 . S
C5564 C5562 1.389 . S
C5564 C5565 1.524 . S
C5564 C5578 1.377 . S
C5565 C5564 1.524 . S
C5565 C5566 1.397 . S
C5565 C5570 1.363 . S
C5566 H5543 0.950 . S
C5566 C5565 1.397 . S
C5566 C5567 1.334 . S
C5567 H5544 0.950 . S
C5567 C5566 1.334 . S
C5567 C5568 1.287 . S
C5568 C5567 1.287 . S
C5568 C5569 1.524 . S
C5568 H5587 0.913 . S
C5569 H5545 0.950 . S
C5569 C5568 1.524 . S
C5569 C5570 1.415 . S
C5570 H5546 0.950 . S
C5570 C5565 1.363 . S
C5570 C5569 1.415 . S
C5571 H5547 0.951 . S
C5571 C5572 1.366 . S
C5571 C5573 1.388 . S
C5572 C5571 1.366 . S
C5572 C5576 1.385 . S
C5573 H5548 0.951 . S
C5573 C5571 1.388 . S
C5573 C5574 1.366 . S
C5574 C5573 1.366 . S
C5574 C5575 1.414 . S
C5574 C5577 1.499 . S
C5575 H5549 0.950 . S
C5575 C5574 1.414 . S
C5575 C5576 1.374 . S
C5576 H5550 0.950 . S
C5576 C5572 1.385 . S
C5576 C5575 1.374 . S
C5577 C5574 1.499 . S
C5577 C5578 1.373 . S
C5577 C5579 1.389 . S
C5578 H5551 0.950 . S
C5578 C5564 1.377 . S
C5578 C5577 1.373 . S
C5579 C5563 1.377 . S
C5579 C5577 1.389 . S
C5579 C5580 1.524 . S
C5580 C5579 1.524 . S
C5580 C5581 1.397 . S
C5580 C5585 1.363 . S
C5581 H5552 0.950 . S
C5581 C5580 1.397 . S
C5581 C5582 1.334 . S
C5582 H5553 0.950 . S
C5582 C5581 1.334 . S
C5582 C5583 1.287 . S
C5583 C5582 1.287 . S
C5583 C5584 1.524 . S
C5583 H5586 0.999 . S
C5584 H5554 0.950 . S
C5584 C5583 1.524 . S
C5584 C5585 1.415 . S
C5585 H5555 0.950 . S
C5585 C5580 1.363 . S
C5585 C5584 1.415 . S
H5586 C5583 0.999 . S
H5587 C5568 0.913 . S
H5588 C5606 0.951 . S
H5589 C5608 0.951 . S
H5590 C5610 0.950 . S
H5591 C5611 0.950 . S
H5592 C5613 0.950 . S
H5593 C5616 0.950 . S
H5594 C5617 0.950 . S
H5595 C5619 0.950 . S
H5596 C5620 0.950 . S
H5597 C5621 0.951 . S
H5598 C5623 0.951 . S
H5599 C5625 0.950 . S
H5600 C5626 0.950 . S
H5601 C5628 0.950 . S
H5602 C5631 0.950 . S
H5603 C5632 0.950 . S
H5604 C5634 0.950 . S
H5605 C5635 0.950 . S
C5606 H5588 0.951 . S
C5606 C5607 1.366 . S
C5606 C5608 1.388 . S
C5607 C5606 1.366 . S
C5607 C5611 1.385 . S
C5608 H5589 0.951 . S
C5608 C5606 1.388 . S
C5608 C5609 1.366 . S
C5609 C5608 1.366 . S
C5609 C5610 1.414 . S
C5609 C5612 1.499 . S
C5610 H5590 0.950 . S
C5610 C5609 1.414 . S
C5610 C5611 1.374 . S
C5611 H5591 0.950 . S
C5611 C5607 1.385 . S
C5611 C5610 1.374 . S
C5612 C5609 1.499 . S
C5612 C5613 1.373 . S
C5612 C5614 1.389 . S
C5613 H5592 0.950 . S
C5613 C5612 1.373 . S
C5613 C5629 1.377 . S
C5614 C5612 1.389 . S
C5614 C5615 1.524 . S
C5614 C5628 1.377 . S
C5615 C5614 1.524 . S
C5615 C5616 1.397 . S
C5615 C5620 1.363 . S
C5616 H5593 0.950 . S
C5616 C5615 1.397 . S
C5616 C5617 1.334 . S
C5617 H5594 0.950 . S
C5617 C5616 1.334 . S
C5617 C5618 1.287 . S
C5618 C5617 1.287 . S
C5618 C5619 1.524 . S
C5618 H5637 0.913 . S
C5619 H5595 0.950 . S
C5619 C5618 1.524 . S
C5619 C5620 1.415 . S
C5620 H5596 0.950 . S
C5620 C5615 1.363 . S
C5620 C5619 1.415 . S
C5621 H5597 0.951 . S
C5621 C5622 1.366 . S
C5621 C5623 1.388 . S
C5622 C5621 1.366 . S
C5622 C5626 1.385 . S
C5623 H5598 0.951 . S
C5623 C5621 1.388 . S
C5623 C5624 1.366 . S
C5624 C5623 1.366 . S
C5624 C5625 1.414 . S
C5624 C5627 1.499 . S
C5625 H5599 0.950 . S
C5625 C5624 1.414 . S
C5625 C5626 1.374 . S
C5626 H5600 0.950 . S
C5626 C5622 1.385 . S
C5626 C5625 1.374 . S
C5627 C5624 1.499 . S
C5627 C5628 1.373 . S
C5627 C5629 1.389 . S
C5628 H5601 0.950 . S
C5628 C5614 1.377 . S
C5628 C5627 1.373 . S
C5629 C5613 1.377 . S
C5629 C5627 1.389 . S
C5629 C5630 1.524 . S
C5630 C5629 1.524 . S
C5630 C5631 1.397 . S
C5630 C5635 1.363 . S
C5631 H5602 0.950 . S
C5631 C5630 1.397 . S
C5631 C5632 1.334 . S
C5632 H5603 0.950 . S
C5632 C5631 1.334 . S
C5632 C5633 1.287 . S
C5633 C5632 1.287 . S
C5633 C5634 1.524 . S
C5633 H5636 0.999 . S
C5634 H5604 0.950 . S
C5634 C5633 1.524 . S
C5634 C5635 1.415 . S
C5635 H5605 0.950 . S
C5635 C5630 1.363 . S
C5635 C5634 1.415 . S
H5636 C5633 0.999 . S
H5637 C5618 0.913 . S
H5638 C5656 0.951 . S
H5639 C5658 0.951 1_455 S
H5640 C5660 0.950 . S
H5641 C5661 0.950 . S
H5642 C5663 0.950 . S
H5643 C5666 0.950 . S
H5644 C5667 0.950 . S
H5645 C5669 0.950 . S
H5646 C5670 0.950 . S
H5647 C5671 0.951 . S
H5648 C5673 0.951 . S
H5649 C5675 0.950 . S
H5650 C5676 0.950 . S
H5651 C5678 0.950 . S
H5652 C5681 0.950 . S
H5653 C5682 0.950 . S
H5654 C5684 0.950 . S
H5655 C5685 0.950 . S
C5656 H5638 0.951 . S
C5656 C5657 1.366 . S
C5656 C5658 1.388 . S
C5657 C5656 1.366 . S
C5657 C5661 1.385 . S
C5658 H5639 0.951 1_655 S
C5658 C5656 1.388 . S
C5658 C5659 1.366 . S
C5659 C5658 1.366 . S
C5659 C5660 1.414 . S
C5659 C5662 1.499 1_655 S
C5660 H5640 0.950 . S
C5660 C5659 1.414 . S
C5660 C5661 1.374 . S
C5661 H5641 0.950 . S
C5661 C5657 1.385 . S
C5661 C5660 1.374 . S
C5662 C5659 1.499 1_455 S
C5662 C5663 1.373 . S
C5662 C5664 1.389 . S
C5663 H5642 0.950 . S
C5663 C5662 1.373 . S
C5663 C5679 1.377 . S
C5664 C5662 1.389 . S
C5664 C5665 1.524 . S
C5664 C5678 1.377 . S
C5665 C5664 1.524 . S
C5665 C5666 1.397 1_455 S
C5665 C5670 1.363 . S
C5666 H5643 0.950 . S
C5666 C5665 1.397 1_655 S
C5666 C5667 1.334 . S
C5667 H5644 0.950 . S
C5667 C5666 1.334 . S
C5667 C5668 1.312 . S
C5668 C5667 1.312 . S
C5668 C5669 1.485 1_655 S
C5668 H5687 0.932 . S
C5669 H5645 0.950 . S
C5669 C5668 1.485 1_455 S
C5669 C5670 1.415 . S
C5670 H5646 0.950 . S
C5670 C5665 1.363 . S
C5670 C5669 1.415 . S
C5671 H5647 0.951 . S
C5671 C5672 1.366 . S
C5671 C5673 1.388 . S
C5672 C5671 1.366 . S
C5672 C5676 1.385 . S
C5673 H5648 0.951 . S
C5673 C5671 1.388 . S
C5673 C5674 1.366 . S
C5674 C5673 1.366 . S
C5674 C5675 1.414 . S
C5674 C5677 1.499 . S
C5675 H5649 0.950 . S
C5675 C5674 1.414 . S
C5675 C5676 1.374 . S
C5676 H5650 0.950 . S
C5676 C5672 1.385 . S
C5676 C5675 1.374 . S
C5677 C5674 1.499 . S
C5677 C5678 1.373 . S
C5677 C5679 1.389 . S
C5678 H5651 0.950 . S
C5678 C5664 1.377 . S
C5678 C5677 1.373 . S
C5679 C5663 1.377 . S
C5679 C5677 1.389 . S
C5679 C5680 1.524 . S
C5680 C5679 1.524 . S
C5680 C5681 1.397 . S
C5680 C5685 1.363 . S
C5681 H5652 0.950 . S
C5681 C5680 1.397 . S
C5681 C5682 1.334 . S
C5682 H5653 0.950 . S
C5682 C5681 1.334 . S
C5682 C5683 1.287 . S
C5683 C5682 1.287 . S
C5683 C5684 1.524 . S
C5683 H5686 0.999 . S
C5684 H5654 0.950 . S
C5684 C5683 1.524 . S
C5684 C5685 1.415 . S
C5685 H5655 0.950 . S
C5685 C5680 1.363 . S
C5685 C5684 1.415 . S
H5686 C5683 0.999 . S
H5687 C5668 0.932 . S
H5688 C5706 0.951 . S
H5689 C5708 0.951 . S
H5690 C5710 0.950 . S
H5691 C5711 0.950 . S
H5692 C5713 0.950 . S
H5693 C5716 0.950 . S
H5694 C5717 0.950 . S
H5695 C5719 0.950 . S
H5696 C5720 0.950 . S
H5697 C5721 0.951 . S
H5698 C5723 0.951 . S
H5699 C5725 0.950 . S
H5700 C5726 0.950 . S
H5701 C5728 0.950 . S
H5702 C5731 0.950 . S
H5703 C5732 0.950 . S
H5704 C5734 0.950 . S
H5705 C5735 0.950 . S
C5706 H5688 0.951 . S
C5706 C5707 1.366 . S
C5706 C5708 1.388 . S
C5707 C5706 1.366 . S
C5707 C5711 1.385 . S
C5708 H5689 0.951 . S
C5708 C5706 1.388 . S
C5708 C5709 1.366 . S
C5709 C5708 1.366 . S
C5709 C5710 1.414 . S
C5709 C5712 1.499 . S
C5710 H5690 0.950 . S
C5710 C5709 1.414 . S
C5710 C5711 1.374 . S
C5711 H5691 0.950 . S
C5711 C5707 1.385 . S
C5711 C5710 1.374 . S
C5712 C5709 1.499 . S
C5712 C5713 1.373 . S
C5712 C5714 1.389 . S
C5713 H5692 0.950 . S
C5713 C5712 1.373 . S
C5713 C5729 1.377 . S
C5714 C5712 1.389 . S
C5714 C5715 1.524 . S
C5714 C5728 1.377 . S
C5715 C5714 1.524 . S
C5715 C5716 1.397 . S
C5715 C5720 1.363 . S
C5716 H5693 0.950 . S
C5716 C5715 1.397 . S
C5716 C5717 1.334 . S
C5717 H5694 0.950 . S
C5717 C5716 1.334 . S
C5717 C5718 1.287 . S
C5718 C5717 1.287 . S
C5718 C5719 1.524 . S
C5718 H5737 0.913 . S
C5719 H5695 0.950 . S
C5719 C5718 1.524 . S
C5719 C5720 1.415 . S
C5720 H5696 0.950 . S
C5720 C5715 1.363 . S
C5720 C5719 1.415 . S
C5721 H5697 0.951 . S
C5721 C5722 1.366 . S
C5721 C5723 1.388 . S
C5722 C5721 1.366 . S
C5722 C5726 1.385 . S
C5723 H5698 0.951 . S
C5723 C5721 1.388 . S
C5723 C5724 1.366 . S
C5724 C5723 1.366 . S
C5724 C5725 1.414 . S
C5724 C5727 1.499 . S
C5725 H5699 0.950 . S
C5725 C5724 1.414 . S
C5725 C5726 1.374 . S
C5726 H5700 0.950 . S
C5726 C5722 1.385 . S
C5726 C5725 1.374 . S
C5727 C5724 1.499 . S
C5727 C5728 1.373 . S
C5727 C5729 1.389 . S
C5728 H5701 0.950 . S
C5728 C5714 1.377 . S
C5728 C5727 1.373 . S
C5729 C5713 1.377 . S
C5729 C5727 1.389 . S
C5729 C5730 1.524 . S
C5730 C5729 1.524 . S
C5730 C5731 1.397 . S
C5730 C5735 1.363 . S
C5731 H5702 0.950 . S
C5731 C5730 1.397 . S
C5731 C5732 1.334 . S
C5732 H5703 0.950 . S
C5732 C5731 1.334 . S
C5732 C5733 1.287 . S
C5733 C5732 1.287 . S
C5733 C5734 1.524 . S
C5733 H5736 0.999 . S
C5734 H5704 0.950 . S
C5734 C5733 1.524 . S
C5734 C5735 1.415 . S
C5735 H5705 0.950 . S
C5735 C5730 1.363 . S
C5735 C5734 1.415 . S
H5736 C5733 0.999 . S
H5737 C5718 0.913 . S
H5738 C5756 0.951 . S
H5739 C5758 0.951 . S
H5740 C5760 0.950 . S
H5741 C5761 0.950 . S
H5742 C5763 0.950 . S
H5743 C5766 0.950 . S
H5744 C5767 0.950 . S
H5745 C5769 0.950 . S
H5746 C5770 0.950 . S
H5747 C5771 0.951 . S
H5748 C5773 0.951 . S
H5749 C5775 0.950 1_455 S
H5750 C5776 0.950 . S
H5751 C5778 0.950 . S
H5752 C5781 0.963 . S
H5753 C5782 0.950 . S
H5754 C5784 0.950 . S
H5755 C5785 0.971 . S
C5756 H5738 0.951 . S
C5756 C5757 1.366 . S
C5756 C5758 1.388 . S
C5757 C5756 1.366 . S
C5757 C5761 1.385 . S
C5758 H5739 0.951 . S
C5758 C5756 1.388 . S
C5758 C5759 1.366 . S
C5759 C5758 1.366 . S
C5759 C5760 1.414 . S
C5759 C5762 1.499 . S
C5760 H5740 0.950 . S
C5760 C5759 1.414 . S
C5760 C5761 1.374 . S
C5761 H5741 0.950 . S
C5761 C5757 1.385 . S
C5761 C5760 1.374 . S
C5762 C5759 1.499 . S
C5762 C5763 1.373 . S
C5762 C5764 1.389 . S
C5763 H5742 0.950 . S
C5763 C5762 1.373 . S
C5763 C5779 1.377 . S
C5764 C5762 1.389 . S
C5764 C5765 1.524 . S
C5764 C5778 1.377 . S
C5765 C5764 1.524 . S
C5765 C5766 1.397 . S
C5765 C5770 1.363 . S
C5766 H5743 0.950 . S
C5766 C5765 1.397 . S
C5766 C5767 1.334 . S
C5767 H5744 0.950 . S
C5767 C5766 1.334 . S
C5767 C5768 1.287 . S
C5768 C5767 1.287 . S
C5768 C5769 1.524 . S
C5768 H5787 0.913 . S
C5769 H5745 0.950 . S
C5769 C5768 1.524 . S
C5769 C5770 1.415 . S
C5770 H5746 0.950 . S
C5770 C5765 1.363 . S
C5770 C5769 1.415 . S
C5771 H5747 0.951 . S
C5771 C5772 1.366 . S
C5771 C5773 1.388 . S
C5772 C5771 1.366 . S
C5772 C5776 1.385 . S
C5773 H5748 0.951 . S
C5773 C5771 1.388 . S
C5773 C5774 1.366 . S
C5774 C5773 1.366 . S
C5774 C5775 1.414 . S
C5774 C5777 1.499 1_655 S
C5775 H5749 0.950 1_655 S
C5775 C5774 1.414 . S
C5775 C5776 1.374 . S
C5776 H5750 0.950 . S
C5776 C5772 1.385 . S
C5776 C5775 1.374 . S
C5777 C5774 1.499 1_455 S
C5777 C5778 1.373 . S
C5777 C5779 1.389 . S
C5778 H5751 0.950 . S
C5778 C5764 1.377 . S
C5778 C5777 1.373 . S
C5779 C5763 1.377 . S
C5779 C5777 1.389 . S
C5779 C5780 1.529 1_455 S
C5780 C5779 1.529 1_655 S
C5780 C5781 1.395 . S
C5780 C5785 1.361 . S
C5781 H5752 0.963 . S
C5781 C5780 1.395 . S
C5781 C5782 1.334 . S
C5782 H5753 0.950 . S
C5782 C5781 1.334 . S
C5782 C5783 1.287 . S
C5783 C5782 1.287 . S
C5783 C5784 1.524 . S
C5783 H5786 0.999 . S
C5784 H5754 0.950 . S
C5784 C5783 1.524 . S
C5784 C5785 1.415 . S
C5785 H5755 0.971 . S
C5785 C5780 1.361 . S
C5785 C5784 1.415 . S
H5786 C5783 0.999 . S
H5787 C5768 0.913 . S
H5788 C5806 0.951 . S
H5789 C5808 0.951 . S
H5790 C5810 0.950 . S
H5791 C5811 0.950 . S
H5792 C5813 0.950 . S
H5793 C5816 0.950 . S
H5794 C5817 0.950 . S
H5795 C5819 0.950 . S
H5796 C5820 0.950 . S
H5797 C5821 0.951 . S
H5798 C5823 0.951 . S
H5799 C5825 0.950 . S
H5800 C5826 0.950 . S
H5801 C5828 0.950 . S
H5802 C5831 0.950 . S
H5803 C5832 0.950 . S
H5804 C5834 0.950 . S
H5805 C5835 0.950 . S
C5806 H5788 0.951 . S
C5806 C5807 1.366 . S
C5806 C5808 1.388 . S
C5807 C5806 1.366 . S
C5807 C5811 1.385 . S
C5808 H5789 0.951 . S
C5808 C5806 1.388 . S
C5808 C5809 1.366 . S
C5809 C5808 1.366 . S
C5809 C5810 1.414 . S
C5809 C5812 1.499 . S
C5810 H5790 0.950 . S
C5810 C5809 1.414 . S
C5810 C5811 1.374 . S
C5811 H5791 0.950 . S
C5811 C5807 1.385 . S
C5811 C5810 1.374 . S
C5812 C5809 1.499 . S
C5812 C5813 1.373 . S
C5812 C5814 1.389 . S
C5813 H5792 0.950 . S
C5813 C5812 1.373 . S
C5813 C5829 1.377 . S
C5814 C5812 1.389 . S
C5814 C5815 1.524 . S
C5814 C5828 1.377 . S
C5815 C5814 1.524 . S
C5815 C5816 1.397 . S
C5815 C5820 1.363 . S
C5816 H5793 0.950 . S
C5816 C5815 1.397 . S
C5816 C5817 1.334 . S
C5817 H5794 0.950 . S
C5817 C5816 1.334 . S
C5817 C5818 1.287 . S
C5818 C5817 1.287 . S
C5818 C5819 1.524 . S
C5818 H5837 0.913 . S
C5819 H5795 0.950 . S
C5819 C5818 1.524 . S
C5819 C5820 1.415 . S
C5820 H5796 0.950 . S
C5820 C5815 1.363 . S
C5820 C5819 1.415 . S
C5821 H5797 0.951 . S
C5821 C5822 1.366 . S
C5821 C5823 1.388 . S
C5822 C5821 1.366 . S
C5822 C5826 1.385 . S
C5823 H5798 0.951 . S
C5823 C5821 1.388 . S
C5823 C5824 1.366 . S
C5824 C5823 1.366 . S
C5824 C5825 1.414 . S
C5824 C5827 1.499 . S
C5825 H5799 0.950 . S
C5825 C5824 1.414 . S
C5825 C5826 1.374 . S
C5826 H5800 0.950 . S
C5826 C5822 1.385 . S
C5826 C5825 1.374 . S
C5827 C5824 1.499 . S
C5827 C5828 1.373 . S
C5827 C5829 1.389 . S
C5828 H5801 0.950 . S
C5828 C5814 1.377 . S
C5828 C5827 1.373 . S
C5829 C5813 1.377 . S
C5829 C5827 1.389 . S
C5829 C5830 1.524 . S
C5830 C5829 1.524 . S
C5830 C5831 1.397 . S
C5830 C5835 1.363 . S
C5831 H5802 0.950 . S
C5831 C5830 1.397 . S
C5831 C5832 1.334 . S
C5832 H5803 0.950 . S
C5832 C5831 1.334 . S
C5832 C5833 1.287 . S
C5833 C5832 1.287 . S
C5833 C5834 1.524 . S
C5833 H5836 0.999 . S
C5834 H5804 0.950 . S
C5834 C5833 1.524 . S
C5834 C5835 1.415 . S
C5835 H5805 0.950 . S
C5835 C5830 1.363 . S
C5835 C5834 1.415 . S
H5836 C5833 0.999 . S
H5837 C5818 0.913 . S
H5838 C5856 0.951 . S
H5839 C5858 0.951 . S
H5840 C5860 0.950 . S
H5841 C5861 0.950 . S
H5842 C5863 0.950 . S
H5843 C5866 0.950 . S
H5844 C5867 0.950 . S
H5845 C5869 0.950 . S
H5846 C5870 0.950 . S
H5847 C5871 0.951 . S
H5848 C5873 0.951 . S
H5849 C5875 0.950 . S
H5850 C5876 0.950 . S
H5851 C5878 0.950 . S
H5852 C5881 0.950 . S
H5853 C5882 0.950 . S
H5854 C5884 0.950 . S
H5855 C5885 0.950 . S
C5856 H5838 0.951 . S
C5856 C5857 1.366 . S
C5856 C5858 1.388 . S
C5857 C5856 1.366 . S
C5857 C5861 1.385 . S
C5858 H5839 0.951 . S
C5858 C5856 1.388 . S
C5858 C5859 1.366 . S
C5859 C5858 1.366 . S
C5859 C5860 1.414 . S
C5859 C5862 1.499 . S
C5860 H5840 0.950 . S
C5860 C5859 1.414 . S
C5860 C5861 1.374 . S
C5861 H5841 0.950 . S
C5861 C5857 1.385 . S
C5861 C5860 1.374 . S
C5862 C5859 1.499 . S
C5862 C5863 1.373 . S
C5862 C5864 1.389 . S
C5863 H5842 0.950 . S
C5863 C5862 1.373 . S
C5863 C5879 1.377 . S
C5864 C5862 1.389 . S
C5864 C5865 1.524 . S
C5864 C5878 1.377 . S
C5865 C5864 1.524 . S
C5865 C5866 1.397 . S
C5865 C5870 1.363 . S
C5866 H5843 0.950 . S
C5866 C5865 1.397 . S
C5866 C5867 1.334 . S
C5867 H5844 0.950 . S
C5867 C5866 1.334 . S
C5867 C5868 1.287 . S
C5868 C5867 1.287 . S
C5868 C5869 1.524 . S
C5868 H5887 0.913 . S
C5869 H5845 0.950 . S
C5869 C5868 1.524 . S
C5869 C5870 1.415 . S
C5870 H5846 0.950 . S
C5870 C5865 1.363 . S
C5870 C5869 1.415 . S
C5871 H5847 0.951 . S
C5871 C5872 1.366 . S
C5871 C5873 1.388 . S
C5872 C5871 1.366 . S
C5872 C5876 1.385 . S
C5873 H5848 0.951 . S
C5873 C5871 1.388 . S
C5873 C5874 1.366 . S
C5874 C5873 1.366 . S
C5874 C5875 1.414 . S
C5874 C5877 1.499 . S
C5875 H5849 0.950 . S
C5875 C5874 1.414 . S
C5875 C5876 1.374 . S
C5876 H5850 0.950 . S
C5876 C5872 1.385 . S
C5876 C5875 1.374 . S
C5877 C5874 1.499 . S
C5877 C5878 1.373 . S
C5877 C5879 1.389 . S
C5878 H5851 0.950 . S
C5878 C5864 1.377 . S
C5878 C5877 1.373 . S
C5879 C5863 1.377 . S
C5879 C5877 1.389 . S
C5879 C5880 1.524 . S
C5880 C5879 1.524 . S
C5880 C5881 1.397 . S
C5880 C5885 1.363 . S
C5881 H5852 0.950 . S
C5881 C5880 1.397 . S
C5881 C5882 1.334 . S
C5882 H5853 0.950 . S
C5882 C5881 1.334 . S
C5882 C5883 1.287 . S
C5883 C5882 1.287 . S
C5883 C5884 1.524 . S
C5883 H5886 0.999 . S
C5884 H5854 0.950 . S
C5884 C5883 1.524 . S
C5884 C5885 1.415 . S
C5885 H5855 0.950 . S
C5885 C5880 1.363 . S
C5885 C5884 1.415 . S
H5886 C5883 0.999 . S
H5887 C5868 0.913 . S
H5888 C5906 0.951 . S
H5889 C5908 0.951 . S
H5890 C5910 0.950 . S
H5891 C5911 0.950 . S
H5892 C5913 0.950 . S
H5893 C5916 0.950 . S
H5894 C5917 0.950 . S
H5895 C5919 0.950 . S
H5896 C5920 0.950 . S
H5897 C5921 0.951 . S
H5898 C5923 0.951 . S
H5899 C5925 0.950 . S
H5900 C5926 0.950 . S
H5901 C5928 0.950 . S
H5902 C5931 0.950 . S
H5903 C5932 0.950 . S
H5904 C5934 0.950 . S
H5905 C5935 0.950 . S
C5906 H5888 0.951 . S
C5906 C5907 1.366 . S
C5906 C5908 1.388 . S
C5907 C5906 1.366 . S
C5907 C5911 1.385 . S
C5908 H5889 0.951 . S
C5908 C5906 1.388 . S
C5908 C5909 1.366 . S
C5909 C5908 1.366 . S
C5909 C5910 1.414 . S
C5909 C5912 1.499 . S
C5910 H5890 0.950 . S
C5910 C5909 1.414 . S
C5910 C5911 1.374 . S
C5911 H5891 0.950 . S
C5911 C5907 1.385 . S
C5911 C5910 1.374 . S
C5912 C5909 1.499 . S
C5912 C5913 1.373 . S
C5912 C5914 1.389 . S
C5913 H5892 0.950 . S
C5913 C5912 1.373 . S
C5913 C5929 1.377 1_545 S
C5914 C5912 1.389 . S
C5914 C5915 1.524 . S
C5914 C5928 1.377 1_545 S
C5915 C5914 1.524 . S
C5915 C5916 1.397 . S
C5915 C5920 1.363 . S
C5916 H5893 0.950 . S
C5916 C5915 1.397 . S
C5916 C5917 1.334 . S
C5917 H5894 0.950 . S
C5917 C5916 1.334 . S
C5917 C5918 1.287 . S
C5918 C5917 1.287 . S
C5918 C5919 1.524 . S
C5918 H5937 0.913 . S
C5919 H5895 0.950 . S
C5919 C5918 1.524 . S
C5919 C5920 1.415 . S
C5920 H5896 0.950 . S
C5920 C5915 1.363 . S
C5920 C5919 1.415 . S
C5921 H5897 0.951 . S
C5921 C5922 1.366 . S
C5921 C5923 1.388 . S
C5922 C5921 1.366 . S
C5922 C5926 1.385 . S
C5923 H5898 0.951 . S
C5923 C5921 1.388 . S
C5923 C5924 1.366 . S
C5924 C5923 1.366 . S
C5924 C5925 1.414 . S
C5924 C5927 1.499 . S
C5925 H5899 0.950 . S
C5925 C5924 1.414 . S
C5925 C5926 1.374 . S
C5926 H5900 0.950 . S
C5926 C5922 1.385 . S
C5926 C5925 1.374 . S
C5927 C5924 1.499 . S
C5927 C5928 1.373 . S
C5927 C5929 1.389 . S
C5928 H5901 0.950 . S
C5928 C5914 1.377 1_565 S
C5928 C5927 1.373 . S
C5929 C5913 1.377 1_565 S
C5929 C5927 1.389 . S
C5929 C5930 1.524 . S
C5930 C5929 1.524 . S
C5930 C5931 1.397 . S
C5930 C5935 1.363 . S
C5931 H5902 0.950 . S
C5931 C5930 1.397 . S
C5931 C5932 1.334 . S
C5932 H5903 0.950 . S
C5932 C5931 1.334 . S
C5932 C5933 1.287 . S
C5933 C5932 1.287 . S
C5933 C5934 1.524 . S
C5933 H5936 0.999 . S
C5934 H5904 0.950 . S
C5934 C5933 1.524 . S
C5934 C5935 1.415 . S
C5935 H5905 0.950 . S
C5935 C5930 1.363 . S
C5935 C5934 1.415 . S
H5936 C5933 0.999 . S
H5937 C5918 0.913 . S
H5938 C5956 0.951 . S
H5939 C5958 0.951 . S
H5940 C5960 0.950 . S
H5941 C5961 0.950 . S
H5942 C5963 0.950 . S
H5943 C5966 0.950 . S
H5944 C5967 0.950 . S
H5945 C5969 0.950 . S
H5946 C5970 0.950 . S
H5947 C5971 0.951 . S
H5948 C5973 0.951 . S
H5949 C5975 0.950 . S
H5950 C5976 0.950 . S
H5951 C5978 0.950 . S
H5952 C5981 0.950 . S
H5953 C5982 0.950 . S
H5954 C5984 0.950 . S
H5955 C5985 0.950 . S
C5956 H5938 0.951 . S
C5956 C5957 1.366 . S
C5956 C5958 1.388 . S
C5957 C5956 1.366 . S
C5957 C5961 1.385 . S
C5958 H5939 0.951 . S
C5958 C5956 1.388 . S
C5958 C5959 1.366 . S
C5959 C5958 1.366 . S
C5959 C5960 1.414 . S
C5959 C5962 1.499 . S
C5960 H5940 0.950 . S
C5960 C5959 1.414 . S
C5960 C5961 1.374 . S
C5961 H5941 0.950 . S
C5961 C5957 1.385 . S
C5961 C5960 1.374 . S
C5962 C5959 1.499 . S
C5962 C5963 1.373 . S
C5962 C5964 1.389 . S
C5963 H5942 0.950 . S
C5963 C5962 1.373 . S
C5963 C5979 1.377 . S
C5964 C5962 1.389 . S
C5964 C5965 1.524 . S
C5964 C5978 1.377 . S
C5965 C5964 1.524 . S
C5965 C5966 1.397 . S
C5965 C5970 1.363 . S
C5966 H5943 0.950 . S
C5966 C5965 1.397 . S
C5966 C5967 1.334 . S
C5967 H5944 0.950 . S
C5967 C5966 1.334 . S
C5967 C5968 1.287 . S
C5968 C5967 1.287 . S
C5968 C5969 1.524 . S
C5968 H5987 0.913 . S
C5969 H5945 0.950 . S
C5969 C5968 1.524 . S
C5969 C5970 1.415 . S
C5970 H5946 0.950 . S
C5970 C5965 1.363 . S
C5970 C5969 1.415 . S
C5971 H5947 0.951 . S
C5971 C5972 1.366 . S
C5971 C5973 1.388 . S
C5972 C5971 1.366 . S
C5972 C5976 1.385 . S
C5973 H5948 0.951 . S
C5973 C5971 1.388 . S
C5973 C5974 1.366 . S
C5974 C5973 1.366 . S
C5974 C5975 1.414 . S
C5974 C5977 1.499 . S
C5975 H5949 0.950 . S
C5975 C5974 1.414 . S
C5975 C5976 1.374 . S
C5976 H5950 0.950 . S
C5976 C5972 1.385 . S
C5976 C5975 1.374 . S
C5977 C5974 1.499 . S
C5977 C5978 1.373 . S
C5977 C5979 1.389 . S
C5978 H5951 0.950 . S
C5978 C5964 1.377 . S
C5978 C5977 1.373 . S
C5979 C5963 1.377 . S
C5979 C5977 1.389 . S
C5979 C5980 1.524 . S
C5980 C5979 1.524 . S
C5980 C5981 1.397 . S
C5980 C5985 1.363 . S
C5981 H5952 0.950 . S
C5981 C5980 1.397 . S
C5981 C5982 1.334 . S
C5982 H5953 0.950 . S
C5982 C5981 1.334 . S
C5982 C5983 1.287 . S
C5983 C5982 1.287 . S
C5983 C5984 1.524 . S
C5983 H5986 0.999 . S
C5984 H5954 0.950 . S
C5984 C5983 1.524 . S
C5984 C5985 1.415 . S
C5985 H5955 0.950 . S
C5985 C5980 1.363 . S
C5985 C5984 1.415 . S
H5986 C5983 0.999 . S
H5987 C5968 0.913 . S
H5988 C6006 0.951 . S
H5989 C6008 0.951 . S
H5990 C6010 0.950 . S
H5991 C6011 0.950 . S
H5992 C6013 0.950 . S
H5993 C6016 0.950 . S
H5994 C6017 0.950 . S
H5995 C6019 0.950 . S
H5996 C6020 0.979 . S
H5997 C6021 0.951 . S
H5998 C6023 0.951 . S
H5999 C6025 0.950 . S
H6000 C6026 0.950 . S
H6001 C6028 0.950 . S
H6002 C6031 0.950 . S
H6003 C6032 0.950 . S
H6004 C6034 0.950 . S
H6005 C6035 0.979 . S
C6006 H5988 0.951 . S
C6006 C6007 1.366 . S
C6006 C6008 1.388 . S
C6007 C6006 1.366 . S
C6007 C6011 1.385 . S
C6008 H5989 0.951 . S
C6008 C6006 1.388 . S
C6008 C6009 1.366 . S
C6009 C6008 1.366 . S
C6009 C6010 1.414 . S
C6009 C6012 1.499 . S
C6010 H5990 0.950 . S
C6010 C6009 1.414 . S
C6010 C6011 1.374 . S
C6011 H5991 0.950 . S
C6011 C6007 1.385 . S
C6011 C6010 1.374 . S
C6012 C6009 1.499 . S
C6012 C6013 1.373 . S
C6012 C6014 1.389 . S
C6013 H5992 0.950 . S
C6013 C6012 1.373 . S
C6013 C6029 1.377 1_565 S
C6014 C6012 1.389 . S
C6014 C6015 1.524 . S
C6014 C6028 1.377 1_565 S
C6015 C6014 1.524 . S
C6015 C6016 1.397 . S
C6015 C6020 1.363 . S
C6016 H5993 0.950 . S
C6016 C6015 1.397 . S
C6016 C6017 1.334 . S
C6017 H5994 0.950 . S
C6017 C6016 1.334 . S
C6017 C6018 1.287 . S
C6018 C6017 1.287 . S
C6018 C6019 1.524 . S
C6018 H6037 0.913 . S
C6019 H5995 0.950 . S
C6019 C6018 1.524 . S
C6019 C6020 1.415 . S
C6020 H5996 0.979 . S
C6020 C6015 1.363 . S
C6020 C6019 1.415 . S
C6021 H5997 0.951 . S
C6021 C6022 1.366 . S
C6021 C6023 1.388 . S
C6022 C6021 1.366 . S
C6022 C6026 1.385 . S
C6023 H5998 0.951 . S
C6023 C6021 1.388 . S
C6023 C6024 1.366 . S
C6024 C6023 1.366 . S
C6024 C6025 1.414 . S
C6024 C6027 1.499 . S
C6025 H5999 0.950 . S
C6025 C6024 1.414 . S
C6025 C6026 1.374 . S
C6026 H6000 0.950 . S
C6026 C6022 1.385 . S
C6026 C6025 1.374 . S
C6027 C6024 1.499 . S
C6027 C6028 1.373 . S
C6027 C6029 1.389 . S
C6028 H6001 0.950 . S
C6028 C6014 1.377 1_545 S
C6028 C6027 1.373 . S
C6029 C6013 1.377 1_545 S
C6029 C6027 1.389 . S
C6029 C6030 1.524 . S
C6030 C6029 1.524 . S
C6030 C6031 1.397 . S
C6030 C6035 1.363 . S
C6031 H6002 0.950 . S
C6031 C6030 1.397 . S
C6031 C6032 1.334 . S
C6032 H6003 0.950 . S
C6032 C6031 1.334 . S
C6032 C6033 1.287 . S
C6033 C6032 1.287 . S
C6033 C6034 1.524 . S
C6033 H6036 0.999 . S
C6034 H6004 0.950 . S
C6034 C6033 1.524 . S
C6034 C6035 1.415 . S
C6035 H6005 0.979 . S
C6035 C6030 1.363 . S
C6035 C6034 1.415 . S
H6036 C6033 0.999 . S
H6037 C6018 0.913 . S
H6038 C6056 0.951 . S
H6039 C6058 0.951 . S
H6040 C6060 0.950 . S
H6041 C6061 0.950 . S
H6042 C6063 0.950 . S
H6043 C6066 0.950 . S
H6044 C6067 0.950 . S
H6045 C6069 0.950 . S
H6046 C6070 0.950 . S
H6047 C6071 0.951 . S
H6048 C6073 0.951 . S
H6049 C6075 0.950 . S
H6050 C6076 0.950 . S
H6051 C6078 0.950 . S
H6052 C6081 0.950 . S
H6053 C6082 0.950 . S
H6054 C6084 0.950 . S
H6055 C6085 0.950 . S
C6056 H6038 0.951 . S
C6056 C6057 1.366 1_554 S
C6056 C6058 1.388 . S
C6057 C6056 1.366 1_556 S
C6057 C6061 1.385 . S
C6058 H6039 0.951 . S
C6058 C6056 1.388 . S
C6058 C6059 1.366 1_554 S
C6059 C6058 1.366 1_556 S
C6059 C6060 1.414 . S
C6059 C6062 1.499 . S
C6060 H6040 0.950 . S
C6060 C6059 1.414 . S
C6060 C6061 1.374 . S
C6061 H6041 0.950 . S
C6061 C6057 1.385 . S
C6061 C6060 1.374 . S
C6062 C6059 1.499 . S
C6062 C6063 1.373 . S
C6062 C6064 1.389 1_556 S
C6063 H6042 0.950 . S
C6063 C6062 1.373 . S
C6063 C6079 1.377 . S
C6064 C6062 1.389 1_554 S
C6064 C6065 1.524 . S
C6064 C6078 1.377 . S
C6065 C6064 1.524 . S
C6065 C6066 1.397 . S
C6065 C6070 1.363 . S
C6066 H6043 0.950 . S
C6066 C6065 1.397 . S
C6066 C6067 1.334 . S
C6067 H6044 0.950 . S
C6067 C6066 1.334 . S
C6067 C6068 1.287 . S
C6068 C6067 1.287 . S
C6068 C6069 1.524 . S
C6068 H6087 0.913 . S
C6069 H6045 0.950 . S
C6069 C6068 1.524 . S
C6069 C6070 1.415 . S
C6070 H6046 0.950 . S
C6070 C6065 1.363 . S
C6070 C6069 1.415 . S
C6071 H6047 0.951 . S
C6071 C6072 1.366 1_556 S
C6071 C6073 1.388 . S
C6072 C6071 1.366 1_554 S
C6072 C6076 1.385 . S
C6073 H6048 0.951 . S
C6073 C6071 1.388 . S
C6073 C6074 1.366 1_556 S
C6074 C6073 1.366 1_554 S
C6074 C6075 1.414 . S
C6074 C6077 1.499 . S
C6075 H6049 0.950 . S
C6075 C6074 1.414 . S
C6075 C6076 1.374 . S
C6076 H6050 0.950 . S
C6076 C6072 1.385 . S
C6076 C6075 1.374 . S
C6077 C6074 1.499 . S
C6077 C6078 1.373 . S
C6077 C6079 1.389 1_554 S
C6078 H6051 0.950 . S
C6078 C6064 1.377 . S
C6078 C6077 1.373 . S
C6079 C6063 1.377 . S
C6079 C6077 1.389 1_556 S
C6079 C6080 1.524 . S
C6080 C6079 1.524 . S
C6080 C6081 1.397 . S
C6080 C6085 1.363 . S
C6081 H6052 0.950 . S
C6081 C6080 1.397 . S
C6081 C6082 1.334 . S
C6082 H6053 0.950 . S
C6082 C6081 1.334 . S
C6082 C6083 1.287 . S
C6083 C6082 1.287 . S
C6083 C6084 1.524 . S
C6083 H6086 0.999 . S
C6084 H6054 0.950 . S
C6084 C6083 1.524 . S
C6084 C6085 1.415 . S
C6085 H6055 0.950 . S
C6085 C6080 1.363 . S
C6085 C6084 1.415 . S
H6086 C6083 0.999 . S
H6087 C6068 0.913 . S
H6088 C6106 0.951 . S
H6089 C6108 0.951 . S
H6090 C6110 0.950 . S
H6091 C6111 0.950 . S
H6092 C6113 0.950 . S
H6093 C6116 0.950 . S
H6094 C6117 0.950 . S
H6095 C6119 0.950 . S
H6096 C6120 0.950 . S
H6097 C6121 0.951 . S
H6098 C6123 0.951 . S
H6099 C6125 0.950 . S
H6100 C6126 0.950 . S
H6101 C6128 0.950 . S
H6102 C6131 0.950 . S
H6103 C6132 0.950 . S
H6104 C6134 0.950 . S
H6105 C6135 0.950 . S
C6106 H6088 0.951 . S
C6106 C6107 1.366 . S
C6106 C6108 1.388 . S
C6107 C6106 1.366 . S
C6107 C6111 1.385 . S
C6108 H6089 0.951 . S
C6108 C6106 1.388 . S
C6108 C6109 1.366 . S
C6109 C6108 1.366 . S
C6109 C6110 1.414 . S
C6109 C6112 1.499 . S
C6110 H6090 0.950 . S
C6110 C6109 1.414 . S
C6110 C6111 1.374 . S
C6111 H6091 0.950 . S
C6111 C6107 1.385 . S
C6111 C6110 1.374 . S
C6112 C6109 1.499 . S
C6112 C6113 1.373 . S
C6112 C6114 1.389 . S
C6113 H6092 0.950 . S
C6113 C6112 1.373 . S
C6113 C6129 1.377 1_545 S
C6114 C6112 1.389 . S
C6114 C6115 1.524 . S
C6114 C6128 1.377 1_545 S
C6115 C6114 1.524 . S
C6115 C6116 1.397 . S
C6115 C6120 1.363 . S
C6116 H6093 0.950 . S
C6116 C6115 1.397 . S
C6116 C6117 1.334 . S
C6117 H6094 0.950 . S
C6117 C6116 1.334 . S
C6117 C6118 1.287 . S
C6118 C6117 1.287 . S
C6118 C6119 1.524 . S
C6118 H6137 0.913 . S
C6119 H6095 0.950 . S
C6119 C6118 1.524 . S
C6119 C6120 1.415 . S
C6120 H6096 0.950 . S
C6120 C6115 1.363 . S
C6120 C6119 1.415 . S
C6121 H6097 0.951 . S
C6121 C6122 1.366 . S
C6121 C6123 1.388 . S
C6122 C6121 1.366 . S
C6122 C6126 1.385 . S
C6123 H6098 0.951 . S
C6123 C6121 1.388 . S
C6123 C6124 1.366 . S
C6124 C6123 1.366 . S
C6124 C6125 1.414 . S
C6124 C6127 1.499 . S
C6125 H6099 0.950 . S
C6125 C6124 1.414 . S
C6125 C6126 1.374 . S
C6126 H6100 0.950 . S
C6126 C6122 1.385 . S
C6126 C6125 1.374 . S
C6127 C6124 1.499 . S
C6127 C6128 1.373 . S
C6127 C6129 1.389 . S
C6128 H6101 0.950 . S
C6128 C6114 1.377 1_565 S
C6128 C6127 1.373 . S
C6129 C6113 1.377 1_565 S
C6129 C6127 1.389 . S
C6129 C6130 1.524 . S
C6130 C6129 1.524 . S
C6130 C6131 1.397 . S
C6130 C6135 1.363 . S
C6131 H6102 0.950 . S
C6131 C6130 1.397 . S
C6131 C6132 1.334 . S
C6132 H6103 0.950 . S
C6132 C6131 1.334 . S
C6132 C6133 1.287 . S
C6133 C6132 1.287 . S
C6133 C6134 1.524 . S
C6133 H6136 0.999 . S
C6134 H6104 0.950 . S
C6134 C6133 1.524 . S
C6134 C6135 1.415 . S
C6135 H6105 0.950 . S
C6135 C6130 1.363 . S
C6135 C6134 1.415 . S
H6136 C6133 0.999 . S
H6137 C6118 0.913 . S
H6138 C6156 0.951 . S
H6139 C6158 0.951 . S
H6140 C6160 0.950 . S
H6141 C6161 0.950 . S
H6142 C6163 0.950 . S
H6143 C6166 0.950 . S
H6144 C6167 0.950 . S
H6145 C6169 0.950 . S
H6146 C6170 0.950 . S
H6147 C6171 0.951 . S
H6148 C6173 0.951 . S
H6149 C6175 0.950 . S
H6150 C6176 0.950 . S
H6151 C6178 0.950 . S
H6152 C6181 0.950 . S
H6153 C6182 0.950 . S
H6154 C6184 0.950 . S
H6155 C6185 0.950 . S
C6156 H6138 0.951 . S
C6156 C6157 1.366 . S
C6156 C6158 1.388 . S
C6157 C6156 1.366 . S
C6157 C6161 1.385 . S
C6158 H6139 0.951 . S
C6158 C6156 1.388 . S
C6158 C6159 1.366 . S
C6159 C6158 1.366 . S
C6159 C6160 1.414 . S
C6159 C6162 1.499 . S
C6160 H6140 0.950 . S
C6160 C6159 1.414 . S
C6160 C6161 1.374 . S
C6161 H6141 0.950 . S
C6161 C6157 1.385 . S
C6161 C6160 1.374 . S
C6162 C6159 1.499 . S
C6162 C6163 1.373 . S
C6162 C6164 1.389 . S
C6163 H6142 0.950 . S
C6163 C6162 1.373 . S
C6163 C6179 1.377 . S
C6164 C6162 1.389 . S
C6164 C6165 1.524 . S
C6164 C6178 1.377 . S
C6165 C6164 1.524 . S
C6165 C6166 1.397 . S
C6165 C6170 1.363 . S
C6166 H6143 0.950 . S
C6166 C6165 1.397 . S
C6166 C6167 1.334 . S
C6167 H6144 0.950 . S
C6167 C6166 1.334 . S
C6167 C6168 1.287 . S
C6168 C6167 1.287 . S
C6168 C6169 1.524 . S
C6168 H6187 0.913 . S
C6169 H6145 0.950 . S
C6169 C6168 1.524 . S
C6169 C6170 1.415 . S
C6170 H6146 0.950 . S
C6170 C6165 1.363 . S
C6170 C6169 1.415 . S
C6171 H6147 0.951 . S
C6171 C6172 1.366 . S
C6171 C6173 1.388 . S
C6172 C6171 1.366 . S
C6172 C6176 1.385 . S
C6173 H6148 0.951 . S
C6173 C6171 1.388 . S
C6173 C6174 1.366 . S
C6174 C6173 1.366 . S
C6174 C6175 1.414 . S
C6174 C6177 1.499 . S
C6175 H6149 0.950 . S
C6175 C6174 1.414 . S
C6175 C6176 1.374 . S
C6176 H6150 0.950 . S
C6176 C6172 1.385 . S
C6176 C6175 1.374 . S
C6177 C6174 1.499 . S
C6177 C6178 1.373 . S
C6177 C6179 1.389 . S
C6178 H6151 0.950 . S
C6178 C6164 1.377 . S
C6178 C6177 1.373 . S
C6179 C6163 1.377 . S
C6179 C6177 1.389 . S
C6179 C6180 1.524 . S
C6180 C6179 1.524 . S
C6180 C6181 1.397 . S
C6180 C6185 1.363 . S
C6181 H6152 0.950 . S
C6181 C6180 1.397 . S
C6181 C6182 1.334 . S
C6182 H6153 0.950 . S
C6182 C6181 1.334 . S
C6182 C6183 1.287 . S
C6183 C6182 1.287 . S
C6183 C6184 1.524 . S
C6183 H6186 0.999 . S
C6184 H6154 0.950 . S
C6184 C6183 1.524 . S
C6184 C6185 1.415 . S
C6185 H6155 0.950 . S
C6185 C6180 1.363 . S
C6185 C6184 1.415 . S
H6186 C6183 0.999 . S
H6187 C6168 0.913 . S
H6188 C6206 0.951 . S
H6189 C6208 0.951 . S
H6190 C6210 0.950 . S
H6191 C6211 0.950 . S
H6192 C6213 0.950 . S
H6193 C6216 0.950 . S
H6194 C6217 0.950 . S
H6195 C6219 0.950 . S
H6196 C6220 0.950 . S
H6197 C6221 0.951 . S
H6198 C6223 0.951 . S
H6199 C6225 0.950 . S
H6200 C6226 0.950 . S
H6201 C6228 0.950 . S
H6202 C6231 0.950 . S
H6203 C6232 0.950 . S
H6204 C6234 0.950 . S
H6205 C6235 0.950 . S
C6206 H6188 0.951 . S
C6206 C6207 1.366 . S
C6206 C6208 1.388 . S
C6207 C6206 1.366 . S
C6207 C6211 1.385 . S
C6208 H6189 0.951 . S
C6208 C6206 1.388 . S
C6208 C6209 1.366 . S
C6209 C6208 1.366 . S
C6209 C6210 1.414 . S
C6209 C6212 1.499 . S
C6210 H6190 0.950 . S
C6210 C6209 1.414 . S
C6210 C6211 1.374 . S
C6211 H6191 0.950 . S
C6211 C6207 1.385 . S
C6211 C6210 1.374 . S
C6212 C6209 1.499 . S
C6212 C6213 1.373 . S
C6212 C6214 1.389 . S
C6213 H6192 0.950 . S
C6213 C6212 1.373 . S
C6213 C6229 1.377 1_545 S
C6214 C6212 1.389 . S
C6214 C6215 1.524 . S
C6214 C6228 1.377 1_545 S
C6215 C6214 1.524 . S
C6215 C6216 1.397 . S
C6215 C6220 1.363 . S
C6216 H6193 0.950 . S
C6216 C6215 1.397 . S
C6216 C6217 1.334 . S
C6217 H6194 0.950 . S
C6217 C6216 1.334 . S
C6217 C6218 1.287 . S
C6218 C6217 1.287 . S
C6218 C6219 1.524 . S
C6218 H6237 0.913 . S
C6219 H6195 0.950 . S
C6219 C6218 1.524 . S
C6219 C6220 1.415 . S
C6220 H6196 0.950 . S
C6220 C6215 1.363 . S
C6220 C6219 1.415 . S
C6221 H6197 0.951 . S
C6221 C6222 1.366 . S
C6221 C6223 1.388 . S
C6222 C6221 1.366 . S
C6222 C6226 1.385 . S
C6223 H6198 0.951 . S
C6223 C6221 1.388 . S
C6223 C6224 1.366 . S
C6224 C6223 1.366 . S
C6224 C6225 1.414 . S
C6224 C6227 1.499 . S
C6225 H6199 0.950 . S
C6225 C6224 1.414 . S
C6225 C6226 1.374 . S
C6226 H6200 0.950 . S
C6226 C6222 1.385 . S
C6226 C6225 1.374 . S
C6227 C6224 1.499 . S
C6227 C6228 1.373 . S
C6227 C6229 1.389 . S
C6228 H6201 0.950 . S
C6228 C6214 1.377 1_565 S
C6228 C6227 1.373 . S
C6229 C6213 1.377 1_565 S
C6229 C6227 1.389 . S
C6229 C6230 1.524 . S
C6230 C6229 1.524 . S
C6230 C6231 1.397 . S
C6230 C6235 1.363 . S
C6231 H6202 0.950 . S
C6231 C6230 1.397 . S
C6231 C6232 1.334 . S
C6232 H6203 0.950 . S
C6232 C6231 1.334 . S
C6232 C6233 1.287 . S
C6233 C6232 1.287 . S
C6233 C6234 1.524 . S
C6233 H6236 0.999 . S
C6234 H6204 0.950 . S
C6234 C6233 1.524 . S
C6234 C6235 1.415 . S
C6235 H6205 0.950 . S
C6235 C6230 1.363 . S
C6235 C6234 1.415 . S
H6236 C6233 0.999 . S
H6237 C6218 0.913 . S
H6238 C6256 0.951 . S
H6239 C6258 0.951 . S
H6240 C6260 0.950 . S
H6241 C6261 0.950 . S
H6242 C6263 0.950 . S
H6243 C6266 0.950 . S
H6244 C6267 0.950 . S
H6245 C6269 0.950 1_554 S
H6246 C6270 0.950 . S
H6247 C6271 0.951 . S
H6248 C6273 0.951 . S
H6249 C6275 0.950 . S
H6250 C6276 0.950 . S
H6251 C6278 0.950 . S
H6252 C6281 0.950 . S
H6253 C6282 0.950 . S
H6254 C6284 0.950 1_556 S
H6255 C6285 0.950 . S
C6256 H6238 0.951 . S
C6256 C6257 1.366 1_554 S
C6256 C6258 1.388 . S
C6257 C6256 1.366 1_556 S
C6257 C6261 1.385 . S
C6258 H6239 0.951 . S
C6258 C6256 1.388 . S
C6258 C6259 1.366 1_554 S
C6259 C6258 1.366 1_556 S
C6259 C6260 1.414 . S
C6259 C6262 1.499 . S
C6260 H6240 0.950 . S
C6260 C6259 1.414 . S
C6260 C6261 1.374 . S
C6261 H6241 0.950 . S
C6261 C6257 1.385 . S
C6261 C6260 1.374 . S
C6262 C6259 1.499 . S
C6262 C6263 1.370 1_556 S
C6262 C6264 1.389 . S
C6263 H6242 0.950 . S
C6263 C6262 1.370 1_554 S
C6263 C6279 1.380 . S
C6264 C6262 1.389 . S
C6264 C6265 1.524 . S
C6264 C6278 1.380 . S
C6265 C6264 1.524 . S
C6265 C6266 1.397 . S
C6265 C6270 1.363 1_556 S
C6266 H6243 0.950 . S
C6266 C6265 1.397 . S
C6266 C6267 1.334 . S
C6267 H6244 0.950 . S
C6267 C6266 1.334 . S
C6267 C6268 1.287 . S
C6268 C6267 1.287 . S
C6268 C6269 1.524 . S
C6268 H6287 0.913 . S
C6269 H6245 0.950 1_556 S
C6269 C6268 1.524 . S
C6269 C6270 1.415 1_556 S
C6270 H6246 0.950 . S
C6270 C6265 1.363 1_554 S
C6270 C6269 1.415 1_554 S
C6271 H6247 0.951 . S
C6271 C6272 1.366 1_556 S
C6271 C6273 1.388 . S
C6272 C6271 1.366 1_554 S
C6272 C6276 1.385 . S
C6273 H6248 0.951 . S
C6273 C6271 1.388 . S
C6273 C6274 1.366 1_556 S
C6274 C6273 1.366 1_554 S
C6274 C6275 1.414 . S
C6274 C6277 1.499 . S
C6275 H6249 0.950 . S
C6275 C6274 1.414 . S
C6275 C6276 1.374 . S
C6276 H6250 0.950 . S
C6276 C6272 1.385 . S
C6276 C6275 1.374 . S
C6277 C6274 1.499 . S
C6277 C6278 1.370 1_554 S
C6277 C6279 1.389 . S
C6278 H6251 0.950 . S
C6278 C6264 1.380 . S
C6278 C6277 1.370 1_556 S
C6279 C6263 1.380 . S
C6279 C6277 1.389 . S
C6279 C6280 1.524 . S
C6280 C6279 1.524 . S
C6280 C6281 1.397 . S
C6280 C6285 1.363 1_554 S
C6281 H6252 0.950 . S
C6281 C6280 1.397 . S
C6281 C6282 1.334 . S
C6282 H6253 0.950 . S
C6282 C6281 1.334 . S
C6282 C6283 1.287 . S
C6283 C6282 1.287 . S
C6283 C6284 1.524 . S
C6283 H6286 0.999 . S
C6284 H6254 0.950 1_554 S
C6284 C6283 1.524 . S
C6284 C6285 1.415 1_554 S
C6285 H6255 0.950 . S
C6285 C6280 1.363 1_556 S
C6285 C6284 1.415 1_556 S
H6286 C6283 0.999 . S
H6287 C6268 0.913 . S
H6288 C6306 0.951 . S
H6289 C6308 0.951 . S
H6290 C6310 0.950 . S
H6291 C6311 0.950 . S
H6292 C6313 0.950 . S
H6293 C6316 0.950 . S
H6294 C6317 0.950 . S
H6295 C6319 0.950 . S
H6296 C6320 0.950 . S
H6297 C6321 0.951 . S
H6298 C6323 0.951 . S
H6299 C6325 0.950 . S
H6300 C6326 0.950 . S
H6301 C6328 0.950 . S
H6302 C6331 0.950 . S
H6303 C6332 0.950 . S
H6304 C6334 0.950 . S
H6305 C6335 0.950 . S
C6306 H6288 0.951 . S
C6306 C6307 1.366 . S
C6306 C6308 1.388 . S
C6307 C6306 1.366 . S
C6307 C6311 1.385 . S
C6308 H6289 0.951 . S
C6308 C6306 1.388 . S
C6308 C6309 1.366 . S
C6309 C6308 1.366 . S
C6309 C6310 1.414 . S
C6309 C6312 1.499 . S
C6310 H6290 0.950 . S
C6310 C6309 1.414 . S
C6310 C6311 1.374 . S
C6311 H6291 0.950 . S
C6311 C6307 1.385 . S
C6311 C6310 1.374 . S
C6312 C6309 1.499 . S
C6312 C6313 1.373 . S
C6312 C6314 1.389 . S
C6313 H6292 0.950 . S
C6313 C6312 1.373 . S
C6313 C6329 1.377 . S
C6314 C6312 1.389 . S
C6314 C6315 1.524 . S
C6314 C6328 1.377 . S
C6315 C6314 1.524 . S
C6315 C6316 1.397 . S
C6315 C6320 1.363 . S
C6316 H6293 0.950 . S
C6316 C6315 1.397 . S
C6316 C6317 1.334 . S
C6317 H6294 0.950 . S
C6317 C6316 1.334 . S
C6317 C6318 1.287 . S
C6318 C6317 1.287 . S
C6318 C6319 1.524 . S
C6318 H6337 0.913 . S
C6319 H6295 0.950 . S
C6319 C6318 1.524 . S
C6319 C6320 1.415 . S
C6320 H6296 0.950 . S
C6320 C6315 1.363 . S
C6320 C6319 1.415 . S
C6321 H6297 0.951 . S
C6321 C6322 1.366 . S
C6321 C6323 1.388 . S
C6322 C6321 1.366 . S
C6322 C6326 1.385 . S
C6323 H6298 0.951 . S
C6323 C6321 1.388 . S
C6323 C6324 1.366 . S
C6324 C6323 1.366 . S
C6324 C6325 1.414 . S
C6324 C6327 1.499 . S
C6325 H6299 0.950 . S
C6325 C6324 1.414 . S
C6325 C6326 1.374 . S
C6326 H6300 0.950 . S
C6326 C6322 1.385 . S
C6326 C6325 1.374 . S
C6327 C6324 1.499 . S
C6327 C6328 1.373 . S
C6327 C6329 1.389 . S
C6328 H6301 0.950 . S
C6328 C6314 1.377 . S
C6328 C6327 1.373 . S
C6329 C6313 1.377 . S
C6329 C6327 1.389 . S
C6329 C6330 1.524 . S
C6330 C6329 1.524 . S
C6330 C6331 1.397 . S
C6330 C6335 1.363 . S
C6331 H6302 0.950 . S
C6331 C6330 1.397 . S
C6331 C6332 1.334 . S
C6332 H6303 0.950 . S
C6332 C6331 1.334 . S
C6332 C6333 1.287 . S
C6333 C6332 1.287 . S
C6333 C6334 1.524 . S
C6333 H6336 0.999 . S
C6334 H6304 0.950 . S
C6334 C6333 1.524 . S
C6334 C6335 1.415 . S
C6335 H6305 0.950 . S
C6335 C6330 1.363 . S
C6335 C6334 1.415 . S
H6336 C6333 0.999 . S
H6337 C6318 0.913 . S
H6338 C6356 0.951 . S
H6339 C6358 0.951 . S
H6340 C6360 0.950 1_554 S
H6341 C6361 0.950 . S
H6342 C6363 0.950 . S
H6343 C6366 0.950 . S
H6344 C6367 0.950 . S
H6345 C6369 0.950 . S
H6346 C6370 0.950 . S
H6347 C6371 0.951 . S
H6348 C6373 0.951 . S
H6349 C6375 0.950 1_556 S
H6350 C6376 0.950 . S
H6351 C6378 0.950 . S
H6352 C6381 0.950 . S
H6353 C6382 0.950 . S
H6354 C6384 0.950 . S
H6355 C6385 0.950 . S
C6356 H6338 0.951 . S
C6356 C6357 1.366 . S
C6356 C6358 1.388 . S
C6357 C6356 1.366 . S
C6357 C6361 1.385 . S
C6358 H6339 0.951 . S
C6358 C6356 1.388 . S
C6358 C6359 1.366 . S
C6359 C6358 1.366 . S
C6359 C6360 1.414 . S
C6359 C6362 1.499 . S
C6360 H6340 0.950 1_556 S
C6360 C6359 1.414 . S
C6360 C6361 1.374 . S
C6361 H6341 0.950 . S
C6361 C6357 1.385 . S
C6361 C6360 1.374 . S
C6362 C6359 1.499 . S
C6362 C6363 1.373 1_556 S
C6362 C6364 1.389 . S
C6363 H6342 0.950 . S
C6363 C6362 1.373 1_554 S
C6363 C6379 1.377 . S
C6364 C6362 1.389 . S
C6364 C6365 1.524 . S
C6364 C6378 1.377 . S
C6365 C6364 1.524 . S
C6365 C6366 1.397 . S
C6365 C6370 1.363 . S
C6366 H6343 0.950 . S
C6366 C6365 1.397 . S
C6366 C6367 1.334 . S
C6367 H6344 0.950 . S
C6367 C6366 1.334 . S
C6367 C6368 1.287 . S
C6368 C6367 1.287 . S
C6368 C6369 1.524 . S
C6368 H6387 0.913 . S
C6369 H6345 0.950 . S
C6369 C6368 1.524 . S
C6369 C6370 1.415 . S
C6370 H6346 0.950 . S
C6370 C6365 1.363 . S
C6370 C6369 1.415 . S
C6371 H6347 0.951 . S
C6371 C6372 1.366 . S
C6371 C6373 1.388 . S
C6372 C6371 1.366 . S
C6372 C6376 1.385 . S
C6373 H6348 0.951 . S
C6373 C6371 1.388 . S
C6373 C6374 1.366 . S
C6374 C6373 1.366 . S
C6374 C6375 1.414 . S
C6374 C6377 1.499 . S
C6375 H6349 0.950 1_554 S
C6375 C6374 1.414 . S
C6375 C6376 1.374 . S
C6376 H6350 0.950 . S
C6376 C6372 1.385 . S
C6376 C6375 1.374 . S
C6377 C6374 1.499 . S
C6377 C6378 1.373 1_554 S
C6377 C6379 1.389 . S
C6378 H6351 0.950 . S
C6378 C6364 1.377 . S
C6378 C6377 1.373 1_556 S
C6379 C6363 1.377 . S
C6379 C6377 1.389 . S
C6379 C6380 1.524 . S
C6380 C6379 1.524 . S
C6380 C6381 1.397 . S
C6380 C6385 1.363 . S
C6381 H6352 0.950 . S
C6381 C6380 1.397 . S
C6381 C6382 1.334 . S
C6382 H6353 0.950 . S
C6382 C6381 1.334 . S
C6382 C6383 1.287 . S
C6383 C6382 1.287 . S
C6383 C6384 1.524 . S
C6383 H6386 0.999 . S
C6384 H6354 0.950 . S
C6384 C6383 1.524 . S
C6384 C6385 1.415 . S
C6385 H6355 0.950 . S
C6385 C6380 1.363 . S
C6385 C6384 1.415 . S
H6386 C6383 0.999 . S
H6387 C6368 0.913 . S
H6388 C6406 0.951 . S
H6389 C6408 0.951 . S
H6390 C6410 0.950 . S
H6391 C6411 0.950 . S
H6392 C6413 0.950 . S
H6393 C6416 0.950 . S
H6394 C6417 0.950 . S
H6395 C6419 0.950 . S
H6396 C6420 0.950 . S
H6397 C6421 0.951 . S
H6398 C6423 0.951 . S
H6399 C6425 0.950 . S
H6400 C6426 0.950 . S
H6401 C6428 0.950 . S
H6402 C6431 0.950 . S
H6403 C6432 0.950 . S
H6404 C6434 0.950 . S
H6405 C6435 0.950 . S
C6406 H6388 0.951 . S
C6406 C6407 1.366 . S
C6406 C6408 1.388 . S
C6407 C6406 1.366 . S
C6407 C6411 1.385 . S
C6408 H6389 0.951 . S
C6408 C6406 1.388 . S
C6408 C6409 1.366 . S
C6409 C6408 1.366 . S
C6409 C6410 1.414 . S
C6409 C6412 1.499 . S
C6410 H6390 0.950 . S
C6410 C6409 1.414 . S
C6410 C6411 1.374 . S
C6411 H6391 0.950 . S
C6411 C6407 1.385 . S
C6411 C6410 1.374 . S
C6412 C6409 1.499 . S
C6412 C6413 1.373 . S
C6412 C6414 1.389 . S
C6413 H6392 0.950 . S
C6413 C6412 1.373 . S
C6413 C6429 1.377 . S
C6414 C6412 1.389 . S
C6414 C6415 1.524 . S
C6414 C6428 1.377 . S
C6415 C6414 1.524 . S
C6415 C6416 1.397 . S
C6415 C6420 1.363 . S
C6416 H6393 0.950 . S
C6416 C6415 1.397 . S
C6416 C6417 1.334 . S
C6417 H6394 0.950 . S
C6417 C6416 1.334 . S
C6417 C6418 1.287 . S
C6418 C6417 1.287 . S
C6418 C6419 1.524 . S
C6418 H6437 0.913 . S
C6419 H6395 0.950 . S
C6419 C6418 1.524 . S
C6419 C6420 1.415 . S
C6420 H6396 0.950 . S
C6420 C6415 1.363 . S
C6420 C6419 1.415 . S
C6421 H6397 0.951 . S
C6421 C6422 1.366 . S
C6421 C6423 1.388 . S
C6422 C6421 1.366 . S
C6422 C6426 1.385 . S
C6423 H6398 0.951 . S
C6423 C6421 1.388 . S
C6423 C6424 1.366 . S
C6424 C6423 1.366 . S
C6424 C6425 1.414 . S
C6424 C6427 1.499 . S
C6425 H6399 0.950 . S
C6425 C6424 1.414 . S
C6425 C6426 1.374 . S
C6426 H6400 0.950 . S
C6426 C6422 1.385 . S
C6426 C6425 1.374 . S
C6427 C6424 1.499 . S
C6427 C6428 1.373 . S
C6427 C6429 1.389 . S
C6428 H6401 0.950 . S
C6428 C6414 1.377 . S
C6428 C6427 1.373 . S
C6429 C6413 1.377 . S
C6429 C6427 1.389 . S
C6429 C6430 1.524 . S
C6430 C6429 1.524 . S
C6430 C6431 1.397 . S
C6430 C6435 1.363 . S
C6431 H6402 0.950 . S
C6431 C6430 1.397 . S
C6431 C6432 1.334 . S
C6432 H6403 0.950 . S
C6432 C6431 1.334 . S
C6432 C6433 1.287 . S
C6433 C6432 1.287 . S
C6433 C6434 1.524 . S
C6433 H6436 0.999 . S
C6434 H6404 0.950 . S
C6434 C6433 1.524 . S
C6434 C6435 1.415 . S
C6435 H6405 0.950 . S
C6435 C6430 1.363 . S
C6435 C6434 1.415 . S
H6436 C6433 0.999 . S
H6437 C6418 0.913 . S
H6438 C6456 0.951 . S
H6439 C6458 0.951 . S
H6440 C6460 0.950 . S
H6441 C6461 0.950 . S
H6442 C6463 0.950 . S
H6443 C6466 0.950 . S
H6444 C6467 0.950 . S
H6445 C6469 0.950 . S
H6446 C6470 0.950 . S
H6447 C6471 0.951 . S
H6448 C6473 0.951 . S
H6449 C6475 0.950 . S
H6450 C6476 0.950 . S
H6451 C6478 0.950 . S
H6452 C6481 0.950 . S
H6453 C6482 0.950 . S
H6454 C6484 0.950 . S
H6455 C6485 0.950 . S
C6456 H6438 0.951 . S
C6456 C6457 1.366 . S
C6456 C6458 1.388 . S
C6457 C6456 1.366 . S
C6457 C6461 1.385 . S
C6458 H6439 0.951 . S
C6458 C6456 1.388 . S
C6458 C6459 1.366 . S
C6459 C6458 1.366 . S
C6459 C6460 1.414 . S
C6459 C6462 1.499 . S
C6460 H6440 0.950 . S
C6460 C6459 1.414 . S
C6460 C6461 1.374 . S
C6461 H6441 0.950 . S
C6461 C6457 1.385 . S
C6461 C6460 1.374 . S
C6462 C6459 1.499 . S
C6462 C6463 1.373 . S
C6462 C6464 1.389 . S
C6463 H6442 0.950 . S
C6463 C6462 1.373 . S
C6463 C6479 1.377 . S
C6464 C6462 1.389 . S
C6464 C6465 1.524 . S
C6464 C6478 1.377 . S
C6465 C6464 1.524 . S
C6465 C6466 1.397 . S
C6465 C6470 1.363 . S
C6466 H6443 0.950 . S
C6466 C6465 1.397 . S
C6466 C6467 1.334 . S
C6467 H6444 0.950 . S
C6467 C6466 1.334 . S
C6467 C6468 1.287 . S
C6468 C6467 1.287 . S
C6468 C6469 1.524 . S
C6468 H6487 0.913 . S
C6469 H6445 0.950 . S
C6469 C6468 1.524 . S
C6469 C6470 1.415 . S
C6470 H6446 0.950 . S
C6470 C6465 1.363 . S
C6470 C6469 1.415 . S
C6471 H6447 0.951 . S
C6471 C6472 1.366 . S
C6471 C6473 1.388 . S
C6472 C6471 1.366 . S
C6472 C6476 1.385 . S
C6473 H6448 0.951 . S
C6473 C6471 1.388 . S
C6473 C6474 1.366 . S
C6474 C6473 1.366 . S
C6474 C6475 1.414 . S
C6474 C6477 1.499 . S
C6475 H6449 0.950 . S
C6475 C6474 1.414 . S
C6475 C6476 1.374 . S
C6476 H6450 0.950 . S
C6476 C6472 1.385 . S
C6476 C6475 1.374 . S
C6477 C6474 1.499 . S
C6477 C6478 1.373 . S
C6477 C6479 1.389 . S
C6478 H6451 0.950 . S
C6478 C6464 1.377 . S
C6478 C6477 1.373 . S
C6479 C6463 1.377 . S
C6479 C6477 1.389 . S
C6479 C6480 1.524 . S
C6480 C6479 1.524 . S
C6480 C6481 1.397 . S
C6480 C6485 1.363 . S
C6481 H6452 0.950 . S
C6481 C6480 1.397 . S
C6481 C6482 1.334 . S
C6482 H6453 0.950 . S
C6482 C6481 1.334 . S
C6482 C6483 1.287 . S
C6483 C6482 1.287 . S
C6483 C6484 1.524 . S
C6483 H6486 0.999 . S
C6484 H6454 0.950 . S
C6484 C6483 1.524 . S
C6484 C6485 1.415 . S
C6485 H6455 0.950 . S
C6485 C6480 1.363 . S
C6485 C6484 1.415 . S
H6486 C6483 0.999 . S
H6487 C6468 0.913 . S
H6488 C6506 0.951 . S
H6489 C6508 0.951 . S
H6490 C6510 0.950 . S
H6491 C6511 0.950 . S
H6492 C6513 0.950 . S
H6493 C6516 0.950 . S
H6494 C6517 0.950 . S
H6495 C6519 0.950 . S
H6496 C6520 0.950 . S
H6497 C6521 0.951 . S
H6498 C6523 0.951 . S
H6499 C6525 0.950 . S
H6500 C6526 0.950 . S
H6501 C6528 0.950 . S
H6502 C6531 0.950 . S
H6503 C6532 0.950 . S
H6504 C6534 0.950 . S
H6505 C6535 0.950 . S
C6506 H6488 0.951 . S
C6506 C6507 1.366 . S
C6506 C6508 1.388 . S
C6507 C6506 1.366 . S
C6507 C6511 1.385 . S
C6508 H6489 0.951 . S
C6508 C6506 1.388 . S
C6508 C6509 1.366 . S
C6509 C6508 1.366 . S
C6509 C6510 1.414 . S
C6509 C6512 1.499 . S
C6510 H6490 0.950 . S
C6510 C6509 1.414 . S
C6510 C6511 1.374 . S
C6511 H6491 0.950 . S
C6511 C6507 1.385 . S
C6511 C6510 1.374 . S
C6512 C6509 1.499 . S
C6512 C6513 1.373 . S
C6512 C6514 1.389 . S
C6513 H6492 0.950 . S
C6513 C6512 1.373 . S
C6513 C6529 1.377 . S
C6514 C6512 1.389 . S
C6514 C6515 1.524 . S
C6514 C6528 1.377 . S
C6515 C6514 1.524 . S
C6515 C6516 1.397 . S
C6515 C6520 1.363 . S
C6516 H6493 0.950 . S
C6516 C6515 1.397 . S
C6516 C6517 1.334 . S
C6517 H6494 0.950 . S
C6517 C6516 1.334 . S
C6517 C6518 1.287 . S
C6518 C6517 1.287 . S
C6518 C6519 1.524 . S
C6518 H6537 0.913 . S
C6519 H6495 0.950 . S
C6519 C6518 1.524 . S
C6519 C6520 1.415 . S
C6520 H6496 0.950 . S
C6520 C6515 1.363 . S
C6520 C6519 1.415 . S
C6521 H6497 0.951 . S
C6521 C6522 1.366 . S
C6521 C6523 1.388 . S
C6522 C6521 1.366 . S
C6522 C6526 1.385 . S
C6523 H6498 0.951 . S
C6523 C6521 1.388 . S
C6523 C6524 1.366 . S
C6524 C6523 1.366 . S
C6524 C6525 1.414 . S
C6524 C6527 1.499 . S
C6525 H6499 0.950 . S
C6525 C6524 1.414 . S
C6525 C6526 1.374 . S
C6526 H6500 0.950 . S
C6526 C6522 1.385 . S
C6526 C6525 1.374 . S
C6527 C6524 1.499 . S
C6527 C6528 1.373 . S
C6527 C6529 1.389 . S
C6528 H6501 0.950 . S
C6528 C6514 1.377 . S
C6528 C6527 1.373 . S
C6529 C6513 1.377 . S
C6529 C6527 1.389 . S
C6529 C6530 1.524 . S
C6530 C6529 1.524 . S
C6530 C6531 1.397 . S
C6530 C6535 1.363 . S
C6531 H6502 0.950 . S
C6531 C6530 1.397 . S
C6531 C6532 1.334 . S
C6532 H6503 0.950 . S
C6532 C6531 1.334 . S
C6532 C6533 1.287 . S
C6533 C6532 1.287 . S
C6533 C6534 1.524 . S
C6533 H6536 0.999 . S
C6534 H6504 0.950 . S
C6534 C6533 1.524 . S
C6534 C6535 1.415 . S
C6535 H6505 0.950 . S
C6535 C6530 1.363 . S
C6535 C6534 1.415 . S
H6536 C6533 0.999 . S
H6537 C6518 0.913 . S
H6538 C6556 0.951 . S
H6539 C6558 0.951 . S
H6540 C6560 0.950 . S
H6541 C6561 0.950 . S
H6542 C6563 0.950 . S
H6543 C6566 0.950 . S
H6544 C6567 0.950 . S
H6545 C6569 0.950 . S
H6546 C6570 0.950 . S
H6547 C6571 0.951 . S
H6548 C6573 0.951 . S
H6549 C6575 0.950 . S
H6550 C6576 0.950 . S
H6551 C6578 0.950 . S
H6552 C6581 0.950 . S
H6553 C6582 0.950 . S
H6554 C6584 0.950 . S
H6555 C6585 0.950 . S
C6556 H6538 0.951 . S
C6556 C6557 1.366 . S
C6556 C6558 1.388 . S
C6557 C6556 1.366 . S
C6557 C6561 1.385 1_556 S
C6558 H6539 0.951 . S
C6558 C6556 1.388 . S
C6558 C6559 1.366 . S
C6559 C6558 1.366 . S
C6559 C6560 1.414 1_556 S
C6559 C6562 1.499 . S
C6560 H6540 0.950 . S
C6560 C6559 1.414 1_554 S
C6560 C6561 1.374 . S
C6561 H6541 0.950 . S
C6561 C6557 1.385 1_554 S
C6561 C6560 1.374 . S
C6562 C6559 1.499 . S
C6562 C6563 1.373 1_556 S
C6562 C6564 1.389 . S
C6563 H6542 0.950 . S
C6563 C6562 1.373 1_554 S
C6563 C6579 1.377 . S
C6564 C6562 1.389 . S
C6564 C6565 1.524 . S
C6564 C6578 1.377 . S
C6565 C6564 1.524 . S
C6565 C6566 1.397 1_556 S
C6565 C6570 1.363 . S
C6566 H6543 0.950 . S
C6566 C6565 1.397 1_554 S
C6566 C6567 1.334 . S
C6567 H6544 0.950 . S
C6567 C6566 1.334 . S
C6567 C6568 1.287 1_554 S
C6568 C6567 1.287 1_556 S
C6568 C6569 1.524 . S
C6568 H6587 0.913 . S
C6569 H6545 0.950 . S
C6569 C6568 1.524 . S
C6569 C6570 1.415 . S
C6570 H6546 0.950 . S
C6570 C6565 1.363 . S
C6570 C6569 1.415 . S
C6571 H6547 0.951 . S
C6571 C6572 1.366 . S
C6571 C6573 1.388 . S
C6572 C6571 1.366 . S
C6572 C6576 1.385 1_554 S
C6573 H6548 0.951 . S
C6573 C6571 1.388 . S
C6573 C6574 1.366 . S
C6574 C6573 1.366 . S
C6574 C6575 1.414 1_554 S
C6574 C6577 1.499 . S
C6575 H6549 0.950 . S
C6575 C6574 1.414 1_556 S
C6575 C6576 1.374 . S
C6576 H6550 0.950 . S
C6576 C6572 1.385 1_556 S
C6576 C6575 1.374 . S
C6577 C6574 1.499 . S
C6577 C6578 1.373 1_554 S
C6577 C6579 1.389 . S
C6578 H6551 0.950 . S
C6578 C6564 1.377 . S
C6578 C6577 1.373 1_556 S
C6579 C6563 1.377 . S
C6579 C6577 1.389 . S
C6579 C6580 1.524 . S
C6580 C6579 1.524 . S
C6580 C6581 1.397 1_554 S
C6580 C6585 1.363 . S
C6581 H6552 0.950 . S
C6581 C6580 1.397 1_556 S
C6581 C6582 1.334 . S
C6582 H6553 0.950 . S
C6582 C6581 1.334 . S
C6582 C6583 1.287 1_556 S
C6583 C6582 1.287 1_554 S
C6583 C6584 1.524 . S
C6583 H6586 0.999 . S
C6584 H6554 0.950 . S
C6584 C6583 1.524 . S
C6584 C6585 1.415 . S
C6585 H6555 0.950 . S
C6585 C6580 1.363 . S
C6585 C6584 1.415 . S
H6586 C6583 0.999 . S
H6587 C6568 0.913 . S
H6588 C6606 0.951 . S
H6589 C6608 0.951 . S
H6590 C6610 0.950 . S
H6591 C6611 0.950 . S
H6592 C6613 0.950 . S
H6593 C6616 0.950 . S
H6594 C6617 0.950 . S
H6595 C6619 0.950 . S
H6596 C6620 0.950 . S
H6597 C6621 0.951 . S
H6598 C6623 0.951 . S
H6599 C6625 0.950 . S
H6600 C6626 0.950 . S
H6601 C6628 0.950 . S
H6602 C6631 0.950 . S
H6603 C6632 0.950 . S
H6604 C6634 0.950 . S
H6605 C6635 0.950 . S
C6606 H6588 0.951 . S
C6606 C6607 1.366 . S
C6606 C6608 1.388 . S
C6607 C6606 1.366 . S
C6607 C6611 1.385 . S
C6608 H6589 0.951 . S
C6608 C6606 1.388 . S
C6608 C6609 1.366 . S
C6609 C6608 1.366 . S
C6609 C6610 1.414 . S
C6609 C6612 1.499 . S
C6610 H6590 0.950 . S
C6610 C6609 1.414 . S
C6610 C6611 1.374 . S
C6611 H6591 0.950 . S
C6611 C6607 1.385 . S
C6611 C6610 1.374 . S
C6612 C6609 1.499 . S
C6612 C6613 1.373 . S
C6612 C6614 1.389 . S
C6613 H6592 0.950 . S
C6613 C6612 1.373 . S
C6613 C6629 1.377 . S
C6614 C6612 1.389 . S
C6614 C6615 1.524 . S
C6614 C6628 1.377 . S
C6615 C6614 1.524 . S
C6615 C6616 1.397 . S
C6615 C6620 1.363 . S
C6616 H6593 0.950 . S
C6616 C6615 1.397 . S
C6616 C6617 1.334 . S
C6617 H6594 0.950 . S
C6617 C6616 1.334 . S
C6617 C6618 1.287 . S
C6618 C6617 1.287 . S
C6618 C6619 1.524 . S
C6618 H6637 0.913 . S
C6619 H6595 0.950 . S
C6619 C6618 1.524 . S
C6619 C6620 1.415 . S
C6620 H6596 0.950 . S
C6620 C6615 1.363 . S
C6620 C6619 1.415 . S
C6621 H6597 0.951 . S
C6621 C6622 1.366 . S
C6621 C6623 1.388 . S
C6622 C6621 1.366 . S
C6622 C6626 1.385 . S
C6623 H6598 0.951 . S
C6623 C6621 1.388 . S
C6623 C6624 1.366 . S
C6624 C6623 1.366 . S
C6624 C6625 1.414 . S
C6624 C6627 1.499 . S
C6625 H6599 0.950 . S
C6625 C6624 1.414 . S
C6625 C6626 1.374 . S
C6626 H6600 0.950 . S
C6626 C6622 1.385 . S
C6626 C6625 1.374 . S
C6627 C6624 1.499 . S
C6627 C6628 1.373 . S
C6627 C6629 1.389 . S
C6628 H6601 0.950 . S
C6628 C6614 1.377 . S
C6628 C6627 1.373 . S
C6629 C6613 1.377 . S
C6629 C6627 1.389 . S
C6629 C6630 1.524 . S
C6630 C6629 1.524 . S
C6630 C6631 1.397 . S
C6630 C6635 1.363 . S
C6631 H6602 0.950 . S
C6631 C6630 1.397 . S
C6631 C6632 1.334 . S
C6632 H6603 0.950 . S
C6632 C6631 1.334 . S
C6632 C6633 1.287 . S
C6633 C6632 1.287 . S
C6633 C6634 1.524 . S
C6633 H6636 0.999 . S
C6634 H6604 0.950 . S
C6634 C6633 1.524 . S
C6634 C6635 1.415 . S
C6635 H6605 0.950 . S
C6635 C6630 1.363 . S
C6635 C6634 1.415 . S
H6636 C6633 0.999 . S
H6637 C6618 0.913 . S
H6638 C6656 0.951 . S
H6639 C6658 0.951 . S
H6640 C6660 0.950 . S
H6641 C6661 0.950 . S
H6642 C6663 0.950 . S
H6643 C6666 0.950 . S
H6644 C6667 0.950 . S
H6645 C6669 0.950 . S
H6646 C6670 0.950 . S
H6647 C6671 0.951 . S
H6648 C6673 0.951 . S
H6649 C6675 0.950 . S
H6650 C6676 0.950 . S
H6651 C6678 0.950 . S
H6652 C6681 0.950 . S
H6653 C6682 0.950 . S
H6654 C6684 0.950 . S
H6655 C6685 0.950 . S
C6656 H6638 0.951 . S
C6656 C6657 1.366 . S
C6656 C6658 1.388 . S
C6657 C6656 1.366 . S
C6657 C6661 1.385 . S
C6658 H6639 0.951 . S
C6658 C6656 1.388 . S
C6658 C6659 1.366 . S
C6659 C6658 1.366 . S
C6659 C6660 1.414 . S
C6659 C6662 1.499 . S
C6660 H6640 0.950 . S
C6660 C6659 1.414 . S
C6660 C6661 1.374 . S
C6661 H6641 0.950 . S
C6661 C6657 1.385 . S
C6661 C6660 1.374 . S
C6662 C6659 1.499 . S
C6662 C6663 1.373 . S
C6662 C6664 1.389 . S
C6663 H6642 0.950 . S
C6663 C6662 1.373 . S
C6663 C6679 1.377 . S
C6664 C6662 1.389 . S
C6664 C6665 1.524 . S
C6664 C6678 1.377 . S
C6665 C6664 1.524 . S
C6665 C6666 1.397 . S
C6665 C6670 1.363 . S
C6666 H6643 0.950 . S
C6666 C6665 1.397 . S
C6666 C6667 1.334 . S
C6667 H6644 0.950 . S
C6667 C6666 1.334 . S
C6667 C6668 1.287 . S
C6668 C6667 1.287 . S
C6668 C6669 1.524 . S
C6668 H6687 0.913 . S
C6669 H6645 0.950 . S
C6669 C6668 1.524 . S
C6669 C6670 1.415 . S
C6670 H6646 0.950 . S
C6670 C6665 1.363 . S
C6670 C6669 1.415 . S
C6671 H6647 0.951 . S
C6671 C6672 1.366 . S
C6671 C6673 1.388 . S
C6672 C6671 1.366 . S
C6672 C6676 1.385 . S
C6673 H6648 0.951 . S
C6673 C6671 1.388 . S
C6673 C6674 1.366 . S
C6674 C6673 1.366 . S
C6674 C6675 1.414 . S
C6674 C6677 1.499 . S
C6675 H6649 0.950 . S
C6675 C6674 1.414 . S
C6675 C6676 1.374 . S
C6676 H6650 0.950 . S
C6676 C6672 1.385 . S
C6676 C6675 1.374 . S
C6677 C6674 1.499 . S
C6677 C6678 1.373 . S
C6677 C6679 1.389 . S
C6678 H6651 0.950 . S
C6678 C6664 1.377 . S
C6678 C6677 1.373 . S
C6679 C6663 1.377 . S
C6679 C6677 1.389 . S
C6679 C6680 1.524 . S
C6680 C6679 1.524 . S
C6680 C6681 1.397 . S
C6680 C6685 1.363 . S
C6681 H6652 0.950 . S
C6681 C6680 1.397 . S
C6681 C6682 1.334 . S
C6682 H6653 0.950 . S
C6682 C6681 1.334 . S
C6682 C6683 1.287 . S
C6683 C6682 1.287 . S
C6683 C6684 1.524 . S
C6683 H6686 0.999 . S
C6684 H6654 0.950 . S
C6684 C6683 1.524 . S
C6684 C6685 1.415 . S
C6685 H6655 0.950 . S
C6685 C6680 1.363 . S
C6685 C6684 1.415 . S
H6686 C6683 0.999 . S
H6687 C6668 0.913 . S
H6688 C6706 0.951 . S
H6689 C6708 0.951 . S
H6690 C6710 0.950 . S
H6691 C6711 0.950 . S
H6692 C6713 0.950 . S
H6693 C6716 0.950 . S
H6694 C6717 0.950 . S
H6695 C6719 0.950 . S
H6696 C6720 0.950 . S
H6697 C6721 0.951 . S
H6698 C6723 0.951 . S
H6699 C6725 0.950 . S
H6700 C6726 0.950 . S
H6701 C6728 0.950 . S
H6702 C6731 0.950 . S
H6703 C6732 0.950 . S
H6704 C6734 0.950 . S
H6705 C6735 0.950 . S
C6706 H6688 0.951 . S
C6706 C6707 1.366 . S
C6706 C6708 1.388 . S
C6707 C6706 1.366 . S
C6707 C6711 1.385 . S
C6708 H6689 0.951 . S
C6708 C6706 1.388 . S
C6708 C6709 1.366 . S
C6709 C6708 1.366 . S
C6709 C6710 1.414 . S
C6709 C6712 1.499 . S
C6710 H6690 0.950 . S
C6710 C6709 1.414 . S
C6710 C6711 1.374 . S
C6711 H6691 0.950 . S
C6711 C6707 1.385 . S
C6711 C6710 1.374 . S
C6712 C6709 1.499 . S
C6712 C6713 1.373 . S
C6712 C6714 1.389 . S
C6713 H6692 0.950 . S
C6713 C6712 1.373 . S
C6713 C6729 1.377 . S
C6714 C6712 1.389 . S
C6714 C6715 1.524 . S
C6714 C6728 1.377 . S
C6715 C6714 1.524 . S
C6715 C6716 1.397 . S
C6715 C6720 1.363 . S
C6716 H6693 0.950 . S
C6716 C6715 1.397 . S
C6716 C6717 1.334 . S
C6717 H6694 0.950 . S
C6717 C6716 1.334 . S
C6717 C6718 1.287 . S
C6718 C6717 1.287 . S
C6718 C6719 1.524 . S
C6718 H6737 0.913 . S
C6719 H6695 0.950 . S
C6719 C6718 1.524 . S
C6719 C6720 1.415 . S
C6720 H6696 0.950 . S
C6720 C6715 1.363 . S
C6720 C6719 1.415 . S
C6721 H6697 0.951 . S
C6721 C6722 1.366 . S
C6721 C6723 1.388 . S
C6722 C6721 1.366 . S
C6722 C6726 1.385 . S
C6723 H6698 0.951 . S
C6723 C6721 1.388 . S
C6723 C6724 1.366 . S
C6724 C6723 1.366 . S
C6724 C6725 1.414 . S
C6724 C6727 1.499 . S
C6725 H6699 0.950 . S
C6725 C6724 1.414 . S
C6725 C6726 1.374 . S
C6726 H6700 0.950 . S
C6726 C6722 1.385 . S
C6726 C6725 1.374 . S
C6727 C6724 1.499 . S
C6727 C6728 1.373 . S
C6727 C6729 1.389 . S
C6728 H6701 0.950 . S
C6728 C6714 1.377 . S
C6728 C6727 1.373 . S
C6729 C6713 1.377 . S
C6729 C6727 1.389 . S
C6729 C6730 1.524 . S
C6730 C6729 1.524 . S
C6730 C6731 1.397 . S
C6730 C6735 1.363 . S
C6731 H6702 0.950 . S
C6731 C6730 1.397 . S
C6731 C6732 1.334 . S
C6732 H6703 0.950 . S
C6732 C6731 1.334 . S
C6732 C6733 1.287 . S
C6733 C6732 1.287 . S
C6733 C6734 1.524 . S
C6733 H6736 0.999 . S
C6734 H6704 0.950 . S
C6734 C6733 1.524 . S
C6734 C6735 1.415 . S
C6735 H6705 0.950 . S
C6735 C6730 1.363 . S
C6735 C6734 1.415 . S
H6736 C6733 0.999 . S
H6737 C6718 0.913 . S
H6738 C6756 0.951 . S
H6739 C6758 0.951 . S
H6740 C6760 0.950 . S
H6741 C6761 0.950 . S
H6742 C6763 0.950 . S
H6743 C6766 0.950 . S
H6744 C6767 0.950 . S
H6745 C6769 0.950 . S
H6746 C6770 0.950 . S
H6747 C6771 0.951 . S
H6748 C6773 0.951 . S
H6749 C6775 0.950 . S
H6750 C6776 0.950 . S
H6751 C6778 0.950 . S
H6752 C6781 0.950 . S
H6753 C6782 0.950 . S
H6754 C6784 0.950 . S
H6755 C6785 0.950 . S
C6756 H6738 0.951 . S
C6756 C6757 1.366 . S
C6756 C6758 1.388 . S
C6757 C6756 1.366 . S
C6757 C6761 1.385 . S
C6758 H6739 0.951 . S
C6758 C6756 1.388 . S
C6758 C6759 1.366 . S
C6759 C6758 1.366 . S
C6759 C6760 1.414 . S
C6759 C6762 1.499 . S
C6760 H6740 0.950 . S
C6760 C6759 1.414 . S
C6760 C6761 1.374 . S
C6761 H6741 0.950 . S
C6761 C6757 1.385 . S
C6761 C6760 1.374 . S
C6762 C6759 1.499 . S
C6762 C6763 1.373 . S
C6762 C6764 1.389 . S
C6763 H6742 0.950 . S
C6763 C6762 1.373 . S
C6763 C6779 1.377 . S
C6764 C6762 1.389 . S
C6764 C6765 1.524 . S
C6764 C6778 1.377 . S
C6765 C6764 1.524 . S
C6765 C6766 1.397 . S
C6765 C6770 1.363 . S
C6766 H6743 0.950 . S
C6766 C6765 1.397 . S
C6766 C6767 1.334 . S
C6767 H6744 0.950 . S
C6767 C6766 1.334 . S
C6767 C6768 1.287 . S
C6768 C6767 1.287 . S
C6768 C6769 1.524 . S
C6768 H6787 0.913 . S
C6769 H6745 0.950 . S
C6769 C6768 1.524 . S
C6769 C6770 1.415 . S
C6770 H6746 0.950 . S
C6770 C6765 1.363 . S
C6770 C6769 1.415 . S
C6771 H6747 0.951 . S
C6771 C6772 1.366 . S
C6771 C6773 1.388 . S
C6772 C6771 1.366 . S
C6772 C6776 1.385 . S
C6773 H6748 0.951 . S
C6773 C6771 1.388 . S
C6773 C6774 1.366 . S
C6774 C6773 1.366 . S
C6774 C6775 1.414 . S
C6774 C6777 1.499 . S
C6775 H6749 0.950 . S
C6775 C6774 1.414 . S
C6775 C6776 1.374 . S
C6776 H6750 0.950 . S
C6776 C6772 1.385 . S
C6776 C6775 1.374 . S
C6777 C6774 1.499 . S
C6777 C6778 1.373 . S
C6777 C6779 1.389 . S
C6778 H6751 0.950 . S
C6778 C6764 1.377 . S
C6778 C6777 1.373 . S
C6779 C6763 1.377 . S
C6779 C6777 1.389 . S
C6779 C6780 1.524 . S
C6780 C6779 1.524 . S
C6780 C6781 1.397 . S
C6780 C6785 1.363 . S
C6781 H6752 0.950 . S
C6781 C6780 1.397 . S
C6781 C6782 1.334 . S
C6782 H6753 0.950 . S
C6782 C6781 1.334 . S
C6782 C6783 1.287 . S
C6783 C6782 1.287 . S
C6783 C6784 1.524 . S
C6783 H6786 0.999 . S
C6784 H6754 0.950 . S
C6784 C6783 1.524 . S
C6784 C6785 1.415 . S
C6785 H6755 0.950 . S
C6785 C6780 1.363 . S
C6785 C6784 1.415 . S
H6786 C6783 0.999 . S
H6787 C6768 0.913 . S
H6788 C6806 0.951 . S
H6789 C6808 0.951 . S
H6790 C6810 0.950 . S
H6791 C6811 0.950 . S
H6792 C6813 0.950 . S
H6793 C6816 0.950 . S
H6794 C6817 0.950 . S
H6795 C6819 0.950 . S
H6796 C6820 0.950 . S
H6797 C6821 0.951 . S
H6798 C6823 0.951 . S
H6799 C6825 0.950 . S
H6800 C6826 0.950 . S
H6801 C6828 0.950 . S
H6802 C6831 0.950 . S
H6803 C6832 0.950 . S
H6804 C6834 0.950 . S
H6805 C6835 0.950 . S
C6806 H6788 0.951 . S
C6806 C6807 1.366 . S
C6806 C6808 1.388 . S
C6807 C6806 1.366 . S
C6807 C6811 1.385 . S
C6808 H6789 0.951 . S
C6808 C6806 1.388 . S
C6808 C6809 1.366 . S
C6809 C6808 1.366 . S
C6809 C6810 1.414 . S
C6809 C6812 1.499 . S
C6810 H6790 0.950 . S
C6810 C6809 1.414 . S
C6810 C6811 1.374 . S
C6811 H6791 0.950 . S
C6811 C6807 1.385 . S
C6811 C6810 1.374 . S
C6812 C6809 1.499 . S
C6812 C6813 1.373 . S
C6812 C6814 1.389 . S
C6813 H6792 0.950 . S
C6813 C6812 1.373 . S
C6813 C6829 1.377 . S
C6814 C6812 1.389 . S
C6814 C6815 1.524 . S
C6814 C6828 1.377 . S
C6815 C6814 1.524 . S
C6815 C6816 1.397 . S
C6815 C6820 1.363 . S
C6816 H6793 0.950 . S
C6816 C6815 1.397 . S
C6816 C6817 1.334 . S
C6817 H6794 0.950 . S
C6817 C6816 1.334 . S
C6817 C6818 1.287 . S
C6818 C6817 1.287 . S
C6818 C6819 1.524 . S
C6818 H6837 0.913 . S
C6819 H6795 0.950 . S
C6819 C6818 1.524 . S
C6819 C6820 1.415 . S
C6820 H6796 0.950 . S
C6820 C6815 1.363 . S
C6820 C6819 1.415 . S
C6821 H6797 0.951 . S
C6821 C6822 1.366 . S
C6821 C6823 1.388 . S
C6822 C6821 1.366 . S
C6822 C6826 1.385 . S
C6823 H6798 0.951 . S
C6823 C6821 1.388 . S
C6823 C6824 1.366 . S
C6824 C6823 1.366 . S
C6824 C6825 1.414 . S
C6824 C6827 1.499 . S
C6825 H6799 0.950 . S
C6825 C6824 1.414 . S
C6825 C6826 1.374 . S
C6826 H6800 0.950 . S
C6826 C6822 1.385 . S
C6826 C6825 1.374 . S
C6827 C6824 1.499 . S
C6827 C6828 1.373 . S
C6827 C6829 1.389 . S
C6828 H6801 0.950 . S
C6828 C6814 1.377 . S
C6828 C6827 1.373 . S
C6829 C6813 1.377 . S
C6829 C6827 1.389 . S
C6829 C6830 1.524 . S
C6830 C6829 1.524 . S
C6830 C6831 1.397 . S
C6830 C6835 1.363 . S
C6831 H6802 0.950 . S
C6831 C6830 1.397 . S
C6831 C6832 1.334 . S
C6832 H6803 0.950 . S
C6832 C6831 1.334 . S
C6832 C6833 1.287 . S
C6833 C6832 1.287 . S
C6833 C6834 1.524 . S
C6833 H6836 0.999 . S
C6834 H6804 0.950 . S
C6834 C6833 1.524 . S
C6834 C6835 1.415 . S
C6835 H6805 0.950 . S
C6835 C6830 1.363 . S
C6835 C6834 1.415 . S
H6836 C6833 0.999 . S
H6837 C6818 0.913 . S
H6838 C6856 0.951 . S
H6839 C6858 0.951 . S
H6840 C6860 0.950 . S
H6841 C6861 0.950 . S
H6842 C6863 0.950 . S
H6843 C6866 0.950 . S
H6844 C6867 0.950 . S
H6845 C6869 0.950 . S
H6846 C6870 0.950 . S
H6847 C6871 0.951 . S
H6848 C6873 0.951 . S
H6849 C6875 0.950 . S
H6850 C6876 0.950 . S
H6851 C6878 0.950 . S
H6852 C6881 0.950 . S
H6853 C6882 0.950 . S
H6854 C6884 0.950 . S
H6855 C6885 0.950 . S
C6856 H6838 0.951 . S
C6856 C6857 1.366 . S
C6856 C6858 1.388 . S
C6857 C6856 1.366 . S
C6857 C6861 1.385 . S
C6858 H6839 0.951 . S
C6858 C6856 1.388 . S
C6858 C6859 1.366 . S
C6859 C6858 1.366 . S
C6859 C6860 1.414 . S
C6859 C6862 1.499 . S
C6860 H6840 0.950 . S
C6860 C6859 1.414 . S
C6860 C6861 1.374 . S
C6861 H6841 0.950 . S
C6861 C6857 1.385 . S
C6861 C6860 1.374 . S
C6862 C6859 1.499 . S
C6862 C6863 1.373 . S
C6862 C6864 1.389 . S
C6863 H6842 0.950 . S
C6863 C6862 1.373 . S
C6863 C6879 1.377 . S
C6864 C6862 1.389 . S
C6864 C6865 1.524 . S
C6864 C6878 1.377 . S
C6865 C6864 1.524 . S
C6865 C6866 1.397 . S
C6865 C6870 1.363 . S
C6866 H6843 0.950 . S
C6866 C6865 1.397 . S
C6866 C6867 1.334 . S
C6867 H6844 0.950 . S
C6867 C6866 1.334 . S
C6867 C6868 1.287 . S
C6868 C6867 1.287 . S
C6868 C6869 1.524 . S
C6868 H6887 0.913 . S
C6869 H6845 0.950 . S
C6869 C6868 1.524 . S
C6869 C6870 1.415 . S
C6870 H6846 0.950 . S
C6870 C6865 1.363 . S
C6870 C6869 1.415 . S
C6871 H6847 0.951 . S
C6871 C6872 1.366 . S
C6871 C6873 1.388 . S
C6872 C6871 1.366 . S
C6872 C6876 1.385 . S
C6873 H6848 0.951 . S
C6873 C6871 1.388 . S
C6873 C6874 1.366 . S
C6874 C6873 1.366 . S
C6874 C6875 1.414 . S
C6874 C6877 1.499 . S
C6875 H6849 0.950 . S
C6875 C6874 1.414 . S
C6875 C6876 1.374 . S
C6876 H6850 0.950 . S
C6876 C6872 1.385 . S
C6876 C6875 1.374 . S
C6877 C6874 1.499 . S
C6877 C6878 1.373 . S
C6877 C6879 1.389 . S
C6878 H6851 0.950 . S
C6878 C6864 1.377 . S
C6878 C6877 1.373 . S
C6879 C6863 1.377 . S
C6879 C6877 1.389 . S
C6879 C6880 1.524 . S
C6880 C6879 1.524 . S
C6880 C6881 1.397 . S
C6880 C6885 1.363 . S
C6881 H6852 0.950 . S
C6881 C6880 1.397 . S
C6881 C6882 1.334 . S
C6882 H6853 0.950 . S
C6882 C6881 1.334 . S
C6882 C6883 1.287 . S
C6883 C6882 1.287 . S
C6883 C6884 1.524 . S
C6883 H6886 0.999 . S
C6884 H6854 0.950 . S
C6884 C6883 1.524 . S
C6884 C6885 1.415 . S
C6885 H6855 0.950 . S
C6885 C6880 1.363 . S
C6885 C6884 1.415 . S
H6886 C6883 0.999 . S
H6887 C6868 0.913 . S
H6888 C6906 0.951 . S
H6889 C6908 0.951 . S
H6890 C6910 0.950 . S
H6891 C6911 0.950 . S
H6892 C6913 0.950 . S
H6893 C6916 0.950 . S
H6894 C6917 0.950 . S
H6895 C6919 0.950 . S
H6896 C6920 0.950 . S
H6897 C6921 0.951 . S
H6898 C6923 0.951 . S
H6899 C6925 0.950 . S
H6900 C6926 0.950 . S
H6901 C6928 0.950 . S
H6902 C6931 0.950 . S
H6903 C6932 0.950 . S
H6904 C6934 0.950 . S
H6905 C6935 0.950 . S
C6906 H6888 0.951 . S
C6906 C6907 1.366 . S
C6906 C6908 1.388 . S
C6907 C6906 1.366 . S
C6907 C6911 1.385 . S
C6908 H6889 0.951 . S
C6908 C6906 1.388 . S
C6908 C6909 1.366 . S
C6909 C6908 1.366 . S
C6909 C6910 1.414 . S
C6909 C6912 1.499 . S
C6910 H6890 0.950 . S
C6910 C6909 1.414 . S
C6910 C6911 1.374 . S
C6911 H6891 0.950 . S
C6911 C6907 1.385 . S
C6911 C6910 1.374 . S
C6912 C6909 1.499 . S
C6912 C6913 1.373 . S
C6912 C6914 1.389 . S
C6913 H6892 0.950 . S
C6913 C6912 1.373 . S
C6913 C6929 1.377 . S
C6914 C6912 1.389 . S
C6914 C6915 1.524 . S
C6914 C6928 1.377 . S
C6915 C6914 1.524 . S
C6915 C6916 1.397 . S
C6915 C6920 1.363 . S
C6916 H6893 0.950 . S
C6916 C6915 1.397 . S
C6916 C6917 1.334 . S
C6917 H6894 0.950 . S
C6917 C6916 1.334 . S
C6917 C6918 1.287 . S
C6918 C6917 1.287 . S
C6918 C6919 1.524 . S
C6918 H6937 0.913 . S
C6919 H6895 0.950 . S
C6919 C6918 1.524 . S
C6919 C6920 1.415 . S
C6920 H6896 0.950 . S
C6920 C6915 1.363 . S
C6920 C6919 1.415 . S
C6921 H6897 0.951 . S
C6921 C6922 1.366 . S
C6921 C6923 1.388 . S
C6922 C6921 1.366 . S
C6922 C6926 1.385 . S
C6923 H6898 0.951 . S
C6923 C6921 1.388 . S
C6923 C6924 1.366 . S
C6924 C6923 1.366 . S
C6924 C6925 1.414 . S
C6924 C6927 1.499 . S
C6925 H6899 0.950 . S
C6925 C6924 1.414 . S
C6925 C6926 1.374 . S
C6926 H6900 0.950 . S
C6926 C6922 1.385 . S
C6926 C6925 1.374 . S
C6927 C6924 1.499 . S
C6927 C6928 1.373 . S
C6927 C6929 1.389 . S
C6928 H6901 0.950 . S
C6928 C6914 1.377 . S
C6928 C6927 1.373 . S
C6929 C6913 1.377 . S
C6929 C6927 1.389 . S
C6929 C6930 1.524 . S
C6930 C6929 1.524 . S
C6930 C6931 1.397 . S
C6930 C6935 1.363 . S
C6931 H6902 0.950 . S
C6931 C6930 1.397 . S
C6931 C6932 1.334 . S
C6932 H6903 0.950 . S
C6932 C6931 1.334 . S
C6932 C6933 1.287 . S
C6933 C6932 1.287 . S
C6933 C6934 1.524 . S
C6933 H6936 0.999 . S
C6934 H6904 0.950 . S
C6934 C6933 1.524 . S
C6934 C6935 1.415 . S
C6935 H6905 0.950 . S
C6935 C6930 1.363 . S
C6935 C6934 1.415 . S
H6936 C6933 0.999 . S
H6937 C6918 0.913 . S
H6938 C6956 0.951 . S
H6939 C6958 0.951 . S
H6940 C6960 0.950 . S
H6941 C6961 0.950 . S
H6942 C6963 0.950 . S
H6943 C6966 0.950 . S
H6944 C6967 0.950 . S
H6945 C6969 0.950 . S
H6946 C6970 0.950 . S
H6947 C6971 0.951 . S
H6948 C6973 0.951 . S
H6949 C6975 0.950 . S
H6950 C6976 0.950 . S
H6951 C6978 0.950 . S
H6952 C6981 0.950 . S
H6953 C6982 0.950 . S
H6954 C6984 0.950 . S
H6955 C6985 0.950 . S
C6956 H6938 0.951 . S
C6956 C6957 1.366 . S
C6956 C6958 1.388 . S
C6957 C6956 1.366 . S
C6957 C6961 1.385 . S
C6958 H6939 0.951 . S
C6958 C6956 1.388 . S
C6958 C6959 1.366 . S
C6959 C6958 1.366 . S
C6959 C6960 1.414 . S
C6959 C6962 1.499 . S
C6960 H6940 0.950 . S
C6960 C6959 1.414 . S
C6960 C6961 1.374 . S
C6961 H6941 0.950 . S
C6961 C6957 1.385 . S
C6961 C6960 1.374 . S
C6962 C6959 1.499 . S
C6962 C6963 1.373 . S
C6962 C6964 1.389 . S
C6963 H6942 0.950 . S
C6963 C6962 1.373 . S
C6963 C6979 1.377 . S
C6964 C6962 1.389 . S
C6964 C6965 1.524 . S
C6964 C6978 1.377 . S
C6965 C6964 1.524 . S
C6965 C6966 1.397 . S
C6965 C6970 1.363 . S
C6966 H6943 0.950 . S
C6966 C6965 1.397 . S
C6966 C6967 1.334 . S
C6967 H6944 0.950 . S
C6967 C6966 1.334 . S
C6967 C6968 1.287 . S
C6968 C6967 1.287 . S
C6968 C6969 1.524 . S
C6968 H6987 0.913 . S
C6969 H6945 0.950 . S
C6969 C6968 1.524 . S
C6969 C6970 1.415 . S
C6970 H6946 0.950 . S
C6970 C6965 1.363 . S
C6970 C6969 1.415 . S
C6971 H6947 0.951 . S
C6971 C6972 1.366 . S
C6971 C6973 1.388 . S
C6972 C6971 1.366 . S
C6972 C6976 1.385 . S
C6973 H6948 0.951 . S
C6973 C6971 1.388 . S
C6973 C6974 1.366 . S
C6974 C6973 1.366 . S
C6974 C6975 1.414 . S
C6974 C6977 1.499 . S
C6975 H6949 0.950 . S
C6975 C6974 1.414 . S
C6975 C6976 1.374 . S
C6976 H6950 0.950 . S
C6976 C6972 1.385 . S
C6976 C6975 1.374 . S
C6977 C6974 1.499 . S
C6977 C6978 1.373 . S
C6977 C6979 1.389 . S
C6978 H6951 0.950 . S
C6978 C6964 1.377 . S
C6978 C6977 1.373 . S
C6979 C6963 1.377 . S
C6979 C6977 1.389 . S
C6979 C6980 1.524 . S
C6980 C6979 1.524 . S
C6980 C6981 1.397 . S
C6980 C6985 1.363 . S
C6981 H6952 0.950 . S
C6981 C6980 1.397 . S
C6981 C6982 1.334 . S
C6982 H6953 0.950 . S
C6982 C6981 1.334 . S
C6982 C6983 1.287 . S
C6983 C6982 1.287 . S
C6983 C6984 1.524 . S
C6983 H6986 0.999 . S
C6984 H6954 0.950 . S
C6984 C6983 1.524 . S
C6984 C6985 1.415 . S
C6985 H6955 0.950 . S
C6985 C6980 1.363 . S
C6985 C6984 1.415 . S
H6986 C6983 0.999 . S
H6987 C6968 0.913 . S
H6988 C7006 0.951 . S
H6989 C7008 0.951 . S
H6990 C7010 0.950 . S
H6991 C7011 0.950 . S
H6992 C7013 0.950 . S
H6993 C7016 0.950 . S
H6994 C7017 0.950 . S
H6995 C7019 0.950 . S
H6996 C7020 0.950 . S
H6997 C7021 0.951 . S
H6998 C7023 0.951 . S
H6999 C7025 0.950 . S
H7000 C7026 0.950 . S
H7001 C7028 0.950 . S
H7002 C7031 0.950 . S
H7003 C7032 0.950 . S
H7004 C7034 0.950 . S
H7005 C7035 0.950 . S
C7006 H6988 0.951 . S
C7006 C7007 1.366 . S
C7006 C7008 1.388 . S
C7007 C7006 1.366 . S
C7007 C7011 1.385 . S
C7008 H6989 0.951 . S
C7008 C7006 1.388 . S
C7008 C7009 1.366 . S
C7009 C7008 1.366 . S
C7009 C7010 1.414 . S
C7009 C7012 1.499 . S
C7010 H6990 0.950 . S
C7010 C7009 1.414 . S
C7010 C7011 1.374 . S
C7011 H6991 0.950 . S
C7011 C7007 1.385 . S
C7011 C7010 1.374 . S
C7012 C7009 1.499 . S
C7012 C7013 1.373 . S
C7012 C7014 1.389 . S
C7013 H6992 0.950 . S
C7013 C7012 1.373 . S
C7013 C7029 1.377 . S
C7014 C7012 1.389 . S
C7014 C7015 1.524 . S
C7014 C7028 1.377 . S
C7015 C7014 1.524 . S
C7015 C7016 1.397 . S
C7015 C7020 1.363 . S
C7016 H6993 0.950 . S
C7016 C7015 1.397 . S
C7016 C7017 1.334 . S
C7017 H6994 0.950 . S
C7017 C7016 1.334 . S
C7017 C7018 1.287 . S
C7018 C7017 1.287 . S
C7018 C7019 1.524 . S
C7018 H7037 0.913 . S
C7019 H6995 0.950 . S
C7019 C7018 1.524 . S
C7019 C7020 1.415 . S
C7020 H6996 0.950 . S
C7020 C7015 1.363 . S
C7020 C7019 1.415 . S
C7021 H6997 0.951 . S
C7021 C7022 1.366 . S
C7021 C7023 1.388 . S
C7022 C7021 1.366 . S
C7022 C7026 1.385 . S
C7023 H6998 0.951 . S
C7023 C7021 1.388 . S
C7023 C7024 1.366 . S
C7024 C7023 1.366 . S
C7024 C7025 1.414 . S
C7024 C7027 1.499 . S
C7025 H6999 0.950 . S
C7025 C7024 1.414 . S
C7025 C7026 1.374 . S
C7026 H7000 0.950 . S
C7026 C7022 1.385 . S
C7026 C7025 1.374 . S
C7027 C7024 1.499 . S
C7027 C7028 1.373 . S
C7027 C7029 1.389 . S
C7028 H7001 0.950 . S
C7028 C7014 1.377 . S
C7028 C7027 1.373 . S
C7029 C7013 1.377 . S
C7029 C7027 1.389 . S
C7029 C7030 1.524 . S
C7030 C7029 1.524 . S
C7030 C7031 1.397 . S
C7030 C7035 1.363 . S
C7031 H7002 0.950 . S
C7031 C7030 1.397 . S
C7031 C7032 1.334 . S
C7032 H7003 0.950 . S
C7032 C7031 1.334 . S
C7032 C7033 1.287 . S
C7033 C7032 1.287 . S
C7033 C7034 1.524 . S
C7033 H7036 0.999 . S
C7034 H7004 0.950 . S
C7034 C7033 1.524 . S
C7034 C7035 1.415 . S
C7035 H7005 0.950 . S
C7035 C7030 1.363 . S
C7035 C7034 1.415 . S
H7036 C7033 0.999 . S
H7037 C7018 0.913 . S
H7038 C7056 0.951 . S
H7039 C7058 0.951 . S
H7040 C7060 0.950 . S
H7041 C7061 0.950 . S
H7042 C7063 0.950 . S
H7043 C7066 0.950 . S
H7044 C7067 0.950 . S
H7045 C7069 0.950 . S
H7046 C7070 0.950 . S
H7047 C7071 0.951 . S
H7048 C7073 0.951 . S
H7049 C7075 0.950 . S
H7050 C7076 0.950 . S
H7051 C7078 0.950 . S
H7052 C7081 0.950 . S
H7053 C7082 0.950 . S
H7054 C7084 0.950 . S
H7055 C7085 0.950 . S
C7056 H7038 0.951 . S
C7056 C7057 1.366 . S
C7056 C7058 1.388 . S
C7057 C7056 1.366 . S
C7057 C7061 1.385 . S
C7058 H7039 0.951 . S
C7058 C7056 1.388 . S
C7058 C7059 1.366 . S
C7059 C7058 1.366 . S
C7059 C7060 1.414 . S
C7059 C7062 1.499 . S
C7060 H7040 0.950 . S
C7060 C7059 1.414 . S
C7060 C7061 1.374 . S
C7061 H7041 0.950 . S
C7061 C7057 1.385 . S
C7061 C7060 1.374 . S
C7062 C7059 1.499 . S
C7062 C7063 1.373 . S
C7062 C7064 1.389 . S
C7063 H7042 0.950 . S
C7063 C7062 1.373 . S
C7063 C7079 1.377 . S
C7064 C7062 1.389 . S
C7064 C7065 1.524 . S
C7064 C7078 1.377 . S
C7065 C7064 1.524 . S
C7065 C7066 1.397 . S
C7065 C7070 1.363 . S
C7066 H7043 0.950 . S
C7066 C7065 1.397 . S
C7066 C7067 1.334 . S
C7067 H7044 0.950 . S
C7067 C7066 1.334 . S
C7067 C7068 1.287 . S
C7068 C7067 1.287 . S
C7068 C7069 1.524 . S
C7068 H7087 0.913 . S
C7069 H7045 0.950 . S
C7069 C7068 1.524 . S
C7069 C7070 1.415 . S
C7070 H7046 0.950 . S
C7070 C7065 1.363 . S
C7070 C7069 1.415 . S
C7071 H7047 0.951 . S
C7071 C7072 1.366 . S
C7071 C7073 1.388 . S
C7072 C7071 1.366 . S
C7072 C7076 1.385 . S
C7073 H7048 0.951 . S
C7073 C7071 1.388 . S
C7073 C7074 1.366 . S
C7074 C7073 1.366 . S
C7074 C7075 1.414 . S
C7074 C7077 1.499 . S
C7075 H7049 0.950 . S
C7075 C7074 1.414 . S
C7075 C7076 1.374 . S
C7076 H7050 0.950 . S
C7076 C7072 1.385 . S
C7076 C7075 1.374 . S
C7077 C7074 1.499 . S
C7077 C7078 1.373 . S
C7077 C7079 1.389 . S
C7078 H7051 0.950 . S
C7078 C7064 1.377 . S
C7078 C7077 1.373 . S
C7079 C7063 1.377 . S
C7079 C7077 1.389 . S
C7079 C7080 1.524 . S
C7080 C7079 1.524 . S
C7080 C7081 1.397 . S
C7080 C7085 1.363 . S
C7081 H7052 0.950 . S
C7081 C7080 1.397 . S
C7081 C7082 1.334 . S
C7082 H7053 0.950 . S
C7082 C7081 1.334 . S
C7082 C7083 1.287 . S
C7083 C7082 1.287 . S
C7083 C7084 1.524 . S
C7083 H7086 0.999 . S
C7084 H7054 0.950 . S
C7084 C7083 1.524 . S
C7084 C7085 1.415 . S
C7085 H7055 0.950 . S
C7085 C7080 1.363 . S
C7085 C7084 1.415 . S
H7086 C7083 0.999 . S
H7087 C7068 0.913 . S
H7088 C7106 0.951 . S
H7089 C7108 0.951 . S
H7090 C7110 0.950 . S
H7091 C7111 0.950 . S
H7092 C7113 0.950 . S
H7093 C7116 0.950 . S
H7094 C7117 0.950 . S
H7095 C7119 0.950 . S
H7096 C7120 0.950 . S
H7097 C7121 0.951 . S
H7098 C7123 0.951 . S
H7099 C7125 0.950 . S
H7100 C7126 0.950 . S
H7101 C7128 0.950 . S
H7102 C7131 0.950 . S
H7103 C7132 0.950 . S
H7104 C7134 0.950 . S
H7105 C7135 0.950 . S
C7106 H7088 0.951 . S
C7106 C7107 1.366 . S
C7106 C7108 1.388 . S
C7107 C7106 1.366 . S
C7107 C7111 1.385 . S
C7108 H7089 0.951 . S
C7108 C7106 1.388 . S
C7108 C7109 1.366 . S
C7109 C7108 1.366 . S
C7109 C7110 1.414 . S
C7109 C7112 1.499 . S
C7110 H7090 0.950 . S
C7110 C7109 1.414 . S
C7110 C7111 1.374 . S
C7111 H7091 0.950 . S
C7111 C7107 1.385 . S
C7111 C7110 1.374 . S
C7112 C7109 1.499 . S
C7112 C7113 1.373 . S
C7112 C7114 1.389 . S
C7113 H7092 0.950 . S
C7113 C7112 1.373 . S
C7113 C7129 1.377 . S
C7114 C7112 1.389 . S
C7114 C7115 1.524 . S
C7114 C7128 1.377 . S
C7115 C7114 1.524 . S
C7115 C7116 1.397 . S
C7115 C7120 1.363 . S
C7116 H7093 0.950 . S
C7116 C7115 1.397 . S
C7116 C7117 1.334 . S
C7117 H7094 0.950 . S
C7117 C7116 1.334 . S
C7117 C7118 1.287 . S
C7118 C7117 1.287 . S
C7118 C7119 1.524 . S
C7118 H7137 0.913 . S
C7119 H7095 0.950 . S
C7119 C7118 1.524 . S
C7119 C7120 1.415 . S
C7120 H7096 0.950 . S
C7120 C7115 1.363 . S
C7120 C7119 1.415 . S
C7121 H7097 0.951 . S
C7121 C7122 1.366 . S
C7121 C7123 1.388 . S
C7122 C7121 1.366 . S
C7122 C7126 1.385 . S
C7123 H7098 0.951 . S
C7123 C7121 1.388 . S
C7123 C7124 1.366 . S
C7124 C7123 1.366 . S
C7124 C7125 1.414 . S
C7124 C7127 1.499 . S
C7125 H7099 0.950 . S
C7125 C7124 1.414 . S
C7125 C7126 1.374 . S
C7126 H7100 0.950 . S
C7126 C7122 1.385 . S
C7126 C7125 1.374 . S
C7127 C7124 1.499 . S
C7127 C7128 1.373 . S
C7127 C7129 1.389 . S
C7128 H7101 0.950 . S
C7128 C7114 1.377 . S
C7128 C7127 1.373 . S
C7129 C7113 1.377 . S
C7129 C7127 1.389 . S
C7129 C7130 1.524 . S
C7130 C7129 1.524 . S
C7130 C7131 1.397 . S
C7130 C7135 1.363 . S
C7131 H7102 0.950 . S
C7131 C7130 1.397 . S
C7131 C7132 1.334 . S
C7132 H7103 0.950 . S
C7132 C7131 1.334 . S
C7132 C7133 1.287 . S
C7133 C7132 1.287 . S
C7133 C7134 1.524 . S
C7133 H7136 0.999 . S
C7134 H7104 0.950 . S
C7134 C7133 1.524 . S
C7134 C7135 1.415 . S
C7135 H7105 0.950 . S
C7135 C7130 1.363 . S
C7135 C7134 1.415 . S
H7136 C7133 0.999 . S
H7137 C7118 0.913 . S
H7138 C7156 0.951 . S
H7139 C7158 0.951 . S
H7140 C7160 0.950 . S
H7141 C7161 0.950 . S
H7142 C7163 0.950 . S
H7143 C7166 0.950 . S
H7144 C7167 0.950 . S
H7145 C7169 0.950 . S
H7146 C7170 0.950 . S
H7147 C7171 0.951 . S
H7148 C7173 0.951 . S
H7149 C7175 0.950 . S
H7150 C7176 0.950 . S
H7151 C7178 0.950 . S
H7152 C7181 0.950 . S
H7153 C7182 0.950 . S
H7154 C7184 0.950 . S
H7155 C7185 0.950 . S
C7156 H7138 0.951 . S
C7156 C7157 1.366 . S
C7156 C7158 1.388 . S
C7157 C7156 1.366 . S
C7157 C7161 1.385 . S
C7158 H7139 0.951 . S
C7158 C7156 1.388 . S
C7158 C7159 1.366 . S
C7159 C7158 1.366 . S
C7159 C7160 1.414 . S
C7159 C7162 1.499 . S
C7160 H7140 0.950 . S
C7160 C7159 1.414 . S
C7160 C7161 1.374 . S
C7161 H7141 0.950 . S
C7161 C7157 1.385 . S
C7161 C7160 1.374 . S
C7162 C7159 1.499 . S
C7162 C7163 1.373 . S
C7162 C7164 1.389 . S
C7163 H7142 0.950 . S
C7163 C7162 1.373 . S
C7163 C7179 1.377 . S
C7164 C7162 1.389 . S
C7164 C7165 1.524 . S
C7164 C7178 1.377 . S
C7165 C7164 1.524 . S
C7165 C7166 1.397 . S
C7165 C7170 1.363 . S
C7166 H7143 0.950 . S
C7166 C7165 1.397 . S
C7166 C7167 1.334 . S
C7167 H7144 0.950 . S
C7167 C7166 1.334 . S
C7167 C7168 1.287 . S
C7168 C7167 1.287 . S
C7168 C7169 1.524 . S
C7168 H7187 0.913 . S
C7169 H7145 0.950 . S
C7169 C7168 1.524 . S
C7169 C7170 1.415 . S
C7170 H7146 0.950 . S
C7170 C7165 1.363 . S
C7170 C7169 1.415 . S
C7171 H7147 0.951 . S
C7171 C7172 1.366 . S
C7171 C7173 1.388 . S
C7172 C7171 1.366 . S
C7172 C7176 1.385 . S
C7173 H7148 0.951 . S
C7173 C7171 1.388 . S
C7173 C7174 1.366 . S
C7174 C7173 1.366 . S
C7174 C7175 1.414 . S
C7174 C7177 1.499 . S
C7175 H7149 0.950 . S
C7175 C7174 1.414 . S
C7175 C7176 1.374 . S
C7176 H7150 0.950 . S
C7176 C7172 1.385 . S
C7176 C7175 1.374 . S
C7177 C7174 1.499 . S
C7177 C7178 1.373 . S
C7177 C7179 1.389 . S
C7178 H7151 0.950 . S
C7178 C7164 1.377 . S
C7178 C7177 1.373 . S
C7179 C7163 1.377 . S
C7179 C7177 1.389 . S
C7179 C7180 1.524 . S
C7180 C7179 1.524 . S
C7180 C7181 1.397 . S
C7180 C7185 1.363 . S
C7181 H7152 0.950 . S
C7181 C7180 1.397 . S
C7181 C7182 1.334 . S
C7182 H7153 0.950 . S
C7182 C7181 1.334 . S
C7182 C7183 1.287 . S
C7183 C7182 1.287 . S
C7183 C7184 1.524 . S
C7183 H7186 0.999 . S
C7184 H7154 0.950 . S
C7184 C7183 1.524 . S
C7184 C7185 1.415 . S
C7185 H7155 0.950 . S
C7185 C7180 1.363 . S
C7185 C7184 1.415 . S
H7186 C7183 0.999 . S
H7187 C7168 0.913 . S
H7188 C7206 0.951 . S
H7189 C7208 0.951 . S
H7190 C7210 0.950 . S
H7191 C7211 0.950 . S
H7192 C7213 0.950 . S
H7193 C7216 0.950 . S
H7194 C7217 0.950 . S
H7195 C7219 0.950 . S
H7196 C7220 0.950 . S
H7197 C7221 0.951 . S
H7198 C7223 0.951 . S
H7199 C7225 0.950 . S
H7200 C7226 0.950 . S
H7201 C7228 0.950 . S
H7202 C7231 0.950 . S
H7203 C7232 0.950 . S
H7204 C7234 0.950 . S
H7205 C7235 0.950 . S
C7206 H7188 0.951 . S
C7206 C7207 1.366 . S
C7206 C7208 1.388 . S
C7207 C7206 1.366 . S
C7207 C7211 1.385 . S
C7208 H7189 0.951 . S
C7208 C7206 1.388 . S
C7208 C7209 1.366 . S
C7209 C7208 1.366 . S
C7209 C7210 1.414 . S
C7209 C7212 1.499 . S
C7210 H7190 0.950 . S
C7210 C7209 1.414 . S
C7210 C7211 1.374 . S
C7211 H7191 0.950 . S
C7211 C7207 1.385 . S
C7211 C7210 1.374 . S
C7212 C7209 1.499 . S
C7212 C7213 1.373 . S
C7212 C7214 1.389 . S
C7213 H7192 0.950 . S
C7213 C7212 1.373 . S
C7213 C7229 1.377 . S
C7214 C7212 1.389 . S
C7214 C7215 1.524 . S
C7214 C7228 1.377 . S
C7215 C7214 1.524 . S
C7215 C7216 1.397 . S
C7215 C7220 1.363 . S
C7216 H7193 0.950 . S
C7216 C7215 1.397 . S
C7216 C7217 1.334 . S
C7217 H7194 0.950 . S
C7217 C7216 1.334 . S
C7217 C7218 1.287 . S
C7218 C7217 1.287 . S
C7218 C7219 1.524 . S
C7218 H7237 0.913 . S
C7219 H7195 0.950 . S
C7219 C7218 1.524 . S
C7219 C7220 1.415 . S
C7220 H7196 0.950 . S
C7220 C7215 1.363 . S
C7220 C7219 1.415 . S
C7221 H7197 0.951 . S
C7221 C7222 1.366 . S
C7221 C7223 1.388 . S
C7222 C7221 1.366 . S
C7222 C7226 1.385 . S
C7223 H7198 0.951 . S
C7223 C7221 1.388 . S
C7223 C7224 1.366 . S
C7224 C7223 1.366 . S
C7224 C7225 1.414 . S
C7224 C7227 1.499 . S
C7225 H7199 0.950 . S
C7225 C7224 1.414 . S
C7225 C7226 1.374 . S
C7226 H7200 0.950 . S
C7226 C7222 1.385 . S
C7226 C7225 1.374 . S
C7227 C7224 1.499 . S
C7227 C7228 1.373 . S
C7227 C7229 1.389 . S
C7228 H7201 0.950 . S
C7228 C7214 1.377 . S
C7228 C7227 1.373 . S
C7229 C7213 1.377 . S
C7229 C7227 1.389 . S
C7229 C7230 1.524 . S
C7230 C7229 1.524 . S
C7230 C7231 1.397 . S
C7230 C7235 1.363 . S
C7231 H7202 0.950 . S
C7231 C7230 1.397 . S
C7231 C7232 1.334 . S
C7232 H7203 0.950 . S
C7232 C7231 1.334 . S
C7232 C7233 1.287 . S
C7233 C7232 1.287 . S
C7233 C7234 1.524 . S
C7233 H7236 0.999 . S
C7234 H7204 0.950 . S
C7234 C7233 1.524 . S
C7234 C7235 1.415 . S
C7235 H7205 0.950 . S
C7235 C7230 1.363 . S
C7235 C7234 1.415 . S
H7236 C7233 0.999 . S
H7237 C7218 0.913 . S
H7238 C7256 0.951 . S
H7239 C7258 0.951 . S
H7240 C7260 0.950 . S
H7241 C7261 0.950 . S
H7242 C7263 0.950 . S
H7243 C7266 0.950 . S
H7244 C7267 0.950 . S
H7245 C7269 0.950 . S
H7246 C7270 0.950 . S
H7247 C7271 0.951 . S
H7248 C7273 0.951 . S
H7249 C7275 0.950 . S
H7250 C7276 0.950 . S
H7251 C7278 0.950 . S
H7252 C7281 0.950 . S
H7253 C7282 0.950 . S
H7254 C7284 0.950 . S
H7255 C7285 0.950 . S
C7256 H7238 0.951 . S
C7256 C7257 1.366 . S
C7256 C7258 1.388 . S
C7257 C7256 1.366 . S
C7257 C7261 1.385 . S
C7258 H7239 0.951 . S
C7258 C7256 1.388 . S
C7258 C7259 1.366 . S
C7259 C7258 1.366 . S
C7259 C7260 1.414 . S
C7259 C7262 1.499 . S
C7260 H7240 0.950 . S
C7260 C7259 1.414 . S
C7260 C7261 1.374 . S
C7261 H7241 0.950 . S
C7261 C7257 1.385 . S
C7261 C7260 1.374 . S
C7262 C7259 1.499 . S
C7262 C7263 1.373 . S
C7262 C7264 1.389 . S
C7263 H7242 0.950 . S
C7263 C7262 1.373 . S
C7263 C7279 1.377 . S
C7264 C7262 1.389 . S
C7264 C7265 1.524 . S
C7264 C7278 1.377 . S
C7265 C7264 1.524 . S
C7265 C7266 1.397 . S
C7265 C7270 1.363 . S
C7266 H7243 0.950 . S
C7266 C7265 1.397 . S
C7266 C7267 1.334 . S
C7267 H7244 0.950 . S
C7267 C7266 1.334 . S
C7267 C7268 1.287 . S
C7268 C7267 1.287 . S
C7268 C7269 1.524 . S
C7268 H7287 0.913 . S
C7269 H7245 0.950 . S
C7269 C7268 1.524 . S
C7269 C7270 1.415 . S
C7270 H7246 0.950 . S
C7270 C7265 1.363 . S
C7270 C7269 1.415 . S
C7271 H7247 0.951 . S
C7271 C7272 1.366 . S
C7271 C7273 1.388 . S
C7272 C7271 1.366 . S
C7272 C7276 1.385 . S
C7273 H7248 0.951 . S
C7273 C7271 1.388 . S
C7273 C7274 1.366 . S
C7274 C7273 1.366 . S
C7274 C7275 1.414 . S
C7274 C7277 1.499 . S
C7275 H7249 0.950 . S
C7275 C7274 1.414 . S
C7275 C7276 1.374 . S
C7276 H7250 0.950 . S
C7276 C7272 1.385 . S
C7276 C7275 1.374 . S
C7277 C7274 1.499 . S
C7277 C7278 1.373 . S
C7277 C7279 1.389 . S
C7278 H7251 0.950 . S
C7278 C7264 1.377 . S
C7278 C7277 1.373 . S
C7279 C7263 1.377 . S
C7279 C7277 1.389 . S
C7279 C7280 1.524 . S
C7280 C7279 1.524 . S
C7280 C7281 1.397 . S
C7280 C7285 1.363 . S
C7281 H7252 0.950 . S
C7281 C7280 1.397 . S
C7281 C7282 1.334 . S
C7282 H7253 0.950 . S
C7282 C7281 1.334 . S
C7282 C7283 1.287 . S
C7283 C7282 1.287 . S
C7283 C7284 1.524 . S
C7283 H7286 0.999 . S
C7284 H7254 0.950 . S
C7284 C7283 1.524 . S
C7284 C7285 1.415 . S
C7285 H7255 0.950 . S
C7285 C7280 1.363 . S
C7285 C7284 1.415 . S
H7286 C7283 0.999 . S
H7287 C7268 0.913 . S
H7288 C7306 0.951 . S
H7289 C7308 0.951 . S
H7290 C7310 0.950 . S
H7291 C7311 0.950 . S
H7292 C7313 0.950 . S
H7293 C7316 0.950 . S
H7294 C7317 0.950 . S
H7295 C7319 0.950 . S
H7296 C7320 0.950 . S
H7297 C7321 0.951 . S
H7298 C7323 0.951 . S
H7299 C7325 0.950 . S
H7300 C7326 0.950 . S
H7301 C7328 0.950 . S
H7302 C7331 0.950 . S
H7303 C7332 0.950 . S
H7304 C7334 0.950 . S
H7305 C7335 0.950 . S
C7306 H7288 0.951 . S
C7306 C7307 1.366 . S
C7306 C7308 1.388 . S
C7307 C7306 1.366 . S
C7307 C7311 1.385 . S
C7308 H7289 0.951 . S
C7308 C7306 1.388 . S
C7308 C7309 1.366 . S
C7309 C7308 1.366 . S
C7309 C7310 1.414 . S
C7309 C7312 1.499 . S
C7310 H7290 0.950 . S
C7310 C7309 1.414 . S
C7310 C7311 1.374 . S
C7311 H7291 0.950 . S
C7311 C7307 1.385 . S
C7311 C7310 1.374 . S
C7312 C7309 1.499 . S
C7312 C7313 1.373 . S
C7312 C7314 1.389 . S
C7313 H7292 0.950 . S
C7313 C7312 1.373 . S
C7313 C7329 1.377 . S
C7314 C7312 1.389 . S
C7314 C7315 1.524 . S
C7314 C7328 1.377 . S
C7315 C7314 1.524 . S
C7315 C7316 1.397 . S
C7315 C7320 1.363 . S
C7316 H7293 0.950 . S
C7316 C7315 1.397 . S
C7316 C7317 1.334 . S
C7317 H7294 0.950 . S
C7317 C7316 1.334 . S
C7317 C7318 1.287 . S
C7318 C7317 1.287 . S
C7318 C7319 1.524 . S
C7318 H7337 0.913 . S
C7319 H7295 0.950 . S
C7319 C7318 1.524 . S
C7319 C7320 1.415 . S
C7320 H7296 0.950 . S
C7320 C7315 1.363 . S
C7320 C7319 1.415 . S
C7321 H7297 0.951 . S
C7321 C7322 1.366 . S
C7321 C7323 1.388 . S
C7322 C7321 1.366 . S
C7322 C7326 1.385 . S
C7323 H7298 0.951 . S
C7323 C7321 1.388 . S
C7323 C7324 1.366 . S
C7324 C7323 1.366 . S
C7324 C7325 1.414 . S
C7324 C7327 1.499 . S
C7325 H7299 0.950 . S
C7325 C7324 1.414 . S
C7325 C7326 1.374 . S
C7326 H7300 0.950 . S
C7326 C7322 1.385 . S
C7326 C7325 1.374 . S
C7327 C7324 1.499 . S
C7327 C7328 1.373 . S
C7327 C7329 1.389 . S
C7328 H7301 0.950 . S
C7328 C7314 1.377 . S
C7328 C7327 1.373 . S
C7329 C7313 1.377 . S
C7329 C7327 1.389 . S
C7329 C7330 1.524 . S
C7330 C7329 1.524 . S
C7330 C7331 1.397 . S
C7330 C7335 1.363 . S
C7331 H7302 0.950 . S
C7331 C7330 1.397 . S
C7331 C7332 1.334 . S
C7332 H7303 0.950 . S
C7332 C7331 1.334 . S
C7332 C7333 1.287 . S
C7333 C7332 1.287 . S
C7333 C7334 1.524 . S
C7333 H7336 0.999 . S
C7334 H7304 0.950 . S
C7334 C7333 1.524 . S
C7334 C7335 1.415 . S
C7335 H7305 0.950 . S
C7335 C7330 1.363 . S
C7335 C7334 1.415 . S
H7336 C7333 0.999 . S
H7337 C7318 0.913 . S
H7338 C7356 0.951 . S
H7339 C7358 0.951 . S
H7340 C7360 0.950 . S
H7341 C7361 0.950 . S
H7342 C7363 0.950 . S
H7343 C7366 0.950 . S
H7344 C7367 0.950 . S
H7345 C7369 0.950 . S
H7346 C7370 0.950 . S
H7347 C7371 0.951 . S
H7348 C7373 0.951 . S
H7349 C7375 0.950 . S
H7350 C7376 0.950 . S
H7351 C7378 0.950 . S
H7352 C7381 0.950 . S
H7353 C7382 0.950 . S
H7354 C7384 0.950 . S
H7355 C7385 0.950 . S
C7356 H7338 0.951 . S
C7356 C7357 1.366 . S
C7356 C7358 1.388 . S
C7357 C7356 1.366 . S
C7357 C7361 1.385 . S
C7358 H7339 0.951 . S
C7358 C7356 1.388 . S
C7358 C7359 1.366 . S
C7359 C7358 1.366 . S
C7359 C7360 1.414 . S
C7359 C7362 1.499 . S
C7360 H7340 0.950 . S
C7360 C7359 1.414 . S
C7360 C7361 1.374 . S
C7361 H7341 0.950 . S
C7361 C7357 1.385 . S
C7361 C7360 1.374 . S
C7362 C7359 1.499 . S
C7362 C7363 1.373 . S
C7362 C7364 1.389 . S
C7363 H7342 0.950 . S
C7363 C7362 1.373 . S
C7363 C7379 1.377 . S
C7364 C7362 1.389 . S
C7364 C7365 1.524 . S
C7364 C7378 1.377 . S
C7365 C7364 1.524 . S
C7365 C7366 1.397 . S
C7365 C7370 1.363 . S
C7366 H7343 0.950 . S
C7366 C7365 1.397 . S
C7366 C7367 1.334 . S
C7367 H7344 0.950 . S
C7367 C7366 1.334 . S
C7367 C7368 1.287 . S
C7368 C7367 1.287 . S
C7368 C7369 1.524 . S
C7368 H7387 0.913 . S
C7369 H7345 0.950 . S
C7369 C7368 1.524 . S
C7369 C7370 1.415 . S
C7370 H7346 0.950 . S
C7370 C7365 1.363 . S
C7370 C7369 1.415 . S
C7371 H7347 0.951 . S
C7371 C7372 1.366 . S
C7371 C7373 1.388 . S
C7372 C7371 1.366 . S
C7372 C7376 1.385 . S
C7373 H7348 0.951 . S
C7373 C7371 1.388 . S
C7373 C7374 1.366 . S
C7374 C7373 1.366 . S
C7374 C7375 1.414 . S
C7374 C7377 1.499 . S
C7375 H7349 0.950 . S
C7375 C7374 1.414 . S
C7375 C7376 1.374 . S
C7376 H7350 0.950 . S
C7376 C7372 1.385 . S
C7376 C7375 1.374 . S
C7377 C7374 1.499 . S
C7377 C7378 1.373 . S
C7377 C7379 1.389 . S
C7378 H7351 0.950 . S
C7378 C7364 1.377 . S
C7378 C7377 1.373 . S
C7379 C7363 1.377 . S
C7379 C7377 1.389 . S
C7379 C7380 1.524 . S
C7380 C7379 1.524 . S
C7380 C7381 1.397 . S
C7380 C7385 1.363 . S
C7381 H7352 0.950 . S
C7381 C7380 1.397 . S
C7381 C7382 1.334 . S
C7382 H7353 0.950 . S
C7382 C7381 1.334 . S
C7382 C7383 1.287 . S
C7383 C7382 1.287 . S
C7383 C7384 1.524 . S
C7383 H7386 0.999 . S
C7384 H7354 0.950 . S
C7384 C7383 1.524 . S
C7384 C7385 1.415 . S
C7385 H7355 0.950 . S
C7385 C7380 1.363 . S
C7385 C7384 1.415 . S
H7386 C7383 0.999 . S
H7387 C7368 0.913 . S
H7388 C7406 0.951 . S
H7389 C7408 0.951 . S
H7390 C7410 0.950 . S
H7391 C7411 0.950 . S
H7392 C7413 0.950 . S
H7393 C7416 0.950 . S
H7394 C7417 0.950 . S
H7395 C7419 0.950 . S
H7396 C7420 0.950 . S
H7397 C7421 0.951 . S
H7398 C7423 0.951 . S
H7399 C7425 0.950 . S
H7400 C7426 0.950 . S
H7401 C7428 0.950 . S
H7402 C7431 0.950 . S
H7403 C7432 0.950 . S
H7404 C7434 0.950 . S
H7405 C7435 0.950 . S
C7406 H7388 0.951 . S
C7406 C7407 1.366 . S
C7406 C7408 1.388 . S
C7407 C7406 1.366 . S
C7407 C7411 1.385 . S
C7408 H7389 0.951 . S
C7408 C7406 1.388 . S
C7408 C7409 1.366 . S
C7409 C7408 1.366 . S
C7409 C7410 1.414 . S
C7409 C7412 1.499 . S
C7410 H7390 0.950 . S
C7410 C7409 1.414 . S
C7410 C7411 1.374 . S
C7411 H7391 0.950 . S
C7411 C7407 1.385 . S
C7411 C7410 1.374 . S
C7412 C7409 1.499 . S
C7412 C7413 1.373 . S
C7412 C7414 1.389 . S
C7413 H7392 0.950 . S
C7413 C7412 1.373 . S
C7413 C7429 1.377 . S
C7414 C7412 1.389 . S
C7414 C7415 1.524 . S
C7414 C7428 1.377 . S
C7415 C7414 1.524 . S
C7415 C7416 1.397 . S
C7415 C7420 1.363 . S
C7416 H7393 0.950 . S
C7416 C7415 1.397 . S
C7416 C7417 1.334 . S
C7417 H7394 0.950 . S
C7417 C7416 1.334 . S
C7417 C7418 1.287 . S
C7418 C7417 1.287 . S
C7418 C7419 1.524 . S
C7418 H7437 0.913 . S
C7419 H7395 0.950 . S
C7419 C7418 1.524 . S
C7419 C7420 1.415 . S
C7420 H7396 0.950 . S
C7420 C7415 1.363 . S
C7420 C7419 1.415 . S
C7421 H7397 0.951 . S
C7421 C7422 1.366 . S
C7421 C7423 1.388 . S
C7422 C7421 1.366 . S
C7422 C7426 1.385 . S
C7423 H7398 0.951 . S
C7423 C7421 1.388 . S
C7423 C7424 1.366 . S
C7424 C7423 1.366 . S
C7424 C7425 1.414 . S
C7424 C7427 1.499 . S
C7425 H7399 0.950 . S
C7425 C7424 1.414 . S
C7425 C7426 1.374 . S
C7426 H7400 0.950 . S
C7426 C7422 1.385 . S
C7426 C7425 1.374 . S
C7427 C7424 1.499 . S
C7427 C7428 1.373 . S
C7427 C7429 1.389 . S
C7428 H7401 0.950 . S
C7428 C7414 1.377 . S
C7428 C7427 1.373 . S
C7429 C7413 1.377 . S
C7429 C7427 1.389 . S
C7429 C7430 1.524 . S
C7430 C7429 1.524 . S
C7430 C7431 1.397 . S
C7430 C7435 1.363 . S
C7431 H7402 0.950 . S
C7431 C7430 1.397 . S
C7431 C7432 1.334 . S
C7432 H7403 0.950 . S
C7432 C7431 1.334 . S
C7432 C7433 1.287 . S
C7433 C7432 1.287 . S
C7433 C7434 1.524 . S
C7433 H7436 0.999 . S
C7434 H7404 0.950 . S
C7434 C7433 1.524 . S
C7434 C7435 1.415 . S
C7435 H7405 0.950 . S
C7435 C7430 1.363 . S
C7435 C7434 1.415 . S
H7436 C7433 0.999 . S
H7437 C7418 0.913 . S
H7438 C7456 0.951 . S
H7439 C7458 0.951 . S
H7440 C7460 0.950 . S
H7441 C7461 0.950 . S
H7442 C7463 0.950 . S
H7443 C7466 0.950 . S
H7444 C7467 0.950 . S
H7445 C7469 0.950 . S
H7446 C7470 0.950 . S
H7447 C7471 0.951 . S
H7448 C7473 0.951 . S
H7449 C7475 0.950 . S
H7450 C7476 0.950 . S
H7451 C7478 0.950 . S
H7452 C7481 0.950 . S
H7453 C7482 0.950 . S
H7454 C7484 0.950 . S
H7455 C7485 0.950 . S
C7456 H7438 0.951 . S
C7456 C7457 1.366 . S
C7456 C7458 1.388 . S
C7457 C7456 1.366 . S
C7457 C7461 1.385 . S
C7458 H7439 0.951 . S
C7458 C7456 1.388 . S
C7458 C7459 1.366 . S
C7459 C7458 1.366 . S
C7459 C7460 1.414 . S
C7459 C7462 1.499 . S
C7460 H7440 0.950 . S
C7460 C7459 1.414 . S
C7460 C7461 1.374 . S
C7461 H7441 0.950 . S
C7461 C7457 1.385 . S
C7461 C7460 1.374 . S
C7462 C7459 1.499 . S
C7462 C7463 1.373 . S
C7462 C7464 1.389 . S
C7463 H7442 0.950 . S
C7463 C7462 1.373 . S
C7463 C7479 1.377 . S
C7464 C7462 1.389 . S
C7464 C7465 1.524 . S
C7464 C7478 1.377 . S
C7465 C7464 1.524 . S
C7465 C7466 1.397 . S
C7465 C7470 1.363 . S
C7466 H7443 0.950 . S
C7466 C7465 1.397 . S
C7466 C7467 1.334 . S
C7467 H7444 0.950 . S
C7467 C7466 1.334 . S
C7467 C7468 1.287 . S
C7468 C7467 1.287 . S
C7468 C7469 1.524 . S
C7468 H7487 0.913 . S
C7469 H7445 0.950 . S
C7469 C7468 1.524 . S
C7469 C7470 1.415 . S
C7470 H7446 0.950 . S
C7470 C7465 1.363 . S
C7470 C7469 1.415 . S
C7471 H7447 0.951 . S
C7471 C7472 1.366 . S
C7471 C7473 1.388 . S
C7472 C7471 1.366 . S
C7472 C7476 1.385 . S
C7473 H7448 0.951 . S
C7473 C7471 1.388 . S
C7473 C7474 1.366 . S
C7474 C7473 1.366 . S
C7474 C7475 1.414 . S
C7474 C7477 1.499 . S
C7475 H7449 0.950 . S
C7475 C7474 1.414 . S
C7475 C7476 1.374 . S
C7476 H7450 0.950 . S
C7476 C7472 1.385 . S
C7476 C7475 1.374 . S
C7477 C7474 1.499 . S
C7477 C7478 1.373 . S
C7477 C7479 1.389 . S
C7478 H7451 0.950 . S
C7478 C7464 1.377 . S
C7478 C7477 1.373 . S
C7479 C7463 1.377 . S
C7479 C7477 1.389 . S
C7479 C7480 1.524 . S
C7480 C7479 1.524 . S
C7480 C7481 1.397 . S
C7480 C7485 1.363 . S
C7481 H7452 0.950 . S
C7481 C7480 1.397 . S
C7481 C7482 1.334 . S
C7482 H7453 0.950 . S
C7482 C7481 1.334 . S
C7482 C7483 1.287 . S
C7483 C7482 1.287 . S
C7483 C7484 1.524 . S
C7483 H7486 0.999 . S
C7484 H7454 0.950 . S
C7484 C7483 1.524 . S
C7484 C7485 1.415 . S
C7485 H7455 0.950 . S
C7485 C7480 1.363 . S
C7485 C7484 1.415 . S
H7486 C7483 0.999 . S
H7487 C7468 0.913 . S
C2707 C69 1.038 . S
C2722 C319 1.157 . S
C2757 C67 1.157 . S
C2772 C153 1.037 . S
C2807 C237 1.036 . S
C2822 C151 1.157 . S
C2857 C235 1.157 . S
C2872 C321 1.036 . S
C2907 C487 1.157 . S
C2922 C405 1.038 . S
C2957 C489 1.037 . S
C2972 C571 1.157 . S
C3007 C655 1.157 . S
C3022 C573 1.038 . S
C3057 C403 1.157 . S
C3072 C657 1.037 . S
C3107 C730 1.037 . S
C3122 C980 1.157 . S
C3157 C814 1.036 . S
C3172 C728 1.157 . S
C3207 C898 1.037 . S
C3222 C812 1.157 . S
C3257 C982 1.036 . S
C3272 C896 1.157 . S
C3307 C1066 1.036 . S
C3322 C1148 1.157 . S
C3357 C1150 1.038 . S
C3372 C1232 1.157 . S
C3407 C1316 1.157 . S
C3422 C1234 1.036 . S
C3457 C1064 1.157 . S
C3472 C1318 1.038 . S
C3507 C1413 1.037 . S
C3522 C1663 1.157 . S
C3557 C1411 1.157 . S
C3572 C1497 1.037 . S
C3607 C1495 1.157 . S
C3622 C1581 1.036 . S
C3657 C1665 1.037 . S
C3672 C1579 1.157 . S
C3707 C1749 1.038 . S
C3722 C1831 1.157 . S
C3757 C1915 1.157 . S
C3772 C1833 1.036 . S
C3807 C1917 1.036 . S
C3822 C1999 1.157 . S
C3857 C1747 1.157 . S
C3872 C2001 1.037 . S
C3907 C2324 1.157 . S
C3922 C2074 1.036 . S
C3957 C2072 1.157 . S
C3972 C2158 1.036 . S
C4007 C2242 1.038 . S
C4022 C2156 1.157 . S
C4057 C2240 1.157 . S
C4072 C2326 1.037 . S
C4107 C2492 1.157 . S
C4122 C2410 1.036 . S
C4157 C2576 1.157 . S
C4172 C2494 1.038 . S
C4207 C2660 1.157 . S
C4222 C2578 1.038 . S
C4257 C2662 1.036 . S
C4272 C2408 1.157 . S
C4307 C2337 1.356 . S
C4322 C63 1.558 . S
C4357 C147 1.558 . S
C4372 C741 1.357 . S
C4407 C231 1.558 . S
C4422 C2169 1.356 . S
C4457 C315 1.558 . S
C4472 C909 1.357 . S
C4507 C399 1.558 . S
C4522 C2505 1.356 . S
C4557 C1245 1.355 . S
C4572 C483 1.558 . S
C4607 C2673 1.357 . S
C4622 C567 1.558 . S
C4657 C651 1.558 . S
C4672 C1077 1.357 . S
C4707 C746 1.558 . S
C4722 C1654 1.356 . S
C4757 C58 1.357 . S
C4772 C830 1.558 . S
C4807 C1486 1.357 . S
C4822 C914 1.558 . S
C4857 C226 1.357 . S
C4872 C998 1.558 . S
C4907 C1822 1.355 . S
C4922 C1082 1.558 . S
C4957 C562 1.357 . S
C4972 C1166 1.558 . S
C5007 C1250 1.558 . S
C5022 C1990 1.357 . S
C5057 C1334 1.558 . S
C5072 C394 1.357 . S
C5107 C1407 1.558 . S
C5122 C993 1.357 . S
C5157 C1491 1.558 . S
C5172 C2085 1.357 . S
C5207 C1575 1.558 . S
C5222 C825 1.356 . S
C5257 C1659 1.558 . S
C5272 C2253 1.355 . S
C5307 C1743 1.558 . S
C5322 C1161 1.357 . S
C5357 C1827 1.558 . S
C5372 C2589 1.356 . S
C5407 C1329 1.356 . S
C5422 C1911 1.558 . S
C5457 C1995 1.558 . S
C5472 C2421 1.355 . S
C5507 C310 1.357 . S
C5522 C2090 1.558 . S
C5557 C1402 1.357 . S
C5572 C2174 1.558 . S
C5607 C142 1.356 . S
C5622 C2258 1.558 . S
C5657 C1570 1.355 . S
C5672 C2342 1.558 . S
C5707 C478 1.357 . S
C5722 C2426 1.557 . S
C5757 C2510 1.558 . S
C5772 C1906 1.355 . S
C5807 C2594 1.558 . S
C5822 C646 1.355 . S
C5857 C1738 1.356 . S
C5872 C2678 1.558 . S
C5907 C74 0.465 . S
C5922 C410 0.463 . S
C5957 C158 0.464 . S
C5972 C494 0.466 . S
C6007 C242 0.466 . S
C6022 C578 0.466 . S
C6057 C662 0.464 . S
C6072 C326 0.462 . S
C6107 C1071 0.464 . S
C6122 C735 0.466 . S
C6157 C1155 0.465 . S
C6172 C819 0.463 . S
C6207 C903 0.463 . S
C6222 C1239 0.462 . S
C6257 C987 0.465 . S
C6272 C1323 0.466 . S
C6307 C1418 0.466 . S
C6322 C1754 0.465 . S
C6357 C1838 0.466 . S
C6372 C1502 0.466 . S
C6407 C1922 0.463 . S
C6422 C1586 0.462 . S
C6457 C2006 0.464 . S
C6472 C1670 0.466 . S
C6507 C2415 0.467 . S
C6522 C2079 0.465 . S
C6557 C2163 0.465 . S
C6572 C2499 0.463 . S
C6607 C2583 0.462 . S
C6622 C2247 0.463 . S
C6657 C2331 0.463 . S
C6672 C2667 0.466 . S
C6707 C644 2.484 . S
C6722 C56 2.484 . S
C6757 C140 2.485 . S
C6772 C392 2.485 . S
C6807 C224 2.485 . S
C6822 C476 2.484 . S
C6857 C560 2.484 . S
C6872 C308 2.485 . S
C6907 C739 2.485 . S
C6922 C1327 2.484 . S
C6957 C1075 2.484 . S
C6972 C823 2.485 . S
C7007 C1159 2.485 . S
C7022 C907 2.484 . S
C7057 C991 2.484 . S
C7072 C1243 2.484 . S
C7107 C1400 2.485 . S
C7122 C1988 2.485 . S
C7157 C1736 2.484 . S
C7172 C1484 2.485 . S
C7207 C1820 2.484 . S
C7222 C1568 2.484 . S
C7257 C1904 2.485 . S
C7272 C1652 2.484 . S
C7307 C2083 2.485 . S
C7322 C2671 2.484 . S
C7357 C2419 2.485 . S
C7372 C2167 2.485 . S
C7407 C2251 2.484 . S
C7422 C2503 2.484 . S
C7457 C2587 2.484 . S
C7472 C2335 2.484 . S
