# Generated by pormake.
# Topology sxa, (6)-cn, num edge types: 1
# Building blocks:
#     Node 0, Type 0, BuildingBlock: JUFBIX_clean_sbu_0, # of connection points: 6
#     Node 1, Type 0, BuildingBlock: JUFBIX_clean_sbu_0, # of connection points: 6
#     Node 2, Type 0, BuildingBlock: JUFBIX_clean_sbu_0, # of connection points: 6
#     Node 3, Type 0, BuildingBlock: JUFBIX_clean_sbu_0, # of connection points: 6
#     Edge 4, Type (0, 0), BuildingBlock: ZUJKAS_clean_linker_0, # of connection points: 2
#     Edge 5, Type (0, 0), BuildingBlock: ZUJKAS_clean_linker_0, # of connection points: 2
#     Edge 6, Type (0, 0), BuildingBlock: ZUJKAS_clean_linker_0, # of connection points: 2
#     Edge 7, Type (0, 0), BuildingBlock: ZUJKAS_clean_linker_0, # of connection points: 2
#     Edge 8, Type (0, 0), BuildingBlock: ZUJKAS_clean_linker_0, # of connection points: 2
#     Edge 9, Type (0, 0), BuildingBlock: ZUJKAS_clean_linker_0, # of connection points: 2
#     Edge 10, Type (0, 0), BuildingBlock: ZUJKAS_clean_linker_0, # of connection points: 2
#     Edge 11, Type (0, 0), BuildingBlock: ZUJKAS_clean_linker_0, # of connection points: 2
#     Edge 12, Type (0, 0), BuildingBlock: ZUJKAS_clean_linker_0, # of connection points: 2
#     Edge 13, Type (0, 0), BuildingBlock: ZUJKAS_clean_linker_0, # of connection points: 2
#     Edge 14, Type (0, 0), BuildingBlock: ZUJKAS_clean_linker_0, # of connection points: 2
#     Edge 15, Type (0, 0), BuildingBlock: ZUJKAS_clean_linker_0, # of connection points: 2
# Relax obj value: 0.356
# Max RMSD: 0.284
# Mean RMSD: 0.284
data_MOF--net-sxa--node1-JUFBIX_clean_sbu_0--edge1-ZUJKAS_clean_linker_0
_symmetry_space_group_name_H-M    P1
_symmetry_Int_Tables_number       1
_symmetry_cell_setting            triclinic
loop_
_symmetry_equiv_pos_as_xyz
'x, y, z'
_cell_length_a     34.677717
_cell_length_b     34.891074
_cell_length_c     20.920373
_cell_angle_alpha  88.752966
_cell_angle_beta   76.967602
_cell_angle_gamma 85.80226
loop_
_atom_site_label
_atom_site_type_symbol
_atom_site_fract_x
_atom_site_fract_y
_atom_site_fract_z
_atom_type_partial_charge
Co0 Co 0.0033 0.81636 0.16926 0.0
C1 C 0.01787 0.88508 0.21612 0.0
Co2 Co 0.0354 0.80746 0.24943 0.0
C3 C 0.9855 0.79901 0.04707 0.0
C4 C 0.94911 0.84756 0.09245 0.0
N5 N 0.97908 0.82226 0.09958 0.0
N6 N 0.95986 0.80774 1.0083 0.0
C7 C 0.93718 0.83868 0.03648 0.0
H8 H 0.00722 0.77471 0.03948 0.0
H9 H 0.93526 0.86948 0.12769 0.0
C10 C 0.02035 0.73898 0.19472 0.0
N11 N 0.06119 0.80044 0.32023 0.0
C12 C 0.09506 0.8134 0.33203 0.0
C13 C 0.04795 0.77752 0.37202 0.0
N14 N 0.10298 0.7996 0.3895 0.0
C15 C 0.07315 0.77698 0.41415 0.0
C16 C 0.95232 0.81108 0.29011 0.0
O17 O 0.00596 0.76327 0.15927 0.0
O18 O 0.03504 0.75117 0.2407 0.0
O19 O 0.98474 0.80893 0.30929 0.0
O20 O 0.95336 0.81402 0.22903 0.0
O21 O 0.03603 0.86433 0.25313 0.0
H22 H 0.02179 0.76149 0.37831 0.0
H23 H 0.1135 0.83249 0.29908 0.0
O24 O 1.00029 0.86893 0.17853 0.0
O25 O 0.0535 0.81931 0.11018 0.0
O26 O 0.08402 0.80608 0.1903 0.0
C27 C 0.08535 0.81332 0.13024 0.0
H28 H 0.91144 0.85187 1.02128 0.0
H29 H 0.07014 0.76018 0.45887 0.0
Co30 Co 0.51091 0.31161 0.16819 0.0
C31 C 0.5322 0.38215 0.20167 0.0
Co32 Co 0.54018 0.30782 0.25198 0.0
C33 C 0.49333 0.28784 0.04953 0.0
C34 C 0.46275 0.34203 0.08092 0.0
N35 N 0.489 0.31498 0.09591 0.0
N36 N 0.46977 0.29591 1.00704 0.0
C37 C 0.4508 0.33039 1.02651 0.0
H38 H 0.51192 0.26161 0.04959 0.0
H39 H 0.45133 0.36738 0.10991 0.0
C40 C 0.51858 0.23711 0.21058 0.0
N41 N 0.56379 0.3024 0.32546 0.0
C42 C 0.5997 0.3113 0.33497 0.0
C43 C 0.5477 0.28296 0.38025 0.0
N44 N 0.60645 0.29771 0.39322 0.0
C45 C 0.57349 0.28013 0.42154 0.0
C46 C 0.45721 0.32004 0.2869 0.0
O47 O 0.50271 0.25968 0.17451 0.0
O48 O 0.53743 0.2512 0.24955 0.0
O49 O 0.48856 0.31339 0.30851 0.0
O50 O 0.4601 0.32225 0.2252 0.0
O51 O 0.54306 0.3641 0.24946 0.0
H52 H 0.51939 0.27037 0.38889 0.0
H53 H 0.62114 0.32591 0.29875 0.0
O54 O 0.51871 0.36383 0.16098 0.0
O55 O 0.56187 0.29989 0.11206 0.0
O56 O 0.5899 0.30234 0.19608 0.0
C57 C 0.59275 0.29768 0.13532 0.0
H58 H 0.42743 0.34492 1.00663 0.0
H59 H 0.56844 0.26574 0.46876 0.0
Co60 Co 0.01085 0.30446 0.83333 0.0
C61 C 0.03518 0.36621 0.89847 0.0
Co62 Co 0.05149 0.28808 0.89915 0.0
C63 C 0.9445 0.30748 0.76211 0.0
C64 C 0.98635 0.35019 0.73329 0.0
N65 N 0.97805 0.32046 0.77509 0.0
N66 N 0.93167 0.3283 0.71405 0.0
C67 C 0.95838 0.35499 0.69616 0.0
H68 H 0.92979 0.2834 0.78758 0.0
H69 H 0.01167 0.36717 0.72932 0.0
C70 C 0.02706 0.22541 0.84372 0.0
N71 N 0.08423 0.27049 0.95474 0.0
C72 C 0.12424 0.26784 0.93983 0.0
C73 C 0.07432 0.24756 1.00804 0.0
N74 N 0.13961 0.24329 0.97968 0.0
C75 C 0.10828 0.23078 1.02334 0.0
C76 C 0.97128 0.29032 0.9584 0.0
O77 O 0.00545 0.24976 0.81802 0.0
O78 O 0.05065 0.23752 0.87534 0.0
O79 O 0.00589 0.28176 0.96724 0.0
O80 O 0.96669 0.30314 0.90315 0.0
O81 O 0.05268 0.33892 0.92447 0.0
H82 H 0.04452 0.24036 0.03078 0.0
H83 H 0.142 0.28056 0.89662 0.0
O84 O 0.01616 0.35832 0.85501 0.0
O85 O 0.05671 0.30557 0.76149 0.0
O86 O 0.09594 0.29432 0.82919 0.0
C87 C 0.09164 0.30132 0.77139 0.0
H88 H 0.9585 0.3762 0.65764 0.0
H89 H 0.10965 0.20918 0.06082 0.0
Co90 Co 0.50601 0.81378 0.83259 0.0
C91 C 0.53812 0.87878 0.87786 0.0
Co92 Co 0.54355 0.80215 0.90517 0.0
C93 C 0.44161 0.81352 0.75751 0.0
C94 C 0.48616 0.85289 0.72198 0.0
N95 N 0.47528 0.82669 0.76974 0.0
N96 N 0.43161 0.83039 0.70358 0.0
C97 C 0.45974 0.85524 0.68183 0.0
H98 H 0.42536 0.7914 0.78655 0.0
H99 H 0.51219 0.86906 0.71605 0.0
C100 C 0.51151 0.73697 0.86888 0.0
N101 N 0.57387 0.78836 0.96529 0.0
C102 C 0.61367 0.78795 0.95409 0.0
C103 C 0.56323 0.76578 1.01871 0.0
N104 N 0.6285 0.76455 0.99603 0.0
C105 C 0.59689 0.75079 0.03737 0.0
C106 C 0.46492 0.82113 0.96026 0.0
O107 O 0.49611 0.75898 0.83014 0.0
O108 O 0.53222 0.75103 0.90373 0.0
O109 O 0.4983 0.81253 0.97414 0.0
O110 O 0.46147 0.82162 0.90107 0.0
O111 O 0.55518 0.85323 0.90794 0.0
H112 H 0.53345 0.7573 0.0382 0.0
H113 H 0.63183 0.80081 0.91123 0.0
O114 O 0.51597 0.86842 0.84077 0.0
O115 O 0.55231 0.8064 0.76294 0.0
O116 O 0.58838 0.79273 0.83481 0.0
C117 C 0.58597 0.79714 0.77546 0.0
H118 H 0.46116 0.87413 0.63977 0.0
H119 H 0.59818 0.72906 0.0747 0.0
H120 H 0.08518 0.3916 0.969 0.0
H121 H 0.08246 0.45372 1.02133 0.0
H122 H 0.98411 0.49383 0.93731 0.0
H123 H 0.98639 0.43097 0.88475 0.0
H124 H 0.08953 0.52795 0.97247 0.0
H125 H 0.94056 0.51323 0.13417 0.0
H126 H 0.96918 0.47338 0.08853 0.0
H127 H 0.94279 0.50887 0.04797 0.0
C128 C 0.06302 0.41361 0.96107 0.0
C129 C 0.03578 0.40603 0.92284 0.0
C130 C 0.06157 0.44927 0.99116 0.0
C131 C 0.03265 0.4784 0.98451 0.0
C132 C 0.00625 0.47159 0.94436 0.0
H133 H 0.97 0.70785 0.13234 0.0
H134 H 0.97446 0.64393 0.08652 0.0
C135 C 0.00781 0.43576 0.91373 0.0
C136 C 0.03014 0.51536 1.02075 0.0
H137 H 0.96949 0.57213 0.13889 0.0
C138 C 0.06331 0.53756 1.009 0.0
C139 C 0.99611 0.52783 0.06897 0.0
C140 C 0.96021 0.5045 0.08631 0.0
C141 C 0.06297 0.57227 0.04253 0.0
C142 C 0.02883 0.58489 0.09046 0.0
C143 C 0.99581 0.56246 0.10263 0.0
C144 C 0.0253 0.62289 0.12406 0.0
C145 C 0.09871 0.5958 1.02463 0.0
C146 C 0.05167 0.63247 0.16275 0.0
C147 C 0.04915 0.66957 0.18963 0.0
C148 C 0.02022 0.69764 0.17811 0.0
C149 C 0.99286 0.68713 0.14206 0.0
C150 C 0.99532 0.65041 0.11565 0.0
H151 H 0.11877 0.58645 0.97749 0.0
H152 H 0.08951 0.62676 1.02064 0.0
H153 H 0.11576 0.59249 0.06359 0.0
H154 H 0.07462 0.61151 0.1712 0.0
H155 H 0.07075 0.67672 0.21683 0.0
H156 H 0.59432 0.41894 0.13118 0.0
H157 H 0.58911 0.48072 0.07419 0.0
H158 H 0.46701 0.49876 0.17838 0.0
H159 H 0.47248 0.43729 0.23553 0.0
H160 H 0.53825 0.49395 0.99114 0.0
H161 H 0.50485 0.60582 0.18363 0.0
H162 H 0.52538 0.55811 0.19747 0.0
H163 H 0.4732 0.56665 0.20072 0.0
C164 C 0.56714 0.4372 0.14468 0.0
C165 C 0.5343 0.42397 0.18985 0.0
C166 C 0.56389 0.47222 0.11116 0.0
C167 C 0.5277 0.4948 0.122 0.0
C168 C 0.49554 0.48258 0.16996 0.0
H169 H 0.44571 0.70429 0.93772 0.0
H170 H 0.44657 0.64209 0.99494 0.0
C171 C 0.49879 0.44753 0.2033 0.0
C172 C 0.52231 0.52854 0.07838 0.0
H173 H 0.49465 0.62477 0.07856 0.0
C174 C 0.52894 0.52259 1.01034 0.0
C175 C 0.50961 0.56595 0.10306 0.0
C176 C 0.50317 0.57472 0.17513 0.0
C177 C 0.52297 0.55268 0.96669 0.0
C178 C 0.51067 0.5902 0.99124 0.0
C179 C 0.50375 0.59609 0.05938 0.0
C180 C 0.50714 0.62422 0.94721 0.0
C181 C 0.52918 0.54368 0.89473 0.0
C182 C 0.54014 0.63447 0.89906 0.0
C183 C 0.53931 0.66965 0.86551 0.0
C184 C 0.5055 0.69556 0.87906 0.0
C185 C 0.47157 0.6843 0.92405 0.0
C186 C 0.47239 0.64903 0.95783 0.0
H187 H 0.52524 0.51293 0.88701 0.0
H188 H 0.50835 0.56167 0.87143 0.0
H189 H 0.55996 0.54946 0.86951 0.0
H190 H 0.56768 0.61663 0.89079 0.0
H191 H 0.56645 0.6782 0.83334 0.0
H192 H 0.59749 0.91016 0.91968 0.0
H193 H 0.59412 0.97117 0.97641 0.0
H194 H 0.47833 1.00049 0.93882 0.0
H195 H 0.48154 0.93903 0.88166 0.0
H196 H 0.58196 0.04969 0.94334 0.0
H197 H 0.45888 1.00218 0.14131 0.0
H198 H 0.48839 0.96951 0.08075 0.0
H199 H 0.45033 1.00178 0.05973 0.0
C200 C 0.57166 0.92998 0.92194 0.0
C201 C 0.53975 0.9196 0.89608 0.0
C202 C 0.56972 0.96486 0.95475 0.0
C203 C 0.53564 0.99018 0.96336 0.0
C204 C 0.5047 0.98114 0.93392 0.0
H205 H 0.45908 0.2004 0.18077 0.0
H206 H 0.46453 0.13908 0.12474 0.0
C207 C 0.50678 0.94622 0.90036 0.0
C208 C 0.53205 1.02472 1.00611 0.0
H209 H 0.47958 0.06433 0.1509 0.0
C210 C 0.55959 0.05289 0.98875 0.0
C211 C 0.50305 1.02887 0.06572 0.0
C212 C 0.47362 0.9989 0.08856 0.0
C213 C 0.55834 0.08541 1.0283 0.0
C214 C 0.52945 0.08949 0.08817 0.0
C215 C 0.50199 0.0612 0.10554 0.0
C216 C 0.52528 0.12425 0.13077 0.0
C217 C 0.58718 0.11575 1.00437 0.0
C218 C 0.5569 0.13583 0.15638 0.0
C219 C 0.55372 0.17117 0.18923 0.0
C220 C 0.51875 0.19539 0.19732 0.0
C221 C 0.48631 0.18226 0.176 0.0
C222 C 0.48948 0.14722 0.14339 0.0
H223 H 0.60065 0.11299 0.95106 0.0
H224 H 0.57234 0.14504 1.01368 0.0
H225 H 0.61152 0.11264 0.03102 0.0
H226 H 0.58459 0.11828 0.14874 0.0
H227 H 0.57947 0.18073 0.20384 0.0
H228 H 0.95738 0.93979 0.23031 0.0
H229 H 0.95845 0.99919 0.16584 0.0
H230 H 0.08568 0.98251 0.10341 0.0
H231 H 0.08459 0.92296 0.16856 0.0
H232 H 0.99779 0.0695 0.15052 0.0
H233 H 0.04584 0.97556 0.93177 0.0
H234 H 0.02762 0.95668 1.01313 0.0
H235 H 0.07727 0.97182 0.98952 0.0
C236 C 0.98581 0.94992 0.20585 0.0
C237 C 0.02096 0.92697 0.20563 0.0
C238 C 0.98634 0.98365 0.16804 0.0
C239 C 0.022 0.99497 0.12827 0.0
C240 C 0.05766 0.97411 0.13279 0.0
H241 H 0.08198 0.16529 0.82288 0.0
H242 H 0.07766 0.10683 0.88957 0.0
C243 C 0.05715 0.94046 0.17126 0.0
C244 C 0.02106 1.02608 0.07794 0.0
H245 H 0.03834 1.04222 0.91207 0.0
C246 C 0.00664 0.06354 0.09839 0.0
C247 C 0.03224 1.01836 1.00972 0.0
C248 C 0.04632 0.97841 0.98437 0.0
C249 C 0.00414 0.09358 0.05282 0.0
C250 C 0.01521 0.08584 0.98449 0.0
C251 C 0.02946 0.04828 0.96416 0.0
C252 C 0.01512 0.11691 0.93368 0.0
C253 C 0.99096 0.13364 0.07848 0.0
C254 C 0.98075 0.14071 0.93164 0.0
C255 C 0.98308 0.17404 0.89216 0.0
C256 C 0.01982 0.18416 0.85406 0.0
C257 C 0.05308 0.15795 0.85059 0.0
C258 C 0.05076 0.12474 0.88977 0.0
H259 H 0.99299 0.13648 0.13039 0.0
H260 H 0.00915 0.15531 0.04851 0.0
H261 H 0.95955 0.14032 0.07604 0.0
H262 H 0.95256 0.13486 0.9636 0.0
H263 H 0.95709 0.19394 0.89719 0.0
H264 H 0.43055 0.83834 0.57462 0.0
H265 H 0.37464 0.83334 0.52337 0.0
H266 H 0.30191 0.80133 0.70956 0.0
H267 H 0.35803 0.80736 0.76195 0.0
H268 H 0.33052 0.77419 0.50929 0.0
H269 H 0.23311 0.88966 0.6544 0.0
H270 H 0.28512 0.88193 0.65451 0.0
H271 H 0.2498 0.85154 0.70285 0.0
C272 C 0.40265 0.83053 0.60514 0.0
C273 C 0.39887 0.82388 0.67298 0.0
C274 C 0.3706 0.82741 0.57542 0.0
C275 C 0.3335 0.81771 0.6124 0.0
C276 C 0.32983 0.80975 0.67987 0.0
H277 H 0.10425 0.79398 0.51883 0.0
H278 H 0.16055 0.79842 0.56901 0.0
C279 C 0.36213 0.81275 0.70979 0.0
C280 C 0.29917 0.81613 0.57968 0.0
H281 H 0.20532 0.85527 0.5817 0.0
C282 C 0.30317 0.792 0.52516 0.0
C283 C 0.26336 0.83944 0.59971 0.0
C284 C 0.25754 0.86739 0.65566 0.0
C285 C 0.2724 0.78989 0.49136 0.0
C286 C 0.23657 0.81322 0.51136 0.0
C287 C 0.23263 0.83741 0.56583 0.0
C288 C 0.20209 0.8116 0.4789 0.0
C289 C 0.27823 0.76176 0.43567 0.0
C290 C 0.20581 0.81834 0.41107 0.0
C291 C 0.1733 0.81542 0.38163 0.0
C292 C 0.13616 0.80579 0.41934 0.0
C293 C 0.13236 0.8005 0.48751 0.0
C294 C 0.16469 0.80335 0.51666 0.0
H295 H 0.30227 0.73921 0.43773 0.0
H296 H 0.25051 0.74756 0.43634 0.0
H297 H 0.28664 0.77737 0.38836 0.0
H298 H 0.23391 0.82579 0.38069 0.0
H299 H 0.17753 0.81982 0.32921 0.0
H300 H 0.09434 0.31755 0.64124 0.0
H301 H 0.15352 0.32443 0.55294 0.0
H302 H 0.22809 0.30007 0.69027 0.0
H303 H 0.16952 0.29345 0.77845 0.0
H304 H 0.24775 0.36518 0.60996 0.0
H305 H 0.23389 0.23791 0.46321 0.0
H306 H 0.19091 0.27123 0.48279 0.0
H307 H 0.20703 0.24433 0.5473 0.0
C308 C 0.12335 0.31347 0.65254 0.0
C309 C 0.1271 0.30484 0.71699 0.0
C310 C 0.15714 0.31726 0.60197 0.0
C311 C 0.19525 0.31237 0.61489 0.0
C312 C 0.19901 0.30389 0.67913 0.0
H313 H 0.44148 0.31427 0.4206 0.0
H314 H 0.37685 0.31532 0.49692 0.0
C315 C 0.16538 0.30006 0.72954 0.0
C316 C 0.23143 0.31681 0.56224 0.0
H317 H 0.28725 0.27617 0.42108 0.0
C318 C 0.25631 0.34583 0.56849 0.0
C319 C 0.24246 0.29165 0.50801 0.0
C320 C 0.21743 0.2593 0.49981 0.0
C321 C 0.29206 0.35021 0.52233 0.0
C322 C 0.3037 0.32437 0.46909 0.0
C323 C 0.27833 0.29595 0.46189 0.0
C324 C 0.34293 0.32512 0.4223 0.0
C325 C 0.31693 0.38263 0.53092 0.0
C326 C 0.34552 0.32952 0.35459 0.0
C327 C 0.3826 0.32871 0.31052 0.0
C328 C 0.41782 0.32318 0.33335 0.0
C329 C 0.41504 0.3189 0.40125 0.0
C330 C 0.37804 0.3197 0.44512 0.0
H331 H 0.29873 0.40625 0.56072 0.0
H332 H 0.34007 0.37165 0.55699 0.0
H333 H 0.33187 0.39455 0.4828 0.0
H334 H 0.31882 0.33348 0.33582 0.0
H335 H 0.38364 0.3319 0.25856 0.0
H336 H 0.89027 0.26417 0.71379 0.0
H337 H 0.83575 0.25673 0.65831 0.0
H338 H 0.84124 0.37454 0.59322 0.0
H339 H 0.8944 0.38253 0.64907 0.0
H340 H 0.75903 0.30098 0.67268 0.0
H341 H 0.85194 0.31387 0.42098 0.0
H342 H 0.87292 0.30306 0.49144 0.0
H343 H 0.85588 0.35151 0.47595 0.0
C344 C 0.87972 0.28859 0.68816 0.0
C345 C 0.89766 0.32377 0.68532 0.0
C346 C 0.84859 0.28424 0.65608 0.0
C347 C 0.83487 0.31482 0.62002 0.0
C348 C 0.85185 0.35016 0.619 0.0
H349 H 0.65798 0.35458 0.37873 0.0
H350 H 0.71354 0.35854 0.4333 0.0
C351 C 0.88257 0.35461 0.65115 0.0
C352 C 0.80259 0.31048 0.58398 0.0
H353 H 0.78228 0.31613 0.4309 0.0
C354 C 0.76421 0.30393 0.61977 0.0
C355 C 0.80901 0.31483 0.51489 0.0
C356 C 0.8497 0.3209 0.4733 0.0
C357 C 0.7321 0.3025 0.58883 0.0
C358 C 0.73851 0.3066 0.51954 0.0
C359 C 0.77702 0.31301 0.48379 0.0
C360 C 0.70584 0.30372 0.48348 0.0
C361 C 0.69129 0.29793 0.63132 0.0
C362 C 0.68364 0.27115 0.49114 0.0
C363 C 0.65188 0.26902 0.46039 0.0
C364 C 0.64156 0.29911 0.42 0.0
C365 C 0.66499 0.33094 0.40949 0.0
C366 C 0.69671 0.33323 0.44095 0.0
H367 H 0.68913 0.30749 0.6824 0.0
H368 H 0.66806 0.31456 0.61136 0.0
H369 H 0.68507 0.26713 0.63336 0.0
H370 H 0.69074 0.24724 0.52132 0.0
H371 H 0.6353 0.24358 0.46835 0.0
H372 H 0.8773 0.81933 0.26737 0.0
H373 H 0.81415 0.81637 0.34779 0.0
H374 H 0.87729 0.79509 0.50198 0.0
H375 H 0.9404 0.7987 0.4224 0.0
H376 H 0.78523 0.75715 0.43023 0.0
H377 H 0.79941 0.88429 0.5755 0.0
H378 H 0.83108 0.87419 0.49575 0.0
H379 H 0.84083 0.84937 0.56737 0.0
C380 C 0.87775 0.81424 0.31847 0.0
C381 C 0.91393 0.80956 0.3385 0.0
C382 C 0.84162 0.81249 0.36434 0.0
C383 C 0.84095 0.80615 0.43108 0.0
C384 C 0.87702 0.80093 0.45103 0.0
H385 H 0.66207 0.77934 0.78756 0.0
H386 H 0.72289 0.77967 0.7018 0.0
C387 C 0.91312 0.80283 0.40533 0.0
C388 C 0.8026 0.80426 0.47975 0.0
H389 H 0.74759 0.84412 0.62208 0.0
C390 C 0.77683 0.77634 0.47193 0.0
C391 C 0.79166 0.82935 0.53411 0.0
C392 C 0.81699 0.86124 0.54349 0.0
C393 C 0.74091 0.77221 0.51793 0.0
C394 C 0.73033 0.79694 0.57271 0.0
C395 C 0.7559 0.82506 0.58019 0.0
C396 C 0.693 0.79411 0.62333 0.0
C397 C 0.71506 0.74082 0.50851 0.0
C398 C 0.65591 0.8019 0.60761 0.0
C399 C 0.62094 0.80179 0.65664 0.0
C400 C 0.62248 0.79401 0.72233 0.0
C401 C 0.65971 0.78544 0.73754 0.0
C402 C 0.69457 0.78567 0.68859 0.0
H403 H 0.73141 0.71902 0.47259 0.0
H404 H 0.70326 0.72618 0.5558 0.0
H405 H 0.68946 0.75365 0.48985 0.0
H406 H 0.65405 0.8091 0.55772 0.0
H407 H 0.59281 0.80871 0.6433 0.0
H408 H 0.44284 0.89575 0.9779 0.0
H409 H 0.37562 0.9219 1.02755 0.0
H410 H 0.34466 0.80856 0.09848 0.0
H411 H 0.4118 0.78253 0.04832 0.0
H412 H 0.32333 0.88786 0.96651 0.0
H413 H 0.27069 0.87929 0.23549 0.0
H414 H 0.32208 0.88511 0.19612 0.0
H415 H 0.30303 0.83814 0.20438 0.0
C416 C 0.42211 0.87699 1.00725 0.0
C417 C 0.43175 0.83733 1.00966 0.0
C418 C 0.38393 0.89195 0.03569 0.0
C419 C 0.35535 0.86719 0.06667 0.0
C420 C 0.36659 0.82825 0.07587 0.0
H421 H 0.15416 0.76992 0.11226 0.0
H422 H 0.21947 0.79573 0.08618 0.0
C423 C 0.40476 0.81327 0.04704 0.0
C424 C 0.31313 0.8781 0.07106 0.0
H425 H 0.22375 0.86215 0.17021 0.0
C426 C 0.30117 0.8839 1.01144 0.0
C427 C 0.28456 0.87318 0.12965 0.0
C428 C 0.29577 0.86898 0.19512 0.0
C429 C 0.26199 0.87937 1.00767 0.0
C430 C 0.2346 0.86955 0.06513 0.0
C431 C 0.24535 0.869 0.126 0.0
C432 C 0.19749 0.85273 0.06241 0.0
C433 C 0.25115 0.88087 0.94173 0.0
C434 C 0.16446 0.87563 0.05239 0.0
C435 C 0.12733 0.86042 0.06509 0.0
C436 C 0.12327 0.82274 0.08941 0.0
C437 C 0.15696 0.7989 0.09286 0.0
C438 C 0.194 0.81377 0.07886 0.0
H439 H 0.27615 0.889 0.90159 0.0
H440 H 0.24208 0.85237 0.93046 0.0
H441 H 0.22551 0.90205 0.94299 0.0
H442 H 0.16679 0.90579 0.03992 0.0
H443 H 0.10138 0.87935 0.06328 0.0
H444 H 0.20421 0.28027 0.92314 0.0
H445 H 0.27253 0.25348 0.89446 0.0
H446 H 0.23615 0.14448 0.97939 0.0
H447 H 0.16699 0.17109 1.00728 0.0
H448 H 0.29684 0.17177 1.02438 0.0
H449 H 0.33511 0.17857 0.75554 0.0
H450 H 0.30727 0.22214 0.78662 0.0
H451 H 0.28446 0.177 0.8021 0.0
C452 C 0.21056 0.25043 0.93484 0.0
C453 C 0.18018 0.22784 0.96733 0.0
C454 C 0.24957 0.23498 0.91771 0.0
C455 C 0.25916 0.19656 0.93259 0.0
C456 C 0.22912 0.17392 0.96609 0.0
H457 H 0.48895 0.21793 0.99698 0.0
H458 H 0.45202 0.17233 0.95367 0.0
C459 C 0.18981 0.18939 0.983 0.0
C460 C 0.30144 0.18302 0.92167 0.0
H461 H 0.38688 0.19942 0.81097 0.0
C462 C 0.31698 0.17597 0.97732 0.0
C463 C 0.32753 0.18722 0.85989 0.0
C464 C 0.3126 0.19119 0.7976 0.0
C465 C 0.35705 0.18057 0.97506 0.0
C466 C 0.38186 0.19193 0.91498 0.0
C467 C 0.36769 0.19164 0.85721 0.0
C468 C 0.41531 0.21581 0.91573 0.0
C469 C 0.37065 0.17871 0.03885 0.0
C470 C 0.41049 0.25509 0.90107 0.0
C471 C 0.43218 0.28143 0.92445 0.0
C472 C 0.45842 0.26902 0.96416 0.0
C473 C 0.46787 0.22913 0.96915 0.0
C474 C 0.44665 0.20269 0.94443 0.0
H475 H 0.34703 0.1702 0.08098 0.0
H476 H 0.39638 0.15736 0.03495 0.0
H477 H 0.37995 0.20716 0.04986 0.0
H478 H 0.38706 0.26595 0.87751 0.0
H479 H 0.42563 0.31167 0.91624 0.0
H480 H 0.61159 0.22733 0.08137 0.0
H481 H 0.67901 0.19553 0.05687 0.0
H482 H 0.72657 0.30347 0.08328 0.0
H483 H 0.6596 0.33479 0.10936 0.0
H484 H 0.7611 0.22006 0.96533 0.0
H485 H 0.74709 0.22119 0.23386 0.0
H486 H 0.7048 0.22063 0.19661 0.0
H487 H 0.72679 0.26502 0.2039 0.0
C488 C 0.63679 0.24444 0.07863 0.0
C489 C 0.63104 0.28342 0.09631 0.0
C490 C 0.67499 0.22621 0.06553 0.0
C491 C 0.70723 0.24718 0.06976 0.0
C492 C 0.7017 0.28694 0.08065 0.0
H493 H 0.89991 0.32923 0.99518 0.0
H494 H 0.8375 0.29997 0.0392 0.0
C495 C 0.66372 0.3049 0.09465 0.0
C496 C 0.74639 0.22825 0.06987 0.0
H497 H 0.81314 0.2321 0.16594 0.0
C498 C 0.77252 0.22043 1.00949 0.0
C499 C 0.76088 0.22804 0.12788 0.0
C500 C 0.7333 0.23377 0.19439 0.0
C501 C 0.81354 0.21857 1.00454 0.0
C502 C 0.82788 0.22555 0.06105 0.0
C503 C 0.80184 0.22717 0.12271 0.0
C504 C 0.86538 0.24381 0.05332 0.0
C505 C 0.84117 0.21482 0.93772 0.0
C506 C 0.90129 0.22229 0.05135 0.0
C507 C 0.93703 0.23939 1.02803 0.0
C508 C 0.93664 0.27762 1.00516 0.0
C509 C 0.90069 0.29985 1.013 0.0
C510 C 0.86522 0.2831 0.03769 0.0
H511 H 0.82714 0.20089 0.90231 0.0
H512 H 0.84894 0.24386 0.91859 0.0
H513 H 0.86909 0.19787 0.94077 0.0
H514 H 0.90165 0.19189 0.06307 0.0
H515 H 0.96463 0.22168 1.02139 0.0
H516 H 0.97611 0.7301 0.99653 0.0
H517 H 0.93926 0.68739 0.94693 0.0
H518 H 0.88249 0.78545 0.86685 0.0
H519 H 0.92082 0.82805 0.91325 0.0
H520 H 0.86675 0.69405 1.00507 0.0
H521 H 0.86415 0.70713 0.74638 0.0
H522 H 0.90711 0.71897 0.77553 0.0
H523 H 0.86737 0.75505 0.77216 0.0
C524 C 0.9575 0.74264 0.96537 0.0
C525 C 0.95003 0.78278 0.96123 0.0
C526 C 0.93643 0.71792 0.93671 0.0
C527 C 0.90742 0.733 0.90414 0.0
C528 C 0.90477 0.77272 0.89124 0.0
H529 H 0.6928 0.80442 0.95565 0.0
H530 H 0.76165 0.77833 0.92332 0.0
C531 C 0.92616 0.79736 0.91914 0.0
C532 C 0.87235 0.71122 0.90374 0.0
H533 H 0.79594 0.71876 0.82592 0.0
C534 C 0.85181 0.69757 0.96482 0.0
C535 C 0.85291 0.7145 0.85118 0.0
C536 C 0.87446 0.72433 0.78255 0.0
C537 C 0.8107 0.6948 0.97813 0.0
C538 C 0.7902 0.70525 0.92857 0.0
C539 C 0.81173 0.7119 0.86442 0.0
C540 C 0.74804 0.71928 0.94598 0.0
C541 C 0.78898 0.68591 0.04727 0.0
C542 C 0.71784 0.69475 0.97071 0.0
C543 C 0.67851 0.70982 0.9903 0.0
C544 C 0.66905 0.7495 0.98478 0.0
C545 C 0.69947 0.77383 0.96047 0.0
C546 C 0.73859 0.75888 0.94139 0.0
H547 H 0.80954 0.67899 0.08032 0.0
H548 H 0.76853 0.71087 0.06775 0.0
H549 H 0.77089 0.661 0.04698 0.0
H550 H 0.72462 0.66409 0.97438 0.0
H551 H 0.6554 0.69036 1.00747 0.0
loop_
_geom_bond_atom_site_label_1
_geom_bond_atom_site_label_2
_geom_bond_distance
_geom_bond_site_symmetry_2
_ccdc_geom_bond_type
Co0 N5 2.057 1_455 S
Co0 O17 2.021 . S
Co0 O20 2.062 1_455 S
Co0 O24 2.117 . S
Co0 O25 2.020 . S
C1 O21 1.259 . S
C1 O24 1.258 . S
Co2 N11 2.057 . S
Co2 O18 2.117 . S
Co2 O19 2.020 1_455 S
Co2 O21 2.021 . S
Co2 O26 2.062 . S
C3 N5 1.316 . S
C3 N6 1.347 . S
C3 H8 0.931 . S
C4 N5 1.375 . S
C4 C7 1.350 . S
C4 H9 0.930 . S
N5 Co0 2.057 1_655 S
N5 C3 1.316 . S
N5 C4 1.375 . S
N6 C3 1.347 . S
N6 C7 1.373 . S
C7 C4 1.350 . S
C7 N6 1.373 . S
C7 H28 0.931 1_554 S
H8 C3 0.931 . S
H9 C4 0.930 . S
C10 O17 1.259 . S
C10 O18 1.258 . S
N11 Co2 2.057 . S
N11 C12 1.316 . S
N11 C13 1.375 . S
C12 N11 1.316 . S
C12 N14 1.347 . S
C12 H23 0.931 . S
C13 N11 1.375 . S
C13 C15 1.350 . S
C13 H22 0.930 . S
N14 C12 1.347 . S
N14 C15 1.373 . S
C15 C13 1.350 . S
C15 N14 1.373 . S
C15 H29 0.931 . S
C16 O19 1.256 . S
C16 O20 1.255 . S
O17 Co0 2.021 . S
O17 C10 1.259 . S
O18 Co2 2.117 . S
O18 C10 1.258 . S
O19 Co2 2.020 1_655 S
O19 C16 1.256 . S
O20 Co0 2.062 1_655 S
O20 C16 1.255 . S
O21 C1 1.259 . S
O21 Co2 2.021 . S
H22 C13 0.930 . S
H23 C12 0.931 . S
O24 Co0 2.117 . S
O24 C1 1.258 . S
O25 Co0 2.020 . S
O25 C27 1.256 . S
O26 Co2 2.062 . S
O26 C27 1.255 . S
C27 O25 1.256 . S
C27 O26 1.255 . S
H28 C7 0.931 1_556 S
H29 C15 0.931 . S
Co30 N35 2.057 . S
Co30 O47 2.021 . S
Co30 O50 2.062 . S
Co30 O54 2.117 . S
Co30 O55 2.020 . S
C31 O51 1.259 . S
C31 O54 1.258 . S
Co32 N41 2.057 . S
Co32 O48 2.117 . S
Co32 O49 2.020 . S
Co32 O51 2.021 . S
Co32 O56 2.062 . S
C33 N35 1.316 . S
C33 N36 1.347 . S
C33 H38 0.931 . S
C34 N35 1.375 . S
C34 C37 1.350 . S
C34 H39 0.930 . S
N35 Co30 2.057 . S
N35 C33 1.316 . S
N35 C34 1.375 . S
N36 C33 1.347 . S
N36 C37 1.373 . S
C37 C34 1.350 . S
C37 N36 1.373 . S
C37 H58 0.931 1_554 S
H38 C33 0.931 . S
H39 C34 0.930 . S
C40 O47 1.259 . S
C40 O48 1.258 . S
N41 Co32 2.057 . S
N41 C42 1.316 . S
N41 C43 1.375 . S
C42 N41 1.316 . S
C42 N44 1.347 . S
C42 H53 0.931 . S
C43 N41 1.375 . S
C43 C45 1.350 . S
C43 H52 0.930 . S
N44 C42 1.347 . S
N44 C45 1.373 . S
C45 C43 1.350 . S
C45 N44 1.373 . S
C45 H59 0.931 . S
C46 O49 1.256 . S
C46 O50 1.255 . S
O47 Co30 2.021 . S
O47 C40 1.259 . S
O48 Co32 2.117 . S
O48 C40 1.258 . S
O49 Co32 2.020 . S
O49 C46 1.256 . S
O50 Co30 2.062 . S
O50 C46 1.255 . S
O51 C31 1.259 . S
O51 Co32 2.021 . S
H52 C43 0.930 . S
H53 C42 0.931 . S
O54 Co30 2.117 . S
O54 C31 1.258 . S
O55 Co30 2.020 . S
O55 C57 1.256 . S
O56 Co32 2.062 . S
O56 C57 1.255 . S
C57 O55 1.256 . S
C57 O56 1.255 . S
H58 C37 0.931 1_556 S
H59 C45 0.931 . S
Co60 N65 2.057 1_455 S
Co60 O77 2.021 . S
Co60 O80 2.062 1_455 S
Co60 O84 2.117 . S
Co60 O85 2.020 . S
C61 O81 1.259 . S
C61 O84 1.258 . S
Co62 N71 2.057 . S
Co62 O78 2.117 . S
Co62 O79 2.020 1_455 S
Co62 O81 2.021 . S
Co62 O86 2.062 . S
C63 N65 1.316 . S
C63 N66 1.347 . S
C63 H68 0.931 . S
C64 N65 1.375 . S
C64 C67 1.350 . S
C64 H69 0.930 . S
N65 Co60 2.057 1_655 S
N65 C63 1.316 . S
N65 C64 1.375 . S
N66 C63 1.347 . S
N66 C67 1.373 . S
C67 C64 1.350 . S
C67 N66 1.373 . S
C67 H88 0.931 . S
H68 C63 0.931 . S
H69 C64 0.930 . S
C70 O77 1.259 . S
C70 O78 1.258 . S
N71 Co62 2.057 . S
N71 C72 1.316 . S
N71 C73 1.375 . S
C72 N71 1.316 . S
C72 N74 1.347 . S
C72 H83 0.931 . S
C73 N71 1.375 . S
C73 C75 1.350 . S
C73 H82 0.930 . S
N74 C72 1.347 . S
N74 C75 1.373 . S
C75 C73 1.350 . S
C75 N74 1.373 . S
C75 H89 0.931 1_556 S
C76 O79 1.256 . S
C76 O80 1.255 . S
O77 Co60 2.021 . S
O77 C70 1.259 . S
O78 Co62 2.117 . S
O78 C70 1.258 . S
O79 Co62 2.020 1_655 S
O79 C76 1.256 . S
O80 Co60 2.062 1_655 S
O80 C76 1.255 . S
O81 C61 1.259 . S
O81 Co62 2.021 . S
H82 C73 0.930 . S
H83 C72 0.931 . S
O84 Co60 2.117 . S
O84 C61 1.258 . S
O85 Co60 2.020 . S
O85 C87 1.256 . S
O86 Co62 2.062 . S
O86 C87 1.255 . S
C87 O85 1.256 . S
C87 O86 1.255 . S
H88 C67 0.931 . S
H89 C75 0.931 1_554 S
Co90 N95 2.057 . S
Co90 O107 2.021 . S
Co90 O110 2.062 . S
Co90 O114 2.117 . S
Co90 O115 2.020 . S
C91 O111 1.259 . S
C91 O114 1.258 . S
Co92 N101 2.057 . S
Co92 O108 2.117 . S
Co92 O109 2.020 . S
Co92 O111 2.021 . S
Co92 O116 2.062 . S
C93 N95 1.316 . S
C93 N96 1.347 . S
C93 H98 0.931 . S
C94 N95 1.375 . S
C94 C97 1.350 . S
C94 H99 0.930 . S
N95 Co90 2.057 . S
N95 C93 1.316 . S
N95 C94 1.375 . S
N96 C93 1.347 . S
N96 C97 1.373 . S
C97 C94 1.350 . S
C97 N96 1.373 . S
C97 H118 0.931 . S
H98 C93 0.931 . S
H99 C94 0.930 . S
C100 O107 1.259 . S
C100 O108 1.258 . S
N101 Co92 2.057 . S
N101 C102 1.316 . S
N101 C103 1.375 . S
C102 N101 1.316 . S
C102 N104 1.347 . S
C102 H113 0.931 . S
C103 N101 1.375 . S
C103 C105 1.350 . S
C103 H112 0.930 . S
N104 C102 1.347 . S
N104 C105 1.373 . S
C105 C103 1.350 . S
C105 N104 1.373 . S
C105 H119 0.931 1_556 S
C106 O109 1.256 . S
C106 O110 1.255 . S
O107 Co90 2.021 . S
O107 C100 1.259 . S
O108 Co92 2.117 . S
O108 C100 1.258 . S
O109 Co92 2.020 . S
O109 C106 1.256 . S
O110 Co90 2.062 . S
O110 C106 1.255 . S
O111 C91 1.259 . S
O111 Co92 2.021 . S
H112 C103 0.930 . S
H113 C102 0.931 . S
O114 Co90 2.117 . S
O114 C91 1.258 . S
O115 Co90 2.020 . S
O115 C117 1.256 . S
O116 Co92 2.062 . S
O116 C117 1.255 . S
C117 O115 1.256 . S
C117 O116 1.255 . S
H118 C97 0.931 . S
H119 C105 0.931 1_554 S
H120 C128 0.929 . S
H121 C130 0.930 . S
H122 C132 0.930 1_655 S
H123 C135 0.929 1_655 S
H124 C138 0.930 . S
H125 C140 0.960 . S
H126 C140 0.960 . S
H127 C140 0.960 . S
C128 H120 0.929 . S
C128 C129 1.377 . S
C128 C130 1.384 . S
C129 C128 1.377 . S
C129 C135 1.390 . S
C130 H121 0.930 . S
C130 C128 1.384 . S
C130 C131 1.372 . S
C131 C130 1.372 . S
C131 C132 1.400 . S
C131 C136 1.490 . S
C132 H122 0.930 1_455 S
C132 C131 1.400 . S
C132 C135 1.386 . S
H133 C149 0.930 1_655 S
H134 C150 0.926 1_655 S
C135 H123 0.929 1_455 S
C135 C129 1.390 . S
C135 C132 1.386 . S
C136 C131 1.490 . S
C136 C138 1.395 . S
C136 C139 1.403 1_556 S
H137 C143 0.930 . S
C138 H124 0.930 . S
C138 C136 1.395 . S
C138 C141 1.403 . S
C139 C136 1.403 1_554 S
C139 C140 1.524 . S
C139 C143 1.400 . S
C140 H125 0.960 . S
C140 H126 0.960 . S
C140 H127 0.960 . S
C140 C139 1.524 . S
C141 C138 1.403 . S
C141 C142 1.392 1_556 S
C141 C145 1.495 . S
C142 C141 1.392 1_554 S
C142 C143 1.385 . S
C142 C144 1.478 . S
C143 H137 0.930 . S
C143 C139 1.400 . S
C143 C142 1.385 . S
C144 C142 1.478 . S
C144 C146 1.381 . S
C144 C150 1.386 . S
C145 C141 1.495 . S
C145 H151 0.959 . S
C145 H152 0.961 1_455 S
C145 H153 0.960 . S
C146 C144 1.381 . S
C146 C147 1.394 . S
C146 H154 0.930 . S
C147 C146 1.394 . S
C147 C148 1.383 . S
C147 H155 0.929 . S
C148 C147 1.383 . S
C148 C149 1.377 . S
C149 H133 0.930 1_455 S
C149 C148 1.377 . S
C149 C150 1.381 . S
C150 H134 0.926 1_455 S
C150 C144 1.386 . S
C150 C149 1.381 . S
H151 C145 0.959 . S
H152 C145 0.961 1_655 S
H153 C145 0.960 . S
H154 C146 0.930 . S
H155 C147 0.929 . S
H156 C164 0.929 . S
H157 C166 0.930 1_556 S
H158 C168 0.930 . S
H159 C171 0.929 . S
H160 C174 0.930 . S
H161 C176 0.960 . S
H162 C176 0.960 . S
H163 C176 0.960 . S
C164 H156 0.929 . S
C164 C165 1.377 . S
C164 C166 1.384 . S
C165 C164 1.377 . S
C165 C171 1.390 . S
C166 H157 0.930 1_554 S
C166 C164 1.384 . S
C166 C167 1.372 . S
C167 C166 1.372 . S
C167 C168 1.400 . S
C167 C172 1.490 . S
C168 H158 0.930 . S
C168 C167 1.400 . S
C168 C171 1.386 . S
H169 C185 0.930 . S
H170 C186 0.932 . S
C171 H159 0.929 . S
C171 C165 1.390 . S
C171 C168 1.386 . S
C172 C167 1.490 . S
C172 C174 1.395 1_554 S
C172 C175 1.403 . S
H173 C179 0.930 . S
C174 H160 0.930 . S
C174 C172 1.395 1_556 S
C174 C177 1.403 . S
C175 C172 1.403 . S
C175 C176 1.524 . S
C175 C179 1.400 1_554 S
C176 H161 0.960 . S
C176 H162 0.960 . S
C176 H163 0.960 . S
C176 C175 1.524 . S
C177 C174 1.403 . S
C177 C178 1.392 . S
C177 C181 1.495 . S
C178 C177 1.392 . S
C178 C179 1.385 . S
C178 C180 1.478 . S
C179 H173 0.930 . S
C179 C175 1.400 1_556 S
C179 C178 1.385 . S
C180 C178 1.478 . S
C180 C182 1.381 . S
C180 C186 1.383 . S
C181 C177 1.495 . S
C181 H187 0.959 . S
C181 H188 0.961 . S
C181 H189 0.960 . S
C182 C180 1.381 . S
C182 C183 1.394 . S
C182 H190 0.930 . S
C183 C182 1.394 . S
C183 C184 1.383 . S
C183 H191 0.929 . S
C184 C183 1.383 . S
C184 C185 1.377 . S
C185 H169 0.930 . S
C185 C184 1.377 . S
C185 C186 1.379 . S
C186 H170 0.932 . S
C186 C180 1.383 . S
C186 C185 1.379 . S
H187 C181 0.959 . S
H188 C181 0.961 . S
H189 C181 0.960 . S
H190 C182 0.930 . S
H191 C183 0.929 . S
H192 C200 0.929 . S
H193 C202 0.930 . S
H194 C204 0.930 . S
H195 C207 0.929 . S
H196 C210 0.929 1_565 S
H197 C212 0.960 . S
H198 C212 0.960 . S
H199 C212 0.960 . S
C200 H192 0.929 . S
C200 C201 1.377 . S
C200 C202 1.384 . S
C201 C200 1.377 . S
C201 C207 1.390 . S
C202 H193 0.930 . S
C202 C200 1.384 . S
C202 C203 1.372 . S
C203 C202 1.372 . S
C203 C204 1.400 . S
C203 C208 1.490 . S
C204 H194 0.930 . S
C204 C203 1.400 . S
C204 C207 1.386 . S
H205 C221 0.930 . S
H206 C222 0.931 . S
C207 H195 0.929 . S
C207 C201 1.390 . S
C207 C204 1.386 . S
C208 C203 1.490 . S
C208 C210 1.369 1_565 S
C208 C211 1.403 1_556 S
H209 C215 0.930 . S
C210 H196 0.929 1_545 S
C210 C208 1.369 1_545 S
C210 C213 1.430 . S
C211 C208 1.403 1_554 S
C211 C212 1.524 . S
C211 C215 1.400 1_565 S
C212 H197 0.960 . S
C212 H198 0.960 . S
C212 H199 0.960 . S
C212 C211 1.524 . S
C213 C210 1.430 . S
C213 C214 1.392 1_556 S
C213 C217 1.495 . S
C214 C213 1.392 1_554 S
C214 C215 1.385 . S
C214 C216 1.478 . S
C215 H209 0.930 . S
C215 C211 1.400 1_545 S
C215 C214 1.385 . S
C216 C214 1.478 . S
C216 C218 1.381 . S
C216 C222 1.383 . S
C217 C213 1.495 . S
C217 H223 0.959 . S
C217 H224 0.961 . S
C217 H225 0.960 . S
C218 C216 1.381 . S
C218 C219 1.394 . S
C218 H226 0.930 . S
C219 C218 1.394 . S
C219 C220 1.383 . S
C219 H227 0.929 . S
C220 C219 1.383 . S
C220 C221 1.377 . S
C221 H205 0.930 . S
C221 C220 1.377 . S
C221 C222 1.379 . S
C222 H206 0.931 . S
C222 C216 1.383 . S
C222 C221 1.379 . S
H223 C217 0.959 . S
H224 C217 0.961 . S
H225 C217 0.960 . S
H226 C218 0.930 . S
H227 C219 0.929 . S
H228 C236 0.929 . S
H229 C238 0.930 . S
H230 C240 0.930 . S
H231 C243 0.929 . S
H232 C246 0.930 . S
H233 C248 0.965 . S
H234 C248 0.960 1_556 S
H235 C248 0.960 . S
C236 H228 0.929 . S
C236 C237 1.377 . S
C236 C238 1.384 . S
C237 C236 1.377 . S
C237 C243 1.390 . S
C238 H229 0.930 . S
C238 C236 1.384 . S
C238 C239 1.372 . S
C239 C238 1.372 . S
C239 C240 1.400 . S
C239 C244 1.490 . S
C240 H230 0.930 . S
C240 C239 1.400 . S
C240 C243 1.386 . S
H241 C257 0.930 . S
H242 C258 0.931 . S
C243 H231 0.929 . S
C243 C237 1.390 . S
C243 C240 1.386 . S
C244 C239 1.490 . S
C244 C246 1.395 1_455 S
C244 C247 1.403 . S
H245 C251 0.930 . S
C246 H232 0.930 . S
C246 C244 1.395 1_655 S
C246 C249 1.403 1_564 S
C247 C244 1.403 . S
C247 C248 1.524 . S
C247 C251 1.400 1_564 S
C248 H233 0.965 . S
C248 H234 0.960 1_554 S
C248 H235 0.960 . S
C248 C247 1.524 . S
C249 C246 1.403 1_546 S
C249 C250 1.392 1_655 S
C249 C253 1.495 . S
C250 C249 1.392 1_455 S
C250 C251 1.385 . S
C250 C252 1.478 . S
C251 H245 0.930 . S
C251 C247 1.400 1_546 S
C251 C250 1.385 . S
C252 C250 1.478 . S
C252 C254 1.381 . S
C252 C258 1.383 . S
C253 C249 1.495 . S
C253 H259 0.959 . S
C253 H260 0.961 . S
C253 H261 0.960 . S
C254 C252 1.381 . S
C254 C255 1.394 . S
C254 H262 0.930 . S
C255 C254 1.394 . S
C255 C256 1.383 . S
C255 H263 0.929 . S
C256 C255 1.383 . S
C256 C257 1.377 . S
C257 H241 0.930 . S
C257 C256 1.377 . S
C257 C258 1.379 . S
C258 H242 0.931 . S
C258 C252 1.383 . S
C258 C257 1.379 . S
H259 C253 0.959 . S
H260 C253 0.961 . S
H261 C253 0.960 . S
H262 C254 0.930 . S
H263 C255 0.929 . S
H264 C272 0.929 . S
H265 C274 0.930 . S
H266 C276 0.930 . S
H267 C279 0.929 . S
H268 C282 0.930 . S
H269 C284 0.960 . S
H270 C284 0.960 . S
H271 C284 0.960 . S
C272 H264 0.929 . S
C272 C273 1.377 . S
C272 C274 1.384 . S
C273 C272 1.377 . S
C273 C279 1.390 . S
C274 H265 0.930 . S
C274 C272 1.384 . S
C274 C275 1.372 . S
C275 C274 1.372 . S
C275 C276 1.400 . S
C275 C280 1.490 . S
C276 H266 0.930 . S
C276 C275 1.400 . S
C276 C279 1.386 . S
H277 C293 0.930 . S
H278 C294 0.931 . S
C279 H267 0.929 . S
C279 C273 1.390 . S
C279 C276 1.386 . S
C280 C275 1.490 . S
C280 C282 1.395 . S
C280 C283 1.403 . S
H281 C287 0.930 . S
C282 H268 0.930 . S
C282 C280 1.395 . S
C282 C285 1.403 . S
C283 C280 1.403 . S
C283 C284 1.524 . S
C283 C287 1.400 . S
C284 H269 0.960 . S
C284 H270 0.960 . S
C284 H271 0.960 . S
C284 C283 1.524 . S
C285 C282 1.403 . S
C285 C286 1.392 . S
C285 C289 1.495 . S
C286 C285 1.392 . S
C286 C287 1.385 . S
C286 C288 1.478 . S
C287 H281 0.930 . S
C287 C283 1.400 . S
C287 C286 1.385 . S
C288 C286 1.478 . S
C288 C290 1.381 . S
C288 C294 1.383 . S
C289 C285 1.495 . S
C289 H295 0.959 . S
C289 H296 0.961 . S
C289 H297 0.960 . S
C290 C288 1.381 . S
C290 C291 1.394 . S
C290 H298 0.930 . S
C291 C290 1.394 . S
C291 C292 1.383 . S
C291 H299 0.929 . S
C292 C291 1.383 . S
C292 C293 1.377 . S
C293 H277 0.930 . S
C293 C292 1.377 . S
C293 C294 1.379 . S
C294 H278 0.931 . S
C294 C288 1.383 . S
C294 C293 1.379 . S
H295 C289 0.959 . S
H296 C289 0.961 . S
H297 C289 0.960 . S
H298 C290 0.930 . S
H299 C291 0.929 . S
H300 C308 0.929 . S
H301 C310 0.930 . S
H302 C312 0.930 . S
H303 C315 0.929 . S
H304 C318 0.930 . S
H305 C320 0.960 . S
H306 C320 0.960 . S
H307 C320 0.960 . S
C308 H300 0.929 . S
C308 C309 1.377 . S
C308 C310 1.384 . S
C309 C308 1.377 . S
C309 C315 1.390 . S
C310 H301 0.930 . S
C310 C308 1.384 . S
C310 C311 1.372 . S
C311 C310 1.372 . S
C311 C312 1.400 . S
C311 C316 1.490 . S
C312 H302 0.930 . S
C312 C311 1.400 . S
C312 C315 1.386 . S
H313 C329 0.930 . S
H314 C330 0.931 . S
C315 H303 0.929 . S
C315 C309 1.390 . S
C315 C312 1.386 . S
C316 C311 1.490 . S
C316 C318 1.395 . S
C316 C319 1.403 . S
H317 C323 0.930 . S
C318 H304 0.930 . S
C318 C316 1.395 . S
C318 C321 1.403 . S
C319 C316 1.403 . S
C319 C320 1.524 . S
C319 C323 1.400 . S
C320 H305 0.960 . S
C320 H306 0.960 . S
C320 H307 0.960 . S
C320 C319 1.524 . S
C321 C318 1.403 . S
C321 C322 1.392 . S
C321 C325 1.495 . S
C322 C321 1.392 . S
C322 C323 1.385 . S
C322 C324 1.478 . S
C323 H317 0.930 . S
C323 C319 1.400 . S
C323 C322 1.385 . S
C324 C322 1.478 . S
C324 C326 1.381 . S
C324 C330 1.383 . S
C325 C321 1.495 . S
C325 H331 0.959 . S
C325 H332 0.961 . S
C325 H333 0.960 . S
C326 C324 1.381 . S
C326 C327 1.394 . S
C326 H334 0.930 . S
C327 C326 1.394 . S
C327 C328 1.383 . S
C327 H335 0.929 . S
C328 C327 1.383 . S
C328 C329 1.377 . S
C329 H313 0.930 . S
C329 C328 1.377 . S
C329 C330 1.379 . S
C330 H314 0.931 . S
C330 C324 1.383 . S
C330 C329 1.379 . S
H331 C325 0.959 . S
H332 C325 0.961 . S
H333 C325 0.960 . S
H334 C326 0.930 . S
H335 C327 0.929 . S
H336 C344 0.929 . S
H337 C346 0.930 . S
H338 C348 0.930 . S
H339 C351 0.929 . S
H340 C354 0.930 . S
H341 C356 0.960 . S
H342 C356 0.960 . S
H343 C356 0.960 . S
C344 H336 0.929 . S
C344 C345 1.377 . S
C344 C346 1.384 . S
C345 C344 1.377 . S
C345 C351 1.390 . S
C346 H337 0.930 . S
C346 C344 1.384 . S
C346 C347 1.372 . S
C347 C346 1.372 . S
C347 C348 1.400 . S
C347 C352 1.490 . S
C348 H338 0.930 . S
C348 C347 1.400 . S
C348 C351 1.386 . S
H349 C365 0.930 . S
H350 C366 0.931 . S
C351 H339 0.929 . S
C351 C345 1.390 . S
C351 C348 1.386 . S
C352 C347 1.490 . S
C352 C354 1.395 . S
C352 C355 1.403 . S
H353 C359 0.930 . S
C354 H340 0.930 . S
C354 C352 1.395 . S
C354 C357 1.403 . S
C355 C352 1.403 . S
C355 C356 1.524 . S
C355 C359 1.400 . S
C356 H341 0.960 . S
C356 H342 0.960 . S
C356 H343 0.960 . S
C356 C355 1.524 . S
C357 C354 1.403 . S
C357 C358 1.392 . S
C357 C361 1.495 . S
C358 C357 1.392 . S
C358 C359 1.385 . S
C358 C360 1.478 . S
C359 H353 0.930 . S
C359 C355 1.400 . S
C359 C358 1.385 . S
C360 C358 1.478 . S
C360 C362 1.381 . S
C360 C366 1.383 . S
C361 C357 1.495 . S
C361 H367 0.959 . S
C361 H368 0.961 . S
C361 H369 0.960 . S
C362 C360 1.381 . S
C362 C363 1.394 . S
C362 H370 0.930 . S
C363 C362 1.394 . S
C363 C364 1.383 . S
C363 H371 0.929 . S
C364 C363 1.383 . S
C364 C365 1.377 . S
C365 H349 0.930 . S
C365 C364 1.377 . S
C365 C366 1.379 . S
C366 H350 0.931 . S
C366 C360 1.383 . S
C366 C365 1.379 . S
H367 C361 0.959 . S
H368 C361 0.961 . S
H369 C361 0.960 . S
H370 C362 0.930 . S
H371 C363 0.929 . S
H372 C380 0.929 . S
H373 C382 0.930 . S
H374 C384 0.930 . S
H375 C387 0.929 . S
H376 C390 0.930 . S
H377 C392 0.960 . S
H378 C392 0.960 . S
H379 C392 0.960 . S
C380 H372 0.929 . S
C380 C381 1.377 . S
C380 C382 1.384 . S
C381 C380 1.377 . S
C381 C387 1.390 . S
C382 H373 0.930 . S
C382 C380 1.384 . S
C382 C383 1.372 . S
C383 C382 1.372 . S
C383 C384 1.400 . S
C383 C388 1.490 . S
C384 H374 0.930 . S
C384 C383 1.400 . S
C384 C387 1.386 . S
H385 C401 0.930 . S
H386 C402 0.931 . S
C387 H375 0.929 . S
C387 C381 1.390 . S
C387 C384 1.386 . S
C388 C383 1.490 . S
C388 C390 1.395 . S
C388 C391 1.403 . S
H389 C395 0.930 . S
C390 H376 0.930 . S
C390 C388 1.395 . S
C390 C393 1.403 . S
C391 C388 1.403 . S
C391 C392 1.524 . S
C391 C395 1.400 . S
C392 H377 0.960 . S
C392 H378 0.960 . S
C392 H379 0.960 . S
C392 C391 1.524 . S
C393 C390 1.403 . S
C393 C394 1.392 . S
C393 C397 1.495 . S
C394 C393 1.392 . S
C394 C395 1.385 . S
C394 C396 1.478 . S
C395 H389 0.930 . S
C395 C391 1.400 . S
C395 C394 1.385 . S
C396 C394 1.478 . S
C396 C398 1.381 . S
C396 C402 1.383 . S
C397 C393 1.495 . S
C397 H403 0.959 . S
C397 H404 0.961 . S
C397 H405 0.960 . S
C398 C396 1.381 . S
C398 C399 1.394 . S
C398 H406 0.930 . S
C399 C398 1.394 . S
C399 C400 1.383 . S
C399 H407 0.929 . S
C400 C399 1.383 . S
C400 C401 1.377 . S
C401 H385 0.930 . S
C401 C400 1.377 . S
C401 C402 1.379 . S
C402 H386 0.931 . S
C402 C396 1.383 . S
C402 C401 1.379 . S
H403 C397 0.959 . S
H404 C397 0.961 . S
H405 C397 0.960 . S
H406 C398 0.930 . S
H407 C399 0.929 . S
H408 C416 0.929 . S
H409 C418 0.930 1_554 S
H410 C420 0.930 . S
H411 C423 0.929 . S
H412 C426 0.930 . S
H413 C428 0.960 . S
H414 C428 0.960 . S
H415 C428 0.960 1_556 S
C416 H408 0.929 . S
C416 C417 1.377 . S
C416 C418 1.384 . S
C417 C416 1.377 . S
C417 C423 1.390 . S
C418 H409 0.930 1_556 S
C418 C416 1.384 . S
C418 C419 1.372 . S
C419 C418 1.372 . S
C419 C420 1.400 . S
C419 C424 1.490 . S
C420 H410 0.930 . S
C420 C419 1.400 . S
C420 C423 1.386 . S
H421 C437 0.930 1_556 S
H422 C438 0.926 1_556 S
C423 H411 0.929 . S
C423 C417 1.390 . S
C423 C420 1.386 . S
C424 C419 1.490 . S
C424 C426 1.395 . S
C424 C427 1.403 1_556 S
H425 C431 0.930 . S
C426 H412 0.930 . S
C426 C424 1.395 . S
C426 C429 1.403 . S
C427 C424 1.403 1_554 S
C427 C428 1.524 . S
C427 C431 1.400 . S
C428 H413 0.960 . S
C428 H414 0.960 . S
C428 H415 0.960 1_554 S
C428 C427 1.524 . S
C429 C426 1.403 . S
C429 C430 1.392 1_556 S
C429 C433 1.495 . S
C430 C429 1.392 1_554 S
C430 C431 1.385 . S
C430 C432 1.478 . S
C431 H425 0.930 . S
C431 C427 1.400 . S
C431 C430 1.385 . S
C432 C430 1.478 . S
C432 C434 1.381 . S
C432 C438 1.388 . S
C433 C429 1.495 . S
C433 H439 0.959 . S
C433 H440 0.961 . S
C433 H441 0.960 1_556 S
C434 C432 1.381 . S
C434 C435 1.394 . S
C434 H442 0.930 . S
C435 C434 1.394 . S
C435 C436 1.383 . S
C435 H443 0.929 . S
C436 C435 1.383 . S
C436 C437 1.377 . S
C437 H421 0.930 1_554 S
C437 C436 1.377 . S
C437 C438 1.380 . S
C438 H422 0.926 1_554 S
C438 C432 1.388 . S
C438 C437 1.380 . S
H439 C433 0.959 . S
H440 C433 0.961 . S
H441 C433 0.960 1_554 S
H442 C434 0.930 . S
H443 C435 0.929 . S
H444 C452 0.929 . S
H445 C454 0.930 . S
H446 C456 0.930 . S
H447 C459 0.929 . S
H448 C462 0.930 . S
H449 C464 0.960 . S
H450 C464 0.960 . S
H451 C464 0.960 . S
C452 H444 0.929 . S
C452 C453 1.377 . S
C452 C454 1.384 . S
C453 C452 1.377 . S
C453 C459 1.390 1_556 S
C454 H445 0.930 . S
C454 C452 1.384 . S
C454 C455 1.372 . S
C455 C454 1.372 . S
C455 C456 1.400 1_556 S
C455 C460 1.491 . S
C456 H446 0.930 . S
C456 C455 1.400 1_554 S
C456 C459 1.386 . S
H457 C473 0.930 . S
H458 C474 0.931 . S
C459 H447 0.929 . S
C459 C453 1.390 1_554 S
C459 C456 1.386 . S
C460 C455 1.491 . S
C460 C462 1.392 1_556 S
C460 C463 1.404 . S
H461 C467 0.930 . S
C462 H448 0.930 . S
C462 C460 1.392 1_554 S
C462 C465 1.403 . S
C463 C460 1.404 . S
C463 C464 1.524 . S
C463 C467 1.400 . S
C464 H449 0.960 . S
C464 H450 0.960 . S
C464 H451 0.960 . S
C464 C463 1.524 . S
C465 C462 1.403 . S
C465 C466 1.392 . S
C465 C469 1.495 . S
C466 C465 1.392 . S
C466 C467 1.385 1_554 S
C466 C468 1.478 . S
C467 H461 0.930 . S
C467 C463 1.400 . S
C467 C466 1.385 1_556 S
C468 C466 1.478 . S
C468 C470 1.381 1_554 S
C468 C474 1.383 . S
C469 C465 1.495 . S
C469 H475 0.959 . S
C469 H476 0.961 . S
C469 H477 0.960 . S
C470 C468 1.381 1_556 S
C470 C471 1.394 . S
C470 H478 0.930 . S
C471 C470 1.394 . S
C471 C472 1.383 1_556 S
C471 H479 0.929 . S
C472 C471 1.383 1_554 S
C472 C473 1.377 . S
C473 H457 0.930 . S
C473 C472 1.377 . S
C473 C474 1.379 . S
C474 H458 0.931 . S
C474 C468 1.383 . S
C474 C473 1.379 . S
H475 C469 0.959 . S
H476 C469 0.961 . S
H477 C469 0.960 . S
H478 C470 0.930 . S
H479 C471 0.929 . S
H480 C488 0.929 1_556 S
H481 C490 0.930 . S
H482 C492 0.930 . S
H483 C495 0.929 . S
H484 C498 0.930 . S
H485 C500 0.960 . S
H486 C500 0.960 . S
H487 C500 0.960 . S
C488 H480 0.929 1_554 S
C488 C489 1.377 . S
C488 C490 1.384 1_554 S
C489 C488 1.377 . S
C489 C495 1.390 . S
C490 H481 0.930 . S
C490 C488 1.384 1_556 S
C490 C491 1.372 1_556 S
C491 C490 1.372 1_554 S
C491 C492 1.400 . S
C491 C496 1.490 . S
C492 H482 0.930 . S
C492 C491 1.400 . S
C492 C495 1.386 . S
H493 C509 0.930 1_554 S
H494 C510 0.931 . S
C495 H483 0.929 . S
C495 C489 1.390 . S
C495 C492 1.386 . S
C496 C491 1.490 . S
C496 C498 1.395 1_554 S
C496 C499 1.403 . S
H497 C503 0.930 . S
C498 H484 0.930 . S
C498 C496 1.395 1_556 S
C498 C501 1.403 . S
C499 C496 1.403 . S
C499 C500 1.524 . S
C499 C503 1.400 . S
C500 H485 0.960 . S
C500 H486 0.960 . S
C500 H487 0.960 . S
C500 C499 1.524 . S
C501 C498 1.403 . S
C501 C502 1.392 . S
C501 C505 1.495 . S
C502 C501 1.392 . S
C502 C503 1.385 1_556 S
C502 C504 1.478 . S
C503 H497 0.930 . S
C503 C499 1.400 . S
C503 C502 1.385 1_554 S
C504 C502 1.478 . S
C504 C506 1.381 . S
C504 C510 1.383 1_556 S
C505 C501 1.495 . S
C505 H511 0.959 . S
C505 H512 0.961 . S
C505 H513 0.960 . S
C506 C504 1.381 . S
C506 C507 1.394 . S
C506 H514 0.930 . S
C507 C506 1.394 . S
C507 C508 1.383 . S
C507 H515 0.929 . S
C508 C507 1.383 . S
C508 C509 1.377 . S
C509 H493 0.930 1_556 S
C509 C508 1.377 . S
C509 C510 1.379 1_556 S
C510 H494 0.931 . S
C510 C504 1.383 1_554 S
C510 C509 1.379 1_554 S
H511 C505 0.959 . S
H512 C505 0.961 . S
H513 C505 0.960 . S
H514 C506 0.930 . S
H515 C507 0.929 . S
H516 C524 0.929 . S
H517 C526 0.930 . S
H518 C528 0.930 . S
H519 C531 0.929 . S
H520 C534 0.930 . S
H521 C536 0.960 . S
H522 C536 0.960 . S
H523 C536 0.960 . S
C524 H516 0.929 . S
C524 C525 1.377 . S
C524 C526 1.384 . S
C525 C524 1.377 . S
C525 C531 1.390 1_554 S
C526 H517 0.930 . S
C526 C524 1.384 . S
C526 C527 1.372 . S
C527 C526 1.372 . S
C527 C528 1.400 1_554 S
C527 C532 1.490 . S
C528 H518 0.930 . S
C528 C527 1.400 1_556 S
C528 C531 1.386 . S
H529 C545 0.930 1_556 S
H530 C546 0.931 . S
C531 H519 0.929 . S
C531 C525 1.390 1_556 S
C531 C528 1.386 . S
C532 C527 1.490 . S
C532 C534 1.395 . S
C532 C535 1.403 1_554 S
H533 C539 0.930 . S
C534 H520 0.930 . S
C534 C532 1.395 . S
C534 C537 1.403 . S
C535 C532 1.403 1_556 S
C535 C536 1.524 . S
C535 C539 1.400 . S
C536 H521 0.960 . S
C536 H522 0.960 . S
C536 H523 0.960 . S
C536 C535 1.524 . S
C537 C534 1.403 . S
C537 C538 1.392 . S
C537 C541 1.495 . S
C538 C537 1.392 . S
C538 C539 1.385 1_554 S
C538 C540 1.478 . S
C539 H533 0.930 . S
C539 C535 1.400 . S
C539 C538 1.385 1_556 S
C540 C538 1.478 . S
C540 C542 1.381 . S
C540 C546 1.383 . S
C541 C537 1.495 . S
C541 H547 0.959 . S
C541 H548 0.961 . S
C541 H549 0.960 . S
C542 C540 1.381 . S
C542 C543 1.394 . S
C542 H550 0.930 . S
C543 C542 1.394 . S
C543 C544 1.384 . S
C543 H551 0.929 . S
C544 C543 1.384 . S
C544 C545 1.378 . S
C545 H529 0.930 1_554 S
C545 C544 1.378 . S
C545 C546 1.379 . S
C546 H530 0.931 . S
C546 C540 1.383 . S
C546 C545 1.379 . S
H547 C541 0.959 . S
H548 C541 0.961 . S
H549 C541 0.960 . S
H550 C542 0.930 . S
H551 C543 0.929 . S
C129 C61 2.273 . S
C148 C10 2.249 . S
C165 C31 2.326 . S
C184 C100 2.331 . S
C201 C91 2.272 . S
C220 C40 2.249 . S
C237 C1 2.325 . S
C256 C70 2.325 . S
C273 N96 1.556 . S
C292 N14 1.554 . S
C309 C87 1.596 . S
C328 C46 1.593 . S
C345 N66 1.560 . S
C364 N44 1.542 . S
C381 C16 1.596 . S
C400 C117 1.592 . S
C417 C106 0.634 . S
C436 C27 0.647 . S
C453 N74 0.396 . S
C472 N36 0.316 . S
C489 C57 0.628 . S
C508 C76 0.591 . S
C525 N6 0.420 . S
C544 N104 0.451 1_554 S
