# Generated by pormake.
# Topology tfs, (6)-cn, num edge types: 1
# Building blocks:
#     Node 0, Type 0, BuildingBlock: FUNLAD_clean_sbu_0, # of connection points: 6
#     Node 1, Type 0, BuildingBlock: FUNLAD_clean_sbu_0, # of connection points: 6
#     Node 2, Type 0, BuildingBlock: FUNLAD_clean_sbu_0, # of connection points: 6
#     Node 3, Type 0, BuildingBlock: FUNLAD_clean_sbu_0, # of connection points: 6
#     Node 4, Type 0, BuildingBlock: FUNLAD_clean_sbu_0, # of connection points: 6
#     Node 5, Type 0, BuildingBlock: FUNLAD_clean_sbu_0, # of connection points: 6
#     Edge 6, Type (0, 0), BuildingBlock: ZUJKAS_clean_linker_0, # of connection points: 2
#     Edge 7, Type (0, 0), BuildingBlock: ZUJKAS_clean_linker_0, # of connection points: 2
#     Edge 8, Type (0, 0), BuildingBlock: ZUJKAS_clean_linker_0, # of connection points: 2
#     Edge 9, Type (0, 0), BuildingBlock: ZUJKAS_clean_linker_0, # of connection points: 2
#     Edge 10, Type (0, 0), BuildingBlock: ZUJKAS_clean_linker_0, # of connection points: 2
#     Edge 11, Type (0, 0), BuildingBlock: ZUJKAS_clean_linker_0, # of connection points: 2
#     Edge 12, Type (0, 0), BuildingBlock: ZUJKAS_clean_linker_0, # of connection points: 2
#     Edge 13, Type (0, 0), BuildingBlock: ZUJKAS_clean_linker_0, # of connection points: 2
#     Edge 14, Type (0, 0), BuildingBlock: ZUJKAS_clean_linker_0, # of connection points: 2
#     Edge 15, Type (0, 0), BuildingBlock: ZUJKAS_clean_linker_0, # of connection points: 2
#     Edge 16, Type (0, 0), BuildingBlock: ZUJKAS_clean_linker_0, # of connection points: 2
#     Edge 17, Type (0, 0), BuildingBlock: ZUJKAS_clean_linker_0, # of connection points: 2
#     Edge 18, Type (0, 0), BuildingBlock: ZUJKAS_clean_linker_0, # of connection points: 2
#     Edge 19, Type (0, 0), BuildingBlock: ZUJKAS_clean_linker_0, # of connection points: 2
#     Edge 20, Type (0, 0), BuildingBlock: ZUJKAS_clean_linker_0, # of connection points: 2
#     Edge 21, Type (0, 0), BuildingBlock: ZUJKAS_clean_linker_0, # of connection points: 2
#     Edge 22, Type (0, 0), BuildingBlock: ZUJKAS_clean_linker_0, # of connection points: 2
#     Edge 23, Type (0, 0), BuildingBlock: ZUJKAS_clean_linker_0, # of connection points: 2
# Relax obj value: 0.140
# Max RMSD: 0.157
# Mean RMSD: 0.155
data_MOF--net-tfs--node1-FUNLAD_clean_sbu_0--edge1-ZUJKAS_clean_linker_0
_symmetry_space_group_name_H-M    P1
_symmetry_Int_Tables_number       1
_symmetry_cell_setting            triclinic
loop_
_symmetry_equiv_pos_as_xyz
'x, y, z'
_cell_length_a     52.896219
_cell_length_b     52.802826
_cell_length_c     26.262976
_cell_angle_alpha  90.549035
_cell_angle_beta   91.116046
_cell_angle_gamma 120.01113
loop_
_atom_site_label
_atom_site_type_symbol
_atom_site_fract_x
_atom_site_fract_y
_atom_site_fract_z
_atom_type_partial_charge
C0 C 0.13815 0.37032 0.03067 0.0
N1 N 0.19749 0.41068 0.1528 0.0
C2 C 0.17591 0.41214 0.17766 0.0
C3 C 0.17563 0.4122 0.23079 0.0
C4 C 0.19777 0.41073 0.2587 0.0
C5 C 0.21973 0.40916 0.23202 0.0
C6 C 0.21918 0.40919 0.17883 0.0
Zn7 Zn 0.19709 0.41078 0.07501 0.0
C8 C 0.20764 0.36552 0.0306 0.0
N9 N 0.19544 0.41082 0.9124 0.0
C10 C 0.17376 0.41226 0.88622 0.0
C11 C 0.21695 0.40915 0.88769 0.0
C12 C 0.21715 0.40878 0.83457 0.0
C13 C 0.19501 0.41015 0.80649 0.0
C14 C 0.17314 0.41197 0.83302 0.0
Zn15 Zn 0.19583 0.41082 0.99019 0.0
O16 O 0.15222 0.37983 0.07278 0.0
C17 C 0.18422 0.4556 0.03437 0.0
O18 O 0.15114 0.38007 0.98917 0.0
H19 H 0.23402 0.4081 0.90923 0.0
H20 H 0.1588 0.4132 0.15624 0.0
H21 H 0.15683 0.41349 0.90662 0.0
O22 O 0.18765 0.44513 0.07557 0.0
O23 O 0.18662 0.44529 0.99199 0.0
H24 H 0.23615 0.4081 0.1583 0.0
O25 O 0.24087 0.44148 0.99239 0.0
O26 O 0.24219 0.44175 0.07597 0.0
O27 O 0.20453 0.37628 0.98955 0.0
O28 O 0.2062 0.3763 0.07314 0.0
C29 C 0.25521 0.45096 0.03428 0.0
H30 H 0.15806 0.41303 0.24975 0.0
H31 H 0.2374 0.40834 0.25202 0.0
H32 H 0.23466 0.40776 0.81573 0.0
H33 H 0.15547 0.41274 0.81289 0.0
C34 C 0.83341 0.21499 0.05273 0.0
N35 N 0.7755 0.2088 0.93667 0.0
C36 C 0.79905 0.22989 0.91249 0.0
C37 C 0.79938 0.23044 0.85936 0.0
C38 C 0.77524 0.20908 0.83071 0.0
C39 C 0.75105 0.18784 0.85672 0.0
C40 C 0.75164 0.1881 0.90992 0.0
Zn41 Zn 0.77679 0.20738 0.01446 0.0
C42 C 0.75677 0.1474 0.05005 0.0
N43 N 0.78069 0.20418 0.17686 0.0
C44 C 0.80462 0.22488 0.20344 0.0
C45 C 0.75724 0.18306 0.20118 0.0
C46 C 0.75712 0.18244 0.25432 0.0
C47 C 0.78135 0.20378 0.28281 0.0
C48 C 0.80541 0.22509 0.25664 0.0
Zn49 Zn 0.77931 0.20558 0.09909 0.0
O50 O 0.81913 0.21388 0.01255 0.0
C51 C 0.79977 0.26587 0.06347 0.0
O52 O 0.82207 0.21253 0.0959 0.0
H53 H 0.73839 0.16686 0.17934 0.0
H54 H 0.81785 0.24607 0.93445 0.0
H55 H 0.82305 0.24145 0.18336 0.0
O56 O 0.79351 0.25297 0.02012 0.0
O57 O 0.7959 0.25112 0.10342 0.0
H58 H 0.73314 0.17155 0.92988 0.0
O59 O 0.73631 0.1985 0.10085 0.0
O60 O 0.73418 0.20049 0.01753 0.0
O61 O 0.76287 0.1602 0.09346 0.0
O62 O 0.76033 0.16209 1.01015 0.0
C63 C 0.72223 0.19729 0.06027 0.0
H64 H 0.81864 0.24701 0.84096 0.0
H65 H 0.73182 0.1712 0.83619 0.0
H66 H 0.73794 0.16582 0.27286 0.0
H67 H 0.82471 0.24172 0.27702 0.0
C68 C 0.6068 0.76546 0.03276 0.0
N69 N 0.56534 0.78047 0.15357 0.0
C70 C 0.56632 0.75862 0.17894 0.0
C71 C 0.56671 0.75856 0.23211 0.0
C72 C 0.56604 0.7812 0.2595 0.0
C73 C 0.5652 0.80356 0.23228 0.0
C74 C 0.56487 0.80276 0.17911 0.0
Zn75 Zn 0.56396 0.77946 0.07573 0.0
C76 C 0.60406 0.83708 0.03281 0.0
N77 N 0.56069 0.77718 0.91303 0.0
C78 C 0.56142 0.75502 0.8875 0.0
C79 C 0.55953 0.79893 0.88765 0.0
C80 C 0.55927 0.79905 0.83449 0.0
C81 C 0.56023 0.77657 0.80711 0.0
C82 C 0.56121 0.75429 0.83434 0.0
Zn83 Zn 0.56205 0.77817 0.99088 0.0
O84 O 0.59733 0.76899 0.07474 0.0
C85 C 0.52187 0.7203 0.03351 0.0
O86 O 0.59576 0.76805 0.99113 0.0
H87 H 0.55906 0.81639 0.90869 0.0
H88 H 0.56659 0.74105 0.15789 0.0
H89 H 0.56227 0.73791 0.90841 0.0
O90 O 0.53214 0.73452 0.07526 0.0
O91 O 0.53073 0.73334 0.99166 0.0
H92 H 0.56416 0.81995 0.1582 0.0
O93 O 0.52822 0.78843 0.99198 0.0
O94 O 0.53058 0.79006 0.07556 0.0
O95 O 0.59339 0.82283 0.99125 0.0
O96 O 0.59556 0.82419 0.07486 0.0
C97 C 0.51925 0.79248 0.03415 0.0
H98 H 0.56699 0.7407 0.2515 0.0
H99 H 0.56505 0.82162 0.25184 0.0
H100 H 0.55887 0.81686 0.8151 0.0
H101 H 0.56159 0.73633 0.81478 0.0
C102 C 0.75748 0.60757 0.05537 0.0
N103 N 0.77482 0.56319 0.94131 0.0
C104 C 0.75093 0.56004 0.91511 0.0
C105 C 0.75009 0.55944 0.8619 0.0
C106 C 0.77407 0.56212 0.83528 0.0
C107 C 0.79823 0.56484 0.86336 0.0
C108 C 0.79814 0.56534 0.91653 0.0
Zn109 Zn 0.77656 0.5666 0.01919 0.0
C110 C 0.83355 0.61579 0.05668 0.0
N111 N 0.78126 0.57536 0.18178 0.0
C112 C 0.75805 0.57338 0.20675 0.0
C113 C 0.80518 0.57847 0.20779 0.0
C114 C 0.80619 0.57919 0.261 0.0
C115 C 0.78234 0.57669 0.28783 0.0
C116 C 0.75814 0.57401 0.25994 0.0
Zn117 Zn 0.77943 0.57191 0.10389 0.0
O118 O 0.76065 0.59573 0.01555 0.0
C119 C 0.72181 0.52318 0.06564 0.0
O120 O 0.76357 0.60132 0.09883 0.0
H121 H 0.82341 0.58004 0.18723 0.0
H122 H 0.7326 0.55835 0.93552 0.0
H123 H 0.7392 0.57082 0.18537 0.0
O124 O 0.73374 0.5312 0.0228 0.0
O125 O 0.73614 0.5364 0.1061 0.0
H126 H 0.81698 0.56796 0.93805 0.0
O127 O 0.79544 0.54244 0.10749 0.0
O128 O 0.79287 0.53754 0.02415 0.0
O129 O 0.82248 0.60744 0.1001 0.0
O130 O 0.81898 0.60218 0.01676 0.0
C131 C 0.79913 0.53117 0.06736 0.0
H132 H 0.73085 0.5569 0.84184 0.0
H133 H 0.81735 0.56733 0.84451 0.0
H134 H 0.82546 0.58171 0.28089 0.0
H135 H 0.73912 0.57165 0.27895 0.0
C136 C 0.25219 0.79552 0.03502 0.0
N137 N 0.19395 0.77842 0.91195 0.0
C138 C 0.21644 0.80075 0.88774 0.0
C139 C 0.21687 0.80113 0.83464 0.0
C140 C 0.19392 0.77831 0.80606 0.0
C141 C 0.17103 0.75546 0.83208 0.0
C142 C 0.17149 0.75596 0.88528 0.0
Zn143 Zn 0.19393 0.77926 0.98973 0.0
C144 C 0.1789 0.72224 0.03347 0.0
N145 N 0.19462 0.78208 0.15233 0.0
C146 C 0.21698 0.80463 0.17903 0.0
C147 C 0.17206 0.75979 0.17651 0.0
C148 C 0.17142 0.75958 0.22959 0.0
C149 C 0.19424 0.78252 0.25821 0.0
C150 C 0.21723 0.80528 0.23223 0.0
Zn151 Zn 0.19469 0.78121 0.07454 0.0
O152 O 0.23837 0.79097 0.99271 0.0
C153 C 0.20941 0.8379 0.03066 0.0
O154 O 0.23904 0.79293 0.07627 0.0
H155 H 0.15454 0.74204 0.15457 0.0
H156 H 0.23403 0.81846 0.90965 0.0
H157 H 0.23466 0.82216 0.15904 0.0
O158 O 0.20558 0.82345 0.98954 0.0
O159 O 0.20652 0.82557 0.07313 0.0
H160 H 0.15385 0.7384 0.90531 0.0
O161 O 0.15055 0.7697 0.07162 0.0
O162 O 0.14978 0.76792 0.98801 0.0
O163 O 0.18279 0.73669 0.07466 0.0
O164 O 0.18205 0.73476 0.9911 0.0
C165 C 0.13684 0.76564 0.02937 0.0
H166 H 0.23475 0.81938 0.8162 0.0
H167 H 0.15308 0.73726 0.81158 0.0
H168 H 0.15347 0.7414 0.24802 0.0
H169 H 0.23509 0.82356 0.25276 0.0
C170 C 0.36105 0.2159 0.04118 0.0
N171 N 0.4022 0.20241 0.167 0.0
C172 C 0.40058 0.224 0.19277 0.0
C173 C 0.40008 0.22418 0.24591 0.0
C174 C 0.40131 0.20194 0.27285 0.0
C175 C 0.40267 0.17977 0.24519 0.0
C176 C 0.40309 0.18042 0.19207 0.0
Zn177 Zn 0.40431 0.20352 0.08937 0.0
C178 C 0.36525 0.1459 0.04042 0.0
N179 N 0.40942 0.20601 0.92716 0.0
C180 C 0.40829 0.2279 0.90221 0.0
C181 C 0.41097 0.18441 0.90123 0.0
C182 C 0.41107 0.18411 0.84806 0.0
C183 C 0.40953 0.20622 0.82125 0.0
C184 C 0.40832 0.22843 0.84907 0.0
Zn185 Zn 0.4074 0.2049 1.00483 0.0
O186 O 0.37027 0.2131 0.08458 0.0
C187 C 0.44638 0.26286 0.05374 0.0
O188 O 0.3731 0.21387 1.00124 0.0
H189 H 0.41173 0.16715 0.9218 0.0
H190 H 0.39999 0.24132 0.1721 0.0
H191 H 0.4071 0.24488 0.92355 0.0
O192 O 0.43543 0.24846 0.0937 0.0
O193 O 0.43832 0.24997 1.01043 0.0
H194 H 0.4043 0.16343 0.17084 0.0
O195 O 0.44156 0.19544 1.0096 0.0
O196 O 0.43842 0.19377 0.09284 0.0
O197 O 0.37654 0.16018 1.00053 0.0
O198 O 0.37323 0.1587 0.08378 0.0
C199 C 0.45037 0.19172 0.05272 0.0
H200 H 0.39936 0.24189 0.26568 0.0
H201 H 0.40325 0.16199 0.26435 0.0
H202 H 0.41169 0.16638 0.82817 0.0
H203 H 0.40751 0.24612 0.83001 0.0
H204 H 0.3283 0.21053 0.95622 0.0
H205 H 0.29046 0.22401 0.94757 0.0
H206 H 0.30137 0.24823 0.10722 0.0
H207 H 0.33867 0.23403 0.11661 0.0
H208 H 0.24243 0.21989 0.07034 0.0
H209 H 0.31799 0.31151 0.94853 0.0
H210 H 0.30866 0.27548 0.92662 0.0
H211 H 0.32976 0.29027 0.98481 0.0
C212 C 0.32244 0.21848 0.98958 0.0
C213 C 0.33674 0.22178 0.03691 0.0
C214 C 0.30081 0.22607 0.98457 0.0
C215 C 0.29362 0.23752 0.02657 0.0
C216 C 0.30675 0.23942 0.07441 0.0
H217 H 0.22245 0.34192 0.1097 0.0
H218 H 0.23638 0.30436 0.10453 0.0
C219 C 0.32813 0.23149 0.07963 0.0
C220 C 0.27474 0.25038 0.01994 0.0
H221 H 0.27385 0.30879 0.96814 0.0
C222 C 0.24901 0.23911 0.04752 0.0
C223 C 0.28354 0.27542 0.99005 0.0
C224 C 0.31158 0.2891 0.96108 0.0
C225 C 0.23215 0.25281 0.04707 0.0
C226 C 0.24165 0.27852 0.01887 0.0
C227 C 0.26663 0.28895 0.98951 0.0
C228 C 0.22815 0.29696 0.02313 0.0
C229 C 0.20468 0.23999 0.07736 0.0
C230 C 0.21905 0.30524 0.97902 0.0
C231 C 0.21161 0.32705 0.9817 0.0
C232 C 0.21321 0.34091 0.02858 0.0
C233 C 0.22106 0.33164 0.07306 0.0
C234 C 0.22867 0.30993 0.07027 0.0
H235 H 0.19539 0.2161 0.08224 0.0
H236 H 0.20993 0.25052 0.11584 0.0
H237 H 0.18786 0.24379 0.05878 0.0
H238 H 0.2188 0.2956 0.94226 0.0
H239 H 0.20536 0.33356 0.94683 0.0
H240 H 0.10412 0.33914 0.94843 0.0
H241 H 0.05198 0.30307 0.94703 0.0
H242 H 0.04982 0.31497 0.1093 0.0
H243 H 0.10207 0.3506 0.11138 0.0
H244 H 0.01711 0.25568 0.07422 0.0
H245 H -0.00772 0.33035 0.96322 0.0
H246 H 0.01765 0.32155 0.93492 0.0
H247 H 0.02748 0.3425 0.99359 0.0
C248 C 0.09256 0.334 0.98385 0.0
C249 C 0.10702 0.34795 0.02994 0.0
C250 C 0.06286 0.31339 0.98295 0.0
C251 C 0.04718 0.30677 0.02794 0.0
C252 C 0.0617 0.31989 0.07423 0.0
H253 H 0.87407 0.22933 0.12969 0.0
H254 H 0.92579 0.24534 0.12083 0.0
C255 C 0.09145 0.34033 0.07527 0.0
C256 C 0.01525 0.28772 0.02651 0.0
H257 H 0.95265 0.28509 0.98477 0.0
C258 C 0.00291 0.26188 0.05434 0.0
C259 C -0.00299 0.29606 1.00052 0.0
C260 C 0.00916 0.32422 0.97168 0.0
C261 C 0.97254 0.24423 0.05744 0.0
C262 C 0.95438 0.25302 0.03255 0.0
C263 C 0.96675 0.27838 1.0035 0.0
C264 C 0.92259 0.23792 0.03913 0.0
C265 C 0.96019 0.21655 0.08752 0.0
C266 C 0.90376 0.2283 0.99616 0.0
C267 C 0.87438 0.21963 1.00097 0.0
C268 C 0.86342 0.22048 0.04889 0.0
C269 C 0.88195 0.22848 0.09231 0.0
C270 C 0.91142 0.23735 0.08739 0.0
H271 H 0.97582 0.20834 0.09058 0.0
H272 H 0.95578 0.22115 0.12667 0.0
H273 H 0.93935 0.19912 0.0699 0.0
H274 H 0.9121 0.22879 0.9586 0.0
H275 H 0.86053 0.21327 0.96689 0.0
H276 H 0.74374 0.10902 0.12746 0.0
H277 H 0.72362 0.05618 0.12 0.0
H278 H 0.72494 0.06145 0.95617 0.0
H279 H 0.74464 0.11424 0.9631 0.0
H280 H 0.67172 0.02017 0.99322 0.0
H281 H 0.76172 0.00822 0.07919 0.0
H282 H 0.75075 0.02893 0.1183 0.0
H283 H 0.76682 0.04286 0.05785 0.0
C284 C 0.73999 0.09898 0.08984 0.0
C285 C 0.74568 0.11573 0.04585 0.0
C286 C 0.72876 0.06886 0.08568 0.0
C287 C 0.72333 0.05513 0.03756 0.0
C288 C 0.72927 0.07181 0.99361 0.0
H289 H 0.62877 0.87037 0.94977 0.0
H290 H 0.66071 0.92342 0.94825 0.0
C291 C 0.74042 0.1019 0.99769 0.0
C292 C 0.70906 0.02305 0.0331 0.0
H293 H 0.71533 0.96444 0.06869 0.0
C294 C 0.68137 0.00795 1.00908 0.0
C295 C 0.72181 0.00736 0.05405 0.0
C296 C 0.75204 0.02266 0.07839 0.0
C297 C 0.66553 0.97737 1.00701 0.0
C298 C 0.67802 0.96166 0.02883 0.0
C299 C 0.70595 0.97672 0.05201 0.0
C300 C 0.66166 0.92952 0.02998 0.0
C301 C 0.63513 0.96214 0.9832 0.0
C302 C 0.65268 0.91552 0.07665 0.0
C303 C 0.63458 0.88526 0.07775 0.0
C304 C 0.62525 0.86863 0.0321 0.0
C305 C 0.63536 0.88265 0.98553 0.0
C306 C 0.65355 0.9129 0.98453 0.0
H307 H 0.62654 0.97733 0.97786 0.0
H308 H 0.63558 0.95296 0.94527 0.0
H309 H 0.6198 0.94379 1.00703 0.0
H310 H 0.65888 0.92813 0.11207 0.0
H311 H 0.62725 0.87504 0.11421 0.0
H312 H 0.7424 0.63237 0.13207 0.0
H313 H 0.72276 0.66542 0.12339 0.0
H314 H 0.72977 0.66353 0.96021 0.0
H315 H 0.74891 0.63016 0.96826 0.0
H316 H 0.74612 0.72122 0.07631 0.0
H317 H 0.64291 0.63542 0.98211 0.0
H318 H 0.66795 0.62701 0.01512 0.0
H319 H 0.67581 0.64181 0.95234 0.0
C320 C 0.73983 0.63906 0.09437 0.0
C321 C 0.74683 0.62841 0.0508 0.0
C322 C 0.72874 0.65799 0.08953 0.0
C323 C 0.72455 0.66649 0.04115 0.0
C324 C 0.73245 0.65674 0.99777 0.0
H325 H 0.63138 0.75572 0.9499 0.0
H326 H 0.66486 0.73646 0.9494 0.0
C327 C 0.74337 0.63771 1.0025 0.0
C328 C 0.71068 0.68454 0.03595 0.0
H329 H 0.64894 0.68255 0.99061 0.0
C330 C 0.72493 0.7129 0.05744 0.0
C331 C 0.68308 0.67346 0.01122 0.0
C332 C 0.66636 0.64268 0.98921 0.0
C333 C 0.71213 0.73057 0.05493 0.0
C334 C 0.68433 0.71928 0.03093 0.0
C335 C 0.67039 0.69114 1.00863 0.0
C336 C 0.6681 0.73519 0.03148 0.0
C337 C 0.7284 0.76109 0.0779 0.0
C338 C 0.65923 0.74111 0.07788 0.0
C339 C 0.6401 0.75204 0.07836 0.0
C340 C 0.62938 0.75695 0.03236 0.0
C341 C 0.63919 0.75204 0.98595 0.0
C342 C 0.65836 0.74114 0.98556 0.0
H343 H 0.75226 0.76936 0.08112 0.0
H344 H 0.72466 0.77651 0.05488 0.0
H345 H 0.72044 0.76082 0.11678 0.0
H346 H 0.66603 0.73602 0.11367 0.0
H347 H 0.63292 0.7556 0.11471 0.0
H348 H 0.10058 0.75032 0.10963 0.0
H349 H 0.04865 0.73475 0.10724 0.0
H350 H 0.05191 0.74957 0.94563 0.0
H351 H 0.1038 0.76452 0.94732 0.0
H352 H 0.01632 0.76126 0.07458 0.0
H353 H -0.0082 0.6627 0.95725 0.0
H354 H 0.02697 0.68562 0.98804 0.0
H355 H 0.01707 0.69726 0.93071 0.0
C356 C 0.0903 0.75044 0.07361 0.0
C357 C 0.10607 0.75815 0.02848 0.0
C358 C 0.06072 0.74172 0.0724 0.0
C359 C 0.04654 0.74072 0.02617 0.0
C360 C 0.0625 0.74979 0.98148 0.0
H361 H 0.85921 0.64456 0.97056 0.0
H362 H 0.91036 0.68146 0.96064 0.0
C363 C 0.09205 0.75825 0.98253 0.0
C364 C 0.01461 0.72784 0.02449 0.0
H365 H 0.95212 0.66734 0.98227 0.0
C366 C 0.00219 0.7409 0.05396 0.0
C367 C -0.00359 0.70128 0.99756 0.0
C368 C 0.00863 0.68569 0.96689 0.0
C369 C 0.97182 0.72766 0.0581 0.0
C370 C 0.95374 0.70062 0.03256 0.0
C371 C 0.96616 0.6882 1.00157 0.0
C372 C 0.9221 0.68323 0.04049 0.0
C373 C 0.95941 0.74246 0.09017 0.0
C374 C 0.91176 0.67252 0.08893 0.0
C375 C 0.88252 0.65143 0.0948 0.0
C376 C 0.86341 0.64051 0.05211 0.0
C377 C 0.87354 0.65233 1.00408 0.0
C378 C 0.90267 0.67354 0.99834 0.0
H379 H 0.97466 0.76643 0.09351 0.0
H380 H 0.93814 0.73849 0.07402 0.0
H381 H 0.95583 0.73353 0.12911 0.0
H382 H 0.92661 0.67925 0.12172 0.0
H383 H 0.87527 0.64268 0.13225 0.0
H384 H 0.21159 0.86887 0.94683 0.0
H385 H 0.22996 0.92143 0.94285 0.0
H386 H 0.24524 0.92974 0.10567 0.0
H387 H 0.22645 0.87709 0.11031 0.0
H388 H 0.22135 0.96416 0.06354 0.0
H389 H 0.31895 0.97711 0.96362 0.0
H390 H 0.28412 0.95175 0.93456 0.0
H391 H 0.29426 0.944 0.99562 0.0
C392 C 0.21859 0.88183 0.98188 0.0
C393 C 0.21803 0.86901 0.02882 0.0
C394 C 0.22902 0.91178 0.97948 0.0
C395 C 0.23926 0.92929 0.02386 0.0
C396 C 0.23741 0.91641 0.07106 0.0
H397 H 0.34043 0.10778 0.11779 0.0
H398 H 0.30562 0.0554 0.11023 0.0
C399 C 0.22682 0.88642 0.07358 0.0
C400 C 0.2542 0.96132 0.02077 0.0
H401 H 0.31686 0.0197 0.98037 0.0
C402 C 0.24212 0.9764 0.04505 0.0
C403 C 0.28125 0.97697 0.99656 0.0
C404 C 0.29562 0.96174 0.9714 0.0
C405 C 0.25668 0.00704 0.04621 0.0
C406 C 0.2841 0.02267 0.02322 0.0
C407 C 0.29574 0.00752 0.99776 0.0
C408 C 0.30229 0.05471 0.02787 0.0
C409 C 0.24268 0.02238 0.0721 0.0
C410 C 0.31217 0.07145 0.98399 0.0
C411 C 0.33237 0.10125 0.98811 0.0
C412 C 0.34303 0.11471 0.03625 0.0
C413 C 0.33256 0.098 0.08021 0.0
C414 C 0.31245 0.06816 0.076 0.0
H415 H 0.2186 0.00804 0.07357 0.0
H416 H 0.25141 0.02831 0.11185 0.0
H417 H 0.24757 0.04276 0.05227 0.0
H418 H 0.30471 0.0613 0.94653 0.0
H419 H 0.33993 0.11361 0.95356 0.0
H420 H 0.16953 0.68883 0.11736 0.0
H421 H 0.16404 0.64008 0.12052 0.0
H422 H 0.16884 0.638 0.95693 0.0
H423 H 0.17397 0.68661 0.95316 0.0
H424 H 0.12545 0.58418 1.00026 0.0
H425 H 0.23521 0.62971 0.09441 0.0
H426 H 0.21039 0.63819 0.12581 0.0
H427 H 0.2232 0.6525 0.06391 0.0
C428 C 0.16913 0.6779 0.08197 0.0
C429 C 0.17255 0.6917 0.03503 0.0
C430 C 0.16606 0.65011 0.08391 0.0
C431 C 0.16655 0.63581 0.03904 0.0
C432 C 0.16855 0.64886 0.99195 0.0
H433 H 0.17728 0.48405 0.9537 0.0
H434 H 0.16983 0.52613 0.95661 0.0
C435 C 0.17154 0.67663 0.98992 0.0
C436 C 0.16666 0.60797 0.04132 0.0
H437 H 0.20794 0.5786 0.08164 0.0
C438 C 0.14339 0.58285 0.01815 0.0
C439 C 0.1902 0.60651 0.06463 0.0
C440 C 0.21632 0.63317 0.08827 0.0
C441 C 0.14299 0.55608 0.0179 0.0
C442 C 0.1667 0.55473 0.04071 0.0
C443 C 0.18976 0.57978 0.06441 0.0
C444 C 0.16877 0.52789 0.03886 0.0
C445 C 0.11716 0.52948 0.99362 0.0
C446 C 0.17101 0.51527 0.08421 0.0
C447 C 0.17552 0.49141 0.08274 0.0
C448 C 0.17805 0.47992 0.03583 0.0
C449 C 0.17536 0.49237 0.99042 0.0
C450 C 0.17087 0.51625 0.99197 0.0
H451 H 0.09764 0.53215 0.99066 0.0
H452 H 0.12271 0.52611 0.95455 0.0
H453 H 0.11153 0.50956 0.01561 0.0
H454 H 0.16965 0.52414 0.12076 0.0
H455 H 0.17745 0.48227 0.11838 0.0
H456 H 0.4814 0.18725 0.97476 0.0
H457 H 0.52476 0.18219 0.98136 0.0
H458 H 0.51872 0.17886 0.14495 0.0
H459 H 0.47546 0.18425 0.1389 0.0
H460 H 0.57339 0.22013 0.11047 0.0
H461 H 0.53458 0.11205 0.01599 0.0
H462 H 0.5274 0.13636 0.9792 0.0
H463 H 0.50992 0.12362 0.03907 0.0
C464 C 0.48905 0.18507 0.01213 0.0
C465 C 0.47508 0.18625 0.05633 0.0
C466 C 0.51369 0.18196 0.01577 0.0
C467 C 0.52462 0.17976 0.06358 0.0
C468 C 0.51041 0.18033 0.10771 0.0
H469 H 0.68997 0.18877 0.14506 0.0
H470 H 0.64099 0.18247 0.14902 0.0
C471 C 0.48575 0.18343 0.10414 0.0
C472 C 0.55231 0.17944 0.06759 0.0
H473 H 0.58631 0.14275 0.02727 0.0
C474 C 0.57617 0.20303 0.09294 0.0
C475 C 0.55574 0.15711 0.04445 0.0
C476 C 0.53048 0.1307 0.01854 0.0
C477 C 0.6038 0.20551 0.09411 0.0
C478 C 0.60739 0.1835 0.07001 0.0
C479 C 0.58338 0.15956 0.04564 0.0
C480 C 0.63624 0.1857 0.06771 0.0
C481 C 0.62915 0.23219 0.11933 0.0
C482 C 0.6493 0.1888 0.02052 0.0
C483 C 0.67716 0.19227 0.01805 0.0
C484 C 0.69237 0.19262 0.0628 0.0
C485 C 0.6789 0.18882 0.10996 0.0
C486 C 0.65099 0.18531 0.11235 0.0
H487 H 0.62398 0.24986 0.12646 0.0
H488 H 0.63464 0.22607 0.15651 0.0
H489 H 0.64877 0.24092 0.0955 0.0
H490 H 0.63813 0.18907 0.98568 0.0
H491 H 0.68689 0.19501 0.98113 0.0
H492 H 0.49825 0.68284 0.95155 0.0
H493 H 0.45688 0.63287 0.95061 0.0
H494 H 0.45166 0.63766 0.11377 0.0
H495 H 0.49337 0.68753 0.11534 0.0
H496 H 0.44305 0.58276 0.0748 0.0
H497 H 0.37435 0.6199 0.97383 0.0
H498 H 0.40762 0.6284 0.94299 0.0
H499 H 0.40918 0.64509 1.0038 0.0
C500 C 0.4885 0.67319 0.98732 0.0
C501 C 0.49879 0.68925 0.03346 0.0
C502 C 0.46487 0.64468 0.98667 0.0
C503 C 0.45102 0.6319 0.03201 0.0
C504 C 0.46208 0.64729 0.07839 0.0
H505 H 0.29097 0.48028 0.11646 0.0
H506 H 0.34071 0.52191 0.11518 0.0
C507 C 0.48582 0.67578 0.07916 0.0
C508 C 0.42381 0.6033 0.03068 0.0
H509 H 0.35289 0.56941 0.98801 0.0
C510 C 0.42331 0.57972 0.05576 0.0
C511 C 0.39816 0.59962 1.00599 0.0
C512 C 0.39713 0.62462 0.98047 0.0
C513 C 0.39771 0.55229 0.05633 0.0
C514 C 0.37208 0.54869 0.03176 0.0
C515 C 0.3727 0.57225 1.00645 0.0
C516 C 0.34385 0.52112 0.0332 0.0
C517 C 0.39835 0.52737 0.08275 0.0
C518 C 0.32923 0.50693 0.98752 0.0
C519 C 0.30075 0.48338 0.98804 0.0
C520 C 0.28635 0.4737 0.03431 0.0
C521 C 0.30149 0.48722 0.08021 0.0
C522 C 0.32998 0.51085 0.0796 0.0
H523 H 0.42097 0.53132 0.08739 0.0
H524 H 0.38923 0.52507 0.12123 0.0
H525 H 0.38488 0.50642 0.06128 0.0
H526 H 0.33957 0.51468 0.95132 0.0
H527 H 0.28974 0.47333 0.95205 0.0
H528 H 0.81389 0.51241 0.15361 0.0
H529 H 0.82573 0.4733 0.16 0.0
H530 H 0.81828 0.46199 0.99647 0.0
H531 H 0.80687 0.50125 0.98957 0.0
H532 H 0.78735 0.41725 0.12797 0.0
H533 H 0.89172 0.45796 0.02916 0.0
H534 H 0.87885 0.48192 0.05126 0.0
H535 H 0.86498 0.46169 0.99204 0.0
C536 C 0.81529 0.50195 0.11892 0.0
C537 C 0.80924 0.50976 0.07108 0.0
C538 C 0.82214 0.4797 0.12268 0.0
C539 C 0.82325 0.46505 0.07869 0.0
C540 C 0.81822 0.47349 0.0308 0.0
H541 H 0.80428 0.30244 0.98692 0.0
H542 H 0.81476 0.35293 0.99562 0.0
C543 C 0.81141 0.49575 0.02698 0.0
C544 C 0.82584 0.43856 0.08299 0.0
H545 H 0.8627 0.40569 0.03802 0.0
C546 C 0.80416 0.41487 0.1092 0.0
C547 C 0.84773 0.43558 0.05821 0.0
C548 C 0.87231 0.46076 0.0315 0.0
C549 C 0.80281 0.38771 0.10908 0.0
C550 C 0.82411 0.38441 0.08281 0.0
C551 C 0.84644 0.40838 0.0581 0.0
C552 C 0.82198 0.35555 0.07734 0.0
C553 C 0.77771 0.36239 0.13476 0.0
C554 C 0.82355 0.34077 0.12027 0.0
C555 C 0.81732 0.31184 0.11553 0.0
C556 C 0.80968 0.29739 0.06768 0.0
C557 C 0.80989 0.3129 0.02435 0.0
C558 C 0.81598 0.34177 0.02919 0.0
H559 H 0.76015 0.3672 0.14437 0.0
H560 H 0.76813 0.34239 0.11 0.0
H561 H 0.78582 0.35767 0.17066 0.0
H562 H 0.82864 0.35129 0.15763 0.0
H563 H 0.8177 0.30058 0.14956 0.0
H564 H 0.28785 0.80623 0.11873 0.0
H565 H 0.33724 0.81342 0.12087 0.0
H566 H 0.335 0.80692 0.95683 0.0
H567 H 0.28581 0.80011 0.95415 0.0
H568 H 0.34995 0.77198 0.08322 0.0
H569 H 0.41569 0.87796 0.98822 0.0
H570 H 0.38012 0.86668 0.01334 0.0
H571 H 0.38326 0.85247 0.95278 0.0
C572 C 0.29803 0.80678 0.08305 0.0
C573 C 0.28289 0.80246 0.03627 0.0
C574 C 0.32624 0.81094 0.08438 0.0
C575 C 0.33982 0.81104 0.039 0.0
C576 C 0.32511 0.80754 0.9922 0.0
H577 H 0.48682 0.79442 0.95352 0.0
H578 H 0.44446 0.80137 0.95675 0.0
C579 C 0.29691 0.80341 0.99079 0.0
C580 C 0.36805 0.81171 0.0408 0.0
H581 H 0.43772 0.84823 0.99823 0.0
C582 C 0.36928 0.78883 0.06522 0.0
C583 C 0.39304 0.83364 0.01689 0.0
C584 C 0.39314 0.85924 0.9917 0.0
C585 C 0.39465 0.7868 0.06518 0.0
C586 C 0.41957 0.80854 0.04081 0.0
C587 C 0.41851 0.83164 0.01688 0.0
C588 C 0.44662 0.80704 0.03871 0.0
C589 C 0.39428 0.76087 0.08971 0.0
C590 C 0.46214 0.80868 0.08366 0.0
C591 C 0.48617 0.80456 0.08203 0.0
C592 C 0.49517 0.79893 0.03532 0.0
C593 C 0.4803 0.79855 0.9901 0.0
C594 C 0.45619 0.80259 0.99183 0.0
H595 H 0.37169 0.74295 0.09638 0.0
H596 H 0.40536 0.75213 0.06569 0.0
H597 H 0.40615 0.76785 0.12709 0.0
H598 H 0.4553 0.8126 0.12009 0.0
H599 H 0.49737 0.8053 0.11748 0.0
H600 H 0.68898 0.50203 0.15039 0.0
H601 H 0.63876 0.46138 0.15438 0.0
H602 H 0.6359 0.44879 0.99143 0.0
H603 H 0.6859 0.48959 0.98682 0.0
H604 H 0.5855 0.44754 0.03114 0.0
H605 H 0.61619 0.37497 0.13489 0.0
H606 H 0.62867 0.41038 0.16387 0.0
H607 H 0.64269 0.40755 0.10365 0.0
C608 C 0.67767 0.49061 0.11539 0.0
C609 C 0.69147 0.49885 0.06832 0.0
C610 C 0.64904 0.4674 0.11779 0.0
C611 C 0.63387 0.45198 0.07327 0.0
C612 C 0.64736 0.46047 0.02618 0.0
H613 H 0.47712 0.29879 0.97666 0.0
H614 H 0.52029 0.34739 0.98479 0.0
C615 C 0.67594 0.48369 0.02369 0.0
C616 C 0.60414 0.42653 0.07557 0.0
H617 H 0.56623 0.35648 0.11676 0.0
C618 C 0.58117 0.42766 0.0501 0.0
C619 C 0.59871 0.40075 0.10048 0.0
C620 C 0.62284 0.39809 0.12698 0.0
C621 C 0.55281 0.40342 0.0484 0.0
C622 C 0.54756 0.3774 0.07215 0.0
C623 C 0.57038 0.37657 0.09879 0.0
C624 C 0.5192 0.35001 0.06696 0.0
C625 C 0.52877 0.40585 0.02113 0.0
C626 C 0.50431 0.33544 0.11049 0.0
C627 C 0.47977 0.30754 0.10604 0.0
C628 C 0.46988 0.2937 0.05793 0.0
C629 C 0.48417 0.30887 0.01423 0.0
C630 C 0.50872 0.33675 0.01876 0.0
H631 H 0.53404 0.42898 0.01891 0.0
H632 H 0.52607 0.39704 0.98163 0.0
H633 H 0.50766 0.39308 0.04041 0.0
H634 H 0.51222 0.3453 0.14802 0.0
H635 H 0.46919 0.29645 0.14042 0.0
H636 H 0.18248 0.44297 0.74173 0.0
H637 H 0.18223 0.44212 0.64851 0.0
H638 H 0.20778 0.37633 0.65019 0.0
H639 H 0.20723 0.37637 0.74326 0.0
H640 H 0.22914 0.4541 0.58539 0.0
H641 H 0.13658 0.34113 0.55182 0.0
H642 H 0.1436 0.36019 0.61246 0.0
H643 H 0.16488 0.34381 0.59431 0.0
C644 C 0.18764 0.42802 0.72225 0.0
C645 C 0.19476 0.40965 0.74992 0.0
C646 C 0.18767 0.42771 0.66904 0.0
C647 C 0.19461 0.4089 0.64252 0.0
C648 C 0.20188 0.39065 0.66994 0.0
H649 H 0.21031 0.37759 0.32271 0.0
H650 H 0.21059 0.37803 0.41595 0.0
C651 C 0.20187 0.39096 0.72313 0.0
C652 C 0.19505 0.40897 0.58618 0.0
H653 H 0.1638 0.36585 0.4798 0.0
C654 C 0.21478 0.43487 0.56224 0.0
C655 C 0.17633 0.38379 0.55621 0.0
C656 C 0.15395 0.3557 0.57987 0.0
C657 C 0.21662 0.43615 0.509 0.0
C658 C 0.19786 0.41099 0.47902 0.0
C659 C 0.17817 0.38507 0.50296 0.0
C660 C 0.19814 0.41118 0.42267 0.0
C661 C 0.23902 0.46423 0.48535 0.0
C662 C 0.19079 0.42949 0.39567 0.0
C663 C 0.19077 0.42942 0.34248 0.0
C664 C 0.19795 0.4109 0.31527 0.0
C665 C 0.2051 0.39242 0.34253 0.0
C666 C 0.20509 0.39249 0.39574 0.0
H667 H 0.25646 0.47873 0.51335 0.0
H668 H 0.24927 0.45973 0.45261 0.0
H669 H 0.22813 0.47621 0.47115 0.0
H670 H 0.18489 0.44371 0.41574 0.0
H671 H 0.18539 0.44407 0.32268 0.0
H672 H 0.75534 0.1614 0.76636 0.0
H673 H 0.75678 0.16075 0.67334 0.0
H674 H 0.79748 0.25477 0.67389 0.0
H675 H 0.79592 0.25566 0.7669 0.0
H676 H 0.73184 0.18198 0.60213 0.0
H677 H 0.85257 0.23877 0.58883 0.0
H678 H 0.8341 0.22341 0.64729 0.0
H679 H 0.83921 0.25795 0.62647 0.0
C680 C 0.76438 0.18194 0.74671 0.0
C681 C 0.77561 0.20861 0.77411 0.0
C682 C 0.76533 0.18152 0.69358 0.0
C683 C 0.77765 0.20773 0.66684 0.0
C684 C 0.78848 0.23435 0.69391 0.0
H685 H 0.80143 0.25134 0.34749 0.0
H686 H 0.80031 0.25182 0.44054 0.0
C687 C 0.78756 0.23481 0.74705 0.0
C688 C 0.77869 0.20714 0.61053 0.0
H689 H 0.8254 0.23046 0.51145 0.0
C690 C 0.75228 0.19245 0.58225 0.0
C691 C 0.80541 0.22086 0.5848 0.0
C692 C 0.83447 0.23593 0.61331 0.0
C693 C 0.75184 0.19156 0.52879 0.0
C694 C 0.77856 0.2053 0.50306 0.0
C695 C 0.80497 0.21998 0.53133 0.0
C696 C 0.77956 0.20482 0.44674 0.0
C697 C 0.72277 0.17649 0.50028 0.0
C698 C 0.76872 0.17826 0.41948 0.0
C699 C 0.76945 0.17791 0.36631 0.0
C700 C 0.78123 0.20415 0.33942 0.0
C701 C 0.79251 0.23076 0.367 0.0
C702 C 0.79175 0.23108 0.42016 0.0
H703 H 0.70466 0.17355 0.52481 0.0
H704 H 0.72312 0.18908 0.46641 0.0
H705 H 0.71809 0.15452 0.48694 0.0
H706 H 0.75982 0.1578 0.43936 0.0
H707 H 0.76106 0.15709 0.3463 0.0
H708 H 0.52834 0.7903 0.74113 0.0
H709 H 0.52943 0.79082 0.64801 0.0
H710 H 0.59376 0.76343 0.65203 0.0
H711 H 0.59301 0.76307 0.74509 0.0
H712 H 0.57764 0.82361 0.58608 0.0
H713 H 0.53052 0.70419 0.55225 0.0
H714 H 0.52822 0.71948 0.6126 0.0
H715 H 0.56151 0.7206 0.59567 0.0
C716 C 0.54282 0.7845 0.72222 0.0
C717 C 0.56051 0.77652 0.75054 0.0
C718 C 0.5433 0.78468 0.66904 0.0
C719 C 0.56135 0.77675 0.64318 0.0
C720 C 0.57919 0.76899 0.67125 0.0
H721 H 0.59794 0.76733 0.32517 0.0
H722 H 0.59713 0.76695 0.41831 0.0
C723 C 0.57872 0.76878 0.72442 0.0
C724 C 0.56207 0.77735 0.58686 0.0
H725 H 0.54926 0.73445 0.48057 0.0
C726 C 0.57131 0.80412 0.56293 0.0
C727 C 0.55388 0.75187 0.5569 0.0
C728 C 0.54272 0.72233 0.58051 0.0
C729 C 0.57304 0.80619 0.50974 0.0
C730 C 0.56481 0.78071 0.47978 0.0
C731 C 0.5556 0.75394 0.50371 0.0
C732 C 0.56542 0.78128 0.42344 0.0
C733 C 0.58423 0.83574 0.48615 0.0
C734 C 0.54761 0.78914 0.39554 0.0
C735 C 0.54793 0.78927 0.34236 0.0
C736 C 0.56594 0.78134 0.31607 0.0
C737 C 0.58361 0.77327 0.34422 0.0
C738 C 0.58328 0.77317 0.39741 0.0
H739 H 0.59657 0.85387 0.51438 0.0
H740 H 0.59861 0.83853 0.45391 0.0
H741 H 0.56544 0.83756 0.47125 0.0
H742 H 0.53317 0.79483 0.41489 0.0
H743 H 0.53366 0.79507 0.32182 0.0
H744 H 0.75431 0.59 0.7725 0.0
H745 H 0.75518 0.59168 0.67949 0.0
H746 H 0.79621 0.53876 0.67695 0.0
H747 H 0.79457 0.53614 0.76986 0.0
H748 H 0.80401 0.6137 0.61801 0.0
H749 H 0.72766 0.49594 0.57478 0.0
H750 H 0.73067 0.51231 0.6369 0.0
H751 H 0.75751 0.50304 0.61753 0.0
C752 C 0.76308 0.5783 0.75215 0.0
C753 C 0.77421 0.56278 0.77866 0.0
C754 C 0.76376 0.57948 0.69902 0.0
C755 C 0.77541 0.56504 0.6713 0.0
C756 C 0.78665 0.54963 0.69755 0.0
H757 H 0.8022 0.54886 0.35054 0.0
H758 H 0.8016 0.54736 0.44356 0.0
C759 C 0.78599 0.54843 0.7507 0.0
C760 C 0.77655 0.56684 0.61502 0.0
H761 H 0.75297 0.52548 0.50518 0.0
C762 C 0.79275 0.59445 0.59328 0.0
C763 C 0.76189 0.54166 0.58293 0.0
C764 C 0.74323 0.51157 0.60408 0.0
C765 C 0.7951 0.59752 0.54026 0.0
C766 C 0.78043 0.57234 0.50817 0.0
C767 C 0.76423 0.54474 0.52991 0.0
C768 C 0.78151 0.57413 0.45187 0.0
C769 C 0.81378 0.62761 0.51911 0.0
C770 C 0.77027 0.58955 0.42568 0.0
C771 C 0.77077 0.59064 0.37251 0.0
C772 C 0.78239 0.57617 0.34447 0.0
C773 C 0.79355 0.56065 0.37093 0.0
C774 C 0.79302 0.55958 0.42408 0.0
H775 H 0.82939 0.64322 0.54839 0.0
H776 H 0.82628 0.62686 0.48621 0.0
H777 H 0.79951 0.63618 0.50577 0.0
H778 H 0.76081 0.60051 0.44633 0.0
H779 H 0.76218 0.60294 0.35339 0.0
H780 H 0.24035 0.79765 0.32478 0.0
H781 H 0.23978 0.79684 0.41791 0.0
H782 H 0.14744 0.76659 0.41272 0.0
H783 H 0.14782 0.76755 0.31965 0.0
H784 H 0.22268 0.82686 0.48593 0.0
H785 H 0.15374 0.70636 0.502 0.0
H786 H 0.17117 0.72351 0.44371 0.0
H787 H 0.13833 0.72292 0.46206 0.0
C788 C 0.21996 0.79103 0.34344 0.0
C789 C 0.19409 0.78252 0.31477 0.0
C790 C 0.21965 0.79044 0.39662 0.0
C791 C 0.19349 0.7812 0.42209 0.0
C792 C 0.16773 0.77315 0.39371 0.0
H793 H 0.1475 0.7634 0.74033 0.0
H794 H 0.14762 0.7645 0.64719 0.0
C795 C 0.168 0.77371 0.34055 0.0
C796 C 0.19326 0.78042 0.47841 0.0
H797 H 0.16441 0.7346 0.57835 0.0
C798 C 0.21005 0.80669 0.50621 0.0
C799 C 0.17668 0.75406 0.50462 0.0
C800 C 0.15914 0.72504 0.47669 0.0
C801 C 0.21038 0.80739 0.55965 0.0
C802 C 0.19385 0.78102 0.58586 0.0
C803 C 0.17701 0.75476 0.55807 0.0
C804 C 0.19389 0.78019 0.64219 0.0
C805 C 0.22792 0.83641 0.5876 0.0
C806 C 0.21978 0.78819 0.67009 0.0
C807 C 0.21977 0.78745 0.72324 0.0
C808 C 0.1938 0.77853 0.74949 0.0
C809 C 0.1678 0.7701 0.72129 0.0
C810 C 0.16785 0.77086 0.66812 0.0
H811 H 0.23314 0.85508 0.56236 0.0
H812 H 0.21598 0.83787 0.62078 0.0
H813 H 0.24882 0.83863 0.60191 0.0
H814 H 0.23997 0.79481 0.65071 0.0
H815 H 0.24004 0.79356 0.74376 0.0
H816 H 0.37575 0.21875 0.75778 0.0
H817 H 0.37408 0.21766 0.6646 0.0
H818 H 0.43948 0.19171 0.66339 0.0
H819 H 0.44148 0.19294 0.75658 0.0
H820 H 0.41957 0.24941 0.59733 0.0
H821 H 0.37361 0.12967 0.57095 0.0
H822 H 0.37314 0.14621 0.63116 0.0
H823 H 0.40603 0.14749 0.61095 0.0
C824 C 0.38994 0.21301 0.73772 0.0
C825 C 0.4087 0.20584 0.76464 0.0
C826 C 0.38884 0.21226 0.6845 0.0
C827 C 0.40632 0.20417 0.65717 0.0
C828 C 0.42533 0.19737 0.6838 0.0
H829 H 0.43452 0.18922 0.3373 0.0
H830 H 0.43544 0.19008 0.43046 0.0
C831 C 0.42644 0.19809 0.73704 0.0
C832 C 0.40506 0.20343 0.60076 0.0
H833 H 0.38947 0.15822 0.49675 0.0
C834 C 0.41285 0.22947 0.57528 0.0
C835 C 0.3963 0.17736 0.57221 0.0
C836 C 0.38653 0.14851 0.5976 0.0
C837 C 0.41269 0.23027 0.52187 0.0
C838 C 0.40401 0.20421 0.49332 0.0
C839 C 0.39615 0.17816 0.51881 0.0
C840 C 0.40312 0.20354 0.4369 0.0
C841 C 0.42246 0.25911 0.49648 0.0
C842 C 0.38432 0.2104 0.40971 0.0
C843 C 0.38365 0.20982 0.35647 0.0
C844 C 0.40164 0.20215 0.32944 0.0
C845 C 0.42016 0.1949 0.35691 0.0
C846 C 0.42083 0.19552 0.41013 0.0
H847 H 0.43519 0.27796 0.52321 0.0
H848 H 0.43603 0.26151 0.46315 0.0
H849 H 0.40297 0.26003 0.48275 0.0
H850 H 0.37 0.21601 0.42968 0.0
H851 H 0.36878 0.21502 0.33647 0.0
loop_
_geom_bond_atom_site_label_1
_geom_bond_atom_site_label_2
_geom_bond_distance
_geom_bond_site_symmetry_2
_ccdc_geom_bond_type
C0 O16 1.251 . S
C0 O18 1.254 1_554 S
N1 C2 1.333 . S
N1 C6 1.307 . S
N1 Zn7 2.020 . S
C2 N1 1.333 . S
C2 C3 1.379 . S
C2 H20 0.952 . S
C3 C2 1.379 . S
C3 C4 1.390 . S
C3 H30 0.949 . S
C4 C3 1.390 . S
C4 C5 1.357 . S
C5 C4 1.357 . S
C5 C6 1.370 . S
C5 H31 0.950 . S
C6 N1 1.307 . S
C6 C5 1.370 . S
C6 H24 0.948 . S
Zn7 N1 2.020 . S
Zn7 O16 2.039 . S
Zn7 O22 2.034 . S
Zn7 O26 2.025 . S
Zn7 O28 2.024 . S
C8 O27 1.246 1_554 S
C8 O28 1.249 . S
N9 C10 1.307 . S
N9 C11 1.333 . S
N9 Zn15 2.020 . S
C10 N9 1.307 . S
C10 C14 1.370 . S
C10 H21 0.948 . S
C11 N9 1.333 . S
C11 C12 1.379 . S
C11 H19 0.952 . S
C12 C11 1.379 . S
C12 C13 1.390 . S
C12 H32 0.949 . S
C13 C12 1.390 . S
C13 C14 1.357 . S
C14 C10 1.370 . S
C14 C13 1.357 . S
C14 H33 0.950 . S
Zn15 N9 2.020 . S
Zn15 O18 2.025 . S
Zn15 O23 2.024 . S
Zn15 O25 2.039 . S
Zn15 O27 2.034 . S
O16 C0 1.251 . S
O16 Zn7 2.039 . S
C17 O22 1.246 . S
C17 O23 1.249 1_554 S
O18 C0 1.254 1_556 S
O18 Zn15 2.025 . S
H19 C11 0.952 . S
H20 C2 0.952 . S
H21 C10 0.948 . S
O22 Zn7 2.034 . S
O22 C17 1.246 . S
O23 Zn15 2.024 . S
O23 C17 1.249 1_556 S
H24 C6 0.948 . S
O25 Zn15 2.039 . S
O25 C29 1.251 1_556 S
O26 Zn7 2.025 . S
O26 C29 1.254 . S
O27 C8 1.246 1_556 S
O27 Zn15 2.034 . S
O28 Zn7 2.024 . S
O28 C8 1.249 . S
C29 O25 1.251 1_554 S
C29 O26 1.254 . S
H30 C3 0.949 . S
H31 C5 0.950 . S
H32 C12 0.949 . S
H33 C14 0.950 . S
C34 O50 1.251 1_554 S
C34 O52 1.254 . S
N35 C36 1.333 . S
N35 C40 1.307 . S
N35 Zn41 2.020 . S
C36 N35 1.333 . S
C36 C37 1.379 . S
C36 H54 0.952 . S
C37 C36 1.379 . S
C37 C38 1.390 . S
C37 H64 0.949 . S
C38 C37 1.390 . S
C38 C39 1.357 . S
C39 C38 1.357 . S
C39 C40 1.370 . S
C39 H65 0.950 . S
C40 N35 1.307 . S
C40 C39 1.370 . S
C40 H58 0.948 . S
Zn41 N35 2.020 . S
Zn41 O50 2.039 . S
Zn41 O56 2.034 . S
Zn41 O60 2.025 . S
Zn41 O62 2.024 . S
C42 O61 1.246 . S
C42 O62 1.249 1_554 S
N43 C44 1.307 . S
N43 C45 1.333 . S
N43 Zn49 2.020 . S
C44 N43 1.307 . S
C44 C48 1.370 . S
C44 H55 0.948 . S
C45 N43 1.333 . S
C45 C46 1.379 . S
C45 H53 0.952 . S
C46 C45 1.379 . S
C46 C47 1.390 . S
C46 H66 0.949 . S
C47 C46 1.390 . S
C47 C48 1.357 . S
C48 C44 1.370 . S
C48 C47 1.357 . S
C48 H67 0.950 . S
Zn49 N43 2.020 . S
Zn49 O52 2.025 . S
Zn49 O57 2.024 . S
Zn49 O59 2.039 . S
Zn49 O61 2.034 . S
O50 C34 1.251 1_556 S
O50 Zn41 2.039 . S
C51 O56 1.246 1_554 S
C51 O57 1.249 . S
O52 C34 1.254 . S
O52 Zn49 2.025 . S
H53 C45 0.952 . S
H54 C36 0.952 . S
H55 C44 0.948 . S
O56 Zn41 2.034 . S
O56 C51 1.246 1_556 S
O57 Zn49 2.024 . S
O57 C51 1.249 . S
H58 C40 0.948 . S
O59 Zn49 2.039 . S
O59 C63 1.251 . S
O60 Zn41 2.025 . S
O60 C63 1.254 1_556 S
O61 C42 1.246 . S
O61 Zn49 2.034 . S
O62 Zn41 2.024 . S
O62 C42 1.249 1_556 S
C63 O59 1.251 . S
C63 O60 1.254 1_554 S
H64 C37 0.949 . S
H65 C39 0.950 . S
H66 C46 0.949 . S
H67 C48 0.950 . S
C68 O84 1.251 . S
C68 O86 1.254 1_554 S
N69 C70 1.333 . S
N69 C74 1.307 . S
N69 Zn75 2.020 . S
C70 N69 1.333 . S
C70 C71 1.379 . S
C70 H88 0.952 . S
C71 C70 1.379 . S
C71 C72 1.390 . S
C71 H98 0.949 . S
C72 C71 1.390 . S
C72 C73 1.357 . S
C73 C72 1.357 . S
C73 C74 1.370 . S
C73 H99 0.950 . S
C74 N69 1.307 . S
C74 C73 1.370 . S
C74 H92 0.948 . S
Zn75 N69 2.020 . S
Zn75 O84 2.039 . S
Zn75 O90 2.034 . S
Zn75 O94 2.025 . S
Zn75 O96 2.024 . S
C76 O95 1.246 1_554 S
C76 O96 1.249 . S
N77 C78 1.307 . S
N77 C79 1.333 . S
N77 Zn83 2.020 . S
C78 N77 1.307 . S
C78 C82 1.370 . S
C78 H89 0.948 . S
C79 N77 1.333 . S
C79 C80 1.379 . S
C79 H87 0.952 . S
C80 C79 1.379 . S
C80 C81 1.390 . S
C80 H100 0.949 . S
C81 C80 1.390 . S
C81 C82 1.357 . S
C82 C78 1.370 . S
C82 C81 1.357 . S
C82 H101 0.950 . S
Zn83 N77 2.020 . S
Zn83 O86 2.025 . S
Zn83 O91 2.024 . S
Zn83 O93 2.039 . S
Zn83 O95 2.034 . S
O84 C68 1.251 . S
O84 Zn75 2.039 . S
C85 O90 1.246 . S
C85 O91 1.249 1_554 S
O86 C68 1.254 1_556 S
O86 Zn83 2.025 . S
H87 C79 0.952 . S
H88 C70 0.952 . S
H89 C78 0.948 . S
O90 Zn75 2.034 . S
O90 C85 1.246 . S
O91 Zn83 2.024 . S
O91 C85 1.249 1_556 S
H92 C74 0.948 . S
O93 Zn83 2.039 . S
O93 C97 1.251 1_556 S
O94 Zn75 2.025 . S
O94 C97 1.254 . S
O95 C76 1.246 1_556 S
O95 Zn83 2.034 . S
O96 Zn75 2.024 . S
O96 C76 1.249 . S
C97 O93 1.251 1_554 S
C97 O94 1.254 . S
H98 C71 0.949 . S
H99 C73 0.950 . S
H100 C80 0.949 . S
H101 C82 0.950 . S
C102 O118 1.251 . S
C102 O120 1.254 . S
N103 C104 1.333 . S
N103 C108 1.307 . S
N103 Zn109 2.020 . S
C104 N103 1.333 . S
C104 C105 1.379 . S
C104 H122 0.952 . S
C105 C104 1.379 . S
C105 C106 1.390 . S
C105 H132 0.949 . S
C106 C105 1.390 . S
C106 C107 1.357 . S
C107 C106 1.357 . S
C107 C108 1.370 . S
C107 H133 0.950 . S
C108 N103 1.307 . S
C108 C107 1.370 . S
C108 H126 0.948 . S
Zn109 N103 2.020 . S
Zn109 O118 2.039 1_556 S
Zn109 O124 2.034 1_556 S
Zn109 O128 2.025 1_556 S
Zn109 O130 2.024 1_556 S
C110 O129 1.246 . S
C110 O130 1.249 . S
N111 C112 1.307 . S
N111 C113 1.333 . S
N111 Zn117 2.020 . S
C112 N111 1.307 . S
C112 C116 1.370 . S
C112 H123 0.948 . S
C113 N111 1.333 . S
C113 C114 1.379 . S
C113 H121 0.952 . S
C114 C113 1.379 . S
C114 C115 1.390 . S
C114 H134 0.949 . S
C115 C114 1.390 . S
C115 C116 1.357 . S
C116 C112 1.370 . S
C116 C115 1.357 . S
C116 H135 0.950 . S
Zn117 N111 2.020 . S
Zn117 O120 2.025 . S
Zn117 O125 2.024 . S
Zn117 O127 2.039 . S
Zn117 O129 2.034 . S
O118 C102 1.251 . S
O118 Zn109 2.039 1_554 S
C119 O124 1.246 . S
C119 O125 1.249 . S
O120 C102 1.254 . S
O120 Zn117 2.025 . S
H121 C113 0.952 . S
H122 C104 0.952 . S
H123 C112 0.948 . S
O124 Zn109 2.034 1_554 S
O124 C119 1.246 . S
O125 Zn117 2.024 . S
O125 C119 1.249 . S
H126 C108 0.948 . S
O127 Zn117 2.039 . S
O127 C131 1.251 . S
O128 Zn109 2.025 1_554 S
O128 C131 1.254 . S
O129 C110 1.246 . S
O129 Zn117 2.034 . S
O130 Zn109 2.024 1_554 S
O130 C110 1.249 . S
C131 O127 1.251 . S
C131 O128 1.254 . S
H132 C105 0.949 . S
H133 C107 0.950 . S
H134 C114 0.949 . S
H135 C116 0.950 . S
C136 O152 1.251 1_554 S
C136 O154 1.254 . S
N137 C138 1.333 . S
N137 C142 1.307 . S
N137 Zn143 2.020 . S
C138 N137 1.333 . S
C138 C139 1.379 . S
C138 H156 0.952 . S
C139 C138 1.379 . S
C139 C140 1.390 . S
C139 H166 0.949 . S
C140 C139 1.390 . S
C140 C141 1.357 . S
C141 C140 1.357 . S
C141 C142 1.370 . S
C141 H167 0.950 . S
C142 N137 1.307 . S
C142 C141 1.370 . S
C142 H160 0.948 . S
Zn143 N137 2.020 . S
Zn143 O152 2.039 . S
Zn143 O158 2.034 . S
Zn143 O162 2.025 . S
Zn143 O164 2.024 . S
C144 O163 1.246 . S
C144 O164 1.249 1_554 S
N145 C146 1.307 . S
N145 C147 1.333 . S
N145 Zn151 2.020 . S
C146 N145 1.307 . S
C146 C150 1.370 . S
C146 H157 0.948 . S
C147 N145 1.333 . S
C147 C148 1.379 . S
C147 H155 0.952 . S
C148 C147 1.379 . S
C148 C149 1.390 . S
C148 H168 0.949 . S
C149 C148 1.390 . S
C149 C150 1.357 . S
C150 C146 1.370 . S
C150 C149 1.357 . S
C150 H169 0.950 . S
Zn151 N145 2.020 . S
Zn151 O154 2.025 . S
Zn151 O159 2.024 . S
Zn151 O161 2.039 . S
Zn151 O163 2.034 . S
O152 C136 1.251 1_556 S
O152 Zn143 2.039 . S
C153 O158 1.246 1_554 S
C153 O159 1.249 . S
O154 C136 1.254 . S
O154 Zn151 2.025 . S
H155 C147 0.952 . S
H156 C138 0.952 . S
H157 C146 0.948 . S
O158 Zn143 2.034 . S
O158 C153 1.246 1_556 S
O159 Zn151 2.024 . S
O159 C153 1.249 . S
H160 C142 0.948 . S
O161 Zn151 2.039 . S
O161 C165 1.251 . S
O162 Zn143 2.025 . S
O162 C165 1.254 1_556 S
O163 C144 1.246 . S
O163 Zn151 2.034 . S
O164 Zn143 2.024 . S
O164 C144 1.249 1_556 S
C165 O161 1.251 . S
C165 O162 1.254 1_554 S
H166 C139 0.949 . S
H167 C141 0.950 . S
H168 C148 0.949 . S
H169 C150 0.950 . S
C170 O186 1.251 . S
C170 O188 1.254 1_554 S
N171 C172 1.333 . S
N171 C176 1.307 . S
N171 Zn177 2.020 . S
C172 N171 1.333 . S
C172 C173 1.379 . S
C172 H190 0.952 . S
C173 C172 1.379 . S
C173 C174 1.390 . S
C173 H200 0.949 . S
C174 C173 1.390 . S
C174 C175 1.357 . S
C175 C174 1.357 . S
C175 C176 1.370 . S
C175 H201 0.950 . S
C176 N171 1.307 . S
C176 C175 1.370 . S
C176 H194 0.948 . S
Zn177 N171 2.020 . S
Zn177 O186 2.039 . S
Zn177 O192 2.034 . S
Zn177 O196 2.025 . S
Zn177 O198 2.024 . S
C178 O197 1.246 1_554 S
C178 O198 1.249 . S
N179 C180 1.307 . S
N179 C181 1.333 . S
N179 Zn185 2.020 . S
C180 N179 1.307 . S
C180 C184 1.370 . S
C180 H191 0.948 . S
C181 N179 1.333 . S
C181 C182 1.379 . S
C181 H189 0.952 . S
C182 C181 1.379 . S
C182 C183 1.390 . S
C182 H202 0.949 . S
C183 C182 1.390 . S
C183 C184 1.357 . S
C184 C180 1.370 . S
C184 C183 1.357 . S
C184 H203 0.950 . S
Zn185 N179 2.020 . S
Zn185 O188 2.025 . S
Zn185 O193 2.024 . S
Zn185 O195 2.039 . S
Zn185 O197 2.034 . S
O186 C170 1.251 . S
O186 Zn177 2.039 . S
C187 O192 1.246 . S
C187 O193 1.249 1_554 S
O188 C170 1.254 1_556 S
O188 Zn185 2.025 . S
H189 C181 0.952 . S
H190 C172 0.952 . S
H191 C180 0.948 . S
O192 Zn177 2.034 . S
O192 C187 1.246 . S
O193 Zn185 2.024 . S
O193 C187 1.249 1_556 S
H194 C176 0.948 . S
O195 Zn185 2.039 . S
O195 C199 1.251 1_556 S
O196 Zn177 2.025 . S
O196 C199 1.254 . S
O197 C178 1.246 1_556 S
O197 Zn185 2.034 . S
O198 Zn177 2.024 . S
O198 C178 1.249 . S
C199 O195 1.251 1_554 S
C199 O196 1.254 . S
H200 C173 0.949 . S
H201 C175 0.950 . S
H202 C182 0.949 . S
H203 C184 0.950 . S
H204 C212 0.928 1_556 S
H205 C214 0.930 . S
H206 C216 0.930 . S
H207 C219 0.929 . S
H208 C222 0.930 . S
H209 C224 0.962 . S
H210 C224 0.960 1_556 S
H211 C224 0.960 . S
C212 H204 0.928 1_554 S
C212 C213 1.378 . S
C212 C214 1.384 1_554 S
C213 C212 1.378 . S
C213 C219 1.390 . S
C214 H205 0.930 . S
C214 C212 1.384 1_556 S
C214 C215 1.372 1_556 S
C215 C214 1.372 1_554 S
C215 C216 1.400 . S
C215 C220 1.490 . S
C216 H206 0.930 . S
C216 C215 1.400 . S
C216 C219 1.386 . S
H217 C233 0.930 . S
H218 C234 0.931 . S
C219 H207 0.929 . S
C219 C213 1.390 . S
C219 C216 1.386 . S
C220 C215 1.490 . S
C220 C222 1.395 . S
C220 C223 1.403 . S
H221 C227 0.930 . S
C222 H208 0.930 . S
C222 C220 1.395 . S
C222 C225 1.403 . S
C223 C220 1.403 . S
C223 C224 1.524 . S
C223 C227 1.400 . S
C224 H209 0.962 . S
C224 H210 0.960 1_554 S
C224 H211 0.960 . S
C224 C223 1.524 . S
C225 C222 1.403 . S
C225 C226 1.392 . S
C225 C229 1.495 . S
C226 C225 1.392 . S
C226 C227 1.385 . S
C226 C228 1.478 . S
C227 H221 0.930 . S
C227 C223 1.400 . S
C227 C226 1.385 . S
C228 C226 1.478 . S
C228 C230 1.381 1_554 S
C228 C234 1.383 . S
C229 C225 1.495 . S
C229 H235 0.959 . S
C229 H236 0.961 . S
C229 H237 0.960 . S
C230 C228 1.381 1_556 S
C230 C231 1.394 . S
C230 H238 0.930 . S
C231 C230 1.394 . S
C231 C232 1.383 1_556 S
C231 H239 0.929 . S
C232 C231 1.383 1_554 S
C232 C233 1.377 . S
C233 H217 0.930 . S
C233 C232 1.377 . S
C233 C234 1.379 . S
C234 H218 0.931 . S
C234 C228 1.383 . S
C234 C233 1.379 . S
H235 C229 0.959 . S
H236 C229 0.961 . S
H237 C229 0.960 . S
H238 C230 0.930 . S
H239 C231 0.929 . S
H240 C248 0.929 . S
H241 C250 0.930 . S
H242 C252 0.930 . S
H243 C255 0.929 . S
H244 C258 0.930 . S
H245 C260 0.960 . S
H246 C260 0.960 1_556 S
H247 C260 0.960 . S
C248 H240 0.929 . S
C248 C249 1.377 1_556 S
C248 C250 1.384 . S
C249 C248 1.377 1_554 S
C249 C255 1.390 . S
C250 H241 0.930 . S
C250 C248 1.384 . S
C250 C251 1.372 1_556 S
C251 C250 1.372 1_554 S
C251 C252 1.400 . S
C251 C256 1.490 . S
C252 H242 0.930 . S
C252 C251 1.400 . S
C252 C255 1.386 . S
H253 C269 0.930 . S
H254 C270 0.931 . S
C255 H243 0.929 . S
C255 C249 1.390 . S
C255 C252 1.386 . S
C256 C251 1.490 . S
C256 C258 1.395 . S
C256 C259 1.403 . S
H257 C263 0.930 . S
C258 H244 0.930 . S
C258 C256 1.395 . S
C258 C261 1.403 1_455 S
C259 C256 1.403 . S
C259 C260 1.524 . S
C259 C263 1.400 1_455 S
C260 H245 0.960 . S
C260 H246 0.960 1_554 S
C260 H247 0.960 . S
C260 C259 1.524 . S
C261 C258 1.403 1_655 S
C261 C262 1.392 . S
C261 C265 1.495 . S
C262 C261 1.392 . S
C262 C263 1.385 . S
C262 C264 1.478 . S
C263 H257 0.930 . S
C263 C259 1.400 1_655 S
C263 C262 1.385 . S
C264 C262 1.478 . S
C264 C266 1.381 1_554 S
C264 C270 1.383 . S
C265 C261 1.495 . S
C265 H271 0.959 . S
C265 H272 0.961 . S
C265 H273 0.960 . S
C266 C264 1.381 1_556 S
C266 C267 1.394 . S
C266 H274 0.930 . S
C267 C266 1.394 . S
C267 C268 1.383 1_556 S
C267 H275 0.929 . S
C268 C267 1.383 1_554 S
C268 C269 1.377 . S
C269 H253 0.930 . S
C269 C268 1.377 . S
C269 C270 1.379 . S
C270 H254 0.931 . S
C270 C264 1.383 . S
C270 C269 1.379 . S
H271 C265 0.959 . S
H272 C265 0.961 . S
H273 C265 0.960 . S
H274 C266 0.930 . S
H275 C267 0.929 . S
H276 C284 0.929 . S
H277 C286 0.930 . S
H278 C288 0.930 . S
H279 C291 0.929 . S
H280 C294 0.930 . S
H281 C296 0.960 . S
H282 C296 0.960 . S
H283 C296 0.960 . S
C284 H276 0.929 . S
C284 C285 1.377 . S
C284 C286 1.384 . S
C285 C284 1.377 . S
C285 C291 1.390 . S
C286 H277 0.930 . S
C286 C284 1.384 . S
C286 C287 1.372 . S
C287 C286 1.372 . S
C287 C288 1.400 . S
C287 C292 1.490 . S
C288 H278 0.930 . S
C288 C287 1.400 . S
C288 C291 1.386 . S
H289 C305 0.930 1_556 S
H290 C306 0.931 1_556 S
C291 H279 0.929 . S
C291 C285 1.390 . S
C291 C288 1.386 . S
C292 C287 1.490 . S
C292 C294 1.395 1_554 S
C292 C295 1.403 . S
H293 C299 0.930 . S
C294 H280 0.930 . S
C294 C292 1.395 1_556 S
C294 C297 1.403 1_545 S
C295 C292 1.403 . S
C295 C296 1.524 . S
C295 C299 1.400 1_545 S
C296 H281 0.960 . S
C296 H282 0.960 . S
C296 H283 0.960 . S
C296 C295 1.524 . S
C297 C294 1.403 1_565 S
C297 C298 1.392 1_556 S
C297 C301 1.495 . S
C298 C297 1.392 1_554 S
C298 C299 1.385 . S
C298 C300 1.478 . S
C299 H293 0.930 . S
C299 C295 1.400 1_565 S
C299 C298 1.385 . S
C300 C298 1.478 . S
C300 C302 1.381 . S
C300 C306 1.383 . S
C301 C297 1.495 . S
C301 H307 0.959 . S
C301 H308 0.961 . S
C301 H309 0.960 . S
C302 C300 1.381 . S
C302 C303 1.394 . S
C302 H310 0.930 . S
C303 C302 1.394 . S
C303 C304 1.383 . S
C303 H311 0.929 . S
C304 C303 1.383 . S
C304 C305 1.377 . S
C305 H289 0.930 1_554 S
C305 C304 1.377 . S
C305 C306 1.379 . S
C306 H290 0.931 1_554 S
C306 C300 1.383 . S
C306 C305 1.379 . S
H307 C301 0.959 . S
H308 C301 0.961 . S
H309 C301 0.960 . S
H310 C302 0.930 . S
H311 C303 0.929 . S
H312 C320 0.929 . S
H313 C322 0.930 . S
H314 C324 0.930 . S
H315 C327 0.929 . S
H316 C330 0.930 . S
H317 C332 0.960 . S
H318 C332 0.960 . S
H319 C332 0.960 1_556 S
C320 H312 0.929 . S
C320 C321 1.377 . S
C320 C322 1.384 . S
C321 C320 1.377 . S
C321 C327 1.390 1_554 S
C322 H313 0.930 . S
C322 C320 1.384 . S
C322 C323 1.372 . S
C323 C322 1.372 . S
C323 C324 1.400 1_554 S
C323 C328 1.490 . S
C324 H314 0.930 . S
C324 C323 1.400 1_556 S
C324 C327 1.386 . S
H325 C341 0.930 . S
H326 C342 0.931 . S
C327 H315 0.929 . S
C327 C321 1.390 1_556 S
C327 C324 1.386 . S
C328 C323 1.490 . S
C328 C330 1.395 . S
C328 C331 1.403 . S
H329 C335 0.930 . S
C330 H316 0.930 . S
C330 C328 1.395 . S
C330 C333 1.403 . S
C331 C328 1.403 . S
C331 C332 1.524 . S
C331 C335 1.400 . S
C332 H317 0.960 . S
C332 H318 0.960 . S
C332 H319 0.960 1_554 S
C332 C331 1.524 . S
C333 C330 1.403 . S
C333 C334 1.392 . S
C333 C337 1.495 . S
C334 C333 1.392 . S
C334 C335 1.385 . S
C334 C336 1.478 . S
C335 H329 0.930 . S
C335 C331 1.400 . S
C335 C334 1.385 . S
C336 C334 1.478 . S
C336 C338 1.381 . S
C336 C342 1.383 1_554 S
C337 C333 1.495 . S
C337 H343 0.959 . S
C337 H344 0.961 . S
C337 H345 0.960 . S
C338 C336 1.381 . S
C338 C339 1.394 . S
C338 H346 0.930 . S
C339 C338 1.394 . S
C339 C340 1.383 . S
C339 H347 0.929 . S
C340 C339 1.383 . S
C340 C341 1.377 1_554 S
C341 H325 0.930 . S
C341 C340 1.377 1_556 S
C341 C342 1.379 . S
C342 H326 0.931 . S
C342 C336 1.383 1_556 S
C342 C341 1.379 . S
H343 C337 0.959 . S
H344 C337 0.961 . S
H345 C337 0.960 . S
H346 C338 0.930 . S
H347 C339 0.929 . S
H348 C356 0.929 . S
H349 C358 0.930 . S
H350 C360 0.930 1_556 S
H351 C363 0.929 1_556 S
H352 C366 0.930 . S
H353 C368 0.960 . S
H354 C368 0.960 . S
H355 C368 0.960 . S
C356 H348 0.929 . S
C356 C357 1.377 . S
C356 C358 1.384 . S
C357 C356 1.377 . S
C357 C363 1.390 . S
C358 H349 0.930 . S
C358 C356 1.384 . S
C358 C359 1.372 . S
C359 C358 1.372 . S
C359 C360 1.400 . S
C359 C364 1.490 . S
C360 H350 0.930 1_554 S
C360 C359 1.400 . S
C360 C363 1.386 . S
H361 C377 0.930 . S
H362 C378 0.931 . S
C363 H351 0.929 1_554 S
C363 C357 1.390 . S
C363 C360 1.386 . S
C364 C359 1.490 . S
C364 C366 1.395 . S
C364 C367 1.403 1_554 S
H365 C371 0.930 1_556 S
C366 H352 0.930 . S
C366 C364 1.395 . S
C366 C369 1.403 1_455 S
C367 C364 1.403 1_556 S
C367 C368 1.524 . S
C367 C371 1.400 1_456 S
C368 H353 0.960 . S
C368 H354 0.960 . S
C368 H355 0.960 . S
C368 C367 1.524 . S
C369 C366 1.403 1_655 S
C369 C370 1.392 . S
C369 C373 1.495 . S
C370 C369 1.392 . S
C370 C371 1.385 . S
C370 C372 1.478 . S
C371 H365 0.930 1_554 S
C371 C367 1.400 1_654 S
C371 C370 1.385 . S
C372 C370 1.478 . S
C372 C374 1.381 . S
C372 C378 1.383 . S
C373 C369 1.495 . S
C373 H379 0.959 . S
C373 H380 0.961 . S
C373 H381 0.960 . S
C374 C372 1.381 . S
C374 C375 1.394 . S
C374 H382 0.930 . S
C375 C374 1.394 . S
C375 C376 1.383 . S
C375 H383 0.929 . S
C376 C375 1.383 . S
C376 C377 1.377 . S
C377 H361 0.930 . S
C377 C376 1.377 . S
C377 C378 1.379 . S
C378 H362 0.931 . S
C378 C372 1.383 . S
C378 C377 1.379 . S
H379 C373 0.959 . S
H380 C373 0.961 . S
H381 C373 0.960 . S
H382 C374 0.930 . S
H383 C375 0.929 . S
H384 C392 0.929 . S
H385 C394 0.930 . S
H386 C396 0.930 . S
H387 C399 0.929 . S
H388 C402 0.930 . S
H389 C404 0.960 . S
H390 C404 0.960 . S
H391 C404 0.960 . S
C392 H384 0.929 . S
C392 C393 1.377 . S
C392 C394 1.384 . S
C393 C392 1.377 . S
C393 C399 1.390 . S
C394 H385 0.930 . S
C394 C392 1.384 . S
C394 C395 1.372 . S
C395 C394 1.372 . S
C395 C396 1.400 . S
C395 C400 1.490 . S
C396 H386 0.930 . S
C396 C395 1.400 . S
C396 C399 1.386 . S
H397 C413 0.930 . S
H398 C414 0.931 . S
C399 H387 0.929 . S
C399 C393 1.390 . S
C399 C396 1.386 . S
C400 C395 1.490 . S
C400 C402 1.395 . S
C400 C403 1.403 1_554 S
H401 C407 0.930 . S
C402 H388 0.930 . S
C402 C400 1.395 . S
C402 C405 1.403 1_565 S
C403 C400 1.403 1_556 S
C403 C404 1.524 . S
C403 C407 1.400 1_565 S
C404 H389 0.960 . S
C404 H390 0.960 . S
C404 H391 0.960 . S
C404 C403 1.524 . S
C405 C402 1.403 1_545 S
C405 C406 1.392 . S
C405 C409 1.495 . S
C406 C405 1.392 . S
C406 C407 1.385 1_554 S
C406 C408 1.478 . S
C407 H401 0.930 . S
C407 C403 1.400 1_545 S
C407 C406 1.385 1_556 S
C408 C406 1.478 . S
C408 C410 1.381 . S
C408 C414 1.383 . S
C409 C405 1.495 . S
C409 H415 0.959 . S
C409 H416 0.961 . S
C409 H417 0.960 . S
C410 C408 1.381 . S
C410 C411 1.394 . S
C410 H418 0.930 . S
C411 C410 1.394 . S
C411 C412 1.383 . S
C411 H419 0.929 . S
C412 C411 1.383 . S
C412 C413 1.377 . S
C413 H397 0.930 . S
C413 C412 1.377 . S
C413 C414 1.379 . S
C414 H398 0.931 . S
C414 C408 1.383 . S
C414 C413 1.379 . S
H415 C409 0.959 . S
H416 C409 0.961 . S
H417 C409 0.960 . S
H418 C410 0.930 . S
H419 C411 0.929 . S
H420 C428 0.929 . S
H421 C430 0.930 . S
H422 C432 0.937 . S
H423 C435 0.929 . S
H424 C438 0.930 . S
H425 C440 0.960 . S
H426 C440 0.960 . S
H427 C440 0.960 . S
C428 H420 0.929 . S
C428 C429 1.377 . S
C428 C430 1.384 . S
C429 C428 1.377 . S
C429 C435 1.390 1_554 S
C430 H421 0.930 . S
C430 C428 1.384 . S
C430 C431 1.372 . S
C431 C430 1.372 . S
C431 C432 1.392 1_554 S
C431 C436 1.490 . S
C432 H422 0.937 . S
C432 C431 1.392 1_556 S
C432 C435 1.386 . S
H433 C449 0.930 . S
H434 C450 0.931 . S
C435 H423 0.929 . S
C435 C429 1.390 1_556 S
C435 C432 1.386 . S
C436 C431 1.490 . S
C436 C438 1.395 . S
C436 C439 1.403 . S
H437 C443 0.930 . S
C438 H424 0.930 . S
C438 C436 1.395 . S
C438 C441 1.403 . S
C439 C436 1.403 . S
C439 C440 1.524 . S
C439 C443 1.400 . S
C440 H425 0.960 . S
C440 H426 0.960 . S
C440 H427 0.960 . S
C440 C439 1.524 . S
C441 C438 1.403 . S
C441 C442 1.392 . S
C441 C445 1.495 1_554 S
C442 C441 1.392 . S
C442 C443 1.385 . S
C442 C444 1.478 . S
C443 H437 0.930 . S
C443 C439 1.400 . S
C443 C442 1.385 . S
C444 C442 1.478 . S
C444 C446 1.381 . S
C444 C450 1.383 1_554 S
C445 C441 1.495 1_556 S
C445 H451 0.959 . S
C445 H452 0.961 . S
C445 H453 0.960 1_556 S
C446 C444 1.381 . S
C446 C447 1.394 . S
C446 H454 0.930 . S
C447 C446 1.394 . S
C447 C448 1.383 . S
C447 H455 0.929 . S
C448 C447 1.383 . S
C448 C449 1.377 1_554 S
C449 H433 0.930 . S
C449 C448 1.377 1_556 S
C449 C450 1.379 . S
C450 H434 0.931 . S
C450 C444 1.383 1_556 S
C450 C449 1.379 . S
H451 C445 0.959 . S
H452 C445 0.961 . S
H453 C445 0.960 1_554 S
H454 C446 0.930 . S
H455 C447 0.929 . S
H456 C464 0.929 . S
H457 C466 0.930 . S
H458 C468 0.930 . S
H459 C471 0.929 . S
H460 C474 0.930 . S
H461 C476 0.960 . S
H462 C476 0.960 . S
H463 C476 0.960 . S
C464 H456 0.929 . S
C464 C465 1.377 . S
C464 C466 1.384 . S
C465 C464 1.377 . S
C465 C471 1.390 . S
C466 H457 0.930 . S
C466 C464 1.384 . S
C466 C467 1.372 . S
C467 C466 1.372 . S
C467 C468 1.400 . S
C467 C472 1.490 . S
C468 H458 0.930 . S
C468 C467 1.400 . S
C468 C471 1.386 . S
H469 C485 0.930 . S
H470 C486 0.931 . S
C471 H459 0.929 . S
C471 C465 1.390 . S
C471 C468 1.386 . S
C472 C467 1.490 . S
C472 C474 1.395 . S
C472 C475 1.403 . S
H473 C479 0.930 1_556 S
C474 H460 0.930 . S
C474 C472 1.395 . S
C474 C477 1.403 . S
C475 C472 1.403 . S
C475 C476 1.524 1_554 S
C475 C479 1.400 . S
C476 H461 0.960 . S
C476 H462 0.960 . S
C476 H463 0.960 . S
C476 C475 1.524 1_556 S
C477 C474 1.403 . S
C477 C478 1.392 . S
C477 C481 1.495 . S
C478 C477 1.392 . S
C478 C479 1.385 . S
C478 C480 1.478 . S
C479 H473 0.930 1_554 S
C479 C475 1.400 . S
C479 C478 1.385 . S
C480 C478 1.478 . S
C480 C482 1.381 . S
C480 C486 1.383 . S
C481 C477 1.495 . S
C481 H487 0.959 . S
C481 H488 0.961 . S
C481 H489 0.960 . S
C482 C480 1.381 . S
C482 C483 1.394 . S
C482 H490 0.930 . S
C483 C482 1.394 . S
C483 C484 1.383 . S
C483 H491 0.929 . S
C484 C483 1.383 . S
C484 C485 1.377 . S
C485 H469 0.930 . S
C485 C484 1.377 . S
C485 C486 1.379 . S
C486 H470 0.931 . S
C486 C480 1.383 . S
C486 C485 1.379 . S
H487 C481 0.959 . S
H488 C481 0.961 . S
H489 C481 0.960 . S
H490 C482 0.930 . S
H491 C483 0.929 . S
H492 C500 0.929 . S
H493 C502 0.930 . S
H494 C504 0.930 . S
H495 C507 0.929 . S
H496 C510 0.930 . S
H497 C512 0.960 . S
H498 C512 0.960 . S
H499 C512 0.960 1_554 S
C500 H492 0.929 . S
C500 C501 1.377 1_556 S
C500 C502 1.384 . S
C501 C500 1.377 1_554 S
C501 C507 1.390 . S
C502 H493 0.930 . S
C502 C500 1.384 . S
C502 C503 1.372 1_556 S
C503 C502 1.372 1_554 S
C503 C504 1.400 . S
C503 C508 1.490 . S
C504 H494 0.930 . S
C504 C503 1.400 . S
C504 C507 1.386 . S
H505 C521 0.930 . S
H506 C522 0.931 . S
C507 H495 0.929 . S
C507 C501 1.390 . S
C507 C504 1.386 . S
C508 C503 1.490 . S
C508 C510 1.395 . S
C508 C511 1.403 . S
H509 C515 0.930 . S
C510 H496 0.930 . S
C510 C508 1.395 . S
C510 C513 1.403 . S
C511 C508 1.403 . S
C511 C512 1.524 1_554 S
C511 C515 1.400 . S
C512 H497 0.960 . S
C512 H498 0.960 . S
C512 H499 0.960 1_556 S
C512 C511 1.524 1_556 S
C513 C510 1.403 . S
C513 C514 1.392 . S
C513 C517 1.495 . S
C514 C513 1.392 . S
C514 C515 1.385 . S
C514 C516 1.478 . S
C515 H509 0.930 . S
C515 C511 1.400 . S
C515 C514 1.385 . S
C516 C514 1.478 . S
C516 C518 1.381 1_554 S
C516 C522 1.383 . S
C517 C513 1.495 . S
C517 H523 0.959 . S
C517 H524 0.961 . S
C517 H525 0.960 . S
C518 C516 1.381 1_556 S
C518 C519 1.394 . S
C518 H526 0.930 . S
C519 C518 1.394 . S
C519 C520 1.383 1_556 S
C519 H527 0.929 . S
C520 C519 1.383 1_554 S
C520 C521 1.377 . S
C521 H505 0.930 . S
C521 C520 1.377 . S
C521 C522 1.379 . S
C522 H506 0.931 . S
C522 C516 1.383 . S
C522 C521 1.379 . S
H523 C517 0.959 . S
H524 C517 0.961 . S
H525 C517 0.960 . S
H526 C518 0.930 . S
H527 C519 0.929 . S
H528 C536 0.929 . S
H529 C538 0.930 . S
H530 C540 0.930 1_556 S
H531 C543 0.929 1_556 S
H532 C546 0.930 . S
H533 C548 0.960 1_556 S
H534 C548 0.960 . S
H535 C548 0.960 1_556 S
C536 H528 0.929 . S
C536 C537 1.377 . S
C536 C538 1.384 . S
C537 C536 1.377 . S
C537 C543 1.390 . S
C538 H529 0.930 . S
C538 C536 1.384 . S
C538 C539 1.372 . S
C539 C538 1.372 . S
C539 C540 1.400 . S
C539 C544 1.490 . S
C540 H530 0.930 1_554 S
C540 C539 1.400 . S
C540 C543 1.386 . S
H541 C557 0.930 . S
H542 C558 0.931 1_556 S
C543 H531 0.929 1_554 S
C543 C537 1.390 . S
C543 C540 1.386 . S
C544 C539 1.490 . S
C544 C546 1.395 . S
C544 C547 1.403 . S
H545 C551 0.930 . S
C546 H532 0.930 . S
C546 C544 1.395 . S
C546 C549 1.403 . S
C547 C544 1.403 . S
C547 C548 1.524 . S
C547 C551 1.400 . S
C548 H533 0.960 1_554 S
C548 H534 0.960 . S
C548 H535 0.960 1_554 S
C548 C547 1.524 . S
C549 C546 1.403 . S
C549 C550 1.392 . S
C549 C553 1.495 . S
C550 C549 1.392 . S
C550 C551 1.385 . S
C550 C552 1.478 . S
C551 H545 0.930 . S
C551 C547 1.400 . S
C551 C550 1.385 . S
C552 C550 1.478 . S
C552 C554 1.381 . S
C552 C558 1.383 . S
C553 C549 1.495 . S
C553 H559 0.959 . S
C553 H560 0.961 . S
C553 H561 0.960 . S
C554 C552 1.381 . S
C554 C555 1.394 . S
C554 H562 0.930 . S
C555 C554 1.394 . S
C555 C556 1.383 . S
C555 H563 0.929 . S
C556 C555 1.383 . S
C556 C557 1.377 1_554 S
C557 H541 0.930 . S
C557 C556 1.377 1_556 S
C557 C558 1.379 1_556 S
C558 H542 0.931 1_554 S
C558 C552 1.383 . S
C558 C557 1.379 1_554 S
H559 C553 0.959 . S
H560 C553 0.961 . S
H561 C553 0.960 . S
H562 C554 0.930 . S
H563 C555 0.929 . S
H564 C572 0.929 . S
H565 C574 0.930 . S
H566 C576 0.930 . S
H567 C579 0.929 . S
H568 C582 0.930 . S
H569 C584 0.960 . S
H570 C584 0.960 . S
H571 C584 0.960 . S
C572 H564 0.929 . S
C572 C573 1.377 . S
C572 C574 1.384 . S
C573 C572 1.377 . S
C573 C579 1.390 . S
C574 H565 0.930 . S
C574 C572 1.384 . S
C574 C575 1.372 . S
C575 C574 1.372 . S
C575 C576 1.400 . S
C575 C580 1.490 . S
C576 H566 0.930 . S
C576 C575 1.400 . S
C576 C579 1.386 . S
H577 C593 0.930 . S
H578 C594 0.931 . S
C579 H567 0.929 . S
C579 C573 1.390 . S
C579 C576 1.386 . S
C580 C575 1.490 . S
C580 C582 1.395 . S
C580 C583 1.403 1_554 S
H581 C587 0.930 . S
C582 H568 0.930 . S
C582 C580 1.395 . S
C582 C585 1.403 . S
C583 C580 1.403 1_556 S
C583 C584 1.524 . S
C583 C587 1.400 . S
C584 H569 0.960 . S
C584 H570 0.960 . S
C584 H571 0.960 . S
C584 C583 1.524 . S
C585 C582 1.403 . S
C585 C586 1.392 . S
C585 C589 1.495 . S
C586 C585 1.392 . S
C586 C587 1.385 1_554 S
C586 C588 1.478 . S
C587 H581 0.930 . S
C587 C583 1.400 . S
C587 C586 1.385 1_556 S
C588 C586 1.478 . S
C588 C590 1.381 . S
C588 C594 1.383 . S
C589 C585 1.495 . S
C589 H595 0.959 . S
C589 H596 0.961 . S
C589 H597 0.960 . S
C590 C588 1.381 . S
C590 C591 1.394 . S
C590 H598 0.930 . S
C591 C590 1.394 . S
C591 C592 1.383 . S
C591 H599 0.929 . S
C592 C591 1.383 . S
C592 C593 1.377 . S
C593 H577 0.930 . S
C593 C592 1.377 . S
C593 C594 1.379 . S
C594 H578 0.931 . S
C594 C588 1.383 . S
C594 C593 1.379 . S
H595 C589 0.959 . S
H596 C589 0.961 . S
H597 C589 0.960 . S
H598 C590 0.930 . S
H599 C591 0.929 . S
H600 C608 0.929 . S
H601 C610 0.930 . S
H602 C612 0.930 . S
H603 C615 0.929 . S
H604 C618 0.930 1_556 S
H605 C620 0.960 . S
H606 C620 0.960 . S
H607 C620 0.960 . S
C608 H600 0.929 . S
C608 C609 1.377 . S
C608 C610 1.384 . S
C609 C608 1.377 . S
C609 C615 1.390 . S
C610 H601 0.930 . S
C610 C608 1.384 . S
C610 C611 1.372 . S
C611 C610 1.372 . S
C611 C612 1.400 . S
C611 C616 1.490 . S
C612 H602 0.930 . S
C612 C611 1.400 . S
C612 C615 1.386 . S
H613 C629 0.930 1_556 S
H614 C630 0.931 1_556 S
C615 H603 0.929 . S
C615 C609 1.390 . S
C615 C612 1.386 . S
C616 C611 1.490 . S
C616 C618 1.395 . S
C616 C619 1.403 . S
H617 C623 0.930 . S
C618 H604 0.930 1_554 S
C618 C616 1.395 . S
C618 C621 1.403 . S
C619 C616 1.403 . S
C619 C620 1.524 . S
C619 C623 1.400 . S
C620 H605 0.960 . S
C620 H606 0.960 . S
C620 H607 0.960 . S
C620 C619 1.524 . S
C621 C618 1.403 . S
C621 C622 1.392 . S
C621 C625 1.495 1_554 S
C622 C621 1.392 . S
C622 C623 1.385 . S
C622 C624 1.478 . S
C623 H617 0.930 . S
C623 C619 1.400 . S
C623 C622 1.385 . S
C624 C622 1.478 . S
C624 C626 1.381 . S
C624 C630 1.383 . S
C625 C621 1.495 1_556 S
C625 H631 0.959 . S
C625 H632 0.961 . S
C625 H633 0.960 1_556 S
C626 C624 1.381 . S
C626 C627 1.394 . S
C626 H634 0.930 . S
C627 C626 1.394 . S
C627 C628 1.383 . S
C627 H635 0.929 . S
C628 C627 1.383 . S
C628 C629 1.377 . S
C629 H613 0.930 1_554 S
C629 C628 1.377 . S
C629 C630 1.379 . S
C630 H614 0.931 1_554 S
C630 C624 1.383 . S
C630 C629 1.379 . S
H631 C625 0.959 . S
H632 C625 0.961 . S
H633 C625 0.960 1_554 S
H634 C626 0.930 . S
H635 C627 0.929 . S
H636 C644 0.929 . S
H637 C646 0.930 . S
H638 C648 0.930 . S
H639 C651 0.929 . S
H640 C654 0.930 . S
H641 C656 0.960 . S
H642 C656 0.960 . S
H643 C656 0.960 . S
C644 H636 0.929 . S
C644 C645 1.377 . S
C644 C646 1.384 . S
C645 C644 1.377 . S
C645 C651 1.390 . S
C646 H637 0.930 . S
C646 C644 1.384 . S
C646 C647 1.372 . S
C647 C646 1.372 . S
C647 C648 1.400 . S
C647 C652 1.490 . S
C648 H638 0.930 . S
C648 C647 1.400 . S
C648 C651 1.386 . S
H649 C665 0.930 . S
H650 C666 0.931 . S
C651 H639 0.929 . S
C651 C645 1.390 . S
C651 C648 1.386 . S
C652 C647 1.490 . S
C652 C654 1.395 . S
C652 C655 1.403 . S
H653 C659 0.930 . S
C654 H640 0.930 . S
C654 C652 1.395 . S
C654 C657 1.403 . S
C655 C652 1.403 . S
C655 C656 1.524 . S
C655 C659 1.400 . S
C656 H641 0.960 . S
C656 H642 0.960 . S
C656 H643 0.960 . S
C656 C655 1.524 . S
C657 C654 1.403 . S
C657 C658 1.392 . S
C657 C661 1.495 . S
C658 C657 1.392 . S
C658 C659 1.385 . S
C658 C660 1.478 . S
C659 H653 0.930 . S
C659 C655 1.400 . S
C659 C658 1.385 . S
C660 C658 1.478 . S
C660 C662 1.381 . S
C660 C666 1.383 . S
C661 C657 1.495 . S
C661 H667 0.959 . S
C661 H668 0.961 . S
C661 H669 0.960 . S
C662 C660 1.381 . S
C662 C663 1.394 . S
C662 H670 0.930 . S
C663 C662 1.394 . S
C663 C664 1.383 . S
C663 H671 0.929 . S
C664 C663 1.383 . S
C664 C665 1.377 . S
C665 H649 0.930 . S
C665 C664 1.377 . S
C665 C666 1.379 . S
C666 H650 0.931 . S
C666 C660 1.383 . S
C666 C665 1.379 . S
H667 C661 0.959 . S
H668 C661 0.961 . S
H669 C661 0.960 . S
H670 C662 0.930 . S
H671 C663 0.929 . S
H672 C680 0.929 . S
H673 C682 0.930 . S
H674 C684 0.930 . S
H675 C687 0.929 . S
H676 C690 0.930 . S
H677 C692 0.960 . S
H678 C692 0.960 . S
H679 C692 0.960 . S
C680 H672 0.929 . S
C680 C681 1.377 . S
C680 C682 1.384 . S
C681 C680 1.377 . S
C681 C687 1.390 . S
C682 H673 0.930 . S
C682 C680 1.384 . S
C682 C683 1.372 . S
C683 C682 1.372 . S
C683 C684 1.400 . S
C683 C688 1.490 . S
C684 H674 0.930 . S
C684 C683 1.400 . S
C684 C687 1.386 . S
H685 C701 0.930 . S
H686 C702 0.931 . S
C687 H675 0.929 . S
C687 C681 1.390 . S
C687 C684 1.386 . S
C688 C683 1.490 . S
C688 C690 1.395 . S
C688 C691 1.403 . S
H689 C695 0.930 . S
C690 H676 0.930 . S
C690 C688 1.395 . S
C690 C693 1.403 . S
C691 C688 1.403 . S
C691 C692 1.524 . S
C691 C695 1.400 . S
C692 H677 0.960 . S
C692 H678 0.960 . S
C692 H679 0.960 . S
C692 C691 1.524 . S
C693 C690 1.403 . S
C693 C694 1.392 . S
C693 C697 1.495 . S
C694 C693 1.392 . S
C694 C695 1.385 . S
C694 C696 1.478 . S
C695 H689 0.930 . S
C695 C691 1.400 . S
C695 C694 1.385 . S
C696 C694 1.478 . S
C696 C698 1.381 . S
C696 C702 1.383 . S
C697 C693 1.495 . S
C697 H703 0.959 . S
C697 H704 0.961 . S
C697 H705 0.960 . S
C698 C696 1.381 . S
C698 C699 1.394 . S
C698 H706 0.930 . S
C699 C698 1.394 . S
C699 C700 1.383 . S
C699 H707 0.929 . S
C700 C699 1.383 . S
C700 C701 1.377 . S
C701 H685 0.930 . S
C701 C700 1.377 . S
C701 C702 1.379 . S
C702 H686 0.931 . S
C702 C696 1.383 . S
C702 C701 1.379 . S
H703 C697 0.959 . S
H704 C697 0.961 . S
H705 C697 0.960 . S
H706 C698 0.930 . S
H707 C699 0.929 . S
H708 C716 0.929 . S
H709 C718 0.930 . S
H710 C720 0.930 . S
H711 C723 0.929 . S
H712 C726 0.930 . S
H713 C728 0.960 . S
H714 C728 0.960 . S
H715 C728 0.960 . S
C716 H708 0.929 . S
C716 C717 1.377 . S
C716 C718 1.384 . S
C717 C716 1.377 . S
C717 C723 1.390 . S
C718 H709 0.930 . S
C718 C716 1.384 . S
C718 C719 1.372 . S
C719 C718 1.372 . S
C719 C720 1.400 . S
C719 C724 1.490 . S
C720 H710 0.930 . S
C720 C719 1.400 . S
C720 C723 1.386 . S
H721 C737 0.930 . S
H722 C738 0.931 . S
C723 H711 0.929 . S
C723 C717 1.390 . S
C723 C720 1.386 . S
C724 C719 1.490 . S
C724 C726 1.395 . S
C724 C727 1.403 . S
H725 C731 0.930 . S
C726 H712 0.930 . S
C726 C724 1.395 . S
C726 C729 1.403 . S
C727 C724 1.403 . S
C727 C728 1.524 . S
C727 C731 1.400 . S
C728 H713 0.960 . S
C728 H714 0.960 . S
C728 H715 0.960 . S
C728 C727 1.524 . S
C729 C726 1.403 . S
C729 C730 1.392 . S
C729 C733 1.495 . S
C730 C729 1.392 . S
C730 C731 1.385 . S
C730 C732 1.478 . S
C731 H725 0.930 . S
C731 C727 1.400 . S
C731 C730 1.385 . S
C732 C730 1.478 . S
C732 C734 1.381 . S
C732 C738 1.383 . S
C733 C729 1.495 . S
C733 H739 0.959 . S
C733 H740 0.961 . S
C733 H741 0.960 . S
C734 C732 1.381 . S
C734 C735 1.394 . S
C734 H742 0.930 . S
C735 C734 1.394 . S
C735 C736 1.383 . S
C735 H743 0.929 . S
C736 C735 1.383 . S
C736 C737 1.377 . S
C737 H721 0.930 . S
C737 C736 1.377 . S
C737 C738 1.379 . S
C738 H722 0.931 . S
C738 C732 1.383 . S
C738 C737 1.379 . S
H739 C733 0.959 . S
H740 C733 0.961 . S
H741 C733 0.960 . S
H742 C734 0.930 . S
H743 C735 0.929 . S
H744 C752 0.929 . S
H745 C754 0.930 . S
H746 C756 0.930 . S
H747 C759 0.929 . S
H748 C762 0.930 . S
H749 C764 0.960 . S
H750 C764 0.960 . S
H751 C764 0.960 . S
C752 H744 0.929 . S
C752 C753 1.377 . S
C752 C754 1.384 . S
C753 C752 1.377 . S
C753 C759 1.390 . S
C754 H745 0.930 . S
C754 C752 1.384 . S
C754 C755 1.372 . S
C755 C754 1.372 . S
C755 C756 1.400 . S
C755 C760 1.490 . S
C756 H746 0.930 . S
C756 C755 1.400 . S
C756 C759 1.386 . S
H757 C773 0.930 . S
H758 C774 0.931 . S
C759 H747 0.929 . S
C759 C753 1.390 . S
C759 C756 1.386 . S
C760 C755 1.490 . S
C760 C762 1.395 . S
C760 C763 1.403 . S
H761 C767 0.930 . S
C762 H748 0.930 . S
C762 C760 1.395 . S
C762 C765 1.403 . S
C763 C760 1.403 . S
C763 C764 1.524 . S
C763 C767 1.400 . S
C764 H749 0.960 . S
C764 H750 0.960 . S
C764 H751 0.960 . S
C764 C763 1.524 . S
C765 C762 1.403 . S
C765 C766 1.392 . S
C765 C769 1.495 . S
C766 C765 1.392 . S
C766 C767 1.385 . S
C766 C768 1.478 . S
C767 H761 0.930 . S
C767 C763 1.400 . S
C767 C766 1.385 . S
C768 C766 1.478 . S
C768 C770 1.381 . S
C768 C774 1.383 . S
C769 C765 1.495 . S
C769 H775 0.959 . S
C769 H776 0.961 . S
C769 H777 0.960 . S
C770 C768 1.381 . S
C770 C771 1.394 . S
C770 H778 0.930 . S
C771 C770 1.394 . S
C771 C772 1.383 . S
C771 H779 0.929 . S
C772 C771 1.383 . S
C772 C773 1.377 . S
C773 H757 0.930 . S
C773 C772 1.377 . S
C773 C774 1.379 . S
C774 H758 0.931 . S
C774 C768 1.383 . S
C774 C773 1.379 . S
H775 C769 0.959 . S
H776 C769 0.961 . S
H777 C769 0.960 . S
H778 C770 0.930 . S
H779 C771 0.929 . S
H780 C788 0.929 . S
H781 C790 0.930 . S
H782 C792 0.930 . S
H783 C795 0.929 . S
H784 C798 0.930 . S
H785 C800 0.960 . S
H786 C800 0.960 . S
H787 C800 0.960 . S
C788 H780 0.929 . S
C788 C789 1.377 . S
C788 C790 1.384 . S
C789 C788 1.377 . S
C789 C795 1.390 . S
C790 H781 0.930 . S
C790 C788 1.384 . S
C790 C791 1.372 . S
C791 C790 1.372 . S
C791 C792 1.400 . S
C791 C796 1.490 . S
C792 H782 0.930 . S
C792 C791 1.400 . S
C792 C795 1.386 . S
H793 C809 0.930 . S
H794 C810 0.931 . S
C795 H783 0.929 . S
C795 C789 1.390 . S
C795 C792 1.386 . S
C796 C791 1.490 . S
C796 C798 1.395 . S
C796 C799 1.403 . S
H797 C803 0.930 . S
C798 H784 0.930 . S
C798 C796 1.395 . S
C798 C801 1.403 . S
C799 C796 1.403 . S
C799 C800 1.524 . S
C799 C803 1.400 . S
C800 H785 0.960 . S
C800 H786 0.960 . S
C800 H787 0.960 . S
C800 C799 1.524 . S
C801 C798 1.403 . S
C801 C802 1.392 . S
C801 C805 1.495 . S
C802 C801 1.392 . S
C802 C803 1.385 . S
C802 C804 1.478 . S
C803 H797 0.930 . S
C803 C799 1.400 . S
C803 C802 1.385 . S
C804 C802 1.478 . S
C804 C806 1.381 . S
C804 C810 1.383 . S
C805 C801 1.495 . S
C805 H811 0.959 . S
C805 H812 0.961 . S
C805 H813 0.960 . S
C806 C804 1.381 . S
C806 C807 1.394 . S
C806 H814 0.930 . S
C807 C806 1.394 . S
C807 C808 1.383 . S
C807 H815 0.929 . S
C808 C807 1.383 . S
C808 C809 1.377 . S
C809 H793 0.930 . S
C809 C808 1.377 . S
C809 C810 1.379 . S
C810 H794 0.931 . S
C810 C804 1.383 . S
C810 C809 1.379 . S
H811 C805 0.959 . S
H812 C805 0.961 . S
H813 C805 0.960 . S
H814 C806 0.930 . S
H815 C807 0.929 . S
H816 C824 0.929 . S
H817 C826 0.930 . S
H818 C828 0.930 . S
H819 C831 0.929 . S
H820 C834 0.930 . S
H821 C836 0.960 . S
H822 C836 0.960 . S
H823 C836 0.960 . S
C824 H816 0.929 . S
C824 C825 1.377 . S
C824 C826 1.384 . S
C825 C824 1.377 . S
C825 C831 1.390 . S
C826 H817 0.930 . S
C826 C824 1.384 . S
C826 C827 1.372 . S
C827 C826 1.372 . S
C827 C828 1.400 . S
C827 C832 1.490 . S
C828 H818 0.930 . S
C828 C827 1.400 . S
C828 C831 1.386 . S
H829 C845 0.930 . S
H830 C846 0.931 . S
C831 H819 0.929 . S
C831 C825 1.390 . S
C831 C828 1.386 . S
C832 C827 1.490 . S
C832 C834 1.395 . S
C832 C835 1.403 . S
H833 C839 0.930 . S
C834 H820 0.930 . S
C834 C832 1.395 . S
C834 C837 1.403 . S
C835 C832 1.403 . S
C835 C836 1.524 . S
C835 C839 1.400 . S
C836 H821 0.960 . S
C836 H822 0.960 . S
C836 H823 0.960 . S
C836 C835 1.524 . S
C837 C834 1.403 . S
C837 C838 1.392 . S
C837 C841 1.495 . S
C838 C837 1.392 . S
C838 C839 1.385 . S
C838 C840 1.478 . S
C839 H833 0.930 . S
C839 C835 1.400 . S
C839 C838 1.385 . S
C840 C838 1.478 . S
C840 C842 1.381 . S
C840 C846 1.383 . S
C841 C837 1.495 . S
C841 H847 0.959 . S
C841 H848 0.961 . S
C841 H849 0.960 . S
C842 C840 1.381 . S
C842 C843 1.394 . S
C842 H850 0.930 . S
C843 C842 1.394 . S
C843 C844 1.383 . S
C843 H851 0.929 . S
C844 C843 1.383 . S
C844 C845 1.377 . S
C845 H829 0.930 . S
C845 C844 1.377 . S
C845 C846 1.379 . S
C846 H830 0.931 . S
C846 C840 1.383 . S
C846 C845 1.379 . S
H847 C841 0.959 . S
H848 C841 0.961 . S
H849 C841 0.960 . S
H850 C842 0.930 . S
H851 C843 0.929 . S
C213 C170 1.324 . S
C232 C8 1.333 . S
C249 C0 1.318 . S
C268 C34 1.335 . S
C285 C42 1.307 . S
C304 C76 1.295 . S
C321 C102 1.322 . S
C340 C68 1.340 . S
C357 C165 1.325 . S
C376 C110 1.324 . S
C393 C153 1.317 . S
C412 C178 1.316 . S
C429 C144 1.456 . S
C448 C17 1.455 . S
C465 C199 1.444 . S
C484 C63 1.436 . S
C501 C85 1.447 . S
C520 C29 1.448 . S
C537 C131 1.447 . S
C556 C51 1.441 . S
C573 C136 1.448 . S
C592 C97 1.442 . S
C609 C119 1.455 . S
C628 C187 1.454 . S
C645 C13 1.498 . S
C664 C4 1.491 . S
C681 C38 1.500 . S
C700 C47 1.503 . S
C717 C81 1.504 . S
C736 C72 1.500 . S
C753 C106 1.506 . S
C772 C115 1.498 . S
C789 C149 1.497 . S
C808 C140 1.496 . S
C825 C183 1.503 . S
C844 C174 1.506 . S
