# Generated by pormake.
# Topology vbm, (6)-cn, num edge types: 1
# Building blocks:
#     Node 0, Type 0, BuildingBlock: VOLQOD_clean_sbu_1, # of connection points: 6
#     Node 1, Type 0, BuildingBlock: VOLQOD_clean_sbu_1, # of connection points: 6
#     Node 2, Type 0, BuildingBlock: VOLQOD_clean_sbu_1, # of connection points: 6
#     Node 3, Type 0, BuildingBlock: VOLQOD_clean_sbu_1, # of connection points: 6
#     Node 4, Type 0, BuildingBlock: VOLQOD_clean_sbu_1, # of connection points: 6
#     Node 5, Type 0, BuildingBlock: VOLQOD_clean_sbu_1, # of connection points: 6
#     Node 6, Type 0, BuildingBlock: VOLQOD_clean_sbu_1, # of connection points: 6
#     Node 7, Type 0, BuildingBlock: VOLQOD_clean_sbu_1, # of connection points: 6
#     Node 8, Type 0, BuildingBlock: VOLQOD_clean_sbu_1, # of connection points: 6
#     Node 9, Type 0, BuildingBlock: VOLQOD_clean_sbu_1, # of connection points: 6
#     Node 10, Type 0, BuildingBlock: VOLQOD_clean_sbu_1, # of connection points: 6
#     Node 11, Type 0, BuildingBlock: VOLQOD_clean_sbu_1, # of connection points: 6
#     Node 12, Type 0, BuildingBlock: VOLQOD_clean_sbu_1, # of connection points: 6
#     Node 13, Type 0, BuildingBlock: VOLQOD_clean_sbu_1, # of connection points: 6
#     Node 14, Type 0, BuildingBlock: VOLQOD_clean_sbu_1, # of connection points: 6
#     Node 15, Type 0, BuildingBlock: VOLQOD_clean_sbu_1, # of connection points: 6
#     Edge 16, Type (0, 0), BuildingBlock: KIFKEQ_clean_linker_1, # of connection points: 2
#     Edge 17, Type (0, 0), BuildingBlock: KIFKEQ_clean_linker_1, # of connection points: 2
#     Edge 18, Type (0, 0), BuildingBlock: KIFKEQ_clean_linker_1, # of connection points: 2
#     Edge 19, Type (0, 0), BuildingBlock: KIFKEQ_clean_linker_1, # of connection points: 2
#     Edge 20, Type (0, 0), BuildingBlock: KIFKEQ_clean_linker_1, # of connection points: 2
#     Edge 21, Type (0, 0), BuildingBlock: KIFKEQ_clean_linker_1, # of connection points: 2
#     Edge 22, Type (0, 0), BuildingBlock: KIFKEQ_clean_linker_1, # of connection points: 2
#     Edge 23, Type (0, 0), BuildingBlock: KIFKEQ_clean_linker_1, # of connection points: 2
#     Edge 24, Type (0, 0), BuildingBlock: KIFKEQ_clean_linker_1, # of connection points: 2
#     Edge 25, Type (0, 0), BuildingBlock: KIFKEQ_clean_linker_1, # of connection points: 2
#     Edge 26, Type (0, 0), BuildingBlock: KIFKEQ_clean_linker_1, # of connection points: 2
#     Edge 27, Type (0, 0), BuildingBlock: KIFKEQ_clean_linker_1, # of connection points: 2
#     Edge 28, Type (0, 0), BuildingBlock: KIFKEQ_clean_linker_1, # of connection points: 2
#     Edge 29, Type (0, 0), BuildingBlock: KIFKEQ_clean_linker_1, # of connection points: 2
#     Edge 30, Type (0, 0), BuildingBlock: KIFKEQ_clean_linker_1, # of connection points: 2
#     Edge 31, Type (0, 0), BuildingBlock: KIFKEQ_clean_linker_1, # of connection points: 2
#     Edge 32, Type (0, 0), BuildingBlock: KIFKEQ_clean_linker_1, # of connection points: 2
#     Edge 33, Type (0, 0), BuildingBlock: KIFKEQ_clean_linker_1, # of connection points: 2
#     Edge 34, Type (0, 0), BuildingBlock: KIFKEQ_clean_linker_1, # of connection points: 2
#     Edge 35, Type (0, 0), BuildingBlock: KIFKEQ_clean_linker_1, # of connection points: 2
#     Edge 36, Type (0, 0), BuildingBlock: KIFKEQ_clean_linker_1, # of connection points: 2
#     Edge 37, Type (0, 0), BuildingBlock: KIFKEQ_clean_linker_1, # of connection points: 2
#     Edge 38, Type (0, 0), BuildingBlock: KIFKEQ_clean_linker_1, # of connection points: 2
#     Edge 39, Type (0, 0), BuildingBlock: KIFKEQ_clean_linker_1, # of connection points: 2
#     Edge 40, Type (0, 0), BuildingBlock: KIFKEQ_clean_linker_1, # of connection points: 2
#     Edge 41, Type (0, 0), BuildingBlock: KIFKEQ_clean_linker_1, # of connection points: 2
#     Edge 42, Type (0, 0), BuildingBlock: KIFKEQ_clean_linker_1, # of connection points: 2
#     Edge 43, Type (0, 0), BuildingBlock: KIFKEQ_clean_linker_1, # of connection points: 2
#     Edge 44, Type (0, 0), BuildingBlock: KIFKEQ_clean_linker_1, # of connection points: 2
#     Edge 45, Type (0, 0), BuildingBlock: KIFKEQ_clean_linker_1, # of connection points: 2
#     Edge 46, Type (0, 0), BuildingBlock: KIFKEQ_clean_linker_1, # of connection points: 2
#     Edge 47, Type (0, 0), BuildingBlock: KIFKEQ_clean_linker_1, # of connection points: 2
#     Edge 48, Type (0, 0), BuildingBlock: KIFKEQ_clean_linker_1, # of connection points: 2
#     Edge 49, Type (0, 0), BuildingBlock: KIFKEQ_clean_linker_1, # of connection points: 2
#     Edge 50, Type (0, 0), BuildingBlock: KIFKEQ_clean_linker_1, # of connection points: 2
#     Edge 51, Type (0, 0), BuildingBlock: KIFKEQ_clean_linker_1, # of connection points: 2
#     Edge 52, Type (0, 0), BuildingBlock: KIFKEQ_clean_linker_1, # of connection points: 2
#     Edge 53, Type (0, 0), BuildingBlock: KIFKEQ_clean_linker_1, # of connection points: 2
#     Edge 54, Type (0, 0), BuildingBlock: KIFKEQ_clean_linker_1, # of connection points: 2
#     Edge 55, Type (0, 0), BuildingBlock: KIFKEQ_clean_linker_1, # of connection points: 2
#     Edge 56, Type (0, 0), BuildingBlock: KIFKEQ_clean_linker_1, # of connection points: 2
#     Edge 57, Type (0, 0), BuildingBlock: KIFKEQ_clean_linker_1, # of connection points: 2
#     Edge 58, Type (0, 0), BuildingBlock: KIFKEQ_clean_linker_1, # of connection points: 2
#     Edge 59, Type (0, 0), BuildingBlock: KIFKEQ_clean_linker_1, # of connection points: 2
#     Edge 60, Type (0, 0), BuildingBlock: KIFKEQ_clean_linker_1, # of connection points: 2
#     Edge 61, Type (0, 0), BuildingBlock: KIFKEQ_clean_linker_1, # of connection points: 2
#     Edge 62, Type (0, 0), BuildingBlock: KIFKEQ_clean_linker_1, # of connection points: 2
#     Edge 63, Type (0, 0), BuildingBlock: KIFKEQ_clean_linker_1, # of connection points: 2
# Relax obj value: 0.098
# Max RMSD: 0.118
# Mean RMSD: 0.118
data_MOF--net-vbm--node1-VOLQOD_clean_sbu_1--edge1-KIFKEQ_clean_linker_1
_symmetry_space_group_name_H-M    P1
_symmetry_Int_Tables_number       1
_symmetry_cell_setting            triclinic
loop_
_symmetry_equiv_pos_as_xyz
'x, y, z'
_cell_length_a     66.088114
_cell_length_b     17.280448
_cell_length_c     69.405033
_cell_angle_alpha  90.050316
_cell_angle_beta   89.99231
_cell_angle_gamma 90.000105
loop_
_atom_site_label
_atom_site_type_symbol
_atom_site_fract_x
_atom_site_fract_y
_atom_site_fract_z
_atom_type_partial_charge
O0 O 0.10962 0.20793 0.09799 0.0
Zn1 Zn 0.10503 0.09358 0.09467 0.0
O2 O 0.12283 0.03414 0.11143 0.0
Zn3 Zn 0.14423 0.98253 0.09638 0.0
Zn4 Zn 0.13443 0.10277 0.13036 0.0
Zn5 Zn 0.10706 0.95888 0.12523 0.0
O6 O 0.14327 0.86532 0.10011 0.0
O7 O 0.11479 0.85421 0.11695 0.0
O8 O 0.11087 0.068 0.06719 0.0
O9 O 0.13929 -0.00073 0.06797 0.0
O10 O 0.1719 0.02744 0.10288 0.0
O11 O 0.16411 0.10059 0.12814 0.0
O12 O 0.1274 0.07553 0.1576 0.0
O13 O 0.07567 0.06829 0.0992 0.0
O14 O 0.11055 0.96573 0.15389 0.0
O15 O 0.07781 0.96935 0.11944 0.0
C16 C 0.11884 0.24644 0.11094 0.0
C17 C 0.12938 0.82408 0.10771 0.0
C18 C 0.17706 0.07289 0.11652 0.0
C19 C 0.12507 0.03201 0.05864 0.0
C20 C 0.11846 0.01695 0.16469 0.0
C21 C 0.06739 0.01502 0.1091 0.0
O22 O 0.12783 0.21299 0.12482 0.0
O23 O 0.87476 0.73725 0.09831 0.0
Zn24 Zn 0.87949 0.85076 0.09445 0.0
O25 O 0.86173 0.91193 0.11087 0.0
Zn26 Zn 0.84072 0.96426 0.09551 0.0
Zn27 Zn 0.84961 0.84494 0.1299 0.0
Zn28 Zn 0.87764 -0.01292 0.1245 0.0
O29 O 0.84123 0.08103 0.09987 0.0
O30 O 0.86991 0.0917 0.11638 0.0
O31 O 0.87373 0.87378 0.06685 0.0
O32 O 0.84669 0.95021 0.06718 0.0
O33 O 0.81296 0.91789 0.10113 0.0
O34 O 0.81997 0.8472 0.12701 0.0
O35 O 0.85628 0.87401 0.15717 0.0
O36 O 0.90893 0.87572 0.09886 0.0
O37 O 0.87429 0.98083 0.15309 0.0
O38 O 0.90681 0.9763 0.11863 0.0
C39 C 0.86539 0.69969 0.11131 0.0
C40 C 0.85517 0.12207 0.10744 0.0
C41 C 0.80739 0.87344 0.11483 0.0
C42 C 0.86041 0.91348 0.05807 0.0
C43 C 0.86581 0.93167 0.16406 0.0
C44 C 0.91723 0.92977 0.10851 0.0
O45 O 0.85623 0.73409 0.12496 0.0
O46 O 0.10933 0.75054 0.37595 0.0
Zn47 Zn 0.10497 0.86534 0.37907 0.0
O48 O 0.12271 0.92305 0.36186 0.0
Zn49 Zn 0.14402 0.97672 0.37645 0.0
Zn50 Zn 0.13418 0.85282 0.3432 0.0
Zn51 Zn 0.10705 -0.00297 0.3477 0.0
O52 O 0.1429 0.09346 0.37208 0.0
O53 O 0.11353 0.1024 0.35659 0.0
O54 O 0.11091 0.89294 0.40642 0.0
O55 O 0.13904 0.96317 0.40495 0.0
O56 O 0.17162 0.92991 0.37063 0.0
O57 O 0.16362 0.84741 0.34728 0.0
O58 O 0.12888 0.88263 0.31566 0.0
O59 O 0.07563 0.89027 0.37431 0.0
O60 O 0.11186 -0.00792 0.31931 0.0
O61 O 0.07773 0.98132 0.35187 0.0
C62 C 0.11737 0.71138 0.36241 0.0
C63 C 0.12837 0.13363 0.36525 0.0
C64 C 0.17654 0.87739 0.35857 0.0
C65 C 0.12504 0.93062 0.41461 0.0
C66 C 0.12021 0.94184 0.30855 0.0
C67 C 0.06732 0.9382 0.36286 0.0
O68 O 0.12573 0.74415 0.34808 0.0
O69 O 0.87473 0.21029 0.37476 0.0
Zn70 Zn 0.87953 0.09589 0.3778 0.0
O71 O 0.86189 0.03723 0.36074 0.0
Zn72 Zn 0.84047 -0.01503 0.37548 0.0
Zn73 Zn 0.85055 0.10605 0.34174 0.0
Zn74 Zn 0.87767 0.96228 0.34699 0.0
O75 O 0.84141 0.86799 0.37127 0.0
O76 O 0.8709 0.85749 0.35604 0.0
O77 O 0.87393 0.06787 0.40514 0.0
O78 O 0.84555 -0.00101 0.40395 0.0
O79 O 0.8129 0.03153 0.36927 0.0
O80 O 0.82087 0.10607 0.34433 0.0
O81 O 0.85721 0.07724 0.31441 0.0
O82 O 0.90892 0.07225 0.373 0.0
O83 O 0.87323 0.96592 0.31855 0.0
O84 O 0.90698 0.97786 0.35138 0.0
C85 C 0.86617 0.24911 0.36146 0.0
C86 C 0.8559 0.82708 0.36461 0.0
C87 C 0.80787 0.07844 0.35591 0.0
C88 C 0.8598 0.03071 0.41347 0.0
C89 C 0.8656 0.01693 0.30755 0.0
C90 C 0.91731 0.02278 0.36201 0.0
O91 O 0.85773 0.21596 0.3472 0.0
O92 O 0.87377 0.755 0.84407 0.0
Zn93 Zn 0.87783 0.87104 0.84204 0.0
O94 O 0.86006 0.92741 0.85977 0.0
Zn95 Zn 0.83859 0.98177 0.84565 0.0
Zn96 Zn 0.84827 0.85528 0.87743 0.0
Zn97 Zn 0.87543 -0.00042 0.87518 0.0
O98 O 0.84011 0.09781 0.85029 0.0
O99 O 0.86788 0.1064 0.86822 0.0
O100 O 0.8716 0.90161 0.81475 0.0
O101 O 0.84322 0.96985 0.81728 0.0
O102 O 0.81076 0.93751 0.85169 0.0
O103 O 0.81868 0.85964 0.87594 0.0
O104 O 0.85591 0.87252 0.90476 0.0
O105 O 0.90708 0.89775 0.84699 0.0
O106 O 0.87179 -0.01471 0.90388 0.0
O107 O 0.90471 -0.00984 0.86918 0.0
C108 C 0.86381 0.71543 0.85631 0.0
C109 C 0.85369 0.13795 0.85872 0.0
C110 C 0.80565 0.88997 0.86486 0.0
C111 C 0.85711 0.93925 0.8071 0.0
C112 C 0.86439 0.92883 0.9133 0.0
C113 C 0.91521 0.94815 0.85794 0.0
O114 O 0.85432 0.74755 0.87004 0.0
O115 O 0.10716 0.22756 0.84619 0.0
Zn116 Zn 0.10296 0.1123 0.84301 0.0
O117 O 0.12047 0.05478 0.8606 0.0
Zn118 Zn 0.14152 -0.00196 0.84652 0.0
Zn119 Zn 0.13294 0.12601 0.87816 0.0
Zn120 Zn 0.10466 -0.01569 0.87587 0.0
O121 O 0.1404 0.88271 0.85224 0.0
O122 O 0.11139 0.87724 0.86842 0.0
O123 O 0.10899 0.08256 0.81551 0.0
O124 O 0.13581 0.00583 0.8183 0.0
O125 O 0.16938 0.04579 0.85039 0.0
O126 O 0.16176 0.136 0.87193 0.0
O127 O 0.13052 0.09512 0.90575 0.0
O128 O 0.07358 0.087 0.84784 0.0
O129 O 0.10955 -0.00477 0.90438 0.0
O130 O 0.07537 -0.00313 0.87058 0.0
C131 C 0.1147 0.26616 0.86011 0.0
C132 C 0.12601 0.84415 0.85985 0.0
C133 C 0.17441 0.1034 0.86084 0.0
C134 C 0.1226 0.03987 0.80801 0.0
C135 C 0.12053 0.04179 0.91401 0.0
C136 C 0.06512 0.03868 0.85912 0.0
O137 O 0.12299 0.2329 0.87439 0.0
O138 O 0.87449 0.21724 0.62611 0.0
Zn139 Zn 0.87859 0.10188 0.62915 0.0
O140 O 0.86121 0.04416 0.61143 0.0
Zn141 Zn 0.83951 -0.01007 0.62541 0.0
Zn142 Zn 0.84965 0.11494 0.59329 0.0
Zn143 Zn 0.87711 0.97172 0.59668 0.0
O144 O 0.84075 0.87369 0.62053 0.0
O145 O 0.86974 0.86568 0.60436 0.0
O146 O 0.87195 0.07335 0.65651 0.0
O147 O 0.84429 0.00104 0.65376 0.0
O148 O 0.81173 0.03678 0.61995 0.0
O149 O 0.82037 0.11873 0.59682 0.0
O150 O 0.85438 0.08678 0.56593 0.0
O151 O 0.90803 0.07567 0.62481 0.0
O152 O 0.8733 0.98135 0.56791 0.0
O153 O 0.90627 0.98293 0.60269 0.0
C154 C 0.86635 0.25617 0.61259 0.0
C155 C 0.85504 0.83393 0.61309 0.0
C156 C 0.8071 0.08858 0.60764 0.0
C157 C 0.85774 0.03382 0.66405 0.0
C158 C 0.86376 0.03122 0.55796 0.0
C159 C 0.91648 0.02553 0.61401 0.0
O160 O 0.85791 0.22314 0.59834 0.0
O161 O 0.10844 0.74764 0.62706 0.0
Zn162 Zn 0.10421 0.86292 0.6302 0.0
O163 O 0.12181 0.9205 0.6127 0.0
Zn164 Zn 0.14278 0.97725 0.6269 0.0
Zn165 Zn 0.13439 0.84925 0.59521 0.0
Zn166 Zn 0.10607 -0.00909 0.59734 0.0
O167 O 0.14177 0.09252 0.62109 0.0
O168 O 0.11291 0.09801 0.60467 0.0
O169 O 0.11005 0.89278 0.65771 0.0
O170 O 0.13682 0.96988 0.65509 0.0
O171 O 0.17065 0.92913 0.62326 0.0
O172 O 0.16315 0.83893 0.60167 0.0
O173 O 0.1321 0.87996 0.5676 0.0
O174 O 0.07486 0.88834 0.62527 0.0
O175 O 0.11093 0.97928 0.56883 0.0
O176 O 0.07676 0.97894 0.60267 0.0
C177 C 0.11605 0.70909 0.61317 0.0
C178 C 0.12748 0.1311 0.61332 0.0
C179 C 0.17571 0.87138 0.61287 0.0
C180 C 0.12354 0.93575 0.66529 0.0
C181 C 0.12201 0.93283 0.55927 0.0
C182 C 0.06646 0.93704 0.61407 0.0
O183 O 0.12439 0.74241 0.59892 0.0
O184 O 0.6081 0.71495 0.09806 0.0
Zn185 Zn 0.60347 0.60026 0.09506 0.0
O186 O 0.6216 0.54214 0.11179 0.0
Zn187 Zn 0.6428 0.48988 0.09672 0.0
Zn188 Zn 0.63329 0.61137 0.13054 0.0
Zn189 Zn 0.60623 0.46709 0.12588 0.0
O190 O 0.64191 0.37277 0.10077 0.0
O191 O 0.61289 0.36226 0.11678 0.0
O192 O 0.60875 0.57264 0.06761 0.0
O193 O 0.63725 0.50442 0.06838 0.0
O194 O 0.67051 0.53617 0.10256 0.0
O195 O 0.66292 0.61156 0.12747 0.0
O196 O 0.62711 0.58315 0.15801 0.0
O197 O 0.57418 0.57533 0.10027 0.0
O198 O 0.61115 0.47148 0.15423 0.0
O199 O 0.57684 0.48174 0.12199 0.0
C200 C 0.61704 0.75398 0.11111 0.0
C201 C 0.62763 0.33184 0.1078 0.0
C202 C 0.67575 0.58353 0.11577 0.0
C203 C 0.62283 0.53596 0.05907 0.0
C204 C 0.61889 0.5229 0.16505 0.0
C205 C 0.56616 0.52579 0.11148 0.0
O206 O 0.62595 0.72103 0.12512 0.0
O207 O 0.37463 0.23865 0.1004 0.0
Zn208 Zn 0.37906 0.35313 0.09692 0.0
O209 O 0.36128 0.4117 0.11394 0.0
Zn210 Zn 0.33991 0.46383 0.09906 0.0
Zn211 Zn 0.34993 0.34303 0.13304 0.0
Zn212 Zn 0.37691 0.48686 0.12776 0.0
O213 O 0.34092 0.58104 0.10304 0.0
O214 O 0.37024 0.59146 0.11856 0.0
O215 O 0.37309 0.37872 0.06943 0.0
O216 O 0.34484 0.44828 0.07059 0.0
O217 O 0.31233 0.41765 0.10537 0.0
O218 O 0.32029 0.34207 0.13012 0.0
O219 O 0.35613 0.37298 0.16046 0.0
O220 O 0.40843 0.37869 0.10151 0.0
O221 O 0.37221 0.48403 0.15619 0.0
O222 O 0.40623 0.47152 0.12353 0.0
C223 C 0.36607 0.19989 0.1137 0.0
C224 C 0.35537 0.62191 0.1098 0.0
C225 C 0.3073 0.37009 0.11859 0.0
C226 C 0.35891 0.41539 0.06105 0.0
C227 C 0.36442 0.43359 0.16725 0.0
C228 C 0.41669 0.42778 0.11272 0.0
O229 O 0.35741 0.23313 0.12783 0.0
O230 O 0.6117 0.25005 0.37552 0.0
Zn231 Zn 0.60681 0.36439 0.37862 0.0
O232 O 0.62451 0.42384 0.36177 0.0
Zn233 Zn 0.64607 0.47525 0.37659 0.0
Zn234 Zn 0.63586 0.35527 0.3427 0.0
Zn235 Zn 0.60871 0.49959 0.34829 0.0
O236 O 0.64565 0.59241 0.37245 0.0
O237 O 0.61661 0.60402 0.35657 0.0
O238 O 0.61241 0.39216 0.40603 0.0
O239 O 0.64073 0.46144 0.40499 0.0
O240 O 0.67352 0.42757 0.3704 0.0
O241 O 0.66556 0.3559 0.34492 0.0
O242 O 0.62873 0.38358 0.31552 0.0
O243 O 0.57739 0.38871 0.37403 0.0
O244 O 0.61187 0.49312 0.31966 0.0
O245 O 0.57958 0.48933 0.35432 0.0
C246 C 0.62052 0.21157 0.36231 0.0
C247 C 0.63155 0.63392 0.36532 0.0
C248 C 0.67855 0.38206 0.35672 0.0
C249 C 0.62645 0.42955 0.41443 0.0
C250 C 0.61968 0.4424 0.30867 0.0
C251 C 0.56914 0.44291 0.36442 0.0
O252 O 0.62903 0.24507 0.34816 0.0
O253 O 0.37746 0.72716 0.37717 0.0
Zn254 Zn 0.38179 0.61246 0.38057 0.0
O255 O 0.36403 0.55382 0.36361 0.0
Zn256 Zn 0.34236 0.50209 0.37825 0.0
Zn257 Zn 0.35309 0.62407 0.34469 0.0
Zn258 Zn 0.37949 0.47752 0.34999 0.0
O259 O 0.34256 0.38473 0.374 0.0
O260 O 0.37215 0.37336 0.35903 0.0
O261 O 0.37579 0.58608 0.40802 0.0
O262 O 0.34762 0.51595 0.40671 0.0
O263 O 0.31512 0.55215 0.37252 0.0
O264 O 0.32384 0.63445 0.34935 0.0
O265 O 0.35749 0.58929 0.31734 0.0
O266 O 0.41113 0.5863 0.37592 0.0
O267 O 0.37498 0.48116 0.32147 0.0
O268 O 0.40877 0.48919 0.3551 0.0
C269 C 0.37024 0.76601 0.36317 0.0
C270 C 0.35703 0.34339 0.36747 0.0
C271 C 0.31071 0.60602 0.36067 0.0
C272 C 0.36167 0.54869 0.4163 0.0
C273 C 0.36623 0.52963 0.3105 0.0
C274 C 0.41929 0.53396 0.36559 0.0
O275 O 0.36254 0.73267 0.34857 0.0
O276 O 0.37604 0.24551 0.84832 0.0
Zn277 Zn 0.37955 0.36144 0.84468 0.0
O278 O 0.36243 0.41979 0.86249 0.0
Zn279 Zn 0.34163 0.47801 0.84846 0.0
Zn280 Zn 0.34978 0.34814 0.87966 0.0
Zn281 Zn 0.37836 0.48738 0.87854 0.0
O282 O 0.34251 0.59248 0.85539 0.0
O283 O 0.36992 0.59532 0.87396 0.0
O284 O 0.37316 0.39027 0.8172 0.0
O285 O 0.34767 0.47324 0.82022 0.0
O286 O 0.31382 0.42843 0.85158 0.0
O287 O 0.32149 0.33395 0.87196 0.0
O288 O 0.3508 0.37924 0.90732 0.0
O289 O 0.40883 0.38969 0.84882 0.0
O290 O 0.37489 0.46821 0.90702 0.0
O291 O 0.40745 0.48046 0.87151 0.0
C292 C 0.36964 0.20857 0.86301 0.0
C293 C 0.35564 0.62973 0.86519 0.0
C294 C 0.30897 0.36781 0.86099 0.0
C295 C 0.36028 0.43639 0.80982 0.0
C296 C 0.3624 0.42587 0.91616 0.0
C297 C 0.41744 0.4395 0.85961 0.0
O298 O 0.36144 0.24337 0.87712 0.0
O299 O 0.60942 0.72055 0.84654 0.0
Zn300 Zn 0.60547 0.60561 0.84305 0.0
O301 O 0.62238 0.54699 0.86103 0.0
Zn302 Zn 0.64382 0.49056 0.84731 0.0
Zn303 Zn 0.63435 0.6169 0.87919 0.0
Zn304 Zn 0.60598 0.4763 0.87581 0.0
O305 O 0.64236 0.37546 0.85285 0.0
O306 O 0.61328 0.36934 0.86889 0.0
O307 O 0.61283 0.5787 0.81571 0.0
O308 O 0.63896 0.49868 0.81892 0.0
O309 O 0.67179 0.5359 0.85267 0.0
O310 O 0.66371 0.61752 0.87609 0.0
O311 O 0.629 0.59066 0.90652 0.0
O312 O 0.57587 0.57942 0.84664 0.0
O313 O 0.60911 0.48789 0.90461 0.0
O314 O 0.57706 0.4879 0.86908 0.0
C315 C 0.61795 0.75886 0.85996 0.0
C316 C 0.62803 0.33661 0.86046 0.0
C317 C 0.67677 0.58641 0.8652 0.0
C318 C 0.62635 0.53497 0.80844 0.0
C319 C 0.61895 0.53706 0.91454 0.0
C320 C 0.56715 0.52987 0.8574 0.0
O321 O 0.62672 0.72536 0.87393 0.0
O322 O 0.37754 0.73024 0.62924 0.0
Zn323 Zn 0.38164 0.61481 0.63237 0.0
O324 O 0.36426 0.5574 0.61458 0.0
Zn325 Zn 0.34309 0.5006 0.62851 0.0
Zn326 Zn 0.35191 0.62888 0.59706 0.0
Zn327 Zn 0.38017 0.48725 0.59923 0.0
O328 O 0.34432 0.38531 0.62271 0.0
O329 O 0.37326 0.38002 0.60639 0.0
O330 O 0.37538 0.58495 0.65981 0.0
O331 O 0.34855 0.50835 0.65681 0.0
O332 O 0.31522 0.54832 0.62447 0.0
O333 O 0.32312 0.63936 0.60327 0.0
O334 O 0.35444 0.59854 0.56943 0.0
O335 O 0.41104 0.58916 0.62775 0.0
O336 O 0.37563 0.49931 0.57063 0.0
O337 O 0.40941 0.49924 0.6049 0.0
C338 C 0.37011 0.76881 0.61528 0.0
C339 C 0.35867 0.34683 0.61497 0.0
C340 C 0.31037 0.60653 0.61418 0.0
C341 C 0.3617 0.54233 0.6672 0.0
C342 C 0.36461 0.54593 0.56107 0.0
C343 C 0.41957 0.54078 0.61652 0.0
O344 O 0.36193 0.73552 0.60093 0.0
O345 O 0.61171 0.26354 0.62695 0.0
Zn346 Zn 0.60775 0.37853 0.63037 0.0
O347 O 0.62485 0.43734 0.61258 0.0
Zn348 Zn 0.64597 0.49424 0.62666 0.0
Zn349 Zn 0.63733 0.36753 0.59475 0.0
Zn350 Zn 0.60855 0.50718 0.59736 0.0
O351 O 0.64444 0.60898 0.62086 0.0
O352 O 0.61592 0.61455 0.60392 0.0
O353 O 0.61469 0.40547 0.6578 0.0
O354 O 0.64061 0.48669 0.65497 0.0
O355 O 0.67415 0.44966 0.62182 0.0
O356 O 0.66663 0.36857 0.59812 0.0
O357 O 0.63221 0.39208 0.56733 0.0
O358 O 0.57826 0.40495 0.6265 0.0
O359 O 0.61184 0.4936 0.56858 0.0
O360 O 0.57953 0.49638 0.60403 0.0
C361 C 0.62078 0.2254 0.61382 0.0
C362 C 0.63043 0.64756 0.61266 0.0
C363 C 0.67944 0.39984 0.60924 0.0
C364 C 0.62792 0.44986 0.66527 0.0
C365 C 0.622 0.44436 0.55897 0.0
C366 C 0.56957 0.45448 0.61571 0.0
O367 O 0.62999 0.25904 0.60015 0.0
H368 H 0.19433 0.14279 0.14731 0.0
H369 H 0.20604 0.07842 0.08815 0.0
H370 H 0.22471 0.22068 0.1477 0.0
H371 H 0.23727 0.1548 0.08879 0.0
H372 H 0.27822 0.36977 0.09026 0.0
H373 H 0.2472 0.29216 0.08985 0.0
H374 H 0.26032 0.21184 0.14747 0.0
H375 H 0.29048 0.29092 0.1482 0.0
C376 C 0.20368 0.14384 0.13448 0.0
C377 C 0.19774 0.10465 0.11766 0.0
C378 C 0.22116 0.18857 0.13472 0.0
C379 C 0.23331 0.19465 0.11821 0.0
C380 C 0.22797 0.15239 0.10163 0.0
C381 C 0.21032 0.10756 0.10136 0.0
C382 C 0.27413 0.33706 0.10299 0.0
C383 C 0.28679 0.33648 0.11925 0.0
C384 C 0.2566 0.29156 0.10263 0.0
C385 C 0.25146 0.24505 0.11853 0.0
C386 C 0.26373 0.24728 0.13502 0.0
C387 C 0.28107 0.29271 0.13542 0.0
H388 H 0.78951 0.80285 0.14518 0.0
H389 H 0.77891 0.86825 0.08593 0.0
H390 H 0.75886 0.72668 0.14511 0.0
H391 H 0.74737 0.79361 0.08612 0.0
H392 H 0.70487 0.58209 0.08741 0.0
H393 H 0.73633 0.65724 0.08708 0.0
H394 H 0.72337 0.73943 0.14461 0.0
H395 H 0.69281 0.66282 0.14526 0.0
C396 C 0.78037 0.80233 0.13222 0.0
C397 C 0.78669 0.8415 0.11553 0.0
C398 C 0.76273 0.75859 0.1322 0.0
C399 C 0.75073 0.75351 0.11557 0.0
C400 C 0.75652 0.79533 0.09906 0.0
C401 C 0.77436 0.83914 0.09905 0.0
C402 C 0.70907 0.61474 0.10013 0.0
C403 C 0.69637 0.61642 0.11636 0.0
C404 C 0.72687 0.65881 0.09981 0.0
C405 C 0.73223 0.70497 0.11574 0.0
C406 C 0.71983 0.70412 0.13216 0.0
C407 C 0.70224 0.66012 0.13251 0.0
H408 H 0.30247 0.75332 0.35017 0.0
H409 H 0.27438 0.54757 0.37344 0.0
H410 H 0.27028 0.82091 0.35153 0.0
H411 H 0.24178 0.61601 0.37447 0.0
H412 H 0.1874 0.73898 0.3433 0.0
H413 H 0.21961 0.67281 0.34601 0.0
H414 H 0.24394 0.86544 0.37813 0.0
H415 H 0.21124 0.93248 0.37578 0.0
C416 C 0.28937 0.72228 0.35548 0.0
C417 C 0.29085 0.64462 0.36145 0.0
C418 C 0.27103 0.76151 0.35648 0.0
C419 C 0.25371 0.72367 0.36317 0.0
C420 C 0.25506 0.64618 0.36926 0.0
C421 C 0.2736 0.60711 0.36863 0.0
C422 C 0.19957 0.76792 0.35088 0.0
C423 C 0.19681 0.84152 0.35922 0.0
C424 C 0.21793 0.72929 0.35262 0.0
C425 C 0.23405 0.76373 0.36245 0.0
C426 C 0.23157 0.83777 0.37055 0.0
C427 C 0.21297 0.87614 0.36913 0.0
H428 H 0.77889 0.08164 0.38434 0.0
H429 H 0.79094 0.15458 0.32589 0.0
H430 H 0.74799 0.15995 0.38445 0.0
H431 H 0.76092 0.2344 0.32629 0.0
H432 H 0.69541 0.30787 0.32632 0.0
H433 H 0.72536 0.22766 0.3263 0.0
H434 H 0.73835 0.29743 0.38483 0.0
H435 H 0.70751 0.3761 0.38514 0.0
C436 C 0.77477 0.11314 0.37144 0.0
C437 C 0.78735 0.11195 0.35512 0.0
C438 C 0.7573 0.15906 0.37162 0.0
C439 C 0.75215 0.20421 0.35547 0.0
C440 C 0.76432 0.20004 0.33893 0.0
C441 C 0.78159 0.15419 0.33871 0.0
C442 C 0.70475 0.30714 0.33914 0.0
C443 C 0.69904 0.34821 0.35577 0.0
C444 C 0.72198 0.26105 0.33911 0.0
C445 C 0.73415 0.25548 0.35562 0.0
C446 C 0.72903 0.2994 0.37201 0.0
C447 C 0.7116 0.34554 0.37207 0.0
H448 H 0.6938 0.66013 0.89537 0.0
H449 H 0.7056 0.59039 0.83662 0.0
H450 H 0.7235 0.74134 0.89505 0.0
H451 H 0.73638 0.66976 0.8366 0.0
H452 H 0.7767 0.88605 0.83645 0.0
H453 H 0.7459 0.80698 0.83656 0.0
H454 H 0.75878 0.73686 0.89508 0.0
H455 H 0.78854 0.81783 0.89528 0.0
C456 C 0.70309 0.66065 0.8825 0.0
C457 C 0.69734 0.61909 0.86598 0.0
C458 C 0.72018 0.70728 0.88233 0.0
C459 C 0.73223 0.71268 0.86574 0.0
C460 C 0.72714 0.66792 0.84948 0.0
C461 C 0.70979 0.62132 0.8496 0.0
C462 C 0.77251 0.85557 0.84949 0.0
C463 C 0.785 0.85811 0.86585 0.0
C464 C 0.75515 0.8091 0.84943 0.0
C465 C 0.75006 0.76473 0.86573 0.0
C466 C 0.7621 0.77057 0.88232 0.0
C467 C 0.77922 0.81712 0.88243 0.0
H468 H 0.27354 0.43167 0.84748 0.0
H469 H 0.29998 0.21752 0.86758 0.0
H470 H 0.24074 0.36606 0.84421 0.0
H471 H 0.26761 0.15307 0.86428 0.0
H472 H 0.20854 0.04635 0.84297 0.0
H473 H 0.24123 0.11237 0.83947 0.0
H474 H 0.21758 0.31028 0.8701 0.0
H475 H 0.18535 0.24553 0.8737 0.0
C476 C 0.27238 0.37083 0.85105 0.0
C477 C 0.28919 0.33019 0.85811 0.0
C478 C 0.25371 0.33334 0.84916 0.0
C479 C 0.25176 0.25453 0.85396 0.0
C480 C 0.26876 0.21351 0.86027 0.0
C481 C 0.28722 0.25094 0.86241 0.0
C482 C 0.21039 0.10385 0.84894 0.0
C483 C 0.19446 0.14011 0.85882 0.0
C484 C 0.22899 0.14167 0.84687 0.0
C485 C 0.23176 0.21663 0.85437 0.0
C486 C 0.21574 0.25313 0.8639 0.0
C487 C 0.19735 0.21526 0.86619 0.0
H488 H 0.7074 0.38971 0.63851 0.0
H489 H 0.69745 0.33409 0.57855 0.0
H490 H 0.73813 0.3098 0.63826 0.0
H491 H 0.72698 0.25219 0.57854 0.0
H492 H 0.79108 0.17088 0.57839 0.0
H493 H 0.76205 0.25509 0.57945 0.0
H494 H 0.74765 0.17268 0.63664 0.0
H495 H 0.77792 0.0904 0.636 0.0
C496 C 0.71202 0.3619 0.62522 0.0
C497 C 0.7001 0.36813 0.60855 0.0
C498 C 0.72932 0.31493 0.62517 0.0
C499 C 0.73487 0.27384 0.60844 0.0
C500 C 0.72335 0.28343 0.59162 0.0
C501 C 0.70635 0.33047 0.59163 0.0
C502 C 0.78164 0.16972 0.59116 0.0
C503 C 0.78683 0.12407 0.60715 0.0
C504 C 0.76491 0.21813 0.59174 0.0
C505 C 0.75256 0.22111 0.60818 0.0
C506 C 0.75712 0.17269 0.62391 0.0
C507 C 0.77417 0.12444 0.6234 0.0
H508 H 0.21032 0.93085 0.62931 0.0
H509 H 0.18592 0.72603 0.60195 0.0
H510 H 0.24302 0.86477 0.63279 0.0
H511 H 0.21817 0.66116 0.60554 0.0
H512 H 0.27511 0.54517 0.62887 0.0
H513 H 0.24227 0.61097 0.63163 0.0
H514 H 0.26838 0.81823 0.60739 0.0
H515 H 0.30075 0.75366 0.60452 0.0
C516 C 0.21191 0.87205 0.62411 0.0
C517 C 0.19566 0.83424 0.6151 0.0
C518 C 0.23052 0.83424 0.62615 0.0
C519 C 0.23296 0.75777 0.61954 0.0
C520 C 0.21659 0.71961 0.611 0.0
C521 C 0.1982 0.75747 0.60871 0.0
C522 C 0.27377 0.60474 0.6242 0.0
C523 C 0.29039 0.64368 0.61619 0.0
C524 C 0.25508 0.64236 0.62582 0.0
C525 C 0.25294 0.71973 0.61981 0.0
C526 C 0.2697 0.75902 0.61236 0.0
C527 C 0.28817 0.72138 0.61047 0.0
H528 H 0.13239 0.84009 0.2806 0.0
H529 H 0.10683 0.06824 0.28871 0.0
H530 H 0.13144 0.85878 0.24576 0.0
H531 H 0.10578 0.0863 0.25394 0.0
H532 H 0.10526 0.89086 0.18489 0.0
H533 H 0.1054 0.87272 0.21972 0.0
H534 H 0.13062 0.10138 0.22713 0.0
H535 H 0.13039 0.12009 0.19233 0.0
C536 C 0.12656 0.89412 0.27498 0.0
C537 C 0.11971 0.95269 0.28744 0.0
C538 C 0.12591 0.90458 0.25504 0.0
C539 C 0.11853 0.97396 0.24719 0.0
C540 C 0.11172 0.03253 0.25962 0.0
C541 C 0.11224 0.02194 0.27953 0.0
C542 C 0.11075 0.93746 0.19393 0.0
C543 C 0.11783 0.00693 0.18583 0.0
C544 C 0.11094 0.92679 0.21386 0.0
C545 C 0.11807 -0.01445 0.22608 0.0
C546 C 0.12488 0.05537 0.21803 0.0
C547 C 0.12482 0.06589 0.1981 0.0
H548 H 0.85456 0.11874 0.27926 0.0
H549 H 0.87812 0.88798 0.28817 0.0
H550 H 0.85513 0.09742 0.2445 0.0
H551 H 0.87878 0.86727 0.25346 0.0
H552 H 0.8804 0.05708 0.18362 0.0
H553 H 0.88084 0.07771 0.21835 0.0
H554 H 0.85332 0.8537 0.22695 0.0
H555 H 0.85295 0.83247 0.19221 0.0
C556 C 0.85991 0.06362 0.27382 0.0
C557 C 0.86627 0.00504 0.28648 0.0
C558 C 0.86033 0.05163 0.25393 0.0
C559 C 0.86698 0.98067 0.24634 0.0
C560 C 0.87339 0.92222 0.25896 0.0
C561 C 0.87311 0.93434 0.27883 0.0
C562 C 0.87451 0.01201 0.1929 0.0
C563 C 0.86662 0.94311 0.18514 0.0
C564 C 0.87466 0.02413 0.21277 0.0
C565 C 0.86707 0.9674 0.22529 0.0
C566 C 0.85942 0.89811 0.2176 0.0
C567 C 0.85913 0.88617 0.19771 0.0
H568 H 0.88705 0.0713 0.69028 0.0
H569 H 0.82729 0.97093 0.68552 0.0
H570 H 0.88666 0.04745 0.72493 0.0
H571 H 0.82705 0.9469 0.72011 0.0
H572 H 0.82648 -0.00081 0.78531 0.0
H573 H 0.82654 0.02382 0.75075 0.0
H574 H 0.88698 0.93027 0.74658 0.0
H575 H 0.88706 0.90584 0.7812 0.0
C576 C 0.87381 0.04454 0.69662 0.0
C577 C 0.85721 0.02295 0.68514 0.0
C578 C 0.87366 0.03039 0.71641 0.0
C579 C 0.85686 -0.00493 0.72513 0.0
C580 C 0.84014 0.97469 0.71375 0.0
C581 C 0.84033 -0.01179 0.69394 0.0
C582 C 0.83977 0.98359 0.77704 0.0
C583 C 0.85678 0.9506 0.78601 0.0
C584 C 0.83975 -0.00253 0.75725 0.0
C585 C 0.85679 0.9792 0.74605 0.0
C586 C 0.87374 0.94571 0.75495 0.0
C587 C 0.87371 0.93121 0.77473 0.0
H588 H 0.15284 0.97592 0.78655 0.0
H589 H 0.09284 0.07404 0.78191 0.0
H590 H 0.15286 0.94956 0.75208 0.0
H591 H 0.09297 0.04756 0.7473 0.0
H592 H 0.09354 0.90109 0.69111 0.0
H593 H 0.09321 0.92792 0.72569 0.0
H594 H 0.15296 0.0276 0.72147 0.0
H595 H 0.15341 0.00088 0.68702 0.0
C596 C 0.13968 -0.0079 0.77818 0.0
C597 C 0.12283 0.02712 0.78696 0.0
C598 C 0.13974 0.97723 0.75843 0.0
C599 C 0.12291 -0.00359 0.74709 0.0
C600 C 0.10606 0.03158 0.7558 0.0
C601 C 0.10607 0.04724 0.77555 0.0
C602 C 0.10665 0.92834 0.69758 0.0
C603 C 0.12351 0.94879 0.68633 0.0
C604 C 0.10637 0.94421 0.71732 0.0
C605 C 0.12304 0.97994 0.72619 0.0
C606 C 0.13997 -0.0005 0.715 0.0
C607 C 0.14017 -0.01559 0.69527 0.0
H608 H 0.60559 0.56832 0.28903 0.0
H609 H 0.6317 0.34125 0.28058 0.0
H610 H 0.60494 0.58788 0.25427 0.0
H611 H 0.63116 0.36144 0.24582 0.0
H612 H 0.60615 0.39527 0.18477 0.0
H613 H 0.60571 0.37582 0.21951 0.0
H614 H 0.63034 0.6049 0.22787 0.0
H615 H 0.63067 0.625 0.19307 0.0
C616 C 0.61114 0.52252 0.27979 0.0
C617 C 0.61871 0.45323 0.28758 0.0
C618 C 0.61088 0.53399 0.25989 0.0
C619 C 0.61804 0.47627 0.2474 0.0
C620 C 0.62538 0.40663 0.25514 0.0
C621 C 0.62576 0.3953 0.27504 0.0
C622 C 0.61144 0.44164 0.19398 0.0
C623 C 0.61846 0.5117 0.18615 0.0
C624 C 0.61128 0.43026 0.21387 0.0
C625 C 0.61802 0.4888 0.22634 0.0
C626 C 0.62488 0.55909 0.21856 0.0
C627 C 0.62517 0.57036 0.19865 0.0
H628 H 0.37905 0.40042 0.29133 0.0
H629 H 0.35284 0.62671 0.2821 0.0
H630 H 0.37857 0.37676 0.25672 0.0
H631 H 0.35226 0.60245 0.24747 0.0
H632 H 0.37699 0.56317 0.18634 0.0
H633 H 0.37739 0.58583 0.22095 0.0
H634 H 0.35301 0.35721 0.23055 0.0
H635 H 0.35271 0.33392 0.19584 0.0
C636 C 0.37319 0.44514 0.28194 0.0
C637 C 0.36602 0.51556 0.28948 0.0
C638 C 0.3728 0.43128 0.26213 0.0
C639 C 0.36537 0.48772 0.24944 0.0
C640 C 0.35825 0.55821 0.25693 0.0
C641 C 0.3585 0.57191 0.27676 0.0
C642 C 0.37174 0.51755 0.19579 0.0
C643 C 0.36482 0.44666 0.18831 0.0
C644 C 0.37186 0.53083 0.21562 0.0
C645 C 0.36519 0.47338 0.22841 0.0
C646 C 0.3584 0.40228 0.221 0.0
C647 C 0.35814 0.38913 0.20113 0.0
H648 H 0.3309 0.50596 0.78836 0.0
H649 H 0.38975 0.39807 0.78379 0.0
H650 H 0.33138 0.53312 0.75391 0.0
H651 H 0.39015 0.42553 0.74924 0.0
H652 H 0.39163 0.57339 0.69336 0.0
H653 H 0.39131 0.54652 0.72795 0.0
H654 H 0.33075 0.45486 0.72306 0.0
H655 H 0.33098 0.48145 0.68859 0.0
C656 C 0.34391 0.48784 0.78 0.0
C657 C 0.36029 0.44979 0.7888 0.0
C658 C 0.34414 0.5032 0.76028 0.0
C659 C 0.36082 0.48158 0.74898 0.0
C660 C 0.37719 0.44342 0.75771 0.0
C661 C 0.37687 0.42721 0.77743 0.0
C662 C 0.37821 0.54792 0.69969 0.0
C663 C 0.36133 0.52956 0.68825 0.0
C664 C 0.3781 0.53204 0.71943 0.0
C665 C 0.36103 0.49849 0.7281 0.0
C666 C 0.34406 0.48122 0.71673 0.0
C667 C 0.34424 0.49621 0.697 0.0
H668 H 0.61176 0.63116 0.78048 0.0
H669 H 0.64226 0.4125 0.78896 0.0
H670 H 0.61247 0.61017 0.74558 0.0
H671 H 0.64258 0.39129 0.75415 0.0
H672 H 0.61312 0.35306 0.69298 0.0
H673 H 0.61305 0.37421 0.72788 0.0
H674 H 0.64258 0.59455 0.7198 0.0
H675 H 0.64305 0.57319 0.68499 0.0
C676 C 0.61857 0.57872 0.7749 0.0
C677 C 0.627 0.52357 0.7874 0.0
C678 C 0.61903 0.56692 0.75499 0.0
C679 C 0.62753 0.49911 0.74734 0.0
C680 C 0.63585 0.44379 0.7598 0.0
C681 C 0.63576 0.45624 0.77966 0.0
C682 C 0.61965 0.40586 0.69867 0.0
C683 C 0.62814 0.46137 0.68631 0.0
C684 C 0.61965 0.41776 0.71858 0.0
C685 C 0.62776 0.48602 0.72636 0.0
C686 C 0.63615 0.5417 0.71404 0.0
C687 C 0.63652 0.52916 0.69419 0.0
H688 H 0.09514 0.9615 0.93783 0.0
H689 H 0.14881 0.10463 0.93795 0.0
H690 H 0.09672 0.95311 0.97296 0.0
H691 H 0.15037 0.09566 0.97299 0.0
H692 H 0.15632 -0.0048 0.03441 0.0
H693 H 0.15565 -0.00854 -0.00084 0.0
H694 H 0.09244 0.05456 -0.00019 0.0
H695 H 0.09304 0.05885 0.0349 0.0
C696 C 0.10732 -0.0093 0.94533 0.0
C697 C 0.12177 0.03412 0.93515 0.0
C698 C 0.10818 -0.01395 0.9654 0.0
C699 C 0.12367 0.02375 0.97559 0.0
C700 C 0.13838 0.06556 0.96542 0.0
C701 C 0.13738 0.07112 0.94539 0.0
C702 C 0.14228 0.00795 0.02702 0.0
C703 C 0.12477 0.0277 0.0374 0.0
C704 C 0.14192 0.00602 0.00689 0.0
C705 C 0.12398 0.02258 -0.00314 0.0
C706 C 0.10641 0.04086 0.00724 0.0
C707 C 0.10682 0.04388 0.02731 0.0
H708 H 0.85902 0.80544 0.937 0.0
H709 H 0.87096 0.05148 0.93761 0.0
H710 H 0.8584 0.80444 0.97205 0.0
H711 H 0.87025 0.05013 0.97292 0.0
H712 H 0.84099 0.01589 0.03428 0.0
H713 H 0.84301 0.02252 -0.0009 0.0
H714 H 0.88388 0.82764 -0.00112 0.0
H715 H 0.88197 0.82075 0.03386 0.0
C716 C 0.86158 0.85931 0.94462 0.0
C717 C 0.86505 0.92859 0.93455 0.0
C718 C 0.8613 0.85858 0.96468 0.0
C719 C 0.86427 0.92719 0.97511 0.0
C720 C 0.86779 -0.00342 0.96513 0.0
C721 C 0.86834 -0.00281 0.94499 0.0
C722 C 0.85037 0.97443 0.02671 0.0
C723 C 0.86125 0.9176 0.03684 0.0
C724 C 0.85165 0.9787 0.00663 0.0
C725 C 0.8636 0.92559 -0.00363 0.0
C726 C 0.87446 0.86893 0.00648 0.0
C727 C 0.87338 0.86518 0.0265 0.0
H728 H 0.09336 0.90481 0.43888 0.0
H729 H 0.15642 0.97147 0.43826 0.0
H730 H 0.09316 0.91272 0.47393 0.0
H731 H 0.15616 0.97882 0.47347 0.0
H732 H 0.15037 0.87026 0.53536 0.0
H733 H 0.15156 0.8768 0.50027 0.0
H734 H 0.09746 0.01686 0.50017 0.0
H735 H 0.09625 0.01092 0.53535 0.0
C736 C 0.10717 0.92122 0.44622 0.0
C737 C 0.12494 0.93716 0.43582 0.0
C738 C 0.10699 0.92632 0.46626 0.0
C739 C 0.12463 0.94648 0.47632 0.0
C740 C 0.14239 0.96285 0.46599 0.0
C741 C 0.14251 0.95885 0.44588 0.0
C742 C 0.13877 0.90278 0.52788 0.0
C743 C 0.12314 0.9397 0.5381 0.0
C744 C 0.13956 0.90694 0.50782 0.0
C745 C 0.12459 0.94723 0.4976 0.0
C746 C 0.10911 -0.01495 0.50778 0.0
C747 C 0.10847 0.98183 0.52787 0.0
H748 H 0.83641 0.09711 0.53378 0.0
H749 H 0.88917 0.94917 0.53438 0.0
H750 H 0.83521 0.08875 0.49878 0.0
H751 H 0.88799 0.94154 0.49913 0.0
H752 H 0.82866 -0.00842 0.43752 0.0
H753 H 0.82949 0.98393 0.47271 0.0
H754 H 0.89285 0.04473 0.47228 0.0
H755 H 0.89209 0.05303 0.43721 0.0
C756 C 0.84775 0.06275 0.52643 0.0
C757 C 0.86298 0.02414 0.5368 0.0
C758 C 0.84693 0.0575 0.50642 0.0
C759 C 0.86147 0.01442 0.49635 0.0
C760 C 0.87665 0.97531 0.50665 0.0
C761 C 0.87729 0.97955 0.52675 0.0
C762 C 0.84278 0.00291 0.44494 0.0
C763 C 0.86026 0.02351 0.43464 0.0
C764 C 0.84323 -0.00135 0.46503 0.0
C765 C 0.86124 0.01366 0.4751 0.0
C766 C 0.87883 0.03224 0.4648 0.0
C767 C 0.87832 0.03763 0.44476 0.0
H768 H 0.59043 0.56023 0.03555 0.0
H769 H 0.65368 0.49611 0.03477 0.0
H770 H 0.58946 0.55294 0.00047 0.0
H771 H 0.65263 0.48936 -0.00041 0.0
H772 H 0.59288 0.45776 0.93806 0.0
H773 H 0.59386 0.4506 0.97332 0.0
H774 H 0.64721 0.59475 0.97384 0.0
H775 H 0.64624 0.60258 0.93885 0.0
C776 C 0.60411 0.54445 0.0279 0.0
C777 C 0.62219 0.52931 0.03789 0.0
C778 C 0.60348 0.53964 0.00785 0.0
C779 C 0.62096 0.52062 -0.00257 0.0
C780 C 0.63898 0.50451 0.00738 0.0
C781 C 0.63955 0.50825 0.02746 0.0
C782 C 0.60483 0.48767 0.94573 0.0
C783 C 0.61941 0.53107 0.93572 0.0
C784 C 0.60535 0.4837 0.96584 0.0
C785 C 0.62066 0.52192 0.97618 0.0
C786 C 0.63539 0.56414 0.96616 0.0
C787 C 0.6347 0.56909 0.94615 0.0
H788 H 0.33288 0.36826 0.93959 0.0
H789 H 0.38961 0.49291 0.94077 0.0
H790 H 0.33173 0.3707 0.9747 0.0
H791 H 0.38838 0.49501 0.97596 0.0
H792 H 0.39023 0.38251 0.03682 0.0
H793 H 0.39069 0.39066 0.00179 0.0
H794 H 0.32865 0.46888 0.00206 0.0
H795 H 0.32809 0.46101 0.03724 0.0
C796 C 0.34507 0.3964 0.94733 0.0
C797 C 0.3614 0.43007 0.93741 0.0
C798 C 0.34432 0.39821 0.96741 0.0
C799 C 0.35997 0.43293 0.97798 0.0
C800 C 0.37619 0.46737 0.96811 0.0
C801 C 0.37684 0.46641 0.94799 0.0
C802 C 0.37666 0.40149 0.02945 0.0
C803 C 0.35909 0.42086 0.03981 0.0
C804 C 0.37701 0.40671 0.0094 0.0
C805 C 0.35973 0.43056 -0.00072 0.0
C806 C 0.34214 0.44996 0.00957 0.0
C807 C 0.34186 0.44566 0.02967 0.0
H808 H 0.65706 0.47399 0.43853 0.0
H809 H 0.59425 0.40379 0.43812 0.0
H810 H 0.65587 0.48475 0.47364 0.0
H811 H 0.59314 0.41506 0.47313 0.0
H812 H 0.59556 0.51839 0.53474 0.0
H813 H 0.59668 0.52114 0.49943 0.0
H814 H 0.65111 0.38303 0.50028 0.0
H815 H 0.65 0.37961 0.5353 0.0
C816 C 0.64301 0.46124 0.4459 0.0
C817 C 0.6258 0.43747 0.43559 0.0
C818 C 0.64234 0.46731 0.46595 0.0
C819 C 0.6244 0.45083 0.47599 0.0
C820 C 0.60709 0.42877 0.46568 0.0
C821 C 0.60781 0.42165 0.44567 0.0
C822 C 0.60778 0.48894 0.52736 0.0
C823 C 0.62261 0.44841 0.53775 0.0
C824 C 0.60838 0.49035 0.50722 0.0
C825 C 0.62402 0.45246 0.49724 0.0
C826 C 0.63902 0.41331 0.50766 0.0
C827 C 0.63826 0.41089 0.52769 0.0
H828 H 0.39066 0.46927 0.53708 0.0
H829 H 0.33626 0.60827 0.53717 0.0
H830 H 0.38958 0.46405 0.50187 0.0
H831 H 0.3352 0.60244 0.50208 0.0
H832 H 0.39336 0.57566 0.44051 0.0
H833 H 0.39365 0.56803 0.47558 0.0
H834 H 0.33075 0.50064 0.47526 0.0
H835 H 0.3304 0.5077 0.44005 0.0
C836 C 0.37842 0.49816 0.52961 0.0
C837 C 0.36362 0.53956 0.53987 0.0
C838 C 0.37785 0.49538 0.5095 0.0
C839 C 0.36231 0.53288 0.49934 0.0
C840 C 0.34724 0.57254 0.5096 0.0
C841 C 0.34796 0.57628 0.52967 0.0
C842 C 0.37959 0.55905 0.44789 0.0
C843 C 0.36182 0.54262 0.43752 0.0
C844 C 0.37983 0.55411 0.46794 0.0
C845 C 0.36224 0.53365 0.47805 0.0
C846 C 0.34448 0.51687 0.46775 0.0
C847 C 0.34431 0.52071 0.44764 0.0
H848 H 0.93825 0.0572 0.11978 0.0
H849 H 0.946 0.82947 0.0949 0.0
H850 H 0.97461 0.07787 0.11846 0.0
H851 H 0.9826 0.85068 0.09365 0.0
H852 H 0.04625 0.88901 0.1212 0.0
H853 H 0.00991 0.8678 0.11952 0.0
H854 H 0.00221 0.09155 0.09286 0.0
H855 H 0.03875 0.11327 0.09447 0.0
C856 C 0.94771 0.01148 0.11403 0.0
C857 C 0.93929 0.94141 0.10755 0.0
C858 C 0.9685 0.02376 0.11313 0.0
C859 C 0.9813 0.96597 0.10591 0.0
C860 C 0.97296 0.89594 0.09935 0.0
C861 C 0.95208 0.88392 0.10004 0.0
C862 C 0.03685 0.93386 0.11498 0.0
C863 C 0.04534 0.00312 0.10808 0.0
C864 C 0.01608 0.92125 0.11387 0.0
C865 C 0.00337 0.97793 0.10601 0.0
C866 C 0.01177 0.04714 0.09905 0.0
C867 C 0.03263 0.05947 0.09996 0.0
H868 H 0.94406 0.0681 0.38988 0.0
H869 H 0.94041 0.95683 0.33415 0.0
H870 H 0.98065 0.04509 0.3904 0.0
H871 H 0.97678 0.93446 0.33471 0.0
H872 H 0.04446 0.00022 0.33432 0.0
H873 H 0.00811 0.02285 0.33444 0.0
H874 H 0.00377 0.92066 0.39104 0.0
H875 H 0.04035 0.89739 0.39097 0.0
C876 C 0.95109 0.03945 0.37771 0.0
C877 C 0.93945 0.01428 0.36197 0.0
C878 C 0.97191 0.02571 0.3781 0.0
C879 C 0.98135 -0.01218 0.36263 0.0
C880 C 0.96978 0.96404 0.34677 0.0
C881 C 0.949 0.97675 0.34649 0.0
C882 C 0.03577 0.98222 0.34677 0.0
C883 C 0.04519 0.94695 0.36264 0.0
C884 C 0.015 -0.00493 0.3468 0.0
C885 C 0.0033 0.97372 0.36277 0.0
C886 C 0.01261 0.93815 0.37864 0.0
C887 C 0.03343 0.92425 0.37851 0.0
H888 H 0.04403 0.91431 0.87213 0.0
H889 H 0.03647 0.13558 0.84394 0.0
H890 H 0.0077 0.89233 0.87039 0.0
H891 H -0.00012 0.11333 0.84241 0.0
H892 H 0.93563 0.07592 0.86991 0.0
H893 H 0.97198 0.09881 0.86884 0.0
H894 H 0.98095 0.87381 0.84313 0.0
H895 H 0.9444 0.85066 0.84401 0.0
C896 C 0.03461 0.95843 0.86563 0.0
C897 C 0.04306 0.02696 0.85826 0.0
C898 C 0.01386 0.94537 0.86448 0.0
C899 C 0.00114 0.00099 0.8562 0.0
C900 C 0.00949 0.06972 0.84889 0.0
C901 C 0.03034 0.08235 0.84976 0.0
C902 C 0.94533 0.03121 0.86402 0.0
C903 C 0.93721 0.96119 0.85715 0.0
C904 C 0.96608 0.04474 0.86326 0.0
C905 C 0.97912 -0.01187 0.85587 0.0
C906 C 0.9711 0.91817 0.84895 0.0
C907 C 0.95025 0.90503 0.84942 0.0
H908 H 0.93731 0.89826 0.60243 0.0
H909 H 0.9453 0.12408 0.62826 0.0
H910 H 0.97366 0.87634 0.60396 0.0
H911 H 0.9819 0.10188 0.62959 0.0
H912 H 0.04544 0.06176 0.60113 0.0
H913 H 0.0091 0.08371 0.60274 0.0
H914 H 0.00118 0.86246 0.63058 0.0
H915 H 0.03775 0.84025 0.62917 0.0
C916 C 0.94683 0.94331 0.6084 0.0
C917 C 0.9385 0.0132 0.61511 0.0
C918 C 0.96759 0.93033 0.60942 0.0
C919 C 0.98044 -0.01266 0.61693 0.0
C920 C 0.9722 0.0572 0.6237 0.0
C921 C 0.95133 0.0698 0.62296 0.0
C922 C 0.03599 0.01761 0.60759 0.0
C923 C 0.04441 0.94896 0.61492 0.0
C924 C 0.01523 0.03066 0.60866 0.0
C925 C 0.00248 0.97491 0.61685 0.0
C926 C 0.0108 0.90617 0.62417 0.0
C927 C 0.03166 0.89355 0.62337 0.0
H928 H 0.43956 0.49216 0.14094 0.0
H929 H 0.44358 0.38731 0.08447 0.0
H930 H 0.47574 0.51821 0.14033 0.0
H931 H 0.48 0.41395 0.08391 0.0
H932 H 0.5387 0.56709 0.08383 0.0
H933 H 0.50228 0.54032 0.08387 0.0
H934 H 0.50768 0.43407 0.13992 0.0
H935 H 0.54387 0.46025 0.13994 0.0
C936 C 0.4482 0.47436 0.12844 0.0
C937 C 0.43879 0.43764 0.11275 0.0
C938 C 0.46888 0.48919 0.12812 0.0
C939 C 0.48051 0.46837 0.11204 0.0
C940 C 0.47122 0.43111 0.09638 0.0
C941 C 0.4505 0.41525 0.0968 0.0
C942 C 0.53204 0.53868 0.09621 0.0
C943 C 0.54406 0.51578 0.11188 0.0
C944 C 0.51131 0.52274 0.09613 0.0
C945 C 0.50235 0.4849 0.11186 0.0
C946 C 0.5143 0.46355 0.12767 0.0
C947 C 0.53497 0.47846 0.12764 0.0
H948 H 0.4483 0.63122 0.38006 0.0
H949 H 0.43998 0.40755 0.35315 0.0
H950 H 0.48483 0.60817 0.38126 0.0
H951 H 0.47627 0.38501 0.35444 0.0
H952 H 0.54027 0.34388 0.37837 0.0
H953 H 0.50377 0.36678 0.38015 0.0
H954 H 0.51206 0.59329 0.35514 0.0
H955 H 0.54832 0.57093 0.35328 0.0
C956 C 0.45424 0.57729 0.37445 0.0
C957 C 0.44132 0.5215 0.36639 0.0
C958 C 0.47508 0.56419 0.37513 0.0
C959 C 0.48322 0.49473 0.368 0.0
C960 C 0.47029 0.43862 0.36021 0.0
C961 C 0.44956 0.45201 0.35932 0.0
C962 C 0.53428 0.39852 0.37328 0.0
C963 C 0.54712 0.45532 0.36556 0.0
C964 C 0.51346 0.41153 0.37429 0.0
C965 C 0.50524 0.48188 0.36784 0.0
C966 C 0.51809 0.53897 0.36039 0.0
C967 C 0.53882 0.5257 0.35917 0.0
H968 H 0.44575 0.34482 0.84313 0.0
H969 H 0.43855 0.56561 0.87173 0.0
H970 H 0.48217 0.3683 0.84052 0.0
H971 H 0.4748 0.58882 0.86895 0.0
H972 H 0.53846 0.62924 0.84321 0.0
H973 H 0.5018 0.60766 0.84189 0.0
H974 H 0.50992 0.38074 0.8667 0.0
H975 H 0.54626 0.40202 0.8682 0.0
C976 C 0.45191 0.39834 0.84877 0.0
C977 C 0.43936 0.45302 0.85779 0.0
C978 C 0.47268 0.4117 0.84727 0.0
C979 C 0.48113 0.48044 0.85448 0.0
C980 C 0.46855 0.53578 0.86311 0.0
C981 C 0.44787 0.522 0.86486 0.0
C982 C 0.53238 0.57474 0.84828 0.0
C983 C 0.54515 0.51762 0.85595 0.0
C984 C 0.51148 0.56251 0.84756 0.0
C985 C 0.50319 0.49249 0.85414 0.0
C986 C 0.51601 0.43486 0.86137 0.0
C987 C 0.53677 0.44747 0.86238 0.0
H988 H 0.44812 0.638 0.63175 0.0
H989 H 0.44073 0.41596 0.60381 0.0
H990 H 0.48473 0.61644 0.63321 0.0
H991 H 0.4771 0.39464 0.60547 0.0
H992 H 0.54107 0.35596 0.63048 0.0
H993 H 0.50447 0.3776 0.63223 0.0
H994 H 0.51214 0.60286 0.60639 0.0
H995 H 0.54849 0.58148 0.60444 0.0
C996 C 0.45429 0.58469 0.626 0.0
C997 C 0.44162 0.52898 0.61754 0.0
C998 C 0.47516 0.57244 0.62683 0.0
C999 C 0.48357 0.50378 0.61952 0.0
C1000 C 0.47089 0.44764 0.61137 0.0
C1001 C 0.45013 0.46033 0.61027 0.0
C1002 C 0.53491 0.41009 0.62524 0.0
C1003 C 0.54758 0.46672 0.61719 0.0
C1004 C 0.51405 0.42236 0.62622 0.0
C1005 C 0.50564 0.49195 0.61949 0.0
C1006 C 0.51833 0.54909 0.61183 0.0
C1007 C 0.53909 0.53641 0.61056 0.0
H1008 H 0.16153 0.72452 0.10308 0.0
H1009 H 0.09628 0.73309 0.10675 0.0
H1010 H 0.15991 0.58234 0.10178 0.0
H1011 H 0.09473 0.59297 0.10537 0.0
H1012 H 0.09824 0.34225 0.08644 0.0
H1013 H 0.10246 0.48193 0.08274 0.0
H1014 H 0.14841 0.48119 0.12695 0.0
H1015 H 0.14429 0.34197 0.13073 0.0
C1016 C 0.14692 0.69614 0.10336 0.0
C1017 C 0.12907 0.73949 0.10523 0.0
C1018 C 0.14598 0.61519 0.1027 0.0
C1019 C 0.12718 0.57708 0.10348 0.0
C1020 C 0.10939 0.62087 0.10456 0.0
C1021 C 0.11033 0.70108 0.10553 0.0
C1022 C 0.10922 0.37187 0.09538 0.0
C1023 C 0.12074 0.3312 0.10903 0.0
C1024 C 0.11169 0.45162 0.0932 0.0
C1025 C 0.12586 0.49192 0.10448 0.0
C1026 C 0.1376 0.45121 0.1179 0.0
C1027 C 0.135 0.3717 0.12022 0.0
H1028 H 0.88816 0.21344 0.10653 0.0
H1029 H 0.82286 0.22135 0.10352 0.0
H1030 H 0.88958 0.35355 0.10567 0.0
H1031 H 0.82435 0.36363 0.10271 0.0
H1032 H 0.84023 0.60446 0.13156 0.0
H1033 H 0.83609 0.46505 0.12787 0.0
H1034 H 0.88154 0.464 0.08318 0.0
H1035 H 0.88581 0.60351 0.08681 0.0
C1036 C 0.87407 0.24532 0.10558 0.0
C1037 C 0.85536 0.20673 0.10529 0.0
C1038 C 0.87494 0.32553 0.10491 0.0
C1039 C 0.8571 0.36912 0.10412 0.0
C1040 C 0.83831 0.33089 0.1034 0.0
C1041 C 0.83745 0.24991 0.10377 0.0
C1042 C 0.84941 0.57456 0.12098 0.0
C1043 C 0.86353 0.61489 0.10962 0.0
C1044 C 0.8468 0.49499 0.11871 0.0
C1045 C 0.8584 0.45421 0.10517 0.0
C1046 C 0.87244 0.49437 0.09374 0.0
C1047 C 0.87493 0.57404 0.09589 0.0
H1048 H 0.09497 0.22324 0.36709 0.0
H1049 H 0.16027 0.23461 0.36914 0.0
H1050 H 0.09306 0.36342 0.36854 0.0
H1051 H 0.15828 0.37658 0.37049 0.0
H1052 H 0.14179 0.61521 0.34175 0.0
H1053 H 0.14584 0.47603 0.34539 0.0
H1054 H 0.10128 0.47593 0.39089 0.0
H1055 H 0.09717 0.61592 0.38736 0.0
C1056 C 0.10895 0.25585 0.36797 0.0
C1057 C 0.12781 0.21822 0.36777 0.0
C1058 C 0.10781 0.33607 0.36898 0.0
C1059 C 0.1255 0.38055 0.3696 0.0
C1060 C 0.14442 0.34319 0.36993 0.0
C1061 C 0.14557 0.26232 0.36922 0.0
C1062 C 0.13276 0.58567 0.3525 0.0
C1063 C 0.11897 0.62648 0.36414 0.0
C1064 C 0.13532 0.50615 0.35474 0.0
C1065 C 0.124 0.46564 0.3685 0.0
C1066 C 0.11019 0.50613 0.38016 0.0
C1067 C 0.10779 0.586 0.37809 0.0
H1068 H 0.84176 0.34538 0.34077 0.0
H1069 H 0.88599 0.34443 0.38672 0.0
H1070 H 0.83774 0.48467 0.34446 0.0
H1071 H 0.88187 0.48425 0.39032 0.0
H1072 H 0.88901 0.73626 0.36697 0.0
H1073 H 0.89055 0.59606 0.36829 0.0
H1074 H 0.82527 0.58522 0.36923 0.0
H1075 H 0.82367 0.72731 0.36797 0.0
C1076 C 0.85068 0.37485 0.35162 0.0
C1077 C 0.86438 0.33395 0.36333 0.0
C1078 C 0.84814 0.45443 0.35389 0.0
C1079 C 0.85938 0.49486 0.36775 0.0
C1080 C 0.87304 0.45419 0.37951 0.0
C1081 C 0.87543 0.37435 0.37739 0.0
C1082 C 0.87494 0.70417 0.3676 0.0
C1083 C 0.85619 0.7425 0.36716 0.0
C1084 C 0.87586 0.62391 0.36854 0.0
C1085 C 0.85805 0.58004 0.36884 0.0
C1086 C 0.83922 0.6181 0.36891 0.0
C1087 C 0.83829 0.69904 0.36827 0.0
H1088 H 0.88605 0.23166 0.86425 0.0
H1089 H 0.82306 0.23548 0.84736 0.0
H1090 H 0.88789 0.37106 0.8605 0.0
H1091 H 0.825 0.3766 0.84374 0.0
H1092 H 0.88845 0.61589 0.83627 0.0
H1093 H 0.88505 0.47477 0.83403 0.0
H1094 H 0.83091 0.48484 0.86877 0.0
H1095 H 0.83426 0.62453 0.87114 0.0
C1096 C 0.87255 0.26229 0.85975 0.0
C1097 C 0.8543 0.2227 0.85632 0.0
C1098 C 0.87373 0.34204 0.85737 0.0
C1099 C 0.85665 0.38419 0.85173 0.0
C1100 C 0.83838 0.34498 0.84811 0.0
C1101 C 0.83726 0.26457 0.85021 0.0
C1102 C 0.87579 0.58783 0.8433 0.0
C1103 C 0.86182 0.63096 0.8541 0.0
C1104 C 0.87383 0.50741 0.84201 0.0
C1105 C 0.85768 0.4694 0.8512 0.0
C1106 C 0.84335 0.51289 0.86139 0.0
C1107 C 0.84546 0.59275 0.86293 0.0
H1108 H 0.09341 0.36415 0.83655 0.0
H1109 H 0.13967 0.35998 0.88063 0.0
H1110 H 0.09719 0.50494 0.83412 0.0
H1111 H 0.14345 0.49947 0.878 0.0
H1112 H 0.15737 0.7422 0.8542 0.0
H1113 H 0.15497 0.60049 0.85229 0.0
H1114 H 0.09008 0.61511 0.85858 0.0
H1115 H 0.09238 0.75515 0.86067 0.0
C1116 C 0.10432 0.39315 0.84569 0.0
C1117 C 0.11605 0.35117 0.85891 0.0
C1118 C 0.10653 0.47338 0.84425 0.0
C1119 C 0.12075 0.51243 0.85576 0.0
C1120 C 0.13261 0.47041 0.86879 0.0
C1121 C 0.1302 0.3907 0.87045 0.0
C1122 C 0.14264 0.71491 0.85505 0.0
C1123 C 0.12512 0.75941 0.85783 0.0
C1124 C 0.14127 0.63423 0.85398 0.0
C1125 C 0.12232 0.59745 0.85525 0.0
C1126 C 0.10482 0.64221 0.85738 0.0
C1127 C 0.10621 0.72228 0.85879 0.0
H1128 H 0.88851 0.74429 0.61329 0.0
H1129 H 0.82339 0.73291 0.61852 0.0
H1130 H 0.89058 0.60433 0.61558 0.0
H1131 H 0.82555 0.59115 0.62065 0.0
H1132 H 0.84115 0.35024 0.59238 0.0
H1133 H 0.83716 0.48954 0.59538 0.0
H1134 H 0.88319 0.49427 0.63949 0.0
H1135 H 0.88722 0.35374 0.63665 0.0
C1136 C 0.87461 0.71176 0.61497 0.0
C1137 C 0.85573 0.74931 0.61547 0.0
C1138 C 0.87585 0.63171 0.6165 0.0
C1139 C 0.85825 0.5873 0.61831 0.0
C1140 C 0.83933 0.62455 0.61921 0.0
C1141 C 0.83809 0.70528 0.61801 0.0
C1142 C 0.85051 0.38075 0.60271 0.0
C1143 C 0.8647 0.34108 0.61415 0.0
C1144 C 0.84798 0.46037 0.60458 0.0
C1145 C 0.85974 0.50219 0.61775 0.0
C1146 C 0.87393 0.46292 0.62924 0.0
C1147 C 0.87628 0.38281 0.62757 0.0
H1148 H 0.1588 0.23304 0.61922 0.0
H1149 H 0.09388 0.22016 0.61218 0.0
H1150 H 0.15638 0.37474 0.62117 0.0
H1151 H 0.09156 0.36017 0.61432 0.0
H1152 H 0.09461 0.61083 0.63655 0.0
H1153 H 0.09843 0.47003 0.63895 0.0
H1154 H 0.14508 0.47608 0.59543 0.0
H1155 H 0.14126 0.61556 0.59283 0.0
C1156 C 0.14408 0.26034 0.61825 0.0
C1157 C 0.12659 0.21586 0.6153 0.0
C1158 C 0.14269 0.34102 0.61935 0.0
C1159 C 0.12376 0.37781 0.61794 0.0
C1160 C 0.10628 0.33306 0.61563 0.0
C1161 C 0.10768 0.253 0.6142 0.0
C1162 C 0.10562 0.58195 0.62748 0.0
C1163 C 0.11744 0.62408 0.61436 0.0
C1164 C 0.10785 0.50173 0.6289 0.0
C1165 C 0.12218 0.46283 0.61748 0.0
C1166 C 0.13414 0.50501 0.60457 0.0
C1167 C 0.13171 0.58472 0.60293 0.0
H1168 H 0.64194 0.85039 0.13124 0.0
H1169 H 0.59664 0.84918 0.08626 0.0
H1170 H 0.64597 -0.01046 0.12741 0.0
H1171 H 0.60076 -0.01104 0.08251 0.0
H1172 H 0.5944 0.24147 0.10599 0.0
H1173 H 0.59271 0.10128 0.10462 0.0
H1174 H 0.65795 0.0896 0.10241 0.0
H1175 H 0.6597 0.23168 0.10371 0.0
C1176 C 0.63279 0.87978 0.12057 0.0
C1177 C 0.61879 0.83882 0.10918 0.0
C1178 C 0.63533 0.95929 0.11822 0.0
C1179 C 0.62379 -0.00035 0.10458 0.0
C1180 C 0.60983 0.95896 0.09315 0.0
C1181 C 0.60743 0.87915 0.09534 0.0
C1182 C 0.60843 0.20918 0.10506 0.0
C1183 C 0.62722 0.24728 0.10518 0.0
C1184 C 0.60741 0.12894 0.1041 0.0
C1185 C 0.62518 0.08482 0.10344 0.0
C1186 C 0.64404 0.12266 0.10301 0.0
C1187 C 0.64505 0.20359 0.10367 0.0
H1188 H 0.32325 0.72241 0.1068 0.0
H1189 H 0.38858 0.71193 0.10713 0.0
H1190 H 0.32506 0.86452 0.10586 0.0
H1191 H 0.39033 0.85216 0.10613 0.0
H1192 H 0.3859 0.10482 0.08839 0.0
H1193 H 0.38171 0.96514 0.0846 0.0
H1194 H 0.33784 0.96389 0.13069 0.0
H1195 H 0.34193 0.10309 0.13456 0.0
C1196 C 0.33791 0.75037 0.10639 0.0
C1197 C 0.35575 0.70647 0.10724 0.0
C1198 C 0.33896 0.83132 0.10595 0.0
C1199 C 0.35785 0.86898 0.10596 0.0
C1200 C 0.37559 0.82467 0.10595 0.0
C1201 C 0.37456 0.74439 0.10669 0.0
C1202 C 0.3754 0.07475 0.09774 0.0
C1203 C 0.36442 0.11494 0.1119 0.0
C1204 C 0.37296 -0.00503 0.09552 0.0
C1205 C 0.35933 0.95411 0.10726 0.0
C1206 C 0.34821 -0.00572 0.12127 0.0
C1207 C 0.35079 0.07381 0.12363 0.0
H1208 H 0.64512 0.11603 0.34154 0.0
H1209 H 0.60112 0.11569 0.38769 0.0
H1210 H 0.64954 0.97692 0.34523 0.0
H1211 H 0.60565 0.97614 0.39131 0.0
H1212 H 0.59853 0.72468 0.36788 0.0
H1213 H 0.59697 0.86476 0.36926 0.0
H1214 H 0.66226 0.87591 0.3698 0.0
H1215 H 0.66388 0.73369 0.36848 0.0
C1216 C 0.63635 0.08633 0.35244 0.0
C1217 C 0.62257 0.1268 0.36418 0.0
C1218 C 0.63912 0.00686 0.35471 0.0
C1219 C 0.62804 0.96613 0.36863 0.0
C1220 C 0.61436 0.00642 0.38045 0.0
C1221 C 0.61172 0.08612 0.37832 0.0
C1222 C 0.61261 0.7568 0.36843 0.0
C1223 C 0.63136 0.7185 0.36786 0.0
C1224 C 0.61167 0.837 0.36941 0.0
C1225 C 0.62947 0.88095 0.36963 0.0
C1226 C 0.64832 0.84296 0.36955 0.0
C1227 C 0.64926 0.76198 0.36888 0.0
H1228 H 0.38683 0.86067 0.39065 0.0
H1229 H 0.34912 0.86368 0.33971 0.0
H1230 H 0.38171 -0.00013 0.39445 0.0
H1231 H 0.34411 0.00241 0.3436 0.0
H1232 H 0.3252 0.2408 0.36648 0.0
H1233 H 0.32764 0.09866 0.36706 0.0
H1234 H 0.39231 0.11579 0.37504 0.0
H1235 H 0.38991 0.25601 0.37435 0.0
C1236 C 0.37756 0.89095 0.38022 0.0
C1237 C 0.36855 0.85112 0.36478 0.0
C1238 C 0.37457 0.97048 0.38245 0.0
C1239 C 0.36234 0.01156 0.36942 0.0
C1240 C 0.35331 0.97187 0.35403 0.0
C1241 C 0.35645 0.89258 0.35168 0.0
C1242 C 0.33981 0.21379 0.36867 0.0
C1243 C 0.35737 0.25896 0.3702 0.0
C1244 C 0.34125 0.13285 0.36887 0.0
C1245 C 0.36019 0.09651 0.37102 0.0
C1246 C 0.37752 0.14214 0.3735 0.0
C1247 C 0.37614 0.22239 0.37298 0.0
H1248 H 0.37471 0.72175 0.89104 0.0
H1249 H 0.33734 0.73037 0.83995 0.0
H1250 H 0.37908 0.8608 0.8898 0.0
H1251 H 0.34146 0.87145 0.83897 0.0
H1252 H 0.37435 0.1085 0.83255 0.0
H1253 H 0.36972 0.96776 0.83301 0.0
H1254 H 0.35882 0.97688 0.89434 0.0
H1255 H 0.36381 0.11578 0.89402 0.0
C1256 C 0.36719 0.75354 0.87965 0.0
C1257 C 0.35568 0.71507 0.86557 0.0
C1258 C 0.36968 0.83335 0.87898 0.0
C1259 C 0.3607 0.87686 0.86424 0.0
C1260 C 0.34876 0.83897 0.85035 0.0
C1261 C 0.34618 0.75858 0.85107 0.0
C1262 C 0.37131 0.08009 0.84615 0.0
C1263 C 0.36951 0.12318 0.86325 0.0
C1264 C 0.36837 -0.00014 0.84636 0.0
C1265 C 0.36377 0.96162 0.86369 0.0
C1266 C 0.36248 0.00465 0.88079 0.0
C1267 C 0.36533 0.08435 0.88058 0.0
H1268 H 0.65957 0.23657 0.8538 0.0
H1269 H 0.59479 0.24566 0.86242 0.0
H1270 H 0.65762 0.09492 0.85154 0.0
H1271 H 0.59295 0.10569 0.86001 0.0
H1272 H 0.59592 0.85712 0.83715 0.0
H1273 H 0.59947 -0.00203 0.8349 0.0
H1274 H 0.64746 -0.00835 0.87708 0.0
H1275 H 0.64393 0.85199 0.8795 0.0
C1276 C 0.64498 0.20846 0.85509 0.0
C1277 C 0.6274 0.25186 0.85853 0.0
C1278 C 0.64386 0.12782 0.8538 0.0
C1279 C 0.62511 0.09002 0.85554 0.0
C1280 C 0.60753 0.13366 0.85842 0.0
C1281 C 0.60867 0.21369 0.86002 0.0
C1282 C 0.6072 0.88592 0.84592 0.0
C1283 C 0.61947 0.84371 0.85865 0.0
C1284 C 0.60926 0.96617 0.8446 0.0
C1285 C 0.62384 0.005 0.85573 0.0
C1286 C 0.63631 0.96273 0.86817 0.0
C1287 C 0.63407 0.88294 0.86971 0.0
H1288 H 0.3916 0.86745 0.63859 0.0
H1289 H 0.34485 0.86195 0.59499 0.0
H1290 H 0.38784 0.00838 0.64085 0.0
H1291 H 0.34107 0.00147 0.59746 0.0
H1292 H 0.32741 0.2449 0.62109 0.0
H1293 H 0.32986 0.10328 0.6232 0.0
H1294 H 0.39464 0.11778 0.61597 0.0
H1295 H 0.39228 0.25775 0.61366 0.0
C1296 C 0.38058 0.89618 0.62952 0.0
C1297 C 0.36872 0.85382 0.61646 0.0
C1298 C 0.37839 0.97648 0.63086 0.0
C1299 C 0.36404 0.01516 0.61943 0.0
C1300 C 0.35203 0.97272 0.6066 0.0
C1301 C 0.35443 0.89299 0.60503 0.0
C1302 C 0.34212 0.21762 0.62005 0.0
C1303 C 0.35959 0.26207 0.61696 0.0
C1304 C 0.34353 0.13698 0.62125 0.0
C1305 C 0.36246 0.10019 0.6198 0.0
C1306 C 0.37992 0.14491 0.61733 0.0
C1307 C 0.37849 0.22493 0.61579 0.0
H1308 H 0.66161 0.74697 0.6211 0.0
H1309 H 0.59754 0.73941 0.60848 0.0
H1310 H 0.65968 0.8885 0.62354 0.0
H1311 H 0.59572 0.87934 0.61109 0.0
H1312 H 0.59744 0.12636 0.63521 0.0
H1313 H 0.60075 -0.0147 0.63714 0.0
H1314 H 0.65129 -0.0066 0.59777 0.0
H1315 H 0.64802 0.13323 0.59566 0.0
C1316 C 0.64718 0.77538 0.61894 0.0
C1317 C 0.62981 0.7324 0.61438 0.0
C1318 C 0.64608 0.85597 0.62035 0.0
C1319 C 0.62752 0.89415 0.6176 0.0
C1320 C 0.61013 0.851 0.61349 0.0
C1321 C 0.61127 0.77101 0.61178 0.0
C1322 C 0.60924 0.09789 0.627 0.0
C1323 C 0.62229 0.1406 0.61512 0.0
C1324 C 0.61115 0.01754 0.62814 0.0
C1325 C 0.62635 0.97916 0.61768 0.0
C1326 C 0.63963 0.02196 0.60614 0.0
C1327 C 0.63755 0.10184 0.60477 0.0
loop_
_geom_bond_atom_site_label_1
_geom_bond_atom_site_label_2
_geom_bond_distance
_geom_bond_site_symmetry_2
_ccdc_geom_bond_type
O0 Zn1 1.953 . S
O0 C16 1.225 . S
Zn1 O0 1.953 . S
Zn1 O2 1.949 . S
Zn1 O8 1.919 . S
Zn1 O13 1.924 . S
O2 Zn1 1.949 . S
O2 Zn3 1.923 1_545 S
O2 Zn4 1.950 . S
O2 Zn5 1.945 1_545 S
Zn3 O2 1.923 1_565 S
Zn3 O6 1.933 . S
Zn3 O9 1.941 1_565 S
Zn3 O10 1.965 1_565 S
Zn4 O2 1.950 . S
Zn4 O11 1.938 . S
Zn4 O12 1.906 . S
Zn4 O22 1.953 . S
Zn5 O2 1.945 1_565 S
Zn5 O7 1.932 . S
Zn5 O14 1.977 . S
Zn5 O15 1.910 . S
O6 Zn3 1.933 . S
O6 C17 1.226 . S
O7 Zn5 1.932 . S
O7 C17 1.307 . S
O8 Zn1 1.919 . S
O8 C19 1.253 . S
O9 Zn3 1.941 1_545 S
O9 C19 1.283 . S
O10 Zn3 1.965 1_545 S
O10 C18 1.303 . S
O11 Zn4 1.938 . S
O11 C18 1.247 . S
O12 Zn4 1.906 . S
O12 C20 1.304 . S
O13 Zn1 1.924 . S
O13 C21 1.311 . S
O14 Zn5 1.977 . S
O14 C20 1.272 1_565 S
O15 Zn5 1.910 . S
O15 C21 1.231 1_565 S
C16 O0 1.225 . S
C16 O22 1.298 . S
C17 O6 1.226 . S
C17 O7 1.307 . S
C18 O10 1.303 . S
C18 O11 1.247 . S
C19 O8 1.253 . S
C19 O9 1.283 . S
C20 O12 1.304 . S
C20 O14 1.272 1_545 S
C21 O13 1.311 . S
C21 O15 1.231 1_545 S
O22 Zn4 1.953 . S
O22 C16 1.298 . S
O23 Zn24 1.953 . S
O23 C39 1.225 . S
Zn24 O23 1.953 . S
Zn24 O25 1.949 . S
Zn24 O31 1.919 . S
Zn24 O36 1.924 . S
O25 Zn24 1.949 . S
O25 Zn26 1.923 1_565 S
O25 Zn27 1.950 . S
O25 Zn28 1.945 1_565 S
Zn26 O25 1.923 1_545 S
Zn26 O29 1.933 . S
Zn26 O32 1.941 1_545 S
Zn26 O33 1.965 1_545 S
Zn27 O25 1.950 . S
Zn27 O34 1.938 . S
Zn27 O35 1.906 . S
Zn27 O45 1.953 . S
Zn28 O25 1.945 1_545 S
Zn28 O30 1.932 . S
Zn28 O37 1.977 . S
Zn28 O38 1.910 . S
O29 Zn26 1.933 . S
O29 C40 1.226 . S
O30 Zn28 1.932 . S
O30 C40 1.307 . S
O31 Zn24 1.919 . S
O31 C42 1.253 . S
O32 Zn26 1.941 1_565 S
O32 C42 1.283 . S
O33 Zn26 1.965 1_565 S
O33 C41 1.303 . S
O34 Zn27 1.938 . S
O34 C41 1.247 . S
O35 Zn27 1.906 . S
O35 C43 1.304 . S
O36 Zn24 1.924 . S
O36 C44 1.311 . S
O37 Zn28 1.977 . S
O37 C43 1.272 1_545 S
O38 Zn28 1.910 . S
O38 C44 1.231 1_545 S
C39 O23 1.225 . S
C39 O45 1.298 . S
C40 O29 1.226 . S
C40 O30 1.307 . S
C41 O33 1.303 . S
C41 O34 1.247 . S
C42 O31 1.253 . S
C42 O32 1.283 . S
C43 O35 1.304 . S
C43 O37 1.272 1_565 S
C44 O36 1.311 . S
C44 O38 1.231 1_565 S
O45 Zn27 1.953 . S
O45 C39 1.298 . S
O46 Zn47 1.953 . S
O46 C62 1.225 . S
Zn47 O46 1.953 . S
Zn47 O48 1.949 . S
Zn47 O54 1.919 . S
Zn47 O59 1.924 . S
O48 Zn47 1.949 . S
O48 Zn49 1.923 1_565 S
O48 Zn50 1.950 . S
O48 Zn51 1.945 1_565 S
Zn49 O48 1.923 1_545 S
Zn49 O52 1.933 . S
Zn49 O55 1.941 1_545 S
Zn49 O56 1.965 1_545 S
Zn50 O48 1.950 . S
Zn50 O57 1.938 . S
Zn50 O58 1.906 . S
Zn50 O68 1.953 . S
Zn51 O48 1.945 1_545 S
Zn51 O53 1.932 . S
Zn51 O60 1.977 . S
Zn51 O61 1.910 . S
O52 Zn49 1.933 . S
O52 C63 1.226 . S
O53 Zn51 1.932 . S
O53 C63 1.307 . S
O54 Zn47 1.919 . S
O54 C65 1.253 . S
O55 Zn49 1.941 1_565 S
O55 C65 1.283 . S
O56 Zn49 1.965 1_565 S
O56 C64 1.303 . S
O57 Zn50 1.938 . S
O57 C64 1.247 . S
O58 Zn50 1.906 . S
O58 C66 1.304 . S
O59 Zn47 1.924 . S
O59 C67 1.311 . S
O60 Zn51 1.977 . S
O60 C66 1.272 1_545 S
O61 Zn51 1.910 . S
O61 C67 1.231 1_545 S
C62 O46 1.225 . S
C62 O68 1.298 . S
C63 O52 1.226 . S
C63 O53 1.307 . S
C64 O56 1.303 . S
C64 O57 1.247 . S
C65 O54 1.253 . S
C65 O55 1.283 . S
C66 O58 1.304 . S
C66 O60 1.272 1_565 S
C67 O59 1.311 . S
C67 O61 1.231 1_565 S
O68 Zn50 1.953 . S
O68 C62 1.298 . S
O69 Zn70 1.953 . S
O69 C85 1.225 . S
Zn70 O69 1.953 . S
Zn70 O71 1.949 . S
Zn70 O77 1.919 . S
Zn70 O82 1.924 . S
O71 Zn70 1.949 . S
O71 Zn72 1.923 1_545 S
O71 Zn73 1.950 . S
O71 Zn74 1.945 1_545 S
Zn72 O71 1.923 1_565 S
Zn72 O75 1.933 . S
Zn72 O78 1.941 1_565 S
Zn72 O79 1.965 1_565 S
Zn73 O71 1.950 . S
Zn73 O80 1.938 . S
Zn73 O81 1.906 . S
Zn73 O91 1.953 . S
Zn74 O71 1.945 1_565 S
Zn74 O76 1.932 . S
Zn74 O83 1.977 . S
Zn74 O84 1.910 . S
O75 Zn72 1.933 . S
O75 C86 1.226 . S
O76 Zn74 1.932 . S
O76 C86 1.307 . S
O77 Zn70 1.919 . S
O77 C88 1.253 . S
O78 Zn72 1.941 1_545 S
O78 C88 1.283 . S
O79 Zn72 1.965 1_545 S
O79 C87 1.303 . S
O80 Zn73 1.938 . S
O80 C87 1.247 . S
O81 Zn73 1.906 . S
O81 C89 1.304 . S
O82 Zn70 1.924 . S
O82 C90 1.311 . S
O83 Zn74 1.977 . S
O83 C89 1.272 1_565 S
O84 Zn74 1.910 . S
O84 C90 1.231 1_565 S
C85 O69 1.225 . S
C85 O91 1.298 . S
C86 O75 1.226 . S
C86 O76 1.307 . S
C87 O79 1.303 . S
C87 O80 1.247 . S
C88 O77 1.253 . S
C88 O78 1.283 . S
C89 O81 1.304 . S
C89 O83 1.272 1_545 S
C90 O82 1.311 . S
C90 O84 1.231 1_545 S
O91 Zn73 1.953 . S
O91 C85 1.298 . S
O92 Zn93 1.953 . S
O92 C108 1.225 . S
Zn93 O92 1.953 . S
Zn93 O94 1.949 . S
Zn93 O100 1.919 . S
Zn93 O105 1.924 . S
O94 Zn93 1.949 . S
O94 Zn95 1.923 1_565 S
O94 Zn96 1.950 . S
O94 Zn97 1.945 1_565 S
Zn95 O94 1.923 1_545 S
Zn95 O98 1.933 . S
Zn95 O101 1.941 1_545 S
Zn95 O102 1.965 1_545 S
Zn96 O94 1.950 . S
Zn96 O103 1.938 . S
Zn96 O104 1.906 . S
Zn96 O114 1.953 . S
Zn97 O94 1.945 1_545 S
Zn97 O99 1.932 . S
Zn97 O106 1.977 . S
Zn97 O107 1.910 . S
O98 Zn95 1.933 . S
O98 C109 1.226 . S
O99 Zn97 1.932 . S
O99 C109 1.307 . S
O100 Zn93 1.919 . S
O100 C111 1.253 . S
O101 Zn95 1.941 1_565 S
O101 C111 1.283 . S
O102 Zn95 1.965 1_565 S
O102 C110 1.303 . S
O103 Zn96 1.938 . S
O103 C110 1.247 . S
O104 Zn96 1.906 . S
O104 C112 1.304 . S
O105 Zn93 1.924 . S
O105 C113 1.311 . S
O106 Zn97 1.977 . S
O106 C112 1.272 1_545 S
O107 Zn97 1.910 . S
O107 C113 1.231 1_545 S
C108 O92 1.225 . S
C108 O114 1.298 . S
C109 O98 1.226 . S
C109 O99 1.307 . S
C110 O102 1.303 . S
C110 O103 1.247 . S
C111 O100 1.253 . S
C111 O101 1.283 . S
C112 O104 1.304 . S
C112 O106 1.272 1_565 S
C113 O105 1.311 . S
C113 O107 1.231 1_565 S
O114 Zn96 1.953 . S
O114 C108 1.298 . S
O115 Zn116 1.953 . S
O115 C131 1.225 . S
Zn116 O115 1.953 . S
Zn116 O117 1.949 . S
Zn116 O123 1.919 . S
Zn116 O128 1.924 . S
O117 Zn116 1.949 . S
O117 Zn118 1.923 1_545 S
O117 Zn119 1.950 . S
O117 Zn120 1.945 1_545 S
Zn118 O117 1.923 1_565 S
Zn118 O121 1.933 . S
Zn118 O124 1.941 1_565 S
Zn118 O125 1.965 1_565 S
Zn119 O117 1.950 . S
Zn119 O126 1.938 . S
Zn119 O127 1.906 . S
Zn119 O137 1.953 . S
Zn120 O117 1.945 1_565 S
Zn120 O122 1.932 . S
Zn120 O129 1.977 . S
Zn120 O130 1.910 . S
O121 Zn118 1.933 . S
O121 C132 1.226 . S
O122 Zn120 1.932 . S
O122 C132 1.307 . S
O123 Zn116 1.919 . S
O123 C134 1.253 . S
O124 Zn118 1.941 1_545 S
O124 C134 1.283 . S
O125 Zn118 1.965 1_545 S
O125 C133 1.303 . S
O126 Zn119 1.938 . S
O126 C133 1.247 . S
O127 Zn119 1.906 . S
O127 C135 1.304 . S
O128 Zn116 1.924 . S
O128 C136 1.311 . S
O129 Zn120 1.977 . S
O129 C135 1.272 1_565 S
O130 Zn120 1.910 . S
O130 C136 1.231 1_565 S
C131 O115 1.225 . S
C131 O137 1.298 . S
C132 O121 1.226 . S
C132 O122 1.307 . S
C133 O125 1.303 . S
C133 O126 1.247 . S
C134 O123 1.253 . S
C134 O124 1.283 . S
C135 O127 1.304 . S
C135 O129 1.272 1_545 S
C136 O128 1.311 . S
C136 O130 1.231 1_545 S
O137 Zn119 1.953 . S
O137 C131 1.298 . S
O138 Zn139 1.953 . S
O138 C154 1.225 . S
Zn139 O138 1.953 . S
Zn139 O140 1.949 . S
Zn139 O146 1.919 . S
Zn139 O151 1.924 . S
O140 Zn139 1.949 . S
O140 Zn141 1.923 1_545 S
O140 Zn142 1.950 . S
O140 Zn143 1.945 1_545 S
Zn141 O140 1.923 1_565 S
Zn141 O144 1.933 . S
Zn141 O147 1.941 1_565 S
Zn141 O148 1.965 1_565 S
Zn142 O140 1.950 . S
Zn142 O149 1.938 . S
Zn142 O150 1.906 . S
Zn142 O160 1.953 . S
Zn143 O140 1.945 1_565 S
Zn143 O145 1.932 . S
Zn143 O152 1.977 . S
Zn143 O153 1.910 . S
O144 Zn141 1.933 . S
O144 C155 1.226 . S
O145 Zn143 1.932 . S
O145 C155 1.307 . S
O146 Zn139 1.919 . S
O146 C157 1.253 . S
O147 Zn141 1.941 1_545 S
O147 C157 1.283 . S
O148 Zn141 1.965 1_545 S
O148 C156 1.303 . S
O149 Zn142 1.938 . S
O149 C156 1.247 . S
O150 Zn142 1.906 . S
O150 C158 1.304 . S
O151 Zn139 1.924 . S
O151 C159 1.311 . S
O152 Zn143 1.977 . S
O152 C158 1.272 1_565 S
O153 Zn143 1.910 . S
O153 C159 1.231 1_565 S
C154 O138 1.225 . S
C154 O160 1.298 . S
C155 O144 1.226 . S
C155 O145 1.307 . S
C156 O148 1.303 . S
C156 O149 1.247 . S
C157 O146 1.253 . S
C157 O147 1.283 . S
C158 O150 1.304 . S
C158 O152 1.272 1_545 S
C159 O151 1.311 . S
C159 O153 1.231 1_545 S
O160 Zn142 1.953 . S
O160 C154 1.298 . S
O161 Zn162 1.953 . S
O161 C177 1.225 . S
Zn162 O161 1.953 . S
Zn162 O163 1.949 . S
Zn162 O169 1.919 . S
Zn162 O174 1.924 . S
O163 Zn162 1.949 . S
O163 Zn164 1.923 1_565 S
O163 Zn165 1.950 . S
O163 Zn166 1.945 1_565 S
Zn164 O163 1.923 1_545 S
Zn164 O167 1.933 . S
Zn164 O170 1.941 1_545 S
Zn164 O171 1.965 1_545 S
Zn165 O163 1.950 . S
Zn165 O172 1.938 . S
Zn165 O173 1.906 . S
Zn165 O183 1.953 . S
Zn166 O163 1.945 1_545 S
Zn166 O168 1.932 . S
Zn166 O175 1.977 . S
Zn166 O176 1.910 . S
O167 Zn164 1.933 . S
O167 C178 1.226 . S
O168 Zn166 1.932 . S
O168 C178 1.307 . S
O169 Zn162 1.919 . S
O169 C180 1.253 . S
O170 Zn164 1.941 1_565 S
O170 C180 1.283 . S
O171 Zn164 1.965 1_565 S
O171 C179 1.303 . S
O172 Zn165 1.938 . S
O172 C179 1.247 . S
O173 Zn165 1.906 . S
O173 C181 1.304 . S
O174 Zn162 1.924 . S
O174 C182 1.311 . S
O175 Zn166 1.977 . S
O175 C181 1.272 1_545 S
O176 Zn166 1.910 . S
O176 C182 1.231 1_545 S
C177 O161 1.225 . S
C177 O183 1.298 . S
C178 O167 1.226 . S
C178 O168 1.307 . S
C179 O171 1.303 . S
C179 O172 1.247 . S
C180 O169 1.253 . S
C180 O170 1.283 . S
C181 O173 1.304 . S
C181 O175 1.272 1_565 S
C182 O174 1.311 . S
C182 O176 1.231 1_565 S
O183 Zn165 1.953 . S
O183 C177 1.298 . S
O184 Zn185 1.953 . S
O184 C200 1.225 . S
Zn185 O184 1.953 . S
Zn185 O186 1.949 . S
Zn185 O192 1.919 . S
Zn185 O197 1.924 . S
O186 Zn185 1.949 . S
O186 Zn187 1.923 . S
O186 Zn188 1.950 . S
O186 Zn189 1.945 . S
Zn187 O186 1.923 . S
Zn187 O190 1.933 . S
Zn187 O193 1.941 . S
Zn187 O194 1.965 . S
Zn188 O186 1.950 . S
Zn188 O195 1.938 . S
Zn188 O196 1.906 . S
Zn188 O206 1.953 . S
Zn189 O186 1.945 . S
Zn189 O191 1.932 . S
Zn189 O198 1.977 . S
Zn189 O199 1.910 . S
O190 Zn187 1.933 . S
O190 C201 1.226 . S
O191 Zn189 1.932 . S
O191 C201 1.307 . S
O192 Zn185 1.919 . S
O192 C203 1.253 . S
O193 Zn187 1.941 . S
O193 C203 1.283 . S
O194 Zn187 1.965 . S
O194 C202 1.303 . S
O195 Zn188 1.938 . S
O195 C202 1.247 . S
O196 Zn188 1.906 . S
O196 C204 1.304 . S
O197 Zn185 1.924 . S
O197 C205 1.311 . S
O198 Zn189 1.977 . S
O198 C204 1.272 . S
O199 Zn189 1.910 . S
O199 C205 1.231 . S
C200 O184 1.225 . S
C200 O206 1.298 . S
C201 O190 1.226 . S
C201 O191 1.307 . S
C202 O194 1.303 . S
C202 O195 1.247 . S
C203 O192 1.253 . S
C203 O193 1.283 . S
C204 O196 1.304 . S
C204 O198 1.272 . S
C205 O197 1.311 . S
C205 O199 1.231 . S
O206 Zn188 1.953 . S
O206 C200 1.298 . S
O207 Zn208 1.953 . S
O207 C223 1.225 . S
Zn208 O207 1.953 . S
Zn208 O209 1.949 . S
Zn208 O215 1.919 . S
Zn208 O220 1.924 . S
O209 Zn208 1.949 . S
O209 Zn210 1.923 . S
O209 Zn211 1.950 . S
O209 Zn212 1.945 . S
Zn210 O209 1.923 . S
Zn210 O213 1.933 . S
Zn210 O216 1.941 . S
Zn210 O217 1.965 . S
Zn211 O209 1.950 . S
Zn211 O218 1.938 . S
Zn211 O219 1.906 . S
Zn211 O229 1.953 . S
Zn212 O209 1.945 . S
Zn212 O214 1.932 . S
Zn212 O221 1.977 . S
Zn212 O222 1.910 . S
O213 Zn210 1.933 . S
O213 C224 1.226 . S
O214 Zn212 1.932 . S
O214 C224 1.307 . S
O215 Zn208 1.919 . S
O215 C226 1.253 . S
O216 Zn210 1.941 . S
O216 C226 1.283 . S
O217 Zn210 1.965 . S
O217 C225 1.303 . S
O218 Zn211 1.938 . S
O218 C225 1.247 . S
O219 Zn211 1.906 . S
O219 C227 1.304 . S
O220 Zn208 1.924 . S
O220 C228 1.311 . S
O221 Zn212 1.977 . S
O221 C227 1.272 . S
O222 Zn212 1.910 . S
O222 C228 1.231 . S
C223 O207 1.225 . S
C223 O229 1.298 . S
C224 O213 1.226 . S
C224 O214 1.307 . S
C225 O217 1.303 . S
C225 O218 1.247 . S
C226 O215 1.253 . S
C226 O216 1.283 . S
C227 O219 1.304 . S
C227 O221 1.272 . S
C228 O220 1.311 . S
C228 O222 1.231 . S
O229 Zn211 1.953 . S
O229 C223 1.298 . S
O230 Zn231 1.953 . S
O230 C246 1.225 . S
Zn231 O230 1.953 . S
Zn231 O232 1.949 . S
Zn231 O238 1.919 . S
Zn231 O243 1.924 . S
O232 Zn231 1.949 . S
O232 Zn233 1.923 . S
O232 Zn234 1.950 . S
O232 Zn235 1.945 . S
Zn233 O232 1.923 . S
Zn233 O236 1.933 . S
Zn233 O239 1.941 . S
Zn233 O240 1.965 . S
Zn234 O232 1.950 . S
Zn234 O241 1.938 . S
Zn234 O242 1.906 . S
Zn234 O252 1.953 . S
Zn235 O232 1.945 . S
Zn235 O237 1.932 . S
Zn235 O244 1.977 . S
Zn235 O245 1.910 . S
O236 Zn233 1.933 . S
O236 C247 1.226 . S
O237 Zn235 1.932 . S
O237 C247 1.307 . S
O238 Zn231 1.919 . S
O238 C249 1.253 . S
O239 Zn233 1.941 . S
O239 C249 1.283 . S
O240 Zn233 1.965 . S
O240 C248 1.303 . S
O241 Zn234 1.938 . S
O241 C248 1.247 . S
O242 Zn234 1.906 . S
O242 C250 1.304 . S
O243 Zn231 1.924 . S
O243 C251 1.311 . S
O244 Zn235 1.977 . S
O244 C250 1.272 . S
O245 Zn235 1.910 . S
O245 C251 1.231 . S
C246 O230 1.225 . S
C246 O252 1.298 . S
C247 O236 1.226 . S
C247 O237 1.307 . S
C248 O240 1.303 . S
C248 O241 1.247 . S
C249 O238 1.253 . S
C249 O239 1.283 . S
C250 O242 1.304 . S
C250 O244 1.272 . S
C251 O243 1.311 . S
C251 O245 1.231 . S
O252 Zn234 1.953 . S
O252 C246 1.298 . S
O253 Zn254 1.953 . S
O253 C269 1.225 . S
Zn254 O253 1.953 . S
Zn254 O255 1.949 . S
Zn254 O261 1.919 . S
Zn254 O266 1.924 . S
O255 Zn254 1.949 . S
O255 Zn256 1.923 . S
O255 Zn257 1.950 . S
O255 Zn258 1.945 . S
Zn256 O255 1.923 . S
Zn256 O259 1.933 . S
Zn256 O262 1.941 . S
Zn256 O263 1.965 . S
Zn257 O255 1.950 . S
Zn257 O264 1.938 . S
Zn257 O265 1.906 . S
Zn257 O275 1.953 . S
Zn258 O255 1.945 . S
Zn258 O260 1.932 . S
Zn258 O267 1.977 . S
Zn258 O268 1.910 . S
O259 Zn256 1.933 . S
O259 C270 1.226 . S
O260 Zn258 1.932 . S
O260 C270 1.307 . S
O261 Zn254 1.919 . S
O261 C272 1.253 . S
O262 Zn256 1.941 . S
O262 C272 1.283 . S
O263 Zn256 1.965 . S
O263 C271 1.303 . S
O264 Zn257 1.938 . S
O264 C271 1.247 . S
O265 Zn257 1.906 . S
O265 C273 1.304 . S
O266 Zn254 1.924 . S
O266 C274 1.311 . S
O267 Zn258 1.977 . S
O267 C273 1.272 . S
O268 Zn258 1.910 . S
O268 C274 1.231 . S
C269 O253 1.225 . S
C269 O275 1.298 . S
C270 O259 1.226 . S
C270 O260 1.307 . S
C271 O263 1.303 . S
C271 O264 1.247 . S
C272 O261 1.253 . S
C272 O262 1.283 . S
C273 O265 1.304 . S
C273 O267 1.272 . S
C274 O266 1.311 . S
C274 O268 1.231 . S
O275 Zn257 1.953 . S
O275 C269 1.298 . S
O276 Zn277 1.953 . S
O276 C292 1.225 . S
Zn277 O276 1.953 . S
Zn277 O278 1.949 . S
Zn277 O284 1.919 . S
Zn277 O289 1.924 . S
O278 Zn277 1.949 . S
O278 Zn279 1.923 . S
O278 Zn280 1.950 . S
O278 Zn281 1.945 . S
Zn279 O278 1.923 . S
Zn279 O282 1.933 . S
Zn279 O285 1.941 . S
Zn279 O286 1.965 . S
Zn280 O278 1.950 . S
Zn280 O287 1.938 . S
Zn280 O288 1.906 . S
Zn280 O298 1.953 . S
Zn281 O278 1.945 . S
Zn281 O283 1.932 . S
Zn281 O290 1.977 . S
Zn281 O291 1.910 . S
O282 Zn279 1.933 . S
O282 C293 1.226 . S
O283 Zn281 1.932 . S
O283 C293 1.307 . S
O284 Zn277 1.919 . S
O284 C295 1.253 . S
O285 Zn279 1.941 . S
O285 C295 1.283 . S
O286 Zn279 1.965 . S
O286 C294 1.303 . S
O287 Zn280 1.938 . S
O287 C294 1.247 . S
O288 Zn280 1.906 . S
O288 C296 1.304 . S
O289 Zn277 1.924 . S
O289 C297 1.311 . S
O290 Zn281 1.977 . S
O290 C296 1.272 . S
O291 Zn281 1.910 . S
O291 C297 1.231 . S
C292 O276 1.225 . S
C292 O298 1.298 . S
C293 O282 1.226 . S
C293 O283 1.307 . S
C294 O286 1.303 . S
C294 O287 1.247 . S
C295 O284 1.253 . S
C295 O285 1.283 . S
C296 O288 1.304 . S
C296 O290 1.272 . S
C297 O289 1.311 . S
C297 O291 1.231 . S
O298 Zn280 1.953 . S
O298 C292 1.298 . S
O299 Zn300 1.953 . S
O299 C315 1.225 . S
Zn300 O299 1.953 . S
Zn300 O301 1.949 . S
Zn300 O307 1.919 . S
Zn300 O312 1.924 . S
O301 Zn300 1.949 . S
O301 Zn302 1.923 . S
O301 Zn303 1.950 . S
O301 Zn304 1.945 . S
Zn302 O301 1.923 . S
Zn302 O305 1.933 . S
Zn302 O308 1.941 . S
Zn302 O309 1.965 . S
Zn303 O301 1.950 . S
Zn303 O310 1.938 . S
Zn303 O311 1.906 . S
Zn303 O321 1.953 . S
Zn304 O301 1.945 . S
Zn304 O306 1.932 . S
Zn304 O313 1.977 . S
Zn304 O314 1.910 . S
O305 Zn302 1.933 . S
O305 C316 1.226 . S
O306 Zn304 1.932 . S
O306 C316 1.307 . S
O307 Zn300 1.919 . S
O307 C318 1.253 . S
O308 Zn302 1.941 . S
O308 C318 1.283 . S
O309 Zn302 1.965 . S
O309 C317 1.303 . S
O310 Zn303 1.938 . S
O310 C317 1.247 . S
O311 Zn303 1.906 . S
O311 C319 1.304 . S
O312 Zn300 1.924 . S
O312 C320 1.311 . S
O313 Zn304 1.977 . S
O313 C319 1.272 . S
O314 Zn304 1.910 . S
O314 C320 1.231 . S
C315 O299 1.225 . S
C315 O321 1.298 . S
C316 O305 1.226 . S
C316 O306 1.307 . S
C317 O309 1.303 . S
C317 O310 1.247 . S
C318 O307 1.253 . S
C318 O308 1.283 . S
C319 O311 1.304 . S
C319 O313 1.272 . S
C320 O312 1.311 . S
C320 O314 1.231 . S
O321 Zn303 1.953 . S
O321 C315 1.298 . S
O322 Zn323 1.953 . S
O322 C338 1.225 . S
Zn323 O322 1.953 . S
Zn323 O324 1.949 . S
Zn323 O330 1.919 . S
Zn323 O335 1.924 . S
O324 Zn323 1.949 . S
O324 Zn325 1.923 . S
O324 Zn326 1.950 . S
O324 Zn327 1.945 . S
Zn325 O324 1.923 . S
Zn325 O328 1.933 . S
Zn325 O331 1.941 . S
Zn325 O332 1.965 . S
Zn326 O324 1.950 . S
Zn326 O333 1.938 . S
Zn326 O334 1.906 . S
Zn326 O344 1.953 . S
Zn327 O324 1.945 . S
Zn327 O329 1.932 . S
Zn327 O336 1.977 . S
Zn327 O337 1.910 . S
O328 Zn325 1.933 . S
O328 C339 1.226 . S
O329 Zn327 1.932 . S
O329 C339 1.307 . S
O330 Zn323 1.919 . S
O330 C341 1.253 . S
O331 Zn325 1.941 . S
O331 C341 1.283 . S
O332 Zn325 1.965 . S
O332 C340 1.303 . S
O333 Zn326 1.938 . S
O333 C340 1.247 . S
O334 Zn326 1.906 . S
O334 C342 1.304 . S
O335 Zn323 1.924 . S
O335 C343 1.311 . S
O336 Zn327 1.977 . S
O336 C342 1.272 . S
O337 Zn327 1.910 . S
O337 C343 1.231 . S
C338 O322 1.225 . S
C338 O344 1.298 . S
C339 O328 1.226 . S
C339 O329 1.307 . S
C340 O332 1.303 . S
C340 O333 1.247 . S
C341 O330 1.253 . S
C341 O331 1.283 . S
C342 O334 1.304 . S
C342 O336 1.272 . S
C343 O335 1.311 . S
C343 O337 1.231 . S
O344 Zn326 1.953 . S
O344 C338 1.298 . S
O345 Zn346 1.953 . S
O345 C361 1.225 . S
Zn346 O345 1.953 . S
Zn346 O347 1.949 . S
Zn346 O353 1.919 . S
Zn346 O358 1.924 . S
O347 Zn346 1.949 . S
O347 Zn348 1.923 . S
O347 Zn349 1.950 . S
O347 Zn350 1.945 . S
Zn348 O347 1.923 . S
Zn348 O351 1.933 . S
Zn348 O354 1.941 . S
Zn348 O355 1.965 . S
Zn349 O347 1.950 . S
Zn349 O356 1.938 . S
Zn349 O357 1.906 . S
Zn349 O367 1.953 . S
Zn350 O347 1.945 . S
Zn350 O352 1.932 . S
Zn350 O359 1.977 . S
Zn350 O360 1.910 . S
O351 Zn348 1.933 . S
O351 C362 1.226 . S
O352 Zn350 1.932 . S
O352 C362 1.307 . S
O353 Zn346 1.919 . S
O353 C364 1.253 . S
O354 Zn348 1.941 . S
O354 C364 1.283 . S
O355 Zn348 1.965 . S
O355 C363 1.303 . S
O356 Zn349 1.938 . S
O356 C363 1.247 . S
O357 Zn349 1.906 . S
O357 C365 1.304 . S
O358 Zn346 1.924 . S
O358 C366 1.311 . S
O359 Zn350 1.977 . S
O359 C365 1.272 . S
O360 Zn350 1.910 . S
O360 C366 1.231 . S
C361 O345 1.225 . S
C361 O367 1.298 . S
C362 O351 1.226 . S
C362 O352 1.307 . S
C363 O355 1.303 . S
C363 O356 1.247 . S
C364 O353 1.253 . S
C364 O354 1.283 . S
C365 O357 1.304 . S
C365 O359 1.272 . S
C366 O358 1.311 . S
C366 O360 1.231 . S
O367 Zn349 1.953 . S
O367 C361 1.298 . S
H368 C376 0.950 . S
H369 C381 0.950 . S
H370 C378 0.950 . S
H371 C380 0.950 . S
H372 C382 0.950 . S
H373 C384 0.950 . S
H374 C386 0.950 . S
H375 C387 0.950 . S
C376 H368 0.950 . S
C376 C377 1.386 . S
C376 C378 1.391 . S
C377 C376 1.386 . S
C377 C381 1.393 . S
C378 H370 0.950 . S
C378 C376 1.391 . S
C378 C379 1.400 . S
C379 C378 1.400 . S
C379 C380 1.398 . S
C379 C385 1.491 . S
C380 H371 0.950 . S
C380 C379 1.398 . S
C380 C381 1.391 . S
C381 H369 0.950 . S
C381 C377 1.393 . S
C381 C380 1.391 . S
C382 H372 0.950 . S
C382 C383 1.386 . S
C382 C384 1.391 . S
C383 C382 1.386 . S
C383 C387 1.393 . S
C384 H373 0.950 . S
C384 C382 1.391 . S
C384 C385 1.400 . S
C385 C379 1.491 . S
C385 C384 1.400 . S
C385 C386 1.398 . S
C386 H374 0.950 . S
C386 C385 1.398 . S
C386 C387 1.391 . S
C387 H375 0.950 . S
C387 C383 1.393 . S
C387 C386 1.391 . S
H388 C396 0.950 . S
H389 C401 0.950 . S
H390 C398 0.950 . S
H391 C400 0.950 . S
H392 C402 0.950 . S
H393 C404 0.950 . S
H394 C406 0.950 . S
H395 C407 0.950 . S
C396 H388 0.950 . S
C396 C397 1.386 . S
C396 C398 1.391 . S
C397 C396 1.386 . S
C397 C401 1.393 . S
C398 H390 0.950 . S
C398 C396 1.391 . S
C398 C399 1.400 . S
C399 C398 1.400 . S
C399 C400 1.398 . S
C399 C405 1.491 . S
C400 H391 0.950 . S
C400 C399 1.398 . S
C400 C401 1.391 . S
C401 H389 0.950 . S
C401 C397 1.393 . S
C401 C400 1.391 . S
C402 H392 0.950 . S
C402 C403 1.386 . S
C402 C404 1.391 . S
C403 C402 1.386 . S
C403 C407 1.393 . S
C404 H393 0.950 . S
C404 C402 1.391 . S
C404 C405 1.400 . S
C405 C399 1.491 . S
C405 C404 1.400 . S
C405 C406 1.398 . S
C406 H394 0.950 . S
C406 C405 1.398 . S
C406 C407 1.391 . S
C407 H395 0.950 . S
C407 C403 1.393 . S
C407 C406 1.391 . S
H408 C416 0.950 . S
H409 C421 0.950 . S
H410 C418 0.950 . S
H411 C420 0.950 . S
H412 C422 0.950 . S
H413 C424 0.950 . S
H414 C426 0.950 . S
H415 C427 0.950 . S
C416 H408 0.950 . S
C416 C417 1.386 . S
C416 C418 1.391 . S
C417 C416 1.386 . S
C417 C421 1.393 . S
C418 H410 0.950 . S
C418 C416 1.391 . S
C418 C419 1.400 . S
C419 C418 1.400 . S
C419 C420 1.398 . S
C419 C425 1.491 . S
C420 H411 0.950 . S
C420 C419 1.398 . S
C420 C421 1.391 . S
C421 H409 0.950 . S
C421 C417 1.393 . S
C421 C420 1.391 . S
C422 H412 0.950 . S
C422 C423 1.386 . S
C422 C424 1.391 . S
C423 C422 1.386 . S
C423 C427 1.393 . S
C424 H413 0.950 . S
C424 C422 1.391 . S
C424 C425 1.400 . S
C425 C419 1.491 . S
C425 C424 1.400 . S
C425 C426 1.398 . S
C426 H414 0.950 . S
C426 C425 1.398 . S
C426 C427 1.391 . S
C427 H415 0.950 . S
C427 C423 1.393 . S
C427 C426 1.391 . S
H428 C436 0.950 . S
H429 C441 0.950 . S
H430 C438 0.950 . S
H431 C440 0.950 . S
H432 C442 0.950 . S
H433 C444 0.950 . S
H434 C446 0.950 . S
H435 C447 0.950 . S
C436 H428 0.950 . S
C436 C437 1.386 . S
C436 C438 1.391 . S
C437 C436 1.386 . S
C437 C441 1.393 . S
C438 H430 0.950 . S
C438 C436 1.391 . S
C438 C439 1.400 . S
C439 C438 1.400 . S
C439 C440 1.398 . S
C439 C445 1.491 . S
C440 H431 0.950 . S
C440 C439 1.398 . S
C440 C441 1.391 . S
C441 H429 0.950 . S
C441 C437 1.393 . S
C441 C440 1.391 . S
C442 H432 0.950 . S
C442 C443 1.386 . S
C442 C444 1.391 . S
C443 C442 1.386 . S
C443 C447 1.393 . S
C444 H433 0.950 . S
C444 C442 1.391 . S
C444 C445 1.400 . S
C445 C439 1.491 . S
C445 C444 1.400 . S
C445 C446 1.398 . S
C446 H434 0.950 . S
C446 C445 1.398 . S
C446 C447 1.391 . S
C447 H435 0.950 . S
C447 C443 1.393 . S
C447 C446 1.391 . S
H448 C456 0.950 . S
H449 C461 0.950 . S
H450 C458 0.950 . S
H451 C460 0.950 . S
H452 C462 0.950 . S
H453 C464 0.950 . S
H454 C466 0.950 . S
H455 C467 0.950 . S
C456 H448 0.950 . S
C456 C457 1.386 . S
C456 C458 1.391 . S
C457 C456 1.386 . S
C457 C461 1.393 . S
C458 H450 0.950 . S
C458 C456 1.391 . S
C458 C459 1.400 . S
C459 C458 1.400 . S
C459 C460 1.398 . S
C459 C465 1.491 . S
C460 H451 0.950 . S
C460 C459 1.398 . S
C460 C461 1.391 . S
C461 H449 0.950 . S
C461 C457 1.393 . S
C461 C460 1.391 . S
C462 H452 0.950 . S
C462 C463 1.386 . S
C462 C464 1.391 . S
C463 C462 1.386 . S
C463 C467 1.393 . S
C464 H453 0.950 . S
C464 C462 1.391 . S
C464 C465 1.400 . S
C465 C459 1.491 . S
C465 C464 1.400 . S
C465 C466 1.398 . S
C466 H454 0.950 . S
C466 C465 1.398 . S
C466 C467 1.391 . S
C467 H455 0.950 . S
C467 C463 1.393 . S
C467 C466 1.391 . S
H468 C476 0.950 . S
H469 C481 0.950 . S
H470 C478 0.950 . S
H471 C480 0.950 . S
H472 C482 0.950 . S
H473 C484 0.950 . S
H474 C486 0.950 . S
H475 C487 0.950 . S
C476 H468 0.950 . S
C476 C477 1.386 . S
C476 C478 1.391 . S
C477 C476 1.386 . S
C477 C481 1.393 . S
C478 H470 0.950 . S
C478 C476 1.391 . S
C478 C479 1.400 . S
C479 C478 1.400 . S
C479 C480 1.398 . S
C479 C485 1.491 . S
C480 H471 0.950 . S
C480 C479 1.398 . S
C480 C481 1.391 . S
C481 H469 0.950 . S
C481 C477 1.393 . S
C481 C480 1.391 . S
C482 H472 0.950 . S
C482 C483 1.386 . S
C482 C484 1.391 . S
C483 C482 1.386 . S
C483 C487 1.393 . S
C484 H473 0.950 . S
C484 C482 1.391 . S
C484 C485 1.400 . S
C485 C479 1.491 . S
C485 C484 1.400 . S
C485 C486 1.398 . S
C486 H474 0.950 . S
C486 C485 1.398 . S
C486 C487 1.391 . S
C487 H475 0.950 . S
C487 C483 1.393 . S
C487 C486 1.391 . S
H488 C496 0.950 . S
H489 C501 0.950 . S
H490 C498 0.950 . S
H491 C500 0.950 . S
H492 C502 0.950 . S
H493 C504 0.950 . S
H494 C506 0.950 . S
H495 C507 0.950 . S
C496 H488 0.950 . S
C496 C497 1.386 . S
C496 C498 1.391 . S
C497 C496 1.386 . S
C497 C501 1.393 . S
C498 H490 0.950 . S
C498 C496 1.391 . S
C498 C499 1.400 . S
C499 C498 1.400 . S
C499 C500 1.398 . S
C499 C505 1.491 . S
C500 H491 0.950 . S
C500 C499 1.398 . S
C500 C501 1.391 . S
C501 H489 0.950 . S
C501 C497 1.393 . S
C501 C500 1.391 . S
C502 H492 0.950 . S
C502 C503 1.386 . S
C502 C504 1.391 . S
C503 C502 1.386 . S
C503 C507 1.393 . S
C504 H493 0.950 . S
C504 C502 1.391 . S
C504 C505 1.400 . S
C505 C499 1.491 . S
C505 C504 1.400 . S
C505 C506 1.398 . S
C506 H494 0.950 . S
C506 C505 1.398 . S
C506 C507 1.391 . S
C507 H495 0.950 . S
C507 C503 1.393 . S
C507 C506 1.391 . S
H508 C516 0.950 . S
H509 C521 0.950 . S
H510 C518 0.950 . S
H511 C520 0.950 . S
H512 C522 0.950 . S
H513 C524 0.950 . S
H514 C526 0.950 . S
H515 C527 0.950 . S
C516 H508 0.950 . S
C516 C517 1.386 . S
C516 C518 1.391 . S
C517 C516 1.386 . S
C517 C521 1.393 . S
C518 H510 0.950 . S
C518 C516 1.391 . S
C518 C519 1.400 . S
C519 C518 1.400 . S
C519 C520 1.398 . S
C519 C525 1.491 . S
C520 H511 0.950 . S
C520 C519 1.398 . S
C520 C521 1.391 . S
C521 H509 0.950 . S
C521 C517 1.393 . S
C521 C520 1.391 . S
C522 H512 0.950 . S
C522 C523 1.386 . S
C522 C524 1.391 . S
C523 C522 1.386 . S
C523 C527 1.393 . S
C524 H513 0.950 . S
C524 C522 1.391 . S
C524 C525 1.400 . S
C525 C519 1.491 . S
C525 C524 1.400 . S
C525 C526 1.398 . S
C526 H514 0.950 . S
C526 C525 1.398 . S
C526 C527 1.391 . S
C527 H515 0.950 . S
C527 C523 1.393 . S
C527 C526 1.391 . S
H528 C536 0.950 . S
H529 C541 0.950 . S
H530 C538 0.950 . S
H531 C540 0.950 . S
H532 C542 0.950 . S
H533 C544 0.950 . S
H534 C546 0.950 . S
H535 C547 0.950 . S
C536 H528 0.950 . S
C536 C537 1.385 1_545 S
C536 C538 1.391 . S
C537 C536 1.385 1_565 S
C537 C541 1.393 . S
C538 H530 0.950 . S
C538 C536 1.391 . S
C538 C539 1.400 1_545 S
C539 C538 1.400 1_565 S
C539 C540 1.398 . S
C539 C545 1.491 1_565 S
C540 H531 0.950 . S
C540 C539 1.398 . S
C540 C541 1.391 . S
C541 H529 0.950 . S
C541 C537 1.393 . S
C541 C540 1.391 . S
C542 H532 0.950 . S
C542 C543 1.385 1_565 S
C542 C544 1.391 . S
C543 C542 1.385 1_545 S
C543 C547 1.393 . S
C544 H533 0.950 . S
C544 C542 1.391 . S
C544 C545 1.400 1_565 S
C545 C539 1.491 1_545 S
C545 C544 1.400 1_545 S
C545 C546 1.398 . S
C546 H534 0.950 . S
C546 C545 1.398 . S
C546 C547 1.391 . S
C547 H535 0.950 . S
C547 C543 1.393 . S
C547 C546 1.391 . S
H548 C556 0.950 . S
H549 C561 0.950 . S
H550 C558 0.950 . S
H551 C560 0.950 . S
H552 C562 0.950 . S
H553 C564 0.950 . S
H554 C566 0.950 . S
H555 C567 0.950 . S
C556 H548 0.950 . S
C556 C557 1.386 1_565 S
C556 C558 1.391 . S
C557 C556 1.386 1_545 S
C557 C561 1.393 . S
C558 H550 0.950 . S
C558 C556 1.391 . S
C558 C559 1.400 1_565 S
C559 C558 1.400 1_545 S
C559 C560 1.398 . S
C559 C565 1.491 1_545 S
C560 H551 0.950 . S
C560 C559 1.398 . S
C560 C561 1.391 . S
C561 H549 0.950 . S
C561 C557 1.393 . S
C561 C560 1.391 . S
C562 H552 0.950 . S
C562 C563 1.386 1_545 S
C562 C564 1.391 . S
C563 C562 1.386 1_565 S
C563 C567 1.393 . S
C564 H553 0.950 . S
C564 C562 1.391 . S
C564 C565 1.400 1_545 S
C565 C559 1.491 1_565 S
C565 C564 1.400 1_565 S
C565 C566 1.398 . S
C566 H554 0.950 . S
C566 C565 1.398 . S
C566 C567 1.391 . S
C567 H555 0.950 . S
C567 C563 1.393 . S
C567 C566 1.391 . S
H568 C576 0.950 . S
H569 C581 0.950 . S
H570 C578 0.950 . S
H571 C580 0.950 . S
H572 C582 0.950 . S
H573 C584 0.950 . S
H574 C586 0.950 . S
H575 C587 0.950 . S
C576 H568 0.950 . S
C576 C577 1.386 . S
C576 C578 1.391 . S
C577 C576 1.386 . S
C577 C581 1.393 . S
C578 H570 0.950 . S
C578 C576 1.391 . S
C578 C579 1.400 . S
C579 C578 1.400 . S
C579 C580 1.398 . S
C579 C585 1.491 1_545 S
C580 H571 0.950 . S
C580 C579 1.398 . S
C580 C581 1.391 . S
C581 H569 0.950 . S
C581 C577 1.393 . S
C581 C580 1.391 . S
C582 H572 0.950 . S
C582 C583 1.386 . S
C582 C584 1.391 . S
C583 C582 1.386 . S
C583 C587 1.393 . S
C584 H573 0.950 . S
C584 C582 1.391 . S
C584 C585 1.400 . S
C585 C579 1.491 1_565 S
C585 C584 1.400 . S
C585 C586 1.398 . S
C586 H574 0.950 . S
C586 C585 1.398 . S
C586 C587 1.391 . S
C587 H575 0.950 . S
C587 C583 1.393 . S
C587 C586 1.391 . S
H588 C596 0.950 . S
H589 C601 0.950 . S
H590 C598 0.950 . S
H591 C600 0.950 . S
H592 C602 0.950 . S
H593 C604 0.950 . S
H594 C606 0.950 . S
H595 C607 0.950 . S
C596 H588 0.950 . S
C596 C597 1.386 1_545 S
C596 C598 1.391 . S
C597 C596 1.386 1_565 S
C597 C601 1.393 . S
C598 H590 0.950 . S
C598 C596 1.391 . S
C598 C599 1.400 1_545 S
C599 C598 1.400 1_565 S
C599 C600 1.398 . S
C599 C605 1.491 1_565 S
C600 H591 0.950 . S
C600 C599 1.398 . S
C600 C601 1.391 . S
C601 H589 0.950 . S
C601 C597 1.393 . S
C601 C600 1.391 . S
C602 H592 0.950 . S
C602 C603 1.386 1_565 S
C602 C604 1.391 . S
C603 C602 1.386 1_545 S
C603 C607 1.393 . S
C604 H593 0.950 . S
C604 C602 1.391 . S
C604 C605 1.400 1_565 S
C605 C599 1.491 1_545 S
C605 C604 1.400 1_545 S
C605 C606 1.398 . S
C606 H594 0.950 . S
C606 C605 1.398 . S
C606 C607 1.391 . S
C607 H595 0.950 . S
C607 C603 1.393 . S
C607 C606 1.391 . S
H608 C616 0.950 . S
H609 C621 0.950 . S
H610 C618 0.950 . S
H611 C620 0.950 . S
H612 C622 0.950 . S
H613 C624 0.950 . S
H614 C626 0.950 . S
H615 C627 0.950 . S
C616 H608 0.950 . S
C616 C617 1.386 . S
C616 C618 1.391 . S
C617 C616 1.386 . S
C617 C621 1.393 . S
C618 H610 0.950 . S
C618 C616 1.391 . S
C618 C619 1.400 . S
C619 C618 1.400 . S
C619 C620 1.398 . S
C619 C625 1.491 . S
C620 H611 0.950 . S
C620 C619 1.398 . S
C620 C621 1.391 . S
C621 H609 0.950 . S
C621 C617 1.393 . S
C621 C620 1.391 . S
C622 H612 0.950 . S
C622 C623 1.386 . S
C622 C624 1.391 . S
C623 C622 1.386 . S
C623 C627 1.393 . S
C624 H613 0.950 . S
C624 C622 1.391 . S
C624 C625 1.400 . S
C625 C619 1.491 . S
C625 C624 1.400 . S
C625 C626 1.398 . S
C626 H614 0.950 . S
C626 C625 1.398 . S
C626 C627 1.391 . S
C627 H615 0.950 . S
C627 C623 1.393 . S
C627 C626 1.391 . S
H628 C636 0.950 . S
H629 C641 0.950 . S
H630 C638 0.950 . S
H631 C640 0.950 . S
H632 C642 0.950 . S
H633 C644 0.950 . S
H634 C646 0.950 . S
H635 C647 0.950 . S
C636 H628 0.950 . S
C636 C637 1.386 . S
C636 C638 1.391 . S
C637 C636 1.386 . S
C637 C641 1.393 . S
C638 H630 0.950 . S
C638 C636 1.391 . S
C638 C639 1.400 . S
C639 C638 1.400 . S
C639 C640 1.398 . S
C639 C645 1.491 . S
C640 H631 0.950 . S
C640 C639 1.398 . S
C640 C641 1.391 . S
C641 H629 0.950 . S
C641 C637 1.393 . S
C641 C640 1.391 . S
C642 H632 0.950 . S
C642 C643 1.386 . S
C642 C644 1.391 . S
C643 C642 1.386 . S
C643 C647 1.393 . S
C644 H633 0.950 . S
C644 C642 1.391 . S
C644 C645 1.400 . S
C645 C639 1.491 . S
C645 C644 1.400 . S
C645 C646 1.398 . S
C646 H634 0.950 . S
C646 C645 1.398 . S
C646 C647 1.391 . S
C647 H635 0.950 . S
C647 C643 1.393 . S
C647 C646 1.391 . S
H648 C656 0.950 . S
H649 C661 0.950 . S
H650 C658 0.950 . S
H651 C660 0.950 . S
H652 C662 0.950 . S
H653 C664 0.950 . S
H654 C666 0.950 . S
H655 C667 0.950 . S
C656 H648 0.950 . S
C656 C657 1.386 . S
C656 C658 1.391 . S
C657 C656 1.386 . S
C657 C661 1.393 . S
C658 H650 0.950 . S
C658 C656 1.391 . S
C658 C659 1.400 . S
C659 C658 1.400 . S
C659 C660 1.398 . S
C659 C665 1.491 . S
C660 H651 0.950 . S
C660 C659 1.398 . S
C660 C661 1.391 . S
C661 H649 0.950 . S
C661 C657 1.393 . S
C661 C660 1.391 . S
C662 H652 0.950 . S
C662 C663 1.386 . S
C662 C664 1.391 . S
C663 C662 1.386 . S
C663 C667 1.393 . S
C664 H653 0.950 . S
C664 C662 1.391 . S
C664 C665 1.400 . S
C665 C659 1.491 . S
C665 C664 1.400 . S
C665 C666 1.398 . S
C666 H654 0.950 . S
C666 C665 1.398 . S
C666 C667 1.391 . S
C667 H655 0.950 . S
C667 C663 1.393 . S
C667 C666 1.391 . S
H668 C676 0.950 . S
H669 C681 0.950 . S
H670 C678 0.950 . S
H671 C680 0.950 . S
H672 C682 0.950 . S
H673 C684 0.950 . S
H674 C686 0.950 . S
H675 C687 0.950 . S
C676 H668 0.950 . S
C676 C677 1.386 . S
C676 C678 1.391 . S
C677 C676 1.386 . S
C677 C681 1.393 . S
C678 H670 0.950 . S
C678 C676 1.391 . S
C678 C679 1.400 . S
C679 C678 1.400 . S
C679 C680 1.398 . S
C679 C685 1.491 . S
C680 H671 0.950 . S
C680 C679 1.398 . S
C680 C681 1.391 . S
C681 H669 0.950 . S
C681 C677 1.393 . S
C681 C680 1.391 . S
C682 H672 0.950 . S
C682 C683 1.386 . S
C682 C684 1.391 . S
C683 C682 1.386 . S
C683 C687 1.393 . S
C684 H673 0.950 . S
C684 C682 1.391 . S
C684 C685 1.400 . S
C685 C679 1.491 . S
C685 C684 1.400 . S
C685 C686 1.398 . S
C686 H674 0.950 . S
C686 C685 1.398 . S
C686 C687 1.391 . S
C687 H675 0.950 . S
C687 C683 1.393 . S
C687 C686 1.391 . S
H688 C696 0.950 . S
H689 C701 0.950 . S
H690 C698 0.950 . S
H691 C700 0.950 . S
H692 C702 0.950 . S
H693 C704 0.950 . S
H694 C706 0.950 1_565 S
H695 C707 0.950 1_565 S
C696 H688 0.950 . S
C696 C697 1.386 1_565 S
C696 C698 1.391 . S
C697 C696 1.386 1_545 S
C697 C701 1.393 . S
C698 H690 0.950 . S
C698 C696 1.391 . S
C698 C699 1.400 1_565 S
C699 C698 1.400 1_545 S
C699 C700 1.398 . S
C699 C705 1.491 1_556 S
C700 H691 0.950 . S
C700 C699 1.398 . S
C700 C701 1.391 . S
C701 H689 0.950 . S
C701 C697 1.393 . S
C701 C700 1.391 . S
C702 H692 0.950 . S
C702 C703 1.386 . S
C702 C704 1.391 . S
C703 C702 1.386 . S
C703 C707 1.393 . S
C704 H693 0.950 . S
C704 C702 1.391 . S
C704 C705 1.400 . S
C705 C699 1.491 1_554 S
C705 C704 1.400 . S
C705 C706 1.398 . S
C706 H694 0.950 1_545 S
C706 C705 1.398 . S
C706 C707 1.391 . S
C707 H695 0.950 1_545 S
C707 C703 1.393 . S
C707 C706 1.391 . S
H708 C716 0.950 . S
H709 C721 0.950 . S
H710 C718 0.950 . S
H711 C720 0.950 . S
H712 C722 0.950 . S
H713 C724 0.950 . S
H714 C726 0.950 . S
H715 C727 0.950 . S
C716 H708 0.950 . S
C716 C717 1.386 . S
C716 C718 1.391 . S
C717 C716 1.386 . S
C717 C721 1.393 1_565 S
C718 H710 0.950 . S
C718 C716 1.391 . S
C718 C719 1.400 . S
C719 C718 1.400 . S
C719 C720 1.398 1_565 S
C719 C725 1.491 1_556 S
C720 H711 0.950 . S
C720 C719 1.398 1_545 S
C720 C721 1.391 . S
C721 H709 0.950 . S
C721 C717 1.393 1_545 S
C721 C720 1.391 . S
C722 H712 0.950 . S
C722 C723 1.386 1_545 S
C722 C724 1.391 . S
C723 C722 1.386 1_565 S
C723 C727 1.393 . S
C724 H713 0.950 . S
C724 C722 1.391 . S
C724 C725 1.400 1_545 S
C725 C719 1.491 1_554 S
C725 C724 1.400 1_565 S
C725 C726 1.398 . S
C726 H714 0.950 . S
C726 C725 1.398 . S
C726 C727 1.391 . S
C727 H715 0.950 . S
C727 C723 1.393 . S
C727 C726 1.391 . S
H728 C736 0.950 1_545 S
H729 C741 0.950 . S
H730 C738 0.948 1_545 S
H731 C740 0.950 . S
H732 C742 0.950 . S
H733 C744 0.950 . S
H734 C746 0.950 . S
H735 C747 0.950 . S
C736 H728 0.950 1_565 S
C736 C737 1.386 . S
C736 C738 1.392 . S
C737 C736 1.386 . S
C737 C741 1.393 . S
C738 H730 0.948 1_565 S
C738 C736 1.392 . S
C738 C739 1.402 . S
C739 C738 1.402 . S
C739 C740 1.398 . S
C739 C745 1.491 . S
C740 H731 0.950 . S
C740 C739 1.398 . S
C740 C741 1.391 . S
C741 H729 0.950 . S
C741 C737 1.393 . S
C741 C740 1.391 . S
C742 H732 0.950 . S
C742 C743 1.386 . S
C742 C744 1.391 . S
C743 C742 1.386 . S
C743 C747 1.393 1_565 S
C744 H733 0.950 . S
C744 C742 1.391 . S
C744 C745 1.400 . S
C745 C739 1.491 . S
C745 C744 1.400 . S
C745 C746 1.398 1_565 S
C746 H734 0.950 . S
C746 C745 1.398 1_545 S
C746 C747 1.391 . S
C747 H735 0.950 . S
C747 C743 1.393 1_545 S
C747 C746 1.391 . S
H748 C756 0.950 . S
H749 C761 0.950 . S
H750 C758 0.950 . S
H751 C760 0.950 . S
H752 C762 0.950 . S
H753 C764 0.950 . S
H754 C766 0.950 . S
H755 C767 0.950 . S
C756 H748 0.950 . S
C756 C757 1.386 . S
C756 C758 1.391 . S
C757 C756 1.386 . S
C757 C761 1.393 1_545 S
C758 H750 0.950 . S
C758 C756 1.391 . S
C758 C759 1.400 . S
C759 C758 1.400 . S
C759 C760 1.398 1_545 S
C759 C765 1.491 . S
C760 H751 0.950 . S
C760 C759 1.398 1_565 S
C760 C761 1.391 . S
C761 H749 0.950 . S
C761 C757 1.393 1_565 S
C761 C760 1.391 . S
C762 H752 0.950 . S
C762 C763 1.386 1_565 S
C762 C764 1.391 . S
C763 C762 1.386 1_545 S
C763 C767 1.393 . S
C764 H753 0.950 . S
C764 C762 1.391 . S
C764 C765 1.400 1_565 S
C765 C759 1.491 . S
C765 C764 1.400 1_545 S
C765 C766 1.398 . S
C766 H754 0.950 . S
C766 C765 1.398 . S
C766 C767 1.391 . S
C767 H755 0.950 . S
C767 C763 1.393 . S
C767 C766 1.391 . S
H768 C776 0.950 . S
H769 C781 0.950 . S
H770 C778 0.950 . S
H771 C780 0.950 . S
H772 C782 0.950 . S
H773 C784 0.950 . S
H774 C786 0.950 . S
H775 C787 0.950 . S
C776 H768 0.950 . S
C776 C777 1.386 . S
C776 C778 1.391 . S
C777 C776 1.386 . S
C777 C781 1.393 . S
C778 H770 0.950 . S
C778 C776 1.391 . S
C778 C779 1.400 . S
C779 C778 1.400 . S
C779 C780 1.398 . S
C779 C785 1.491 1_554 S
C780 H771 0.950 . S
C780 C779 1.398 . S
C780 C781 1.391 . S
C781 H769 0.950 . S
C781 C777 1.393 . S
C781 C780 1.391 . S
C782 H772 0.950 . S
C782 C783 1.386 . S
C782 C784 1.391 . S
C783 C782 1.386 . S
C783 C787 1.393 . S
C784 H773 0.950 . S
C784 C782 1.391 . S
C784 C785 1.400 . S
C785 C779 1.491 1_556 S
C785 C784 1.400 . S
C785 C786 1.398 . S
C786 H774 0.950 . S
C786 C785 1.398 . S
C786 C787 1.391 . S
C787 H775 0.950 . S
C787 C783 1.393 . S
C787 C786 1.391 . S
H788 C796 0.950 . S
H789 C801 0.950 . S
H790 C798 0.950 . S
H791 C800 0.950 . S
H792 C802 0.950 . S
H793 C804 0.950 . S
H794 C806 0.950 . S
H795 C807 0.950 . S
C796 H788 0.950 . S
C796 C797 1.386 . S
C796 C798 1.391 . S
C797 C796 1.386 . S
C797 C801 1.393 . S
C798 H790 0.950 . S
C798 C796 1.391 . S
C798 C799 1.400 . S
C799 C798 1.400 . S
C799 C800 1.398 . S
C799 C805 1.491 1_556 S
C800 H791 0.950 . S
C800 C799 1.398 . S
C800 C801 1.391 . S
C801 H789 0.950 . S
C801 C797 1.393 . S
C801 C800 1.391 . S
C802 H792 0.950 . S
C802 C803 1.386 . S
C802 C804 1.391 . S
C803 C802 1.386 . S
C803 C807 1.393 . S
C804 H793 0.950 . S
C804 C802 1.391 . S
C804 C805 1.400 . S
C805 C799 1.491 1_554 S
C805 C804 1.400 . S
C805 C806 1.398 . S
C806 H794 0.950 . S
C806 C805 1.398 . S
C806 C807 1.391 . S
C807 H795 0.950 . S
C807 C803 1.393 . S
C807 C806 1.391 . S
H808 C816 0.950 . S
H809 C821 0.950 . S
H810 C818 0.950 . S
H811 C820 0.950 . S
H812 C822 0.950 . S
H813 C824 0.950 . S
H814 C826 0.950 . S
H815 C827 0.950 . S
C816 H808 0.950 . S
C816 C817 1.386 . S
C816 C818 1.391 . S
C817 C816 1.386 . S
C817 C821 1.393 . S
C818 H810 0.950 . S
C818 C816 1.391 . S
C818 C819 1.400 . S
C819 C818 1.400 . S
C819 C820 1.398 . S
C819 C825 1.491 . S
C820 H811 0.950 . S
C820 C819 1.398 . S
C820 C821 1.391 . S
C821 H809 0.950 . S
C821 C817 1.393 . S
C821 C820 1.391 . S
C822 H812 0.950 . S
C822 C823 1.386 . S
C822 C824 1.391 . S
C823 C822 1.386 . S
C823 C827 1.393 . S
C824 H813 0.950 . S
C824 C822 1.391 . S
C824 C825 1.400 . S
C825 C819 1.491 . S
C825 C824 1.400 . S
C825 C826 1.398 . S
C826 H814 0.950 . S
C826 C825 1.398 . S
C826 C827 1.391 . S
C827 H815 0.950 . S
C827 C823 1.393 . S
C827 C826 1.391 . S
H828 C836 0.950 . S
H829 C841 0.950 . S
H830 C838 0.950 . S
H831 C840 0.950 . S
H832 C842 0.950 . S
H833 C844 0.950 . S
H834 C846 0.950 . S
H835 C847 0.950 . S
C836 H828 0.950 . S
C836 C837 1.386 . S
C836 C838 1.391 . S
C837 C836 1.386 . S
C837 C841 1.393 . S
C838 H830 0.950 . S
C838 C836 1.391 . S
C838 C839 1.400 . S
C839 C838 1.400 . S
C839 C840 1.398 . S
C839 C845 1.491 . S
C840 H831 0.950 . S
C840 C839 1.398 . S
C840 C841 1.391 . S
C841 H829 0.950 . S
C841 C837 1.393 . S
C841 C840 1.391 . S
C842 H832 0.950 . S
C842 C843 1.386 . S
C842 C844 1.391 . S
C843 C842 1.386 . S
C843 C847 1.393 . S
C844 H833 0.950 . S
C844 C842 1.391 . S
C844 C845 1.400 . S
C845 C839 1.491 . S
C845 C844 1.400 . S
C845 C846 1.398 . S
C846 H834 0.950 . S
C846 C845 1.398 . S
C846 C847 1.391 . S
C847 H835 0.950 . S
C847 C843 1.393 . S
C847 C846 1.391 . S
H848 C856 0.950 . S
H849 C861 0.950 . S
H850 C858 0.950 . S
H851 C860 0.950 . S
H852 C862 0.950 . S
H853 C864 0.950 . S
H854 C866 0.950 . S
H855 C867 0.950 . S
C856 H848 0.950 . S
C856 C857 1.386 1_545 S
C856 C858 1.391 . S
C857 C856 1.386 1_565 S
C857 C861 1.393 . S
C858 H850 0.950 . S
C858 C856 1.391 . S
C858 C859 1.400 1_545 S
C859 C858 1.400 1_565 S
C859 C860 1.398 . S
C859 C865 1.491 1_665 S
C860 H851 0.950 . S
C860 C859 1.398 . S
C860 C861 1.391 . S
C861 H849 0.950 . S
C861 C857 1.393 . S
C861 C860 1.391 . S
C862 H852 0.950 . S
C862 C863 1.386 1_565 S
C862 C864 1.391 . S
C863 C862 1.386 1_545 S
C863 C867 1.393 . S
C864 H853 0.950 . S
C864 C862 1.391 . S
C864 C865 1.400 1_565 S
C865 C859 1.491 1_445 S
C865 C864 1.400 1_545 S
C865 C866 1.398 . S
C866 H854 0.950 . S
C866 C865 1.398 . S
C866 C867 1.391 . S
C867 H855 0.950 . S
C867 C863 1.393 . S
C867 C866 1.391 . S
H868 C876 0.950 . S
H869 C881 0.950 . S
H870 C878 0.950 . S
H871 C880 0.950 1_565 S
H872 C882 0.950 . S
H873 C884 0.950 . S
H874 C886 0.950 1_545 S
H875 C887 0.950 . S
C876 H868 0.950 . S
C876 C877 1.386 . S
C876 C878 1.391 . S
C877 C876 1.386 . S
C877 C881 1.393 . S
C878 H870 0.950 . S
C878 C876 1.391 . S
C878 C879 1.400 . S
C879 C878 1.400 . S
C879 C880 1.398 . S
C879 C885 1.491 1_645 S
C880 H871 0.950 1_545 S
C880 C879 1.398 . S
C880 C881 1.391 . S
C881 H869 0.950 . S
C881 C877 1.393 . S
C881 C880 1.391 . S
C882 H872 0.950 . S
C882 C883 1.386 . S
C882 C884 1.391 . S
C883 C882 1.386 . S
C883 C887 1.393 . S
C884 H873 0.950 . S
C884 C882 1.391 . S
C884 C885 1.400 . S
C885 C879 1.491 1_465 S
C885 C884 1.400 . S
C885 C886 1.398 . S
C886 H874 0.950 1_565 S
C886 C885 1.398 . S
C886 C887 1.391 . S
C887 H875 0.950 . S
C887 C883 1.393 . S
C887 C886 1.391 . S
H888 C896 0.950 . S
H889 C901 0.950 . S
H890 C898 0.950 . S
H891 C900 0.950 . S
H892 C902 0.950 . S
H893 C904 0.950 . S
H894 C906 0.950 . S
H895 C907 0.950 . S
C896 H888 0.950 . S
C896 C897 1.386 1_565 S
C896 C898 1.391 . S
C897 C896 1.386 1_545 S
C897 C901 1.393 . S
C898 H890 0.950 . S
C898 C896 1.391 . S
C898 C899 1.400 1_565 S
C899 C898 1.400 1_545 S
C899 C900 1.398 . S
C899 C905 1.491 1_445 S
C900 H891 0.950 . S
C900 C899 1.398 . S
C900 C901 1.391 . S
C901 H889 0.950 . S
C901 C897 1.393 . S
C901 C900 1.391 . S
C902 H892 0.950 . S
C902 C903 1.386 1_545 S
C902 C904 1.391 . S
C903 C902 1.386 1_565 S
C903 C907 1.393 . S
C904 H893 0.950 . S
C904 C902 1.391 . S
C904 C905 1.400 1_545 S
C905 C899 1.491 1_665 S
C905 C904 1.400 1_565 S
C905 C906 1.398 . S
C906 H894 0.950 . S
C906 C905 1.398 . S
C906 C907 1.391 . S
C907 H895 0.950 . S
C907 C903 1.393 . S
C907 C906 1.391 . S
H908 C916 0.950 . S
H909 C921 0.950 . S
H910 C918 0.950 . S
H911 C920 0.950 . S
H912 C922 0.950 . S
H913 C924 0.950 . S
H914 C926 0.950 . S
H915 C927 0.950 . S
C916 H908 0.950 . S
C916 C917 1.386 1_565 S
C916 C918 1.391 . S
C917 C916 1.386 1_545 S
C917 C921 1.393 . S
C918 H910 0.950 . S
C918 C916 1.391 . S
C918 C919 1.400 1_565 S
C919 C918 1.400 1_545 S
C919 C920 1.398 . S
C919 C925 1.491 1_645 S
C920 H911 0.950 . S
C920 C919 1.398 . S
C920 C921 1.391 . S
C921 H909 0.950 . S
C921 C917 1.393 . S
C921 C920 1.391 . S
C922 H912 0.950 . S
C922 C923 1.386 1_545 S
C922 C924 1.391 . S
C923 C922 1.386 1_565 S
C923 C927 1.393 . S
C924 H913 0.950 . S
C924 C922 1.391 . S
C924 C925 1.400 1_545 S
C925 C919 1.491 1_465 S
C925 C924 1.400 1_565 S
C925 C926 1.398 . S
C926 H914 0.950 . S
C926 C925 1.398 . S
C926 C927 1.391 . S
C927 H915 0.950 . S
C927 C923 1.393 . S
C927 C926 1.391 . S
H928 C936 0.950 . S
H929 C941 0.950 . S
H930 C938 0.950 . S
H931 C940 0.950 . S
H932 C942 0.950 . S
H933 C944 0.950 . S
H934 C946 0.950 . S
H935 C947 0.950 . S
C936 H928 0.950 . S
C936 C937 1.386 . S
C936 C938 1.391 . S
C937 C936 1.386 . S
C937 C941 1.393 . S
C938 H930 0.950 . S
C938 C936 1.391 . S
C938 C939 1.400 . S
C939 C938 1.400 . S
C939 C940 1.398 . S
C939 C945 1.491 . S
C940 H931 0.950 . S
C940 C939 1.398 . S
C940 C941 1.391 . S
C941 H929 0.950 . S
C941 C937 1.393 . S
C941 C940 1.391 . S
C942 H932 0.950 . S
C942 C943 1.386 . S
C942 C944 1.391 . S
C943 C942 1.386 . S
C943 C947 1.393 . S
C944 H933 0.950 . S
C944 C942 1.391 . S
C944 C945 1.400 . S
C945 C939 1.491 . S
C945 C944 1.400 . S
C945 C946 1.398 . S
C946 H934 0.950 . S
C946 C945 1.398 . S
C946 C947 1.391 . S
C947 H935 0.950 . S
C947 C943 1.393 . S
C947 C946 1.391 . S
H948 C956 0.950 . S
H949 C961 0.950 . S
H950 C958 0.950 . S
H951 C960 0.950 . S
H952 C962 0.950 . S
H953 C964 0.950 . S
H954 C966 0.950 . S
H955 C967 0.950 . S
C956 H948 0.950 . S
C956 C957 1.386 . S
C956 C958 1.391 . S
C957 C956 1.386 . S
C957 C961 1.393 . S
C958 H950 0.950 . S
C958 C956 1.391 . S
C958 C959 1.400 . S
C959 C958 1.400 . S
C959 C960 1.398 . S
C959 C965 1.491 . S
C960 H951 0.950 . S
C960 C959 1.398 . S
C960 C961 1.391 . S
C961 H949 0.950 . S
C961 C957 1.393 . S
C961 C960 1.391 . S
C962 H952 0.950 . S
C962 C963 1.386 . S
C962 C964 1.391 . S
C963 C962 1.386 . S
C963 C967 1.393 . S
C964 H953 0.950 . S
C964 C962 1.391 . S
C964 C965 1.400 . S
C965 C959 1.491 . S
C965 C964 1.400 . S
C965 C966 1.398 . S
C966 H954 0.950 . S
C966 C965 1.398 . S
C966 C967 1.391 . S
C967 H955 0.950 . S
C967 C963 1.393 . S
C967 C966 1.391 . S
H968 C976 0.950 . S
H969 C981 0.950 . S
H970 C978 0.950 . S
H971 C980 0.950 . S
H972 C982 0.950 . S
H973 C984 0.950 . S
H974 C986 0.950 . S
H975 C987 0.950 . S
C976 H968 0.950 . S
C976 C977 1.386 . S
C976 C978 1.391 . S
C977 C976 1.386 . S
C977 C981 1.393 . S
C978 H970 0.950 . S
C978 C976 1.391 . S
C978 C979 1.400 . S
C979 C978 1.400 . S
C979 C980 1.398 . S
C979 C985 1.491 . S
C980 H971 0.950 . S
C980 C979 1.398 . S
C980 C981 1.391 . S
C981 H969 0.950 . S
C981 C977 1.393 . S
C981 C980 1.391 . S
C982 H972 0.950 . S
C982 C983 1.386 . S
C982 C984 1.391 . S
C983 C982 1.386 . S
C983 C987 1.393 . S
C984 H973 0.950 . S
C984 C982 1.391 . S
C984 C985 1.400 . S
C985 C979 1.491 . S
C985 C984 1.400 . S
C985 C986 1.398 . S
C986 H974 0.950 . S
C986 C985 1.398 . S
C986 C987 1.391 . S
C987 H975 0.950 . S
C987 C983 1.393 . S
C987 C986 1.391 . S
H988 C996 0.950 . S
H989 C1001 0.950 . S
H990 C998 0.950 . S
H991 C1000 0.950 . S
H992 C1002 0.950 . S
H993 C1004 0.950 . S
H994 C1006 0.950 . S
H995 C1007 0.950 . S
C996 H988 0.950 . S
C996 C997 1.386 . S
C996 C998 1.391 . S
C997 C996 1.386 . S
C997 C1001 1.393 . S
C998 H990 0.950 . S
C998 C996 1.391 . S
C998 C999 1.400 . S
C999 C998 1.400 . S
C999 C1000 1.398 . S
C999 C1005 1.491 . S
C1000 H991 0.950 . S
C1000 C999 1.398 . S
C1000 C1001 1.391 . S
C1001 H989 0.950 . S
C1001 C997 1.393 . S
C1001 C1000 1.391 . S
C1002 H992 0.950 . S
C1002 C1003 1.386 . S
C1002 C1004 1.391 . S
C1003 C1002 1.386 . S
C1003 C1007 1.393 . S
C1004 H993 0.950 . S
C1004 C1002 1.391 . S
C1004 C1005 1.400 . S
C1005 C999 1.491 . S
C1005 C1004 1.400 . S
C1005 C1006 1.398 . S
C1006 H994 0.950 . S
C1006 C1005 1.398 . S
C1006 C1007 1.391 . S
C1007 H995 0.950 . S
C1007 C1003 1.393 . S
C1007 C1006 1.391 . S
H1008 C1016 0.950 . S
H1009 C1021 0.950 . S
H1010 C1018 0.950 . S
H1011 C1020 0.950 . S
H1012 C1022 0.950 . S
H1013 C1024 0.950 . S
H1014 C1026 0.950 . S
H1015 C1027 0.950 . S
C1016 H1008 0.950 . S
C1016 C1017 1.386 . S
C1016 C1018 1.391 . S
C1017 C1016 1.386 . S
C1017 C1021 1.393 . S
C1018 H1010 0.950 . S
C1018 C1016 1.391 . S
C1018 C1019 1.400 . S
C1019 C1018 1.400 . S
C1019 C1020 1.398 . S
C1019 C1025 1.491 . S
C1020 H1011 0.950 . S
C1020 C1019 1.398 . S
C1020 C1021 1.391 . S
C1021 H1009 0.950 . S
C1021 C1017 1.393 . S
C1021 C1020 1.391 . S
C1022 H1012 0.950 . S
C1022 C1023 1.386 . S
C1022 C1024 1.391 . S
C1023 C1022 1.386 . S
C1023 C1027 1.393 . S
C1024 H1013 0.950 . S
C1024 C1022 1.391 . S
C1024 C1025 1.400 . S
C1025 C1019 1.491 . S
C1025 C1024 1.400 . S
C1025 C1026 1.398 . S
C1026 H1014 0.950 . S
C1026 C1025 1.398 . S
C1026 C1027 1.391 . S
C1027 H1015 0.950 . S
C1027 C1023 1.393 . S
C1027 C1026 1.391 . S
H1028 C1036 0.950 . S
H1029 C1041 0.950 . S
H1030 C1038 0.950 . S
H1031 C1040 0.950 . S
H1032 C1042 0.950 . S
H1033 C1044 0.950 . S
H1034 C1046 0.950 . S
H1035 C1047 0.950 . S
C1036 H1028 0.950 . S
C1036 C1037 1.386 . S
C1036 C1038 1.391 . S
C1037 C1036 1.386 . S
C1037 C1041 1.393 . S
C1038 H1030 0.950 . S
C1038 C1036 1.391 . S
C1038 C1039 1.400 . S
C1039 C1038 1.400 . S
C1039 C1040 1.398 . S
C1039 C1045 1.491 . S
C1040 H1031 0.950 . S
C1040 C1039 1.398 . S
C1040 C1041 1.391 . S
C1041 H1029 0.950 . S
C1041 C1037 1.393 . S
C1041 C1040 1.391 . S
C1042 H1032 0.950 . S
C1042 C1043 1.386 . S
C1042 C1044 1.391 . S
C1043 C1042 1.386 . S
C1043 C1047 1.393 . S
C1044 H1033 0.950 . S
C1044 C1042 1.391 . S
C1044 C1045 1.400 . S
C1045 C1039 1.491 . S
C1045 C1044 1.400 . S
C1045 C1046 1.398 . S
C1046 H1034 0.950 . S
C1046 C1045 1.398 . S
C1046 C1047 1.391 . S
C1047 H1035 0.950 . S
C1047 C1043 1.393 . S
C1047 C1046 1.391 . S
H1048 C1056 0.950 . S
H1049 C1061 0.950 . S
H1050 C1058 0.950 . S
H1051 C1060 0.950 . S
H1052 C1062 0.950 . S
H1053 C1064 0.950 . S
H1054 C1066 0.950 . S
H1055 C1067 0.950 . S
C1056 H1048 0.950 . S
C1056 C1057 1.386 . S
C1056 C1058 1.391 . S
C1057 C1056 1.386 . S
C1057 C1061 1.393 . S
C1058 H1050 0.950 . S
C1058 C1056 1.391 . S
C1058 C1059 1.400 . S
C1059 C1058 1.400 . S
C1059 C1060 1.398 . S
C1059 C1065 1.491 . S
C1060 H1051 0.950 . S
C1060 C1059 1.398 . S
C1060 C1061 1.391 . S
C1061 H1049 0.950 . S
C1061 C1057 1.393 . S
C1061 C1060 1.391 . S
C1062 H1052 0.950 . S
C1062 C1063 1.386 . S
C1062 C1064 1.391 . S
C1063 C1062 1.386 . S
C1063 C1067 1.393 . S
C1064 H1053 0.950 . S
C1064 C1062 1.391 . S
C1064 C1065 1.400 . S
C1065 C1059 1.491 . S
C1065 C1064 1.400 . S
C1065 C1066 1.398 . S
C1066 H1054 0.950 . S
C1066 C1065 1.398 . S
C1066 C1067 1.391 . S
C1067 H1055 0.950 . S
C1067 C1063 1.393 . S
C1067 C1066 1.391 . S
H1068 C1076 0.950 . S
H1069 C1081 0.950 . S
H1070 C1078 0.950 . S
H1071 C1080 0.950 . S
H1072 C1082 0.950 . S
H1073 C1084 0.950 . S
H1074 C1086 0.950 . S
H1075 C1087 0.950 . S
C1076 H1068 0.950 . S
C1076 C1077 1.386 . S
C1076 C1078 1.391 . S
C1077 C1076 1.386 . S
C1077 C1081 1.393 . S
C1078 H1070 0.950 . S
C1078 C1076 1.391 . S
C1078 C1079 1.400 . S
C1079 C1078 1.400 . S
C1079 C1080 1.398 . S
C1079 C1085 1.491 . S
C1080 H1071 0.950 . S
C1080 C1079 1.398 . S
C1080 C1081 1.391 . S
C1081 H1069 0.950 . S
C1081 C1077 1.393 . S
C1081 C1080 1.391 . S
C1082 H1072 0.950 . S
C1082 C1083 1.386 . S
C1082 C1084 1.391 . S
C1083 C1082 1.386 . S
C1083 C1087 1.393 . S
C1084 H1073 0.950 . S
C1084 C1082 1.391 . S
C1084 C1085 1.400 . S
C1085 C1079 1.491 . S
C1085 C1084 1.400 . S
C1085 C1086 1.398 . S
C1086 H1074 0.950 . S
C1086 C1085 1.398 . S
C1086 C1087 1.391 . S
C1087 H1075 0.950 . S
C1087 C1083 1.393 . S
C1087 C1086 1.391 . S
H1088 C1096 0.950 . S
H1089 C1101 0.950 . S
H1090 C1098 0.950 . S
H1091 C1100 0.950 . S
H1092 C1102 0.950 . S
H1093 C1104 0.950 . S
H1094 C1106 0.950 . S
H1095 C1107 0.950 . S
C1096 H1088 0.950 . S
C1096 C1097 1.386 . S
C1096 C1098 1.391 . S
C1097 C1096 1.386 . S
C1097 C1101 1.393 . S
C1098 H1090 0.950 . S
C1098 C1096 1.391 . S
C1098 C1099 1.400 . S
C1099 C1098 1.400 . S
C1099 C1100 1.398 . S
C1099 C1105 1.491 . S
C1100 H1091 0.950 . S
C1100 C1099 1.398 . S
C1100 C1101 1.391 . S
C1101 H1089 0.950 . S
C1101 C1097 1.393 . S
C1101 C1100 1.391 . S
C1102 H1092 0.950 . S
C1102 C1103 1.386 . S
C1102 C1104 1.391 . S
C1103 C1102 1.386 . S
C1103 C1107 1.393 . S
C1104 H1093 0.950 . S
C1104 C1102 1.391 . S
C1104 C1105 1.400 . S
C1105 C1099 1.491 . S
C1105 C1104 1.400 . S
C1105 C1106 1.398 . S
C1106 H1094 0.950 . S
C1106 C1105 1.398 . S
C1106 C1107 1.391 . S
C1107 H1095 0.950 . S
C1107 C1103 1.393 . S
C1107 C1106 1.391 . S
H1108 C1116 0.950 . S
H1109 C1121 0.950 . S
H1110 C1118 0.950 . S
H1111 C1120 0.950 . S
H1112 C1122 0.950 . S
H1113 C1124 0.950 . S
H1114 C1126 0.950 . S
H1115 C1127 0.950 . S
C1116 H1108 0.950 . S
C1116 C1117 1.386 . S
C1116 C1118 1.391 . S
C1117 C1116 1.386 . S
C1117 C1121 1.393 . S
C1118 H1110 0.950 . S
C1118 C1116 1.391 . S
C1118 C1119 1.400 . S
C1119 C1118 1.400 . S
C1119 C1120 1.398 . S
C1119 C1125 1.491 . S
C1120 H1111 0.950 . S
C1120 C1119 1.398 . S
C1120 C1121 1.391 . S
C1121 H1109 0.950 . S
C1121 C1117 1.393 . S
C1121 C1120 1.391 . S
C1122 H1112 0.950 . S
C1122 C1123 1.386 . S
C1122 C1124 1.391 . S
C1123 C1122 1.386 . S
C1123 C1127 1.393 . S
C1124 H1113 0.950 . S
C1124 C1122 1.391 . S
C1124 C1125 1.400 . S
C1125 C1119 1.491 . S
C1125 C1124 1.400 . S
C1125 C1126 1.398 . S
C1126 H1114 0.950 . S
C1126 C1125 1.398 . S
C1126 C1127 1.391 . S
C1127 H1115 0.950 . S
C1127 C1123 1.393 . S
C1127 C1126 1.391 . S
H1128 C1136 0.950 . S
H1129 C1141 0.950 . S
H1130 C1138 0.950 . S
H1131 C1140 0.950 . S
H1132 C1142 0.950 . S
H1133 C1144 0.950 . S
H1134 C1146 0.950 . S
H1135 C1147 0.950 . S
C1136 H1128 0.950 . S
C1136 C1137 1.386 . S
C1136 C1138 1.391 . S
C1137 C1136 1.386 . S
C1137 C1141 1.393 . S
C1138 H1130 0.950 . S
C1138 C1136 1.391 . S
C1138 C1139 1.400 . S
C1139 C1138 1.400 . S
C1139 C1140 1.398 . S
C1139 C1145 1.491 . S
C1140 H1131 0.950 . S
C1140 C1139 1.398 . S
C1140 C1141 1.391 . S
C1141 H1129 0.950 . S
C1141 C1137 1.393 . S
C1141 C1140 1.391 . S
C1142 H1132 0.950 . S
C1142 C1143 1.386 . S
C1142 C1144 1.391 . S
C1143 C1142 1.386 . S
C1143 C1147 1.393 . S
C1144 H1133 0.950 . S
C1144 C1142 1.391 . S
C1144 C1145 1.400 . S
C1145 C1139 1.491 . S
C1145 C1144 1.400 . S
C1145 C1146 1.398 . S
C1146 H1134 0.950 . S
C1146 C1145 1.398 . S
C1146 C1147 1.391 . S
C1147 H1135 0.950 . S
C1147 C1143 1.393 . S
C1147 C1146 1.391 . S
H1148 C1156 0.950 . S
H1149 C1161 0.950 . S
H1150 C1158 0.950 . S
H1151 C1160 0.950 . S
H1152 C1162 0.950 . S
H1153 C1164 0.950 . S
H1154 C1166 0.950 . S
H1155 C1167 0.950 . S
C1156 H1148 0.950 . S
C1156 C1157 1.386 . S
C1156 C1158 1.391 . S
C1157 C1156 1.386 . S
C1157 C1161 1.393 . S
C1158 H1150 0.950 . S
C1158 C1156 1.391 . S
C1158 C1159 1.400 . S
C1159 C1158 1.400 . S
C1159 C1160 1.398 . S
C1159 C1165 1.491 . S
C1160 H1151 0.950 . S
C1160 C1159 1.398 . S
C1160 C1161 1.391 . S
C1161 H1149 0.950 . S
C1161 C1157 1.393 . S
C1161 C1160 1.391 . S
C1162 H1152 0.950 . S
C1162 C1163 1.386 . S
C1162 C1164 1.391 . S
C1163 C1162 1.386 . S
C1163 C1167 1.393 . S
C1164 H1153 0.950 . S
C1164 C1162 1.391 . S
C1164 C1165 1.400 . S
C1165 C1159 1.491 . S
C1165 C1164 1.400 . S
C1165 C1166 1.398 . S
C1166 H1154 0.950 . S
C1166 C1165 1.398 . S
C1166 C1167 1.391 . S
C1167 H1155 0.950 . S
C1167 C1163 1.393 . S
C1167 C1166 1.391 . S
H1168 C1176 0.950 . S
H1169 C1181 0.950 . S
H1170 C1178 0.950 . S
H1171 C1180 0.950 . S
H1172 C1182 0.950 . S
H1173 C1184 0.950 . S
H1174 C1186 0.950 . S
H1175 C1187 0.950 . S
C1176 H1168 0.950 . S
C1176 C1177 1.386 . S
C1176 C1178 1.391 . S
C1177 C1176 1.386 . S
C1177 C1181 1.393 . S
C1178 H1170 0.950 . S
C1178 C1176 1.391 . S
C1178 C1179 1.400 1_565 S
C1179 C1178 1.400 1_545 S
C1179 C1180 1.398 1_545 S
C1179 C1185 1.491 . S
C1180 H1171 0.950 . S
C1180 C1179 1.398 1_565 S
C1180 C1181 1.391 . S
C1181 H1169 0.950 . S
C1181 C1177 1.393 . S
C1181 C1180 1.391 . S
C1182 H1172 0.950 . S
C1182 C1183 1.386 . S
C1182 C1184 1.391 . S
C1183 C1182 1.386 . S
C1183 C1187 1.393 . S
C1184 H1173 0.950 . S
C1184 C1182 1.391 . S
C1184 C1185 1.400 . S
C1185 C1179 1.491 . S
C1185 C1184 1.400 . S
C1185 C1186 1.398 . S
C1186 H1174 0.950 . S
C1186 C1185 1.398 . S
C1186 C1187 1.391 . S
C1187 H1175 0.950 . S
C1187 C1183 1.393 . S
C1187 C1186 1.391 . S
H1188 C1196 0.950 . S
H1189 C1201 0.950 . S
H1190 C1198 0.950 . S
H1191 C1200 0.950 . S
H1192 C1202 0.950 . S
H1193 C1204 0.950 . S
H1194 C1206 0.950 . S
H1195 C1207 0.950 . S
C1196 H1188 0.950 . S
C1196 C1197 1.386 . S
C1196 C1198 1.391 . S
C1197 C1196 1.386 . S
C1197 C1201 1.393 . S
C1198 H1190 0.950 . S
C1198 C1196 1.391 . S
C1198 C1199 1.400 . S
C1199 C1198 1.400 . S
C1199 C1200 1.398 . S
C1199 C1205 1.491 . S
C1200 H1191 0.950 . S
C1200 C1199 1.398 . S
C1200 C1201 1.391 . S
C1201 H1189 0.950 . S
C1201 C1197 1.393 . S
C1201 C1200 1.391 . S
C1202 H1192 0.950 . S
C1202 C1203 1.386 . S
C1202 C1204 1.391 . S
C1203 C1202 1.386 . S
C1203 C1207 1.393 . S
C1204 H1193 0.950 . S
C1204 C1202 1.391 . S
C1204 C1205 1.400 1_545 S
C1205 C1199 1.491 . S
C1205 C1204 1.400 1_565 S
C1205 C1206 1.398 1_565 S
C1206 H1194 0.950 . S
C1206 C1205 1.398 1_545 S
C1206 C1207 1.391 . S
C1207 H1195 0.950 . S
C1207 C1203 1.393 . S
C1207 C1206 1.391 . S
H1208 C1216 0.950 . S
H1209 C1221 0.950 . S
H1210 C1218 0.950 . S
H1211 C1220 0.950 . S
H1212 C1222 0.950 . S
H1213 C1224 0.950 . S
H1214 C1226 0.950 . S
H1215 C1227 0.950 . S
C1216 H1208 0.950 . S
C1216 C1217 1.386 . S
C1216 C1218 1.391 . S
C1217 C1216 1.386 . S
C1217 C1221 1.393 . S
C1218 H1210 0.950 . S
C1218 C1216 1.391 . S
C1218 C1219 1.400 1_545 S
C1219 C1218 1.400 1_565 S
C1219 C1220 1.398 1_565 S
C1219 C1225 1.491 . S
C1220 H1211 0.950 . S
C1220 C1219 1.398 1_545 S
C1220 C1221 1.391 . S
C1221 H1209 0.950 . S
C1221 C1217 1.393 . S
C1221 C1220 1.391 . S
C1222 H1212 0.950 . S
C1222 C1223 1.386 . S
C1222 C1224 1.391 . S
C1223 C1222 1.386 . S
C1223 C1227 1.393 . S
C1224 H1213 0.950 . S
C1224 C1222 1.391 . S
C1224 C1225 1.400 . S
C1225 C1219 1.491 . S
C1225 C1224 1.400 . S
C1225 C1226 1.398 . S
C1226 H1214 0.950 . S
C1226 C1225 1.398 . S
C1226 C1227 1.391 . S
C1227 H1215 0.950 . S
C1227 C1223 1.393 . S
C1227 C1226 1.391 . S
H1228 C1236 0.950 . S
H1229 C1241 0.950 . S
H1230 C1238 0.950 . S
H1231 C1240 0.950 . S
H1232 C1242 0.950 . S
H1233 C1244 0.950 . S
H1234 C1246 0.950 . S
H1235 C1247 0.950 . S
C1236 H1228 0.950 . S
C1236 C1237 1.386 . S
C1236 C1238 1.391 . S
C1237 C1236 1.386 . S
C1237 C1241 1.393 . S
C1238 H1230 0.950 . S
C1238 C1236 1.391 . S
C1238 C1239 1.400 1_565 S
C1239 C1238 1.400 1_545 S
C1239 C1240 1.398 1_545 S
C1239 C1245 1.491 . S
C1240 H1231 0.950 . S
C1240 C1239 1.398 1_565 S
C1240 C1241 1.391 . S
C1241 H1229 0.950 . S
C1241 C1237 1.393 . S
C1241 C1240 1.391 . S
C1242 H1232 0.950 . S
C1242 C1243 1.386 . S
C1242 C1244 1.391 . S
C1243 C1242 1.386 . S
C1243 C1247 1.393 . S
C1244 H1233 0.950 . S
C1244 C1242 1.391 . S
C1244 C1245 1.400 . S
C1245 C1239 1.491 . S
C1245 C1244 1.400 . S
C1245 C1246 1.398 . S
C1246 H1234 0.950 . S
C1246 C1245 1.398 . S
C1246 C1247 1.391 . S
C1247 H1235 0.950 . S
C1247 C1243 1.393 . S
C1247 C1246 1.391 . S
H1248 C1256 0.950 . S
H1249 C1261 0.950 . S
H1250 C1258 0.950 . S
H1251 C1260 0.950 . S
H1252 C1262 0.950 . S
H1253 C1264 0.950 . S
H1254 C1266 0.950 . S
H1255 C1267 0.950 . S
C1256 H1248 0.950 . S
C1256 C1257 1.386 . S
C1256 C1258 1.391 . S
C1257 C1256 1.386 . S
C1257 C1261 1.393 . S
C1258 H1250 0.950 . S
C1258 C1256 1.391 . S
C1258 C1259 1.400 . S
C1259 C1258 1.400 . S
C1259 C1260 1.398 . S
C1259 C1265 1.491 . S
C1260 H1251 0.950 . S
C1260 C1259 1.398 . S
C1260 C1261 1.391 . S
C1261 H1249 0.950 . S
C1261 C1257 1.393 . S
C1261 C1260 1.391 . S
C1262 H1252 0.950 . S
C1262 C1263 1.386 . S
C1262 C1264 1.391 . S
C1263 C1262 1.386 . S
C1263 C1267 1.393 . S
C1264 H1253 0.950 . S
C1264 C1262 1.391 . S
C1264 C1265 1.400 1_545 S
C1265 C1259 1.491 . S
C1265 C1264 1.400 1_565 S
C1265 C1266 1.398 1_565 S
C1266 H1254 0.950 . S
C1266 C1265 1.398 1_545 S
C1266 C1267 1.391 . S
C1267 H1255 0.950 . S
C1267 C1263 1.393 . S
C1267 C1266 1.391 . S
H1268 C1276 0.950 . S
H1269 C1281 0.950 . S
H1270 C1278 0.950 . S
H1271 C1280 0.950 . S
H1272 C1282 0.950 . S
H1273 C1284 0.949 . S
H1274 C1286 0.950 . S
H1275 C1287 0.950 . S
C1276 H1268 0.950 . S
C1276 C1277 1.386 . S
C1276 C1278 1.391 . S
C1277 C1276 1.386 . S
C1277 C1281 1.393 . S
C1278 H1270 0.950 . S
C1278 C1276 1.391 . S
C1278 C1279 1.400 . S
C1279 C1278 1.400 . S
C1279 C1280 1.398 . S
C1279 C1285 1.491 . S
C1280 H1271 0.950 . S
C1280 C1279 1.398 . S
C1280 C1281 1.391 . S
C1281 H1269 0.950 . S
C1281 C1277 1.393 . S
C1281 C1280 1.391 . S
C1282 H1272 0.950 . S
C1282 C1283 1.386 . S
C1282 C1284 1.391 . S
C1283 C1282 1.386 . S
C1283 C1287 1.393 . S
C1284 H1273 0.949 . S
C1284 C1282 1.391 . S
C1284 C1285 1.400 1_565 S
C1285 C1279 1.491 . S
C1285 C1284 1.400 1_545 S
C1285 C1286 1.398 1_545 S
C1286 H1274 0.950 . S
C1286 C1285 1.398 1_565 S
C1286 C1287 1.391 . S
C1287 H1275 0.950 . S
C1287 C1283 1.393 . S
C1287 C1286 1.391 . S
H1288 C1296 0.950 . S
H1289 C1301 0.950 . S
H1290 C1298 0.955 . S
H1291 C1300 0.950 . S
H1292 C1302 0.950 . S
H1293 C1304 0.950 . S
H1294 C1306 0.950 . S
H1295 C1307 0.950 . S
C1296 H1288 0.950 . S
C1296 C1297 1.386 . S
C1296 C1298 1.391 . S
C1297 C1296 1.386 . S
C1297 C1301 1.393 . S
C1298 H1290 0.955 . S
C1298 C1296 1.391 . S
C1298 C1299 1.400 1_565 S
C1299 C1298 1.400 1_545 S
C1299 C1300 1.398 1_545 S
C1299 C1305 1.491 . S
C1300 H1291 0.950 . S
C1300 C1299 1.398 1_565 S
C1300 C1301 1.391 . S
C1301 H1289 0.950 . S
C1301 C1297 1.393 . S
C1301 C1300 1.391 . S
C1302 H1292 0.950 . S
C1302 C1303 1.386 . S
C1302 C1304 1.391 . S
C1303 C1302 1.386 . S
C1303 C1307 1.393 . S
C1304 H1293 0.950 . S
C1304 C1302 1.391 . S
C1304 C1305 1.400 . S
C1305 C1299 1.491 . S
C1305 C1304 1.400 . S
C1305 C1306 1.398 . S
C1306 H1294 0.950 . S
C1306 C1305 1.398 . S
C1306 C1307 1.391 . S
C1307 H1295 0.950 . S
C1307 C1303 1.393 . S
C1307 C1306 1.391 . S
H1308 C1316 0.950 . S
H1309 C1321 0.950 . S
H1310 C1318 0.950 . S
H1311 C1320 0.950 . S
H1312 C1322 0.950 . S
H1313 C1324 0.942 1_565 S
H1314 C1326 0.950 . S
H1315 C1327 0.950 . S
C1316 H1308 0.950 . S
C1316 C1317 1.386 . S
C1316 C1318 1.391 . S
C1317 C1316 1.386 . S
C1317 C1321 1.393 . S
C1318 H1310 0.950 . S
C1318 C1316 1.391 . S
C1318 C1319 1.400 . S
C1319 C1318 1.400 . S
C1319 C1320 1.398 . S
C1319 C1325 1.491 . S
C1320 H1311 0.950 . S
C1320 C1319 1.398 . S
C1320 C1321 1.391 . S
C1321 H1309 0.950 . S
C1321 C1317 1.393 . S
C1321 C1320 1.391 . S
C1322 H1312 0.950 . S
C1322 C1323 1.386 . S
C1322 C1324 1.391 . S
C1323 C1322 1.386 . S
C1323 C1327 1.393 . S
C1324 H1313 0.942 1_545 S
C1324 C1322 1.391 . S
C1324 C1325 1.400 1_545 S
C1325 C1319 1.491 . S
C1325 C1324 1.400 1_565 S
C1325 C1326 1.398 1_565 S
C1326 H1314 0.950 . S
C1326 C1325 1.398 1_545 S
C1326 C1327 1.391 . S
C1327 H1315 0.950 . S
C1327 C1323 1.393 . S
C1327 C1326 1.391 . S
C377 C18 1.538 . S
C383 C225 1.541 . S
C397 C41 1.541 . S
C403 C202 1.538 . S
C417 C271 1.533 . S
C423 C64 1.547 . S
C437 C87 1.535 . S
C443 C248 1.546 . S
C457 C317 1.453 . S
C463 C110 1.454 . S
C477 C294 1.461 . S
C483 C133 1.446 . S
C497 C363 1.452 . S
C503 C156 1.455 . S
C517 C179 1.459 . S
C523 C340 1.448 . S
C537 C66 1.420 . S
C543 C20 1.421 . S
C557 C89 1.423 . S
C563 C43 1.419 . S
C577 C157 1.407 . S
C583 C111 1.407 . S
C597 C134 1.430 1_565 S
C603 C180 1.431 1_545 S
C617 C250 1.426 . S
C623 C204 1.419 . S
C637 C273 1.428 . S
C643 C227 1.419 . S
C657 C295 1.430 . S
C663 C341 1.431 . S
C677 C318 1.424 . S
C683 C364 1.427 . S
C697 C135 1.451 . S
C703 C19 1.424 . S
C717 C112 1.443 . S
C723 C42 1.425 . S
C737 C65 1.423 . S
C743 C181 1.450 . S
C757 C158 1.435 . S
C763 C88 1.432 . S
C777 C203 1.430 . S
C783 C319 1.437 . S
C797 C296 1.435 . S
C803 C226 1.445 . S
C817 C249 1.443 . S
C823 C365 1.432 . S
C837 C342 1.441 . S
C843 C272 1.441 . S
C857 C44 1.455 . S
C863 C21 1.447 . S
C877 C90 1.439 . S
C883 C67 1.440 . S
C897 C136 1.557 . S
C903 C113 1.551 . S
C917 C159 1.568 . S
C923 C182 1.563 . S
C937 C228 1.465 . S
C943 C205 1.465 . S
C957 C274 1.446 . S
C963 C251 1.453 . S
C977 C297 1.560 . S
C983 C320 1.566 . S
C997 C343 1.547 . S
C1003 C366 1.551 . S
C1017 C17 1.279 . S
C1023 C16 1.276 . S
C1037 C40 1.288 . S
C1043 C39 1.286 . S
C1057 C63 1.288 . S
C1063 C62 1.286 . S
C1077 C85 1.275 . S
C1083 C86 1.278 . S
C1097 C109 1.281 . S
C1103 C108 1.278 . S
C1117 C131 1.281 . S
C1123 C132 1.284 . S
C1137 C155 1.287 . S
C1143 C154 1.285 . S
C1157 C178 1.278 . S
C1163 C177 1.274 . S
C1177 C200 1.274 . S
C1183 C201 1.278 . S
C1197 C224 1.277 . S
C1203 C223 1.273 . S
C1217 C246 1.274 . S
C1223 C247 1.278 . S
C1237 C269 1.287 . S
C1243 C270 1.289 . S
C1257 C293 1.278 . S
C1263 C292 1.274 . S
C1277 C316 1.280 . S
C1283 C315 1.276 . S
C1297 C338 1.284 . S
C1303 C339 1.286 . S
C1317 C362 1.281 . S
C1323 C361 1.277 . S
