# Generated by pormake.
# Topology qtz-x, (6)-cn, num edge types: 1
# Building blocks:
#     Node 0, Type 0, BuildingBlock: KUMJIN_clean_sbu_0, # of connection points: 6
#     Node 1, Type 0, BuildingBlock: KUMJIN_clean_sbu_0, # of connection points: 6
#     Node 2, Type 0, BuildingBlock: KUMJIN_clean_sbu_0, # of connection points: 6
#     Edge 3, Type (0, 0), BuildingBlock: UVAHIK_clean_linker_0, # of connection points: 2
#     Edge 4, Type (0, 0), BuildingBlock: UVAHIK_clean_linker_0, # of connection points: 2
#     Edge 5, Type (0, 0), BuildingBlock: UVAHIK_clean_linker_0, # of connection points: 2
#     Edge 6, Type (0, 0), BuildingBlock: UVAHIK_clean_linker_0, # of connection points: 2
#     Edge 7, Type (0, 0), BuildingBlock: UVAHIK_clean_linker_0, # of connection points: 2
#     Edge 8, Type (0, 0), BuildingBlock: UVAHIK_clean_linker_0, # of connection points: 2
#     Edge 9, Type (0, 0), BuildingBlock: UVAHIK_clean_linker_0, # of connection points: 2
#     Edge 10, Type (0, 0), BuildingBlock: UVAHIK_clean_linker_0, # of connection points: 2
#     Edge 11, Type (0, 0), BuildingBlock: UVAHIK_clean_linker_0, # of connection points: 2
# Relax obj value: 0.167
# Max RMSD: 0.276
# Mean RMSD: 0.276
data_MOF--net-qtz-x--node1-KUMJIN_clean_sbu_0--edge1-UVAHIK_clean_linker_0
_symmetry_space_group_name_H-M    P1
_symmetry_Int_Tables_number       1
_symmetry_cell_setting            triclinic
loop_
_symmetry_equiv_pos_as_xyz
'x, y, z'
_cell_length_a     19.426684
_cell_length_b     19.443958
_cell_length_c     62.114347
_cell_angle_alpha  90.213529
_cell_angle_beta   89.741099
_cell_angle_gamma 119.79134
loop_
_atom_site_label
_atom_site_type_symbol
_atom_site_fract_x
_atom_site_fract_y
_atom_site_fract_z
_atom_type_partial_charge
Eu0 Eu 0.26251 0.50833 0.19052 0.0
C1 C 0.91597 0.45289 0.18191 0.0
C2 C 0.83576 0.34521 0.20628 0.0
C3 C 0.79831 0.44458 0.19841 0.0
C4 C 0.90251 0.3853 0.19272 0.0
C5 C 0.8633 0.4826 0.18433 0.0
C6 C 0.7846 0.37603 0.20938 0.0
C7 C 0.93985 0.58188 0.15761 0.0
N8 N 0.97904 0.48796 0.16838 0.0
C9 C -0.0098 0.55 0.1557 0.0
C10 C 0.87657 0.54857 0.17216 0.0
Eu11 Eu 0.06281 0.43205 0.16637 0.0
N12 N 0.95276 0.35682 0.18925 0.0
C13 C 0.93658 0.28552 0.19765 0.0
C14 C 0.8214 0.27432 0.21591 0.0
C15 C 0.8715 0.24385 0.21135 0.0
H16 H 0.03926 0.57625 0.14451 0.0
H17 H 0.86016 0.18836 0.2184 0.0
H18 H 0.73336 0.34639 0.21987 0.0
H19 H 0.94998 0.63218 0.1479 0.0
H20 H 0.97493 0.26146 0.19432 0.0
H21 H 0.46129 0.7527 0.13805 0.0
H22 H 0.77094 0.24186 0.2265 0.0
H23 H 0.2905 0.36727 0.21251 0.0
H24 H 0.34862 0.67958 0.16275 0.0
H25 H 0.38051 0.3123 0.20857 0.0
H26 H 0.75746 0.46681 0.20061 0.0
H27 H 0.55019 0.69955 0.12911 0.0
H28 H 0.58896 0.59557 0.13521 0.0
H29 H 0.83753 0.57325 0.17358 0.0
H30 H 0.56737 0.47605 0.15451 0.0
N31 N 0.37162 0.58454 0.16741 0.0
C32 C 0.38687 0.65568 0.1591 0.0
C33 C 0.50065 0.66707 0.13998 0.0
C34 C 0.48739 0.59642 0.14952 0.0
C35 C 0.45076 0.69737 0.14503 0.0
C36 C 0.42179 0.5563 0.16346 0.0
H37 H 0.49046 0.37065 0.18211 0.0
N38 N 0.348 0.45448 0.18822 0.0
C39 C 0.38928 0.36195 0.19877 0.0
C40 C 0.40971 0.48922 0.17425 0.0
C41 C 0.33856 0.3933 0.201 0.0
C42 C 0.45112 0.3949 0.18377 0.0
C43 C 0.46268 0.46005 0.17149 0.0
O44 O 0.29544 0.51527 0.22438 0.0
O45 O 0.13306 0.45639 0.19642 0.0
O46 O 0.09192 0.54165 0.18538 0.0
O47 O 0.2302 0.60472 0.18477 0.0
O48 O 0.19034 0.41435 0.21554 0.0
O49 O 0.33253 0.62312 0.20627 0.0
O50 O 0.02959 0.42453 0.13254 0.0
O51 O 0.19217 0.48318 0.16043 0.0
O52 O 0.23265 0.39745 0.172 0.0
O53 O 0.09424 0.33507 0.17207 0.0
O54 O 0.13532 0.52532 0.14124 0.0
O55 O -0.00956 0.31693 0.15105 0.0
C56 C 0.12327 0.41041 0.21182 0.0
C57 C 0.41497 0.62742 0.23482 0.0
C58 C 0.49648 0.68108 0.26703 0.0
C59 C 0.42203 0.64639 0.25685 0.0
C60 C 0.56361 0.69566 0.25485 0.0
C61 C 0.48248 0.64188 0.22298 0.0
C62 C 0.55642 0.67581 0.233 0.0
C63 C 0.16267 0.60543 0.1872 0.0
C64 C 0.33671 0.59237 0.22453 0.0
C65 C 0.52636 0.49791 0.15699 0.0
C66 C 0.53864 0.56595 0.146 0.0
C67 C 0.20224 0.52894 0.14495 0.0
C68 C 0.90575 0.31552 0.12332 0.0
C69 C 0.89924 0.32311 0.10105 0.0
C70 C 0.8245 0.29438 0.09136 0.0
C71 C 0.75609 0.25724 0.10435 0.0
C72 C 0.83678 0.27899 0.13603 0.0
C73 C 0.7624 0.24979 0.12652 0.0
C74 C 0.1617 0.33391 0.17009 0.0
C75 C 0.98512 0.34764 0.13289 0.0
H76 H 0.3698 0.63551 0.26595 0.0
H77 H 0.62158 0.72175 0.26227 0.0
H78 H 0.47809 0.62723 0.20603 0.0
H79 H 0.60839 0.68693 0.2238 0.0
H80 H 0.95258 0.35122 0.09126 0.0
H81 H 0.69777 0.2354 0.09744 0.0
H82 H 0.84027 0.27314 0.15326 0.0
H83 H 0.70942 0.2218 0.13639 0.0
Eu84 Eu 0.62805 0.93354 0.52783 0.0
C85 C 0.89789 0.27437 0.51337 0.0
C86 C 0.87952 0.34477 0.54302 0.0
C87 C 0.01185 0.38956 0.52879 0.0
C88 C 0.84848 0.28193 0.52801 0.0
C89 C 0.97982 0.32953 0.51311 0.0
C90 C 0.96175 0.39709 0.54375 0.0
C91 C -0.00969 0.26799 0.48033 0.0
N92 N 0.86482 0.21635 0.49835 0.0
C93 C 0.90866 0.21496 0.48126 0.0
C94 C 0.02638 0.32463 0.49656 0.0
Eu95 Eu 0.72681 0.12721 0.50099 0.0
N96 N 0.76935 0.23117 0.52657 0.0
C97 C 0.71736 0.24369 0.53849 0.0
C98 C 0.82672 0.3549 0.55623 0.0
C99 C 0.7452 0.30507 0.55365 0.0
H100 H 0.88081 0.17127 0.46867 0.0
H101 H 0.70374 0.31347 0.56345 0.0
H102 H 0.98682 0.44516 0.55533 0.0
H103 H 0.02529 0.26518 0.4671 0.0
H104 H 0.65429 0.2053 0.53681 0.0
H105 H 0.75449 0.73856 0.53411 0.0
H106 H 0.84813 0.40232 0.568 0.0
H107 H 0.46459 0.90191 0.50104 0.0
H108 H 0.73148 0.84843 0.54459 0.0
H109 H 0.37235 0.81011 0.47398 0.0
H110 H 0.07481 0.43198 0.52903 0.0
H111 H 0.68126 0.65207 0.50335 0.0
H112 H 0.57504 0.61264 0.47537 0.0
H113 H 0.08955 0.36594 0.49576 0.0
H114 H 0.46942 0.6308 0.45943 0.0
N115 N 0.65221 0.82874 0.51884 0.0
C116 C 0.70128 0.81235 0.53075 0.0
C117 C 0.6722 0.70105 0.50766 0.0
C118 C 0.6164 0.71362 0.49683 0.0
C119 C 0.71369 0.74974 0.52501 0.0
C120 C 0.60678 0.77814 0.50312 0.0
H121 H 0.39204 0.70275 0.45925 0.0
N122 N 0.53653 0.84774 0.50178 0.0
C123 C 0.42124 0.80316 0.47956 0.0
C124 C 0.5466 0.7875 0.49446 0.0
C125 C 0.47385 0.85523 0.49495 0.0
C126 C 0.43261 0.74273 0.47125 0.0
C127 C 0.49538 0.73374 0.47884 0.0
O128 O 0.51502 0.8588 0.54422 0.0
O129 O 0.68512 0.06482 0.53258 0.0
O130 O 0.82162 0.09851 0.51063 0.0
O131 O 0.7519 0.96147 0.51784 0.0
O132 O 0.72257 0.00361 0.55237 0.0
O133 O 0.62469 0.89228 0.56067 0.0
O134 O 0.72253 0.14704 0.46645 0.0
O135 O 0.64345 -0.00332 0.4967 0.0
O136 O 0.54718 0.98498 0.53083 0.0
O137 O 0.60271 0.09931 0.50976 0.0
O138 O 0.74043 0.05101 0.47597 0.0
O139 O 0.69458 0.21323 0.48924 0.0
C140 C 0.7302 0.07196 0.54815 0.0
C141 C 0.51677 0.76799 0.56943 0.0
C142 C 0.50064 0.68044 0.5995 0.0
C143 C 0.52489 0.75663 0.5914 0.0
C144 C 0.46686 0.61543 0.5853 0.0
C145 C 0.4832 0.70241 0.5555 0.0
C146 C 0.45803 0.6265 0.56348 0.0
C147 C 0.81793 0.0298 0.51448 0.0
C148 C 0.54795 0.84916 0.5613 0.0
C149 C 0.50755 0.67209 0.4716 0.0
C150 C 0.56788 0.66194 0.48061 0.0
C151 C 0.67723 0.98552 0.48061 0.0
C152 C 0.76123 0.27858 0.45704 0.0
C153 C 0.76731 0.27492 0.43453 0.0
C154 C 0.81729 0.34348 0.42261 0.0
C155 C 0.86095 0.41598 0.43354 0.0
C156 C 0.80622 0.35155 0.46764 0.0
C157 C 0.85549 0.41976 0.45589 0.0
C158 C 0.54562 0.04571 0.52197 0.0
C159 C 0.70915 0.20557 0.46917 0.0
H160 H 0.55246 0.80758 0.60204 0.0
H161 H 0.44711 0.55599 0.59109 0.0
H162 H 0.47708 0.70985 0.53847 0.0
H163 H 0.4322 0.5761 0.55268 0.0
H164 H 0.73289 0.2187 0.4263 0.0
H165 H 0.90063 0.46955 0.42485 0.0
H166 H 0.80368 0.356 0.48498 0.0
H167 H 0.89005 0.47572 0.46416 0.0
Eu168 Eu 0.61282 0.52274 0.85481 0.0
C169 C 0.69854 0.26045 0.83921 0.0
C170 C 0.76851 0.25859 0.87114 0.0
C171 C 0.68671 0.13636 0.85151 0.0
C172 C 0.74718 0.29975 0.85638 0.0
C173 C 0.6692 0.17857 0.83625 0.0
C174 C 0.7363 0.17633 0.86894 0.0
C175 C 0.61409 0.18782 0.80235 0.0
N176 N 0.68337 0.30328 0.82474 0.0
C177 C 0.64487 0.26893 0.80594 0.0
C178 C 0.62524 0.14214 0.81773 0.0
Eu179 Eu 0.73364 0.44004 0.83262 0.0
N180 N 0.77809 0.37927 0.8578 0.0
C181 C 0.83618 0.42226 0.87243 0.0
C182 C 0.82388 0.30181 0.88714 0.0
C183 C 0.85903 0.38422 0.88752 0.0
H184 H 0.63597 0.30337 0.79385 0.0
H185 H 0.90356 0.41852 0.89945 0.0
H186 H 0.75131 0.14354 0.88024 0.0
H187 H 0.58191 0.16065 0.7877 0.0
H188 H 0.864 0.48603 0.87283 0.0
H189 H 0.30296 0.3203 0.87636 0.0
H190 H 0.84176 0.27246 0.89881 0.0
H191 H 0.68576 0.68623 0.82416 0.0
H192 H 0.44817 0.38383 0.87987 0.0
H193 H 0.63852 0.7476 0.7978 0.0
H194 H 0.66407 0.07329 0.84963 0.0
H195 H 0.24451 0.36335 0.84776 0.0
H196 H 0.26514 0.45763 0.8176 0.0
H197 H 0.60163 0.07939 0.81486 0.0
H198 H 0.35665 0.57405 0.79616 0.0
N199 N 0.47225 0.45999 0.85291 0.0
C200 C 0.4236 0.40301 0.86725 0.0
C201 C 0.3084 0.39123 0.84916 0.0
C202 C 0.35849 0.45324 0.83547 0.0
C203 C 0.34116 0.36687 0.86534 0.0
C204 C 0.44124 0.48745 0.83796 0.0
H205 H 0.49583 0.68331 0.78891 0.0
N206 N 0.57142 0.58675 0.82984 0.0
C207 C 0.59678 0.69256 0.80553 0.0
C208 C 0.49254 0.5528 0.82599 0.0
C209 C 0.62335 0.65741 0.8205 0.0
C210 C 0.51626 0.65601 0.80051 0.0
C211 C 0.46276 0.58604 0.81108 0.0
O212 O 0.63336 0.63647 0.86762 0.0
O213 O 0.69435 0.47523 0.86231 0.0
O214 O 0.60782 0.34096 0.83836 0.0
O215 O 0.53232 0.40513 0.83865 0.0
O216 O 0.59017 0.42961 0.87986 0.0
O217 O 0.60847 0.54173 0.88949 0.0
O218 O 0.78953 0.47505 0.80081 0.0
O219 O 0.67985 0.51706 0.82642 0.0
O220 O 0.73747 0.61884 0.84606 0.0
O221 O 0.80649 0.55261 0.8519 0.0
O222 O 0.66699 0.43649 0.80256 0.0
O223 O 0.85986 0.48078 0.82798 0.0
C224 C 0.65481 0.42752 0.87716 0.0
C225 C 0.55379 0.6221 0.89827 0.0
C226 C 0.48311 0.61852 0.93134 0.0
C227 C 0.54603 0.61552 0.92085 0.0
C228 C 0.42916 0.63 0.91899 0.0
C229 C 0.49885 0.63321 0.8863 0.0
C230 C 0.43732 0.63761 0.89666 0.0
C231 C 0.53977 0.34109 0.837 0.0
C232 C 0.61529 0.61109 0.88731 0.0
C233 C 0.38059 0.54988 0.80771 0.0
C234 C 0.32851 0.48361 0.81991 0.0
C235 C 0.65027 0.49024 0.80813 0.0
C236 C 0.89185 0.44477 0.79427 0.0
C237 C 0.8773 0.4328 0.77196 0.0
C238 C 0.90963 0.39465 0.7596 0.0
C239 C 0.9574 0.36917 0.76988 0.0
C240 C 0.94022 0.41906 0.80406 0.0
C241 C 0.97259 0.38153 0.79191 0.0
C242 C 0.80425 0.61908 0.8501 0.0
C243 C 0.85727 0.48464 0.80715 0.0
H244 H 0.58726 0.60532 0.93013 0.0
H245 H 0.38064 0.63329 0.92663 0.0
H246 H 0.50271 0.63748 0.86891 0.0
H247 H 0.39522 0.64608 0.88731 0.0
H248 H 0.84128 0.4537 0.7642 0.0
H249 H 0.98208 0.33844 0.76098 0.0
H250 H 0.953 0.4277 0.82113 0.0
H251 H 0.00933 0.36149 0.79962 0.0
C252 C 0.09719 0.68504 0.19503 0.0
C253 C 0.16586 0.68213 0.18947 0.0
C254 C 0.09678 0.75631 0.19399 0.0
C255 C 0.22473 0.97249 0.19084 0.0
H256 H 0.04783 0.96243 0.15933 0.0
C257 C 0.22644 0.25312 0.16303 0.0
C258 C 0.15799 0.25685 0.16827 0.0
C259 C 0.22632 0.18168 0.16454 0.0
C260 C 0.09722 0.96593 0.16828 0.0
H261 H 0.28966 0.75236 0.18014 0.0
H262 H 0.28883 0.87679 0.17833 0.0
H263 H 0.05046 0.84068 0.16678 0.0
H264 H 0.03404 0.18783 0.17759 0.0
H265 H 0.03393 0.06309 0.18022 0.0
H266 H 0.27157 0.09776 0.1923 0.0
C267 C 0.2353 0.82393 0.18338 0.0
C268 C 0.09856 0.89642 0.17263 0.0
C269 C 0.23566 0.75261 0.18436 0.0
C270 C 0.08788 0.18695 0.17358 0.0
C271 C 0.08771 0.11544 0.17505 0.0
C272 C 0.22339 0.04199 0.18648 0.0
C273 C 0.16523 0.82588 0.18758 0.0
C274 C 0.16237 0.89919 0.18393 0.0
C275 C 0.15753 0.11274 0.17113 0.0
C276 C 0.15972 0.03926 0.17512 0.0
H277 H 0.04302 0.63189 0.19956 0.0
H278 H 0.04246 0.7567 0.19775 0.0
H279 H 0.2742 0.97599 0.19974 0.0
H280 H 0.28083 0.30578 0.15835 0.0
H281 H 0.28045 0.18066 0.16098 0.0
C282 C 0.46244 0.10688 0.51426 0.0
C283 C 0.47765 0.05626 0.52686 0.0
C284 C 0.3954 0.1134 0.51821 0.0
C285 C 0.19659 -0.0057 0.53954 0.0
H286 H 0.18465 0.18436 0.52855 0.0
C287 C 0.9018 -0.00402 0.53672 0.0
C288 C 0.89286 0.03197 0.51825 0.0
C289 C 0.97532 0.00445 0.54169 0.0
C290 C 0.18747 0.13106 0.53173 0.0
H291 H 0.43835 0.97709 0.55441 0.0
H292 H 0.32152 0.98924 0.56142 0.0
H293 H 0.31426 0.19358 0.5319 0.0
H294 H 0.95169 0.10342 0.49029 0.0
H295 H 0.08114 0.11897 0.49899 0.0
H296 H 0.06997 0.93152 0.53879 0.0
C297 C 0.36043 0.02241 0.54822 0.0
C298 C 0.26126 0.13628 0.53366 0.0
C299 C 0.42707 0.01532 0.54415 0.0
C300 C 0.95791 0.07624 0.50474 0.0
C301 C 0.03162 0.0852 0.50976 0.0
C302 C 0.12293 0.98921 0.53776 0.0
C303 C 0.34301 0.06996 0.53495 0.0
C304 C 0.26634 0.06752 0.53688 0.0
C305 C 0.0408 0.04967 0.52833 0.0
C306 C 0.11802 0.05714 0.53318 0.0
H307 H 0.5007 0.13939 0.50089 0.0
H308 H 0.38279 0.1496 0.50751 0.0
H309 H 0.1987 0.94014 0.54173 0.0
H310 H 0.85287 0.96396 0.54775 0.0
H311 H 0.9814 0.97704 0.55617 0.0
C312 C 0.9502 0.69594 0.85562 0.0
C313 C 0.87889 0.6947 0.85101 0.0
C314 C 0.02202 0.7666 0.85446 0.0
C315 C 0.16033 0.9329 0.86089 0.0
H316 H 0.19582 0.05834 0.80929 0.0
C317 C 0.46575 0.1945 0.84096 0.0
C318 C 0.46672 0.26452 0.835 0.0
C319 C 0.39451 0.1231 0.84153 0.0
C320 C 0.18643 0.02419 0.82384 0.0
H321 H 0.82618 0.76664 0.84249 0.0
H322 H 0.95216 0.89032 0.8405 0.0
H323 H 0.06797 0.93885 0.81488 0.0
H324 H 0.39543 0.31427 0.82349 0.0
H325 H 0.27055 0.19001 0.82522 0.0
H326 H 0.27834 0.01845 0.86999 0.0
C327 C 0.95222 0.83636 0.84475 0.0
C328 C 0.11342 0.95616 0.82706 0.0
C329 C 0.88029 0.76574 0.84601 0.0
C330 C 0.39606 0.26135 0.82855 0.0
C331 C 0.32474 0.1901 0.82929 0.0
C332 C 0.23321 0.00109 0.85772 0.0
C333 C 0.02361 0.83697 0.84861 0.0
C334 C 0.09991 0.91008 0.8456 0.0
C335 C 0.32318 0.12074 0.83625 0.0
C336 C 0.24689 0.04722 0.83916 0.0
H337 H 0.95091 0.6421 0.85961 0.0
H338 H 0.07649 0.76567 0.85739 0.0
H339 H 0.15085 0.89852 0.8754 0.0
H340 H 0.51936 0.19516 0.84599 0.0
H341 H 0.39499 0.07006 0.84657 0.0
C342 C 0.39597 0.55573 0.96348 0.0
C343 C 0.47161 0.60745 0.95503 0.0
C344 C 0.3833 0.54773 0.9857 0.0
C345 C 0.38101 0.51274 0.03342 0.0
H346 H 0.45583 0.70544 0.06692 0.0
C347 C 0.29324 0.5007 0.12255 0.0
C348 C 0.26073 0.54932 0.1274 0.0
C349 C 0.33691 0.51237 0.10358 0.0
C350 C 0.43502 0.65108 0.05782 0.0
H351 H 0.59366 0.69048 0.96328 0.0
H352 H 0.57128 0.67714 1.00235 0.0
H353 H 0.49601 0.71335 0.0292 0.0
H354 H 0.2502 0.64944 0.11671 0.0
H355 H 0.32642 0.67012 0.08364 0.0
H356 H 0.31757 0.45056 0.06169 0.0
C357 C 0.52188 0.64274 0.99167 0.0
C358 C 0.4585 0.65557 0.03627 0.0
C359 C 0.53479 0.65 0.96935 0.0
C360 C 0.27534 0.61166 0.11341 0.0
C361 C 0.31935 0.62369 0.09454 0.0
C362 C 0.35811 0.5082 0.05498 0.0
C363 C 0.44582 0.59176 1.00008 0.0
C364 C 0.42998 0.58655 0.02367 0.0
C365 C 0.34863 0.57271 0.08906 0.0
C366 C 0.38315 0.57742 0.06729 0.0
H367 H 0.34628 0.5216 0.95285 0.0
H368 H 0.32385 0.5086 0.99163 0.0
H369 H 0.35874 0.45844 0.02421 0.0
H370 H 0.2819 0.4514 0.13285 0.0
H371 H 0.35926 0.47252 0.09991 0.0
C372 C 0.82634 0.3976 0.38544 0.0
C373 C 0.82596 0.33956 0.39892 0.0
C374 C 0.84065 0.39766 0.36336 0.0
C375 C 0.85574 0.27644 0.31866 0.0
H376 H -0.00189 0.4827 0.29418 0.0
C377 C 0.04964 0.32624 0.24312 0.0
C378 C 0.06408 0.38873 0.2292 0.0
C379 C 0.0039 0.31269 0.26172 0.0
C380 C 0.95708 0.42468 0.30059 0.0
H381 H 0.83849 0.23492 0.39973 0.0
H382 H 0.86513 0.23578 0.36129 0.0
H383 H 0.95046 0.47361 0.33083 0.0
H384 H 0.04113 0.48543 0.22363 0.0
H385 H 0.96039 0.4613 0.25595 0.0
H386 H 0.86538 0.22775 0.28849 0.0
C387 C 0.85278 0.28047 0.36764 0.0
C388 C 0.92961 0.41939 0.32167 0.0
C389 C 0.83776 0.28005 0.38972 0.0
C390 C 0.02995 0.43603 0.23385 0.0
C391 C 0.98436 0.42266 0.25249 0.0
C392 C 0.88368 0.28177 0.29756 0.0
C393 C 0.85576 0.3401 0.35422 0.0
C394 C 0.87943 0.3452 0.33113 0.0
C395 C 0.97265 0.3622 0.26694 0.0
C396 C 0.93554 0.35596 0.28839 0.0
H397 H 0.81611 0.44345 0.39201 0.0
H398 H 0.8407 0.44346 0.35348 0.0
H399 H 0.81613 0.21837 0.32527 0.0
H400 H 0.07602 0.28948 0.23996 0.0
H401 H -0.00322 0.26618 0.27259 0.0
C402 C 0.55341 0.49064 0.78237 0.0
C403 C 0.62883 0.53027 0.79176 0.0
C404 C 0.53788 0.52004 0.76359 0.0
C405 C 0.64383 0.63038 0.71568 0.0
H406 H 0.44527 0.62104 0.70134 0.0
C407 C 0.49544 0.70776 0.63898 0.0
C408 C 0.51343 0.66925 0.62252 0.0
C409 C 0.50901 0.69796 0.66059 0.0
C410 C 0.5013 0.62463 0.70517 0.0
H411 H 0.74755 0.63046 0.78913 0.0
H412 H 0.7207 0.68248 0.7563 0.0
H413 H 0.46948 0.5959 0.73842 0.0
H414 H 0.56047 0.59097 0.61583 0.0
H415 H 0.58407 0.57386 0.65345 0.0
H416 H 0.6753 0.6577 0.6825 0.0
C417 C 0.67312 0.62938 0.76352 0.0
C418 C 0.51492 0.60977 0.72634 0.0
C419 C 0.68835 0.60025 0.78237 0.0
C420 C 0.54528 0.62083 0.62814 0.0
C421 C 0.55956 0.61169 0.64967 0.0
C422 C 0.62997 0.64454 0.69456 0.0
C423 C 0.59833 0.58841 0.75359 0.0
C424 C 0.58604 0.61159 0.73176 0.0
C425 C 0.54184 0.6503 0.66614 0.0
C426 C 0.55813 0.64066 0.68897 0.0
H427 H 0.50745 0.43533 0.78911 0.0
H428 H 0.48001 0.48656 0.75622 0.0
H429 H 0.69885 0.63136 0.71923 0.0
H430 H 0.47038 0.74508 0.63515 0.0
H431 H 0.49505 0.72868 0.67293 0.0
C432 C 0.65175 0.33303 0.9045 0.0
C433 C 0.68964 0.40936 0.89567 0.0
C434 C 0.6766 0.31881 0.92428 0.0
C435 C 0.77692 0.42644 0.97391 0.0
H436 H 0.7703 0.22984 0.98888 0.0
C437 C 0.86961 0.37761 0.05789 0.0
C438 C 0.81798 0.30508 0.0679 0.0
C439 C 0.86125 0.38918 0.03607 0.0
C440 C 0.77207 0.28491 0.98494 0.0
H441 H 0.782 0.53101 0.90035 0.0
H442 H 0.82728 0.50621 0.93454 0.0
H443 H 0.74505 0.25235 0.95175 0.0
H444 H 0.71875 0.18692 0.06262 0.0
H445 H 0.70364 0.20742 0.02454 0.0
H446 H 0.80335 0.45889 1.00703 0.0
C447 C 0.77824 0.4571 0.92639 0.0
C448 C 0.75753 0.29779 0.96368 0.0
C449 C 0.75314 0.47123 0.9067 0.0
C450 C 0.75892 0.24377 0.05544 0.0
C451 C 0.75083 0.2552 0.03357 0.0
C452 C 0.79187 0.41377 0.99507 0.0
C453 C 0.73905 0.38112 0.93571 0.0
C454 C 0.75919 0.36855 0.95794 0.0
C455 C 0.80128 0.3284 0.0237 0.0
C456 C 0.78903 0.34267 1.00089 0.0
H457 H 0.60139 0.28501 0.89642 0.0
H458 H 0.64432 0.25985 0.93107 0.0
H459 H 0.77696 0.48087 0.97026 0.0
H460 H 0.91533 0.42627 0.06705 0.0
H461 H 0.90154 0.446 0.02889 0.0
C462 C 0.56526 0.77828 0.2969 0.0
C463 C 0.50461 0.7035 0.29018 0.0
C464 C 0.57317 0.80003 0.3186 0.0
C465 C 0.52984 0.72088 0.37345 0.0
H466 H 0.5668 0.93056 0.38816 0.0
C467 C 0.57509 0.93547 0.45198 0.0
C468 C 0.63564 0.93051 0.46281 0.0
C469 C 0.54656 0.89656 0.43233 0.0
C470 C 0.55561 0.87144 0.38439 0.0
H471 H 0.40526 0.59246 0.301 0.0
H472 H 0.4197 0.63035 0.33912 0.0
H473 H 0.54233 0.88621 0.35081 0.0
H474 H 0.71466 0.88224 0.46177 0.0
H475 H 0.66398 0.81276 0.42744 0.0
H476 H 0.54494 0.70709 0.40712 0.0
C477 C 0.46085 0.6721 0.3275 0.0
C478 C 0.54241 0.84639 0.36295 0.0
C479 C 0.45225 0.65068 0.3057 0.0
C480 C 0.66638 0.88495 0.45391 0.0
C481 C 0.63732 0.84529 0.43432 0.0
C482 C 0.54402 0.74638 0.39495 0.0
C483 C 0.52116 0.74722 0.33416 0.0
C484 C 0.53025 0.77124 0.35719 0.0
C485 C 0.57875 0.85269 0.423 0.0
C486 C 0.55763 0.82223 0.4006 0.0
H487 H 0.60613 0.82045 0.2853 0.0
H488 H 0.62066 0.85806 0.32325 0.0
H489 H 0.52094 0.66274 0.36947 0.0
H490 H 0.55233 0.97239 0.45826 0.0
H491 H 0.50116 0.90305 0.42405 0.0
C492 C 0.81564 0.3536 0.72821 0.0
C493 C 0.89237 0.37951 0.73615 0.0
C494 C 0.79816 0.33369 0.70646 0.0
C495 C 0.88988 0.35113 0.65242 0.0
H496 H 0.69443 0.15578 0.641 0.0
C497 C 0.82938 0.16955 0.57358 0.0
C498 C 0.75152 0.12946 0.56577 0.0
C499 C 0.84681 0.21239 0.59287 0.0
C500 C 0.74858 0.21127 0.64377 0.0
H501 H 0.01177 0.40837 0.72713 0.0
H502 H 0.98091 0.37196 0.6894 0.0
H503 H 0.72395 0.2079 0.67744 0.0
H504 H 0.63043 0.10083 0.57184 0.0
H505 H 0.66063 0.17675 0.60533 0.0
H506 H 0.91507 0.35313 0.61869 0.0
C507 C 0.93427 0.36756 0.69992 0.0
C508 C 0.76556 0.24122 0.66474 0.0
C509 C 0.95174 0.38749 0.72165 0.0
C510 C 0.69131 0.1331 0.57736 0.0
C511 C 0.70856 0.17574 0.59663 0.0
C512 C 0.87285 0.32108 0.63138 0.0
C513 C 0.85694 0.33916 0.6921 0.0
C514 C 0.8368 0.31105 0.66941 0.0
C515 C 0.78617 0.21433 0.60492 0.0
C516 C 0.80231 0.25028 0.62685 0.0
H517 H 0.76832 0.34627 0.73892 0.0
H518 H 0.73821 0.31305 0.70095 0.0
H519 H 0.94481 0.40565 0.65538 0.0
H520 H 0.87617 0.16555 0.56511 0.0
H521 H 0.90696 0.24043 0.5989 0.0
loop_
_geom_bond_atom_site_label_1
_geom_bond_atom_site_label_2
_geom_bond_distance
_geom_bond_site_symmetry_2
_ccdc_geom_bond_type
Eu0 N31 2.657 . S
Eu0 N38 2.609 . S
Eu0 O44 2.558 . S
Eu0 O45 2.612 1_455 S
Eu0 O47 2.339 . S
Eu0 O48 2.564 . S
Eu0 O49 2.419 . S
Eu0 O51 2.380 . S
Eu0 O52 2.432 . S
Eu0 C64 2.848 . S
C1 C4 1.429 . S
C1 C5 1.411 . S
C1 N8 1.377 . S
C2 C4 1.420 . S
C2 C6 1.423 . S
C2 C14 1.392 . S
C3 C5 1.420 . S
C3 C6 1.351 . S
C3 H26 0.931 . S
C4 C1 1.429 . S
C4 C2 1.420 . S
C4 N12 1.362 . S
C5 C1 1.411 . S
C5 C3 1.420 . S
C5 C10 1.395 . S
C6 C2 1.423 . S
C6 C3 1.351 . S
C6 H18 0.930 . S
C7 C9 1.400 . S
C7 C10 1.386 . S
C7 H19 0.930 . S
N8 C1 1.377 . S
N8 C9 1.321 . S
N8 Eu11 2.609 . S
C9 C7 1.400 . S
C9 N8 1.321 . S
C9 H16 0.930 . S
C10 C5 1.395 . S
C10 C7 1.386 . S
C10 H29 0.930 . S
Eu11 N8 2.609 . S
Eu11 N12 2.657 . S
Eu11 O45 2.380 . S
Eu11 O46 2.432 . S
Eu11 O50 2.558 . S
Eu11 O51 2.612 1_655 S
Eu11 O53 2.339 . S
Eu11 O54 2.563 1_655 S
Eu11 O55 2.419 . S
Eu11 C75 2.848 . S
N12 C4 1.362 . S
N12 Eu11 2.657 . S
N12 C13 1.334 . S
C13 N12 1.334 . S
C13 C15 1.413 . S
C13 H20 0.929 . S
C14 C2 1.392 . S
C14 C15 1.367 . S
C14 H22 0.930 . S
C15 C13 1.413 . S
C15 C14 1.367 . S
C15 H17 0.930 . S
H16 C9 0.930 . S
H17 C15 0.930 . S
H18 C6 0.930 . S
H19 C7 0.930 . S
H20 C13 0.929 . S
H21 C35 0.930 . S
H22 C14 0.930 . S
H23 C41 0.930 . S
H24 C32 0.929 . S
H25 C39 0.930 . S
H26 C3 0.931 . S
H27 C33 0.930 . S
H28 C66 0.930 . S
H29 C10 0.930 . S
H30 C65 0.931 . S
N31 Eu0 2.657 . S
N31 C32 1.334 . S
N31 C36 1.362 . S
C32 H24 0.929 . S
C32 N31 1.334 . S
C32 C35 1.413 . S
C33 H27 0.930 . S
C33 C34 1.392 . S
C33 C35 1.367 . S
C34 C33 1.392 . S
C34 C36 1.420 . S
C34 C66 1.423 . S
C35 H21 0.930 . S
C35 C32 1.413 . S
C35 C33 1.367 . S
C36 N31 1.362 . S
C36 C34 1.420 . S
C36 C40 1.429 . S
H37 C42 0.930 . S
N38 Eu0 2.609 . S
N38 C40 1.377 . S
N38 C41 1.321 . S
C39 H25 0.930 . S
C39 C41 1.400 . S
C39 C42 1.386 . S
C40 C36 1.429 . S
C40 N38 1.377 . S
C40 C43 1.411 . S
C41 H23 0.930 . S
C41 N38 1.321 . S
C41 C39 1.400 . S
C42 H37 0.930 . S
C42 C39 1.386 . S
C42 C43 1.395 . S
C43 C40 1.411 . S
C43 C42 1.395 . S
C43 C65 1.420 . S
O44 Eu0 2.558 . S
O44 C64 1.257 . S
O45 Eu0 2.612 1_655 S
O45 Eu11 2.380 . S
O45 C56 1.276 . S
O46 Eu11 2.432 . S
O46 C63 1.264 1_655 S
O47 Eu0 2.339 . S
O47 C63 1.254 . S
O48 Eu0 2.564 . S
O48 C56 1.234 1_455 S
O49 Eu0 2.419 . S
O49 C64 1.249 . S
O50 Eu11 2.558 . S
O50 C75 1.257 . S
O51 Eu0 2.380 . S
O51 Eu11 2.612 1_455 S
O51 C67 1.276 . S
O52 Eu0 2.432 . S
O52 C74 1.264 1_455 S
O53 Eu11 2.339 . S
O53 C74 1.254 . S
O54 Eu11 2.563 1_455 S
O54 C67 1.236 . S
O55 Eu11 2.419 . S
O55 C75 1.249 . S
C56 O45 1.276 . S
C56 O48 1.234 1_655 S
C57 C59 1.393 . S
C57 C61 1.395 . S
C57 C64 1.492 . S
C58 C59 1.392 . S
C58 C60 1.386 . S
C59 C57 1.393 . S
C59 C58 1.392 . S
C59 H76 0.930 . S
C60 C58 1.386 . S
C60 C62 1.395 . S
C60 H77 0.930 . S
C61 C57 1.395 . S
C61 C62 1.379 . S
C61 H78 0.930 . S
C62 C60 1.395 . S
C62 C61 1.379 . S
C62 H79 0.930 . S
C63 O46 1.264 1_455 S
C63 O47 1.254 . S
C64 Eu0 2.848 . S
C64 O44 1.257 . S
C64 O49 1.249 . S
C64 C57 1.492 . S
C65 H30 0.931 . S
C65 C43 1.420 . S
C65 C66 1.351 . S
C66 H28 0.930 . S
C66 C34 1.423 . S
C66 C65 1.351 . S
C67 O51 1.276 . S
C67 O54 1.236 . S
C68 C69 1.393 . S
C68 C72 1.395 . S
C68 C75 1.492 . S
C69 C68 1.393 . S
C69 C70 1.392 . S
C69 H80 0.930 . S
C70 C69 1.392 . S
C70 C71 1.386 . S
C71 C70 1.386 . S
C71 C73 1.395 . S
C71 H81 0.930 . S
C72 C68 1.395 . S
C72 C73 1.379 . S
C72 H82 0.930 . S
C73 C71 1.395 . S
C73 C72 1.379 . S
C73 H83 0.930 . S
C74 O52 1.264 1_655 S
C74 O53 1.254 . S
C75 Eu11 2.848 . S
C75 O50 1.257 . S
C75 O55 1.249 . S
C75 C68 1.492 . S
H76 C59 0.930 . S
H77 C60 0.930 . S
H78 C61 0.930 . S
H79 C62 0.930 . S
H80 C69 0.930 . S
H81 C71 0.930 . S
H82 C72 0.930 . S
H83 C73 0.930 . S
Eu84 N115 2.657 1_545 S
Eu84 N122 2.609 1_545 S
Eu84 O128 2.558 . S
Eu84 O129 2.612 . S
Eu84 O131 2.339 . S
Eu84 O132 2.563 . S
Eu84 O133 2.419 . S
Eu84 O135 2.380 . S
Eu84 O136 2.432 . S
Eu84 C148 2.848 1_545 S
C85 C88 1.429 . S
C85 C89 1.411 1_655 S
C85 N92 1.377 . S
C86 C88 1.420 . S
C86 C90 1.423 1_655 S
C86 C98 1.392 . S
C87 C89 1.420 . S
C87 C90 1.351 . S
C87 H110 0.931 . S
C88 C85 1.429 . S
C88 C86 1.420 . S
C88 N96 1.362 . S
C89 C85 1.411 1_455 S
C89 C87 1.420 . S
C89 C94 1.395 . S
C90 C86 1.423 1_455 S
C90 C87 1.351 . S
C90 H102 0.930 . S
C91 C93 1.400 . S
C91 C94 1.386 . S
C91 H103 0.930 . S
N92 C85 1.377 . S
N92 C93 1.321 1_655 S
N92 Eu95 2.609 . S
C93 C91 1.400 . S
C93 N92 1.321 1_455 S
C93 H100 0.930 . S
C94 C89 1.395 . S
C94 C91 1.386 . S
C94 H113 0.930 . S
Eu95 N92 2.609 . S
Eu95 N96 2.657 . S
Eu95 O129 2.380 . S
Eu95 O130 2.432 . S
Eu95 O134 2.558 . S
Eu95 O135 2.612 . S
Eu95 O137 2.339 . S
Eu95 O138 2.563 . S
Eu95 O139 2.419 . S
Eu95 C159 2.848 . S
N96 C88 1.362 . S
N96 Eu95 2.657 . S
N96 C97 1.334 . S
C97 N96 1.334 . S
C97 C99 1.413 . S
C97 H104 0.929 . S
C98 C86 1.392 . S
C98 C99 1.367 . S
C98 H106 0.930 . S
C99 C97 1.413 . S
C99 C98 1.367 . S
C99 H101 0.930 . S
H100 C93 0.930 . S
H101 C99 0.930 . S
H102 C90 0.930 . S
H103 C91 0.930 . S
H104 C97 0.929 . S
H105 C119 0.930 . S
H106 C98 0.930 . S
H107 C125 0.930 1_545 S
H108 C116 0.933 . S
H109 C123 0.930 . S
H110 C87 0.931 . S
H111 C117 0.930 . S
H112 C150 0.930 . S
H113 C94 0.930 . S
H114 C149 0.931 . S
N115 Eu84 2.657 1_565 S
N115 C116 1.334 . S
N115 C120 1.362 . S
C116 H108 0.933 . S
C116 N115 1.334 . S
C116 C119 1.413 . S
C117 H111 0.930 . S
C117 C118 1.392 . S
C117 C119 1.367 . S
C118 C117 1.392 . S
C118 C120 1.420 . S
C118 C150 1.423 . S
C119 H105 0.930 . S
C119 C116 1.413 . S
C119 C117 1.367 . S
C120 N115 1.362 . S
C120 C118 1.420 . S
C120 C124 1.429 . S
H121 C126 0.930 . S
N122 Eu84 2.609 1_565 S
N122 C124 1.377 . S
N122 C125 1.321 . S
C123 H109 0.930 . S
C123 C125 1.400 . S
C123 C126 1.386 . S
C124 C120 1.429 . S
C124 N122 1.377 . S
C124 C127 1.411 . S
C125 H107 0.930 1_565 S
C125 N122 1.321 . S
C125 C123 1.400 . S
C126 H121 0.930 . S
C126 C123 1.386 . S
C126 C127 1.395 . S
C127 C124 1.411 . S
C127 C126 1.395 . S
C127 C149 1.420 . S
O128 Eu84 2.558 . S
O128 C148 1.257 1_545 S
O129 Eu84 2.612 . S
O129 Eu95 2.380 . S
O129 C140 1.276 . S
O130 Eu95 2.432 . S
O130 C147 1.264 . S
O131 Eu84 2.339 . S
O131 C147 1.254 . S
O132 Eu84 2.563 . S
O132 C140 1.235 . S
O133 Eu84 2.419 . S
O133 C148 1.249 1_545 S
O134 Eu95 2.558 . S
O134 C159 1.257 . S
O135 Eu84 2.380 . S
O135 Eu95 2.612 . S
O135 C151 1.276 . S
O136 Eu84 2.432 . S
O136 C158 1.264 . S
O137 Eu95 2.339 . S
O137 C158 1.254 . S
O138 Eu95 2.563 . S
O138 C151 1.235 . S
O139 Eu95 2.419 . S
O139 C159 1.249 . S
C140 O129 1.276 . S
C140 O132 1.235 . S
C141 C143 1.393 . S
C141 C145 1.395 . S
C141 C148 1.492 . S
C142 C143 1.392 . S
C142 C144 1.386 . S
C143 C141 1.393 . S
C143 C142 1.392 . S
C143 H160 0.930 . S
C144 C142 1.386 . S
C144 C146 1.395 . S
C144 H161 0.930 . S
C145 C141 1.395 . S
C145 C146 1.379 . S
C145 H162 0.930 . S
C146 C144 1.395 . S
C146 C145 1.379 . S
C146 H163 0.930 . S
C147 O130 1.264 . S
C147 O131 1.254 . S
C148 Eu84 2.848 1_565 S
C148 O128 1.257 1_565 S
C148 O133 1.249 1_565 S
C148 C141 1.492 . S
C149 H114 0.931 . S
C149 C127 1.420 . S
C149 C150 1.351 . S
C150 H112 0.930 . S
C150 C118 1.423 . S
C150 C149 1.351 . S
C151 O135 1.276 . S
C151 O138 1.235 . S
C152 C153 1.393 . S
C152 C156 1.395 . S
C152 C159 1.492 . S
C153 C152 1.393 . S
C153 C154 1.392 . S
C153 H164 0.930 . S
C154 C153 1.392 . S
C154 C155 1.386 . S
C155 C154 1.386 . S
C155 C157 1.395 . S
C155 H165 0.930 . S
C156 C152 1.395 . S
C156 C157 1.379 . S
C156 H166 0.930 1_655 S
C157 C155 1.395 . S
C157 C156 1.379 . S
C157 H167 0.930 1_655 S
C158 O136 1.264 . S
C158 O137 1.254 . S
C159 Eu95 2.848 . S
C159 O134 1.257 . S
C159 O139 1.249 . S
C159 C152 1.492 . S
H160 C143 0.930 . S
H161 C144 0.930 . S
H162 C145 0.930 . S
H163 C146 0.930 . S
H164 C153 0.930 . S
H165 C155 0.930 . S
H166 C156 0.930 1_455 S
H167 C157 0.930 1_455 S
Eu168 N199 2.657 . S
Eu168 N206 2.609 . S
Eu168 O212 2.558 . S
Eu168 O213 2.612 . S
Eu168 O215 2.339 . S
Eu168 O216 2.563 . S
Eu168 O217 2.419 . S
Eu168 O219 2.380 . S
Eu168 O220 2.432 . S
Eu168 C232 2.848 . S
C169 C172 1.429 . S
C169 C173 1.411 . S
C169 N176 1.377 . S
C170 C172 1.420 . S
C170 C174 1.423 . S
C170 C182 1.392 1_655 S
C171 C173 1.420 . S
C171 C174 1.351 . S
C171 H194 0.931 . S
C172 C169 1.429 . S
C172 C170 1.420 . S
C172 N180 1.362 . S
C173 C169 1.411 . S
C173 C171 1.420 . S
C173 C178 1.395 . S
C174 C170 1.423 . S
C174 C171 1.351 . S
C174 H186 0.930 . S
C175 C177 1.400 . S
C175 C178 1.386 . S
C175 H187 0.930 . S
N176 C169 1.377 . S
N176 C177 1.321 . S
N176 Eu179 2.609 . S
C177 C175 1.400 . S
C177 N176 1.321 . S
C177 H184 0.930 . S
C178 C173 1.395 . S
C178 C175 1.386 . S
C178 H197 0.930 1_545 S
Eu179 N176 2.609 . S
Eu179 N180 2.657 . S
Eu179 O213 2.380 . S
Eu179 O214 2.432 . S
Eu179 O218 2.558 . S
Eu179 O219 2.612 . S
Eu179 O221 2.339 . S
Eu179 O222 2.563 . S
Eu179 O223 2.419 . S
Eu179 C243 2.848 . S
N180 C172 1.362 . S
N180 Eu179 2.657 . S
N180 C181 1.334 . S
C181 N180 1.334 . S
C181 C183 1.413 1_655 S
C181 H188 0.929 . S
C182 C170 1.392 1_455 S
C182 C183 1.367 . S
C182 H190 0.930 . S
C183 C181 1.413 1_455 S
C183 C182 1.367 . S
C183 H185 0.930 . S
H184 C177 0.930 . S
H185 C183 0.930 . S
H186 C174 0.930 . S
H187 C175 0.930 . S
H188 C181 0.929 . S
H189 C203 0.930 . S
H190 C182 0.930 . S
H191 C209 0.930 . S
H192 C200 0.929 . S
H193 C207 0.930 . S
H194 C171 0.931 . S
H195 C201 0.930 . S
H196 C234 0.930 . S
H197 C178 0.930 1_565 S
H198 C233 0.931 . S
N199 Eu168 2.657 . S
N199 C200 1.334 . S
N199 C204 1.362 . S
C200 H192 0.929 . S
C200 N199 1.334 . S
C200 C203 1.413 . S
C201 H195 0.930 . S
C201 C202 1.392 . S
C201 C203 1.367 . S
C202 C201 1.392 . S
C202 C204 1.420 . S
C202 C234 1.423 . S
C203 H189 0.930 . S
C203 C200 1.413 . S
C203 C201 1.367 . S
C204 N199 1.362 . S
C204 C202 1.420 . S
C204 C208 1.429 . S
H205 C210 0.930 . S
N206 Eu168 2.609 . S
N206 C208 1.377 . S
N206 C209 1.321 . S
C207 H193 0.930 . S
C207 C209 1.400 . S
C207 C210 1.386 . S
C208 C204 1.429 . S
C208 N206 1.377 . S
C208 C211 1.411 . S
C209 H191 0.930 . S
C209 N206 1.321 . S
C209 C207 1.400 . S
C210 H205 0.930 . S
C210 C207 1.386 . S
C210 C211 1.395 . S
C211 C208 1.411 . S
C211 C210 1.395 . S
C211 C233 1.420 . S
O212 Eu168 2.558 . S
O212 C232 1.257 . S
O213 Eu168 2.612 . S
O213 Eu179 2.380 . S
O213 C224 1.276 . S
O214 Eu179 2.432 . S
O214 C231 1.264 . S
O215 Eu168 2.339 . S
O215 C231 1.254 . S
O216 Eu168 2.563 . S
O216 C224 1.235 . S
O217 Eu168 2.419 . S
O217 C232 1.249 . S
O218 Eu179 2.558 . S
O218 C243 1.257 . S
O219 Eu168 2.380 . S
O219 Eu179 2.612 . S
O219 C235 1.276 . S
O220 Eu168 2.432 . S
O220 C242 1.264 . S
O221 Eu179 2.339 . S
O221 C242 1.254 . S
O222 Eu179 2.563 . S
O222 C235 1.235 . S
O223 Eu179 2.419 . S
O223 C243 1.249 . S
C224 O213 1.276 . S
C224 O216 1.235 . S
C225 C227 1.393 . S
C225 C229 1.395 . S
C225 C232 1.492 . S
C226 C227 1.392 . S
C226 C228 1.386 . S
C227 C225 1.393 . S
C227 C226 1.392 . S
C227 H244 0.930 . S
C228 C226 1.386 . S
C228 C230 1.395 . S
C228 H245 0.930 . S
C229 C225 1.395 . S
C229 C230 1.379 . S
C229 H246 0.930 . S
C230 C228 1.395 . S
C230 C229 1.379 . S
C230 H247 0.930 . S
C231 O214 1.264 . S
C231 O215 1.254 . S
C232 Eu168 2.848 . S
C232 O212 1.257 . S
C232 O217 1.249 . S
C232 C225 1.492 . S
C233 H198 0.931 . S
C233 C211 1.420 . S
C233 C234 1.351 . S
C234 H196 0.930 . S
C234 C202 1.423 . S
C234 C233 1.351 . S
C235 O219 1.276 . S
C235 O222 1.235 . S
C236 C237 1.393 . S
C236 C240 1.395 . S
C236 C243 1.492 . S
C237 C236 1.393 . S
C237 C238 1.392 . S
C237 H248 0.930 . S
C238 C237 1.392 . S
C238 C239 1.386 . S
C239 C238 1.386 . S
C239 C241 1.395 . S
C239 H249 0.930 . S
C240 C236 1.395 . S
C240 C241 1.379 . S
C240 H250 0.930 . S
C241 C239 1.395 . S
C241 C240 1.379 . S
C241 H251 0.930 . S
C242 O220 1.264 . S
C242 O221 1.254 . S
C243 Eu179 2.848 . S
C243 O218 1.257 . S
C243 O223 1.249 . S
C243 C236 1.492 . S
H244 C227 0.930 . S
H245 C228 0.930 . S
H246 C229 0.930 . S
H247 C230 0.930 . S
H248 C237 0.930 . S
H249 C239 0.930 . S
H250 C240 0.930 . S
H251 C241 0.930 . S
C252 C253 1.349 1_655 S
C252 C254 1.327 . S
C252 H277 0.950 . S
C253 C252 1.349 1_455 S
C253 C269 1.349 . S
C254 C252 1.327 . S
C254 C273 1.429 1_655 S
C254 H278 0.950 . S
C255 C272 1.574 . S
C255 C274 1.368 . S
C255 H279 0.949 . S
H256 C260 0.949 . S
C257 C258 1.349 1_455 S
C257 C259 1.327 . S
C257 H280 0.950 . S
C258 C257 1.349 1_655 S
C258 C270 1.349 . S
C259 C257 1.327 . S
C259 C275 1.429 1_455 S
C259 H281 0.950 . S
C260 H256 0.949 . S
C260 C268 1.574 . S
C260 C276 1.368 . S
H261 C269 0.950 . S
H262 C267 0.950 . S
H263 C268 0.949 . S
H264 C270 0.950 . S
H265 C271 0.950 . S
H266 C272 0.949 1_545 S
C267 H262 0.950 . S
C267 C269 1.327 . S
C267 C273 1.429 . S
C268 C260 1.574 . S
C268 H263 0.949 . S
C268 C274 1.368 1_655 S
C269 C253 1.349 . S
C269 H261 0.950 . S
C269 C267 1.327 . S
C270 C258 1.349 . S
C270 H264 0.950 . S
C270 C271 1.327 . S
C271 H265 0.950 . S
C271 C270 1.327 . S
C271 C275 1.429 . S
C272 C255 1.574 . S
C272 H266 0.949 1_565 S
C272 C276 1.368 1_455 S
C273 C254 1.429 1_455 S
C273 C267 1.429 . S
C273 C274 1.523 . S
C274 C255 1.368 . S
C274 C268 1.368 1_455 S
C274 C273 1.523 . S
C275 C259 1.429 1_655 S
C275 C271 1.429 . S
C275 C276 1.523 1_545 S
C276 C260 1.368 . S
C276 C272 1.368 1_655 S
C276 C275 1.523 1_565 S
H277 C252 0.950 . S
H278 C254 0.950 . S
H279 C255 0.949 . S
H280 C257 0.950 . S
H281 C259 0.950 . S
C282 C283 1.349 . S
C282 C284 1.327 . S
C282 H307 0.950 . S
C283 C282 1.349 . S
C283 C299 1.349 . S
C284 C282 1.327 . S
C284 C303 1.429 . S
C284 H308 0.950 . S
C285 C302 1.574 . S
C285 C304 1.368 . S
C285 H309 0.949 . S
H286 C290 0.949 . S
C287 C288 1.349 1_455 S
C287 C289 1.327 . S
C287 H310 0.950 1_455 S
C288 C287 1.349 1_655 S
C288 C300 1.349 1_655 S
C289 C287 1.327 . S
C289 C305 1.429 . S
C289 H311 0.950 . S
C290 H286 0.949 . S
C290 C298 1.574 . S
C290 C306 1.368 . S
H291 C299 0.950 . S
H292 C297 0.950 . S
H293 C298 0.949 . S
H294 C300 0.950 1_655 S
H295 C301 0.950 . S
H296 C302 0.949 . S
C297 H292 0.950 . S
C297 C299 1.327 . S
C297 C303 1.429 . S
C298 C290 1.574 . S
C298 H293 0.949 . S
C298 C304 1.368 . S
C299 C283 1.349 . S
C299 H291 0.950 . S
C299 C297 1.327 . S
C300 C288 1.349 1_455 S
C300 H294 0.950 1_455 S
C300 C301 1.327 . S
C301 H295 0.950 . S
C301 C300 1.327 . S
C301 C305 1.429 . S
C302 C285 1.574 . S
C302 H296 0.949 . S
C302 C306 1.368 . S
C303 C284 1.429 . S
C303 C297 1.429 . S
C303 C304 1.523 . S
C304 C285 1.368 . S
C304 C298 1.368 . S
C304 C303 1.523 . S
C305 C289 1.429 . S
C305 C301 1.429 . S
C305 C306 1.523 . S
C306 C290 1.368 . S
C306 C302 1.368 . S
C306 C305 1.523 . S
H307 C282 0.950 . S
H308 C284 0.950 . S
H309 C285 0.949 . S
H310 C287 0.950 1_655 S
H311 C289 0.950 . S
C312 C313 1.349 1_455 S
C312 C314 1.327 . S
C312 H337 0.950 1_455 S
C313 C312 1.349 1_655 S
C313 C329 1.349 1_655 S
C314 C312 1.327 . S
C314 C333 1.429 . S
C314 H338 0.950 . S
C315 C332 1.574 . S
C315 C334 1.368 . S
C315 H339 0.949 . S
H316 C320 0.949 1_545 S
C317 C318 1.349 . S
C317 C319 1.327 . S
C317 H340 0.950 . S
C318 C317 1.349 . S
C318 C330 1.349 . S
C319 C317 1.327 . S
C319 C335 1.429 . S
C319 H341 0.950 . S
C320 H316 0.949 1_565 S
C320 C328 1.574 . S
C320 C336 1.368 . S
H321 C329 0.950 . S
H322 C327 0.950 . S
H323 C328 0.949 . S
H324 C330 0.950 . S
H325 C331 0.950 . S
H326 C332 0.949 . S
C327 H322 0.950 . S
C327 C329 1.327 . S
C327 C333 1.429 . S
C328 C320 1.574 . S
C328 H323 0.949 . S
C328 C334 1.368 . S
C329 C313 1.349 1_455 S
C329 H321 0.950 . S
C329 C327 1.327 . S
C330 C318 1.349 . S
C330 H324 0.950 . S
C330 C331 1.327 . S
C331 H325 0.950 . S
C331 C330 1.327 . S
C331 C335 1.429 . S
C332 C315 1.574 . S
C332 H326 0.949 . S
C332 C336 1.368 . S
C333 C314 1.429 . S
C333 C327 1.429 . S
C333 C334 1.523 . S
C334 C315 1.368 . S
C334 C328 1.368 . S
C334 C333 1.523 . S
C335 C319 1.429 . S
C335 C331 1.429 . S
C335 C336 1.523 1_545 S
C336 C320 1.368 . S
C336 C332 1.368 . S
C336 C335 1.523 1_565 S
H337 C312 0.950 1_655 S
H338 C314 0.950 . S
H339 C315 0.949 . S
H340 C317 0.950 . S
H341 C319 0.950 . S
C342 C343 1.349 . S
C342 C344 1.327 . S
C342 H367 0.950 . S
C343 C342 1.349 . S
C343 C359 1.349 . S
C344 C342 1.327 . S
C344 C363 1.429 . S
C344 H368 0.950 . S
C345 C362 1.574 . S
C345 C364 1.368 . S
C345 H369 0.949 . S
H346 C350 0.949 . S
C347 C348 1.349 . S
C347 C349 1.327 . S
C347 H370 0.950 . S
C348 C347 1.349 . S
C348 C360 1.349 . S
C349 C347 1.327 . S
C349 C365 1.429 . S
C349 H371 0.950 . S
C350 H346 0.949 . S
C350 C358 1.574 . S
C350 C366 1.368 . S
H351 C359 0.950 . S
H352 C357 0.950 1_554 S
H353 C358 0.949 . S
H354 C360 0.950 . S
H355 C361 0.950 . S
H356 C362 0.949 . S
C357 H352 0.950 1_556 S
C357 C359 1.327 . S
C357 C363 1.429 . S
C358 C350 1.574 . S
C358 H353 0.949 . S
C358 C364 1.368 . S
C359 C343 1.349 . S
C359 H351 0.950 . S
C359 C357 1.327 . S
C360 C348 1.349 . S
C360 H354 0.950 . S
C360 C361 1.327 . S
C361 H355 0.950 . S
C361 C360 1.327 . S
C361 C365 1.429 . S
C362 C345 1.574 . S
C362 H356 0.949 . S
C362 C366 1.368 . S
C363 C344 1.429 . S
C363 C357 1.429 . S
C363 C364 1.523 1_556 S
C364 C345 1.368 . S
C364 C358 1.368 . S
C364 C363 1.523 1_554 S
C365 C349 1.429 . S
C365 C361 1.429 . S
C365 C366 1.523 . S
C366 C350 1.368 . S
C366 C362 1.368 . S
C366 C365 1.523 . S
H367 C342 0.950 . S
H368 C344 0.950 . S
H369 C345 0.949 . S
H370 C347 0.950 . S
H371 C349 0.950 . S
C372 C373 1.349 . S
C372 C374 1.327 . S
C372 H397 0.950 . S
C373 C372 1.349 . S
C373 C389 1.349 . S
C374 C372 1.327 . S
C374 C393 1.429 . S
C374 H398 0.950 . S
C375 C392 1.574 . S
C375 C394 1.368 . S
C375 H399 0.949 . S
H376 C380 0.949 . S
C377 C378 1.349 . S
C377 C379 1.327 . S
C377 H400 0.950 . S
C378 C377 1.349 . S
C378 C390 1.349 . S
C379 C377 1.327 . S
C379 C395 1.429 . S
C379 H401 0.950 . S
C380 H376 0.949 . S
C380 C388 1.574 . S
C380 C396 1.368 . S
H381 C389 0.950 . S
H382 C387 0.950 . S
H383 C388 0.949 . S
H384 C390 0.950 1_455 S
H385 C391 0.950 . S
H386 C392 0.949 . S
C387 H382 0.950 . S
C387 C389 1.327 . S
C387 C393 1.429 . S
C388 C380 1.574 . S
C388 H383 0.949 . S
C388 C394 1.368 . S
C389 C373 1.349 . S
C389 H381 0.950 . S
C389 C387 1.327 . S
C390 C378 1.349 . S
C390 H384 0.950 1_655 S
C390 C391 1.327 . S
C391 H385 0.950 . S
C391 C390 1.327 . S
C391 C395 1.429 . S
C392 C375 1.574 . S
C392 H386 0.949 . S
C392 C396 1.368 . S
C393 C374 1.429 . S
C393 C387 1.429 . S
C393 C394 1.523 . S
C394 C375 1.368 . S
C394 C388 1.368 . S
C394 C393 1.523 . S
C395 C379 1.429 . S
C395 C391 1.429 . S
C395 C396 1.523 . S
C396 C380 1.368 . S
C396 C392 1.368 . S
C396 C395 1.523 . S
H397 C372 0.950 . S
H398 C374 0.950 . S
H399 C375 0.949 . S
H400 C377 0.950 . S
H401 C379 0.950 . S
C402 C403 1.349 . S
C402 C404 1.327 . S
C402 H427 0.950 . S
C403 C402 1.349 . S
C403 C419 1.349 . S
C404 C402 1.327 . S
C404 C423 1.429 . S
C404 H428 0.950 . S
C405 C422 1.574 . S
C405 C424 1.368 . S
C405 H429 0.949 . S
H406 C410 0.949 . S
C407 C408 1.349 . S
C407 C409 1.327 . S
C407 H430 0.950 . S
C408 C407 1.349 . S
C408 C420 1.349 . S
C409 C407 1.327 . S
C409 C425 1.429 . S
C409 H431 0.950 . S
C410 H406 0.949 . S
C410 C418 1.574 . S
C410 C426 1.368 . S
H411 C419 0.950 . S
H412 C417 0.950 . S
H413 C418 0.949 . S
H414 C420 0.950 . S
H415 C421 0.950 . S
H416 C422 0.949 . S
C417 H412 0.950 . S
C417 C419 1.327 . S
C417 C423 1.429 . S
C418 C410 1.574 . S
C418 H413 0.949 . S
C418 C424 1.368 . S
C419 C403 1.349 . S
C419 H411 0.950 . S
C419 C417 1.327 . S
C420 C408 1.349 . S
C420 H414 0.950 . S
C420 C421 1.327 . S
C421 H415 0.950 . S
C421 C420 1.327 . S
C421 C425 1.429 . S
C422 C405 1.574 . S
C422 H416 0.949 . S
C422 C426 1.368 . S
C423 C404 1.429 . S
C423 C417 1.429 . S
C423 C424 1.523 . S
C424 C405 1.368 . S
C424 C418 1.368 . S
C424 C423 1.523 . S
C425 C409 1.429 . S
C425 C421 1.429 . S
C425 C426 1.523 . S
C426 C410 1.368 . S
C426 C422 1.368 . S
C426 C425 1.523 . S
H427 C402 0.950 . S
H428 C404 0.950 . S
H429 C405 0.949 . S
H430 C407 0.950 . S
H431 C409 0.950 . S
C432 C433 1.349 . S
C432 C434 1.327 . S
C432 H457 0.950 . S
C433 C432 1.349 . S
C433 C449 1.349 . S
C434 C432 1.327 . S
C434 C453 1.429 . S
C434 H458 0.950 . S
C435 C452 1.574 . S
C435 C454 1.368 . S
C435 H459 0.949 . S
H436 C440 0.949 . S
C437 C438 1.349 . S
C437 C439 1.327 . S
C437 H460 0.950 . S
C438 C437 1.349 . S
C438 C450 1.349 . S
C439 C437 1.327 . S
C439 C455 1.429 . S
C439 H461 0.950 . S
C440 H436 0.949 . S
C440 C448 1.574 . S
C440 C456 1.368 . S
H441 C449 0.950 . S
H442 C447 0.950 . S
H443 C448 0.949 . S
H444 C450 0.950 . S
H445 C451 0.950 . S
H446 C452 0.949 . S
C447 H442 0.950 . S
C447 C449 1.327 . S
C447 C453 1.429 . S
C448 C440 1.574 . S
C448 H443 0.949 . S
C448 C454 1.368 . S
C449 C433 1.349 . S
C449 H441 0.950 . S
C449 C447 1.327 . S
C450 C438 1.349 . S
C450 H444 0.950 . S
C450 C451 1.327 . S
C451 H445 0.950 . S
C451 C450 1.327 . S
C451 C455 1.429 . S
C452 C435 1.574 . S
C452 H446 0.949 . S
C452 C456 1.368 . S
C453 C434 1.429 . S
C453 C447 1.429 . S
C453 C454 1.523 . S
C454 C435 1.368 . S
C454 C448 1.368 . S
C454 C453 1.523 . S
C455 C439 1.429 . S
C455 C451 1.429 . S
C455 C456 1.523 1_554 S
C456 C440 1.368 . S
C456 C452 1.368 . S
C456 C455 1.523 1_556 S
H457 C432 0.950 . S
H458 C434 0.950 . S
H459 C435 0.949 . S
H460 C437 0.950 . S
H461 C439 0.950 . S
C462 C463 1.349 . S
C462 C464 1.327 . S
C462 H487 0.950 . S
C463 C462 1.349 . S
C463 C479 1.349 . S
C464 C462 1.327 . S
C464 C483 1.429 . S
C464 H488 0.950 . S
C465 C482 1.574 . S
C465 C484 1.368 . S
C465 H489 0.949 . S
H466 C470 0.949 1_545 S
C467 C468 1.349 1_565 S
C467 C469 1.327 . S
C467 H490 0.950 . S
C468 C467 1.349 1_545 S
C468 C480 1.349 . S
C469 C467 1.327 . S
C469 C485 1.429 . S
C469 H491 0.950 . S
C470 H466 0.949 1_565 S
C470 C478 1.574 . S
C470 C486 1.368 . S
H471 C479 0.950 . S
H472 C477 0.950 . S
H473 C478 0.949 . S
H474 C480 0.950 . S
H475 C481 0.950 . S
H476 C482 0.949 . S
C477 H472 0.950 . S
C477 C479 1.327 . S
C477 C483 1.429 . S
C478 C470 1.574 . S
C478 H473 0.949 . S
C478 C484 1.368 . S
C479 C463 1.349 . S
C479 H471 0.950 . S
C479 C477 1.327 . S
C480 C468 1.349 . S
C480 H474 0.950 . S
C480 C481 1.327 . S
C481 H475 0.950 . S
C481 C480 1.327 . S
C481 C485 1.429 1_545 S
C482 C465 1.574 . S
C482 H476 0.949 . S
C482 C486 1.368 . S
C483 C464 1.429 . S
C483 C477 1.429 . S
C483 C484 1.523 . S
C484 C465 1.368 . S
C484 C478 1.368 . S
C484 C483 1.523 . S
C485 C469 1.429 . S
C485 C481 1.429 1_565 S
C485 C486 1.523 . S
C486 C470 1.368 . S
C486 C482 1.368 . S
C486 C485 1.523 . S
H487 C462 0.950 . S
H488 C464 0.950 . S
H489 C465 0.949 . S
H490 C467 0.950 . S
H491 C469 0.950 . S
C492 C493 1.349 1_655 S
C492 C494 1.327 . S
C492 H517 0.950 . S
C493 C492 1.349 1_455 S
C493 C509 1.349 . S
C494 C492 1.327 . S
C494 C513 1.429 . S
C494 H518 0.950 . S
C495 C512 1.574 1_455 S
C495 C514 1.368 1_455 S
C495 H519 0.949 . S
H496 C500 0.949 . S
C497 C498 1.349 . S
C497 C499 1.327 . S
C497 H520 0.950 . S
C498 C497 1.349 . S
C498 C510 1.349 . S
C499 C497 1.327 . S
C499 C515 1.429 . S
C499 H521 0.950 . S
C500 H496 0.949 . S
C500 C508 1.574 . S
C500 C516 1.368 . S
H501 C509 0.950 . S
H502 C507 0.950 . S
H503 C508 0.949 . S
H504 C510 0.950 . S
H505 C511 0.950 . S
H506 C512 0.949 1_455 S
C507 H502 0.950 . S
C507 C509 1.327 . S
C507 C513 1.429 1_455 S
C508 C500 1.574 . S
C508 H503 0.949 . S
C508 C514 1.368 . S
C509 C493 1.349 . S
C509 H501 0.950 . S
C509 C507 1.327 . S
C510 C498 1.349 . S
C510 H504 0.950 . S
C510 C511 1.327 . S
C511 H505 0.950 . S
C511 C510 1.327 . S
C511 C515 1.429 . S
C512 C495 1.574 1_655 S
C512 H506 0.949 1_655 S
C512 C516 1.368 . S
C513 C494 1.429 . S
C513 C507 1.429 1_655 S
C513 C514 1.523 . S
C514 C495 1.368 1_655 S
C514 C508 1.368 . S
C514 C513 1.523 . S
C515 C499 1.429 . S
C515 C511 1.429 . S
C515 C516 1.523 . S
C516 C500 1.368 . S
C516 C512 1.368 . S
C516 C515 1.523 . S
H517 C492 0.950 . S
H518 C494 0.950 . S
H519 C495 0.949 . S
H520 C497 0.950 . S
H521 C499 0.950 . S
C253 C63 1.317 . S
C258 C74 1.317 . S
C283 C158 1.317 . S
C288 C147 1.317 . S
C313 C242 1.317 . S
C318 C231 1.317 . S
C343 C226 1.976 . S
C348 C67 2.136 . S
C373 C154 0.857 . S
C378 C56 0.923 . S
C403 C235 2.136 . S
C408 C142 1.976 . S
C433 C224 0.923 . S
C438 C70 0.857 . S
C463 C58 1.976 . S
C468 C151 2.136 . S
C493 C238 0.857 1_455 S
C498 C140 0.923 . S
