# Generated by pormake.
# Topology fnl, (5)-cn, num edge types: 1
# Building blocks:
#     Node 0, Type 0, BuildingBlock: BEQFEK_clean_sbu_0, # of connection points: 5
#     Node 1, Type 0, BuildingBlock: BEQFEK_clean_sbu_0, # of connection points: 5
#     Node 2, Type 0, BuildingBlock: BEQFEK_clean_sbu_0, # of connection points: 5
#     Node 3, Type 0, BuildingBlock: BEQFEK_clean_sbu_0, # of connection points: 5
#     Node 4, Type 0, BuildingBlock: BEQFEK_clean_sbu_0, # of connection points: 5
#     Node 5, Type 0, BuildingBlock: BEQFEK_clean_sbu_0, # of connection points: 5
#     Node 6, Type 0, BuildingBlock: BEQFEK_clean_sbu_0, # of connection points: 5
#     Node 7, Type 0, BuildingBlock: BEQFEK_clean_sbu_0, # of connection points: 5
#     Node 8, Type 0, BuildingBlock: BEQFEK_clean_sbu_0, # of connection points: 5
#     Node 9, Type 0, BuildingBlock: BEQFEK_clean_sbu_0, # of connection points: 5
#     Node 10, Type 0, BuildingBlock: BEQFEK_clean_sbu_0, # of connection points: 5
#     Node 11, Type 0, BuildingBlock: BEQFEK_clean_sbu_0, # of connection points: 5
#     Node 12, Type 0, BuildingBlock: BEQFEK_clean_sbu_0, # of connection points: 5
#     Node 13, Type 0, BuildingBlock: BEQFEK_clean_sbu_0, # of connection points: 5
#     Node 14, Type 0, BuildingBlock: BEQFEK_clean_sbu_0, # of connection points: 5
#     Node 15, Type 0, BuildingBlock: BEQFEK_clean_sbu_0, # of connection points: 5
#     Edge 16, Type (0, 0), BuildingBlock: XIVTED_clean_linker_0, # of connection points: 2
#     Edge 17, Type (0, 0), BuildingBlock: XIVTED_clean_linker_0, # of connection points: 2
#     Edge 18, Type (0, 0), BuildingBlock: XIVTED_clean_linker_0, # of connection points: 2
#     Edge 19, Type (0, 0), BuildingBlock: XIVTED_clean_linker_0, # of connection points: 2
#     Edge 20, Type (0, 0), BuildingBlock: XIVTED_clean_linker_0, # of connection points: 2
#     Edge 21, Type (0, 0), BuildingBlock: XIVTED_clean_linker_0, # of connection points: 2
#     Edge 22, Type (0, 0), BuildingBlock: XIVTED_clean_linker_0, # of connection points: 2
#     Edge 23, Type (0, 0), BuildingBlock: XIVTED_clean_linker_0, # of connection points: 2
#     Edge 24, Type (0, 0), BuildingBlock: XIVTED_clean_linker_0, # of connection points: 2
#     Edge 25, Type (0, 0), BuildingBlock: XIVTED_clean_linker_0, # of connection points: 2
#     Edge 26, Type (0, 0), BuildingBlock: XIVTED_clean_linker_0, # of connection points: 2
#     Edge 27, Type (0, 0), BuildingBlock: XIVTED_clean_linker_0, # of connection points: 2
#     Edge 28, Type (0, 0), BuildingBlock: XIVTED_clean_linker_0, # of connection points: 2
#     Edge 29, Type (0, 0), BuildingBlock: XIVTED_clean_linker_0, # of connection points: 2
#     Edge 30, Type (0, 0), BuildingBlock: XIVTED_clean_linker_0, # of connection points: 2
#     Edge 31, Type (0, 0), BuildingBlock: XIVTED_clean_linker_0, # of connection points: 2
#     Edge 32, Type (0, 0), BuildingBlock: XIVTED_clean_linker_0, # of connection points: 2
#     Edge 33, Type (0, 0), BuildingBlock: XIVTED_clean_linker_0, # of connection points: 2
#     Edge 34, Type (0, 0), BuildingBlock: XIVTED_clean_linker_0, # of connection points: 2
#     Edge 35, Type (0, 0), BuildingBlock: XIVTED_clean_linker_0, # of connection points: 2
#     Edge 36, Type (0, 0), BuildingBlock: XIVTED_clean_linker_0, # of connection points: 2
#     Edge 37, Type (0, 0), BuildingBlock: XIVTED_clean_linker_0, # of connection points: 2
#     Edge 38, Type (0, 0), BuildingBlock: XIVTED_clean_linker_0, # of connection points: 2
#     Edge 39, Type (0, 0), BuildingBlock: XIVTED_clean_linker_0, # of connection points: 2
#     Edge 40, Type (0, 0), BuildingBlock: XIVTED_clean_linker_0, # of connection points: 2
#     Edge 41, Type (0, 0), BuildingBlock: XIVTED_clean_linker_0, # of connection points: 2
#     Edge 42, Type (0, 0), BuildingBlock: XIVTED_clean_linker_0, # of connection points: 2
#     Edge 43, Type (0, 0), BuildingBlock: XIVTED_clean_linker_0, # of connection points: 2
#     Edge 44, Type (0, 0), BuildingBlock: XIVTED_clean_linker_0, # of connection points: 2
#     Edge 45, Type (0, 0), BuildingBlock: XIVTED_clean_linker_0, # of connection points: 2
#     Edge 46, Type (0, 0), BuildingBlock: XIVTED_clean_linker_0, # of connection points: 2
#     Edge 47, Type (0, 0), BuildingBlock: XIVTED_clean_linker_0, # of connection points: 2
#     Edge 48, Type (0, 0), BuildingBlock: XIVTED_clean_linker_0, # of connection points: 2
#     Edge 49, Type (0, 0), BuildingBlock: XIVTED_clean_linker_0, # of connection points: 2
#     Edge 50, Type (0, 0), BuildingBlock: XIVTED_clean_linker_0, # of connection points: 2
#     Edge 51, Type (0, 0), BuildingBlock: XIVTED_clean_linker_0, # of connection points: 2
#     Edge 52, Type (0, 0), BuildingBlock: XIVTED_clean_linker_0, # of connection points: 2
#     Edge 53, Type (0, 0), BuildingBlock: XIVTED_clean_linker_0, # of connection points: 2
#     Edge 54, Type (0, 0), BuildingBlock: XIVTED_clean_linker_0, # of connection points: 2
#     Edge 55, Type (0, 0), BuildingBlock: XIVTED_clean_linker_0, # of connection points: 2
# Relax obj value: 0.390
# Max RMSD: 0.231
# Mean RMSD: 0.231
data_MOF--net-fnl--node1-BEQFEK_clean_sbu_0--edge1-XIVTED_clean_linker_0
_symmetry_space_group_name_H-M    P1
_symmetry_Int_Tables_number       1
_symmetry_cell_setting            triclinic
loop_
_symmetry_equiv_pos_as_xyz
'x, y, z'
_cell_length_a     36.046709
_cell_length_b     35.93169
_cell_length_c     101.88818
_cell_angle_alpha  89.970716
_cell_angle_beta   90.013461
_cell_angle_gamma 90.022374
loop_
_atom_site_label
_atom_site_type_symbol
_atom_site_fract_x
_atom_site_fract_y
_atom_site_fract_z
_atom_type_partial_charge
Co0 Co 0.96922 0.08263 0.07551 0.0
Co1 Co -0.00436 0.16046 0.08491 0.0
C2 C 0.92576 0.12308 0.09547 0.0
O3 O 0.92957 0.09589 0.08762 0.0
O4 O 0.94938 0.14967 0.09582 0.0
C5 C 0.96159 0.00904 0.07604 0.0
O6 O 0.95378 0.01795 0.08825 0.0
C7 C 0.9937 0.24255 0.08801 0.0
C8 C 0.05319 0.25408 0.09133 0.0
C9 C 0.01893 0.27124 0.09025 0.0
N10 N 0.01246 0.21019 0.0877 0.0
N11 N 0.04796 0.21736 0.0897 0.0
C12 C 0.95244 0.2453 0.0867 0.0
H13 H 0.94532 0.25286 0.07645 0.0
H14 H 0.94138 0.26713 0.09334 0.0
H15 H 0.93916 0.21823 0.08894 0.0
C16 C 0.97494 0.11648 0.04972 0.0
N17 N 0.97627 0.11903 0.06284 0.0
N18 N 0.98843 0.15206 0.06634 0.0
C19 C -0.00423 0.17171 0.0553 0.0
C20 C 0.98709 0.14979 0.04443 0.0
C21 C 0.96646 0.08104 0.04257 0.0
H22 H 0.98689 0.05951 0.0455 0.0
H23 H 0.93849 0.07106 0.04545 0.0
H24 H 0.96769 0.08427 0.03177 0.0
O25 O 0.01604 0.07344 0.08501 0.0
O26 O 0.03674 0.1282 0.0916 0.0
H27 H 0.03776 0.21051 0.06102 0.0
H28 H 0.01755 0.21981 0.04505 0.0
C29 C 0.01178 0.2101 0.05518 0.0
H30 H 0.99193 0.22952 0.05987 0.0
H31 H 0.06872 0.19714 0.08992 0.0
O32 O 0.95973 0.03439 0.06743 0.0
C33 C 0.04039 0.09308 0.09077 0.0
Co34 Co 0.31149 0.88404 0.32424 0.0
Co35 Co 0.23772 0.90523 0.33772 0.0
C36 C 0.28416 0.83928 0.34676 0.0
O37 O 0.30812 0.84505 0.33781 0.0
O38 O 0.25546 0.85996 0.34779 0.0
C39 C 0.36807 0.84408 0.30924 0.0
O40 O 0.35528 0.81244 0.31385 0.0
C41 C 0.15778 0.9015 0.34335 0.0
C42 C 0.1494 0.95481 0.35379 0.0
C43 C 0.1311 0.92335 0.34941 0.0
N44 N 0.19037 0.9195 0.34403 0.0
N45 N 0.18517 0.95127 0.35031 0.0
C46 C 0.15323 0.86315 0.33786 0.0
H47 H 0.18065 0.84948 0.33671 0.0
H48 H 0.13973 0.86469 0.32811 0.0
H49 H 0.13513 0.84631 0.34438 0.0
C50 C 0.26563 0.88757 0.30062 0.0
N51 N 0.26858 0.8872 0.31377 0.0
N52 N 0.23749 0.89929 0.319 0.0
C53 C 0.21426 0.90939 0.30916 0.0
C54 C 0.23148 0.90195 0.29722 0.0
C55 C 0.29617 0.87732 0.29134 0.0
H56 H 0.30714 0.84954 0.294 0.0
H57 H 0.28637 0.87622 0.28103 0.0
H58 H 0.31879 0.89813 0.29208 0.0
O59 O 0.32285 0.93323 0.33236 0.0
O60 O 0.27001 0.9473 0.34221 0.0
H61 H 0.17293 0.94823 0.30232 0.0
H62 H 0.15576 0.91075 0.31226 0.0
C63 C 0.17899 0.93064 0.31102 0.0
H64 H 0.18074 0.94835 0.31991 0.0
H65 H 0.20606 0.97063 0.35223 0.0
O66 O 0.35372 0.87463 0.31281 0.0
C67 C 0.30333 0.95519 0.3393 0.0
Co68 Co 0.50956 0.24782 0.56567 0.0
Co69 Co 0.49834 0.16416 0.57199 0.0
C70 C 0.56499 0.20467 0.58187 0.0
O71 O 0.55358 0.23398 0.57611 0.0
O72 O 0.54682 0.17415 0.58124 0.0
C73 C 0.54687 0.31263 0.55492 0.0
O74 O 0.57872 0.29561 0.55669 0.0
C75 C 0.49698 0.08427 0.57937 0.0
C76 C 0.44254 0.06827 0.57108 0.0
C77 C 0.472 0.05485 0.57839 0.0
N78 N 0.48255 0.11371 0.57302 0.0
N79 N 0.45008 0.10389 0.5681 0.0
C80 C 0.5342 0.08445 0.58586 0.0
H81 H 0.55368 0.10216 0.58021 0.0
H82 H 0.5457 0.05588 0.58659 0.0
H83 H 0.53146 0.09635 0.59586 0.0
C84 C 0.49946 0.22225 0.53875 0.0
N85 N 0.50167 0.21539 0.55168 0.0
N86 N 0.4989 0.17944 0.55383 0.0
C87 C 0.49581 0.16211 0.54205 0.0
C88 C 0.49614 0.18892 0.53218 0.0
C89 C 0.49847 0.26028 0.53275 0.0
H90 H 0.48005 0.27849 0.53861 0.0
H91 H 0.52688 0.2721 0.53268 0.0
H92 H 0.488 0.2596 0.52251 0.0
O93 O 0.46595 0.25057 0.57714 0.0
O94 O 0.45967 0.19107 0.58237 0.0
H95 H 0.46438 0.11202 0.54063 0.0
H96 H 0.50506 0.11293 0.53044 0.0
C97 C 0.49382 0.12091 0.54019 0.0
H98 H 0.50943 0.10645 0.54807 0.0
H99 H 0.43259 0.12189 0.56295 0.0
O100 O 0.51681 0.29741 0.55853 0.0
C101 C 0.44961 0.22488 0.58346 0.0
Co102 Co 0.17867 0.48476 0.83187 0.0
Co103 Co 0.24874 0.44251 0.8411 0.0
C104 C 0.22259 0.51578 0.85324 0.0
O105 O 0.19836 0.52019 0.84436 0.0
O106 O 0.24307 0.48676 0.85351 0.0
C107 C 0.10963 0.51402 0.83258 0.0
O108 O 0.1211 0.52788 0.84381 0.0
C109 C 0.32961 0.43489 0.84239 0.0
C110 C 0.33622 0.37577 0.84789 0.0
C111 C 0.35614 0.40753 0.84471 0.0
N112 N 0.29582 0.41972 0.84392 0.0
N113 N 0.29994 0.38445 0.84728 0.0
C114 C 0.33574 0.47508 0.83919 0.0
H115 H 0.33915 0.4783 0.82843 0.0
H116 H 0.36112 0.48562 0.84412 0.0
H117 H 0.31138 0.49187 0.84221 0.0
C118 C 0.20951 0.47145 0.80597 0.0
N119 N 0.21315 0.472 0.81909 0.0
N120 N 0.24251 0.45281 0.82263 0.0
C121 C 0.25821 0.43847 0.81168 0.0
C122 C 0.23791 0.45007 0.80075 0.0
C123 C 0.1756 0.48526 0.799 0.0
H124 H 0.15128 0.46867 0.80222 0.0
H125 H 0.17053 0.51471 0.80173 0.0
H126 H 0.17795 0.4831 0.78819 0.0
O127 O 0.16063 0.43912 0.84117 0.0
O128 O 0.21042 0.40613 0.84645 0.0
H129 H 0.28297 0.38802 0.81864 0.0
H130 H 0.29535 0.39992 0.80189 0.0
C131 C 0.28955 0.41116 0.81181 0.0
H132 H 0.31494 0.42515 0.81544 0.0
H133 H 0.27798 0.36615 0.849 0.0
O134 O 0.13386 0.50575 0.82406 0.0
C135 C 0.17533 0.41006 0.84613 0.0
Co136 Co 0.96368 0.23625 0.92092 0.0
Co137 Co 0.98901 0.16154 0.90821 0.0
C138 C 0.91022 0.18737 0.90639 0.0
O139 O 0.91797 0.21496 0.91369 0.0
O140 O 0.93519 0.16412 0.90301 0.0
C141 C 0.92651 0.27927 0.94114 0.0
O142 O 0.91371 0.24763 0.94573 0.0
C143 C 0.99257 0.08074 0.90366 0.0
C144 C 0.05167 0.073 0.8986 0.0
C145 C 0.01889 0.05374 0.90069 0.0
N146 N 0.00912 0.11428 0.90334 0.0
N147 N 0.04435 0.10947 0.90016 0.0
C148 C 0.9534 0.07475 0.90805 0.0
H149 H 0.94401 0.09828 0.91426 0.0
H150 H 0.9508 0.04831 0.91361 0.0
H151 H 0.93515 0.07325 0.8993 0.0
C152 C 0.00218 0.20398 0.94387 0.0
N153 N 0.99038 0.20227 0.93136 0.0
N154 N -0.00346 0.1687 0.92672 0.0
C155 C 0.00992 0.14728 0.93658 0.0
C156 C 0.01414 0.16917 0.94773 0.0
C157 C 0.00122 0.23796 0.9523 0.0
H158 H 0.00034 0.2635 0.94624 0.0
H159 H 0.97677 0.23628 0.95886 0.0
H160 H 0.02623 0.23925 0.95863 0.0
O161 O -0.00513 0.25366 0.90642 0.0
O162 O 0.01686 0.20103 0.89797 0.0
H163 H 0.02782 0.09503 0.945 0.0
H164 H 0.99244 0.09168 0.93246 0.0
C165 C 0.01793 0.10659 0.93552 0.0
H166 H 0.03948 0.10198 0.92794 0.0
H167 H 0.06368 0.13101 0.8995 0.0
O168 O 0.94785 0.27971 0.93121 0.0
C169 C 0.01513 0.23657 0.89816 0.0
Co170 Co 0.18226 0.89229 0.16622 0.0
Co171 Co 0.2661 0.90539 0.162 0.0
C172 C 0.23128 0.83029 0.1576 0.0
O173 O 0.20027 0.84248 0.16175 0.0
O174 O 0.25955 0.8516 0.15655 0.0
C175 C 0.11415 0.87115 0.17975 0.0
O176 O 0.13242 0.84468 0.18586 0.0
C177 C 0.3483 0.90184 0.15991 0.0
C178 C 0.36236 0.95991 0.16512 0.0
C179 C 0.37797 0.92612 0.16166 0.0
N180 N 0.31674 0.9205 0.16241 0.0
N181 N 0.32541 0.95517 0.16545 0.0
C182 C 0.3494 0.86261 0.155 0.0
H183 H 0.326 0.85767 0.14817 0.0
H184 H 0.34636 0.8433 0.16344 0.0
H185 H 0.37579 0.85659 0.14983 0.0
C186 C 0.1998 0.92138 0.19258 0.0
N187 N 0.20954 0.91311 0.18017 0.0
N188 N 0.24586 0.9135 0.17919 0.0
C189 C 0.26038 0.91957 0.19126 0.0
C190 C 0.23144 0.92452 0.20015 0.0
C191 C 0.16105 0.92855 0.19717 0.0
H192 H 0.14379 0.93916 0.18899 0.0
H193 H 0.14906 0.90256 0.20117 0.0
H194 H 0.16105 0.94942 0.2052 0.0
O195 O 0.183 0.92392 0.15079 0.0
O196 O 0.24219 0.93915 0.14847 0.0
H197 H 0.31373 0.94476 0.19293 0.0
H198 H 0.30509 0.90884 0.20484 0.0
C199 C 0.3008 0.91708 0.19445 0.0
H200 H 0.31463 0.89675 0.18789 0.0
H201 H 0.30596 0.97565 0.16777 0.0
O202 O 0.13036 0.89031 0.17101 0.0
C203 C 0.20837 0.9418 0.14495 0.0
Co204 Co 0.5006 0.12373 0.40774 0.0
Co205 Co 0.49917 0.20216 0.39504 0.0
C206 C 0.56366 0.14777 0.39164 0.0
O207 O 0.54902 0.12383 0.39925 0.0
O208 O 0.5476 0.17869 0.38903 0.0
C209 C 0.51074 0.05631 0.42417 0.0
O210 O 0.54701 0.05988 0.42419 0.0
C211 C 0.51897 0.28138 0.39378 0.0
C212 C 0.47051 0.30414 0.3832 0.0
C213 C 0.5024 0.31455 0.38984 0.0
N214 N 0.49715 0.25304 0.38997 0.0
N215 N 0.46869 0.26679 0.3834 0.0
C216 C 0.5552 0.27619 0.40073 0.0
H217 H 0.56899 0.25053 0.39714 0.0
H218 H 0.5504 0.27261 0.41139 0.0
H219 H 0.57366 0.30052 0.39917 0.0
C220 C 0.4906 0.1655 0.43187 0.0
N221 N 0.49483 0.16453 0.41878 0.0
N222 N 0.49133 0.19821 0.41387 0.0
C223 C 0.48337 0.2217 0.42395 0.0
C224 C 0.48289 0.20145 0.43559 0.0
C225 C 0.4953 0.13271 0.44079 0.0
H226 H 0.52178 0.11859 0.43847 0.0
H227 H 0.4959 0.14082 0.45129 0.0
H228 H 0.47196 0.11307 0.43929 0.0
O229 O 0.4612 0.12184 0.39459 0.0
O230 O 0.45873 0.17711 0.38502 0.0
H231 H 0.45233 0.2697 0.43 0.0
H232 H 0.4984 0.27922 0.42447 0.0
C233 C 0.47352 0.26193 0.42258 0.0
H234 H 0.46265 0.26786 0.41264 0.0
H235 H 0.447 0.25081 0.37963 0.0
O236 O 0.49079 0.07905 0.41784 0.0
C237 C 0.4471 0.14393 0.38628 0.0
Co238 Co 0.32463 0.38234 0.68046 0.0
Co239 Co 0.24738 0.38508 0.66723 0.0
C240 C 0.29659 0.45088 0.66597 0.0
O241 O 0.32105 0.43333 0.67262 0.0
O242 O 0.26546 0.43599 0.66311 0.0
C243 C 0.38492 0.40272 0.69836 0.0
O244 O 0.37283 0.4372 0.69849 0.0
C245 C 0.16808 0.39692 0.66026 0.0
C246 C 0.15598 0.34229 0.6512 0.0
C247 C 0.14032 0.37623 0.65429 0.0
N248 N 0.1989 0.3759 0.66071 0.0
N249 N 0.19141 0.34339 0.65524 0.0
C250 C 0.16588 0.43646 0.66477 0.0
H251 H 0.19334 0.44641 0.66821 0.0
H252 H 0.14556 0.43892 0.67288 0.0
H253 H 0.1559 0.45426 0.65659 0.0
C254 C 0.28 0.36604 0.70389 0.0
N255 N 0.28292 0.37098 0.69084 0.0
N256 N 0.24971 0.37526 0.68575 0.0
C257 C 0.22466 0.37494 0.69564 0.0
C258 C 0.24309 0.369 0.70746 0.0
C259 C 0.31236 0.3639 0.71308 0.0
H260 H 0.32394 0.3922 0.7145 0.0
H261 H 0.30423 0.35285 0.72281 0.0
H262 H 0.33397 0.34543 0.70893 0.0
O263 O 0.3322 0.34546 0.66651 0.0
O264 O 0.27803 0.35015 0.65654 0.0
H265 H 0.17247 0.36752 0.68598 0.0
H266 H 0.1689 0.37857 0.70327 0.0
C267 C 0.18451 0.38418 0.69408 0.0
H268 H 0.18182 0.41408 0.69159 0.0
H269 H 0.21049 0.32173 0.65432 0.0
O270 O 0.36892 0.37845 0.69133 0.0
C271 C 0.31044 0.33643 0.65727 0.0
Co272 Co 0.68491 0.36674 0.6749 0.0
Co273 Co 0.75839 0.38333 0.66037 0.0
C274 C 0.7071 0.32017 0.65222 0.0
O275 O 0.6844 0.3274 0.66144 0.0
O276 O 0.73675 0.33922 0.65073 0.0
C277 C 0.62737 0.33168 0.69115 0.0
O278 O 0.63786 0.29874 0.68698 0.0
C279 C 0.83798 0.37568 0.65474 0.0
C280 C 0.84843 0.42706 0.64336 0.0
C281 C 0.86562 0.39606 0.6486 0.0
N282 N 0.80587 0.39414 0.65333 0.0
N283 N 0.81222 0.42456 0.64638 0.0
C284 C 0.84142 0.33829 0.6611 0.0
H285 H 0.81449 0.32947 0.66538 0.0
H286 H 0.86299 0.33872 0.66884 0.0
H287 H 0.85029 0.31767 0.65363 0.0
C288 C 0.73398 0.3648 0.6978 0.0
N289 N 0.7291 0.36683 0.68474 0.0
N290 N 0.76033 0.37711 0.67911 0.0
C291 C 0.78568 0.38374 0.68867 0.0
C292 C 0.76978 0.37538 0.70074 0.0
C293 C 0.70397 0.35617 0.70751 0.0
H294 H 0.68234 0.37805 0.70703 0.0
H295 H 0.69136 0.32896 0.70503 0.0
H296 H 0.71467 0.35475 0.7177 0.0
O297 O 0.67615 0.41643 0.66682 0.0
O298 O 0.72851 0.42747 0.6562 0.0
H299 H 0.8223 0.41894 0.6775 0.0
H300 H 0.82932 0.42032 0.69509 0.0
C301 C 0.82243 0.40215 0.68662 0.0
H302 H 0.84427 0.38055 0.68595 0.0
H303 H 0.79196 0.44413 0.64393 0.0
O304 O 0.64321 0.36078 0.68689 0.0
C305 C 0.69607 0.43724 0.65959 0.0
Co306 Co 0.83604 0.93877 0.18213 0.0
Co307 Co 0.76151 0.91675 0.16913 0.0
C308 C 0.79847 0.99002 0.16321 0.0
O309 O 0.82466 0.98211 0.17109 0.0
O310 O 0.77135 0.96765 0.16145 0.0
C311 C 0.8894 0.98144 0.19781 0.0
O312 O 0.87231 0.01249 0.1947 0.0
C313 C 0.68145 0.9174 0.16406 0.0
C314 C 0.67185 0.85944 0.15762 0.0
C315 C 0.65382 0.89269 0.16021 0.0
N316 N 0.71409 0.89943 0.16376 0.0
N317 N 0.70823 0.86493 0.15979 0.0
C318 C 0.67704 0.95624 0.1691 0.0
H319 H 0.7014 0.96426 0.17515 0.0
H320 H 0.65128 0.95878 0.175 0.0
H321 H 0.67522 0.97569 0.16066 0.0
C322 C 0.79587 0.92136 0.20615 0.0
N323 N 0.79673 0.92556 0.19306 0.0
N324 N 0.76476 0.91542 0.18799 0.0
C325 C 0.74236 0.9041 0.19791 0.0
C326 C 0.76143 0.90809 0.20971 0.0
C327 C 0.8287 0.92633 0.215 0.0
H328 H 0.85252 0.91046 0.21102 0.0
H329 H 0.83613 0.95624 0.21541 0.0
H330 H 0.82327 0.91639 0.22512 0.0
O331 O 0.85103 0.89623 0.17094 0.0
O332 O 0.7981 0.88201 0.16102 0.0
H333 H 0.70443 0.86719 0.18833 0.0
H334 H 0.69364 0.87625 0.20541 0.0
C335 C 0.7042 0.88862 0.19616 0.0
H336 H 0.68523 0.91126 0.19307 0.0
H337 H 0.72897 0.84483 0.15889 0.0
O338 O 0.87861 0.95061 0.19308 0.0
C339 C 0.83268 0.87673 0.16279 0.0
Co340 Co 0.82453 0.36366 0.83343 0.0
Co341 Co 0.74274 0.38892 0.8367 0.0
C342 C 0.76989 0.31711 0.84816 0.0
O343 O 0.80173 0.32337 0.8433 0.0
O344 O 0.7433 0.34035 0.8469 0.0
C345 C 0.89637 0.34443 0.83909 0.0
O346 O 0.8812 0.34028 0.85073 0.0
C347 C 0.66056 0.39193 0.83663 0.0
C348 C 0.65165 0.45193 0.83302 0.0
C349 C 0.63303 0.41876 0.83517 0.0
N350 N 0.69377 0.4087 0.83549 0.0
N351 N 0.68818 0.44452 0.83334 0.0
C352 C 0.65577 0.35081 0.83817 0.0
H353 H 0.67934 0.33592 0.83354 0.0
H354 H 0.62934 0.34138 0.83368 0.0
H355 H 0.65544 0.34381 0.84878 0.0
C356 C 0.80793 0.37151 0.80562 0.0
N357 N 0.79777 0.37321 0.81826 0.0
N358 N 0.76279 0.38316 0.81919 0.0
C359 C 0.74933 0.38782 0.8069 0.0
C360 C 0.77758 0.38039 0.7979 0.0
C361 C 0.84675 0.36364 0.80117 0.0
H362 H 0.86643 0.38102 0.80686 0.0
H363 H 0.8534 0.334 0.80312 0.0
H364 H 0.85069 0.36964 0.79058 0.0
O365 O 0.82945 0.40941 0.84385 0.0
O366 O 0.77137 0.42751 0.84687 0.0
H367 H 0.70534 0.42748 0.80637 0.0
H368 H 0.70358 0.39355 0.7933 0.0
C369 C 0.71001 0.39783 0.80384 0.0
H370 H 0.69099 0.38072 0.80991 0.0
H371 H 0.70941 0.46394 0.83206 0.0
O372 O 0.87531 0.34971 0.8293 0.0
C373 C 0.80607 0.43213 0.84859 0.0
Co374 Co 0.67042 0.8941 0.33161 0.0
Co375 Co 0.74784 0.89437 0.34479 0.0
C376 C 0.70109 0.96314 0.3443 0.0
O377 O 0.67582 0.9462 0.33788 0.0
O378 O 0.73098 0.94667 0.34768 0.0
C379 C 0.61009 0.91182 0.31339 0.0
O380 O 0.62213 0.94627 0.31263 0.0
C381 C 0.82729 0.90873 0.34912 0.0
C382 C 0.8428 0.85941 0.36091 0.0
C383 C 0.85696 0.89127 0.35519 0.0
N384 N 0.79689 0.88783 0.35107 0.0
N385 N 0.8063 0.8586 0.35822 0.0
C386 C 0.82728 0.94549 0.34221 0.0
H387 H 0.80033 0.95033 0.33723 0.0
H388 H 0.85009 0.94689 0.33494 0.0
H389 H 0.8321 0.9679 0.3495 0.0
C390 C 0.71322 0.86927 0.30878 0.0
N391 N 0.71121 0.87862 0.32154 0.0
N392 N 0.74478 0.88027 0.32655 0.0
C393 C 0.76938 0.87308 0.31681 0.0
C394 C 0.75004 0.8657 0.30527 0.0
C395 C 0.68069 0.86816 0.29965 0.0
H396 H 0.6586 0.85063 0.30398 0.0
H397 H 0.67016 0.89682 0.29818 0.0
H398 H 0.68788 0.85654 0.28992 0.0
O399 O 0.66246 0.86049 0.34645 0.0
O400 O 0.71706 0.86171 0.35639 0.0
H401 H 0.81951 0.86136 0.32732 0.0
H402 H 0.82454 0.86187 0.30965 0.0
C403 C 0.81059 0.87524 0.31814 0.0
H404 H 0.81906 0.90486 0.31849 0.0
H405 H 0.78789 0.83768 0.36107 0.0
O406 O 0.62592 0.88873 0.32095 0.0
C407 C 0.68365 0.85047 0.35574 0.0
Co408 Co 0.49204 0.61246 0.59578 0.0
Co409 Co 0.49547 0.68853 0.61 0.0
C410 C 0.43319 0.63238 0.61446 0.0
O411 O 0.44613 0.61007 0.60592 0.0
O412 O 0.44932 0.6632 0.6171 0.0
C413 C 0.47485 0.54929 0.5787 0.0
O414 O 0.43921 0.55509 0.58046 0.0
C415 C 0.47308 0.7661 0.6131 0.0
C416 C 0.5233 0.79054 0.62205 0.0
C417 C 0.48922 0.79981 0.61666 0.0
N418 N 0.49711 0.73865 0.61586 0.0
N419 N 0.52668 0.75332 0.62151 0.0
C420 C 0.43544 0.7595 0.60732 0.0
H421 H 0.43776 0.7553 0.59659 0.0
H422 H 0.41666 0.78332 0.6093 0.0
H423 H 0.42335 0.7337 0.61152 0.0
C424 C 0.49546 0.65844 0.57231 0.0
N425 N 0.49431 0.65505 0.58542 0.0
N426 N 0.49844 0.68786 0.59095 0.0
C427 C 0.50358 0.71328 0.58123 0.0
C428 C 0.50161 0.69518 0.56918 0.0
C429 C 0.48951 0.62716 0.56282 0.0
H430 H 0.51286 0.6072 0.56358 0.0
H431 H 0.46325 0.61276 0.56528 0.0
H432 H 0.48763 0.63693 0.55252 0.0
O433 O 0.535 0.60932 0.60747 0.0
O434 O 0.53875 0.66288 0.61815 0.0
H435 H 0.53148 0.76326 0.57517 0.0
H436 H 0.4875 0.77027 0.58288 0.0
C437 C 0.51316 0.75336 0.58321 0.0
H438 H 0.52726 0.75748 0.59275 0.0
H439 H 0.55007 0.73817 0.62429 0.0
O440 O 0.49844 0.56947 0.58452 0.0
C441 C 0.55076 0.63032 0.61577 0.0
Co442 Co 0.06061 0.73695 0.08635 0.0
Co443 Co 0.03132 0.6578 0.09293 0.0
C444 C 0.10677 0.68204 0.10136 0.0
O445 O 0.1013 0.71302 0.0957 0.0
O446 O 0.08185 0.65681 0.1015 0.0
C447 C 0.10744 0.79323 0.07328 0.0
O448 O 0.12754 0.76727 0.06767 0.0
C449 C 0.02497 0.57621 0.09355 0.0
C450 C 0.96424 0.56877 0.09505 0.0
C451 C -0.00268 0.54929 0.09424 0.0
N452 N 0.00887 0.6099 0.09399 0.0
N453 N 0.9726 0.60526 0.09495 0.0
C454 C 0.06559 0.57049 0.09133 0.0
H455 H 0.07766 0.59493 0.08621 0.0
H456 H 0.07062 0.54497 0.08546 0.0
H457 H 0.07966 0.56748 0.10096 0.0
C458 C 0.03858 0.71594 0.05962 0.0
N459 N 0.04372 0.70791 0.07238 0.0
N460 N 0.03245 0.67375 0.07478 0.0
C461 C 0.02051 0.6586 0.06337 0.0
C462 C 0.02433 0.68489 0.05338 0.0
C463 C 0.04271 0.75401 0.05383 0.0
H464 H 0.03647 0.77555 0.06128 0.0
H465 H 0.07159 0.75756 0.05031 0.0
H466 H 0.02375 0.75795 0.04536 0.0
O467 O 0.01895 0.74797 0.09824 0.0
O468 O -0.00122 0.69157 0.1036 0.0
H469 H 0.97851 0.61805 0.0671 0.0
H470 H 0.00234 0.6118 0.05163 0.0
C471 C 0.00574 0.61989 0.06207 0.0
H472 H 0.02497 0.60012 0.0669 0.0
H473 H 0.95352 0.62706 0.09534 0.0
O474 O 0.07988 0.78487 0.08047 0.0
C475 C -0.00311 0.72689 0.10453 0.0
Co476 Co 0.45664 0.7627 0.43966 0.0
Co477 Co 0.47202 0.67984 0.43311 0.0
C478 C 0.40762 0.71988 0.42103 0.0
O479 O 0.41646 0.74886 0.4275 0.0
O480 O 0.42624 0.6897 0.42207 0.0
C481 C 0.4155 0.82728 0.44909 0.0
O482 O 0.38431 0.81096 0.44573 0.0
C483 C 0.47683 0.5997 0.4259 0.0
C484 C 0.53127 0.58624 0.43472 0.0
C485 C 0.5028 0.57129 0.4273 0.0
N486 N 0.48972 0.63 0.43216 0.0
N487 N 0.52224 0.62169 0.43738 0.0
C488 C 0.44017 0.59817 0.41905 0.0
H489 H 0.41993 0.61643 0.42412 0.0
H490 H 0.42931 0.56928 0.41876 0.0
H491 H 0.44357 0.60846 0.40885 0.0
C492 C 0.46143 0.7358 0.46659 0.0
N493 N 0.46109 0.72943 0.4536 0.0
N494 N 0.46638 0.69385 0.45129 0.0
C495 C 0.4697 0.67622 0.46301 0.0
C496 C 0.46646 0.70237 0.47303 0.0
C497 C 0.46138 0.77379 0.47264 0.0
H498 H 0.48062 0.79214 0.46715 0.0
H499 H 0.43301 0.7856 0.47209 0.0
H500 H 0.47028 0.77327 0.48305 0.0
O501 O 0.50364 0.76729 0.42993 0.0
O502 O 0.51294 0.70828 0.42467 0.0
H503 H 0.50624 0.62973 0.4644 0.0
H504 H 0.4652 0.62577 0.4743 0.0
C505 C 0.476 0.63539 0.46468 0.0
H506 H 0.46235 0.61971 0.45664 0.0
H507 H 0.53867 0.64058 0.44255 0.0
O508 O 0.44637 0.81167 0.44682 0.0
C509 C 0.52256 0.74231 0.4242 0.0
Co510 Co 0.98914 0.58938 0.93069 0.0
Co511 Co 0.98568 0.66781 0.9175 0.0
C512 C 0.05373 0.61911 0.9153 0.0
O513 O 0.03868 0.59376 0.9223 0.0
O514 O 0.03661 0.64939 0.91264 0.0
C515 C 0.0055 0.5229 0.94749 0.0
O516 O 0.04134 0.52953 0.94764 0.0
C517 C -0.00104 0.74819 0.91081 0.0
C518 C 0.94138 0.76463 0.90612 0.0
C519 C 0.97714 0.77848 0.90705 0.0
N520 N 0.97677 0.71819 0.91213 0.0
N521 N 0.9425 0.72836 0.90926 0.0
C522 C 0.04015 0.74722 0.91257 0.0
H523 H 0.04717 0.75621 0.92268 0.0
H524 H 0.05389 0.76635 0.90553 0.0
H525 H 0.05087 0.71863 0.91116 0.0
C526 C 0.97491 0.63275 0.95442 0.0
N527 N 0.97886 0.6305 0.94133 0.0
N528 N 0.97813 0.66403 0.93617 0.0
C529 C 0.97436 0.68897 0.94604 0.0
C530 C 0.97174 0.66981 0.9579 0.0
C531 C 0.97905 0.60026 0.96352 0.0
H532 H 0.95756 0.57916 0.96122 0.0
H533 H 0.00677 0.58763 0.96204 0.0
H534 H 0.97652 0.60815 0.97399 0.0
O535 O 0.9506 0.58311 0.91736 0.0
O536 O 0.94846 0.63753 0.90722 0.0
H537 H 0.95351 0.73863 0.93715 0.0
H538 H 0.97061 0.74497 0.95371 0.0
C539 C 0.97523 0.73025 0.94427 0.0
H540 H 0.00252 0.73851 0.94019 0.0
H541 H 0.91968 0.71049 0.90958 0.0
O542 O 0.98382 0.54403 0.94112 0.0
C543 C 0.93726 0.60412 0.90856 0.0
H544 H 0.05094 0.50538 0.10552 0.0
H545 H 0.96746 0.31524 0.07739 0.0
H546 H 0.95048 0.49992 0.08259 0.0
H547 H 0.05814 0.32036 0.105 0.0
H548 H 0.96114 0.3827 0.07881 0.0
H549 H 0.0552 0.4376 0.10478 0.0
C550 C 0.0301 0.48996 0.10015 0.0
C551 C 0.00077 0.50832 0.09385 0.0
C552 C 0.98216 0.36899 0.08467 0.0
C553 C 0.0049 0.43064 0.09323 0.0
C554 C 0.98548 0.33031 0.08399 0.0
C555 C 0.01283 0.31189 0.09133 0.0
C556 C 0.00667 0.38945 0.0926 0.0
C557 C 0.03655 0.33336 0.09921 0.0
C558 C 0.03228 0.4512 0.09986 0.0
C559 C 0.97369 0.4868 0.0875 0.0
N560 N 0.03295 0.37094 0.09963 0.0
N561 N 0.9765 0.4491 0.08729 0.0
H562 H 0.08827 0.93592 0.37083 0.0
H563 H 0.89777 0.9017 0.33306 0.0
H564 H 0.08285 0.89814 0.33071 0.0
H565 H 0.90604 0.89797 0.37524 0.0
H566 H 0.96514 0.90958 0.33169 0.0
H567 H 0.0207 0.93001 0.37241 0.0
C568 C 0.0728 0.92598 0.36241 0.0
C569 C 0.09102 0.91678 0.35071 0.0
C570 C 0.95216 0.90743 0.34125 0.0
C571 C 0.0141 0.91085 0.35232 0.0
C572 C 0.91377 0.90358 0.34203 0.0
C573 C 0.89657 0.90021 0.35429 0.0
C574 C 0.97329 0.90798 0.35282 0.0
C575 C 0.9185 0.90102 0.36563 0.0
C576 C 0.03438 0.92265 0.36331 0.0
C577 C 0.0699 0.90446 0.34002 0.0
N578 N 0.95585 0.90502 0.36464 0.0
N579 N 0.03242 0.90208 0.34105 0.0
H580 H 0.44574 0.99055 0.56804 0.0
H581 H 0.50435 0.86463 0.62941 0.0
H582 H 0.49887 0.03446 0.60267 0.0
H583 H 0.45391 0.82209 0.59405 0.0
H584 H 0.49802 0.92783 0.62071 0.0
H585 H 0.44458 0.9291 0.57823 0.0
C586 C 0.45749 0.98714 0.57775 0.0
C587 C 0.47337 0.01741 0.58437 0.0
C588 C 0.48775 0.90465 0.61497 0.0
C589 C 0.47169 0.94725 0.5962 0.0
C590 C 0.49116 0.86863 0.61996 0.0
C591 C 0.47906 0.83797 0.61258 0.0
C592 C 0.47249 0.91 0.60243 0.0
C593 C 0.46263 0.84468 0.60032 0.0
C594 C 0.45673 0.95209 0.58359 0.0
C595 C 0.48768 0.01162 0.59701 0.0
N596 N 0.46008 0.87991 0.5956 0.0
N597 N 0.4866 0.97715 0.60251 0.0
H598 H 0.40745 0.36974 0.85909 0.0
H599 H 0.58152 0.45705 0.82117 0.0
H600 H 0.39802 0.44788 0.82711 0.0
H601 H 0.59163 0.37349 0.85137 0.0
H602 H 0.51413 0.45436 0.82338 0.0
H603 H 0.47494 0.37081 0.85656 0.0
C604 C 0.41959 0.38741 0.85162 0.0
C605 C 0.39704 0.40953 0.84354 0.0
C606 C 0.53103 0.43633 0.82945 0.0
C607 C 0.47421 0.4106 0.84049 0.0
C608 C 0.56951 0.43785 0.82818 0.0
C609 C 0.59221 0.41496 0.83592 0.0
C610 C 0.51503 0.41203 0.83864 0.0
C611 C 0.57521 0.39081 0.84492 0.0
C612 C 0.4581 0.38796 0.85017 0.0
C613 C 0.4142 0.43153 0.83391 0.0
N614 N 0.53762 0.39005 0.84606 0.0
N615 N 0.45173 0.43153 0.83267 0.0
H616 H 0.94299 0.82721 0.89065 0.0
H617 H 0.06804 0.00266 0.91008 0.0
H618 H 0.03246 0.82082 0.91872 0.0
H619 H 0.96115 0.01159 0.89134 0.0
H620 H 0.06069 0.93485 0.91077 0.0
H621 H 0.95454 0.89376 0.88829 0.0
C622 C 0.96541 0.83965 0.89621 0.0
C623 C 0.98712 0.81805 0.90475 0.0
C624 C 0.03883 0.95168 0.90654 0.0
C625 C 0.00037 0.89455 0.90213 0.0
C626 C 0.04304 0.99031 0.9061 0.0
C627 C 0.01483 0.01276 0.90086 0.0
C628 C 0.00643 0.93536 0.90149 0.0
C629 C 0.98312 0.99539 0.89577 0.0
C630 C 0.97191 0.87771 0.89487 0.0
C631 C 0.01571 0.83585 0.91171 0.0
N632 N 0.97977 0.95772 0.89621 0.0
N633 N 0.02146 0.87308 0.91026 0.0
H634 H 0.41708 0.86349 0.16866 0.0
H635 H 0.61456 0.95514 0.15296 0.0
H636 H 0.43063 0.97396 0.15276 0.0
H637 H 0.60056 0.84193 0.16619 0.0
H638 H 0.54724 0.96269 0.15286 0.0
H639 H 0.4842 0.8547 0.16758 0.0
C640 C 0.43409 0.88558 0.16466 0.0
C641 C 0.41821 0.91917 0.16049 0.0
C642 C 0.55889 0.93622 0.15582 0.0
C643 C 0.49515 0.90986 0.15966 0.0
C644 C 0.59738 0.93205 0.15603 0.0
C645 C 0.6132 0.89813 0.15988 0.0
C646 C 0.53609 0.90621 0.15947 0.0
C647 C 0.58948 0.86864 0.16322 0.0
C648 C 0.47247 0.88073 0.16419 0.0
C649 C 0.44178 0.94752 0.15598 0.0
N650 N 0.55212 0.87341 0.16301 0.0
N651 N 0.47906 0.94223 0.15568 0.0
H652 H 0.48856 0.37864 0.3765 0.0
H653 H 0.53047 0.50872 0.4385 0.0
H654 H 0.5304 0.33815 0.41353 0.0
H655 H 0.47858 0.54825 0.40298 0.0
H656 H 0.53542 0.44684 0.42878 0.0
H657 H 0.49029 0.44207 0.3852 0.0
C658 C 0.49891 0.38318 0.38636 0.0
C659 C 0.50999 0.35305 0.3942 0.0
C660 C 0.52269 0.46895 0.42313 0.0
C661 C 0.51128 0.42537 0.40432 0.0
C662 C 0.51977 0.50424 0.42869 0.0
C663 C 0.50324 0.53342 0.42166 0.0
C664 C 0.50934 0.46282 0.41037 0.0
C665 C 0.4903 0.52627 0.40892 0.0
C666 C 0.49966 0.41933 0.39134 0.0
C667 C 0.52271 0.36043 0.40695 0.0
N668 N 0.49361 0.49164 0.40368 0.0
N669 N 0.52278 0.39581 0.41163 0.0
H670 H 0.90781 0.38638 0.67044 0.0
H671 H 0.09904 0.36855 0.63224 0.0
H672 H 0.91464 0.39715 0.62837 0.0
H673 H 0.09197 0.40065 0.67292 0.0
H674 H 0.03139 0.37366 0.63049 0.0
H675 H 0.97556 0.3844 0.67157 0.0
C676 C 0.92366 0.38731 0.66142 0.0
C677 C 0.90592 0.39082 0.64925 0.0
C678 C 0.04473 0.38021 0.63973 0.0
C679 C 0.98305 0.38991 0.65048 0.0
C680 C 0.08318 0.37744 0.64071 0.0
C681 C 0.10087 0.38502 0.65265 0.0
C682 C 0.02395 0.38964 0.65089 0.0
C683 C 0.07935 0.39573 0.66344 0.0
C684 C 0.96224 0.38689 0.66208 0.0
C685 C 0.92756 0.39382 0.63789 0.0
N686 N 0.04185 0.39736 0.66234 0.0
N687 N 0.96514 0.39305 0.63876 0.0
H688 H 0.93441 0.14837 0.02556 0.0
H689 H 0.06956 0.18505 0.96514 0.0
H690 H 0.05145 0.16627 0.0313 0.0
H691 H 0.96372 0.13033 0.96176 0.0
H692 H 0.06449 0.18162 0.98919 0.0
H693 H 0.94413 0.14844 1.00182 0.0
C694 C 0.96208 0.15303 0.02175 0.0
C695 C 0.99217 0.15739 0.0303 0.0
C696 C 0.04277 0.16966 0.98318 0.0
C697 C 0.00375 0.15685 0.0032 0.0
C698 C 0.04586 0.17123 0.96951 0.0
C699 C 0.01717 0.15755 0.96157 0.0
C700 C 0.0104 0.15498 0.98885 0.0
C701 C 0.98662 0.14066 0.96759 0.0
C702 C 0.96773 0.15259 0.00823 0.0
C703 C 0.02755 0.16315 0.02495 0.0
N704 N 0.98377 0.14032 0.98088 0.0
N705 N 0.03245 0.16262 0.0117 0.0
H706 H 0.18249 0.86883 0.28064 0.0
H707 H 0.26793 0.97117 0.21733 0.0
H708 H 0.26039 0.95934 0.28328 0.0
H709 H 0.19575 0.87564 0.21591 0.0
H710 H 0.26232 0.9713 0.24145 0.0
H711 H 0.18069 0.87689 0.25675 0.0
C712 C 0.19816 0.89125 0.27618 0.0
C713 C 0.22125 0.91373 0.28383 0.0
C714 C 0.24764 0.9504 0.23583 0.0
C715 C 0.22082 0.92222 0.25657 0.0
C716 C 0.25116 0.95016 0.22212 0.0
C717 C 0.23203 0.92358 0.21469 0.0
C718 C 0.22489 0.92379 0.24205 0.0
C719 C 0.21046 0.897 0.2213 0.0
C720 C 0.19767 0.89553 0.26255 0.0
C721 C 0.24188 0.94181 0.27763 0.0
N722 N 0.20741 0.89784 0.23456 0.0
N723 N 0.24156 0.94501 0.26433 0.0
H724 H 0.55138 0.20491 0.51524 0.0
H725 H 0.42323 0.19059 0.45133 0.0
H726 H 0.43771 0.16837 0.51665 0.0
H727 H 0.53448 0.23405 0.45112 0.0
H728 H 0.42582 0.18607 0.47532 0.0
H729 H 0.5454 0.21519 0.49162 0.0
C730 C 0.52545 0.19801 0.51043 0.0
C731 C 0.49519 0.18514 0.51776 0.0
C732 C 0.44935 0.19751 0.47009 0.0
C733 C 0.48749 0.19828 0.49085 0.0
C734 C 0.44755 0.20083 0.45643 0.0
C735 C 0.47845 0.21338 0.44934 0.0
C736 C 0.48252 0.20635 0.47663 0.0
C737 C 0.50985 0.22499 0.4563 0.0
C738 C 0.5218 0.20449 0.497 0.0
C739 C 0.46185 0.17758 0.51122 0.0
N740 N 0.5113 0.22069 0.46955 0.0
N741 N 0.45879 0.18444 0.49811 0.0
H742 H 0.22395 0.43733 0.71638 0.0
H743 H 0.23298 0.37807 0.7922 0.0
H744 H 0.23768 0.3237 0.72889 0.0
H745 H 0.24436 0.49082 0.77839 0.0
H746 H 0.22785 0.35681 0.76936 0.0
H747 H 0.22105 0.45676 0.7394 0.0
C748 C 0.22511 0.41637 0.72402 0.0
C749 C 0.23076 0.37891 0.72083 0.0
C750 C 0.2317 0.38617 0.77132 0.0
C751 C 0.22881 0.40087 0.74712 0.0
C752 C 0.23506 0.39821 0.78432 0.0
C753 C 0.23957 0.43615 0.7871 0.0
C754 C 0.23241 0.41238 0.76107 0.0
C755 C 0.24116 0.46129 0.7766 0.0
C756 C 0.22408 0.42748 0.73714 0.0
C757 C 0.23294 0.35282 0.73104 0.0
N758 N 0.23742 0.44901 0.76405 0.0
N759 N 0.23231 0.36431 0.74376 0.0
H760 H 0.79749 0.32407 0.78171 0.0
H761 H 0.76166 0.43786 0.71539 0.0
H762 H 0.75657 0.43669 0.78127 0.0
H763 H 0.80463 0.3262 0.71664 0.0
H764 H 0.76523 0.44083 0.73943 0.0
H765 H 0.80318 0.32586 0.75783 0.0
C766 C 0.78943 0.34911 0.77651 0.0
C767 C 0.77655 0.38027 0.78339 0.0
C768 C 0.77474 0.41598 0.73445 0.0
C769 C 0.78326 0.38279 0.75606 0.0
C770 C 0.7733 0.41457 0.72075 0.0
C771 C 0.78363 0.38202 0.71412 0.0
C772 C 0.78613 0.38438 0.74152 0.0
C773 C 0.79721 0.35202 0.72144 0.0
C774 C 0.79289 0.35024 0.7629 0.0
C775 C 0.76635 0.41201 0.77626 0.0
N776 N 0.79772 0.35376 0.73476 0.0
N777 N 0.77 0.41252 0.76295 0.0
H778 H 0.75392 0.83935 0.22085 0.0
H779 H 0.77514 0.92685 0.29269 0.0
H780 H 0.7492 0.95657 0.22939 0.0
H781 H 0.75032 0.81087 0.28677 0.0
H782 H 0.77506 0.93612 0.2689 0.0
H783 H 0.75661 0.82627 0.24456 0.0
C784 C 0.75201 0.86216 0.22776 0.0
C785 C 0.75061 0.899 0.22328 0.0
C786 C 0.77027 0.90844 0.27276 0.0
C787 C 0.75574 0.88462 0.25017 0.0
C788 C 0.77113 0.90306 0.28631 0.0
C789 C 0.7631 0.86803 0.29159 0.0
C790 C 0.76124 0.87854 0.26445 0.0
C791 C 0.75713 0.83818 0.28297 0.0
C792 C 0.75425 0.8548 0.24124 0.0
C793 C 0.74954 0.92778 0.23254 0.0
N794 N 0.7559 0.84416 0.26979 0.0
N795 N 0.75256 0.92002 0.24553 0.0
H796 H 0.41661 0.72106 0.49175 0.0
H797 H 0.55711 0.68752 0.55145 0.0
H798 H 0.5266 0.67663 0.4867 0.0
H799 H 0.44673 0.73111 0.55614 0.0
H800 H 0.54911 0.6891 0.52757 0.0
H801 H 0.42799 0.72676 0.51533 0.0
C802 C 0.44291 0.71174 0.49572 0.0
C803 C 0.47061 0.69804 0.48738 0.0
C804 C 0.52693 0.6992 0.53378 0.0
C805 C 0.48439 0.70548 0.51426 0.0
C806 C 0.53181 0.69901 0.54738 0.0
C807 C 0.50273 0.70981 0.55568 0.0
C808 C 0.49254 0.70989 0.52849 0.0
C809 C 0.47 0.72325 0.55002 0.0
C810 C 0.44961 0.71545 0.50913 0.0
C811 C 0.50442 0.68684 0.49288 0.0
N812 N 0.46557 0.72245 0.53676 0.0
N813 N 0.51048 0.69099 0.506 0.0
H814 H 0.02904 0.70739 0.96908 0.0
H815 H 0.95856 0.66294 0.04214 0.0
H816 H 0.92142 0.66125 0.97755 0.0
H817 H 0.06808 0.70289 0.0327 0.0
H818 H 0.94214 0.66618 0.01874 0.0
H819 H 0.04058 0.71357 0.99268 0.0
C820 C 0.00738 0.69977 0.97595 0.0
C821 C 0.97425 0.68396 0.97147 0.0
C822 C 0.96979 0.67417 0.02179 0.0
C823 C 0.98758 0.68946 0.9984 0.0
C824 C 0.97925 0.67186 0.0351 0.0
C825 C 0.01476 0.68241 0.03928 0.0
C826 C -0.00393 0.68723 0.01266 0.0
C827 C 0.04037 0.69455 0.02984 0.0
C828 C 0.01412 0.70271 0.98941 0.0
C829 C 0.94724 0.6738 0.9807 0.0
N830 N 0.03054 0.69667 0.017 0.0
N831 N 0.95467 0.67624 0.99376 0.0
H832 H 0.17528 0.91965 0.1226 0.0
H833 H 0.09267 0.12127 0.10794 0.0
H834 H 0.21242 0.01775 0.143 0.0
H835 H 0.06221 0.02116 0.08714 0.0
H836 H 0.14243 0.0865 0.11896 0.0
H837 H 0.14086 0.95875 0.10729 0.0
C838 C 0.177 0.94963 0.12357 0.0
C839 C 0.19691 0.96563 0.13393 0.0
C840 C 0.12505 0.07233 0.11188 0.0
C841 C 0.15618 0.01074 0.11683 0.0
C842 C 0.09662 0.09214 0.10559 0.0
C843 C 0.07278 0.07399 0.09675 0.0
C844 C 0.12966 0.03417 0.10926 0.0
C845 C 0.07938 0.03625 0.09405 0.0
C846 C 0.15707 0.97201 0.11492 0.0
C847 C 0.19777 0.00452 0.13498 0.0
N848 N 0.1069 0.01764 0.10033 0.0
N849 N 0.17711 0.02584 0.12665 0.0
H850 H 0.2749 0.00083 0.35822 0.0
H851 H 0.44894 0.13862 0.35963 0.0
H852 H 0.3688 0.98906 0.33222 0.0
H853 H 0.38209 0.11258 0.39345 0.0
H854 H 0.40907 0.09794 0.34622 0.0
H855 H 0.3041 0.05557 0.36792 0.0
C856 C 0.3015 0.00993 0.35445 0.0
C857 C 0.31971 0.98995 0.34451 0.0
C858 C 0.40266 0.10196 0.35651 0.0
C859 C 0.35296 0.0529 0.35552 0.0
C860 C 0.42503 0.12542 0.36408 0.0
C861 C 0.41842 0.12889 0.37758 0.0
C862 C 0.37341 0.0825 0.36251 0.0
C863 C 0.38779 0.11062 0.38304 0.0
C864 C 0.31808 0.04119 0.36 0.0
C865 C 0.35404 0.0033 0.33999 0.0
N866 N 0.36646 0.08804 0.3755 0.0
N867 N 0.36969 0.03389 0.34558 0.0
H868 H 0.40265 0.28452 0.58293 0.0
H869 H 0.36587 0.28448 0.6583 0.0
H870 H 0.43312 0.18948 0.60647 0.0
H871 H 0.28739 0.33499 0.63173 0.0
H872 H 0.39374 0.25137 0.63972 0.0
H873 H 0.36247 0.30612 0.60077 0.0
C874 C 0.40045 0.26795 0.59178 0.0
C875 C 0.42124 0.23522 0.59325 0.0
C876 C 0.37004 0.26926 0.63802 0.0
C877 C 0.37618 0.26019 0.61374 0.0
C878 C 0.35424 0.28823 0.64858 0.0
C879 C 0.32438 0.31259 0.64653 0.0
C880 C 0.35654 0.27552 0.62528 0.0
C881 C 0.31032 0.31639 0.63374 0.0
C882 C 0.37749 0.28022 0.60192 0.0
C883 C 0.4174 0.21478 0.60493 0.0
N884 N 0.32698 0.29861 0.62355 0.0
N885 N 0.39588 0.22799 0.61485 0.0
H886 H -0.00122 0.3059 0.88917 0.0
H887 H 0.19514 0.34155 0.85598 0.0
H888 H 0.08082 0.21905 0.88573 0.0
H889 H 0.10014 0.41264 0.84991 0.0
H890 H 0.15493 0.29648 0.8671 0.0
H891 H 0.03634 0.34552 0.87501 0.0
C892 C 0.02473 0.2951 0.88539 0.0
C893 C 0.03683 0.25918 0.88872 0.0
C894 C 0.14289 0.32181 0.86323 0.0
C895 C 0.08037 0.30477 0.87258 0.0
C896 C 0.16583 0.34763 0.85691 0.0
C897 C 0.15111 0.38118 0.85209 0.0
C898 C 0.10503 0.32975 0.86487 0.0
C899 C 0.11284 0.38735 0.85352 0.0
C900 C 0.04612 0.31774 0.87726 0.0
C901 C 0.07048 0.24656 0.88341 0.0
N902 N 0.09126 0.36211 0.85988 0.0
N903 N 0.09137 0.26954 0.87573 0.0
H904 H 0.88947 0.15275 0.88347 0.0
H905 H 0.74341 0.31245 0.87327 0.0
H906 H 0.84729 0.2234 0.91426 0.0
H907 H 0.79221 0.2472 0.84232 0.0
H908 H 0.7631 0.26518 0.88918 0.0
H909 H 0.83711 0.17112 0.86965 0.0
C910 C 0.86857 0.17114 0.8875 0.0
C911 C 0.87342 0.18748 0.89988 0.0
C912 C 0.76837 0.2605 0.87885 0.0
C913 C 0.81386 0.20927 0.88403 0.0
C914 C 0.75669 0.28731 0.86976 0.0
C915 C 0.76673 0.28384 0.85654 0.0
C916 C 0.79037 0.23039 0.87462 0.0
C917 C 0.78438 0.25099 0.85249 0.0
C918 C 0.83874 0.18186 0.87956 0.0
C919 C 0.84521 0.21092 0.90462 0.0
N920 N 0.79638 0.22595 0.86152 0.0
N921 N 0.81717 0.22183 0.89658 0.0
H922 H 0.62561 0.24905 0.57877 0.0
H923 H 0.65648 0.26373 0.65473 0.0
H924 H 0.5757 0.17152 0.60582 0.0
H925 H 0.73193 0.31316 0.62685 0.0
H926 H 0.63035 0.22561 0.63715 0.0
H927 H 0.66889 0.26835 0.59592 0.0
C928 C 0.62444 0.23538 0.58825 0.0
C929 C 0.59692 0.20876 0.5909 0.0
C930 C 0.6531 0.24424 0.6349 0.0
C931 C 0.64565 0.23164 0.61075 0.0
C932 C 0.66802 0.26611 0.64495 0.0
C933 C 0.69619 0.29206 0.64225 0.0
C934 C 0.66587 0.2488 0.62198 0.0
C935 C 0.71017 0.29368 0.62939 0.0
C936 C 0.6491 0.2465 0.59806 0.0
C937 C 0.59658 0.19204 0.60335 0.0
N938 N 0.69438 0.27293 0.6197 0.0
N939 N 0.61999 0.20437 0.61292 0.0
H940 H 0.7317 -0.00204 0.36563 0.0
H941 H 0.57854 0.15879 0.36564 0.0
H942 H 0.65156 0.01414 0.33468 0.0
H943 H 0.62242 0.10756 0.40062 0.0
H944 H 0.62249 0.12233 0.35244 0.0
H945 H 0.70847 0.05425 0.37643 0.0
C946 C 0.70992 0.01386 0.36092 0.0
C947 C 0.69311 0.00099 0.34934 0.0
C948 C 0.62318 0.11997 0.36304 0.0
C949 C 0.66667 0.0654 0.36161 0.0
C950 C 0.59842 0.14102 0.37057 0.0
C951 C 0.59676 0.1359 0.38421 0.0
C952 C 0.64666 0.09418 0.36924 0.0
C953 C 0.62273 0.11208 0.39011 0.0
C954 C 0.6966 0.04587 0.36712 0.0
C955 C 0.66493 0.02274 0.3437 0.0
N956 N 0.64636 0.09179 0.38258 0.0
N957 N 0.65233 0.05369 0.34995 0.0
H958 H 0.76548 0.00458 0.1394 0.0
H959 H 0.92525 0.1489 0.12088 0.0
H960 H 0.8441 0.04986 0.16707 0.0
H961 H 0.85894 0.08862 0.09278 0.0
H962 H 0.88356 0.12762 0.13839 0.0
H963 H 0.78694 0.04971 0.12306 0.0
C964 C 0.78649 0.02465 0.14217 0.0
C965 C 0.80352 0.02289 0.15455 0.0
C966 C 0.87764 0.11979 0.12834 0.0
C967 C 0.82858 0.0743 0.13583 0.0
C968 C 0.90126 0.13222 0.11833 0.0
C969 C 0.89588 0.12001 0.1054 0.0
C970 C 0.84845 0.09515 0.12535 0.0
C971 C 0.86444 0.0982 0.10267 0.0
C972 C 0.79894 0.05028 0.1328 0.0
C973 C 0.83064 0.04971 0.15757 0.0
N974 N 0.84228 0.08603 0.11257 0.0
N975 N 0.84274 0.07385 0.14822 0.0
H976 H 0.72224 0.47932 0.63925 0.0
H977 H 0.55854 0.62895 0.6424 0.0
H978 H 0.63567 0.47625 0.66853 0.0
H979 H 0.61046 0.59315 0.60646 0.0
H980 H 0.60019 0.58743 0.65475 0.0
H981 H 0.69401 0.53518 0.62989 0.0
C982 C 0.69755 0.49062 0.64382 0.0
C983 C 0.68094 0.47276 0.65458 0.0
C984 C 0.60299 0.58948 0.64419 0.0
C985 C 0.64896 0.53691 0.644 0.0
C986 C 0.57962 0.61337 0.63718 0.0
C987 C 0.58129 0.61426 0.62345 0.0
C988 C 0.62839 0.56706 0.63736 0.0
C989 C 0.60846 0.59309 0.61707 0.0
C990 C 0.68152 0.52248 0.63846 0.0
C991 C 0.64906 0.48881 0.66011 0.0
N992 N 0.63087 0.57017 0.62407 0.0
N993 N 0.63396 0.51994 0.65471 0.0
H994 H 0.88 0.55777 0.91439 0.0
H995 H 0.87056 0.47003 0.84484 0.0
H996 H 0.93412 0.61176 0.88182 0.0
H997 H 0.77411 0.46662 0.86986 0.0
H998 H 0.89678 0.5192 0.85865 0.0
H999 H 0.84234 0.52176 0.89889 0.0
C1000 C 0.8834 0.56251 0.90396 0.0
C1001 C 0.91009 0.58778 0.89935 0.0
C1002 C 0.86965 0.50807 0.86101 0.0
C1003 C 0.86805 0.54589 0.88162 0.0
C1004 C 0.85477 0.47988 0.8532 0.0
C1005 C 0.82016 0.46416 0.85625 0.0
C1006 C 0.85034 0.51991 0.8722 0.0
C1007 C 0.80082 0.47807 0.86715 0.0
C1008 C 0.86191 0.54202 0.89514 0.0
C1009 C 0.91362 0.59276 0.88575 0.0
N1010 N 0.81651 0.50469 0.8749 0.0
N1011 N 0.8934 0.57137 0.87734 0.0
H1012 H 0.97502 0.70503 0.1291 0.0
H1013 H 0.81736 0.85705 0.1375 0.0
H1014 H 0.95547 0.78843 0.09945 0.0
H1015 H 0.89356 0.83492 0.16921 0.0
H1016 H 0.85463 0.81678 0.12317 0.0
H1017 H 0.93181 0.73813 0.1438 0.0
C1018 C 0.9612 0.72995 0.12564 0.0
C1019 C 0.9688 0.74422 0.11311 0.0
C1020 C 0.86279 0.82046 0.13332 0.0
C1021 C 0.91919 0.7813 0.12961 0.0
C1022 C 0.84154 0.8432 0.1415 0.0
C1023 C 0.85256 0.84941 0.15453 0.0
C1024 C 0.89461 0.80303 0.13831 0.0
C1025 C 0.8843 0.83101 0.1592 0.0
C1026 C 0.93684 0.7488 0.13402 0.0
C1027 C 0.95046 0.77672 0.10909 0.0
N1028 N 0.9042 0.80846 0.1511 0.0
N1029 N 0.92627 0.79406 0.11728 0.0
H1030 H 0.63297 0.79482 0.35348 0.0
H1031 H 0.5646 0.80576 0.4257 0.0
H1032 H 0.69743 0.85521 0.38208 0.0
H1033 H 0.55162 0.70457 0.40335 0.0
H1034 H 0.61111 0.82705 0.4098 0.0
H1035 H 0.60012 0.7633 0.37134 0.0
C1036 C 0.64053 0.80099 0.36354 0.0
C1037 C 0.66786 0.82757 0.36636 0.0
C1038 C 0.59849 0.79993 0.40854 0.0
C1039 C 0.62985 0.79248 0.38676 0.0
C1040 C 0.57188 0.78785 0.41755 0.0
C1041 C 0.55408 0.75345 0.41579 0.0
C1042 C 0.60654 0.7779 0.39753 0.0
C1043 C 0.56465 0.73127 0.40508 0.0
C1044 C 0.62189 0.78297 0.37371 0.0
C1045 C 0.67664 0.83468 0.37954 0.0
N1046 N 0.58968 0.74419 0.39621 0.0
N1047 N 0.65711 0.81778 0.3893 0.0
H1048 H 0.34528 0.76241 0.4224 0.0
H1049 H 0.33406 0.78182 0.34548 0.0
H1050 H 0.40501 0.68955 0.3963 0.0
H1051 H 0.25451 0.83264 0.37153 0.0
H1052 H 0.35597 0.74308 0.36361 0.0
H1053 H 0.30703 0.78308 0.40401 0.0
C1054 C 0.34967 0.75001 0.41283 0.0
C1055 C 0.37846 0.72429 0.41088 0.0
C1056 C 0.33328 0.7622 0.36533 0.0
C1057 C 0.33548 0.74882 0.38961 0.0
C1058 C 0.32073 0.78442 0.35496 0.0
C1059 C 0.29262 0.81093 0.35699 0.0
C1060 C 0.3181 0.76683 0.37792 0.0
C1061 C 0.27631 0.81276 0.36949 0.0
C1062 C 0.3279 0.76196 0.40231 0.0
C1063 C 0.383 0.70928 0.39826 0.0
N1064 N 0.28973 0.79155 0.37952 0.0
N1065 N 0.3623 0.72236 0.38804 0.0
H1066 H 0.27072 0.80399 0.13653 0.0
H1067 H 0.11209 0.65556 0.12645 0.0
H1068 H 0.19115 0.77049 0.16583 0.0
H1069 H 0.17637 0.70569 0.09548 0.0
H1070 H 0.15827 0.67703 0.14239 0.0
H1071 H 0.25404 0.74913 0.1235 0.0
C1072 C 0.2508 0.78435 0.14046 0.0
C1073 C 0.23159 0.79222 0.1521 0.0
C1074 C 0.16299 0.68218 0.13205 0.0
C1075 C 0.212 0.72988 0.13721 0.0
C1076 C 0.13683 0.6695 0.12293 0.0
C1077 C 0.14015 0.67956 0.1097 0.0
C1078 C 0.1924 0.70505 0.12783 0.0
C1079 C 0.17259 0.69793 0.10567 0.0
C1080 C 0.24107 0.75315 0.13298 0.0
C1081 C 0.20602 0.76583 0.15674 0.0
N1082 N 0.19702 0.71088 0.11473 0.0
N1083 N 0.1964 0.73628 0.14917 0.0
H1084 H 0.1012 0.56122 0.92041 0.0
H1085 H 0.20752 0.59 0.85354 0.0
H1086 H 0.08997 0.65906 0.89614 0.0
H1087 H 0.22564 0.49629 0.87915 0.0
H1088 H 0.17604 0.62245 0.87138 0.0
H1089 H 0.15597 0.54328 0.90785 0.0
C1090 C 0.11051 0.57926 0.91256 0.0
C1091 C 0.09039 0.61139 0.90919 0.0
C1092 C 0.18779 0.59524 0.87327 0.0
C1093 C 0.15326 0.59074 0.89466 0.0
C1094 C 0.20621 0.57687 0.86311 0.0
C1095 C 0.21893 0.54026 0.86483 0.0
C1096 C 0.18142 0.5766 0.88518 0.0
C1097 C 0.2163 0.52449 0.87739 0.0
C1098 C 0.14194 0.569 0.90539 0.0
C1099 C 0.10424 0.63384 0.89901 0.0
N1100 N 0.19694 0.54234 0.88699 0.0
N1101 N 0.13439 0.62276 0.89198 0.0
H1102 H 0.2661 0.48491 0.64446 0.0
H1103 H 0.42294 0.64221 0.64082 0.0
H1104 H 0.35058 0.49957 0.67403 0.0
H1105 H 0.37434 0.58999 0.60683 0.0
H1106 H 0.38128 0.60561 0.65491 0.0
H1107 H 0.29093 0.53887 0.63265 0.0
C1108 C 0.2893 0.49997 0.64864 0.0
C1109 C 0.30663 0.48737 0.66016 0.0
C1110 C 0.37917 0.60294 0.64434 0.0
C1111 C 0.33489 0.54921 0.64674 0.0
C1112 C 0.40262 0.62405 0.63631 0.0
C1113 C 0.40216 0.61889 0.62266 0.0
C1114 C 0.35476 0.5771 0.63864 0.0
C1115 C 0.37568 0.59458 0.61732 0.0
C1116 C 0.30351 0.53064 0.64186 0.0
C1117 C 0.33667 0.50801 0.6651 0.0
N1118 N 0.35322 0.57437 0.62532 0.0
N1119 N 0.35003 0.53775 0.65831 0.0
H1120 H 0.98607 0.98204 0.05236 0.0
H1121 H 0.12904 0.84949 0.08886 0.0
H1122 H -0.00263 0.9669 0.09425 0.0
H1123 H 0.0891 0.82502 0.04999 0.0
H1124 H 0.09952 0.91046 0.08768 0.0
H1125 H 0.037 0.93752 0.04901 0.0
C1126 C -0.00107 0.96909 0.06082 0.0
C1127 C 0.98722 0.97791 0.0736 0.0
C1128 C 0.09827 0.89228 0.07921 0.0
C1129 C 0.04618 0.92888 0.06983 0.0
C1130 C 0.11577 0.85787 0.07978 0.0
C1131 C 0.11074 0.83227 0.0696 0.0
C1132 C 0.0753 0.90049 0.06847 0.0
C1133 C 0.09309 0.84409 0.05808 0.0
C1134 C 0.02822 0.94425 0.05889 0.0
C1135 C 0.00507 0.96071 0.08422 0.0
N1136 N 0.07473 0.8771 0.05796 0.0
N1137 N 0.03378 0.93724 0.08208 0.0
H1138 H 0.38952 0.89991 0.29292 0.0
H1139 H 0.59308 0.84008 0.30747 0.0
H1140 H 0.42364 0.79235 0.30737 0.0
H1141 H 0.55664 0.95296 0.30077 0.0
H1142 H 0.53584 0.81726 0.29787 0.0
H1143 H 0.45294 0.91219 0.28594 0.0
C1144 C 0.41023 0.87842 0.29429 0.0
C1145 C 0.40191 0.84573 0.30125 0.0
C1146 C 0.54063 0.84701 0.29823 0.0
C1147 C 0.47428 0.85987 0.29347 0.0
C1148 C 0.57325 0.86016 0.30378 0.0
C1149 C 0.57893 0.89856 0.30535 0.0
C1150 C 0.5131 0.87241 0.29453 0.0
C1151 C 0.55282 0.92315 0.30006 0.0
C1152 C 0.44639 0.88547 0.29028 0.0
C1153 C 0.42926 0.81836 0.30238 0.0
N1154 N 0.52044 0.90963 0.29518 0.0
N1155 N 0.46467 0.8265 0.29888 0.0
H1156 H 0.49149 0.34428 0.54085 0.0
H1157 H 0.54651 0.53701 0.57143 0.0
H1158 H 0.59737 0.36849 0.55862 0.0
H1159 H 0.43467 0.49855 0.56441 0.0
H1160 H 0.57012 0.48577 0.55828 0.0
H1161 H 0.47779 0.41053 0.54012 0.0
C1162 C 0.51236 0.3637 0.54423 0.0
C1163 C 0.545 0.35112 0.55026 0.0
C1164 C 0.54041 0.48897 0.55942 0.0
C1165 C 0.52915 0.42649 0.54972 0.0
C1166 C 0.52681 0.51797 0.56702 0.0
C1167 C 0.48853 0.52116 0.56941 0.0
C1168 C 0.5156 0.4629 0.55423 0.0
C1169 C 0.4644 0.49646 0.56311 0.0
C1170 C 0.50448 0.40147 0.54382 0.0
C1171 C 0.57153 0.37724 0.55417 0.0
N1172 N 0.47842 0.46786 0.55597 0.0
N1173 N 0.56254 0.41393 0.5542 0.0
H1174 H 0.07938 0.47563 0.81206 0.0
H1175 H 0.94422 0.36128 0.85908 0.0
H1176 H 0.06361 0.49908 0.85328 0.0
H1177 H 0.93598 0.35844 0.81678 0.0
H1178 H -0.00188 0.40196 0.85715 0.0
H1179 H 0.03279 0.42649 0.8136 0.0
C1180 C 0.06565 0.47092 0.82137 0.0
C1181 C 0.07562 0.49132 0.83258 0.0
C1182 C 0.98471 0.39204 0.8483 0.0
C1183 C 0.02319 0.43462 0.83445 0.0
C1184 C 0.95428 0.36839 0.84938 0.0
C1185 C 0.93497 0.3574 0.83807 0.0
C1186 C -0.0042 0.4045 0.83584 0.0
C1187 C 0.9496 0.36701 0.82576 0.0
C1188 C 0.03942 0.44261 0.82226 0.0
C1189 C 0.05691 0.48406 0.84438 0.0
N1190 N 0.97882 0.39065 0.82497 0.0
N1191 N 0.03182 0.45601 0.84504 0.0
H1192 H 0.95422 0.29389 0.96552 0.0
H1193 H 0.04169 0.46194 0.95776 0.0
H1194 H 0.89356 0.34293 0.93344 0.0
H1195 H 0.93245 0.5078 0.95131 0.0
H1196 H 0.01299 0.40182 0.9629 0.0
H1197 H 0.96963 0.35648 0.9735 0.0
C1198 C 0.94294 0.3178 0.96046 0.0
C1199 C 0.92321 0.31363 0.94869 0.0
C1200 C -0.00466 0.4255 0.96085 0.0
C1201 C 0.94029 0.38439 0.95773 0.0
C1202 C 0.01173 0.45968 0.95779 0.0
C1203 C 0.9895 0.48945 0.95366 0.0
C1204 C 0.9567 0.42136 0.95957 0.0
C1205 C 0.95075 0.48518 0.95402 0.0
C1206 C 0.95193 0.35335 0.96497 0.0
C1207 C 0.90905 0.34528 0.94251 0.0
N1208 N 0.93563 0.45141 0.95648 0.0
N1209 N 0.91819 0.3795 0.94704 0.0
H1210 H 0.08139 0.8561 0.20368 0.0
H1211 H 0.947 0.02768 0.19246 0.0
H1212 H 0.0725 0.92651 0.16941 0.0
H1213 H 0.91547 0.93391 0.21635 0.0
H1214 H 0.01077 0.00486 0.19237 0.0
H1215 H 0.03362 0.89442 0.21448 0.0
C1216 C 0.06917 0.87918 0.19839 0.0
C1217 C 0.08083 0.88802 0.18561 0.0
C1218 C 0.99013 0.99007 0.19808 0.0
C1219 C 0.02856 0.93277 0.19812 0.0
C1220 C 0.9539 0.00345 0.1983 0.0
C1221 C 0.92605 0.9816 0.20393 0.0
C1222 C -0.00224 0.95479 0.20343 0.0
C1223 C 0.93633 0.95062 0.21148 0.0
C1224 C 0.04267 0.9014 0.20465 0.0
C1225 C 0.06451 0.91859 0.17927 0.0
N1226 N 0.97134 0.93713 0.21062 0.0
N1227 N 0.03948 0.93992 0.18562 0.0
H1228 H 0.46473 0.85932 0.46566 0.0
H1229 H 0.43625 0.04675 0.42696 0.0
H1230 H 0.36992 0.88393 0.44136 0.0
H1231 H 0.54143 0.00452 0.44084 0.0
H1232 H 0.40441 -0.00093 0.43956 0.0
H1233 H 0.48275 0.92464 0.46486 0.0
C1234 C 0.44694 0.87883 0.46056 0.0
C1235 C 0.41661 0.86631 0.45315 0.0
C1236 C 0.43441 0.0006 0.44 0.0
C1237 C 0.43742 0.94039 0.45198 0.0
C1238 C 0.45275 0.02757 0.43272 0.0
C1239 C 0.49174 0.02886 0.43253 0.0
C1240 C 0.45512 0.97461 0.44712 0.0
C1241 C 0.51143 0.00391 0.44045 0.0
C1242 C 0.45736 0.916 0.46005 0.0
C1243 C 0.39395 0.89255 0.44697 0.0
N1244 N 0.49286 0.97735 0.4473 0.0
N1245 N 0.40548 0.92845 0.44617 0.0
H1246 H 0.5731 0.28094 0.69731 0.0
H1247 H 0.44081 0.44713 0.70787 0.0
H1248 H 0.60969 0.39295 0.70547 0.0
H1249 H 0.40509 0.33271 0.70539 0.0
H1250 H 0.5026 0.42568 0.7142 0.0
H1251 H 0.51332 0.29565 0.70732 0.0
C1252 C 0.56885 0.30832 0.70148 0.0
C1253 C 0.59557 0.33627 0.70004 0.0
C1254 C 0.481 0.40524 0.7126 0.0
C1255 C 0.52744 0.35355 0.71126 0.0
C1256 C 0.44573 0.41756 0.70898 0.0
C1257 C 0.41849 0.39159 0.70554 0.0
C1258 C 0.48882 0.36682 0.71254 0.0
C1259 C 0.42593 0.35362 0.70743 0.0
C1260 C 0.53473 0.31679 0.70721 0.0
C1261 C 0.5891 0.37103 0.70589 0.0
N1262 N 0.46069 0.34232 0.71047 0.0
N1263 N 0.55531 0.37902 0.71095 0.0
loop_
_geom_bond_atom_site_label_1
_geom_bond_atom_site_label_2
_geom_bond_distance
_geom_bond_site_symmetry_2
_ccdc_geom_bond_type
Co0 O3 1.970 1_455 S
Co0 N17 1.989 . S
Co0 O25 1.967 . S
Co0 O32 1.920 . S
Co1 O4 1.966 1_455 S
Co1 N10 2.022 . S
Co1 N18 1.993 . S
Co1 O26 1.941 . S
C2 O3 1.258 . S
C2 O4 1.263 . S
O3 Co0 1.970 1_655 S
O3 C2 1.258 . S
O4 Co1 1.966 1_655 S
O4 C2 1.263 . S
C5 O6 1.235 . S
C5 O32 1.289 1_655 S
O6 C5 1.235 . S
C7 C9 1.400 . S
C7 N10 1.351 1_655 S
C7 C12 1.501 . S
C8 C9 1.387 1_455 S
C8 N11 1.341 . S
C9 C7 1.400 . S
C9 C8 1.387 1_655 S
N10 Co1 2.022 . S
N10 C7 1.351 1_455 S
N10 N11 1.365 . S
N11 C8 1.341 . S
N11 N10 1.365 . S
N11 H31 0.862 . S
C12 C7 1.501 . S
C12 H13 0.961 . S
C12 H14 0.961 . S
C12 H15 0.960 . S
H13 C12 0.961 . S
H14 C12 0.961 . S
H15 C12 0.960 . S
C16 N17 1.342 . S
C16 C20 1.401 . S
C16 C21 1.499 . S
N17 Co0 1.989 . S
N17 C16 1.342 . S
N17 N18 1.388 . S
N18 Co1 1.993 . S
N18 N17 1.388 . S
N18 C19 1.346 . S
C19 N18 1.346 . S
C19 C20 1.396 . S
C19 C29 1.510 . S
C20 C16 1.401 . S
C20 C19 1.396 . S
C21 C16 1.499 . S
C21 H22 0.959 . S
C21 H23 0.959 1_455 S
C21 H24 0.961 . S
H22 C21 0.959 . S
H23 C21 0.959 1_655 S
H24 C21 0.961 . S
O25 Co0 1.967 . S
O25 C33 1.258 . S
O26 Co1 1.941 . S
O26 C33 1.266 . S
H27 C29 0.959 . S
H28 C29 0.961 1_655 S
C29 C19 1.510 . S
C29 H27 0.959 . S
C29 H28 0.961 1_455 S
C29 H30 0.960 . S
H30 C29 0.960 . S
H31 N11 0.862 . S
O32 Co0 1.920 . S
O32 C5 1.289 1_455 S
C33 O25 1.258 . S
C33 O26 1.266 . S
Co34 O37 1.970 . S
Co34 N51 1.989 . S
Co34 O59 1.967 . S
Co34 O66 1.920 . S
Co35 O38 1.966 . S
Co35 N44 2.022 . S
Co35 N52 1.993 . S
Co35 O60 1.941 . S
C36 O37 1.258 . S
C36 O38 1.263 . S
O37 Co34 1.970 . S
O37 C36 1.258 . S
O38 Co35 1.966 . S
O38 C36 1.263 . S
C39 O40 1.235 . S
C39 O66 1.289 . S
O40 C39 1.235 . S
C41 C43 1.400 . S
C41 N44 1.351 . S
C41 C46 1.501 . S
C42 C43 1.387 . S
C42 N45 1.341 . S
C43 C41 1.400 . S
C43 C42 1.387 . S
N44 Co35 2.022 . S
N44 C41 1.351 . S
N44 N45 1.365 . S
N45 C42 1.341 . S
N45 N44 1.365 . S
N45 H65 0.862 . S
C46 C41 1.501 . S
C46 H47 0.961 . S
C46 H48 0.961 . S
C46 H49 0.960 . S
H47 C46 0.961 . S
H48 C46 0.961 . S
H49 C46 0.960 . S
C50 N51 1.342 . S
C50 C54 1.401 . S
C50 C55 1.499 . S
N51 Co34 1.989 . S
N51 C50 1.342 . S
N51 N52 1.388 . S
N52 Co35 1.993 . S
N52 N51 1.388 . S
N52 C53 1.346 . S
C53 N52 1.346 . S
C53 C54 1.396 . S
C53 C63 1.510 . S
C54 C50 1.401 . S
C54 C53 1.396 . S
C55 C50 1.499 . S
C55 H56 0.959 . S
C55 H57 0.960 . S
C55 H58 0.961 . S
H56 C55 0.959 . S
H57 C55 0.960 . S
H58 C55 0.961 . S
O59 Co34 1.967 . S
O59 C67 1.258 . S
O60 Co35 1.941 . S
O60 C67 1.266 . S
H61 C63 0.959 . S
H62 C63 0.961 . S
C63 C53 1.510 . S
C63 H61 0.959 . S
C63 H62 0.961 . S
C63 H64 0.960 . S
H64 C63 0.960 . S
H65 N45 0.862 . S
O66 Co34 1.920 . S
O66 C39 1.289 . S
C67 O59 1.258 . S
C67 O60 1.266 . S
Co68 O71 1.970 . S
Co68 N85 1.989 . S
Co68 O93 1.967 . S
Co68 O100 1.920 . S
Co69 O72 1.966 . S
Co69 N78 2.022 . S
Co69 N86 1.993 . S
Co69 O94 1.941 . S
C70 O71 1.258 . S
C70 O72 1.263 . S
O71 Co68 1.970 . S
O71 C70 1.258 . S
O72 Co69 1.966 . S
O72 C70 1.263 . S
C73 O74 1.235 . S
C73 O100 1.289 . S
O74 C73 1.235 . S
C75 C77 1.400 . S
C75 N78 1.351 . S
C75 C80 1.501 . S
C76 C77 1.387 . S
C76 N79 1.341 . S
C77 C75 1.400 . S
C77 C76 1.387 . S
N78 Co69 2.022 . S
N78 C75 1.351 . S
N78 N79 1.365 . S
N79 C76 1.341 . S
N79 N78 1.365 . S
N79 H99 0.862 . S
C80 C75 1.501 . S
C80 H81 0.961 . S
C80 H82 0.961 . S
C80 H83 0.960 . S
H81 C80 0.961 . S
H82 C80 0.961 . S
H83 C80 0.960 . S
C84 N85 1.342 . S
C84 C88 1.401 . S
C84 C89 1.499 . S
N85 Co68 1.989 . S
N85 C84 1.342 . S
N85 N86 1.388 . S
N86 Co69 1.993 . S
N86 N85 1.388 . S
N86 C87 1.346 . S
C87 N86 1.346 . S
C87 C88 1.396 . S
C87 C97 1.510 . S
C88 C84 1.401 . S
C88 C87 1.396 . S
C89 C84 1.499 . S
C89 H90 0.959 . S
C89 H91 0.960 . S
C89 H92 0.961 . S
H90 C89 0.959 . S
H91 C89 0.960 . S
H92 C89 0.961 . S
O93 Co68 1.967 . S
O93 C101 1.258 . S
O94 Co69 1.941 . S
O94 C101 1.266 . S
H95 C97 0.959 . S
H96 C97 0.961 . S
C97 C87 1.510 . S
C97 H95 0.959 . S
C97 H96 0.961 . S
C97 H98 0.960 . S
H98 C97 0.960 . S
H99 N79 0.862 . S
O100 Co68 1.920 . S
O100 C73 1.289 . S
C101 O93 1.258 . S
C101 O94 1.266 . S
Co102 O105 1.970 . S
Co102 N119 1.989 . S
Co102 O127 1.967 . S
Co102 O134 1.920 . S
Co103 O106 1.966 . S
Co103 N112 2.022 . S
Co103 N120 1.993 . S
Co103 O128 1.941 . S
C104 O105 1.258 . S
C104 O106 1.263 . S
O105 Co102 1.970 . S
O105 C104 1.258 . S
O106 Co103 1.966 . S
O106 C104 1.263 . S
C107 O108 1.235 . S
C107 O134 1.289 . S
O108 C107 1.235 . S
C109 C111 1.400 . S
C109 N112 1.351 . S
C109 C114 1.501 . S
C110 C111 1.387 . S
C110 N113 1.341 . S
C111 C109 1.400 . S
C111 C110 1.387 . S
N112 Co103 2.022 . S
N112 C109 1.351 . S
N112 N113 1.365 . S
N113 C110 1.341 . S
N113 N112 1.365 . S
N113 H133 0.862 . S
C114 C109 1.501 . S
C114 H115 0.961 . S
C114 H116 0.961 . S
C114 H117 0.960 . S
H115 C114 0.961 . S
H116 C114 0.961 . S
H117 C114 0.960 . S
C118 N119 1.342 . S
C118 C122 1.401 . S
C118 C123 1.499 . S
N119 Co102 1.989 . S
N119 C118 1.342 . S
N119 N120 1.388 . S
N120 Co103 1.993 . S
N120 N119 1.388 . S
N120 C121 1.346 . S
C121 N120 1.346 . S
C121 C122 1.396 . S
C121 C131 1.510 . S
C122 C118 1.401 . S
C122 C121 1.396 . S
C123 C118 1.499 . S
C123 H124 0.959 . S
C123 H125 0.960 . S
C123 H126 0.961 . S
H124 C123 0.959 . S
H125 C123 0.960 . S
H126 C123 0.961 . S
O127 Co102 1.967 . S
O127 C135 1.258 . S
O128 Co103 1.941 . S
O128 C135 1.266 . S
H129 C131 0.959 . S
H130 C131 0.961 . S
C131 C121 1.510 . S
C131 H129 0.959 . S
C131 H130 0.961 . S
C131 H132 0.960 . S
H132 C131 0.960 . S
H133 N113 0.862 . S
O134 Co102 1.920 . S
O134 C107 1.289 . S
C135 O127 1.258 . S
C135 O128 1.266 . S
Co136 O139 1.970 1_455 S
Co136 N153 1.989 . S
Co136 O161 1.967 . S
Co136 O168 1.920 . S
Co137 O140 1.966 1_455 S
Co137 N146 2.022 . S
Co137 N154 1.993 . S
Co137 O162 1.941 . S
C138 O139 1.258 . S
C138 O140 1.263 . S
O139 Co136 1.970 1_655 S
O139 C138 1.258 . S
O140 Co137 1.966 1_655 S
O140 C138 1.263 . S
C141 O142 1.235 . S
C141 O168 1.289 1_655 S
O142 C141 1.235 . S
C143 C145 1.400 . S
C143 N146 1.351 1_655 S
C143 C148 1.501 . S
C144 C145 1.387 1_455 S
C144 N147 1.341 . S
C145 C143 1.400 . S
C145 C144 1.387 1_655 S
N146 Co137 2.022 . S
N146 C143 1.351 1_455 S
N146 N147 1.365 . S
N147 C144 1.341 . S
N147 N146 1.365 . S
N147 H167 0.862 . S
C148 C143 1.501 . S
C148 H149 0.961 . S
C148 H150 0.961 . S
C148 H151 0.960 . S
H149 C148 0.961 . S
H150 C148 0.961 . S
H151 C148 0.960 . S
C152 N153 1.342 . S
C152 C156 1.401 . S
C152 C157 1.499 . S
N153 Co136 1.989 . S
N153 C152 1.342 . S
N153 N154 1.388 . S
N154 Co137 1.993 . S
N154 N153 1.388 . S
N154 C155 1.346 . S
C155 N154 1.346 . S
C155 C156 1.396 . S
C155 C165 1.510 . S
C156 C152 1.401 . S
C156 C155 1.396 . S
C157 C152 1.499 . S
C157 H158 0.959 . S
C157 H159 0.957 1_455 S
C157 H160 0.961 . S
H158 C157 0.959 . S
H159 C157 0.957 1_655 S
H160 C157 0.961 . S
O161 Co136 1.967 . S
O161 C169 1.258 . S
O162 Co137 1.941 . S
O162 C169 1.266 . S
H163 C165 0.959 . S
H164 C165 0.961 1_655 S
C165 C155 1.510 . S
C165 H163 0.959 . S
C165 H164 0.961 1_455 S
C165 H166 0.960 . S
H166 C165 0.960 . S
H167 N147 0.862 . S
O168 Co136 1.920 . S
O168 C141 1.289 1_455 S
C169 O161 1.258 . S
C169 O162 1.266 . S
Co170 O173 1.970 . S
Co170 N187 1.989 . S
Co170 O195 1.967 . S
Co170 O202 1.920 . S
Co171 O174 1.966 . S
Co171 N180 2.022 . S
Co171 N188 1.993 . S
Co171 O196 1.941 . S
C172 O173 1.258 . S
C172 O174 1.263 . S
O173 Co170 1.970 . S
O173 C172 1.258 . S
O174 Co171 1.966 . S
O174 C172 1.263 . S
C175 O176 1.235 . S
C175 O202 1.289 . S
O176 C175 1.235 . S
C177 C179 1.400 . S
C177 N180 1.351 . S
C177 C182 1.501 . S
C178 C179 1.387 . S
C178 N181 1.341 . S
C179 C177 1.400 . S
C179 C178 1.387 . S
N180 Co171 2.022 . S
N180 C177 1.351 . S
N180 N181 1.365 . S
N181 C178 1.341 . S
N181 N180 1.365 . S
N181 H201 0.862 . S
C182 C177 1.501 . S
C182 H183 0.961 . S
C182 H184 0.961 . S
C182 H185 0.960 . S
H183 C182 0.961 . S
H184 C182 0.961 . S
H185 C182 0.960 . S
C186 N187 1.342 . S
C186 C190 1.401 . S
C186 C191 1.499 . S
N187 Co170 1.989 . S
N187 C186 1.342 . S
N187 N188 1.388 . S
N188 Co171 1.993 . S
N188 N187 1.388 . S
N188 C189 1.346 . S
C189 N188 1.346 . S
C189 C190 1.396 . S
C189 C199 1.510 . S
C190 C186 1.401 . S
C190 C189 1.396 . S
C191 C186 1.499 . S
C191 H192 0.959 . S
C191 H193 0.960 . S
C191 H194 0.961 . S
H192 C191 0.959 . S
H193 C191 0.960 . S
H194 C191 0.961 . S
O195 Co170 1.967 . S
O195 C203 1.258 . S
O196 Co171 1.941 . S
O196 C203 1.266 . S
H197 C199 0.959 . S
H198 C199 0.961 . S
C199 C189 1.510 . S
C199 H197 0.959 . S
C199 H198 0.961 . S
C199 H200 0.960 . S
H200 C199 0.960 . S
H201 N181 0.862 . S
O202 Co170 1.920 . S
O202 C175 1.289 . S
C203 O195 1.258 . S
C203 O196 1.266 . S
Co204 O207 1.970 . S
Co204 N221 1.989 . S
Co204 O229 1.967 . S
Co204 O236 1.920 . S
Co205 O208 1.966 . S
Co205 N214 2.022 . S
Co205 N222 1.993 . S
Co205 O230 1.941 . S
C206 O207 1.258 . S
C206 O208 1.263 . S
O207 Co204 1.970 . S
O207 C206 1.258 . S
O208 Co205 1.966 . S
O208 C206 1.263 . S
C209 O210 1.235 . S
C209 O236 1.289 . S
O210 C209 1.235 . S
C211 C213 1.400 . S
C211 N214 1.351 . S
C211 C216 1.501 . S
C212 C213 1.387 . S
C212 N215 1.341 . S
C213 C211 1.400 . S
C213 C212 1.387 . S
N214 Co205 2.022 . S
N214 C211 1.351 . S
N214 N215 1.365 . S
N215 C212 1.341 . S
N215 N214 1.365 . S
N215 H235 0.862 . S
C216 C211 1.501 . S
C216 H217 0.961 . S
C216 H218 0.961 . S
C216 H219 0.960 . S
H217 C216 0.961 . S
H218 C216 0.961 . S
H219 C216 0.960 . S
C220 N221 1.342 . S
C220 C224 1.401 . S
C220 C225 1.499 . S
N221 Co204 1.989 . S
N221 C220 1.342 . S
N221 N222 1.388 . S
N222 Co205 1.993 . S
N222 N221 1.388 . S
N222 C223 1.346 . S
C223 N222 1.346 . S
C223 C224 1.396 . S
C223 C233 1.510 . S
C224 C220 1.401 . S
C224 C223 1.396 . S
C225 C220 1.499 . S
C225 H226 0.959 . S
C225 H227 0.960 . S
C225 H228 0.961 . S
H226 C225 0.959 . S
H227 C225 0.960 . S
H228 C225 0.961 . S
O229 Co204 1.967 . S
O229 C237 1.258 . S
O230 Co205 1.941 . S
O230 C237 1.266 . S
H231 C233 0.959 . S
H232 C233 0.961 . S
C233 C223 1.510 . S
C233 H231 0.959 . S
C233 H232 0.961 . S
C233 H234 0.960 . S
H234 C233 0.960 . S
H235 N215 0.862 . S
O236 Co204 1.920 . S
O236 C209 1.289 . S
C237 O229 1.258 . S
C237 O230 1.266 . S
Co238 O241 1.970 . S
Co238 N255 1.989 . S
Co238 O263 1.967 . S
Co238 O270 1.920 . S
Co239 O242 1.966 . S
Co239 N248 2.022 . S
Co239 N256 1.993 . S
Co239 O264 1.941 . S
C240 O241 1.258 . S
C240 O242 1.263 . S
O241 Co238 1.970 . S
O241 C240 1.258 . S
O242 Co239 1.966 . S
O242 C240 1.263 . S
C243 O244 1.235 . S
C243 O270 1.289 . S
O244 C243 1.235 . S
C245 C247 1.400 . S
C245 N248 1.351 . S
C245 C250 1.501 . S
C246 C247 1.387 . S
C246 N249 1.341 . S
C247 C245 1.400 . S
C247 C246 1.387 . S
N248 Co239 2.022 . S
N248 C245 1.351 . S
N248 N249 1.365 . S
N249 C246 1.341 . S
N249 N248 1.365 . S
N249 H269 0.862 . S
C250 C245 1.501 . S
C250 H251 0.961 . S
C250 H252 0.961 . S
C250 H253 0.960 . S
H251 C250 0.961 . S
H252 C250 0.961 . S
H253 C250 0.960 . S
C254 N255 1.342 . S
C254 C258 1.401 . S
C254 C259 1.499 . S
N255 Co238 1.989 . S
N255 C254 1.342 . S
N255 N256 1.388 . S
N256 Co239 1.993 . S
N256 N255 1.388 . S
N256 C257 1.346 . S
C257 N256 1.346 . S
C257 C258 1.396 . S
C257 C267 1.510 . S
C258 C254 1.401 . S
C258 C257 1.396 . S
C259 C254 1.499 . S
C259 H260 0.959 . S
C259 H261 0.960 . S
C259 H262 0.961 . S
H260 C259 0.959 . S
H261 C259 0.960 . S
H262 C259 0.961 . S
O263 Co238 1.967 . S
O263 C271 1.258 . S
O264 Co239 1.941 . S
O264 C271 1.266 . S
H265 C267 0.959 . S
H266 C267 0.961 . S
C267 C257 1.510 . S
C267 H265 0.959 . S
C267 H266 0.961 . S
C267 H268 0.960 . S
H268 C267 0.960 . S
H269 N249 0.862 . S
O270 Co238 1.920 . S
O270 C243 1.289 . S
C271 O263 1.258 . S
C271 O264 1.266 . S
Co272 O275 1.970 . S
Co272 N289 1.989 . S
Co272 O297 1.967 . S
Co272 O304 1.920 . S
Co273 O276 1.966 . S
Co273 N282 2.022 . S
Co273 N290 1.993 . S
Co273 O298 1.941 . S
C274 O275 1.258 . S
C274 O276 1.263 . S
O275 Co272 1.970 . S
O275 C274 1.258 . S
O276 Co273 1.966 . S
O276 C274 1.263 . S
C277 O278 1.235 . S
C277 O304 1.289 . S
O278 C277 1.235 . S
C279 C281 1.400 . S
C279 N282 1.351 . S
C279 C284 1.501 . S
C280 C281 1.387 . S
C280 N283 1.341 . S
C281 C279 1.400 . S
C281 C280 1.387 . S
N282 Co273 2.022 . S
N282 C279 1.351 . S
N282 N283 1.365 . S
N283 C280 1.341 . S
N283 N282 1.365 . S
N283 H303 0.862 . S
C284 C279 1.501 . S
C284 H285 0.961 . S
C284 H286 0.961 . S
C284 H287 0.960 . S
H285 C284 0.961 . S
H286 C284 0.961 . S
H287 C284 0.960 . S
C288 N289 1.342 . S
C288 C292 1.401 . S
C288 C293 1.499 . S
N289 Co272 1.989 . S
N289 C288 1.342 . S
N289 N290 1.388 . S
N290 Co273 1.993 . S
N290 N289 1.388 . S
N290 C291 1.346 . S
C291 N290 1.346 . S
C291 C292 1.396 . S
C291 C301 1.510 . S
C292 C288 1.401 . S
C292 C291 1.396 . S
C293 C288 1.499 . S
C293 H294 0.959 . S
C293 H295 0.960 . S
C293 H296 0.961 . S
H294 C293 0.959 . S
H295 C293 0.960 . S
H296 C293 0.961 . S
O297 Co272 1.967 . S
O297 C305 1.258 . S
O298 Co273 1.941 . S
O298 C305 1.266 . S
H299 C301 0.959 . S
H300 C301 0.961 . S
C301 C291 1.510 . S
C301 H299 0.959 . S
C301 H300 0.961 . S
C301 H302 0.960 . S
H302 C301 0.960 . S
H303 N283 0.862 . S
O304 Co272 1.920 . S
O304 C277 1.289 . S
C305 O297 1.258 . S
C305 O298 1.266 . S
Co306 O309 1.970 . S
Co306 N323 1.989 . S
Co306 O331 1.967 . S
Co306 O338 1.920 . S
Co307 O310 1.966 . S
Co307 N316 2.022 . S
Co307 N324 1.993 . S
Co307 O332 1.941 . S
C308 O309 1.258 . S
C308 O310 1.263 . S
O309 Co306 1.970 . S
O309 C308 1.258 . S
O310 Co307 1.966 . S
O310 C308 1.263 . S
C311 O312 1.235 . S
C311 O338 1.289 . S
O312 C311 1.235 . S
C313 C315 1.400 . S
C313 N316 1.351 . S
C313 C318 1.501 . S
C314 C315 1.387 . S
C314 N317 1.341 . S
C315 C313 1.400 . S
C315 C314 1.387 . S
N316 Co307 2.022 . S
N316 C313 1.351 . S
N316 N317 1.365 . S
N317 C314 1.341 . S
N317 N316 1.365 . S
N317 H337 0.862 . S
C318 C313 1.501 . S
C318 H319 0.961 . S
C318 H320 0.961 . S
C318 H321 0.960 . S
H319 C318 0.961 . S
H320 C318 0.961 . S
H321 C318 0.960 . S
C322 N323 1.342 . S
C322 C326 1.401 . S
C322 C327 1.499 . S
N323 Co306 1.989 . S
N323 C322 1.342 . S
N323 N324 1.388 . S
N324 Co307 1.993 . S
N324 N323 1.388 . S
N324 C325 1.346 . S
C325 N324 1.346 . S
C325 C326 1.396 . S
C325 C335 1.510 . S
C326 C322 1.401 . S
C326 C325 1.396 . S
C327 C322 1.499 . S
C327 H328 0.959 . S
C327 H329 0.960 . S
C327 H330 0.961 . S
H328 C327 0.959 . S
H329 C327 0.960 . S
H330 C327 0.961 . S
O331 Co306 1.967 . S
O331 C339 1.258 . S
O332 Co307 1.941 . S
O332 C339 1.266 . S
H333 C335 0.959 . S
H334 C335 0.961 . S
C335 C325 1.510 . S
C335 H333 0.959 . S
C335 H334 0.961 . S
C335 H336 0.960 . S
H336 C335 0.960 . S
H337 N317 0.862 . S
O338 Co306 1.920 . S
O338 C311 1.289 . S
C339 O331 1.258 . S
C339 O332 1.266 . S
Co340 O343 1.970 . S
Co340 N357 1.989 . S
Co340 O365 1.967 . S
Co340 O372 1.920 . S
Co341 O344 1.966 . S
Co341 N350 2.022 . S
Co341 N358 1.993 . S
Co341 O366 1.941 . S
C342 O343 1.258 . S
C342 O344 1.263 . S
O343 Co340 1.970 . S
O343 C342 1.258 . S
O344 Co341 1.966 . S
O344 C342 1.263 . S
C345 O346 1.235 . S
C345 O372 1.289 . S
O346 C345 1.235 . S
C347 C349 1.400 . S
C347 N350 1.351 . S
C347 C352 1.501 . S
C348 C349 1.387 . S
C348 N351 1.341 . S
C349 C347 1.400 . S
C349 C348 1.387 . S
N350 Co341 2.022 . S
N350 C347 1.351 . S
N350 N351 1.365 . S
N351 C348 1.341 . S
N351 N350 1.365 . S
N351 H371 0.862 . S
C352 C347 1.501 . S
C352 H353 0.961 . S
C352 H354 0.961 . S
C352 H355 0.960 . S
H353 C352 0.961 . S
H354 C352 0.961 . S
H355 C352 0.960 . S
C356 N357 1.342 . S
C356 C360 1.401 . S
C356 C361 1.499 . S
N357 Co340 1.989 . S
N357 C356 1.342 . S
N357 N358 1.388 . S
N358 Co341 1.993 . S
N358 N357 1.388 . S
N358 C359 1.346 . S
C359 N358 1.346 . S
C359 C360 1.396 . S
C359 C369 1.510 . S
C360 C356 1.401 . S
C360 C359 1.396 . S
C361 C356 1.499 . S
C361 H362 0.959 . S
C361 H363 0.960 . S
C361 H364 0.961 . S
H362 C361 0.959 . S
H363 C361 0.960 . S
H364 C361 0.961 . S
O365 Co340 1.967 . S
O365 C373 1.258 . S
O366 Co341 1.941 . S
O366 C373 1.266 . S
H367 C369 0.959 . S
H368 C369 0.961 . S
C369 C359 1.510 . S
C369 H367 0.959 . S
C369 H368 0.961 . S
C369 H370 0.960 . S
H370 C369 0.960 . S
H371 N351 0.862 . S
O372 Co340 1.920 . S
O372 C345 1.289 . S
C373 O365 1.258 . S
C373 O366 1.266 . S
Co374 O377 1.970 . S
Co374 N391 1.989 . S
Co374 O399 1.967 . S
Co374 O406 1.920 . S
Co375 O378 1.966 . S
Co375 N384 2.022 . S
Co375 N392 1.993 . S
Co375 O400 1.941 . S
C376 O377 1.258 . S
C376 O378 1.263 . S
O377 Co374 1.970 . S
O377 C376 1.258 . S
O378 Co375 1.966 . S
O378 C376 1.263 . S
C379 O380 1.235 . S
C379 O406 1.289 . S
O380 C379 1.235 . S
C381 C383 1.400 . S
C381 N384 1.351 . S
C381 C386 1.501 . S
C382 C383 1.387 . S
C382 N385 1.341 . S
C383 C381 1.400 . S
C383 C382 1.387 . S
N384 Co375 2.022 . S
N384 C381 1.351 . S
N384 N385 1.365 . S
N385 C382 1.341 . S
N385 N384 1.365 . S
N385 H405 0.862 . S
C386 C381 1.501 . S
C386 H387 0.961 . S
C386 H388 0.961 . S
C386 H389 0.960 . S
H387 C386 0.961 . S
H388 C386 0.961 . S
H389 C386 0.960 . S
C390 N391 1.342 . S
C390 C394 1.401 . S
C390 C395 1.499 . S
N391 Co374 1.989 . S
N391 C390 1.342 . S
N391 N392 1.388 . S
N392 Co375 1.993 . S
N392 N391 1.388 . S
N392 C393 1.346 . S
C393 N392 1.346 . S
C393 C394 1.396 . S
C393 C403 1.510 . S
C394 C390 1.401 . S
C394 C393 1.396 . S
C395 C390 1.499 . S
C395 H396 0.959 . S
C395 H397 0.960 . S
C395 H398 0.961 . S
H396 C395 0.959 . S
H397 C395 0.960 . S
H398 C395 0.961 . S
O399 Co374 1.967 . S
O399 C407 1.258 . S
O400 Co375 1.941 . S
O400 C407 1.266 . S
H401 C403 0.959 . S
H402 C403 0.961 . S
C403 C393 1.510 . S
C403 H401 0.959 . S
C403 H402 0.961 . S
C403 H404 0.960 . S
H404 C403 0.960 . S
H405 N385 0.862 . S
O406 Co374 1.920 . S
O406 C379 1.289 . S
C407 O399 1.258 . S
C407 O400 1.266 . S
Co408 O411 1.970 . S
Co408 N425 1.989 . S
Co408 O433 1.967 . S
Co408 O440 1.920 . S
Co409 O412 1.966 . S
Co409 N418 2.022 . S
Co409 N426 1.993 . S
Co409 O434 1.941 . S
C410 O411 1.258 . S
C410 O412 1.263 . S
O411 Co408 1.970 . S
O411 C410 1.258 . S
O412 Co409 1.966 . S
O412 C410 1.263 . S
C413 O414 1.235 . S
C413 O440 1.289 . S
O414 C413 1.235 . S
C415 C417 1.400 . S
C415 N418 1.351 . S
C415 C420 1.501 . S
C416 C417 1.387 . S
C416 N419 1.341 . S
C417 C415 1.400 . S
C417 C416 1.387 . S
N418 Co409 2.022 . S
N418 C415 1.351 . S
N418 N419 1.365 . S
N419 C416 1.341 . S
N419 N418 1.365 . S
N419 H439 0.862 . S
C420 C415 1.501 . S
C420 H421 0.961 . S
C420 H422 0.961 . S
C420 H423 0.960 . S
H421 C420 0.961 . S
H422 C420 0.961 . S
H423 C420 0.960 . S
C424 N425 1.342 . S
C424 C428 1.401 . S
C424 C429 1.499 . S
N425 Co408 1.989 . S
N425 C424 1.342 . S
N425 N426 1.388 . S
N426 Co409 1.993 . S
N426 N425 1.388 . S
N426 C427 1.346 . S
C427 N426 1.346 . S
C427 C428 1.396 . S
C427 C437 1.510 . S
C428 C424 1.401 . S
C428 C427 1.396 . S
C429 C424 1.499 . S
C429 H430 0.959 . S
C429 H431 0.960 . S
C429 H432 0.961 . S
H430 C429 0.959 . S
H431 C429 0.960 . S
H432 C429 0.961 . S
O433 Co408 1.967 . S
O433 C441 1.258 . S
O434 Co409 1.941 . S
O434 C441 1.266 . S
H435 C437 0.959 . S
H436 C437 0.961 . S
C437 C427 1.510 . S
C437 H435 0.959 . S
C437 H436 0.961 . S
C437 H438 0.960 . S
H438 C437 0.960 . S
H439 N419 0.862 . S
O440 Co408 1.920 . S
O440 C413 1.289 . S
C441 O433 1.258 . S
C441 O434 1.266 . S
Co442 O445 1.970 . S
Co442 N459 1.989 1_455 S
Co442 O467 1.967 1_455 S
Co442 O474 1.920 1_455 S
Co443 O446 1.966 1_655 S
Co443 N452 2.022 . S
Co443 N460 1.993 . S
Co443 O468 1.941 . S
C444 O445 1.258 . S
C444 O446 1.263 . S
O445 Co442 1.970 . S
O445 C444 1.258 . S
O446 Co443 1.966 1_455 S
O446 C444 1.263 . S
C447 O448 1.235 . S
C447 O474 1.289 1_455 S
O448 C447 1.235 . S
C449 C451 1.400 . S
C449 N452 1.351 1_455 S
C449 C454 1.501 . S
C450 C451 1.387 1_655 S
C450 N453 1.341 . S
C451 C449 1.400 . S
C451 C450 1.387 1_455 S
N452 Co443 2.022 . S
N452 C449 1.351 1_655 S
N452 N453 1.365 . S
N453 C450 1.341 . S
N453 N452 1.365 . S
N453 H473 0.862 . S
C454 C449 1.501 . S
C454 H455 0.961 . S
C454 H456 0.961 . S
C454 H457 0.960 . S
H455 C454 0.961 . S
H456 C454 0.961 . S
H457 C454 0.960 . S
C458 N459 1.342 . S
C458 C462 1.401 . S
C458 C463 1.499 . S
N459 Co442 1.989 1_655 S
N459 C458 1.342 . S
N459 N460 1.388 . S
N460 Co443 1.993 . S
N460 N459 1.388 . S
N460 C461 1.346 . S
C461 N460 1.346 . S
C461 C462 1.396 . S
C461 C471 1.510 . S
C462 C458 1.401 . S
C462 C461 1.396 . S
C463 C458 1.499 . S
C463 H464 0.959 . S
C463 H465 0.960 1_655 S
C463 H466 0.961 . S
H464 C463 0.959 . S
H465 C463 0.960 1_455 S
H466 C463 0.961 . S
O467 Co442 1.967 1_655 S
O467 C475 1.258 . S
O468 Co443 1.941 . S
O468 C475 1.266 . S
H469 C471 0.959 . S
H470 C471 0.961 1_455 S
C471 C461 1.510 . S
C471 H469 0.959 . S
C471 H470 0.961 1_655 S
C471 H472 0.960 . S
H472 C471 0.960 . S
H473 N453 0.862 . S
O474 Co442 1.920 1_655 S
O474 C447 1.289 1_655 S
C475 O467 1.258 . S
C475 O468 1.266 . S
Co476 O479 1.970 . S
Co476 N493 1.989 . S
Co476 O501 1.967 . S
Co476 O508 1.920 . S
Co477 O480 1.966 . S
Co477 N486 2.022 . S
Co477 N494 1.993 . S
Co477 O502 1.941 . S
C478 O479 1.258 . S
C478 O480 1.263 . S
O479 Co476 1.970 . S
O479 C478 1.258 . S
O480 Co477 1.966 . S
O480 C478 1.263 . S
C481 O482 1.235 . S
C481 O508 1.289 . S
O482 C481 1.235 . S
C483 C485 1.400 . S
C483 N486 1.351 . S
C483 C488 1.501 . S
C484 C485 1.387 . S
C484 N487 1.341 . S
C485 C483 1.400 . S
C485 C484 1.387 . S
N486 Co477 2.022 . S
N486 C483 1.351 . S
N486 N487 1.365 . S
N487 C484 1.341 . S
N487 N486 1.365 . S
N487 H507 0.862 . S
C488 C483 1.501 . S
C488 H489 0.961 . S
C488 H490 0.961 . S
C488 H491 0.960 . S
H489 C488 0.961 . S
H490 C488 0.961 . S
H491 C488 0.960 . S
C492 N493 1.342 . S
C492 C496 1.401 . S
C492 C497 1.499 . S
N493 Co476 1.989 . S
N493 C492 1.342 . S
N493 N494 1.388 . S
N494 Co477 1.993 . S
N494 N493 1.388 . S
N494 C495 1.346 . S
C495 N494 1.346 . S
C495 C496 1.396 . S
C495 C505 1.510 . S
C496 C492 1.401 . S
C496 C495 1.396 . S
C497 C492 1.499 . S
C497 H498 0.959 . S
C497 H499 0.960 . S
C497 H500 0.961 . S
H498 C497 0.959 . S
H499 C497 0.960 . S
H500 C497 0.961 . S
O501 Co476 1.967 . S
O501 C509 1.258 . S
O502 Co477 1.941 . S
O502 C509 1.266 . S
H503 C505 0.959 . S
H504 C505 0.961 . S
C505 C495 1.510 . S
C505 H503 0.959 . S
C505 H504 0.961 . S
C505 H506 0.960 . S
H506 C505 0.960 . S
H507 N487 0.862 . S
O508 Co476 1.920 . S
O508 C481 1.289 . S
C509 O501 1.258 . S
C509 O502 1.266 . S
Co510 O513 1.970 . S
Co510 N527 1.989 1_455 S
Co510 O535 1.967 1_455 S
Co510 O542 1.920 1_455 S
Co511 O514 1.966 1_655 S
Co511 N520 2.022 . S
Co511 N528 1.993 . S
Co511 O536 1.941 . S
C512 O513 1.258 . S
C512 O514 1.263 . S
O513 Co510 1.970 . S
O513 C512 1.258 . S
O514 Co511 1.966 1_455 S
O514 C512 1.263 . S
C515 O516 1.235 . S
C515 O542 1.289 1_455 S
O516 C515 1.235 . S
C517 C519 1.400 . S
C517 N520 1.351 1_455 S
C517 C522 1.501 . S
C518 C519 1.387 1_655 S
C518 N521 1.341 . S
C519 C517 1.400 . S
C519 C518 1.387 1_455 S
N520 Co511 2.022 . S
N520 C517 1.351 1_655 S
N520 N521 1.365 . S
N521 C518 1.341 . S
N521 N520 1.365 . S
N521 H541 0.862 . S
C522 C517 1.501 . S
C522 H523 0.961 . S
C522 H524 0.961 . S
C522 H525 0.960 . S
H523 C522 0.961 . S
H524 C522 0.961 . S
H525 C522 0.960 . S
C526 N527 1.342 . S
C526 C530 1.401 . S
C526 C531 1.499 . S
N527 Co510 1.989 1_655 S
N527 C526 1.342 . S
N527 N528 1.388 . S
N528 Co511 1.993 . S
N528 N527 1.388 . S
N528 C529 1.346 . S
C529 N528 1.346 . S
C529 C530 1.396 . S
C529 C539 1.510 . S
C530 C526 1.401 . S
C530 C529 1.396 . S
C531 C526 1.499 . S
C531 H532 0.959 . S
C531 H533 0.960 1_655 S
C531 H534 0.961 . S
H532 C531 0.959 . S
H533 C531 0.960 1_455 S
H534 C531 0.961 . S
O535 Co510 1.967 1_655 S
O535 C543 1.258 . S
O536 Co511 1.941 . S
O536 C543 1.266 . S
H537 C539 0.959 . S
H538 C539 0.961 1_455 S
C539 C529 1.510 . S
C539 H537 0.959 . S
C539 H538 0.961 1_655 S
C539 H540 0.960 . S
H540 C539 0.960 . S
H541 N521 0.862 . S
O542 Co510 1.920 1_655 S
O542 C515 1.289 1_655 S
C543 O535 1.258 . S
C543 O536 1.266 . S
H544 C550 0.930 . S
H545 C554 0.930 . S
H546 C559 0.922 1_655 S
H547 C557 0.929 . S
H548 C552 0.929 . S
H549 C558 0.929 . S
C550 H544 0.930 . S
C550 C551 1.367 . S
C550 C558 1.378 . S
C551 C550 1.367 . S
C551 C559 1.433 . S
C552 H548 0.929 . S
C552 C554 1.378 . S
C552 C556 1.359 . S
C553 C556 1.458 1_455 S
C553 C558 1.350 . S
C553 N561 1.427 1_455 S
C554 H545 0.930 . S
C554 C552 1.378 . S
C554 C555 1.367 . S
C555 C554 1.367 . S
C555 C557 1.433 1_655 S
C556 C552 1.359 . S
C556 C553 1.458 1_655 S
C556 N560 1.422 1_655 S
C557 H547 0.929 . S
C557 C555 1.433 1_455 S
C557 N560 1.384 . S
C558 H549 0.929 . S
C558 C550 1.378 . S
C558 C553 1.350 . S
C559 H546 0.922 1_455 S
C559 C551 1.433 . S
C559 N561 1.384 1_455 S
N560 C556 1.422 1_455 S
N560 C557 1.384 . S
N561 C553 1.427 1_655 S
N561 C559 1.384 1_655 S
H562 C568 0.930 . S
H563 C572 0.930 . S
H564 C577 0.929 . S
H565 C575 0.929 . S
H566 C570 0.929 . S
H567 C576 0.929 . S
C568 H562 0.930 . S
C568 C569 1.367 . S
C568 C576 1.378 . S
C569 C568 1.367 . S
C569 C577 1.433 . S
C570 H566 0.929 . S
C570 C572 1.378 . S
C570 C574 1.350 . S
C571 C574 1.463 1_455 S
C571 C576 1.350 . S
C571 N579 1.427 . S
C572 H563 0.930 . S
C572 C570 1.378 . S
C572 C573 1.367 . S
C573 C572 1.367 . S
C573 C575 1.433 . S
C574 C570 1.350 . S
C574 C571 1.463 1_655 S
C574 N578 1.427 . S
C575 H565 0.929 . S
C575 C573 1.433 . S
C575 N578 1.384 . S
C576 H567 0.929 . S
C576 C568 1.378 . S
C576 C571 1.350 . S
C577 H564 0.929 . S
C577 C569 1.433 . S
C577 N579 1.384 . S
N578 C574 1.427 . S
N578 C575 1.384 . S
N579 C571 1.427 . S
N579 C577 1.384 . S
H580 C586 0.930 1_545 S
H581 C590 0.930 . S
H582 C595 0.929 1_545 S
H583 C593 0.929 . S
H584 C588 0.929 . S
H585 C594 0.929 . S
C586 H580 0.930 1_565 S
C586 C587 1.367 1_565 S
C586 C594 1.378 . S
C587 C586 1.367 1_545 S
C587 C595 1.433 1_545 S
C588 H584 0.929 . S
C588 C590 1.378 . S
C588 C592 1.350 . S
C589 C592 1.463 . S
C589 C594 1.350 . S
C589 N597 1.427 . S
C590 H581 0.930 . S
C590 C588 1.378 . S
C590 C591 1.367 . S
C591 C590 1.367 . S
C591 C593 1.433 . S
C592 C588 1.350 . S
C592 C589 1.463 . S
C592 N596 1.427 . S
C593 H583 0.929 . S
C593 C591 1.433 . S
C593 N596 1.384 . S
C594 H585 0.929 . S
C594 C586 1.378 . S
C594 C589 1.350 . S
C595 H582 0.929 1_565 S
C595 C587 1.433 1_565 S
C595 N597 1.384 . S
N596 C592 1.427 . S
N596 C593 1.384 . S
N597 C589 1.427 . S
N597 C595 1.384 . S
H598 C604 0.930 . S
H599 C608 0.930 . S
H600 C613 0.929 . S
H601 C611 0.929 . S
H602 C606 0.929 . S
H603 C612 0.929 . S
C604 H598 0.930 . S
C604 C605 1.367 . S
C604 C612 1.378 . S
C605 C604 1.367 . S
C605 C613 1.433 . S
C606 H602 0.929 . S
C606 C608 1.378 . S
C606 C610 1.350 . S
C607 C610 1.463 . S
C607 C612 1.350 . S
C607 N615 1.427 . S
C608 H599 0.930 . S
C608 C606 1.378 . S
C608 C609 1.367 . S
C609 C608 1.367 . S
C609 C611 1.433 . S
C610 C606 1.350 . S
C610 C607 1.463 . S
C610 N614 1.427 . S
C611 H601 0.929 . S
C611 C609 1.433 . S
C611 N614 1.384 . S
C612 H603 0.929 . S
C612 C604 1.378 . S
C612 C607 1.350 . S
C613 H600 0.929 . S
C613 C605 1.433 . S
C613 N615 1.384 . S
N614 C610 1.427 . S
N614 C611 1.384 . S
N615 C607 1.427 . S
N615 C613 1.384 . S
H616 C622 0.930 . S
H617 C626 0.930 1_545 S
H618 C631 0.929 . S
H619 C629 0.929 . S
H620 C624 0.929 . S
H621 C630 0.929 . S
C622 H616 0.930 . S
C622 C623 1.367 1_655 S
C622 C630 1.378 . S
C623 C622 1.367 1_455 S
C623 C631 1.433 . S
C624 H620 0.929 . S
C624 C626 1.378 . S
C624 C628 1.360 . S
C625 C628 1.466 . S
C625 C630 1.350 1_455 S
C625 N633 1.427 . S
C626 H617 0.930 1_565 S
C626 C624 1.378 . S
C626 C627 1.367 1_465 S
C627 C626 1.367 1_645 S
C627 C629 1.433 1_545 S
C628 C624 1.360 . S
C628 C625 1.466 . S
C628 N632 1.413 1_455 S
C629 H619 0.929 . S
C629 C627 1.433 1_565 S
C629 N632 1.384 . S
C630 H621 0.929 . S
C630 C622 1.378 . S
C630 C625 1.350 1_655 S
C631 H618 0.929 . S
C631 C623 1.433 . S
C631 N633 1.384 . S
N632 C628 1.413 1_655 S
N632 C629 1.384 . S
N633 C625 1.427 . S
N633 C631 1.384 . S
H634 C640 0.930 . S
H635 C644 0.930 . S
H636 C649 0.929 . S
H637 C647 0.929 . S
H638 C642 0.929 . S
H639 C648 0.929 . S
C640 H634 0.930 . S
C640 C641 1.367 . S
C640 C648 1.378 . S
C641 C640 1.367 . S
C641 C649 1.433 . S
C642 H638 0.929 . S
C642 C644 1.378 . S
C642 C646 1.350 . S
C643 C646 1.463 . S
C643 C648 1.350 . S
C643 N651 1.427 . S
C644 H635 0.930 . S
C644 C642 1.378 . S
C644 C645 1.367 . S
C645 C644 1.367 . S
C645 C647 1.433 . S
C646 C642 1.350 . S
C646 C643 1.463 . S
C646 N650 1.427 . S
C647 H637 0.929 . S
C647 C645 1.433 . S
C647 N650 1.384 . S
C648 H639 0.929 . S
C648 C640 1.378 . S
C648 C643 1.350 . S
C649 H636 0.929 . S
C649 C641 1.433 . S
C649 N651 1.384 . S
N650 C646 1.427 . S
N650 C647 1.384 . S
N651 C643 1.427 . S
N651 C649 1.384 . S
H652 C658 0.930 . S
H653 C662 0.930 . S
H654 C667 0.929 . S
H655 C665 0.929 . S
H656 C660 0.929 . S
H657 C666 0.929 . S
C658 H652 0.930 . S
C658 C659 1.367 . S
C658 C666 1.378 . S
C659 C658 1.367 . S
C659 C667 1.433 . S
C660 H656 0.929 . S
C660 C662 1.378 . S
C660 C664 1.350 . S
C661 C664 1.463 . S
C661 C666 1.350 . S
C661 N669 1.427 . S
C662 H653 0.930 . S
C662 C660 1.378 . S
C662 C663 1.367 . S
C663 C662 1.367 . S
C663 C665 1.433 . S
C664 C660 1.350 . S
C664 C661 1.463 . S
C664 N668 1.427 . S
C665 H655 0.929 . S
C665 C663 1.433 . S
C665 N668 1.384 . S
C666 H657 0.929 . S
C666 C658 1.378 . S
C666 C661 1.350 . S
C667 H654 0.929 . S
C667 C659 1.433 . S
C667 N669 1.384 . S
N668 C664 1.427 . S
N668 C665 1.384 . S
N669 C661 1.427 . S
N669 C667 1.384 . S
H670 C676 0.930 . S
H671 C680 0.930 . S
H672 C685 0.929 . S
H673 C683 0.929 . S
H674 C678 0.929 . S
H675 C684 0.929 . S
C676 H670 0.930 . S
C676 C677 1.367 . S
C676 C684 1.378 . S
C677 C676 1.367 . S
C677 C685 1.433 . S
C678 H674 0.929 . S
C678 C680 1.378 . S
C678 C682 1.350 . S
C679 C682 1.463 1_655 S
C679 C684 1.350 . S
C679 N687 1.427 . S
C680 H671 0.930 . S
C680 C678 1.378 . S
C680 C681 1.367 . S
C681 C680 1.367 . S
C681 C683 1.433 . S
C682 C678 1.350 . S
C682 C679 1.463 1_455 S
C682 N686 1.427 . S
C683 H673 0.929 . S
C683 C681 1.433 . S
C683 N686 1.384 . S
C684 H675 0.929 . S
C684 C676 1.378 . S
C684 C679 1.350 . S
C685 H672 0.929 . S
C685 C677 1.433 . S
C685 N687 1.384 . S
N686 C682 1.427 . S
N686 C683 1.384 . S
N687 C679 1.427 . S
N687 C685 1.384 . S
H688 C694 0.930 1_655 S
H689 C698 0.930 . S
H690 C703 0.929 . S
H691 C701 0.929 1_655 S
H692 C696 0.929 . S
H693 C702 0.929 1_655 S
C694 H688 0.930 1_455 S
C694 C695 1.367 . S
C694 C702 1.378 . S
C695 C694 1.367 . S
C695 C703 1.433 . S
C696 H692 0.929 . S
C696 C698 1.378 . S
C696 C700 1.350 . S
C697 C700 1.463 1_554 S
C697 C702 1.350 . S
C697 N705 1.427 . S
C698 H689 0.930 . S
C698 C696 1.378 . S
C698 C699 1.367 . S
C699 C698 1.367 . S
C699 C701 1.433 . S
C700 C696 1.350 . S
C700 C697 1.463 1_556 S
C700 N704 1.427 . S
C701 H691 0.929 1_455 S
C701 C699 1.433 . S
C701 N704 1.384 . S
C702 H693 0.929 1_455 S
C702 C694 1.378 . S
C702 C697 1.350 . S
C703 H690 0.929 . S
C703 C695 1.433 . S
C703 N705 1.384 . S
N704 C700 1.427 . S
N704 C701 1.384 . S
N705 C697 1.427 . S
N705 C703 1.384 . S
H706 C712 0.930 . S
H707 C716 0.930 . S
H708 C721 0.929 . S
H709 C719 0.929 . S
H710 C714 0.929 . S
H711 C720 0.929 . S
C712 H706 0.930 . S
C712 C713 1.367 . S
C712 C720 1.378 . S
C713 C712 1.367 . S
C713 C721 1.433 . S
C714 H710 0.929 . S
C714 C716 1.378 . S
C714 C718 1.350 . S
C715 C718 1.463 . S
C715 C720 1.350 . S
C715 N723 1.427 . S
C716 H707 0.930 . S
C716 C714 1.378 . S
C716 C717 1.367 . S
C717 C716 1.367 . S
C717 C719 1.433 . S
C718 C714 1.350 . S
C718 C715 1.463 . S
C718 N722 1.427 . S
C719 H709 0.929 . S
C719 C717 1.433 . S
C719 N722 1.384 . S
C720 H711 0.929 . S
C720 C712 1.378 . S
C720 C715 1.350 . S
C721 H708 0.929 . S
C721 C713 1.433 . S
C721 N723 1.384 . S
N722 C718 1.427 . S
N722 C719 1.384 . S
N723 C715 1.427 . S
N723 C721 1.384 . S
H724 C730 0.930 . S
H725 C734 0.930 . S
H726 C739 0.929 . S
H727 C737 0.929 . S
H728 C732 0.929 . S
H729 C738 0.929 . S
C730 H724 0.930 . S
C730 C731 1.367 . S
C730 C738 1.378 . S
C731 C730 1.367 . S
C731 C739 1.433 . S
C732 H728 0.929 . S
C732 C734 1.378 . S
C732 C736 1.350 . S
C733 C736 1.463 . S
C733 C738 1.350 . S
C733 N741 1.427 . S
C734 H725 0.930 . S
C734 C732 1.378 . S
C734 C735 1.367 . S
C735 C734 1.367 . S
C735 C737 1.433 . S
C736 C732 1.350 . S
C736 C733 1.463 . S
C736 N740 1.427 . S
C737 H727 0.929 . S
C737 C735 1.433 . S
C737 N740 1.384 . S
C738 H729 0.929 . S
C738 C730 1.378 . S
C738 C733 1.350 . S
C739 H726 0.929 . S
C739 C731 1.433 . S
C739 N741 1.384 . S
N740 C736 1.427 . S
N740 C737 1.384 . S
N741 C733 1.427 . S
N741 C739 1.384 . S
H742 C748 0.930 . S
H743 C752 0.930 . S
H744 C757 0.929 . S
H745 C755 0.929 . S
H746 C750 0.929 . S
H747 C756 0.929 . S
C748 H742 0.930 . S
C748 C749 1.367 . S
C748 C756 1.378 . S
C749 C748 1.367 . S
C749 C757 1.433 . S
C750 H746 0.929 . S
C750 C752 1.378 . S
C750 C754 1.350 . S
C751 C754 1.463 . S
C751 C756 1.350 . S
C751 N759 1.427 . S
C752 H743 0.930 . S
C752 C750 1.378 . S
C752 C753 1.367 . S
C753 C752 1.367 . S
C753 C755 1.433 . S
C754 C750 1.350 . S
C754 C751 1.463 . S
C754 N758 1.427 . S
C755 H745 0.929 . S
C755 C753 1.433 . S
C755 N758 1.384 . S
C756 H747 0.929 . S
C756 C748 1.378 . S
C756 C751 1.350 . S
C757 H744 0.929 . S
C757 C749 1.433 . S
C757 N759 1.384 . S
N758 C754 1.427 . S
N758 C755 1.384 . S
N759 C751 1.427 . S
N759 C757 1.384 . S
H760 C766 0.930 . S
H761 C770 0.930 . S
H762 C775 0.929 . S
H763 C773 0.929 . S
H764 C768 0.929 . S
H765 C774 0.929 . S
C766 H760 0.930 . S
C766 C767 1.367 . S
C766 C774 1.378 . S
C767 C766 1.367 . S
C767 C775 1.433 . S
C768 H764 0.929 . S
C768 C770 1.378 . S
C768 C772 1.350 . S
C769 C772 1.463 . S
C769 C774 1.350 . S
C769 N777 1.427 . S
C770 H761 0.930 . S
C770 C768 1.378 . S
C770 C771 1.367 . S
C771 C770 1.367 . S
C771 C773 1.433 . S
C772 C768 1.350 . S
C772 C769 1.463 . S
C772 N776 1.427 . S
C773 H763 0.929 . S
C773 C771 1.433 . S
C773 N776 1.384 . S
C774 H765 0.929 . S
C774 C766 1.378 . S
C774 C769 1.350 . S
C775 H762 0.929 . S
C775 C767 1.433 . S
C775 N777 1.384 . S
N776 C772 1.427 . S
N776 C773 1.384 . S
N777 C769 1.427 . S
N777 C775 1.384 . S
H778 C784 0.930 . S
H779 C788 0.930 . S
H780 C793 0.929 . S
H781 C791 0.929 . S
H782 C786 0.929 . S
H783 C792 0.929 . S
C784 H778 0.930 . S
C784 C785 1.367 . S
C784 C792 1.378 . S
C785 C784 1.367 . S
C785 C793 1.433 . S
C786 H782 0.929 . S
C786 C788 1.378 . S
C786 C790 1.350 . S
C787 C790 1.463 . S
C787 C792 1.350 . S
C787 N795 1.427 . S
C788 H779 0.930 . S
C788 C786 1.378 . S
C788 C789 1.367 . S
C789 C788 1.367 . S
C789 C791 1.433 . S
C790 C786 1.350 . S
C790 C787 1.463 . S
C790 N794 1.427 . S
C791 H781 0.929 . S
C791 C789 1.433 . S
C791 N794 1.384 . S
C792 H783 0.929 . S
C792 C784 1.378 . S
C792 C787 1.350 . S
C793 H780 0.929 . S
C793 C785 1.433 . S
C793 N795 1.384 . S
N794 C790 1.427 . S
N794 C791 1.384 . S
N795 C787 1.427 . S
N795 C793 1.384 . S
H796 C802 0.930 . S
H797 C806 0.930 . S
H798 C811 0.929 . S
H799 C809 0.929 . S
H800 C804 0.929 . S
H801 C810 0.929 . S
C802 H796 0.930 . S
C802 C803 1.367 . S
C802 C810 1.378 . S
C803 C802 1.367 . S
C803 C811 1.433 . S
C804 H800 0.929 . S
C804 C806 1.378 . S
C804 C808 1.350 . S
C805 C808 1.463 . S
C805 C810 1.350 . S
C805 N813 1.427 . S
C806 H797 0.930 . S
C806 C804 1.378 . S
C806 C807 1.367 . S
C807 C806 1.367 . S
C807 C809 1.433 . S
C808 C804 1.350 . S
C808 C805 1.463 . S
C808 N812 1.427 . S
C809 H799 0.929 . S
C809 C807 1.433 . S
C809 N812 1.384 . S
C810 H801 0.929 . S
C810 C802 1.378 . S
C810 C805 1.350 . S
C811 H798 0.929 . S
C811 C803 1.433 . S
C811 N813 1.384 . S
N812 C808 1.427 . S
N812 C809 1.384 . S
N813 C805 1.427 . S
N813 C811 1.384 . S
H814 C820 0.930 . S
H815 C824 0.930 . S
H816 C829 0.929 . S
H817 C827 0.929 . S
H818 C822 0.929 . S
H819 C828 0.929 . S
C820 H814 0.930 . S
C820 C821 1.367 1_455 S
C820 C828 1.378 . S
C821 C820 1.367 1_655 S
C821 C829 1.433 . S
C822 H818 0.929 . S
C822 C824 1.378 . S
C822 C826 1.350 . S
C823 C826 1.463 1_556 S
C823 C828 1.350 1_655 S
C823 N831 1.427 . S
C824 H815 0.930 . S
C824 C822 1.378 . S
C824 C825 1.367 . S
C825 C824 1.367 . S
C825 C827 1.433 1_655 S
C826 C822 1.350 . S
C826 C823 1.463 1_554 S
C826 N830 1.427 1_655 S
C827 H817 0.929 . S
C827 C825 1.433 1_455 S
C827 N830 1.384 . S
C828 H819 0.929 . S
C828 C820 1.378 . S
C828 C823 1.350 1_455 S
C829 H816 0.929 . S
C829 C821 1.433 . S
C829 N831 1.384 . S
N830 C826 1.427 1_455 S
N830 C827 1.384 . S
N831 C823 1.427 . S
N831 C829 1.384 . S
H832 C838 0.930 . S
H833 C842 0.930 . S
H834 C847 0.929 . S
H835 C845 0.929 . S
H836 C840 0.929 . S
H837 C846 0.931 . S
C838 H832 0.930 . S
C838 C839 1.357 1_565 S
C838 C846 1.378 1_565 S
C839 C838 1.357 1_545 S
C839 C847 1.460 . S
C840 H836 0.929 . S
C840 C842 1.378 . S
C840 C844 1.350 . S
C841 C844 1.463 . S
C841 C846 1.350 . S
C841 N849 1.427 . S
C842 H833 0.930 . S
C842 C840 1.378 . S
C842 C843 1.367 . S
C843 C842 1.367 . S
C843 C845 1.433 . S
C844 C840 1.350 . S
C844 C841 1.463 . S
C844 N848 1.427 . S
C845 H835 0.929 . S
C845 C843 1.433 . S
C845 N848 1.384 . S
C846 H837 0.931 . S
C846 C838 1.378 1_545 S
C846 C841 1.350 . S
C847 H834 0.929 . S
C847 C839 1.460 . S
C847 N849 1.384 . S
N848 C844 1.427 . S
N848 C845 1.384 . S
N849 C841 1.427 . S
N849 C847 1.384 . S
H850 C856 0.930 . S
H851 C860 0.930 . S
H852 C865 0.929 . S
H853 C863 0.929 . S
H854 C858 0.929 . S
H855 C864 0.929 . S
C856 H850 0.930 . S
C856 C857 1.367 1_565 S
C856 C864 1.378 1_565 S
C857 C856 1.367 1_545 S
C857 C865 1.433 . S
C858 H854 0.929 . S
C858 C860 1.378 . S
C858 C862 1.350 . S
C859 C862 1.463 . S
C859 C864 1.350 . S
C859 N867 1.427 . S
C860 H851 0.930 . S
C860 C858 1.378 . S
C860 C861 1.367 . S
C861 C860 1.367 . S
C861 C863 1.433 . S
C862 C858 1.350 . S
C862 C859 1.463 . S
C862 N866 1.427 . S
C863 H853 0.929 . S
C863 C861 1.433 . S
C863 N866 1.384 . S
C864 H855 0.929 . S
C864 C856 1.378 1_545 S
C864 C859 1.350 . S
C865 H852 0.929 . S
C865 C857 1.433 . S
C865 N867 1.384 . S
N866 C862 1.427 . S
N866 C863 1.384 . S
N867 C859 1.427 . S
N867 C865 1.384 . S
H868 C874 0.930 . S
H869 C878 0.930 . S
H870 C883 0.929 . S
H871 C881 0.929 . S
H872 C876 0.929 . S
H873 C882 0.929 . S
C874 H868 0.930 . S
C874 C875 1.367 . S
C874 C882 1.378 . S
C875 C874 1.367 . S
C875 C883 1.433 . S
C876 H872 0.929 . S
C876 C878 1.378 . S
C876 C880 1.350 . S
C877 C880 1.463 . S
C877 C882 1.350 . S
C877 N885 1.427 . S
C878 H869 0.930 . S
C878 C876 1.378 . S
C878 C879 1.367 . S
C879 C878 1.367 . S
C879 C881 1.433 . S
C880 C876 1.350 . S
C880 C877 1.463 . S
C880 N884 1.427 . S
C881 H871 0.929 . S
C881 C879 1.433 . S
C881 N884 1.384 . S
C882 H873 0.929 . S
C882 C874 1.378 . S
C882 C877 1.350 . S
C883 H870 0.929 . S
C883 C875 1.433 . S
C883 N885 1.384 . S
N884 C880 1.427 . S
N884 C881 1.384 . S
N885 C877 1.427 . S
N885 C883 1.384 . S
H886 C892 0.930 . S
H887 C896 0.930 . S
H888 C901 0.929 . S
H889 C899 0.929 . S
H890 C894 0.929 . S
H891 C900 0.929 . S
C892 H886 0.930 . S
C892 C893 1.367 . S
C892 C900 1.378 . S
C893 C892 1.367 . S
C893 C901 1.433 . S
C894 H890 0.929 . S
C894 C896 1.378 . S
C894 C898 1.350 . S
C895 C898 1.463 . S
C895 C900 1.350 . S
C895 N903 1.427 . S
C896 H887 0.930 . S
C896 C894 1.378 . S
C896 C897 1.367 . S
C897 C896 1.367 . S
C897 C899 1.433 . S
C898 C894 1.350 . S
C898 C895 1.463 . S
C898 N902 1.427 . S
C899 H889 0.929 . S
C899 C897 1.433 . S
C899 N902 1.384 . S
C900 H891 0.929 . S
C900 C892 1.378 . S
C900 C895 1.350 . S
C901 H888 0.929 . S
C901 C893 1.433 . S
C901 N903 1.384 . S
N902 C898 1.427 . S
N902 C899 1.384 . S
N903 C895 1.427 . S
N903 C901 1.384 . S
H904 C910 0.930 . S
H905 C914 0.930 . S
H906 C919 0.929 . S
H907 C917 0.929 . S
H908 C912 0.929 . S
H909 C918 0.929 . S
C910 H904 0.930 . S
C910 C911 1.367 . S
C910 C918 1.378 . S
C911 C910 1.367 . S
C911 C919 1.433 . S
C912 H908 0.929 . S
C912 C914 1.378 . S
C912 C916 1.350 . S
C913 C916 1.463 . S
C913 C918 1.350 . S
C913 N921 1.427 . S
C914 H905 0.930 . S
C914 C912 1.378 . S
C914 C915 1.367 . S
C915 C914 1.367 . S
C915 C917 1.433 . S
C916 C912 1.350 . S
C916 C913 1.463 . S
C916 N920 1.427 . S
C917 H907 0.929 . S
C917 C915 1.433 . S
C917 N920 1.384 . S
C918 H909 0.929 . S
C918 C910 1.378 . S
C918 C913 1.350 . S
C919 H906 0.929 . S
C919 C911 1.433 . S
C919 N921 1.384 . S
N920 C916 1.427 . S
N920 C917 1.384 . S
N921 C913 1.427 . S
N921 C919 1.384 . S
H922 C928 0.930 . S
H923 C932 0.930 . S
H924 C937 0.929 . S
H925 C935 0.929 . S
H926 C930 0.929 . S
H927 C936 0.929 . S
C928 H922 0.930 . S
C928 C929 1.367 . S
C928 C936 1.378 . S
C929 C928 1.367 . S
C929 C937 1.433 . S
C930 H926 0.929 . S
C930 C932 1.378 . S
C930 C934 1.350 . S
C931 C934 1.463 . S
C931 C936 1.350 . S
C931 N939 1.427 . S
C932 H923 0.930 . S
C932 C930 1.378 . S
C932 C933 1.367 . S
C933 C932 1.367 . S
C933 C935 1.433 . S
C934 C930 1.350 . S
C934 C931 1.463 . S
C934 N938 1.427 . S
C935 H925 0.929 . S
C935 C933 1.433 . S
C935 N938 1.384 . S
C936 H927 0.929 . S
C936 C928 1.378 . S
C936 C931 1.350 . S
C937 H924 0.929 . S
C937 C929 1.433 . S
C937 N939 1.384 . S
N938 C934 1.427 . S
N938 C935 1.384 . S
N939 C931 1.427 . S
N939 C937 1.384 . S
H940 C946 0.930 . S
H941 C950 0.930 . S
H942 C955 0.929 . S
H943 C953 0.929 . S
H944 C948 0.929 . S
H945 C954 0.929 . S
C946 H940 0.930 . S
C946 C947 1.367 . S
C946 C954 1.378 1_565 S
C947 C946 1.367 . S
C947 C955 1.433 1_565 S
C948 H944 0.929 . S
C948 C950 1.378 . S
C948 C952 1.350 . S
C949 C952 1.463 . S
C949 C954 1.350 . S
C949 N957 1.427 . S
C950 H941 0.930 . S
C950 C948 1.378 . S
C950 C951 1.367 . S
C951 C950 1.367 . S
C951 C953 1.433 . S
C952 C948 1.350 . S
C952 C949 1.463 . S
C952 N956 1.427 . S
C953 H943 0.929 . S
C953 C951 1.433 . S
C953 N956 1.384 . S
C954 H945 0.929 . S
C954 C946 1.378 1_545 S
C954 C949 1.350 . S
C955 H942 0.929 . S
C955 C947 1.433 1_545 S
C955 N957 1.384 . S
N956 C952 1.427 . S
N956 C953 1.384 . S
N957 C949 1.427 . S
N957 C955 1.384 . S
H958 C964 0.930 . S
H959 C968 0.930 . S
H960 C973 0.929 . S
H961 C971 0.929 . S
H962 C966 0.929 . S
H963 C972 0.929 . S
C964 H958 0.930 . S
C964 C965 1.367 1_545 S
C964 C972 1.378 . S
C965 C964 1.367 1_565 S
C965 C973 1.433 . S
C966 H962 0.929 . S
C966 C968 1.378 . S
C966 C970 1.350 . S
C967 C970 1.463 . S
C967 C972 1.350 . S
C967 N975 1.427 . S
C968 H959 0.930 . S
C968 C966 1.378 . S
C968 C969 1.367 . S
C969 C968 1.367 . S
C969 C971 1.433 . S
C970 C966 1.350 . S
C970 C967 1.463 . S
C970 N974 1.427 . S
C971 H961 0.929 . S
C971 C969 1.433 . S
C971 N974 1.384 . S
C972 H963 0.929 . S
C972 C964 1.378 . S
C972 C967 1.350 . S
C973 H960 0.929 . S
C973 C965 1.433 . S
C973 N975 1.384 1_565 S
N974 C970 1.427 . S
N974 C971 1.384 . S
N975 C967 1.427 . S
N975 C973 1.384 1_545 S
H976 C982 0.930 . S
H977 C986 0.930 . S
H978 C991 0.929 . S
H979 C989 0.929 . S
H980 C984 0.929 . S
H981 C990 0.929 . S
C982 H976 0.930 . S
C982 C983 1.367 . S
C982 C990 1.378 . S
C983 C982 1.367 . S
C983 C991 1.433 . S
C984 H980 0.929 . S
C984 C986 1.378 . S
C984 C988 1.350 . S
C985 C988 1.463 . S
C985 C990 1.350 . S
C985 N993 1.427 . S
C986 H977 0.930 . S
C986 C984 1.378 . S
C986 C987 1.367 . S
C987 C986 1.367 . S
C987 C989 1.433 . S
C988 C984 1.350 . S
C988 C985 1.463 . S
C988 N992 1.427 . S
C989 H979 0.929 . S
C989 C987 1.433 . S
C989 N992 1.384 . S
C990 H981 0.929 . S
C990 C982 1.378 . S
C990 C985 1.350 . S
C991 H978 0.929 . S
C991 C983 1.433 . S
C991 N993 1.384 . S
N992 C988 1.427 . S
N992 C989 1.384 . S
N993 C985 1.427 . S
N993 C991 1.384 . S
H994 C1000 0.930 . S
H995 C1004 0.930 . S
H996 C1009 0.929 . S
H997 C1007 0.929 . S
H998 C1002 0.929 . S
H999 C1008 0.929 . S
C1000 H994 0.930 . S
C1000 C1001 1.367 . S
C1000 C1008 1.378 . S
C1001 C1000 1.367 . S
C1001 C1009 1.433 . S
C1002 H998 0.929 . S
C1002 C1004 1.378 . S
C1002 C1006 1.350 . S
C1003 C1006 1.463 . S
C1003 C1008 1.350 . S
C1003 N1011 1.427 . S
C1004 H995 0.930 . S
C1004 C1002 1.378 . S
C1004 C1005 1.367 . S
C1005 C1004 1.367 . S
C1005 C1007 1.433 . S
C1006 C1002 1.350 . S
C1006 C1003 1.463 . S
C1006 N1010 1.427 . S
C1007 H997 0.929 . S
C1007 C1005 1.433 . S
C1007 N1010 1.384 . S
C1008 H999 0.929 . S
C1008 C1000 1.378 . S
C1008 C1003 1.350 . S
C1009 H996 0.929 . S
C1009 C1001 1.433 . S
C1009 N1011 1.384 . S
N1010 C1006 1.427 . S
N1010 C1007 1.384 . S
N1011 C1003 1.427 . S
N1011 C1009 1.384 . S
H1012 C1018 0.930 . S
H1013 C1022 0.930 . S
H1014 C1027 0.929 . S
H1015 C1025 0.929 . S
H1016 C1020 0.929 . S
H1017 C1026 0.929 . S
C1018 H1012 0.930 . S
C1018 C1019 1.367 . S
C1018 C1026 1.378 . S
C1019 C1018 1.367 . S
C1019 C1027 1.433 . S
C1020 H1016 0.929 . S
C1020 C1022 1.378 . S
C1020 C1024 1.350 . S
C1021 C1024 1.463 . S
C1021 C1026 1.350 . S
C1021 N1029 1.427 . S
C1022 H1013 0.930 . S
C1022 C1020 1.378 . S
C1022 C1023 1.367 . S
C1023 C1022 1.367 . S
C1023 C1025 1.433 . S
C1024 C1020 1.350 . S
C1024 C1021 1.463 . S
C1024 N1028 1.427 . S
C1025 H1015 0.929 . S
C1025 C1023 1.433 . S
C1025 N1028 1.384 . S
C1026 H1017 0.929 . S
C1026 C1018 1.378 . S
C1026 C1021 1.350 . S
C1027 H1014 0.929 . S
C1027 C1019 1.433 . S
C1027 N1029 1.384 . S
N1028 C1024 1.427 . S
N1028 C1025 1.384 . S
N1029 C1021 1.427 . S
N1029 C1027 1.384 . S
H1030 C1036 0.930 . S
H1031 C1040 0.930 . S
H1032 C1045 0.929 . S
H1033 C1043 0.929 . S
H1034 C1038 0.929 . S
H1035 C1044 0.929 . S
C1036 H1030 0.930 . S
C1036 C1037 1.367 . S
C1036 C1044 1.378 . S
C1037 C1036 1.367 . S
C1037 C1045 1.433 . S
C1038 H1034 0.929 . S
C1038 C1040 1.378 . S
C1038 C1042 1.350 . S
C1039 C1042 1.463 . S
C1039 C1044 1.350 . S
C1039 N1047 1.427 . S
C1040 H1031 0.930 . S
C1040 C1038 1.378 . S
C1040 C1041 1.367 . S
C1041 C1040 1.367 . S
C1041 C1043 1.433 . S
C1042 C1038 1.350 . S
C1042 C1039 1.463 . S
C1042 N1046 1.427 . S
C1043 H1033 0.929 . S
C1043 C1041 1.433 . S
C1043 N1046 1.384 . S
C1044 H1035 0.929 . S
C1044 C1036 1.378 . S
C1044 C1039 1.350 . S
C1045 H1032 0.929 . S
C1045 C1037 1.433 . S
C1045 N1047 1.384 . S
N1046 C1042 1.427 . S
N1046 C1043 1.384 . S
N1047 C1039 1.427 . S
N1047 C1045 1.384 . S
H1048 C1054 0.930 . S
H1049 C1058 0.930 . S
H1050 C1063 0.929 . S
H1051 C1061 0.929 . S
H1052 C1056 0.929 . S
H1053 C1062 0.929 . S
C1054 H1048 0.930 . S
C1054 C1055 1.367 . S
C1054 C1062 1.378 . S
C1055 C1054 1.367 . S
C1055 C1063 1.433 . S
C1056 H1052 0.929 . S
C1056 C1058 1.378 . S
C1056 C1060 1.350 . S
C1057 C1060 1.463 . S
C1057 C1062 1.350 . S
C1057 N1065 1.427 . S
C1058 H1049 0.930 . S
C1058 C1056 1.378 . S
C1058 C1059 1.367 . S
C1059 C1058 1.367 . S
C1059 C1061 1.433 . S
C1060 C1056 1.350 . S
C1060 C1057 1.463 . S
C1060 N1064 1.427 . S
C1061 H1051 0.929 . S
C1061 C1059 1.433 . S
C1061 N1064 1.384 . S
C1062 H1053 0.929 . S
C1062 C1054 1.378 . S
C1062 C1057 1.350 . S
C1063 H1050 0.929 . S
C1063 C1055 1.433 . S
C1063 N1065 1.384 . S
N1064 C1060 1.427 . S
N1064 C1061 1.384 . S
N1065 C1057 1.427 . S
N1065 C1063 1.384 . S
H1066 C1072 0.930 . S
H1067 C1076 0.930 . S
H1068 C1081 0.929 . S
H1069 C1079 0.929 . S
H1070 C1074 0.929 . S
H1071 C1080 0.929 . S
C1072 H1066 0.930 . S
C1072 C1073 1.367 . S
C1072 C1080 1.378 . S
C1073 C1072 1.367 . S
C1073 C1081 1.433 . S
C1074 H1070 0.929 . S
C1074 C1076 1.378 . S
C1074 C1078 1.350 . S
C1075 C1078 1.463 . S
C1075 C1080 1.350 . S
C1075 N1083 1.427 . S
C1076 H1067 0.930 . S
C1076 C1074 1.378 . S
C1076 C1077 1.367 . S
C1077 C1076 1.367 . S
C1077 C1079 1.433 . S
C1078 C1074 1.350 . S
C1078 C1075 1.463 . S
C1078 N1082 1.427 . S
C1079 H1069 0.929 . S
C1079 C1077 1.433 . S
C1079 N1082 1.384 . S
C1080 H1071 0.929 . S
C1080 C1072 1.378 . S
C1080 C1075 1.350 . S
C1081 H1068 0.929 . S
C1081 C1073 1.433 . S
C1081 N1083 1.384 . S
N1082 C1078 1.427 . S
N1082 C1079 1.384 . S
N1083 C1075 1.427 . S
N1083 C1081 1.384 . S
H1084 C1090 0.930 . S
H1085 C1094 0.930 . S
H1086 C1099 0.929 . S
H1087 C1097 0.929 . S
H1088 C1092 0.929 . S
H1089 C1098 0.929 . S
C1090 H1084 0.930 . S
C1090 C1091 1.367 . S
C1090 C1098 1.378 . S
C1091 C1090 1.367 . S
C1091 C1099 1.433 . S
C1092 H1088 0.929 . S
C1092 C1094 1.378 . S
C1092 C1096 1.350 . S
C1093 C1096 1.463 . S
C1093 C1098 1.350 . S
C1093 N1101 1.427 . S
C1094 H1085 0.930 . S
C1094 C1092 1.378 . S
C1094 C1095 1.367 . S
C1095 C1094 1.367 . S
C1095 C1097 1.433 . S
C1096 C1092 1.350 . S
C1096 C1093 1.463 . S
C1096 N1100 1.427 . S
C1097 H1087 0.929 . S
C1097 C1095 1.433 . S
C1097 N1100 1.384 . S
C1098 H1089 0.929 . S
C1098 C1090 1.378 . S
C1098 C1093 1.350 . S
C1099 H1086 0.929 . S
C1099 C1091 1.433 . S
C1099 N1101 1.384 . S
N1100 C1096 1.427 . S
N1100 C1097 1.384 . S
N1101 C1093 1.427 . S
N1101 C1099 1.384 . S
H1102 C1108 0.930 . S
H1103 C1112 0.930 . S
H1104 C1117 0.929 . S
H1105 C1115 0.929 . S
H1106 C1110 0.929 . S
H1107 C1116 0.929 . S
C1108 H1102 0.930 . S
C1108 C1109 1.367 . S
C1108 C1116 1.378 . S
C1109 C1108 1.367 . S
C1109 C1117 1.433 . S
C1110 H1106 0.929 . S
C1110 C1112 1.378 . S
C1110 C1114 1.350 . S
C1111 C1114 1.463 . S
C1111 C1116 1.350 . S
C1111 N1119 1.427 . S
C1112 H1103 0.930 . S
C1112 C1110 1.378 . S
C1112 C1113 1.367 . S
C1113 C1112 1.367 . S
C1113 C1115 1.433 . S
C1114 C1110 1.350 . S
C1114 C1111 1.463 . S
C1114 N1118 1.427 . S
C1115 H1105 0.929 . S
C1115 C1113 1.433 . S
C1115 N1118 1.384 . S
C1116 H1107 0.929 . S
C1116 C1108 1.378 . S
C1116 C1111 1.350 . S
C1117 H1104 0.929 . S
C1117 C1109 1.433 . S
C1117 N1119 1.384 . S
N1118 C1114 1.427 . S
N1118 C1115 1.384 . S
N1119 C1111 1.427 . S
N1119 C1117 1.384 . S
H1120 C1126 0.930 1_545 S
H1121 C1130 0.930 1_655 S
H1122 C1135 0.928 1_545 S
H1123 C1133 0.929 . S
H1124 C1128 0.929 . S
H1125 C1134 0.929 . S
C1126 H1120 0.930 1_565 S
C1126 C1127 1.367 1_465 S
C1126 C1134 1.378 . S
C1127 C1126 1.367 1_645 S
C1127 C1135 1.433 1_545 S
C1128 H1124 0.929 . S
C1128 C1130 1.378 1_655 S
C1128 C1132 1.350 1_655 S
C1129 C1132 1.464 . S
C1129 C1134 1.354 . S
C1129 N1137 1.421 1_455 S
C1130 H1121 0.930 1_455 S
C1130 C1128 1.378 1_455 S
C1130 C1131 1.367 . S
C1131 C1130 1.367 . S
C1131 C1133 1.433 . S
C1132 C1128 1.350 1_455 S
C1132 C1129 1.464 . S
C1132 N1136 1.427 . S
C1133 H1123 0.929 . S
C1133 C1131 1.433 . S
C1133 N1136 1.384 . S
C1134 H1125 0.929 . S
C1134 C1126 1.378 . S
C1134 C1129 1.354 . S
C1135 H1122 0.928 1_565 S
C1135 C1127 1.433 1_565 S
C1135 N1137 1.384 . S
N1136 C1132 1.427 . S
N1136 C1133 1.384 . S
N1137 C1129 1.421 1_655 S
N1137 C1135 1.384 . S
H1138 C1144 0.930 . S
H1139 C1148 0.930 . S
H1140 C1153 0.929 . S
H1141 C1151 0.929 . S
H1142 C1146 0.929 . S
H1143 C1152 0.929 . S
C1144 H1138 0.930 . S
C1144 C1145 1.367 . S
C1144 C1152 1.378 . S
C1145 C1144 1.367 . S
C1145 C1153 1.433 . S
C1146 H1142 0.929 . S
C1146 C1148 1.378 . S
C1146 C1150 1.350 . S
C1147 C1150 1.463 . S
C1147 C1152 1.350 . S
C1147 N1155 1.427 . S
C1148 H1139 0.930 . S
C1148 C1146 1.378 . S
C1148 C1149 1.367 . S
C1149 C1148 1.367 . S
C1149 C1151 1.433 . S
C1150 C1146 1.350 . S
C1150 C1147 1.463 . S
C1150 N1154 1.427 . S
C1151 H1141 0.929 . S
C1151 C1149 1.433 . S
C1151 N1154 1.384 . S
C1152 H1143 0.929 . S
C1152 C1144 1.378 . S
C1152 C1147 1.350 . S
C1153 H1140 0.929 . S
C1153 C1145 1.433 . S
C1153 N1155 1.384 . S
N1154 C1150 1.427 . S
N1154 C1151 1.384 . S
N1155 C1147 1.427 . S
N1155 C1153 1.384 . S
H1156 C1162 0.930 . S
H1157 C1166 0.930 . S
H1158 C1171 0.929 . S
H1159 C1169 0.929 . S
H1160 C1164 0.929 . S
H1161 C1170 0.929 . S
C1162 H1156 0.930 . S
C1162 C1163 1.367 . S
C1162 C1170 1.378 . S
C1163 C1162 1.367 . S
C1163 C1171 1.433 . S
C1164 H1160 0.929 . S
C1164 C1166 1.378 . S
C1164 C1168 1.350 . S
C1165 C1168 1.463 . S
C1165 C1170 1.350 . S
C1165 N1173 1.427 . S
C1166 H1157 0.930 . S
C1166 C1164 1.378 . S
C1166 C1167 1.367 . S
C1167 C1166 1.367 . S
C1167 C1169 1.433 . S
C1168 C1164 1.350 . S
C1168 C1165 1.463 . S
C1168 N1172 1.427 . S
C1169 H1159 0.929 . S
C1169 C1167 1.433 . S
C1169 N1172 1.384 . S
C1170 H1161 0.929 . S
C1170 C1162 1.378 . S
C1170 C1165 1.350 . S
C1171 H1158 0.929 . S
C1171 C1163 1.433 . S
C1171 N1173 1.384 . S
N1172 C1168 1.427 . S
N1172 C1169 1.384 . S
N1173 C1165 1.427 . S
N1173 C1171 1.384 . S
H1174 C1180 0.930 . S
H1175 C1184 0.930 . S
H1176 C1189 0.929 . S
H1177 C1187 0.929 . S
H1178 C1182 0.929 . S
H1179 C1188 0.929 . S
C1180 H1174 0.930 . S
C1180 C1181 1.367 . S
C1180 C1188 1.378 . S
C1181 C1180 1.367 . S
C1181 C1189 1.433 . S
C1182 H1178 0.929 . S
C1182 C1184 1.378 . S
C1182 C1186 1.350 . S
C1183 C1186 1.463 1_455 S
C1183 C1188 1.350 . S
C1183 N1191 1.427 . S
C1184 H1175 0.930 . S
C1184 C1182 1.378 . S
C1184 C1185 1.367 . S
C1185 C1184 1.367 . S
C1185 C1187 1.433 . S
C1186 C1182 1.350 . S
C1186 C1183 1.463 1_655 S
C1186 N1190 1.427 . S
C1187 H1177 0.929 . S
C1187 C1185 1.433 . S
C1187 N1190 1.384 . S
C1188 H1179 0.929 . S
C1188 C1180 1.378 . S
C1188 C1183 1.350 . S
C1189 H1176 0.929 . S
C1189 C1181 1.433 . S
C1189 N1191 1.384 . S
N1190 C1186 1.427 . S
N1190 C1187 1.384 . S
N1191 C1183 1.427 . S
N1191 C1189 1.384 . S
H1192 C1198 0.930 1_455 S
H1193 C1202 0.930 . S
H1194 C1207 0.929 . S
H1195 C1205 0.929 . S
H1196 C1200 0.917 1_655 S
H1197 C1206 0.929 . S
C1198 H1192 0.930 1_655 S
C1198 C1199 1.367 . S
C1198 C1206 1.378 1_655 S
C1199 C1198 1.367 . S
C1199 C1207 1.433 . S
C1200 H1196 0.917 1_455 S
C1200 C1202 1.385 . S
C1200 C1204 1.356 . S
C1201 C1204 1.462 . S
C1201 C1206 1.350 . S
C1201 N1209 1.428 1_455 S
C1202 H1193 0.930 . S
C1202 C1200 1.385 . S
C1202 C1203 1.367 . S
C1203 C1202 1.367 . S
C1203 C1205 1.433 . S
C1204 C1200 1.356 . S
C1204 C1201 1.462 . S
C1204 N1208 1.427 . S
C1205 H1195 0.929 . S
C1205 C1203 1.433 . S
C1205 N1208 1.384 . S
C1206 H1197 0.929 . S
C1206 C1198 1.378 1_455 S
C1206 C1201 1.350 . S
C1207 H1194 0.929 . S
C1207 C1199 1.433 . S
C1207 N1209 1.384 . S
N1208 C1204 1.427 . S
N1208 C1205 1.384 . S
N1209 C1201 1.428 1_655 S
N1209 C1207 1.384 . S
H1210 C1216 0.930 . S
H1211 C1220 0.930 . S
H1212 C1225 0.929 . S
H1213 C1223 0.929 . S
H1214 C1218 0.929 . S
H1215 C1224 0.929 . S
C1216 H1210 0.930 . S
C1216 C1217 1.367 . S
C1216 C1224 1.378 . S
C1217 C1216 1.367 . S
C1217 C1225 1.433 . S
C1218 H1214 0.929 . S
C1218 C1220 1.378 . S
C1218 C1222 1.350 . S
C1219 C1222 1.463 1_455 S
C1219 C1224 1.350 . S
C1219 N1227 1.427 . S
C1220 H1211 0.930 . S
C1220 C1218 1.378 . S
C1220 C1221 1.367 . S
C1221 C1220 1.367 . S
C1221 C1223 1.433 . S
C1222 C1218 1.350 . S
C1222 C1219 1.463 1_655 S
C1222 N1226 1.427 . S
C1223 H1213 0.929 . S
C1223 C1221 1.433 . S
C1223 N1226 1.384 . S
C1224 H1215 0.929 . S
C1224 C1216 1.378 . S
C1224 C1219 1.350 . S
C1225 H1212 0.929 . S
C1225 C1217 1.433 . S
C1225 N1227 1.384 . S
N1226 C1222 1.427 . S
N1226 C1223 1.384 . S
N1227 C1219 1.427 . S
N1227 C1225 1.384 . S
H1228 C1234 0.930 . S
H1229 C1238 0.930 1_545 S
H1230 C1243 0.929 . S
H1231 C1241 0.929 . S
H1232 C1236 0.929 . S
H1233 C1242 0.929 . S
C1234 H1228 0.930 . S
C1234 C1235 1.367 . S
C1234 C1242 1.378 . S
C1235 C1234 1.367 . S
C1235 C1243 1.433 . S
C1236 H1232 0.929 . S
C1236 C1238 1.378 . S
C1236 C1240 1.350 . S
C1237 C1240 1.463 . S
C1237 C1242 1.350 . S
C1237 N1245 1.427 . S
C1238 H1229 0.930 1_565 S
C1238 C1236 1.378 . S
C1238 C1239 1.367 1_565 S
C1239 C1238 1.367 1_545 S
C1239 C1241 1.433 1_545 S
C1240 C1236 1.350 . S
C1240 C1237 1.463 . S
C1240 N1244 1.427 . S
C1241 H1231 0.929 . S
C1241 C1239 1.433 1_565 S
C1241 N1244 1.384 . S
C1242 H1233 0.929 . S
C1242 C1234 1.378 . S
C1242 C1237 1.350 . S
C1243 H1230 0.929 . S
C1243 C1235 1.433 . S
C1243 N1245 1.384 . S
N1244 C1240 1.427 . S
N1244 C1241 1.384 . S
N1245 C1237 1.427 . S
N1245 C1243 1.384 . S
H1246 C1252 0.930 . S
H1247 C1256 0.930 . S
H1248 C1261 0.929 . S
H1249 C1259 0.929 . S
H1250 C1254 0.929 . S
H1251 C1260 0.929 . S
C1252 H1246 0.930 . S
C1252 C1253 1.367 . S
C1252 C1260 1.378 . S
C1253 C1252 1.367 . S
C1253 C1261 1.433 . S
C1254 H1250 0.929 . S
C1254 C1256 1.378 . S
C1254 C1258 1.350 . S
C1255 C1258 1.463 . S
C1255 C1260 1.350 . S
C1255 N1263 1.427 . S
C1256 H1247 0.930 . S
C1256 C1254 1.378 . S
C1256 C1257 1.367 . S
C1257 C1256 1.367 . S
C1257 C1259 1.433 . S
C1258 C1254 1.350 . S
C1258 C1255 1.463 . S
C1258 N1262 1.427 . S
C1259 H1249 0.929 . S
C1259 C1257 1.433 . S
C1259 N1262 1.384 . S
C1260 H1251 0.929 . S
C1260 C1252 1.378 . S
C1260 C1255 1.350 . S
C1261 H1248 0.929 . S
C1261 C1253 1.433 . S
C1261 N1263 1.384 . S
N1262 C1258 1.427 . S
N1262 C1259 1.384 . S
N1263 C1255 1.427 . S
N1263 C1261 1.384 . S
C551 C451 1.124 . S
C555 C9 1.124 . S
C569 C43 1.123 . S
C573 C383 1.123 . S
C587 C77 1.114 . S
C591 C417 1.115 . S
C605 C111 1.111 . S
C609 C349 1.111 . S
C623 C519 1.108 . S
C627 C145 1.108 . S
C641 C179 1.120 . S
C645 C315 1.121 . S
C659 C213 1.106 . S
C663 C485 1.105 . S
C677 C281 1.125 . S
C681 C247 1.125 . S
C695 C20 1.631 . S
C699 C156 1.634 . S
C713 C54 1.635 . S
C717 C190 1.638 . S
C731 C88 1.631 . S
C735 C224 1.633 . S
C749 C258 1.634 . S
C753 C122 1.639 . S
C767 C360 1.634 . S
C771 C292 1.638 . S
C785 C326 1.638 . S
C789 C394 1.633 . S
C803 C496 1.631 . S
C807 C428 1.634 . S
C821 C530 1.631 . S
C825 C462 1.635 . S
C839 C203 1.024 1_545 S
C843 C33 1.054 . S
C857 C67 1.049 1_545 S
C861 C237 1.051 . S
C875 C101 1.044 . S
C879 C271 1.057 . S
C893 C169 1.042 . S
C897 C135 1.058 . S
C911 C138 1.372 . S
C915 C342 1.360 . S
C929 C70 1.356 . S
C933 C274 1.369 . S
C947 C376 1.367 . S
C951 C206 1.371 . S
C965 C308 1.370 . S
C969 C2 1.356 . S
C983 C305 1.049 . S
C987 C441 1.051 . S
C1001 C543 1.047 . S
C1005 C373 1.054 . S
C1019 C475 1.052 . S
C1023 C339 1.047 . S
C1037 C407 1.044 . S
C1041 C509 1.057 . S
C1055 C478 1.356 . S
C1059 C36 1.360 . S
C1073 C172 1.371 . S
C1077 C444 1.367 . S
C1091 C512 1.355 . S
C1095 C104 1.369 . S
C1109 C240 1.371 . S
C1113 C410 1.358 . S
C1127 C5 0.353 . S
C1131 C447 0.336 . S
C1145 C39 0.347 . S
C1149 C379 0.340 . S
C1163 C73 0.347 . S
C1167 C413 0.341 . S
C1181 C107 0.352 . S
C1185 C345 0.337 . S
C1199 C141 0.355 . S
C1203 C515 0.336 . S
C1217 C175 0.356 . S
C1221 C311 0.336 . S
C1235 C481 0.352 . S
C1239 C209 0.338 . S
C1253 C277 0.353 . S
C1257 C243 0.346 . S
