# Generated by pormake.
# Topology snx, (6)-cn, num edge types: 1
# Building blocks:
#     Node 0, Type 0, BuildingBlock: MIDCAF_clean_sbu_0, # of connection points: 6
#     Node 1, Type 0, BuildingBlock: MIDCAF_clean_sbu_0, # of connection points: 6
#     Node 2, Type 0, BuildingBlock: MIDCAF_clean_sbu_0, # of connection points: 6
#     Node 3, Type 0, BuildingBlock: MIDCAF_clean_sbu_0, # of connection points: 6
#     Node 4, Type 0, BuildingBlock: MIDCAF_clean_sbu_0, # of connection points: 6
#     Node 5, Type 0, BuildingBlock: MIDCAF_clean_sbu_0, # of connection points: 6
#     Edge 6, Type (0, 0), BuildingBlock: CIFDUS_clean_linker_0, # of connection points: 2
#     Edge 7, Type (0, 0), BuildingBlock: CIFDUS_clean_linker_0, # of connection points: 2
#     Edge 8, Type (0, 0), BuildingBlock: CIFDUS_clean_linker_0, # of connection points: 2
#     Edge 9, Type (0, 0), BuildingBlock: CIFDUS_clean_linker_0, # of connection points: 2
#     Edge 10, Type (0, 0), BuildingBlock: CIFDUS_clean_linker_0, # of connection points: 2
#     Edge 11, Type (0, 0), BuildingBlock: CIFDUS_clean_linker_0, # of connection points: 2
#     Edge 12, Type (0, 0), BuildingBlock: CIFDUS_clean_linker_0, # of connection points: 2
#     Edge 13, Type (0, 0), BuildingBlock: CIFDUS_clean_linker_0, # of connection points: 2
#     Edge 14, Type (0, 0), BuildingBlock: CIFDUS_clean_linker_0, # of connection points: 2
#     Edge 15, Type (0, 0), BuildingBlock: CIFDUS_clean_linker_0, # of connection points: 2
#     Edge 16, Type (0, 0), BuildingBlock: CIFDUS_clean_linker_0, # of connection points: 2
#     Edge 17, Type (0, 0), BuildingBlock: CIFDUS_clean_linker_0, # of connection points: 2
#     Edge 18, Type (0, 0), BuildingBlock: CIFDUS_clean_linker_0, # of connection points: 2
#     Edge 19, Type (0, 0), BuildingBlock: CIFDUS_clean_linker_0, # of connection points: 2
#     Edge 20, Type (0, 0), BuildingBlock: CIFDUS_clean_linker_0, # of connection points: 2
#     Edge 21, Type (0, 0), BuildingBlock: CIFDUS_clean_linker_0, # of connection points: 2
#     Edge 22, Type (0, 0), BuildingBlock: CIFDUS_clean_linker_0, # of connection points: 2
#     Edge 23, Type (0, 0), BuildingBlock: CIFDUS_clean_linker_0, # of connection points: 2
# Relax obj value: 0.219
# Max RMSD: 0.238
# Mean RMSD: 0.238
data_MOF--net-snx--node1-MIDCAF_clean_sbu_0--edge1-CIFDUS_clean_linker_0
_symmetry_space_group_name_H-M    P1
_symmetry_Int_Tables_number       1
_symmetry_cell_setting            triclinic
loop_
_symmetry_equiv_pos_as_xyz
'x, y, z'
_cell_length_a     28.916112
_cell_length_b     29.698725
_cell_length_c     20.340562
_cell_angle_alpha  89.801197
_cell_angle_beta   89.949603
_cell_angle_gamma 119.73227
loop_
_atom_site_label
_atom_site_type_symbol
_atom_site_fract_x
_atom_site_fract_y
_atom_site_fract_z
_atom_type_partial_charge
Zn0 Zn 0.0702 0.35173 0.22089 0.0
Zn1 Zn 0.28419 0.38574 0.16123 0.0
Zn2 Zn 0.19734 0.35877 0.20701 0.0
C3 C 0.21998 0.30008 0.09028 0.0
C4 C 0.2774 0.3467 0.29125 0.0
O5 O 0.19691 0.43338 0.21015 0.0
O6 O 0.11661 0.42861 0.20877 0.0
C7 C 0.08887 0.29701 0.11086 0.0
O8 O 0.18529 0.30737 0.12106 0.0
O9 O 0.26892 0.33048 0.09905 0.0
O10 O 0.31032 0.37505 0.24768 0.0
O11 O 0.22765 0.33136 0.2847 0.0
O12 O 0.0581 0.30953 0.14039 0.0
O13 O 0.13734 0.3123 0.12961 0.0
O14 O 0.17494 0.31824 0.30443 0.0
O15 O 0.1176 0.33403 0.26315 0.0
C16 C 0.12916 0.31387 0.30936 0.0
O17 O 0.25376 0.44526 0.20359 0.0
O18 O 0.31576 0.45842 0.13084 0.0
C19 C 0.16729 0.4547 0.20895 0.0
C20 C 0.29637 0.47664 0.17139 0.0
Zn21 Zn 0.76803 0.10533 0.64954 0.0
Zn22 Zn 0.97902 0.29942 0.77636 0.0
Zn23 Zn 0.84068 0.17524 0.7029 0.0
C24 C 0.97504 0.24476 0.64858 0.0
C25 C 0.89854 0.18794 0.8154 0.0
O26 O 0.77721 0.19703 0.68612 0.0
O27 O 0.72701 0.13718 0.6146 0.0
C28 C 0.85819 0.12633 0.57875 0.0
O29 O 0.9236 0.21283 0.65179 0.0
O30 O 1.0018 0.27863 0.69264 0.0
O31 O 0.91357 0.22872 0.78188 0.0
O32 O 0.85536 0.14877 0.79692 0.0
O33 O 0.81123 0.09044 0.58932 0.0
O34 O 0.8781 0.16757 0.6137 0.0
O35 O 0.80922 0.10808 0.77271 0.0
O36 O 0.73408 0.05584 0.72205 0.0
C37 C 0.76399 0.06573 0.77126 0.0
O38 O 0.82079 0.23658 0.71698 0.0
O39 O 0.90055 0.26742 0.75216 0.0
C40 C 0.73666 0.17694 0.64725 0.0
C41 C 0.86193 0.27505 0.7411 0.0
Zn42 Zn 0.65682 0.91328 0.22972 0.0
Zn43 Zn 0.67006 0.70178 0.25066 0.0
Zn44 Zn 0.67483 0.84342 0.23225 0.0
C45 C 0.71792 0.80576 0.32804 0.0
C46 C 0.7215 0.80004 0.15301 0.0
O47 O 0.5879 0.80827 0.23735 0.0
O48 O 0.58535 0.87684 0.27302 0.0
C49 C 0.74251 0.94559 0.31333 0.0
O50 O 0.71785 0.84842 0.32216 0.0
O51 O 0.69859 0.77536 0.27988 0.0
O52 O 0.69918 0.77206 0.20317 0.0
O53 O 0.71974 0.84194 0.14908 0.0
O54 O 0.7212 0.96515 0.27781 0.0
O55 O 0.72423 0.89624 0.31178 0.0
O56 O 0.70892 0.88271 0.13845 0.0
O57 O 0.66112 0.92177 0.13218 0.0
C58 C 0.69325 0.90986 0.10606 0.0
O59 O 0.59938 0.76288 0.2314 0.0
O60 O 0.59181 0.68296 0.24333 0.0
C61 C 0.56148 0.82891 0.26053 0.0
C62 C 0.5714 0.71238 0.23499 0.0
Zn63 Zn 0.92268 0.64929 0.75944 0.0
Zn64 Zn 0.7317 0.61135 0.73448 0.0
Zn65 Zn 0.82945 0.63364 0.74299 0.0
C66 C 0.78139 0.67578 0.62939 0.0
C67 C 0.76574 0.65587 0.85606 0.0
O68 O 0.83069 0.55853 0.74319 0.0
O69 O 0.91442 0.57965 0.7605 0.0
C70 C 0.92429 0.70218 0.6455 0.0
O71 O 0.81963 0.66869 0.64974 0.0
O72 O 0.73867 0.6581 0.66177 0.0
O73 O 0.72284 0.63015 0.82492 0.0
O74 O 0.81032 0.66407 0.8314 0.0
O75 O 0.95353 0.6928 0.6823 0.0
O76 O 0.87402 0.68136 0.65733 0.0
O77 O 0.86471 0.68189 0.83351 0.0
O78 O 0.94482 0.68989 0.83881 0.0
C79 C 0.91081 0.70065 0.86091 0.0
O80 O 0.77757 0.54822 0.7451 0.0
O81 O 0.69859 0.5365 0.71636 0.0
C82 C 0.86677 0.54534 0.75039 0.0
C83 C 0.72811 0.51797 0.7312 0.0
Zn84 Zn 0.27762 0.89669 0.22486 0.0
Zn85 Zn 0.11065 0.75562 0.24722 0.0
Zn86 Zn 0.19234 0.82795 0.23724 0.0
C87 C 0.09123 0.80742 0.15523 0.0
C88 C 0.12283 0.79764 0.3637 0.0
O89 O 0.25208 0.80091 0.25272 0.0
O90 O 0.32014 0.8762 0.28074 0.0
C91 C 0.23867 0.88445 0.10525 0.0
O92 O 0.1421 0.82594 0.15289 0.0
O93 O 0.0655 0.77903 0.20318 0.0
O94 O 0.10465 0.75184 0.34343 0.0
O95 O 0.15556 0.83589 0.32767 0.0
O96 O 0.28352 0.89538 0.12822 0.0
O97 O 0.19698 0.86222 0.14175 0.0
O98 O 0.19944 0.88528 0.31144 0.0
O99 O 0.26338 0.95103 0.2577 0.0
C100 C 0.22811 0.93459 0.30189 0.0
O101 O 0.20513 0.7601 0.23365 0.0
O102 O 0.12439 0.70589 0.19842 0.0
C103 C 0.2993 0.82766 0.27686 0.0
C104 C 0.17182 0.71644 0.20746 0.0
Zn105 Zn 0.38359 0.25064 0.72482 0.0
Zn106 Zn 0.34979 0.08402 0.69137 0.0
Zn107 Zn 0.35935 0.16453 0.70916 0.0
C108 C 0.27307 0.08105 0.61654 0.0
C109 C 0.3264 0.08253 0.81856 0.0
O110 O 0.44717 0.21845 0.71352 0.0
O111 O 0.45232 0.28223 0.77364 0.0
C112 C 0.34789 0.22926 0.59957 0.0
O113 O 0.30658 0.12973 0.62276 0.0
O114 O 0.27792 0.04906 0.65249 0.0
O115 O 0.35004 0.06532 0.78333 0.0
O116 O 0.3205 0.12029 0.79783 0.0
O117 O 0.38483 0.26709 0.62979 0.0
O118 O 0.32636 0.18369 0.62516 0.0
O119 O 0.31265 0.16361 0.79767 0.0
O120 O 0.318 0.23756 0.76928 0.0
C121 C 0.29577 0.19631 0.80261 0.0
O122 O 0.43881 0.1709 0.692 0.0
O123 O 0.41285 0.09913 0.63594 0.0
C124 C 0.47527 0.26089 0.74548 0.0
C125 C 0.45011 0.14206 0.65584 0.0
H126 H 0.15486 0.51074 0.11528 0.0
H127 H 0.23115 0.52391 0.30125 0.0
H128 H 0.25063 0.61402 0.31163 0.0
H129 H 0.22883 0.68184 0.27736 0.0
H130 H 0.14604 0.6634 0.09453 0.0
H131 H 0.14716 0.58344 0.07226 0.0
C132 C 0.17722 0.53408 0.15698 0.0
C133 C 0.19172 0.51137 0.20736 0.0
C134 C 0.18639 0.58474 0.16343 0.0
C135 C 0.22037 0.54128 0.26153 0.0
C136 C 0.23087 0.59248 0.26776 0.0
C137 C 0.21275 0.66103 0.2318 0.0
C138 C 0.18671 0.67771 0.18798 0.0
C139 C 0.21171 0.61375 0.22047 0.0
C140 C 0.1657 0.65065 0.12916 0.0
C141 C 0.16611 0.60488 0.11653 0.0
H142 H 0.66156 0.1565 0.55564 0.0
H143 H 0.71797 0.23119 0.74308 0.0
H144 H 0.63514 0.23346 0.7588 0.0
H145 H 0.54036 0.19874 0.72827 0.0
H146 H 0.48395 0.11926 0.54354 0.0
H147 H 0.57257 0.13327 0.5184 0.0
C148 C 0.65632 0.17439 0.59934 0.0
C149 C 0.69557 0.19295 0.64849 0.0
C150 C 0.60784 0.17331 0.60934 0.0
C151 C 0.68847 0.21665 0.70437 0.0
C152 C 0.64072 0.21727 0.7138 0.0
C153 C 0.54799 0.18592 0.68174 0.0
C154 C 0.50567 0.1578 0.63792 0.0
C155 C 0.59911 0.19338 0.66805 0.0
C156 C 0.51577 0.14048 0.57833 0.0
C157 C 0.56646 0.1486 0.56384 0.0
H158 H 0.36058 0.56073 0.0965 0.0
H159 H 0.31244 0.51205 0.29666 0.0
H160 H 0.39212 0.58856 0.33677 0.0
H161 H 0.48476 0.65763 0.31353 0.0
H162 H 0.53271 0.70588 0.11337 0.0
H163 H 0.4441 0.64197 0.07452 0.0
C164 C 0.36651 0.56813 0.14887 0.0
C165 C 0.33089 0.53066 0.19349 0.0
C166 C 0.41317 0.61164 0.17155 0.0
C167 C 0.33895 0.54055 0.26126 0.0
C168 C 0.38506 0.58395 0.28427 0.0
C169 C 0.47492 0.65529 0.26175 0.0
C170 C 0.51483 0.68606 0.21618 0.0
C171 C 0.42389 0.61806 0.23979 0.0
C172 C 0.50223 0.68263 0.14914 0.0
C173 C 0.45172 0.64587 0.12693 0.0
H174 H 0.91865 0.50277 0.81072 0.0
H175 H 0.78852 0.46634 0.67863 0.0
H176 H 0.77178 0.37727 0.66848 0.0
H177 H 0.79928 0.31186 0.69113 0.0
H178 H 0.93427 0.35243 0.81716 0.0
H179 H 0.9449 0.43816 0.83454 0.0
C180 C 0.88638 0.47524 0.77998 0.0
C181 C 0.85388 0.49063 0.74679 0.0
C182 C 0.87861 0.42512 0.77245 0.0
C183 C 0.81251 0.4547 0.70685 0.0
C184 C 0.80365 0.4041 0.70014 0.0
C185 C 0.8306 0.33936 0.7229 0.0
C186 C 0.86603 0.32592 0.75271 0.0
C187 C 0.83697 0.38907 0.73206 0.0
C188 C 0.9068 0.36202 0.79322 0.0
C189 C 0.91283 0.411 0.80336 0.0
H190 H 0.5018 0.82704 0.36277 0.0
H191 H 0.49092 0.77169 0.16509 0.0
H192 H 0.39823 0.75211 0.15839 0.0
H193 H 0.32968 0.77237 0.19939 0.0
H194 H 0.3459 0.83562 0.3937 0.0
H195 H 0.42586 0.82935 0.41215 0.0
C196 C 0.47828 0.8087 0.31929 0.0
C197 C 0.50281 0.80054 0.26464 0.0
C198 C 0.426 0.79989 0.31496 0.0
C199 C 0.47242 0.77722 0.20825 0.0
C200 C 0.41966 0.76692 0.20407 0.0
C201 C 0.3495 0.78241 0.24671 0.0
C202 C 0.33235 0.8046 0.29515 0.0
C203 C 0.39715 0.78103 0.25573 0.0
C204 C 0.35856 0.81837 0.35594 0.0
C205 C 0.40458 0.8153 0.3662 0.0
H206 H 0.68443 0.44059 0.64256 0.0
H207 H 0.71063 0.47203 0.84966 0.0
H208 H 0.63653 0.38566 0.87539 0.0
H209 H 0.55145 0.31237 0.83705 0.0
H210 H 0.52733 0.27957 0.62984 0.0
H211 H 0.61445 0.35436 0.60565 0.0
C212 C 0.67542 0.42732 0.69317 0.0
C213 C 0.70201 0.46219 0.74428 0.0
C214 C 0.63268 0.37781 0.70738 0.0
C215 C 0.69045 0.44531 0.80977 0.0
C216 C 0.64773 0.39624 0.82441 0.0
C217 C 0.56645 0.32049 0.78699 0.0
C218 C 0.53306 0.29159 0.73515 0.0
C219 C 0.61647 0.36367 0.77349 0.0
C220 C 0.55257 0.30172 0.6704 0.0
C221 C 0.60213 0.34473 0.6565 0.0
H222 H 0.27828 0.16327 0.93104 0.0
H223 H 0.21865 0.21862 0.77493 0.0
H224 H 0.17575 0.24712 0.85439 0.0
H225 H 0.18055 0.27951 0.96633 0.0
H226 H 0.23542 0.22128 0.1239 0.0
H227 H 0.25468 0.17024 0.04614 0.0
C228 C 0.2535 0.17886 0.91445 0.0
C229 C 0.25292 0.19021 0.84759 0.0
C230 C 0.22933 0.19595 0.96077 0.0
C231 C 0.22056 0.21055 0.82657 0.0
C232 C 0.19631 0.22727 0.87197 0.0
C233 C 0.19252 0.25258 -0.01563 0.0
C234 C 0.2059 0.25373 0.05066 0.0
C235 C 0.20383 0.22361 0.93923 0.0
C236 C 0.22438 0.22055 0.07284 0.0
C237 C 0.23606 0.19184 0.02828 0.0
H238 H 0.94945 0.24553 0.5219 0.0
H239 H 0.07133 0.2494 0.64644 0.0
H240 H 0.12959 0.26625 0.55103 0.0
H241 H 0.14883 0.28907 0.4328 0.0
H242 H 0.02455 0.28377 0.30999 0.0
H243 H 0.96377 0.25632 0.40287 0.0
C244 C 0.98761 0.24741 0.52741 0.0
C245 C 1.00551 0.24486 0.59036 0.0
C246 C 0.02085 0.25753 0.47253 0.0
C247 C 0.05656 0.2507 0.59794 0.0
C248 C 0.08992 0.26051 0.5435 0.0
C249 C 0.10818 0.28096 0.42638 0.0
C250 C 0.09168 0.28949 0.36489 0.0
C251 C 0.07305 0.26544 0.4806 0.0
C252 C 0.03873 0.27856 0.35711 0.0
C253 C 1.00371 0.26273 0.41022 0.0
H254 H 0.82089 0.0456 0.86294 0.0
H255 H 0.6613 0.00597 0.80607 0.0
H256 H 0.62497 0.94947 0.90128 0.0
H257 H 0.6384 0.91647 0.00472 0.0
H258 H 0.796 0.9519 0.06295 0.0
H259 H 0.83336 0.00398 0.96262 0.0
C260 C 0.77825 0.02441 0.8716 0.0
C261 C 0.74387 0.03036 0.82815 0.0
C262 C 0.75728 0.99102 0.92623 0.0
C263 C 0.68859 0.00206 0.83894 0.0
C264 C 0.66769 0.96973 0.89334 0.0
C265 C 0.68081 0.9348 -0.00536 0.0
C266 C 0.71456 0.93083 0.04063 0.0
C267 C 0.70164 0.96452 0.93767 0.0
C268 C 0.76936 0.95426 0.02746 0.0
C269 C 0.79069 0.98444 -0.02936 0.0
H270 H 0.74896 0.73367 0.34269 0.0
H271 H 0.72223 0.84331 0.45106 0.0
H272 H 0.74786 0.81802 0.55299 0.0
H273 H 0.771 0.75991 0.61274 0.0
H274 H 0.79032 0.64517 0.50671 0.0
H275 H 0.77564 0.67763 0.40237 0.0
C276 C 0.74905 0.75214 0.38865 0.0
C277 C 0.7344 0.79078 0.38928 0.0
C278 C 0.76309 0.73678 0.44735 0.0
C279 C 0.73453 0.81434 0.44907 0.0
C280 C 0.74884 0.79964 0.50746 0.0
C281 C 0.7735 0.74317 0.56644 0.0
C282 C 0.7841 0.70187 0.56674 0.0
C283 C 0.76264 0.76056 0.50729 0.0
C284 C 0.78504 0.67882 0.50708 0.0
C285 C 0.77556 0.6967 0.44767 0.0
H286 H 1.00007 0.7908 0.87596 0.0
H287 H 0.85709 0.68114 -0.02257 0.0
H288 H 0.89975 0.71631 0.08326 0.0
H289 H 0.9838 0.76101 0.14364 0.0
H290 H 0.12954 0.86278 0.04063 0.0
H291 H 0.08013 0.84852 0.93849 0.0
C292 C 0.97771 0.77618 0.92142 0.0
C293 C 0.92583 0.73345 0.91952 0.0
C294 C 1.00378 0.79406 -0.01848 0.0
C295 C 0.89679 0.71451 -0.02202 0.0
C296 C 0.92165 0.73398 0.03841 0.0
C297 C 1.00478 0.7811 0.09923 0.0
C298 C 0.06088 0.81116 0.09895 0.0
C299 C 0.97616 0.77111 0.04047 0.0
C300 C 0.08693 0.83799 0.04151 0.0
C301 C 0.05853 0.82991 -0.01682 0.0
H302 H 0.29398 0.1177 0.49238 0.0
H303 H 0.17558 0.99486 0.61265 0.0
H304 H 0.14181 0.93825 0.51713 0.0
H305 H 0.1634 0.91746 0.4083 0.0
H306 H 0.28624 0.03966 0.29116 0.0
H307 H 0.29987 0.10269 0.37537 0.0
C308 C 0.25895 0.07957 0.49688 0.0
C309 C 0.23804 0.05988 0.55924 0.0
C310 C 0.24179 0.04633 0.44255 0.0
C311 C 0.19268 0.01041 0.5648 0.0
C312 C 0.17388 0.97775 0.51042 0.0
C313 C 0.1924 0.95789 0.40086 0.0
C314 C 0.22552 0.97314 0.34528 0.0
C315 C 0.20102 0.99406 0.45035 0.0
C316 C 0.26142 0.0263 0.33478 0.0
C317 C 0.26928 0.06264 0.38287 0.0
H318 H 0.70188 0.70243 0.13029 0.0
H319 H 0.78734 0.85853 0.05373 0.0
H320 H 0.81574 0.82839 0.95834 0.0
H321 H 0.80867 0.75606 0.89144 0.0
H322 H 0.71536 0.59949 0.96332 0.0
H323 H 0.69836 0.63112 0.06643 0.0
C324 C 0.72729 0.7299 0.09315 0.0
C325 C 0.74226 0.78247 0.09865 0.0
C326 C 0.74204 0.71208 0.03764 0.0
C327 C 0.77495 0.81772 0.05009 0.0
C328 C 0.79125 0.80054 -0.00435 0.0
C329 C 0.78559 0.72926 0.93049 0.0
C330 C 0.76347 0.67582 0.92084 0.0
C331 C 0.77402 0.74764 -0.01184 0.0
C332 C 0.73282 0.64089 -0.02942 0.0
C333 C 0.72294 0.65892 0.02914 0.0
H334 H 0.02436 0.78166 0.63769 0.0
H335 H 0.88275 0.69244 0.52321 0.0
H336 H 0.93322 0.72854 0.42188 0.0
H337 H 0.02015 0.76685 0.368 0.0
H338 H 0.16382 0.84268 0.4827 0.0
H339 H 0.11089 0.83098 0.58244 0.0
C340 C 1.00441 0.77137 0.59044 0.0
C341 C 0.94975 0.73457 0.58734 0.0
C342 C 0.03471 0.78904 0.53285 0.0
C343 C 0.92409 0.7217 0.52646 0.0
C344 C 0.95339 0.74153 0.46867 0.0
C345 C 0.0397 0.78209 0.41477 0.0
C346 C 0.09526 0.80501 0.41912 0.0
C347 C 1.00903 0.77254 0.47149 0.0
C348 C 0.12092 0.82488 0.47903 0.0
C349 C 0.09065 0.8178 0.53573 0.0
H350 H 0.26227 0.98237 0.09707 0.0
H351 H 0.21537 0.84511 -0.01835 0.0
H352 H 0.23041 0.89556 0.88009 0.0
H353 H 0.26913 0.98018 0.82637 0.0
H354 H 0.32583 0.11909 0.94158 0.0
H355 H 0.29325 0.06659 0.04231 0.0
C356 C 0.25439 0.96367 0.0494 0.0
C357 C 0.23802 0.91075 0.04547 0.0
C358 C 0.26496 0.99319 -0.00786 0.0
C359 C 0.228 0.88602 -0.01538 0.0
C360 C 0.23673 0.91481 0.9271 0.0
C361 C 0.27353 0.99877 0.87363 0.0
C362 C 0.29962 0.05304 0.87753 0.0
C363 C 0.2571 0.96862 0.93052 0.0
C364 C 0.3049 0.07724 0.93809 0.0
C365 C 0.28699 0.04728 -0.00464 0.0
H366 H 0.40111 0.30977 0.51792 0.0
H367 H 0.24861 0.17197 0.54619 0.0
H368 H 0.21214 0.19674 0.45307 0.0
H369 H 0.2232 0.26044 0.36717 0.0
H370 H 0.37685 0.3977 0.34104 0.0
H371 H 0.41308 0.37077 0.43109 0.0
C372 C 0.35998 0.28493 0.50336 0.0
C373 C 0.32753 0.23927 0.5385 0.0
C374 C 0.33932 0.2998 0.45109 0.0
C375 C 0.27447 0.2071 0.51908 0.0
C376 C 0.25349 0.22153 0.46646 0.0
C377 C 0.26443 0.28448 0.38171 0.0
C378 C 0.29727 0.33106 0.34813 0.0
C379 C 0.28536 0.26834 0.43289 0.0
C380 C 0.35086 0.36165 0.36641 0.0
C381 C 0.37167 0.34628 0.41766 0.0
H382 H 1.0049 0.24193 0.82652 0.0
H383 H 0.86263 0.13361 0.93068 0.0
H384 H 0.91396 0.15067 0.03256 0.0
H385 H 0.99524 0.20929 0.09451 0.0
H386 H 0.13407 0.32379 -0.00933 0.0
H387 H 0.08888 0.29106 0.88556 0.0
C388 C 0.98532 0.22163 0.87143 0.0
C389 C 0.93002 0.18776 0.87201 0.0
C390 C 1.01467 0.23292 0.92962 0.0
C391 C 0.90518 0.16015 0.92954 0.0
C392 C 0.93445 0.17024 -0.01228 0.0
C393 C 1.01599 0.22564 0.04853 0.0
C394 C 0.06821 0.26799 0.04962 0.0
C395 C 0.98863 0.20837 -0.01118 0.0
C396 C 0.09463 0.28994 -0.00958 0.0
C397 C 0.06841 0.27185 0.93058 0.0
H398 H 0.79497 0.05054 0.31517 0.0
H399 H 0.79408 0.91858 0.40558 0.0
H400 H 0.8548 0.97442 0.49057 0.0
H401 H 0.88682 0.05517 0.55291 0.0
H402 H 0.87609 0.18233 0.46747 0.0
H403 H 0.84678 0.13633 0.36414 0.0
C404 C 0.80861 0.03396 0.35285 0.0
C405 C 0.78729 0.97989 0.35666 0.0
C406 C 0.8431 0.06627 0.40164 0.0
C407 C 0.80743 0.95955 0.40383 0.0
C408 C 0.84279 0.99166 0.45193 0.0
C409 C 0.88129 0.07392 0.51012 0.0
C410 C 0.88258 0.12153 0.5181 0.0
C411 C 0.8581 0.04448 0.45352 0.0
C412 C 0.87612 0.14606 0.4626 0.0
C413 C 0.85713 0.1187 0.40403 0.0
loop_
_geom_bond_atom_site_label_1
_geom_bond_atom_site_label_2
_geom_bond_distance
_geom_bond_site_symmetry_2
_ccdc_geom_bond_type
Zn0 O6 1.920 . S
Zn0 O12 1.898 . S
Zn0 O15 1.905 . S
Zn1 O9 1.905 . S
Zn1 O10 1.898 . S
Zn1 O18 1.920 . S
Zn2 O5 2.080 . S
Zn2 O8 2.114 . S
Zn2 O11 2.120 . S
Zn2 O13 2.120 . S
Zn2 O14 2.114 . S
Zn2 O17 2.080 . S
C3 O8 1.166 . S
C3 O9 1.182 . S
C4 O10 1.167 . S
C4 O11 1.299 . S
O5 Zn2 2.080 . S
O5 C19 1.305 . S
O6 Zn0 1.920 . S
O6 C19 1.234 . S
C7 O12 1.167 . S
C7 O13 1.299 . S
O8 Zn2 2.114 . S
O8 C3 1.166 . S
O9 Zn1 1.905 . S
O9 C3 1.182 . S
O10 Zn1 1.898 . S
O10 C4 1.167 . S
O11 Zn2 2.120 . S
O11 C4 1.299 . S
O12 Zn0 1.898 . S
O12 C7 1.167 . S
O13 Zn2 2.120 . S
O13 C7 1.299 . S
O14 Zn2 2.114 . S
O14 C16 1.166 . S
O15 Zn0 1.905 . S
O15 C16 1.182 . S
C16 O14 1.166 . S
C16 O15 1.182 . S
O17 Zn2 2.080 . S
O17 C20 1.305 . S
O18 Zn1 1.920 . S
O18 C20 1.234 . S
C19 O5 1.305 . S
C19 O6 1.234 . S
C20 O17 1.305 . S
C20 O18 1.234 . S
Zn21 O27 1.920 . S
Zn21 O33 1.898 . S
Zn21 O36 1.905 . S
Zn22 O30 1.905 . S
Zn22 O31 1.898 . S
Zn22 O39 1.920 . S
Zn23 O26 2.080 . S
Zn23 O29 2.114 . S
Zn23 O32 2.120 . S
Zn23 O34 2.120 . S
Zn23 O35 2.114 . S
Zn23 O38 2.080 . S
C24 O29 1.166 . S
C24 O30 1.182 . S
C25 O31 1.167 . S
C25 O32 1.299 . S
O26 Zn23 2.080 . S
O26 C40 1.305 . S
O27 Zn21 1.920 . S
O27 C40 1.234 . S
C28 O33 1.167 . S
C28 O34 1.299 . S
O29 Zn23 2.114 . S
O29 C24 1.166 . S
O30 Zn22 1.905 . S
O30 C24 1.182 . S
O31 Zn22 1.898 . S
O31 C25 1.167 . S
O32 Zn23 2.120 . S
O32 C25 1.299 . S
O33 Zn21 1.898 . S
O33 C28 1.167 . S
O34 Zn23 2.120 . S
O34 C28 1.299 . S
O35 Zn23 2.114 . S
O35 C37 1.166 . S
O36 Zn21 1.905 . S
O36 C37 1.182 . S
C37 O35 1.166 . S
C37 O36 1.182 . S
O38 Zn23 2.080 . S
O38 C41 1.305 . S
O39 Zn22 1.920 . S
O39 C41 1.234 . S
C40 O26 1.305 . S
C40 O27 1.234 . S
C41 O38 1.305 . S
C41 O39 1.234 . S
Zn42 O48 1.920 . S
Zn42 O54 1.898 . S
Zn42 O57 1.905 . S
Zn43 O51 1.905 . S
Zn43 O52 1.898 . S
Zn43 O60 1.920 . S
Zn44 O47 2.080 . S
Zn44 O50 2.114 . S
Zn44 O53 2.120 . S
Zn44 O55 2.120 . S
Zn44 O56 2.114 . S
Zn44 O59 2.080 . S
C45 O50 1.166 . S
C45 O51 1.182 . S
C46 O52 1.167 . S
C46 O53 1.299 . S
O47 Zn44 2.080 . S
O47 C61 1.305 . S
O48 Zn42 1.920 . S
O48 C61 1.234 . S
C49 O54 1.167 . S
C49 O55 1.299 . S
O50 Zn44 2.114 . S
O50 C45 1.166 . S
O51 Zn43 1.905 . S
O51 C45 1.182 . S
O52 Zn43 1.898 . S
O52 C46 1.167 . S
O53 Zn44 2.120 . S
O53 C46 1.299 . S
O54 Zn42 1.898 . S
O54 C49 1.167 . S
O55 Zn44 2.120 . S
O55 C49 1.299 . S
O56 Zn44 2.114 . S
O56 C58 1.166 . S
O57 Zn42 1.905 . S
O57 C58 1.182 . S
C58 O56 1.166 . S
C58 O57 1.182 . S
O59 Zn44 2.080 . S
O59 C62 1.305 . S
O60 Zn43 1.920 . S
O60 C62 1.234 . S
C61 O47 1.305 . S
C61 O48 1.234 . S
C62 O59 1.305 . S
C62 O60 1.234 . S
Zn63 O69 1.920 . S
Zn63 O75 1.898 . S
Zn63 O78 1.905 . S
Zn64 O72 1.905 . S
Zn64 O73 1.898 . S
Zn64 O81 1.920 . S
Zn65 O68 2.080 . S
Zn65 O71 2.114 . S
Zn65 O74 2.120 . S
Zn65 O76 2.120 . S
Zn65 O77 2.114 . S
Zn65 O80 2.080 . S
C66 O71 1.166 . S
C66 O72 1.182 . S
C67 O73 1.167 . S
C67 O74 1.299 . S
O68 Zn65 2.080 . S
O68 C82 1.305 . S
O69 Zn63 1.920 . S
O69 C82 1.234 . S
C70 O75 1.167 . S
C70 O76 1.299 . S
O71 Zn65 2.114 . S
O71 C66 1.166 . S
O72 Zn64 1.905 . S
O72 C66 1.182 . S
O73 Zn64 1.898 . S
O73 C67 1.167 . S
O74 Zn65 2.120 . S
O74 C67 1.299 . S
O75 Zn63 1.898 . S
O75 C70 1.167 . S
O76 Zn65 2.120 . S
O76 C70 1.299 . S
O77 Zn65 2.114 . S
O77 C79 1.166 . S
O78 Zn63 1.905 . S
O78 C79 1.182 . S
C79 O77 1.166 . S
C79 O78 1.182 . S
O80 Zn65 2.080 . S
O80 C83 1.305 . S
O81 Zn64 1.920 . S
O81 C83 1.234 . S
C82 O68 1.305 . S
C82 O69 1.234 . S
C83 O80 1.305 . S
C83 O81 1.234 . S
Zn84 O90 1.920 . S
Zn84 O96 1.898 . S
Zn84 O99 1.905 . S
Zn85 O93 1.905 . S
Zn85 O94 1.898 . S
Zn85 O102 1.920 . S
Zn86 O89 2.080 . S
Zn86 O92 2.114 . S
Zn86 O95 2.120 . S
Zn86 O97 2.120 . S
Zn86 O98 2.114 . S
Zn86 O101 2.080 . S
C87 O92 1.166 . S
C87 O93 1.182 . S
C88 O94 1.167 . S
C88 O95 1.299 . S
O89 Zn86 2.080 . S
O89 C103 1.305 . S
O90 Zn84 1.920 . S
O90 C103 1.234 . S
C91 O96 1.167 . S
C91 O97 1.299 . S
O92 Zn86 2.114 . S
O92 C87 1.166 . S
O93 Zn85 1.905 . S
O93 C87 1.182 . S
O94 Zn85 1.898 . S
O94 C88 1.167 . S
O95 Zn86 2.120 . S
O95 C88 1.299 . S
O96 Zn84 1.898 . S
O96 C91 1.167 . S
O97 Zn86 2.120 . S
O97 C91 1.299 . S
O98 Zn86 2.114 . S
O98 C100 1.166 . S
O99 Zn84 1.905 . S
O99 C100 1.182 . S
C100 O98 1.166 . S
C100 O99 1.182 . S
O101 Zn86 2.080 . S
O101 C104 1.305 . S
O102 Zn85 1.920 . S
O102 C104 1.234 . S
C103 O89 1.305 . S
C103 O90 1.234 . S
C104 O101 1.305 . S
C104 O102 1.234 . S
Zn105 O111 1.920 . S
Zn105 O117 1.898 . S
Zn105 O120 1.905 . S
Zn106 O114 1.905 . S
Zn106 O115 1.898 . S
Zn106 O123 1.920 . S
Zn107 O110 2.080 . S
Zn107 O113 2.114 . S
Zn107 O116 2.120 . S
Zn107 O118 2.120 . S
Zn107 O119 2.114 . S
Zn107 O122 2.080 . S
C108 O113 1.166 . S
C108 O114 1.182 . S
C109 O115 1.167 . S
C109 O116 1.299 . S
O110 Zn107 2.080 . S
O110 C124 1.305 . S
O111 Zn105 1.920 . S
O111 C124 1.234 . S
C112 O117 1.167 . S
C112 O118 1.299 . S
O113 Zn107 2.114 . S
O113 C108 1.166 . S
O114 Zn106 1.905 . S
O114 C108 1.182 . S
O115 Zn106 1.898 . S
O115 C109 1.167 . S
O116 Zn107 2.120 . S
O116 C109 1.299 . S
O117 Zn105 1.898 . S
O117 C112 1.167 . S
O118 Zn107 2.120 . S
O118 C112 1.299 . S
O119 Zn107 2.114 . S
O119 C121 1.166 . S
O120 Zn105 1.905 . S
O120 C121 1.182 . S
C121 O119 1.166 . S
C121 O120 1.182 . S
O122 Zn107 2.080 . S
O122 C125 1.305 . S
O123 Zn106 1.920 . S
O123 C125 1.234 . S
C124 O110 1.305 . S
C124 O111 1.234 . S
C125 O122 1.305 . S
C125 O123 1.234 . S
H126 C132 0.930 . S
H127 C135 0.930 . S
H128 C136 0.930 . S
H129 C137 0.930 . S
H130 C140 0.930 . S
H131 C141 0.930 . S
C132 H126 0.930 . S
C132 C133 1.355 . S
C132 C134 1.415 . S
C133 C132 1.355 . S
C133 C135 1.419 . S
C134 C132 1.415 . S
C134 C139 1.425 . S
C134 C141 1.409 . S
C135 H127 0.930 . S
C135 C133 1.419 . S
C135 C136 1.362 . S
C136 H128 0.930 . S
C136 C135 1.362 . S
C136 C139 1.409 . S
C137 H129 0.930 . S
C137 C138 1.355 . S
C137 C139 1.415 . S
C138 C137 1.355 . S
C138 C140 1.419 . S
C139 C134 1.425 . S
C139 C136 1.409 . S
C139 C137 1.415 . S
C140 H130 0.930 . S
C140 C138 1.419 . S
C140 C141 1.362 . S
C141 H131 0.930 . S
C141 C134 1.409 . S
C141 C140 1.362 . S
H142 C148 0.930 . S
H143 C151 0.930 . S
H144 C152 0.930 . S
H145 C153 0.930 . S
H146 C156 0.930 . S
H147 C157 0.930 . S
C148 H142 0.930 . S
C148 C149 1.355 . S
C148 C150 1.415 . S
C149 C148 1.355 . S
C149 C151 1.419 . S
C150 C148 1.415 . S
C150 C155 1.425 . S
C150 C157 1.409 . S
C151 H143 0.930 . S
C151 C149 1.419 . S
C151 C152 1.362 . S
C152 H144 0.930 . S
C152 C151 1.362 . S
C152 C155 1.409 . S
C153 H145 0.930 . S
C153 C154 1.355 . S
C153 C155 1.415 . S
C154 C153 1.355 . S
C154 C156 1.419 . S
C155 C150 1.425 . S
C155 C152 1.409 . S
C155 C153 1.415 . S
C156 H146 0.930 . S
C156 C154 1.419 . S
C156 C157 1.362 . S
C157 H147 0.930 . S
C157 C150 1.409 . S
C157 C156 1.362 . S
H158 C164 0.930 . S
H159 C167 0.930 . S
H160 C168 0.930 . S
H161 C169 0.930 . S
H162 C172 0.930 . S
H163 C173 0.930 . S
C164 H158 0.930 . S
C164 C165 1.355 . S
C164 C166 1.415 . S
C165 C164 1.355 . S
C165 C167 1.419 . S
C166 C164 1.415 . S
C166 C171 1.425 . S
C166 C173 1.409 . S
C167 H159 0.930 . S
C167 C165 1.419 . S
C167 C168 1.362 . S
C168 H160 0.930 . S
C168 C167 1.362 . S
C168 C171 1.409 . S
C169 H161 0.930 . S
C169 C170 1.355 . S
C169 C171 1.415 . S
C170 C169 1.355 . S
C170 C172 1.419 . S
C171 C166 1.425 . S
C171 C168 1.409 . S
C171 C169 1.415 . S
C172 H162 0.930 . S
C172 C170 1.419 . S
C172 C173 1.362 . S
C173 H163 0.930 . S
C173 C166 1.409 . S
C173 C172 1.362 . S
H174 C180 0.930 . S
H175 C183 0.930 . S
H176 C184 0.930 . S
H177 C185 0.930 . S
H178 C188 0.930 . S
H179 C189 0.930 . S
C180 H174 0.930 . S
C180 C181 1.355 . S
C180 C182 1.415 . S
C181 C180 1.355 . S
C181 C183 1.419 . S
C182 C180 1.415 . S
C182 C187 1.425 . S
C182 C189 1.409 . S
C183 H175 0.930 . S
C183 C181 1.419 . S
C183 C184 1.362 . S
C184 H176 0.930 . S
C184 C183 1.362 . S
C184 C187 1.409 . S
C185 H177 0.930 . S
C185 C186 1.355 . S
C185 C187 1.415 . S
C186 C185 1.355 . S
C186 C188 1.419 . S
C187 C182 1.425 . S
C187 C184 1.409 . S
C187 C185 1.415 . S
C188 H178 0.930 . S
C188 C186 1.419 . S
C188 C189 1.362 . S
C189 H179 0.930 . S
C189 C182 1.409 . S
C189 C188 1.362 . S
H190 C196 0.930 . S
H191 C199 0.930 . S
H192 C200 0.930 . S
H193 C201 0.930 . S
H194 C204 0.930 . S
H195 C205 0.930 . S
C196 H190 0.930 . S
C196 C197 1.355 . S
C196 C198 1.415 . S
C197 C196 1.355 . S
C197 C199 1.419 . S
C198 C196 1.415 . S
C198 C203 1.425 . S
C198 C205 1.409 . S
C199 H191 0.930 . S
C199 C197 1.419 . S
C199 C200 1.362 . S
C200 H192 0.930 . S
C200 C199 1.362 . S
C200 C203 1.409 . S
C201 H193 0.930 . S
C201 C202 1.355 . S
C201 C203 1.415 . S
C202 C201 1.355 . S
C202 C204 1.419 . S
C203 C198 1.425 . S
C203 C200 1.409 . S
C203 C201 1.415 . S
C204 H194 0.930 . S
C204 C202 1.419 . S
C204 C205 1.362 . S
C205 H195 0.930 . S
C205 C198 1.409 . S
C205 C204 1.362 . S
H206 C212 0.930 . S
H207 C215 0.930 . S
H208 C216 0.930 . S
H209 C217 0.930 . S
H210 C220 0.930 . S
H211 C221 0.930 . S
C212 H206 0.930 . S
C212 C213 1.355 . S
C212 C214 1.415 . S
C213 C212 1.355 . S
C213 C215 1.419 . S
C214 C212 1.415 . S
C214 C219 1.425 . S
C214 C221 1.409 . S
C215 H207 0.930 . S
C215 C213 1.419 . S
C215 C216 1.362 . S
C216 H208 0.930 . S
C216 C215 1.362 . S
C216 C219 1.409 . S
C217 H209 0.930 . S
C217 C218 1.355 . S
C217 C219 1.415 . S
C218 C217 1.355 . S
C218 C220 1.419 . S
C219 C214 1.425 . S
C219 C216 1.409 . S
C219 C217 1.415 . S
C220 H210 0.930 . S
C220 C218 1.419 . S
C220 C221 1.362 . S
C221 H211 0.930 . S
C221 C214 1.409 . S
C221 C220 1.362 . S
H222 C228 0.930 . S
H223 C231 0.930 . S
H224 C232 0.930 . S
H225 C233 0.930 . S
H226 C236 0.930 . S
H227 C237 0.930 . S
C228 H222 0.930 . S
C228 C229 1.355 . S
C228 C230 1.415 1_556 S
C229 C228 1.355 . S
C229 C231 1.419 . S
C230 C228 1.415 1_554 S
C230 C235 1.425 1_554 S
C230 C237 1.409 . S
C231 H223 0.930 . S
C231 C229 1.419 . S
C231 C232 1.362 . S
C232 H224 0.930 . S
C232 C231 1.362 . S
C232 C235 1.409 . S
C233 H225 0.930 . S
C233 C234 1.355 . S
C233 C235 1.415 1_554 S
C234 C233 1.355 . S
C234 C236 1.419 . S
C235 C230 1.425 1_556 S
C235 C232 1.409 . S
C235 C233 1.415 1_556 S
C236 H226 0.930 . S
C236 C234 1.419 . S
C236 C237 1.362 . S
C237 H227 0.930 . S
C237 C230 1.409 . S
C237 C236 1.362 . S
H238 C244 0.930 . S
H239 C247 0.930 . S
H240 C248 0.930 . S
H241 C249 0.930 . S
H242 C252 0.930 . S
H243 C253 0.930 . S
C244 H238 0.930 . S
C244 C245 1.355 . S
C244 C246 1.415 . S
C245 C244 1.355 . S
C245 C247 1.419 . S
C246 C244 1.415 . S
C246 C251 1.425 1_655 S
C246 C253 1.409 . S
C247 H239 0.930 . S
C247 C245 1.419 . S
C247 C248 1.362 1_655 S
C248 H240 0.930 . S
C248 C247 1.362 1_455 S
C248 C251 1.409 . S
C249 H241 0.930 . S
C249 C250 1.355 . S
C249 C251 1.415 . S
C250 C249 1.355 . S
C250 C252 1.419 . S
C251 C246 1.425 1_455 S
C251 C248 1.409 . S
C251 C249 1.415 . S
C252 H242 0.930 . S
C252 C250 1.419 . S
C252 C253 1.362 1_455 S
C253 H243 0.930 . S
C253 C246 1.409 . S
C253 C252 1.362 1_655 S
H254 C260 0.930 . S
H255 C263 0.930 1_565 S
H256 C264 0.930 . S
H257 C265 0.930 . S
H258 C268 0.930 1_545 S
H259 C269 0.930 . S
C260 H254 0.930 . S
C260 C261 1.355 . S
C260 C262 1.415 1_556 S
C261 C260 1.355 . S
C261 C263 1.419 . S
C262 C260 1.415 1_554 S
C262 C267 1.425 1_544 S
C262 C269 1.409 . S
C263 H255 0.930 1_545 S
C263 C261 1.419 . S
C263 C264 1.362 1_545 S
C264 H256 0.930 . S
C264 C263 1.362 1_565 S
C264 C267 1.409 . S
C265 H257 0.930 . S
C265 C266 1.355 . S
C265 C267 1.415 1_554 S
C266 C265 1.355 . S
C266 C268 1.419 . S
C267 C262 1.425 1_566 S
C267 C264 1.409 . S
C267 C265 1.415 1_556 S
C268 H258 0.930 1_565 S
C268 C266 1.419 . S
C268 C269 1.362 1_565 S
C269 H259 0.930 . S
C269 C262 1.409 . S
C269 C268 1.362 1_545 S
H270 C276 0.930 . S
H271 C279 0.930 . S
H272 C280 0.930 . S
H273 C281 0.930 . S
H274 C284 0.930 . S
H275 C285 0.930 . S
C276 H270 0.930 . S
C276 C277 1.355 . S
C276 C278 1.415 . S
C277 C276 1.355 . S
C277 C279 1.419 . S
C278 C276 1.415 . S
C278 C283 1.425 . S
C278 C285 1.409 . S
C279 H271 0.930 . S
C279 C277 1.419 . S
C279 C280 1.362 . S
C280 H272 0.930 . S
C280 C279 1.362 . S
C280 C283 1.409 . S
C281 H273 0.930 . S
C281 C282 1.355 . S
C281 C283 1.415 . S
C282 C281 1.355 . S
C282 C284 1.419 . S
C283 C278 1.425 . S
C283 C280 1.409 . S
C283 C281 1.415 . S
C284 H274 0.930 . S
C284 C282 1.419 . S
C284 C285 1.362 . S
C285 H275 0.930 . S
C285 C278 1.409 . S
C285 C284 1.362 . S
H286 C292 0.930 . S
H287 C295 0.930 . S
H288 C296 0.930 1_554 S
H289 C297 0.930 . S
H290 C300 0.930 . S
H291 C301 0.930 1_556 S
C292 H286 0.930 . S
C292 C293 1.355 . S
C292 C294 1.415 1_655 S
C293 C292 1.355 . S
C293 C295 1.419 . S
C294 C292 1.415 1_455 S
C294 C299 1.425 1_456 S
C294 C301 1.409 1_556 S
C295 H287 0.930 . S
C295 C293 1.419 . S
C295 C296 1.362 . S
C296 H288 0.930 1_556 S
C296 C295 1.362 . S
C296 C299 1.409 1_556 S
C297 H289 0.930 . S
C297 C298 1.355 . S
C297 C299 1.415 1_455 S
C298 C297 1.355 . S
C298 C300 1.419 . S
C299 C294 1.425 1_654 S
C299 C296 1.409 1_554 S
C299 C297 1.415 1_655 S
C300 H290 0.930 . S
C300 C298 1.419 . S
C300 C301 1.362 . S
C301 H291 0.930 1_554 S
C301 C294 1.409 1_554 S
C301 C300 1.362 . S
H302 C308 0.930 . S
H303 C311 0.930 . S
H304 C312 0.930 . S
H305 C313 0.930 . S
H306 C316 0.930 . S
H307 C317 0.930 . S
C308 H302 0.930 . S
C308 C309 1.355 . S
C308 C310 1.415 . S
C309 C308 1.355 . S
C309 C311 1.419 . S
C310 C308 1.415 . S
C310 C315 1.425 1_545 S
C310 C317 1.409 . S
C311 H303 0.930 . S
C311 C309 1.419 . S
C311 C312 1.362 1_545 S
C312 H304 0.930 . S
C312 C311 1.362 1_565 S
C312 C315 1.409 . S
C313 H305 0.930 . S
C313 C314 1.355 . S
C313 C315 1.415 . S
C314 C313 1.355 . S
C314 C316 1.419 . S
C315 C310 1.425 1_565 S
C315 C312 1.409 . S
C315 C313 1.415 . S
C316 H306 0.930 . S
C316 C314 1.419 . S
C316 C317 1.362 1_565 S
C317 H307 0.930 . S
C317 C310 1.409 . S
C317 C316 1.362 1_545 S
H318 C324 0.930 . S
H319 C327 0.930 . S
H320 C328 0.930 . S
H321 C329 0.930 . S
H322 C332 0.930 . S
H323 C333 0.930 . S
C324 H318 0.930 . S
C324 C325 1.355 . S
C324 C326 1.415 . S
C325 C324 1.355 . S
C325 C327 1.419 . S
C326 C324 1.415 . S
C326 C331 1.425 1_554 S
C326 C333 1.409 . S
C327 H319 0.930 . S
C327 C325 1.419 . S
C327 C328 1.362 1_554 S
C328 H320 0.930 . S
C328 C327 1.362 1_556 S
C328 C331 1.409 . S
C329 H321 0.930 . S
C329 C330 1.355 . S
C329 C331 1.415 . S
C330 C329 1.355 . S
C330 C332 1.419 . S
C331 C326 1.425 1_556 S
C331 C328 1.409 . S
C331 C329 1.415 . S
C332 H322 0.930 . S
C332 C330 1.419 . S
C332 C333 1.362 1_556 S
C333 H323 0.930 . S
C333 C326 1.409 . S
C333 C332 1.362 1_554 S
H334 C340 0.930 . S
H335 C343 0.930 . S
H336 C344 0.930 . S
H337 C345 0.930 . S
H338 C348 0.930 . S
H339 C349 0.930 . S
C340 H334 0.930 . S
C340 C341 1.355 . S
C340 C342 1.413 1_655 S
C341 C340 1.355 . S
C341 C343 1.419 . S
C342 C340 1.413 1_455 S
C342 C347 1.422 1_455 S
C342 C349 1.412 . S
C343 H335 0.930 . S
C343 C341 1.419 . S
C343 C344 1.362 . S
C344 H336 0.930 . S
C344 C343 1.362 . S
C344 C347 1.412 . S
C345 H337 0.930 . S
C345 C346 1.355 . S
C345 C347 1.413 1_455 S
C346 C345 1.355 . S
C346 C348 1.419 . S
C347 C342 1.422 1_655 S
C347 C344 1.412 . S
C347 C345 1.413 1_655 S
C348 H338 0.930 . S
C348 C346 1.419 . S
C348 C349 1.362 . S
C349 H339 0.930 . S
C349 C342 1.412 . S
C349 C348 1.362 . S
H350 C356 0.930 . S
H351 C359 0.930 . S
H352 C360 0.930 1_556 S
H353 C361 0.930 . S
H354 C364 0.930 . S
H355 C365 0.930 1_554 S
C356 H350 0.930 . S
C356 C357 1.355 . S
C356 C358 1.415 . S
C357 C356 1.355 . S
C357 C359 1.419 . S
C358 C356 1.415 . S
C358 C363 1.425 1_564 S
C358 C365 1.409 1_564 S
C359 H351 0.930 . S
C359 C357 1.419 . S
C359 C360 1.362 . S
C360 H352 0.930 1_554 S
C360 C359 1.362 . S
C360 C363 1.409 1_564 S
C361 H353 0.930 . S
C361 C362 1.355 . S
C361 C363 1.415 . S
C362 C361 1.355 . S
C362 C364 1.419 . S
C363 C358 1.425 1_546 S
C363 C360 1.409 1_546 S
C363 C361 1.415 . S
C364 H354 0.930 . S
C364 C362 1.419 . S
C364 C365 1.362 . S
C365 H355 0.930 1_556 S
C365 C358 1.409 1_546 S
C365 C364 1.362 . S
H366 C372 0.930 . S
H367 C375 0.930 . S
H368 C376 0.930 . S
H369 C377 0.930 . S
H370 C380 0.930 . S
H371 C381 0.930 . S
C372 H366 0.930 . S
C372 C373 1.355 . S
C372 C374 1.415 . S
C373 C372 1.355 . S
C373 C375 1.419 . S
C374 C372 1.415 . S
C374 C379 1.425 . S
C374 C381 1.409 . S
C375 H367 0.930 . S
C375 C373 1.419 . S
C375 C376 1.362 . S
C376 H368 0.930 . S
C376 C375 1.362 . S
C376 C379 1.409 . S
C377 H369 0.930 . S
C377 C378 1.355 . S
C377 C379 1.415 . S
C378 C377 1.355 . S
C378 C380 1.419 . S
C379 C374 1.425 . S
C379 C376 1.409 . S
C379 C377 1.415 . S
C380 H370 0.930 . S
C380 C378 1.419 . S
C380 C381 1.362 . S
C381 H371 0.930 . S
C381 C374 1.409 . S
C381 C380 1.362 . S
H382 C388 0.930 . S
H383 C391 0.930 . S
H384 C392 0.930 . S
H385 C393 0.930 . S
H386 C396 0.930 . S
H387 C397 0.930 . S
C388 H382 0.930 . S
C388 C389 1.355 . S
C388 C390 1.415 1_655 S
C389 C388 1.355 . S
C389 C391 1.419 . S
C390 C388 1.415 1_455 S
C390 C395 1.425 1_456 S
C390 C397 1.409 . S
C391 H383 0.930 . S
C391 C389 1.419 . S
C391 C392 1.362 1_556 S
C392 H384 0.930 . S
C392 C391 1.362 1_554 S
C392 C395 1.409 . S
C393 H385 0.930 . S
C393 C394 1.355 . S
C393 C395 1.415 1_455 S
C394 C393 1.355 . S
C394 C396 1.419 . S
C395 C390 1.425 1_654 S
C395 C392 1.409 . S
C395 C393 1.415 1_655 S
C396 H386 0.930 . S
C396 C394 1.419 . S
C396 C397 1.362 1_554 S
C397 H387 0.930 . S
C397 C390 1.409 . S
C397 C396 1.362 1_556 S
H398 C404 0.930 . S
H399 C407 0.930 . S
H400 C408 0.930 . S
H401 C409 0.930 . S
H402 C412 0.930 . S
H403 C413 0.930 . S
C404 H398 0.930 . S
C404 C405 1.355 . S
C404 C406 1.415 1_565 S
C405 C404 1.355 . S
C405 C407 1.419 . S
C406 C404 1.415 1_545 S
C406 C411 1.425 1_545 S
C406 C413 1.409 . S
C407 H399 0.930 . S
C407 C405 1.419 . S
C407 C408 1.362 . S
C408 H400 0.930 . S
C408 C407 1.362 . S
C408 C411 1.409 . S
C409 H401 0.930 . S
C409 C410 1.355 . S
C409 C411 1.415 1_545 S
C410 C409 1.355 . S
C410 C412 1.419 . S
C411 C406 1.425 1_565 S
C411 C408 1.409 . S
C411 C409 1.415 1_565 S
C412 H402 0.930 . S
C412 C410 1.419 . S
C412 C413 1.362 . S
C413 H403 0.930 . S
C413 C406 1.409 . S
C413 C412 1.362 . S
C133 C19 1.474 . S
C138 C104 1.377 . S
C149 C40 1.486 . S
C154 C125 1.400 . S
C165 C20 1.372 . S
C170 C62 1.453 . S
C181 C82 1.458 . S
C186 C41 1.372 . S
C197 C61 1.485 . S
C202 C103 1.396 . S
C213 C83 1.443 . S
C218 C124 1.374 . S
C229 C121 1.423 . S
C234 C3 1.424 . S
C245 C24 1.474 . S
C250 C16 1.392 . S
C261 C37 1.458 . S
C266 C58 1.398 . S
C277 C45 1.493 . S
C282 C66 1.431 . S
C293 C79 1.403 . S
C298 C87 1.498 . S
C309 C108 1.413 . S
C314 C100 1.435 . S
C325 C46 1.257 . S
C330 C67 1.195 . S
C341 C70 1.262 . S
C346 C88 1.201 . S
C357 C91 1.223 . S
C362 C109 1.277 . S
C373 C112 1.156 . S
C378 C4 1.148 . S
C389 C25 1.281 . S
C394 C7 1.230 . S
C405 C49 1.282 . S
C410 C28 1.233 . S
