# Generated by pormake.
# Topology uox, (4)-cn, num edge types: 1
# Building blocks:
#     Node 0, Type 0, BuildingBlock: KUFVIS_clean_sbu_0, # of connection points: 4
#     Node 1, Type 0, BuildingBlock: KUFVIS_clean_sbu_0, # of connection points: 4
#     Node 2, Type 0, BuildingBlock: KUFVIS_clean_sbu_0, # of connection points: 4
#     Node 3, Type 0, BuildingBlock: KUFVIS_clean_sbu_0, # of connection points: 4
#     Node 4, Type 0, BuildingBlock: KUFVIS_clean_sbu_0, # of connection points: 4
#     Node 5, Type 0, BuildingBlock: KUFVIS_clean_sbu_0, # of connection points: 4
#     Node 6, Type 0, BuildingBlock: KUFVIS_clean_sbu_0, # of connection points: 4
#     Node 7, Type 0, BuildingBlock: KUFVIS_clean_sbu_0, # of connection points: 4
#     Node 8, Type 0, BuildingBlock: KUFVIS_clean_sbu_0, # of connection points: 4
#     Node 9, Type 0, BuildingBlock: KUFVIS_clean_sbu_0, # of connection points: 4
#     Node 10, Type 0, BuildingBlock: KUFVIS_clean_sbu_0, # of connection points: 4
#     Node 11, Type 0, BuildingBlock: KUFVIS_clean_sbu_0, # of connection points: 4
#     Node 12, Type 0, BuildingBlock: KUFVIS_clean_sbu_0, # of connection points: 4
#     Node 13, Type 0, BuildingBlock: KUFVIS_clean_sbu_0, # of connection points: 4
#     Node 14, Type 0, BuildingBlock: KUFVIS_clean_sbu_0, # of connection points: 4
#     Node 15, Type 0, BuildingBlock: KUFVIS_clean_sbu_0, # of connection points: 4
#     Node 16, Type 0, BuildingBlock: KUFVIS_clean_sbu_0, # of connection points: 4
#     Node 17, Type 0, BuildingBlock: KUFVIS_clean_sbu_0, # of connection points: 4
#     Node 18, Type 0, BuildingBlock: KUFVIS_clean_sbu_0, # of connection points: 4
#     Node 19, Type 0, BuildingBlock: KUFVIS_clean_sbu_0, # of connection points: 4
#     Node 20, Type 0, BuildingBlock: KUFVIS_clean_sbu_0, # of connection points: 4
#     Node 21, Type 0, BuildingBlock: KUFVIS_clean_sbu_0, # of connection points: 4
#     Node 22, Type 0, BuildingBlock: KUFVIS_clean_sbu_0, # of connection points: 4
#     Node 23, Type 0, BuildingBlock: KUFVIS_clean_sbu_0, # of connection points: 4
#     Node 24, Type 0, BuildingBlock: KUFVIS_clean_sbu_0, # of connection points: 4
#     Node 25, Type 0, BuildingBlock: KUFVIS_clean_sbu_0, # of connection points: 4
#     Node 26, Type 0, BuildingBlock: KUFVIS_clean_sbu_0, # of connection points: 4
#     Node 27, Type 0, BuildingBlock: KUFVIS_clean_sbu_0, # of connection points: 4
#     Node 28, Type 0, BuildingBlock: KUFVIS_clean_sbu_0, # of connection points: 4
#     Node 29, Type 0, BuildingBlock: KUFVIS_clean_sbu_0, # of connection points: 4
#     Node 30, Type 0, BuildingBlock: KUFVIS_clean_sbu_0, # of connection points: 4
#     Node 31, Type 0, BuildingBlock: KUFVIS_clean_sbu_0, # of connection points: 4
#     Edge 32, Type (0, 0), BuildingBlock: CIFDUS_clean_linker_0, # of connection points: 2
#     Edge 33, Type (0, 0), BuildingBlock: CIFDUS_clean_linker_0, # of connection points: 2
#     Edge 34, Type (0, 0), BuildingBlock: CIFDUS_clean_linker_0, # of connection points: 2
#     Edge 35, Type (0, 0), BuildingBlock: CIFDUS_clean_linker_0, # of connection points: 2
#     Edge 36, Type (0, 0), BuildingBlock: CIFDUS_clean_linker_0, # of connection points: 2
#     Edge 37, Type (0, 0), BuildingBlock: CIFDUS_clean_linker_0, # of connection points: 2
#     Edge 38, Type (0, 0), BuildingBlock: CIFDUS_clean_linker_0, # of connection points: 2
#     Edge 39, Type (0, 0), BuildingBlock: CIFDUS_clean_linker_0, # of connection points: 2
#     Edge 40, Type (0, 0), BuildingBlock: CIFDUS_clean_linker_0, # of connection points: 2
#     Edge 41, Type (0, 0), BuildingBlock: CIFDUS_clean_linker_0, # of connection points: 2
#     Edge 42, Type (0, 0), BuildingBlock: CIFDUS_clean_linker_0, # of connection points: 2
#     Edge 43, Type (0, 0), BuildingBlock: CIFDUS_clean_linker_0, # of connection points: 2
#     Edge 44, Type (0, 0), BuildingBlock: CIFDUS_clean_linker_0, # of connection points: 2
#     Edge 45, Type (0, 0), BuildingBlock: CIFDUS_clean_linker_0, # of connection points: 2
#     Edge 46, Type (0, 0), BuildingBlock: CIFDUS_clean_linker_0, # of connection points: 2
#     Edge 47, Type (0, 0), BuildingBlock: CIFDUS_clean_linker_0, # of connection points: 2
#     Edge 48, Type (0, 0), BuildingBlock: CIFDUS_clean_linker_0, # of connection points: 2
#     Edge 49, Type (0, 0), BuildingBlock: CIFDUS_clean_linker_0, # of connection points: 2
#     Edge 50, Type (0, 0), BuildingBlock: CIFDUS_clean_linker_0, # of connection points: 2
#     Edge 51, Type (0, 0), BuildingBlock: CIFDUS_clean_linker_0, # of connection points: 2
#     Edge 52, Type (0, 0), BuildingBlock: CIFDUS_clean_linker_0, # of connection points: 2
#     Edge 53, Type (0, 0), BuildingBlock: CIFDUS_clean_linker_0, # of connection points: 2
#     Edge 54, Type (0, 0), BuildingBlock: CIFDUS_clean_linker_0, # of connection points: 2
#     Edge 55, Type (0, 0), BuildingBlock: CIFDUS_clean_linker_0, # of connection points: 2
#     Edge 56, Type (0, 0), BuildingBlock: CIFDUS_clean_linker_0, # of connection points: 2
#     Edge 57, Type (0, 0), BuildingBlock: CIFDUS_clean_linker_0, # of connection points: 2
#     Edge 58, Type (0, 0), BuildingBlock: CIFDUS_clean_linker_0, # of connection points: 2
#     Edge 59, Type (0, 0), BuildingBlock: CIFDUS_clean_linker_0, # of connection points: 2
#     Edge 60, Type (0, 0), BuildingBlock: CIFDUS_clean_linker_0, # of connection points: 2
#     Edge 61, Type (0, 0), BuildingBlock: CIFDUS_clean_linker_0, # of connection points: 2
#     Edge 62, Type (0, 0), BuildingBlock: CIFDUS_clean_linker_0, # of connection points: 2
#     Edge 63, Type (0, 0), BuildingBlock: CIFDUS_clean_linker_0, # of connection points: 2
#     Edge 64, Type (0, 0), BuildingBlock: CIFDUS_clean_linker_0, # of connection points: 2
#     Edge 65, Type (0, 0), BuildingBlock: CIFDUS_clean_linker_0, # of connection points: 2
#     Edge 66, Type (0, 0), BuildingBlock: CIFDUS_clean_linker_0, # of connection points: 2
#     Edge 67, Type (0, 0), BuildingBlock: CIFDUS_clean_linker_0, # of connection points: 2
#     Edge 68, Type (0, 0), BuildingBlock: CIFDUS_clean_linker_0, # of connection points: 2
#     Edge 69, Type (0, 0), BuildingBlock: CIFDUS_clean_linker_0, # of connection points: 2
#     Edge 70, Type (0, 0), BuildingBlock: CIFDUS_clean_linker_0, # of connection points: 2
#     Edge 71, Type (0, 0), BuildingBlock: CIFDUS_clean_linker_0, # of connection points: 2
#     Edge 72, Type (0, 0), BuildingBlock: CIFDUS_clean_linker_0, # of connection points: 2
#     Edge 73, Type (0, 0), BuildingBlock: CIFDUS_clean_linker_0, # of connection points: 2
#     Edge 74, Type (0, 0), BuildingBlock: CIFDUS_clean_linker_0, # of connection points: 2
#     Edge 75, Type (0, 0), BuildingBlock: CIFDUS_clean_linker_0, # of connection points: 2
#     Edge 76, Type (0, 0), BuildingBlock: CIFDUS_clean_linker_0, # of connection points: 2
#     Edge 77, Type (0, 0), BuildingBlock: CIFDUS_clean_linker_0, # of connection points: 2
#     Edge 78, Type (0, 0), BuildingBlock: CIFDUS_clean_linker_0, # of connection points: 2
#     Edge 79, Type (0, 0), BuildingBlock: CIFDUS_clean_linker_0, # of connection points: 2
#     Edge 80, Type (0, 0), BuildingBlock: CIFDUS_clean_linker_0, # of connection points: 2
#     Edge 81, Type (0, 0), BuildingBlock: CIFDUS_clean_linker_0, # of connection points: 2
#     Edge 82, Type (0, 0), BuildingBlock: CIFDUS_clean_linker_0, # of connection points: 2
#     Edge 83, Type (0, 0), BuildingBlock: CIFDUS_clean_linker_0, # of connection points: 2
#     Edge 84, Type (0, 0), BuildingBlock: CIFDUS_clean_linker_0, # of connection points: 2
#     Edge 85, Type (0, 0), BuildingBlock: CIFDUS_clean_linker_0, # of connection points: 2
#     Edge 86, Type (0, 0), BuildingBlock: CIFDUS_clean_linker_0, # of connection points: 2
#     Edge 87, Type (0, 0), BuildingBlock: CIFDUS_clean_linker_0, # of connection points: 2
#     Edge 88, Type (0, 0), BuildingBlock: CIFDUS_clean_linker_0, # of connection points: 2
#     Edge 89, Type (0, 0), BuildingBlock: CIFDUS_clean_linker_0, # of connection points: 2
#     Edge 90, Type (0, 0), BuildingBlock: CIFDUS_clean_linker_0, # of connection points: 2
#     Edge 91, Type (0, 0), BuildingBlock: CIFDUS_clean_linker_0, # of connection points: 2
#     Edge 92, Type (0, 0), BuildingBlock: CIFDUS_clean_linker_0, # of connection points: 2
#     Edge 93, Type (0, 0), BuildingBlock: CIFDUS_clean_linker_0, # of connection points: 2
#     Edge 94, Type (0, 0), BuildingBlock: CIFDUS_clean_linker_0, # of connection points: 2
#     Edge 95, Type (0, 0), BuildingBlock: CIFDUS_clean_linker_0, # of connection points: 2
# Relax obj value: 0.068
# Max RMSD: 0.100
# Mean RMSD: 0.100
data_MOF--net-uox--node1-KUFVIS_clean_sbu_0--edge1-CIFDUS_clean_linker_0
_symmetry_space_group_name_H-M    P1
_symmetry_Int_Tables_number       1
_symmetry_cell_setting            triclinic
loop_
_symmetry_equiv_pos_as_xyz
'x, y, z'
_cell_length_a     39.814477
_cell_length_b     39.846113
_cell_length_c     67.183865
_cell_angle_alpha  90.153152
_cell_angle_beta   89.796711
_cell_angle_gamma 90.055384
loop_
_atom_site_label
_atom_site_type_symbol
_atom_site_fract_x
_atom_site_fract_y
_atom_site_fract_z
_atom_type_partial_charge
Mn0 Mn 0.43018 0.078 0.1706 0.0
Mn1 Mn 0.47753 1.00805 0.16764 0.0
C2 C 0.48765 0.0822 0.1647 0.0
C3 C 0.39625 0.11942 0.15642 0.0
C4 C 0.45072 0.03573 0.20675 0.0
O5 O 0.39531 0.04109 0.16552 0.0
O6 O 0.42984 0.99661 0.1618 0.0
C7 C 0.47128 0.99379 0.12455 0.0
N8 N 0.49089 1.00051 0.14064 0.0
C9 C 0.54112 0.99829 0.12065 0.0
C10 C 0.52147 0.99114 0.10388 0.0
C11 C 0.48639 0.9889 0.10585 0.0
C12 C 0.52468 1.00258 0.13894 0.0
H13 H 0.44429 0.99227 0.12595 0.0
C14 C 0.40053 0.01006 0.16162 0.0
O15 O 0.39467 0.11222 0.17522 0.0
O16 O 0.41683 0.10174 0.14564 0.0
N17 N 0.52413 0.01634 0.17263 0.0
C18 C 0.53923 0.02569 0.18995 0.0
C19 C 0.57419 0.03026 0.19036 0.0
C20 C 0.59326 0.02514 0.17298 0.0
C21 C 0.57718 0.01539 0.15535 0.0
C22 C 0.54229 0.01091 0.15589 0.0
H23 H 0.52467 0.02993 0.20331 0.0
O24 O 0.47115 0.10724 0.17232 0.0
O25 O 0.47001 0.05542 0.16104 0.0
O26 O 0.43717 0.06177 0.19927 0.0
O27 O 0.46573 0.01354 0.19625 0.0
C28 C 0.5943 0.01069 0.13717 0.0
C29 C 0.57629 1.00212 0.11984 0.0
H30 H 0.533 0.98765 0.0894 0.0
H31 H 0.47104 0.98357 0.09296 0.0
H32 H 0.5864 0.03794 0.204 0.0
H33 H 0.62017 0.02909 0.1733 0.0
H34 H 0.62126 0.01408 0.13629 0.0
H35 H 0.58968 0.99902 0.10589 0.0
Mn36 Mn 0.19671 0.16972 0.41719 0.0
Mn37 Mn 0.25883 0.22764 0.41683 0.0
C38 C 0.18381 0.22657 0.41535 0.0
C39 C 0.15885 0.13288 0.40195 0.0
C40 C 0.23575 0.19215 0.45425 0.0
O41 O 0.23817 0.14146 0.4098 0.0
O42 O 0.27673 0.18288 0.40912 0.0
C43 C 0.27327 0.22798 0.37356 0.0
N44 N 0.26461 0.24478 0.39049 0.0
C45 C 0.26306 0.29744 0.37307 0.0
C46 C 0.27215 0.28073 0.35546 0.0
C47 C 0.27718 0.24583 0.35571 0.0
C48 C 0.25961 0.27833 0.39041 0.0
H49 H 0.27715 0.20116 0.37369 0.0
C50 C 0.2682 0.15203 0.40697 0.0
O51 O 0.16805 0.12922 0.42031 0.0
O52 O 0.17325 0.15685 0.39198 0.0
N53 N 0.24497 0.27215 0.42376 0.0
C54 C 0.23417 0.28409 0.4417 0.0
C55 C 0.22668 0.31836 0.44378 0.0
C56 C 0.23067 0.34002 0.42748 0.0
C57 C 0.24219 0.32722 0.40923 0.0
C58 C 0.24935 0.29286 0.40806 0.0
H59 H 0.23104 0.26755 0.45428 0.0
O60 O 0.16192 0.20512 0.42191 0.0
O61 O 0.21271 0.21418 0.40997 0.0
O62 O 0.21291 0.17472 0.44594 0.0
O63 O 0.25484 0.21233 0.44476 0.0
C64 C 0.24619 0.34706 0.39206 0.0
C65 C 0.25666 0.33219 0.37399 0.0
H66 H 0.27504 0.29438 0.34164 0.0
H67 H 0.28404 0.23274 0.34216 0.0
H68 H 0.21776 0.32804 0.4579 0.0
H69 H 0.22461 0.36638 0.4291 0.0
H70 H 0.24075 0.37368 0.3925 0.0
H71 H 0.25911 0.34761 0.36081 0.0
Mn72 Mn 0.08553 0.95192 0.66555 0.0
Mn73 Mn 0.03152 0.01687 0.66394 0.0
C74 C 0.02804 0.94206 0.66479 0.0
C75 C 0.11795 0.91228 0.64812 0.0
C76 C 0.06885 0.99653 0.70152 0.0
O77 O 0.11569 0.99116 0.657 0.0
O78 O 0.07614 0.03119 0.65361 0.0
C79 C 0.02667 0.02526 0.62029 0.0
N80 N 0.01154 0.01951 0.63817 0.0
C81 C 0.95721 0.0153 0.62277 0.0
C82 C 0.97218 0.02138 0.60421 0.0
C83 C 1.00706 0.02635 0.60296 0.0
C84 C 0.97798 0.01479 0.63955 0.0
H85 H 0.0535 0.02885 0.61924 0.0
C86 C 0.10653 0.02074 0.652 0.0
O87 O 0.12435 0.9197 0.66659 0.0
O88 O 0.0939 0.92878 0.63976 0.0
N89 N 0.98744 1.00564 0.67326 0.0
C90 C 0.97731 0.99756 0.69205 0.0
C91 C 0.94329 0.99049 0.6957 0.0
C92 C 0.92005 0.99183 0.68004 0.0
C93 C 0.93104 1.00034 0.66085 0.0
C94 C 0.9652 1.00747 0.65814 0.0
H95 H 0.99508 0.99627 0.70412 0.0
O96 O 0.0484 0.91933 0.67137 0.0
O97 O 0.04203 0.9698 0.65894 0.0
O98 O 0.08316 0.97032 0.69439 0.0
O99 O 0.05023 0.01591 0.6912 0.0
C100 C 0.90958 1.00129 0.64424 0.0
C101 C 0.92264 0.00881 0.62522 0.0
H102 H 0.95719 0.02191 0.59079 0.0
H103 H 0.01883 0.03085 0.58867 0.0
H104 H 0.93502 0.98382 0.71054 0.0
H105 H 0.8939 0.986 0.68288 0.0
H106 H 0.88307 0.99578 0.64587 0.0
H107 H 0.90598 0.00891 0.61251 0.0
Mn108 Mn 0.3176 0.84071 0.91796 0.0
Mn109 Mn 0.24788 0.79294 0.91564 0.0
C110 C 0.32163 0.78275 0.91459 0.0
C111 C 0.36013 0.87055 0.90144 0.0
C112 C 0.27233 0.82618 0.95381 0.0
O113 O 0.28092 0.87477 0.91081 0.0
O114 O 0.23732 0.83908 0.90666 0.0
C115 C 0.2371 0.79147 0.87208 0.0
N116 N 0.24258 0.77486 0.88945 0.0
C117 C 0.24214 0.72145 0.87265 0.0
C118 C 0.23627 0.73798 0.85459 0.0
C119 C 0.23376 0.77314 0.85431 0.0
C120 C 0.24485 0.74102 0.88991 0.0
H121 H 0.23543 0.81851 0.87176 0.0
C122 C 0.2505 0.86847 0.90582 0.0
O123 O 0.35337 0.87609 0.92011 0.0
O124 O 0.34117 0.84911 0.89232 0.0
N125 N 0.256 0.74761 0.92368 0.0
C126 C 0.26436 0.73579 0.94201 0.0
C127 C 0.26929 0.7012 0.94467 0.0
C128 C 0.26559 0.67916 0.92847 0.0
C129 C 0.25694 0.69191 0.90975 0.0
C130 C 0.25203 0.72658 0.90804 0.0
H131 H 0.26752 0.75264 0.95448 0.0
O132 O 0.34648 0.79981 0.9219 0.0
O133 O 0.29529 0.80013 0.9101 0.0
O134 O 0.29976 0.83807 0.94681 0.0
O135 O 0.2512 0.80986 0.94327 0.0
C136 C 0.25381 0.67168 0.89262 0.0
C137 C 0.24636 0.68643 0.87409 0.0
H138 H 0.23406 0.72396 0.84082 0.0
H139 H 0.22945 0.78609 0.84042 0.0
H140 H 0.27614 0.69156 0.95914 0.0
H141 H 0.2698 0.65254 0.93053 0.0
H142 H 0.25759 0.64481 0.89348 0.0
H143 H 0.24453 0.67067 0.86098 0.0
Mn144 Mn 0.42754 0.9431 0.35921 0.0
Mn145 Mn 0.47427 0.01368 0.3609 0.0
C146 C 0.48534 0.9397 0.36417 0.0
C147 C 0.39454 0.90236 0.37521 0.0
C148 C 0.44671 0.98441 0.32237 0.0
O149 O 0.39245 0.97998 0.36406 0.0
O150 O 0.42678 0.02459 0.36777 0.0
C151 C 0.47001 0.02842 0.40405 0.0
N152 N 0.48889 0.02184 0.38755 0.0
C153 C 0.54008 0.02535 0.40638 0.0
C154 C 0.52119 0.03238 0.42354 0.0
C155 C 0.486 0.03389 0.42237 0.0
C156 C 0.52277 0.02042 0.3885 0.0
H157 H 0.44294 0.02938 0.40325 0.0
C158 C 0.39754 0.01096 0.36817 0.0
O159 O 0.39203 0.90784 0.35623 0.0
O160 O 0.41543 0.92121 0.38493 0.0
N161 N 0.52072 1.0061 0.35492 0.0
C162 C 0.53511 0.997 0.33728 0.0
C163 C 0.57013 0.99328 0.33609 0.0
C164 C 0.58998 0.999 0.353 0.0
C165 C 0.57462 0.00854 0.37095 0.0
C166 C 0.53964 0.01217 0.37121 0.0
H167 H 0.51998 0.99237 0.32425 0.0
O168 O 0.46872 0.9141 0.3574 0.0
O169 O 0.46757 0.9664 0.36776 0.0
O170 O 0.43382 0.95811 0.33011 0.0
O171 O 0.46118 1.00725 0.33265 0.0
C172 C 0.5926 0.01389 0.38871 0.0
C173 C 0.57534 0.0223 0.40641 0.0
H174 H 0.53341 0.03635 0.43774 0.0
H175 H 0.47124 0.03912 0.43557 0.0
H176 H 0.58178 0.98579 0.32219 0.0
H177 H 0.61694 0.99571 0.35208 0.0
H178 H 0.61966 0.01115 0.38898 0.0
H179 H 0.5894 0.02591 0.42002 0.0
Mn180 Mn 0.32595 0.16714 0.60557 0.0
Mn181 Mn 0.25643 0.21544 0.60887 0.0
C182 C 0.33045 0.22449 0.61091 0.0
C183 C 0.36913 0.13462 0.61895 0.0
C184 C 0.28358 0.1888 0.56976 0.0
O185 O 0.28892 0.13246 0.6114 0.0
O186 O 0.2449 0.16784 0.61419 0.0
C187 C 0.24261 0.20784 0.65196 0.0
N188 N 0.2491 0.22793 0.63603 0.0
C189 C 0.2465 0.27755 0.65648 0.0
C190 C 0.2396 0.25739 0.67308 0.0
C191 C 0.23768 0.22239 0.6708 0.0
C192 C 0.25093 0.26165 0.63804 0.0
H193 H 0.24127 0.1809 0.6503 0.0
C194 C 0.25775 0.13834 0.61477 0.0
O195 O 0.36029 0.13199 0.60045 0.0
O196 O 0.35129 0.15451 0.6301 0.0
N197 N 0.26462 0.26216 0.60434 0.0
C198 C 0.27332 0.27785 0.58708 0.0
C199 C 0.27727 0.31288 0.58694 0.0
C200 C 0.27209 0.3314 0.6045 0.0
C201 C 0.26286 0.31472 0.62204 0.0
C202 C 0.25901 0.2798 0.62124 0.0
H203 H 0.27751 0.26374 0.57356 0.0
O204 O 0.35519 0.2079 0.60305 0.0
O205 O 0.30376 0.20715 0.61516 0.0
O206 O 0.30883 0.17382 0.57718 0.0
O207 O 0.26194 0.20464 0.58023 0.0
C208 C 0.258 0.33129 0.64038 0.0
C209 C 0.24984 0.31272 0.65758 0.0
H210 H 0.23602 0.2685 0.68766 0.0
H211 H 0.23253 0.20665 0.68356 0.0
H212 H 0.28449 0.32556 0.57336 0.0
H213 H 0.27554 0.35836 0.60439 0.0
H214 H 0.26094 0.35826 0.64147 0.0
H215 H 0.2466 0.3257 0.67164 0.0
Mn216 Mn 0.08172 0.05778 0.85657 0.0
Mn217 Mn 0.02747 0.99303 0.85889 0.0
C218 C 0.0247 0.06739 0.86137 0.0
C219 C 0.11653 0.09632 0.87301 0.0
C220 C 0.06038 0.01605 0.82026 0.0
O221 O 0.11253 0.01789 0.8624 0.0
O222 O 0.07326 0.97725 0.86578 0.0
C223 C 0.02928 0.97949 0.90215 0.0
N224 N 0.01157 0.98776 0.88557 0.0
C225 C 0.96018 0.99173 0.90438 0.0
C226 C 0.97783 0.98305 0.92164 0.0
C227 C 0.01253 0.97693 0.92051 0.0
C228 C 0.97814 0.99352 0.88646 0.0
H229 H 0.056 0.97502 0.90137 0.0
C230 C 0.10381 0.98762 0.86618 0.0
O231 O 0.12027 0.08999 0.85414 0.0
O232 O 0.09382 0.07917 0.88235 0.0
N233 N 0.98241 1.00599 0.85272 0.0
C234 C 0.96965 0.01651 0.83502 0.0
C235 C 0.9355 0.025 0.83377 0.0
C236 C 0.91486 0.02259 0.85071 0.0
C237 C 0.92856 0.01163 0.86875 0.0
C238 C 0.96269 1.0032 0.86906 0.0
H239 H 0.98549 0.0187 0.82201 0.0
O240 O 0.04372 0.09063 0.85391 0.0
O241 O 0.03956 0.0392 0.86513 0.0
O242 O 0.07586 0.04146 0.82749 0.0
O243 O 0.04205 0.99656 0.83079 0.0
C244 C 0.90988 0.00952 0.88656 0.0
C245 C 0.92566 0.99953 0.90435 0.0
H246 H 0.96507 0.98138 0.93587 0.0
H247 H 0.02636 0.97041 0.93379 0.0
H248 H 0.92515 0.0336 0.81981 0.0
H249 H 0.88863 0.02954 0.84974 0.0
H250 H 0.88346 0.01599 0.88679 0.0
H251 H 0.91114 0.99846 0.918 0.0
Mn252 Mn 0.20759 0.84594 0.10788 0.0
Mn253 Mn 0.27224 0.79117 0.10936 0.0
C254 C 0.19759 0.78837 0.10721 0.0
C255 C 0.16595 0.87742 0.12437 0.0
C256 C 0.25376 0.83065 0.07233 0.0
O257 O 0.24666 0.87534 0.11803 0.0
O258 O 0.28627 0.83512 0.12047 0.0
C259 C 0.27931 0.78431 0.15301 0.0
N260 N 0.2742 0.77003 0.13483 0.0
C261 C 0.27135 0.71481 0.14916 0.0
C262 C 0.27679 0.7289 0.16803 0.0
C263 C 0.2807 0.76381 0.16996 0.0
C264 C 0.27039 0.73648 0.1328 0.0
H265 H 0.28224 0.81113 0.15456 0.0
C266 C 0.27615 0.86542 0.1229 0.0
O267 O 0.17553 0.88479 0.10639 0.0
O268 O 0.1819 0.85325 0.13305 0.0
N269 N 0.26143 0.74753 0.09925 0.0
C270 C 0.25387 0.73826 0.08024 0.0
C271 C 0.24766 0.70432 0.07593 0.0
C272 C 0.24945 0.68028 0.09114 0.0
C273 C 0.25749 0.69041 0.11056 0.0
C274 C 0.26363 0.72455 0.11395 0.0
H275 H 0.25235 0.75664 0.06851 0.0
O276 O 0.17537 0.80918 0.10052 0.0
O277 O 0.22496 0.80185 0.114 0.0
O278 O 0.22777 0.84523 0.0795 0.0
O279 O 0.27231 0.81091 0.08242 0.0
C280 C 0.25898 0.66806 0.12674 0.0
C281 C 0.26598 0.68024 0.14603 0.0
H282 H 0.27762 0.7132 0.18116 0.0
H283 H 0.28471 0.77488 0.18448 0.0
H284 H 0.24138 0.69672 0.06092 0.0
H285 H 0.24435 0.65417 0.08779 0.0
H286 H 0.25426 0.64152 0.12459 0.0
H287 H 0.2665 0.66289 0.15841 0.0
Mn288 Mn 0.59597 0.94642 0.85819 0.0
Mn289 Mn 0.54093 0.01086 0.86158 0.0
C290 C 0.53945 0.93646 0.86483 0.0
C291 C 0.63391 0.90702 0.87088 0.0
C292 C 0.56878 0.98563 0.82236 0.0
O293 O 0.62702 0.98701 0.86302 0.0
O294 O 0.58731 0.0273 0.86576 0.0
C295 C 0.54919 0.02655 0.90437 0.0
N296 N 0.52904 0.01778 0.88886 0.0
C297 C 0.48025 0.01664 0.91009 0.0
C298 C 0.50044 0.02586 0.92627 0.0
C299 C 0.53507 0.03077 0.9234 0.0
C300 C 0.4957 0.01295 0.89146 0.0
H301 H 0.57584 0.03023 0.90224 0.0
C302 C 0.61799 0.01755 0.86586 0.0
O303 O 0.63422 0.91596 0.85235 0.0
O304 O 0.61288 0.92265 0.88248 0.0
N305 N 0.49501 0.99804 0.85796 0.0
C306 C 0.47937 0.98764 0.84102 0.0
C307 C 0.44475 0.98085 0.84145 0.0
C308 C 0.42657 0.985 0.85925 0.0
C309 C 0.44316 0.99604 0.87644 0.0
C310 C 0.47763 1.0027 0.87506 0.0
H311 H 0.49325 0.98434 0.82732 0.0
O312 O 0.55798 0.91323 0.85685 0.0
O313 O 0.55434 0.96484 0.86834 0.0
O314 O 0.58624 0.96209 0.8298 0.0
O315 O 0.55104 1.00576 0.83279 0.0
C316 C 0.42697 1.00012 0.89497 0.0
C317 C 0.44551 0.01037 0.91179 0.0
H318 H 0.48968 0.02896 0.94099 0.0
H319 H 0.55085 0.03772 0.93583 0.0
H320 H 0.43214 0.97226 0.82813 0.0
H321 H 0.39995 0.97937 0.85958 0.0
H322 H 0.40037 0.995 0.89651 0.0
H323 H 0.43287 0.01298 0.92601 0.0
Mn324 Mn 0.8183 0.84099 0.60022 0.0
Mn325 Mn 0.74833 0.79539 0.60804 0.0
C326 C 0.82246 0.78357 0.60645 0.0
C327 C 0.86199 0.87455 0.6125 0.0
C328 C 0.76918 0.82151 0.56718 0.0
O329 O 0.78282 0.87664 0.60698 0.0
O330 O 0.73937 0.84307 0.61539 0.0
C331 C 0.74252 0.80034 0.65189 0.0
N332 N 0.74558 0.78121 0.63516 0.0
C333 C 0.74547 0.73034 0.65439 0.0
C334 C 0.742 0.74949 0.67181 0.0
C335 C 0.74057 0.78465 0.67055 0.0
C336 C 0.74685 0.74735 0.63619 0.0
H337 H 0.74174 0.82738 0.65103 0.0
C338 C 0.75321 0.87212 0.61399 0.0
O339 O 0.85276 0.87592 0.594 0.0
O340 O 0.84528 0.85434 0.62395 0.0
N341 N 0.75468 0.74888 0.60185 0.0
C342 C 0.76102 0.73429 0.58386 0.0
C343 C 0.76493 0.69933 0.58266 0.0
C344 C 0.76228 0.67973 0.59995 0.0
C345 C 0.75572 0.6953 0.61829 0.0
C346 C 0.75178 0.73022 0.61855 0.0
H347 H 0.76337 0.74923 0.57055 0.0
O348 O 0.84652 0.79935 0.59733 0.0
O349 O 0.79673 0.80192 0.61131 0.0
O350 O 0.79749 0.83352 0.57253 0.0
O351 O 0.74856 0.80805 0.57943 0.0
C352 C 0.7538 0.67762 0.63639 0.0
C353 C 0.74861 0.69511 0.65442 0.0
H354 H 0.74086 0.73751 0.68625 0.0
H355 H 0.73815 0.79962 0.68394 0.0
H356 H 0.77018 0.68752 0.56847 0.0
H357 H 0.76568 0.65281 0.59899 0.0
H358 H 0.75682 0.65061 0.63665 0.0
H359 H 0.74771 0.68129 0.66828 0.0
Mn360 Mn 0.92896 0.07384 0.35128 0.0
Mn361 Mn 0.97672 1.00409 0.35001 0.0
C362 C 0.98691 0.07856 0.35238 0.0
C363 C 0.89864 0.11352 0.36958 0.0
C364 C 0.94365 0.03375 0.31332 0.0
O365 O 0.89525 0.03664 0.35763 0.0
O366 O 0.93032 0.99241 0.359 0.0
C367 C 0.97828 0.98905 0.39313 0.0
N368 N 0.99488 0.99566 0.37582 0.0
C369 C 0.04849 0.99151 0.39205 0.0
C370 C 0.03197 0.9844 0.41002 0.0
C371 C 0.99672 0.98322 0.41056 0.0
C372 C 0.0288 0.99683 0.37512 0.0
H373 H 0.95118 0.98835 0.39365 0.0
C374 C 0.90113 1.00567 0.36102 0.0
O375 O 0.89279 0.10851 0.35079 0.0
O376 O 0.92119 0.09471 0.37779 0.0
N377 N 0.02221 0.01199 0.34193 0.0
C378 C 0.03417 0.02154 0.32378 0.0
C379 C 0.06893 0.02528 0.32095 0.0
C380 C 0.09102 0.01902 0.33676 0.0
C381 C 0.07815 0.00896 0.35526 0.0
C382 C 0.04328 1.00539 0.35716 0.0
H383 H 0.01733 0.02655 0.31159 0.0
O384 O 0.96852 0.10379 0.34705 0.0
O385 O 0.97073 0.05137 0.35728 0.0
O386 O 0.93086 0.05939 0.3219 0.0
O387 O 0.95998 0.01108 0.32261 0.0
C388 C 0.09849 1.00309 0.37201 0.0
C389 C 0.08367 0.99434 0.39039 0.0
H390 H 0.04609 0.98017 0.42354 0.0
H391 H 0.98378 0.97796 0.4244 0.0
H392 H 0.07867 0.03313 0.30664 0.0
H393 H 0.1178 0.02227 0.33458 0.0
H394 H 0.12552 1.00575 0.37101 0.0
H395 H 0.09954 0.99043 0.40324 0.0
Mn396 Mn 0.70411 0.18606 0.11015 0.0
Mn397 Mn 0.76931 0.23997 0.11222 0.0
C398 C 0.69481 0.24376 0.1133 0.0
C399 C 0.66436 0.15255 0.12699 0.0
C400 C 0.74773 0.20466 0.07402 0.0
O401 O 0.74385 0.15525 0.11733 0.0
O402 O 0.78399 0.19482 0.12104 0.0
C403 C 0.78013 0.2421 0.15577 0.0
N404 N 0.77325 0.25829 0.13843 0.0
C405 C 0.76969 0.31153 0.1553 0.0
C406 C 0.77692 0.29545 0.17332 0.0
C407 C 0.78214 0.26059 0.17355 0.0
C408 C 0.76833 0.29185 0.13802 0.0
H409 H 0.78395 0.21528 0.15602 0.0
C410 C 0.77375 0.1643 0.12201 0.0
O411 O 0.67139 0.14753 0.10831 0.0
O412 O 0.68146 0.17574 0.13591 0.0
N413 N 0.7575 0.28451 0.10427 0.0
C414 C 0.74837 0.29575 0.08594 0.0
C415 C 0.74099 0.32991 0.0833 0.0
C416 C 0.74308 0.35212 0.09952 0.0
C417 C 0.75262 0.33998 0.11824 0.0
C418 C 0.75999 0.30575 0.11992 0.0
H419 H 0.7465 0.27875 0.07345 0.0
O420 O 0.67162 0.22433 0.10618 0.0
O421 O 0.72264 0.22885 0.11787 0.0
O422 O 0.72162 0.19011 0.08112 0.0
O423 O 0.76721 0.22296 0.08455 0.0
C424 C 0.75436 0.36036 0.13537 0.0
C425 C 0.76291 0.34615 0.15389 0.0
H426 H 0.77819 0.30957 0.1871 0.0
H427 H 0.78755 0.24798 0.18742 0.0
H428 H 0.73349 0.33905 0.06883 0.0
H429 H 0.73698 0.37837 0.09748 0.0
H430 H 0.74867 0.38689 0.13454 0.0
H431 H 0.76368 0.36198 0.16701 0.0
Mn432 Mn 0.6018 0.07438 0.67051 0.0
Mn433 Mn 0.54574 0.01044 0.66857 0.0
C434 C 0.54467 0.08528 0.66761 0.0
C435 C 0.63811 0.11431 0.65638 0.0
C436 C 0.57759 0.03408 0.70694 0.0
O437 O 0.63188 0.0341 0.66322 0.0
O438 O 0.59169 0.9942 0.66239 0.0
C439 C 0.55006 0.9965 0.62532 0.0
N440 N 0.53135 1.00422 0.64171 0.0
C441 C 0.48027 1.0032 0.62267 0.0
C442 C 0.49898 0.99507 0.6056 0.0
C443 C 0.53404 0.99182 0.60693 0.0
C444 C 0.49763 1.00761 0.64057 0.0
H445 H 0.57701 0.99393 0.62628 0.0
C446 C 0.62233 1.00369 0.66065 0.0
O447 O 0.64106 0.10454 0.67468 0.0
O448 O 0.61532 0.09927 0.6458 0.0
N449 N 0.50008 0.02238 0.67406 0.0
C450 C 0.48596 0.03207 0.69167 0.0
C451 C 0.45116 0.03755 0.69272 0.0
C452 C 0.43121 0.03259 0.67576 0.0
C453 C 0.44624 0.0221 0.6579 0.0
C454 C 0.48103 0.01699 0.65775 0.0
H455 H 0.50116 0.03582 0.70477 0.0
O456 O 0.56489 0.10772 0.67483 0.0
O457 O 0.55833 0.05701 0.66224 0.0
O458 O 0.59557 0.05704 0.69908 0.0
O459 O 0.55823 0.01496 0.69691 0.0
C460 C 0.42815 0.01708 0.64015 0.0
C461 C 0.44515 1.00764 0.62254 0.0
H462 H 0.48672 0.99151 0.59138 0.0
H463 H 0.54866 0.98569 0.59381 0.0
H464 H 0.43974 0.04562 0.70657 0.0
H465 H 0.40441 0.03707 0.6766 0.0
H466 H 0.40123 0.02095 0.63979 0.0
H467 H 0.43105 1.00439 0.60892 0.0
Mn468 Mn 0.70634 0.84085 0.41209 0.0
Mn469 Mn 0.77061 0.78587 0.40938 0.0
C470 C 0.69622 0.78369 0.40756 0.0
C471 C 0.66683 0.87551 0.39619 0.0
C472 C 0.7481 0.81872 0.44816 0.0
O473 O 0.74682 0.87143 0.40567 0.0
O474 O 0.78668 0.83143 0.40231 0.0
C475 C 0.78353 0.78758 0.36599 0.0
N476 N 0.7755 0.76993 0.38268 0.0
C477 C 0.77166 0.71843 0.36403 0.0
C478 C 0.78009 0.73602 0.34666 0.0
C479 C 0.78602 0.77075 0.34766 0.0
C480 C 0.76985 0.73649 0.38191 0.0
H481 H 0.78791 0.81431 0.36667 0.0
C482 C 0.777 0.86214 0.40173 0.0
O483 O 0.67404 0.87943 0.41491 0.0
O484 O 0.68404 0.8531 0.38661 0.0
N485 N 0.75755 0.74088 0.4157 0.0
C486 C 0.74746 0.7281 0.43354 0.0
C487 C 0.73937 0.69387 0.43496 0.0
C488 C 0.74177 0.67317 0.41806 0.0
C489 C 0.75235 0.68687 0.39988 0.0
C490 C 0.76039 0.72108 0.39941 0.0
H491 H 0.74536 0.74396 0.44654 0.0
O492 O 0.67322 0.80291 0.41514 0.0
O493 O 0.72444 0.79838 0.40345 0.0
O494 O 0.72301 0.83475 0.44108 0.0
O495 O 0.76743 0.80038 0.4375 0.0
C496 C 0.7545 0.66809 0.38213 0.0
C497 C 0.76417 0.68385 0.36422 0.0
H498 H 0.78175 0.72319 0.33246 0.0
H499 H 0.79236 0.78453 0.3343 0.0
H500 H 0.73108 0.68352 0.44902 0.0
H501 H 0.73512 0.64687 0.41917 0.0
H502 H 0.74831 0.64162 0.38202 0.0
H503 H 0.76527 0.66925 0.35061 0.0
Mn504 Mn 0.92521 0.94491 0.16139 0.0
Mn505 Mn 0.9738 0.01425 0.15824 0.0
C506 C 0.98267 0.9399 0.15562 0.0
C507 C 0.89046 0.90306 0.14826 0.0
C508 C 0.94712 0.98718 0.19731 0.0
O509 O 0.89077 0.98224 0.15627 0.0
O510 O 0.92618 0.0261 0.15288 0.0
C511 C 0.96663 0.02799 0.11518 0.0
N512 N 0.98658 0.02152 0.13114 0.0
C513 C 0.03645 0.02427 0.11087 0.0
C514 C 0.01645 0.03116 0.09424 0.0
C515 C 0.98139 0.03298 0.09641 0.0
C516 C 0.02035 0.01976 0.12923 0.0
H517 H 0.93966 0.02925 0.11677 0.0
C518 C 0.89659 0.01328 0.15273 0.0
O519 O 0.88934 0.91164 0.16686 0.0
O520 O 0.91091 0.91989 0.1369 0.0
N521 N 0.02047 1.00595 0.16286 0.0
C522 C 0.03597 0.99712 0.18012 0.0
C523 C 0.07102 0.99318 0.18035 0.0
C524 C 0.08975 0.9985 0.16289 0.0
C525 C 0.07326 1.00784 0.14535 0.0
C526 C 0.03832 0.01166 0.14605 0.0
H527 H 0.02169 0.99284 0.19357 0.0
O528 O 0.96575 0.91521 0.16327 0.0
O529 O 0.96549 0.9668 0.15167 0.0
O530 O 0.93272 0.96165 0.18978 0.0
O531 O 0.96268 0.00906 0.18692 0.0
C532 C 0.09005 0.01282 0.1271 0.0
C533 C 0.07166 0.02101 0.10987 0.0
H534 H 0.02772 0.0348 0.0797 0.0
H535 H 0.96577 0.03812 0.08362 0.0
H536 H 0.08355 0.98586 0.19393 0.0
H537 H 0.11673 0.99505 0.16307 0.0
H538 H 0.11706 0.00993 0.12608 0.0
H539 H 0.0848 0.02432 0.09587 0.0
Mn540 Mn 0.81535 0.18284 0.91982 0.0
Mn541 Mn 0.74411 0.22726 0.91567 0.0
C542 C 0.81808 0.24068 0.91513 0.0
C543 C 0.85703 0.15157 0.90334 0.0
C544 C 0.769 0.19828 0.95501 0.0
O545 O 0.77988 0.14708 0.91393 0.0
O546 O 0.73537 0.18006 0.90708 0.0
C547 C 0.73498 0.22621 0.87197 0.0
N548 N 0.73907 0.24386 0.88918 0.0
C549 C 0.73734 0.29637 0.87161 0.0
C550 C 0.73278 0.27876 0.85372 0.0
C551 C 0.73163 0.24353 0.85391 0.0
C552 C 0.74006 0.27778 0.88919 0.0
H553 H 0.73448 0.19912 0.872 0.0
C554 C 0.74983 0.15126 0.90777 0.0
O555 O 0.85162 0.14792 0.92233 0.0
O556 O 0.83808 0.17278 0.89417 0.0
N557 N 0.75022 0.27326 0.92317 0.0
C558 C 0.75767 0.28629 0.9414 0.0
C559 C 0.76142 0.32114 0.9436 0.0
C560 C 0.75751 0.34222 0.92705 0.0
C561 C 0.74984 0.32824 0.90844 0.0
C562 C 0.74608 0.29335 0.90718 0.0
H563 H 0.76101 0.27021 0.95415 0.0
O564 O 0.84336 0.22462 0.92261 0.0
O565 O 0.79214 0.22223 0.91091 0.0
O566 O 0.79749 0.18773 0.94867 0.0
O567 O 0.74716 0.21187 0.94367 0.0
C568 C 0.74662 0.3475 0.89099 0.0
C569 C 0.74031 0.33158 0.8726 0.0
H570 H 0.73059 0.29201 0.83973 0.0
H571 H 0.7284 0.22975 0.84015 0.0
H572 H 0.76753 0.33172 0.95799 0.0
H573 H 0.7608 0.36906 0.92876 0.0
H574 H 0.74947 0.37452 0.8915 0.0
H575 H 0.7384 0.34661 0.85924 0.0
Mn576 Mn 0.92967 0.57296 0.66483 0.0
Mn577 Mn 0.98627 0.50988 0.66687 0.0
C578 C 0.98698 0.58466 0.66385 0.0
C579 C 0.89569 0.61002 0.64649 0.0
C580 C 0.94775 0.53482 0.70312 0.0
O581 O 0.90115 0.53139 0.65791 0.0
O582 O 0.94215 0.49237 0.65782 0.0
C583 C 0.99111 0.4942 0.62386 0.0
N584 N 1.00617 0.5033 0.64123 0.0
C585 C 0.06049 0.50511 0.62544 0.0
C586 C 0.04559 0.49558 0.60741 0.0
C587 C 0.01075 0.49016 0.60661 0.0
C588 C 0.03968 0.50858 0.64216 0.0
H589 H 0.96432 0.49012 0.62317 0.0
C590 C 0.91151 0.50125 0.65521 0.0
O591 O 0.88968 0.60366 0.66512 0.0
O592 O 0.92019 0.59353 0.63832 0.0
N593 N 0.0301 0.5237 0.67517 0.0
C594 C 0.04018 0.53495 0.69337 0.0
C595 C 0.07416 0.54279 0.69646 0.0
C596 C 0.09743 0.53881 0.68087 0.0
C597 C 0.08651 0.52691 0.66233 0.0
C598 C 0.05238 0.51928 0.66016 0.0
H599 H 0.02239 0.53817 0.70539 0.0
O600 O 0.96561 0.60743 0.66933 0.0
O601 O 0.9742 0.55568 0.65914 0.0
O602 O 0.9321 0.55854 0.69432 0.0
O603 O 0.96782 0.51485 0.69413 0.0
C604 C 0.10804 0.52298 0.64579 0.0
C605 C 0.09504 0.51205 0.62737 0.0
H606 H 0.06061 0.49266 0.59404 0.0
H607 H 0.99904 0.48297 0.59272 0.0
H608 H 0.08238 0.55202 0.71081 0.0
H609 H 0.12356 0.54519 0.68326 0.0
H610 H 0.13454 0.5288 0.647 0.0
H611 H 0.11175 0.50966 0.61468 0.0
Mn612 Mn 0.69413 0.6717 0.91275 0.0
Mn613 Mn 0.7638 0.71987 0.91394 0.0
C614 C 0.68906 0.72965 0.91301 0.0
C615 C 0.65376 0.64177 0.89483 0.0
C616 C 0.73582 0.68404 0.95023 0.0
O617 O 0.73135 0.63878 0.90515 0.0
O618 O 0.77545 0.67416 0.90391 0.0
C619 C 0.77725 0.72415 0.87066 0.0
N620 N 0.77118 0.73963 0.88841 0.0
C621 C 0.77468 0.79419 0.87327 0.0
C622 C 0.78119 0.77884 0.85485 0.0
C623 C 0.78242 0.74366 0.85355 0.0
C624 C 0.76996 0.77345 0.88984 0.0
H625 H 0.77804 0.69711 0.86957 0.0
C626 C 0.76227 0.645 0.9016 0.0
O627 O 0.65997 0.63507 0.91337 0.0
O628 O 0.67182 0.66502 0.88657 0.0
N629 N 0.75605 0.76474 0.9231 0.0
C630 C 0.7473 0.77551 0.94168 0.0
C631 C 0.74371 0.81004 0.94533 0.0
C632 C 0.74935 0.83312 0.9299 0.0
C633 C 0.75865 0.82145 0.91096 0.0
C634 C 0.76208 0.78676 0.90824 0.0
H635 H 0.7428 0.75789 0.95357 0.0
O636 O 0.66411 0.71071 0.91832 0.0
O637 O 0.71618 0.71402 0.90728 0.0
O638 O 0.70983 0.6719 0.94179 0.0
O639 O 0.75805 0.70133 0.94107 0.0
C640 C 0.76392 0.84283 0.89457 0.0
C641 C 0.77195 0.82922 0.87574 0.0
H642 H 0.78494 0.79379 0.84159 0.0
H643 H 0.78725 0.73163 0.83936 0.0
H644 H 0.73647 0.81884 0.95998 0.0
H645 H 0.74623 0.85971 0.93273 0.0
H646 H 0.76134 0.86976 0.89621 0.0
H647 H 0.77541 0.84588 0.86319 0.0
Mn648 Mn 0.58376 0.46 0.16335 0.0
Mn649 Mn 0.53059 0.52565 0.16085 0.0
C650 C 0.52639 0.45134 0.15871 0.0
C651 C 0.6181 0.42016 0.14727 0.0
C652 C 0.56276 0.50258 0.19954 0.0
O653 O 0.61539 0.49952 0.15716 0.0
O654 O 0.57666 0.54052 0.1537 0.0
C655 C 0.53273 0.5386 0.11751 0.0
N656 N 0.51484 0.53094 0.13421 0.0
C657 C 0.46327 0.52832 0.11568 0.0
C658 C 0.48112 0.53637 0.09831 0.0
C659 C 0.516 0.54151 0.09923 0.0
C660 C 0.48124 0.52611 0.13351 0.0
H661 H 0.55957 0.54236 0.11814 0.0
C662 C 0.60709 0.52987 0.15319 0.0
O663 O 0.62172 0.42711 0.16606 0.0
O664 O 0.59589 0.43753 0.13776 0.0
N665 N 0.48525 0.51368 0.16724 0.0
C666 C 0.47223 0.50363 0.18504 0.0
C667 C 0.43784 0.49612 0.18649 0.0
C668 C 0.41722 0.49904 0.16966 0.0
C669 C 0.43119 0.50951 0.15152 0.0
C670 C 0.46556 0.51696 0.15101 0.0
H671 H 0.48803 0.5011 0.19798 0.0
O672 O 0.54494 0.42787 0.16623 0.0
O673 O 0.54188 0.47917 0.15476 0.0
O674 O 0.57792 0.4769 0.19238 0.0
O675 O 0.54495 0.52225 0.18894 0.0
C676 C 0.41251 0.51209 0.13382 0.0
C677 C 0.42853 0.52153 0.11592 0.0
H678 H 0.46837 0.53832 0.08414 0.0
H679 H 0.52997 0.54755 0.08587 0.0
H680 H 0.42728 0.4879 0.20052 0.0
H681 H 0.39079 0.49284 0.17079 0.0
H682 H 0.3859 0.50639 0.13374 0.0
H683 H 0.41399 0.52295 0.10235 0.0
Mn684 Mn 0.81307 0.34075 0.41849 0.0
Mn685 Mn 0.74863 0.28659 0.41271 0.0
C686 C 0.82275 0.2843 0.41206 0.0
C687 C 0.85478 0.37629 0.40577 0.0
C688 C 0.7704 0.31258 0.45303 0.0
O689 O 0.77421 0.3726 0.41219 0.0
O690 O 0.73309 0.33369 0.40977 0.0
C691 C 0.7354 0.29939 0.37005 0.0
N692 N 0.7431 0.27761 0.38494 0.0
C693 C 0.74544 0.23122 0.36196 0.0
C694 C 0.73732 0.25313 0.34641 0.0
C695 C 0.73232 0.28736 0.35047 0.0
C696 C 0.74791 0.2446 0.3812 0.0
H697 H 0.7317 0.32576 0.37306 0.0
C698 C 0.74353 0.36417 0.40947 0.0
O699 O 0.84506 0.37823 0.42422 0.0
O700 O 0.83861 0.35544 0.39448 0.0
N701 N 0.76064 0.24022 0.41487 0.0
C702 C 0.77039 0.22283 0.4313 0.0
C703 C 0.77737 0.18839 0.42965 0.0
C704 C 0.7742 0.17219 0.41116 0.0
C705 C 0.76397 0.19057 0.39448 0.0
C706 C 0.75703 0.22476 0.39707 0.0
H707 H 0.77327 0.23524 0.44548 0.0
O708 O 0.84515 0.3022 0.4212 0.0
O709 O 0.79509 0.29965 0.4076 0.0
O710 O 0.79337 0.33216 0.44652 0.0
O711 O 0.75288 0.29369 0.4417 0.0
C712 C 0.7611 0.17646 0.37531 0.0
C713 C 0.75185 0.19677 0.35906 0.0
H714 H 0.73516 0.24399 0.33126 0.0
H715 H 0.72622 0.30446 0.33853 0.0
H716 H 0.78545 0.17443 0.44257 0.0
H717 H 0.78002 0.14572 0.40989 0.0
H718 H 0.76642 0.15012 0.37285 0.0
H719 H 0.75018 0.18573 0.34435 0.0
Mn720 Mn 0.92909 0.44905 0.85716 0.0
Mn721 Mn 0.98429 0.51334 0.85539 0.0
C722 C 0.98642 0.43921 0.86088 0.0
C723 C 0.89374 0.41282 0.87525 0.0
C724 C 0.94967 0.48531 0.81867 0.0
O725 O 0.89907 0.49034 0.86192 0.0
O726 O 0.93911 0.53051 0.86274 0.0
C727 C 0.98501 0.53218 0.89803 0.0
N728 N 1.00172 0.52185 0.88139 0.0
C729 C 0.05428 0.52056 0.89894 0.0
C730 C 0.03767 0.53138 0.91624 0.0
C731 C 1.00287 0.53718 0.91578 0.0
C732 C 0.03521 0.51631 0.88165 0.0
H733 H 0.95823 0.53647 0.89776 0.0
C734 C 0.90845 0.52088 0.86434 0.0
O735 O 0.88981 0.4175 0.85628 0.0
O736 O 0.91704 0.43037 0.8838 0.0
N737 N 0.02893 0.49941 0.84869 0.0
C738 C 0.04072 0.4869 0.83111 0.0
C739 C 0.07487 0.47862 0.82928 0.0
C740 C 0.09652 0.48333 0.84552 0.0
C741 C 0.08384 0.49638 0.86343 0.0
C742 C 0.04964 0.50447 0.86431 0.0
H743 H 0.02414 0.48303 0.81863 0.0
O744 O 0.96654 0.41532 0.85511 0.0
O745 O 0.97217 0.46805 0.86397 0.0
O746 O 0.93434 0.46132 0.82747 0.0
O747 O 0.96827 0.50645 0.82778 0.0
C748 C 0.10362 0.50097 0.88057 0.0
C749 C 0.08886 0.51307 0.89831 0.0
H750 H 0.0513 0.53499 0.93 0.0
H751 H 0.98984 0.54536 0.92909 0.0
H752 H 0.08444 0.46843 0.81544 0.0
H753 H 0.12277 0.47653 0.84413 0.0
H754 H 0.13011 0.49481 0.88036 0.0
H755 H 0.10423 0.51605 0.91147 0.0
Mn756 Mn 0.82682 0.67086 0.10277 0.0
Mn757 Mn 0.75853 0.72075 0.10117 0.0
C758 C 0.83325 0.72863 0.10227 0.0
C759 C 0.86677 0.64129 0.12105 0.0
C760 C 0.78574 0.68338 0.06512 0.0
O761 O 0.78877 0.63896 0.11063 0.0
O762 O 0.74568 0.67558 0.11133 0.0
C763 C 0.74477 0.72615 0.14439 0.0
N764 N 0.75149 0.74115 0.12663 0.0
C765 C 0.74976 0.79603 0.14163 0.0
C766 C 0.74259 0.78118 0.16006 0.0
C767 C 0.74013 0.74609 0.16145 0.0
C768 C 0.75386 0.7749 0.12512 0.0
H769 H 0.74306 0.69918 0.14555 0.0
C770 C 0.75799 0.64618 0.11399 0.0
O771 O 0.86057 0.63384 0.10258 0.0
O772 O 0.84871 0.66479 0.12907 0.0
N773 N 0.76772 0.76522 0.09191 0.0
C774 C 0.77705 0.77541 0.07335 0.0
C775 C 0.78189 0.80975 0.06964 0.0
C776 C 0.77695 0.83323 0.085 0.0
C777 C 0.76708 0.82217 0.10393 0.0
C778 C 0.76236 0.78766 0.10671 0.0
H779 H 0.78106 0.75747 0.06151 0.0
O780 O 0.85774 0.70911 0.09697 0.0
O781 O 0.80579 0.71368 0.10799 0.0
O782 O 0.81124 0.67055 0.07369 0.0
O783 O 0.76406 0.70157 0.07415 0.0
C784 C 0.76247 0.84396 0.12027 0.0
C785 C 0.75378 0.8309 0.1391 0.0
H786 H 0.73927 0.79646 0.17329 0.0
H787 H 0.7348 0.73444 0.17565 0.0
H788 H 0.78958 0.81808 0.055 0.0
H789 H 0.78105 0.85966 0.08213 0.0
H790 H 0.76605 0.87075 0.11858 0.0
H791 H 0.75083 0.84786 0.15161 0.0
Mn792 Mn 0.58793 0.56751 0.35379 0.0
Mn793 Mn 0.54184 0.49703 0.35791 0.0
C794 C 0.53015 0.57083 0.35861 0.0
C795 C 0.61916 0.60974 0.36975 0.0
C796 C 0.57159 0.52144 0.3186 0.0
O797 O 0.62306 0.53148 0.36 0.0
O798 O 0.58869 0.48762 0.36636 0.0
C799 C 0.54253 0.48813 0.40164 0.0
N800 N 0.52502 0.49234 0.38445 0.0
C801 C 0.47236 0.49152 0.40213 0.0
C802 C 0.48982 0.4868 0.41999 0.0
C803 C 0.52506 0.48515 0.41974 0.0
C804 C 0.4911 0.4939 0.38451 0.0
H805 H 0.56963 0.48727 0.40156 0.0
C806 C 0.61784 0.50145 0.36602 0.0
O807 O 0.62306 0.60352 0.35087 0.0
O808 O 0.59813 0.59084 0.37925 0.0
N809 N 0.49595 0.50392 0.35051 0.0
C810 C 0.4831 0.51131 0.33227 0.0
C811 C 0.44827 0.51538 0.33012 0.0
C812 C 0.42704 0.51184 0.34672 0.0
C813 C 0.44083 0.50419 0.36533 0.0
C814 C 0.4757 0.50008 0.36654 0.0
H815 H 0.4993 0.51432 0.31948 0.0
O816 O 0.54646 0.59591 0.35097 0.0
O817 O 0.5482 0.54476 0.36278 0.0
O818 O 0.58294 0.54952 0.32502 0.0
O819 O 0.55737 0.49982 0.32987 0.0
C820 C 0.42143 0.50132 0.38282 0.0
C821 C 0.43717 0.49494 0.40121 0.0
H822 H 0.47646 0.48488 0.43402 0.0
H823 H 0.53873 0.48182 0.43349 0.0
H824 H 0.43783 0.52145 0.31572 0.0
H825 H 0.40023 0.5154 0.34504 0.0
H826 H 0.39443 0.50448 0.38236 0.0
H827 H 0.42204 0.4933 0.4146 0.0
Mn828 Mn 0.7 0.3461 0.60761 0.0
Mn829 Mn 0.76925 0.29735 0.60829 0.0
C830 C 0.69468 0.28806 0.60854 0.0
C831 C 0.65827 0.37639 0.62449 0.0
C832 C 0.74293 0.32979 0.57071 0.0
O833 O 0.73647 0.37943 0.61547 0.0
O834 O 0.78099 0.34468 0.61562 0.0
C835 C 0.78219 0.30065 0.65164 0.0
N836 N 0.77634 0.28216 0.63493 0.0
C837 C 0.7795 0.23056 0.65337 0.0
C838 C 0.78577 0.24906 0.67075 0.0
C839 C 0.78707 0.28425 0.66988 0.0
C840 C 0.77503 0.24827 0.6356 0.0
H841 H 0.78305 0.32771 0.65109 0.0
C842 C 0.7677 0.37378 0.61804 0.0
O843 O 0.66551 0.38252 0.60597 0.0
O844 O 0.676 0.35357 0.63326 0.0
N845 N 0.76179 0.25106 0.60194 0.0
C846 C 0.7537 0.23701 0.58408 0.0
C847 C 0.75025 0.20203 0.58256 0.0
C848 C 0.75548 0.18182 0.59936 0.0
C849 C 0.76427 0.19679 0.61752 0.0
C850 C 0.76751 0.23179 0.6181 0.0
H851 H 0.74963 0.25239 0.57115 0.0
O852 O 0.67042 0.3067 0.60206 0.0
O853 O 0.7215 0.30398 0.61442 0.0
O854 O 0.71821 0.34509 0.57882 0.0
O855 O 0.76332 0.31105 0.58021 0.0
C856 C 0.76924 0.17842 0.63515 0.0
C857 C 0.77685 0.1953 0.65306 0.0
H858 H 0.78934 0.23651 0.68487 0.0
H859 H 0.79173 0.29871 0.68325 0.0
H860 H 0.74347 0.19067 0.56848 0.0
H861 H 0.75249 0.15487 0.59817 0.0
H862 H 0.76677 0.15135 0.63516 0.0
H863 H 0.78013 0.18093 0.66658 0.0
Mn864 Mn 0.08652 0.43897 0.35323 0.0
Mn865 Mn 0.03107 0.50332 0.35433 0.0
C866 C 0.02925 0.42859 0.35618 0.0
C867 C 0.12213 0.39897 0.36756 0.0
C868 C 0.06429 0.47891 0.31642 0.0
O869 O 0.11682 0.47927 0.36016 0.0
O870 O 0.0769 0.51941 0.36076 0.0
C871 C 0.03384 0.51813 0.3975 0.0
N872 N 0.0157 0.51006 0.38102 0.0
C873 C 0.96402 0.51084 0.39969 0.0
C874 C 0.98213 0.51933 0.41685 0.0
C875 C 0.0172 0.5229 0.41575 0.0
C876 C 0.98197 0.50643 0.38192 0.0
H877 H 0.0608 0.52089 0.39671 0.0
C878 C 0.10747 0.5098 0.36251 0.0
O879 O 0.12551 0.40858 0.34925 0.0
O880 O 0.09939 0.41433 0.37811 0.0
N881 N 0.9856 0.49131 0.34851 0.0
C882 C 0.97213 0.48125 0.33086 0.0
C883 C 0.9374 0.47546 0.32958 0.0
C884 C 0.91687 0.4804 0.34638 0.0
C885 C 0.93125 0.49122 0.3643 0.0
C886 C 0.96599 0.49671 0.36467 0.0
H887 H 0.9878 0.47744 0.3179 0.0
O888 O 0.04933 0.40583 0.34913 0.0
O889 O 0.04311 0.4569 0.36122 0.0
O890 O 0.08128 0.45567 0.32458 0.0
O891 O 0.04475 0.49845 0.32609 0.0
C892 C 0.91258 0.49618 0.38192 0.0
C893 C 0.92895 0.50599 0.3996 0.0
H894 H 0.9694 0.52291 0.43097 0.0
H895 H 0.03137 0.5293 0.42895 0.0
H896 H 0.92649 0.46711 0.31569 0.0
H897 H 0.89014 0.47564 0.34537 0.0
H898 H 0.88569 0.49202 0.38212 0.0
H899 H 0.9144 0.50921 0.41313 0.0
Mn900 Mn 0.31668 0.33922 0.10073 0.0
Mn901 Mn 0.25318 0.28332 0.10237 0.0
C902 C 0.32805 0.28203 0.10114 0.0
C903 C 0.35537 0.37259 0.11825 0.0
C904 C 0.27203 0.32223 0.065 0.0
O905 O 0.27664 0.36787 0.10979 0.0
O906 O 0.2377 0.32711 0.11323 0.0
C907 C 0.24499 0.27685 0.146 0.0
N908 N 0.2512 0.26249 0.12794 0.0
C909 C 0.2566 0.20781 0.14271 0.0
C910 C 0.25006 0.22198 0.16145 0.0
C911 C 0.24428 0.25666 0.1631 0.0
C912 C 0.25668 0.22913 0.12617 0.0
H913 H 0.24071 0.30352 0.14735 0.0
C914 C 0.24738 0.35771 0.11499 0.0
O915 O 0.34776 0.3791 0.09985 0.0
O916 O 0.33974 0.34773 0.12646 0.0
N917 N 0.26567 0.23993 0.09254 0.0
C918 C 0.2742 0.23069 0.07365 0.0
C919 C 0.28226 0.19704 0.06962 0.0
C920 C 0.28142 0.17328 0.08502 0.0
C921 C 0.27247 0.18337 0.10433 0.0
C922 C 0.26441 0.21718 0.10743 0.0
H923 H 0.2751 0.24888 0.06179 0.0
O924 O 0.35024 0.30307 0.0945 0.0
O925 O 0.29998 0.2952 0.10715 0.0
O926 O 0.29806 0.33701 0.07198 0.0
O927 O 0.25332 0.30283 0.07533 0.0
C928 C 0.27197 0.16135 0.1207 0.0
C929 C 0.26397 0.17354 0.13987 0.0
H930 H 0.24983 0.20656 0.1747 0.0
H931 H 0.23943 0.26781 0.17753 0.0
H932 H 0.28927 0.18947 0.05469 0.0
H933 H 0.28798 0.14742 0.08188 0.0
H934 H 0.2782 0.13508 0.11877 0.0
H935 H 0.26422 0.15648 0.15239 0.0
Mn936 Mn 0.41925 0.56857 0.85536 0.0
Mn937 Mn 0.46751 0.49919 0.85338 0.0
C938 C 0.47695 0.5728 0.85889 0.0
C939 C 0.38773 0.60735 0.8737 0.0
C940 C 0.43663 0.53116 0.81676 0.0
O941 O 0.38529 0.53083 0.85994 0.0
O942 O 0.42062 0.48659 0.86043 0.0
C943 C 0.46549 0.47982 0.89587 0.0
N944 N 0.48348 0.48865 0.87942 0.0
C945 C 0.53555 0.48463 0.89733 0.0
C946 C 0.51759 0.47529 0.91444 0.0
C947 C 0.48241 0.4729 0.9137 0.0
C948 C 0.51736 0.49086 0.87993 0.0
H949 H 0.43843 0.47816 0.89541 0.0
C950 C 0.39124 0.49954 0.8622 0.0
O951 O 0.38332 0.60347 0.85468 0.0
O952 O 0.40936 0.58774 0.88213 0.0
N953 N 0.51347 0.50861 0.84704 0.0
C954 C 0.52681 0.5202 0.82966 0.0
C955 C 0.56163 0.52528 0.82816 0.0
C956 C 0.58236 0.51834 0.84451 0.0
C957 C 0.56808 0.50628 0.86221 0.0
C958 C 0.53325 0.50141 0.86278 0.0
H959 H 0.51096 0.52583 0.8171 0.0
O960 O 0.45949 0.59854 0.85327 0.0
O961 O 0.46006 0.54543 0.86207 0.0
O962 O 0.42325 0.55615 0.82569 0.0
O963 O 0.45292 0.50818 0.82577 0.0
C964 C 0.58695 0.49965 0.87946 0.0
C965 C 0.5707 0.4888 0.897 0.0
H966 H 0.53051 0.47024 0.92827 0.0
H967 H 0.46836 0.46589 0.92687 0.0
H968 H 0.57245 0.53473 0.81448 0.0
H969 H 0.60916 0.52267 0.84337 0.0
H970 H 0.61391 0.50327 0.87949 0.0
H971 H 0.58542 0.48423 0.91024 0.0
Mn972 Mn 0.20093 0.68152 0.60225 0.0
Mn973 Mn 0.26592 0.7353 0.60745 0.0
C974 C 0.19155 0.7385 0.60785 0.0
C975 C 0.15956 0.64568 0.6153 0.0
C976 C 0.24582 0.70525 0.56761 0.0
O977 O 0.24008 0.6499 0.60905 0.0
O978 O 0.2807 0.68892 0.61333 0.0
C979 C 0.27618 0.72957 0.65091 0.0
N980 N 0.26956 0.7488 0.63467 0.0
C981 C 0.26613 0.79878 0.65476 0.0
C982 C 0.2731 0.77953 0.67169 0.0
C983 C 0.2781 0.74477 0.66976 0.0
C984 C 0.26479 0.78228 0.63635 0.0
H985 H 0.27987 0.70282 0.6495 0.0
C986 C 0.2703 0.65843 0.61329 0.0
O987 O 0.16939 0.64357 0.5969 0.0
O988 O 0.17512 0.6673 0.62642 0.0
N989 N 0.2542 0.78104 0.60232 0.0
C990 C 0.24551 0.79556 0.58474 0.0
C991 C 0.23849 0.83008 0.58422 0.0
C992 C 0.24055 0.84929 0.60174 0.0
C993 C 0.24971 0.8338 0.61963 0.0
C994 C 0.25671 0.79937 0.61921 0.0
H995 H 0.24372 0.78085 0.57126 0.0
O996 O 0.16888 0.72027 0.59917 0.0
O997 O 0.21911 0.72306 0.61235 0.0
O998 O 0.22046 0.6889 0.57411 0.0
O999 O 0.26434 0.72335 0.57883 0.0
C1000 C 0.25146 0.85103 0.63794 0.0
C1001 C 0.25967 0.83353 0.65549 0.0
H1002 H 0.27433 0.79112 0.68628 0.0
H1003 H 0.28331 0.72973 0.68277 0.0
H1004 H 0.2313 0.84182 0.57037 0.0
H1005 H 0.23474 0.87583 0.60132 0.0
H1006 H 0.24605 0.87763 0.63874 0.0
H1007 H 0.26046 0.84696 0.66952 0.0
Mn1008 Mn 0.10132 0.57312 0.16651 0.0
Mn1009 Mn 0.05193 0.50461 0.16163 0.0
C1010 C 0.04451 0.57885 0.15987 0.0
C1011 C 0.13638 0.6153 0.15403 0.0
C1012 C 0.07653 0.53027 0.2015 0.0
O1013 O 0.1355 0.53556 0.1612 0.0
O1014 O 0.09955 0.49237 0.15675 0.0
C1015 C 0.06125 0.49181 0.11853 0.0
N1016 N 0.04054 0.49825 0.13426 0.0
C1017 C 0.99177 0.49682 0.11321 0.0
C1018 C 0.01256 0.48999 0.09681 0.0
C1019 C 0.04745 0.48751 0.09949 0.0
C1020 C 1.00692 0.5006 0.13187 0.0
H1021 H 0.08809 0.49002 0.12049 0.0
C1022 C 0.1293 0.5048 0.15698 0.0
O1023 O 0.13705 0.60638 0.17258 0.0
O1024 O 0.11658 0.59837 0.14239 0.0
N1025 N 1.00516 0.51362 0.16564 0.0
C1026 C 0.98885 0.52241 0.18275 0.0
C1027 C 0.95389 0.52703 0.18248 0.0
C1028 C 0.93606 0.52244 0.16467 0.0
C1029 C 0.95335 0.51316 0.1473 0.0
C1030 C 0.98816 0.50865 0.1485 0.0
H1031 H 1.00244 0.52614 0.19645 0.0
O1032 O 0.06103 0.60317 0.16821 0.0
O1033 O 0.0616 0.55191 0.15592 0.0
O1034 O 0.09209 0.5557 0.19465 0.0
O1035 O 0.06142 0.50898 0.19048 0.0
C1036 C 0.9375 0.50892 0.12874 0.0
C1037 C 0.95669 0.50076 0.11171 0.0
H1038 H 1.00204 0.4869 0.08207 0.0
H1039 H 0.06367 0.4824 0.08688 0.0
H1040 H 0.94075 0.5343 0.19594 0.0
H1041 H 0.90915 0.5264 0.16448 0.0
H1042 H 0.91063 0.51237 0.12734 0.0
H1043 H 0.94428 0.49803 0.09748 0.0
Mn1044 Mn 0.20212 0.32882 0.91138 0.0
Mn1045 Mn 0.26711 0.27479 0.90901 0.0
C1046 C 0.19273 0.27119 0.90895 0.0
C1047 C 0.16198 0.36188 0.89491 0.0
C1048 C 0.24715 0.31208 0.94691 0.0
O1049 O 0.24166 0.35904 0.9031 0.0
O1050 O 0.28154 0.31925 0.89899 0.0
C1051 C 0.27625 0.27001 0.86536 0.0
N1052 N 0.26988 0.25491 0.88314 0.0
C1053 C 0.26518 0.20075 0.86744 0.0
C1054 C 0.27188 0.21571 0.84897 0.0
C1055 C 0.2774 0.25049 0.84794 0.0
C1056 C 0.26467 0.22143 0.88432 0.0
H1057 H 0.2803 0.29677 0.86448 0.0
C1058 C 0.2712 0.34968 0.8978 0.0
O1059 O 0.16984 0.3675 0.91339 0.0
O1060 O 0.1785 0.33831 0.88592 0.0
N1061 N 0.25521 0.23082 0.91808 0.0
C1062 C 0.2466 0.22075 0.93678 0.0
C1063 C 0.23897 0.18684 0.94024 0.0
C1064 C 0.24026 0.16368 0.92446 0.0
C1065 C 0.24923 0.17463 0.90535 0.0
C1066 C 0.25688 0.20867 0.90283 0.0
H1067 H 0.24535 0.23849 0.94893 0.0
O1068 O 0.16972 0.2907 0.91629 0.0
O1069 O 0.22042 0.286 0.90394 0.0
O1070 O 0.2206 0.32594 0.94009 0.0
O1071 O 0.26632 0.29343 0.93634 0.0
C1072 C 0.2501 0.15326 0.88861 0.0
C1073 C 0.2581 0.1663 0.86967 0.0
H1074 H 0.27247 0.20079 0.83547 0.0
H1075 H 0.2824 0.26224 0.83372 0.0
H1076 H 0.2319 0.17861 0.95501 0.0
H1077 H 0.23397 0.13762 0.92714 0.0
H1078 H 0.24415 0.12685 0.89009 0.0
H1079 H 0.2582 0.14972 0.85687 0.0
Mn1080 Mn 0.42156 0.44662 0.66276 0.0
Mn1081 Mn 0.46829 0.51715 0.66307 0.0
C1082 C 0.47948 0.44351 0.65922 0.0
C1083 C 0.39118 0.40549 0.64573 0.0
C1084 C 0.43725 0.48711 0.70038 0.0
O1085 O 0.38681 0.48333 0.65726 0.0
O1086 O 0.42149 0.52804 0.65509 0.0
C1087 C 0.4678 0.53291 0.62002 0.0
N1088 N 0.48522 0.52598 0.63693 0.0
C1089 C 0.53798 0.52969 0.61948 0.0
C1090 C 0.52061 0.53721 0.60194 0.0
C1091 C 0.48537 0.53878 0.60221 0.0
C1092 C 0.51915 0.52448 0.63685 0.0
H1093 H 0.4407 0.53378 0.6201 0.0
C1094 C 0.39237 0.51438 0.65365 0.0
O1095 O 0.38648 0.41099 0.6646 0.0
O1096 O 0.41225 0.42502 0.63661 0.0
N1097 N 0.51414 0.50915 0.67013 0.0
C1098 C 0.52691 0.49902 0.68792 0.0
C1099 C 0.56174 0.49472 0.68991 0.0
C1100 C 0.58305 0.50088 0.67362 0.0
C1101 C 0.56934 0.51138 0.65548 0.0
C1102 C 0.53447 0.51556 0.65443 0.0
H1103 H 0.51065 0.49398 0.70045 0.0
O1104 O 0.46253 0.41781 0.66552 0.0
O1105 O 0.46199 0.4702 0.65544 0.0
O1106 O 0.42501 0.4611 0.69199 0.0
O1107 O 0.45279 0.51013 0.69086 0.0
C1108 C 0.58884 0.51707 0.63828 0.0
C1109 C 0.57318 0.52626 0.6203 0.0
H1110 H 0.53405 0.54141 0.58812 0.0
H1111 H 0.47177 0.54431 0.58869 0.0
H1112 H 0.57211 0.48645 0.70393 0.0
H1113 H 0.60986 0.49715 0.67515 0.0
H1114 H 0.61585 0.51395 0.63863 0.0
H1115 H 0.58839 0.53007 0.6071 0.0
Mn1116 Mn 0.31234 0.67004 0.41381 0.0
Mn1117 Mn 0.24236 0.71664 0.40981 0.0
C1118 C 0.3167 0.72766 0.40925 0.0
C1119 C 0.35366 0.63802 0.3976 0.0
C1120 C 0.26719 0.68802 0.44914 0.0
O1121 O 0.27583 0.63514 0.40804 0.0
O1122 O 0.23207 0.66945 0.40191 0.0
C1123 C 0.2325 0.71428 0.36619 0.0
N1124 N 0.23737 0.73242 0.38315 0.0
C1125 C 0.23674 0.78433 0.36493 0.0
C1126 C 0.23145 0.76622 0.3473 0.0
C1127 C 0.22934 0.73104 0.34794 0.0
C1128 C 0.23927 0.76629 0.38273 0.0
H1129 H 0.23117 0.68722 0.36658 0.0
C1130 C 0.2456 0.64021 0.40241 0.0
O1131 O 0.34786 0.6345 0.41656 0.0
O1132 O 0.33492 0.65917 0.38822 0.0
N1133 N 0.24974 0.76272 0.41672 0.0
C1134 C 0.25754 0.77621 0.43478 0.0
C1135 C 0.26205 0.81105 0.43654 0.0
C1136 C 0.25848 0.83163 0.41974 0.0
C1137 C 0.25036 0.81718 0.40132 0.0
C1138 C 0.24586 0.78234 0.4005 0.0
H1139 H 0.26061 0.76051 0.44771 0.0
O1140 O 0.34154 0.7108 0.41662 0.0
O1141 O 0.29021 0.71011 0.40485 0.0
O1142 O 0.29491 0.67589 0.44264 0.0
O1143 O 0.24554 0.70219 0.43794 0.0
C1144 C 0.24737 0.83589 0.38365 0.0
C1145 C 0.24052 0.81949 0.36548 0.0
H1146 H 0.22936 0.77903 0.33316 0.0
H1147 H 0.22549 0.71687 0.33437 0.0
H1148 H 0.26848 0.82199 0.45078 0.0
H1149 H 0.26236 0.85845 0.42111 0.0
H1150 H 0.25079 0.86286 0.38382 0.0
H1151 H 0.23876 0.8341 0.35195 0.0
H1152 H 0.44814 0.04257 0.30102 0.0
H1153 H 0.4438 0.93502 0.29404 0.0
H1154 H 0.44554 0.94117 0.25783 0.0
H1155 H 0.44909 0.9772 0.22795 0.0
H1156 H 0.44942 0.0848 0.23508 0.0
H1157 H 0.44851 0.07855 0.27126 0.0
C1158 C 0.44753 0.02046 0.29158 0.0
C1159 C 0.44599 0.98836 0.30032 0.0
C1160 C 0.44791 0.0242 0.27072 0.0
C1161 C 0.44482 0.96003 0.28779 0.0
C1162 C 0.44596 0.96353 0.26704 0.0
C1163 C 0.44902 0.99926 0.23744 0.0
C1164 C 0.44955 0.03144 0.22876 0.0
C1165 C 0.44767 0.99548 0.25832 0.0
C1166 C 0.44895 0.05975 0.24131 0.0
C1167 C 0.44849 0.05619 0.26203 0.0
H1168 H 0.22596 0.18546 0.54815 0.0
H1169 H 0.3336 0.19255 0.54225 0.0
H1170 H 0.32847 0.19497 0.50602 0.0
H1171 H 0.29325 0.19571 0.47591 0.0
H1172 H 0.18603 0.18366 0.48164 0.0
H1173 H 0.19103 0.18243 0.51792 0.0
C1174 C 0.24824 0.18752 0.53889 0.0
C1175 C 0.28008 0.18901 0.54784 0.0
C1176 C 0.24516 0.18797 0.51802 0.0
C1177 C 0.30881 0.19122 0.53569 0.0
C1178 C 0.30589 0.19271 0.51498 0.0
C1179 C 0.27104 0.19277 0.48513 0.0
C1180 C 0.23932 0.18995 0.47614 0.0
C1181 C 0.2742 0.1912 0.50597 0.0
C1182 C 0.21075 0.18573 0.48823 0.0
C1183 C 0.21358 0.18515 0.50897 0.0
H1184 H 0.07181 0.05817 0.78856 0.0
H1185 H 0.05788 0.95391 0.80364 0.0
H1186 H 0.06254 0.93818 0.76865 0.0
H1187 H 0.06779 0.954 0.7333 0.0
H1188 H 0.07681 0.05848 0.71783 0.0
H1189 H 0.07723 0.07401 0.75308 0.0
C1190 C 0.07004 0.03202 0.78418 0.0
C1191 C 0.06442 1.00734 0.79879 0.0
C1192 C 0.07191 0.02309 0.76382 0.0
C1193 C 0.06189 0.97354 0.79276 0.0
C1194 C 0.06467 0.96444 0.7727 0.0
C1195 C 0.0704 0.98008 0.73769 0.0
C1196 C 0.07262 1.00499 0.72296 0.0
C1197 C 0.06935 0.98898 0.75805 0.0
C1198 C 0.0752 0.0388 0.72889 0.0
C1199 C 0.07534 0.04772 0.74906 0.0
H1200 H 0.31529 0.83238 0.98539 0.0
H1201 H 0.21008 0.83084 0.97032 0.0
H1202 H 0.19493 0.8356 1.00543 0.0
H1203 H 0.21131 0.83659 0.04077 0.0
H1204 H 0.3163 0.83342 0.05605 0.0
H1205 H 0.33171 0.83446 0.0208 0.0
C1206 C 0.28908 0.83346 0.9898 0.0
C1207 C 0.26391 0.83121 0.9752 0.0
C1208 C 0.28044 0.83529 1.01017 0.0
C1209 C 0.23002 0.83227 0.98123 0.0
C1210 C 0.22128 0.83506 1.00133 0.0
C1211 C 0.23754 0.83671 0.03635 0.0
C1212 C 0.2626 0.83515 0.05102 0.0
C1213 C 0.24623 0.83612 0.01599 0.0
C1214 C 0.29651 0.83463 0.04505 0.0
C1215 C 0.30536 0.83516 0.02487 0.0
H1216 H 0.57583 0.04317 0.80109 0.0
H1217 H 0.5631 0.93628 0.79469 0.0
H1218 H 0.56411 0.94171 0.7584 0.0
H1219 H 0.56877 0.97691 0.72841 0.0
H1220 H 0.58672 0.08314 0.73477 0.0
H1221 H 0.58384 0.07799 0.77102 0.0
C1222 C 0.57312 0.02117 0.79168 0.0
C1223 C 0.56903 0.98943 0.80047 0.0
C1224 C 0.57491 0.02436 0.77082 0.0
C1225 C 0.5662 0.96097 0.7882 0.0
C1226 C 0.56678 0.96406 0.76748 0.0
C1227 C 0.57212 0.9989 0.73776 0.0
C1228 C 0.57784 0.03037 0.72891 0.0
C1229 C 0.57119 0.99562 0.75861 0.0
C1230 C 0.58251 0.05859 0.74121 0.0
C1231 C 0.58068 0.05569 0.76194 0.0
H1232 H 0.70544 0.82211 0.48043 0.0
H1233 H 0.81031 0.82184 0.4642 0.0
H1234 H 0.82617 0.82436 0.49922 0.0
H1235 H 0.81061 0.82478 0.53468 0.0
H1236 H 0.70598 0.82067 0.55132 0.0
H1237 H 0.68982 0.82167 0.51624 0.0
C1238 C 0.73171 0.82291 0.4846 0.0
C1239 C 0.75662 0.82193 0.46966 0.0
C1240 C 0.74079 0.82337 0.50495 0.0
C1241 C 0.7906 0.82245 0.47536 0.0
C1242 C 0.79973 0.82392 0.49542 0.0
C1243 C 0.78426 0.82433 0.53065 0.0
C1244 C 0.75961 0.82279 0.54572 0.0
C1245 C 0.7751 0.82409 0.51038 0.0
C1246 C 0.72557 0.82175 0.54011 0.0
C1247 C 0.71626 0.82239 0.52 0.0
H1248 H 0.94629 0.97674 0.29109 0.0
H1249 H 0.93638 0.08417 0.28607 0.0
H1250 H 0.93764 0.0796 0.24974 0.0
H1251 H 0.94298 0.04493 0.21922 0.0
H1252 H 0.94917 0.93729 0.22464 0.0
H1253 H 0.94817 0.94208 0.26088 0.0
C1254 C 0.94424 0.99916 0.28205 0.0
C1255 C 0.94136 0.03075 0.29132 0.0
C1256 C 0.94456 0.99631 0.26119 0.0
C1257 C 0.9384 0.05951 0.27935 0.0
C1258 C 0.93934 0.05693 0.25856 0.0
C1259 C 0.94419 0.0226 0.22838 0.0
C1260 C 0.9464 0.99082 0.21927 0.0
C1261 C 0.94271 0.02548 0.24929 0.0
C1262 C 0.94742 0.96203 0.23129 0.0
C1263 C 0.94688 0.96474 0.25202 0.0
H1264 H 0.81118 0.19894 0.98726 0.0
H1265 H 0.70662 0.19174 0.97129 0.0
H1266 H 0.69066 0.19068 1.0064 0.0
H1267 H 0.706 0.19458 0.04199 0.0
H1268 H 0.81032 0.20574 0.05777 0.0
H1269 H 0.82654 0.20233 0.02278 0.0
C1270 C 0.78495 0.19676 0.99148 0.0
C1271 C 0.76021 0.19535 0.97656 0.0
C1272 C 0.77576 0.19706 0.01182 0.0
C1273 C 0.72626 0.19301 0.98238 0.0
C1274 C 0.71705 0.19238 1.00251 0.0
C1275 C 0.73228 0.19592 0.03776 0.0
C1276 C 0.75683 0.2004 0.05258 0.0
C1277 C 0.74151 0.1948 0.01742 0.0
C1278 C 0.79079 0.20249 0.04674 0.0
C1279 C 0.80016 0.2005 0.02668 0.0
H1280 H 0.94794 0.47681 0.72451 0.0
H1281 H 0.93979 0.58418 0.731 0.0
H1282 H 0.93963 0.57842 0.76728 0.0
H1283 H 0.94443 0.54292 0.79727 0.0
H1284 H 0.94793 0.43533 0.79083 0.0
H1285 H 0.94717 0.441 0.75451 0.0
C1286 C 0.94586 0.49892 0.73389 0.0
C1287 C 0.94409 0.53093 0.72504 0.0
C1288 C 0.9451 0.49534 0.75476 0.0
C1289 C 0.94102 0.55928 0.73739 0.0
C1290 C 0.94112 0.556 0.75816 0.0
C1291 C 0.94485 0.52073 0.78789 0.0
C1292 C 0.94655 0.48873 0.79673 0.0
C1293 C 0.94356 0.52419 0.76702 0.0
C1294 C 0.94658 0.46019 0.7844 0.0
C1295 C 0.94626 0.46346 0.76363 0.0
H1296 H 0.7277 0.6804 0.04403 0.0
H1297 H 0.83541 0.6768 0.03736 0.0
H1298 H 0.82958 0.67576 1.00113 0.0
H1299 H 0.79384 0.67932 0.9713 0.0
H1300 H 0.68606 0.67952 0.97802 0.0
H1301 H 0.69189 0.67822 0.01423 0.0
C1302 C 0.74986 0.6791 0.03462 0.0
C1303 C 0.78194 0.67893 0.04335 0.0
C1304 C 0.7463 0.67803 0.01382 0.0
C1305 C 0.81044 0.67683 0.03101 0.0
C1306 C 0.80712 0.67642 0.01029 0.0
C1307 C 0.77166 0.67882 0.98071 0.0
C1308 C 0.73957 0.67978 0.972 0.0
C1309 C 0.77519 0.67754 1.00152 0.0
C1310 C 0.71103 0.67868 0.98436 0.0
C1311 C 0.71435 0.67811 1.00506 0.0
H1312 H 0.56841 0.56409 0.28675 0.0
H1313 H 0.57938 0.45962 0.30188 0.0
H1314 H 0.5796 0.4444 0.26662 0.0
H1315 H 0.57424 0.4604 0.23119 0.0
H1316 H 0.55903 0.56456 0.21641 0.0
H1317 H 0.56291 0.58005 0.25145 0.0
C1318 C 0.57125 0.53805 0.2823 0.0
C1319 C 0.57407 0.5131 0.29699 0.0
C1320 C 0.57033 0.52929 0.26192 0.0
C1321 C 0.57713 0.47938 0.29092 0.0
C1322 C 0.57724 0.47061 0.27072 0.0
C1323 C 0.572 0.48649 0.23564 0.0
C1324 C 0.56631 0.51119 0.22108 0.0
C1325 C 0.57347 0.49528 0.25604 0.0
C1326 C 0.56316 0.54489 0.22722 0.0
C1327 C 0.56547 0.55386 0.24732 0.0
H1328 H 0.73126 0.28274 0.54266 0.0
H1329 H 0.76649 0.38405 0.55044 0.0
H1330 H 0.77932 0.38774 0.5147 0.0
H1331 H 0.78137 0.36133 0.48122 0.0
H1332 H 0.7431 0.26067 0.47382 0.0
H1333 H 0.73099 0.25738 0.5093 0.0
C1334 C 0.74173 0.30558 0.53647 0.0
C1335 C 0.74812 0.33303 0.54904 0.0
C1336 C 0.74872 0.30751 0.51597 0.0
C1337 C 0.76127 0.3627 0.54092 0.0
C1338 C 0.76874 0.36471 0.52054 0.0
C1339 C 0.77053 0.33865 0.48741 0.0
C1340 C 0.76352 0.31117 0.47481 0.0
C1341 C 0.7628 0.33715 0.50791 0.0
C1342 C 0.74892 0.28218 0.48307 0.0
C1343 C 0.74191 0.28024 0.50341 0.0
H1344 H 0.06423 0.53709 0.29536 0.0
H1345 H 0.07065 0.42969 0.28852 0.0
H1346 H 0.07412 0.43582 0.25233 0.0
H1347 H 0.07518 0.47186 0.2225 0.0
H1348 H 0.07375 0.57943 0.22962 0.0
H1349 H 0.06861 0.5732 0.2657 0.0
C1350 C 0.06632 0.51508 0.2859 0.0
C1351 C 0.06694 0.48298 0.29456 0.0
C1352 C 0.06929 0.51885 0.26514 0.0
C1353 C 0.07019 0.45466 0.28219 0.0
C1354 C 0.0721 0.45815 0.2615 0.0
C1355 C 0.07375 0.49389 0.23199 0.0
C1356 C 0.0747 0.52605 0.2234 0.0
C1357 C 0.07166 0.49012 0.25279 0.0
C1358 C 0.07325 0.5544 0.23588 0.0
C1359 C 0.07018 0.55086 0.2565 0.0
H1360 H 0.3134 0.32248 0.03244 0.0
H1361 H 0.20944 0.32994 0.04989 0.0
H1362 H 0.19235 0.33017 0.01497 0.0
H1363 H 0.20659 0.32427 0.97928 0.0
H1364 H 0.31034 0.31202 0.96212 0.0
H1365 H 0.32772 0.31765 0.99674 0.0
C1366 C 0.28709 0.32477 0.02854 0.0
C1367 C 0.26277 0.32649 0.04374 0.0
C1368 C 0.2773 0.32363 1.00836 0.0
C1369 C 0.22867 0.32868 0.03846 0.0
C1370 C 0.21885 0.32872 0.01848 0.0
C1371 C 0.233 0.3232 0.98312 0.0
C1372 C 0.25705 0.31767 0.96805 0.0
C1373 C 0.24287 0.32558 1.00326 0.0
C1374 C 0.29119 0.31599 0.97337 0.0
C1375 C 0.30123 0.31929 0.99322 0.0
H1376 H 0.43499 0.47457 0.79417 0.0
H1377 H 0.43279 0.58251 0.78993 0.0
H1378 H 0.43273 0.57858 0.75355 0.0
H1379 H 0.43525 0.5443 0.72285 0.0
H1380 H 0.43379 0.43632 0.72737 0.0
H1381 H 0.43323 0.44042 0.76365 0.0
C1382 C 0.43439 0.49724 0.78528 0.0
C1383 C 0.43415 0.5288 0.79476 0.0
C1384 C 0.43376 0.49476 0.76439 0.0
C1385 C 0.43289 0.55792 0.78302 0.0
C1386 C 0.433 0.55568 0.76221 0.0
C1387 C 0.43469 0.52169 0.73179 0.0
C1388 C 0.43477 0.49003 0.72238 0.0
C1389 C 0.43374 0.52423 0.75272 0.0
C1390 C 0.43362 0.46098 0.7342 0.0
C1391 C 0.43343 0.4633 0.75496 0.0
H1392 H 0.20616 0.68618 0.53625 0.0
H1393 H 0.3069 0.71791 0.55055 0.0
H1394 H 0.32325 0.7128 0.51564 0.0
H1395 H 0.30876 0.70067 0.48057 0.0
H1396 H 0.20705 0.6732 0.46601 0.0
H1397 H 0.19148 0.67489 0.50124 0.0
C1398 C 0.23171 0.6919 0.53175 0.0
C1399 C 0.25517 0.70243 0.54613 0.0
C1400 C 0.2409 0.68949 0.51148 0.0
C1401 C 0.28814 0.70998 0.53989 0.0
C1402 C 0.29762 0.70692 0.51988 0.0
C1403 C 0.28334 0.69462 0.48519 0.0
C1404 C 0.25919 0.68644 0.47072 0.0
C1405 C 0.27423 0.6968 0.50549 0.0
C1406 C 0.22613 0.67942 0.47688 0.0
C1407 C 0.21718 0.68048 0.49703 0.0
H1408 H 0.39961 0.94221 0.15998 0.0
H1409 H 0.33674 0.02852 0.14977 0.0
H1410 H 0.2919 0.99176 0.13739 0.0
H1411 H 0.27165 0.93456 0.1279 0.0
H1412 H 0.33671 0.84971 0.13879 0.0
H1413 H 0.37916 0.88649 0.1523 0.0
C1414 C 0.3761 0.95318 0.15514 0.0
C1415 C 0.3718 0.98819 0.15572 0.0
C1416 C 0.35066 0.93204 0.14796 0.0
C1417 C 0.34085 1.00166 0.14955 0.0
C1418 C 0.31522 0.98062 0.14236 0.0
C1419 C 0.29504 0.92414 0.13331 0.0
C1420 C 0.30077 0.88921 0.13199 0.0
C1421 C 0.31997 0.94568 0.14125 0.0
C1422 C 0.33134 0.87635 0.13925 0.0
C1423 C 0.35586 0.8974 0.1471 0.0
H1424 H 0.2629 0.08585 0.39434 0.0
H1425 H 0.33519 0.16478 0.4053 0.0
H1426 H 0.38031 0.12866 0.39415 0.0
H1427 H 0.40006 0.07548 0.38115 0.0
H1428 H 0.32989 0.99508 0.3699 0.0
H1429 H 0.28353 0.03093 0.38121 0.0
C1430 C 0.28852 0.09507 0.39437 0.0
C1431 C 0.29527 0.12826 0.40068 0.0
C1432 C 0.31494 0.07397 0.38778 0.0
C1433 C 0.32881 0.1396 0.4005 0.0
C1434 C 0.35488 0.11891 0.3941 0.0
C1435 C 0.37467 0.0656 0.38103 0.0
C1436 C 0.3687 0.0325 0.37453 0.0
C1437 C 0.34827 0.08618 0.38763 0.0
C1438 C 0.33543 0.02043 0.37473 0.0
C1439 C 0.30884 0.04095 0.38125 0.0
H1440 H 0.17537 0.01312 0.64758 0.0
H1441 H 0.0941 0.08277 0.63705 0.0
H1442 H 0.13332 0.12342 0.62382 0.0
H1443 H 0.19 0.14061 0.6161 0.0
H1444 H 0.27305 0.07346 0.62645 0.0
H1445 H 0.23375 0.03044 0.63853 0.0
C1446 C 0.16626 0.03715 0.64236 0.0
C1447 C 0.13161 0.0447 0.64358 0.0
C1448 C 0.18921 0.06096 0.63465 0.0
C1449 C 0.12044 0.07605 0.63658 0.0
C1450 C 0.1429 0.09948 0.62891 0.0
C1451 C 0.19978 0.11658 0.62093 0.0
C1452 C 0.2346 0.11051 0.62046 0.0
C1453 C 0.17725 0.09235 0.62803 0.0
C1454 C 0.24641 0.07892 0.6266 0.0
C1455 C 0.22392 0.05436 0.63361 0.0
H1456 H 0.16777 0.99793 0.88068 0.0
H1457 H 0.09806 0.92017 0.86309 0.0
H1458 H 0.13764 0.87737 0.87319 0.0
H1459 H 0.19029 0.86149 0.88798 0.0
H1460 H 0.2614 0.93714 0.90646 0.0
H1461 H 0.22308 0.98119 0.8949 0.0
C1462 C 0.16144 0.97162 0.87892 0.0
C1463 C 0.12977 0.9624 0.87128 0.0
C1464 C 0.18442 0.94671 0.885 0.0
C1465 C 0.12197 0.92814 0.86914 0.0
C1466 C 0.14464 0.90352 0.87488 0.0
C1467 C 0.19765 0.88757 0.88959 0.0
C1468 C 0.22864 0.89588 0.89832 0.0
C1469 C 0.17563 0.9125 0.88305 0.0
C1470 C 0.23766 0.92994 0.89989 0.0
C1471 C 0.21572 0.95514 0.89329 0.0
H1472 H 0.69555 0.1514 0.88362 0.0
H1473 H 0.76146 0.08426 0.91512 0.0
H1474 H 0.72843 0.03606 0.90358 0.0
H1475 H 0.67828 0.01329 0.88589 0.0
H1476 H 0.61388 0.08215 0.85448 0.0
H1477 H 0.64912 0.12905 0.86437 0.0
C1478 C 0.70282 0.12627 0.88801 0.0
C1479 C 0.73072 0.12161 0.90045 0.0
C1480 C 0.68398 0.09879 0.88122 0.0
C1481 C 0.73997 0.08868 0.90564 0.0
C1482 C 0.72108 0.06106 0.89903 0.0
C1483 C 0.67242 0.03849 0.88094 0.0
C1484 C 0.64328 0.04418 0.8696 0.0
C1485 C 0.69275 0.06581 0.88694 0.0
C1486 C 0.63591 0.07706 0.8634 0.0
C1487 C 0.65601 0.10399 0.86908 0.0
H1488 H 0.68212 0.00896 0.63962 0.0
H1489 H 0.6173 0.93784 0.66934 0.0
H1490 H 0.65187 0.8917 0.65767 0.0
H1491 H 0.69832 0.87073 0.63789 0.0
H1492 H 0.76486 0.9398 0.60797 0.0
H1493 H 0.7319 0.98724 0.62078 0.0
C1494 C 0.67593 0.9834 0.64375 0.0
C1495 C 0.64688 0.97701 0.65524 0.0
C1496 C 0.69597 0.95646 0.63675 0.0
C1497 C 0.63919 0.94363 0.66036 0.0
C1498 C 0.65896 0.91708 0.65367 0.0
C1499 C 0.70577 0.8961 0.63407 0.0
C1500 C 0.73391 0.90148 0.62175 0.0
C1501 C 0.68698 0.92311 0.64158 0.0
C1502 C 0.74323 0.93476 0.61732 0.0
C1503 C 0.72438 0.96195 0.62468 0.0
H1504 H 0.76913 0.92729 0.38806 0.0
H1505 H 0.84443 0.85334 0.40267 0.0
H1506 H 0.88845 0.89075 0.39146 0.0
H1507 H 0.90632 0.9433 0.37674 0.0
H1508 H 0.83304 0.01888 0.36202 0.0
H1509 H 0.7879 0.98215 0.374 0.0
C1510 C 0.79517 0.91953 0.38893 0.0
C1511 C 0.80314 0.88724 0.39609 0.0
C1512 C 0.82093 0.94137 0.3823 0.0
C1513 C 0.83719 0.87773 0.39705 0.0
C1514 C 0.86261 0.89917 0.39064 0.0
C1515 C 0.88051 0.95188 0.37604 0.0
C1516 C 0.87325 0.9838 0.36828 0.0
C1517 C 0.8548 0.93082 0.38303 0.0
C1518 C 0.83951 0.99441 0.36783 0.0
C1519 C 0.81362 0.97339 0.3747 0.0
H1520 H 0.76736 0.09501 0.12524 0.0
H1521 H 0.83707 0.17676 0.13498 0.0
H1522 H 0.87956 0.1377 0.14569 0.0
H1523 H 0.89834 0.08105 0.15165 0.0
H1524 H 0.83103 0.99755 0.14255 0.0
H1525 H 0.78646 0.03653 0.13251 0.0
C1526 C 0.79181 0.10425 0.12975 0.0
C1527 C 0.79872 0.13904 0.12904 0.0
C1528 C 0.81677 0.08135 0.13607 0.0
C1529 C 0.83068 0.15033 0.13509 0.0
C1530 C 0.85524 0.12795 0.14132 0.0
C1531 C 0.87397 0.07112 0.1475 0.0
C1532 C 0.86829 0.03627 0.14776 0.0
C1533 C 0.8487 0.0935 0.14172 0.0
C1534 C 0.83624 0.02423 0.14252 0.0
C1535 C 0.81074 0.04655 0.13671 0.0
H1536 H 0.8341 0.37088 0.62735 0.0
H1537 H 0.75128 0.44038 0.62371 0.0
H1538 H 0.78786 0.486 0.63494 0.0
H1539 H 0.84393 0.5063 0.64593 0.0
H1540 H 0.92565 0.43514 0.64926 0.0
H1541 H 0.88893 0.39056 0.63809 0.0
C1542 C 0.82389 0.39597 0.62892 0.0
C1543 C 0.78986 0.40196 0.62459 0.0
C1544 C 0.84497 0.42207 0.63543 0.0
C1545 C 0.77734 0.43483 0.62688 0.0
C1546 C 0.79828 0.46102 0.63333 0.0
C1547 C 0.85369 0.48105 0.64425 0.0
C1548 C 0.88774 0.47447 0.64853 0.0
C1549 C 0.83223 0.45497 0.63769 0.0
C1550 C 0.89973 0.44139 0.64616 0.0
C1551 C 0.87869 0.41563 0.63972 0.0
H1552 H 0.84224 0.51344 0.87619 0.0
H1553 H 0.91821 0.58839 0.86423 0.0
H1554 H 0.87989 0.63248 0.87426 0.0
H1555 H 0.82585 0.65042 0.88725 0.0
H1556 H 0.74866 0.57716 0.89955 0.0
H1557 H 0.78628 0.53215 0.88851 0.0
C1558 C 0.85031 0.53941 0.87566 0.0
C1559 C 0.88334 0.54726 0.86954 0.0
C1560 C 0.82797 0.56515 0.8816 0.0
C1561 C 0.8932 0.58124 0.86899 0.0
C1562 C 0.87124 0.60668 0.87473 0.0
C1563 C 0.81708 0.62465 0.88758 0.0
C1564 C 0.78444 0.61735 0.8944 0.0
C1565 C 0.83875 0.59896 0.88124 0.0
C1566 C 0.77365 0.58367 0.89443 0.0
C1567 C 0.7952 0.55785 0.88812 0.0
H1568 H 0.69461 0.65455 0.12792 0.0
H1569 H 0.76924 0.578 0.11737 0.0
H1570 H 0.72989 0.53503 0.12922 0.0
H1571 H 0.6731 0.51913 0.14178 0.0
H1572 H 0.59993 0.59753 0.15185 0.0
H1573 H 0.63996 0.63948 0.14103 0.0
C1574 C 0.70247 0.62849 0.12813 0.0
C1575 C 0.73488 0.61965 0.12157 0.0
C1576 C 0.67984 0.60405 0.13492 0.0
C1577 C 0.74445 0.58566 0.12226 0.0
C1578 C 0.72192 0.56102 0.12904 0.0
C1579 C 0.66603 0.5454 0.14173 0.0
C1580 C 0.63327 0.55487 0.14753 0.0
C1581 C 0.68938 0.56989 0.13531 0.0
C1582 C 0.62468 0.58916 0.14732 0.0
C1583 C 0.64763 0.61338 0.14113 0.0
H1584 H 0.75143 0.42495 0.39052 0.0
H1585 H 0.67757 0.36107 0.41859 0.0
H1586 H 0.63285 0.39828 0.40801 0.0
H1587 H 0.61401 0.44631 0.38919 0.0
H1588 H 0.68595 0.51168 0.36074 0.0
H1589 H 0.73202 0.47658 0.37305 0.0
C1590 C 0.72559 0.41958 0.39457 0.0
C1591 C 0.71788 0.39007 0.40519 0.0
C1592 C 0.69958 0.44104 0.38816 0.0
C1593 C 0.68423 0.38335 0.41024 0.0
C1594 C 0.65856 0.4046 0.40418 0.0
C1595 C 0.63972 0.45307 0.38561 0.0
C1596 C 0.64638 0.4814 0.3738 0.0
C1597 C 0.66586 0.43302 0.39278 0.0
C1598 C 0.68002 0.48989 0.36969 0.0
C1599 C 0.70638 0.46982 0.37674 0.0
H1600 H 0.17015 0.50419 0.38008 0.0
H1601 H 0.10045 0.57628 0.35582 0.0
H1602 H 0.13679 0.62201 0.36581 0.0
H1603 H 0.18676 0.64242 0.38234 0.0
H1604 H 0.25806 0.57242 0.40681 0.0
H1605 H 0.22286 0.52538 0.39583 0.0
C1606 C 0.16315 0.52988 0.37683 0.0
C1607 C 0.13229 0.53657 0.36736 0.0
C1608 C 0.18431 0.55664 0.38279 0.0
C1609 C 0.1237 0.57015 0.36331 0.0
C1610 C 0.14452 0.59651 0.369 0.0
C1611 C 0.19475 0.61693 0.38537 0.0
C1612 C 0.22495 0.61116 0.3956 0.0
C1613 C 0.17457 0.59013 0.37898 0.0
C1614 C 0.23489 0.57775 0.39905 0.0
C1615 C 0.21474 0.55078 0.39276 0.0
H1616 H 0.25548 0.42546 0.12285 0.0
H1617 H 0.18374 0.3442 0.12741 0.0
H1618 H 0.14267 0.38196 0.14172 0.0
H1619 H 0.12587 0.43752 0.15212 0.0
H1620 H 0.19527 0.52047 0.1477 0.0
H1621 H 0.23846 0.48242 0.13451 0.0
C1622 C 0.23087 0.41603 0.12697 0.0
C1623 C 0.22292 0.38186 0.12383 0.0
C1624 C 0.20687 0.4381 0.13534 0.0
C1625 C 0.19084 0.37023 0.12944 0.0
C1626 C 0.16716 0.39183 0.13772 0.0
C1627 C 0.15044 0.44752 0.14838 0.0
C1628 C 0.1571 0.48198 0.15085 0.0
C1629 C 0.1748 0.42575 0.14061 0.0
C1630 C 0.18935 0.49408 0.14603 0.0
C1631 C 0.21401 0.47233 0.13837 0.0
H1632 H 0.39253 0.43175 0.86247 0.0
H1633 H 0.32719 0.51558 0.87502 0.0
H1634 H 0.28354 0.47685 0.88676 0.0
H1635 H 0.265 0.41868 0.89478 0.0
H1636 H 0.33255 0.3364 0.88184 0.0
H1637 H 0.37398 0.37515 0.8691 0.0
C1638 C 0.36876 0.44177 0.86771 0.0
C1639 C 0.36337 0.47662 0.86795 0.0
C1640 C 0.34406 0.41954 0.87454 0.0
C1641 C 0.33212 0.48886 0.87463 0.0
C1642 C 0.30717 0.46671 0.88143 0.0
C1643 C 0.28873 0.40926 0.88912 0.0
C1644 C 0.29547 0.3745 0.88955 0.0
C1645 C 0.313 0.43192 0.88168 0.0
C1646 C 0.32645 0.36288 0.882 0.0
C1647 C 0.35035 0.38506 0.87461 0.0
H1648 H 0.39805 0.57486 0.63599 0.0
H1649 H 0.32383 0.50256 0.65487 0.0
H1650 H 0.27891 0.53974 0.64314 0.0
H1651 H 0.26092 0.59439 0.62834 0.0
H1652 H 0.33753 0.66456 0.60957 0.0
H1653 H 0.38105 0.6264 0.62029 0.0
C1654 C 0.37209 0.56703 0.63765 0.0
C1655 C 0.36445 0.53603 0.64654 0.0
C1656 C 0.34665 0.58823 0.6308 0.0
C1657 C 0.33053 0.52636 0.64818 0.0
C1658 C 0.30482 0.54762 0.64146 0.0
C1659 C 0.28713 0.60107 0.62644 0.0
C1660 C 0.29576 0.63259 0.61834 0.0
C1661 C 0.31257 0.57882 0.63281 0.0
C1662 C 0.32994 0.64081 0.616 0.0
C1663 C 0.35502 0.61896 0.62211 0.0
H1664 H 0.39482 0.14136 0.11786 0.0
H1665 H 0.3559 0.16297 0.17657 0.0
H1666 H 0.33033 0.21441 0.16433 0.0
H1667 H 0.32247 0.25543 0.13765 0.0
H1668 H 0.36022 0.23458 0.07881 0.0
H1669 H 0.3831 0.18081 0.09035 0.0
C1670 C 0.38039 0.15712 0.12791 0.0
C1671 C 0.37756 0.14839 0.14816 0.0
C1672 C 0.36573 0.18689 0.12076 0.0
C1673 C 0.35867 0.16907 0.16095 0.0
C1674 C 0.34412 0.19862 0.15399 0.0
C1675 C 0.33495 0.23864 0.12726 0.0
C1676 C 0.33881 0.24824 0.1073 0.0
C1677 C 0.34794 0.20803 0.13403 0.0
C1678 C 0.35641 0.2272 0.09416 0.0
C1679 C 0.36949 0.19657 0.10077 0.0
H1680 H 0.13319 0.1346 0.36425 0.0
H1681 H 0.11864 0.08885 0.42182 0.0
H1682 H 0.06495 0.06589 0.41104 0.0
H1683 H 0.01896 0.06463 0.3867 0.0
H1684 H 0.03348 0.10863 0.32887 0.0
H1685 H 0.09009 0.12682 0.33832 0.0
C1686 C 0.11858 0.11906 0.3743 0.0
C1687 C 0.12981 0.11388 0.3939 0.0
C1688 C 0.0875 0.10593 0.36803 0.0
C1689 C 0.11061 0.09348 0.40669 0.0
C1690 C 0.07973 0.08046 0.40059 0.0
C1691 C 0.03507 0.07708 0.37596 0.0
C1692 C 0.02264 0.08441 0.35694 0.0
C1693 C 0.0675 0.08732 0.3815 0.0
C1694 C 0.04294 0.10217 0.34347 0.0
C1695 C 0.07521 0.11261 0.34888 0.0
H1696 H 0.15368 0.8603 0.66385 0.0
H1697 H 0.11848 0.90066 0.6082 0.0
H1698 H 0.13869 0.85093 0.59058 0.0
H1699 H 0.16328 0.79397 0.59118 0.0
H1700 H 0.19683 0.75308 0.64692 0.0
H1701 H 0.18004 0.80441 0.66428 0.0
C1702 C 0.15091 0.85843 0.64784 0.0
C1703 C 0.13455 0.88418 0.6374 0.0
C1704 C 0.16187 0.82931 0.63781 0.0
C1705 C 0.1309 0.88117 0.61664 0.0
C1706 C 0.1423 0.85264 0.60653 0.0
C1707 C 0.16703 0.79656 0.60709 0.0
C1708 C 0.182 0.77028 0.61771 0.0
C1709 C 0.15722 0.82622 0.61699 0.0
C1710 C 0.18612 0.77345 0.63839 0.0
C1711 C 0.17641 0.80273 0.64833 0.0
H1712 H 0.48518 0.90738 0.84742 0.0
H1713 H 0.52214 0.94462 0.90343 0.0
H1714 H 0.46912 0.9297 0.91971 0.0
H1715 H 0.41246 0.90489 0.91813 0.0
H1716 H 0.37551 0.8676 0.86196 0.0
H1717 H 0.42761 0.88446 0.84558 0.0
C1718 C 0.48139 0.91228 0.86316 0.0
C1719 C 0.50701 0.92773 0.87416 0.0
C1720 C 0.45069 0.90389 0.87236 0.0
C1721 C 0.5023 0.93345 0.89462 0.0
C1722 C 0.47206 0.92484 0.90393 0.0
C1723 C 0.41564 0.90084 0.90227 0.0
C1724 C 0.39008 0.88491 0.89134 0.0
C1725 C 0.44599 0.91012 0.89295 0.0
C1726 C 0.39475 0.87973 0.87078 0.0
C1727 C 0.42466 0.88919 0.86139 0.0
H1728 H 0.34316 0.78173 0.42816 0.0
H1729 H 0.30772 0.7474 0.37117 0.0
H1730 H 0.32537 0.80014 0.3558 0.0
H1731 H 0.35561 0.85394 0.358 0.0
H1732 H 0.39363 0.88719 0.4148 0.0
H1733 H 0.3701 0.83744 0.4308 0.0
C1734 C 0.33881 0.78622 0.41247 0.0
C1735 C 0.32321 0.7613 0.40091 0.0
C1736 C 0.3498 0.81635 0.40365 0.0
C1737 C 0.31856 0.76681 0.38048 0.0
C1738 C 0.32901 0.7968 0.37165 0.0
C1739 C 0.35837 0.85055 0.37392 0.0
C1740 C 0.37663 0.8742 0.38513 0.0
C1741 C 0.34523 0.82152 0.38301 0.0
C1742 C 0.3799 0.86934 0.40576 0.0
C1743 C 0.3665 0.84081 0.41494 0.0
H1744 H 0.39672 0.13878 0.65611 0.0
H1745 H 0.41354 0.09705 0.59754 0.0
H1746 H 0.46944 0.0788 0.60736 0.0
H1747 H 0.51468 0.07661 0.63208 0.0
H1748 H 0.49835 0.11713 0.69077 0.0
H1749 H 0.44137 0.13434 0.68141 0.0
C1750 C 0.4124 0.12522 0.6456 0.0
C1751 C 0.40085 0.11936 0.6261 0.0
C1752 C 0.44475 0.11481 0.65133 0.0
C1753 C 0.42165 0.1019 0.61265 0.0
C1754 C 0.45379 0.09164 0.6182 0.0
C1755 C 0.49833 0.08866 0.64289 0.0
C1756 C 0.51004 0.09463 0.66225 0.0
C1757 C 0.46572 0.09824 0.63741 0.0
C1758 C 0.48942 0.1117 0.67589 0.0
C1759 C 0.45691 0.12145 0.67054 0.0
H1760 H 0.15304 0.14664 0.85605 0.0
H1761 H 0.11866 0.1095 0.91283 0.0
H1762 H 0.14007 0.15982 0.92931 0.0
H1763 H 0.1649 0.21673 0.92728 0.0
H1764 H 0.19786 0.25399 0.87034 0.0
H1765 H 0.18041 0.20181 0.85426 0.0
C1766 C 0.1507 0.14931 0.87206 0.0
C1767 C 0.13414 0.12438 0.88314 0.0
C1768 C 0.1624 0.1787 0.88142 0.0
C1769 C 0.13119 0.12836 0.9039 0.0
C1770 C 0.14327 0.15724 0.91335 0.0
C1771 C 0.16841 0.21313 0.9114 0.0
C1772 C 0.18324 0.23869 0.90004 0.0
C1773 C 0.15822 0.18296 0.90222 0.0
C1774 C 0.18716 0.23421 0.87942 0.0
C1775 C 0.17708 0.20446 0.8702 0.0
H1776 H 0.11567 0.9129 0.10652 0.0
H1777 H 0.14766 0.87492 0.16344 0.0
H1778 H 0.09437 0.8921 0.17841 0.0
H1779 H 0.03672 0.91412 0.17486 0.0
H1780 H 1.00391 0.95005 0.11778 0.0
H1781 H 0.05897 0.93724 0.10332 0.0
C1782 C 0.11121 0.90891 0.12227 0.0
C1783 C 0.1357 0.89261 0.13382 0.0
C1784 C 0.08005 0.9181 0.13072 0.0
C1785 C 0.12928 0.88735 0.15418 0.0
C1786 C 0.0987 0.89702 0.16275 0.0
C1787 C 0.04189 0.91941 0.15931 0.0
C1788 C 0.01675 0.93389 0.14751 0.0
C1789 C 0.07359 0.91173 0.15109 0.0
C1790 C 0.0233 0.93986 0.12727 0.0
C1791 C 0.05471 0.93235 0.11898 0.0
H1792 H 0.70114 0.76507 0.87949 0.0
H1793 H 0.66044 0.77388 0.93869 0.0
H1794 H 0.64248 0.83151 0.93175 0.0
H1795 H 0.63404 0.87748 0.90767 0.0
H1796 H 0.67611 0.86836 0.8486 0.0
H1797 H 0.69884 0.81343 0.85685 0.0
C1798 C 0.6894 0.78009 0.89106 0.0
C1799 C 0.68303 0.76578 0.90976 0.0
C1800 C 0.67921 0.81313 0.88693 0.0
C1801 C 0.66619 0.78476 0.92432 0.0
C1802 C 0.65588 0.81764 0.92033 0.0
C1803 C 0.64877 0.86379 0.89674 0.0
C1804 C 0.65296 0.87699 0.87747 0.0
C1805 C 0.66169 0.83189 0.90154 0.0
C1806 C 0.67222 0.85884 0.86351 0.0
C1807 C 0.68511 0.82724 0.86817 0.0
H1808 H 1.00015 0.9474 0.62846 0.0
H1809 H 0.98052 0.91224 0.68791 0.0
H1810 H 0.92594 0.88997 0.67729 0.0
H1811 H 0.88555 0.87768 0.65052 0.0
H1812 H 0.90556 0.91322 0.59101 0.0
H1813 H 0.95786 0.93893 0.60229 0.0
C1814 C 0.98344 0.93565 0.63917 0.0
C1815 C 0.99367 0.9323 0.65905 0.0
C1816 C 0.95233 0.92283 0.63289 0.0
C1817 C 0.97269 0.91565 0.67262 0.0
C1818 C 0.9416 0.90289 0.66653 0.0
C1819 C 0.90116 0.89134 0.64005 0.0
C1820 C 0.89174 0.89323 0.61989 0.0
C1821 C 0.93136 0.90594 0.64662 0.0
C1822 C 0.91222 0.91121 0.60657 0.0
C1823 C 0.94224 0.92581 0.61299 0.0
H1824 H 0.85325 0.22964 0.428 0.0
H1825 H 0.81643 0.27054 0.37298 0.0
H1826 H 0.83408 0.22008 0.35507 0.0
H1827 H 0.86177 0.16512 0.35484 0.0
H1828 H 0.90049 0.12462 0.40964 0.0
H1829 H 0.87976 0.17354 0.4279 0.0
C1830 C 0.84899 0.22721 0.41213 0.0
C1831 C 0.83276 0.25312 0.40186 0.0
C1832 C 0.85938 0.19813 0.40191 0.0
C1833 C 0.828 0.25032 0.38123 0.0
C1834 C 0.83824 0.22159 0.37098 0.0
C1835 C 0.86533 0.1668 0.37081 0.0
C1836 C 0.88271 0.14129 0.38084 0.0
C1837 C 0.85399 0.19533 0.38115 0.0
C1838 C 0.88726 0.14396 0.40154 0.0
C1839 C 0.87554 0.172 0.41199 0.0
H1840 H 0.61401 0.11422 0.11084 0.0
H1841 H 0.65039 0.15351 0.16666 0.0
H1842 H 0.60001 0.13336 0.18357 0.0
H1843 H 0.54306 0.10898 0.18212 0.0
H1844 H 0.50577 0.07115 0.12634 0.0
H1845 H 0.55862 0.08615 0.10988 0.0
C1846 C 0.61117 0.11786 0.12675 0.0
C1847 C 0.63597 0.13558 0.13739 0.0
C1848 C 0.58167 0.10669 0.13642 0.0
C1849 C 0.6317 0.14016 0.15803 0.0
C1850 C 0.60278 0.12873 0.16775 0.0
C1851 C 0.54683 0.10363 0.16644 0.0
C1852 C 0.521 0.0882 0.15556 0.0
C1853 C 0.57721 0.11271 0.15703 0.0
C1854 C 0.52575 0.08211 0.13513 0.0
C1855 C 0.55587 0.09093 0.12569 0.0
H1856 H 0.7053 0.25589 0.64339 0.0
H1857 H 0.66556 0.24168 0.58448 0.0
H1858 H 0.64666 0.18508 0.59339 0.0
H1859 H 0.63778 0.14131 0.6189 0.0
H1860 H 0.67941 0.15549 0.67756 0.0
H1861 H 0.70212 0.20976 0.66764 0.0
C1862 C 0.69353 0.23991 0.63234 0.0
C1863 C 0.68777 0.25242 0.61312 0.0
C1864 C 0.6829 0.20741 0.63758 0.0
C1865 C 0.67087 0.23221 0.59923 0.0
C1866 C 0.66002 0.19991 0.60435 0.0
C1867 C 0.65233 0.156 0.6294 0.0
C1868 C 0.65654 0.14434 0.64901 0.0
C1869 C 0.66541 0.18741 0.6236 0.0
C1870 C 0.6756 0.16375 0.66239 0.0
C1871 C 0.68848 0.19498 0.65677 0.0
H1872 H 0.54028 0.91518 0.34496 0.0
H1873 H 0.50587 0.95102 0.40198 0.0
H1874 H 0.56043 0.9379 0.41675 0.0
H1875 H 0.61663 0.91204 0.41396 0.0
H1876 H 0.65049 0.87526 0.35686 0.0
H1877 H 0.59813 0.89354 0.3416 0.0
C1878 C 0.54504 0.9205 0.36054 0.0
C1879 C 0.51949 0.93476 0.37228 0.0
C1880 C 0.57647 0.9127 0.36894 0.0
C1881 C 0.52555 0.94088 0.39255 0.0
C1882 C 0.55666 0.93318 0.40102 0.0
C1883 C 0.61283 0.90859 0.39812 0.0
C1884 C 0.6375 0.89207 0.38665 0.0
C1885 C 0.58223 0.91865 0.38943 0.0
C1886 C 0.63196 0.88773 0.36612 0.0
C1887 C 0.60189 0.89804 0.35735 0.0
H1888 H 0.82188 0.76224 0.13643 0.0
H1889 H 0.86344 0.77345 0.07761 0.0
H1890 H 0.88256 0.83033 0.08592 0.0
H1891 H 0.89124 0.87498 0.11101 0.0
H1892 H 0.84849 0.86314 0.16973 0.0
H1893 H 0.82513 0.80897 0.1602 0.0
C1894 C 0.83413 0.77764 0.12526 0.0
C1895 C 0.84036 0.7643 0.10627 0.0
C1896 C 0.84501 0.81013 0.13018 0.0
C1897 C 0.85781 0.78366 0.0922 0.0
C1898 C 0.86877 0.81608 0.09697 0.0
C1899 C 0.87633 0.86081 0.1216 0.0
C1900 C 0.87202 0.87301 0.14112 0.0
C1901 C 0.86303 0.82938 0.11606 0.0
C1902 C 0.8525 0.85432 0.15464 0.0
C1903 C 0.83921 0.8232 0.14925 0.0
H1904 H 0.97114 0.09951 0.84535 0.0
H1905 H 0.00888 0.05863 0.90013 0.0
H1906 H 0.95915 0.07866 0.91801 0.0
H1907 H 0.90635 0.11106 0.91844 0.0
H1908 H 0.86934 0.15287 0.86354 0.0
H1909 H 0.91675 0.12903 0.84542 0.0
C1910 C 0.9681 0.0947 0.86114 0.0
C1911 C 0.99304 0.07693 0.87134 0.0
C1912 C 0.93957 0.10662 0.87136 0.0
C1913 C 0.98941 0.07145 0.89189 0.0
C1914 C 0.96112 0.08313 0.90214 0.0
C1915 C 0.9085 0.11466 0.90249 0.0
C1916 C 0.88441 0.13401 0.89245 0.0
C1917 C 0.93616 0.10111 0.89209 0.0
C1918 C 0.8876 0.13833 0.87173 0.0
C1919 C 0.91478 0.12473 0.8613 0.0
H1920 H 0.84785 0.72671 0.58941 0.0
H1921 H 0.81564 0.76852 0.64545 0.0
H1922 H 0.83149 0.7169 0.66257 0.0
H1923 H 0.85856 0.66139 0.66206 0.0
H1924 H 0.89474 0.62094 0.60639 0.0
H1925 H 0.87303 0.66986 0.58872 0.0
C1926 C 0.8439 0.72418 0.60531 0.0
C1927 C 0.82948 0.75089 0.61606 0.0
C1928 C 0.85393 0.69459 0.61516 0.0
C1929 C 0.82548 0.74779 0.63675 0.0
C1930 C 0.83486 0.71838 0.64658 0.0
C1931 C 0.86119 0.66298 0.64602 0.0
C1932 C 0.87829 0.63744 0.6356 0.0
C1933 C 0.84949 0.69172 0.63599 0.0
C1934 C 0.88176 0.6402 0.61482 0.0
C1935 C 0.86944 0.66828 0.60469 0.0
H1936 H 0.60602 0.60009 0.90998 0.0
H1937 H 0.63716 0.64882 0.85567 0.0
H1938 H 0.58614 0.62945 0.83911 0.0
H1939 H 0.53005 0.60303 0.84098 0.0
H1940 H 0.4981 0.55694 0.89577 0.0
H1941 H 0.55187 0.57075 0.91121 0.0
C1942 C 0.6019 0.60607 0.89444 0.0
C1943 C 0.62526 0.6261 0.88414 0.0
C1944 C 0.57217 0.59546 0.88512 0.0
C1945 C 0.6195 0.63361 0.864 0.0
C1946 C 0.59026 0.62264 0.85451 0.0
C1947 C 0.53525 0.59564 0.85619 0.0
C1948 C 0.51077 0.57815 0.86709 0.0
C1949 C 0.56602 0.60427 0.86507 0.0
C1950 C 0.51716 0.56943 0.88694 0.0
C1951 C 0.54775 0.57759 0.89581 0.0
H1952 H 0.65537 0.37075 0.16467 0.0
H1953 H 0.61893 0.40444 0.10773 0.0
H1954 H 0.6404 0.35354 0.0919 0.0
H1955 H 0.66608 0.29715 0.09456 0.0
H1956 H 0.70126 0.26318 0.15158 0.0
H1957 H 0.68361 0.31596 0.16701 0.0
C1958 C 0.65256 0.3672 0.14875 0.0
C1959 C 0.63541 0.39142 0.13747 0.0
C1960 C 0.66443 0.33747 0.13975 0.0
C1961 C 0.6319 0.38623 0.11684 0.0
C1962 C 0.64405 0.35699 0.10775 0.0
C1963 C 0.6701 0.3016 0.11031 0.0
C1964 C 0.68566 0.27677 0.12185 0.0
C1965 C 0.65973 0.33208 0.11911 0.0
C1966 C 0.69011 0.28237 0.14232 0.0
C1967 C 0.67986 0.31247 0.15117 0.0
H1968 H 0.88191 0.37403 0.36854 0.0
H1969 H 0.8983 0.41521 0.4272 0.0
H1970 H 0.95377 0.43513 0.41694 0.0
H1971 H 0.99909 0.43788 0.39187 0.0
H1972 H 0.98285 0.39682 0.33335 0.0
H1973 H 0.92604 0.3793 0.34303 0.0
C1974 C 0.89737 0.38783 0.37901 0.0
C1975 C 0.8859 0.39304 0.39864 0.0
C1976 C 0.92942 0.39889 0.37308 0.0
C1977 C 0.90638 0.41088 0.412 0.0
C1978 C 0.93826 0.42204 0.4062 0.0
C1979 C 0.98277 0.42567 0.38117 0.0
C1980 C 0.99452 0.41954 0.36176 0.0
C1981 C 0.95023 0.41576 0.38688 0.0
C1982 C 0.97392 0.40233 0.34826 0.0
C1983 C 0.94151 0.39239 0.35378 0.0
H1984 H 0.85379 0.36334 0.86002 0.0
H1985 H 0.89325 0.40159 0.91533 0.0
H1986 H 0.87042 0.35317 0.93306 0.0
H1987 H 0.84414 0.29685 0.93233 0.0
H1988 H 0.80799 0.25738 0.87667 0.0
H1989 H 0.82417 0.30911 0.8597 0.0
C1990 C 0.85689 0.3614 0.876 0.0
C1991 C 0.87541 0.38606 0.88627 0.0
C1992 C 0.84435 0.33302 0.88607 0.0
C1993 C 0.87927 0.38296 0.907 0.0
C1994 C 0.8663 0.35517 0.91717 0.0
C1995 C 0.83929 0.3 0.91657 0.0
C1996 C 0.82389 0.27386 0.90588 0.0
C1997 C 0.84956 0.32958 0.90679 0.0
C1998 C 0.81864 0.27769 0.88535 0.0
C1999 C 0.82826 0.30714 0.87559 0.0
H2000 H 0.98844 0.60504 0.177 0.0
H2001 H 0.02889 0.56971 0.12124 0.0
H2002 H 0.97605 0.58267 0.10451 0.0
H2003 H 0.91927 0.60647 0.10545 0.0
H2004 H 0.87935 0.64433 0.16089 0.0
H2005 H 0.93049 0.62724 0.17814 0.0
C2006 C 0.98539 0.59999 0.16124 0.0
C2007 C 0.01193 0.58559 0.15042 0.0
C2008 C 0.95498 0.60777 0.15171 0.0
C2009 C 1.00827 0.57988 0.12992 0.0
C2010 C 0.97817 0.58744 0.12035 0.0
C2011 C 0.92154 0.61051 0.12136 0.0
C2012 C 0.89557 0.62667 0.13186 0.0
C2013 C 0.95138 0.60149 0.13108 0.0
C2014 C 0.89903 0.63199 0.15245 0.0
C2015 C 0.92834 0.62239 0.16232 0.0
H2016 H 0.65636 0.66047 0.35327 0.0
H2017 H 0.61834 0.6239 0.4094 0.0
H2018 H 0.63951 0.67383 0.42626 0.0
H2019 H 0.66593 0.72988 0.42489 0.0
H2020 H 0.70342 0.76672 0.36887 0.0
H2021 H 0.68524 0.71521 0.35219 0.0
C2022 C 0.65305 0.66325 0.36922 0.0
C2023 C 0.63559 0.63848 0.37998 0.0
C2024 C 0.66493 0.69237 0.37886 0.0
C2025 C 0.63152 0.64259 0.40067 0.0
C2026 C 0.64352 0.67124 0.41037 0.0
C2027 C 0.67029 0.72634 0.40908 0.0
C2028 C 0.68665 0.75154 0.39818 0.0
C2029 C 0.65973 0.6966 0.39958 0.0
C2030 C 0.69161 0.74716 0.37762 0.0
C2031 C 0.68107 0.71781 0.36806 0.0
H2032 H 0.60948 0.41566 0.6083 0.0
H2033 H 0.64148 0.37193 0.66376 0.0
H2034 H 0.58996 0.39113 0.67995 0.0
H2035 H 0.53329 0.41591 0.67763 0.0
H2036 H 0.50042 0.45725 0.62186 0.0
H2037 H 0.55453 0.44362 0.60655 0.0
C2038 C 0.60542 0.41077 0.62399 0.0
C2039 C 0.62922 0.39216 0.63473 0.0
C2040 C 0.57537 0.42131 0.63315 0.0
C2041 C 0.62349 0.38601 0.65508 0.0
C2042 C 0.59396 0.3969 0.66436 0.0
C2043 C 0.53835 0.42232 0.66222 0.0
C2044 C 0.51346 0.43839 0.651 0.0
C2045 C 0.56934 0.41383 0.65344 0.0
C2046 C 0.51974 0.44585 0.63092 0.0
C2047 C 0.55054 0.43779 0.62212 0.0
H2048 H 0.11917 0.3703 0.40464 0.0
H2049 H 0.16499 0.359 0.34667 0.0
H2050 H 0.18802 0.30492 0.35635 0.0
H2051 H 0.19248 0.25898 0.38049 0.0
H2052 H 0.14862 0.27001 0.43877 0.0
H2053 H 0.12722 0.32569 0.42978 0.0
C2054 C 0.13467 0.35627 0.39425 0.0
C2055 C 0.14014 0.36878 0.37491 0.0
C2056 C 0.14802 0.32495 0.39993 0.0
C2057 C 0.16026 0.35013 0.36164 0.0
C2058 C 0.17332 0.319 0.36711 0.0
C2059 C 0.17895 0.274 0.39135 0.0
C2060 C 0.17306 0.26106 0.41045 0.0
C2061 C 0.167 0.30595 0.38609 0.0
C2062 C 0.15402 0.27991 0.42409 0.0
C2063 C 0.14183 0.31169 0.41896 0.0
H2064 H 0.40495 0.41266 0.103 0.0
H2065 H 0.3675 0.37135 0.15806 0.0
H2066 H 0.41616 0.39342 0.17579 0.0
H2067 H 0.47189 0.42078 0.1753 0.0
H2068 H 0.51025 0.46014 0.1201 0.0
H2069 H 0.4592 0.44253 0.10284 0.0
C2070 C 0.40718 0.40896 0.11892 0.0
C2071 C 0.38263 0.39024 0.12913 0.0
C2072 C 0.43572 0.42111 0.12902 0.0
C2073 C 0.38608 0.38551 0.14978 0.0
C2074 C 0.414 0.39803 0.15996 0.0
C2075 C 0.46875 0.42575 0.15955 0.0
C2076 C 0.49426 0.44249 0.14907 0.0
C2077 C 0.43938 0.41521 0.14967 0.0
C2078 C 0.49042 0.44813 0.12857 0.0
C2079 C 0.46134 0.43788 0.11867 0.0
H2080 H 0.34701 0.72603 0.93145 0.0
H2081 H 0.31285 0.76758 0.87597 0.0
H2082 H 0.32668 0.71546 0.85866 0.0
H2083 H 0.35198 0.65952 0.85881 0.0
H2084 H 0.38871 0.61821 0.91387 0.0
H2085 H 0.36981 0.66819 0.93186 0.0
C2086 C 0.34233 0.72333 0.91563 0.0
C2087 C 0.32817 0.75009 0.90504 0.0
C2088 C 0.35076 0.69331 0.9057 0.0
C2089 C 0.32288 0.74683 0.88448 0.0
C2090 C 0.33097 0.71714 0.87456 0.0
C2091 C 0.3554 0.6612 0.87479 0.0
C2092 C 0.37189 0.63524 0.88493 0.0
C2093 C 0.34524 0.69033 0.88496 0.0
C2094 C 0.37621 0.63791 0.90566 0.0
C2095 C 0.36555 0.66656 0.91596 0.0
H2096 H 0.01951 0.57469 0.62897 0.0
H2097 H 0.03102 0.61908 0.68703 0.0
H2098 H 0.08693 0.63987 0.67774 0.0
H2099 H 0.1312 0.64781 0.65239 0.0
H2100 H 0.11934 0.60296 0.59428 0.0
H2101 H 0.06542 0.57923 0.60443 0.0
C2102 C 0.0347 0.58822 0.63971 0.0
C2103 C 0.02179 0.59449 0.65885 0.0
C2104 C 0.0667 0.60007 0.63421 0.0
C2105 C 0.04087 0.61342 0.67235 0.0
C2106 C 0.07277 0.62528 0.66702 0.0
C2107 C 0.11708 0.63243 0.64203 0.0
C2108 C 0.12934 0.62737 0.62254 0.0
C2109 C 0.08583 0.61903 0.64792 0.0
C2110 C 0.11059 0.60737 0.60935 0.0
C2111 C 0.07959 0.59393 0.61509 0.0
H2112 H 0.13797 0.6423 0.11659 0.0
H2113 H 0.17416 0.65781 0.17644 0.0
H2114 H 0.19657 0.7124 0.16704 0.0
H2115 H 0.20266 0.7575 0.14256 0.0
H2116 H 0.16802 0.74266 0.08257 0.0
H2117 H 0.14787 0.68625 0.09126 0.0
C2118 C 0.15123 0.6574 0.12748 0.0
C2119 C 0.15416 0.64596 0.14723 0.0
C2120 C 0.1641 0.68901 0.12199 0.0
C2121 C 0.17142 0.66591 0.16115 0.0
C2122 C 0.1841 0.69729 0.15584 0.0
C2123 C 0.19143 0.74151 0.1313 0.0
C2124 C 0.18775 0.75356 0.11182 0.0
C2125 C 0.18014 0.70929 0.13641 0.0
C2126 C 0.17169 0.73345 0.09756 0.0
C2127 C 0.16021 0.70129 0.10254 0.0
H2128 H 0.11488 0.40363 0.91146 0.0
H2129 H 0.14405 0.35735 0.8559 0.0
H2130 H 0.09313 0.37827 0.84014 0.0
H2131 H 0.03788 0.4062 0.84267 0.0
H2132 H 1.00826 0.45162 0.89822 0.0
H2133 H 0.0613 0.43452 0.91342 0.0
C2134 C 0.11034 0.39853 0.89584 0.0
C2135 C 0.13327 0.37874 0.88496 0.0
C2136 C 0.0806 0.41022 0.88687 0.0
C2137 C 0.12684 0.37236 0.86471 0.0
C2138 C 0.09759 0.3842 0.85566 0.0
C2139 C 0.04336 0.4126 0.85803 0.0
C2140 C 0.0197 0.43082 0.8692 0.0
C2141 C 0.07392 0.40253 0.86668 0.0
C2142 C 0.02659 0.43838 0.8892 0.0
C2143 C 0.05681 0.42843 0.89793 0.0
H2144 H 0.35557 0.27969 0.59249 0.0
H2145 H 0.32082 0.24286 0.64915 0.0
H2146 H 0.33336 0.29695 0.6647 0.0
H2147 H 0.35695 0.35371 0.66254 0.0
H2148 H 0.39344 0.39037 0.60608 0.0
H2149 H 0.37673 0.3379 0.59 0.0
C2150 C 0.35053 0.28381 0.60819 0.0
C2151 C 0.33652 0.25788 0.61961 0.0
C2152 C 0.35796 0.31498 0.61703 0.0
C2153 C 0.33074 0.26295 0.64001 0.0
C2154 C 0.33806 0.29377 0.64891 0.0
C2155 C 0.3608 0.35044 0.64666 0.0
C2156 C 0.37655 0.37589 0.63556 0.0
C2157 C 0.35185 0.31992 0.6376 0.0
C2158 C 0.38146 0.37115 0.615 0.0
C2159 C 0.37208 0.34107 0.6058 0.0
H2160 H 0.47302 0.59372 0.34137 0.0
H2161 H 0.51483 0.56323 0.39748 0.0
H2162 H 0.4625 0.5779 0.41455 0.0
H2163 H 0.40623 0.60361 0.41387 0.0
H2164 H 0.36506 0.63554 0.3577 0.0
H2165 H 0.41511 0.61563 0.34035 0.0
C2166 C 0.47033 0.58993 0.35728 0.0
C2167 C 0.49725 0.57673 0.36812 0.0
C2168 C 0.44023 0.59875 0.36702 0.0
C2169 C 0.49397 0.57255 0.38879 0.0
C2170 C 0.46416 0.58114 0.39857 0.0
C2171 C 0.408 0.60571 0.39781 0.0
C2172 C 0.38202 0.62132 0.38717 0.0
C2173 C 0.43723 0.59472 0.38789 0.0
C2174 C 0.38478 0.62388 0.36633 0.0
C2175 C 0.41347 0.61259 0.35635 0.0
loop_
_geom_bond_atom_site_label_1
_geom_bond_atom_site_label_2
_geom_bond_distance
_geom_bond_site_symmetry_2
_ccdc_geom_bond_type
Mn0 O5 2.095 . S
Mn0 O15 2.162 . S
Mn0 O16 2.297 . S
Mn0 O24 2.385 . S
Mn0 O25 2.209 . S
Mn0 O26 2.094 . S
Mn1 O6 2.121 . S
Mn1 N8 2.257 . S
Mn1 N17 2.282 . S
Mn1 O25 2.215 1_565 S
Mn1 O27 2.117 1_565 S
C2 O24 1.234 . S
C2 O25 1.283 . S
C3 O15 1.281 . S
C3 O16 1.236 . S
C4 O26 1.240 . S
C4 O27 1.264 . S
O5 Mn0 2.095 . S
O5 C14 1.250 . S
O6 Mn1 2.121 . S
O6 C14 1.258 1_565 S
C7 N8 1.326 . S
C7 C11 1.460 . S
C7 H13 0.929 . S
N8 Mn1 2.257 . S
N8 C7 1.326 . S
N8 C12 1.362 . S
C9 C10 1.258 . S
C9 C12 1.431 . S
C9 C29 1.449 . S
C10 C9 1.258 . S
C10 C11 1.477 . S
C10 H30 0.931 . S
C11 C7 1.460 . S
C11 C10 1.477 . S
C11 H31 0.930 . S
C12 N8 1.362 . S
C12 C9 1.431 . S
C12 C22 1.476 . S
H13 C7 0.929 . S
C14 O5 1.250 . S
C14 O6 1.258 1_545 S
O15 Mn0 2.162 . S
O15 C3 1.281 . S
O16 Mn0 2.297 . S
O16 C3 1.236 . S
N17 Mn1 2.282 . S
N17 C18 1.328 1_565 S
N17 C22 1.318 . S
C18 N17 1.328 1_545 S
C18 C19 1.457 . S
C18 H23 0.929 . S
C19 C18 1.457 . S
C19 C20 1.291 1_545 S
C19 H32 0.931 . S
C20 C19 1.291 1_565 S
C20 C21 1.373 . S
C20 H33 0.929 . S
C21 C20 1.373 . S
C21 C22 1.396 . S
C21 C28 1.403 . S
C22 C12 1.476 . S
C22 N17 1.318 . S
C22 C21 1.396 . S
H23 C18 0.929 . S
O24 Mn0 2.385 . S
O24 C2 1.234 . S
O25 Mn0 2.209 . S
O25 Mn1 2.215 1_545 S
O25 C2 1.283 . S
O26 Mn0 2.094 . S
O26 C4 1.240 . S
O27 Mn1 2.117 1_545 S
O27 C4 1.264 . S
C28 C21 1.403 . S
C28 C29 1.399 . S
C28 H34 0.929 . S
C29 C9 1.449 . S
C29 C28 1.399 . S
C29 H35 0.930 . S
H30 C10 0.931 . S
H31 C11 0.930 . S
H32 C19 0.931 . S
H33 C20 0.929 . S
H34 C28 0.929 . S
H35 C29 0.930 . S
Mn36 O41 2.095 . S
Mn36 O51 2.162 . S
Mn36 O52 2.297 . S
Mn36 O60 2.385 . S
Mn36 O61 2.209 . S
Mn36 O62 2.094 . S
Mn37 O42 2.121 . S
Mn37 N44 2.257 . S
Mn37 N53 2.282 . S
Mn37 O61 2.215 . S
Mn37 O63 2.117 . S
C38 O60 1.234 . S
C38 O61 1.283 . S
C39 O51 1.281 . S
C39 O52 1.236 . S
C40 O62 1.240 . S
C40 O63 1.264 . S
O41 Mn36 2.095 . S
O41 C50 1.250 . S
O42 Mn37 2.121 . S
O42 C50 1.258 . S
C43 N44 1.326 . S
C43 C47 1.460 . S
C43 H49 0.929 . S
N44 Mn37 2.257 . S
N44 C43 1.326 . S
N44 C48 1.362 . S
C45 C46 1.258 . S
C45 C48 1.431 . S
C45 C65 1.449 . S
C46 C45 1.258 . S
C46 C47 1.477 . S
C46 H66 0.931 . S
C47 C43 1.460 . S
C47 C46 1.477 . S
C47 H67 0.930 . S
C48 N44 1.362 . S
C48 C45 1.431 . S
C48 C58 1.476 . S
H49 C43 0.929 . S
C50 O41 1.250 . S
C50 O42 1.258 . S
O51 Mn36 2.162 . S
O51 C39 1.281 . S
O52 Mn36 2.297 . S
O52 C39 1.236 . S
N53 Mn37 2.282 . S
N53 C54 1.328 . S
N53 C58 1.318 . S
C54 N53 1.328 . S
C54 C55 1.457 . S
C54 H59 0.929 . S
C55 C54 1.457 . S
C55 C56 1.291 . S
C55 H68 0.931 . S
C56 C55 1.291 . S
C56 C57 1.373 . S
C56 H69 0.929 . S
C57 C56 1.373 . S
C57 C58 1.396 . S
C57 C64 1.403 . S
C58 C48 1.476 . S
C58 N53 1.318 . S
C58 C57 1.396 . S
H59 C54 0.929 . S
O60 Mn36 2.385 . S
O60 C38 1.234 . S
O61 Mn36 2.209 . S
O61 Mn37 2.215 . S
O61 C38 1.283 . S
O62 Mn36 2.094 . S
O62 C40 1.240 . S
O63 Mn37 2.117 . S
O63 C40 1.264 . S
C64 C57 1.403 . S
C64 C65 1.399 . S
C64 H70 0.929 . S
C65 C45 1.449 . S
C65 C64 1.399 . S
C65 H71 0.930 . S
H66 C46 0.931 . S
H67 C47 0.930 . S
H68 C55 0.931 . S
H69 C56 0.929 . S
H70 C64 0.929 . S
H71 C65 0.930 . S
Mn72 O77 2.095 . S
Mn72 O87 2.162 . S
Mn72 O88 2.297 . S
Mn72 O96 2.385 . S
Mn72 O97 2.209 . S
Mn72 O98 2.094 . S
Mn73 O78 2.121 . S
Mn73 N80 2.257 . S
Mn73 N89 2.282 . S
Mn73 O97 2.215 1_545 S
Mn73 O99 2.117 1_545 S
C74 O96 1.234 . S
C74 O97 1.283 . S
C75 O87 1.281 . S
C75 O88 1.236 . S
C76 O98 1.240 . S
C76 O99 1.264 . S
O77 Mn72 2.095 . S
O77 C86 1.250 . S
O78 Mn73 2.121 . S
O78 C86 1.258 1_545 S
C79 N80 1.326 . S
C79 C83 1.460 . S
C79 H85 0.929 . S
N80 Mn73 2.257 . S
N80 C79 1.326 . S
N80 C84 1.362 . S
C81 C82 1.258 . S
C81 C84 1.431 1_655 S
C81 C101 1.449 . S
C82 C81 1.258 . S
C82 C83 1.477 1_655 S
C82 H102 0.931 . S
C83 C79 1.460 . S
C83 C82 1.477 1_455 S
C83 H103 0.930 . S
C84 N80 1.362 . S
C84 C81 1.431 1_455 S
C84 C94 1.476 1_455 S
H85 C79 0.929 . S
C86 O77 1.250 . S
C86 O78 1.258 1_565 S
O87 Mn72 2.162 . S
O87 C75 1.281 . S
O88 Mn72 2.297 . S
O88 C75 1.236 . S
N89 Mn73 2.282 . S
N89 C90 1.327 1_445 S
N89 C94 1.318 1_455 S
C90 N89 1.327 1_665 S
C90 C91 1.460 . S
C90 H95 0.927 1_655 S
C91 C90 1.460 . S
C91 C92 1.291 1_565 S
C91 H104 0.931 . S
C92 C91 1.291 1_545 S
C92 C93 1.373 . S
C92 H105 0.929 . S
C93 C92 1.373 . S
C93 C94 1.396 . S
C93 C100 1.403 . S
C94 C84 1.476 1_655 S
C94 N89 1.318 1_655 S
C94 C93 1.396 . S
H95 C90 0.927 1_455 S
O96 Mn72 2.385 . S
O96 C74 1.234 . S
O97 Mn72 2.209 . S
O97 Mn73 2.215 1_565 S
O97 C74 1.283 . S
O98 Mn72 2.094 . S
O98 C76 1.240 . S
O99 Mn73 2.117 1_565 S
O99 C76 1.264 . S
C100 C93 1.403 . S
C100 C101 1.399 . S
C100 H106 0.929 . S
C101 C81 1.449 . S
C101 C100 1.399 . S
C101 H107 0.930 . S
H102 C82 0.931 . S
H103 C83 0.930 . S
H104 C91 0.931 . S
H105 C92 0.929 . S
H106 C100 0.929 . S
H107 C101 0.930 . S
Mn108 O113 2.095 . S
Mn108 O123 2.162 . S
Mn108 O124 2.297 . S
Mn108 O132 2.385 . S
Mn108 O133 2.209 . S
Mn108 O134 2.094 . S
Mn109 O114 2.121 . S
Mn109 N116 2.257 . S
Mn109 N125 2.282 . S
Mn109 O133 2.215 . S
Mn109 O135 2.117 . S
C110 O132 1.234 . S
C110 O133 1.283 . S
C111 O123 1.281 . S
C111 O124 1.236 . S
C112 O134 1.240 . S
C112 O135 1.264 . S
O113 Mn108 2.095 . S
O113 C122 1.250 . S
O114 Mn109 2.121 . S
O114 C122 1.258 . S
C115 N116 1.326 . S
C115 C119 1.460 . S
C115 H121 0.929 . S
N116 Mn109 2.257 . S
N116 C115 1.326 . S
N116 C120 1.362 . S
C117 C118 1.258 . S
C117 C120 1.431 . S
C117 C137 1.449 . S
C118 C117 1.258 . S
C118 C119 1.477 . S
C118 H138 0.931 . S
C119 C115 1.460 . S
C119 C118 1.477 . S
C119 H139 0.930 . S
C120 N116 1.362 . S
C120 C117 1.431 . S
C120 C130 1.476 . S
H121 C115 0.929 . S
C122 O113 1.250 . S
C122 O114 1.258 . S
O123 Mn108 2.162 . S
O123 C111 1.281 . S
O124 Mn108 2.297 . S
O124 C111 1.236 . S
N125 Mn109 2.282 . S
N125 C126 1.328 . S
N125 C130 1.318 . S
C126 N125 1.328 . S
C126 C127 1.457 . S
C126 H131 0.929 . S
C127 C126 1.457 . S
C127 C128 1.291 . S
C127 H140 0.931 . S
C128 C127 1.291 . S
C128 C129 1.373 . S
C128 H141 0.929 . S
C129 C128 1.373 . S
C129 C130 1.396 . S
C129 C136 1.403 . S
C130 C120 1.476 . S
C130 N125 1.318 . S
C130 C129 1.396 . S
H131 C126 0.929 . S
O132 Mn108 2.385 . S
O132 C110 1.234 . S
O133 Mn108 2.209 . S
O133 Mn109 2.215 . S
O133 C110 1.283 . S
O134 Mn108 2.094 . S
O134 C112 1.240 . S
O135 Mn109 2.117 . S
O135 C112 1.264 . S
C136 C129 1.403 . S
C136 C137 1.399 . S
C136 H142 0.929 . S
C137 C117 1.449 . S
C137 C136 1.399 . S
C137 H143 0.930 . S
H138 C118 0.931 . S
H139 C119 0.930 . S
H140 C127 0.931 . S
H141 C128 0.929 . S
H142 C136 0.929 . S
H143 C137 0.930 . S
Mn144 O149 2.095 . S
Mn144 O159 2.162 . S
Mn144 O160 2.297 . S
Mn144 O168 2.385 . S
Mn144 O169 2.209 . S
Mn144 O170 2.094 . S
Mn145 O150 2.121 . S
Mn145 N152 2.257 . S
Mn145 N161 2.282 . S
Mn145 O169 2.215 1_545 S
Mn145 O171 2.117 1_545 S
C146 O168 1.234 . S
C146 O169 1.283 . S
C147 O159 1.281 . S
C147 O160 1.236 . S
C148 O170 1.240 . S
C148 O171 1.264 . S
O149 Mn144 2.095 . S
O149 C158 1.250 . S
O150 Mn145 2.121 . S
O150 C158 1.258 1_545 S
C151 N152 1.326 . S
C151 C155 1.460 . S
C151 H157 0.929 . S
N152 Mn145 2.257 . S
N152 C151 1.326 . S
N152 C156 1.362 . S
C153 C154 1.258 . S
C153 C156 1.431 . S
C153 C173 1.449 . S
C154 C153 1.258 . S
C154 C155 1.477 . S
C154 H174 0.931 . S
C155 C151 1.460 . S
C155 C154 1.477 . S
C155 H175 0.930 . S
C156 N152 1.362 . S
C156 C153 1.431 . S
C156 C166 1.476 . S
H157 C151 0.929 . S
C158 O149 1.250 . S
C158 O150 1.258 1_565 S
O159 Mn144 2.162 . S
O159 C147 1.281 . S
O160 Mn144 2.297 . S
O160 C147 1.236 . S
N161 Mn145 2.282 . S
N161 C162 1.328 1_545 S
N161 C166 1.318 . S
C162 N161 1.328 1_565 S
C162 C163 1.457 . S
C162 H167 0.929 . S
C163 C162 1.457 . S
C163 C164 1.291 1_565 S
C163 H176 0.931 . S
C164 C163 1.291 1_545 S
C164 C165 1.373 . S
C164 H177 0.929 . S
C165 C164 1.373 . S
C165 C166 1.396 . S
C165 C172 1.403 . S
C166 C156 1.476 . S
C166 N161 1.318 . S
C166 C165 1.396 . S
H167 C162 0.929 . S
O168 Mn144 2.385 . S
O168 C146 1.234 . S
O169 Mn144 2.209 . S
O169 Mn145 2.215 1_565 S
O169 C146 1.283 . S
O170 Mn144 2.094 . S
O170 C148 1.240 . S
O171 Mn145 2.117 1_565 S
O171 C148 1.264 . S
C172 C165 1.403 . S
C172 C173 1.399 . S
C172 H178 0.929 . S
C173 C153 1.449 . S
C173 C172 1.399 . S
C173 H179 0.930 . S
H174 C154 0.931 . S
H175 C155 0.930 . S
H176 C163 0.931 . S
H177 C164 0.929 . S
H178 C172 0.929 . S
H179 C173 0.930 . S
Mn180 O185 2.095 . S
Mn180 O195 2.162 . S
Mn180 O196 2.297 . S
Mn180 O204 2.385 . S
Mn180 O205 2.209 . S
Mn180 O206 2.094 . S
Mn181 O186 2.121 . S
Mn181 N188 2.257 . S
Mn181 N197 2.282 . S
Mn181 O205 2.215 . S
Mn181 O207 2.117 . S
C182 O204 1.234 . S
C182 O205 1.283 . S
C183 O195 1.281 . S
C183 O196 1.236 . S
C184 O206 1.240 . S
C184 O207 1.264 . S
O185 Mn180 2.095 . S
O185 C194 1.250 . S
O186 Mn181 2.121 . S
O186 C194 1.258 . S
C187 N188 1.326 . S
C187 C191 1.460 . S
C187 H193 0.929 . S
N188 Mn181 2.257 . S
N188 C187 1.326 . S
N188 C192 1.362 . S
C189 C190 1.258 . S
C189 C192 1.431 . S
C189 C209 1.449 . S
C190 C189 1.258 . S
C190 C191 1.477 . S
C190 H210 0.931 . S
C191 C187 1.460 . S
C191 C190 1.477 . S
C191 H211 0.930 . S
C192 N188 1.362 . S
C192 C189 1.431 . S
C192 C202 1.476 . S
H193 C187 0.929 . S
C194 O185 1.250 . S
C194 O186 1.258 . S
O195 Mn180 2.162 . S
O195 C183 1.281 . S
O196 Mn180 2.297 . S
O196 C183 1.236 . S
N197 Mn181 2.282 . S
N197 C198 1.328 . S
N197 C202 1.318 . S
C198 N197 1.328 . S
C198 C199 1.457 . S
C198 H203 0.929 . S
C199 C198 1.457 . S
C199 C200 1.291 . S
C199 H212 0.931 . S
C200 C199 1.291 . S
C200 C201 1.373 . S
C200 H213 0.929 . S
C201 C200 1.373 . S
C201 C202 1.396 . S
C201 C208 1.403 . S
C202 C192 1.476 . S
C202 N197 1.318 . S
C202 C201 1.396 . S
H203 C198 0.929 . S
O204 Mn180 2.385 . S
O204 C182 1.234 . S
O205 Mn180 2.209 . S
O205 Mn181 2.215 . S
O205 C182 1.283 . S
O206 Mn180 2.094 . S
O206 C184 1.240 . S
O207 Mn181 2.117 . S
O207 C184 1.264 . S
C208 C201 1.403 . S
C208 C209 1.399 . S
C208 H214 0.929 . S
C209 C189 1.449 . S
C209 C208 1.399 . S
C209 H215 0.930 . S
H210 C190 0.931 . S
H211 C191 0.930 . S
H212 C199 0.931 . S
H213 C200 0.929 . S
H214 C208 0.929 . S
H215 C209 0.930 . S
Mn216 O221 2.095 . S
Mn216 O231 2.162 . S
Mn216 O232 2.297 . S
Mn216 O240 2.385 . S
Mn216 O241 2.209 . S
Mn216 O242 2.094 . S
Mn217 O222 2.121 . S
Mn217 N224 2.257 . S
Mn217 N233 2.282 . S
Mn217 O241 2.215 1_565 S
Mn217 O243 2.117 1_565 S
C218 O240 1.234 . S
C218 O241 1.283 . S
C219 O231 1.281 . S
C219 O232 1.236 . S
C220 O242 1.240 . S
C220 O243 1.264 . S
O221 Mn216 2.095 . S
O221 C230 1.250 . S
O222 Mn217 2.121 . S
O222 C230 1.258 1_565 S
C223 N224 1.326 . S
C223 C227 1.460 . S
C223 H229 0.929 . S
N224 Mn217 2.257 . S
N224 C223 1.326 . S
N224 C228 1.362 . S
C225 C226 1.258 . S
C225 C228 1.431 1_655 S
C225 C245 1.449 . S
C226 C225 1.258 . S
C226 C227 1.477 1_655 S
C226 H246 0.931 . S
C227 C223 1.460 . S
C227 C226 1.477 1_455 S
C227 H247 0.930 . S
C228 N224 1.362 . S
C228 C225 1.431 1_455 S
C228 C238 1.476 1_455 S
H229 C223 0.929 . S
C230 O221 1.250 . S
C230 O222 1.258 1_545 S
O231 Mn216 2.162 . S
O231 C219 1.281 . S
O232 Mn216 2.297 . S
O232 C219 1.236 . S
N233 Mn217 2.282 . S
N233 C234 1.327 1_465 S
N233 C238 1.318 1_455 S
C234 N233 1.327 1_645 S
C234 C235 1.460 . S
C234 H239 0.927 1_655 S
C235 C234 1.460 . S
C235 C236 1.291 1_545 S
C235 H248 0.931 . S
C236 C235 1.291 1_565 S
C236 C237 1.373 . S
C236 H249 0.929 . S
C237 C236 1.373 . S
C237 C238 1.396 . S
C237 C244 1.403 . S
C238 C228 1.476 1_655 S
C238 N233 1.318 1_655 S
C238 C237 1.396 . S
H239 C234 0.927 1_455 S
O240 Mn216 2.385 . S
O240 C218 1.234 . S
O241 Mn216 2.209 . S
O241 Mn217 2.215 1_545 S
O241 C218 1.283 . S
O242 Mn216 2.094 . S
O242 C220 1.240 . S
O243 Mn217 2.117 1_545 S
O243 C220 1.264 . S
C244 C237 1.403 . S
C244 C245 1.399 . S
C244 H250 0.929 . S
C245 C225 1.449 . S
C245 C244 1.399 . S
C245 H251 0.930 . S
H246 C226 0.931 . S
H247 C227 0.930 . S
H248 C235 0.931 . S
H249 C236 0.929 . S
H250 C244 0.929 . S
H251 C245 0.930 . S
Mn252 O257 2.095 . S
Mn252 O267 2.162 . S
Mn252 O268 2.297 . S
Mn252 O276 2.385 . S
Mn252 O277 2.209 . S
Mn252 O278 2.094 . S
Mn253 O258 2.121 . S
Mn253 N260 2.257 . S
Mn253 N269 2.282 . S
Mn253 O277 2.215 . S
Mn253 O279 2.117 . S
C254 O276 1.234 . S
C254 O277 1.283 . S
C255 O267 1.281 . S
C255 O268 1.236 . S
C256 O278 1.240 . S
C256 O279 1.264 . S
O257 Mn252 2.095 . S
O257 C266 1.250 . S
O258 Mn253 2.121 . S
O258 C266 1.258 . S
C259 N260 1.326 . S
C259 C263 1.460 . S
C259 H265 0.929 . S
N260 Mn253 2.257 . S
N260 C259 1.326 . S
N260 C264 1.362 . S
C261 C262 1.258 . S
C261 C264 1.431 . S
C261 C281 1.449 . S
C262 C261 1.258 . S
C262 C263 1.477 . S
C262 H282 0.931 . S
C263 C259 1.460 . S
C263 C262 1.477 . S
C263 H283 0.930 . S
C264 N260 1.362 . S
C264 C261 1.431 . S
C264 C274 1.476 . S
H265 C259 0.929 . S
C266 O257 1.250 . S
C266 O258 1.258 . S
O267 Mn252 2.162 . S
O267 C255 1.281 . S
O268 Mn252 2.297 . S
O268 C255 1.236 . S
N269 Mn253 2.282 . S
N269 C270 1.328 . S
N269 C274 1.318 . S
C270 N269 1.328 . S
C270 C271 1.457 . S
C270 H275 0.929 . S
C271 C270 1.457 . S
C271 C272 1.291 . S
C271 H284 0.931 . S
C272 C271 1.291 . S
C272 C273 1.373 . S
C272 H285 0.929 . S
C273 C272 1.373 . S
C273 C274 1.396 . S
C273 C280 1.403 . S
C274 C264 1.476 . S
C274 N269 1.318 . S
C274 C273 1.396 . S
H275 C270 0.929 . S
O276 Mn252 2.385 . S
O276 C254 1.234 . S
O277 Mn252 2.209 . S
O277 Mn253 2.215 . S
O277 C254 1.283 . S
O278 Mn252 2.094 . S
O278 C256 1.240 . S
O279 Mn253 2.117 . S
O279 C256 1.264 . S
C280 C273 1.403 . S
C280 C281 1.399 . S
C280 H286 0.929 . S
C281 C261 1.449 . S
C281 C280 1.399 . S
C281 H287 0.930 . S
H282 C262 0.931 . S
H283 C263 0.930 . S
H284 C271 0.931 . S
H285 C272 0.929 . S
H286 C280 0.929 . S
H287 C281 0.930 . S
Mn288 O293 2.095 . S
Mn288 O303 2.162 . S
Mn288 O304 2.297 . S
Mn288 O312 2.385 . S
Mn288 O313 2.209 . S
Mn288 O314 2.094 . S
Mn289 O294 2.121 . S
Mn289 N296 2.257 . S
Mn289 N305 2.282 . S
Mn289 O313 2.215 1_545 S
Mn289 O315 2.117 1_545 S
C290 O312 1.234 . S
C290 O313 1.283 . S
C291 O303 1.281 . S
C291 O304 1.236 . S
C292 O314 1.240 . S
C292 O315 1.264 . S
O293 Mn288 2.095 . S
O293 C302 1.250 . S
O294 Mn289 2.121 . S
O294 C302 1.258 1_545 S
C295 N296 1.326 . S
C295 C299 1.460 . S
C295 H301 0.929 . S
N296 Mn289 2.257 . S
N296 C295 1.326 . S
N296 C300 1.362 . S
C297 C298 1.258 . S
C297 C300 1.431 . S
C297 C317 1.449 . S
C298 C297 1.258 . S
C298 C299 1.477 . S
C298 H318 0.931 . S
C299 C295 1.460 . S
C299 C298 1.477 . S
C299 H319 0.930 . S
C300 N296 1.362 . S
C300 C297 1.431 . S
C300 C310 1.476 . S
H301 C295 0.929 . S
C302 O293 1.250 . S
C302 O294 1.258 1_565 S
O303 Mn288 2.162 . S
O303 C291 1.281 . S
O304 Mn288 2.297 . S
O304 C291 1.236 . S
N305 Mn289 2.282 . S
N305 C306 1.328 1_545 S
N305 C310 1.318 . S
C306 N305 1.328 1_565 S
C306 C307 1.457 . S
C306 H311 0.929 . S
C307 C306 1.457 . S
C307 C308 1.291 1_565 S
C307 H320 0.931 . S
C308 C307 1.291 1_545 S
C308 C309 1.373 . S
C308 H321 0.929 . S
C309 C308 1.373 . S
C309 C310 1.396 . S
C309 C316 1.403 . S
C310 C300 1.476 . S
C310 N305 1.318 . S
C310 C309 1.396 . S
H311 C306 0.929 . S
O312 Mn288 2.385 . S
O312 C290 1.234 . S
O313 Mn288 2.209 . S
O313 Mn289 2.215 1_565 S
O313 C290 1.283 . S
O314 Mn288 2.094 . S
O314 C292 1.240 . S
O315 Mn289 2.117 1_565 S
O315 C292 1.264 . S
C316 C309 1.403 . S
C316 C317 1.399 . S
C316 H322 0.929 . S
C317 C297 1.449 . S
C317 C316 1.399 . S
C317 H323 0.930 . S
H318 C298 0.931 . S
H319 C299 0.930 . S
H320 C307 0.931 . S
H321 C308 0.929 . S
H322 C316 0.929 . S
H323 C317 0.930 . S
Mn324 O329 2.095 . S
Mn324 O339 2.162 . S
Mn324 O340 2.297 . S
Mn324 O348 2.385 . S
Mn324 O349 2.209 . S
Mn324 O350 2.094 . S
Mn325 O330 2.121 . S
Mn325 N332 2.257 . S
Mn325 N341 2.282 . S
Mn325 O349 2.215 . S
Mn325 O351 2.117 . S
C326 O348 1.234 . S
C326 O349 1.283 . S
C327 O339 1.281 . S
C327 O340 1.236 . S
C328 O350 1.240 . S
C328 O351 1.264 . S
O329 Mn324 2.095 . S
O329 C338 1.250 . S
O330 Mn325 2.121 . S
O330 C338 1.258 . S
C331 N332 1.326 . S
C331 C335 1.460 . S
C331 H337 0.929 . S
N332 Mn325 2.257 . S
N332 C331 1.326 . S
N332 C336 1.362 . S
C333 C334 1.258 . S
C333 C336 1.431 . S
C333 C353 1.449 . S
C334 C333 1.258 . S
C334 C335 1.477 . S
C334 H354 0.931 . S
C335 C331 1.460 . S
C335 C334 1.477 . S
C335 H355 0.930 . S
C336 N332 1.362 . S
C336 C333 1.431 . S
C336 C346 1.476 . S
H337 C331 0.929 . S
C338 O329 1.250 . S
C338 O330 1.258 . S
O339 Mn324 2.162 . S
O339 C327 1.281 . S
O340 Mn324 2.297 . S
O340 C327 1.236 . S
N341 Mn325 2.282 . S
N341 C342 1.328 . S
N341 C346 1.318 . S
C342 N341 1.328 . S
C342 C343 1.457 . S
C342 H347 0.929 . S
C343 C342 1.457 . S
C343 C344 1.291 . S
C343 H356 0.931 . S
C344 C343 1.291 . S
C344 C345 1.373 . S
C344 H357 0.929 . S
C345 C344 1.373 . S
C345 C346 1.396 . S
C345 C352 1.403 . S
C346 C336 1.476 . S
C346 N341 1.318 . S
C346 C345 1.396 . S
H347 C342 0.929 . S
O348 Mn324 2.385 . S
O348 C326 1.234 . S
O349 Mn324 2.209 . S
O349 Mn325 2.215 . S
O349 C326 1.283 . S
O350 Mn324 2.094 . S
O350 C328 1.240 . S
O351 Mn325 2.117 . S
O351 C328 1.264 . S
C352 C345 1.403 . S
C352 C353 1.399 . S
C352 H358 0.929 . S
C353 C333 1.449 . S
C353 C352 1.399 . S
C353 H359 0.930 . S
H354 C334 0.931 . S
H355 C335 0.930 . S
H356 C343 0.931 . S
H357 C344 0.929 . S
H358 C352 0.929 . S
H359 C353 0.930 . S
Mn360 O365 2.095 . S
Mn360 O375 2.162 . S
Mn360 O376 2.297 . S
Mn360 O384 2.385 . S
Mn360 O385 2.209 . S
Mn360 O386 2.094 . S
Mn361 O366 2.121 . S
Mn361 N368 2.257 . S
Mn361 N377 2.282 . S
Mn361 O385 2.215 1_565 S
Mn361 O387 2.117 1_565 S
C362 O384 1.234 . S
C362 O385 1.283 . S
C363 O375 1.281 . S
C363 O376 1.236 . S
C364 O386 1.240 . S
C364 O387 1.264 . S
O365 Mn360 2.095 . S
O365 C374 1.250 . S
O366 Mn361 2.121 . S
O366 C374 1.258 1_565 S
C367 N368 1.326 . S
C367 C371 1.460 . S
C367 H373 0.929 . S
N368 Mn361 2.257 . S
N368 C367 1.326 . S
N368 C372 1.362 . S
C369 C370 1.258 . S
C369 C372 1.431 1_455 S
C369 C389 1.449 . S
C370 C369 1.258 . S
C370 C371 1.477 1_455 S
C370 H390 0.931 . S
C371 C367 1.460 . S
C371 C370 1.477 1_655 S
C371 H391 0.930 . S
C372 N368 1.362 . S
C372 C369 1.431 1_655 S
C372 C382 1.476 1_655 S
H373 C367 0.929 . S
C374 O365 1.250 . S
C374 O366 1.258 1_545 S
O375 Mn360 2.162 . S
O375 C363 1.281 . S
O376 Mn360 2.297 . S
O376 C363 1.236 . S
N377 Mn361 2.282 . S
N377 C378 1.327 1_665 S
N377 C382 1.318 1_655 S
C378 N377 1.327 1_445 S
C378 C379 1.460 . S
C378 H383 0.927 1_455 S
C379 C378 1.460 . S
C379 C380 1.291 1_545 S
C379 H392 0.931 . S
C380 C379 1.291 1_565 S
C380 C381 1.373 . S
C380 H393 0.929 . S
C381 C380 1.373 . S
C381 C382 1.396 . S
C381 C388 1.403 . S
C382 C372 1.476 1_455 S
C382 N377 1.318 1_455 S
C382 C381 1.396 . S
H383 C378 0.927 1_655 S
O384 Mn360 2.385 . S
O384 C362 1.234 . S
O385 Mn360 2.209 . S
O385 Mn361 2.215 1_545 S
O385 C362 1.283 . S
O386 Mn360 2.094 . S
O386 C364 1.240 . S
O387 Mn361 2.117 1_545 S
O387 C364 1.264 . S
C388 C381 1.403 . S
C388 C389 1.399 . S
C388 H394 0.929 . S
C389 C369 1.449 . S
C389 C388 1.399 . S
C389 H395 0.930 . S
H390 C370 0.931 . S
H391 C371 0.930 . S
H392 C379 0.931 . S
H393 C380 0.929 . S
H394 C388 0.929 . S
H395 C389 0.930 . S
Mn396 O401 2.095 . S
Mn396 O411 2.162 . S
Mn396 O412 2.297 . S
Mn396 O420 2.385 . S
Mn396 O421 2.209 . S
Mn396 O422 2.094 . S
Mn397 O402 2.121 . S
Mn397 N404 2.257 . S
Mn397 N413 2.282 . S
Mn397 O421 2.215 . S
Mn397 O423 2.117 . S
C398 O420 1.234 . S
C398 O421 1.283 . S
C399 O411 1.281 . S
C399 O412 1.236 . S
C400 O422 1.240 . S
C400 O423 1.264 . S
O401 Mn396 2.095 . S
O401 C410 1.250 . S
O402 Mn397 2.121 . S
O402 C410 1.258 . S
C403 N404 1.326 . S
C403 C407 1.460 . S
C403 H409 0.929 . S
N404 Mn397 2.257 . S
N404 C403 1.326 . S
N404 C408 1.362 . S
C405 C406 1.258 . S
C405 C408 1.431 . S
C405 C425 1.449 . S
C406 C405 1.258 . S
C406 C407 1.477 . S
C406 H426 0.931 . S
C407 C403 1.460 . S
C407 C406 1.477 . S
C407 H427 0.930 . S
C408 N404 1.362 . S
C408 C405 1.431 . S
C408 C418 1.476 . S
H409 C403 0.929 . S
C410 O401 1.250 . S
C410 O402 1.258 . S
O411 Mn396 2.162 . S
O411 C399 1.281 . S
O412 Mn396 2.297 . S
O412 C399 1.236 . S
N413 Mn397 2.282 . S
N413 C414 1.328 . S
N413 C418 1.318 . S
C414 N413 1.328 . S
C414 C415 1.457 . S
C414 H419 0.929 . S
C415 C414 1.457 . S
C415 C416 1.291 . S
C415 H428 0.931 . S
C416 C415 1.291 . S
C416 C417 1.373 . S
C416 H429 0.929 . S
C417 C416 1.373 . S
C417 C418 1.396 . S
C417 C424 1.403 . S
C418 C408 1.476 . S
C418 N413 1.318 . S
C418 C417 1.396 . S
H419 C414 0.929 . S
O420 Mn396 2.385 . S
O420 C398 1.234 . S
O421 Mn396 2.209 . S
O421 Mn397 2.215 . S
O421 C398 1.283 . S
O422 Mn396 2.094 . S
O422 C400 1.240 . S
O423 Mn397 2.117 . S
O423 C400 1.264 . S
C424 C417 1.403 . S
C424 C425 1.399 . S
C424 H430 0.929 . S
C425 C405 1.449 . S
C425 C424 1.399 . S
C425 H431 0.930 . S
H426 C406 0.931 . S
H427 C407 0.930 . S
H428 C415 0.931 . S
H429 C416 0.929 . S
H430 C424 0.929 . S
H431 C425 0.930 . S
Mn432 O437 2.095 . S
Mn432 O447 2.162 . S
Mn432 O448 2.297 . S
Mn432 O456 2.385 . S
Mn432 O457 2.209 . S
Mn432 O458 2.094 . S
Mn433 O438 2.121 . S
Mn433 N440 2.257 . S
Mn433 N449 2.282 . S
Mn433 O457 2.215 1_565 S
Mn433 O459 2.117 1_565 S
C434 O456 1.234 . S
C434 O457 1.283 . S
C435 O447 1.281 . S
C435 O448 1.236 . S
C436 O458 1.240 . S
C436 O459 1.264 . S
O437 Mn432 2.095 . S
O437 C446 1.250 . S
O438 Mn433 2.121 . S
O438 C446 1.258 1_565 S
C439 N440 1.326 . S
C439 C443 1.460 . S
C439 H445 0.929 . S
N440 Mn433 2.257 . S
N440 C439 1.326 . S
N440 C444 1.362 . S
C441 C442 1.258 . S
C441 C444 1.431 . S
C441 C461 1.449 . S
C442 C441 1.258 . S
C442 C443 1.477 . S
C442 H462 0.931 . S
C443 C439 1.460 . S
C443 C442 1.477 . S
C443 H463 0.930 . S
C444 N440 1.362 . S
C444 C441 1.431 . S
C444 C454 1.476 . S
H445 C439 0.929 . S
C446 O437 1.250 . S
C446 O438 1.258 1_545 S
O447 Mn432 2.162 . S
O447 C435 1.281 . S
O448 Mn432 2.297 . S
O448 C435 1.236 . S
N449 Mn433 2.282 . S
N449 C450 1.328 1_565 S
N449 C454 1.318 . S
C450 N449 1.328 1_545 S
C450 C451 1.457 . S
C450 H455 0.929 . S
C451 C450 1.457 . S
C451 C452 1.291 1_545 S
C451 H464 0.931 . S
C452 C451 1.291 1_565 S
C452 C453 1.373 . S
C452 H465 0.929 . S
C453 C452 1.373 . S
C453 C454 1.396 . S
C453 C460 1.403 . S
C454 C444 1.476 . S
C454 N449 1.318 . S
C454 C453 1.396 . S
H455 C450 0.929 . S
O456 Mn432 2.385 . S
O456 C434 1.234 . S
O457 Mn432 2.209 . S
O457 Mn433 2.215 1_545 S
O457 C434 1.283 . S
O458 Mn432 2.094 . S
O458 C436 1.240 . S
O459 Mn433 2.117 1_545 S
O459 C436 1.264 . S
C460 C453 1.403 . S
C460 C461 1.399 . S
C460 H466 0.929 . S
C461 C441 1.449 . S
C461 C460 1.399 . S
C461 H467 0.930 . S
H462 C442 0.931 . S
H463 C443 0.930 . S
H464 C451 0.931 . S
H465 C452 0.929 . S
H466 C460 0.929 . S
H467 C461 0.930 . S
Mn468 O473 2.095 . S
Mn468 O483 2.162 . S
Mn468 O484 2.297 . S
Mn468 O492 2.385 . S
Mn468 O493 2.209 . S
Mn468 O494 2.094 . S
Mn469 O474 2.121 . S
Mn469 N476 2.257 . S
Mn469 N485 2.282 . S
Mn469 O493 2.215 . S
Mn469 O495 2.117 . S
C470 O492 1.234 . S
C470 O493 1.283 . S
C471 O483 1.281 . S
C471 O484 1.236 . S
C472 O494 1.240 . S
C472 O495 1.264 . S
O473 Mn468 2.095 . S
O473 C482 1.250 . S
O474 Mn469 2.121 . S
O474 C482 1.258 . S
C475 N476 1.326 . S
C475 C479 1.460 . S
C475 H481 0.929 . S
N476 Mn469 2.257 . S
N476 C475 1.326 . S
N476 C480 1.362 . S
C477 C478 1.258 . S
C477 C480 1.431 . S
C477 C497 1.449 . S
C478 C477 1.258 . S
C478 C479 1.477 . S
C478 H498 0.931 . S
C479 C475 1.460 . S
C479 C478 1.477 . S
C479 H499 0.930 . S
C480 N476 1.362 . S
C480 C477 1.431 . S
C480 C490 1.476 . S
H481 C475 0.929 . S
C482 O473 1.250 . S
C482 O474 1.258 . S
O483 Mn468 2.162 . S
O483 C471 1.281 . S
O484 Mn468 2.297 . S
O484 C471 1.236 . S
N485 Mn469 2.282 . S
N485 C486 1.328 . S
N485 C490 1.318 . S
C486 N485 1.328 . S
C486 C487 1.457 . S
C486 H491 0.929 . S
C487 C486 1.457 . S
C487 C488 1.291 . S
C487 H500 0.931 . S
C488 C487 1.291 . S
C488 C489 1.373 . S
C488 H501 0.929 . S
C489 C488 1.373 . S
C489 C490 1.396 . S
C489 C496 1.403 . S
C490 C480 1.476 . S
C490 N485 1.318 . S
C490 C489 1.396 . S
H491 C486 0.929 . S
O492 Mn468 2.385 . S
O492 C470 1.234 . S
O493 Mn468 2.209 . S
O493 Mn469 2.215 . S
O493 C470 1.283 . S
O494 Mn468 2.094 . S
O494 C472 1.240 . S
O495 Mn469 2.117 . S
O495 C472 1.264 . S
C496 C489 1.403 . S
C496 C497 1.399 . S
C496 H502 0.929 . S
C497 C477 1.449 . S
C497 C496 1.399 . S
C497 H503 0.930 . S
H498 C478 0.931 . S
H499 C479 0.930 . S
H500 C487 0.931 . S
H501 C488 0.929 . S
H502 C496 0.929 . S
H503 C497 0.930 . S
Mn504 O509 2.095 . S
Mn504 O519 2.162 . S
Mn504 O520 2.297 . S
Mn504 O528 2.385 . S
Mn504 O529 2.209 . S
Mn504 O530 2.094 . S
Mn505 O510 2.121 . S
Mn505 N512 2.257 . S
Mn505 N521 2.282 . S
Mn505 O529 2.215 1_545 S
Mn505 O531 2.117 1_545 S
C506 O528 1.234 . S
C506 O529 1.283 . S
C507 O519 1.281 . S
C507 O520 1.236 . S
C508 O530 1.240 . S
C508 O531 1.264 . S
O509 Mn504 2.095 . S
O509 C518 1.250 . S
O510 Mn505 2.121 . S
O510 C518 1.258 1_545 S
C511 N512 1.326 . S
C511 C515 1.460 . S
C511 H517 0.929 . S
N512 Mn505 2.257 . S
N512 C511 1.326 . S
N512 C516 1.362 . S
C513 C514 1.258 . S
C513 C516 1.431 1_455 S
C513 C533 1.449 . S
C514 C513 1.258 . S
C514 C515 1.477 1_455 S
C514 H534 0.931 . S
C515 C511 1.460 . S
C515 C514 1.477 1_655 S
C515 H535 0.930 . S
C516 N512 1.362 . S
C516 C513 1.431 1_655 S
C516 C526 1.476 1_655 S
H517 C511 0.929 . S
C518 O509 1.250 . S
C518 O510 1.258 1_565 S
O519 Mn504 2.162 . S
O519 C507 1.281 . S
O520 Mn504 2.297 . S
O520 C507 1.236 . S
N521 Mn505 2.282 . S
N521 C522 1.327 1_645 S
N521 C526 1.318 1_655 S
C522 N521 1.327 1_465 S
C522 C523 1.460 . S
C522 H527 0.927 1_455 S
C523 C522 1.460 . S
C523 C524 1.291 1_565 S
C523 H536 0.931 . S
C524 C523 1.291 1_545 S
C524 C525 1.373 . S
C524 H537 0.929 . S
C525 C524 1.373 . S
C525 C526 1.396 . S
C525 C532 1.403 . S
C526 C516 1.476 1_455 S
C526 N521 1.318 1_455 S
C526 C525 1.396 . S
H527 C522 0.927 1_655 S
O528 Mn504 2.385 . S
O528 C506 1.234 . S
O529 Mn504 2.209 . S
O529 Mn505 2.215 1_565 S
O529 C506 1.283 . S
O530 Mn504 2.094 . S
O530 C508 1.240 . S
O531 Mn505 2.117 1_565 S
O531 C508 1.264 . S
C532 C525 1.403 . S
C532 C533 1.399 . S
C532 H538 0.929 . S
C533 C513 1.449 . S
C533 C532 1.399 . S
C533 H539 0.930 . S
H534 C514 0.931 . S
H535 C515 0.930 . S
H536 C523 0.931 . S
H537 C524 0.929 . S
H538 C532 0.929 . S
H539 C533 0.930 . S
Mn540 O545 2.095 . S
Mn540 O555 2.162 . S
Mn540 O556 2.297 . S
Mn540 O564 2.385 . S
Mn540 O565 2.209 . S
Mn540 O566 2.094 . S
Mn541 O546 2.121 . S
Mn541 N548 2.257 . S
Mn541 N557 2.282 . S
Mn541 O565 2.215 . S
Mn541 O567 2.117 . S
C542 O564 1.234 . S
C542 O565 1.283 . S
C543 O555 1.281 . S
C543 O556 1.236 . S
C544 O566 1.240 . S
C544 O567 1.264 . S
O545 Mn540 2.095 . S
O545 C554 1.250 . S
O546 Mn541 2.121 . S
O546 C554 1.258 . S
C547 N548 1.326 . S
C547 C551 1.460 . S
C547 H553 0.929 . S
N548 Mn541 2.257 . S
N548 C547 1.326 . S
N548 C552 1.362 . S
C549 C550 1.258 . S
C549 C552 1.431 . S
C549 C569 1.449 . S
C550 C549 1.258 . S
C550 C551 1.477 . S
C550 H570 0.931 . S
C551 C547 1.460 . S
C551 C550 1.477 . S
C551 H571 0.930 . S
C552 N548 1.362 . S
C552 C549 1.431 . S
C552 C562 1.476 . S
H553 C547 0.929 . S
C554 O545 1.250 . S
C554 O546 1.258 . S
O555 Mn540 2.162 . S
O555 C543 1.281 . S
O556 Mn540 2.297 . S
O556 C543 1.236 . S
N557 Mn541 2.282 . S
N557 C558 1.328 . S
N557 C562 1.318 . S
C558 N557 1.328 . S
C558 C559 1.457 . S
C558 H563 0.929 . S
C559 C558 1.457 . S
C559 C560 1.291 . S
C559 H572 0.931 . S
C560 C559 1.291 . S
C560 C561 1.373 . S
C560 H573 0.929 . S
C561 C560 1.373 . S
C561 C562 1.396 . S
C561 C568 1.403 . S
C562 C552 1.476 . S
C562 N557 1.318 . S
C562 C561 1.396 . S
H563 C558 0.929 . S
O564 Mn540 2.385 . S
O564 C542 1.234 . S
O565 Mn540 2.209 . S
O565 Mn541 2.215 . S
O565 C542 1.283 . S
O566 Mn540 2.094 . S
O566 C544 1.240 . S
O567 Mn541 2.117 . S
O567 C544 1.264 . S
C568 C561 1.403 . S
C568 C569 1.399 . S
C568 H574 0.929 . S
C569 C549 1.449 . S
C569 C568 1.399 . S
C569 H575 0.930 . S
H570 C550 0.931 . S
H571 C551 0.930 . S
H572 C559 0.931 . S
H573 C560 0.929 . S
H574 C568 0.929 . S
H575 C569 0.930 . S
Mn576 O581 2.095 . S
Mn576 O591 2.162 . S
Mn576 O592 2.297 . S
Mn576 O600 2.385 . S
Mn576 O601 2.209 . S
Mn576 O602 2.094 . S
Mn577 O582 2.121 . S
Mn577 N584 2.257 . S
Mn577 N593 2.282 . S
Mn577 O601 2.215 . S
Mn577 O603 2.117 . S
C578 O600 1.234 . S
C578 O601 1.283 . S
C579 O591 1.281 . S
C579 O592 1.236 . S
C580 O602 1.240 . S
C580 O603 1.264 . S
O581 Mn576 2.095 . S
O581 C590 1.250 . S
O582 Mn577 2.121 . S
O582 C590 1.258 . S
C583 N584 1.326 . S
C583 C587 1.460 . S
C583 H589 0.929 . S
N584 Mn577 2.257 . S
N584 C583 1.326 . S
N584 C588 1.362 . S
C585 C586 1.258 . S
C585 C588 1.431 1_455 S
C585 C605 1.449 . S
C586 C585 1.258 . S
C586 C587 1.477 1_455 S
C586 H606 0.931 . S
C587 C583 1.460 . S
C587 C586 1.477 1_655 S
C587 H607 0.930 . S
C588 N584 1.362 . S
C588 C585 1.431 1_655 S
C588 C598 1.476 1_655 S
H589 C583 0.929 . S
C590 O581 1.250 . S
C590 O582 1.258 . S
O591 Mn576 2.162 . S
O591 C579 1.281 . S
O592 Mn576 2.297 . S
O592 C579 1.236 . S
N593 Mn577 2.282 . S
N593 C594 1.327 1_655 S
N593 C598 1.318 1_655 S
C594 N593 1.327 1_455 S
C594 C595 1.460 . S
C594 H599 0.927 1_455 S
C595 C594 1.460 . S
C595 C596 1.291 . S
C595 H608 0.931 . S
C596 C595 1.291 . S
C596 C597 1.373 . S
C596 H609 0.929 . S
C597 C596 1.373 . S
C597 C598 1.396 . S
C597 C604 1.403 . S
C598 C588 1.476 1_455 S
C598 N593 1.318 1_455 S
C598 C597 1.396 . S
H599 C594 0.927 1_655 S
O600 Mn576 2.385 . S
O600 C578 1.234 . S
O601 Mn576 2.209 . S
O601 Mn577 2.215 . S
O601 C578 1.283 . S
O602 Mn576 2.094 . S
O602 C580 1.240 . S
O603 Mn577 2.117 . S
O603 C580 1.264 . S
C604 C597 1.403 . S
C604 C605 1.399 . S
C604 H610 0.929 . S
C605 C585 1.449 . S
C605 C604 1.399 . S
C605 H611 0.930 . S
H606 C586 0.931 . S
H607 C587 0.930 . S
H608 C595 0.931 . S
H609 C596 0.929 . S
H610 C604 0.929 . S
H611 C605 0.930 . S
Mn612 O617 2.095 . S
Mn612 O627 2.162 . S
Mn612 O628 2.297 . S
Mn612 O636 2.385 . S
Mn612 O637 2.209 . S
Mn612 O638 2.094 . S
Mn613 O618 2.121 . S
Mn613 N620 2.257 . S
Mn613 N629 2.282 . S
Mn613 O637 2.215 . S
Mn613 O639 2.117 . S
C614 O636 1.234 . S
C614 O637 1.283 . S
C615 O627 1.281 . S
C615 O628 1.236 . S
C616 O638 1.240 . S
C616 O639 1.264 . S
O617 Mn612 2.095 . S
O617 C626 1.250 . S
O618 Mn613 2.121 . S
O618 C626 1.258 . S
C619 N620 1.326 . S
C619 C623 1.460 . S
C619 H625 0.929 . S
N620 Mn613 2.257 . S
N620 C619 1.326 . S
N620 C624 1.362 . S
C621 C622 1.258 . S
C621 C624 1.431 . S
C621 C641 1.449 . S
C622 C621 1.258 . S
C622 C623 1.477 . S
C622 H642 0.931 . S
C623 C619 1.460 . S
C623 C622 1.477 . S
C623 H643 0.930 . S
C624 N620 1.362 . S
C624 C621 1.431 . S
C624 C634 1.476 . S
H625 C619 0.929 . S
C626 O617 1.250 . S
C626 O618 1.258 . S
O627 Mn612 2.162 . S
O627 C615 1.281 . S
O628 Mn612 2.297 . S
O628 C615 1.236 . S
N629 Mn613 2.282 . S
N629 C630 1.328 . S
N629 C634 1.318 . S
C630 N629 1.328 . S
C630 C631 1.457 . S
C630 H635 0.929 . S
C631 C630 1.457 . S
C631 C632 1.291 . S
C631 H644 0.931 . S
C632 C631 1.291 . S
C632 C633 1.373 . S
C632 H645 0.929 . S
C633 C632 1.373 . S
C633 C634 1.396 . S
C633 C640 1.403 . S
C634 C624 1.476 . S
C634 N629 1.318 . S
C634 C633 1.396 . S
H635 C630 0.929 . S
O636 Mn612 2.385 . S
O636 C614 1.234 . S
O637 Mn612 2.209 . S
O637 Mn613 2.215 . S
O637 C614 1.283 . S
O638 Mn612 2.094 . S
O638 C616 1.240 . S
O639 Mn613 2.117 . S
O639 C616 1.264 . S
C640 C633 1.403 . S
C640 C641 1.399 . S
C640 H646 0.929 . S
C641 C621 1.449 . S
C641 C640 1.399 . S
C641 H647 0.930 . S
H642 C622 0.931 . S
H643 C623 0.930 . S
H644 C631 0.931 . S
H645 C632 0.929 . S
H646 C640 0.929 . S
H647 C641 0.930 . S
Mn648 O653 2.095 . S
Mn648 O663 2.162 . S
Mn648 O664 2.297 . S
Mn648 O672 2.385 . S
Mn648 O673 2.209 . S
Mn648 O674 2.094 . S
Mn649 O654 2.121 . S
Mn649 N656 2.257 . S
Mn649 N665 2.282 . S
Mn649 O673 2.215 . S
Mn649 O675 2.117 . S
C650 O672 1.234 . S
C650 O673 1.283 . S
C651 O663 1.281 . S
C651 O664 1.236 . S
C652 O674 1.240 . S
C652 O675 1.264 . S
O653 Mn648 2.095 . S
O653 C662 1.250 . S
O654 Mn649 2.121 . S
O654 C662 1.258 . S
C655 N656 1.326 . S
C655 C659 1.460 . S
C655 H661 0.929 . S
N656 Mn649 2.257 . S
N656 C655 1.326 . S
N656 C660 1.362 . S
C657 C658 1.258 . S
C657 C660 1.431 . S
C657 C677 1.449 . S
C658 C657 1.258 . S
C658 C659 1.477 . S
C658 H678 0.931 . S
C659 C655 1.460 . S
C659 C658 1.477 . S
C659 H679 0.930 . S
C660 N656 1.362 . S
C660 C657 1.431 . S
C660 C670 1.476 . S
H661 C655 0.929 . S
C662 O653 1.250 . S
C662 O654 1.258 . S
O663 Mn648 2.162 . S
O663 C651 1.281 . S
O664 Mn648 2.297 . S
O664 C651 1.236 . S
N665 Mn649 2.282 . S
N665 C666 1.328 . S
N665 C670 1.318 . S
C666 N665 1.328 . S
C666 C667 1.457 . S
C666 H671 0.929 . S
C667 C666 1.457 . S
C667 C668 1.291 . S
C667 H680 0.931 . S
C668 C667 1.291 . S
C668 C669 1.373 . S
C668 H681 0.929 . S
C669 C668 1.373 . S
C669 C670 1.396 . S
C669 C676 1.403 . S
C670 C660 1.476 . S
C670 N665 1.318 . S
C670 C669 1.396 . S
H671 C666 0.929 . S
O672 Mn648 2.385 . S
O672 C650 1.234 . S
O673 Mn648 2.209 . S
O673 Mn649 2.215 . S
O673 C650 1.283 . S
O674 Mn648 2.094 . S
O674 C652 1.240 . S
O675 Mn649 2.117 . S
O675 C652 1.264 . S
C676 C669 1.403 . S
C676 C677 1.399 . S
C676 H682 0.929 . S
C677 C657 1.449 . S
C677 C676 1.399 . S
C677 H683 0.930 . S
H678 C658 0.931 . S
H679 C659 0.930 . S
H680 C667 0.931 . S
H681 C668 0.929 . S
H682 C676 0.929 . S
H683 C677 0.930 . S
Mn684 O689 2.095 . S
Mn684 O699 2.162 . S
Mn684 O700 2.297 . S
Mn684 O708 2.385 . S
Mn684 O709 2.209 . S
Mn684 O710 2.094 . S
Mn685 O690 2.121 . S
Mn685 N692 2.257 . S
Mn685 N701 2.282 . S
Mn685 O709 2.215 . S
Mn685 O711 2.117 . S
C686 O708 1.234 . S
C686 O709 1.283 . S
C687 O699 1.281 . S
C687 O700 1.236 . S
C688 O710 1.240 . S
C688 O711 1.264 . S
O689 Mn684 2.095 . S
O689 C698 1.250 . S
O690 Mn685 2.121 . S
O690 C698 1.258 . S
C691 N692 1.326 . S
C691 C695 1.460 . S
C691 H697 0.929 . S
N692 Mn685 2.257 . S
N692 C691 1.326 . S
N692 C696 1.362 . S
C693 C694 1.258 . S
C693 C696 1.431 . S
C693 C713 1.449 . S
C694 C693 1.258 . S
C694 C695 1.477 . S
C694 H714 0.931 . S
C695 C691 1.460 . S
C695 C694 1.477 . S
C695 H715 0.930 . S
C696 N692 1.362 . S
C696 C693 1.431 . S
C696 C706 1.476 . S
H697 C691 0.929 . S
C698 O689 1.250 . S
C698 O690 1.258 . S
O699 Mn684 2.162 . S
O699 C687 1.281 . S
O700 Mn684 2.297 . S
O700 C687 1.236 . S
N701 Mn685 2.282 . S
N701 C702 1.328 . S
N701 C706 1.318 . S
C702 N701 1.328 . S
C702 C703 1.457 . S
C702 H707 0.929 . S
C703 C702 1.457 . S
C703 C704 1.291 . S
C703 H716 0.931 . S
C704 C703 1.291 . S
C704 C705 1.373 . S
C704 H717 0.929 . S
C705 C704 1.373 . S
C705 C706 1.396 . S
C705 C712 1.403 . S
C706 C696 1.476 . S
C706 N701 1.318 . S
C706 C705 1.396 . S
H707 C702 0.929 . S
O708 Mn684 2.385 . S
O708 C686 1.234 . S
O709 Mn684 2.209 . S
O709 Mn685 2.215 . S
O709 C686 1.283 . S
O710 Mn684 2.094 . S
O710 C688 1.240 . S
O711 Mn685 2.117 . S
O711 C688 1.264 . S
C712 C705 1.403 . S
C712 C713 1.399 . S
C712 H718 0.929 . S
C713 C693 1.449 . S
C713 C712 1.399 . S
C713 H719 0.930 . S
H714 C694 0.931 . S
H715 C695 0.930 . S
H716 C703 0.931 . S
H717 C704 0.929 . S
H718 C712 0.929 . S
H719 C713 0.930 . S
Mn720 O725 2.095 . S
Mn720 O735 2.162 . S
Mn720 O736 2.297 . S
Mn720 O744 2.385 . S
Mn720 O745 2.209 . S
Mn720 O746 2.094 . S
Mn721 O726 2.121 . S
Mn721 N728 2.257 . S
Mn721 N737 2.282 . S
Mn721 O745 2.215 . S
Mn721 O747 2.117 . S
C722 O744 1.234 . S
C722 O745 1.283 . S
C723 O735 1.281 . S
C723 O736 1.236 . S
C724 O746 1.240 . S
C724 O747 1.264 . S
O725 Mn720 2.095 . S
O725 C734 1.250 . S
O726 Mn721 2.121 . S
O726 C734 1.258 . S
C727 N728 1.326 . S
C727 C731 1.460 . S
C727 H733 0.929 . S
N728 Mn721 2.257 . S
N728 C727 1.326 . S
N728 C732 1.362 . S
C729 C730 1.258 . S
C729 C732 1.431 1_455 S
C729 C749 1.449 . S
C730 C729 1.258 . S
C730 C731 1.477 1_455 S
C730 H750 0.931 . S
C731 C727 1.460 . S
C731 C730 1.477 1_655 S
C731 H751 0.930 . S
C732 N728 1.362 . S
C732 C729 1.431 1_655 S
C732 C742 1.476 1_655 S
H733 C727 0.929 . S
C734 O725 1.250 . S
C734 O726 1.258 . S
O735 Mn720 2.162 . S
O735 C723 1.281 . S
O736 Mn720 2.297 . S
O736 C723 1.236 . S
N737 Mn721 2.282 . S
N737 C738 1.327 1_655 S
N737 C742 1.318 1_655 S
C738 N737 1.327 1_455 S
C738 C739 1.460 . S
C738 H743 0.927 1_455 S
C739 C738 1.460 . S
C739 C740 1.291 . S
C739 H752 0.931 . S
C740 C739 1.291 . S
C740 C741 1.373 . S
C740 H753 0.929 . S
C741 C740 1.373 . S
C741 C742 1.396 . S
C741 C748 1.403 . S
C742 C732 1.476 1_455 S
C742 N737 1.318 1_455 S
C742 C741 1.396 . S
H743 C738 0.927 1_655 S
O744 Mn720 2.385 . S
O744 C722 1.234 . S
O745 Mn720 2.209 . S
O745 Mn721 2.215 . S
O745 C722 1.283 . S
O746 Mn720 2.094 . S
O746 C724 1.240 . S
O747 Mn721 2.117 . S
O747 C724 1.264 . S
C748 C741 1.403 . S
C748 C749 1.399 . S
C748 H754 0.929 . S
C749 C729 1.449 . S
C749 C748 1.399 . S
C749 H755 0.930 . S
H750 C730 0.931 . S
H751 C731 0.930 . S
H752 C739 0.931 . S
H753 C740 0.929 . S
H754 C748 0.929 . S
H755 C749 0.930 . S
Mn756 O761 2.095 . S
Mn756 O771 2.162 . S
Mn756 O772 2.297 . S
Mn756 O780 2.385 . S
Mn756 O781 2.209 . S
Mn756 O782 2.094 . S
Mn757 O762 2.121 . S
Mn757 N764 2.257 . S
Mn757 N773 2.282 . S
Mn757 O781 2.215 . S
Mn757 O783 2.117 . S
C758 O780 1.234 . S
C758 O781 1.283 . S
C759 O771 1.281 . S
C759 O772 1.236 . S
C760 O782 1.240 . S
C760 O783 1.264 . S
O761 Mn756 2.095 . S
O761 C770 1.250 . S
O762 Mn757 2.121 . S
O762 C770 1.258 . S
C763 N764 1.326 . S
C763 C767 1.460 . S
C763 H769 0.929 . S
N764 Mn757 2.257 . S
N764 C763 1.326 . S
N764 C768 1.362 . S
C765 C766 1.258 . S
C765 C768 1.431 . S
C765 C785 1.449 . S
C766 C765 1.258 . S
C766 C767 1.477 . S
C766 H786 0.931 . S
C767 C763 1.460 . S
C767 C766 1.477 . S
C767 H787 0.930 . S
C768 N764 1.362 . S
C768 C765 1.431 . S
C768 C778 1.476 . S
H769 C763 0.929 . S
C770 O761 1.250 . S
C770 O762 1.258 . S
O771 Mn756 2.162 . S
O771 C759 1.281 . S
O772 Mn756 2.297 . S
O772 C759 1.236 . S
N773 Mn757 2.282 . S
N773 C774 1.328 . S
N773 C778 1.318 . S
C774 N773 1.328 . S
C774 C775 1.457 . S
C774 H779 0.929 . S
C775 C774 1.457 . S
C775 C776 1.291 . S
C775 H788 0.931 . S
C776 C775 1.291 . S
C776 C777 1.373 . S
C776 H789 0.929 . S
C777 C776 1.373 . S
C777 C778 1.396 . S
C777 C784 1.403 . S
C778 C768 1.476 . S
C778 N773 1.318 . S
C778 C777 1.396 . S
H779 C774 0.929 . S
O780 Mn756 2.385 . S
O780 C758 1.234 . S
O781 Mn756 2.209 . S
O781 Mn757 2.215 . S
O781 C758 1.283 . S
O782 Mn756 2.094 . S
O782 C760 1.240 . S
O783 Mn757 2.117 . S
O783 C760 1.264 . S
C784 C777 1.403 . S
C784 C785 1.399 . S
C784 H790 0.929 . S
C785 C765 1.449 . S
C785 C784 1.399 . S
C785 H791 0.930 . S
H786 C766 0.931 . S
H787 C767 0.930 . S
H788 C775 0.931 . S
H789 C776 0.929 . S
H790 C784 0.929 . S
H791 C785 0.930 . S
Mn792 O797 2.095 . S
Mn792 O807 2.162 . S
Mn792 O808 2.297 . S
Mn792 O816 2.385 . S
Mn792 O817 2.209 . S
Mn792 O818 2.094 . S
Mn793 O798 2.121 . S
Mn793 N800 2.257 . S
Mn793 N809 2.282 . S
Mn793 O817 2.215 . S
Mn793 O819 2.117 . S
C794 O816 1.234 . S
C794 O817 1.283 . S
C795 O807 1.281 . S
C795 O808 1.236 . S
C796 O818 1.240 . S
C796 O819 1.264 . S
O797 Mn792 2.095 . S
O797 C806 1.250 . S
O798 Mn793 2.121 . S
O798 C806 1.258 . S
C799 N800 1.326 . S
C799 C803 1.460 . S
C799 H805 0.929 . S
N800 Mn793 2.257 . S
N800 C799 1.326 . S
N800 C804 1.362 . S
C801 C802 1.258 . S
C801 C804 1.431 . S
C801 C821 1.449 . S
C802 C801 1.258 . S
C802 C803 1.477 . S
C802 H822 0.931 . S
C803 C799 1.460 . S
C803 C802 1.477 . S
C803 H823 0.930 . S
C804 N800 1.362 . S
C804 C801 1.431 . S
C804 C814 1.476 . S
H805 C799 0.929 . S
C806 O797 1.250 . S
C806 O798 1.258 . S
O807 Mn792 2.162 . S
O807 C795 1.281 . S
O808 Mn792 2.297 . S
O808 C795 1.236 . S
N809 Mn793 2.282 . S
N809 C810 1.328 . S
N809 C814 1.318 . S
C810 N809 1.328 . S
C810 C811 1.457 . S
C810 H815 0.929 . S
C811 C810 1.457 . S
C811 C812 1.291 . S
C811 H824 0.931 . S
C812 C811 1.291 . S
C812 C813 1.373 . S
C812 H825 0.929 . S
C813 C812 1.373 . S
C813 C814 1.396 . S
C813 C820 1.403 . S
C814 C804 1.476 . S
C814 N809 1.318 . S
C814 C813 1.396 . S
H815 C810 0.929 . S
O816 Mn792 2.385 . S
O816 C794 1.234 . S
O817 Mn792 2.209 . S
O817 Mn793 2.215 . S
O817 C794 1.283 . S
O818 Mn792 2.094 . S
O818 C796 1.240 . S
O819 Mn793 2.117 . S
O819 C796 1.264 . S
C820 C813 1.403 . S
C820 C821 1.399 . S
C820 H826 0.929 . S
C821 C801 1.449 . S
C821 C820 1.399 . S
C821 H827 0.930 . S
H822 C802 0.931 . S
H823 C803 0.930 . S
H824 C811 0.931 . S
H825 C812 0.929 . S
H826 C820 0.929 . S
H827 C821 0.930 . S
Mn828 O833 2.095 . S
Mn828 O843 2.162 . S
Mn828 O844 2.297 . S
Mn828 O852 2.385 . S
Mn828 O853 2.209 . S
Mn828 O854 2.094 . S
Mn829 O834 2.121 . S
Mn829 N836 2.257 . S
Mn829 N845 2.282 . S
Mn829 O853 2.215 . S
Mn829 O855 2.117 . S
C830 O852 1.234 . S
C830 O853 1.283 . S
C831 O843 1.281 . S
C831 O844 1.236 . S
C832 O854 1.240 . S
C832 O855 1.264 . S
O833 Mn828 2.095 . S
O833 C842 1.250 . S
O834 Mn829 2.121 . S
O834 C842 1.258 . S
C835 N836 1.326 . S
C835 C839 1.460 . S
C835 H841 0.929 . S
N836 Mn829 2.257 . S
N836 C835 1.326 . S
N836 C840 1.362 . S
C837 C838 1.258 . S
C837 C840 1.431 . S
C837 C857 1.449 . S
C838 C837 1.258 . S
C838 C839 1.477 . S
C838 H858 0.931 . S
C839 C835 1.460 . S
C839 C838 1.477 . S
C839 H859 0.930 . S
C840 N836 1.362 . S
C840 C837 1.431 . S
C840 C850 1.476 . S
H841 C835 0.929 . S
C842 O833 1.250 . S
C842 O834 1.258 . S
O843 Mn828 2.162 . S
O843 C831 1.281 . S
O844 Mn828 2.297 . S
O844 C831 1.236 . S
N845 Mn829 2.282 . S
N845 C846 1.328 . S
N845 C850 1.318 . S
C846 N845 1.328 . S
C846 C847 1.457 . S
C846 H851 0.929 . S
C847 C846 1.457 . S
C847 C848 1.291 . S
C847 H860 0.931 . S
C848 C847 1.291 . S
C848 C849 1.373 . S
C848 H861 0.929 . S
C849 C848 1.373 . S
C849 C850 1.396 . S
C849 C856 1.403 . S
C850 C840 1.476 . S
C850 N845 1.318 . S
C850 C849 1.396 . S
H851 C846 0.929 . S
O852 Mn828 2.385 . S
O852 C830 1.234 . S
O853 Mn828 2.209 . S
O853 Mn829 2.215 . S
O853 C830 1.283 . S
O854 Mn828 2.094 . S
O854 C832 1.240 . S
O855 Mn829 2.117 . S
O855 C832 1.264 . S
C856 C849 1.403 . S
C856 C857 1.399 . S
C856 H862 0.929 . S
C857 C837 1.449 . S
C857 C856 1.399 . S
C857 H863 0.930 . S
H858 C838 0.931 . S
H859 C839 0.930 . S
H860 C847 0.931 . S
H861 C848 0.929 . S
H862 C856 0.929 . S
H863 C857 0.930 . S
Mn864 O869 2.095 . S
Mn864 O879 2.162 . S
Mn864 O880 2.297 . S
Mn864 O888 2.385 . S
Mn864 O889 2.209 . S
Mn864 O890 2.094 . S
Mn865 O870 2.121 . S
Mn865 N872 2.257 . S
Mn865 N881 2.282 . S
Mn865 O889 2.215 . S
Mn865 O891 2.117 . S
C866 O888 1.234 . S
C866 O889 1.283 . S
C867 O879 1.281 . S
C867 O880 1.236 . S
C868 O890 1.240 . S
C868 O891 1.264 . S
O869 Mn864 2.095 . S
O869 C878 1.250 . S
O870 Mn865 2.121 . S
O870 C878 1.258 . S
C871 N872 1.326 . S
C871 C875 1.460 . S
C871 H877 0.929 . S
N872 Mn865 2.257 . S
N872 C871 1.326 . S
N872 C876 1.362 . S
C873 C874 1.258 . S
C873 C876 1.431 1_655 S
C873 C893 1.449 . S
C874 C873 1.258 . S
C874 C875 1.477 1_655 S
C874 H894 0.931 . S
C875 C871 1.460 . S
C875 C874 1.477 1_455 S
C875 H895 0.930 . S
C876 N872 1.362 . S
C876 C873 1.431 1_455 S
C876 C886 1.476 1_455 S
H877 C871 0.929 . S
C878 O869 1.250 . S
C878 O870 1.258 . S
O879 Mn864 2.162 . S
O879 C867 1.281 . S
O880 Mn864 2.297 . S
O880 C867 1.236 . S
N881 Mn865 2.282 . S
N881 C882 1.327 1_455 S
N881 C886 1.318 1_455 S
C882 N881 1.327 1_655 S
C882 C883 1.460 . S
C882 H887 0.927 1_655 S
C883 C882 1.460 . S
C883 C884 1.291 . S
C883 H896 0.931 . S
C884 C883 1.291 . S
C884 C885 1.373 . S
C884 H897 0.929 . S
C885 C884 1.373 . S
C885 C886 1.396 . S
C885 C892 1.403 . S
C886 C876 1.476 1_655 S
C886 N881 1.318 1_655 S
C886 C885 1.396 . S
H887 C882 0.927 1_455 S
O888 Mn864 2.385 . S
O888 C866 1.234 . S
O889 Mn864 2.209 . S
O889 Mn865 2.215 . S
O889 C866 1.283 . S
O890 Mn864 2.094 . S
O890 C868 1.240 . S
O891 Mn865 2.117 . S
O891 C868 1.264 . S
C892 C885 1.403 . S
C892 C893 1.399 . S
C892 H898 0.929 . S
C893 C873 1.449 . S
C893 C892 1.399 . S
C893 H899 0.930 . S
H894 C874 0.931 . S
H895 C875 0.930 . S
H896 C883 0.931 . S
H897 C884 0.929 . S
H898 C892 0.929 . S
H899 C893 0.930 . S
Mn900 O905 2.095 . S
Mn900 O915 2.162 . S
Mn900 O916 2.297 . S
Mn900 O924 2.385 . S
Mn900 O925 2.209 . S
Mn900 O926 2.094 . S
Mn901 O906 2.121 . S
Mn901 N908 2.257 . S
Mn901 N917 2.282 . S
Mn901 O925 2.215 . S
Mn901 O927 2.117 . S
C902 O924 1.234 . S
C902 O925 1.283 . S
C903 O915 1.281 . S
C903 O916 1.236 . S
C904 O926 1.240 . S
C904 O927 1.264 . S
O905 Mn900 2.095 . S
O905 C914 1.250 . S
O906 Mn901 2.121 . S
O906 C914 1.258 . S
C907 N908 1.326 . S
C907 C911 1.460 . S
C907 H913 0.929 . S
N908 Mn901 2.257 . S
N908 C907 1.326 . S
N908 C912 1.362 . S
C909 C910 1.258 . S
C909 C912 1.431 . S
C909 C929 1.449 . S
C910 C909 1.258 . S
C910 C911 1.477 . S
C910 H930 0.931 . S
C911 C907 1.460 . S
C911 C910 1.477 . S
C911 H931 0.930 . S
C912 N908 1.362 . S
C912 C909 1.431 . S
C912 C922 1.476 . S
H913 C907 0.929 . S
C914 O905 1.250 . S
C914 O906 1.258 . S
O915 Mn900 2.162 . S
O915 C903 1.281 . S
O916 Mn900 2.297 . S
O916 C903 1.236 . S
N917 Mn901 2.282 . S
N917 C918 1.328 . S
N917 C922 1.318 . S
C918 N917 1.328 . S
C918 C919 1.457 . S
C918 H923 0.929 . S
C919 C918 1.457 . S
C919 C920 1.291 . S
C919 H932 0.931 . S
C920 C919 1.291 . S
C920 C921 1.373 . S
C920 H933 0.929 . S
C921 C920 1.373 . S
C921 C922 1.396 . S
C921 C928 1.403 . S
C922 C912 1.476 . S
C922 N917 1.318 . S
C922 C921 1.396 . S
H923 C918 0.929 . S
O924 Mn900 2.385 . S
O924 C902 1.234 . S
O925 Mn900 2.209 . S
O925 Mn901 2.215 . S
O925 C902 1.283 . S
O926 Mn900 2.094 . S
O926 C904 1.240 . S
O927 Mn901 2.117 . S
O927 C904 1.264 . S
C928 C921 1.403 . S
C928 C929 1.399 . S
C928 H934 0.929 . S
C929 C909 1.449 . S
C929 C928 1.399 . S
C929 H935 0.930 . S
H930 C910 0.931 . S
H931 C911 0.930 . S
H932 C919 0.931 . S
H933 C920 0.929 . S
H934 C928 0.929 . S
H935 C929 0.930 . S
Mn936 O941 2.095 . S
Mn936 O951 2.162 . S
Mn936 O952 2.297 . S
Mn936 O960 2.385 . S
Mn936 O961 2.209 . S
Mn936 O962 2.094 . S
Mn937 O942 2.121 . S
Mn937 N944 2.257 . S
Mn937 N953 2.282 . S
Mn937 O961 2.215 . S
Mn937 O963 2.117 . S
C938 O960 1.234 . S
C938 O961 1.283 . S
C939 O951 1.281 . S
C939 O952 1.236 . S
C940 O962 1.240 . S
C940 O963 1.264 . S
O941 Mn936 2.095 . S
O941 C950 1.250 . S
O942 Mn937 2.121 . S
O942 C950 1.258 . S
C943 N944 1.326 . S
C943 C947 1.460 . S
C943 H949 0.929 . S
N944 Mn937 2.257 . S
N944 C943 1.326 . S
N944 C948 1.362 . S
C945 C946 1.258 . S
C945 C948 1.431 . S
C945 C965 1.449 . S
C946 C945 1.258 . S
C946 C947 1.477 . S
C946 H966 0.931 . S
C947 C943 1.460 . S
C947 C946 1.477 . S
C947 H967 0.930 . S
C948 N944 1.362 . S
C948 C945 1.431 . S
C948 C958 1.476 . S
H949 C943 0.929 . S
C950 O941 1.250 . S
C950 O942 1.258 . S
O951 Mn936 2.162 . S
O951 C939 1.281 . S
O952 Mn936 2.297 . S
O952 C939 1.236 . S
N953 Mn937 2.282 . S
N953 C954 1.328 . S
N953 C958 1.318 . S
C954 N953 1.328 . S
C954 C955 1.457 . S
C954 H959 0.929 . S
C955 C954 1.457 . S
C955 C956 1.291 . S
C955 H968 0.931 . S
C956 C955 1.291 . S
C956 C957 1.373 . S
C956 H969 0.929 . S
C957 C956 1.373 . S
C957 C958 1.396 . S
C957 C964 1.403 . S
C958 C948 1.476 . S
C958 N953 1.318 . S
C958 C957 1.396 . S
H959 C954 0.929 . S
O960 Mn936 2.385 . S
O960 C938 1.234 . S
O961 Mn936 2.209 . S
O961 Mn937 2.215 . S
O961 C938 1.283 . S
O962 Mn936 2.094 . S
O962 C940 1.240 . S
O963 Mn937 2.117 . S
O963 C940 1.264 . S
C964 C957 1.403 . S
C964 C965 1.399 . S
C964 H970 0.929 . S
C965 C945 1.449 . S
C965 C964 1.399 . S
C965 H971 0.930 . S
H966 C946 0.931 . S
H967 C947 0.930 . S
H968 C955 0.931 . S
H969 C956 0.929 . S
H970 C964 0.929 . S
H971 C965 0.930 . S
Mn972 O977 2.095 . S
Mn972 O987 2.162 . S
Mn972 O988 2.297 . S
Mn972 O996 2.385 . S
Mn972 O997 2.209 . S
Mn972 O998 2.094 . S
Mn973 O978 2.121 . S
Mn973 N980 2.257 . S
Mn973 N989 2.282 . S
Mn973 O997 2.215 . S
Mn973 O999 2.117 . S
C974 O996 1.234 . S
C974 O997 1.283 . S
C975 O987 1.281 . S
C975 O988 1.236 . S
C976 O998 1.240 . S
C976 O999 1.264 . S
O977 Mn972 2.095 . S
O977 C986 1.250 . S
O978 Mn973 2.121 . S
O978 C986 1.258 . S
C979 N980 1.326 . S
C979 C983 1.460 . S
C979 H985 0.929 . S
N980 Mn973 2.257 . S
N980 C979 1.326 . S
N980 C984 1.362 . S
C981 C982 1.258 . S
C981 C984 1.431 . S
C981 C1001 1.449 . S
C982 C981 1.258 . S
C982 C983 1.477 . S
C982 H1002 0.931 . S
C983 C979 1.460 . S
C983 C982 1.477 . S
C983 H1003 0.930 . S
C984 N980 1.362 . S
C984 C981 1.431 . S
C984 C994 1.476 . S
H985 C979 0.929 . S
C986 O977 1.250 . S
C986 O978 1.258 . S
O987 Mn972 2.162 . S
O987 C975 1.281 . S
O988 Mn972 2.297 . S
O988 C975 1.236 . S
N989 Mn973 2.282 . S
N989 C990 1.328 . S
N989 C994 1.318 . S
C990 N989 1.328 . S
C990 C991 1.457 . S
C990 H995 0.929 . S
C991 C990 1.457 . S
C991 C992 1.291 . S
C991 H1004 0.931 . S
C992 C991 1.291 . S
C992 C993 1.373 . S
C992 H1005 0.929 . S
C993 C992 1.373 . S
C993 C994 1.396 . S
C993 C1000 1.403 . S
C994 C984 1.476 . S
C994 N989 1.318 . S
C994 C993 1.396 . S
H995 C990 0.929 . S
O996 Mn972 2.385 . S
O996 C974 1.234 . S
O997 Mn972 2.209 . S
O997 Mn973 2.215 . S
O997 C974 1.283 . S
O998 Mn972 2.094 . S
O998 C976 1.240 . S
O999 Mn973 2.117 . S
O999 C976 1.264 . S
C1000 C993 1.403 . S
C1000 C1001 1.399 . S
C1000 H1006 0.929 . S
C1001 C981 1.449 . S
C1001 C1000 1.399 . S
C1001 H1007 0.930 . S
H1002 C982 0.931 . S
H1003 C983 0.930 . S
H1004 C991 0.931 . S
H1005 C992 0.929 . S
H1006 C1000 0.929 . S
H1007 C1001 0.930 . S
Mn1008 O1013 2.095 . S
Mn1008 O1023 2.162 . S
Mn1008 O1024 2.297 . S
Mn1008 O1032 2.385 . S
Mn1008 O1033 2.209 . S
Mn1008 O1034 2.094 . S
Mn1009 O1014 2.121 . S
Mn1009 N1016 2.257 . S
Mn1009 N1025 2.282 . S
Mn1009 O1033 2.215 . S
Mn1009 O1035 2.117 . S
C1010 O1032 1.234 . S
C1010 O1033 1.283 . S
C1011 O1023 1.281 . S
C1011 O1024 1.236 . S
C1012 O1034 1.240 . S
C1012 O1035 1.264 . S
O1013 Mn1008 2.095 . S
O1013 C1022 1.250 . S
O1014 Mn1009 2.121 . S
O1014 C1022 1.258 . S
C1015 N1016 1.326 . S
C1015 C1019 1.460 . S
C1015 H1021 0.929 . S
N1016 Mn1009 2.257 . S
N1016 C1015 1.326 . S
N1016 C1020 1.362 . S
C1017 C1018 1.258 . S
C1017 C1020 1.431 1_655 S
C1017 C1037 1.449 . S
C1018 C1017 1.258 . S
C1018 C1019 1.477 1_655 S
C1018 H1038 0.931 . S
C1019 C1015 1.460 . S
C1019 C1018 1.477 1_455 S
C1019 H1039 0.930 . S
C1020 N1016 1.362 . S
C1020 C1017 1.431 1_455 S
C1020 C1030 1.476 1_455 S
H1021 C1015 0.929 . S
C1022 O1013 1.250 . S
C1022 O1014 1.258 . S
O1023 Mn1008 2.162 . S
O1023 C1011 1.281 . S
O1024 Mn1008 2.297 . S
O1024 C1011 1.236 . S
N1025 Mn1009 2.282 . S
N1025 C1026 1.327 1_455 S
N1025 C1030 1.318 1_455 S
C1026 N1025 1.327 1_655 S
C1026 C1027 1.460 . S
C1026 H1031 0.927 1_655 S
C1027 C1026 1.460 . S
C1027 C1028 1.291 . S
C1027 H1040 0.931 . S
C1028 C1027 1.291 . S
C1028 C1029 1.373 . S
C1028 H1041 0.929 . S
C1029 C1028 1.373 . S
C1029 C1030 1.396 . S
C1029 C1036 1.403 . S
C1030 C1020 1.476 1_655 S
C1030 N1025 1.318 1_655 S
C1030 C1029 1.396 . S
H1031 C1026 0.927 1_455 S
O1032 Mn1008 2.385 . S
O1032 C1010 1.234 . S
O1033 Mn1008 2.209 . S
O1033 Mn1009 2.215 . S
O1033 C1010 1.283 . S
O1034 Mn1008 2.094 . S
O1034 C1012 1.240 . S
O1035 Mn1009 2.117 . S
O1035 C1012 1.264 . S
C1036 C1029 1.403 . S
C1036 C1037 1.399 . S
C1036 H1042 0.929 . S
C1037 C1017 1.449 . S
C1037 C1036 1.399 . S
C1037 H1043 0.930 . S
H1038 C1018 0.931 . S
H1039 C1019 0.930 . S
H1040 C1027 0.931 . S
H1041 C1028 0.929 . S
H1042 C1036 0.929 . S
H1043 C1037 0.930 . S
Mn1044 O1049 2.095 . S
Mn1044 O1059 2.162 . S
Mn1044 O1060 2.297 . S
Mn1044 O1068 2.385 . S
Mn1044 O1069 2.209 . S
Mn1044 O1070 2.094 . S
Mn1045 O1050 2.121 . S
Mn1045 N1052 2.257 . S
Mn1045 N1061 2.282 . S
Mn1045 O1069 2.215 . S
Mn1045 O1071 2.117 . S
C1046 O1068 1.234 . S
C1046 O1069 1.283 . S
C1047 O1059 1.281 . S
C1047 O1060 1.236 . S
C1048 O1070 1.240 . S
C1048 O1071 1.264 . S
O1049 Mn1044 2.095 . S
O1049 C1058 1.250 . S
O1050 Mn1045 2.121 . S
O1050 C1058 1.258 . S
C1051 N1052 1.326 . S
C1051 C1055 1.460 . S
C1051 H1057 0.929 . S
N1052 Mn1045 2.257 . S
N1052 C1051 1.326 . S
N1052 C1056 1.362 . S
C1053 C1054 1.258 . S
C1053 C1056 1.431 . S
C1053 C1073 1.449 . S
C1054 C1053 1.258 . S
C1054 C1055 1.477 . S
C1054 H1074 0.931 . S
C1055 C1051 1.460 . S
C1055 C1054 1.477 . S
C1055 H1075 0.930 . S
C1056 N1052 1.362 . S
C1056 C1053 1.431 . S
C1056 C1066 1.476 . S
H1057 C1051 0.929 . S
C1058 O1049 1.250 . S
C1058 O1050 1.258 . S
O1059 Mn1044 2.162 . S
O1059 C1047 1.281 . S
O1060 Mn1044 2.297 . S
O1060 C1047 1.236 . S
N1061 Mn1045 2.282 . S
N1061 C1062 1.328 . S
N1061 C1066 1.318 . S
C1062 N1061 1.328 . S
C1062 C1063 1.457 . S
C1062 H1067 0.929 . S
C1063 C1062 1.457 . S
C1063 C1064 1.291 . S
C1063 H1076 0.931 . S
C1064 C1063 1.291 . S
C1064 C1065 1.373 . S
C1064 H1077 0.929 . S
C1065 C1064 1.373 . S
C1065 C1066 1.396 . S
C1065 C1072 1.403 . S
C1066 C1056 1.476 . S
C1066 N1061 1.318 . S
C1066 C1065 1.396 . S
H1067 C1062 0.929 . S
O1068 Mn1044 2.385 . S
O1068 C1046 1.234 . S
O1069 Mn1044 2.209 . S
O1069 Mn1045 2.215 . S
O1069 C1046 1.283 . S
O1070 Mn1044 2.094 . S
O1070 C1048 1.240 . S
O1071 Mn1045 2.117 . S
O1071 C1048 1.264 . S
C1072 C1065 1.403 . S
C1072 C1073 1.399 . S
C1072 H1078 0.929 . S
C1073 C1053 1.449 . S
C1073 C1072 1.399 . S
C1073 H1079 0.930 . S
H1074 C1054 0.931 . S
H1075 C1055 0.930 . S
H1076 C1063 0.931 . S
H1077 C1064 0.929 . S
H1078 C1072 0.929 . S
H1079 C1073 0.930 . S
Mn1080 O1085 2.095 . S
Mn1080 O1095 2.162 . S
Mn1080 O1096 2.297 . S
Mn1080 O1104 2.385 . S
Mn1080 O1105 2.209 . S
Mn1080 O1106 2.094 . S
Mn1081 O1086 2.121 . S
Mn1081 N1088 2.257 . S
Mn1081 N1097 2.282 . S
Mn1081 O1105 2.215 . S
Mn1081 O1107 2.117 . S
C1082 O1104 1.234 . S
C1082 O1105 1.283 . S
C1083 O1095 1.281 . S
C1083 O1096 1.236 . S
C1084 O1106 1.240 . S
C1084 O1107 1.264 . S
O1085 Mn1080 2.095 . S
O1085 C1094 1.250 . S
O1086 Mn1081 2.121 . S
O1086 C1094 1.258 . S
C1087 N1088 1.326 . S
C1087 C1091 1.460 . S
C1087 H1093 0.929 . S
N1088 Mn1081 2.257 . S
N1088 C1087 1.326 . S
N1088 C1092 1.362 . S
C1089 C1090 1.258 . S
C1089 C1092 1.431 . S
C1089 C1109 1.449 . S
C1090 C1089 1.258 . S
C1090 C1091 1.477 . S
C1090 H1110 0.931 . S
C1091 C1087 1.460 . S
C1091 C1090 1.477 . S
C1091 H1111 0.930 . S
C1092 N1088 1.362 . S
C1092 C1089 1.431 . S
C1092 C1102 1.476 . S
H1093 C1087 0.929 . S
C1094 O1085 1.250 . S
C1094 O1086 1.258 . S
O1095 Mn1080 2.162 . S
O1095 C1083 1.281 . S
O1096 Mn1080 2.297 . S
O1096 C1083 1.236 . S
N1097 Mn1081 2.282 . S
N1097 C1098 1.328 . S
N1097 C1102 1.318 . S
C1098 N1097 1.328 . S
C1098 C1099 1.457 . S
C1098 H1103 0.929 . S
C1099 C1098 1.457 . S
C1099 C1100 1.291 . S
C1099 H1112 0.931 . S
C1100 C1099 1.291 . S
C1100 C1101 1.373 . S
C1100 H1113 0.929 . S
C1101 C1100 1.373 . S
C1101 C1102 1.396 . S
C1101 C1108 1.403 . S
C1102 C1092 1.476 . S
C1102 N1097 1.318 . S
C1102 C1101 1.396 . S
H1103 C1098 0.929 . S
O1104 Mn1080 2.385 . S
O1104 C1082 1.234 . S
O1105 Mn1080 2.209 . S
O1105 Mn1081 2.215 . S
O1105 C1082 1.283 . S
O1106 Mn1080 2.094 . S
O1106 C1084 1.240 . S
O1107 Mn1081 2.117 . S
O1107 C1084 1.264 . S
C1108 C1101 1.403 . S
C1108 C1109 1.399 . S
C1108 H1114 0.929 . S
C1109 C1089 1.449 . S
C1109 C1108 1.399 . S
C1109 H1115 0.930 . S
H1110 C1090 0.931 . S
H1111 C1091 0.930 . S
H1112 C1099 0.931 . S
H1113 C1100 0.929 . S
H1114 C1108 0.929 . S
H1115 C1109 0.930 . S
Mn1116 O1121 2.095 . S
Mn1116 O1131 2.162 . S
Mn1116 O1132 2.297 . S
Mn1116 O1140 2.385 . S
Mn1116 O1141 2.209 . S
Mn1116 O1142 2.094 . S
Mn1117 O1122 2.121 . S
Mn1117 N1124 2.257 . S
Mn1117 N1133 2.282 . S
Mn1117 O1141 2.215 . S
Mn1117 O1143 2.117 . S
C1118 O1140 1.234 . S
C1118 O1141 1.283 . S
C1119 O1131 1.281 . S
C1119 O1132 1.236 . S
C1120 O1142 1.240 . S
C1120 O1143 1.264 . S
O1121 Mn1116 2.095 . S
O1121 C1130 1.250 . S
O1122 Mn1117 2.121 . S
O1122 C1130 1.258 . S
C1123 N1124 1.326 . S
C1123 C1127 1.460 . S
C1123 H1129 0.929 . S
N1124 Mn1117 2.257 . S
N1124 C1123 1.326 . S
N1124 C1128 1.362 . S
C1125 C1126 1.258 . S
C1125 C1128 1.431 . S
C1125 C1145 1.449 . S
C1126 C1125 1.258 . S
C1126 C1127 1.477 . S
C1126 H1146 0.931 . S
C1127 C1123 1.460 . S
C1127 C1126 1.477 . S
C1127 H1147 0.930 . S
C1128 N1124 1.362 . S
C1128 C1125 1.431 . S
C1128 C1138 1.476 . S
H1129 C1123 0.929 . S
C1130 O1121 1.250 . S
C1130 O1122 1.258 . S
O1131 Mn1116 2.162 . S
O1131 C1119 1.281 . S
O1132 Mn1116 2.297 . S
O1132 C1119 1.236 . S
N1133 Mn1117 2.282 . S
N1133 C1134 1.328 . S
N1133 C1138 1.318 . S
C1134 N1133 1.328 . S
C1134 C1135 1.457 . S
C1134 H1139 0.929 . S
C1135 C1134 1.457 . S
C1135 C1136 1.291 . S
C1135 H1148 0.931 . S
C1136 C1135 1.291 . S
C1136 C1137 1.373 . S
C1136 H1149 0.929 . S
C1137 C1136 1.373 . S
C1137 C1138 1.396 . S
C1137 C1144 1.403 . S
C1138 C1128 1.476 . S
C1138 N1133 1.318 . S
C1138 C1137 1.396 . S
H1139 C1134 0.929 . S
O1140 Mn1116 2.385 . S
O1140 C1118 1.234 . S
O1141 Mn1116 2.209 . S
O1141 Mn1117 2.215 . S
O1141 C1118 1.283 . S
O1142 Mn1116 2.094 . S
O1142 C1120 1.240 . S
O1143 Mn1117 2.117 . S
O1143 C1120 1.264 . S
C1144 C1137 1.403 . S
C1144 C1145 1.399 . S
C1144 H1150 0.929 . S
C1145 C1125 1.449 . S
C1145 C1144 1.399 . S
C1145 H1151 0.930 . S
H1146 C1126 0.931 . S
H1147 C1127 0.930 . S
H1148 C1135 0.931 . S
H1149 C1136 0.929 . S
H1150 C1144 0.929 . S
H1151 C1145 0.930 . S
H1152 C1158 0.930 . S
H1153 C1161 0.930 . S
H1154 C1162 0.930 . S
H1155 C1163 0.930 . S
H1156 C1166 0.930 . S
H1157 C1167 0.930 . S
C1158 H1152 0.930 . S
C1158 C1159 1.355 1_545 S
C1158 C1160 1.415 . S
C1159 C1158 1.355 1_565 S
C1159 C1161 1.419 . S
C1160 C1158 1.415 . S
C1160 C1165 1.425 1_545 S
C1160 C1167 1.409 . S
C1161 H1153 0.930 . S
C1161 C1159 1.419 . S
C1161 C1162 1.362 . S
C1162 H1154 0.930 . S
C1162 C1161 1.362 . S
C1162 C1165 1.409 . S
C1163 H1155 0.930 . S
C1163 C1164 1.355 1_565 S
C1163 C1165 1.415 . S
C1164 C1163 1.355 1_545 S
C1164 C1166 1.419 . S
C1165 C1160 1.425 1_565 S
C1165 C1162 1.409 . S
C1165 C1163 1.415 . S
C1166 H1156 0.930 . S
C1166 C1164 1.419 . S
C1166 C1167 1.362 . S
C1167 H1157 0.930 . S
C1167 C1160 1.409 . S
C1167 C1166 1.362 . S
H1168 C1174 0.930 . S
H1169 C1177 0.930 . S
H1170 C1178 0.930 . S
H1171 C1179 0.930 . S
H1172 C1182 0.930 . S
H1173 C1183 0.930 . S
C1174 H1168 0.930 . S
C1174 C1175 1.355 . S
C1174 C1176 1.415 . S
C1175 C1174 1.355 . S
C1175 C1177 1.419 . S
C1176 C1174 1.415 . S
C1176 C1181 1.425 . S
C1176 C1183 1.409 . S
C1177 H1169 0.930 . S
C1177 C1175 1.419 . S
C1177 C1178 1.362 . S
C1178 H1170 0.930 . S
C1178 C1177 1.362 . S
C1178 C1181 1.409 . S
C1179 H1171 0.930 . S
C1179 C1180 1.355 . S
C1179 C1181 1.415 . S
C1180 C1179 1.355 . S
C1180 C1182 1.419 . S
C1181 C1176 1.425 . S
C1181 C1178 1.409 . S
C1181 C1179 1.415 . S
C1182 H1172 0.930 . S
C1182 C1180 1.419 . S
C1182 C1183 1.362 . S
C1183 H1173 0.930 . S
C1183 C1176 1.409 . S
C1183 C1182 1.362 . S
H1184 C1190 0.930 . S
H1185 C1193 0.930 . S
H1186 C1194 0.930 . S
H1187 C1195 0.930 . S
H1188 C1198 0.930 . S
H1189 C1199 0.930 . S
C1190 H1184 0.930 . S
C1190 C1191 1.355 . S
C1190 C1192 1.415 . S
C1191 C1190 1.355 . S
C1191 C1193 1.419 . S
C1192 C1190 1.415 . S
C1192 C1197 1.425 1_545 S
C1192 C1199 1.409 . S
C1193 H1185 0.930 . S
C1193 C1191 1.419 . S
C1193 C1194 1.362 1_545 S
C1194 H1186 0.930 . S
C1194 C1193 1.362 1_565 S
C1194 C1197 1.409 . S
C1195 H1187 0.930 . S
C1195 C1196 1.355 . S
C1195 C1197 1.415 . S
C1196 C1195 1.355 . S
C1196 C1198 1.419 . S
C1197 C1192 1.425 1_565 S
C1197 C1194 1.409 . S
C1197 C1195 1.415 . S
C1198 H1188 0.930 . S
C1198 C1196 1.419 . S
C1198 C1199 1.362 1_565 S
C1199 H1189 0.930 . S
C1199 C1192 1.409 . S
C1199 C1198 1.362 1_545 S
H1200 C1206 0.930 . S
H1201 C1209 0.930 . S
H1202 C1210 0.930 . S
H1203 C1211 0.930 . S
H1204 C1214 0.930 . S
H1205 C1215 0.930 . S
C1206 H1200 0.930 . S
C1206 C1207 1.355 . S
C1206 C1208 1.427 . S
C1207 C1206 1.355 . S
C1207 C1209 1.419 . S
C1208 C1206 1.427 . S
C1208 C1213 1.425 1_556 S
C1208 C1215 1.397 1_556 S
C1209 H1201 0.930 . S
C1209 C1207 1.419 . S
C1209 C1210 1.362 . S
C1210 H1202 0.930 . S
C1210 C1209 1.362 . S
C1210 C1213 1.397 1_556 S
C1211 H1203 0.930 . S
C1211 C1212 1.355 . S
C1211 C1213 1.427 . S
C1212 C1211 1.355 . S
C1212 C1214 1.419 . S
C1213 C1208 1.425 1_554 S
C1213 C1210 1.397 1_554 S
C1213 C1211 1.427 . S
C1214 H1204 0.930 . S
C1214 C1212 1.419 . S
C1214 C1215 1.362 . S
C1215 H1205 0.930 . S
C1215 C1208 1.397 1_554 S
C1215 C1214 1.362 . S
H1216 C1222 0.930 . S
H1217 C1225 0.930 . S
H1218 C1226 0.930 . S
H1219 C1227 0.930 . S
H1220 C1230 0.930 . S
H1221 C1231 0.930 . S
C1222 H1216 0.930 . S
C1222 C1223 1.355 1_545 S
C1222 C1224 1.415 . S
C1223 C1222 1.355 1_565 S
C1223 C1225 1.419 . S
C1224 C1222 1.415 . S
C1224 C1229 1.425 1_545 S
C1224 C1231 1.409 . S
C1225 H1217 0.930 . S
C1225 C1223 1.419 . S
C1225 C1226 1.362 . S
C1226 H1218 0.930 . S
C1226 C1225 1.362 . S
C1226 C1229 1.409 . S
C1227 H1219 0.930 . S
C1227 C1228 1.355 1_565 S
C1227 C1229 1.415 . S
C1228 C1227 1.355 1_545 S
C1228 C1230 1.419 . S
C1229 C1224 1.425 1_565 S
C1229 C1226 1.409 . S
C1229 C1227 1.415 . S
C1230 H1220 0.930 . S
C1230 C1228 1.419 . S
C1230 C1231 1.362 . S
C1231 H1221 0.930 . S
C1231 C1224 1.409 . S
C1231 C1230 1.362 . S
H1232 C1238 0.930 . S
H1233 C1241 0.930 . S
H1234 C1242 0.930 . S
H1235 C1243 0.930 . S
H1236 C1246 0.930 . S
H1237 C1247 0.930 . S
C1238 H1232 0.930 . S
C1238 C1239 1.355 . S
C1238 C1240 1.415 . S
C1239 C1238 1.355 . S
C1239 C1241 1.419 . S
C1240 C1238 1.415 . S
C1240 C1245 1.425 . S
C1240 C1247 1.409 . S
C1241 H1233 0.930 . S
C1241 C1239 1.419 . S
C1241 C1242 1.362 . S
C1242 H1234 0.930 . S
C1242 C1241 1.362 . S
C1242 C1245 1.409 . S
C1243 H1235 0.930 . S
C1243 C1244 1.355 . S
C1243 C1245 1.415 . S
C1244 C1243 1.355 . S
C1244 C1246 1.419 . S
C1245 C1240 1.425 . S
C1245 C1242 1.409 . S
C1245 C1243 1.415 . S
C1246 H1236 0.930 . S
C1246 C1244 1.419 . S
C1246 C1247 1.362 . S
C1247 H1237 0.930 . S
C1247 C1240 1.409 . S
C1247 C1246 1.362 . S
H1248 C1254 0.930 . S
H1249 C1257 0.930 . S
H1250 C1258 0.930 . S
H1251 C1259 0.930 . S
H1252 C1262 0.930 . S
H1253 C1263 0.930 . S
C1254 H1248 0.930 . S
C1254 C1255 1.355 . S
C1254 C1256 1.415 1_545 S
C1255 C1254 1.355 . S
C1255 C1257 1.419 . S
C1256 C1254 1.415 1_565 S
C1256 C1261 1.425 1_565 S
C1256 C1263 1.409 . S
C1257 H1249 0.930 . S
C1257 C1255 1.419 . S
C1257 C1258 1.362 . S
C1258 H1250 0.930 . S
C1258 C1257 1.362 . S
C1258 C1261 1.409 . S
C1259 H1251 0.930 . S
C1259 C1260 1.355 . S
C1259 C1261 1.415 1_565 S
C1260 C1259 1.355 . S
C1260 C1262 1.419 . S
C1261 C1256 1.425 1_545 S
C1261 C1258 1.409 . S
C1261 C1259 1.415 1_545 S
C1262 H1252 0.930 . S
C1262 C1260 1.419 . S
C1262 C1263 1.362 . S
C1263 H1253 0.930 . S
C1263 C1256 1.409 . S
C1263 C1262 1.362 . S
H1264 C1270 0.930 . S
H1265 C1273 0.930 . S
H1266 C1274 0.930 . S
H1267 C1275 0.930 . S
H1268 C1278 0.930 . S
H1269 C1279 0.930 . S
C1270 H1264 0.930 . S
C1270 C1271 1.355 . S
C1270 C1272 1.457 . S
C1271 C1270 1.355 . S
C1271 C1273 1.419 . S
C1272 C1270 1.457 . S
C1272 C1277 1.421 1_556 S
C1272 C1279 1.370 1_556 S
C1273 H1265 0.930 . S
C1273 C1271 1.419 . S
C1273 C1274 1.362 . S
C1274 H1266 0.930 . S
C1274 C1273 1.362 . S
C1274 C1277 1.370 1_556 S
C1275 H1267 0.930 . S
C1275 C1276 1.355 . S
C1275 C1277 1.457 . S
C1276 C1275 1.355 . S
C1276 C1278 1.419 . S
C1277 C1272 1.421 1_554 S
C1277 C1274 1.370 1_554 S
C1277 C1275 1.457 . S
C1278 H1268 0.930 . S
C1278 C1276 1.419 . S
C1278 C1279 1.362 . S
C1279 H1269 0.930 . S
C1279 C1272 1.370 1_554 S
C1279 C1278 1.362 . S
H1280 C1286 0.930 . S
H1281 C1289 0.930 . S
H1282 C1290 0.930 . S
H1283 C1291 0.930 . S
H1284 C1294 0.930 . S
H1285 C1295 0.930 . S
C1286 H1280 0.930 . S
C1286 C1287 1.355 . S
C1286 C1288 1.415 . S
C1287 C1286 1.355 . S
C1287 C1289 1.419 . S
C1288 C1286 1.415 . S
C1288 C1293 1.425 . S
C1288 C1295 1.409 . S
C1289 H1281 0.930 . S
C1289 C1287 1.419 . S
C1289 C1290 1.362 . S
C1290 H1282 0.930 . S
C1290 C1289 1.362 . S
C1290 C1293 1.409 . S
C1291 H1283 0.930 . S
C1291 C1292 1.355 . S
C1291 C1293 1.415 . S
C1292 C1291 1.355 . S
C1292 C1294 1.419 . S
C1293 C1288 1.425 . S
C1293 C1290 1.409 . S
C1293 C1291 1.415 . S
C1294 H1284 0.930 . S
C1294 C1292 1.419 . S
C1294 C1295 1.362 . S
C1295 H1285 0.930 . S
C1295 C1288 1.409 . S
C1295 C1294 1.362 . S
H1296 C1302 0.930 . S
H1297 C1305 0.930 . S
H1298 C1306 0.930 1_556 S
H1299 C1307 0.930 . S
H1300 C1310 0.930 . S
H1301 C1311 0.930 1_554 S
C1302 H1296 0.930 . S
C1302 C1303 1.355 . S
C1302 C1304 1.415 . S
C1303 C1302 1.355 . S
C1303 C1305 1.419 . S
C1304 C1302 1.415 . S
C1304 C1309 1.425 1_554 S
C1304 C1311 1.409 1_554 S
C1305 H1297 0.930 . S
C1305 C1303 1.419 . S
C1305 C1306 1.362 . S
C1306 H1298 0.930 1_554 S
C1306 C1305 1.362 . S
C1306 C1309 1.409 1_554 S
C1307 H1299 0.930 . S
C1307 C1308 1.355 . S
C1307 C1309 1.415 . S
C1308 C1307 1.355 . S
C1308 C1310 1.419 . S
C1309 C1304 1.425 1_556 S
C1309 C1306 1.409 1_556 S
C1309 C1307 1.415 . S
C1310 H1300 0.930 . S
C1310 C1308 1.419 . S
C1310 C1311 1.362 . S
C1311 H1301 0.930 1_556 S
C1311 C1304 1.409 1_556 S
C1311 C1310 1.362 . S
H1312 C1318 0.930 . S
H1313 C1321 0.930 . S
H1314 C1322 0.930 . S
H1315 C1323 0.930 . S
H1316 C1326 0.930 . S
H1317 C1327 0.930 . S
C1318 H1312 0.930 . S
C1318 C1319 1.355 . S
C1318 C1320 1.415 . S
C1319 C1318 1.355 . S
C1319 C1321 1.419 . S
C1320 C1318 1.415 . S
C1320 C1325 1.425 . S
C1320 C1327 1.409 . S
C1321 H1313 0.930 . S
C1321 C1319 1.419 . S
C1321 C1322 1.362 . S
C1322 H1314 0.930 . S
C1322 C1321 1.362 . S
C1322 C1325 1.409 . S
C1323 H1315 0.930 . S
C1323 C1324 1.355 . S
C1323 C1325 1.415 . S
C1324 C1323 1.355 . S
C1324 C1326 1.419 . S
C1325 C1320 1.425 . S
C1325 C1322 1.409 . S
C1325 C1323 1.415 . S
C1326 H1316 0.930 . S
C1326 C1324 1.419 . S
C1326 C1327 1.362 . S
C1327 H1317 0.930 . S
C1327 C1320 1.409 . S
C1327 C1326 1.362 . S
H1328 C1334 0.930 . S
H1329 C1337 0.930 . S
H1330 C1338 0.930 . S
H1331 C1339 0.930 . S
H1332 C1342 0.930 . S
H1333 C1343 0.930 . S
C1334 H1328 0.930 . S
C1334 C1335 1.355 . S
C1334 C1336 1.415 . S
C1335 C1334 1.355 . S
C1335 C1337 1.419 . S
C1336 C1334 1.415 . S
C1336 C1341 1.425 . S
C1336 C1343 1.409 . S
C1337 H1329 0.930 . S
C1337 C1335 1.419 . S
C1337 C1338 1.362 . S
C1338 H1330 0.930 . S
C1338 C1337 1.362 . S
C1338 C1341 1.409 . S
C1339 H1331 0.930 . S
C1339 C1340 1.355 . S
C1339 C1341 1.415 . S
C1340 C1339 1.355 . S
C1340 C1342 1.419 . S
C1341 C1336 1.425 . S
C1341 C1338 1.409 . S
C1341 C1339 1.415 . S
C1342 H1332 0.930 . S
C1342 C1340 1.419 . S
C1342 C1343 1.362 . S
C1343 H1333 0.930 . S
C1343 C1336 1.409 . S
C1343 C1342 1.362 . S
H1344 C1350 0.930 . S
H1345 C1353 0.930 . S
H1346 C1354 0.930 . S
H1347 C1355 0.930 . S
H1348 C1358 0.930 . S
H1349 C1359 0.930 . S
C1350 H1344 0.930 . S
C1350 C1351 1.355 . S
C1350 C1352 1.415 . S
C1351 C1350 1.355 . S
C1351 C1353 1.419 . S
C1352 C1350 1.415 . S
C1352 C1357 1.425 . S
C1352 C1359 1.409 . S
C1353 H1345 0.930 . S
C1353 C1351 1.419 . S
C1353 C1354 1.362 . S
C1354 H1346 0.930 . S
C1354 C1353 1.362 . S
C1354 C1357 1.409 . S
C1355 H1347 0.930 . S
C1355 C1356 1.355 . S
C1355 C1357 1.415 . S
C1356 C1355 1.355 . S
C1356 C1358 1.419 . S
C1357 C1352 1.425 . S
C1357 C1354 1.409 . S
C1357 C1355 1.415 . S
C1358 H1348 0.930 . S
C1358 C1356 1.419 . S
C1358 C1359 1.362 . S
C1359 H1349 0.930 . S
C1359 C1352 1.409 . S
C1359 C1358 1.362 . S
H1360 C1366 0.930 . S
H1361 C1369 0.930 . S
H1362 C1370 0.930 . S
H1363 C1371 0.930 . S
H1364 C1374 0.930 . S
H1365 C1375 0.930 . S
C1366 H1360 0.930 . S
C1366 C1367 1.355 . S
C1366 C1368 1.440 . S
C1367 C1366 1.355 . S
C1367 C1369 1.419 . S
C1368 C1366 1.440 . S
C1368 C1373 1.424 1_554 S
C1368 C1375 1.385 1_554 S
C1369 H1361 0.930 . S
C1369 C1367 1.419 . S
C1369 C1370 1.362 . S
C1370 H1362 0.930 . S
C1370 C1369 1.362 . S
C1370 C1373 1.385 1_554 S
C1371 H1363 0.930 . S
C1371 C1372 1.355 . S
C1371 C1373 1.440 . S
C1372 C1371 1.355 . S
C1372 C1374 1.419 . S
C1373 C1368 1.424 1_556 S
C1373 C1370 1.385 1_556 S
C1373 C1371 1.440 . S
C1374 H1364 0.930 . S
C1374 C1372 1.419 . S
C1374 C1375 1.362 . S
C1375 H1365 0.930 . S
C1375 C1368 1.385 1_556 S
C1375 C1374 1.362 . S
H1376 C1382 0.930 . S
H1377 C1385 0.930 . S
H1378 C1386 0.930 . S
H1379 C1387 0.930 . S
H1380 C1390 0.930 . S
H1381 C1391 0.930 . S
C1382 H1376 0.930 . S
C1382 C1383 1.355 . S
C1382 C1384 1.415 . S
C1383 C1382 1.355 . S
C1383 C1385 1.419 . S
C1384 C1382 1.415 . S
C1384 C1389 1.425 . S
C1384 C1391 1.409 . S
C1385 H1377 0.930 . S
C1385 C1383 1.419 . S
C1385 C1386 1.362 . S
C1386 H1378 0.930 . S
C1386 C1385 1.362 . S
C1386 C1389 1.409 . S
C1387 H1379 0.930 . S
C1387 C1388 1.355 . S
C1387 C1389 1.415 . S
C1388 C1387 1.355 . S
C1388 C1390 1.419 . S
C1389 C1384 1.425 . S
C1389 C1386 1.409 . S
C1389 C1387 1.415 . S
C1390 H1380 0.930 . S
C1390 C1388 1.419 . S
C1390 C1391 1.362 . S
C1391 H1381 0.930 . S
C1391 C1384 1.409 . S
C1391 C1390 1.362 . S
H1392 C1398 0.930 . S
H1393 C1401 0.930 . S
H1394 C1402 0.930 . S
H1395 C1403 0.930 . S
H1396 C1406 0.930 . S
H1397 C1407 0.930 . S
C1398 H1392 0.930 . S
C1398 C1399 1.355 . S
C1398 C1400 1.415 . S
C1399 C1398 1.355 . S
C1399 C1401 1.419 . S
C1400 C1398 1.415 . S
C1400 C1405 1.425 . S
C1400 C1407 1.409 . S
C1401 H1393 0.930 . S
C1401 C1399 1.419 . S
C1401 C1402 1.362 . S
C1402 H1394 0.930 . S
C1402 C1401 1.362 . S
C1402 C1405 1.409 . S
C1403 H1395 0.930 . S
C1403 C1404 1.355 . S
C1403 C1405 1.415 . S
C1404 C1403 1.355 . S
C1404 C1406 1.419 . S
C1405 C1400 1.425 . S
C1405 C1402 1.409 . S
C1405 C1403 1.415 . S
C1406 H1396 0.930 . S
C1406 C1404 1.419 . S
C1406 C1407 1.362 . S
C1407 H1397 0.930 . S
C1407 C1400 1.409 . S
C1407 C1406 1.362 . S
H1408 C1414 0.930 . S
H1409 C1417 0.930 . S
H1410 C1418 0.930 . S
H1411 C1419 0.930 . S
H1412 C1422 0.930 . S
H1413 C1423 0.930 . S
C1414 H1408 0.930 . S
C1414 C1415 1.355 . S
C1414 C1416 1.415 . S
C1415 C1414 1.355 . S
C1415 C1417 1.419 . S
C1416 C1414 1.415 . S
C1416 C1421 1.425 . S
C1416 C1423 1.409 . S
C1417 H1409 0.930 . S
C1417 C1415 1.419 . S
C1417 C1418 1.362 . S
C1418 H1410 0.930 . S
C1418 C1417 1.362 . S
C1418 C1421 1.409 . S
C1419 H1411 0.930 . S
C1419 C1420 1.355 . S
C1419 C1421 1.415 . S
C1420 C1419 1.355 . S
C1420 C1422 1.419 . S
C1421 C1416 1.425 . S
C1421 C1418 1.409 . S
C1421 C1419 1.415 . S
C1422 H1412 0.930 . S
C1422 C1420 1.419 . S
C1422 C1423 1.362 . S
C1423 H1413 0.930 . S
C1423 C1416 1.409 . S
C1423 C1422 1.362 . S
H1424 C1430 0.930 . S
H1425 C1433 0.930 . S
H1426 C1434 0.930 . S
H1427 C1435 0.930 . S
H1428 C1438 0.930 . S
H1429 C1439 0.930 . S
C1430 H1424 0.930 . S
C1430 C1431 1.355 . S
C1430 C1432 1.415 . S
C1431 C1430 1.355 . S
C1431 C1433 1.419 . S
C1432 C1430 1.415 . S
C1432 C1437 1.425 . S
C1432 C1439 1.409 . S
C1433 H1425 0.930 . S
C1433 C1431 1.419 . S
C1433 C1434 1.362 . S
C1434 H1426 0.930 . S
C1434 C1433 1.362 . S
C1434 C1437 1.409 . S
C1435 H1427 0.930 . S
C1435 C1436 1.355 . S
C1435 C1437 1.415 . S
C1436 C1435 1.355 . S
C1436 C1438 1.419 . S
C1437 C1432 1.425 . S
C1437 C1434 1.409 . S
C1437 C1435 1.415 . S
C1438 H1428 0.930 . S
C1438 C1436 1.419 . S
C1438 C1439 1.362 . S
C1439 H1429 0.930 . S
C1439 C1432 1.409 . S
C1439 C1438 1.362 . S
H1440 C1446 0.930 . S
H1441 C1449 0.930 . S
H1442 C1450 0.930 . S
H1443 C1451 0.930 . S
H1444 C1454 0.930 . S
H1445 C1455 0.930 . S
C1446 H1440 0.930 . S
C1446 C1447 1.355 . S
C1446 C1448 1.415 . S
C1447 C1446 1.355 . S
C1447 C1449 1.419 . S
C1448 C1446 1.415 . S
C1448 C1453 1.425 . S
C1448 C1455 1.409 . S
C1449 H1441 0.930 . S
C1449 C1447 1.419 . S
C1449 C1450 1.362 . S
C1450 H1442 0.930 . S
C1450 C1449 1.362 . S
C1450 C1453 1.409 . S
C1451 H1443 0.930 . S
C1451 C1452 1.355 . S
C1451 C1453 1.415 . S
C1452 C1451 1.355 . S
C1452 C1454 1.419 . S
C1453 C1448 1.425 . S
C1453 C1450 1.409 . S
C1453 C1451 1.415 . S
C1454 H1444 0.930 . S
C1454 C1452 1.419 . S
C1454 C1455 1.362 . S
C1455 H1445 0.930 . S
C1455 C1448 1.409 . S
C1455 C1454 1.362 . S
H1456 C1462 0.930 . S
H1457 C1465 0.930 . S
H1458 C1466 0.930 . S
H1459 C1467 0.930 . S
H1460 C1470 0.930 . S
H1461 C1471 0.930 . S
C1462 H1456 0.930 . S
C1462 C1463 1.355 . S
C1462 C1464 1.415 . S
C1463 C1462 1.355 . S
C1463 C1465 1.419 . S
C1464 C1462 1.415 . S
C1464 C1469 1.425 . S
C1464 C1471 1.409 . S
C1465 H1457 0.930 . S
C1465 C1463 1.419 . S
C1465 C1466 1.362 . S
C1466 H1458 0.930 . S
C1466 C1465 1.362 . S
C1466 C1469 1.409 . S
C1467 H1459 0.930 . S
C1467 C1468 1.355 . S
C1467 C1469 1.415 . S
C1468 C1467 1.355 . S
C1468 C1470 1.419 . S
C1469 C1464 1.425 . S
C1469 C1466 1.409 . S
C1469 C1467 1.415 . S
C1470 H1460 0.930 . S
C1470 C1468 1.419 . S
C1470 C1471 1.362 . S
C1471 H1461 0.930 . S
C1471 C1464 1.409 . S
C1471 C1470 1.362 . S
H1472 C1478 0.930 . S
H1473 C1481 0.930 . S
H1474 C1482 0.930 . S
H1475 C1483 0.930 1_565 S
H1476 C1486 0.930 . S
H1477 C1487 0.930 . S
C1478 H1472 0.930 . S
C1478 C1479 1.355 . S
C1478 C1480 1.415 . S
C1479 C1478 1.355 . S
C1479 C1481 1.419 . S
C1480 C1478 1.415 . S
C1480 C1485 1.425 . S
C1480 C1487 1.409 . S
C1481 H1473 0.930 . S
C1481 C1479 1.419 . S
C1481 C1482 1.362 . S
C1482 H1474 0.930 . S
C1482 C1481 1.362 . S
C1482 C1485 1.409 . S
C1483 H1475 0.930 1_545 S
C1483 C1484 1.355 . S
C1483 C1485 1.415 . S
C1484 C1483 1.355 . S
C1484 C1486 1.419 . S
C1485 C1480 1.425 . S
C1485 C1482 1.409 . S
C1485 C1483 1.415 . S
C1486 H1476 0.930 . S
C1486 C1484 1.419 . S
C1486 C1487 1.362 . S
C1487 H1477 0.930 . S
C1487 C1480 1.409 . S
C1487 C1486 1.362 . S
H1488 C1494 0.930 . S
H1489 C1497 0.930 . S
H1490 C1498 0.930 . S
H1491 C1499 0.930 . S
H1492 C1502 0.930 . S
H1493 C1503 0.930 . S
C1494 H1488 0.930 . S
C1494 C1495 1.355 . S
C1494 C1496 1.415 . S
C1495 C1494 1.355 . S
C1495 C1497 1.419 . S
C1496 C1494 1.415 . S
C1496 C1501 1.425 . S
C1496 C1503 1.409 . S
C1497 H1489 0.930 . S
C1497 C1495 1.419 . S
C1497 C1498 1.362 . S
C1498 H1490 0.930 . S
C1498 C1497 1.362 . S
C1498 C1501 1.409 . S
C1499 H1491 0.930 . S
C1499 C1500 1.355 . S
C1499 C1501 1.415 . S
C1500 C1499 1.355 . S
C1500 C1502 1.419 . S
C1501 C1496 1.425 . S
C1501 C1498 1.409 . S
C1501 C1499 1.415 . S
C1502 H1492 0.930 . S
C1502 C1500 1.419 . S
C1502 C1503 1.362 . S
C1503 H1493 0.930 . S
C1503 C1496 1.409 . S
C1503 C1502 1.362 . S
H1504 C1510 0.930 . S
H1505 C1513 0.930 . S
H1506 C1514 0.930 . S
H1507 C1515 0.930 . S
H1508 C1518 0.930 . S
H1509 C1519 0.930 1_545 S
C1510 H1504 0.930 . S
C1510 C1511 1.355 . S
C1510 C1512 1.415 . S
C1511 C1510 1.355 . S
C1511 C1513 1.419 . S
C1512 C1510 1.415 . S
C1512 C1517 1.425 . S
C1512 C1519 1.409 . S
C1513 H1505 0.930 . S
C1513 C1511 1.419 . S
C1513 C1514 1.362 . S
C1514 H1506 0.930 . S
C1514 C1513 1.362 . S
C1514 C1517 1.409 . S
C1515 H1507 0.930 . S
C1515 C1516 1.355 . S
C1515 C1517 1.415 . S
C1516 C1515 1.355 . S
C1516 C1518 1.419 1_565 S
C1517 C1512 1.425 . S
C1517 C1514 1.409 . S
C1517 C1515 1.415 . S
C1518 H1508 0.930 . S
C1518 C1516 1.419 1_545 S
C1518 C1519 1.362 1_545 S
C1519 H1509 0.930 1_565 S
C1519 C1512 1.409 . S
C1519 C1518 1.362 1_565 S
H1520 C1526 0.930 . S
H1521 C1529 0.930 . S
H1522 C1530 0.930 . S
H1523 C1531 0.930 . S
H1524 C1534 0.930 . S
H1525 C1535 0.930 1_565 S
C1526 H1520 0.930 . S
C1526 C1527 1.355 . S
C1526 C1528 1.415 . S
C1527 C1526 1.355 . S
C1527 C1529 1.419 . S
C1528 C1526 1.415 . S
C1528 C1533 1.425 . S
C1528 C1535 1.409 . S
C1529 H1521 0.930 . S
C1529 C1527 1.419 . S
C1529 C1530 1.362 . S
C1530 H1522 0.930 . S
C1530 C1529 1.362 . S
C1530 C1533 1.409 . S
C1531 H1523 0.930 . S
C1531 C1532 1.355 . S
C1531 C1533 1.415 . S
C1532 C1531 1.355 . S
C1532 C1534 1.419 1_545 S
C1533 C1528 1.425 . S
C1533 C1530 1.409 . S
C1533 C1531 1.415 . S
C1534 H1524 0.930 . S
C1534 C1532 1.419 1_565 S
C1534 C1535 1.362 1_565 S
C1535 H1525 0.930 1_545 S
C1535 C1528 1.409 . S
C1535 C1534 1.362 1_545 S
H1536 C1542 0.930 . S
H1537 C1545 0.930 . S
H1538 C1546 0.930 . S
H1539 C1547 0.930 . S
H1540 C1550 0.930 . S
H1541 C1551 0.930 . S
C1542 H1536 0.930 . S
C1542 C1543 1.355 . S
C1542 C1544 1.415 . S
C1543 C1542 1.355 . S
C1543 C1545 1.419 . S
C1544 C1542 1.415 . S
C1544 C1549 1.425 . S
C1544 C1551 1.409 . S
C1545 H1537 0.930 . S
C1545 C1543 1.419 . S
C1545 C1546 1.362 . S
C1546 H1538 0.930 . S
C1546 C1545 1.362 . S
C1546 C1549 1.409 . S
C1547 H1539 0.930 . S
C1547 C1548 1.355 . S
C1547 C1549 1.415 . S
C1548 C1547 1.355 . S
C1548 C1550 1.419 . S
C1549 C1544 1.425 . S
C1549 C1546 1.409 . S
C1549 C1547 1.415 . S
C1550 H1540 0.930 . S
C1550 C1548 1.419 . S
C1550 C1551 1.362 . S
C1551 H1541 0.930 . S
C1551 C1544 1.409 . S
C1551 C1550 1.362 . S
H1552 C1558 0.930 . S
H1553 C1561 0.930 . S
H1554 C1562 0.930 . S
H1555 C1563 0.930 . S
H1556 C1566 0.930 . S
H1557 C1567 0.930 . S
C1558 H1552 0.930 . S
C1558 C1559 1.355 . S
C1558 C1560 1.415 . S
C1559 C1558 1.355 . S
C1559 C1561 1.419 . S
C1560 C1558 1.415 . S
C1560 C1565 1.425 . S
C1560 C1567 1.409 . S
C1561 H1553 0.930 . S
C1561 C1559 1.419 . S
C1561 C1562 1.362 . S
C1562 H1554 0.930 . S
C1562 C1561 1.362 . S
C1562 C1565 1.409 . S
C1563 H1555 0.930 . S
C1563 C1564 1.355 . S
C1563 C1565 1.415 . S
C1564 C1563 1.355 . S
C1564 C1566 1.419 . S
C1565 C1560 1.425 . S
C1565 C1562 1.409 . S
C1565 C1563 1.415 . S
C1566 H1556 0.930 . S
C1566 C1564 1.419 . S
C1566 C1567 1.362 . S
C1567 H1557 0.930 . S
C1567 C1560 1.409 . S
C1567 C1566 1.362 . S
H1568 C1574 0.930 . S
H1569 C1577 0.930 . S
H1570 C1578 0.930 . S
H1571 C1579 0.930 . S
H1572 C1582 0.930 . S
H1573 C1583 0.930 . S
C1574 H1568 0.930 . S
C1574 C1575 1.355 . S
C1574 C1576 1.415 . S
C1575 C1574 1.355 . S
C1575 C1577 1.419 . S
C1576 C1574 1.415 . S
C1576 C1581 1.425 . S
C1576 C1583 1.409 . S
C1577 H1569 0.930 . S
C1577 C1575 1.419 . S
C1577 C1578 1.362 . S
C1578 H1570 0.930 . S
C1578 C1577 1.362 . S
C1578 C1581 1.409 . S
C1579 H1571 0.930 . S
C1579 C1580 1.355 . S
C1579 C1581 1.415 . S
C1580 C1579 1.355 . S
C1580 C1582 1.419 . S
C1581 C1576 1.425 . S
C1581 C1578 1.409 . S
C1581 C1579 1.415 . S
C1582 H1572 0.930 . S
C1582 C1580 1.419 . S
C1582 C1583 1.362 . S
C1583 H1573 0.930 . S
C1583 C1576 1.409 . S
C1583 C1582 1.362 . S
H1584 C1590 0.930 . S
H1585 C1593 0.930 . S
H1586 C1594 0.930 . S
H1587 C1595 0.930 . S
H1588 C1598 0.930 . S
H1589 C1599 0.930 . S
C1590 H1584 0.930 . S
C1590 C1591 1.355 . S
C1590 C1592 1.415 . S
C1591 C1590 1.355 . S
C1591 C1593 1.419 . S
C1592 C1590 1.415 . S
C1592 C1597 1.425 . S
C1592 C1599 1.409 . S
C1593 H1585 0.930 . S
C1593 C1591 1.419 . S
C1593 C1594 1.362 . S
C1594 H1586 0.930 . S
C1594 C1593 1.362 . S
C1594 C1597 1.409 . S
C1595 H1587 0.930 . S
C1595 C1596 1.355 . S
C1595 C1597 1.415 . S
C1596 C1595 1.355 . S
C1596 C1598 1.419 . S
C1597 C1592 1.425 . S
C1597 C1594 1.409 . S
C1597 C1595 1.415 . S
C1598 H1588 0.930 . S
C1598 C1596 1.419 . S
C1598 C1599 1.362 . S
C1599 H1589 0.930 . S
C1599 C1592 1.409 . S
C1599 C1598 1.362 . S
H1600 C1606 0.930 . S
H1601 C1609 0.930 . S
H1602 C1610 0.930 . S
H1603 C1611 0.930 . S
H1604 C1614 0.930 . S
H1605 C1615 0.930 . S
C1606 H1600 0.930 . S
C1606 C1607 1.355 . S
C1606 C1608 1.415 . S
C1607 C1606 1.355 . S
C1607 C1609 1.419 . S
C1608 C1606 1.415 . S
C1608 C1613 1.425 . S
C1608 C1615 1.409 . S
C1609 H1601 0.930 . S
C1609 C1607 1.419 . S
C1609 C1610 1.362 . S
C1610 H1602 0.930 . S
C1610 C1609 1.362 . S
C1610 C1613 1.409 . S
C1611 H1603 0.930 . S
C1611 C1612 1.355 . S
C1611 C1613 1.415 . S
C1612 C1611 1.355 . S
C1612 C1614 1.419 . S
C1613 C1608 1.425 . S
C1613 C1610 1.409 . S
C1613 C1611 1.415 . S
C1614 H1604 0.930 . S
C1614 C1612 1.419 . S
C1614 C1615 1.362 . S
C1615 H1605 0.930 . S
C1615 C1608 1.409 . S
C1615 C1614 1.362 . S
H1616 C1622 0.930 . S
H1617 C1625 0.930 . S
H1618 C1626 0.930 . S
H1619 C1627 0.930 . S
H1620 C1630 0.930 . S
H1621 C1631 0.930 . S
C1622 H1616 0.930 . S
C1622 C1623 1.355 . S
C1622 C1624 1.415 . S
C1623 C1622 1.355 . S
C1623 C1625 1.419 . S
C1624 C1622 1.415 . S
C1624 C1629 1.425 . S
C1624 C1631 1.409 . S
C1625 H1617 0.930 . S
C1625 C1623 1.419 . S
C1625 C1626 1.362 . S
C1626 H1618 0.930 . S
C1626 C1625 1.362 . S
C1626 C1629 1.409 . S
C1627 H1619 0.930 . S
C1627 C1628 1.355 . S
C1627 C1629 1.415 . S
C1628 C1627 1.355 . S
C1628 C1630 1.419 . S
C1629 C1624 1.425 . S
C1629 C1626 1.409 . S
C1629 C1627 1.415 . S
C1630 H1620 0.930 . S
C1630 C1628 1.419 . S
C1630 C1631 1.362 . S
C1631 H1621 0.930 . S
C1631 C1624 1.409 . S
C1631 C1630 1.362 . S
H1632 C1638 0.930 . S
H1633 C1641 0.930 . S
H1634 C1642 0.930 . S
H1635 C1643 0.930 . S
H1636 C1646 0.930 . S
H1637 C1647 0.930 . S
C1638 H1632 0.930 . S
C1638 C1639 1.355 . S
C1638 C1640 1.415 . S
C1639 C1638 1.355 . S
C1639 C1641 1.419 . S
C1640 C1638 1.415 . S
C1640 C1645 1.425 . S
C1640 C1647 1.409 . S
C1641 H1633 0.930 . S
C1641 C1639 1.419 . S
C1641 C1642 1.362 . S
C1642 H1634 0.930 . S
C1642 C1641 1.362 . S
C1642 C1645 1.409 . S
C1643 H1635 0.930 . S
C1643 C1644 1.355 . S
C1643 C1645 1.415 . S
C1644 C1643 1.355 . S
C1644 C1646 1.419 . S
C1645 C1640 1.425 . S
C1645 C1642 1.409 . S
C1645 C1643 1.415 . S
C1646 H1636 0.930 . S
C1646 C1644 1.419 . S
C1646 C1647 1.362 . S
C1647 H1637 0.930 . S
C1647 C1640 1.409 . S
C1647 C1646 1.362 . S
H1648 C1654 0.930 . S
H1649 C1657 0.930 . S
H1650 C1658 0.930 . S
H1651 C1659 0.930 . S
H1652 C1662 0.930 . S
H1653 C1663 0.930 . S
C1654 H1648 0.930 . S
C1654 C1655 1.355 . S
C1654 C1656 1.415 . S
C1655 C1654 1.355 . S
C1655 C1657 1.419 . S
C1656 C1654 1.415 . S
C1656 C1661 1.425 . S
C1656 C1663 1.409 . S
C1657 H1649 0.930 . S
C1657 C1655 1.419 . S
C1657 C1658 1.362 . S
C1658 H1650 0.930 . S
C1658 C1657 1.362 . S
C1658 C1661 1.409 . S
C1659 H1651 0.930 . S
C1659 C1660 1.355 . S
C1659 C1661 1.415 . S
C1660 C1659 1.355 . S
C1660 C1662 1.419 . S
C1661 C1656 1.425 . S
C1661 C1658 1.409 . S
C1661 C1659 1.415 . S
C1662 H1652 0.930 . S
C1662 C1660 1.419 . S
C1662 C1663 1.362 . S
C1663 H1653 0.930 . S
C1663 C1656 1.409 . S
C1663 C1662 1.362 . S
H1664 C1670 0.930 . S
H1665 C1673 0.930 . S
H1666 C1674 0.930 . S
H1667 C1675 0.930 . S
H1668 C1678 0.930 . S
H1669 C1679 0.930 . S
C1670 H1664 0.930 . S
C1670 C1671 1.355 . S
C1670 C1672 1.415 . S
C1671 C1670 1.355 . S
C1671 C1673 1.419 . S
C1672 C1670 1.415 . S
C1672 C1677 1.425 . S
C1672 C1679 1.409 . S
C1673 H1665 0.930 . S
C1673 C1671 1.419 . S
C1673 C1674 1.362 . S
C1674 H1666 0.930 . S
C1674 C1673 1.362 . S
C1674 C1677 1.409 . S
C1675 H1667 0.930 . S
C1675 C1676 1.355 . S
C1675 C1677 1.415 . S
C1676 C1675 1.355 . S
C1676 C1678 1.419 . S
C1677 C1672 1.425 . S
C1677 C1674 1.409 . S
C1677 C1675 1.415 . S
C1678 H1668 0.930 . S
C1678 C1676 1.419 . S
C1678 C1679 1.362 . S
C1679 H1669 0.930 . S
C1679 C1672 1.409 . S
C1679 C1678 1.362 . S
H1680 C1686 0.930 . S
H1681 C1689 0.930 . S
H1682 C1690 0.930 . S
H1683 C1691 0.930 . S
H1684 C1694 0.929 1_655 S
H1685 C1695 0.930 . S
C1686 H1680 0.930 . S
C1686 C1687 1.355 . S
C1686 C1688 1.415 . S
C1687 C1686 1.355 . S
C1687 C1689 1.419 . S
C1688 C1686 1.415 . S
C1688 C1693 1.425 . S
C1688 C1695 1.409 . S
C1689 H1681 0.930 . S
C1689 C1687 1.419 . S
C1689 C1690 1.362 . S
C1690 H1682 0.930 . S
C1690 C1689 1.362 . S
C1690 C1693 1.409 . S
C1691 H1683 0.930 . S
C1691 C1692 1.355 1_455 S
C1691 C1693 1.415 . S
C1692 C1691 1.355 1_655 S
C1692 C1694 1.419 1_655 S
C1693 C1688 1.425 . S
C1693 C1690 1.409 . S
C1693 C1691 1.415 . S
C1694 H1684 0.929 1_455 S
C1694 C1692 1.419 1_455 S
C1694 C1695 1.363 . S
C1695 H1685 0.930 . S
C1695 C1688 1.409 . S
C1695 C1694 1.363 . S
H1696 C1702 0.930 . S
H1697 C1705 0.930 . S
H1698 C1706 0.930 . S
H1699 C1707 0.930 . S
H1700 C1710 0.930 . S
H1701 C1711 0.930 . S
C1702 H1696 0.930 . S
C1702 C1703 1.355 . S
C1702 C1704 1.415 . S
C1703 C1702 1.355 . S
C1703 C1705 1.419 . S
C1704 C1702 1.415 . S
C1704 C1709 1.425 . S
C1704 C1711 1.409 . S
C1705 H1697 0.930 . S
C1705 C1703 1.419 . S
C1705 C1706 1.362 . S
C1706 H1698 0.930 . S
C1706 C1705 1.362 . S
C1706 C1709 1.409 . S
C1707 H1699 0.930 . S
C1707 C1708 1.355 . S
C1707 C1709 1.415 . S
C1708 C1707 1.355 . S
C1708 C1710 1.419 . S
C1709 C1704 1.425 . S
C1709 C1706 1.409 . S
C1709 C1707 1.415 . S
C1710 H1700 0.930 . S
C1710 C1708 1.419 . S
C1710 C1711 1.362 . S
C1711 H1701 0.930 . S
C1711 C1704 1.409 . S
C1711 C1710 1.362 . S
H1712 C1718 0.930 . S
H1713 C1721 0.930 . S
H1714 C1722 0.930 . S
H1715 C1723 0.930 . S
H1716 C1726 0.930 . S
H1717 C1727 0.930 . S
C1718 H1712 0.930 . S
C1718 C1719 1.355 . S
C1718 C1720 1.415 . S
C1719 C1718 1.355 . S
C1719 C1721 1.419 . S
C1720 C1718 1.415 . S
C1720 C1725 1.425 . S
C1720 C1727 1.409 . S
C1721 H1713 0.930 . S
C1721 C1719 1.419 . S
C1721 C1722 1.362 . S
C1722 H1714 0.930 . S
C1722 C1721 1.362 . S
C1722 C1725 1.409 . S
C1723 H1715 0.930 . S
C1723 C1724 1.355 . S
C1723 C1725 1.415 . S
C1724 C1723 1.355 . S
C1724 C1726 1.419 . S
C1725 C1720 1.425 . S
C1725 C1722 1.409 . S
C1725 C1723 1.415 . S
C1726 H1716 0.930 . S
C1726 C1724 1.419 . S
C1726 C1727 1.362 . S
C1727 H1717 0.930 . S
C1727 C1720 1.409 . S
C1727 C1726 1.362 . S
H1728 C1734 0.930 . S
H1729 C1737 0.930 . S
H1730 C1738 0.930 . S
H1731 C1739 0.930 . S
H1732 C1742 0.930 . S
H1733 C1743 0.930 . S
C1734 H1728 0.930 . S
C1734 C1735 1.355 . S
C1734 C1736 1.415 . S
C1735 C1734 1.355 . S
C1735 C1737 1.419 . S
C1736 C1734 1.415 . S
C1736 C1741 1.425 . S
C1736 C1743 1.409 . S
C1737 H1729 0.930 . S
C1737 C1735 1.419 . S
C1737 C1738 1.362 . S
C1738 H1730 0.930 . S
C1738 C1737 1.362 . S
C1738 C1741 1.409 . S
C1739 H1731 0.930 . S
C1739 C1740 1.355 . S
C1739 C1741 1.415 . S
C1740 C1739 1.355 . S
C1740 C1742 1.419 . S
C1741 C1736 1.425 . S
C1741 C1738 1.409 . S
C1741 C1739 1.415 . S
C1742 H1732 0.930 . S
C1742 C1740 1.419 . S
C1742 C1743 1.362 . S
C1743 H1733 0.930 . S
C1743 C1736 1.409 . S
C1743 C1742 1.362 . S
H1744 C1750 0.930 . S
H1745 C1753 0.930 . S
H1746 C1754 0.930 . S
H1747 C1755 0.930 . S
H1748 C1758 0.930 . S
H1749 C1759 0.930 . S
C1750 H1744 0.930 . S
C1750 C1751 1.355 . S
C1750 C1752 1.415 . S
C1751 C1750 1.355 . S
C1751 C1753 1.419 . S
C1752 C1750 1.415 . S
C1752 C1757 1.425 . S
C1752 C1759 1.409 . S
C1753 H1745 0.930 . S
C1753 C1751 1.419 . S
C1753 C1754 1.362 . S
C1754 H1746 0.930 . S
C1754 C1753 1.362 . S
C1754 C1757 1.409 . S
C1755 H1747 0.930 . S
C1755 C1756 1.355 . S
C1755 C1757 1.415 . S
C1756 C1755 1.355 . S
C1756 C1758 1.419 . S
C1757 C1752 1.425 . S
C1757 C1754 1.409 . S
C1757 C1755 1.415 . S
C1758 H1748 0.930 . S
C1758 C1756 1.419 . S
C1758 C1759 1.362 . S
C1759 H1749 0.930 . S
C1759 C1752 1.409 . S
C1759 C1758 1.362 . S
H1760 C1766 0.930 . S
H1761 C1769 0.930 . S
H1762 C1770 0.930 . S
H1763 C1771 0.930 . S
H1764 C1774 0.930 . S
H1765 C1775 0.930 . S
C1766 H1760 0.930 . S
C1766 C1767 1.355 . S
C1766 C1768 1.415 . S
C1767 C1766 1.355 . S
C1767 C1769 1.419 . S
C1768 C1766 1.415 . S
C1768 C1773 1.425 . S
C1768 C1775 1.409 . S
C1769 H1761 0.930 . S
C1769 C1767 1.419 . S
C1769 C1770 1.362 . S
C1770 H1762 0.930 . S
C1770 C1769 1.362 . S
C1770 C1773 1.409 . S
C1771 H1763 0.930 . S
C1771 C1772 1.355 . S
C1771 C1773 1.415 . S
C1772 C1771 1.355 . S
C1772 C1774 1.419 . S
C1773 C1768 1.425 . S
C1773 C1770 1.409 . S
C1773 C1771 1.415 . S
C1774 H1764 0.930 . S
C1774 C1772 1.419 . S
C1774 C1775 1.362 . S
C1775 H1765 0.930 . S
C1775 C1768 1.409 . S
C1775 C1774 1.362 . S
H1776 C1782 0.930 . S
H1777 C1785 0.930 . S
H1778 C1786 0.930 . S
H1779 C1787 0.930 . S
H1780 C1790 0.930 . S
H1781 C1791 0.930 . S
C1782 H1776 0.930 . S
C1782 C1783 1.355 . S
C1782 C1784 1.415 . S
C1783 C1782 1.355 . S
C1783 C1785 1.419 . S
C1784 C1782 1.415 . S
C1784 C1789 1.425 . S
C1784 C1791 1.409 . S
C1785 H1777 0.930 . S
C1785 C1783 1.419 . S
C1785 C1786 1.362 . S
C1786 H1778 0.930 . S
C1786 C1785 1.362 . S
C1786 C1789 1.409 . S
C1787 H1779 0.930 . S
C1787 C1788 1.355 1_455 S
C1787 C1789 1.415 . S
C1788 C1787 1.355 1_655 S
C1788 C1790 1.419 . S
C1789 C1784 1.425 . S
C1789 C1786 1.409 . S
C1789 C1787 1.415 . S
C1790 H1780 0.930 . S
C1790 C1788 1.419 . S
C1790 C1791 1.362 1_655 S
C1791 H1781 0.930 . S
C1791 C1784 1.409 . S
C1791 C1790 1.362 1_455 S
H1792 C1798 0.930 . S
H1793 C1801 0.930 . S
H1794 C1802 0.930 . S
H1795 C1803 0.930 . S
H1796 C1806 0.930 . S
H1797 C1807 0.930 . S
C1798 H1792 0.930 . S
C1798 C1799 1.355 . S
C1798 C1800 1.415 . S
C1799 C1798 1.355 . S
C1799 C1801 1.419 . S
C1800 C1798 1.415 . S
C1800 C1805 1.425 . S
C1800 C1807 1.409 . S
C1801 H1793 0.930 . S
C1801 C1799 1.419 . S
C1801 C1802 1.362 . S
C1802 H1794 0.930 . S
C1802 C1801 1.362 . S
C1802 C1805 1.409 . S
C1803 H1795 0.930 . S
C1803 C1804 1.355 . S
C1803 C1805 1.415 . S
C1804 C1803 1.355 . S
C1804 C1806 1.419 . S
C1805 C1800 1.425 . S
C1805 C1802 1.409 . S
C1805 C1803 1.415 . S
C1806 H1796 0.930 . S
C1806 C1804 1.419 . S
C1806 C1807 1.362 . S
C1807 H1797 0.930 . S
C1807 C1800 1.409 . S
C1807 C1806 1.362 . S
H1808 C1814 0.930 1_455 S
H1809 C1817 0.930 1_455 S
H1810 C1818 0.930 . S
H1811 C1819 0.930 . S
H1812 C1822 0.930 . S
H1813 C1823 0.930 . S
C1814 H1808 0.930 1_655 S
C1814 C1815 1.355 1_655 S
C1814 C1816 1.415 . S
C1815 C1814 1.355 1_455 S
C1815 C1817 1.419 1_455 S
C1816 C1814 1.415 . S
C1816 C1821 1.425 . S
C1816 C1823 1.409 . S
C1817 H1809 0.930 1_655 S
C1817 C1815 1.419 1_655 S
C1817 C1818 1.362 . S
C1818 H1810 0.930 . S
C1818 C1817 1.362 . S
C1818 C1821 1.409 . S
C1819 H1811 0.930 . S
C1819 C1820 1.355 . S
C1819 C1821 1.415 . S
C1820 C1819 1.355 . S
C1820 C1822 1.419 . S
C1821 C1816 1.425 . S
C1821 C1818 1.409 . S
C1821 C1819 1.415 . S
C1822 H1812 0.930 . S
C1822 C1820 1.419 . S
C1822 C1823 1.362 . S
C1823 H1813 0.930 . S
C1823 C1816 1.409 . S
C1823 C1822 1.362 . S
H1824 C1830 0.930 . S
H1825 C1833 0.930 . S
H1826 C1834 0.930 . S
H1827 C1835 0.930 . S
H1828 C1838 0.930 . S
H1829 C1839 0.930 . S
C1830 H1824 0.930 . S
C1830 C1831 1.355 . S
C1830 C1832 1.415 . S
C1831 C1830 1.355 . S
C1831 C1833 1.419 . S
C1832 C1830 1.415 . S
C1832 C1837 1.425 . S
C1832 C1839 1.409 . S
C1833 H1825 0.930 . S
C1833 C1831 1.419 . S
C1833 C1834 1.362 . S
C1834 H1826 0.930 . S
C1834 C1833 1.362 . S
C1834 C1837 1.409 . S
C1835 H1827 0.930 . S
C1835 C1836 1.355 . S
C1835 C1837 1.415 . S
C1836 C1835 1.355 . S
C1836 C1838 1.419 . S
C1837 C1832 1.425 . S
C1837 C1834 1.409 . S
C1837 C1835 1.415 . S
C1838 H1828 0.930 . S
C1838 C1836 1.419 . S
C1838 C1839 1.362 . S
C1839 H1829 0.930 . S
C1839 C1832 1.409 . S
C1839 C1838 1.362 . S
H1840 C1846 0.930 . S
H1841 C1849 0.930 . S
H1842 C1850 0.930 . S
H1843 C1851 0.930 . S
H1844 C1854 0.930 . S
H1845 C1855 0.930 . S
C1846 H1840 0.930 . S
C1846 C1847 1.355 . S
C1846 C1848 1.415 . S
C1847 C1846 1.355 . S
C1847 C1849 1.419 . S
C1848 C1846 1.415 . S
C1848 C1853 1.425 . S
C1848 C1855 1.409 . S
C1849 H1841 0.930 . S
C1849 C1847 1.419 . S
C1849 C1850 1.362 . S
C1850 H1842 0.930 . S
C1850 C1849 1.362 . S
C1850 C1853 1.409 . S
C1851 H1843 0.930 . S
C1851 C1852 1.355 . S
C1851 C1853 1.415 . S
C1852 C1851 1.355 . S
C1852 C1854 1.419 . S
C1853 C1848 1.425 . S
C1853 C1850 1.409 . S
C1853 C1851 1.415 . S
C1854 H1844 0.930 . S
C1854 C1852 1.419 . S
C1854 C1855 1.362 . S
C1855 H1845 0.930 . S
C1855 C1848 1.409 . S
C1855 C1854 1.362 . S
H1856 C1862 0.930 . S
H1857 C1865 0.930 . S
H1858 C1866 0.930 . S
H1859 C1867 0.930 . S
H1860 C1870 0.930 . S
H1861 C1871 0.930 . S
C1862 H1856 0.930 . S
C1862 C1863 1.355 . S
C1862 C1864 1.415 . S
C1863 C1862 1.355 . S
C1863 C1865 1.419 . S
C1864 C1862 1.415 . S
C1864 C1869 1.425 . S
C1864 C1871 1.409 . S
C1865 H1857 0.930 . S
C1865 C1863 1.419 . S
C1865 C1866 1.362 . S
C1866 H1858 0.930 . S
C1866 C1865 1.362 . S
C1866 C1869 1.409 . S
C1867 H1859 0.930 . S
C1867 C1868 1.355 . S
C1867 C1869 1.415 . S
C1868 C1867 1.355 . S
C1868 C1870 1.419 . S
C1869 C1864 1.425 . S
C1869 C1866 1.409 . S
C1869 C1867 1.415 . S
C1870 H1860 0.930 . S
C1870 C1868 1.419 . S
C1870 C1871 1.362 . S
C1871 H1861 0.930 . S
C1871 C1864 1.409 . S
C1871 C1870 1.362 . S
H1872 C1878 0.930 . S
H1873 C1881 0.930 . S
H1874 C1882 0.930 . S
H1875 C1883 0.930 . S
H1876 C1886 0.930 . S
H1877 C1887 0.930 . S
C1878 H1872 0.930 . S
C1878 C1879 1.355 . S
C1878 C1880 1.415 . S
C1879 C1878 1.355 . S
C1879 C1881 1.419 . S
C1880 C1878 1.415 . S
C1880 C1885 1.425 . S
C1880 C1887 1.409 . S
C1881 H1873 0.930 . S
C1881 C1879 1.419 . S
C1881 C1882 1.362 . S
C1882 H1874 0.930 . S
C1882 C1881 1.362 . S
C1882 C1885 1.409 . S
C1883 H1875 0.930 . S
C1883 C1884 1.355 . S
C1883 C1885 1.415 . S
C1884 C1883 1.355 . S
C1884 C1886 1.419 . S
C1885 C1880 1.425 . S
C1885 C1882 1.409 . S
C1885 C1883 1.415 . S
C1886 H1876 0.930 . S
C1886 C1884 1.419 . S
C1886 C1887 1.362 . S
C1887 H1877 0.930 . S
C1887 C1880 1.409 . S
C1887 C1886 1.362 . S
H1888 C1894 0.930 . S
H1889 C1897 0.930 . S
H1890 C1898 0.930 . S
H1891 C1899 0.930 . S
H1892 C1902 0.930 . S
H1893 C1903 0.930 . S
C1894 H1888 0.930 . S
C1894 C1895 1.355 . S
C1894 C1896 1.415 . S
C1895 C1894 1.355 . S
C1895 C1897 1.419 . S
C1896 C1894 1.415 . S
C1896 C1901 1.425 . S
C1896 C1903 1.409 . S
C1897 H1889 0.930 . S
C1897 C1895 1.419 . S
C1897 C1898 1.362 . S
C1898 H1890 0.930 . S
C1898 C1897 1.362 . S
C1898 C1901 1.409 . S
C1899 H1891 0.930 . S
C1899 C1900 1.355 . S
C1899 C1901 1.415 . S
C1900 C1899 1.355 . S
C1900 C1902 1.419 . S
C1901 C1896 1.425 . S
C1901 C1898 1.409 . S
C1901 C1899 1.415 . S
C1902 H1892 0.930 . S
C1902 C1900 1.419 . S
C1902 C1903 1.362 . S
C1903 H1893 0.930 . S
C1903 C1896 1.409 . S
C1903 C1902 1.362 . S
H1904 C1910 0.930 . S
H1905 C1913 0.930 . S
H1906 C1914 0.930 . S
H1907 C1915 0.930 . S
H1908 C1918 0.930 . S
H1909 C1919 0.930 . S
C1910 H1904 0.930 . S
C1910 C1911 1.355 1_655 S
C1910 C1912 1.415 . S
C1911 C1910 1.355 1_455 S
C1911 C1913 1.419 . S
C1912 C1910 1.415 . S
C1912 C1917 1.425 . S
C1912 C1919 1.409 . S
C1913 H1905 0.930 . S
C1913 C1911 1.419 . S
C1913 C1914 1.362 1_455 S
C1914 H1906 0.930 . S
C1914 C1913 1.362 1_655 S
C1914 C1917 1.409 . S
C1915 H1907 0.930 . S
C1915 C1916 1.355 . S
C1915 C1917 1.415 . S
C1916 C1915 1.355 . S
C1916 C1918 1.419 . S
C1917 C1912 1.425 . S
C1917 C1914 1.409 . S
C1917 C1915 1.415 . S
C1918 H1908 0.930 . S
C1918 C1916 1.419 . S
C1918 C1919 1.362 . S
C1919 H1909 0.930 . S
C1919 C1912 1.409 . S
C1919 C1918 1.362 . S
H1920 C1926 0.930 . S
H1921 C1929 0.930 . S
H1922 C1930 0.930 . S
H1923 C1931 0.930 . S
H1924 C1934 0.930 . S
H1925 C1935 0.930 . S
C1926 H1920 0.930 . S
C1926 C1927 1.355 . S
C1926 C1928 1.415 . S
C1927 C1926 1.355 . S
C1927 C1929 1.419 . S
C1928 C1926 1.415 . S
C1928 C1933 1.425 . S
C1928 C1935 1.409 . S
C1929 H1921 0.930 . S
C1929 C1927 1.419 . S
C1929 C1930 1.362 . S
C1930 H1922 0.930 . S
C1930 C1929 1.362 . S
C1930 C1933 1.409 . S
C1931 H1923 0.930 . S
C1931 C1932 1.355 . S
C1931 C1933 1.415 . S
C1932 C1931 1.355 . S
C1932 C1934 1.419 . S
C1933 C1928 1.425 . S
C1933 C1930 1.409 . S
C1933 C1931 1.415 . S
C1934 H1924 0.930 . S
C1934 C1932 1.419 . S
C1934 C1935 1.362 . S
C1935 H1925 0.930 . S
C1935 C1928 1.409 . S
C1935 C1934 1.362 . S
H1936 C1942 0.930 . S
H1937 C1945 0.930 . S
H1938 C1946 0.930 . S
H1939 C1947 0.930 . S
H1940 C1950 0.930 . S
H1941 C1951 0.930 . S
C1942 H1936 0.930 . S
C1942 C1943 1.355 . S
C1942 C1944 1.415 . S
C1943 C1942 1.355 . S
C1943 C1945 1.419 . S
C1944 C1942 1.415 . S
C1944 C1949 1.425 . S
C1944 C1951 1.409 . S
C1945 H1937 0.930 . S
C1945 C1943 1.419 . S
C1945 C1946 1.362 . S
C1946 H1938 0.930 . S
C1946 C1945 1.362 . S
C1946 C1949 1.409 . S
C1947 H1939 0.930 . S
C1947 C1948 1.355 . S
C1947 C1949 1.415 . S
C1948 C1947 1.355 . S
C1948 C1950 1.419 . S
C1949 C1944 1.425 . S
C1949 C1946 1.409 . S
C1949 C1947 1.415 . S
C1950 H1940 0.930 . S
C1950 C1948 1.419 . S
C1950 C1951 1.362 . S
C1951 H1941 0.930 . S
C1951 C1944 1.409 . S
C1951 C1950 1.362 . S
H1952 C1958 0.930 . S
H1953 C1961 0.930 . S
H1954 C1962 0.930 . S
H1955 C1963 0.930 . S
H1956 C1966 0.930 . S
H1957 C1967 0.930 . S
C1958 H1952 0.930 . S
C1958 C1959 1.355 . S
C1958 C1960 1.415 . S
C1959 C1958 1.355 . S
C1959 C1961 1.419 . S
C1960 C1958 1.415 . S
C1960 C1965 1.425 . S
C1960 C1967 1.409 . S
C1961 H1953 0.930 . S
C1961 C1959 1.419 . S
C1961 C1962 1.362 . S
C1962 H1954 0.930 . S
C1962 C1961 1.362 . S
C1962 C1965 1.409 . S
C1963 H1955 0.930 . S
C1963 C1964 1.355 . S
C1963 C1965 1.415 . S
C1964 C1963 1.355 . S
C1964 C1966 1.419 . S
C1965 C1960 1.425 . S
C1965 C1962 1.409 . S
C1965 C1963 1.415 . S
C1966 H1956 0.930 . S
C1966 C1964 1.419 . S
C1966 C1967 1.362 . S
C1967 H1957 0.930 . S
C1967 C1960 1.409 . S
C1967 C1966 1.362 . S
H1968 C1974 0.930 . S
H1969 C1977 0.930 . S
H1970 C1978 0.930 . S
H1971 C1979 0.930 . S
H1972 C1982 0.930 . S
H1973 C1983 0.930 . S
C1974 H1968 0.930 . S
C1974 C1975 1.355 . S
C1974 C1976 1.415 . S
C1975 C1974 1.355 . S
C1975 C1977 1.419 . S
C1976 C1974 1.415 . S
C1976 C1981 1.425 . S
C1976 C1983 1.409 . S
C1977 H1969 0.930 . S
C1977 C1975 1.419 . S
C1977 C1978 1.362 . S
C1978 H1970 0.930 . S
C1978 C1977 1.362 . S
C1978 C1981 1.409 . S
C1979 H1971 0.930 . S
C1979 C1980 1.355 . S
C1979 C1981 1.415 1_455 S
C1980 C1979 1.355 . S
C1980 C1982 1.419 1_455 S
C1981 C1976 1.425 . S
C1981 C1978 1.409 . S
C1981 C1979 1.415 1_655 S
C1982 H1972 0.930 . S
C1982 C1980 1.419 1_655 S
C1982 C1983 1.362 . S
C1983 H1973 0.930 . S
C1983 C1976 1.409 . S
C1983 C1982 1.362 . S
H1984 C1990 0.930 . S
H1985 C1993 0.930 . S
H1986 C1994 0.930 . S
H1987 C1995 0.930 . S
H1988 C1998 0.930 . S
H1989 C1999 0.930 . S
C1990 H1984 0.930 . S
C1990 C1991 1.355 . S
C1990 C1992 1.415 . S
C1991 C1990 1.355 . S
C1991 C1993 1.419 . S
C1992 C1990 1.415 . S
C1992 C1997 1.425 . S
C1992 C1999 1.409 . S
C1993 H1985 0.930 . S
C1993 C1991 1.419 . S
C1993 C1994 1.362 . S
C1994 H1986 0.930 . S
C1994 C1993 1.362 . S
C1994 C1997 1.409 . S
C1995 H1987 0.930 . S
C1995 C1996 1.355 . S
C1995 C1997 1.415 . S
C1996 C1995 1.355 . S
C1996 C1998 1.419 . S
C1997 C1992 1.425 . S
C1997 C1994 1.409 . S
C1997 C1995 1.415 . S
C1998 H1988 0.930 . S
C1998 C1996 1.419 . S
C1998 C1999 1.362 . S
C1999 H1989 0.930 . S
C1999 C1992 1.409 . S
C1999 C1998 1.362 . S
H2000 C2006 0.930 . S
H2001 C2009 0.930 . S
H2002 C2010 0.930 . S
H2003 C2011 0.930 . S
H2004 C2014 0.930 . S
H2005 C2015 0.930 . S
C2006 H2000 0.930 . S
C2006 C2007 1.355 1_655 S
C2006 C2008 1.415 . S
C2007 C2006 1.355 1_455 S
C2007 C2009 1.419 . S
C2008 C2006 1.415 . S
C2008 C2013 1.425 . S
C2008 C2015 1.409 . S
C2009 H2001 0.930 . S
C2009 C2007 1.419 . S
C2009 C2010 1.362 1_455 S
C2010 H2002 0.930 . S
C2010 C2009 1.362 1_655 S
C2010 C2013 1.409 . S
C2011 H2003 0.930 . S
C2011 C2012 1.355 . S
C2011 C2013 1.415 . S
C2012 C2011 1.355 . S
C2012 C2014 1.419 . S
C2013 C2008 1.425 . S
C2013 C2010 1.409 . S
C2013 C2011 1.415 . S
C2014 H2004 0.930 . S
C2014 C2012 1.419 . S
C2014 C2015 1.362 . S
C2015 H2005 0.930 . S
C2015 C2008 1.409 . S
C2015 C2014 1.362 . S
H2016 C2022 0.930 . S
H2017 C2025 0.930 . S
H2018 C2026 0.930 . S
H2019 C2027 0.930 . S
H2020 C2030 0.930 . S
H2021 C2031 0.930 . S
C2022 H2016 0.930 . S
C2022 C2023 1.355 . S
C2022 C2024 1.415 . S
C2023 C2022 1.355 . S
C2023 C2025 1.419 . S
C2024 C2022 1.415 . S
C2024 C2029 1.425 . S
C2024 C2031 1.409 . S
C2025 H2017 0.930 . S
C2025 C2023 1.419 . S
C2025 C2026 1.362 . S
C2026 H2018 0.930 . S
C2026 C2025 1.362 . S
C2026 C2029 1.409 . S
C2027 H2019 0.930 . S
C2027 C2028 1.355 . S
C2027 C2029 1.415 . S
C2028 C2027 1.355 . S
C2028 C2030 1.419 . S
C2029 C2024 1.425 . S
C2029 C2026 1.409 . S
C2029 C2027 1.415 . S
C2030 H2020 0.930 . S
C2030 C2028 1.419 . S
C2030 C2031 1.362 . S
C2031 H2021 0.930 . S
C2031 C2024 1.409 . S
C2031 C2030 1.362 . S
H2032 C2038 0.930 . S
H2033 C2041 0.930 . S
H2034 C2042 0.930 . S
H2035 C2043 0.930 . S
H2036 C2046 0.930 . S
H2037 C2047 0.930 . S
C2038 H2032 0.930 . S
C2038 C2039 1.355 . S
C2038 C2040 1.415 . S
C2039 C2038 1.355 . S
C2039 C2041 1.419 . S
C2040 C2038 1.415 . S
C2040 C2045 1.425 . S
C2040 C2047 1.409 . S
C2041 H2033 0.930 . S
C2041 C2039 1.419 . S
C2041 C2042 1.362 . S
C2042 H2034 0.930 . S
C2042 C2041 1.362 . S
C2042 C2045 1.409 . S
C2043 H2035 0.930 . S
C2043 C2044 1.355 . S
C2043 C2045 1.415 . S
C2044 C2043 1.355 . S
C2044 C2046 1.419 . S
C2045 C2040 1.425 . S
C2045 C2042 1.409 . S
C2045 C2043 1.415 . S
C2046 H2036 0.930 . S
C2046 C2044 1.419 . S
C2046 C2047 1.362 . S
C2047 H2037 0.930 . S
C2047 C2040 1.409 . S
C2047 C2046 1.362 . S
H2048 C2054 0.930 . S
H2049 C2057 0.930 . S
H2050 C2058 0.930 . S
H2051 C2059 0.930 . S
H2052 C2062 0.930 . S
H2053 C2063 0.930 . S
C2054 H2048 0.930 . S
C2054 C2055 1.355 . S
C2054 C2056 1.415 . S
C2055 C2054 1.355 . S
C2055 C2057 1.419 . S
C2056 C2054 1.415 . S
C2056 C2061 1.425 . S
C2056 C2063 1.409 . S
C2057 H2049 0.930 . S
C2057 C2055 1.419 . S
C2057 C2058 1.362 . S
C2058 H2050 0.930 . S
C2058 C2057 1.362 . S
C2058 C2061 1.409 . S
C2059 H2051 0.930 . S
C2059 C2060 1.355 . S
C2059 C2061 1.415 . S
C2060 C2059 1.355 . S
C2060 C2062 1.419 . S
C2061 C2056 1.425 . S
C2061 C2058 1.409 . S
C2061 C2059 1.415 . S
C2062 H2052 0.930 . S
C2062 C2060 1.419 . S
C2062 C2063 1.362 . S
C2063 H2053 0.930 . S
C2063 C2056 1.409 . S
C2063 C2062 1.362 . S
H2064 C2070 0.930 . S
H2065 C2073 0.930 . S
H2066 C2074 0.930 . S
H2067 C2075 0.930 . S
H2068 C2078 0.930 . S
H2069 C2079 0.930 . S
C2070 H2064 0.930 . S
C2070 C2071 1.355 . S
C2070 C2072 1.415 . S
C2071 C2070 1.355 . S
C2071 C2073 1.419 . S
C2072 C2070 1.415 . S
C2072 C2077 1.425 . S
C2072 C2079 1.409 . S
C2073 H2065 0.930 . S
C2073 C2071 1.419 . S
C2073 C2074 1.362 . S
C2074 H2066 0.930 . S
C2074 C2073 1.362 . S
C2074 C2077 1.409 . S
C2075 H2067 0.930 . S
C2075 C2076 1.355 . S
C2075 C2077 1.415 . S
C2076 C2075 1.355 . S
C2076 C2078 1.419 . S
C2077 C2072 1.425 . S
C2077 C2074 1.409 . S
C2077 C2075 1.415 . S
C2078 H2068 0.930 . S
C2078 C2076 1.419 . S
C2078 C2079 1.362 . S
C2079 H2069 0.930 . S
C2079 C2072 1.409 . S
C2079 C2078 1.362 . S
H2080 C2086 0.930 . S
H2081 C2089 0.930 . S
H2082 C2090 0.930 . S
H2083 C2091 0.930 . S
H2084 C2094 0.930 . S
H2085 C2095 0.930 . S
C2086 H2080 0.930 . S
C2086 C2087 1.355 . S
C2086 C2088 1.415 . S
C2087 C2086 1.355 . S
C2087 C2089 1.419 . S
C2088 C2086 1.415 . S
C2088 C2093 1.425 . S
C2088 C2095 1.409 . S
C2089 H2081 0.930 . S
C2089 C2087 1.419 . S
C2089 C2090 1.362 . S
C2090 H2082 0.930 . S
C2090 C2089 1.362 . S
C2090 C2093 1.409 . S
C2091 H2083 0.930 . S
C2091 C2092 1.355 . S
C2091 C2093 1.415 . S
C2092 C2091 1.355 . S
C2092 C2094 1.419 . S
C2093 C2088 1.425 . S
C2093 C2090 1.409 . S
C2093 C2091 1.415 . S
C2094 H2084 0.930 . S
C2094 C2092 1.419 . S
C2094 C2095 1.362 . S
C2095 H2085 0.930 . S
C2095 C2088 1.409 . S
C2095 C2094 1.362 . S
H2096 C2102 0.930 . S
H2097 C2105 0.924 1_655 S
H2098 C2106 0.930 . S
H2099 C2107 0.930 . S
H2100 C2110 0.930 . S
H2101 C2111 0.930 . S
C2102 H2096 0.930 . S
C2102 C2103 1.355 1_455 S
C2102 C2104 1.415 . S
C2103 C2102 1.355 1_655 S
C2103 C2105 1.416 1_655 S
C2104 C2102 1.415 . S
C2104 C2109 1.425 . S
C2104 C2111 1.409 . S
C2105 H2097 0.924 1_455 S
C2105 C2103 1.416 1_455 S
C2105 C2106 1.371 . S
C2106 H2098 0.930 . S
C2106 C2105 1.371 . S
C2106 C2109 1.409 . S
C2107 H2099 0.930 . S
C2107 C2108 1.355 . S
C2107 C2109 1.415 . S
C2108 C2107 1.355 . S
C2108 C2110 1.419 . S
C2109 C2104 1.425 . S
C2109 C2106 1.409 . S
C2109 C2107 1.415 . S
C2110 H2100 0.930 . S
C2110 C2108 1.419 . S
C2110 C2111 1.362 . S
C2111 H2101 0.930 . S
C2111 C2104 1.409 . S
C2111 C2110 1.362 . S
H2112 C2118 0.930 . S
H2113 C2121 0.930 . S
H2114 C2122 0.930 . S
H2115 C2123 0.930 . S
H2116 C2126 0.930 . S
H2117 C2127 0.930 . S
C2118 H2112 0.930 . S
C2118 C2119 1.355 . S
C2118 C2120 1.415 . S
C2119 C2118 1.355 . S
C2119 C2121 1.419 . S
C2120 C2118 1.415 . S
C2120 C2125 1.425 . S
C2120 C2127 1.409 . S
C2121 H2113 0.930 . S
C2121 C2119 1.419 . S
C2121 C2122 1.362 . S
C2122 H2114 0.930 . S
C2122 C2121 1.362 . S
C2122 C2125 1.409 . S
C2123 H2115 0.930 . S
C2123 C2124 1.355 . S
C2123 C2125 1.415 . S
C2124 C2123 1.355 . S
C2124 C2126 1.419 . S
C2125 C2120 1.425 . S
C2125 C2122 1.409 . S
C2125 C2123 1.415 . S
C2126 H2116 0.930 . S
C2126 C2124 1.419 . S
C2126 C2127 1.362 . S
C2127 H2117 0.930 . S
C2127 C2120 1.409 . S
C2127 C2126 1.362 . S
H2128 C2134 0.930 . S
H2129 C2137 0.930 . S
H2130 C2138 0.930 . S
H2131 C2139 0.930 . S
H2132 C2142 0.930 . S
H2133 C2143 0.930 . S
C2134 H2128 0.930 . S
C2134 C2135 1.355 . S
C2134 C2136 1.415 . S
C2135 C2134 1.355 . S
C2135 C2137 1.419 . S
C2136 C2134 1.415 . S
C2136 C2141 1.425 . S
C2136 C2143 1.409 . S
C2137 H2129 0.930 . S
C2137 C2135 1.419 . S
C2137 C2138 1.362 . S
C2138 H2130 0.930 . S
C2138 C2137 1.362 . S
C2138 C2141 1.409 . S
C2139 H2131 0.930 . S
C2139 C2140 1.355 1_455 S
C2139 C2141 1.415 . S
C2140 C2139 1.355 1_655 S
C2140 C2142 1.419 . S
C2141 C2136 1.425 . S
C2141 C2138 1.409 . S
C2141 C2139 1.415 . S
C2142 H2132 0.930 . S
C2142 C2140 1.419 . S
C2142 C2143 1.362 1_655 S
C2143 H2133 0.930 . S
C2143 C2136 1.409 . S
C2143 C2142 1.362 1_455 S
H2144 C2150 0.930 . S
H2145 C2153 0.930 . S
H2146 C2154 0.930 . S
H2147 C2155 0.930 . S
H2148 C2158 0.930 . S
H2149 C2159 0.930 . S
C2150 H2144 0.930 . S
C2150 C2151 1.355 . S
C2150 C2152 1.415 . S
C2151 C2150 1.355 . S
C2151 C2153 1.419 . S
C2152 C2150 1.415 . S
C2152 C2157 1.425 . S
C2152 C2159 1.409 . S
C2153 H2145 0.930 . S
C2153 C2151 1.419 . S
C2153 C2154 1.362 . S
C2154 H2146 0.930 . S
C2154 C2153 1.362 . S
C2154 C2157 1.409 . S
C2155 H2147 0.930 . S
C2155 C2156 1.355 . S
C2155 C2157 1.415 . S
C2156 C2155 1.355 . S
C2156 C2158 1.419 . S
C2157 C2152 1.425 . S
C2157 C2154 1.409 . S
C2157 C2155 1.415 . S
C2158 H2148 0.930 . S
C2158 C2156 1.419 . S
C2158 C2159 1.362 . S
C2159 H2149 0.930 . S
C2159 C2152 1.409 . S
C2159 C2158 1.362 . S
H2160 C2166 0.930 . S
H2161 C2169 0.930 . S
H2162 C2170 0.930 . S
H2163 C2171 0.930 . S
H2164 C2174 0.930 . S
H2165 C2175 0.930 . S
C2166 H2160 0.930 . S
C2166 C2167 1.355 . S
C2166 C2168 1.415 . S
C2167 C2166 1.355 . S
C2167 C2169 1.419 . S
C2168 C2166 1.415 . S
C2168 C2173 1.425 . S
C2168 C2175 1.409 . S
C2169 H2161 0.930 . S
C2169 C2167 1.419 . S
C2169 C2170 1.362 . S
C2170 H2162 0.930 . S
C2170 C2169 1.362 . S
C2170 C2173 1.409 . S
C2171 H2163 0.930 . S
C2171 C2172 1.355 . S
C2171 C2173 1.415 . S
C2172 C2171 1.355 . S
C2172 C2174 1.419 . S
C2173 C2168 1.425 . S
C2173 C2170 1.409 . S
C2173 C2171 1.415 . S
C2174 H2164 0.930 . S
C2174 C2172 1.419 . S
C2174 C2175 1.362 . S
C2175 H2165 0.930 . S
C2175 C2168 1.409 . S
C2175 C2174 1.362 . S
C1159 C148 1.504 . S
C1164 C4 1.498 . S
C1175 C184 1.501 . S
C1180 C40 1.495 . S
C1191 C220 1.497 . S
C1196 C76 1.493 . S
C1207 C112 1.492 . S
C1212 C256 1.493 . S
C1223 C292 1.504 . S
C1228 C436 1.507 . S
C1239 C472 1.492 . S
C1244 C328 1.493 . S
C1255 C364 1.496 . S
C1260 C508 1.502 . S
C1271 C544 1.492 . S
C1276 C400 1.493 . S
C1287 C580 1.506 . S
C1292 C724 1.506 . S
C1303 C760 1.506 . S
C1308 C616 1.505 . S
C1319 C796 1.493 . S
C1324 C652 1.492 . S
C1335 C832 1.497 . S
C1340 C688 1.493 . S
C1351 C868 1.502 . S
C1356 C1012 1.506 . S
C1367 C904 1.496 . S
C1372 C1048 1.492 . S
C1383 C940 1.504 . S
C1388 C1084 1.507 . S
C1399 C976 1.499 . S
C1404 C1120 1.494 . S
C1415 C14 1.113 1_565 S
C1420 C266 1.176 . S
C1431 C50 1.111 . S
C1436 C158 1.092 1_545 S
C1447 C86 1.115 1_545 S
C1452 C194 1.089 . S
C1463 C230 1.105 1_565 S
C1468 C122 1.096 . S
C1479 C554 1.140 . S
C1484 C302 1.082 1_545 S
C1495 C446 1.157 1_565 S
C1500 C338 1.162 . S
C1511 C482 1.103 . S
C1516 C374 1.173 1_565 S
C1527 C410 1.108 . S
C1532 C518 1.175 1_545 S
C1543 C842 1.176 . S
C1548 C590 1.114 . S
C1559 C734 1.128 . S
C1564 C626 1.176 . S
C1575 C770 1.142 . S
C1580 C662 1.172 . S
C1591 C698 1.082 . S
C1596 C806 1.142 . S
C1607 C878 1.129 . S
C1612 C1130 1.176 . S
C1623 C914 1.088 . S
C1628 C1022 1.161 . S
C1639 C950 1.173 . S
C1644 C1058 1.103 . S
C1655 C1094 1.116 . S
C1660 C986 1.089 . S
C1671 C3 1.458 . S
C1676 C902 1.428 . S
C1687 C39 1.458 . S
C1692 C362 1.416 . S
C1703 C75 1.462 . S
C1708 C974 1.461 . S
C1719 C290 1.460 . S
C1724 C111 1.461 . S
C1735 C1118 1.433 . S
C1740 C147 1.464 . S
C1751 C183 1.458 . S
C1756 C434 1.415 . S
C1767 C219 1.461 . S
C1772 C1046 1.409 . S
C1783 C255 1.461 . S
C1788 C506 1.409 . S
C1799 C614 1.421 . S
C1804 C291 1.458 . S
C1815 C74 1.427 . S
C1820 C327 1.458 . S
C1831 C686 1.410 . S
C1836 C363 1.461 . S
C1847 C399 1.464 . S
C1852 C2 1.447 . S
C1863 C830 1.410 . S
C1868 C435 1.459 . S
C1879 C146 1.455 . S
C1884 C471 1.464 . S
C1895 C758 1.408 . S
C1900 C507 1.459 . S
C1911 C218 1.424 . S
C1916 C543 1.463 . S
C1927 C326 1.450 . S
C1932 C579 1.460 . S
C1943 C615 1.464 . S
C1948 C938 1.435 . S
C1959 C651 1.462 . S
C1964 C398 1.413 . S
C1975 C687 1.461 . S
C1980 C866 1.457 . S
C1991 C723 1.461 . S
C1996 C542 1.410 . S
C2007 C1010 1.432 . S
C2012 C759 1.464 . S
C2023 C795 1.464 . S
C2028 C470 1.442 . S
C2039 C831 1.463 . S
C2044 C1082 1.426 . S
C2055 C867 1.458 . S
C2060 C38 1.419 . S
C2071 C903 1.464 . S
C2076 C650 1.451 . S
C2087 C110 1.452 . S
C2092 C939 1.464 . S
C2103 C578 1.416 . S
C2108 C975 1.458 . S
C2119 C1011 1.459 . S
C2124 C254 1.408 . S
C2135 C1047 1.463 . S
C2140 C722 1.459 . S
C2151 C182 1.413 . S
C2156 C1083 1.462 . S
C2167 C794 1.461 . S
C2172 C1119 1.462 . S
