# Generated by pormake.
# Topology zfe, (5)-cn, num edge types: 1
# Building blocks:
#     Node 0, Type 0, BuildingBlock: XOMCOT_clean_sbu_0, # of connection points: 5
#     Node 1, Type 0, BuildingBlock: XOMCOT_clean_sbu_0, # of connection points: 5
#     Node 2, Type 0, BuildingBlock: XOMCOT_clean_sbu_0, # of connection points: 5
#     Node 3, Type 0, BuildingBlock: XOMCOT_clean_sbu_0, # of connection points: 5
#     Node 4, Type 0, BuildingBlock: XOMCOT_clean_sbu_0, # of connection points: 5
#     Node 5, Type 0, BuildingBlock: XOMCOT_clean_sbu_0, # of connection points: 5
#     Node 6, Type 0, BuildingBlock: XOMCOT_clean_sbu_0, # of connection points: 5
#     Node 7, Type 0, BuildingBlock: XOMCOT_clean_sbu_0, # of connection points: 5
#     Node 8, Type 0, BuildingBlock: XOMCOT_clean_sbu_0, # of connection points: 5
#     Node 9, Type 0, BuildingBlock: XOMCOT_clean_sbu_0, # of connection points: 5
#     Node 10, Type 0, BuildingBlock: XOMCOT_clean_sbu_0, # of connection points: 5
#     Node 11, Type 0, BuildingBlock: XOMCOT_clean_sbu_0, # of connection points: 5
#     Node 12, Type 0, BuildingBlock: XOMCOT_clean_sbu_0, # of connection points: 5
#     Node 13, Type 0, BuildingBlock: XOMCOT_clean_sbu_0, # of connection points: 5
#     Node 14, Type 0, BuildingBlock: XOMCOT_clean_sbu_0, # of connection points: 5
#     Node 15, Type 0, BuildingBlock: XOMCOT_clean_sbu_0, # of connection points: 5
#     Edge 16, Type (0, 0), BuildingBlock: XUDNAN_clean_linker_2, # of connection points: 2
#     Edge 17, Type (0, 0), BuildingBlock: XUDNAN_clean_linker_2, # of connection points: 2
#     Edge 18, Type (0, 0), BuildingBlock: XUDNAN_clean_linker_2, # of connection points: 2
#     Edge 19, Type (0, 0), BuildingBlock: XUDNAN_clean_linker_2, # of connection points: 2
#     Edge 20, Type (0, 0), BuildingBlock: XUDNAN_clean_linker_2, # of connection points: 2
#     Edge 21, Type (0, 0), BuildingBlock: XUDNAN_clean_linker_2, # of connection points: 2
#     Edge 22, Type (0, 0), BuildingBlock: XUDNAN_clean_linker_2, # of connection points: 2
#     Edge 23, Type (0, 0), BuildingBlock: XUDNAN_clean_linker_2, # of connection points: 2
#     Edge 24, Type (0, 0), BuildingBlock: XUDNAN_clean_linker_2, # of connection points: 2
#     Edge 25, Type (0, 0), BuildingBlock: XUDNAN_clean_linker_2, # of connection points: 2
#     Edge 26, Type (0, 0), BuildingBlock: XUDNAN_clean_linker_2, # of connection points: 2
#     Edge 27, Type (0, 0), BuildingBlock: XUDNAN_clean_linker_2, # of connection points: 2
#     Edge 28, Type (0, 0), BuildingBlock: XUDNAN_clean_linker_2, # of connection points: 2
#     Edge 29, Type (0, 0), BuildingBlock: XUDNAN_clean_linker_2, # of connection points: 2
#     Edge 30, Type (0, 0), BuildingBlock: XUDNAN_clean_linker_2, # of connection points: 2
#     Edge 31, Type (0, 0), BuildingBlock: XUDNAN_clean_linker_2, # of connection points: 2
#     Edge 32, Type (0, 0), BuildingBlock: XUDNAN_clean_linker_2, # of connection points: 2
#     Edge 33, Type (0, 0), BuildingBlock: XUDNAN_clean_linker_2, # of connection points: 2
#     Edge 34, Type (0, 0), BuildingBlock: XUDNAN_clean_linker_2, # of connection points: 2
#     Edge 35, Type (0, 0), BuildingBlock: XUDNAN_clean_linker_2, # of connection points: 2
#     Edge 36, Type (0, 0), BuildingBlock: XUDNAN_clean_linker_2, # of connection points: 2
#     Edge 37, Type (0, 0), BuildingBlock: XUDNAN_clean_linker_2, # of connection points: 2
#     Edge 38, Type (0, 0), BuildingBlock: XUDNAN_clean_linker_2, # of connection points: 2
#     Edge 39, Type (0, 0), BuildingBlock: XUDNAN_clean_linker_2, # of connection points: 2
#     Edge 40, Type (0, 0), BuildingBlock: XUDNAN_clean_linker_2, # of connection points: 2
#     Edge 41, Type (0, 0), BuildingBlock: XUDNAN_clean_linker_2, # of connection points: 2
#     Edge 42, Type (0, 0), BuildingBlock: XUDNAN_clean_linker_2, # of connection points: 2
#     Edge 43, Type (0, 0), BuildingBlock: XUDNAN_clean_linker_2, # of connection points: 2
#     Edge 44, Type (0, 0), BuildingBlock: XUDNAN_clean_linker_2, # of connection points: 2
#     Edge 45, Type (0, 0), BuildingBlock: XUDNAN_clean_linker_2, # of connection points: 2
#     Edge 46, Type (0, 0), BuildingBlock: XUDNAN_clean_linker_2, # of connection points: 2
#     Edge 47, Type (0, 0), BuildingBlock: XUDNAN_clean_linker_2, # of connection points: 2
#     Edge 48, Type (0, 0), BuildingBlock: XUDNAN_clean_linker_2, # of connection points: 2
#     Edge 49, Type (0, 0), BuildingBlock: XUDNAN_clean_linker_2, # of connection points: 2
#     Edge 50, Type (0, 0), BuildingBlock: XUDNAN_clean_linker_2, # of connection points: 2
#     Edge 51, Type (0, 0), BuildingBlock: XUDNAN_clean_linker_2, # of connection points: 2
#     Edge 52, Type (0, 0), BuildingBlock: XUDNAN_clean_linker_2, # of connection points: 2
#     Edge 53, Type (0, 0), BuildingBlock: XUDNAN_clean_linker_2, # of connection points: 2
#     Edge 54, Type (0, 0), BuildingBlock: XUDNAN_clean_linker_2, # of connection points: 2
#     Edge 55, Type (0, 0), BuildingBlock: XUDNAN_clean_linker_2, # of connection points: 2
# Relax obj value: 0.211
# Max RMSD: 0.180
# Mean RMSD: 0.180
data_MOF--net-zfe--node1-XOMCOT_clean_sbu_0--edge1-XUDNAN_clean_linker_2
_symmetry_space_group_name_H-M    P1
_symmetry_Int_Tables_number       1
_symmetry_cell_setting            triclinic
loop_
_symmetry_equiv_pos_as_xyz
'x, y, z'
_cell_length_a     55.059008
_cell_length_b     55.048968
_cell_length_c     27.629195
_cell_angle_alpha  90.001399
_cell_angle_beta   89.990098
_cell_angle_gamma 90.153814
loop_
_atom_site_label
_atom_site_type_symbol
_atom_site_fract_x
_atom_site_fract_y
_atom_site_fract_z
_atom_type_partial_charge
Co0 Co 0.04379 0.2296 0.05982 0.0
C1 C 0.08503 0.26535 0.04326 0.0
C2 C 0.05058 0.2769 0.01556 0.0
C3 C 0.0673 0.29482 1.00656 0.0
N4 N 0.0616 0.25817 0.03786 0.0
N5 N 0.08901 0.28771 0.02413 0.0
H6 H 0.09873 0.25512 0.06206 0.0
H7 H 0.03147 0.27751 1.00658 0.0
C8 C 0.03594 0.231 0.95316 0.0
O9 O 0.05942 0.23469 0.94836 0.0
N10 N 0.02515 0.20192 0.08183 0.0
C11 C 0.03289 0.18467 0.11272 0.0
C12 C 0.01346 0.17019 0.12517 0.0
C13 C 1.00115 0.1977 0.07565 0.0
N14 N 0.99357 0.17839 0.10188 0.0
C15 C 0.0902 0.20624 0.06466 0.0
C16 C 0.08033 0.17062 0.99686 0.0
C17 C 0.10198 0.16949 0.02311 0.0
C18 C 0.10695 0.18762 0.05719 0.0
C19 C 0.06383 0.18923 1.00621 0.0
N20 N 0.06908 0.20723 0.03879 0.0
H21 H 0.09353 0.21887 0.09373 0.0
H22 H 0.04619 0.18808 0.98944 0.0
H23 H 0.05116 0.18336 0.1268 0.0
H24 H 0.98927 0.2093 0.05475 0.0
O25 O 0.05464 0.23502 0.12547 0.0
O26 O 0.0214 0.25084 0.09327 0.0
O27 O 0.02669 0.22806 0.99526 0.0
C28 C 0.03528 0.24818 0.13107 0.0
H29 H 0.0636 0.3118 0.98834 0.0
H30 H 0.01376 0.15518 0.15049 0.0
H31 H 0.07542 0.1563 0.97176 0.0
H32 H 0.1232 0.18686 0.07924 0.0
Co33 Co 0.77183 0.04296 0.08641 0.0
C34 C 0.73997 0.08627 0.06423 0.0
C35 C 0.72013 0.05626 0.09423 0.0
C36 C 0.70434 0.07507 0.08732 0.0
N37 N 0.74273 0.0632 0.08087 0.0
N38 N 0.71671 0.09397 0.06874 0.0
H39 H 0.75456 0.0974 0.0501 0.0
H40 H 0.715 0.03872 0.10843 0.0
C41 C 0.76046 0.02371 0.98679 0.0
O42 O 0.74554 0.00774 1.00598 0.0
N43 N 0.80003 0.02232 0.09139 0.0
C44 C 0.81875 0.02452 0.12248 0.0
C45 C 0.83357 0.0045 0.11747 0.0
C46 C 0.80357 1.00109 0.06816 0.0
N47 N 0.82397 0.98984 0.08325 0.0
C48 C 0.79266 0.08833 0.11478 0.0
C49 C 0.83112 0.08716 0.0503 0.0
C50 C 0.83175 0.10398 0.08848 0.0
C51 C 0.8116 0.10511 0.11959 0.0
C52 C 0.81169 0.07078 0.04652 0.0
N53 N 0.7932 0.07097 0.07957 0.0
H54 H 0.77812 0.0884 0.14108 0.0
H55 H 0.81268 0.05663 0.01952 0.0
H56 H 0.82115 0.03937 0.14769 0.0
H57 H 0.79095 0.99351 0.04225 0.0
O58 O 0.76911 0.04337 0.15606 0.0
O59 O 0.75214 0.01543 0.10947 0.0
O60 O 0.77182 0.03869 0.01391 0.0
C61 C 0.75619 0.02378 0.15304 0.0
H62 H 0.68508 0.0749 0.09532 0.0
H63 H 0.85005 1.00097 0.13758 0.0
H64 H 0.84633 0.08537 0.02572 0.0
H65 H 0.811 0.11808 0.14904 0.0
Co66 Co 0.9635 0.77288 0.05496 0.0
C67 C 0.91989 0.73875 0.04773 0.0
C68 C 0.95453 0.72171 0.03849 0.0
C69 C 0.93687 0.70438 0.0334 0.0
N70 N 0.94415 0.74334 0.04773 0.0
N71 N 0.91497 0.71499 0.03871 0.0
H72 H 0.90607 0.75238 0.05217 0.0
H73 H 0.97384 0.7187 0.03478 0.0
C74 C 0.95958 0.76525 0.94873 0.0
O75 O 0.93641 0.76107 0.9565 0.0
N76 N 0.98378 0.80122 0.06188 0.0
C77 C 0.98031 0.82045 0.09116 0.0
C78 C 1.00067 0.83506 0.08903 0.0
C79 C 0.00601 0.80425 0.04245 0.0
N80 N 0.01677 0.8248 0.0584 0.0
C81 C 0.91837 0.79692 0.07382 0.0
C82 C 0.92175 0.8299 0.99863 0.0
C83 C 0.90344 0.83292 0.03326 0.0
C84 C 0.90167 0.81598 0.07094 0.0
C85 C 0.93831 0.81088 1.00332 0.0
N86 N 0.93636 0.79436 0.04013 0.0
H87 H 0.91747 0.78479 0.1045 0.0
H88 H 0.95371 0.81064 0.97918 0.0
H89 H 0.96441 0.82329 0.11343 0.0
H90 H 0.01456 0.7911 0.0189 0.0
O91 O 0.95962 0.77148 0.12454 0.0
O92 O 0.98934 0.75379 0.08396 0.0
O93 O 0.97348 0.77045 0.98438 0.0
C94 C 0.97936 0.75862 0.12561 0.0
H95 H 0.94015 0.68535 0.02642 0.0
H96 H 1.00352 0.85178 0.10887 0.0
H97 H 0.92426 0.84307 0.96991 0.0
H98 H 0.88793 0.81784 0.09875 0.0
Co99 Co 0.23602 0.96177 0.0685 0.0
C100 C 0.26965 0.91815 0.06808 0.0
C101 C 0.28741 0.95232 0.0556 0.0
C102 C 0.30465 0.93442 0.05521 0.0
N103 N 0.26542 0.94233 0.06407 0.0
N104 N 0.29351 0.91299 0.06298 0.0
H105 H 0.25594 0.90449 0.07421 0.0
H106 H 0.29069 0.97145 0.04949 0.0
C107 C 0.24586 0.9573 0.96293 0.0
O108 O 0.25063 0.93434 0.97156 0.0
N109 N 0.20765 0.98194 0.07293 0.0
C110 C 0.18853 0.97899 0.10279 0.0
C111 C 0.17327 0.9986 0.09729 0.0
C112 C 0.20385 1.00305 0.04959 0.0
N113 N 0.18296 0.01359 0.06379 0.0
C114 C 0.2108 0.91688 0.08599 0.0
C115 C 0.18093 0.91943 1.00573 0.0
C116 C 0.17685 0.90112 0.03986 0.0
C117 C 0.1921 0.89985 0.08035 0.0
C118 C 0.19944 0.93634 0.01324 0.0
N119 N 0.21465 0.93463 0.05227 0.0
H120 H 0.22162 0.91635 0.11858 0.0
H121 H 0.20029 0.95172 0.98916 0.0
H122 H 0.18613 0.96393 0.12747 0.0
H123 H 0.21654 0.011 0.02414 0.0
O124 O 0.23618 0.95827 0.13829 0.0
O125 O 0.25482 0.98769 0.09826 0.0
O126 O 0.23986 0.97129 0.99792 0.0
C127 C 0.2493 0.97791 0.13978 0.0
H128 H 0.32388 0.93689 0.04853 0.0
H129 H 0.15644 1.00168 0.11657 0.0
H130 H 0.1689 0.92165 0.97503 0.0
H131 H 0.18918 0.88622 0.10805 0.0
Co132 Co 0.05089 0.77872 0.52633 0.0
C133 C 0.09194 0.74234 0.53274 0.0
C134 C 0.05971 0.73186 0.5709 0.0
C135 C 0.07629 0.71345 0.57493 0.0
N136 N 0.06952 0.75027 0.54523 0.0
N137 N 0.09656 0.71997 0.55085 0.0
H138 H 0.10424 0.75177 0.50898 0.0
H139 H 0.04135 0.73156 0.58481 0.0
C140 C 0.04455 0.77717 0.63489 0.0
O141 O 0.06819 0.7754 0.6403 0.0
N142 N 0.03112 0.80619 0.50851 0.0
C143 C 0.03631 0.82475 0.47836 0.0
C144 C 0.01779 0.84163 0.48149 0.0
C145 C 0.00966 0.81177 0.52887 0.0
N146 N 1.00128 0.83343 0.51376 0.0
C147 C 0.09644 0.80261 0.51586 0.0
C148 C 0.08529 0.84197 0.57372 0.0
C149 C 0.10444 0.84391 0.54058 0.0
C150 C 0.11075 0.82346 0.51347 0.0
C151 C 0.07138 0.82058 0.57522 0.0
N152 N 0.0765 0.80145 0.54519 0.0
H153 H 0.09975 0.78884 0.48915 0.0
H154 H 0.05485 0.82078 0.59619 0.0
H155 H 0.05279 0.82637 0.45728 0.0
H156 H 1.0005 0.80039 0.55505 0.0
O157 O 0.06036 0.77435 0.45971 0.0
O158 O 0.0278 0.75763 0.49324 0.0
O159 O 0.03533 0.77907 0.59259 0.0
C160 C 0.04112 0.76095 0.45478 0.0
H161 H 0.07349 0.69643 0.59376 0.0
H162 H 0.0171 0.85902 0.46329 0.0
H163 H 0.07955 0.85761 0.59454 0.0
H164 H 0.12526 0.82437 0.48701 0.0
Co165 Co 0.23462 0.04862 0.54147 0.0
C166 C 0.27867 0.08125 0.54964 0.0
C167 C 0.27904 0.05138 0.59913 0.0
C168 C 0.30046 0.06378 0.60378 0.0
N169 N 0.26477 0.06264 0.56644 0.0
N170 N 0.30047 0.08252 0.57242 0.0
H171 H 0.27388 0.09248 0.51909 0.0
H172 H 0.27496 0.03432 0.61667 0.0
C173 C 0.22974 0.03986 0.64815 0.0
O174 O 0.23288 0.06331 0.65468 0.0
N175 N 0.20557 0.03348 0.51648 0.0
C176 C 0.19029 0.04244 0.48293 0.0
C177 C 0.17334 0.02483 0.47194 0.0
C178 C 0.19785 0.01067 0.52549 0.0
N179 N 0.17814 0.00492 0.49878 0.0
C180 C 0.21891 0.09823 0.54045 0.0
C181 C 0.17446 0.08914 0.58349 0.0
C182 C 0.17767 0.11088 0.55785 0.0
C183 C 0.20071 0.11585 0.53852 0.0
C184 C 0.1932 0.07203 0.5848 0.0
N185 N 0.21484 0.07623 0.56176 0.0
H186 H 0.23524 0.10146 0.52014 0.0
H187 H 0.18919 0.05433 0.59969 0.0
H188 H 0.19171 0.06031 0.46688 0.0
H189 H 0.20709 0.99819 0.54946 0.0
O190 O 0.24253 0.05977 0.47718 0.0
O191 O 0.25347 0.02415 0.50758 0.0
O192 O 0.22947 0.03109 0.6052 0.0
C193 C 0.25306 0.03894 0.47072 0.0
H194 H 0.31516 0.05877 0.62769 0.0
H195 H 0.15877 0.02644 0.44583 0.0
H196 H 0.15691 0.08429 0.59838 0.0
H197 H 0.20411 0.1325 0.5187 0.0
Co198 Co 0.96395 0.23121 0.527 0.0
C199 C 0.92252 0.26752 0.53151 0.0
C200 C 0.95642 0.28059 0.55964 0.0
C201 C 0.93958 0.29876 0.56382 0.0
N202 N 0.94587 0.2609 0.53952 0.0
N203 N 0.91828 0.29057 0.54616 0.0
H204 H 0.90886 0.25617 0.51515 0.0
H205 H 0.97519 0.28153 0.57107 0.0
C206 C 0.95831 0.23407 0.63297 0.0
O207 O 0.93542 0.23889 0.62361 0.0
N208 N 0.98314 0.20261 0.51475 0.0
C209 C 0.97865 0.18541 0.48122 0.0
C210 C 0.99911 0.17129 0.4761 0.0
C211 C 0.00611 0.1987 0.52984 0.0
N212 N 0.01623 0.17963 0.50681 0.0
C213 C 0.91778 0.21015 0.50274 0.0
C214 C 0.91716 0.17555 0.57518 0.0
C215 C 0.8983 0.17588 0.54128 0.0
C216 C 0.89881 0.1933 0.50449 0.0
C217 C 0.93608 0.19239 0.57145 0.0
N218 N 0.93573 0.21021 0.53691 0.0
H219 H 0.9184 0.22269 0.47274 0.0
H220 H 0.95148 0.19035 0.59524 0.0
H221 H 0.96228 0.18427 0.45969 0.0
H222 H 0.01586 0.21073 0.55403 0.0
O223 O 0.96022 0.23621 0.45857 0.0
O224 O 0.99067 0.25096 0.50232 0.0
O225 O 0.97307 0.22996 0.59807 0.0
C226 C 0.98014 0.24875 0.46029 0.0
H227 H 0.94271 0.31653 0.57944 0.0
H228 H 1.00171 0.15684 0.45003 0.0
H229 H 0.9179 0.16163 0.60286 0.0
H230 H 0.88487 0.19362 0.47682 0.0
Co231 Co 0.77486 0.96242 0.55179 0.0
C232 C 0.73551 0.92429 0.56429 0.0
C233 C 0.75977 0.9278 0.62463 0.0
C234 C 0.74312 0.91021 0.63532 0.0
N235 N 0.7553 0.93669 0.58013 0.0
N236 N 0.72759 0.90799 0.59782 0.0
H237 H 0.72689 0.92733 0.52965 0.0
H238 H 0.77413 0.93379 0.64839 0.0
C239 C 0.78927 0.99409 0.63832 0.0
O240 O 0.80986 0.99961 0.61689 0.0
N241 N 0.79447 0.98818 0.5241 0.0
C242 C 0.81467 0.98605 0.49691 0.0
C243 C 0.82358 0.00894 0.48732 0.0
C244 C 0.79073 0.01228 0.52866 0.0
N245 N 0.80872 0.02539 0.50802 0.0
C246 C 0.8114 0.92725 0.53016 0.0
C247 C 0.83985 0.93254 0.61156 0.0
C248 C 0.84823 0.91789 0.57366 0.0
C249 C 0.83332 0.91481 0.53322 0.0
C250 C 0.81769 0.94477 0.607 0.0
N251 N 0.80419 0.94312 0.56548 0.0
H252 H 0.80067 0.92434 0.49817 0.0
H253 H 0.81164 0.95494 0.63767 0.0
H254 H 0.82292 0.96916 0.48599 0.0
H255 H 0.77598 0.01997 0.54949 0.0
O256 O 0.76901 0.95078 0.48681 0.0
O257 O 0.74631 0.97812 0.52306 0.0
O258 O 0.77443 0.97914 0.61827 0.0
C259 C 0.75151 0.96631 0.48342 0.0
H260 H 0.74279 0.89971 0.66838 0.0
H261 H 0.84058 0.01305 0.46936 0.0
H262 H 0.85046 0.9349 0.64423 0.0
H263 H 0.83855 0.90286 0.50387 0.0
Co264 Co 0.54799 0.73477 0.53201 0.0
C265 C 0.58919 0.77044 0.54601 0.0
C266 C 0.56273 0.78206 0.49418 0.0
C267 C 0.58011 0.79987 0.49806 0.0
N268 N 0.56871 0.76318 0.52299 0.0
N269 N 0.59668 0.79259 0.53069 0.0
H270 H 0.59804 0.76043 0.57447 0.0
H271 H 0.54638 0.78312 0.47263 0.0
C272 C 0.55434 0.73837 0.42553 0.0
O273 O 0.57772 0.74031 0.43449 0.0
N274 N 0.52645 0.70746 0.54059 0.0
C275 C 0.52871 0.68923 0.57274 0.0
C276 C 0.50858 0.67441 0.56907 0.0
C277 C 0.50514 0.70361 0.51783 0.0
N278 N 0.49384 0.6835 0.53453 0.0
C279 C 0.59203 0.70939 0.55565 0.0
C280 C 0.58823 0.67474 0.48362 0.0
C281 C 0.60633 0.67224 0.51872 0.0
C282 C 0.6082 0.68983 0.55505 0.0
C283 C 0.57205 0.69417 0.48629 0.0
N284 N 0.57439 0.71171 0.52115 0.0
H285 H 0.59268 0.72159 0.58605 0.0
H286 H 0.55674 0.69414 0.46194 0.0
H287 H 0.54377 0.68706 0.59748 0.0
H288 H 0.49771 0.71569 0.49074 0.0
O289 O 0.55102 0.73771 0.60122 0.0
O290 O 0.52276 0.75587 0.55726 0.0
O291 O 0.53938 0.73572 0.46063 0.0
C292 C 0.53188 0.7514 0.59991 0.0
H293 H 0.57992 0.81738 0.48022 0.0
H294 H 0.50508 0.65821 0.59017 0.0
H295 H 0.5857 0.66099 0.456 0.0
H296 H 0.62161 0.68811 0.58353 0.0
Co297 Co 0.2759 0.54643 0.54527 0.0
C298 C 0.2408 0.58745 0.53509 0.0
C299 C 0.22752 0.55431 0.50393 0.0
C300 C 0.20975 0.57162 0.49986 0.0
N301 N 0.24711 0.56417 0.52574 0.0
N302 N 0.21807 0.59242 0.51952 0.0
H303 H 0.25193 0.6002 0.55483 0.0
H304 H 0.22569 0.53558 0.49321 0.0
C305 C 0.26525 0.50992 0.46871 0.0
O306 O 0.25288 0.49787 0.50157 0.0
N307 N 0.30434 0.52855 0.56486 0.0
C308 C 0.32149 0.53623 0.59619 0.0
C309 C 0.33679 0.51715 0.60635 0.0
C310 C 0.30949 0.50502 0.55607 0.0
N311 N 0.32921 0.49768 0.5809 0.0
C312 C 0.30114 0.59184 0.54962 0.0
C313 C 0.33066 0.5845 0.4701 0.0
C314 C 0.33563 0.604 0.50111 0.0
C315 C 0.32015 0.60799 0.54044 0.0
C316 C 0.31154 0.56858 0.4808 0.0
N317 N 0.29722 0.57206 0.52073 0.0
H318 H 0.29059 0.59458 0.58199 0.0
H319 H 0.30961 0.55271 0.45836 0.0
H320 H 0.3222 0.55415 0.61218 0.0
H321 H 0.29837 0.49306 0.53435 0.0
O322 O 0.27194 0.55803 0.61094 0.0
O323 O 0.25581 0.52406 0.58306 0.0
O324 O 0.27605 0.52964 0.48017 0.0
C325 C 0.25914 0.53873 0.61941 0.0
H326 H 0.19191 0.56897 0.48424 0.0
H327 H 0.35192 0.51734 0.63136 0.0
H328 H 0.34244 0.5806 0.43968 0.0
H329 H 0.32332 0.62292 0.56521 0.0
Co330 Co 0.45889 0.27461 0.53934 0.0
C331 C 0.43034 0.22825 0.53644 0.0
C332 C 0.42422 0.25084 0.47439 0.0
C333 C 0.40892 0.2311 0.47156 0.0
N334 N 0.43764 0.24915 0.51509 0.0
N335 N 0.41277 0.21695 0.51057 0.0
H336 H 0.43689 0.22186 0.57104 0.0
H337 H 0.42492 0.26588 0.44924 0.0
C338 C 0.48078 0.26527 0.44197 0.0
O339 O 0.48394 0.2426 0.45535 0.0
N340 N 0.47952 0.30031 0.56325 0.0
C341 C 0.47313 0.31643 0.5976 0.0
C342 C 0.49305 0.33024 0.60923 0.0
C343 C 0.50328 0.30444 0.55431 0.0
N344 N 0.51199 0.32265 0.58222 0.0
C345 C 0.41248 0.29539 0.55557 0.0
C346 C 0.42168 0.33886 0.50856 0.0
C347 C 0.40144 0.33707 0.53919 0.0
C348 C 0.39633 0.31466 0.56111 0.0
C349 C 0.4375 0.31914 0.50424 0.0
N350 N 0.43327 0.29816 0.52933 0.0
H351 H 0.4092 0.27871 0.57521 0.0
H352 H 0.4542 0.32154 0.48425 0.0
H353 H 0.45534 0.31756 0.61405 0.0
H354 H 0.51416 0.29365 0.5298 0.0
O355 O 0.45149 0.26616 0.60565 0.0
O356 O 0.48226 0.251 0.56426 0.0
O357 O 0.47144 0.28045 0.47157 0.0
C358 C 0.47091 0.25287 0.60567 0.0
H359 H 0.3958 0.22752 0.44324 0.0
H360 H 0.49371 0.34449 0.63619 0.0
H361 H 0.42634 0.35592 0.49134 0.0
H362 H 0.38072 0.31249 0.58459 0.0
Co363 Co 0.73297 0.45934 0.54776 0.0
C364 C 0.76862 0.4177 0.54624 0.0
C365 C 0.77823 0.44774 0.50055 0.0
C366 C 0.7963 0.43074 0.49764 0.0
N367 N 0.76077 0.43965 0.53071 0.0
N368 N 0.79032 0.41189 0.52638 0.0
H369 H 0.7594 0.40654 0.57258 0.0
H370 H 0.77813 0.46521 0.48271 0.0
C371 C 0.71494 0.47926 0.45012 0.0
O372 O 0.69329 0.48416 0.46747 0.0
N373 N 0.7061 0.4804 0.56413 0.0
C374 C 0.6846 0.47535 0.5853 0.0
C375 C 0.67106 0.4965 0.58704 0.0
C376 C 0.70571 0.50444 0.55511 0.0
N377 N 0.68435 0.51461 0.56735 0.0
C378 C 0.71051 0.41546 0.5787 0.0
C379 C 0.6742 0.41296 0.51018 0.0
C380 C 0.67236 0.39844 0.55178 0.0
C381 C 0.69181 0.3987 0.58436 0.0
C382 C 0.6939 0.42902 0.50497 0.0
N383 N 0.71094 0.43138 0.54075 0.0
H384 H 0.72387 0.41637 0.60705 0.0
H385 H 0.69441 0.43999 0.47311 0.0
H386 H 0.67881 0.45755 0.59725 0.0
H387 H 0.72035 0.51403 0.53713 0.0
O388 O 0.73967 0.45554 0.61571 0.0
O389 O 0.75518 0.48474 0.57051 0.0
O390 O 0.73099 0.46885 0.47653 0.0
C391 C 0.75318 0.47474 0.61314 0.0
H392 H 0.81267 0.43221 0.47613 0.0
H393 H 0.65247 0.49813 0.59935 0.0
H394 H 0.65992 0.41304 0.48325 0.0
H395 H 0.69194 0.38703 0.61591 0.0
Co396 Co 0.54231 0.26866 1.00396 0.0
C397 C 0.58621 0.23676 0.0126 0.0
C398 C 0.55525 0.22402 0.05276 0.0
C399 C 0.57412 0.20826 0.06028 0.0
N400 N 0.56278 0.24193 0.02325 0.0
N401 N 0.59366 0.21624 0.0353 0.0
H402 H 0.59759 0.24789 0.98955 0.0
H403 H 0.53717 0.22254 0.06779 0.0
C404 C 0.52526 0.29068 0.09752 0.0
O405 O 0.52889 0.31185 0.07668 0.0
N406 N 0.52031 0.29467 0.98553 0.0
C407 C 0.52355 0.31504 0.95911 0.0
C408 C 0.50225 0.3282 0.95963 0.0
C409 C 0.49689 0.29538 0.9999 0.0
N410 N 0.48557 0.31592 0.98587 0.0
C411 C 0.57962 0.30185 0.97578 0.0
C412 C 0.59552 0.31531 0.06656 0.0
C413 C 0.60393 0.32834 0.02606 0.0
C414 C 0.59672 0.32034 0.98018 0.0
C415 C 0.5786 0.29637 0.0603 0.0
N416 N 0.56919 0.29141 0.01552 0.0
H417 H 0.57411 0.29673 0.93979 0.0
H418 H 0.57273 0.28625 0.09165 0.0
H419 H 0.54 0.32048 0.94103 0.0
H420 H 0.4886 0.28127 0.02161 0.0
O421 O 0.54917 0.262 0.93675 0.0
O422 O 0.51843 0.2458 0.97671 0.0
O423 O 0.53006 0.27114 0.07403 0.0
C424 C 0.53014 0.24823 0.93589 0.0
H425 H 0.57337 0.19191 0.08199 0.0
H426 H 0.49964 0.34587 0.94332 0.0
H427 H 0.60127 0.32012 0.10279 0.0
H428 H 0.60381 0.32864 0.94756 0.0
Co429 Co 0.73438 0.54275 1.00908 0.0
C430 C 0.7654 0.58733 0.01672 0.0
C431 C 0.7808 0.55582 0.05093 0.0
C432 C 0.79721 0.57454 0.05428 0.0
N433 N 0.76096 0.56373 0.02729 0.0
N434 N 0.78754 0.59427 0.03296 0.0
H435 H 0.75326 0.5988 0.99616 0.0
H436 H 0.78341 0.53742 0.06357 0.0
C437 C 0.7165 0.52314 0.10461 0.0
O438 O 0.69404 0.52566 0.0893 0.0
N439 N 0.7084 0.52034 0.99152 0.0
C440 C 0.68821 0.52372 0.96478 0.0
C441 C 0.67491 0.50247 0.96453 0.0
C442 C 0.70749 0.4968 1.0053 0.0
N443 N 0.68694 0.48555 0.99048 0.0
C444 C 0.69996 0.57955 0.98627 0.0
C445 C 0.68622 0.59168 0.07914 0.0
C446 C 0.6723 0.60013 0.04 0.0
C447 C 0.68043 0.59506 0.99316 0.0
C448 C 0.70613 0.57636 0.07039 0.0
N449 N 0.71118 0.56856 0.02446 0.0
H450 H 0.7051 0.57551 0.94956 0.0
H451 H 0.71689 0.57035 0.10071 0.0
H452 H 0.6831 0.5402 0.94651 0.0
H453 H 0.72155 0.48829 0.02666 0.0
O454 O 0.73952 0.55092 0.94214 0.0
O455 O 0.75733 0.52016 0.97931 0.0
O456 O 0.73431 0.52936 0.07747 0.0
C457 C 0.75419 0.53265 0.93972 0.0
H458 H 0.8151 0.5737 0.07047 0.0
H459 H 0.65739 0.50004 0.94748 0.0
H460 H 0.68131 0.59606 0.11606 0.0
H461 H 0.67129 0.60243 0.96171 0.0
Co462 Co 0.46263 0.73142 1.00495 0.0
C463 C 0.42011 0.76544 0.02254 0.0
C464 C 0.45524 0.78229 0.02534 0.0
C465 C 0.4381 0.79964 0.03456 0.0
N466 N 0.44417 0.76079 0.01765 0.0
N467 N 0.41598 0.78911 0.03307 0.0
H468 H 0.4059 0.75202 0.01984 0.0
H469 H 0.47468 0.78513 0.02479 0.0
C470 C 0.47042 0.74102 0.11081 0.0
O471 O 0.44702 0.74487 0.11597 0.0
N472 N 0.4824 0.70316 0.9934 0.0
C473 C 0.47644 0.68175 0.97298 0.0
C474 C 0.49591 0.66614 0.97807 0.0
C475 C 0.50522 0.70047 0.0099 0.0
N476 N 0.5139 0.67796 1.00173 0.0
C477 C 0.41709 0.70673 1.00336 0.0
C478 C 0.4267 0.675 0.07844 0.0
C479 C 0.40638 0.67088 0.04911 0.0
C480 C 0.40136 0.6873 0.01187 0.0
C481 C 0.44227 0.69448 0.06817 0.0
N482 N 0.43739 0.71018 0.03101 0.0
H483 H 0.41362 0.71822 0.97249 0.0
H484 H 0.45921 0.69555 0.08766 0.0
H485 H 0.45895 0.67752 0.95721 0.0
H486 H 0.51517 0.71476 0.02811 0.0
O487 O 0.45217 0.73164 0.93825 0.0
O488 O 0.48514 0.75025 0.96551 0.0
O489 O 0.47912 0.73532 0.06951 0.0
C490 C 0.47112 0.74492 0.92906 0.0
H491 H 0.44175 0.81867 0.04129 0.0
H492 H 0.4964 0.64731 0.96685 0.0
H493 H 0.4315 0.66226 0.10674 0.0
H494 H 0.38591 0.68456 0.98817 0.0
Co495 Co 0.27213 0.46089 0.01787 0.0
C496 C 0.23693 0.41901 0.01416 0.0
C497 C 0.22313 0.45099 0.04919 0.0
C498 C 0.20533 0.43357 0.04969 0.0
N499 N 0.24288 0.44202 0.0269 0.0
N500 N 0.21388 0.41347 0.02763 0.0
H501 H 0.24893 0.40678 0.99505 0.0
H502 H 0.22182 0.46909 0.06419 0.0
C503 C 0.28665 0.47491 0.12117 0.0
O504 O 0.30978 0.47568 0.10963 0.0
N505 N 0.30079 0.48097 0.00941 0.0
C506 C 0.32079 0.47687 0.98245 0.0
C507 C 0.33554 0.49716 0.98446 0.0
C508 C 0.30331 0.5039 0.02604 0.0
N509 N 0.32456 0.51397 0.0123 0.0
C510 C 0.30073 0.42061 0.98697 0.0
C511 C 0.31768 0.40593 0.07615 0.0
C512 C 0.32868 0.39659 0.03421 0.0
C513 C 0.31885 0.40312 0.98942 0.0
C514 C 0.29904 0.42319 0.07203 0.0
N515 N 0.29224 0.43189 0.02766 0.0
H516 H 0.29463 0.42587 0.95152 0.0
H517 H 0.29065 0.4296 0.10471 0.0
H518 H 0.32441 0.46062 0.9619 0.0
H519 H 0.2898 0.51303 0.04788 0.0
O520 O 0.26867 0.45874 0.94849 0.0
O521 O 0.25271 0.48788 0.99291 0.0
O522 O 0.27064 0.46891 0.08965 0.0
C523 C 0.2563 0.47867 0.95004 0.0
H524 H 0.1875 0.43544 0.06578 0.0
H525 H 0.3531 0.49928 0.9673 0.0
H526 H 0.32398 0.40076 0.11179 0.0
H527 H 0.32568 0.39542 0.95602 0.0
H528 H 0.09304 0.3368 0.01634 0.0
H529 H 0.13571 0.27109 0.03161 0.0
H530 H 0.17337 0.29584 0.02988 0.0
H531 H 0.13349 0.36731 0.93298 0.0
H532 H 0.1277 0.39676 0.95898 0.0
H533 H 0.10454 0.3736 0.9607 0.0
H534 H 0.10177 0.37791 0.05401 0.0
H535 H 0.12484 0.4011 0.05257 0.0
H536 H 0.12886 0.37461 0.09002 0.0
H537 H 0.20678 0.32917 0.02738 0.0
H538 H 0.23138 0.36713 0.02893 0.0
H539 H 0.16566 0.40939 0.01236 0.0
C540 C 0.1102 0.32737 0.01857 0.0
C541 C 0.11123 0.30185 0.02377 0.0
C542 C 0.1343 0.29059 0.02792 0.0
C543 C 0.15583 0.30451 0.02659 0.0
C544 C 0.15402 0.32966 0.02091 0.0
C545 C 0.13168 0.34087 0.01704 0.0
C546 C 0.13422 0.3681 0.01238 0.0
C547 C 0.12441 0.37695 0.96334 0.0
C548 C 0.12169 0.38119 0.05478 0.0
C549 C 0.1615 0.37066 0.015 0.0
C550 C 0.17279 0.34839 0.01951 0.0
C551 C 0.19804 0.34665 0.02363 0.0
C552 C 0.2119 0.36825 0.02417 0.0
C553 C 0.20041 0.39119 0.02105 0.0
C554 C 0.17495 0.39216 0.0154 0.0
H555 H 0.68661 0.11855 0.12696 0.0
H556 H 0.72217 0.12154 0.98757 0.0
H557 H 0.69738 0.1577 0.96573 0.0
H558 H 0.62929 0.13005 0.08731 0.0
H559 H 0.62001 0.14804 0.13856 0.0
H560 H 0.64338 0.12561 0.14554 0.0
H561 H 0.6729 0.15839 0.17867 0.0
H562 H 0.64947 0.18098 0.17229 0.0
H563 H 0.67858 0.18547 0.14372 0.0
H564 H 0.66357 0.19014 0.95606 0.0
H565 H 0.62607 0.21507 0.96042 0.0
H566 H 0.61417 0.19016 0.10724 0.0
C567 C 0.68964 0.12728 0.09237 0.0
C568 C 0.7063 0.11745 0.05897 0.0
C569 C 0.70972 0.12911 0.01384 0.0
C570 C 0.69562 0.14954 1.00119 0.0
C571 C 0.67856 0.15823 0.0345 0.0
C572 C 0.67592 0.14757 0.07954 0.0
C573 C 0.6552 0.15868 0.1077 0.0
C574 C 0.63584 0.13945 0.12048 0.0
C575 C 0.66461 0.17165 0.15329 0.0
C576 C 0.6458 0.17664 0.07093 0.0
C577 C 0.65956 0.1765 0.02906 0.0
C578 C 0.653 0.19062 0.98907 0.0
C579 C 0.63171 0.20479 0.99184 0.0
C580 C 0.61711 0.20449 0.03408 0.0
C581 C 0.62478 0.19066 0.07428 0.0
H582 H 0.83136 0.60064 0.99286 0.0
H583 H 0.77209 0.63873 0.06144 0.0
H584 H 0.79722 0.67639 0.06441 0.0
H585 H 0.87765 0.62478 0.05998 0.0
H586 H 0.89937 0.62694 0.01135 0.0
H587 H 0.8756 0.60455 1.0088 0.0
H588 H 0.86137 0.62141 0.92594 0.0
H589 H 0.88538 0.6437 0.92785 0.0
H590 H 0.85434 0.65324 0.92009 0.0
H591 H 0.83195 0.70794 0.07011 0.0
H592 H 0.87087 0.73054 0.07276 0.0
H593 H 0.90565 0.67154 0.99513 0.0
C594 C 0.82352 0.61718 1.00713 0.0
C595 C 0.79988 0.61707 0.02658 0.0
C596 C 0.7901 0.63876 0.0457 0.0
C597 C 0.8043 0.6601 0.0477 0.0
C598 C 0.82799 0.6594 0.02949 0.0
C599 C 0.83725 0.63853 1.00862 0.0
C600 C 0.86349 0.64178 0.99391 0.0
C601 C 0.87998 0.62343 0.02009 0.0
C602 C 0.8663 0.63993 0.93866 0.0
C603 C 0.86798 0.6674 0.01143 0.0
C604 C 0.84739 0.67744 0.03169 0.0
C605 C 0.84802 0.70036 0.05341 0.0
C606 C 0.87025 0.71313 0.05469 0.0
C607 C 0.89162 0.70294 0.03445 0.0
C608 C 0.89002 0.67995 0.0117 0.0
H609 H 0.33702 0.90287 0.10215 0.0
H610 H 0.27697 0.87084 0.02357 0.0
H611 H 0.30043 0.83262 0.01424 0.0
H612 H 0.38285 0.88054 0.03106 0.0
H613 H 0.40403 0.87523 0.07963 0.0
H614 H 0.38118 0.89826 0.08584 0.0
H615 H 0.36566 0.87798 0.16474 0.0
H616 H 0.38866 0.85492 0.15901 0.0
H617 H 0.35715 0.84634 0.16417 0.0
H618 H 0.33342 0.80005 1.00432 0.0
H619 H 0.37145 0.77631 0.99746 0.0
H620 H 0.40853 0.82995 0.08576 0.0
C621 C 0.32865 0.88761 0.08384 0.0
C622 C 0.30527 0.88968 0.06355 0.0
C623 C 0.29479 0.86941 0.03983 0.0
C624 C 0.30803 0.84773 0.03427 0.0
C625 C 0.33147 0.84657 0.05349 0.0
C626 C 0.34146 0.86593 0.07851 0.0
C627 C 0.36741 0.86098 0.09317 0.0
C628 C 0.38488 0.87987 0.07109 0.0
C629 C 0.36985 0.85999 0.14856 0.0
C630 C 0.37092 0.8362 0.07084 0.0
C631 C 0.35002 0.82795 0.04846 0.0
C632 C 0.34972 0.80617 0.02253 0.0
C633 C 0.3714 0.79275 0.01892 0.0
C634 C 0.39309 0.80127 0.04084 0.0
C635 C 0.39245 0.82299 0.06803 0.0
H636 H 0.09879 0.67076 0.54973 0.0
H637 H 0.14296 0.73577 0.53668 0.0
H638 H 0.17972 0.7102 0.52819 0.0
H639 H 0.14098 0.63635 0.6207 0.0
H640 H 0.1335 0.60799 0.5916 0.0
H641 H 0.11101 0.63157 0.59618 0.0
H642 H 0.10505 0.63062 0.5031 0.0
H643 H 0.12748 0.60701 0.49824 0.0
H644 H 0.13098 0.63468 0.46402 0.0
H645 H 0.21195 0.67664 0.52343 0.0
H646 H 0.23584 0.63856 0.51764 0.0
H647 H 0.16968 0.59657 0.53423 0.0
C648 C 0.11617 0.67972 0.54552 0.0
C649 C 0.11799 0.70531 0.54421 0.0
C650 C 0.1411 0.7162 0.53748 0.0
C651 C 0.16208 0.70182 0.53295 0.0
C652 C 0.15959 0.6766 0.53503 0.0
C653 C 0.13714 0.66572 0.54087 0.0
C654 C 0.13906 0.63834 0.54146 0.0
C655 C 0.13064 0.62796 0.59039 0.0
C656 C 0.1248 0.62701 0.49918 0.0
C657 C 0.16612 0.63539 0.53477 0.0
C658 C 0.17779 0.65759 0.53151 0.0
C659 C 0.20294 0.65919 0.52581 0.0
C660 C 0.21638 0.63752 0.52282 0.0
C661 C 0.20458 0.61465 0.52507 0.0
C662 C 0.17916 0.61375 0.53154 0.0
H663 H 0.36515 0.20659 0.49396 0.0
H664 H 0.43149 0.17745 0.55503 0.0
H665 H 0.40997 0.1392 0.57476 0.0
H666 H 0.32499 0.18085 0.58312 0.0
H667 H 0.30082 0.17482 0.54075 0.0
H668 H 0.32161 0.19955 0.52999 0.0
H669 H 0.33195 0.18166 0.44578 0.0
H670 H 0.31126 0.1568 0.45637 0.0
H671 H 0.34253 0.15078 0.44132 0.0
H672 H 0.38178 0.10407 0.58572 0.0
H673 H 0.34819 0.07517 0.59417 0.0
H674 H 0.29881 0.12764 0.53032 0.0
C675 C 0.37515 0.19206 0.51112 0.0
C676 C 0.40005 0.19486 0.52273 0.0
C677 C 0.41242 0.17567 0.54609 0.0
C678 C 0.40038 0.15387 0.55712 0.0
C679 C 0.37589 0.15166 0.54499 0.0
C680 C 0.3633 0.17029 0.52299 0.0
C681 C 0.3368 0.16351 0.51566 0.0
C682 C 0.32007 0.1807 0.54409 0.0
C683 C 0.33026 0.16317 0.46156 0.0
C684 C 0.33646 0.1381 0.5369 0.0
C685 C 0.35929 0.13162 0.55313 0.0
C686 C 0.36376 0.10904 0.57369 0.0
C687 C 0.34436 0.09276 0.57866 0.0
C688 C 0.32049 0.0991 0.56379 0.0
C689 C 0.3167 0.12209 0.54202 0.0
H690 H 0.8393 0.40998 0.52785 0.0
H691 H 0.77456 0.36574 0.54324 0.0
H692 H 0.80028 0.32891 0.55049 0.0
H693 H 0.87268 0.36919 0.45493 0.0
H694 H 0.90147 0.3762 0.48275 0.0
H695 H 0.87788 0.39875 0.48113 0.0
H696 H 0.88013 0.40316 0.57447 0.0
H697 H 0.90386 0.38073 0.57636 0.0
H698 H 0.87675 0.37658 0.61202 0.0
H699 H 0.83402 0.29661 0.55129 0.0
H700 H 0.87214 0.27269 0.55179 0.0
H701 H 0.91371 0.33916 0.53522 0.0
C702 C 0.83049 0.39255 0.53273 0.0
C703 C 0.80495 0.39064 0.53461 0.0
C704 C 0.79413 0.36756 0.54199 0.0
C705 C 0.80859 0.34659 0.54584 0.0
C706 C 0.83379 0.34913 0.54269 0.0
C707 C 0.84457 0.37164 0.53684 0.0
C708 C 0.87191 0.36979 0.53434 0.0
C709 C 0.88154 0.37902 0.48537 0.0
C710 C 0.88386 0.38336 0.57683 0.0
C711 C 0.87496 0.34265 0.53915 0.0
C712 C 0.85286 0.33092 0.54383 0.0
C713 C 0.8514 0.30568 0.5479 0.0
C714 C 0.87311 0.29222 0.54778 0.0
C715 C 0.89591 0.30407 0.54386 0.0
C716 C 0.89663 0.32959 0.53913 0.0
H717 H 0.62649 0.822 0.47874 0.0
H718 H 0.61105 0.7964 0.62389 0.0
H719 H 0.64243 0.82419 0.65643 0.0
H720 H 0.69212 0.82758 0.49574 0.0
H721 H 0.69462 0.85434 0.45846 0.0
H722 H 0.6711 0.83231 0.44664 0.0
H723 H 0.63869 0.86614 0.45368 0.0
H724 H 0.66208 0.88822 0.46607 0.0
H725 H 0.63727 0.88427 0.50794 0.0
H726 H 0.67265 0.85662 0.67351 0.0
H727 H 0.70432 0.88778 0.67478 0.0
H728 H 0.7034 0.89082 0.51757 0.0
C729 C 0.6299 0.82222 0.51733 0.0
C730 C 0.6164 0.80713 0.54898 0.0
C731 C 0.62138 0.80765 0.59916 0.0
C732 C 0.639 0.8235 0.61789 0.0
C733 C 0.65169 0.83843 0.58582 0.0
C734 C 0.64775 0.83765 0.53652 0.0
C735 C 0.66443 0.85523 0.51006 0.0
C736 C 0.68159 0.84154 0.4757 0.0
C737 C 0.64973 0.87461 0.48283 0.0
C738 C 0.67819 0.86624 0.55233 0.0
C739 C 0.67026 0.85639 0.59559 0.0
C740 C 0.6794 0.86406 0.63983 0.0
C741 C 0.69764 0.88176 0.64001 0.0
C742 C 0.70711 0.89145 0.59618 0.0
C743 C 0.69681 0.88379 0.55171 0.0
H744 H 0.16022 0.04688 0.11946 0.0
H745 H 0.18498 0.03249 0.97343 0.0
H746 H 0.16844 0.07211 0.94667 0.0
H747 H 0.10467 0.07584 0.08889 0.0
H748 H 0.10654 0.09794 0.13689 0.0
H749 H 0.12071 0.06873 0.14396 0.0
H750 H 0.1619 0.08986 0.16171 0.0
H751 H 0.14786 0.11916 0.15446 0.0
H752 H 0.17407 0.1113 0.11868 0.0
H753 H 0.14639 0.11215 0.93543 0.0
H754 H 0.12283 0.15041 0.94164 0.0
H755 H 0.11499 0.13921 0.09609 0.0
C756 C 0.16206 0.05208 0.08185 0.0
C757 C 0.17367 0.03668 0.04833 0.0
C758 C 0.17618 0.04418 0.99956 0.0
C759 C 0.16681 0.06657 0.98412 0.0
C760 C 0.15536 0.08133 0.01815 0.0
C761 C 0.15319 0.07447 0.0661 0.0
C762 C 0.14024 0.0936 0.09561 0.0
C763 C 0.11664 0.08341 0.11761 0.0
C764 C 0.15703 0.1041 0.13493 0.0
C765 C 0.13505 0.11215 0.05666 0.0
C766 C 0.14379 0.10475 0.01214 0.0
C767 C 0.13982 0.11831 0.97023 0.0
C768 C 0.12646 0.13993 0.97401 0.0
C769 C 0.1176 0.14782 0.01943 0.0
C770 C 0.12215 0.13383 0.06118 0.0
H771 H 0.95907 0.17061 0.03286 0.0
H772 H 0.97292 0.16664 0.187 0.0
H773 H 0.93175 0.15003 0.20031 0.0
H774 H 0.89396 0.1859 0.04053 0.0
H775 H 0.88576 0.16699 0.98981 0.0
H776 H 0.9155 0.18068 0.99251 0.0
H777 H 0.93521 0.13827 0.98343 0.0
H778 H 0.90556 0.12445 0.98077 0.0
H779 H 0.92722 0.11447 0.02541 0.0
H780 H 0.89036 0.13226 0.19703 0.0
H781 H 0.85163 0.11229 0.17747 0.0
H782 H 0.8638 0.12641 0.02467 0.0
C783 C 0.95315 0.16658 0.06936 0.0
C784 C 0.96905 0.16996 0.10903 0.0
C785 C 0.96101 0.16406 0.15625 0.0
C786 C 0.93764 0.15476 0.16413 0.0
C787 C 0.92251 0.15127 0.12434 0.0
C788 C 0.92989 0.15686 0.07781 0.0
C789 C 0.9105 0.14971 0.04128 0.0
C790 C 0.90086 0.17216 0.01445 0.0
C791 C 0.92021 0.13059 1.00563 0.0
C792 C 0.89128 0.13898 0.07456 0.0
C793 C 0.89854 0.14042 0.12233 0.0
C794 C 0.88433 0.13126 0.15981 0.0
C795 C 0.8622 0.12009 0.14827 0.0
C796 C 0.85435 0.11799 0.09954 0.0
C797 C 0.86917 0.12774 0.06227 0.0
H798 H 0.89404 0.86422 0.10785 0.0
H799 H 0.8786 0.85165 0.956 0.0
H800 H 0.85529 0.89002 0.95291 0.0
H801 H 0.83598 0.89225 0.13963 0.0
H802 H 0.84985 0.91391 0.18006 0.0
H803 H 0.86365 0.88462 0.17094 0.0
H804 H 0.90393 0.90568 0.14616 0.0
H805 H 0.89021 0.93501 0.15482 0.0
H806 H 0.90384 0.92747 0.09744 0.0
H807 H 0.83464 0.93039 0.96609 0.0
H808 H 0.81917 0.97015 0.99382 0.0
H809 H 0.84917 0.95682 0.13647 0.0
C810 C 0.8853 0.86931 0.07423 0.0
C811 C 0.88784 0.85486 0.03226 0.0
C812 C 0.87677 0.86245 0.98856 0.0
C813 C 0.86348 0.88416 0.98652 0.0
C814 C 0.8616 0.89816 0.02842 0.0
C815 C 0.87224 0.89105 0.07145 0.0
C816 C 0.8686 0.90998 0.1106 0.0
C817 C 0.85363 0.89956 0.1528 0.0
C818 C 0.8931 0.92013 0.12827 0.0
C819 C 0.8544 0.92893 0.08283 0.0
C820 C 0.85035 0.92168 0.03562 0.0
C821 C 0.83765 0.93621 1.00303 0.0
C822 C 0.82886 0.95872 0.01913 0.0
C823 C 0.83299 0.96662 0.06725 0.0
C824 C 0.84596 0.95143 0.09935 0.0
H825 H 0.14196 0.89246 0.10799 0.0
H826 H 0.16252 0.87503 0.96059 0.0
H827 H 0.12418 0.85197 0.9502 0.0
H828 H 0.11077 0.83502 0.13604 0.0
H829 H 0.08741 0.84993 0.17068 0.0
H830 H 0.11745 0.86291 0.16765 0.0
H831 H 0.09916 0.90334 0.13658 0.0
H832 H 0.06912 0.89042 0.13899 0.0
H833 H 0.08035 0.90316 0.08317 0.0
H834 H 0.08275 0.83243 0.95498 0.0
H835 H 0.04112 0.81843 0.9741 0.0
H836 H 0.04729 0.84983 0.11754 0.0
C837 C 0.13863 0.88326 0.07397 0.0
C838 C 0.15526 0.88518 0.03525 0.0
C839 C 0.15 0.87359 0.99071 0.0
C840 C 0.12833 0.86047 0.98455 0.0
C841 C 0.11208 0.85929 0.02318 0.0
C842 C 0.11698 0.87037 0.06704 0.0
C843 C 0.09586 0.86768 0.10176 0.0
C844 C 0.10332 0.85301 0.14669 0.0
C845 C 0.08552 0.89263 0.11593 0.0
C846 C 0.0782 0.85359 0.07045 0.0
C847 C 0.08798 0.84871 0.02543 0.0
C848 C 0.07497 0.83605 0.99022 0.0
C849 C 0.05138 0.82812 1.00141 0.0
C850 C 0.04096 0.83309 0.04723 0.0
C851 C 0.05464 0.84602 0.08204 0.0
H852 H 0.17075 0.97309 0.57278 0.0
H853 H 0.15834 0.9842 0.41936 0.0
H854 H 0.13801 0.94427 0.41434 0.0
H855 H 0.18301 0.90894 0.56669 0.0
H856 H 0.16742 0.90179 0.62229 0.0
H857 H 0.18101 0.93132 0.61416 0.0
H858 H 0.13964 0.95167 0.63225 0.0
H859 H 0.1259 0.92221 0.64046 0.0
H860 H 0.11332 0.94321 0.59719 0.0
H861 H 0.12031 0.90318 0.42491 0.0
H862 H 0.10433 0.86343 0.451 0.0
H863 H 0.12661 0.87858 0.59858 0.0
C864 C 0.16379 0.96702 0.53818 0.0
C865 C 0.16604 0.98174 0.49641 0.0
C866 C 0.15651 0.97335 0.45184 0.0
C867 C 0.14508 0.95066 0.44862 0.0
C868 C 0.14312 0.93663 0.49039 0.0
C869 C 0.15203 0.94447 0.53444 0.0
C870 C 0.14716 0.92584 0.57385 0.0
C871 C 0.17107 0.91641 0.59551 0.0
C872 C 0.13051 0.93637 0.61326 0.0
C873 C 0.13428 0.90623 0.5449 0.0
C874 C 0.13233 0.91288 0.49679 0.0
C875 C 0.12168 0.89777 0.46246 0.0
C876 C 0.11278 0.8752 0.47758 0.0
C877 C 0.11444 0.86793 0.52666 0.0
C878 C 0.12513 0.88376 0.56088 0.0
H879 H 0.04301 0.16509 0.58389 0.0
H880 H 0.04589 0.17883 0.42976 0.0
H881 H 0.08905 0.16637 0.42818 0.0
H882 H 0.10571 0.18356 0.61313 0.0
H883 H 0.11001 0.15939 0.65628 0.0
H884 H 0.08012 0.17174 0.64646 0.0
H885 H 0.06376 0.12871 0.62675 0.0
H886 H 0.09354 0.11624 0.63661 0.0
H887 H 0.07818 0.11107 0.57992 0.0
H888 H 0.13082 0.15098 0.44235 0.0
H889 H 0.16794 0.13031 0.46924 0.0
H890 H 0.13835 0.1245 0.61451 0.0
C891 C 0.05299 0.16573 0.55015 0.0
C892 C 0.04142 0.173 0.50691 0.0
C893 C 0.05463 0.17326 0.46305 0.0
C894 C 0.0791 0.16637 0.46196 0.0
C895 C 0.09001 0.15903 0.50505 0.0
C896 C 0.07739 0.15842 0.5483 0.0
C897 C 0.09296 0.14786 0.58848 0.0
C898 C 0.09746 0.16677 0.62845 0.0
C899 C 0.08142 0.12459 0.60914 0.0
C900 C 0.11614 0.14234 0.56084 0.0
C901 C 0.1141 0.14935 0.51299 0.0
C902 C 0.13275 0.14562 0.47984 0.0
C903 C 0.1539 0.13402 0.49565 0.0
C904 C 0.15631 0.12602 0.54422 0.0
C905 C 0.13716 0.1305 0.57727 0.0
H906 H 0.83359 0.05574 0.44854 0.0
H907 H 0.79798 0.05165 0.58832 0.0
H908 H 0.8137 0.0923 0.60893 0.0
H909 H 0.88678 0.0817 0.48846 0.0
H910 H 0.89148 0.10137 0.43714 0.0
H911 H 0.87444 0.07369 0.43014 0.0
H912 H 0.83791 0.09791 0.39623 0.0
H913 H 0.85495 0.12573 0.40271 0.0
H914 H 0.82556 0.12274 0.43085 0.0
H915 H 0.83868 0.13003 0.61961 0.0
H916 H 0.86837 0.16391 0.61636 0.0
H917 H 0.88656 0.14442 0.46883 0.0
C918 C 0.82864 0.06369 0.48297 0.0
C919 C 0.81445 0.05057 0.51664 0.0
C920 C 0.80844 0.06149 0.56153 0.0
C921 C 0.81741 0.08455 0.5737 0.0
C922 C 0.83203 0.09665 0.5403 0.0
C923 C 0.83726 0.08679 0.49547 0.0
C924 C 0.8547 0.10279 0.46742 0.0
C925 C 0.87824 0.08906 0.4551 0.0
C926 C 0.84255 0.11289 0.42159 0.0
C927 C 0.85922 0.12266 0.50421 0.0
C928 C 0.84589 0.11886 0.54596 0.0
C929 C 0.84875 0.13356 0.58669 0.0
C930 C 0.86568 0.15263 0.58467 0.0
C931 C 0.87932 0.15688 0.54213 0.0
C932 C 0.87582 0.14187 0.50131 0.0
H933 H 0.97127 0.86397 0.4649 0.0
H934 H 0.98386 0.83102 0.60524 0.0
H935 H 0.94701 0.85067 0.6371 0.0
H936 H 0.94726 0.92171 0.51025 0.0
H937 H 0.92495 0.9241 0.46277 0.0
H938 H 0.95318 0.90856 0.45167 0.0
H939 H 0.92936 0.87016 0.42492 0.0
H940 H 0.9011 0.88555 0.43606 0.0
H941 H 0.90727 0.85698 0.46539 0.0
H942 H 0.90799 0.87259 0.6531 0.0
H943 H 0.86888 0.89452 0.65117 0.0
H944 H 0.8817 0.91348 0.50079 0.0
C945 C 0.9664 0.86122 0.50247 0.0
C946 C 0.98034 0.84589 0.5325 0.0
C947 C 0.97325 0.8424 0.58136 0.0
C948 C 0.95245 0.85363 0.59993 0.0
C949 C 0.93891 0.86835 0.56923 0.0
C950 C 0.94556 0.8722 0.52155 0.0
C951 C 0.9272 0.88801 0.49574 0.0
C952 C 0.93885 0.91202 0.47914 0.0
C953 C 0.91555 0.87435 0.45301 0.0
C954 C 0.90909 0.89214 0.53617 0.0
C955 C 0.91628 0.88084 0.57838 0.0
C956 C 0.90223 0.88168 0.62035 0.0
C957 C 0.88011 0.89426 0.619 0.0
C958 C 0.87221 0.90568 0.57587 0.0
C959 C 0.88711 0.90473 0.53418 0.0
H960 H 0.65476 0.5448 0.61842 0.0
H961 H 0.69508 0.53814 0.48426 0.0
H962 H 0.68069 0.5785 0.45865 0.0
H963 H 0.60292 0.57508 0.56893 0.0
H964 H 0.5987 0.59497 0.62004 0.0
H965 H 0.61251 0.56566 0.62842 0.0
H966 H 0.65004 0.58618 0.66774 0.0
H967 H 0.63635 0.61558 0.65937 0.0
H968 H 0.66613 0.60959 0.63513 0.0
H969 H 0.6601 0.61831 0.44513 0.0
H970 H 0.63598 0.65623 0.44669 0.0
H971 H 0.61064 0.63859 0.59103 0.0
C972 C 0.66055 0.55196 0.58378 0.0
C973 C 0.67616 0.53845 0.55348 0.0
C974 C 0.68345 0.54835 0.50839 0.0
C975 C 0.67528 0.57121 0.4934 0.0
C976 C 0.65999 0.58412 0.52411 0.0
C977 C 0.65282 0.575 0.56852 0.0
C978 C 0.6363 0.59274 0.5945 0.0
C979 C 0.61112 0.58143 0.60348 0.0
C980 C 0.64791 0.60154 0.642 0.0
C981 C 0.63507 0.61303 0.55745 0.0
C982 C 0.64879 0.60761 0.517 0.0
C983 C 0.64955 0.62294 0.47685 0.0
C984 C 0.63583 0.64436 0.47797 0.0
C985 C 0.62186 0.65037 0.51918 0.0
C986 C 0.62163 0.63459 0.55952 0.0
H987 H 0.36851 0.61475 0.57154 0.0
H988 H 0.35421 0.62498 0.4186 0.0
H989 H 0.39301 0.64764 0.41042 0.0
H990 H 0.39686 0.6731 0.59429 0.0
H991 H 0.41884 0.66063 0.63571 0.0
H992 H 0.38949 0.64645 0.62933 0.0
H993 H 0.41029 0.60551 0.60895 0.0
H994 H 0.43969 0.61958 0.61501 0.0
H995 H 0.43173 0.60414 0.55969 0.0
H996 H 0.43378 0.66921 0.41985 0.0
H997 H 0.47367 0.68588 0.44496 0.0
H998 H 0.46109 0.66007 0.5911 0.0
C999 C 0.37334 0.62212 0.53647 0.0
C1000 C 0.35825 0.61846 0.49579 0.0
C1001 C 0.36552 0.62771 0.4502 0.0
C1002 C 0.38745 0.64063 0.44531 0.0
C1003 C 0.40195 0.64387 0.48626 0.0
C1004 C 0.39519 0.63474 0.53089 0.0
C1005 C 0.41435 0.63967 0.5689 0.0
C1006 C 0.40428 0.65593 0.60944 0.0
C1007 C 0.42462 0.6158 0.58932 0.0
C1008 C 0.43304 0.65298 0.53878 0.0
C1009 C 0.42553 0.65545 0.49129 0.0
C1010 C 0.43982 0.66734 0.45694 0.0
C1011 C 0.46237 0.67683 0.47153 0.0
C1012 C 0.47051 0.67414 0.51989 0.0
C1013 C 0.45553 0.66209 0.55375 0.0
H1014 H 0.33942 0.46761 0.50618 0.0
H1015 H 0.34005 0.47331 0.66248 0.0
H1016 H 0.35606 0.43143 0.6685 0.0
H1017 H 0.32334 0.40346 0.49765 0.0
H1018 H 0.3434 0.39772 0.44739 0.0
H1019 H 0.33033 0.42743 0.45537 0.0
H1020 H 0.37334 0.44662 0.45528 0.0
H1021 H 0.38653 0.41701 0.44716 0.0
H1022 H 0.3958 0.43572 0.49743 0.0
H1023 H 0.37201 0.38949 0.65759 0.0
H1024 H 0.39089 0.35121 0.6309 0.0
H1025 H 0.38249 0.37315 0.481 0.0
C1026 C 0.34278 0.45981 0.54152 0.0
C1027 C 0.33848 0.47341 0.58397 0.0
C1028 C 0.34339 0.46304 0.62973 0.0
C1029 C 0.35229 0.4393 0.63341 0.0
C1030 C 0.35647 0.42634 0.59089 0.0
C1031 C 0.35218 0.43628 0.54576 0.0
C1032 C 0.35983 0.41902 0.5058 0.0
C1033 C 0.33791 0.41146 0.47472 0.0
C1034 C 0.38008 0.43027 0.47459 0.0
C1035 C 0.36919 0.39788 0.53556 0.0
C1036 C 0.36667 0.40238 0.58453 0.0
C1037 C 0.37402 0.3857 0.61937 0.0
C1038 C 0.38457 0.36395 0.60384 0.0
C1039 C 0.38795 0.35915 0.55391 0.0
C1040 C 0.38005 0.37634 0.51937 0.0
H1041 H 0.54498 0.32928 0.50965 0.0
H1042 H 0.53455 0.33537 0.66475 0.0
H1043 H 0.57535 0.35324 0.67318 0.0
H1044 H 0.61083 0.31515 0.51428 0.0
H1045 H 0.61772 0.33297 0.46127 0.0
H1046 H 0.58838 0.31867 0.46732 0.0
H1047 H 0.56756 0.36037 0.4554 0.0
H1048 H 0.5968 0.37481 0.44964 0.0
H1049 H 0.57557 0.38531 0.49463 0.0
H1050 H 0.61482 0.37327 0.66507 0.0
H1051 H 0.65246 0.39378 0.64165 0.0
H1052 H 0.63963 0.37436 0.49121 0.0
C1053 C 0.55159 0.33398 0.54534 0.0
C1054 C 0.53664 0.33107 0.5866 0.0
C1055 C 0.54563 0.33775 0.63272 0.0
C1056 C 0.56881 0.34776 0.63789 0.0
C1057 C 0.58288 0.35096 0.59656 0.0
C1058 C 0.57482 0.34421 0.55115 0.0
C1059 C 0.59341 0.35091 0.51268 0.0
C1060 C 0.60316 0.32806 0.4874 0.0
C1061 C 0.58269 0.36892 0.47592 0.0
C1062 C 0.61287 0.36287 0.54365 0.0
C1063 C 0.60632 0.36247 0.5919 0.0
C1064 C 0.62047 0.37326 0.62755 0.0
C1065 C 0.64202 0.38472 0.61376 0.0
C1066 C 0.64956 0.38523 0.56461 0.0
C1067 C 0.6346 0.37416 0.52908 0.0
H1068 H 0.65129 0.45917 0.94589 0.0
H1069 H 0.70323 0.45656 0.06412 0.0
H1070 H 0.68811 0.41593 0.08641 0.0
H1071 H 0.60239 0.43117 0.0109 0.0
H1072 H 0.59113 0.41501 0.95876 0.0
H1073 H 0.60684 0.44347 0.95107 0.0
H1074 H 0.63741 0.42279 0.89288 0.0
H1075 H 0.6218 0.39426 0.90041 0.0
H1076 H 0.65386 0.39637 0.91297 0.0
H1077 H 0.66655 0.37493 0.09622 0.0
H1078 H 0.64086 0.33797 0.09166 0.0
H1079 H 0.60179 0.36952 0.97059 0.0
C1080 C 0.65953 0.45026 0.97661 0.0
C1081 C 0.67865 0.46132 1.00286 0.0
C1082 C 0.6889 0.44855 0.0426 0.0
C1083 C 0.68029 0.42543 0.05589 0.0
C1084 C 0.6613 0.41524 0.02938 0.0
C1085 C 0.65105 0.42733 0.99063 0.0
C1086 C 0.63055 0.41276 0.96845 0.0
C1087 C 0.6063 0.42642 0.97257 0.0
C1088 C 0.63626 0.40616 0.91555 0.0
C1089 C 0.63089 0.39053 1.00064 0.0
C1090 C 0.64874 0.39216 0.03556 0.0
C1091 C 0.65247 0.37353 0.06904 0.0
C1092 C 0.63768 0.35264 0.06638 0.0
C1093 C 0.61937 0.35059 0.03052 0.0
C1094 C 0.61592 0.37008 0.99781 0.0
H1095 H 0.53909 0.64028 0.96253 0.0
H1096 H 0.54128 0.69396 0.07755 0.0
H1097 H 0.58142 0.67891 0.10268 0.0
H1098 H 0.56844 0.59175 0.03104 0.0
H1099 H 0.58475 0.58064 0.97902 0.0
H1100 H 0.55573 0.59517 0.9713 0.0
H1101 H 0.57513 0.6259 0.91151 0.0
H1102 H 0.6042 0.61152 0.91915 0.0
H1103 H 0.60103 0.64359 0.93053 0.0
H1104 H 0.62261 0.65888 0.11319 0.0
H1105 H 0.66105 0.63571 0.10699 0.0
H1106 H 0.63063 0.59429 0.98774 0.0
C1107 C 0.54781 0.64867 0.9934 0.0
C1108 C 0.53699 0.66847 0.01764 0.0
C1109 C 0.54929 0.6791 0.0576 0.0
C1110 C 0.57206 0.67053 0.07253 0.0
C1111 C 0.58231 0.65117 0.04745 0.0
C1112 C 0.57051 0.64031 1.00888 0.0
C1113 C 0.58568 0.6202 0.98719 0.0
C1114 C 0.57288 0.59548 0.99247 0.0
C1115 C 0.59188 0.62564 0.93395 0.0
C1116 C 0.60799 0.62173 0.01903 0.0
C1117 C 0.60575 0.63958 0.05379 0.0
C1118 C 0.6245 0.64471 0.0863 0.0
C1119 C 0.64622 0.63141 0.08269 0.0
C1120 C 0.64898 0.61333 0.04666 0.0
C1121 C 0.62933 0.60827 0.01519 0.0
H1122 H 0.35093 0.5451 0.95718 0.0
H1123 H 0.31971 0.53542 0.09986 0.0
H1124 H 0.33703 0.57492 0.12556 0.0
H1125 H 0.40651 0.57332 0.99441 0.0
H1126 H 0.40744 0.59427 0.94431 0.0
H1127 H 0.3926 0.56528 0.93753 0.0
H1128 H 0.35302 0.58691 0.91099 0.0
H1129 H 0.36775 0.61597 0.91766 0.0
H1130 H 0.33989 0.60975 0.94968 0.0
H1131 H 0.35986 0.61469 0.1366 0.0
H1132 H 0.38354 0.653 0.12986 0.0
H1133 H 0.39763 0.63744 0.97871 0.0
C1134 C 0.34781 0.55133 0.99381 0.0
C1135 C 0.33405 0.53727 0.02661 0.0
C1136 C 0.33004 0.54608 0.07411 0.0
C1137 C 0.33991 0.5684 0.08906 0.0
C1138 C 0.35348 0.58182 0.05584 0.0
C1139 C 0.35718 0.57373 1.00902 0.0
C1140 C 0.37199 0.5918 0.98003 0.0
C1141 C 0.39606 0.58048 0.96309 0.0
C1142 C 0.35728 0.60169 0.93705 0.0
C1143 C 0.37624 0.61121 0.01791 0.0
C1144 C 0.36563 0.60507 0.06157 0.0
C1145 C 0.368 0.61981 0.10243 0.0
C1146 C 0.38148 0.64145 0.09839 0.0
C1147 C 0.39202 0.64822 0.05367 0.0
C1148 C 0.38932 0.63287 0.01308 0.0
H1149 H 0.4576 0.3501 0.94134 0.0
H1150 H 0.45913 0.30073 0.06391 0.0
H1151 H 0.41886 0.31525 0.08925 0.0
H1152 H 0.43012 0.39962 1.00506 0.0
H1153 H 0.41227 0.40933 0.95394 0.0
H1154 H 0.44082 0.3942 0.94434 0.0
H1155 H 0.41924 0.36189 0.89118 0.0
H1156 H 0.39062 0.37691 0.90069 0.0
H1157 H 0.39383 0.3452 0.91559 0.0
H1158 H 0.37805 0.33588 0.10203 0.0
H1159 H 0.34069 0.36082 0.10043 0.0
H1160 H 0.36754 0.39797 0.97242 0.0
C1161 C 0.44958 0.34232 0.97356 0.0
C1162 C 0.46164 0.32403 1.00014 0.0
C1163 C 0.45022 0.31434 0.04205 0.0
C1164 C 0.42734 0.32262 0.05708 0.0
C1165 C 0.41605 0.34072 0.03009 0.0
C1166 C 0.42685 0.35047 0.98927 0.0
C1167 C 0.4112 0.3701 0.96713 0.0
C1168 C 0.42439 0.39477 0.96768 0.0
C1169 C 0.40325 0.36309 0.9156 0.0
C1170 C 0.38994 0.36985 1.00183 0.0
C1171 C 0.39295 0.35277 0.03788 0.0
C1172 C 0.37552 0.34934 0.07395 0.0
C1173 C 0.35441 0.36369 0.07293 0.0
C1174 C 0.35095 0.38126 0.0361 0.0
C1175 C 0.3692 0.38436 1.0005 0.0
H1176 H 0.02236 0.23656 0.41544 0.0
H1177 H 0.95854 0.28179 0.40274 0.0
H1178 H 0.96986 0.29209 0.31859 0.0
H1179 H 0.06352 0.27261 0.33097 0.0
H1180 H 0.07627 0.24514 0.30628 0.0
H1181 H 0.06644 0.24599 0.36851 0.0
H1182 H 0.0387 0.20876 0.35297 0.0
H1183 H 0.04817 0.20791 0.29077 0.0
H1184 H 0.01634 0.21009 0.30537 0.0
H1185 H 0.98374 0.29166 0.23303 0.0
H1186 H 0.99938 0.28076 0.15211 0.0
H1187 H 0.05404 0.23513 0.21893 0.0
C1188 C 0.01159 0.24962 0.39553 0.0
C1189 C 0.99009 0.25913 0.4156 0.0
C1190 C 0.97544 0.27496 0.38802 0.0
C1191 C 0.98173 0.28085 0.34029 0.0
C1192 C 1.00262 0.27055 0.32064 0.0
C1193 C 0.01746 0.25537 0.34745 0.0
C1194 C 0.03683 0.24396 0.3158 0.0
C1195 C 0.06228 0.25244 0.33132 0.0
C1196 C 0.03487 0.21604 0.31626 0.0
C1197 C 0.02998 0.25434 0.26684 0.0
C1198 C 0.01044 0.26993 0.27056 0.0
C1199 C 0.9994 0.27994 0.22975 0.0
C1200 C 0.00835 0.27359 0.18391 0.0
C1201 C 0.02808 0.25735 0.17926 0.0
C1202 C 0.03929 0.24804 0.22139 0.0
H1203 H 0.76608 0.94855 0.39579 0.0
H1204 H 0.71747 1.00121 0.46052 0.0
H1205 H 0.70853 0.01771 0.37902 0.0
H1206 H 0.79272 0.98797 0.31559 0.0
H1207 H 0.79628 0.96648 0.2669 0.0
H1208 H 0.79524 0.95597 0.32846 0.0
H1209 H 0.75941 0.92731 0.30724 0.0
H1210 H 0.7604 0.93768 0.24536 0.0
H1211 H 0.73252 0.93959 0.27933 0.0
H1212 H 0.70988 0.03236 0.29219 0.0
H1213 H 0.72136 0.04393 0.20871 0.0
H1214 H 0.76932 0.98195 0.2002 0.0
C1215 C 0.75287 0.963 0.39284 0.0
C1216 C 0.74216 0.97332 0.43476 0.0
C1217 C 0.72558 0.99272 0.42909 0.0
C1218 C 0.72045 1.00223 0.38284 0.0
C1219 C 0.73198 0.99213 0.34249 0.0
C1220 C 0.74775 0.9728 0.3471 0.0
C1221 C 0.75986 0.96687 0.2991 0.0
C1222 C 0.78766 0.96949 0.30275 0.0
C1223 C 0.75261 0.94134 0.28173 0.0
C1224 C 0.74904 0.98633 0.26682 0.0
C1225 C 0.73274 1.00052 0.29242 0.0
C1226 C 0.72209 0.02097 0.2716 0.0
C1227 C 0.72863 0.02736 0.22408 0.0
C1228 C 0.7455 0.01331 0.19754 0.0
C1229 C 0.75554 0.99233 0.21897 0.0
H1230 H 0.96101 0.76461 0.21713 0.0
H1231 H 0.02393 0.73776 0.13937 0.0
H1232 H 0.04489 0.73057 0.21712 0.0
H1233 H 0.99248 0.79683 0.30495 0.0
H1234 H 0.97208 0.78988 0.35411 0.0
H1235 H 0.96098 0.79013 0.29291 0.0
H1236 H 0.94529 0.746 0.3031 0.0
H1237 H 0.95637 0.74562 0.3645 0.0
H1238 H 0.96597 0.72258 0.32234 0.0
H1239 H 0.06108 0.73206 0.30191 0.0
H1240 H 0.07059 0.74036 0.38787 0.0
H1241 H 0.99654 0.76383 0.41176 0.0
C1242 C 0.979 0.75671 0.21647 0.0
C1243 C 0.99081 0.75165 0.17213 0.0
C1244 C 0.01445 0.74161 0.17284 0.0
C1245 C 0.0265 0.73745 0.21686 0.0
C1246 C 0.01453 0.7431 0.25992 0.0
C1247 C 0.99118 0.75224 0.26011 0.0
C1248 C 0.98295 0.75822 0.31116 0.0
C1249 C 0.97677 0.78537 0.31604 0.0
C1250 C 0.96136 0.74214 0.32615 0.0
C1251 C 0.00561 0.75178 0.33954 0.0
C1252 C 0.02358 0.743 0.30926 0.0
C1253 C 0.04696 0.73826 0.32616 0.0
C1254 C 0.0522 0.743 0.37495 0.0
C1255 C 0.0341 0.75202 0.40645 0.0
C1256 C 0.0104 0.75599 0.38874 0.0
H1257 H 0.24575 0.99518 0.42659 0.0
H1258 H 0.27569 0.06709 0.40358 0.0
H1259 H 0.28212 0.05752 0.317 0.0
H1260 H 0.28324 0.96183 0.33551 0.0
H1261 H 0.25788 0.94324 0.31702 0.0
H1262 H 0.25977 0.95415 0.37843 0.0
H1263 H 0.21712 0.97344 0.36982 0.0
H1264 H 0.21518 0.96282 0.30837 0.0
H1265 H 0.21155 0.99468 0.32145 0.0
H1266 H 0.28153 0.04163 0.23169 0.0
H1267 H 0.27283 0.02124 0.15387 0.0
H1268 H 0.24105 0.96043 0.23145 0.0
C1269 C 0.25458 0.00848 0.40361 0.0
C1270 C 0.26091 0.03162 0.42179 0.0
C1271 C 0.27122 0.0491 0.39033 0.0
C1272 C 0.2749 0.04382 0.34117 0.0
C1273 C 0.26784 0.02106 0.3239 0.0
C1274 C 0.25786 1.00366 0.35415 0.0
C1275 C 0.24918 0.98178 0.32554 0.0
C1276 C 0.26337 0.9589 0.33999 0.0
C1277 C 0.22163 0.97797 0.33166 0.0
C1278 C 0.25546 0.98974 0.27448 0.0
C1279 C 0.26653 0.0123 0.27438 0.0
C1280 C 0.27311 0.02384 0.23137 0.0
C1281 C 0.26808 0.01213 0.1873 0.0
C1282 C 0.25633 0.98922 0.18649 0.0
C1283 C 0.2502 0.97786 0.23081 0.0
H1284 H 0.00695 0.77067 0.91611 0.0
H1285 H 0.93246 0.76289 0.86642 0.0
H1286 H 0.94625 0.7661 0.78209 0.0
H1287 H 0.02614 0.81383 0.82504 0.0
H1288 H 0.05593 0.80085 0.81766 0.0
H1289 H 0.04043 0.7983 0.87489 0.0
H1290 H 0.04497 0.75152 0.872 0.0
H1291 H 0.06055 0.75391 0.81485 0.0
H1292 H 0.03388 0.73503 0.82009 0.0
H1293 H 0.96736 0.77073 0.70346 0.0
H1294 H 0.99509 0.7741 0.63405 0.0
H1295 H 0.05663 0.77762 0.73229 0.0
C1296 C 0.99357 0.76961 0.88746 0.0
C1297 C 0.96857 0.76655 0.89811 0.0
C1298 C 0.95169 0.76519 0.85946 0.0
C1299 C 0.95932 0.76706 0.81129 0.0
C1300 C 0.98397 0.77015 0.80202 0.0
C1301 C 1.00093 0.77124 0.83882 0.0
C1302 C 0.0264 0.77413 0.81834 0.0
C1303 C 0.0379 0.79821 0.83497 0.0
C1304 C 0.04239 0.75234 0.83214 0.0
C1305 C 0.021 0.77442 0.76438 0.0
C1306 C 0.99636 0.77231 0.75603 0.0
C1307 C 0.98672 0.77231 0.70946 0.0
C1308 C 1.00268 0.77428 0.6702 0.0
C1309 C 0.02812 0.77605 0.67749 0.0
C1310 C 0.03732 0.77621 0.7254 0.0
H1311 H 0.22846 0.05196 0.74492 0.0
H1312 H 0.23178 0.99017 0.64737 0.0
H1313 H 0.23594 0.9627 0.71733 0.0
H1314 H 0.27202 0.03119 0.82937 0.0
H1315 H 0.25629 0.04221 0.88218 0.0
H1316 H 0.25232 0.0572 0.8248 0.0
H1317 H 0.20572 0.05116 0.8308 0.0
H1318 H 0.20957 0.03641 0.8885 0.0
H1319 H 0.19359 0.02109 0.8404 0.0
H1320 H 0.24267 0.94221 0.79682 0.0
H1321 H 0.24796 0.92938 0.88144 0.0
H1322 H 0.2389 0.00405 0.92886 0.0
C1323 C 0.22979 0.03262 0.73826 0.0
C1324 C 0.22986 0.02326 0.69049 0.0
C1325 C 0.23164 0.99783 0.68348 0.0
C1326 C 0.23408 0.98205 0.72303 0.0
C1327 C 0.23445 0.99192 0.76948 0.0
C1328 C 0.23201 0.01656 0.77742 0.0
C1329 C 0.23315 0.02239 0.83112 0.0
C1330 C 0.25473 0.03924 0.84251 0.0
C1331 C 0.20907 0.03341 0.84873 0.0
C1332 C 0.23701 0.99721 0.852 0.0
C1333 C 0.23778 0.97995 0.8157 0.0
C1334 C 0.24187 0.95552 0.8256 0.0
C1335 C 0.24498 0.94844 0.87391 0.0
C1336 C 0.24383 0.96567 0.912 0.0
C1337 C 0.23982 0.99042 0.90067 0.0
H1338 H 0.05 0.23216 0.85766 0.0
H1339 H 0.98645 0.22691 0.95037 0.0
H1340 H 0.96015 0.22579 0.87821 0.0
H1341 H 0.02402 0.2709 0.76869 0.0
H1342 H 0.03876 0.25646 0.71808 0.0
H1343 H 0.05284 0.25599 0.77689 0.0
H1344 H 0.05492 0.209 0.7736 0.0
H1345 H 0.04085 0.20932 0.71471 0.0
H1346 H 0.02753 0.19178 0.76303 0.0
H1347 H 0.94067 0.2272 0.79721 0.0
H1348 H 0.92889 0.2299 0.71158 0.0
H1349 H 0.00492 0.23322 0.67002 0.0
C1350 C 0.03056 0.23066 0.86282 0.0
C1351 C 0.02028 0.22968 0.90974 0.0
C1352 C 0.99476 0.22769 0.91486 0.0
C1353 C 0.97966 0.22703 0.87408 0.0
C1354 C 0.99036 0.22819 0.82845 0.0
C1355 C 0.0152 0.22981 0.82247 0.0
C1356 C 0.02195 0.2311 0.76926 0.0
C1357 C 0.03517 0.25504 0.75756 0.0
C1358 C 0.03721 0.20898 0.75428 0.0
C1359 C 0.99695 0.2303 0.74634 0.0
C1360 C 0.97905 0.2286 0.78128 0.0
C1361 C 0.95451 0.22837 0.76948 0.0
C1362 C 0.94802 0.23 0.72065 0.0
C1363 C 0.96599 0.23176 0.68404 0.0
C1364 C 0.9908 0.23171 0.69715 0.0
H1365 H 0.76093 0.97412 0.71169 0.0
H1366 H 0.80858 0.0348 0.67835 0.0
H1367 H 0.80469 0.04955 0.76212 0.0
H1368 H 0.72091 0.0068 0.79622 0.0
H1369 H 0.71795 0.98135 0.83687 0.0
H1370 H 0.72296 0.97623 0.77322 0.0
H1371 H 0.76079 0.95028 0.79328 0.0
H1372 H 0.75594 0.95538 0.85694 0.0
H1373 H 0.7847 0.96316 0.82982 0.0
H1374 H 0.79745 0.05704 0.84967 0.0
H1375 H 0.78748 0.05679 0.9364 0.0
H1376 H 0.74483 0.99105 0.9163 0.0
C1377 C 0.77019 0.99072 0.72191 0.0
C1378 C 0.78499 1.00338 0.68821 0.0
C1379 C 0.79718 0.02477 0.70334 0.0
C1380 C 0.79504 0.03335 0.75091 0.0
C1381 C 0.78071 0.02033 0.78341 0.0
C1382 C 0.76845 0.99948 0.76976 0.0
C1383 C 0.75519 0.98844 0.81288 0.0
C1384 C 0.72761 0.9882 0.80427 0.0
C1385 C 0.76473 0.9628 0.82387 0.0
C1386 C 0.76209 0.00626 0.85278 0.0
C1387 C 0.77672 0.02455 0.83467 0.0
C1388 C 0.78591 0.04287 0.86424 0.0
C1389 C 0.78015 0.04252 0.91367 0.0
C1390 C 0.76532 0.02393 0.93359 0.0
C1391 C 0.75607 0.00562 0.90237 0.0
H1392 H 0.51556 0.74798 0.88511 0.0
H1393 H 0.43856 0.75793 0.86005 0.0
H1394 H 0.44671 0.7669 0.77384 0.0
H1395 H 0.5386 0.79309 0.7951 0.0
H1396 H 0.56318 0.77357 0.77681 0.0
H1397 H 0.55186 0.77232 0.838 0.0
H1398 H 0.54416 0.72608 0.82886 0.0
H1399 H 0.55546 0.72719 0.76785 0.0
H1400 H 0.52553 0.71525 0.77967 0.0
H1401 H 0.46278 0.77122 0.68908 0.0
H1402 H 0.48489 0.76656 0.61168 0.0
H1403 H 0.55107 0.75122 0.69101 0.0
C1404 C 0.50057 0.75282 0.86166 0.0
C1405 C 0.47649 0.75277 0.87915 0.0
C1406 C 0.45715 0.75817 0.84723 0.0
C1407 C 0.46163 0.76339 0.79833 0.0
C1408 C 0.48554 0.76284 0.78178 0.0
C1409 C 0.50469 0.75751 0.81242 0.0
C1410 C 0.52821 0.75497 0.78442 0.0
C1411 C 0.54654 0.77467 0.79949 0.0
C1412 C 0.53896 0.72935 0.79056 0.0
C1413 C 0.5192 0.75909 0.73324 0.0
C1414 C 0.49465 0.76419 0.73255 0.0
C1415 C 0.48207 0.76751 0.6892 0.0
C1416 C 0.49478 0.76493 0.6454 0.0
C1417 C 0.51968 0.75864 0.64536 0.0
C1418 C 0.53207 0.75624 0.68993 0.0
H1419 H 0.25715 0.45971 0.85883 0.0
H1420 H 0.24038 0.52562 0.93796 0.0
H1421 H 0.23444 0.54731 0.8603 0.0
H1422 H 0.29172 0.48649 0.76908 0.0
H1423 H 0.28144 0.4671 0.72062 0.0
H1424 H 0.28115 0.45614 0.78192 0.0
H1425 H 0.23523 0.44634 0.77474 0.0
H1426 H 0.23538 0.45721 0.71319 0.0
H1427 H 0.21444 0.46986 0.75648 0.0
H1428 H 0.23651 0.56301 0.77441 0.0
H1429 H 0.24419 0.57096 0.68761 0.0
H1430 H 0.25762 0.49437 0.66414 0.0
C1431 C 0.25164 0.47857 0.85992 0.0
C1432 C 0.24909 0.49097 0.90451 0.0
C1433 C 0.24216 0.5157 0.90429 0.0
C1434 C 0.2388 0.52816 0.86032 0.0
C1435 C 0.2421 0.51552 0.81696 0.0
C1436 C 0.24805 0.49116 0.81649 0.0
C1437 C 0.25212 0.48208 0.76528 0.0
C1438 C 0.27814 0.47239 0.75888 0.0
C1439 C 0.23316 0.46273 0.75162 0.0
C1440 C 0.24829 0.5053 0.73691 0.0
C1441 C 0.24245 0.52438 0.76738 0.0
C1442 C 0.24045 0.54809 0.75015 0.0
C1443 C 0.24486 0.55245 0.70084 0.0
C1444 C 0.25091 0.53319 0.66914 0.0
C1445 C 0.25217 0.50927 0.6873 0.0
H1446 H 0.48586 0.25474 0.89247 0.0
H1447 H 0.55667 0.22253 0.87138 0.0
H1448 H 0.54694 0.21497 0.7853 0.0
H1449 H 0.45135 0.21644 0.80172 0.0
H1450 H 0.43362 0.2421 0.78219 0.0
H1451 H 0.44413 0.24035 0.84388 0.0
H1452 H 0.46466 0.28248 0.83459 0.0
H1453 H 0.45443 0.28427 0.7729 0.0
H1454 H 0.48631 0.28725 0.78653 0.0
H1455 H 0.53189 0.21633 0.6989 0.0
H1456 H 0.51285 0.22664 0.62035 0.0
H1457 H 0.45214 0.25891 0.69674 0.0
C1458 C 0.49874 0.24496 0.87019 0.0
C1459 C 0.52168 0.23835 0.88891 0.0
C1460 C 0.53874 0.22702 0.85801 0.0
C1461 C 0.53339 0.22276 0.80899 0.0
C1462 C 0.51093 0.23019 0.79103 0.0
C1463 C 0.49379 0.24094 0.82078 0.0
C1464 C 0.47233 0.24995 0.79133 0.0
C1465 C 0.44897 0.2364 0.80564 0.0
C1466 C 0.46927 0.27762 0.79666 0.0
C1467 C 0.48034 0.24316 0.74046 0.0
C1468 C 0.50251 0.2315 0.74105 0.0
C1469 C 0.51431 0.22505 0.69812 0.0
C1470 C 0.50335 0.23096 0.65357 0.0
C1471 C 0.48085 0.24332 0.65211 0.0
C1472 C 0.46913 0.24905 0.69638 0.0
H1473 H 0.75371 0.45441 0.7029 0.0
H1474 H 0.7739 0.5199 0.6253 0.0
H1475 H 0.78367 0.53991 0.70322 0.0
H1476 H 0.72277 0.48213 0.79345 0.0
H1477 H 0.73181 0.46179 0.84125 0.0
H1478 H 0.7312 0.45125 0.77975 0.0
H1479 H 0.77637 0.43856 0.78617 0.0
H1480 H 0.77712 0.44904 0.848 0.0
H1481 H 0.79879 0.46059 0.80478 0.0
H1482 H 0.78358 0.55486 0.78895 0.0
H1483 H 0.77447 0.56338 0.87485 0.0
H1484 H 0.75555 0.48785 0.89733 0.0
C1485 C 0.76093 0.47273 0.7021 0.0
C1486 C 0.76321 0.48558 0.65797 0.0
C1487 C 0.7723 0.50963 0.65858 0.0
C1488 C 0.77789 0.5211 0.70271 0.0
C1489 C 0.77461 0.50815 0.74574 0.0
C1490 C 0.7666 0.48435 0.74568 0.0
C1491 C 0.762 0.47522 0.79668 0.0
C1492 C 0.73537 0.46714 0.80313 0.0
C1493 C 0.77963 0.45463 0.80967 0.0
C1494 C 0.76753 0.49795 0.82556 0.0
C1495 C 0.77511 0.51665 0.79552 0.0
C1496 C 0.7784 0.54019 0.81293 0.0
C1497 C 0.7732 0.54486 0.86173 0.0
C1498 C 0.765 0.5261 0.89273 0.0
C1499 C 0.7628 0.50223 0.87476 0.0
H1500 H 0.52377 0.25199 0.16318 0.0
H1501 H 0.50716 0.32874 0.14848 0.0
H1502 H 0.49445 0.33018 0.23356 0.0
H1503 H 0.47328 0.23754 0.24436 0.0
H1504 H 0.49053 0.21644 0.28039 0.0
H1505 H 0.49805 0.22095 0.21754 0.0
H1506 H 0.54225 0.23167 0.24149 0.0
H1507 H 0.53484 0.22731 0.30442 0.0
H1508 H 0.54773 0.25572 0.28446 0.0
H1509 H 0.48429 0.32425 0.3203 0.0
H1510 H 0.47608 0.31079 0.40362 0.0
H1511 H 0.49869 0.2377 0.36544 0.0
C1512 C 0.51729 0.26903 0.17783 0.0
C1513 C 0.5166 0.29028 0.14876 0.0
C1514 C 0.50808 0.31222 0.16965 0.0
C1515 C 0.50074 0.31326 0.21815 0.0
C1516 C 0.50193 0.29222 0.24591 0.0
C1517 C 0.50987 0.27045 0.2267 0.0
C1518 C 0.50942 0.25066 0.26525 0.0
C1519 C 0.49177 0.23018 0.25103 0.0
C1520 C 0.53509 0.24076 0.27444 0.0
C1521 C 0.50007 0.26479 0.30885 0.0
C1522 C 0.49592 0.28874 0.29662 0.0
C1523 C 0.4874 0.30551 0.33032 0.0
C1524 C 0.48281 0.29765 0.37775 0.0
C1525 C 0.48668 0.27315 0.39153 0.0
C1526 C 0.49554 0.25656 0.35634 0.0
H1527 H 0.68292 0.494 0.37984 0.0
H1528 H 0.7587 0.47572 0.40292 0.0
H1529 H 0.76732 0.48443 0.31692 0.0
H1530 H 0.67804 0.46748 0.26077 0.0
H1531 H 0.65813 0.49085 0.23832 0.0
H1532 H 0.658 0.4832 0.30171 0.0
H1533 H 0.66678 0.52816 0.32355 0.0
H1534 H 0.66693 0.53595 0.26025 0.0
H1535 H 0.69283 0.54318 0.29752 0.0
H1536 H 0.76784 0.49636 0.22848 0.0
H1537 H 0.75996 0.50931 0.14429 0.0
H1538 H 0.68361 0.51849 0.17878 0.0
C1539 C 0.70135 0.4918 0.36692 0.0
C1540 C 0.72015 0.4842 0.39833 0.0
C1541 C 0.74397 0.48148 0.37969 0.0
C1542 C 0.74906 0.48641 0.33085 0.0
C1543 C 0.73011 0.49388 0.30095 0.0
C1544 C 0.7067 0.49644 0.31824 0.0
C1545 C 0.68955 0.5046 0.27859 0.0
C1546 C 0.66976 0.48538 0.26931 0.0
C1547 C 0.67837 0.52945 0.29071 0.0
C1548 C 0.70698 0.50639 0.23632 0.0
C1549 C 0.73031 0.50022 0.24996 0.0
C1550 C 0.74962 0.50109 0.21735 0.0
C1551 C 0.74496 0.5085 0.16961 0.0
C1552 C 0.72115 0.5148 0.15479 0.0
C1553 C 0.70197 0.51358 0.18875 0.0
H1554 H 0.50708 0.73917 0.39181 0.0
H1555 H 0.58228 0.73838 0.3441 0.0
H1556 H 0.56877 0.73922 0.25927 0.0
H1557 H 0.48338 0.70099 0.29639 0.0
H1558 H 0.45546 0.71772 0.29035 0.0
H1559 H 0.47091 0.71682 0.34779 0.0
H1560 H 0.47205 0.76386 0.3497 0.0
H1561 H 0.45668 0.76491 0.29219 0.0
H1562 H 0.48542 0.7802 0.29975 0.0
H1563 H 0.54765 0.73967 0.17994 0.0
H1564 H 0.51993 0.74043 0.11011 0.0
H1565 H 0.45806 0.74195 0.2077 0.0
C1566 C 0.52069 0.73914 0.3635 0.0
C1567 C 0.54577 0.73871 0.37472 0.0
C1568 C 0.56298 0.73875 0.33657 0.0
C1569 C 0.5555 0.73921 0.28817 0.0
C1570 C 0.53073 0.73972 0.27834 0.0
C1571 C 0.51354 0.73974 0.31477 0.0
C1572 C 0.48804 0.74056 0.29393 0.0
C1573 C 0.4736 0.71766 0.30795 0.0
C1574 C 0.47477 0.76377 0.30984 0.0
C1575 C 0.49368 0.741 0.24015 0.0
C1576 C 0.51844 0.7404 0.23214 0.0
C1577 C 0.52822 0.74024 0.18569 0.0
C1578 C 0.51229 0.74067 0.14623 0.0
C1579 C 0.4868 0.74137 0.15333 0.0
C1580 C 0.47744 0.74164 0.20105 0.0
H1581 H 0.31074 0.49969 0.19338 0.0
H1582 H 0.24577 0.45722 0.16488 0.0
H1583 H 0.23385 0.46095 0.25068 0.0
H1584 H 0.32316 0.47638 0.31248 0.0
H1585 H 0.33274 0.50522 0.33687 0.0
H1586 H 0.33654 0.49895 0.27333 0.0
H1587 H 0.31211 0.53766 0.25198 0.0
H1588 H 0.30833 0.54409 0.31547 0.0
H1589 H 0.28209 0.54162 0.27677 0.0
H1590 H 0.22978 0.46773 0.34013 0.0
H1591 H 0.23174 0.48041 0.42572 0.0
H1592 H 0.29796 0.52069 0.39605 0.0
C1593 C 0.29403 0.49116 0.20527 0.0
C1594 C 0.27925 0.47804 0.17244 0.0
C1595 C 0.25735 0.4674 0.18926 0.0
C1596 C 0.25048 0.46934 0.23801 0.0
C1597 C 0.26549 0.48226 0.26948 0.0
C1598 C 0.28665 0.49328 0.25374 0.0
C1599 C 0.29906 0.50678 0.29485 0.0
C1600 C 0.32437 0.49619 0.30497 0.0
C1601 C 0.30047 0.53416 0.28412 0.0
C1602 C 0.28166 0.50148 0.33616 0.0
C1603 C 0.26257 0.48707 0.32077 0.0
C1604 C 0.24454 0.47917 0.35251 0.0
C1605 C 0.24587 0.48638 0.40115 0.0
C1606 C 0.26492 0.50163 0.41761 0.0
C1607 C 0.28305 0.50921 0.38451 0.0
loop_
_geom_bond_atom_site_label_1
_geom_bond_atom_site_label_2
_geom_bond_distance
_geom_bond_site_symmetry_2
_ccdc_geom_bond_type
Co0 N4 2.148 . S
Co0 N10 2.128 . S
Co0 N20 2.194 . S
Co0 O25 2.351 . S
Co0 O26 2.155 . S
Co0 O27 2.096 1_554 S
C1 N4 1.301 . S
C1 N5 1.328 . S
C1 H6 0.930 . S
C2 C3 1.333 . S
C2 N4 1.317 1_556 S
C2 H7 0.930 . S
C3 C2 1.333 . S
C3 N5 1.350 1_556 S
C3 H29 0.931 . S
N4 Co0 2.148 . S
N4 C1 1.301 . S
N4 C2 1.317 1_554 S
N5 C1 1.328 . S
N5 C3 1.350 1_554 S
H6 C1 0.930 . S
H7 C2 0.930 . S
C8 O9 1.224 . S
C8 O27 1.247 . S
O9 C8 1.224 . S
N10 Co0 2.128 . S
N10 C11 1.355 . S
N10 C13 1.311 1_454 S
C11 N10 1.355 . S
C11 C12 1.363 1_455 S
C11 H23 0.929 . S
C12 C11 1.363 1_655 S
C12 N14 1.375 . S
C12 H30 0.931 . S
C13 N10 1.311 1_656 S
C13 N14 1.347 1_556 S
C13 H24 0.929 . S
N14 C12 1.375 . S
N14 C13 1.347 1_554 S
C15 C18 1.365 . S
C15 N20 1.328 . S
C15 H21 0.929 . S
C16 C17 1.362 1_556 S
C16 C19 1.378 . S
C16 H31 0.929 . S
C17 C16 1.362 1_554 S
C17 C18 1.366 . S
C18 C15 1.365 . S
C18 C17 1.366 . S
C18 H32 0.930 . S
C19 C16 1.378 . S
C19 N20 1.315 1_556 S
C19 H22 0.930 . S
N20 Co0 2.194 . S
N20 C15 1.328 . S
N20 C19 1.315 1_554 S
H21 C15 0.929 . S
H22 C19 0.930 . S
H23 C11 0.929 . S
H24 C13 0.929 . S
O25 Co0 2.351 . S
O25 C28 1.244 . S
O26 Co0 2.155 . S
O26 C28 1.240 . S
O27 Co0 2.096 1_556 S
O27 C8 1.247 . S
C28 O25 1.244 . S
C28 O26 1.240 . S
H29 C3 0.931 . S
H30 C12 0.931 . S
H31 C16 0.929 . S
H32 C18 0.930 . S
Co33 N37 2.148 . S
Co33 N43 2.128 . S
Co33 N53 2.194 . S
Co33 O58 2.351 . S
Co33 O59 2.155 . S
Co33 O60 2.096 1_554 S
C34 N37 1.301 . S
C34 N38 1.328 . S
C34 H39 0.930 . S
C35 C36 1.333 . S
C35 N37 1.317 1_556 S
C35 H40 0.930 . S
C36 C35 1.333 . S
C36 N38 1.350 1_556 S
C36 H62 0.931 . S
N37 Co33 2.148 . S
N37 C34 1.301 . S
N37 C35 1.317 1_554 S
N38 C34 1.328 . S
N38 C36 1.350 1_554 S
H39 C34 0.930 . S
H40 C35 0.930 . S
C41 O42 1.224 . S
C41 O60 1.247 . S
O42 C41 1.224 . S
N43 Co33 2.128 . S
N43 C44 1.355 . S
N43 C46 1.311 1_544 S
C44 N43 1.355 . S
C44 C45 1.363 1_545 S
C44 H56 0.929 . S
C45 C44 1.363 1_565 S
C45 N47 1.375 . S
C45 H63 0.931 . S
C46 N43 1.311 1_566 S
C46 N47 1.347 1_556 S
C46 H57 0.929 . S
N47 C45 1.375 . S
N47 C46 1.347 1_554 S
C48 C51 1.365 . S
C48 N53 1.328 . S
C48 H54 0.929 . S
C49 C50 1.362 1_556 S
C49 C52 1.378 . S
C49 H64 0.929 . S
C50 C49 1.362 1_554 S
C50 C51 1.366 . S
C51 C48 1.365 . S
C51 C50 1.366 . S
C51 H65 0.930 . S
C52 C49 1.378 . S
C52 N53 1.315 1_556 S
C52 H55 0.930 . S
N53 Co33 2.194 . S
N53 C48 1.328 . S
N53 C52 1.315 1_554 S
H54 C48 0.929 . S
H55 C52 0.930 . S
H56 C44 0.929 . S
H57 C46 0.929 . S
O58 Co33 2.351 . S
O58 C61 1.244 . S
O59 Co33 2.155 . S
O59 C61 1.240 . S
O60 Co33 2.096 1_556 S
O60 C41 1.247 . S
C61 O58 1.244 . S
C61 O59 1.240 . S
H62 C36 0.931 . S
H63 C45 0.931 . S
H64 C49 0.929 . S
H65 C51 0.930 . S
Co66 N70 2.148 . S
Co66 N76 2.128 . S
Co66 N86 2.194 . S
Co66 O91 2.351 . S
Co66 O92 2.155 . S
Co66 O93 2.096 1_554 S
C67 N70 1.301 . S
C67 N71 1.328 . S
C67 H72 0.930 . S
C68 C69 1.333 . S
C68 N70 1.317 1_556 S
C68 H73 0.930 . S
C69 C68 1.333 . S
C69 N71 1.350 1_556 S
C69 H95 0.931 . S
N70 Co66 2.148 . S
N70 C67 1.301 . S
N70 C68 1.317 1_554 S
N71 C67 1.328 . S
N71 C69 1.350 1_554 S
H72 C67 0.930 . S
H73 C68 0.930 . S
C74 O75 1.224 . S
C74 O93 1.247 . S
O75 C74 1.224 . S
N76 Co66 2.128 . S
N76 C77 1.355 . S
N76 C79 1.311 1_654 S
C77 N76 1.355 . S
C77 C78 1.363 1_655 S
C77 H89 0.929 . S
C78 C77 1.363 1_455 S
C78 N80 1.375 . S
C78 H96 0.931 . S
C79 N76 1.311 1_456 S
C79 N80 1.347 1_556 S
C79 H90 0.929 . S
N80 C78 1.375 . S
N80 C79 1.347 1_554 S
C81 C84 1.365 . S
C81 N86 1.328 . S
C81 H87 0.929 . S
C82 C83 1.362 1_556 S
C82 C85 1.378 . S
C82 H97 0.929 . S
C83 C82 1.362 1_554 S
C83 C84 1.366 . S
C84 C81 1.365 . S
C84 C83 1.366 . S
C84 H98 0.930 . S
C85 C82 1.378 . S
C85 N86 1.315 1_556 S
C85 H88 0.930 . S
N86 Co66 2.194 . S
N86 C81 1.328 . S
N86 C85 1.315 1_554 S
H87 C81 0.929 . S
H88 C85 0.930 . S
H89 C77 0.929 . S
H90 C79 0.929 . S
O91 Co66 2.351 . S
O91 C94 1.244 . S
O92 Co66 2.155 . S
O92 C94 1.240 . S
O93 Co66 2.096 1_556 S
O93 C74 1.247 . S
C94 O91 1.244 . S
C94 O92 1.240 . S
H95 C69 0.931 . S
H96 C78 0.931 . S
H97 C82 0.929 . S
H98 C84 0.930 . S
Co99 N103 2.148 . S
Co99 N109 2.128 . S
Co99 N119 2.194 . S
Co99 O124 2.351 . S
Co99 O125 2.155 . S
Co99 O126 2.096 1_554 S
C100 N103 1.301 . S
C100 N104 1.328 . S
C100 H105 0.930 . S
C101 C102 1.333 . S
C101 N103 1.317 1_556 S
C101 H106 0.930 . S
C102 C101 1.333 . S
C102 N104 1.350 1_556 S
C102 H128 0.931 . S
N103 Co99 2.148 . S
N103 C100 1.301 . S
N103 C101 1.317 1_554 S
N104 C100 1.328 . S
N104 C102 1.350 1_554 S
H105 C100 0.930 . S
H106 C101 0.930 . S
C107 O108 1.224 . S
C107 O126 1.247 . S
O108 C107 1.224 . S
N109 Co99 2.128 . S
N109 C110 1.355 . S
N109 C112 1.311 1_564 S
C110 N109 1.355 . S
C110 C111 1.363 1_565 S
C110 H122 0.929 . S
C111 C110 1.363 1_545 S
C111 N113 1.375 . S
C111 H129 0.931 . S
C112 N109 1.311 1_546 S
C112 N113 1.347 1_556 S
C112 H123 0.929 . S
N113 C111 1.375 . S
N113 C112 1.347 1_554 S
C114 C117 1.365 . S
C114 N119 1.328 . S
C114 H120 0.929 . S
C115 C116 1.362 1_556 S
C115 C118 1.378 . S
C115 H130 0.929 . S
C116 C115 1.362 1_554 S
C116 C117 1.366 . S
C117 C114 1.365 . S
C117 C116 1.366 . S
C117 H131 0.930 . S
C118 C115 1.378 . S
C118 N119 1.315 1_556 S
C118 H121 0.930 . S
N119 Co99 2.194 . S
N119 C114 1.328 . S
N119 C118 1.315 1_554 S
H120 C114 0.929 . S
H121 C118 0.930 . S
H122 C110 0.929 . S
H123 C112 0.929 . S
O124 Co99 2.351 . S
O124 C127 1.244 . S
O125 Co99 2.155 . S
O125 C127 1.240 . S
O126 Co99 2.096 1_556 S
O126 C107 1.247 . S
C127 O124 1.244 . S
C127 O125 1.240 . S
H128 C102 0.931 . S
H129 C111 0.931 . S
H130 C115 0.929 . S
H131 C117 0.930 . S
Co132 N136 2.148 . S
Co132 N142 2.128 . S
Co132 N152 2.194 . S
Co132 O157 2.351 . S
Co132 O158 2.155 . S
Co132 O159 2.096 . S
C133 N136 1.301 . S
C133 N137 1.328 . S
C133 H138 0.930 . S
C134 C135 1.333 . S
C134 N136 1.317 . S
C134 H139 0.930 . S
C135 C134 1.333 . S
C135 N137 1.350 . S
C135 H161 0.931 . S
N136 Co132 2.148 . S
N136 C133 1.301 . S
N136 C134 1.317 . S
N137 C133 1.328 . S
N137 C135 1.350 . S
H138 C133 0.930 . S
H139 C134 0.930 . S
C140 O141 1.224 . S
C140 O159 1.247 . S
O141 C140 1.224 . S
N142 Co132 2.128 . S
N142 C143 1.355 . S
N142 C145 1.311 1_455 S
C143 N142 1.355 . S
C143 C144 1.363 1_455 S
C143 H155 0.929 . S
C144 C143 1.363 1_655 S
C144 N146 1.375 . S
C144 H162 0.931 . S
C145 N142 1.311 1_655 S
C145 N146 1.347 . S
C145 H156 0.929 . S
N146 C144 1.375 . S
N146 C145 1.347 . S
C147 C150 1.365 . S
C147 N152 1.328 . S
C147 H153 0.929 . S
C148 C149 1.362 . S
C148 C151 1.378 . S
C148 H163 0.929 . S
C149 C148 1.362 . S
C149 C150 1.366 . S
C150 C147 1.365 . S
C150 C149 1.366 . S
C150 H164 0.930 . S
C151 C148 1.378 . S
C151 N152 1.315 . S
C151 H154 0.930 . S
N152 Co132 2.194 . S
N152 C147 1.328 . S
N152 C151 1.315 . S
H153 C147 0.929 . S
H154 C151 0.930 . S
H155 C143 0.929 . S
H156 C145 0.929 . S
O157 Co132 2.351 . S
O157 C160 1.244 . S
O158 Co132 2.155 . S
O158 C160 1.240 . S
O159 Co132 2.096 . S
O159 C140 1.247 . S
C160 O157 1.244 . S
C160 O158 1.240 . S
H161 C135 0.931 . S
H162 C144 0.931 . S
H163 C148 0.929 . S
H164 C150 0.930 . S
Co165 N169 2.148 . S
Co165 N175 2.128 . S
Co165 N185 2.194 . S
Co165 O190 2.351 . S
Co165 O191 2.155 . S
Co165 O192 2.096 . S
C166 N169 1.301 . S
C166 N170 1.328 . S
C166 H171 0.930 . S
C167 C168 1.333 . S
C167 N169 1.317 . S
C167 H172 0.930 . S
C168 C167 1.333 . S
C168 N170 1.350 . S
C168 H194 0.931 . S
N169 Co165 2.148 . S
N169 C166 1.301 . S
N169 C167 1.317 . S
N170 C166 1.328 . S
N170 C168 1.350 . S
H171 C166 0.930 . S
H172 C167 0.930 . S
C173 O174 1.224 . S
C173 O192 1.247 . S
O174 C173 1.224 . S
N175 Co165 2.128 . S
N175 C176 1.355 . S
N175 C178 1.311 1_545 S
C176 N175 1.355 . S
C176 C177 1.363 1_545 S
C176 H188 0.929 . S
C177 C176 1.363 1_565 S
C177 N179 1.375 . S
C177 H195 0.931 . S
C178 N175 1.311 1_565 S
C178 N179 1.347 . S
C178 H189 0.929 . S
N179 C177 1.375 . S
N179 C178 1.347 . S
C180 C183 1.365 . S
C180 N185 1.328 . S
C180 H186 0.929 . S
C181 C182 1.362 . S
C181 C184 1.378 . S
C181 H196 0.929 . S
C182 C181 1.362 . S
C182 C183 1.366 . S
C183 C180 1.365 . S
C183 C182 1.366 . S
C183 H197 0.930 . S
C184 C181 1.378 . S
C184 N185 1.315 . S
C184 H187 0.930 . S
N185 Co165 2.194 . S
N185 C180 1.328 . S
N185 C184 1.315 . S
H186 C180 0.929 . S
H187 C184 0.930 . S
H188 C176 0.929 . S
H189 C178 0.929 . S
O190 Co165 2.351 . S
O190 C193 1.244 . S
O191 Co165 2.155 . S
O191 C193 1.240 . S
O192 Co165 2.096 . S
O192 C173 1.247 . S
C193 O190 1.244 . S
C193 O191 1.240 . S
H194 C168 0.931 . S
H195 C177 0.931 . S
H196 C181 0.929 . S
H197 C183 0.930 . S
Co198 N202 2.148 . S
Co198 N208 2.128 . S
Co198 N218 2.194 . S
Co198 O223 2.351 . S
Co198 O224 2.155 . S
Co198 O225 2.096 . S
C199 N202 1.301 . S
C199 N203 1.328 . S
C199 H204 0.930 . S
C200 C201 1.333 . S
C200 N202 1.317 . S
C200 H205 0.930 . S
C201 C200 1.333 . S
C201 N203 1.350 . S
C201 H227 0.931 . S
N202 Co198 2.148 . S
N202 C199 1.301 . S
N202 C200 1.317 . S
N203 C199 1.328 . S
N203 C201 1.350 . S
H204 C199 0.930 . S
H205 C200 0.930 . S
C206 O207 1.224 . S
C206 O225 1.247 . S
O207 C206 1.224 . S
N208 Co198 2.128 . S
N208 C209 1.355 . S
N208 C211 1.311 1_655 S
C209 N208 1.355 . S
C209 C210 1.363 1_655 S
C209 H221 0.929 . S
C210 C209 1.363 1_455 S
C210 N212 1.375 . S
C210 H228 0.931 . S
C211 N208 1.311 1_455 S
C211 N212 1.347 . S
C211 H222 0.929 . S
N212 C210 1.375 . S
N212 C211 1.347 . S
C213 C216 1.365 . S
C213 N218 1.328 . S
C213 H219 0.929 . S
C214 C215 1.362 . S
C214 C217 1.378 . S
C214 H229 0.929 . S
C215 C214 1.362 . S
C215 C216 1.366 . S
C216 C213 1.365 . S
C216 C215 1.366 . S
C216 H230 0.930 . S
C217 C214 1.378 . S
C217 N218 1.315 . S
C217 H220 0.930 . S
N218 Co198 2.194 . S
N218 C213 1.328 . S
N218 C217 1.315 . S
H219 C213 0.929 . S
H220 C217 0.930 . S
H221 C209 0.929 . S
H222 C211 0.929 . S
O223 Co198 2.351 . S
O223 C226 1.244 . S
O224 Co198 2.155 . S
O224 C226 1.240 . S
O225 Co198 2.096 . S
O225 C206 1.247 . S
C226 O223 1.244 . S
C226 O224 1.240 . S
H227 C201 0.931 . S
H228 C210 0.931 . S
H229 C214 0.929 . S
H230 C216 0.930 . S
Co231 N235 2.148 . S
Co231 N241 2.128 . S
Co231 N251 2.194 . S
Co231 O256 2.351 . S
Co231 O257 2.155 . S
Co231 O258 2.096 . S
C232 N235 1.301 . S
C232 N236 1.328 . S
C232 H237 0.930 . S
C233 C234 1.333 . S
C233 N235 1.317 . S
C233 H238 0.930 . S
C234 C233 1.333 . S
C234 N236 1.350 . S
C234 H260 0.931 . S
N235 Co231 2.148 . S
N235 C232 1.301 . S
N235 C233 1.317 . S
N236 C232 1.328 . S
N236 C234 1.350 . S
H237 C232 0.930 . S
H238 C233 0.930 . S
C239 O240 1.224 . S
C239 O258 1.247 . S
O240 C239 1.224 . S
N241 Co231 2.128 . S
N241 C242 1.355 . S
N241 C244 1.311 1_565 S
C242 N241 1.355 . S
C242 C243 1.363 1_565 S
C242 H254 0.929 . S
C243 C242 1.363 1_545 S
C243 N245 1.375 . S
C243 H261 0.931 . S
C244 N241 1.311 1_545 S
C244 N245 1.347 . S
C244 H255 0.929 . S
N245 C243 1.375 . S
N245 C244 1.347 . S
C246 C249 1.365 . S
C246 N251 1.328 . S
C246 H252 0.929 . S
C247 C248 1.362 . S
C247 C250 1.378 . S
C247 H262 0.929 . S
C248 C247 1.362 . S
C248 C249 1.366 . S
C249 C246 1.365 . S
C249 C248 1.366 . S
C249 H263 0.930 . S
C250 C247 1.378 . S
C250 N251 1.315 . S
C250 H253 0.930 . S
N251 Co231 2.194 . S
N251 C246 1.328 . S
N251 C250 1.315 . S
H252 C246 0.929 . S
H253 C250 0.930 . S
H254 C242 0.929 . S
H255 C244 0.929 . S
O256 Co231 2.351 . S
O256 C259 1.244 . S
O257 Co231 2.155 . S
O257 C259 1.240 . S
O258 Co231 2.096 . S
O258 C239 1.247 . S
C259 O256 1.244 . S
C259 O257 1.240 . S
H260 C234 0.931 . S
H261 C243 0.931 . S
H262 C247 0.929 . S
H263 C249 0.930 . S
Co264 N268 2.148 . S
Co264 N274 2.128 . S
Co264 N284 2.194 . S
Co264 O289 2.351 . S
Co264 O290 2.155 . S
Co264 O291 2.096 . S
C265 N268 1.301 . S
C265 N269 1.328 . S
C265 H270 0.930 . S
C266 C267 1.333 . S
C266 N268 1.317 . S
C266 H271 0.930 . S
C267 C266 1.333 . S
C267 N269 1.350 . S
C267 H293 0.931 . S
N268 Co264 2.148 . S
N268 C265 1.301 . S
N268 C266 1.317 . S
N269 C265 1.328 . S
N269 C267 1.350 . S
H270 C265 0.930 . S
H271 C266 0.930 . S
C272 O273 1.224 . S
C272 O291 1.247 . S
O273 C272 1.224 . S
N274 Co264 2.128 . S
N274 C275 1.355 . S
N274 C277 1.311 . S
C275 N274 1.355 . S
C275 C276 1.363 . S
C275 H287 0.929 . S
C276 C275 1.363 . S
C276 N278 1.375 . S
C276 H294 0.931 . S
C277 N274 1.311 . S
C277 N278 1.347 . S
C277 H288 0.929 . S
N278 C276 1.375 . S
N278 C277 1.347 . S
C279 C282 1.365 . S
C279 N284 1.328 . S
C279 H285 0.929 . S
C280 C281 1.362 . S
C280 C283 1.378 . S
C280 H295 0.929 . S
C281 C280 1.362 . S
C281 C282 1.366 . S
C282 C279 1.365 . S
C282 C281 1.366 . S
C282 H296 0.930 . S
C283 C280 1.378 . S
C283 N284 1.315 . S
C283 H286 0.930 . S
N284 Co264 2.194 . S
N284 C279 1.328 . S
N284 C283 1.315 . S
H285 C279 0.929 . S
H286 C283 0.930 . S
H287 C275 0.929 . S
H288 C277 0.929 . S
O289 Co264 2.351 . S
O289 C292 1.244 . S
O290 Co264 2.155 . S
O290 C292 1.240 . S
O291 Co264 2.096 . S
O291 C272 1.247 . S
C292 O289 1.244 . S
C292 O290 1.240 . S
H293 C267 0.931 . S
H294 C276 0.931 . S
H295 C280 0.929 . S
H296 C282 0.930 . S
Co297 N301 2.148 . S
Co297 N307 2.128 . S
Co297 N317 2.194 . S
Co297 O322 2.351 . S
Co297 O323 2.155 . S
Co297 O324 2.096 . S
C298 N301 1.301 . S
C298 N302 1.328 . S
C298 H303 0.930 . S
C299 C300 1.333 . S
C299 N301 1.317 . S
C299 H304 0.930 . S
C300 C299 1.333 . S
C300 N302 1.350 . S
C300 H326 0.931 . S
N301 Co297 2.148 . S
N301 C298 1.301 . S
N301 C299 1.317 . S
N302 C298 1.328 . S
N302 C300 1.350 . S
H303 C298 0.930 . S
H304 C299 0.930 . S
C305 O306 1.224 . S
C305 O324 1.247 . S
O306 C305 1.224 . S
N307 Co297 2.128 . S
N307 C308 1.355 . S
N307 C310 1.311 . S
C308 N307 1.355 . S
C308 C309 1.363 . S
C308 H320 0.929 . S
C309 C308 1.363 . S
C309 N311 1.375 . S
C309 H327 0.931 . S
C310 N307 1.311 . S
C310 N311 1.347 . S
C310 H321 0.929 . S
N311 C309 1.375 . S
N311 C310 1.347 . S
C312 C315 1.365 . S
C312 N317 1.328 . S
C312 H318 0.929 . S
C313 C314 1.362 . S
C313 C316 1.378 . S
C313 H328 0.929 . S
C314 C313 1.362 . S
C314 C315 1.366 . S
C315 C312 1.365 . S
C315 C314 1.366 . S
C315 H329 0.930 . S
C316 C313 1.378 . S
C316 N317 1.315 . S
C316 H319 0.930 . S
N317 Co297 2.194 . S
N317 C312 1.328 . S
N317 C316 1.315 . S
H318 C312 0.929 . S
H319 C316 0.930 . S
H320 C308 0.929 . S
H321 C310 0.929 . S
O322 Co297 2.351 . S
O322 C325 1.244 . S
O323 Co297 2.155 . S
O323 C325 1.240 . S
O324 Co297 2.096 . S
O324 C305 1.247 . S
C325 O322 1.244 . S
C325 O323 1.240 . S
H326 C300 0.931 . S
H327 C309 0.931 . S
H328 C313 0.929 . S
H329 C315 0.930 . S
Co330 N334 2.148 . S
Co330 N340 2.128 . S
Co330 N350 2.194 . S
Co330 O355 2.351 . S
Co330 O356 2.155 . S
Co330 O357 2.096 . S
C331 N334 1.301 . S
C331 N335 1.328 . S
C331 H336 0.930 . S
C332 C333 1.333 . S
C332 N334 1.317 . S
C332 H337 0.930 . S
C333 C332 1.333 . S
C333 N335 1.350 . S
C333 H359 0.931 . S
N334 Co330 2.148 . S
N334 C331 1.301 . S
N334 C332 1.317 . S
N335 C331 1.328 . S
N335 C333 1.350 . S
H336 C331 0.930 . S
H337 C332 0.930 . S
C338 O339 1.224 . S
C338 O357 1.247 . S
O339 C338 1.224 . S
N340 Co330 2.128 . S
N340 C341 1.355 . S
N340 C343 1.311 . S
C341 N340 1.355 . S
C341 C342 1.363 . S
C341 H353 0.929 . S
C342 C341 1.363 . S
C342 N344 1.375 . S
C342 H360 0.931 . S
C343 N340 1.311 . S
C343 N344 1.347 . S
C343 H354 0.929 . S
N344 C342 1.375 . S
N344 C343 1.347 . S
C345 C348 1.365 . S
C345 N350 1.328 . S
C345 H351 0.929 . S
C346 C347 1.362 . S
C346 C349 1.378 . S
C346 H361 0.929 . S
C347 C346 1.362 . S
C347 C348 1.366 . S
C348 C345 1.365 . S
C348 C347 1.366 . S
C348 H362 0.930 . S
C349 C346 1.378 . S
C349 N350 1.315 . S
C349 H352 0.930 . S
N350 Co330 2.194 . S
N350 C345 1.328 . S
N350 C349 1.315 . S
H351 C345 0.929 . S
H352 C349 0.930 . S
H353 C341 0.929 . S
H354 C343 0.929 . S
O355 Co330 2.351 . S
O355 C358 1.244 . S
O356 Co330 2.155 . S
O356 C358 1.240 . S
O357 Co330 2.096 . S
O357 C338 1.247 . S
C358 O355 1.244 . S
C358 O356 1.240 . S
H359 C333 0.931 . S
H360 C342 0.931 . S
H361 C346 0.929 . S
H362 C348 0.930 . S
Co363 N367 2.148 . S
Co363 N373 2.128 . S
Co363 N383 2.194 . S
Co363 O388 2.351 . S
Co363 O389 2.155 . S
Co363 O390 2.096 . S
C364 N367 1.301 . S
C364 N368 1.328 . S
C364 H369 0.930 . S
C365 C366 1.333 . S
C365 N367 1.317 . S
C365 H370 0.930 . S
C366 C365 1.333 . S
C366 N368 1.350 . S
C366 H392 0.931 . S
N367 Co363 2.148 . S
N367 C364 1.301 . S
N367 C365 1.317 . S
N368 C364 1.328 . S
N368 C366 1.350 . S
H369 C364 0.930 . S
H370 C365 0.930 . S
C371 O372 1.224 . S
C371 O390 1.247 . S
O372 C371 1.224 . S
N373 Co363 2.128 . S
N373 C374 1.355 . S
N373 C376 1.311 . S
C374 N373 1.355 . S
C374 C375 1.363 . S
C374 H386 0.929 . S
C375 C374 1.363 . S
C375 N377 1.375 . S
C375 H393 0.931 . S
C376 N373 1.311 . S
C376 N377 1.347 . S
C376 H387 0.929 . S
N377 C375 1.375 . S
N377 C376 1.347 . S
C378 C381 1.365 . S
C378 N383 1.328 . S
C378 H384 0.929 . S
C379 C380 1.362 . S
C379 C382 1.378 . S
C379 H394 0.929 . S
C380 C379 1.362 . S
C380 C381 1.366 . S
C381 C378 1.365 . S
C381 C380 1.366 . S
C381 H395 0.930 . S
C382 C379 1.378 . S
C382 N383 1.315 . S
C382 H385 0.930 . S
N383 Co363 2.194 . S
N383 C378 1.328 . S
N383 C382 1.315 . S
H384 C378 0.929 . S
H385 C382 0.930 . S
H386 C374 0.929 . S
H387 C376 0.929 . S
O388 Co363 2.351 . S
O388 C391 1.244 . S
O389 Co363 2.155 . S
O389 C391 1.240 . S
O390 Co363 2.096 . S
O390 C371 1.247 . S
C391 O388 1.244 . S
C391 O389 1.240 . S
H392 C366 0.931 . S
H393 C375 0.931 . S
H394 C379 0.929 . S
H395 C381 0.930 . S
Co396 N400 2.148 . S
Co396 N406 2.128 . S
Co396 N416 2.194 . S
Co396 O421 2.351 1_554 S
Co396 O422 2.155 1_554 S
Co396 O423 2.096 . S
C397 N400 1.301 . S
C397 N401 1.328 . S
C397 H402 0.930 1_554 S
C398 C399 1.333 . S
C398 N400 1.317 . S
C398 H403 0.930 . S
C399 C398 1.333 . S
C399 N401 1.350 . S
C399 H425 0.931 . S
N400 Co396 2.148 . S
N400 C397 1.301 . S
N400 C398 1.317 . S
N401 C397 1.328 . S
N401 C399 1.350 . S
H402 C397 0.930 1_556 S
H403 C398 0.930 . S
C404 O405 1.224 . S
C404 O423 1.247 . S
O405 C404 1.224 . S
N406 Co396 2.128 . S
N406 C407 1.355 . S
N406 C409 1.311 . S
C407 N406 1.355 . S
C407 C408 1.363 . S
C407 H419 0.929 1_554 S
C408 C407 1.363 . S
C408 N410 1.375 . S
C408 H426 0.931 . S
C409 N406 1.311 . S
C409 N410 1.347 . S
C409 H420 0.929 . S
N410 C408 1.375 . S
N410 C409 1.347 . S
C411 C414 1.365 . S
C411 N416 1.328 . S
C411 H417 0.929 1_554 S
C412 C413 1.362 . S
C412 C415 1.378 . S
C412 H427 0.929 . S
C413 C412 1.362 . S
C413 C414 1.366 . S
C414 C411 1.365 . S
C414 C413 1.366 . S
C414 H428 0.930 1_554 S
C415 C412 1.378 . S
C415 N416 1.315 . S
C415 H418 0.930 . S
N416 Co396 2.194 . S
N416 C411 1.328 . S
N416 C415 1.315 . S
H417 C411 0.929 1_556 S
H418 C415 0.930 . S
H419 C407 0.929 1_556 S
H420 C409 0.929 . S
O421 Co396 2.351 1_556 S
O421 C424 1.244 . S
O422 Co396 2.155 1_556 S
O422 C424 1.240 . S
O423 Co396 2.096 . S
O423 C404 1.247 . S
C424 O421 1.244 . S
C424 O422 1.240 . S
H425 C399 0.931 . S
H426 C408 0.931 . S
H427 C412 0.929 . S
H428 C414 0.930 1_556 S
Co429 N433 2.148 . S
Co429 N439 2.128 . S
Co429 N449 2.194 . S
Co429 O454 2.351 1_554 S
Co429 O455 2.155 1_554 S
Co429 O456 2.096 . S
C430 N433 1.301 . S
C430 N434 1.328 . S
C430 H435 0.930 1_554 S
C431 C432 1.333 . S
C431 N433 1.317 . S
C431 H436 0.930 . S
C432 C431 1.333 . S
C432 N434 1.350 . S
C432 H458 0.931 . S
N433 Co429 2.148 . S
N433 C430 1.301 . S
N433 C431 1.317 . S
N434 C430 1.328 . S
N434 C432 1.350 . S
H435 C430 0.930 1_556 S
H436 C431 0.930 . S
C437 O438 1.224 . S
C437 O456 1.247 . S
O438 C437 1.224 . S
N439 Co429 2.128 . S
N439 C440 1.355 . S
N439 C442 1.311 . S
C440 N439 1.355 . S
C440 C441 1.363 . S
C440 H452 0.929 1_554 S
C441 C440 1.363 . S
C441 N443 1.375 . S
C441 H459 0.931 . S
C442 N439 1.311 . S
C442 N443 1.347 . S
C442 H453 0.929 . S
N443 C441 1.375 . S
N443 C442 1.347 . S
C444 C447 1.365 . S
C444 N449 1.328 . S
C444 H450 0.929 1_554 S
C445 C446 1.362 . S
C445 C448 1.378 . S
C445 H460 0.929 . S
C446 C445 1.362 . S
C446 C447 1.366 . S
C447 C444 1.365 . S
C447 C446 1.366 . S
C447 H461 0.930 1_554 S
C448 C445 1.378 . S
C448 N449 1.315 . S
C448 H451 0.930 . S
N449 Co429 2.194 . S
N449 C444 1.328 . S
N449 C448 1.315 . S
H450 C444 0.929 1_556 S
H451 C448 0.930 . S
H452 C440 0.929 1_556 S
H453 C442 0.929 . S
O454 Co429 2.351 1_556 S
O454 C457 1.244 . S
O455 Co429 2.155 1_556 S
O455 C457 1.240 . S
O456 Co429 2.096 . S
O456 C437 1.247 . S
C457 O454 1.244 . S
C457 O455 1.240 . S
H458 C432 0.931 . S
H459 C441 0.931 . S
H460 C445 0.929 . S
H461 C447 0.930 1_556 S
Co462 N466 2.148 . S
Co462 N472 2.128 . S
Co462 N482 2.194 . S
Co462 O487 2.351 1_554 S
Co462 O488 2.155 1_554 S
Co462 O489 2.096 . S
C463 N466 1.301 . S
C463 N467 1.328 . S
C463 H468 0.930 1_554 S
C464 C465 1.333 . S
C464 N466 1.317 . S
C464 H469 0.930 . S
C465 C464 1.333 . S
C465 N467 1.350 . S
C465 H491 0.931 . S
N466 Co462 2.148 . S
N466 C463 1.301 . S
N466 C464 1.317 . S
N467 C463 1.328 . S
N467 C465 1.350 . S
H468 C463 0.930 1_556 S
H469 C464 0.930 . S
C470 O471 1.224 . S
C470 O489 1.247 . S
O471 C470 1.224 . S
N472 Co462 2.128 . S
N472 C473 1.355 . S
N472 C475 1.311 . S
C473 N472 1.355 . S
C473 C474 1.363 . S
C473 H485 0.929 1_554 S
C474 C473 1.363 . S
C474 N476 1.375 . S
C474 H492 0.931 . S
C475 N472 1.311 . S
C475 N476 1.347 . S
C475 H486 0.929 . S
N476 C474 1.375 . S
N476 C475 1.347 . S
C477 C480 1.365 . S
C477 N482 1.328 . S
C477 H483 0.929 1_554 S
C478 C479 1.362 . S
C478 C481 1.378 . S
C478 H493 0.929 . S
C479 C478 1.362 . S
C479 C480 1.366 . S
C480 C477 1.365 . S
C480 C479 1.366 . S
C480 H494 0.930 1_554 S
C481 C478 1.378 . S
C481 N482 1.315 . S
C481 H484 0.930 . S
N482 Co462 2.194 . S
N482 C477 1.328 . S
N482 C481 1.315 . S
H483 C477 0.929 1_556 S
H484 C481 0.930 . S
H485 C473 0.929 1_556 S
H486 C475 0.929 . S
O487 Co462 2.351 1_556 S
O487 C490 1.244 . S
O488 Co462 2.155 1_556 S
O488 C490 1.240 . S
O489 Co462 2.096 . S
O489 C470 1.247 . S
C490 O487 1.244 . S
C490 O488 1.240 . S
H491 C465 0.931 . S
H492 C474 0.931 . S
H493 C478 0.929 . S
H494 C480 0.930 1_556 S
Co495 N499 2.148 . S
Co495 N505 2.128 . S
Co495 N515 2.194 . S
Co495 O520 2.351 1_554 S
Co495 O521 2.155 1_554 S
Co495 O522 2.096 . S
C496 N499 1.301 . S
C496 N500 1.328 . S
C496 H501 0.930 1_554 S
C497 C498 1.333 . S
C497 N499 1.317 . S
C497 H502 0.930 . S
C498 C497 1.333 . S
C498 N500 1.350 . S
C498 H524 0.931 . S
N499 Co495 2.148 . S
N499 C496 1.301 . S
N499 C497 1.317 . S
N500 C496 1.328 . S
N500 C498 1.350 . S
H501 C496 0.930 1_556 S
H502 C497 0.930 . S
C503 O504 1.224 . S
C503 O522 1.247 . S
O504 C503 1.224 . S
N505 Co495 2.128 . S
N505 C506 1.355 . S
N505 C508 1.311 . S
C506 N505 1.355 . S
C506 C507 1.363 . S
C506 H518 0.929 1_554 S
C507 C506 1.363 . S
C507 N509 1.375 . S
C507 H525 0.931 . S
C508 N505 1.311 . S
C508 N509 1.347 . S
C508 H519 0.929 . S
N509 C507 1.375 . S
N509 C508 1.347 . S
C510 C513 1.365 . S
C510 N515 1.328 . S
C510 H516 0.929 1_554 S
C511 C512 1.362 . S
C511 C514 1.378 . S
C511 H526 0.929 . S
C512 C511 1.362 . S
C512 C513 1.366 . S
C513 C510 1.365 . S
C513 C512 1.366 . S
C513 H527 0.930 1_554 S
C514 C511 1.378 . S
C514 N515 1.315 . S
C514 H517 0.930 . S
N515 Co495 2.194 . S
N515 C510 1.328 . S
N515 C514 1.315 . S
H516 C510 0.929 1_556 S
H517 C514 0.930 . S
H518 C506 0.929 1_556 S
H519 C508 0.929 . S
O520 Co495 2.351 1_556 S
O520 C523 1.244 . S
O521 Co495 2.155 1_556 S
O521 C523 1.240 . S
O522 Co495 2.096 . S
O522 C503 1.247 . S
C523 O520 1.244 . S
C523 O521 1.240 . S
H524 C498 0.931 . S
H525 C507 0.931 . S
H526 C511 0.929 . S
H527 C513 0.930 1_556 S
H528 C540 0.930 . S
H529 C542 0.930 . S
H530 C543 0.930 . S
H531 C547 0.959 . S
H532 C547 0.959 . S
H533 C547 0.961 . S
H534 C548 0.960 . S
H535 C548 0.961 . S
H536 C548 0.959 . S
H537 C551 0.929 . S
H538 C552 0.931 . S
H539 C554 0.930 . S
C540 H528 0.930 . S
C540 C541 1.399 1_556 S
C540 C545 1.399 1_556 S
C541 C540 1.399 1_554 S
C541 C542 1.376 . S
C542 H529 0.930 . S
C542 C541 1.376 . S
C542 C543 1.388 . S
C543 H530 0.930 . S
C543 C542 1.388 . S
C543 C544 1.390 . S
C544 C543 1.390 . S
C544 C545 1.394 . S
C544 C550 1.465 . S
C545 C540 1.399 1_554 S
C545 C544 1.394 . S
C545 C546 1.516 1_554 S
C546 C545 1.516 1_556 S
C546 C547 1.502 . S
C546 C548 1.561 . S
C546 C549 1.526 1_556 S
C547 H531 0.959 . S
C547 H532 0.959 . S
C547 H533 0.961 . S
C547 C546 1.502 . S
C548 H534 0.960 . S
C548 H535 0.961 . S
C548 H536 0.959 . S
C548 C546 1.561 . S
C549 C546 1.526 1_554 S
C549 C550 1.396 . S
C549 C554 1.390 1_554 S
C550 C544 1.465 . S
C550 C549 1.396 . S
C550 C551 1.399 . S
C551 H537 0.929 . S
C551 C550 1.399 . S
C551 C552 1.385 . S
C552 H538 0.931 . S
C552 C551 1.385 . S
C552 C553 1.389 . S
C553 C552 1.389 . S
C553 C554 1.387 1_554 S
C554 H539 0.930 . S
C554 C549 1.390 1_556 S
C554 C553 1.387 1_556 S
H555 C567 0.930 . S
H556 C569 0.930 . S
H557 C570 0.930 . S
H558 C574 0.959 . S
H559 C574 0.959 . S
H560 C574 0.961 . S
H561 C575 0.960 . S
H562 C575 0.961 . S
H563 C575 0.959 . S
H564 C578 0.929 . S
H565 C579 0.931 . S
H566 C581 0.930 . S
C567 H555 0.930 . S
C567 C568 1.399 . S
C567 C572 1.399 . S
C568 C567 1.399 . S
C568 C569 1.376 1_554 S
C569 H556 0.930 . S
C569 C568 1.376 1_556 S
C569 C570 1.388 . S
C570 H557 0.930 . S
C570 C569 1.388 . S
C570 C571 1.390 1_556 S
C571 C570 1.390 1_554 S
C571 C572 1.394 . S
C571 C577 1.465 . S
C572 C567 1.399 . S
C572 C571 1.394 . S
C572 C573 1.516 . S
C573 C572 1.516 . S
C573 C574 1.502 . S
C573 C575 1.561 . S
C573 C576 1.526 . S
C574 H558 0.959 . S
C574 H559 0.959 . S
C574 H560 0.961 . S
C574 C573 1.502 . S
C575 H561 0.960 . S
C575 H562 0.961 . S
C575 H563 0.959 . S
C575 C573 1.561 . S
C576 C573 1.526 . S
C576 C577 1.396 . S
C576 C581 1.390 . S
C577 C571 1.465 . S
C577 C576 1.396 . S
C577 C578 1.399 1_554 S
C578 H564 0.929 . S
C578 C577 1.399 1_556 S
C578 C579 1.385 . S
C579 H565 0.931 . S
C579 C578 1.385 . S
C579 C580 1.389 1_556 S
C580 C579 1.389 1_554 S
C580 C581 1.387 . S
C581 H566 0.930 . S
C581 C576 1.390 . S
C581 C580 1.387 . S
H582 C594 0.930 . S
H583 C596 0.930 . S
H584 C597 0.930 . S
H585 C601 0.959 . S
H586 C601 0.959 . S
H587 C601 0.961 . S
H588 C602 0.960 . S
H589 C602 0.961 . S
H590 C602 0.959 . S
H591 C605 0.929 . S
H592 C606 0.931 . S
H593 C608 0.950 . S
C594 H582 0.930 . S
C594 C595 1.399 1_556 S
C594 C599 1.399 1_556 S
C595 C594 1.399 1_554 S
C595 C596 1.376 . S
C596 H583 0.930 . S
C596 C595 1.376 . S
C596 C597 1.388 . S
C597 H584 0.930 . S
C597 C596 1.388 . S
C597 C598 1.390 . S
C598 C597 1.390 . S
C598 C599 1.394 . S
C598 C604 1.465 . S
C599 C594 1.399 1_554 S
C599 C598 1.394 . S
C599 C600 1.516 1_554 S
C600 C599 1.516 1_556 S
C600 C601 1.502 . S
C600 C602 1.561 . S
C600 C603 1.526 1_556 S
C601 H585 0.959 . S
C601 H586 0.959 . S
C601 H587 0.961 . S
C601 C600 1.502 . S
C602 H588 0.960 . S
C602 H589 0.961 . S
C602 H590 0.959 . S
C602 C600 1.561 . S
C603 C600 1.526 1_554 S
C603 C604 1.396 . S
C603 C608 1.386 1_554 S
C604 C598 1.465 . S
C604 C603 1.396 . S
C604 C605 1.399 . S
C605 H591 0.929 . S
C605 C604 1.399 . S
C605 C606 1.385 . S
C606 H592 0.931 . S
C606 C605 1.385 . S
C606 C607 1.389 . S
C607 C606 1.389 . S
C607 C608 1.370 1_554 S
C608 H593 0.950 . S
C608 C603 1.386 1_556 S
C608 C607 1.370 1_556 S
H609 C621 0.930 . S
H610 C623 0.930 . S
H611 C624 0.930 . S
H612 C628 0.959 . S
H613 C628 0.959 . S
H614 C628 0.961 . S
H615 C629 0.960 . S
H616 C629 0.961 . S
H617 C629 0.959 . S
H618 C632 0.929 . S
H619 C633 0.931 . S
H620 C635 0.930 . S
C621 H609 0.930 . S
C621 C622 1.399 . S
C621 C626 1.399 . S
C622 C621 1.399 . S
C622 C623 1.376 1_554 S
C623 H610 0.930 . S
C623 C622 1.376 1_556 S
C623 C624 1.388 . S
C624 H611 0.930 . S
C624 C623 1.388 . S
C624 C625 1.390 1_556 S
C625 C624 1.390 1_554 S
C625 C626 1.394 . S
C625 C631 1.465 . S
C626 C621 1.399 . S
C626 C625 1.394 . S
C626 C627 1.516 . S
C627 C626 1.516 . S
C627 C628 1.502 . S
C627 C629 1.561 . S
C627 C630 1.526 . S
C628 H612 0.959 . S
C628 H613 0.959 . S
C628 H614 0.961 . S
C628 C627 1.502 . S
C629 H615 0.960 . S
C629 H616 0.961 . S
C629 H617 0.959 . S
C629 C627 1.561 . S
C630 C627 1.526 . S
C630 C631 1.396 . S
C630 C635 1.390 . S
C631 C625 1.465 . S
C631 C630 1.396 . S
C631 C632 1.399 1_554 S
C632 H618 0.929 . S
C632 C631 1.399 1_556 S
C632 C633 1.385 . S
C633 H619 0.931 . S
C633 C632 1.385 . S
C633 C634 1.389 1_556 S
C634 C633 1.389 1_554 S
C634 C635 1.387 . S
C635 H620 0.930 . S
C635 C630 1.390 . S
C635 C634 1.387 . S
H636 C648 0.930 . S
H637 C650 0.930 . S
H638 C651 0.930 . S
H639 C655 0.959 . S
H640 C655 0.959 . S
H641 C655 0.961 . S
H642 C656 0.960 . S
H643 C656 0.961 . S
H644 C656 0.959 . S
H645 C659 0.929 . S
H646 C660 0.931 . S
H647 C662 0.930 . S
C648 H636 0.930 . S
C648 C649 1.399 . S
C648 C653 1.399 . S
C649 C648 1.399 . S
C649 C650 1.376 . S
C650 H637 0.930 . S
C650 C649 1.376 . S
C650 C651 1.388 . S
C651 H638 0.930 . S
C651 C650 1.388 . S
C651 C652 1.390 . S
C652 C651 1.390 . S
C652 C653 1.394 . S
C652 C658 1.465 . S
C653 C648 1.399 . S
C653 C652 1.394 . S
C653 C654 1.516 . S
C654 C653 1.516 . S
C654 C655 1.502 . S
C654 C656 1.561 . S
C654 C657 1.526 . S
C655 H639 0.959 . S
C655 H640 0.959 . S
C655 H641 0.961 . S
C655 C654 1.502 . S
C656 H642 0.960 . S
C656 H643 0.961 . S
C656 H644 0.959 . S
C656 C654 1.561 . S
C657 C654 1.526 . S
C657 C658 1.396 . S
C657 C662 1.390 . S
C658 C652 1.465 . S
C658 C657 1.396 . S
C658 C659 1.399 . S
C659 H645 0.929 . S
C659 C658 1.399 . S
C659 C660 1.385 . S
C660 H646 0.931 . S
C660 C659 1.385 . S
C660 C661 1.389 . S
C661 C660 1.389 . S
C661 C662 1.387 . S
C662 H647 0.930 . S
C662 C657 1.390 . S
C662 C661 1.387 . S
H663 C675 0.930 . S
H664 C677 0.930 . S
H665 C678 0.930 . S
H666 C682 0.959 . S
H667 C682 0.959 . S
H668 C682 0.961 . S
H669 C683 0.960 . S
H670 C683 0.961 . S
H671 C683 0.959 . S
H672 C686 0.929 . S
H673 C687 0.931 . S
H674 C689 0.930 . S
C675 H663 0.930 . S
C675 C676 1.399 . S
C675 C680 1.399 . S
C676 C675 1.399 . S
C676 C677 1.376 . S
C677 H664 0.930 . S
C677 C676 1.376 . S
C677 C678 1.388 . S
C678 H665 0.930 . S
C678 C677 1.388 . S
C678 C679 1.390 . S
C679 C678 1.390 . S
C679 C680 1.394 . S
C679 C685 1.465 . S
C680 C675 1.399 . S
C680 C679 1.394 . S
C680 C681 1.516 . S
C681 C680 1.516 . S
C681 C682 1.502 . S
C681 C683 1.561 . S
C681 C684 1.526 . S
C682 H666 0.959 . S
C682 H667 0.959 . S
C682 H668 0.961 . S
C682 C681 1.502 . S
C683 H669 0.960 . S
C683 H670 0.961 . S
C683 H671 0.959 . S
C683 C681 1.561 . S
C684 C681 1.526 . S
C684 C685 1.396 . S
C684 C689 1.390 . S
C685 C679 1.465 . S
C685 C684 1.396 . S
C685 C686 1.399 . S
C686 H672 0.929 . S
C686 C685 1.399 . S
C686 C687 1.385 . S
C687 H673 0.931 . S
C687 C686 1.385 . S
C687 C688 1.389 . S
C688 C687 1.389 . S
C688 C689 1.387 . S
C689 H674 0.930 . S
C689 C684 1.390 . S
C689 C688 1.387 . S
H690 C702 0.930 . S
H691 C704 0.930 . S
H692 C705 0.930 . S
H693 C709 0.959 . S
H694 C709 0.959 . S
H695 C709 0.961 . S
H696 C710 0.960 . S
H697 C710 0.961 . S
H698 C710 0.959 . S
H699 C713 0.929 . S
H700 C714 0.931 . S
H701 C716 0.930 . S
C702 H690 0.930 . S
C702 C703 1.399 . S
C702 C707 1.399 . S
C703 C702 1.399 . S
C703 C704 1.376 . S
C704 H691 0.930 . S
C704 C703 1.376 . S
C704 C705 1.388 . S
C705 H692 0.930 . S
C705 C704 1.388 . S
C705 C706 1.390 . S
C706 C705 1.390 . S
C706 C707 1.394 . S
C706 C712 1.465 . S
C707 C702 1.399 . S
C707 C706 1.394 . S
C707 C708 1.516 . S
C708 C707 1.516 . S
C708 C709 1.502 . S
C708 C710 1.561 . S
C708 C711 1.526 . S
C709 H693 0.959 . S
C709 H694 0.959 . S
C709 H695 0.961 . S
C709 C708 1.502 . S
C710 H696 0.960 . S
C710 H697 0.961 . S
C710 H698 0.959 . S
C710 C708 1.561 . S
C711 C708 1.526 . S
C711 C712 1.396 . S
C711 C716 1.390 . S
C712 C706 1.465 . S
C712 C711 1.396 . S
C712 C713 1.399 . S
C713 H699 0.929 . S
C713 C712 1.399 . S
C713 C714 1.385 . S
C714 H700 0.931 . S
C714 C713 1.385 . S
C714 C715 1.389 . S
C715 C714 1.389 . S
C715 C716 1.387 . S
C716 H701 0.930 . S
C716 C711 1.390 . S
C716 C715 1.387 . S
H717 C729 0.930 . S
H718 C731 0.930 . S
H719 C732 0.930 . S
H720 C736 0.959 . S
H721 C736 0.959 . S
H722 C736 0.961 . S
H723 C737 0.960 . S
H724 C737 0.961 . S
H725 C737 0.959 . S
H726 C740 0.929 . S
H727 C741 0.931 . S
H728 C743 0.930 . S
C729 H717 0.930 . S
C729 C730 1.399 . S
C729 C734 1.399 . S
C730 C729 1.399 . S
C730 C731 1.376 . S
C731 H718 0.930 . S
C731 C730 1.376 . S
C731 C732 1.388 . S
C732 H719 0.930 . S
C732 C731 1.388 . S
C732 C733 1.390 . S
C733 C732 1.390 . S
C733 C734 1.394 . S
C733 C739 1.465 . S
C734 C729 1.399 . S
C734 C733 1.394 . S
C734 C735 1.516 . S
C735 C734 1.516 . S
C735 C736 1.502 . S
C735 C737 1.561 . S
C735 C738 1.526 . S
C736 H720 0.959 . S
C736 H721 0.959 . S
C736 H722 0.961 . S
C736 C735 1.502 . S
C737 H723 0.960 . S
C737 H724 0.961 . S
C737 H725 0.959 . S
C737 C735 1.561 . S
C738 C735 1.526 . S
C738 C739 1.396 . S
C738 C743 1.390 . S
C739 C733 1.465 . S
C739 C738 1.396 . S
C739 C740 1.399 . S
C740 H726 0.929 . S
C740 C739 1.399 . S
C740 C741 1.385 . S
C741 H727 0.931 . S
C741 C740 1.385 . S
C741 C742 1.389 . S
C742 C741 1.389 . S
C742 C743 1.387 . S
C743 H728 0.930 . S
C743 C738 1.390 . S
C743 C742 1.387 . S
H744 C756 0.930 . S
H745 C758 0.930 . S
H746 C759 0.930 . S
H747 C763 0.959 . S
H748 C763 0.959 . S
H749 C763 0.961 . S
H750 C764 0.960 . S
H751 C764 0.961 . S
H752 C764 0.959 . S
H753 C767 0.929 . S
H754 C768 0.931 . S
H755 C770 0.930 . S
C756 H744 0.930 . S
C756 C757 1.399 1_554 S
C756 C761 1.399 . S
C757 C756 1.399 1_556 S
C757 C758 1.376 . S
C758 H745 0.930 . S
C758 C757 1.376 . S
C758 C759 1.388 . S
C759 H746 0.930 . S
C759 C758 1.388 . S
C759 C760 1.390 . S
C760 C759 1.390 . S
C760 C761 1.394 1_556 S
C760 C766 1.465 . S
C761 C756 1.399 . S
C761 C760 1.394 1_554 S
C761 C762 1.516 . S
C762 C761 1.516 . S
C762 C763 1.502 . S
C762 C764 1.561 . S
C762 C765 1.526 . S
C763 H747 0.959 . S
C763 H748 0.959 . S
C763 H749 0.961 . S
C763 C762 1.502 . S
C764 H750 0.960 . S
C764 H751 0.961 . S
C764 H752 0.959 . S
C764 C762 1.561 . S
C765 C762 1.526 . S
C765 C766 1.396 1_554 S
C765 C770 1.390 . S
C766 C760 1.465 . S
C766 C765 1.396 1_556 S
C766 C767 1.399 . S
C767 H753 0.929 . S
C767 C766 1.399 . S
C767 C768 1.385 . S
C768 H754 0.931 . S
C768 C767 1.385 . S
C768 C769 1.389 . S
C769 C768 1.389 . S
C769 C770 1.387 1_556 S
C770 H755 0.930 . S
C770 C765 1.390 . S
C770 C769 1.387 1_554 S
H771 C783 0.930 . S
H772 C785 0.930 . S
H773 C786 0.930 . S
H774 C790 0.959 . S
H775 C790 0.959 . S
H776 C790 0.961 . S
H777 C791 0.960 . S
H778 C791 0.961 . S
H779 C791 0.959 . S
H780 C794 0.929 . S
H781 C795 0.931 . S
H782 C797 0.930 . S
C783 H771 0.930 . S
C783 C784 1.399 . S
C783 C788 1.399 . S
C784 C783 1.399 . S
C784 C785 1.376 1_556 S
C785 H772 0.930 . S
C785 C784 1.376 1_554 S
C785 C786 1.388 . S
C786 H773 0.930 . S
C786 C785 1.388 . S
C786 C787 1.390 . S
C787 C786 1.390 . S
C787 C788 1.394 1_554 S
C787 C793 1.465 . S
C788 C783 1.399 . S
C788 C787 1.394 1_556 S
C788 C789 1.516 . S
C789 C788 1.516 . S
C789 C790 1.502 . S
C789 C791 1.561 . S
C789 C792 1.526 . S
C790 H774 0.959 . S
C790 H775 0.959 . S
C790 H776 0.961 . S
C790 C789 1.502 . S
C791 H777 0.960 . S
C791 H778 0.961 . S
C791 H779 0.959 . S
C791 C789 1.561 . S
C792 C789 1.526 . S
C792 C793 1.396 1_556 S
C792 C797 1.390 . S
C793 C787 1.465 . S
C793 C792 1.396 1_554 S
C793 C794 1.399 . S
C794 H780 0.929 . S
C794 C793 1.399 . S
C794 C795 1.385 . S
C795 H781 0.931 . S
C795 C794 1.385 . S
C795 C796 1.389 . S
C796 C795 1.389 . S
C796 C797 1.387 1_554 S
C797 H782 0.930 . S
C797 C792 1.390 . S
C797 C796 1.387 1_556 S
H798 C810 0.930 . S
H799 C812 0.930 . S
H800 C813 0.930 . S
H801 C817 0.959 . S
H802 C817 0.959 . S
H803 C817 0.961 . S
H804 C818 0.960 . S
H805 C818 0.961 . S
H806 C818 0.959 . S
H807 C821 0.929 . S
H808 C822 0.931 . S
H809 C824 0.930 . S
C810 H798 0.930 . S
C810 C811 1.388 1_554 S
C810 C815 1.399 . S
C811 C810 1.388 1_556 S
C811 C812 1.391 . S
C812 H799 0.930 . S
C812 C811 1.391 . S
C812 C813 1.388 . S
C813 H800 0.930 . S
C813 C812 1.388 . S
C813 C814 1.390 . S
C814 C813 1.390 . S
C814 C815 1.394 1_556 S
C814 C820 1.465 . S
C815 C810 1.399 . S
C815 C814 1.394 1_554 S
C815 C816 1.516 . S
C816 C815 1.516 . S
C816 C817 1.502 . S
C816 C818 1.561 . S
C816 C819 1.526 . S
C817 H801 0.959 . S
C817 H802 0.959 . S
C817 H803 0.961 . S
C817 C816 1.502 . S
C818 H804 0.960 . S
C818 H805 0.961 . S
C818 H806 0.959 . S
C818 C816 1.561 . S
C819 C816 1.526 . S
C819 C820 1.396 1_554 S
C819 C824 1.390 . S
C820 C814 1.465 . S
C820 C819 1.396 1_556 S
C820 C821 1.399 . S
C821 H807 0.929 . S
C821 C820 1.399 . S
C821 C822 1.385 . S
C822 H808 0.931 . S
C822 C821 1.385 . S
C822 C823 1.389 . S
C823 C822 1.389 . S
C823 C824 1.387 1_556 S
C824 H809 0.930 . S
C824 C819 1.390 . S
C824 C823 1.387 1_554 S
H825 C837 0.930 . S
H826 C839 0.930 . S
H827 C840 0.930 . S
H828 C844 0.959 . S
H829 C844 0.959 . S
H830 C844 0.961 . S
H831 C845 0.960 . S
H832 C845 0.961 . S
H833 C845 0.959 . S
H834 C848 0.929 . S
H835 C849 0.931 . S
H836 C851 0.930 . S
C837 H825 0.930 . S
C837 C838 1.393 1_554 S
C837 C842 1.399 . S
C838 C837 1.393 1_556 S
C838 C839 1.384 . S
C839 H826 0.930 . S
C839 C838 1.384 . S
C839 C840 1.388 . S
C840 H827 0.930 . S
C840 C839 1.388 . S
C840 C841 1.390 . S
C841 C840 1.390 . S
C841 C842 1.394 1_556 S
C841 C847 1.465 . S
C842 C837 1.399 . S
C842 C841 1.394 1_554 S
C842 C843 1.516 . S
C843 C842 1.516 . S
C843 C844 1.502 . S
C843 C845 1.561 . S
C843 C846 1.526 . S
C844 H828 0.959 . S
C844 H829 0.959 . S
C844 H830 0.961 . S
C844 C843 1.502 . S
C845 H831 0.960 . S
C845 H832 0.961 . S
C845 H833 0.959 . S
C845 C843 1.561 . S
C846 C843 1.526 . S
C846 C847 1.396 1_554 S
C846 C851 1.390 . S
C847 C841 1.465 . S
C847 C846 1.396 1_556 S
C847 C848 1.399 . S
C848 H834 0.929 . S
C848 C847 1.399 . S
C848 C849 1.385 . S
C849 H835 0.931 . S
C849 C848 1.385 . S
C849 C850 1.389 . S
C850 C849 1.389 . S
C850 C851 1.387 1_556 S
C851 H836 0.930 . S
C851 C846 1.390 . S
C851 C850 1.387 1_554 S
H852 C864 0.930 . S
H853 C866 0.930 . S
H854 C867 0.930 . S
H855 C871 0.959 . S
H856 C871 0.959 . S
H857 C871 0.961 . S
H858 C872 0.960 . S
H859 C872 0.961 . S
H860 C872 0.959 . S
H861 C875 0.929 . S
H862 C876 0.931 . S
H863 C878 0.930 . S
C864 H852 0.930 . S
C864 C865 1.399 . S
C864 C869 1.399 . S
C865 C864 1.399 . S
C865 C866 1.376 . S
C866 H853 0.930 . S
C866 C865 1.376 . S
C866 C867 1.388 . S
C867 H854 0.930 . S
C867 C866 1.388 . S
C867 C868 1.390 . S
C868 C867 1.390 . S
C868 C869 1.394 . S
C868 C874 1.465 . S
C869 C864 1.399 . S
C869 C868 1.394 . S
C869 C870 1.516 . S
C870 C869 1.516 . S
C870 C871 1.502 . S
C870 C872 1.561 . S
C870 C873 1.526 . S
C871 H855 0.959 . S
C871 H856 0.959 . S
C871 H857 0.961 . S
C871 C870 1.502 . S
C872 H858 0.960 . S
C872 H859 0.961 . S
C872 H860 0.959 . S
C872 C870 1.561 . S
C873 C870 1.526 . S
C873 C874 1.396 . S
C873 C878 1.390 . S
C874 C868 1.465 . S
C874 C873 1.396 . S
C874 C875 1.399 . S
C875 H861 0.929 . S
C875 C874 1.399 . S
C875 C876 1.385 . S
C876 H862 0.931 . S
C876 C875 1.385 . S
C876 C877 1.389 . S
C877 C876 1.389 . S
C877 C878 1.387 . S
C878 H863 0.930 . S
C878 C873 1.390 . S
C878 C877 1.387 . S
H879 C891 0.930 . S
H880 C893 0.930 . S
H881 C894 0.930 . S
H882 C898 0.959 . S
H883 C898 0.959 . S
H884 C898 0.961 . S
H885 C899 0.960 . S
H886 C899 0.961 . S
H887 C899 0.959 . S
H888 C902 0.929 . S
H889 C903 0.931 . S
H890 C905 0.930 . S
C891 H879 0.930 . S
C891 C892 1.399 . S
C891 C896 1.399 . S
C892 C891 1.399 . S
C892 C893 1.376 . S
C893 H880 0.930 . S
C893 C892 1.376 . S
C893 C894 1.388 . S
C894 H881 0.930 . S
C894 C893 1.388 . S
C894 C895 1.390 . S
C895 C894 1.390 . S
C895 C896 1.394 . S
C895 C901 1.465 . S
C896 C891 1.399 . S
C896 C895 1.394 . S
C896 C897 1.516 . S
C897 C896 1.516 . S
C897 C898 1.502 . S
C897 C899 1.561 . S
C897 C900 1.526 . S
C898 H882 0.959 . S
C898 H883 0.959 . S
C898 H884 0.961 . S
C898 C897 1.502 . S
C899 H885 0.960 . S
C899 H886 0.961 . S
C899 H887 0.959 . S
C899 C897 1.561 . S
C900 C897 1.526 . S
C900 C901 1.396 . S
C900 C905 1.390 . S
C901 C895 1.465 . S
C901 C900 1.396 . S
C901 C902 1.399 . S
C902 H888 0.929 . S
C902 C901 1.399 . S
C902 C903 1.385 . S
C903 H889 0.931 . S
C903 C902 1.385 . S
C903 C904 1.389 . S
C904 C903 1.389 . S
C904 C905 1.387 . S
C905 H890 0.930 . S
C905 C900 1.390 . S
C905 C904 1.387 . S
H906 C918 0.930 . S
H907 C920 0.930 . S
H908 C921 0.930 . S
H909 C925 0.959 . S
H910 C925 0.959 . S
H911 C925 0.961 . S
H912 C926 0.960 . S
H913 C926 0.961 . S
H914 C926 0.959 . S
H915 C929 0.929 . S
H916 C930 0.931 . S
H917 C932 0.930 . S
C918 H906 0.930 . S
C918 C919 1.399 . S
C918 C923 1.399 . S
C919 C918 1.399 . S
C919 C920 1.376 . S
C920 H907 0.930 . S
C920 C919 1.376 . S
C920 C921 1.388 . S
C921 H908 0.930 . S
C921 C920 1.388 . S
C921 C922 1.390 . S
C922 C921 1.390 . S
C922 C923 1.394 . S
C922 C928 1.465 . S
C923 C918 1.399 . S
C923 C922 1.394 . S
C923 C924 1.516 . S
C924 C923 1.516 . S
C924 C925 1.502 . S
C924 C926 1.561 . S
C924 C927 1.526 . S
C925 H909 0.959 . S
C925 H910 0.959 . S
C925 H911 0.961 . S
C925 C924 1.502 . S
C926 H912 0.960 . S
C926 H913 0.961 . S
C926 H914 0.959 . S
C926 C924 1.561 . S
C927 C924 1.526 . S
C927 C928 1.396 . S
C927 C932 1.390 . S
C928 C922 1.465 . S
C928 C927 1.396 . S
C928 C929 1.399 . S
C929 H915 0.929 . S
C929 C928 1.399 . S
C929 C930 1.385 . S
C930 H916 0.931 . S
C930 C929 1.385 . S
C930 C931 1.389 . S
C931 C930 1.389 . S
C931 C932 1.387 . S
C932 H917 0.930 . S
C932 C927 1.390 . S
C932 C931 1.387 . S
H933 C945 0.930 . S
H934 C947 0.930 . S
H935 C948 0.930 . S
H936 C952 0.959 . S
H937 C952 0.959 . S
H938 C952 0.961 . S
H939 C953 0.960 . S
H940 C953 0.961 . S
H941 C953 0.959 . S
H942 C956 0.929 . S
H943 C957 0.931 . S
H944 C959 0.930 . S
C945 H933 0.930 . S
C945 C946 1.399 . S
C945 C950 1.399 . S
C946 C945 1.399 . S
C946 C947 1.376 . S
C947 H934 0.930 . S
C947 C946 1.376 . S
C947 C948 1.388 . S
C948 H935 0.930 . S
C948 C947 1.388 . S
C948 C949 1.390 . S
C949 C948 1.390 . S
C949 C950 1.394 . S
C949 C955 1.465 . S
C950 C945 1.399 . S
C950 C949 1.394 . S
C950 C951 1.516 . S
C951 C950 1.516 . S
C951 C952 1.502 . S
C951 C953 1.561 . S
C951 C954 1.526 . S
C952 H936 0.959 . S
C952 H937 0.959 . S
C952 H938 0.961 . S
C952 C951 1.502 . S
C953 H939 0.960 . S
C953 H940 0.961 . S
C953 H941 0.959 . S
C953 C951 1.561 . S
C954 C951 1.526 . S
C954 C955 1.396 . S
C954 C959 1.390 . S
C955 C949 1.465 . S
C955 C954 1.396 . S
C955 C956 1.399 . S
C956 H942 0.929 . S
C956 C955 1.399 . S
C956 C957 1.385 . S
C957 H943 0.931 . S
C957 C956 1.385 . S
C957 C958 1.389 . S
C958 C957 1.389 . S
C958 C959 1.387 . S
C959 H944 0.930 . S
C959 C954 1.390 . S
C959 C958 1.387 . S
H960 C972 0.930 . S
H961 C974 0.930 . S
H962 C975 0.930 . S
H963 C979 0.959 . S
H964 C979 0.959 . S
H965 C979 0.961 . S
H966 C980 0.960 . S
H967 C980 0.961 . S
H968 C980 0.959 . S
H969 C983 0.929 . S
H970 C984 0.931 . S
H971 C986 0.930 . S
C972 H960 0.930 . S
C972 C973 1.399 . S
C972 C977 1.399 . S
C973 C972 1.399 . S
C973 C974 1.376 . S
C974 H961 0.930 . S
C974 C973 1.376 . S
C974 C975 1.388 . S
C975 H962 0.930 . S
C975 C974 1.388 . S
C975 C976 1.390 . S
C976 C975 1.390 . S
C976 C977 1.394 . S
C976 C982 1.465 . S
C977 C972 1.399 . S
C977 C976 1.394 . S
C977 C978 1.516 . S
C978 C977 1.516 . S
C978 C979 1.502 . S
C978 C980 1.561 . S
C978 C981 1.526 . S
C979 H963 0.959 . S
C979 H964 0.959 . S
C979 H965 0.961 . S
C979 C978 1.502 . S
C980 H966 0.960 . S
C980 H967 0.961 . S
C980 H968 0.959 . S
C980 C978 1.561 . S
C981 C978 1.526 . S
C981 C982 1.396 . S
C981 C986 1.390 . S
C982 C976 1.465 . S
C982 C981 1.396 . S
C982 C983 1.399 . S
C983 H969 0.929 . S
C983 C982 1.399 . S
C983 C984 1.385 . S
C984 H970 0.931 . S
C984 C983 1.385 . S
C984 C985 1.389 . S
C985 C984 1.389 . S
C985 C986 1.387 . S
C986 H971 0.930 . S
C986 C981 1.390 . S
C986 C985 1.387 . S
H987 C999 0.930 . S
H988 C1001 0.930 . S
H989 C1002 0.930 . S
H990 C1006 0.959 . S
H991 C1006 0.959 . S
H992 C1006 0.961 . S
H993 C1007 0.960 . S
H994 C1007 0.961 . S
H995 C1007 0.959 . S
H996 C1010 0.929 . S
H997 C1011 0.931 . S
H998 C1013 0.930 . S
C999 H987 0.930 . S
C999 C1000 1.399 . S
C999 C1004 1.399 . S
C1000 C999 1.399 . S
C1000 C1001 1.376 . S
C1001 H988 0.930 . S
C1001 C1000 1.376 . S
C1001 C1002 1.388 . S
C1002 H989 0.930 . S
C1002 C1001 1.388 . S
C1002 C1003 1.390 . S
C1003 C1002 1.390 . S
C1003 C1004 1.394 . S
C1003 C1009 1.465 . S
C1004 C999 1.399 . S
C1004 C1003 1.394 . S
C1004 C1005 1.516 . S
C1005 C1004 1.516 . S
C1005 C1006 1.502 . S
C1005 C1007 1.561 . S
C1005 C1008 1.526 . S
C1006 H990 0.959 . S
C1006 H991 0.959 . S
C1006 H992 0.961 . S
C1006 C1005 1.502 . S
C1007 H993 0.960 . S
C1007 H994 0.961 . S
C1007 H995 0.959 . S
C1007 C1005 1.561 . S
C1008 C1005 1.526 . S
C1008 C1009 1.396 . S
C1008 C1013 1.390 . S
C1009 C1003 1.465 . S
C1009 C1008 1.396 . S
C1009 C1010 1.399 . S
C1010 H996 0.929 . S
C1010 C1009 1.399 . S
C1010 C1011 1.385 . S
C1011 H997 0.931 . S
C1011 C1010 1.385 . S
C1011 C1012 1.389 . S
C1012 C1011 1.389 . S
C1012 C1013 1.387 . S
C1013 H998 0.930 . S
C1013 C1008 1.390 . S
C1013 C1012 1.387 . S
H1014 C1026 0.930 . S
H1015 C1028 0.930 . S
H1016 C1029 0.930 . S
H1017 C1033 0.959 . S
H1018 C1033 0.959 . S
H1019 C1033 0.961 . S
H1020 C1034 0.960 . S
H1021 C1034 0.961 . S
H1022 C1034 0.959 . S
H1023 C1037 0.929 . S
H1024 C1038 0.931 . S
H1025 C1040 0.930 . S
C1026 H1014 0.930 . S
C1026 C1027 1.399 . S
C1026 C1031 1.399 . S
C1027 C1026 1.399 . S
C1027 C1028 1.376 . S
C1028 H1015 0.930 . S
C1028 C1027 1.376 . S
C1028 C1029 1.388 . S
C1029 H1016 0.930 . S
C1029 C1028 1.388 . S
C1029 C1030 1.390 . S
C1030 C1029 1.390 . S
C1030 C1031 1.394 . S
C1030 C1036 1.465 . S
C1031 C1026 1.399 . S
C1031 C1030 1.394 . S
C1031 C1032 1.516 . S
C1032 C1031 1.516 . S
C1032 C1033 1.502 . S
C1032 C1034 1.561 . S
C1032 C1035 1.526 . S
C1033 H1017 0.959 . S
C1033 H1018 0.959 . S
C1033 H1019 0.961 . S
C1033 C1032 1.502 . S
C1034 H1020 0.960 . S
C1034 H1021 0.961 . S
C1034 H1022 0.959 . S
C1034 C1032 1.561 . S
C1035 C1032 1.526 . S
C1035 C1036 1.396 . S
C1035 C1040 1.390 . S
C1036 C1030 1.465 . S
C1036 C1035 1.396 . S
C1036 C1037 1.399 . S
C1037 H1023 0.929 . S
C1037 C1036 1.399 . S
C1037 C1038 1.385 . S
C1038 H1024 0.931 . S
C1038 C1037 1.385 . S
C1038 C1039 1.389 . S
C1039 C1038 1.389 . S
C1039 C1040 1.387 . S
C1040 H1025 0.930 . S
C1040 C1035 1.390 . S
C1040 C1039 1.387 . S
H1041 C1053 0.930 . S
H1042 C1055 0.930 . S
H1043 C1056 0.930 . S
H1044 C1060 0.959 . S
H1045 C1060 0.959 . S
H1046 C1060 0.961 . S
H1047 C1061 0.960 . S
H1048 C1061 0.961 . S
H1049 C1061 0.959 . S
H1050 C1064 0.929 . S
H1051 C1065 0.931 . S
H1052 C1067 0.930 . S
C1053 H1041 0.930 . S
C1053 C1054 1.399 . S
C1053 C1058 1.399 . S
C1054 C1053 1.399 . S
C1054 C1055 1.376 . S
C1055 H1042 0.930 . S
C1055 C1054 1.376 . S
C1055 C1056 1.388 . S
C1056 H1043 0.930 . S
C1056 C1055 1.388 . S
C1056 C1057 1.390 . S
C1057 C1056 1.390 . S
C1057 C1058 1.394 . S
C1057 C1063 1.465 . S
C1058 C1053 1.399 . S
C1058 C1057 1.394 . S
C1058 C1059 1.516 . S
C1059 C1058 1.516 . S
C1059 C1060 1.502 . S
C1059 C1061 1.561 . S
C1059 C1062 1.526 . S
C1060 H1044 0.959 . S
C1060 H1045 0.959 . S
C1060 H1046 0.961 . S
C1060 C1059 1.502 . S
C1061 H1047 0.960 . S
C1061 H1048 0.961 . S
C1061 H1049 0.959 . S
C1061 C1059 1.561 . S
C1062 C1059 1.526 . S
C1062 C1063 1.396 . S
C1062 C1067 1.390 . S
C1063 C1057 1.465 . S
C1063 C1062 1.396 . S
C1063 C1064 1.399 . S
C1064 H1050 0.929 . S
C1064 C1063 1.399 . S
C1064 C1065 1.385 . S
C1065 H1051 0.931 . S
C1065 C1064 1.385 . S
C1065 C1066 1.389 . S
C1066 C1065 1.389 . S
C1066 C1067 1.387 . S
C1067 H1052 0.930 . S
C1067 C1062 1.390 . S
C1067 C1066 1.387 . S
H1068 C1080 0.930 . S
H1069 C1082 0.930 . S
H1070 C1083 0.930 . S
H1071 C1087 0.959 1_554 S
H1072 C1087 0.959 . S
H1073 C1087 0.961 . S
H1074 C1088 0.960 . S
H1075 C1088 0.961 . S
H1076 C1088 0.959 . S
H1077 C1091 0.929 . S
H1078 C1092 0.931 . S
H1079 C1094 0.940 . S
C1080 H1068 0.930 . S
C1080 C1081 1.399 . S
C1080 C1085 1.399 . S
C1081 C1080 1.399 . S
C1081 C1082 1.376 . S
C1082 H1069 0.930 . S
C1082 C1081 1.376 . S
C1082 C1083 1.388 . S
C1083 H1070 0.930 . S
C1083 C1082 1.388 . S
C1083 C1084 1.390 . S
C1084 C1083 1.390 . S
C1084 C1085 1.394 . S
C1084 C1090 1.465 . S
C1085 C1080 1.399 . S
C1085 C1084 1.394 . S
C1085 C1086 1.516 . S
C1086 C1085 1.516 . S
C1086 C1087 1.502 1_554 S
C1086 C1088 1.561 1_554 S
C1086 C1089 1.526 . S
C1087 H1071 0.959 1_556 S
C1087 H1072 0.959 . S
C1087 H1073 0.961 . S
C1087 C1086 1.502 1_556 S
C1088 H1074 0.960 . S
C1088 H1075 0.961 . S
C1088 H1076 0.959 . S
C1088 C1086 1.561 1_556 S
C1089 C1086 1.526 . S
C1089 C1090 1.396 . S
C1089 C1094 1.390 . S
C1090 C1084 1.465 . S
C1090 C1089 1.396 . S
C1090 C1091 1.399 . S
C1091 H1077 0.929 . S
C1091 C1090 1.399 . S
C1091 C1092 1.385 . S
C1092 H1078 0.931 . S
C1092 C1091 1.385 . S
C1092 C1093 1.389 . S
C1093 C1092 1.389 . S
C1093 C1094 1.387 . S
C1094 H1079 0.940 . S
C1094 C1089 1.390 . S
C1094 C1093 1.387 . S
H1095 C1107 0.930 . S
H1096 C1109 0.930 . S
H1097 C1110 0.930 . S
H1098 C1114 0.959 . S
H1099 C1114 0.959 . S
H1100 C1114 0.961 . S
H1101 C1115 0.960 . S
H1102 C1115 0.961 . S
H1103 C1115 0.959 . S
H1104 C1118 0.929 . S
H1105 C1119 0.931 . S
H1106 C1121 0.930 1_556 S
C1107 H1095 0.930 . S
C1107 C1108 1.399 . S
C1107 C1112 1.399 . S
C1108 C1107 1.399 . S
C1108 C1109 1.376 . S
C1109 H1096 0.930 . S
C1109 C1108 1.376 . S
C1109 C1110 1.388 . S
C1110 H1097 0.930 . S
C1110 C1109 1.388 . S
C1110 C1111 1.390 . S
C1111 C1110 1.390 . S
C1111 C1112 1.394 . S
C1111 C1117 1.465 . S
C1112 C1107 1.399 . S
C1112 C1111 1.394 . S
C1112 C1113 1.516 . S
C1113 C1112 1.516 . S
C1113 C1114 1.502 1_554 S
C1113 C1115 1.561 1_554 S
C1113 C1116 1.526 . S
C1114 H1098 0.959 . S
C1114 H1099 0.959 . S
C1114 H1100 0.961 . S
C1114 C1113 1.502 1_556 S
C1115 H1101 0.960 . S
C1115 H1102 0.961 . S
C1115 H1103 0.959 . S
C1115 C1113 1.561 1_556 S
C1116 C1113 1.526 . S
C1116 C1117 1.396 . S
C1116 C1121 1.390 . S
C1117 C1111 1.465 . S
C1117 C1116 1.396 . S
C1117 C1118 1.399 . S
C1118 H1104 0.929 . S
C1118 C1117 1.399 . S
C1118 C1119 1.385 . S
C1119 H1105 0.931 . S
C1119 C1118 1.385 . S
C1119 C1120 1.389 . S
C1120 C1119 1.389 . S
C1120 C1121 1.387 . S
C1121 H1106 0.930 1_554 S
C1121 C1116 1.390 . S
C1121 C1120 1.387 . S
H1122 C1134 0.930 . S
H1123 C1136 0.930 . S
H1124 C1137 0.930 . S
H1125 C1141 0.959 . S
H1126 C1141 0.959 . S
H1127 C1141 0.961 . S
H1128 C1142 0.960 . S
H1129 C1142 0.961 . S
H1130 C1142 0.959 1_554 S
H1131 C1145 0.929 . S
H1132 C1146 0.931 . S
H1133 C1148 0.930 1_556 S
C1134 H1122 0.930 . S
C1134 C1135 1.399 . S
C1134 C1139 1.399 . S
C1135 C1134 1.399 . S
C1135 C1136 1.376 . S
C1136 H1123 0.930 . S
C1136 C1135 1.376 . S
C1136 C1137 1.388 . S
C1137 H1124 0.930 . S
C1137 C1136 1.388 . S
C1137 C1138 1.390 . S
C1138 C1137 1.390 . S
C1138 C1139 1.394 . S
C1138 C1144 1.465 . S
C1139 C1134 1.399 . S
C1139 C1138 1.394 . S
C1139 C1140 1.516 . S
C1140 C1139 1.516 . S
C1140 C1141 1.502 1_554 S
C1140 C1142 1.561 1_554 S
C1140 C1143 1.526 . S
C1141 H1125 0.959 . S
C1141 H1126 0.959 . S
C1141 H1127 0.961 . S
C1141 C1140 1.502 1_556 S
C1142 H1128 0.960 . S
C1142 H1129 0.961 . S
C1142 H1130 0.959 1_556 S
C1142 C1140 1.561 1_556 S
C1143 C1140 1.526 . S
C1143 C1144 1.396 . S
C1143 C1148 1.390 . S
C1144 C1138 1.465 . S
C1144 C1143 1.396 . S
C1144 C1145 1.399 . S
C1145 H1131 0.929 . S
C1145 C1144 1.399 . S
C1145 C1146 1.385 . S
C1146 H1132 0.931 . S
C1146 C1145 1.385 . S
C1146 C1147 1.389 . S
C1147 C1146 1.389 . S
C1147 C1148 1.387 . S
C1148 H1133 0.930 1_554 S
C1148 C1143 1.390 . S
C1148 C1147 1.387 . S
H1149 C1161 0.930 . S
H1150 C1163 0.930 . S
H1151 C1164 0.930 . S
H1152 C1168 0.959 1_554 S
H1153 C1168 0.959 . S
H1154 C1168 0.961 . S
H1155 C1169 0.960 . S
H1156 C1169 0.961 . S
H1157 C1169 0.959 . S
H1158 C1172 0.929 . S
H1159 C1173 0.931 . S
H1160 C1175 0.930 1_556 S
C1161 H1149 0.930 . S
C1161 C1162 1.399 . S
C1161 C1166 1.399 . S
C1162 C1161 1.399 . S
C1162 C1163 1.376 . S
C1163 H1150 0.930 . S
C1163 C1162 1.376 . S
C1163 C1164 1.388 . S
C1164 H1151 0.930 . S
C1164 C1163 1.388 . S
C1164 C1165 1.390 . S
C1165 C1164 1.390 . S
C1165 C1166 1.394 . S
C1165 C1171 1.465 . S
C1166 C1161 1.399 . S
C1166 C1165 1.394 . S
C1166 C1167 1.516 . S
C1167 C1166 1.516 . S
C1167 C1168 1.502 1_554 S
C1167 C1169 1.561 1_554 S
C1167 C1170 1.526 . S
C1168 H1152 0.959 1_556 S
C1168 H1153 0.959 . S
C1168 H1154 0.961 . S
C1168 C1167 1.502 1_556 S
C1169 H1155 0.960 . S
C1169 H1156 0.961 . S
C1169 H1157 0.959 . S
C1169 C1167 1.561 1_556 S
C1170 C1167 1.526 . S
C1170 C1171 1.396 . S
C1170 C1175 1.390 . S
C1171 C1165 1.465 . S
C1171 C1170 1.396 . S
C1171 C1172 1.399 . S
C1172 H1158 0.929 . S
C1172 C1171 1.399 . S
C1172 C1173 1.385 . S
C1173 H1159 0.931 . S
C1173 C1172 1.385 . S
C1173 C1174 1.389 . S
C1174 C1173 1.389 . S
C1174 C1175 1.387 . S
C1175 H1160 0.930 1_554 S
C1175 C1170 1.390 . S
C1175 C1174 1.387 . S
H1176 C1188 0.930 . S
H1177 C1190 0.930 . S
H1178 C1191 0.930 . S
H1179 C1195 0.959 . S
H1180 C1195 0.959 . S
H1181 C1195 0.961 . S
H1182 C1196 0.960 . S
H1183 C1196 0.961 . S
H1184 C1196 0.959 . S
H1185 C1199 0.929 . S
H1186 C1200 0.931 . S
H1187 C1202 0.930 . S
C1188 H1176 0.930 . S
C1188 C1189 1.399 . S
C1188 C1193 1.399 . S
C1189 C1188 1.399 . S
C1189 C1190 1.376 . S
C1190 H1177 0.930 . S
C1190 C1189 1.376 . S
C1190 C1191 1.388 . S
C1191 H1178 0.930 . S
C1191 C1190 1.388 . S
C1191 C1192 1.390 . S
C1192 C1191 1.390 . S
C1192 C1193 1.394 . S
C1192 C1198 1.465 . S
C1193 C1188 1.399 . S
C1193 C1192 1.394 . S
C1193 C1194 1.516 1_655 S
C1194 C1193 1.516 1_455 S
C1194 C1195 1.502 . S
C1194 C1196 1.561 1_455 S
C1194 C1197 1.526 . S
C1195 H1179 0.959 . S
C1195 H1180 0.959 . S
C1195 H1181 0.961 . S
C1195 C1194 1.502 . S
C1196 H1182 0.960 . S
C1196 H1183 0.961 . S
C1196 H1184 0.959 . S
C1196 C1194 1.561 1_655 S
C1197 C1194 1.526 . S
C1197 C1198 1.396 1_455 S
C1197 C1202 1.390 . S
C1198 C1192 1.465 . S
C1198 C1197 1.396 1_655 S
C1198 C1199 1.399 . S
C1199 H1185 0.929 . S
C1199 C1198 1.399 . S
C1199 C1200 1.385 1_655 S
C1200 H1186 0.931 . S
C1200 C1199 1.385 1_455 S
C1200 C1201 1.389 . S
C1201 C1200 1.389 . S
C1201 C1202 1.387 . S
C1202 H1187 0.930 . S
C1202 C1197 1.390 . S
C1202 C1201 1.387 . S
H1203 C1215 0.930 . S
H1204 C1217 0.930 . S
H1205 C1218 0.930 . S
H1206 C1222 0.959 . S
H1207 C1222 0.959 . S
H1208 C1222 0.961 . S
H1209 C1223 0.960 . S
H1210 C1223 0.961 . S
H1211 C1223 0.959 . S
H1212 C1226 0.929 . S
H1213 C1227 0.931 . S
H1214 C1229 0.930 . S
C1215 H1203 0.930 . S
C1215 C1216 1.399 . S
C1215 C1220 1.399 . S
C1216 C1215 1.399 . S
C1216 C1217 1.376 1_565 S
C1217 H1204 0.930 . S
C1217 C1216 1.376 1_545 S
C1217 C1218 1.388 . S
C1218 H1205 0.930 . S
C1218 C1217 1.388 . S
C1218 C1219 1.390 . S
C1219 C1218 1.390 . S
C1219 C1220 1.394 1_545 S
C1219 C1225 1.465 . S
C1220 C1215 1.399 . S
C1220 C1219 1.394 1_565 S
C1220 C1221 1.516 . S
C1221 C1220 1.516 . S
C1221 C1222 1.502 . S
C1221 C1223 1.561 . S
C1221 C1224 1.526 . S
C1222 H1206 0.959 . S
C1222 H1207 0.959 . S
C1222 H1208 0.961 . S
C1222 C1221 1.502 . S
C1223 H1209 0.960 . S
C1223 H1210 0.961 . S
C1223 H1211 0.959 . S
C1223 C1221 1.561 . S
C1224 C1221 1.526 . S
C1224 C1225 1.396 1_565 S
C1224 C1229 1.390 . S
C1225 C1219 1.465 . S
C1225 C1224 1.396 1_545 S
C1225 C1226 1.399 . S
C1226 H1212 0.929 . S
C1226 C1225 1.399 . S
C1226 C1227 1.385 . S
C1227 H1213 0.931 . S
C1227 C1226 1.385 . S
C1227 C1228 1.389 . S
C1228 C1227 1.389 . S
C1228 C1229 1.387 1_545 S
C1229 H1214 0.930 . S
C1229 C1224 1.390 . S
C1229 C1228 1.387 1_565 S
H1230 C1242 0.930 . S
H1231 C1244 0.930 . S
H1232 C1245 0.927 1_455 S
H1233 C1249 0.959 . S
H1234 C1249 0.959 . S
H1235 C1249 0.961 . S
H1236 C1250 0.960 . S
H1237 C1250 0.961 . S
H1238 C1250 0.959 . S
H1239 C1253 0.929 . S
H1240 C1254 0.931 . S
H1241 C1256 0.930 . S
C1242 H1230 0.930 . S
C1242 C1243 1.399 . S
C1242 C1247 1.399 . S
C1243 C1242 1.399 . S
C1243 C1244 1.376 . S
C1244 H1231 0.930 . S
C1244 C1243 1.376 . S
C1244 C1245 1.393 . S
C1245 H1232 0.927 1_655 S
C1245 C1244 1.393 . S
C1245 C1246 1.389 1_655 S
C1246 C1245 1.389 1_455 S
C1246 C1247 1.394 1_455 S
C1246 C1252 1.465 . S
C1247 C1242 1.399 . S
C1247 C1246 1.394 1_655 S
C1247 C1248 1.512 1_655 S
C1248 C1247 1.512 1_455 S
C1248 C1249 1.480 1_455 S
C1248 C1250 1.585 . S
C1248 C1251 1.531 . S
C1249 H1233 0.959 . S
C1249 H1234 0.959 . S
C1249 H1235 0.961 . S
C1249 C1248 1.480 1_655 S
C1250 H1236 0.960 . S
C1250 H1237 0.961 . S
C1250 H1238 0.959 . S
C1250 C1248 1.585 . S
C1251 C1248 1.531 . S
C1251 C1252 1.396 . S
C1251 C1256 1.390 . S
C1252 C1246 1.465 . S
C1252 C1251 1.396 . S
C1252 C1253 1.399 . S
C1253 H1239 0.929 . S
C1253 C1252 1.399 . S
C1253 C1254 1.385 . S
C1254 H1240 0.931 . S
C1254 C1253 1.385 . S
C1254 C1255 1.389 . S
C1255 C1254 1.389 . S
C1255 C1256 1.387 . S
C1256 H1241 0.930 . S
C1256 C1251 1.390 . S
C1256 C1255 1.387 . S
H1257 C1269 0.930 . S
H1258 C1271 0.930 . S
H1259 C1272 0.930 . S
H1260 C1276 0.959 . S
H1261 C1276 0.959 . S
H1262 C1276 0.961 . S
H1263 C1277 0.960 . S
H1264 C1277 0.961 . S
H1265 C1277 0.959 . S
H1266 C1280 0.929 . S
H1267 C1281 0.931 . S
H1268 C1283 0.930 . S
C1269 H1257 0.930 . S
C1269 C1270 1.399 1_565 S
C1269 C1274 1.399 . S
C1270 C1269 1.399 1_545 S
C1270 C1271 1.376 . S
C1271 H1258 0.930 . S
C1271 C1270 1.376 . S
C1271 C1272 1.388 . S
C1272 H1259 0.930 . S
C1272 C1271 1.388 . S
C1272 C1273 1.390 . S
C1273 C1272 1.390 . S
C1273 C1274 1.394 1_545 S
C1273 C1279 1.465 . S
C1274 C1269 1.399 . S
C1274 C1273 1.394 1_565 S
C1274 C1275 1.516 . S
C1275 C1274 1.516 . S
C1275 C1276 1.502 . S
C1275 C1277 1.561 . S
C1275 C1278 1.526 . S
C1276 H1260 0.959 . S
C1276 H1261 0.959 . S
C1276 H1262 0.961 . S
C1276 C1275 1.502 . S
C1277 H1263 0.960 . S
C1277 H1264 0.961 . S
C1277 H1265 0.959 . S
C1277 C1275 1.561 . S
C1278 C1275 1.526 . S
C1278 C1279 1.396 1_565 S
C1278 C1283 1.390 . S
C1279 C1273 1.465 . S
C1279 C1278 1.396 1_545 S
C1279 C1280 1.399 . S
C1280 H1266 0.929 . S
C1280 C1279 1.399 . S
C1280 C1281 1.385 . S
C1281 H1267 0.931 . S
C1281 C1280 1.385 . S
C1281 C1282 1.389 1_545 S
C1282 C1281 1.389 1_565 S
C1282 C1283 1.387 . S
C1283 H1268 0.930 . S
C1283 C1278 1.390 . S
C1283 C1282 1.387 . S
H1284 C1296 0.930 . S
H1285 C1298 0.930 . S
H1286 C1299 0.930 . S
H1287 C1303 0.959 . S
H1288 C1303 0.959 . S
H1289 C1303 0.961 . S
H1290 C1304 0.960 . S
H1291 C1304 0.971 . S
H1292 C1304 0.959 . S
H1293 C1307 0.929 . S
H1294 C1308 0.931 . S
H1295 C1310 0.930 . S
C1296 H1284 0.930 . S
C1296 C1297 1.399 1_455 S
C1296 C1301 1.399 . S
C1297 C1296 1.399 1_655 S
C1297 C1298 1.376 . S
C1298 H1285 0.930 . S
C1298 C1297 1.376 . S
C1298 C1299 1.388 . S
C1299 H1286 0.930 . S
C1299 C1298 1.388 . S
C1299 C1300 1.390 . S
C1300 C1299 1.390 . S
C1300 C1301 1.394 1_655 S
C1300 C1306 1.465 . S
C1301 C1296 1.399 . S
C1301 C1300 1.394 1_455 S
C1301 C1302 1.516 . S
C1302 C1301 1.516 . S
C1302 C1303 1.502 . S
C1302 C1304 1.561 1_455 S
C1302 C1305 1.526 . S
C1303 H1287 0.959 . S
C1303 H1288 0.959 . S
C1303 H1289 0.961 . S
C1303 C1302 1.502 . S
C1304 H1290 0.960 . S
C1304 H1291 0.971 . S
C1304 H1292 0.959 . S
C1304 C1302 1.561 1_655 S
C1305 C1302 1.526 . S
C1305 C1306 1.396 1_455 S
C1305 C1310 1.390 . S
C1306 C1300 1.465 . S
C1306 C1305 1.396 1_655 S
C1306 C1307 1.399 . S
C1307 H1293 0.929 . S
C1307 C1306 1.399 . S
C1307 C1308 1.385 . S
C1308 H1294 0.931 . S
C1308 C1307 1.385 . S
C1308 C1309 1.389 1_655 S
C1309 C1308 1.389 1_455 S
C1309 C1310 1.387 . S
C1310 H1295 0.930 . S
C1310 C1305 1.390 . S
C1310 C1309 1.387 . S
H1311 C1323 0.930 . S
H1312 C1325 0.930 . S
H1313 C1326 0.930 . S
H1314 C1330 0.959 . S
H1315 C1330 0.959 . S
H1316 C1330 0.961 . S
H1317 C1331 0.960 . S
H1318 C1331 0.961 . S
H1319 C1331 0.959 . S
H1320 C1334 0.929 . S
H1321 C1335 0.931 . S
H1322 C1337 0.930 . S
C1323 H1311 0.930 . S
C1323 C1324 1.399 . S
C1323 C1328 1.399 . S
C1324 C1323 1.399 . S
C1324 C1325 1.376 1_545 S
C1325 H1312 0.930 . S
C1325 C1324 1.376 1_565 S
C1325 C1326 1.388 . S
C1326 H1313 0.930 . S
C1326 C1325 1.388 . S
C1326 C1327 1.390 . S
C1327 C1326 1.390 . S
C1327 C1328 1.394 1_565 S
C1327 C1333 1.465 . S
C1328 C1323 1.399 . S
C1328 C1327 1.394 1_545 S
C1328 C1329 1.516 . S
C1329 C1328 1.516 . S
C1329 C1330 1.502 . S
C1329 C1331 1.561 . S
C1329 C1332 1.526 . S
C1330 H1314 0.959 . S
C1330 H1315 0.959 . S
C1330 H1316 0.961 . S
C1330 C1329 1.502 . S
C1331 H1317 0.960 . S
C1331 H1318 0.961 . S
C1331 H1319 0.959 . S
C1331 C1329 1.561 . S
C1332 C1329 1.526 . S
C1332 C1333 1.396 1_545 S
C1332 C1337 1.390 . S
C1333 C1327 1.465 . S
C1333 C1332 1.396 1_565 S
C1333 C1334 1.399 . S
C1334 H1320 0.929 . S
C1334 C1333 1.399 . S
C1334 C1335 1.385 . S
C1335 H1321 0.931 . S
C1335 C1334 1.385 . S
C1335 C1336 1.389 . S
C1336 C1335 1.389 . S
C1336 C1337 1.387 1_565 S
C1337 H1322 0.930 . S
C1337 C1332 1.390 . S
C1337 C1336 1.387 1_545 S
H1338 C1350 0.930 . S
H1339 C1352 0.930 . S
H1340 C1353 0.930 . S
H1341 C1357 0.959 . S
H1342 C1357 0.959 . S
H1343 C1357 0.961 . S
H1344 C1358 0.960 . S
H1345 C1358 0.961 . S
H1346 C1358 0.959 . S
H1347 C1361 0.929 . S
H1348 C1362 0.931 . S
H1349 C1364 0.918 1_455 S
C1350 H1338 0.930 . S
C1350 C1351 1.399 . S
C1350 C1355 1.399 . S
C1351 C1350 1.399 . S
C1351 C1352 1.376 1_455 S
C1352 H1339 0.930 . S
C1352 C1351 1.376 1_655 S
C1352 C1353 1.388 . S
C1353 H1340 0.930 . S
C1353 C1352 1.388 . S
C1353 C1354 1.390 . S
C1354 C1353 1.390 . S
C1354 C1355 1.394 1_655 S
C1354 C1360 1.465 . S
C1355 C1350 1.399 . S
C1355 C1354 1.394 1_455 S
C1355 C1356 1.516 . S
C1356 C1355 1.516 . S
C1356 C1357 1.502 . S
C1356 C1358 1.561 1_455 S
C1356 C1359 1.518 1_455 S
C1357 H1341 0.959 . S
C1357 H1342 0.959 . S
C1357 H1343 0.961 . S
C1357 C1356 1.502 . S
C1358 H1344 0.960 . S
C1358 H1345 0.961 . S
C1358 H1346 0.959 . S
C1358 C1356 1.561 1_655 S
C1359 C1356 1.518 1_655 S
C1359 C1360 1.405 . S
C1359 C1364 1.389 . S
C1360 C1354 1.465 . S
C1360 C1359 1.405 . S
C1360 C1361 1.399 . S
C1361 H1347 0.929 . S
C1361 C1360 1.399 . S
C1361 C1362 1.385 . S
C1362 H1348 0.931 . S
C1362 C1361 1.385 . S
C1362 C1363 1.389 . S
C1363 C1362 1.389 . S
C1363 C1364 1.401 . S
C1364 H1349 0.918 1_655 S
C1364 C1359 1.389 . S
C1364 C1363 1.401 . S
H1365 C1377 0.930 . S
H1366 C1379 0.930 . S
H1367 C1380 0.930 . S
H1368 C1384 0.959 . S
H1369 C1384 0.959 . S
H1370 C1384 0.961 . S
H1371 C1385 0.960 . S
H1372 C1385 0.961 . S
H1373 C1385 0.959 . S
H1374 C1388 0.929 . S
H1375 C1389 0.931 . S
H1376 C1391 0.930 . S
C1377 H1365 0.930 . S
C1377 C1378 1.399 . S
C1377 C1382 1.399 . S
C1378 C1377 1.399 . S
C1378 C1379 1.376 1_565 S
C1379 H1366 0.930 . S
C1379 C1378 1.376 1_545 S
C1379 C1380 1.388 . S
C1380 H1367 0.930 . S
C1380 C1379 1.388 . S
C1380 C1381 1.390 . S
C1381 C1380 1.390 . S
C1381 C1382 1.394 1_545 S
C1381 C1387 1.465 . S
C1382 C1377 1.399 . S
C1382 C1381 1.394 1_565 S
C1382 C1383 1.516 . S
C1383 C1382 1.516 . S
C1383 C1384 1.502 . S
C1383 C1385 1.561 . S
C1383 C1386 1.526 . S
C1384 H1368 0.959 . S
C1384 H1369 0.959 . S
C1384 H1370 0.961 . S
C1384 C1383 1.502 . S
C1385 H1371 0.960 . S
C1385 H1372 0.961 . S
C1385 H1373 0.959 . S
C1385 C1383 1.561 . S
C1386 C1383 1.526 . S
C1386 C1387 1.396 1_565 S
C1386 C1391 1.390 . S
C1387 C1381 1.465 . S
C1387 C1386 1.396 1_545 S
C1387 C1388 1.399 . S
C1388 H1374 0.929 . S
C1388 C1387 1.399 . S
C1388 C1389 1.385 . S
C1389 H1375 0.931 . S
C1389 C1388 1.385 . S
C1389 C1390 1.389 . S
C1390 C1389 1.389 . S
C1390 C1391 1.387 1_545 S
C1391 H1376 0.930 . S
C1391 C1386 1.390 . S
C1391 C1390 1.387 1_565 S
H1392 C1404 0.930 . S
H1393 C1406 0.930 . S
H1394 C1407 0.930 . S
H1395 C1411 0.959 . S
H1396 C1411 0.959 . S
H1397 C1411 0.961 . S
H1398 C1412 0.960 . S
H1399 C1412 0.961 . S
H1400 C1412 0.959 . S
H1401 C1415 0.929 . S
H1402 C1416 0.931 . S
H1403 C1418 0.930 . S
C1404 H1392 0.930 . S
C1404 C1405 1.399 . S
C1404 C1409 1.399 . S
C1405 C1404 1.399 . S
C1405 C1406 1.376 . S
C1406 H1393 0.930 . S
C1406 C1405 1.376 . S
C1406 C1407 1.388 . S
C1407 H1394 0.930 . S
C1407 C1406 1.388 . S
C1407 C1408 1.390 . S
C1408 C1407 1.390 . S
C1408 C1409 1.394 . S
C1408 C1414 1.465 . S
C1409 C1404 1.399 . S
C1409 C1408 1.394 . S
C1409 C1410 1.516 . S
C1410 C1409 1.516 . S
C1410 C1411 1.502 . S
C1410 C1412 1.561 . S
C1410 C1413 1.526 . S
C1411 H1395 0.959 . S
C1411 H1396 0.959 . S
C1411 H1397 0.961 . S
C1411 C1410 1.502 . S
C1412 H1398 0.960 . S
C1412 H1399 0.961 . S
C1412 H1400 0.959 . S
C1412 C1410 1.561 . S
C1413 C1410 1.526 . S
C1413 C1414 1.396 . S
C1413 C1418 1.390 . S
C1414 C1408 1.465 . S
C1414 C1413 1.396 . S
C1414 C1415 1.399 . S
C1415 H1401 0.929 . S
C1415 C1414 1.399 . S
C1415 C1416 1.385 . S
C1416 H1402 0.931 . S
C1416 C1415 1.385 . S
C1416 C1417 1.389 . S
C1417 C1416 1.389 . S
C1417 C1418 1.387 . S
C1418 H1403 0.930 . S
C1418 C1413 1.390 . S
C1418 C1417 1.387 . S
H1419 C1431 0.930 . S
H1420 C1433 0.930 . S
H1421 C1434 0.930 . S
H1422 C1438 0.959 . S
H1423 C1438 0.959 . S
H1424 C1438 0.961 . S
H1425 C1439 0.960 . S
H1426 C1439 0.961 . S
H1427 C1439 0.959 . S
H1428 C1442 0.929 . S
H1429 C1443 0.931 . S
H1430 C1445 0.930 . S
C1431 H1419 0.930 . S
C1431 C1432 1.399 . S
C1431 C1436 1.399 . S
C1432 C1431 1.399 . S
C1432 C1433 1.376 . S
C1433 H1420 0.930 . S
C1433 C1432 1.376 . S
C1433 C1434 1.388 . S
C1434 H1421 0.930 . S
C1434 C1433 1.388 . S
C1434 C1435 1.390 . S
C1435 C1434 1.390 . S
C1435 C1436 1.394 . S
C1435 C1441 1.465 . S
C1436 C1431 1.399 . S
C1436 C1435 1.394 . S
C1436 C1437 1.516 . S
C1437 C1436 1.516 . S
C1437 C1438 1.502 . S
C1437 C1439 1.561 . S
C1437 C1440 1.526 . S
C1438 H1422 0.959 . S
C1438 H1423 0.959 . S
C1438 H1424 0.961 . S
C1438 C1437 1.502 . S
C1439 H1425 0.960 . S
C1439 H1426 0.961 . S
C1439 H1427 0.959 . S
C1439 C1437 1.561 . S
C1440 C1437 1.526 . S
C1440 C1441 1.396 . S
C1440 C1445 1.390 . S
C1441 C1435 1.465 . S
C1441 C1440 1.396 . S
C1441 C1442 1.399 . S
C1442 H1428 0.929 . S
C1442 C1441 1.399 . S
C1442 C1443 1.385 . S
C1443 H1429 0.931 . S
C1443 C1442 1.385 . S
C1443 C1444 1.389 . S
C1444 C1443 1.389 . S
C1444 C1445 1.387 . S
C1445 H1430 0.930 . S
C1445 C1440 1.390 . S
C1445 C1444 1.387 . S
H1446 C1458 0.930 . S
H1447 C1460 0.930 . S
H1448 C1461 0.930 . S
H1449 C1465 0.959 . S
H1450 C1465 0.959 . S
H1451 C1465 0.961 . S
H1452 C1466 0.960 . S
H1453 C1466 0.961 . S
H1454 C1466 0.959 . S
H1455 C1469 0.929 . S
H1456 C1470 0.931 . S
H1457 C1472 0.930 . S
C1458 H1446 0.930 . S
C1458 C1459 1.399 . S
C1458 C1463 1.399 . S
C1459 C1458 1.399 . S
C1459 C1460 1.376 . S
C1460 H1447 0.930 . S
C1460 C1459 1.376 . S
C1460 C1461 1.388 . S
C1461 H1448 0.930 . S
C1461 C1460 1.388 . S
C1461 C1462 1.390 . S
C1462 C1461 1.390 . S
C1462 C1463 1.394 . S
C1462 C1468 1.465 . S
C1463 C1458 1.399 . S
C1463 C1462 1.394 . S
C1463 C1464 1.516 . S
C1464 C1463 1.516 . S
C1464 C1465 1.502 . S
C1464 C1466 1.561 . S
C1464 C1467 1.526 . S
C1465 H1449 0.959 . S
C1465 H1450 0.959 . S
C1465 H1451 0.961 . S
C1465 C1464 1.502 . S
C1466 H1452 0.960 . S
C1466 H1453 0.961 . S
C1466 H1454 0.959 . S
C1466 C1464 1.561 . S
C1467 C1464 1.526 . S
C1467 C1468 1.396 . S
C1467 C1472 1.390 . S
C1468 C1462 1.465 . S
C1468 C1467 1.396 . S
C1468 C1469 1.399 . S
C1469 H1455 0.929 . S
C1469 C1468 1.399 . S
C1469 C1470 1.385 . S
C1470 H1456 0.931 . S
C1470 C1469 1.385 . S
C1470 C1471 1.389 . S
C1471 C1470 1.389 . S
C1471 C1472 1.387 . S
C1472 H1457 0.930 . S
C1472 C1467 1.390 . S
C1472 C1471 1.387 . S
H1473 C1485 0.930 . S
H1474 C1487 0.930 . S
H1475 C1488 0.930 . S
H1476 C1492 0.959 . S
H1477 C1492 0.959 . S
H1478 C1492 0.961 . S
H1479 C1493 0.960 . S
H1480 C1493 0.961 . S
H1481 C1493 0.959 . S
H1482 C1496 0.929 . S
H1483 C1497 0.931 . S
H1484 C1499 0.930 . S
C1485 H1473 0.930 . S
C1485 C1486 1.399 . S
C1485 C1490 1.399 . S
C1486 C1485 1.399 . S
C1486 C1487 1.376 . S
C1487 H1474 0.930 . S
C1487 C1486 1.376 . S
C1487 C1488 1.388 . S
C1488 H1475 0.930 . S
C1488 C1487 1.388 . S
C1488 C1489 1.390 . S
C1489 C1488 1.390 . S
C1489 C1490 1.394 . S
C1489 C1495 1.465 . S
C1490 C1485 1.399 . S
C1490 C1489 1.394 . S
C1490 C1491 1.516 . S
C1491 C1490 1.516 . S
C1491 C1492 1.502 . S
C1491 C1493 1.561 . S
C1491 C1494 1.526 . S
C1492 H1476 0.959 . S
C1492 H1477 0.959 . S
C1492 H1478 0.961 . S
C1492 C1491 1.502 . S
C1493 H1479 0.960 . S
C1493 H1480 0.961 . S
C1493 H1481 0.959 . S
C1493 C1491 1.561 . S
C1494 C1491 1.526 . S
C1494 C1495 1.396 . S
C1494 C1499 1.390 . S
C1495 C1489 1.465 . S
C1495 C1494 1.396 . S
C1495 C1496 1.399 . S
C1496 H1482 0.929 . S
C1496 C1495 1.399 . S
C1496 C1497 1.385 . S
C1497 H1483 0.931 . S
C1497 C1496 1.385 . S
C1497 C1498 1.389 . S
C1498 C1497 1.389 . S
C1498 C1499 1.387 . S
C1499 H1484 0.930 . S
C1499 C1494 1.390 . S
C1499 C1498 1.387 . S
H1500 C1512 0.930 . S
H1501 C1514 0.930 . S
H1502 C1515 0.930 . S
H1503 C1519 0.959 . S
H1504 C1519 0.959 . S
H1505 C1519 0.961 . S
H1506 C1520 0.960 . S
H1507 C1520 0.961 . S
H1508 C1520 0.959 . S
H1509 C1523 0.929 . S
H1510 C1524 0.931 . S
H1511 C1526 0.930 . S
C1512 H1500 0.930 . S
C1512 C1513 1.399 . S
C1512 C1517 1.399 . S
C1513 C1512 1.399 . S
C1513 C1514 1.376 . S
C1514 H1501 0.930 . S
C1514 C1513 1.376 . S
C1514 C1515 1.388 . S
C1515 H1502 0.930 . S
C1515 C1514 1.388 . S
C1515 C1516 1.390 . S
C1516 C1515 1.390 . S
C1516 C1517 1.394 . S
C1516 C1522 1.465 . S
C1517 C1512 1.399 . S
C1517 C1516 1.394 . S
C1517 C1518 1.516 . S
C1518 C1517 1.516 . S
C1518 C1519 1.502 . S
C1518 C1520 1.561 . S
C1518 C1521 1.526 . S
C1519 H1503 0.959 . S
C1519 H1504 0.959 . S
C1519 H1505 0.961 . S
C1519 C1518 1.502 . S
C1520 H1506 0.960 . S
C1520 H1507 0.961 . S
C1520 H1508 0.959 . S
C1520 C1518 1.561 . S
C1521 C1518 1.526 . S
C1521 C1522 1.396 . S
C1521 C1526 1.390 . S
C1522 C1516 1.465 . S
C1522 C1521 1.396 . S
C1522 C1523 1.399 . S
C1523 H1509 0.929 . S
C1523 C1522 1.399 . S
C1523 C1524 1.385 . S
C1524 H1510 0.931 . S
C1524 C1523 1.385 . S
C1524 C1525 1.389 . S
C1525 C1524 1.389 . S
C1525 C1526 1.387 . S
C1526 H1511 0.930 . S
C1526 C1521 1.390 . S
C1526 C1525 1.387 . S
H1527 C1539 0.930 . S
H1528 C1541 0.930 . S
H1529 C1542 0.930 . S
H1530 C1546 0.959 . S
H1531 C1546 0.959 . S
H1532 C1546 0.961 . S
H1533 C1547 0.960 . S
H1534 C1547 0.961 . S
H1535 C1547 0.959 . S
H1536 C1550 0.929 . S
H1537 C1551 0.931 . S
H1538 C1553 0.930 . S
C1539 H1527 0.930 . S
C1539 C1540 1.399 . S
C1539 C1544 1.399 . S
C1540 C1539 1.399 . S
C1540 C1541 1.376 . S
C1541 H1528 0.930 . S
C1541 C1540 1.376 . S
C1541 C1542 1.388 . S
C1542 H1529 0.930 . S
C1542 C1541 1.388 . S
C1542 C1543 1.390 . S
C1543 C1542 1.390 . S
C1543 C1544 1.394 . S
C1543 C1549 1.465 . S
C1544 C1539 1.399 . S
C1544 C1543 1.394 . S
C1544 C1545 1.516 . S
C1545 C1544 1.516 . S
C1545 C1546 1.502 . S
C1545 C1547 1.561 . S
C1545 C1548 1.526 . S
C1546 H1530 0.959 . S
C1546 H1531 0.959 . S
C1546 H1532 0.961 . S
C1546 C1545 1.502 . S
C1547 H1533 0.960 . S
C1547 H1534 0.961 . S
C1547 H1535 0.959 . S
C1547 C1545 1.561 . S
C1548 C1545 1.526 . S
C1548 C1549 1.396 . S
C1548 C1553 1.390 . S
C1549 C1543 1.465 . S
C1549 C1548 1.396 . S
C1549 C1550 1.399 . S
C1550 H1536 0.929 . S
C1550 C1549 1.399 . S
C1550 C1551 1.385 . S
C1551 H1537 0.931 . S
C1551 C1550 1.385 . S
C1551 C1552 1.389 . S
C1552 C1551 1.389 . S
C1552 C1553 1.387 . S
C1553 H1538 0.930 . S
C1553 C1548 1.390 . S
C1553 C1552 1.387 . S
H1554 C1566 0.930 . S
H1555 C1568 0.930 . S
H1556 C1569 0.930 . S
H1557 C1573 0.959 . S
H1558 C1573 0.959 . S
H1559 C1573 0.961 . S
H1560 C1574 0.960 . S
H1561 C1574 0.961 . S
H1562 C1574 0.959 . S
H1563 C1577 0.929 . S
H1564 C1578 0.931 . S
H1565 C1580 0.930 . S
C1566 H1554 0.930 . S
C1566 C1567 1.399 . S
C1566 C1571 1.399 . S
C1567 C1566 1.399 . S
C1567 C1568 1.376 . S
C1568 H1555 0.930 . S
C1568 C1567 1.376 . S
C1568 C1569 1.388 . S
C1569 H1556 0.930 . S
C1569 C1568 1.388 . S
C1569 C1570 1.390 . S
C1570 C1569 1.390 . S
C1570 C1571 1.394 . S
C1570 C1576 1.465 . S
C1571 C1566 1.399 . S
C1571 C1570 1.394 . S
C1571 C1572 1.516 . S
C1572 C1571 1.516 . S
C1572 C1573 1.502 . S
C1572 C1574 1.561 . S
C1572 C1575 1.526 . S
C1573 H1557 0.959 . S
C1573 H1558 0.959 . S
C1573 H1559 0.961 . S
C1573 C1572 1.502 . S
C1574 H1560 0.960 . S
C1574 H1561 0.961 . S
C1574 H1562 0.959 . S
C1574 C1572 1.561 . S
C1575 C1572 1.526 . S
C1575 C1576 1.396 . S
C1575 C1580 1.390 . S
C1576 C1570 1.465 . S
C1576 C1575 1.396 . S
C1576 C1577 1.399 . S
C1577 H1563 0.929 . S
C1577 C1576 1.399 . S
C1577 C1578 1.385 . S
C1578 H1564 0.931 . S
C1578 C1577 1.385 . S
C1578 C1579 1.389 . S
C1579 C1578 1.389 . S
C1579 C1580 1.387 . S
C1580 H1565 0.930 . S
C1580 C1575 1.390 . S
C1580 C1579 1.387 . S
H1581 C1593 0.930 . S
H1582 C1595 0.930 . S
H1583 C1596 0.930 . S
H1584 C1600 0.959 . S
H1585 C1600 0.959 . S
H1586 C1600 0.961 . S
H1587 C1601 0.960 . S
H1588 C1601 0.961 . S
H1589 C1601 0.959 . S
H1590 C1604 0.929 . S
H1591 C1605 0.931 . S
H1592 C1607 0.930 . S
C1593 H1581 0.930 . S
C1593 C1594 1.399 . S
C1593 C1598 1.399 . S
C1594 C1593 1.399 . S
C1594 C1595 1.376 . S
C1595 H1582 0.930 . S
C1595 C1594 1.376 . S
C1595 C1596 1.388 . S
C1596 H1583 0.930 . S
C1596 C1595 1.388 . S
C1596 C1597 1.390 . S
C1597 C1596 1.390 . S
C1597 C1598 1.394 . S
C1597 C1603 1.465 . S
C1598 C1593 1.399 . S
C1598 C1597 1.394 . S
C1598 C1599 1.516 . S
C1599 C1598 1.516 . S
C1599 C1600 1.502 . S
C1599 C1601 1.561 . S
C1599 C1602 1.526 . S
C1600 H1584 0.959 . S
C1600 H1585 0.959 . S
C1600 H1586 0.961 . S
C1600 C1599 1.502 . S
C1601 H1587 0.960 . S
C1601 H1588 0.961 . S
C1601 H1589 0.959 . S
C1601 C1599 1.561 . S
C1602 C1599 1.526 . S
C1602 C1603 1.396 . S
C1602 C1607 1.390 . S
C1603 C1597 1.465 . S
C1603 C1602 1.396 . S
C1603 C1604 1.399 . S
C1604 H1590 0.929 . S
C1604 C1603 1.399 . S
C1604 C1605 1.385 . S
C1605 H1591 0.931 . S
C1605 C1604 1.385 . S
C1605 C1606 1.389 . S
C1606 C1605 1.389 . S
C1606 C1607 1.387 . S
C1607 H1592 0.930 . S
C1607 C1602 1.390 . S
C1607 C1606 1.387 . S
C541 N5 1.330 . S
C553 N500 1.271 . S
C568 N38 1.287 . S
C580 N401 1.351 . S
C595 N434 1.290 . S
C607 N71 1.352 . S
C622 N104 1.301 . S
C634 N467 1.353 . S
C649 N137 1.325 . S
C661 N302 1.271 . S
C676 N335 1.272 . S
C688 N170 1.335 . S
C703 N368 1.297 . S
C715 N203 1.353 . S
C730 N269 1.316 . S
C742 N236 1.272 . S
C757 N113 1.590 1_556 S
C769 C17 1.617 1_556 S
C784 N14 1.527 1_556 S
C796 C50 1.613 . S
C811 C83 1.610 1_556 S
C823 N47 1.586 1_556 S
C838 C116 1.610 1_556 S
C850 N80 1.584 1_556 S
C865 N179 1.533 . S
C877 C149 1.612 . S
C892 N212 1.525 . S
C904 C182 1.614 . S
C919 N245 1.590 . S
C931 C215 1.617 . S
C946 N146 1.589 . S
C958 C248 1.617 . S
C973 N377 1.593 . S
C985 C281 1.616 . S
C1000 C314 1.613 . S
C1012 N278 1.595 . S
C1027 N311 1.525 . S
C1039 C347 1.614 . S
C1054 N344 1.528 . S
C1066 C380 1.613 . S
C1081 N443 1.590 . S
C1093 C413 1.617 . S
C1108 N476 1.593 . S
C1120 C446 1.616 . S
C1135 N509 1.595 . S
C1147 C479 1.616 . S
C1162 N410 1.592 . S
C1174 C512 1.617 . S
C1189 C226 1.781 . S
C1201 C28 1.785 . S
C1216 C259 1.786 . S
C1228 C61 1.782 . S
C1243 C94 1.740 . S
C1255 C160 1.738 . S
C1270 C193 1.758 . S
C1282 C127 1.766 . S
C1297 C74 0.628 . S
C1309 C140 0.690 . S
C1324 C173 0.666 . S
C1336 C107 0.630 . S
C1351 C8 0.780 . S
C1363 C206 0.735 . S
C1378 C239 0.703 . S
C1390 C41 0.633 . S
C1405 C490 1.782 . S
C1417 C292 1.785 . S
C1432 C523 1.779 . S
C1444 C325 1.773 . S
C1459 C424 1.778 . S
C1471 C358 1.783 . S
C1486 C391 1.754 . S
C1498 C457 1.748 . S
C1513 C404 0.697 . S
C1525 C338 0.631 . S
C1540 C371 0.706 . S
C1552 C437 0.634 . S
C1567 C272 0.627 . S
C1579 C470 0.673 . S
C1594 C503 0.710 . S
C1606 C305 0.775 . S
