# Generated by pormake.
# Topology une, (4)-cn, num edge types: 1
# Building blocks:
#     Node 0, Type 0, BuildingBlock: CEKHIL_clean_sbu_0, # of connection points: 4
#     Node 1, Type 0, BuildingBlock: CEKHIL_clean_sbu_0, # of connection points: 4
#     Node 2, Type 0, BuildingBlock: CEKHIL_clean_sbu_0, # of connection points: 4
#     Node 3, Type 0, BuildingBlock: CEKHIL_clean_sbu_0, # of connection points: 4
#     Node 4, Type 0, BuildingBlock: CEKHIL_clean_sbu_0, # of connection points: 4
#     Node 5, Type 0, BuildingBlock: CEKHIL_clean_sbu_0, # of connection points: 4
#     Node 6, Type 0, BuildingBlock: CEKHIL_clean_sbu_0, # of connection points: 4
#     Node 7, Type 0, BuildingBlock: CEKHIL_clean_sbu_0, # of connection points: 4
#     Node 8, Type 0, BuildingBlock: CEKHIL_clean_sbu_0, # of connection points: 4
#     Node 9, Type 0, BuildingBlock: CEKHIL_clean_sbu_0, # of connection points: 4
#     Node 10, Type 0, BuildingBlock: CEKHIL_clean_sbu_0, # of connection points: 4
#     Node 11, Type 0, BuildingBlock: CEKHIL_clean_sbu_0, # of connection points: 4
#     Node 12, Type 0, BuildingBlock: CEKHIL_clean_sbu_0, # of connection points: 4
#     Node 13, Type 0, BuildingBlock: CEKHIL_clean_sbu_0, # of connection points: 4
#     Node 14, Type 0, BuildingBlock: CEKHIL_clean_sbu_0, # of connection points: 4
#     Node 15, Type 0, BuildingBlock: CEKHIL_clean_sbu_0, # of connection points: 4
#     Node 16, Type 0, BuildingBlock: CEKHIL_clean_sbu_0, # of connection points: 4
#     Node 17, Type 0, BuildingBlock: CEKHIL_clean_sbu_0, # of connection points: 4
#     Edge 18, Type (0, 0), None
#     Edge 19, Type (0, 0), None
#     Edge 20, Type (0, 0), None
#     Edge 21, Type (0, 0), None
#     Edge 22, Type (0, 0), None
#     Edge 23, Type (0, 0), None
#     Edge 24, Type (0, 0), None
#     Edge 25, Type (0, 0), None
#     Edge 26, Type (0, 0), None
#     Edge 27, Type (0, 0), None
#     Edge 28, Type (0, 0), None
#     Edge 29, Type (0, 0), None
#     Edge 30, Type (0, 0), None
#     Edge 31, Type (0, 0), None
#     Edge 32, Type (0, 0), None
#     Edge 33, Type (0, 0), None
#     Edge 34, Type (0, 0), None
#     Edge 35, Type (0, 0), None
#     Edge 36, Type (0, 0), None
#     Edge 37, Type (0, 0), None
#     Edge 38, Type (0, 0), None
#     Edge 39, Type (0, 0), None
#     Edge 40, Type (0, 0), None
#     Edge 41, Type (0, 0), None
#     Edge 42, Type (0, 0), None
#     Edge 43, Type (0, 0), None
#     Edge 44, Type (0, 0), None
#     Edge 45, Type (0, 0), None
#     Edge 46, Type (0, 0), None
#     Edge 47, Type (0, 0), None
#     Edge 48, Type (0, 0), None
#     Edge 49, Type (0, 0), None
#     Edge 50, Type (0, 0), None
#     Edge 51, Type (0, 0), None
#     Edge 52, Type (0, 0), None
#     Edge 53, Type (0, 0), None
# Relax obj value: 0.256
# Max RMSD: 0.173
# Mean RMSD: 0.163
data_MOF--net-une--node1-CEKHIL_clean_sbu_0--edge1-none
_symmetry_space_group_name_H-M    P1
_symmetry_Int_Tables_number       1
_symmetry_cell_setting            triclinic
loop_
_symmetry_equiv_pos_as_xyz
'x, y, z'
_cell_length_a     16.756411
_cell_length_b     16.550414
_cell_length_c     21.511943
_cell_angle_alpha  89.453632
_cell_angle_beta   90.603776
_cell_angle_gamma 119.40144
loop_
_atom_site_label
_atom_site_type_symbol
_atom_site_fract_x
_atom_site_fract_y
_atom_site_fract_z
_atom_type_partial_charge
Co0 Co 0.36283 0.06169 0.10577 0.0
O1 O 0.45 0.01309 0.11807 0.0
O2 O 0.44084 0.07714 1.03156 0.0
C3 C 0.35297 0.13152 0.20019 0.0
O4 O 0.28163 0.10781 0.07054 0.0
Co5 Co 0.16979 0.9877 0.1713 0.0
O6 O 0.19017 0.11211 0.14264 0.0
C7 C 0.22868 0.87357 0.10244 0.0
C8 C 0.47084 0.02676 1.05877 0.0
C9 C 0.24977 0.15184 0.10031 0.0
O10 O 0.27936 0.94335 0.06977 0.0
O11 O 0.18273 0.87676 0.14858 0.0
O12 O 0.42322 0.17331 0.16259 0.0
O13 O 0.3023 0.04596 0.18543 0.0
Co14 Co 0.93612 0.29267 0.10066 0.0
O15 O 0.81059 0.21745 0.13757 0.0
O16 O 0.93553 0.2399 0.18416 0.0
C17 C 0.94479 0.42125 1.04314 0.0
O18 O 0.07125 0.35633 0.08817 0.0
Co19 Co 0.97278 0.30529 0.95486 0.0
O20 O 0.10094 0.37673 0.98552 0.0
C21 C 0.86538 0.13791 1.02558 0.0
C22 C 0.84692 0.19185 0.18278 0.0
C23 C 0.12619 0.38723 1.04243 0.0
O24 O 0.92643 0.1786 0.06673 0.0
O25 O 0.87138 0.17636 0.97272 0.0
O26 O 0.94889 0.42057 0.1043 0.0
O27 O 0.91766 0.34009 1.02179 0.0
Co28 Co 0.74456 0.63538 0.10959 0.0
O29 O 0.61298 0.53611 0.12277 0.0
O30 O 0.67908 0.56354 1.03326 0.0
C31 C 0.83796 0.63536 0.19554 0.0
O32 O 0.86256 0.72948 0.07135 0.0
Co33 Co 0.87362 0.82212 0.18494 0.0
O34 O 0.97047 0.80965 0.14005 0.0
C35 C 0.70927 0.79434 0.11618 0.0
C36 C 0.60217 0.52066 0.06265 0.0
C37 C 0.94168 0.75503 0.09395 0.0
O38 O 0.69828 0.72143 0.0889 0.0
O39 O 0.76795 0.83796 0.15896 0.0
O40 O 0.80754 0.57085 0.15265 0.0
O41 O 0.79977 0.68626 0.19041 0.0
Co42 Co 0.62307 0.93266 0.98856 0.0
O43 O 0.57357 0.813 0.94019 0.0
O44 O 0.69987 0.93735 0.91771 0.0
C45 C 0.51378 0.97553 1.02373 0.0
O46 O 0.70815 0.05964 1.01173 0.0
Co47 Co 0.62344 0.97853 0.12693 0.0
O48 O 0.75717 0.04476 0.10225 0.0
C49 C 0.66046 0.83779 0.09239 0.0
C50 C 0.65109 0.84981 0.90897 0.0
C51 C 0.77385 0.07399 1.04675 0.0
O52 O 0.68635 0.87954 1.03991 0.0
O53 O 0.61583 0.85621 0.13171 0.0
O54 O 0.53676 0.98275 0.96466 0.0
O55 O 0.54189 0.92766 1.05431 0.0
Co56 Co 0.06131 0.66689 0.97749 0.0
O57 O 0.15532 0.71426 0.90966 0.0
O58 O 0.04999 0.75379 0.91774 0.0
C59 C 1.00188 0.50861 1.00304 0.0
O60 O 0.96267 0.65254 1.0328 0.0
Co61 Co 0.08058 0.59979 0.11466 0.0
O62 O 0.02327 0.68012 0.12743 0.0
C63 C 0.1972 0.78686 0.07404 0.0
C64 C 0.12618 0.77185 0.89191 0.0
C65 C 0.97967 0.69481 0.08401 0.0
O66 O 0.14901 0.77602 1.02521 0.0
O67 O 0.19217 0.72195 0.10886 0.0
O68 O 0.97576 0.53332 0.95171 0.0
O69 O 0.07388 0.57534 1.02643 0.0
Co70 Co 0.35355 0.37081 0.99334 0.0
O71 O 0.3143 0.41945 0.92097 0.0
O72 O 0.27704 0.27442 0.93085 0.0
C73 C 0.50778 0.47102 1.0279 0.0
O74 O 0.36134 0.28666 1.05444 0.0
Co75 Co 0.37327 0.44249 0.12783 0.0
O76 O 0.29576 0.30343 0.13809 0.0
C77 C 0.21766 0.40458 1.05385 0.0
C78 C 0.25955 0.33342 0.90277 0.0
C79 C 0.30273 0.25191 0.09736 0.0
O80 O 0.23581 0.34699 1.02809 0.0
O81 O 0.26742 0.45782 0.09736 0.0
O82 O 0.48964 0.42149 0.97693 0.0
O83 O 0.43602 0.47385 1.0465 0.0
Co84 Co 0.02947 0.39491 0.43917 0.0
O85 O 0.11668 0.34636 0.45147 0.0
O86 O 0.10751 0.41042 0.36497 0.0
C87 C 0.01956 0.46471 0.5336 0.0
O88 O 0.94825 0.44099 0.40392 0.0
Co89 Co 0.8364 0.32092 0.50466 0.0
O90 O 0.8568 0.44534 0.476 0.0
C91 C 0.89529 0.20677 0.43579 0.0
C92 C 0.13753 0.36006 0.39217 0.0
C93 C 0.91641 0.48505 0.43368 0.0
O94 O 0.94604 0.27656 0.40316 0.0
O95 O 0.84931 0.20997 0.48192 0.0
O96 O 0.08981 0.50651 0.496 0.0
O97 O 0.9689 0.37915 0.51882 0.0
Co98 Co 0.60277 0.62594 0.43396 0.0
O99 O 0.47721 0.55072 0.47082 0.0
O100 O 0.60211 0.57322 0.5175 0.0
C101 C 0.61148 0.75448 0.37637 0.0
O102 O 0.73791 0.6896 0.42153 0.0
Co103 Co 0.63953 0.63844 0.28818 0.0
O104 O 0.76766 0.70994 0.31888 0.0
C105 C 0.53213 0.47112 0.35894 0.0
C106 C 0.5135 0.52516 0.51607 0.0
C107 C 0.79288 0.72048 0.3758 0.0
O108 O 0.59316 0.51187 0.4001 0.0
O109 O 0.53815 0.5095 0.30606 0.0
O110 O 0.61552 0.75383 0.43753 0.0
O111 O 0.58438 0.67331 0.35505 0.0
Co112 Co 0.41124 0.96862 0.44288 0.0
O113 O 0.27966 0.86941 0.45611 0.0
O114 O 0.34572 0.89671 0.36659 0.0
C115 C 0.50465 0.96868 0.52885 0.0
O116 O 0.52924 0.06264 0.40459 0.0
Co117 Co 0.54041 0.15545 0.51812 0.0
O118 O 0.63721 0.14285 0.47325 0.0
C119 C 0.376 0.1276 0.4494 0.0
C120 C 0.26883 0.85389 0.396 0.0
C121 C 0.60836 0.08817 0.42719 0.0
O122 O 0.36499 0.05468 0.42213 0.0
O123 O 0.43471 0.17126 0.49216 0.0
O124 O 0.47421 0.90412 0.486 0.0
O125 O 0.46649 0.01961 0.52367 0.0
Co126 Co 0.2898 0.26602 0.32189 0.0
O127 O 0.2403 0.14641 0.27348 0.0
O128 O 0.36661 0.27078 0.25103 0.0
C129 C 0.18051 0.30887 0.3571 0.0
O130 O 0.3749 0.39297 0.34513 0.0
Co131 Co 0.29017 0.31175 0.46028 0.0
O132 O 0.42391 0.37796 0.43561 0.0
C133 C 0.32714 0.17102 0.42563 0.0
C134 C 0.31784 0.18325 0.24227 0.0
C135 C 0.44058 0.40725 0.38012 0.0
O136 O 0.35307 0.21285 0.37319 0.0
O137 O 0.2825 0.18939 0.46498 0.0
O138 O 0.2035 0.31615 0.29804 0.0
O139 O 0.20861 0.26097 0.38766 0.0
Co140 Co 0.72805 1.00012 0.31076 0.0
O141 O 0.82211 0.04757 0.24296 0.0
O142 O 0.71674 0.08704 0.25103 0.0
C143 C 0.66862 0.84183 0.33626 0.0
O144 O 0.62935 0.98568 0.36604 0.0
Co145 Co 0.74724 0.93291 0.44792 0.0
O146 O 0.68987 0.01318 0.4607 0.0
C147 C 0.86382 0.12006 0.40739 0.0
C148 C 0.79297 0.10515 0.22523 0.0
C149 C 0.6463 0.02791 0.41727 0.0
O150 O 0.8157 0.10922 0.35853 0.0
O151 O 0.85876 0.05515 0.44223 0.0
O152 O 0.64253 0.86656 0.28494 0.0
O153 O 0.74062 0.90854 0.35968 0.0
Co154 Co 0.02019 0.70402 0.32672 0.0
O155 O 0.98092 0.75268 0.25437 0.0
O156 O 0.94367 0.60766 0.26421 0.0
C157 C 0.17443 0.80424 0.36126 0.0
O158 O 0.028 0.61986 0.3878 0.0
Co159 Co 0.03994 0.77571 0.46122 0.0
O160 O 0.96245 0.63665 0.47147 0.0
C161 C 0.88433 0.7378 0.38724 0.0
C162 C 0.92615 0.66665 0.23617 0.0
C163 C 0.96941 0.58512 0.43073 0.0
O164 O 0.90247 0.6802 0.36149 0.0
O165 O 0.93409 0.79105 0.43075 0.0
O166 O 0.15628 0.75472 0.31028 0.0
O167 O 0.10267 0.80706 0.37987 0.0
Co168 Co 0.69605 0.72828 0.77246 0.0
O169 O 0.78316 0.6796 0.78475 0.0
O170 O 0.77408 0.74373 0.69826 0.0
C171 C 0.68617 0.79808 0.86685 0.0
O172 O 0.61492 0.77448 0.73722 0.0
Co173 Co 0.50299 0.65429 0.83794 0.0
O174 O 0.52342 0.77874 0.80931 0.0
C175 C 0.5619 0.54019 0.76907 0.0
C176 C 0.80402 0.69329 0.72546 0.0
C177 C 0.58304 0.81849 0.767 0.0
O178 O 0.61256 0.60999 0.73642 0.0
O179 O 0.51593 0.54335 0.81521 0.0
O180 O 0.75648 0.83986 0.8293 0.0
O181 O 0.63548 0.71252 0.8521 0.0
Co182 Co 0.26934 0.95933 0.76733 0.0
O183 O 0.14381 0.88414 0.80425 0.0
O184 O 0.26875 0.90658 0.85084 0.0
C185 C 0.27805 0.08791 0.70979 0.0
O186 O 0.40447 0.02295 0.75484 0.0
Co187 Co 0.30599 0.97189 0.62153 0.0
O188 O 0.43416 0.04325 0.65218 0.0
C189 C 0.19853 0.80455 0.69227 0.0
C190 C 0.18014 0.85852 0.84945 0.0
C191 C 0.45941 0.05379 0.70909 0.0
O192 O 0.2596 0.84523 0.73341 0.0
O193 O 0.20453 0.843 0.63942 0.0
O194 O 0.28216 0.08725 0.77094 0.0
O195 O 0.25089 0.00674 0.68845 0.0
Co196 Co 0.07786 0.30206 0.77625 0.0
O197 O 0.94629 0.20278 0.78947 0.0
O198 O 1.01235 0.2302 0.69993 0.0
C199 C 0.17135 0.30212 0.86214 0.0
O200 O 0.19583 0.39615 0.73796 0.0
Co201 Co 0.20697 0.48884 0.85154 0.0
O202 O 0.3038 0.47637 0.80661 0.0
C203 C 0.04254 0.46099 0.78286 0.0
C204 C 0.93546 0.18732 0.72935 0.0
C205 C 0.27497 0.42173 0.76053 0.0
O206 O 0.03155 0.38809 0.75557 0.0
O207 O 0.10124 0.50463 0.82563 0.0
O208 O 0.14088 0.23755 0.81929 0.0
O209 O 0.13313 0.353 0.85705 0.0
Co210 Co 0.95628 0.59924 0.65525 0.0
O211 O 0.90686 0.47958 0.60688 0.0
O212 O 0.03312 0.60396 0.5844 0.0
C213 C 0.84695 0.64205 0.69041 0.0
O214 O 0.04131 0.72624 0.67842 0.0
Co215 Co 0.95659 0.6451 0.79362 0.0
O216 O 0.09033 0.71141 0.76895 0.0
C217 C 0.99371 0.50442 0.75908 0.0
C218 C 0.98439 0.51642 0.57567 0.0
C219 C 0.107 0.74063 0.71345 0.0
O220 O 0.0196 0.54618 0.70661 0.0
O221 O 0.94906 0.52282 0.79841 0.0
O222 O 0.86993 0.64928 0.63134 0.0
O223 O 0.87508 0.5942 0.72099 0.0
Co224 Co 0.39459 0.33353 0.6441 0.0
O225 O 0.48864 0.38089 0.5763 0.0
O226 O 0.3833 0.42042 0.58433 0.0
C227 C 0.33515 0.17525 0.66967 0.0
O228 O 0.29593 0.31921 0.69938 0.0
Co229 Co 0.41382 0.26645 0.78129 0.0
O230 O 0.35653 0.3468 0.79402 0.0
C231 C 0.53046 0.4535 0.74065 0.0
C232 C 0.45953 0.43849 0.55854 0.0
C233 C 0.31293 0.36149 0.75059 0.0
O234 O 0.48228 0.44266 0.69182 0.0
O235 O 0.52544 0.38859 0.77547 0.0
O236 O 0.30904 0.19995 0.61834 0.0
O237 O 0.40715 0.24199 0.69307 0.0
Co238 Co 0.68684 0.03744 0.66004 0.0
O239 O 0.6476 0.08606 0.58765 0.0
O240 O 0.61036 0.94103 0.59755 0.0
C241 C 0.84106 0.13766 0.6946 0.0
O242 O 0.69463 0.95332 0.72116 0.0
Co243 Co 0.70651 0.10913 0.79451 0.0
O244 O 0.62901 0.97007 0.80479 0.0
C245 C 0.55089 0.07115 0.72053 0.0
C246 C 0.59285 1.00001 0.56947 0.0
C247 C 0.636 0.91856 0.76406 0.0
O248 O 0.56907 0.0136 0.69476 0.0
O249 O 0.60063 0.12441 0.76404 0.0
O250 O 0.82293 0.08812 0.64363 0.0
O251 O 0.76929 0.1405 0.71319 0.0
loop_
_geom_bond_atom_site_label_1
_geom_bond_atom_site_label_2
_geom_bond_distance
_geom_bond_site_symmetry_2
_ccdc_geom_bond_type
Co0 O1 2.216 1_545 S
Co0 O2 2.091 . S
Co0 O4 2.004 . S
Co0 O10 2.021 1_545 S
Co0 O12 2.137 . S
Co0 O13 2.244 . S
O1 Co0 2.216 1_565 S
O1 C8 1.245 1_565 S
O2 Co0 2.091 . S
O2 C8 1.270 . S
C3 O12 1.247 . S
C3 O13 1.272 . S
O4 Co0 2.004 . S
O4 C9 1.259 . S
Co5 O6 2.061 . S
Co5 O11 2.052 1_545 S
Co5 O13 2.135 . S
O6 Co5 2.061 . S
O6 C9 1.235 . S
C7 O10 1.238 . S
C7 O11 1.241 . S
C8 O1 1.245 1_545 S
C8 O2 1.270 . S
C9 O4 1.259 . S
C9 O6 1.235 . S
O10 Co0 2.021 1_565 S
O10 C7 1.238 . S
O11 Co5 2.052 1_565 S
O11 C7 1.241 . S
O12 Co0 2.137 . S
O12 C3 1.247 . S
O13 Co0 2.244 . S
O13 C3 1.272 . S
O13 Co5 2.135 . S
Co14 O15 2.216 . S
Co14 O16 2.091 . S
Co14 O18 2.004 1_655 S
Co14 O24 2.021 . S
Co14 O26 2.137 1_655 S
Co14 O27 2.244 . S
O15 Co14 2.216 . S
O15 C22 1.247 . S
O16 Co14 2.091 . S
O16 C22 1.261 . S
C17 O26 1.247 1_655 S
C17 O27 1.272 . S
O18 Co14 2.004 1_455 S
O18 C23 1.259 1_554 S
Co19 O20 2.061 1_655 S
Co19 O25 2.052 . S
Co19 O27 2.135 1_556 S
O20 Co19 2.061 1_455 S
O20 C23 1.235 . S
C21 O24 1.238 1_556 S
C21 O25 1.241 . S
C22 O15 1.247 . S
C22 O16 1.261 . S
C23 O18 1.259 1_556 S
C23 O20 1.235 . S
O24 Co14 2.021 . S
O24 C21 1.238 1_554 S
O25 Co19 2.052 . S
O25 C21 1.241 . S
O26 Co14 2.137 1_455 S
O26 C17 1.247 1_455 S
O27 Co14 2.244 . S
O27 C17 1.272 . S
O27 Co19 2.135 1_554 S
Co28 O29 2.216 . S
Co28 O30 2.091 . S
Co28 O32 2.004 . S
Co28 O38 2.021 . S
Co28 O40 2.137 . S
Co28 O41 2.244 . S
O29 Co28 2.216 . S
O29 C36 1.247 . S
O30 Co28 2.091 . S
O30 C36 1.261 . S
C31 O40 1.247 . S
C31 O41 1.272 . S
O32 Co28 2.004 . S
O32 C37 1.259 . S
Co33 O34 2.061 . S
Co33 O39 2.052 . S
Co33 O41 2.135 . S
O34 Co33 2.061 . S
O34 C37 1.235 . S
C35 O38 1.238 . S
C35 O39 1.241 . S
C36 O29 1.247 . S
C36 O30 1.261 . S
C37 O32 1.259 . S
C37 O34 1.235 . S
O38 Co28 2.021 . S
O38 C35 1.238 . S
O39 Co33 2.052 . S
O39 C35 1.241 . S
O40 Co28 2.137 . S
O40 C31 1.247 . S
O41 Co28 2.244 . S
O41 C31 1.272 . S
O41 Co33 2.135 . S
Co42 O43 2.216 . S
Co42 O44 2.091 . S
Co42 O46 2.004 1_565 S
Co42 O52 2.021 . S
Co42 O54 2.130 1_565 S
Co42 O55 2.244 . S
O43 Co42 2.216 . S
O43 C50 1.247 . S
O44 Co42 2.091 . S
O44 C50 1.261 . S
C45 O54 1.246 1_565 S
C45 O55 1.272 . S
O46 Co42 2.004 1_545 S
O46 C51 1.259 . S
Co47 O48 2.061 1_565 S
Co47 O53 2.052 . S
Co47 O55 2.135 1_554 S
O48 Co47 2.061 1_545 S
O48 C51 1.235 1_554 S
C49 O52 1.238 1_554 S
C49 O53 1.241 . S
C50 O43 1.247 . S
C50 O44 1.261 . S
C51 O46 1.259 . S
C51 O48 1.235 1_556 S
O52 Co42 2.021 . S
O52 C49 1.238 1_556 S
O53 Co47 2.052 . S
O53 C49 1.241 . S
O54 Co42 2.130 1_545 S
O54 C45 1.246 1_545 S
O55 Co42 2.244 . S
O55 C45 1.272 . S
O55 Co47 2.135 1_556 S
Co56 O57 2.216 . S
Co56 O58 2.091 . S
Co56 O60 2.004 1_455 S
Co56 O66 2.021 . S
Co56 O68 2.137 1_455 S
Co56 O69 2.244 . S
O57 Co56 2.216 . S
O57 C64 1.247 . S
O58 Co56 2.091 . S
O58 C64 1.261 . S
C59 O68 1.247 1_455 S
C59 O69 1.272 . S
O60 Co56 2.004 1_655 S
O60 C65 1.259 1_556 S
Co61 O62 2.061 1_455 S
Co61 O67 2.052 . S
Co61 O69 2.135 1_554 S
O62 Co61 2.061 1_655 S
O62 C65 1.235 . S
C63 O66 1.238 1_554 S
C63 O67 1.241 . S
C64 O57 1.247 . S
C64 O58 1.261 . S
C65 O60 1.259 1_554 S
C65 O62 1.235 . S
O66 Co56 2.021 . S
O66 C63 1.238 1_556 S
O67 Co61 2.052 . S
O67 C63 1.241 . S
O68 Co56 2.137 1_655 S
O68 C59 1.247 1_655 S
O69 Co56 2.244 . S
O69 C59 1.272 . S
O69 Co61 2.135 1_556 S
Co70 O71 2.216 . S
Co70 O72 2.091 . S
Co70 O74 2.004 . S
Co70 O80 2.021 . S
Co70 O82 2.137 . S
Co70 O83 2.244 . S
O71 Co70 2.216 . S
O71 C78 1.247 . S
O72 Co70 2.091 . S
O72 C78 1.261 . S
C73 O82 1.247 . S
C73 O83 1.272 . S
O74 Co70 2.004 . S
O74 C79 1.259 . S
Co75 O76 2.061 . S
Co75 O81 2.052 . S
Co75 O83 2.135 1_554 S
O76 Co75 2.061 . S
O76 C79 1.235 1_554 S
C77 O80 1.238 1_554 S
C77 O81 1.241 . S
C78 O71 1.247 . S
C78 O72 1.261 . S
C79 O74 1.259 . S
C79 O76 1.235 1_556 S
O80 Co70 2.021 . S
O80 C77 1.238 1_556 S
O81 Co75 2.052 . S
O81 C77 1.241 . S
O82 Co70 2.137 . S
O82 C73 1.247 . S
O83 Co70 2.244 . S
O83 C73 1.272 . S
O83 Co75 2.135 1_556 S
Co84 O85 2.216 . S
Co84 O86 2.091 . S
Co84 O88 2.004 . S
Co84 O94 2.021 1_455 S
Co84 O96 2.137 . S
Co84 O97 2.244 1_455 S
O85 Co84 2.216 . S
O85 C92 1.247 . S
O86 Co84 2.091 . S
O86 C92 1.261 . S
C87 O96 1.247 . S
C87 O97 1.272 1_455 S
O88 Co84 2.004 . S
O88 C93 1.259 1_455 S
Co89 O90 2.061 . S
Co89 O95 2.052 . S
Co89 O97 2.135 . S
O90 Co89 2.061 . S
O90 C93 1.235 . S
C91 O94 1.238 . S
C91 O95 1.241 . S
C92 O85 1.247 . S
C92 O86 1.261 . S
C93 O88 1.259 1_655 S
C93 O90 1.235 . S
O94 Co84 2.021 1_655 S
O94 C91 1.238 . S
O95 Co89 2.052 . S
O95 C91 1.241 . S
O96 Co84 2.137 . S
O96 C87 1.247 . S
O97 Co84 2.244 1_655 S
O97 C87 1.272 1_655 S
O97 Co89 2.135 . S
Co98 O99 2.216 . S
Co98 O100 2.091 . S
Co98 O102 2.004 . S
Co98 O108 2.021 . S
Co98 O110 2.137 . S
Co98 O111 2.244 . S
O99 Co98 2.216 . S
O99 C106 1.247 . S
O100 Co98 2.091 . S
O100 C106 1.261 . S
C101 O110 1.247 . S
C101 O111 1.272 . S
O102 Co98 2.004 . S
O102 C107 1.259 . S
Co103 O104 2.061 . S
Co103 O109 2.052 . S
Co103 O111 2.135 . S
O104 Co103 2.061 . S
O104 C107 1.235 . S
C105 O108 1.238 . S
C105 O109 1.241 . S
C106 O99 1.247 . S
C106 O100 1.261 . S
C107 O102 1.259 . S
C107 O104 1.235 . S
O108 Co98 2.021 . S
O108 C105 1.238 . S
O109 Co103 2.052 . S
O109 C105 1.241 . S
O110 Co98 2.137 . S
O110 C101 1.247 . S
O111 Co98 2.244 . S
O111 C101 1.272 . S
O111 Co103 2.135 . S
Co112 O113 2.216 . S
Co112 O114 2.091 . S
Co112 O116 2.004 . S
Co112 O122 2.021 1_565 S
Co112 O124 2.137 . S
Co112 O125 2.244 1_565 S
O113 Co112 2.216 . S
O113 C120 1.247 . S
O114 Co112 2.091 . S
O114 C120 1.261 . S
C115 O124 1.247 . S
C115 O125 1.272 1_565 S
O116 Co112 2.004 . S
O116 C121 1.259 1_565 S
Co117 O118 2.061 . S
Co117 O123 2.052 . S
Co117 O125 2.135 . S
O118 Co117 2.061 . S
O118 C121 1.235 . S
C119 O122 1.238 . S
C119 O123 1.241 . S
C120 O113 1.247 . S
C120 O114 1.261 . S
C121 O116 1.259 1_545 S
C121 O118 1.235 . S
O122 Co112 2.021 1_545 S
O122 C119 1.238 . S
O123 Co117 2.052 . S
O123 C119 1.241 . S
O124 Co112 2.137 . S
O124 C115 1.247 . S
O125 Co112 2.244 1_545 S
O125 C115 1.272 1_545 S
O125 Co117 2.135 . S
Co126 O127 2.216 . S
Co126 O128 2.091 . S
Co126 O130 2.004 . S
Co126 O136 2.021 . S
Co126 O138 2.137 . S
Co126 O139 2.244 . S
O127 Co126 2.216 . S
O127 C134 1.247 . S
O128 Co126 2.091 . S
O128 C134 1.261 . S
C129 O138 1.247 . S
C129 O139 1.272 . S
O130 Co126 2.004 . S
O130 C135 1.259 . S
Co131 O132 2.061 . S
Co131 O137 2.052 . S
Co131 O139 2.135 . S
O132 Co131 2.061 . S
O132 C135 1.235 . S
C133 O136 1.238 . S
C133 O137 1.241 . S
C134 O127 1.247 . S
C134 O128 1.261 . S
C135 O130 1.259 . S
C135 O132 1.235 . S
O136 Co126 2.021 . S
O136 C133 1.238 . S
O137 Co131 2.052 . S
O137 C133 1.241 . S
O138 Co126 2.137 . S
O138 C129 1.247 . S
O139 Co126 2.244 . S
O139 C129 1.272 . S
O139 Co131 2.135 . S
Co140 O141 2.216 . S
Co140 O142 2.091 . S
Co140 O144 2.004 . S
Co140 O150 2.021 . S
Co140 O152 2.137 1_545 S
Co140 O153 2.244 1_545 S
O141 Co140 2.216 . S
O141 C148 1.247 . S
O142 Co140 2.091 . S
O142 C148 1.261 . S
C143 O152 1.247 . S
C143 O153 1.272 . S
O144 Co140 2.004 . S
O144 C149 1.259 . S
Co145 O146 2.061 . S
Co145 O151 2.052 . S
Co145 O153 2.135 1_545 S
O146 Co145 2.061 . S
O146 C149 1.235 . S
C147 O150 1.238 . S
C147 O151 1.241 . S
C148 O141 1.247 . S
C148 O142 1.261 . S
C149 O144 1.259 . S
C149 O146 1.235 . S
O150 Co140 2.021 . S
O150 C147 1.238 . S
O151 Co145 2.052 . S
O151 C147 1.241 . S
O152 Co140 2.137 1_565 S
O152 C143 1.247 . S
O153 Co140 2.244 1_565 S
O153 C143 1.272 . S
O153 Co145 2.135 1_565 S
Co154 O155 2.216 . S
Co154 O156 2.091 . S
Co154 O158 2.004 . S
Co154 O164 2.021 . S
Co154 O166 2.137 1_655 S
Co154 O167 2.244 1_655 S
O155 Co154 2.216 . S
O155 C162 1.247 . S
O156 Co154 2.091 . S
O156 C162 1.261 . S
C157 O166 1.247 . S
C157 O167 1.272 . S
O158 Co154 2.004 . S
O158 C163 1.259 . S
Co159 O160 2.061 . S
Co159 O165 2.052 . S
Co159 O167 2.135 1_655 S
O160 Co159 2.061 . S
O160 C163 1.235 . S
C161 O164 1.238 . S
C161 O165 1.241 . S
C162 O155 1.247 . S
C162 O156 1.261 . S
C163 O158 1.259 . S
C163 O160 1.235 . S
O164 Co154 2.021 . S
O164 C161 1.238 . S
O165 Co159 2.052 . S
O165 C161 1.241 . S
O166 Co154 2.137 1_455 S
O166 C157 1.247 . S
O167 Co154 2.244 1_455 S
O167 C157 1.272 . S
O167 Co159 2.135 1_455 S
Co168 O169 2.216 . S
Co168 O170 2.091 . S
Co168 O172 2.004 . S
Co168 O178 2.021 . S
Co168 O180 2.137 . S
Co168 O181 2.244 . S
O169 Co168 2.216 . S
O169 C176 1.247 . S
O170 Co168 2.091 . S
O170 C176 1.261 . S
C171 O180 1.247 . S
C171 O181 1.272 . S
O172 Co168 2.004 . S
O172 C177 1.259 . S
Co173 O174 2.061 . S
Co173 O179 2.052 . S
Co173 O181 2.135 . S
O174 Co173 2.061 . S
O174 C177 1.235 . S
C175 O178 1.238 . S
C175 O179 1.241 . S
C176 O169 1.247 . S
C176 O170 1.261 . S
C177 O172 1.259 . S
C177 O174 1.235 . S
O178 Co168 2.021 . S
O178 C175 1.238 . S
O179 Co173 2.052 . S
O179 C175 1.241 . S
O180 Co168 2.137 . S
O180 C171 1.247 . S
O181 Co168 2.244 . S
O181 C171 1.272 . S
O181 Co173 2.135 . S
Co182 O183 2.216 . S
Co182 O184 2.091 . S
Co182 O186 2.004 . S
Co182 O192 2.021 . S
Co182 O194 2.137 1_565 S
Co182 O195 2.244 1_565 S
O183 Co182 2.216 . S
O183 C190 1.247 . S
O184 Co182 2.091 . S
O184 C190 1.261 . S
C185 O194 1.247 . S
C185 O195 1.272 . S
O186 Co182 2.004 . S
O186 C191 1.259 . S
Co187 O188 2.061 . S
Co187 O193 2.052 . S
Co187 O195 2.135 1_565 S
O188 Co187 2.061 . S
O188 C191 1.235 . S
C189 O192 1.238 . S
C189 O193 1.241 . S
C190 O183 1.247 . S
C190 O184 1.261 . S
C191 O186 1.259 . S
C191 O188 1.235 . S
O192 Co182 2.021 . S
O192 C189 1.238 . S
O193 Co187 2.052 . S
O193 C189 1.241 . S
O194 Co182 2.137 1_545 S
O194 C185 1.247 . S
O195 Co182 2.244 1_545 S
O195 C185 1.272 . S
O195 Co187 2.135 1_545 S
Co196 O197 2.216 1_455 S
Co196 O198 2.091 1_455 S
Co196 O200 2.004 . S
Co196 O206 2.021 . S
Co196 O208 2.137 . S
Co196 O209 2.244 . S
O197 Co196 2.216 1_655 S
O197 C204 1.247 . S
O198 Co196 2.091 1_655 S
O198 C204 1.261 . S
C199 O208 1.247 . S
C199 O209 1.272 . S
O200 Co196 2.004 . S
O200 C205 1.259 . S
Co201 O202 2.061 . S
Co201 O207 2.052 . S
Co201 O209 2.135 . S
O202 Co201 2.061 . S
O202 C205 1.235 . S
C203 O206 1.238 . S
C203 O207 1.241 . S
C204 O197 1.247 . S
C204 O198 1.261 . S
C205 O200 1.259 . S
C205 O202 1.235 . S
O206 Co196 2.021 . S
O206 C203 1.238 . S
O207 Co201 2.052 . S
O207 C203 1.241 . S
O208 Co196 2.137 . S
O208 C199 1.247 . S
O209 Co196 2.244 . S
O209 C199 1.272 . S
O209 Co201 2.135 . S
Co210 O211 2.216 1_455 S
Co210 O212 2.091 . S
Co210 O214 2.004 . S
Co210 O220 2.021 . S
Co210 O222 2.137 1_455 S
Co210 O223 2.244 1_455 S
O211 Co210 2.216 1_655 S
O211 C218 1.247 . S
O212 Co210 2.091 . S
O212 C218 1.261 1_455 S
C213 O222 1.247 . S
C213 O223 1.272 . S
O214 Co210 2.004 . S
O214 C219 1.259 . S
Co215 O216 2.061 1_655 S
Co215 O221 2.052 . S
Co215 O223 2.135 . S
O216 Co215 2.061 1_455 S
O216 C219 1.235 . S
C217 O220 1.238 . S
C217 O221 1.241 1_455 S
C218 O211 1.247 . S
C218 O212 1.261 1_655 S
C219 O214 1.259 . S
C219 O216 1.235 . S
O220 Co210 2.021 . S
O220 C217 1.238 . S
O221 Co215 2.052 . S
O221 C217 1.241 1_655 S
O222 Co210 2.137 1_655 S
O222 C213 1.247 . S
O223 Co210 2.244 1_655 S
O223 C213 1.272 . S
O223 Co215 2.135 . S
Co224 O225 2.216 . S
Co224 O226 2.091 . S
Co224 O228 2.004 . S
Co224 O234 2.021 . S
Co224 O236 2.137 . S
Co224 O237 2.244 . S
O225 Co224 2.216 . S
O225 C232 1.247 . S
O226 Co224 2.091 . S
O226 C232 1.261 . S
C227 O236 1.247 . S
C227 O237 1.272 . S
O228 Co224 2.004 . S
O228 C233 1.259 . S
Co229 O230 2.061 . S
Co229 O235 2.052 . S
Co229 O237 2.135 . S
O230 Co229 2.061 . S
O230 C233 1.235 . S
C231 O234 1.238 . S
C231 O235 1.241 . S
C232 O225 1.247 . S
C232 O226 1.261 . S
C233 O228 1.259 . S
C233 O230 1.235 . S
O234 Co224 2.021 . S
O234 C231 1.238 . S
O235 Co229 2.052 . S
O235 C231 1.241 . S
O236 Co224 2.137 . S
O236 C227 1.247 . S
O237 Co224 2.244 . S
O237 C227 1.272 . S
O237 Co229 2.135 . S
Co238 O239 2.216 1_565 S
Co238 O240 2.091 . S
Co238 O242 2.004 . S
Co238 O248 2.021 . S
Co238 O250 2.137 1_565 S
Co238 O251 2.244 1_565 S
O239 Co238 2.216 1_545 S
O239 C246 1.247 . S
O240 Co238 2.091 . S
O240 C246 1.261 1_565 S
C241 O250 1.247 . S
C241 O251 1.272 . S
O242 Co238 2.004 . S
O242 C247 1.259 . S
Co243 O244 2.061 1_545 S
Co243 O249 2.052 . S
Co243 O251 2.135 . S
O244 Co243 2.061 1_565 S
O244 C247 1.235 . S
C245 O248 1.238 . S
C245 O249 1.241 1_565 S
C246 O239 1.247 . S
C246 O240 1.261 1_545 S
C247 O242 1.259 . S
C247 O244 1.235 . S
O248 Co238 2.021 . S
O248 C245 1.238 . S
O249 Co243 2.052 . S
O249 C245 1.241 1_545 S
O250 Co238 2.137 1_545 S
O250 C241 1.247 . S
O251 Co238 2.244 1_545 S
O251 C241 1.272 . S
O251 Co243 2.135 . S
C8 C45 2.494 1_544 S
C17 C59 2.396 1_654 S
C73 C36 2.384 1_556 S
C92 C129 2.505 . S
C101 C143 2.395 . S
C157 C120 2.370 . S
C213 C176 2.503 . S
C227 C185 2.395 . S
C241 C204 2.371 . S
C3 C134 2.391 . S
C22 C148 2.409 . S
C162 C31 2.290 . S
C50 C171 2.390 . S
C64 C190 2.408 . S
C78 C199 2.291 . S
C87 C218 2.435 1_455 S
C106 C232 2.418 . S
C246 C115 2.281 1_545 S
C7 C63 0.537 . S
C23 C77 0.674 1_556 S
C35 C49 0.473 . S
C51 C21 0.826 . S
C37 C65 0.802 . S
C79 C9 0.776 1_556 S
C91 C147 0.571 . S
C161 C107 0.662 . S
C133 C119 0.487 . S
C105 C135 0.818 . S
C149 C121 0.799 . S
C163 C93 0.748 . S
C231 C175 0.531 . S
C245 C191 0.681 . S
C203 C217 0.474 . S
C189 C219 0.867 . S
C205 C233 0.802 . S
C177 C247 0.799 . S
