# Generated by pormake.
# Topology vce, (5)-cn, num edge types: 1
# Building blocks:
#     Node 0, Type 0, BuildingBlock: XOMCOT_clean_sbu_1, # of connection points: 5
#     Node 1, Type 0, BuildingBlock: XOMCOT_clean_sbu_1, # of connection points: 5
#     Node 2, Type 0, BuildingBlock: XOMCOT_clean_sbu_1, # of connection points: 5
#     Node 3, Type 0, BuildingBlock: XOMCOT_clean_sbu_1, # of connection points: 5
#     Node 4, Type 0, BuildingBlock: XOMCOT_clean_sbu_1, # of connection points: 5
#     Node 5, Type 0, BuildingBlock: XOMCOT_clean_sbu_1, # of connection points: 5
#     Node 6, Type 0, BuildingBlock: XOMCOT_clean_sbu_1, # of connection points: 5
#     Node 7, Type 0, BuildingBlock: XOMCOT_clean_sbu_1, # of connection points: 5
#     Node 8, Type 0, BuildingBlock: XOMCOT_clean_sbu_1, # of connection points: 5
#     Node 9, Type 0, BuildingBlock: XOMCOT_clean_sbu_1, # of connection points: 5
#     Node 10, Type 0, BuildingBlock: XOMCOT_clean_sbu_1, # of connection points: 5
#     Node 11, Type 0, BuildingBlock: XOMCOT_clean_sbu_1, # of connection points: 5
#     Node 12, Type 0, BuildingBlock: XOMCOT_clean_sbu_1, # of connection points: 5
#     Node 13, Type 0, BuildingBlock: XOMCOT_clean_sbu_1, # of connection points: 5
#     Node 14, Type 0, BuildingBlock: XOMCOT_clean_sbu_1, # of connection points: 5
#     Node 15, Type 0, BuildingBlock: XOMCOT_clean_sbu_1, # of connection points: 5
#     Node 16, Type 0, BuildingBlock: XOMCOT_clean_sbu_1, # of connection points: 5
#     Node 17, Type 0, BuildingBlock: XOMCOT_clean_sbu_1, # of connection points: 5
#     Node 18, Type 0, BuildingBlock: XOMCOT_clean_sbu_1, # of connection points: 5
#     Node 19, Type 0, BuildingBlock: XOMCOT_clean_sbu_1, # of connection points: 5
#     Node 20, Type 0, BuildingBlock: XOMCOT_clean_sbu_1, # of connection points: 5
#     Node 21, Type 0, BuildingBlock: XOMCOT_clean_sbu_1, # of connection points: 5
#     Node 22, Type 0, BuildingBlock: XOMCOT_clean_sbu_1, # of connection points: 5
#     Node 23, Type 0, BuildingBlock: XOMCOT_clean_sbu_1, # of connection points: 5
#     Node 24, Type 0, BuildingBlock: XOMCOT_clean_sbu_1, # of connection points: 5
#     Node 25, Type 0, BuildingBlock: XOMCOT_clean_sbu_1, # of connection points: 5
#     Node 26, Type 0, BuildingBlock: XOMCOT_clean_sbu_1, # of connection points: 5
#     Node 27, Type 0, BuildingBlock: XOMCOT_clean_sbu_1, # of connection points: 5
#     Node 28, Type 0, BuildingBlock: XOMCOT_clean_sbu_1, # of connection points: 5
#     Node 29, Type 0, BuildingBlock: XOMCOT_clean_sbu_1, # of connection points: 5
#     Node 30, Type 0, BuildingBlock: XOMCOT_clean_sbu_1, # of connection points: 5
#     Node 31, Type 0, BuildingBlock: XOMCOT_clean_sbu_1, # of connection points: 5
#     Edge 32, Type (0, 0), BuildingBlock: TEMPAE_clean_linker_10, # of connection points: 2
#     Edge 33, Type (0, 0), BuildingBlock: TEMPAE_clean_linker_10, # of connection points: 2
#     Edge 34, Type (0, 0), BuildingBlock: TEMPAE_clean_linker_10, # of connection points: 2
#     Edge 35, Type (0, 0), BuildingBlock: TEMPAE_clean_linker_10, # of connection points: 2
#     Edge 36, Type (0, 0), BuildingBlock: TEMPAE_clean_linker_10, # of connection points: 2
#     Edge 37, Type (0, 0), BuildingBlock: TEMPAE_clean_linker_10, # of connection points: 2
#     Edge 38, Type (0, 0), BuildingBlock: TEMPAE_clean_linker_10, # of connection points: 2
#     Edge 39, Type (0, 0), BuildingBlock: TEMPAE_clean_linker_10, # of connection points: 2
#     Edge 40, Type (0, 0), BuildingBlock: TEMPAE_clean_linker_10, # of connection points: 2
#     Edge 41, Type (0, 0), BuildingBlock: TEMPAE_clean_linker_10, # of connection points: 2
#     Edge 42, Type (0, 0), BuildingBlock: TEMPAE_clean_linker_10, # of connection points: 2
#     Edge 43, Type (0, 0), BuildingBlock: TEMPAE_clean_linker_10, # of connection points: 2
#     Edge 44, Type (0, 0), BuildingBlock: TEMPAE_clean_linker_10, # of connection points: 2
#     Edge 45, Type (0, 0), BuildingBlock: TEMPAE_clean_linker_10, # of connection points: 2
#     Edge 46, Type (0, 0), BuildingBlock: TEMPAE_clean_linker_10, # of connection points: 2
#     Edge 47, Type (0, 0), BuildingBlock: TEMPAE_clean_linker_10, # of connection points: 2
#     Edge 48, Type (0, 0), BuildingBlock: TEMPAE_clean_linker_10, # of connection points: 2
#     Edge 49, Type (0, 0), BuildingBlock: TEMPAE_clean_linker_10, # of connection points: 2
#     Edge 50, Type (0, 0), BuildingBlock: TEMPAE_clean_linker_10, # of connection points: 2
#     Edge 51, Type (0, 0), BuildingBlock: TEMPAE_clean_linker_10, # of connection points: 2
#     Edge 52, Type (0, 0), BuildingBlock: TEMPAE_clean_linker_10, # of connection points: 2
#     Edge 53, Type (0, 0), BuildingBlock: TEMPAE_clean_linker_10, # of connection points: 2
#     Edge 54, Type (0, 0), BuildingBlock: TEMPAE_clean_linker_10, # of connection points: 2
#     Edge 55, Type (0, 0), BuildingBlock: TEMPAE_clean_linker_10, # of connection points: 2
#     Edge 56, Type (0, 0), BuildingBlock: TEMPAE_clean_linker_10, # of connection points: 2
#     Edge 57, Type (0, 0), BuildingBlock: TEMPAE_clean_linker_10, # of connection points: 2
#     Edge 58, Type (0, 0), BuildingBlock: TEMPAE_clean_linker_10, # of connection points: 2
#     Edge 59, Type (0, 0), BuildingBlock: TEMPAE_clean_linker_10, # of connection points: 2
#     Edge 60, Type (0, 0), BuildingBlock: TEMPAE_clean_linker_10, # of connection points: 2
#     Edge 61, Type (0, 0), BuildingBlock: TEMPAE_clean_linker_10, # of connection points: 2
#     Edge 62, Type (0, 0), BuildingBlock: TEMPAE_clean_linker_10, # of connection points: 2
#     Edge 63, Type (0, 0), BuildingBlock: TEMPAE_clean_linker_10, # of connection points: 2
#     Edge 64, Type (0, 0), BuildingBlock: TEMPAE_clean_linker_10, # of connection points: 2
#     Edge 65, Type (0, 0), BuildingBlock: TEMPAE_clean_linker_10, # of connection points: 2
#     Edge 66, Type (0, 0), BuildingBlock: TEMPAE_clean_linker_10, # of connection points: 2
#     Edge 67, Type (0, 0), BuildingBlock: TEMPAE_clean_linker_10, # of connection points: 2
#     Edge 68, Type (0, 0), BuildingBlock: TEMPAE_clean_linker_10, # of connection points: 2
#     Edge 69, Type (0, 0), BuildingBlock: TEMPAE_clean_linker_10, # of connection points: 2
#     Edge 70, Type (0, 0), BuildingBlock: TEMPAE_clean_linker_10, # of connection points: 2
#     Edge 71, Type (0, 0), BuildingBlock: TEMPAE_clean_linker_10, # of connection points: 2
#     Edge 72, Type (0, 0), BuildingBlock: TEMPAE_clean_linker_10, # of connection points: 2
#     Edge 73, Type (0, 0), BuildingBlock: TEMPAE_clean_linker_10, # of connection points: 2
#     Edge 74, Type (0, 0), BuildingBlock: TEMPAE_clean_linker_10, # of connection points: 2
#     Edge 75, Type (0, 0), BuildingBlock: TEMPAE_clean_linker_10, # of connection points: 2
#     Edge 76, Type (0, 0), BuildingBlock: TEMPAE_clean_linker_10, # of connection points: 2
#     Edge 77, Type (0, 0), BuildingBlock: TEMPAE_clean_linker_10, # of connection points: 2
#     Edge 78, Type (0, 0), BuildingBlock: TEMPAE_clean_linker_10, # of connection points: 2
#     Edge 79, Type (0, 0), BuildingBlock: TEMPAE_clean_linker_10, # of connection points: 2
#     Edge 80, Type (0, 0), BuildingBlock: TEMPAE_clean_linker_10, # of connection points: 2
#     Edge 81, Type (0, 0), BuildingBlock: TEMPAE_clean_linker_10, # of connection points: 2
#     Edge 82, Type (0, 0), BuildingBlock: TEMPAE_clean_linker_10, # of connection points: 2
#     Edge 83, Type (0, 0), BuildingBlock: TEMPAE_clean_linker_10, # of connection points: 2
#     Edge 84, Type (0, 0), BuildingBlock: TEMPAE_clean_linker_10, # of connection points: 2
#     Edge 85, Type (0, 0), BuildingBlock: TEMPAE_clean_linker_10, # of connection points: 2
#     Edge 86, Type (0, 0), BuildingBlock: TEMPAE_clean_linker_10, # of connection points: 2
#     Edge 87, Type (0, 0), BuildingBlock: TEMPAE_clean_linker_10, # of connection points: 2
#     Edge 88, Type (0, 0), BuildingBlock: TEMPAE_clean_linker_10, # of connection points: 2
#     Edge 89, Type (0, 0), BuildingBlock: TEMPAE_clean_linker_10, # of connection points: 2
#     Edge 90, Type (0, 0), BuildingBlock: TEMPAE_clean_linker_10, # of connection points: 2
#     Edge 91, Type (0, 0), BuildingBlock: TEMPAE_clean_linker_10, # of connection points: 2
#     Edge 92, Type (0, 0), BuildingBlock: TEMPAE_clean_linker_10, # of connection points: 2
#     Edge 93, Type (0, 0), BuildingBlock: TEMPAE_clean_linker_10, # of connection points: 2
#     Edge 94, Type (0, 0), BuildingBlock: TEMPAE_clean_linker_10, # of connection points: 2
#     Edge 95, Type (0, 0), BuildingBlock: TEMPAE_clean_linker_10, # of connection points: 2
#     Edge 96, Type (0, 0), BuildingBlock: TEMPAE_clean_linker_10, # of connection points: 2
#     Edge 97, Type (0, 0), BuildingBlock: TEMPAE_clean_linker_10, # of connection points: 2
#     Edge 98, Type (0, 0), BuildingBlock: TEMPAE_clean_linker_10, # of connection points: 2
#     Edge 99, Type (0, 0), BuildingBlock: TEMPAE_clean_linker_10, # of connection points: 2
#     Edge 100, Type (0, 0), BuildingBlock: TEMPAE_clean_linker_10, # of connection points: 2
#     Edge 101, Type (0, 0), BuildingBlock: TEMPAE_clean_linker_10, # of connection points: 2
#     Edge 102, Type (0, 0), BuildingBlock: TEMPAE_clean_linker_10, # of connection points: 2
#     Edge 103, Type (0, 0), BuildingBlock: TEMPAE_clean_linker_10, # of connection points: 2
#     Edge 104, Type (0, 0), BuildingBlock: TEMPAE_clean_linker_10, # of connection points: 2
#     Edge 105, Type (0, 0), BuildingBlock: TEMPAE_clean_linker_10, # of connection points: 2
#     Edge 106, Type (0, 0), BuildingBlock: TEMPAE_clean_linker_10, # of connection points: 2
#     Edge 107, Type (0, 0), BuildingBlock: TEMPAE_clean_linker_10, # of connection points: 2
#     Edge 108, Type (0, 0), BuildingBlock: TEMPAE_clean_linker_10, # of connection points: 2
#     Edge 109, Type (0, 0), BuildingBlock: TEMPAE_clean_linker_10, # of connection points: 2
#     Edge 110, Type (0, 0), BuildingBlock: TEMPAE_clean_linker_10, # of connection points: 2
#     Edge 111, Type (0, 0), BuildingBlock: TEMPAE_clean_linker_10, # of connection points: 2
# Relax obj value: 0.149
# Max RMSD: 0.171
# Mean RMSD: 0.171
data_MOF--net-vce--node1-XOMCOT_clean_sbu_1--edge1-TEMPAE_clean_linker_10
_symmetry_space_group_name_H-M    P1
_symmetry_Int_Tables_number       1
_symmetry_cell_setting            triclinic
loop_
_symmetry_equiv_pos_as_xyz
'x, y, z'
_cell_length_a     48.456583
_cell_length_b     129.59769
_cell_length_c     27.072314
_cell_angle_alpha  89.891063
_cell_angle_beta   89.98748
_cell_angle_gamma 89.984429
loop_
_atom_site_label
_atom_site_type_symbol
_atom_site_fract_x
_atom_site_fract_y
_atom_site_fract_z
_atom_type_partial_charge
C0 C 0.01886 0.23498 0.40487 0.0
C1 C 0.00833 0.24463 0.39414 0.0
N2 N 0.01882 0.24788 0.35061 0.0
N3 N 0.03593 0.23198 0.36829 0.0
C4 C 0.03596 0.24014 0.33637 0.0
H5 H 0.0131 0.23019 0.43595 0.0
Co6 Co 0.05062 0.21829 0.36053 0.0
C7 C 0.05208 0.22156 0.24934 0.0
O8 O 0.02741 0.21769 0.24247 0.0
N9 N 0.06628 0.20461 0.35088 0.0
C10 C 0.0776 0.19006 0.3115 0.0
C11 C 0.06481 0.19946 0.30755 0.0
C12 C 0.07979 0.19785 0.38127 0.0
N13 N 0.08705 0.18897 0.3578 0.0
O14 O 0.08505 0.22293 0.3875 0.0
H15 H 0.05433 0.20211 0.27492 0.0
H16 H 0.08414 0.19935 0.41972 0.0
O17 O 0.0626 0.22187 0.29273 0.0
C18 C 0.0819 0.22154 0.43396 0.0
O19 O 0.0587 0.21747 0.44984 0.0
N20 N 0.01476 0.21339 0.34318 0.0
C21 C 0.95928 0.20785 0.35553 0.0
C22 C 0.96649 0.21659 0.32784 0.0
C23 C 0.99428 0.21929 0.32259 0.0
C24 C 0.00773 0.20466 0.36881 0.0
C25 C 0.98039 0.20163 0.37423 0.0
H26 H -0.00105 0.22653 0.30478 0.0
H27 H 0.0229 0.20041 0.3896 0.0
H28 H 0.04673 0.24014 0.30143 0.0
H29 H 0.99336 0.24878 0.41614 0.0
H30 H 0.07922 0.18431 0.28268 0.0
H31 H 0.9508 0.22174 0.31349 0.0
H32 H 0.9758 0.19481 0.39588 0.0
C33 C 0.19906 0.06782 0.42389 0.0
C34 C 0.20555 0.05845 0.40295 0.0
N35 N 0.21555 0.0601 0.35722 0.0
N36 N 0.2046 0.07552 0.39167 0.0
C37 C 0.21467 0.0705 0.3512 0.0
H38 H 0.19115 0.06886 0.46083 0.0
Co39 Co 0.20011 0.0901 0.40305 0.0
C40 C 0.16428 0.09627 0.31414 0.0
O41 O 0.16615 0.10631 0.31938 0.0
N42 N 0.19587 0.10469 0.41522 0.0
C43 C 0.20882 0.12071 0.43428 0.0
C44 C 0.21744 0.11071 0.42793 0.0
C45 C 0.1739 0.11127 0.41684 0.0
N46 N 0.18133 0.12118 0.42699 0.0
O47 O 0.16994 0.08745 0.44823 0.0
H48 H 0.23846 0.10803 0.43178 0.0
H49 H 0.15286 0.10884 0.41024 0.0
O50 O 0.17619 0.09019 0.34467 0.0
C51 C 0.18069 0.08825 0.49131 0.0
O52 O 0.20725 0.09023 0.49411 0.0
N53 N 0.23164 0.09274 0.36516 0.0
C54 C 0.28378 0.09975 0.33937 0.0
C55 C 0.26042 0.10364 0.31526 0.0
C56 C 0.2343 0.09989 0.32827 0.0
C57 C 0.25441 0.0886 0.38712 0.0
C58 C 0.2807 0.09185 0.37406 0.0
H59 H 0.21644 0.10348 0.31219 0.0
H60 H 0.25209 0.08331 0.41778 0.0
H61 H 0.22137 0.07442 0.31795 0.0
H62 H 0.20378 0.05099 0.42072 0.0
H63 H 0.22217 0.12719 0.44215 0.0
H64 H 0.26225 0.10988 0.28877 0.0
H65 H 0.29836 0.08883 0.39399 0.0
C66 C 0.01897 0.0683 0.85605 0.0
C67 C 0.00826 0.05858 0.86418 0.0
N68 N 0.02206 0.05411 0.90184 0.0
N69 N 0.03939 0.07016 0.88869 0.0
C70 C 0.04145 0.06118 0.91482 0.0
H71 H 0.01093 0.07394 0.83031 0.0
Co72 Co 0.05552 0.0836 0.89894 0.0
C73 C 0.06546 0.07595 0.00411 0.0
O74 O 0.03947 0.07381 0.01205 0.0
N75 N 0.07304 0.09681 0.91022 0.0
C76 C 0.08687 0.11061 0.95274 0.0
C77 C 0.07635 0.10083 0.95594 0.0
C78 C 0.0822 0.10447 0.87962 0.0
N79 N 0.09035 0.11301 0.90482 0.0
O80 O 0.08677 0.07956 0.85916 0.0
H81 H 0.06996 0.09717 0.98992 0.0
H82 H 0.08126 0.10408 0.83975 0.0
O83 O 0.07332 0.07908 0.96143 0.0
C84 C 0.07852 0.08265 0.81658 0.0
O85 O 0.05366 0.08667 0.81344 0.0
N86 N 0.02146 0.08848 0.92931 0.0
C87 C 0.96599 0.09476 0.92606 0.0
C88 C 0.97314 0.08503 0.94445 0.0
C89 C 0.00087 0.08204 0.94572 0.0
C90 C 0.01435 0.09838 0.91609 0.0
C91 C 0.9871 0.10171 0.91558 0.0
H92 H 0.00457 0.07405 0.95362 0.0
H93 H 0.02872 0.1036 0.89931 0.0
H94 H 0.0556 0.06004 0.9451 0.0
H95 H 0.99082 0.05526 0.845 0.0
H96 H 0.09081 0.11572 0.98353 0.0
H97 H 0.95741 0.07933 0.95248 0.0
H98 H 0.98248 0.10936 0.90163 0.0
C99 C 0.2325 0.22739 0.83661 0.0
C100 C 0.24484 0.2361 0.85527 0.0
N101 N 0.22816 0.24027 0.88978 0.0
N102 N 0.20788 0.22594 0.85868 0.0
C103 C 0.20584 0.23391 0.89122 0.0
H104 H 0.24146 0.22221 0.8098 0.0
Co105 Co 0.18578 0.21407 0.84641 0.0
C106 C 0.15217 0.21137 0.93489 0.0
O107 O 0.15796 0.20149 0.93181 0.0
N108 N 0.16311 0.20204 0.8332 0.0
C109 C 0.12451 0.19327 0.8165 0.0
C110 C 0.13613 0.20288 0.82105 0.0
C111 C 0.16711 0.19162 0.83594 0.0
N112 N 0.14391 0.18611 0.82598 0.0
O113 O 0.16367 0.22188 0.80031 0.0
H114 H 0.125 0.21007 0.81773 0.0
H115 H 0.18628 0.18803 0.84659 0.0
O116 O 0.1619 0.21762 0.90262 0.0
C117 C 0.1755 0.22148 0.75815 0.0
O118 O 0.19925 0.21663 0.75494 0.0
N119 N 0.20998 0.20655 0.88578 0.0
C120 C 0.26041 0.19969 0.92204 0.0
C121 C 0.24267 0.2055 0.95213 0.0
C122 C 0.21747 0.20895 0.93307 0.0
C123 C 0.22671 0.20068 0.85689 0.0
C124 C 0.25158 0.19692 0.87468 0.0
H125 H 0.20561 0.21439 0.9545 0.0
H126 H 0.22171 0.19962 0.81828 0.0
H127 H 0.18858 0.23495 0.91601 0.0
H128 H 0.26515 0.2389 0.84542 0.0
H129 H 0.10295 0.19173 0.80914 0.0
H130 H 0.24921 0.20804 0.98837 0.0
H131 H 0.26509 0.19283 0.84952 0.0
C132 C 0.9073 0.81831 0.64676 0.0
C133 C 0.91237 0.8087 0.66638 0.0
N134 N 0.93986 0.80741 0.67106 0.0
N135 N 0.93136 0.82325 0.63854 0.0
C136 C 0.9509 0.81636 0.65378 0.0
H137 H 0.88714 0.82164 0.64038 0.0
Co138 Co 0.93344 0.83728 0.61623 0.0
C139 C 0.90995 0.8488 0.70111 0.0
O140 O 0.92835 0.85613 0.69457 0.0
N141 N 0.93475 0.85142 0.59382 0.0
C142 C 0.9488 0.8665 0.56283 0.0
C143 C 0.95621 0.85649 0.57311 0.0
C144 C 0.91409 0.85858 0.59364 0.0
N145 N 0.92226 0.86792 0.57597 0.0
O146 O 0.90297 0.83513 0.57176 0.0
H147 H 0.97624 0.85326 0.56544 0.0
H148 H 0.89345 0.85696 0.60679 0.0
O149 O 0.90942 0.84109 0.67163 0.0
C150 C 0.91445 0.8313 0.53334 0.0
O151 O 0.9409 0.82914 0.53572 0.0
N152 N 0.96567 0.83892 0.65315 0.0
C153 C 0.01975 0.83967 0.68633 0.0
C154 C -0.00207 0.84053 0.72004 0.0
C155 C 0.97071 0.83978 0.70272 0.0
C156 C 0.9869 0.8375 0.62101 0.0
C157 C 0.01401 0.83796 0.63657 0.0
H158 H 0.95415 0.83965 0.72926 0.0
H159 H 0.98265 0.83596 0.58259 0.0
H160 H 0.97281 0.81791 0.653 0.0
H161 H 0.89677 0.80325 0.67817 0.0
H162 H 0.96235 0.87234 0.54773 0.0
H163 H 0.0019 0.84151 0.75912 0.0
H164 H 0.03043 0.8371 0.60968 0.0
C165 C 0.83059 0.98718 0.62329 0.0
C166 C 0.82364 0.99681 0.64079 0.0
N167 N 0.7959 0.99749 0.6444 0.0
N168 N 0.80752 0.98161 0.61565 0.0
C169 C 0.78668 0.98815 0.62848 0.0
H170 H 0.85133 0.98428 0.61827 0.0
Co171 Co 0.80724 0.96733 0.59809 0.0
C172 C 0.83649 0.95748 0.68205 0.0
O173 O 0.8184 0.94992 0.68128 0.0
N174 N 0.80739 0.95289 0.57974 0.0
C175 C 0.79438 0.93744 0.55168 0.0
C176 C 0.78639 0.94747 0.55963 0.0
C177 C 0.82849 0.94591 0.58107 0.0
N178 N 0.8209 0.93635 0.5655 0.0
O179 O 0.83498 0.96961 0.54836 0.0
H180 H 0.76633 0.95047 0.55037 0.0
H181 H 0.84909 0.9478 0.59349 0.0
O182 O 0.83474 0.96478 0.65025 0.0
C183 C 0.82202 0.97243 0.50945 0.0
O184 O 0.79536 0.97412 0.51324 0.0
N185 N 0.77767 0.96541 0.64146 0.0
C186 C 0.72699 0.96385 0.68818 0.0
C187 C 0.75097 0.96506 0.71632 0.0
C188 C 0.77637 0.96608 0.69191 0.0
C189 C 0.75409 0.96514 0.61432 0.0
C190 C 0.72862 0.96411 0.63677 0.0
H191 H 0.7945 0.96775 0.71353 0.0
H192 H 0.75508 0.96609 0.57472 0.0
H193 H 0.76515 0.98601 0.62727 0.0
H194 H 0.83822 1.00267 0.65205 0.0
H195 H 0.78126 0.93137 0.53755 0.0
H196 H 0.75 0.9654 0.75625 0.0
H197 H 0.71019 0.96371 0.61413 0.0
C198 C 0.96234 0.97858 0.15414 0.0
C199 C 0.97018 0.98848 0.14167 0.0
N200 N 0.96527 0.99001 0.09317 0.0
N201 N 0.95223 0.97375 0.11397 0.0
C202 C 0.9541 0.98098 0.07745 0.0
H203 H 0.96494 0.97499 0.18993 0.0
Co204 Co 0.94223 0.95942 0.1112 0.0
C205 C 0.94402 0.95837 0.99979 0.0
O206 O 0.96793 0.95364 0.99958 0.0
N207 N 0.93167 0.9449 0.10645 0.0
C208 C 0.93387 0.92829 0.08417 0.0
C209 C 0.94509 0.9379 0.07808 0.0
C210 C 0.91158 0.93914 0.12879 0.0
N211 N 0.91278 0.92902 0.11596 0.0
O212 O 0.9056 0.96301 0.13187 0.0
H213 H 0.96304 0.93945 0.05587 0.0
H214 H 0.89681 0.94219 0.15488 0.0
O215 O 0.93271 0.96094 0.04075 0.0
C216 C 0.9081 0.96227 0.17887 0.0
O217 O 0.93141 0.95875 0.1971 0.0
N218 N 0.97972 0.95608 0.10184 0.0
C219 C 0.03561 0.95418 0.12567 0.0
C220 C 0.02698 0.96086 0.08768 0.0
C221 C -0.00113 0.96174 0.07644 0.0
C222 C 0.9881 0.94942 0.13801 0.0
C223 C 0.01578 0.94805 0.14904 0.0
H224 H 0.99252 0.96749 0.04989 0.0
H225 H 0.97312 0.94559 0.16123 0.0
H226 H 0.94832 0.97956 0.03951 0.0
H227 H 0.98 0.99397 0.16611 0.0
H228 H 0.94093 0.92123 0.06698 0.0
H229 H 0.04146 0.96593 0.06921 0.0
H230 H 0.02134 0.94268 0.17808 0.0
C231 C 0.82571 0.81323 0.08259 0.0
C232 C 0.82065 0.80355 0.06396 0.0
N233 N 0.79324 0.80181 0.06476 0.0
N234 N 0.80173 0.81774 0.09579 0.0
C235 C 0.7822 0.81056 0.08418 0.0
H236 H 0.84575 0.81685 0.08529 0.0
Co237 Co 0.79982 0.83155 0.12087 0.0
C238 C 0.81479 0.84405 0.03248 0.0
O239 O 0.79583 0.85089 0.04403 0.0
N240 N 0.79894 0.84543 0.14579 0.0
C241 C 0.78803 0.86001 0.18516 0.0
C242 C 0.78014 0.84999 0.17551 0.0
C243 C 0.81864 0.85282 0.1398 0.0
N244 N 0.81216 0.86185 0.16218 0.0
O245 O 0.83368 0.82976 0.15654 0.0
H246 H 0.7618 0.84636 0.18995 0.0
H247 H 0.83748 0.85162 0.11914 0.0
O248 O 0.81865 0.8362 0.0604 0.0
C249 C 0.82658 0.82515 0.19639 0.0
O250 O 0.80138 0.82145 0.1993 0.0
N251 N 0.7647 0.83292 0.09352 0.0
C252 C 0.70847 0.83511 0.07786 0.0
C253 C 0.72695 0.83599 0.03816 0.0
C254 C 0.75522 0.83447 0.04653 0.0
C255 C 0.74664 0.83115 0.13107 0.0
C256 C 0.71851 0.8323 0.12428 0.0
H257 H 0.76912 0.8346 0.01544 0.0
H258 H 0.75436 0.82912 0.16723 0.0
H259 H 0.7603 0.81172 0.08951 0.0
H260 H 0.83603 0.79832 0.04935 0.0
H261 H 0.77653 0.86558 0.20665 0.0
H262 H 0.7196 0.8378 1.00137 0.0
H263 H 0.70483 0.8314 0.15566 0.0
C264 C 0.00602 0.73283 0.91548 0.0
C265 C 0.99439 0.74188 0.8989 0.0
N266 N 0.00994 0.7457 0.86176 0.0
N267 N 0.02899 0.73078 0.88922 0.0
C268 C 0.03084 0.73877 0.85663 0.0
H269 H -0.00217 0.7279 0.94425 0.0
Co270 Co 0.05118 0.71871 0.89775 0.0
C271 C 0.06699 0.71345 0.79692 0.0
O272 O 0.05764 0.70413 0.80619 0.0
N273 N 0.0748 0.70661 0.90535 0.0
C274 C 0.11512 0.69817 0.90451 0.0
C275 C 0.10252 0.70762 0.90151 0.0
C276 C 0.07136 0.69617 0.91034 0.0
N277 N 0.0956 0.6909 0.90992 0.0
O278 O 0.07969 0.72705 0.92679 0.0
H279 H 0.11324 0.7148 0.89491 0.0
H280 H 0.05163 0.69232 0.91155 0.0
O281 O 0.06577 0.72038 0.83044 0.0
C282 C 0.07216 0.72818 0.97174 0.0
O283 O 0.04839 0.72428 0.98565 0.0
N284 N 0.02101 0.71077 0.87807 0.0
C285 C 0.96617 0.70415 0.88137 0.0
C286 C 0.97636 0.70955 0.83996 0.0
C287 C 0.004 0.7128 0.83898 0.0
C288 C 0.01151 0.70533 0.91759 0.0
C289 C 0.98481 0.7015 0.91885 0.0
H290 H 0.01077 0.71786 0.80959 0.0
H291 H 0.0241 0.70463 0.95039 0.0
H292 H 0.04718 0.73948 0.82959 0.0
H293 H 0.97536 0.74522 0.91242 0.0
H294 H 0.1371 0.69676 0.90209 0.0
H295 H 0.96272 0.71199 0.81051 0.0
H296 H 0.97837 0.69718 0.95109 0.0
C297 C 0.22254 0.5723 0.93483 0.0
C298 C 0.23366 0.56277 0.92404 0.0
N299 N 0.21882 0.5584 0.88745 0.0
N300 N 0.20052 0.57406 0.9056 0.0
C301 C 0.19863 0.56537 0.87755 0.0
H302 H 0.2313 0.57792 0.95979 0.0
Co303 Co 0.18326 0.58717 0.89651 0.0
C304 C 0.13468 0.58174 0.83858 0.0
O305 O 0.11923 0.586 0.87283 0.0
N306 N 0.16607 0.60034 0.88491 0.0
C307 C 0.14963 0.61319 0.83854 0.0
C308 C 0.16203 0.60372 0.83818 0.0
C309 C 0.15621 0.60821 0.91337 0.0
N310 N 0.14578 0.61609 0.88569 0.0
O311 O 0.1569 0.58387 0.94774 0.0
H312 H 0.16795 0.59954 0.80529 0.0
H313 H 0.15653 0.60815 0.95333 0.0
O314 O 0.16076 0.58139 0.84427 0.0
C315 C 0.16844 0.58653 0.98827 0.0
O316 O 0.19241 0.59124 0.98563 0.0
N317 N 0.21123 0.59066 0.85274 0.0
C318 C 0.2652 0.59285 0.82086 0.0
C319 C 0.24763 0.58567 0.79806 0.0
C320 C 0.22026 0.5848 0.81412 0.0
C321 C 0.2273 0.59826 0.87203 0.0
C322 C 0.25427 0.59961 0.85601 0.0
H323 H 0.20741 0.57876 0.79914 0.0
H324 H 0.22007 0.60262 0.90349 0.0
H325 H 0.18375 0.56441 0.84821 0.0
H326 H 0.25249 0.55967 0.9396 0.0
H327 H 0.14443 0.61773 0.80626 0.0
H328 H 0.25552 0.58032 0.77082 0.0
H329 H 0.26729 0.60513 0.87491 0.0
C330 C 0.02081 0.56678 0.34463 0.0
C331 C 0.01334 0.55665 0.35353 0.0
N332 N 0.02389 0.5537 0.39745 0.0
N333 N 0.03609 0.57031 0.38265 0.0
C334 C 0.03809 0.56204 0.41359 0.0
H335 H 0.01398 0.57148 0.31391 0.0
Co336 Co 0.04638 0.58438 0.39442 0.0
C337 C 0.04937 0.57955 0.50426 0.0
O338 O 0.02316 0.58136 0.51215 0.0
N339 N 0.05764 0.59843 0.40914 0.0
C340 C 0.06068 0.61287 0.45357 0.0
C341 C 0.05135 0.60292 0.45274 0.0
C342 C 0.07112 0.60605 0.3839 0.0
N343 N 0.07299 0.61498 0.41019 0.0
O344 O 0.08179 0.58171 0.36509 0.0
H345 H 0.03966 0.59935 0.48198 0.0
H346 H 0.07861 0.60523 0.34654 0.0
O347 O 0.05983 0.58062 0.4611 0.0
C348 C 0.07694 0.58423 0.3201 0.0
O349 O 0.05234 0.5878 0.30883 0.0
N350 N 0.00913 0.58745 0.41249 0.0
C351 C 0.95269 0.59071 0.39614 0.0
C352 C 0.96173 0.58215 0.42342 0.0
C353 C 0.99009 0.58057 0.4305 0.0
C354 C 6e-05 0.59599 0.38744 0.0
C355 C 0.97218 0.59787 0.38003 0.0
H356 H -0.00354 0.57336 0.44683 0.0
H357 H 0.01427 0.60096 0.36814 0.0
H358 H 0.04866 0.56221 0.44865 0.0
H359 H -0.0003 0.55204 0.33085 0.0
H360 H 0.05831 0.61819 0.48404 0.0
H361 H 0.94725 0.57632 0.43569 0.0
H362 H 0.96606 0.60456 0.35856 0.0
C363 C 0.22406 0.73074 0.34993 0.0
C364 C 0.23522 0.73987 0.36671 0.0
N365 N 0.22093 0.74297 0.40671 0.0
N366 N 0.20251 0.72804 0.37875 0.0
C367 C 0.20122 0.73565 0.41329 0.0
H368 H 0.23144 0.72628 0.31891 0.0
Co369 Co 0.18054 0.71594 0.36975 0.0
C370 C 0.16444 0.71108 0.47151 0.0
O371 O 0.17495 0.70184 0.46512 0.0
N372 N 0.15713 0.70371 0.36122 0.0
C373 C 0.11871 0.69471 0.3449 0.0
C374 C 0.13011 0.70436 0.34878 0.0
C375 C 0.16103 0.69329 0.36653 0.0
N376 N 0.13811 0.68768 0.35585 0.0
O377 O 0.15252 0.72441 0.33981 0.0
H378 H 0.11858 0.7114 0.34398 0.0
H379 H 0.18011 0.68978 0.37853 0.0
O380 O 0.16519 0.71764 0.43619 0.0
C381 C 0.16023 0.72513 0.29471 0.0
O382 O 0.18314 0.72051 0.28127 0.0
N383 N 0.21058 0.70798 0.39025 0.0
C384 C 0.26596 0.70219 0.38412 0.0
C385 C 0.25611 0.70775 0.42523 0.0
C386 C 0.22812 0.71051 0.42784 0.0
C387 C 0.21965 0.70215 0.35173 0.0
C388 C 0.2467 0.69871 0.34939 0.0
H389 H 0.22145 0.71571 0.45665 0.0
H390 H 0.20647 0.70089 0.32011 0.0
H391 H 0.18602 0.73589 0.44254 0.0
H392 H 0.25291 0.74381 0.35119 0.0
H393 H 0.09738 0.69302 0.33617 0.0
H394 H 0.27011 0.71075 0.4528 0.0
H395 H 0.25285 0.69413 0.31785 0.0
C396 C 0.95207 0.32019 0.08241 0.0
C397 C 0.95856 0.31026 0.09706 0.0
N398 N 0.95774 0.30975 0.14681 0.0
N399 N 0.94685 0.32603 0.12248 0.0
C400 C 0.95029 0.3194 0.16116 0.0
H401 H 0.95243 0.32308 0.04492 0.0
Co402 Co 0.94177 0.34068 0.12204 0.0
C403 C 0.94143 0.34429 0.23077 0.0
O404 O 0.96282 0.35046 0.22776 0.0
N405 N 0.93659 0.35576 0.12301 0.0
C406 C 0.94619 0.37255 0.13266 0.0
C407 C 0.95576 0.36269 0.13823 0.0
C408 C 0.91493 0.36192 0.10929 0.0
N409 N 0.92052 0.37217 0.1143 0.0
O410 O 0.90429 0.3387 0.10131 0.0
H411 H 0.97597 0.36086 0.15253 0.0
H412 H 0.89559 0.35903 0.09499 0.0
O413 O 0.93163 0.34012 0.19179 0.0
C414 C 0.90605 0.33968 0.05435 0.0
O415 O 0.92964 0.34263 0.03514 0.0
N416 N 0.97966 0.34203 0.13221 0.0
C417 C 0.03482 0.3388 0.10848 0.0
C418 C 0.02418 0.33528 0.15383 0.0
C419 C -0.00374 0.33694 0.16501 0.0
C420 C 0.9903 0.34591 0.08943 0.0
C421 C 0.01783 0.34462 0.07748 0.0
H422 H 0.98769 0.33338 0.19765 0.0
H423 H 0.97688 0.3495 0.06261 0.0
H424 H 0.94841 0.32167 0.19942 0.0
H425 H 0.96482 0.30405 0.07287 0.0
H426 H 0.95733 0.37954 0.14178 0.0
H427 H 0.03671 0.33068 0.17862 0.0
H428 H 0.02532 0.34765 0.04265 0.0
C429 C 0.82982 0.49023 0.146 0.0
C430 C 0.82322 0.49978 0.16457 0.0
N431 N 0.79556 0.50057 0.16777 0.0
N432 N 0.80656 0.48485 0.13681 0.0
C433 C 0.78591 0.49139 0.15076 0.0
H434 H 0.8505 0.48729 0.14061 0.0
Co435 Co 0.80677 0.47089 0.11338 0.0
C436 C 0.8288 0.45969 0.20093 0.0
O437 O 0.81084 0.45222 0.19415 0.0
N438 N 0.80776 0.4568 0.08984 0.0
C439 C 0.79667 0.44201 0.05237 0.0
C440 C 0.78886 0.45207 0.061 0.0
C441 C 0.82762 0.44944 0.09599 0.0
N442 N 0.82098 0.44027 0.0749 0.0
O443 O 0.83823 0.47366 0.07244 0.0
H444 H 0.7704 0.4556 0.04653 0.0
H445 H 0.84667 0.45075 0.11582 0.0
O446 O 0.82958 0.4673 0.17076 0.0
C447 C 0.82894 0.47836 0.03432 0.0
O448 O 0.8028 0.48106 0.03383 0.0
N449 N 0.77368 0.46856 0.14667 0.0
C450 C 0.71913 0.4653 0.17307 0.0
C451 C 0.73978 0.46526 0.20932 0.0
C452 C 0.76711 0.46732 0.19547 0.0
C453 C 0.75338 0.46949 0.11228 0.0
C454 C 0.72604 0.46777 0.12443 0.0
H455 H 0.78255 0.46798 0.22393 0.0
H456 H 0.75863 0.47152 0.07472 0.0
H457 H 0.76423 0.48946 0.14889 0.0
H458 H 0.83783 0.50559 0.17644 0.0
H459 H 0.78491 0.43635 0.03193 0.0
H460 H 0.73479 0.46377 0.24767 0.0
H461 H 0.7105 0.4681 0.09568 0.0
C462 C 0.98333 0.47605 0.64595 0.0
C463 C -0.00442 0.4848 0.627 0.0
N464 N 0.97929 0.48871 0.59118 0.0
N465 N 0.95934 0.47428 0.62218 0.0
C466 C 0.9573 0.48221 0.58931 0.0
H467 H 0.99173 0.47115 0.6746 0.0
Co468 Co 0.9358 0.46258 0.63253 0.0
C469 C 0.92139 0.45691 0.53184 0.0
O470 O 0.93011 0.44756 0.54217 0.0
N471 N 0.91076 0.45088 0.6416 0.0
C472 C 0.86995 0.44291 0.64849 0.0
C473 C 0.88315 0.45224 0.64561 0.0
C474 C 0.91339 0.44036 0.64112 0.0
N475 N 0.88886 0.43536 0.64539 0.0
O476 O 0.90839 0.47161 0.6596 0.0
H477 H 0.87259 0.45957 0.64481 0.0
H478 H 0.93261 0.43634 0.6351 0.0
O479 O 0.92212 0.46393 0.56491 0.0
C480 C 0.91654 0.47254 0.70434 0.0
O481 O 0.93976 0.46807 0.71743 0.0
N482 N 0.96512 0.45397 0.61534 0.0
C483 C 0.01994 0.44816 0.62725 0.0
C484 C 0.01121 0.45303 0.58341 0.0
C485 C 0.98343 0.45584 0.57798 0.0
C486 C 0.97306 0.44855 0.65607 0.0
C487 C -5e-05 0.44512 0.66155 0.0
H488 H 0.97766 0.46075 0.54735 0.0
H489 H 0.95924 0.44784 0.68724 0.0
H490 H 0.94039 0.48306 0.56352 0.0
H491 H 0.01506 0.48804 0.63888 0.0
H492 H 0.84791 0.44184 0.65224 0.0
H493 H 0.02601 0.45565 0.55619 0.0
H494 H 0.0056 0.44119 0.69542 0.0
C495 C 0.83284 0.3111 0.6094 0.0
C496 C 0.82563 0.30153 0.59173 0.0
N497 N 0.79789 0.3009 0.58935 0.0
N498 N 0.80989 0.31667 0.61839 0.0
C499 C 0.78883 0.31015 0.60649 0.0
H500 H 0.85365 0.31398 0.61361 0.0
Co501 Co 0.81049 0.33089 0.63734 0.0
C502 C 0.83602 0.3403 0.54958 0.0
O503 O 0.81559 0.34699 0.54956 0.0
N504 N 0.81205 0.34515 0.65834 0.0
C505 C 0.80491 0.35905 0.70552 0.0
C506 C 0.79733 0.349 0.69651 0.0
C507 C 0.82997 0.35296 0.64752 0.0
N508 N 0.82546 0.36162 0.67441 0.0
O509 O 0.83824 0.3281 0.68625 0.0
H510 H 0.78262 0.34466 0.71821 0.0
H511 H 0.84716 0.35221 0.62249 0.0
O512 O 0.83762 0.33355 0.58418 0.0
C513 C 0.82472 0.32524 0.72449 0.0
O514 O 0.79818 0.32342 0.7192 0.0
N515 N 0.78057 0.33337 0.59418 0.0
C516 C 0.72961 0.33276 0.54726 0.0
C517 C 0.75312 0.32917 0.5228 0.0
C518 C 0.77869 0.32966 0.54685 0.0
C519 C 0.7576 0.33691 0.61761 0.0
C520 C 0.73218 0.33698 0.59437 0.0
H521 H 0.7964 0.32616 0.52927 0.0
H522 H 0.75809 0.33877 0.65612 0.0
H523 H 0.76727 0.31229 0.6087 0.0
H524 H 0.83991 0.29566 0.57917 0.0
H525 H 0.79595 0.36402 0.7333 0.0
H526 H 0.7515 0.32551 0.48699 0.0
H527 H 0.71412 0.33939 0.61503 0.0
C528 C 0.51763 0.23139 0.90399 0.0
C529 C 0.50685 0.24108 0.8948 0.0
N530 N 0.51712 0.24464 0.85164 0.0
N531 N 0.53462 0.22868 0.86678 0.0
C532 C 0.53437 0.23705 0.83613 0.0
H533 H 0.51219 0.22639 0.93452 0.0
Co534 Co 0.5501 0.21518 0.8567 0.0
C535 C 0.55046 0.21933 0.74626 0.0
O536 O 0.52609 0.21522 0.73913 0.0
N537 N 0.56663 0.20168 0.84469 0.0
C538 C 0.57841 0.1875 0.80272 0.0
C539 C 0.56586 0.19695 0.8002 0.0
C540 C 0.5796 0.19459 0.87422 0.0
N541 N 0.58706 0.18592 0.84921 0.0
O542 O 0.58422 0.22002 0.88368 0.0
H543 H 0.55583 0.1999 0.76769 0.0
H544 H 0.58326 0.19569 0.91325 0.0
O545 O 0.56134 0.21935 0.78938 0.0
C546 C 0.58153 0.218 0.92968 0.0
O547 O 0.55908 0.21323 0.94461 0.0
N548 N 0.5145 0.21006 0.83925 0.0
C549 C 0.45947 0.20419 0.85359 0.0
C550 C 0.46593 0.21312 0.82671 0.0
C551 C 0.49353 0.21597 0.82039 0.0
C552 C 0.50817 0.2011 0.86359 0.0
C553 C 0.48103 0.19791 0.86996 0.0
H554 H 0.49767 0.22336 0.80354 0.0
H555 H 0.52373 0.19678 0.88303 0.0
H556 H 0.54514 0.23733 0.80124 0.0
H557 H 0.49193 0.24504 0.91766 0.0
H558 H 0.58021 0.182 0.7728 0.0
H559 H 0.44986 0.2183 0.81411 0.0
H560 H 0.47699 0.19094 0.89088 0.0
C561 C 0.68314 0.06247 0.8982 0.0
C562 C 0.69072 0.05314 0.87834 0.0
N563 N 0.70023 0.0547 0.83224 0.0
N564 N 0.6877 0.07011 0.86516 0.0
C565 C 0.69776 0.06504 0.82477 0.0
H566 H 0.67601 0.06351 0.93555 0.0
Co567 Co 0.68587 0.08475 0.87844 0.0
C568 C 0.65449 0.09307 0.78952 0.0
O569 O 0.66096 0.10278 0.79685 0.0
N570 N 0.68445 0.09932 0.89269 0.0
C571 C 0.69978 0.11497 0.91314 0.0
C572 C 0.70697 0.10486 0.90516 0.0
C573 C 0.66342 0.1063 0.89589 0.0
N574 N 0.67231 0.116 0.90699 0.0
O575 O 0.65441 0.08272 0.92085 0.0
H576 H 0.72765 0.10178 0.90783 0.0
H577 H 0.64205 0.10434 0.8891 0.0
O578 O 0.66308 0.08606 0.81902 0.0
C579 C 0.66474 0.08223 0.96431 0.0
O580 O 0.6916 0.08326 0.96909 0.0
N581 N 0.71869 0.08654 0.84342 0.0
C582 C 0.77336 0.09011 0.81846 0.0
C583 C 0.75216 0.09496 0.79193 0.0
C584 C 0.72463 0.09293 0.80464 0.0
C585 C 0.73928 0.08167 0.86856 0.0
C586 C 0.76666 0.08317 0.85604 0.0
H587 H 0.7086 0.09704 0.78558 0.0
H588 H 0.73441 0.07698 0.90048 0.0
H589 H 0.70494 0.06893 0.79177 0.0
H590 H 0.69012 0.04576 0.89717 0.0
H591 H 0.71406 0.12115 0.9213 0.0
H592 H 0.75684 0.10053 0.76329 0.0
H593 H 0.78258 0.07951 0.87812 0.0
C594 C 0.49905 0.07301 0.35483 0.0
C595 C 0.48733 0.06398 0.37122 0.0
N596 N 0.5061 0.0587 0.3979 0.0
N597 N 0.52533 0.07371 0.37117 0.0
C598 C 0.52927 0.06461 0.39573 0.0
H599 H 0.48864 0.07866 0.33226 0.0
Co600 Co 0.55031 0.08526 0.36178 0.0
C601 C 0.55446 0.08072 0.46945 0.0
O602 O 0.52768 0.07917 0.47173 0.0
N603 N 0.57556 0.09645 0.35338 0.0
C604 C 0.61609 0.10461 0.35263 0.0
C605 C 0.60307 0.09529 0.35916 0.0
C606 C 0.57243 0.10672 0.34407 0.0
N607 N 0.59688 0.11184 0.34329 0.0
O608 O 0.57674 0.07624 0.3312 0.0
H609 H 0.61317 0.08811 0.3686 0.0
H610 H 0.55272 0.11043 0.33823 0.0
O611 O 0.56568 0.08315 0.42821 0.0
C612 C 0.56845 0.0741 0.28752 0.0
O613 O 0.54294 0.07639 0.27543 0.0
N614 N 0.52343 0.09457 0.38299 0.0
C615 C 0.47773 0.10751 0.38806 0.0
C616 C 0.48627 0.10336 0.34292 0.0
C617 C 0.50921 0.09701 0.34129 0.0
C618 C 0.51762 0.09946 0.42645 0.0
C619 C 0.4941 0.10576 0.43015 0.0
H620 H 0.51531 0.09364 0.30645 0.0
H621 H 0.53069 0.09855 0.45836 0.0
H622 H 0.54843 0.06261 0.41389 0.0
H623 H 0.46638 0.06153 0.36397 0.0
H624 H 0.63803 0.10601 0.35609 0.0
H625 H 0.4744 0.10445 0.30942 0.0
H626 H 0.48851 0.10906 0.46547 0.0
C627 C 0.72941 0.22912 0.33562 0.0
C628 C 0.74109 0.23789 0.35488 0.0
N629 N 0.72348 0.24208 0.38781 0.0
N630 N 0.70429 0.22763 0.35575 0.0
C631 C 0.70127 0.23566 0.38773 0.0
H632 H 0.73909 0.22392 0.30964 0.0
Co633 Co 0.68252 0.21574 0.3418 0.0
C634 C 0.64882 0.21252 0.42939 0.0
O635 O 0.65527 0.20272 0.42563 0.0
N636 N 0.65999 0.2037 0.32686 0.0
C637 C 0.62207 0.19499 0.30469 0.0
C638 C 0.63362 0.20457 0.31082 0.0
C639 C 0.66356 0.19326 0.3309 0.0
N640 N 0.6408 0.18783 0.31752 0.0
O641 O 0.66076 0.22369 0.29584 0.0
H642 H 0.62273 0.21176 0.30548 0.0
H643 H 0.68202 0.18961 0.34478 0.0
O644 O 0.65825 0.21898 0.39777 0.0
C645 C 0.67324 0.22324 0.25428 0.0
O646 O 0.69716 0.21847 0.25264 0.0
N647 N 0.70665 0.20809 0.38085 0.0
C648 C 0.7581 0.2019 0.41523 0.0
C649 C 0.74022 0.20751 0.44589 0.0
C650 C 0.71447 0.21061 0.42783 0.0
C651 C 0.72332 0.20224 0.35173 0.0
C652 C 0.74877 0.19882 0.3686 0.0
H653 H 0.70246 0.21597 0.44947 0.0
H654 H 0.71795 0.20104 0.31339 0.0
H655 H 0.68334 0.23672 0.41093 0.0
H656 H 0.76156 0.24074 0.34651 0.0
H657 H 0.60102 0.19342 0.2936 0.0
H658 H 0.74703 0.21023 0.48168 0.0
H659 H 0.76226 0.19482 0.34308 0.0
C660 C 0.47423 0.82691 0.10607 0.0
C661 C 0.48637 0.81795 0.12291 0.0
N662 N 0.46927 0.81342 0.15565 0.0
N663 N 0.44957 0.82822 0.12842 0.0
C664 C 0.44697 0.81976 0.15803 0.0
H665 H 0.48319 0.83229 0.08004 0.0
Co666 Co 0.42621 0.84007 0.12073 0.0
C667 C 0.40906 0.84426 0.22182 0.0
O668 O 0.41708 0.85384 0.21506 0.0
N669 N 0.40161 0.85198 0.11393 0.0
C670 C 0.36118 0.86032 0.11022 0.0
C671 C 0.37389 0.85085 0.11135 0.0
C672 C 0.40488 0.86248 0.11482 0.0
N673 N 0.38059 0.86772 0.11256 0.0
O674 O 0.39904 0.83139 0.09047 0.0
H675 H 0.36309 0.84356 0.11176 0.0
H676 H 0.42443 0.86634 0.1196 0.0
O677 O 0.41142 0.83773 0.18679 0.0
C678 C 0.40763 0.83018 0.04623 0.0
O679 O 0.43069 0.83471 0.03278 0.0
N680 N 0.45521 0.84832 0.14247 0.0
C681 C 0.51095 0.85302 0.13581 0.0
C682 C 0.5004 0.84822 0.17846 0.0
C683 C 0.47217 0.84595 0.18121 0.0
C684 C 0.4649 0.85385 0.10329 0.0
C685 C 0.49242 0.85667 0.10028 0.0
H686 H 0.46501 0.84095 0.21052 0.0
H687 H 0.45205 0.85495 0.07106 0.0
H688 H 0.42948 0.81843 0.18208 0.0
H689 H 0.50636 0.81501 0.11196 0.0
H690 H 0.33915 0.86163 0.10806 0.0
H691 H 0.51412 0.84515 0.20645 0.0
H692 H 0.49968 0.86049 0.0671 0.0
C693 C 0.30293 0.99525 0.06835 0.0
C694 C 0.2958 1.00473 0.08737 0.0
N695 N 0.2916 1.00374 0.13631 0.0
N696 N 0.30334 0.98812 0.10481 0.0
C697 C 0.29676 0.99364 0.14611 0.0
H698 H 0.30621 0.99369 0.02967 0.0
Co699 Co 0.30592 0.97337 0.09667 0.0
C700 C 0.35838 0.97191 0.15337 0.0
O701 O 0.37362 0.96988 0.11447 0.0
N702 N 0.30787 0.95873 0.08878 0.0
C703 C 0.29342 0.94332 0.06317 0.0
C704 C 0.28724 0.95365 0.06596 0.0
C705 C 0.32643 0.95117 0.10014 0.0
N706 N 0.31816 0.94168 0.0845 0.0
O707 O 0.33301 0.97494 0.04469 0.0
H708 H 0.26868 0.95728 0.05211 0.0
H709 H 0.34577 0.95253 0.1188 0.0
O710 O 0.33248 0.97316 0.14903 0.0
C711 C 0.31916 0.9746 0.00444 0.0
O712 O 0.29213 0.97402 0.00782 0.0
N713 N 0.27763 0.97165 0.14152 0.0
C714 C 0.22868 0.96779 0.19103 0.0
C715 C 0.25356 0.96364 0.20874 0.0
C716 C 0.27814 0.96575 0.18337 0.0
C717 C 0.25365 0.9757 0.12417 0.0
C718 C 0.22907 0.97405 0.14885 0.0
H719 H 0.29717 0.96221 0.19559 0.0
H720 H 0.25354 0.97995 0.08973 0.0
H721 H 0.29388 0.99016 0.18212 0.0
H722 H 0.29306 1.01176 0.06633 0.0
H723 H 0.28041 0.93742 0.04712 0.0
H724 H 0.25378 0.95856 0.24053 0.0
H725 H 0.21018 0.97708 0.133 0.0
C726 C 0.46501 0.98139 0.6504 0.0
C727 C 0.47281 0.99141 0.63979 0.0
N728 N 0.46297 0.994 0.5948 0.0
N729 N 0.45029 0.97757 0.61237 0.0
C730 C 0.44885 0.98554 0.57968 0.0
H731 H 0.4713 0.97695 0.68232 0.0
Co732 Co 0.44037 0.96341 0.60327 0.0
C733 C 0.44105 0.96646 0.49181 0.0
O734 O 0.46678 0.96356 0.48663 0.0
N735 N 0.42967 0.9492 0.59205 0.0
C736 C 0.42762 0.93409 0.55294 0.0
C737 C 0.43681 0.94404 0.55066 0.0
C738 C 0.41596 0.94195 0.61935 0.0
N739 N 0.41468 0.93263 0.59634 0.0
O740 O 0.40424 0.96651 0.62757 0.0
H741 H 0.44903 0.94711 0.52094 0.0
H742 H 0.40792 0.94335 0.65599 0.0
O743 O 0.42935 0.96644 0.53427 0.0
C744 C 0.4073 0.96482 0.67387 0.0
O745 O 0.43102 0.96117 0.68962 0.0
N746 N 0.47786 0.96024 0.58961 0.0
C747 C 0.53355 0.95863 0.615 0.0
C748 C 0.52468 0.96626 0.58195 0.0
C749 C 0.49666 0.96702 0.57022 0.0
C750 C 0.48685 0.95238 0.61934 0.0
C751 C 0.51453 0.95134 0.63176 0.0
H752 H 0.49006 0.97369 0.54947 0.0
H753 H 0.47239 0.94749 0.63858 0.0
H754 H 0.43883 0.98503 0.54418 0.0
H755 H 0.48622 0.99615 0.66223 0.0
H756 H 0.43058 0.92833 0.52456 0.0
H757 H 0.53876 0.97215 0.56883 0.0
H758 H 0.52062 0.94533 0.65744 0.0
C759 C 0.25943 0.81896 0.66489 0.0
C760 C 0.24752 0.81023 0.6454 0.0
N761 N 0.26429 0.80642 0.61016 0.0
N762 N 0.28365 0.82084 0.64193 0.0
C763 C 0.2862 0.81296 0.60904 0.0
H764 H 0.25055 0.82383 0.69314 0.0
Co765 Co 0.30615 0.83279 0.65283 0.0
C766 C 0.32008 0.83881 0.55202 0.0
O767 O 0.30992 0.84797 0.56186 0.0
N768 N 0.32985 0.84485 0.66258 0.0
C769 C 0.36887 0.85375 0.67503 0.0
C770 C 0.35732 0.84412 0.67111 0.0
C771 C 0.32574 0.85528 0.65954 0.0
N772 N 0.34905 0.86082 0.66772 0.0
O773 O 0.33462 0.82406 0.67926 0.0
H774 H 0.36901 0.83705 0.67212 0.0
H775 H 0.30632 0.85886 0.65008 0.0
O776 O 0.32009 0.83178 0.58523 0.0
C777 C 0.32658 0.82224 0.72348 0.0
O778 O 0.30237 0.82576 0.73735 0.0
N779 N 0.27605 0.84104 0.63629 0.0
C780 C 0.22132 0.84707 0.64722 0.0
C781 C 0.23022 0.84226 0.60341 0.0
C782 C 0.25792 0.8393 0.59856 0.0
C783 C 0.26786 0.84622 0.67748 0.0
C784 C 0.24105 0.84974 0.68259 0.0
H785 H 0.26386 0.8345 0.56768 0.0
H786 H 0.28161 0.84683 0.70879 0.0
H787 H 0.30329 0.81222 0.58356 0.0
H788 H 0.22787 0.80695 0.6562 0.0
H789 H 0.39055 0.85542 0.68044 0.0
H790 H 0.21558 0.83988 0.57546 0.0
H791 H 0.2353 0.85361 0.71651 0.0
C792 C 0.50358 0.73404 0.39289 0.0
C793 C 0.49281 0.74327 0.37648 0.0
N794 N 0.50944 0.74709 0.34102 0.0
N795 N 0.52722 0.73198 0.36851 0.0
C796 C 0.53014 0.74007 0.33672 0.0
H797 H 0.49459 0.7291 0.42078 0.0
Co798 Co 0.54926 0.72 0.38027 0.0
C799 C 0.57867 0.71623 0.28843 0.0
O800 O 0.57334 0.70638 0.29438 0.0
N801 N 0.57243 0.70792 0.39283 0.0
C802 C 0.61196 0.69945 0.40684 0.0
C803 C 0.59991 0.70894 0.40038 0.0
C804 C 0.56863 0.69745 0.39437 0.0
N805 N 0.59238 0.69215 0.40305 0.0
O806 O 0.57375 0.72809 0.42001 0.0
H807 H 0.61103 0.71616 0.39962 0.0
H808 H 0.54911 0.69366 0.38832 0.0
O809 O 0.56996 0.72282 0.3198 0.0
C810 C 0.56328 0.72759 0.46324 0.0
O811 O 0.53956 0.72279 0.46831 0.0
N812 N 0.5228 0.7122 0.34773 0.0
C813 C 0.47001 0.70536 0.32523 0.0
C814 C 0.48517 0.71107 0.29048 0.0
C815 C 0.51186 0.7144 0.3024 0.0
C816 C 0.50836 0.70649 0.38114 0.0
C817 C 0.48234 0.70269 0.37004 0.0
H818 H 0.5223 0.71965 0.27759 0.0
H819 H 0.5161 0.70563 0.41838 0.0
H820 H 0.54724 0.7409 0.31131 0.0
H821 H 0.47388 0.74683 0.38917 0.0
H822 H 0.63377 0.69803 0.41216 0.0
H823 H 0.47574 0.71356 0.25619 0.0
H824 H 0.47079 0.69866 0.39842 0.0
C825 C 0.72802 0.57614 0.3973 0.0
C826 C 0.74044 0.56736 0.37962 0.0
N827 N 0.72235 0.56229 0.35067 0.0
N828 N 0.70198 0.57675 0.38005 0.0
C829 C 0.69915 0.56819 0.35137 0.0
H830 H 0.73767 0.58189 0.42051 0.0
Co831 Co 0.6783 0.58819 0.39343 0.0
C832 C 0.64007 0.58939 0.30913 0.0
O833 O 0.63965 0.59948 0.31289 0.0
N834 N 0.65419 0.59981 0.40785 0.0
C835 C 0.61579 0.60814 0.43056 0.0
C836 C 0.6282 0.59867 0.4253 0.0
C837 C 0.65672 0.61027 0.40251 0.0
N838 N 0.63364 0.61551 0.41616 0.0
O839 O 0.65794 0.57983 0.43934 0.0
H840 H 0.61821 0.59136 0.43227 0.0
H841 H 0.67479 0.61405 0.38789 0.0
O842 O 0.65468 0.58398 0.33868 0.0
C843 C 0.67085 0.57882 0.48015 0.0
O844 O 0.6952 0.58314 0.48489 0.0
N845 N 0.70067 0.5962 0.35306 0.0
C846 C 0.75352 0.60079 0.32049 0.0
C847 C 0.73487 0.5957 0.28921 0.0
C848 C 0.70823 0.5935 0.30621 0.0
C849 C 0.71768 0.60201 0.38175 0.0
C850 C 0.74397 0.60461 0.36572 0.0
H851 H 0.69551 0.58838 0.28458 0.0
H852 H 0.71224 0.60345 0.41987 0.0
H853 H 0.68052 0.56632 0.33126 0.0
H854 H 0.76157 0.56505 0.38648 0.0
H855 H 0.59476 0.60945 0.44247 0.0
H856 H 0.74167 0.59255 0.25424 0.0
H857 H 0.75784 0.60833 0.3915 0.0
C858 C 0.51397 0.56287 0.85126 0.0
C859 C 0.50342 0.55368 0.86863 0.0
N860 N 0.51833 0.55064 0.90808 0.0
N861 N 0.53579 0.5657 0.87906 0.0
C862 C 0.53781 0.55809 0.9137 0.0
H863 H 0.50596 0.5673 0.82054 0.0
Co864 Co 0.55682 0.57809 0.86991 0.0
C865 C 0.57228 0.58418 0.96937 0.0
O866 O 0.5649 0.59365 0.95817 0.0
N867 N 0.5792 0.59057 0.86173 0.0
C868 C 0.61847 0.5997 0.85981 0.0
C869 C 0.60707 0.59008 0.86489 0.0
C870 C 0.57441 0.60093 0.85614 0.0
N871 N 0.59801 0.60659 0.85443 0.0
O872 O 0.58703 0.5701 0.84472 0.0
H873 H 0.61879 0.58316 0.87233 0.0
H874 H 0.55417 0.6044 0.85459 0.0
O875 O 0.56976 0.57697 0.9377 0.0
C876 C 0.58156 0.56786 0.79984 0.0
O877 O 0.55702 0.57016 0.78249 0.0
N878 N 0.52566 0.58565 0.8866 0.0
C879 C 0.46983 0.59039 0.87778 0.0
C880 C 0.48021 0.58605 0.92175 0.0
C881 C 0.50844 0.58372 0.92549 0.0
C882 C 0.51604 0.59036 0.84508 0.0
C883 C 0.48857 0.59317 0.84073 0.0
H884 H 0.51567 0.5793 0.95684 0.0
H885 H 0.52925 0.59106 0.81304 0.0
H886 H 0.55335 0.55797 0.94239 0.0
H887 H 0.48567 0.54965 0.85395 0.0
H888 H 0.64023 0.60155 0.8619 0.0
H889 H 0.46643 0.58363 0.95105 0.0
H890 H 0.48172 0.59671 0.80658 0.0
C891 C 0.72684 0.72446 0.84275 0.0
C892 C 0.73906 0.73357 0.85717 0.0
N893 N 0.72344 0.73797 0.89264 0.0
N894 N 0.7035 0.72299 0.86881 0.0
C895 C 0.70195 0.73137 0.89895 0.0
H896 H 0.73472 0.71913 0.81548 0.0
Co897 Co 0.68075 0.71115 0.86211 0.0
C898 C 0.64956 0.70968 0.95427 0.0
O899 O 0.65283 0.69962 0.95296 0.0
N900 N 0.65691 0.69912 0.85432 0.0
C901 C 0.61753 0.69057 0.84027 0.0
C902 C 0.62964 0.70011 0.84458 0.0
C903 C 0.66051 0.68865 0.85664 0.0
N904 N 0.63687 0.68331 0.84789 0.0
O905 O 0.65724 0.71888 0.81914 0.0
H906 H 0.61878 0.70737 0.84163 0.0
H907 H 0.67987 0.68491 0.86487 0.0
O908 O 0.65989 0.71535 0.92037 0.0
C909 C 0.66425 0.71663 0.77506 0.0
O910 O 0.68432 0.70996 0.76834 0.0
N911 N 0.70641 0.70374 0.89891 0.0
C912 C 0.76041 0.69886 0.92387 0.0
C913 C 0.74396 0.70461 0.95637 0.0
C914 C 0.7167 0.70693 0.94333 0.0
C915 C 0.72175 0.69764 0.86854 0.0
C916 C 0.74856 0.69485 0.88098 0.0
H917 H 0.70543 0.71238 0.96573 0.0
H918 H 0.71434 0.69591 0.83181 0.0
H919 H 0.68537 0.73264 0.92494 0.0
H920 H 0.75841 0.73658 0.84331 0.0
H921 H 0.5959 0.6891 0.83323 0.0
H922 H 0.75282 0.70804 0.9892 0.0
H923 H 0.76095 0.69068 0.85434 0.0
C924 C 0.44865 0.31749 0.58856 0.0
C925 C 0.45448 0.30751 0.60324 0.0
N926 N 0.45513 0.30713 0.65303 0.0
N927 N 0.44532 0.3235 0.62867 0.0
C928 C 0.44919 0.31692 0.66742 0.0
H929 H 0.44825 0.32028 0.55091 0.0
Co930 Co 0.44229 0.3382 0.62764 0.0
C931 C 0.44084 0.34271 0.7348 0.0
O932 O 0.46171 0.34909 0.7301 0.0
N933 N 0.43922 0.35335 0.62779 0.0
C934 C 0.45081 0.37005 0.63329 0.0
C935 C 0.45998 0.36009 0.63719 0.0
C936 C 0.41717 0.35973 0.61928 0.0
N937 N 0.42388 0.36993 0.62179 0.0
O938 O 0.40472 0.33696 0.60575 0.0
H939 H 0.4808 0.35807 0.64749 0.0
H940 H 0.39663 0.357 0.61076 0.0
O941 O 0.43151 0.33797 0.697 0.0
C942 C 0.40651 0.33828 0.55898 0.0
O943 O 0.4304 0.34095 0.54009 0.0
N944 N 0.48019 0.33875 0.63914 0.0
C945 C 0.53502 0.33407 0.6185 0.0
C946 C 0.52364 0.33162 0.66486 0.0
C947 C 0.49583 0.33396 0.67443 0.0
C948 C 0.49159 0.34156 0.59514 0.0
C949 C 0.51894 0.33952 0.58454 0.0
H950 H 0.48657 0.3312 0.7082 0.0
H951 H 0.47889 0.34496 0.56673 0.0
H952 H 0.4487 0.31933 0.70562 0.0
H953 H 0.45935 0.30115 0.57888 0.0
H954 H 0.46307 0.37691 0.63945 0.0
H955 H 0.5355 0.32736 0.69199 0.0
H956 H 0.52707 0.34179 0.54883 0.0
C957 C 0.33096 0.48728 0.67733 0.0
C958 C 0.32476 0.49665 0.69823 0.0
N959 N 0.29711 0.49767 0.70058 0.0
N960 N 0.30749 0.48223 0.66578 0.0
C961 C 0.2871 0.48879 0.68068 0.0
H962 H 0.3515 0.48419 0.67233 0.0
Co963 Co 0.3075 0.4684 0.6403 0.0
C964 C 0.32778 0.45672 0.72815 0.0
O965 O 0.31042 0.44912 0.71979 0.0
N966 N 0.30842 0.45444 0.61535 0.0
C967 C 0.29736 0.4398 0.57669 0.0
C968 C 0.28948 0.44981 0.58624 0.0
C969 C 0.32828 0.44707 0.62097 0.0
N970 N 0.32173 0.43798 0.59895 0.0
O971 O 0.34005 0.47115 0.60205 0.0
H972 H 0.27095 0.45338 0.57228 0.0
H973 H 0.34727 0.44832 0.6411 0.0
O974 O 0.32868 0.46443 0.69869 0.0
C975 C 0.33212 0.47629 0.56423 0.0
O976 O 0.3064 0.47948 0.56264 0.0
N977 N 0.27348 0.46612 0.67043 0.0
C978 C 0.21776 0.46328 0.68937 0.0
C979 C 0.23708 0.46228 0.72767 0.0
C980 C 0.26509 0.46409 0.7177 0.0
C981 C 0.25457 0.46784 0.63424 0.0
C982 C 0.2267 0.46638 0.64266 0.0
H983 H 0.27955 0.46394 0.74789 0.0
H984 H 0.2614 0.47021 0.59796 0.0
H985 H 0.26534 0.48706 0.67771 0.0
H986 H 0.33964 0.50211 0.71246 0.0
H987 H 0.2856 0.43422 0.55574 0.0
H988 H 0.23056 0.46022 0.76467 0.0
H989 H 0.21233 0.46737 0.61235 0.0
C990 C 0.48412 0.47415 0.16731 0.0
C991 C 0.49578 0.48288 0.1471 0.0
N992 N 0.47835 0.4868 0.11314 0.0
N993 N 0.45937 0.47237 0.1461 0.0
C994 C 0.45628 0.48032 0.11353 0.0
H995 H 0.49349 0.46922 0.1949 0.0
Co996 Co 0.43691 0.46048 0.15932 0.0
C997 C 0.4192 0.45449 0.0607 0.0
O998 O 0.42864 0.44523 0.07067 0.0
N999 N 0.41322 0.44852 0.17209 0.0
C1000 C 0.3746 0.43985 0.19101 0.0
C1001 C 0.38628 0.44941 0.18485 0.0
C1002 C 0.41679 0.43805 0.16914 0.0
N1003 N 0.39373 0.43267 0.18111 0.0
O1004 O 0.40989 0.46931 0.1894 0.0
H1005 H 0.375 0.45654 0.18793 0.0
H1006 H 0.43564 0.43434 0.15744 0.0
O1007 O 0.42067 0.46162 0.09325 0.0
C1008 C 0.41948 0.47037 0.23318 0.0
O1009 O 0.44341 0.46613 0.24366 0.0
N1010 N 0.46602 0.45212 0.13869 0.0
C1011 C 0.52144 0.44676 0.14281 0.0
C1012 C 0.51053 0.45147 0.10022 0.0
C1013 C 0.48249 0.45408 0.09878 0.0
C1014 C 0.476 0.44679 0.17823 0.0
C1015 C 0.50327 0.44361 0.17999 0.0
H1016 H 0.47513 0.45893 0.069 0.0
H1017 H 0.46357 0.44595 0.21116 0.0
H1018 H 0.43862 0.48116 0.08939 0.0
H1019 H 0.51571 0.48608 0.15663 0.0
H1020 H 0.35325 0.4383 0.20027 0.0
H1021 H 0.52393 0.45418 0.07093 0.0
H1022 H 0.51072 0.43982 0.21312 0.0
C1023 C 0.33574 0.31006 0.1161 0.0
C1024 C 0.33015 0.30039 0.09744 0.0
N1025 N 0.30263 0.29942 0.09144 0.0
N1026 N 0.31197 0.31531 0.1222 0.0
C1027 C 0.29214 0.30854 0.10735 0.0
H1028 H 0.35605 0.31325 0.12264 0.0
Co1029 Co 0.30931 0.3296 0.13903 0.0
C1030 C 0.33683 0.3402 0.05607 0.0
O1031 O 0.31704 0.34714 0.05743 0.0
N1032 N 0.30712 0.34403 0.15636 0.0
C1033 C 0.29187 0.35982 0.17486 0.0
C1034 C 0.28461 0.34966 0.16857 0.0
C1035 C 0.32814 0.35102 0.15839 0.0
N1036 N 0.31922 0.36073 0.16798 0.0
O1037 O 0.33694 0.32807 0.18959 0.0
H1038 H 0.26389 0.3468 0.17252 0.0
H1039 H 0.34942 0.34913 0.15028 0.0
O1040 O 0.33667 0.33274 0.08722 0.0
C1041 C 0.32322 0.32559 0.22823 0.0
O1042 O 0.29685 0.32353 0.22277 0.0
N1043 N 0.27972 0.33071 0.09514 0.0
C1044 C 0.22898 0.32932 0.04851 0.0
C1045 C 0.2532 0.3293 0.02039 0.0
C1046 C 0.27871 0.32973 0.04477 0.0
C1047 C 0.25616 0.33022 0.12233 0.0
C1048 C 0.23061 0.32973 0.09988 0.0
H1049 H 0.29728 0.32875 0.02333 0.0
H1050 H 0.25735 0.3298 0.16212 0.0
H1051 H 0.27038 0.31033 0.10678 0.0
H1052 H 0.34541 0.29473 0.08669 0.0
H1053 H 0.27795 0.3661 0.18343 0.0
H1054 H 0.2524 0.32863 0.98055 0.0
H1055 H 0.21218 0.32949 0.12259 0.0
C1056 C 0.13836 0.22542 0.99413 0.0
C1057 C 0.13719 0.21508 0.97907 0.0
C1058 C 0.12605 0.22859 0.03876 0.0
C1059 C 0.11212 0.22124 0.0685 0.0
C1060 C 0.11048 0.21084 0.0528 0.0
C1061 C 0.123 0.20791 0.00845 0.0
C1062 C 0.12824 0.23973 0.05439 0.0
C1063 C 0.09562 0.20275 0.08306 0.0
C1064 C 0.09754 0.22275 0.20559 0.0
C1065 C 0.06882 0.224 0.2052 0.0
C1066 C 0.11261 0.2228 0.16118 0.0
C1067 C 0.09856 0.22421 0.11572 0.0
C1068 C 0.07003 0.22652 0.11586 0.0
C1069 C 0.05548 0.22633 0.16059 0.0
C1070 C 0.14305 0.22037 0.16267 0.0
C1071 C 0.05427 0.2282 0.06841 0.0
H1072 H 0.14942 0.23099 0.97173 0.0
H1073 H 0.12183 0.19992 0.99695 0.0
H1074 H 0.10732 0.24306 0.05932 0.0
H1075 H 0.13889 0.24024 0.09057 0.0
H1076 H 0.13972 0.24449 0.02709 0.0
H1077 H 0.09642 0.19499 0.06571 0.0
H1078 H 0.10495 0.20221 0.12041 0.0
H1079 H 0.07366 0.20495 0.08786 0.0
H1080 H 0.10795 0.22099 0.24003 0.0
H1081 H 0.03332 0.22749 0.16027 0.0
H1082 H 0.15462 0.22535 0.13653 0.0
H1083 H 0.1463 0.21224 0.1512 0.0
H1084 H 0.15177 0.22136 0.2003 0.0
H1085 H 0.066 0.23325 0.04282 0.0
H1086 H 0.03368 0.2317 0.07515 0.0
H1087 H 0.0512 0.22068 0.04971 0.0
C1088 C 0.1326 0.09818 0.24197 0.0
C1089 C 0.15113 0.09208 0.26901 0.0
C1090 C 0.12084 0.09458 0.19789 0.0
C1091 C 0.12813 0.08469 0.1798 0.0
C1092 C 0.14701 0.07852 0.20671 0.0
C1093 C 0.15808 0.08224 0.25128 0.0
C1094 C 0.10037 0.10134 0.17089 0.0
C1095 C 0.15566 0.06802 0.18825 0.0
C1096 C 0.07468 0.07322 0.09388 0.0
C1097 C 0.08429 0.07642 0.04734 0.0
C1098 C 0.08951 0.07538 0.1371 0.0
C1099 C 0.11485 0.08075 0.13386 0.0
C1100 C 0.12575 0.0833 0.08678 0.0
C1101 C 0.11028 0.08114 0.04401 0.0
C1102 C 0.07701 0.07256 0.18644 0.0
C1103 C 0.15297 0.08885 0.08172 0.0
H1104 H 0.12711 0.10578 0.25548 0.0
H1105 H 0.17265 0.07753 0.27168 0.0
H1106 H 0.1078 0.10293 0.13287 0.0
H1107 H 0.08029 0.09729 0.16765 0.0
H1108 H 0.09691 0.10882 0.18989 0.0
H1109 H 0.17123 0.06432 0.21266 0.0
H1110 H 0.13743 0.06288 0.18569 0.0
H1111 H 0.16444 0.06871 0.15053 0.0
H1112 H 0.05478 0.06946 0.09695 0.0
H1113 H 0.11796 0.08361 0.00828 0.0
H1114 H 0.07081 0.0797 0.20613 0.0
H1115 H 0.09235 0.06852 0.20994 0.0
H1116 H 0.05855 0.06755 0.18251 0.0
H1117 H 0.15059 0.09696 0.09415 0.0
H1118 H 0.16049 0.08891 0.04295 0.0
H1119 H 0.16886 0.08519 0.10551 0.0
C1120 C 0.90099 0.85518 0.78665 0.0
C1121 C 0.89411 0.84845 0.74796 0.0
C1122 C 0.88823 0.85438 0.83301 0.0
C1123 C 0.86768 0.8468 0.84077 0.0
C1124 C 0.8601 0.84015 0.80156 0.0
C1125 C 0.87356 0.841 0.7557 0.0
C1126 C 0.89712 0.86155 0.87398 0.0
C1127 C 0.8379 0.83209 0.80818 0.0
C1128 C 0.8519 0.83868 0.9731 0.0
C1129 C 0.82885 0.84481 0.98399 0.0
C1130 C 0.86476 0.83923 0.92659 0.0
C1131 C 0.854 0.84593 0.8899 0.0
C1132 C 0.83058 0.85205 0.90059 0.0
C1133 C 0.81846 0.85149 0.94757 0.0
C1134 C 0.89001 0.83272 0.91684 0.0
C1135 C 0.81824 0.85919 0.86231 0.0
H1136 H 0.91698 0.86092 0.78125 0.0
H1137 H 0.86813 0.83577 0.72604 0.0
H1138 H 0.87925 0.86613 0.88715 0.0
H1139 H 0.9048 0.85698 0.90587 0.0
H1140 H 0.91364 0.86695 0.86208 0.0
H1141 H 0.83389 0.82771 0.77369 0.0
H1142 H 0.84401 0.82657 0.83755 0.0
H1143 H 0.8184 0.83581 0.82023 0.0
H1144 H 0.86003 0.83351 1.00106 0.0
H1145 H 0.80048 0.85618 0.95543 0.0
H1146 H 0.90772 0.83776 0.90717 0.0
H1147 H 0.88629 0.82757 0.88485 0.0
H1148 H 0.89579 0.82791 0.94923 0.0
H1149 H 0.83356 0.86512 0.8514 0.0
H1150 H 0.79939 0.86315 0.87592 0.0
H1151 H 0.81287 0.85477 0.82857 0.0
C1152 C 0.85907 0.94979 0.75621 0.0
C1153 C 0.85535 0.95832 0.72494 0.0
C1154 C 0.87424 0.95061 0.80011 0.0
C1155 C 0.88602 0.96022 0.8133 0.0
C1156 C 0.88296 0.96881 0.78133 0.0
C1157 C 0.8677 0.96776 0.73739 0.0
C1158 C 0.87725 0.94122 0.83284 0.0
C1159 C 0.89529 0.97916 0.79408 0.0
C1160 C 0.90178 0.96294 0.95038 0.0
C1161 C 0.92967 0.96007 0.95202 0.0
C1162 C 0.88754 0.96348 0.90515 0.0
C1163 C 0.90157 0.96113 0.86059 0.0
C1164 C 0.93004 0.95873 0.86189 0.0
C1165 C 0.9437 0.95822 0.9075 0.0
C1166 C 0.85719 0.96609 0.90526 0.0
C1167 C 0.94582 0.95623 0.8153 0.0
H1168 H 0.84972 0.94246 0.74675 0.0
H1169 H 0.86475 0.9744 0.71361 0.0
H1170 H 0.89941 0.93948 0.83881 0.0
H1171 H 0.86799 0.94277 0.86957 0.0
H1172 H 0.86715 0.93429 0.81691 0.0
H1173 H 0.89184 0.98499 0.76455 0.0
H1174 H 0.88605 0.98206 0.82889 0.0
H1175 H 0.91781 0.97838 0.80044 0.0
H1176 H 0.8908 0.96442 0.98453 0.0
H1177 H 0.96534 0.95611 0.90824 0.0
H1178 H 0.84509 0.95921 0.89409 0.0
H1179 H 0.8528 0.97228 0.87801 0.0
H1180 H 0.84991 0.96864 0.94219 0.0
H1181 H 0.93814 0.94886 0.79966 0.0
H1182 H 0.96834 0.95548 0.82204 0.0
H1183 H 0.94244 0.96231 0.78702 0.0
C1184 C 0.15867 0.70786 0.56172 0.0
C1185 C 0.15173 0.71367 0.51976 0.0
C1186 C 0.14535 0.70946 0.60705 0.0
C1187 C 0.12416 0.71695 0.61054 0.0
C1188 C 0.11778 0.72314 0.56883 0.0
C1189 C 0.13183 0.72148 0.52395 0.0
C1190 C 0.15318 0.70279 0.6507 0.0
C1191 C 0.09517 0.73113 0.57088 0.0
C1192 C 0.07117 0.70959 0.70727 0.0
C1193 C 0.07928 0.71557 0.74785 0.0
C1194 C 0.0845 0.71048 0.66151 0.0
C1195 C 0.10693 0.71739 0.65624 0.0
C1196 C 0.11444 0.72381 0.69644 0.0
C1197 C 0.10032 0.72289 0.74177 0.0
C1198 C 0.07543 0.70361 0.6195 0.0
C1199 C 0.13838 0.73121 0.6925 0.0
H1200 H 0.17432 0.70191 0.55898 0.0
H1201 H 0.12639 0.726 0.49165 0.0
H1202 H 0.15695 0.70764 0.68374 0.0
H1203 H 0.13592 0.69749 0.65967 0.0
H1204 H 0.17193 0.6981 0.64341 0.0
H1205 H 0.09497 0.73613 0.53751 0.0
H1206 H 0.07488 0.72721 0.57381 0.0
H1207 H 0.09751 0.73606 0.60406 0.0
H1208 H 0.05465 0.70402 0.71157 0.0
H1209 H 0.10669 0.72751 0.77309 0.0
H1210 H 0.09164 0.69778 0.61196 0.0
H1211 H 0.07259 0.70821 0.58527 0.0
H1212 H 0.05585 0.69951 0.62784 0.0
H1213 H 0.15796 0.72677 0.69102 0.0
H1214 H 0.13932 0.73657 0.72442 0.0
H1215 H 0.13699 0.73579 0.65795 0.0
C1216 C 0.13663 0.57287 0.75641 0.0
C1217 C 0.12285 0.57943 0.78943 0.0
C1218 C 0.12683 0.57144 0.708 0.0
C1219 C 0.10321 0.57694 0.6919 0.0
C1220 C 0.08911 0.58348 0.72535 0.0
C1221 C 0.09889 0.58453 0.77383 0.0
C1222 C 0.14193 0.56416 0.67395 0.0
C1223 C 0.06412 0.58963 0.70952 0.0
C1224 C 0.08998 0.58351 0.55718 0.0
C1225 C 0.06691 0.57736 0.54735 0.0
C1226 C 0.10309 0.58306 0.60347 0.0
C1227 C 0.09324 0.57611 0.63998 0.0
C1228 C 0.07139 0.56928 0.62838 0.0
C1229 C 0.05813 0.57013 0.58248 0.0
C1230 C 0.12596 0.59062 0.61459 0.0
C1231 C 0.06082 0.56153 0.6655 0.0
H1232 H 0.15518 0.56891 0.76834 0.0
H1233 H 0.08835 0.58972 0.79894 0.0
H1234 H 0.12727 0.55855 0.65757 0.0
H1235 H 0.1513 0.56855 0.64303 0.0
H1236 H 0.15853 0.55983 0.69332 0.0
H1237 H 0.05582 0.59451 0.73979 0.0
H1238 H 0.06957 0.5947 0.67791 0.0
H1239 H 0.04755 0.58436 0.69689 0.0
H1240 H 0.09648 0.58918 0.53008 0.0
H1241 H 0.04028 0.56536 0.57459 0.0
H1242 H 0.14385 0.5866 0.63139 0.0
H1243 H 0.1185 0.59638 0.64178 0.0
H1244 H 0.13303 0.59478 0.58098 0.0
H1245 H 0.07825 0.55749 0.68384 0.0
H1246 H 0.04716 0.55568 0.6481 0.0
H1247 H 0.04891 0.56558 0.6946 0.0
C1248 C 0.85543 0.34879 0.47479 0.0
C1249 C 0.85549 0.34036 0.50739 0.0
C1250 C 0.87117 0.34871 0.43143 0.0
C1251 C 0.88758 0.33999 0.42023 0.0
C1252 C 0.88857 0.33158 0.45377 0.0
C1253 C 0.87246 0.33186 0.49708 0.0
C1254 C 0.8696 0.35787 0.3969 0.0
C1255 C 0.90603 0.3222 0.44324 0.0
C1256 C 0.90308 0.33729 0.28333 0.0
C1257 C 0.92875 0.34223 0.27967 0.0
C1258 C 0.89 0.33605 0.3293 0.0
C1259 C 0.90304 0.33973 0.37267 0.0
C1260 C 0.92957 0.34423 0.36946 0.0
C1261 C 0.94204 0.34548 0.32301 0.0
C1262 C 0.86163 0.33125 0.33112 0.0
C1263 C 0.9443 0.34816 0.41483 0.0
H1264 H 0.84258 0.35543 0.48264 0.0
H1265 H 0.87253 0.32531 0.52202 0.0
H1266 H 0.89054 0.36104 0.3903 0.0
H1267 H 0.86125 0.3554 0.36062 0.0
H1268 H 0.85629 0.36414 0.4116 0.0
H1269 H 0.90602 0.31664 0.4745 0.0
H1270 H 0.89814 0.31823 0.40985 0.0
H1271 H 0.92762 0.32453 0.43539 0.0
H1272 H 0.89274 0.3347 0.25009 0.0
H1273 H 0.96206 0.34917 0.32067 0.0
H1274 H 0.84626 0.33719 0.34176 0.0
H1275 H 0.86089 0.32508 0.35953 0.0
H1276 H 0.85542 0.32792 0.295 0.0
H1277 H 0.93338 0.35505 0.42931 0.0
H1278 H 0.96604 0.35034 0.40693 0.0
H1279 H 0.94413 0.34223 0.44442 0.0
C1280 C 0.8375 0.45346 0.28666 0.0
C1281 C 0.84472 0.46005 0.24757 0.0
C1282 C 0.85103 0.454 0.3323 0.0
C1283 C 0.87272 0.46118 0.33891 0.0
C1284 C 0.88035 0.4678 0.29952 0.0
C1285 C 0.86608 0.46722 0.25435 0.0
C1286 C 0.84205 0.44687 0.37351 0.0
C1287 C 0.90371 0.47541 0.30496 0.0
C1288 C 0.89081 0.46655 0.47308 0.0
C1289 C 0.91122 0.4591 0.4815 0.0
C1290 C 0.87881 0.46767 0.42606 0.0
C1291 C 0.88795 0.46134 0.38663 0.0
C1292 C 0.90982 0.4543 0.39442 0.0
C1293 C 0.92097 0.45318 0.44186 0.0
C1294 C 0.85527 0.47517 0.41935 0.0
C1295 C 0.92058 0.44756 0.35321 0.0
H1296 H 0.82086 0.44797 0.282 0.0
H1297 H 0.87172 0.47234 0.22431 0.0
H1298 H 0.85927 0.44165 0.38373 0.0
H1299 H 0.83667 0.45142 0.40684 0.0
H1300 H 0.82395 0.44209 0.3631 0.0
H1301 H 0.90683 0.48012 0.27107 0.0
H1302 H 0.89962 0.48067 0.33639 0.0
H1303 H 0.92315 0.47123 0.31334 0.0
H1304 H 0.88326 0.47113 0.50373 0.0
H1305 H 0.93708 0.44752 0.44812 0.0
H1306 H 0.83583 0.47082 0.41337 0.0
H1307 H 0.85868 0.48005 0.38622 0.0
H1308 H 0.85255 0.48026 0.45198 0.0
H1309 H 0.90475 0.44174 0.34327 0.0
H1310 H 0.93981 0.44344 0.36376 0.0
H1311 H 0.92473 0.45226 0.3197 0.0
C1312 C 0.55269 0.22518 0.65893 0.0
C1313 C 0.56659 0.22243 0.70241 0.0
C1314 C 0.56679 0.22601 0.61392 0.0
C1315 C 0.59541 0.22389 0.61233 0.0
C1316 C 0.60999 0.22209 0.65694 0.0
C1317 C 0.59536 0.22143 0.70169 0.0
C1318 C 0.55049 0.22812 0.56745 0.0
C1319 C 0.64053 0.21984 0.65689 0.0
C1320 C 0.61942 0.20852 0.50185 0.0
C1321 C 0.63352 0.21592 0.47373 0.0
C1322 C 0.60695 0.21109 0.54672 0.0
C1323 C 0.60851 0.22136 0.56417 0.0
C1324 C 0.62215 0.22897 0.53553 0.0
C1325 C 0.63449 0.22616 0.49039 0.0
C1326 C 0.59241 0.20272 0.57578 0.0
C1327 C 0.62418 0.23999 0.55301 0.0
H1328 H 0.53046 0.22616 0.65958 0.0
H1329 H 0.6062 0.21936 0.7353 0.0
H1330 H 0.5619 0.23341 0.54252 0.0
H1331 H 0.54722 0.22077 0.54731 0.0
H1332 H 0.52997 0.23153 0.57572 0.0
H1333 H 0.64961 0.22053 0.69442 0.0
H1334 H 0.64399 0.21184 0.64358 0.0
H1335 H 0.65163 0.22513 0.6315 0.0
H1336 H 0.61839 0.2006 0.48904 0.0
H1337 H 0.6455 0.2319 0.46895 0.0
H1338 H 0.57045 0.20484 0.58149 0.0
H1339 H 0.60202 0.2019 0.61278 0.0
H1340 H 0.59317 0.19511 0.55698 0.0
H1341 H 0.6033 0.2431 0.56082 0.0
H1342 H 0.63447 0.24506 0.52549 0.0
H1343 H 0.63601 0.2403 0.58804 0.0
C1344 C 0.59877 0.0835 0.51572 0.0
C1345 C 0.57074 0.08079 0.51583 0.0
C1346 C 0.61347 0.08453 0.5602 0.0
C1347 C 0.59977 0.08287 0.60578 0.0
C1348 C 0.57183 0.07972 0.60598 0.0
C1349 C 0.5577 0.07869 0.56106 0.0
C1350 C 0.64335 0.08781 0.55849 0.0
C1351 C 0.55643 0.07791 0.65373 0.0
C1352 C 0.64082 0.08015 0.72509 0.0
C1353 C 0.63963 0.09024 0.74375 0.0
C1354 C 0.62823 0.07763 0.6799 0.0
C1355 C 0.61378 0.08534 0.65325 0.0
C1356 C 0.61219 0.09549 0.67237 0.0
C1357 C 0.62525 0.09782 0.71718 0.0
C1358 C 0.6306 0.06676 0.66046 0.0
C1359 C 0.59668 0.10391 0.64546 0.0
H1360 H 0.60906 0.08508 0.48097 0.0
H1361 H 0.5361 0.07652 0.56161 0.0
H1362 H 0.6454 0.09571 0.57367 0.0
H1363 H 0.65612 0.08262 0.5818 0.0
H1364 H 0.65174 0.08777 0.52029 0.0
H1365 H 0.53546 0.0747 0.6475 0.0
H1366 H 0.56808 0.07252 0.67782 0.0
H1367 H 0.55439 0.0853 0.67402 0.0
H1368 H 0.65212 0.07427 0.74523 0.0
H1369 H 0.62415 0.10562 0.73147 0.0
H1370 H 0.64029 0.06684 0.62332 0.0
H1371 H 0.60976 0.06333 0.65626 0.0
H1372 H 0.64304 0.06171 0.68513 0.0
H1373 H 0.60564 0.10507 0.60816 0.0
H1374 H 0.59724 0.11138 0.66552 0.0
H1375 H 0.57481 0.10161 0.6404 0.0
C1376 C 0.35354 0.83014 0.49484 0.0
C1377 C 0.33131 0.83688 0.5022 0.0
C1378 C 0.36665 0.82953 0.44853 0.0
C1379 C 0.35688 0.83567 0.40882 0.0
C1380 C 0.33318 0.8419 0.41541 0.0
C1381 C 0.32088 0.84251 0.46211 0.0
C1382 C 0.39197 0.82286 0.44305 0.0
C1383 C 0.32172 0.84843 0.37389 0.0
C1384 C 0.40431 0.84708 0.31223 0.0
C1385 C 0.39792 0.84117 0.27047 0.0
C1386 C 0.39237 0.84491 0.35819 0.0
C1387 C 0.37315 0.83673 0.36243 0.0
C1388 C 0.36747 0.83045 0.32089 0.0
C1389 C 0.38014 0.83269 0.27533 0.0
C1390 C 0.3994 0.8517 0.40172 0.0
C1391 C 0.34691 0.82172 0.32383 0.0
H1392 H 0.36161 0.82578 0.52586 0.0
H1393 H 0.3034 0.84761 0.46754 0.0
H1394 H 0.39108 0.81835 0.4083 0.0
H1395 H 0.41055 0.82785 0.44105 0.0
H1396 H 0.39447 0.81744 0.47461 0.0
H1397 H 0.30137 0.85185 0.38334 0.0
H1398 H 0.33629 0.8548 0.36545 0.0
H1399 H 0.31941 0.84375 0.33985 0.0
H1400 H 0.4184 0.85354 0.30886 0.0
H1401 H 0.37521 0.82809 0.24311 0.0
H1402 H 0.40485 0.84692 0.43431 0.0
H1403 H 0.38115 0.85642 0.41186 0.0
H1404 H 0.41686 0.857 0.39362 0.0
H1405 H 0.35076 0.8169 0.35702 0.0
H1406 H 0.3476 0.81673 0.29056 0.0
H1407 H 0.32579 0.82495 0.32732 0.0
C1408 C 0.40171 0.96342 0.43461 0.0
C1409 C 0.42546 0.96898 0.44686 0.0
C1410 C 0.38981 0.96438 0.38745 0.0
C1411 C 0.40161 0.97127 0.35257 0.0
C1412 C 0.42463 0.97736 0.36618 0.0
C1413 C 0.43659 0.976 0.41292 0.0
C1414 C 0.36564 0.9576 0.37405 0.0
C1415 C 0.43726 0.98504 0.33078 0.0
C1416 C 0.39288 0.96577 0.21545 0.0
C1417 C 0.37052 0.97213 0.20338 0.0
C1418 C 0.40301 0.96534 0.26405 0.0
C1419 C 0.39098 0.97166 0.30098 0.0
C1420 C 0.36888 0.97831 0.28852 0.0
C1421 C 0.35865 0.97835 0.24003 0.0
C1422 C 0.42622 0.95798 0.2761 0.0
C1423 C 0.35604 0.98539 0.32637 0.0
H1424 H 0.39348 0.95788 0.4608 0.0
H1425 H 0.45503 0.98028 0.42268 0.0
H1426 H 0.34838 0.96233 0.35954 0.0
H1427 H 0.37182 0.95219 0.34431 0.0
H1428 H 0.35805 0.95303 0.40607 0.0
H1429 H 0.45317 0.98992 0.34882 0.0
H1430 H 0.44702 0.98089 0.29953 0.0
H1431 H 0.42105 0.99013 0.31509 0.0
H1432 H 0.40184 0.96087 0.18727 0.0
H1433 H 0.3414 0.98331 0.23065 0.0
H1434 H 0.41966 0.95259 0.30577 0.0
H1435 H 0.4443 0.96232 0.29013 0.0
H1436 H 0.43278 0.95339 0.24351 0.0
H1437 H 0.34658 0.98077 0.35644 0.0
H1438 H 0.33992 0.99046 0.31009 0.0
H1439 H 0.37217 0.99031 0.34341 0.0
C1440 C 0.64779 0.72296 0.02099 0.0
C1441 C 0.63642 0.71427 0.99802 0.0
C1442 C 0.63868 0.72605 0.06803 0.0
C1443 C 0.61755 0.72036 0.09187 0.0
C1444 C 0.60441 0.71216 0.06655 0.0
C1445 C 0.61428 0.70913 0.02021 0.0
C1446 C 0.6533 0.73481 0.09361 0.0
C1447 C 0.58134 0.70602 0.08999 0.0
C1448 C 0.61576 0.71388 0.2272 0.0
C1449 C 0.59269 0.71946 0.24291 0.0
C1450 C 0.62595 0.715 0.17914 0.0
C1451 C 0.61211 0.72161 0.14559 0.0
C1452 C 0.59014 0.7279 0.16257 0.0
C1453 C 0.58076 0.7268 0.2115 0.0
C1454 C 0.64996 0.70836 0.1631 0.0
C1455 C 0.57491 0.73506 0.12808 0.0
H1456 H 0.66507 0.7269 0.00391 0.0
H1457 H 0.60534 0.70247 0.00207 0.0
H1458 H 0.63881 0.73943 0.11635 0.0
H1459 H 0.66929 0.73161 0.11865 0.0
H1460 H 0.66366 0.74 0.06665 0.0
H1461 H 0.5709 0.70089 0.063 0.0
H1462 H 0.58981 0.70117 0.12021 0.0
H1463 H 0.56573 0.71125 0.10641 0.0
H1464 H 0.62501 0.70825 0.25187 0.0
H1465 H 0.56277 0.73106 0.22381 0.0
H1466 H 0.66496 0.71296 0.14133 0.0
H1467 H 0.64233 0.70204 0.13908 0.0
H1468 H 0.66088 0.70485 0.19508 0.0
H1469 H 0.58944 0.73912 0.10304 0.0
H1470 H 0.5626 0.74088 0.14864 0.0
H1471 H 0.56063 0.73048 0.10477 0.0
C1472 C 0.57594 0.57341 0.04582 0.0
C1473 C 0.5839 0.58211 0.01852 0.0
C1474 C 0.58449 0.57219 0.09517 0.0
C1475 C 0.60186 0.57974 0.11675 0.0
C1476 C 0.61134 0.58816 0.08789 0.0
C1477 C 0.60186 0.58931 0.03941 0.0
C1478 C 0.57354 0.56323 0.12489 0.0
C1479 C 0.63048 0.59624 0.1089 0.0
C1480 C 0.60171 0.58849 0.24904 0.0
C1481 C 0.62707 0.58467 0.26563 0.0
C1482 C 0.59167 0.58592 0.20217 0.0
C1483 C 0.60792 0.57969 0.17058 0.0
C1484 C 0.6325 0.57513 0.18878 0.0
C1485 C 0.64166 0.5776 0.23658 0.0
C1486 C 0.5649 0.59068 0.18486 0.0
C1487 C 0.65055 0.56852 0.15628 0.0
H1488 H 0.56191 0.56786 0.02949 0.0
H1489 H 0.60824 0.59597 0.01788 0.0
H1490 H 0.59011 0.5597 0.14758 0.0
H1491 H 0.55738 0.56604 0.1506 0.0
H1492 H 0.56432 0.55719 0.10094 0.0
H1493 H 0.63838 0.60158 0.08003 0.0
H1494 H 0.61934 0.60086 0.13704 0.0
H1495 H 0.64833 0.59253 0.12746 0.0
H1496 H 0.59035 0.59389 0.27188 0.0
H1497 H 0.66136 0.57467 0.24945 0.0
H1498 H 0.55229 0.58494 0.16457 0.0
H1499 H 0.56942 0.59714 0.15913 0.0
H1500 H 0.55255 0.59375 0.21613 0.0
H1501 H 0.63797 0.56315 0.13373 0.0
H1502 H 0.66565 0.56397 0.17826 0.0
H1503 H 0.66219 0.57356 0.13045 0.0
C1504 C 0.37314 0.33176 0.00325 0.0
C1505 C 0.35605 0.34024 0.01342 0.0
C1506 C 0.38901 0.33141 0.9597 0.0
C1507 C 0.38761 0.3397 0.92559 0.0
C1508 C 0.37105 0.3484 0.93651 0.0
C1509 C 0.35562 0.34857 0.98026 0.0
C1510 C 0.4067 0.32206 0.94957 0.0
C1511 C 0.36897 0.35742 0.90124 0.0
C1512 C 0.44154 0.34473 0.82671 0.0
C1513 C 0.42824 0.34109 0.78412 0.0
C1514 C 0.4292 0.34383 0.87344 0.0
C1515 C 0.40274 0.3393 0.87769 0.0
C1516 C 0.3896 0.33529 0.83509 0.0
C1517 C 0.40259 0.33617 0.78885 0.0
C1518 C 0.44405 0.34808 0.91801 0.0
C1519 C 0.36128 0.33047 0.83799 0.0
H1520 H 0.37357 0.32528 0.02861 0.0
H1521 H 0.34264 0.3552 0.98785 0.0
H1522 H 0.39875 0.31794 0.91662 0.0
H1523 H 0.42818 0.32446 0.94118 0.0
H1524 H 0.40702 0.3166 0.98124 0.0
H1525 H 0.35559 0.36369 0.9157 0.0
H1526 H 0.38976 0.36065 0.89385 0.0
H1527 H 0.36043 0.35478 0.86538 0.0
H1528 H 0.46153 0.34842 0.82352 0.0
H1529 H 0.39221 0.3333 0.75617 0.0
H1530 H 0.44433 0.3423 0.94825 0.0
H1531 H 0.43292 0.35497 0.93196 0.0
H1532 H 0.46563 0.35035 0.9094 0.0
H1533 H 0.36083 0.32439 0.86685 0.0
H1534 H 0.35479 0.32703 0.80229 0.0
H1535 H 0.34595 0.33643 0.84865 0.0
C1536 C 0.38735 0.46376 0.00259 0.0
C1537 C 0.40838 0.45654 0.01068 0.0
C1538 C 0.37506 0.46475 0.95572 0.0
C1539 C 0.38453 0.45852 0.91614 0.0
C1540 C 0.40689 0.45169 0.92367 0.0
C1541 C 0.41832 0.4507 0.97093 0.0
C1542 C 0.35103 0.47204 0.9492 0.0
C1543 C 0.41802 0.44507 0.8823 0.0
C1544 C 0.33554 0.45043 0.81419 0.0
C1545 C 0.34294 0.4571 0.77559 0.0
C1546 C 0.34842 0.45103 0.86043 0.0
C1547 C 0.3696 0.45838 0.86813 0.0
C1548 C 0.37733 0.46511 0.82927 0.0
C1549 C 0.36375 0.46445 0.7835 0.0
C1550 C 0.33939 0.44377 0.90106 0.0
C1551 C 0.40018 0.4729 0.83583 0.0
H1552 H 0.37966 0.46827 0.03334 0.0
H1553 H 0.43491 0.44523 0.97693 0.0
H1554 H 0.35428 0.47705 0.91649 0.0
H1555 H 0.33194 0.46752 0.94254 0.0
H1556 H 0.34779 0.47699 0.98215 0.0
H1557 H 0.4373 0.44099 0.89293 0.0
H1558 H 0.40239 0.43922 0.87177 0.0
H1559 H 0.42223 0.44986 0.84913 0.0
H1560 H 0.31928 0.44481 0.80861 0.0
H1561 H 0.36953 0.46965 0.75384 0.0
H1562 H 0.33356 0.44822 0.93446 0.0
H1563 H 0.35673 0.43862 0.91149 0.0
H1564 H 0.32157 0.43891 0.88993 0.0
H1565 H 0.39559 0.478 0.86766 0.0
H1566 H 0.40319 0.47777 0.80243 0.0
H1567 H 0.41983 0.46886 0.84416 0.0
C1568 C 0.80281 0.19232 0.41397 0.0
C1569 C 0.78803 0.2013 0.42556 0.0
C1570 C 0.83159 0.19258 0.40874 0.0
C1571 C 0.84572 0.20204 0.41511 0.0
C1572 C 0.83116 0.21088 0.4313 0.0
C1573 C 0.80243 0.21039 0.43646 0.0
C1574 C 0.8465 0.18294 0.39239 0.0
C1575 C 0.84551 0.2211 0.43876 0.0
C1576 C 0.92385 0.203 0.41866 0.0
C1577 C 0.9302 0.20585 0.36985 0.0
C1578 C 0.89648 0.20151 0.43377 0.0
C1579 C 0.87493 0.20302 0.39941 0.0
C1580 C 0.88115 0.20582 0.35 0.0
C1581 C 0.90875 0.20719 0.3358 0.0
C1582 C 0.89061 0.19854 0.48672 0.0
C1583 C 0.85862 0.20751 0.3123 0.0
H1584 H 0.79167 0.18528 0.40576 0.0
H1585 H 0.79107 0.21738 0.4448 0.0
H1586 H 0.8526 0.18376 0.35306 0.0
H1587 H 0.86565 0.18181 0.41418 0.0
H1588 H 0.83339 0.17595 0.39614 0.0
H1589 H 0.83203 0.22681 0.45756 0.0
H1590 H 0.8646 0.22009 0.46085 0.0
H1591 H 0.85163 0.22431 0.40233 0.0
H1592 H 0.94027 0.20217 0.44556 0.0
H1593 H 0.91355 0.20933 0.29804 0.0
H1594 H 0.87745 0.19154 0.48804 0.0
H1595 H 0.87904 0.20482 0.50523 0.0
H1596 H 0.90979 0.19702 0.508 0.0
H1597 H 0.84577 0.20047 0.30899 0.0
H1598 H 0.86695 0.20949 0.27524 0.0
H1599 H 0.84487 0.21386 0.32456 0.0
C1600 C 0.43082 0.10819 0.42493 0.0
C1601 C 0.44982 0.11214 0.39082 0.0
C1602 C 0.40238 0.10911 0.41648 0.0
C1603 C 0.39296 0.11403 0.37282 0.0
C1604 C 0.41195 0.11932 0.34229 0.0
C1605 C 0.44026 0.11838 0.35193 0.0
C1606 C 0.38267 0.10367 0.45097 0.0
C1607 C 0.40275 0.12485 0.29606 0.0
C1608 C 0.33353 0.09899 0.31894 0.0
C1609 C 0.31093 0.10475 0.33518 0.0
C1610 C 0.3605 0.1024 0.32772 0.0
C1611 C 0.36481 0.11168 0.35432 0.0
C1612 C 0.34198 0.1179 0.36757 0.0
C1613 C 0.31517 0.11434 0.35767 0.0
C1614 C 0.38431 0.09563 0.31192 0.0
C1615 C 0.34561 0.12781 0.39591 0.0
H1616 H 0.43805 0.10343 0.45524 0.0
H1617 H 0.45498 0.12166 0.32611 0.0
H1618 H 0.36409 0.10846 0.45771 0.0
H1619 H 0.37577 0.09634 0.43379 0.0
H1620 H 0.39249 0.10182 0.48701 0.0
H1621 H 0.41859 0.13042 0.28299 0.0
H1622 H 0.39922 0.1191 0.26638 0.0
H1623 H 0.38306 0.12902 0.3022 0.0
H1624 H 0.33006 0.09152 0.30202 0.0
H1625 H 0.29753 0.11868 0.37097 0.0
H1626 H 0.39423 0.09219 0.34503 0.0
H1627 H 0.40015 0.10027 0.29236 0.0
H1628 H 0.37757 0.08927 0.28726 0.0
H1629 H 0.34859 0.12599 0.43561 0.0
H1630 H 0.32719 0.13287 0.39248 0.0
H1631 H 0.36405 0.13213 0.38313 0.0
C1632 C 0.82249 0.08574 0.80558 0.0
C1633 C 0.80238 0.09327 0.81405 0.0
C1634 C 0.85002 0.08748 0.81877 0.0
C1635 C 0.85731 0.09693 0.84145 0.0
C1636 C 0.83754 0.10492 0.84564 0.0
C1637 C 0.81016 0.10299 0.83165 0.0
C1638 C 0.87066 0.07884 0.81271 0.0
C1639 C 0.84461 0.11512 0.86925 0.0
C1640 C 0.91456 0.0937 0.93537 0.0
C1641 C 0.93762 0.09683 0.90805 0.0
C1642 C 0.888 0.09422 0.91489 0.0
C1643 C 0.88457 0.09788 0.86587 0.0
C1644 C 0.90758 0.10152 0.83904 0.0
C1645 C 0.93384 0.10092 0.8604 0.0
C1646 C 0.86379 0.09038 0.94484 0.0
C1647 C 0.90476 0.10544 0.78671 0.0
H1648 H 0.81624 0.0782 0.79234 0.0
H1649 H 0.79441 0.10875 0.83886 0.0
H1650 H 0.89014 0.08178 0.79647 0.0
H1651 H 0.87567 0.07553 0.84948 0.0
H1652 H 0.86261 0.07255 0.78888 0.0
H1653 H 0.82851 0.12105 0.86211 0.0
H1654 H 0.84649 0.11405 0.90979 0.0
H1655 H 0.86472 0.11805 0.85554 0.0
H1656 H 0.9174 0.09059 0.97221 0.0
H1657 H 0.9516 0.10316 0.83853 0.0
H1658 H 0.85533 0.08328 0.92768 0.0
H1659 H 0.84706 0.09622 0.94509 0.0
H1660 H 0.86959 0.08858 0.98361 0.0
H1661 H 0.90031 0.09887 0.76174 0.0
H1662 H 0.92384 0.10932 0.7736 0.0
H1663 H 0.88727 0.11093 0.78364 0.0
C1664 C 0.40854 0.2036 0.83798 0.0
C1665 C 0.43083 0.20211 0.87007 0.0
C1666 C 0.38134 0.2023 0.85449 0.0
C1667 C 0.37639 0.19942 0.90426 0.0
C1668 C 0.39879 0.1977 0.93658 0.0
C1669 C 0.42575 0.19911 0.91918 0.0
C1670 C 0.35787 0.2042 0.8189 0.0
C1671 C 0.39427 0.19463 0.98983 0.0
C1672 C 0.30527 0.20748 0.94519 0.0
C1673 C 0.29004 0.19861 0.9338 0.0
C1674 C 0.334 0.20762 0.93959 0.0
C1675 C 0.34762 0.19865 0.92246 0.0
C1676 C 0.3327 0.18936 0.91638 0.0
C1677 C 0.30396 0.18945 0.92211 0.0
C1678 C 0.34924 0.21766 0.94694 0.0
C1679 C 0.34662 0.17959 0.89914 0.0
H1680 H 0.41239 0.20585 0.8 0.0
H1681 H 0.44285 0.19817 0.94457 0.0
H1682 H 0.34455 0.19726 0.81659 0.0
H1683 H 0.34484 0.21064 0.83249 0.0
H1684 H 0.36526 0.20615 0.78117 0.0
H1685 H 0.41392 0.19275 0.00898 0.0
H1686 H 0.38407 0.20104 0.0099 0.0
H1687 H 0.38037 0.18785 0.99211 0.0
H1688 H 0.29458 0.2146 0.9538 0.0
H1689 H 0.29215 0.18257 0.91363 0.0
H1690 H 0.35462 0.22098 0.91037 0.0
H1691 H 0.36879 0.21638 0.96735 0.0
H1692 H 0.33661 0.2234 0.96739 0.0
H1693 H 0.35161 0.18029 0.85927 0.0
H1694 H 0.33322 0.17271 0.90434 0.0
H1695 H 0.3663 0.17833 0.9192 0.0
C1696 C 0.17147 0.84983 0.62483 0.0
C1697 C 0.19159 0.8476 0.66041 0.0
C1698 C 0.1433 0.84921 0.63655 0.0
C1699 C 0.13518 0.84638 0.68503 0.0
C1700 C 0.15533 0.84458 0.72161 0.0
C1701 C 0.18323 0.84508 0.70875 0.0
C1702 C 0.12222 0.85114 0.59651 0.0
C1703 C 0.14748 0.84158 0.77372 0.0
C1704 C 0.05937 0.85032 0.71347 0.0
C1705 C 0.04882 0.84063 0.7008 0.0
C1706 C 0.08786 0.8522 0.71129 0.0
C1707 C 0.10579 0.8442 0.69586 0.0
C1708 C 0.09529 0.83418 0.68717 0.0
C1709 C 0.06684 0.83252 0.68987 0.0
C1710 C 0.09848 0.86292 0.72183 0.0
C1711 C 0.11378 0.82542 0.67108 0.0
H1712 H 0.17774 0.85185 0.58761 0.0
H1713 H 0.19847 0.84304 0.73637 0.0
H1714 H 0.11092 0.84389 0.58851 0.0
H1715 H 0.10682 0.8569 0.60905 0.0
H1716 H 0.13182 0.85395 0.56172 0.0
H1717 H 0.16539 0.84187 0.7993 0.0
H1718 H 0.13109 0.84675 0.78804 0.0
H1719 H 0.13911 0.83361 0.77393 0.0
H1720 H 0.04524 0.8566 0.72125 0.0
H1721 H 0.05842 0.82506 0.67977 0.0
H1722 H 0.10451 0.86669 0.68662 0.0
H1723 H 0.11712 0.86259 0.74557 0.0
H1724 H 0.08266 0.86779 0.7402 0.0
H1725 H 0.12213 0.82708 0.63374 0.0
H1726 H 0.10264 0.81793 0.66977 0.0
H1727 H 0.13159 0.82463 0.69652 0.0
C1728 C 0.58469 0.96049 0.60722 0.0
C1729 C 0.56145 0.95903 0.63702 0.0
C1730 C 0.61107 0.96114 0.62814 0.0
C1731 C 0.61414 0.96042 0.68017 0.0
C1732 C 0.59072 0.95903 0.71049 0.0
C1733 C 0.56461 0.95834 0.68851 0.0
C1734 C 0.63568 0.96256 0.59451 0.0
C1735 C 0.59323 0.95837 0.76599 0.0
C1736 C 0.68721 0.95299 0.70863 0.0
C1737 C 0.6995 0.96274 0.70998 0.0
C1738 C 0.65853 0.95201 0.70463 0.0
C1739 C 0.64214 0.96104 0.70198 0.0
C1740 C 0.65426 0.97082 0.71049 0.0
C1741 C 0.68303 0.97156 0.71424 0.0
C1742 C 0.64638 0.94143 0.69629 0.0
C1743 C 0.63742 0.98061 0.70894 0.0
H1744 H 0.58221 0.96102 0.56749 0.0
H1745 H 0.54654 0.95744 0.71174 0.0
H1746 H 0.64669 0.96979 0.60407 0.0
H1747 H 0.65042 0.9561 0.59964 0.0
H1748 H 0.62971 0.96291 0.55492 0.0
H1749 H 0.57298 0.95707 0.78423 0.0
H1750 H 0.60737 0.95199 0.77643 0.0
H1751 H 0.6023 0.96561 0.78056 0.0
H1752 H 0.70017 0.94621 0.70473 0.0
H1753 H 0.69275 0.9791 0.71466 0.0
H1754 H 0.64263 0.94034 0.6562 0.0
H1755 H 0.62631 0.9406 0.71556 0.0
H1756 H 0.66052 0.93523 0.70913 0.0
H1757 H 0.63313 0.98267 0.66989 0.0
H1758 H 0.64855 0.98715 0.72636 0.0
H1759 H 0.61731 0.97955 0.72784 0.0
C1760 C 0.08671 0.95599 0.11303 0.0
C1761 C 0.06435 0.95441 0.14492 0.0
C1762 C 0.11354 0.95713 0.13156 0.0
C1763 C 0.11818 0.95646 0.18319 0.0
C1764 C 0.09598 0.95437 0.21541 0.0
C1765 C 0.06929 0.95355 0.19602 0.0
C1766 C 0.13679 0.95941 0.09597 0.0
C1767 C 0.10016 0.95341 0.27051 0.0
C1768 C 0.19437 0.95404 0.20724 0.0
C1769 C 0.20157 0.96448 0.20989 0.0
C1770 C 0.16657 0.9511 0.20404 0.0
C1771 C 0.14595 0.95883 0.20303 0.0
C1772 C 0.15305 0.96922 0.21262 0.0
C1773 C 0.18091 0.97191 0.21645 0.0
C1774 C 0.15961 0.93988 0.19601 0.0
C1775 C 0.13167 0.9777 0.21235 0.0
H1776 H 0.0832 0.9565 0.07357 0.0
H1777 H 0.05219 0.95257 0.22138 0.0
H1778 H 0.14597 0.96704 0.10462 0.0
H1779 H 0.15334 0.95355 0.09996 0.0
H1780 H 0.12979 0.95948 0.05689 0.0
H1781 H 0.0822 0.94971 0.28889 0.0
H1782 H 0.11897 0.94885 0.27898 0.0
H1783 H 0.10298 0.96119 0.28669 0.0
H1784 H 0.21037 0.94828 0.20228 0.0
H1785 H 0.18663 0.97999 0.219 0.0
H1786 H 0.15609 0.93851 0.15606 0.0
H1787 H 0.14042 0.93774 0.21592 0.0
H1788 H 0.17661 0.93474 0.20845 0.0
H1789 H 0.12472 0.97909 0.17383 0.0
H1790 H 0.13996 0.98505 0.22732 0.0
H1791 H 0.11331 0.97544 0.23427 0.0
C1792 C 0.54762 0.84857 0.07508 0.0
C1793 C 0.54053 0.85205 0.12258 0.0
C1794 C 0.57499 0.84647 0.06237 0.0
C1795 C 0.59586 0.84776 0.09816 0.0
C1796 C 0.5891 0.85156 0.14574 0.0
C1797 C 0.5614 0.85363 0.15751 0.0
C1798 C 0.58132 0.84235 0.01143 0.0
C1799 C 0.61098 0.85305 0.18475 0.0
C1800 C 0.65918 0.83079 0.09124 0.0
C1801 C 0.679 0.8377 0.07326 0.0
C1802 C 0.63183 0.83392 0.09826 0.0
C1803 C 0.62428 0.84421 0.08721 0.0
C1804 C 0.64389 0.85107 0.06652 0.0
C1805 C 0.67115 0.8477 0.05962 0.0
C1806 C 0.61135 0.82632 0.11956 0.0
C1807 C 0.63644 0.86208 0.05405 0.0
H1808 H 0.53157 0.84702 0.04821 0.0
H1809 H 0.55601 0.8563 0.19418 0.0
H1810 H 0.59861 0.8467 0.99447 0.0
H1811 H 0.58789 0.83416 0.01426 0.0
H1812 H 0.56319 0.84278 0.9864 0.0
H1813 H 0.60272 0.85685 0.21839 0.0
H1814 H 0.61968 0.84544 0.19546 0.0
H1815 H 0.62819 0.85777 0.16991 0.0
H1816 H 0.66544 0.82306 0.10185 0.0
H1817 H 0.68667 0.85306 0.04641 0.0
H1818 H 0.59285 0.82582 0.09556 0.0
H1819 H 0.60435 0.82903 0.15636 0.0
H1820 H 0.62026 0.81847 0.12376 0.0
H1821 H 0.61787 0.8623 0.03011 0.0
H1822 H 0.65353 0.86619 0.03499 0.0
H1823 H 0.63132 0.86631 0.08844 0.0
C1824 C 0.80609 0.68993 0.9268 0.0
C1825 C 0.79076 0.69909 0.92738 0.0
C1826 C 0.83489 0.69016 0.92098 0.0
C1827 C 0.84835 0.69976 0.9139 0.0
C1828 C 0.8329 0.70903 0.91522 0.0
C1829 C 0.8043 0.70858 0.92253 0.0
C1830 C 0.85082 0.68015 0.92137 0.0
C1831 C 0.84637 0.7194 0.90692 0.0
C1832 C 0.9248 0.7031 0.93703 0.0
C1833 C 0.93599 0.70243 0.88913 0.0
C1834 C 0.89656 0.70178 0.94571 0.0
C1835 C 0.87863 0.70018 0.90538 0.0
C1836 C 0.8895 0.69955 0.85687 0.0
C1837 C 0.91811 0.70056 0.84936 0.0
C1838 C 0.88585 0.70235 0.99808 0.0
C1839 C 0.87085 0.69808 0.8128 0.0
H1840 H 0.79543 0.6826 0.92984 0.0
H1841 H 0.79225 0.71563 0.92168 0.0
H1842 H 0.86037 0.67885 0.88467 0.0
H1843 H 0.8678 0.68055 0.94879 0.0
H1844 H 0.8375 0.67343 0.93038 0.0
H1845 H 0.83135 0.72586 0.90881 0.0
H1846 H 0.86268 0.72072 0.93493 0.0
H1847 H 0.85648 0.71954 0.87014 0.0
H1848 H 0.93797 0.70492 0.96811 0.0
H1849 H 0.92638 0.69996 0.81231 0.0
H1850 H 0.87259 0.69557 0.00626 0.0
H1851 H 0.87293 0.70935 0.00262 0.0
H1852 H 0.90279 0.70261 0.02569 0.0
H1853 H 0.8586 0.6909 0.81717 0.0
H1854 H 0.88254 0.69764 0.77756 0.0
H1855 H 0.85601 0.70458 0.81039 0.0
C1856 C 0.42045 0.59339 0.90359 0.0
C1857 C 0.43971 0.59077 0.86705 0.0
C1858 C 0.39205 0.59358 0.89297 0.0
C1859 C 0.3828 0.59122 0.8446 0.0
C1860 C 0.4021 0.58856 0.80768 0.0
C1861 C 0.43019 0.58823 0.81951 0.0
C1862 C 0.37192 0.59629 0.93347 0.0
C1863 C 0.39309 0.58605 0.75564 0.0
C1864 C 0.3084 0.58273 0.82919 0.0
C1865 C 0.29551 0.59205 0.81664 0.0
C1866 C 0.33693 0.5823 0.83762 0.0
C1867 C 0.35289 0.59139 0.83263 0.0
C1868 C 0.34019 0.60069 0.81707 0.0
C1869 C 0.31154 0.60093 0.80972 0.0
C1870 C 0.34968 0.57226 0.85452 0.0
C1871 C 0.35667 0.61047 0.81011 0.0
H1872 H 0.42758 0.59535 0.94033 0.0
H1873 H 0.44471 0.58584 0.79134 0.0
H1874 H 0.36004 0.60328 0.92301 0.0
H1875 H 0.35686 0.58993 0.9385 0.0
H1876 H 0.38237 0.59775 0.96931 0.0
H1877 H 0.41084 0.58451 0.73075 0.0
H1878 H 0.37951 0.57916 0.75586 0.0
H1879 H 0.38091 0.59255 0.74012 0.0
H1880 H 0.29591 0.57592 0.83561 0.0
H1881 H 0.30146 0.60815 0.80037 0.0
H1882 H 0.35772 0.57315 0.89265 0.0
H1883 H 0.36741 0.5702 0.83059 0.0
H1884 H 0.33465 0.56579 0.85415 0.0
H1885 H 0.36512 0.61301 0.84616 0.0
H1886 H 0.34403 0.61683 0.79441 0.0
H1887 H 0.37447 0.60903 0.78523 0.0
C1888 C 0.90171 0.59054 0.4122 0.0
C1889 C 0.92372 0.59167 0.3792 0.0
C1890 C 0.87438 0.59198 0.3963 0.0
C1891 C 0.86909 0.59452 0.34618 0.0
C1892 C 0.89122 0.59536 0.31246 0.0
C1893 C 0.91826 0.59392 0.32938 0.0
C1894 C 0.85121 0.59101 0.43331 0.0
C1895 C 0.88638 0.5979 0.25869 0.0
C1896 C 0.79526 0.5901 0.30563 0.0
C1897 C 0.78371 0.59989 0.31329 0.0
C1898 C 0.82345 0.58833 0.31359 0.0
C1899 C 0.8404 0.59656 0.32957 0.0
C1900 C 0.8293 0.60664 0.33335 0.0
C1901 C 0.80103 0.60819 0.3251 0.0
C1902 C 0.83457 0.57749 0.30865 0.0
C1903 C 0.84681 0.61564 0.34971 0.0
H1904 H 0.90591 0.58878 0.45064 0.0
H1905 H 0.93525 0.59457 0.3035 0.0
H1906 H 0.8401 0.59847 0.43634 0.0
H1907 H 0.83607 0.58516 0.42062 0.0
H1908 H 0.85873 0.58876 0.47056 0.0
H1909 H 0.9058 0.5979 0.23688 0.0
H1910 H 0.87191 0.59225 0.24216 0.0
H1911 H 0.87665 0.60562 0.25539 0.0
H1912 H 0.7819 0.58361 0.29733 0.0
H1913 H 0.79211 0.61576 0.331 0.0
H1914 H 0.83877 0.57429 0.34592 0.0
H1915 H 0.85434 0.57749 0.28799 0.0
H1916 H 0.81978 0.5723 0.28957 0.0
H1917 H 0.85278 0.61458 0.38896 0.0
H1918 H 0.83575 0.62312 0.34608 0.0
H1919 H 0.8661 0.61602 0.32773 0.0
C1920 C 0.31581 0.70066 0.41087 0.0
C1921 C 0.29609 0.70133 0.37303 0.0
C1922 C 0.3442 0.70077 0.40007 0.0
C1923 C 0.35306 0.70129 0.35023 0.0
C1924 C 0.33338 0.70159 0.31187 0.0
C1925 C 0.30529 0.70183 0.32371 0.0
C1926 C 0.36471 0.70066 0.44203 0.0
C1927 C 0.34197 0.70197 0.25822 0.0
C1928 C 0.42328 0.71295 0.32397 0.0
C1929 C 0.43989 0.70414 0.32107 0.0
C1930 C 0.3949 0.71212 0.33305 0.0
C1931 C 0.38286 0.70222 0.33817 0.0
C1932 C 0.39935 0.69328 0.33235 0.0
C1933 C 0.42786 0.69435 0.32469 0.0
C1934 C 0.37812 0.72184 0.3398 0.0
C1935 C 0.38706 0.6826 0.3359 0.0
H1936 H 0.30912 0.70019 0.44899 0.0
H1937 H 0.29062 0.70274 0.29388 0.0
H1938 H 0.37918 0.69409 0.43777 0.0
H1939 H 0.3772 0.70783 0.44118 0.0
H1940 H 0.35452 0.70004 0.47868 0.0
H1941 H 0.32418 0.70099 0.23278 0.0
H1942 H 0.35193 0.70948 0.25007 0.0
H1943 H 0.35734 0.69584 0.25033 0.0
H1944 H 0.43283 0.72052 0.32243 0.0
H1945 H 0.44093 0.68757 0.32319 0.0
H1946 H 0.36941 0.72203 0.37771 0.0
H1947 H 0.36051 0.72195 0.31367 0.0
H1948 H 0.39059 0.72893 0.33396 0.0
H1949 H 0.37965 0.68118 0.37408 0.0
H1950 H 0.4022 0.6765 0.32615 0.0
H1951 H 0.36896 0.68194 0.311 0.0
C1952 C 0.18815 0.33809 0.01522 0.0
C1953 C 0.20136 0.32882 0.02677 0.0
C1954 C 0.15937 0.33888 0.01852 0.0
C1955 C 0.14392 0.33018 0.03389 0.0
C1956 C 0.15698 0.32046 0.03874 0.0
C1957 C 0.18575 0.3199 0.03501 0.0
C1958 C 0.14608 0.34933 0.01188 0.0
C1959 C 0.14121 0.31096 0.05436 0.0
C1960 C 0.08554 0.33644 0.12201 0.0
C1961 C 0.06262 0.33583 0.09081 0.0
C1962 C 0.11211 0.33437 0.10399 0.0
C1963 C 0.11568 0.33166 0.05362 0.0
C1964 C 0.09252 0.33069 0.02242 0.0
C1965 C 0.06624 0.33273 0.04148 0.0
C1966 C 0.13644 0.33536 0.13855 0.0
C1967 C 0.09556 0.32778 0.9687 0.0
H1968 H 0.20042 0.34499 0.00939 0.0
H1969 H 0.19622 0.31275 0.04437 0.0
H1970 H 0.12618 0.34865 0.99192 0.0
H1971 H 0.14171 0.35271 0.04871 0.0
H1972 H 0.15971 0.35473 0.99133 0.0
H1973 H 0.15292 0.30379 0.04621 0.0
H1974 H 0.13742 0.31128 0.09476 0.0
H1975 H 0.12086 0.31056 0.03572 0.0
H1976 H 0.08279 0.33882 0.16004 0.0
H1977 H 0.04843 0.332 0.0175 0.0
H1978 H 0.15036 0.34159 0.12538 0.0
H1979 H 0.14851 0.32809 0.1389 0.0
H1980 H 0.13002 0.33716 0.17698 0.0
H1981 H 0.10692 0.33394 0.94877 0.0
H1982 H 0.07529 0.32664 0.95033 0.0
H1983 H 0.10781 0.32059 0.96507 0.0
C1984 C 0.5601 0.45054 0.20071 0.0
C1985 C 0.55141 0.44726 0.15371 0.0
C1986 C 0.58787 0.45251 0.21071 0.0
C1987 C 0.60747 0.45135 0.17261 0.0
C1988 C 0.59919 0.44759 0.12576 0.0
C1989 C 0.57116 0.44559 0.11681 0.0
C1990 C 0.59588 0.45654 0.26106 0.0
C1991 C 0.6197 0.44623 0.08431 0.0
C1992 C 0.66916 0.46911 0.16971 0.0
C1993 C 0.69043 0.46243 0.18388 0.0
C1994 C 0.64186 0.46566 0.16761 0.0
C1995 C 0.63586 0.45528 0.17984 0.0
C1996 C 0.65706 0.44868 0.1972 0.0
C1997 C 0.68426 0.45237 0.1991 0.0
C1998 C 0.61971 0.47298 0.14973 0.0
C1999 C 0.65127 0.4376 0.21097 0.0
H2000 H 0.54501 0.45213 0.22924 0.0
H2001 H 0.5646 0.44302 0.08059 0.0
H2002 H 0.61448 0.45249 0.27507 0.0
H2003 H 0.60103 0.46486 0.25825 0.0
H2004 H 0.57898 0.45562 0.28847 0.0
H2005 H 0.61051 0.44226 0.05192 0.0
H2006 H 0.62736 0.4539 0.07222 0.0
H2007 H 0.6378 0.44173 0.09724 0.0
H2008 H 0.67416 0.47688 0.15783 0.0
H2009 H 0.7009 0.4472 0.20939 0.0
H2010 H 0.60237 0.47322 0.17645 0.0
H2011 H 0.61129 0.47021 0.11403 0.0
H2012 H 0.62762 0.48095 0.14444 0.0
H2013 H 0.63345 0.43713 0.23661 0.0
H2014 H 0.66938 0.43384 0.22859 0.0
H2015 H 0.64573 0.4332 0.17731 0.0
C2016 C 0.07062 0.44659 0.60799 0.0
C2017 C 0.04944 0.44824 0.64231 0.0
C2018 C 0.09835 0.44808 0.62126 0.0
C2019 C 0.10493 0.45126 0.66995 0.0
C2020 C 0.0838 0.4524 0.70535 0.0
C2021 C 0.05636 0.45099 0.69102 0.0
C2022 C 0.1205 0.44679 0.58254 0.0
C2023 C 0.08996 0.45578 0.75761 0.0
C2024 C 0.18041 0.45068 0.7073 0.0
C2025 C 0.18835 0.46078 0.69575 0.0
C2026 C 0.15297 0.44749 0.70067 0.0
C2027 C 0.13335 0.45461 0.68214 0.0
C2028 C 0.14102 0.465 0.67365 0.0
C2029 C 0.16848 0.46795 0.68061 0.0
C2030 C 0.14536 0.43639 0.71077 0.0
C2031 C 0.12059 0.47287 0.65456 0.0
H2032 H 0.06547 0.44442 0.57047 0.0
H2033 H 0.04025 0.45259 0.71769 0.0
H2034 H 0.12962 0.45442 0.57366 0.0
H2035 H 0.13736 0.44181 0.59678 0.0
H2036 H 0.11234 0.44335 0.54793 0.0
H2037 H 0.07178 0.45489 0.78229 0.0
H2038 H 0.10737 0.45127 0.77318 0.0
H2039 H 0.09618 0.46401 0.75758 0.0
H2040 H 0.19596 0.44512 0.71839 0.0
H2041 H 0.17482 0.47576 0.67165 0.0
H2042 H 0.14089 0.43243 0.67536 0.0
H2043 H 0.12639 0.43596 0.73363 0.0
H2044 H 0.16217 0.43215 0.72995 0.0
H2045 H 0.11344 0.47059 0.61719 0.0
H2046 H 0.12962 0.48073 0.65227 0.0
H2047 H 0.10218 0.47315 0.67886 0.0
C2048 C 0.56707 0.32676 0.55556 0.0
C2049 C 0.56296 0.33071 0.60334 0.0
C2050 C 0.59366 0.32528 0.53664 0.0
C2051 C 0.61663 0.32766 0.56653 0.0
C2052 C 0.61262 0.33082 0.6162 0.0
C2053 C 0.58573 0.33233 0.63404 0.0
C2054 C 0.59705 0.32186 0.4837 0.0
C2055 C 0.63675 0.33322 0.64954 0.0
C2056 C 0.69082 0.32067 0.54121 0.0
C2057 C 0.70156 0.33044 0.53032 0.0
C2058 C 0.66244 0.31934 0.54891 0.0
C2059 C 0.64474 0.32798 0.54491 0.0
C2060 C 0.65519 0.33751 0.52723 0.0
C2061 C 0.68367 0.33865 0.52052 0.0
C2062 C 0.65211 0.30903 0.56712 0.0
C2063 C 0.63682 0.34683 0.52102 0.0
H2064 H 0.5494 0.32524 0.53212 0.0
H2065 H 0.5826 0.33533 0.67098 0.0
H2066 H 0.60333 0.32857 0.46077 0.0
H2067 H 0.6135 0.31595 0.48044 0.0
H2068 H 0.57759 0.31867 0.46831 0.0
H2069 H 0.63021 0.33458 0.68833 0.0
H2070 H 0.65186 0.32679 0.64902 0.0
H2071 H 0.64751 0.34023 0.63592 0.0
H2072 H 0.70486 0.31438 0.5495 0.0
H2073 H 0.69219 0.34622 0.51264 0.0
H2074 H 0.63152 0.30721 0.55155 0.0
H2075 H 0.65003 0.30928 0.60792 0.0
H2076 H 0.66664 0.3027 0.55758 0.0
H2077 H 0.61743 0.34472 0.50176 0.0
H2078 H 0.64721 0.35308 0.4999 0.0
H2079 H 0.63117 0.34989 0.55795 0.0
C2080 C 0.09293 0.17471 0.41872 0.0
C2081 C 0.10146 0.1799 0.37583 0.0
C2082 C 0.10416 0.16496 0.43159 0.0
C2083 C 0.12477 0.16036 0.40134 0.0
C2084 C 0.13407 0.16582 0.35905 0.0
C2085 C 0.12217 0.1754 0.34669 0.0
C2086 C 0.09329 0.15942 0.47659 0.0
C2087 C 0.15638 0.16146 0.32618 0.0
C2088 C 0.17421 0.13961 0.44958 0.0
C2089 C 0.16484 0.13061 0.42576 0.0
C2090 C 0.16084 0.1492 0.4435 0.0
C2091 C 0.13698 0.14993 0.41349 0.0
C2092 C 0.12642 0.14078 0.3916 0.0
C2093 C 0.14047 0.13128 0.39776 0.0
C2094 C 0.17313 0.15866 0.46741 0.0
C2095 C 0.10082 0.14111 0.35993 0.0
H2096 H 0.07661 0.17805 0.44089 0.0
H2097 H 0.12881 0.17937 0.31349 0.0
H2098 H 0.08327 0.1521 0.46522 0.0
H2099 H 0.11052 0.15736 0.50172 0.0
H2100 H 0.07807 0.16414 0.49732 0.0
H2101 H 0.16206 0.16681 0.29575 0.0
H2102 H 0.17514 0.15977 0.34827 0.0
H2103 H 0.14934 0.15407 0.30979 0.0
H2104 H 0.19252 0.13925 0.47237 0.0
H2105 H 0.1329 0.12448 0.37901 0.0
H2106 H 0.15719 0.16286 0.48881 0.0
H2107 H 0.18079 0.16399 0.43838 0.0
H2108 H 0.19055 0.15673 0.49246 0.0
H2109 H 0.08402 0.14527 0.37935 0.0
H2110 H 0.09343 0.13326 0.35011 0.0
H2111 H 0.10524 0.14539 0.32531 0.0
C2112 C 0.08909 0.132 0.91152 0.0
C2113 C 0.09803 0.12313 0.88641 0.0
C2114 C 0.09789 0.14192 0.89762 0.0
C2115 C 0.11638 0.14313 0.8575 0.0
C2116 C 0.12509 0.13423 0.83113 0.0
C2117 C 0.11567 0.12434 0.84569 0.0
C2118 C 0.08752 0.15112 0.92637 0.0
C2119 C 0.14486 0.13514 0.78832 0.0
C2120 C 0.11747 0.17038 0.80356 0.0
C2121 C 0.1394 0.17503 0.82932 0.0
C2122 C 0.11065 0.15991 0.81044 0.0
C2123 C 0.12619 0.15378 0.84369 0.0
C2124 C 0.14927 0.15825 0.86783 0.0
C2125 C 0.15555 0.16879 0.86048 0.0
C2126 C 0.08588 0.15555 0.78386 0.0
C2127 C 0.16659 0.15202 0.90333 0.0
H2128 H 0.07508 0.13117 0.94245 0.0
H2129 H 0.12276 0.11753 0.8263 0.0
H2130 H 0.10515 0.15524 0.94347 0.0
H2131 H 0.07707 0.15663 0.90113 0.0
H2132 H 0.07281 0.14889 0.956 0.0
H2133 H 0.14885 0.12758 0.7704 0.0
H2134 H 0.13658 0.14056 0.76025 0.0
H2135 H 0.16477 0.13836 0.80141 0.0
H2136 H 0.10518 0.175 0.77851 0.0
H2137 H 0.17245 0.17221 0.88081 0.0
H2138 H 0.06933 0.15383 0.811 0.0
H2139 H 0.0913 0.14819 0.7654 0.0
H2140 H 0.07755 0.16098 0.75575 0.0
H2141 H 0.15433 0.15025 0.93691 0.0
H2142 H 0.18558 0.15619 0.91468 0.0
H2143 H 0.17259 0.14456 0.8864 0.0
C2144 C 0.91541 0.88557 0.54166 0.0
C2145 C 0.90699 0.87761 0.57376 0.0
C2146 C 0.9021 0.89524 0.54087 0.0
C2147 C 0.87938 0.89712 0.57255 0.0
C2148 C 0.87044 0.8891 0.6046 0.0
C2149 C 0.88431 0.87949 0.60491 0.0
C2150 C 0.91243 0.90349 0.50596 0.0
C2151 C 0.84619 0.89068 0.63873 0.0
C2152 C 0.85865 0.92523 0.5989 0.0
C2153 C 0.8366 0.92676 0.56595 0.0
C2154 C 0.87268 0.91566 0.60161 0.0
C2155 C 0.86453 0.90735 0.57079 0.0
C2156 C 0.84251 0.90889 0.53717 0.0
C2157 C 0.82902 0.91851 0.53499 0.0
C2158 C 0.89616 0.91444 0.63774 0.0
C2159 C 0.83304 0.90032 0.50343 0.0
H2160 H 0.93248 0.88426 0.51668 0.0
H2161 H 0.87766 0.87352 0.63027 0.0
H2162 H 0.8959 0.90563 0.47954 0.0
H2163 H 0.9179 0.91054 0.52694 0.0
H2164 H 0.9308 0.90095 0.48465 0.0
H2165 H 0.84174 0.88373 0.66149 0.0
H2166 H 0.85028 0.89727 0.66375 0.0
H2167 H 0.82752 0.89262 0.6169 0.0
H2168 H 0.86462 0.93143 0.62341 0.0
H2169 H 0.81244 0.91956 0.50871 0.0
H2170 H 0.91529 0.91228 0.61774 0.0
H2171 H 0.89151 0.9081 0.66406 0.0
H2172 H 0.90011 0.92161 0.65904 0.0
H2173 H 0.85022 0.89792 0.47893 0.0
H2174 H 0.81525 0.90266 0.48006 0.0
H2175 H 0.82698 0.89348 0.52559 0.0
C2176 C 0.9101 0.91154 0.15136 0.0
C2177 C 0.89662 0.92032 0.13292 0.0
C2178 C 0.89586 0.90224 0.15974 0.0
C2179 C 0.86738 0.90154 0.14831 0.0
C2180 C 0.85342 0.91051 0.13116 0.0
C2181 C 0.86817 0.91982 0.12405 0.0
C2182 C 0.91162 0.89302 0.17907 0.0
C2183 C 0.8232 0.91014 0.11793 0.0
C2184 C 0.84054 0.87456 0.11596 0.0
C2185 C 0.82663 0.87164 0.15928 0.0
C2186 C 0.85335 0.8843 0.11163 0.0
C2187 C 0.85277 0.8913 0.1519 0.0
C2188 C 0.83904 0.88834 0.19596 0.0
C2189 C 0.82598 0.87862 0.19894 0.0
C2190 C 0.86739 0.88712 0.0637 0.0
C2191 C 0.83837 0.89539 0.24022 0.0
H2192 H 0.93215 0.91192 0.15788 0.0
H2193 H 0.85783 0.92653 0.10892 0.0
H2194 H 0.90075 0.8896 0.21125 0.0
H2195 H 0.91275 0.887 0.15008 0.0
H2196 H 0.93297 0.89506 0.19037 0.0
H2197 H 0.81493 0.91787 0.1081 0.0
H2198 H 0.82017 0.90489 0.08603 0.0
H2199 H 0.81102 0.90698 0.14917 0.0
H2200 H 0.8408 0.86931 0.08487 0.0
H2201 H 0.81548 0.87641 0.23267 0.0
H2202 H 0.88969 0.88848 0.07023 0.0
H2203 H 0.85857 0.89441 0.04895 0.0
H2204 H 0.86517 0.88101 0.03526 0.0
H2205 H 0.85974 0.89709 0.2525 0.0
H2206 H 0.82679 0.89199 0.27171 0.0
H2207 H 0.82868 0.90286 0.2301 0.0
C2208 C 0.08375 0.67321 0.93962 0.0
C2209 C 0.10035 0.67982 0.91115 0.0
C2210 C 0.0893 0.6625 0.94239 0.0
C2211 C 0.11172 0.65823 0.91546 0.0
C2212 C 0.12834 0.66489 0.88642 0.0
C2213 C 0.12254 0.67553 0.88481 0.0
C2214 C 0.07119 0.65574 0.97416 0.0
C2215 C 0.15209 0.66076 0.8562 0.0
C2216 C 0.14492 0.63176 0.93901 0.0
C2217 C 0.13386 0.62591 0.9002 0.0
C2218 C 0.13671 0.64213 0.94654 0.0
C2219 C 0.11702 0.64677 0.91449 0.0
C2220 C 0.10456 0.64065 0.87742 0.0
C2221 C 0.11301 0.63036 0.87097 0.0
C2222 C 0.15027 0.64828 0.987 0.0
C2223 C 0.08355 0.64514 0.84223 0.0
H2224 H 0.06675 0.67645 0.96045 0.0
H2225 H 0.13525 0.68051 0.86207 0.0
H2226 H 0.06057 0.64993 0.95088 0.0
H2227 H 0.08401 0.65144 1.00123 0.0
H2228 H 0.05536 0.66025 0.99451 0.0
H2229 H 0.16346 0.66697 0.83647 0.0
H2230 H 0.1668 0.65657 0.8804 0.0
H2231 H 0.14429 0.65517 0.82853 0.0
H2232 H 0.16105 0.62842 0.96168 0.0
H2233 H 0.10398 0.62585 0.84144 0.0
H2234 H 0.1346 0.65269 0.00814 0.0
H2235 H 0.16472 0.65396 0.97042 0.0
H2236 H 0.16202 0.64329 0.01295 0.0
H2237 H 0.06705 0.64921 0.86289 0.0
H2238 H 0.0739 0.63915 0.81856 0.0
H2239 H 0.09371 0.65091 0.81796 0.0
C2240 C 0.11534 0.67196 0.32381 0.0
C2241 C 0.13389 0.67658 0.35701 0.0
C2242 C 0.10803 0.66148 0.32772 0.0
C2243 C 0.11931 0.65534 0.36609 0.0
C2244 C 0.13917 0.65981 0.39821 0.0
C2245 C 0.14632 0.67035 0.39317 0.0
C2246 C 0.08702 0.65712 0.29225 0.0
C2247 C 0.15175 0.65362 0.43971 0.0
C2248 C 0.07284 0.63403 0.41668 0.0
C2249 C 0.0841 0.62499 0.39616 0.0
C2250 C 0.08425 0.64381 0.40745 0.0
C2251 C 0.10761 0.64478 0.37633 0.0
C2252 C 0.11881 0.63574 0.3544 0.0
C2253 C 0.10692 0.62596 0.36448 0.0
C2254 C 0.07122 0.65315 0.43129 0.0
C2255 C 0.14355 0.63638 0.32074 0.0
H2256 H 0.10601 0.67665 0.29516 0.0
H2257 H 0.16057 0.67383 0.41906 0.0
H2258 H 0.09427 0.64966 0.27701 0.0
H2259 H 0.06742 0.65561 0.31217 0.0
H2260 H 0.08267 0.66247 0.26109 0.0
H2261 H 0.1691 0.65776 0.45774 0.0
H2262 H 0.13575 0.65198 0.46799 0.0
H2263 H 0.15936 0.64609 0.42581 0.0
H2264 H 0.05483 0.63347 0.44019 0.0
H2265 H 0.11587 0.61907 0.34857 0.0
H2266 H 0.06392 0.65859 0.40241 0.0
H2267 H 0.08673 0.65729 0.45394 0.0
H2268 H 0.05345 0.65109 0.4553 0.0
H2269 H 0.13919 0.6417 0.28954 0.0
H2270 H 0.14945 0.62873 0.30559 0.0
H2271 H 0.16138 0.63961 0.34125 0.0
C2272 C 0.85068 0.42779 0.12059 0.0
C2273 C 0.83528 0.43041 0.07842 0.0
C2274 C 0.86315 0.41797 0.12561 0.0
C2275 C 0.86055 0.41054 0.08736 0.0
C2276 C 0.84524 0.41319 0.04453 0.0
C2277 C 0.83276 0.42301 0.04072 0.0
C2278 C 0.87907 0.41554 0.17209 0.0
C2279 C 0.84223 0.40567 0.00236 0.0
C2280 C 0.91676 0.38984 0.08062 0.0
C2281 C 0.90405 0.3812 0.10227 0.0
C2282 C 0.90269 0.39927 0.07453 0.0
C2283 C 0.87506 0.40025 0.09101 0.0
C2284 C 0.86175 0.39145 0.11163 0.0
C2285 C 0.87632 0.38202 0.1167 0.0
C2286 C 0.91773 0.40827 0.05148 0.0
C2287 C 0.83241 0.39211 0.12993 0.0
H2288 H 0.85246 0.43334 0.15028 0.0
H2289 H 0.82118 0.42494 0.00778 0.0
H2290 H 0.87061 0.40848 0.18973 0.0
H2291 H 0.90096 0.41394 0.16282 0.0
H2292 H 0.87836 0.42195 0.19922 0.0
H2293 H 0.82922 0.40879 0.97202 0.0
H2294 H 0.86287 0.40375 0.98718 0.0
H2295 H 0.83292 0.39837 0.0158 0.0
H2296 H 0.93811 0.38925 0.06905 0.0
H2297 H 0.86646 0.37543 0.13394 0.0
H2298 H 0.91981 0.41459 0.07886 0.0
H2299 H 0.90574 0.41137 0.01984 0.0
H2300 H 0.93865 0.40613 0.03825 0.0
H2301 H 0.83117 0.39772 0.16074 0.0
H2302 H 0.82456 0.38453 0.14311 0.0
H2303 H 0.81869 0.39497 0.1001 0.0
C2304 C 0.90282 0.41713 0.6618 0.0
C2305 C 0.88317 0.42433 0.64532 0.0
C2306 C 0.8964 0.4065 0.66529 0.0
C2307 C 0.86966 0.40295 0.65219 0.0
C2308 C 0.85011 0.41015 0.6341 0.0
C2309 C 0.85712 0.42066 0.63064 0.0
C2310 C 0.918 0.39911 0.68424 0.0
C2311 C 0.82139 0.4068 0.61957 0.0
C2312 C 0.85225 0.37462 0.6263 0.0
C2313 C 0.83912 0.37159 0.67034 0.0
C2314 C 0.86342 0.38462 0.62058 0.0
C2315 C 0.86134 0.39187 0.65964 0.0
C2316 C 0.84902 0.38873 0.70472 0.0
C2317 C 0.83825 0.37869 0.70957 0.0
C2318 C 0.87655 0.38755 0.57199 0.0
C2319 C 0.84623 0.39614 0.74742 0.0
H2320 H 0.92295 0.41982 0.67336 0.0
H2321 H 0.84192 0.42603 0.6166 0.0
H2322 H 0.91142 0.39592 0.72044 0.0
H2323 H 0.92028 0.3925 0.65853 0.0
H2324 H 0.93843 0.40287 0.68889 0.0
H2325 H 0.80884 0.41327 0.60469 0.0
H2326 H 0.82246 0.40064 0.59124 0.0
H2327 H 0.81058 0.40353 0.65217 0.0
H2328 H 0.85299 0.36931 0.59551 0.0
H2329 H 0.82878 0.37645 0.74417 0.0
H2330 H 0.89695 0.3912 0.5783 0.0
H2331 H 0.8634 0.3933 0.55275 0.0
H2332 H 0.87932 0.38078 0.54732 0.0
H2333 H 0.86658 0.39954 0.75663 0.0
H2334 H 0.83773 0.39237 0.78102 0.0
H2335 H 0.83235 0.40259 0.73681 0.0
C2336 C 0.66773 0.13435 0.93282 0.0
C2337 C 0.65714 0.12574 0.90745 0.0
C2338 C 0.65565 0.14422 0.92858 0.0
C2339 C 0.63194 0.14565 0.89871 0.0
C2340 C 0.6202 0.1369 0.87512 0.0
C2341 C 0.63292 0.1271 0.8796 0.0
C2342 C 0.66913 0.15323 0.95432 0.0
C2343 C 0.59477 0.13796 0.8434 0.0
C2344 C 0.59101 0.17114 0.90788 0.0
C2345 C 0.60038 0.17651 0.86606 0.0
C2346 C 0.60101 0.16112 0.91921 0.0
C2347 C 0.62118 0.1564 0.88843 0.0
C2348 C 0.63136 0.16202 0.84728 0.0
C2349 C 0.62074 0.17188 0.83651 0.0
C2350 C 0.58931 0.15544 0.96312 0.0
C2351 C 0.65322 0.15752 0.81387 0.0
H2352 H 0.68598 0.13346 0.95544 0.0
H2353 H 0.62446 0.1206 0.85963 0.0
H2354 H 0.67764 0.15864 0.92638 0.0
H2355 H 0.6537 0.15756 0.97633 0.0
H2356 H 0.68616 0.15077 0.97917 0.0
H2357 H 0.5864 0.13035 0.83195 0.0
H2358 H 0.57847 0.14225 0.86356 0.0
H2359 H 0.59984 0.14247 0.80971 0.0
H2360 H 0.57496 0.17457 0.93037 0.0
H2361 H 0.62805 0.17599 0.80416 0.0
H2362 H 0.60618 0.15285 0.9879 0.0
H2363 H 0.5783 0.14843 0.95037 0.0
H2364 H 0.57471 0.16028 0.98466 0.0
H2365 H 0.67165 0.15533 0.83581 0.0
H2366 H 0.65969 0.163 0.78446 0.0
H2367 H 0.6453 0.1504 0.79612 0.0
C2368 C 0.64642 0.17074 0.35822 0.0
C2369 C 0.636 0.17679 0.31942 0.0
C2370 C 0.63971 0.16017 0.36236 0.0
C2371 C 0.62257 0.15543 0.32637 0.0
C2372 C 0.61258 0.16148 0.28651 0.0
C2373 C 0.6192 0.17205 0.2838 0.0
C2374 C 0.65058 0.15409 0.40579 0.0
C2375 C 0.59482 0.15678 0.24664 0.0
C2376 C 0.6262 0.12609 0.31239 0.0
C2377 C 0.60213 0.12278 0.33663 0.0
C2378 C 0.63289 0.13664 0.30839 0.0
C2379 C 0.61537 0.14415 0.32986 0.0
C2380 C 0.59088 0.14086 0.35408 0.0
C2381 C 0.58444 0.13024 0.35676 0.0
C2382 C 0.65883 0.13973 0.28123 0.0
C2383 C 0.57174 0.14856 0.378 0.0
H2384 H 0.65908 0.17437 0.38621 0.0
H2385 H 0.61127 0.17664 0.2535 0.0
H2386 H 0.63309 0.15081 0.42717 0.0
H2387 H 0.66322 0.14751 0.39258 0.0
H2388 H 0.66337 0.15888 0.43088 0.0
H2389 H 0.58921 0.16245 0.2175 0.0
H2390 H 0.60584 0.15023 0.22913 0.0
H2391 H 0.57557 0.15366 0.26304 0.0
H2392 H 0.63983 0.12039 0.29631 0.0
H2393 H 0.56601 0.12774 0.37602 0.0
H2394 H 0.67299 0.14385 0.30664 0.0
H2395 H 0.65368 0.14513 0.25076 0.0
H2396 H 0.6699 0.13298 0.26551 0.0
H2397 H 0.5831 0.15301 0.40644 0.0
H2398 H 0.55366 0.14479 0.3957 0.0
H2399 H 0.56418 0.15415 0.35007 0.0
C2400 C 0.39443 0.88584 0.09297 0.0
C2401 C 0.37559 0.8788 0.1136 0.0
C2402 C 0.38828 0.89652 0.08987 0.0
C2403 C 0.36274 0.90033 0.10811 0.0
C2404 C 0.34422 0.8933 0.1308 0.0
C2405 C 0.35081 0.88271 0.13319 0.0
C2406 C 0.4087 0.90366 0.06535 0.0
C2407 C 0.31687 0.8969 0.15122 0.0
C2408 C 0.34826 0.9292 0.1299 0.0
C2409 C 0.332 0.93174 0.08865 0.0
C2410 C 0.35924 0.91914 0.13609 0.0
C2411 C 0.35411 0.91141 0.10003 0.0
C2412 C 0.33873 0.91411 0.05737 0.0
C2413 C 0.32793 0.92415 0.05233 0.0
C2414 C 0.37544 0.91668 0.18218 0.0
C2415 C 0.33285 0.90627 0.01756 0.0
H2416 H 0.41356 0.88296 0.07756 0.0
H2417 H 0.3363 0.87744 0.15021 0.0
H2418 H 0.39995 0.90655 0.03008 0.0
H2419 H 0.41268 0.91047 0.08908 0.0
H2420 H 0.42864 0.89976 0.0574 0.0
H2421 H 0.30561 0.89065 0.1708 0.0
H2422 H 0.32006 0.9034 0.1772 0.0
H2423 H 0.30369 0.89978 0.12065 0.0
H2424 H 0.3515 0.93496 0.15827 0.0
H2425 H 0.31591 0.92605 0.01982 0.0
H2426 H 0.39519 0.91285 0.17251 0.0
H2427 H 0.36353 0.91121 0.20548 0.0
H2428 H 0.37997 0.92369 0.2043 0.0
H2429 H 0.35233 0.90264 0.0049 0.0
H2430 H 0.32226 0.90973 0.98513 0.0
H2431 H 0.31959 0.90004 0.03271 0.0
C2432 C 0.34035 0.87793 0.62901 0.0
C2433 C 0.35331 0.87189 0.66528 0.0
C2434 C 0.34762 0.88839 0.622 0.0
C2435 C 0.36808 0.89299 0.65243 0.0
C2436 C 0.37984 0.88707 0.69115 0.0
C2437 C 0.3725 0.87663 0.69679 0.0
C2438 C 0.33468 0.89432 0.57999 0.0
C2439 C 0.40138 0.89161 0.72504 0.0
C2440 C 0.41453 0.91352 0.59525 0.0
C2441 C 0.40355 0.92282 0.61345 0.0
C2442 C 0.40303 0.9039 0.6074 0.0
C2443 C 0.38003 0.90338 0.63954 0.0
C2444 C 0.36923 0.91268 0.65947 0.0
C2445 C 0.38107 0.92229 0.64615 0.0
C2446 C 0.41552 0.89426 0.58535 0.0
C2447 C 0.345 0.91248 0.6944 0.0
H2448 H 0.32564 0.87432 0.60434 0.0
H2449 H 0.38232 0.87205 0.72533 0.0
H2450 H 0.32752 0.90199 0.5928 0.0
H2451 H 0.35034 0.89565 0.55074 0.0
H2452 H 0.31694 0.89013 0.56348 0.0
H2453 H 0.40569 0.88653 0.75723 0.0
H2454 H 0.42089 0.89276 0.7043 0.0
H2455 H 0.39467 0.89927 0.73876 0.0
H2456 H 0.43236 0.91373 0.57119 0.0
H2457 H 0.37236 0.92938 0.66043 0.0
H2458 H 0.39959 0.88993 0.56451 0.0
H2459 H 0.42315 0.88913 0.61519 0.0
H2460 H 0.43296 0.896 0.56001 0.0
H2461 H 0.32669 0.90924 0.67535 0.0
H2462 H 0.33972 0.92029 0.70839 0.0
H2463 H 0.34955 0.90738 0.72632 0.0
C2464 C 0.61868 0.67708 0.4347 0.0
C2465 C 0.59699 0.68106 0.40582 0.0
C2466 C 0.62476 0.66645 0.43596 0.0
C2467 C 0.60889 0.65946 0.40753 0.0
C2468 C 0.58675 0.66338 0.37864 0.0
C2469 C 0.581 0.67409 0.37828 0.0
C2470 C 0.64828 0.6627 0.46787 0.0
C2471 C 0.56929 0.65626 0.34763 0.0
C2472 C 0.64096 0.63296 0.37923 0.0
C2473 C 0.62814 0.62655 0.41432 0.0
C2474 C 0.63466 0.64361 0.37611 0.0
C2475 C 0.6152 0.64805 0.40907 0.0
C2476 C 0.60241 0.64163 0.44479 0.0
C2477 C 0.60896 0.63104 0.4469 0.0
C2478 C 0.64879 0.6501 0.33734 0.0
C2479 C 0.58186 0.64597 0.48118 0.0
H2480 H 0.63094 0.68232 0.45675 0.0
H2481 H 0.56441 0.67704 0.35547 0.0
H2482 H 0.64055 0.65705 0.49542 0.0
H2483 H 0.66381 0.65867 0.44479 0.0
H2484 H 0.65868 0.6691 0.48781 0.0
H2485 H 0.55293 0.66047 0.32706 0.0
H2486 H 0.58252 0.65211 0.32075 0.0
H2487 H 0.5594 0.65036 0.37147 0.0
H2488 H 0.65553 0.62962 0.35349 0.0
H2489 H 0.59919 0.62625 0.47467 0.0
H2490 H 0.66077 0.65635 0.35528 0.0
H2491 H 0.63314 0.65384 0.31331 0.0
H2492 H 0.66298 0.6455 0.31384 0.0
H2493 H 0.59183 0.65203 0.50392 0.0
H2494 H 0.57338 0.63996 0.50623 0.0
H2495 H 0.56449 0.64966 0.46115 0.0
C2496 C 0.61323 0.66792 0.81391 0.0
C2497 C 0.6322 0.67223 0.8473 0.0
C2498 C 0.60704 0.65729 0.8142 0.0
C2499 C 0.61968 0.6507 0.84938 0.0
C2500 C 0.63893 0.655 0.88321 0.0
C2501 C 0.64516 0.66566 0.88143 0.0
C2502 C 0.58698 0.65311 0.77656 0.0
C2503 C 0.65268 0.64834 0.92178 0.0
C2504 C 0.58498 0.62458 0.87684 0.0
C2505 C 0.60176 0.61769 0.85054 0.0
C2506 C 0.59063 0.6353 0.87717 0.0
C2507 C 0.61329 0.63929 0.84976 0.0
C2508 C 0.62974 0.63236 0.82203 0.0
C2509 C 0.62396 0.6217 0.82315 0.0
C2510 C 0.57271 0.64234 0.90778 0.0
C2511 C 0.65363 0.63618 0.79123 0.0
H2512 H 0.60332 0.67291 0.78708 0.0
H2513 H 0.65957 0.66893 0.90771 0.0
H2514 H 0.5971 0.64702 0.75422 0.0
H2515 H 0.56913 0.6495 0.79552 0.0
H2516 H 0.57918 0.6592 0.75123 0.0
H2517 H 0.66661 0.65285 0.94617 0.0
H2518 H 0.63679 0.64451 0.94493 0.0
H2519 H 0.66487 0.64217 0.90368 0.0
H2520 H 0.56805 0.62155 0.8986 0.0
H2521 H 0.6369 0.61643 0.80247 0.0
H2522 H 0.56321 0.64834 0.88393 0.0
H2523 H 0.58554 0.64639 0.93562 0.0
H2524 H 0.55602 0.63809 0.92723 0.0
H2525 H 0.64634 0.64206 0.76441 0.0
H2526 H 0.66391 0.62986 0.77055 0.0
H2527 H 0.66915 0.63995 0.81528 0.0
C2528 C 0.4189 0.38792 0.59226 0.0
C2529 C 0.40709 0.3791 0.61403 0.0
C2530 C 0.40449 0.39734 0.58902 0.0
C2531 C 0.37739 0.39813 0.60827 0.0
C2532 C 0.36497 0.38918 0.62916 0.0
C2533 C 0.37988 0.37977 0.63153 0.0
C2534 C 0.41858 0.40653 0.56564 0.0
C2535 C 0.33619 0.38962 0.65021 0.0
C2536 C 0.35269 0.42545 0.6418 0.0
C2537 C 0.33628 0.42814 0.60095 0.0
C2538 C 0.36562 0.41568 0.64517 0.0
C2539 C 0.36239 0.40836 0.60661 0.0
C2540 C 0.34599 0.41106 0.56518 0.0
C2541 C 0.33317 0.42084 0.56294 0.0
C2542 C 0.38278 0.4132 0.69014 0.0
C2543 C 0.34218 0.40365 0.52279 0.0
H2544 H 0.43975 0.38747 0.57799 0.0
H2545 H 0.37065 0.37306 0.64874 0.0
H2546 H 0.40581 0.40961 0.53497 0.0
H2547 H 0.42085 0.41278 0.59325 0.0
H2548 H 0.43935 0.40458 0.55095 0.0
H2549 H 0.32906 0.38198 0.66381 0.0
H2550 H 0.33557 0.39519 0.68128 0.0
H2551 H 0.3215 0.39243 0.62176 0.0
H2552 H 0.35499 0.43091 0.67175 0.0
H2553 H 0.32087 0.42281 0.53091 0.0
H2554 H 0.40447 0.41175 0.67901 0.0
H2555 H 0.37503 0.40604 0.70794 0.0
H2556 H 0.3825 0.41952 0.71776 0.0
H2557 H 0.36246 0.40192 0.50564 0.0
H2558 H 0.32818 0.40675 0.49387 0.0
H2559 H 0.33362 0.39624 0.5365 0.0
C2560 C 0.39901 0.41533 0.14305 0.0
C2561 C 0.38908 0.42163 0.18126 0.0
C2562 C 0.39112 0.40485 0.13961 0.0
C2563 C 0.37323 0.40051 0.17567 0.0
C2564 C 0.36451 0.40673 0.21578 0.0
C2565 C 0.37231 0.41717 0.21779 0.0
C2566 C 0.4007 0.3986 0.09593 0.0
C2567 C 0.34584 0.40248 0.25557 0.0
C2568 C 0.32227 0.37909 0.1443 0.0
C2569 C 0.33438 0.37036 0.16608 0.0
C2570 C 0.33533 0.38878 0.14518 0.0
C2571 C 0.36114 0.3899 0.16919 0.0
C2572 C 0.37395 0.38104 0.19 0.0
C2573 C 0.36054 0.37135 0.18778 0.0
C2574 C 0.32099 0.3979 0.12166 0.0
C2575 C 0.40125 0.38187 0.21642 0.0
H2576 H 0.41178 0.41875 0.11451 0.0
H2577 H 0.36483 0.42197 0.24767 0.0
H2578 H 0.40891 0.39103 0.10827 0.0
H2579 H 0.38291 0.39703 0.07126 0.0
H2580 H 0.41688 0.40266 0.07427 0.0
H2581 H 0.34327 0.40794 0.28682 0.0
H2582 H 0.32518 0.40083 0.23975 0.0
H2583 H 0.35418 0.3951 0.27009 0.0
H2584 H 0.30229 0.37834 0.12673 0.0
H2585 H 0.36994 0.36464 0.20477 0.0
H2586 H 0.33522 0.40194 0.096 0.0
H2587 H 0.31491 0.4035 0.15063 0.0
H2588 H 0.30221 0.39559 0.10092 0.0
H2589 H 0.41655 0.38593 0.1929 0.0
H2590 H 0.40967 0.37419 0.22678 0.0
H2591 H 0.39862 0.38651 0.2505 0.0
C2592 C 0.96283 0.29083 0.16036 0.0
C2593 C 0.96594 0.30101 0.17748 0.0
C2594 C 0.97159 0.28225 0.18864 0.0
C2595 C 0.98418 0.28377 0.23539 0.0
C2596 C 0.98737 0.29402 0.25296 0.0
C2597 C 0.97813 0.30247 0.2241 0.0
C2598 C 0.96726 0.27153 0.16841 0.0
C2599 C 0.00086 0.29609 0.30218 0.0
C2600 C 0.98408 0.26131 0.32834 0.0
C2601 C 0.01055 0.25699 0.32246 0.0
C2602 C 0.97539 0.26997 0.30064 0.0
C2603 C 0.99354 0.27463 0.26605 0.0
C2604 C 0.02037 0.27037 0.26017 0.0
C2605 C 0.02845 0.26162 0.28805 0.0
C2606 C 0.9465 0.27405 0.30794 0.0
C2607 C 0.04062 0.27508 0.22428 0.0
H2608 H 0.95324 0.28955 0.12477 0.0
H2609 H 0.98109 0.31025 0.23761 0.0
H2610 H 0.98738 0.26752 0.16484 0.0
H2611 H 0.95445 0.26695 0.19439 0.0
H2612 H 0.95699 0.27161 0.13172 0.0
H2613 H 0.00213 0.30447 0.31056 0.0
H2614 H 0.98909 0.29223 0.3321 0.0
H2615 H 0.02201 0.29281 0.30253 0.0
H2616 H 0.96976 0.25776 0.35395 0.0
H2617 H 0.04896 0.25846 0.28324 0.0
H2618 H 0.93492 0.27364 0.27263 0.0
H2619 H 0.94723 0.28228 0.31898 0.0
H2620 H 0.93492 0.26967 0.33652 0.0
H2621 H 0.03217 0.27471 0.18624 0.0
H2622 H 0.06092 0.2711 0.22487 0.0
H2623 H 0.04382 0.28335 0.23316 0.0
C2624 C 0.289 1.01242 0.21839 0.0
C2625 C 0.28056 1.01165 0.16892 0.0
C2626 C 0.27911 1.02041 0.24933 0.0
C2627 C 0.2598 0.02773 0.23089 0.0
C2628 C 0.25085 0.02684 0.18123 0.0
C2629 C 0.26144 1.01892 0.15099 0.0
C2630 C 0.28959 1.02109 0.30168 0.0
C2631 C 0.22981 0.03421 0.16 0.0
C2632 C 0.21391 0.04238 0.32264 0.0
C2633 C 0.22603 0.05223 0.32382 0.0
C2634 C 0.22457 0.03442 0.2927 0.0
C2635 C 0.24841 0.03619 0.26349 0.0
C2636 C 0.26076 0.04613 0.26446 0.0
C2637 C 0.2493 0.05404 0.2941 0.0
C2638 C 0.21014 1.02409 0.29215 0.0
C2639 C 0.28636 0.04839 0.23462 0.0
H2640 H 0.30383 1.0069 0.23253 0.0
H2641 H 0.25438 1.01832 0.11315 0.0
H2642 H 0.29918 0.02876 0.30795 0.0
H2643 H 0.27213 1.02037 0.32797 0.0
H2644 H 0.30502 1.01501 0.31023 0.0
H2645 H 0.22466 0.03242 0.12097 0.0
H2646 H 0.21058 0.03393 0.1822 0.0
H2647 H 0.23772 0.04223 0.16184 0.0
H2648 H 0.19579 0.04092 0.34504 0.0
H2649 H 0.25903 0.06156 0.29515 0.0
H2650 H 0.22453 1.01795 0.30445 0.0
H2651 H 0.20366 1.02218 0.25395 0.0
H2652 H 0.19166 1.02396 0.31643 0.0
H2653 H 0.30298 0.0429 0.24487 0.0
H2654 H 0.29398 0.05638 0.2403 0.0
H2655 H 0.28205 0.04728 0.19474 0.0
C2656 C 0.98696 0.04116 0.92803 0.0
C2657 C 0.01451 0.04462 0.92762 0.0
C2658 C 0.97892 0.03218 0.95392 0.0
C2659 C -0.00119 0.02632 0.9802 0.0
C2660 C 0.02672 0.02969 0.97965 0.0
C2661 C 0.03416 0.03879 0.95379 0.0
C2662 C 0.94889 0.02907 0.95383 0.0
C2663 C 0.04877 1.02369 0.0066 0.0
C2664 C 0.97394 1.0089 0.0863 0.0
C2665 C 0.97287 0.99908 0.06424 0.0
C2666 C 0.98231 1.01774 0.05959 0.0
C2667 C 0.99018 1.01686 0.00928 0.0
C2668 C 0.98913 1.00698 0.98671 0.0
C2669 C 0.98039 0.99827 0.01422 0.0
C2670 C 0.98257 0.02806 0.0853 0.0
C2671 C -0.00251 1.00558 0.93346 0.0
H2672 H 0.97135 0.04563 0.90902 0.0
H2673 H 0.05548 0.0413 0.95371 0.0
H2674 H 0.94667 1.02111 0.93938 0.0
H2675 H 0.9408 0.02906 0.99217 0.0
H2676 H 0.93597 0.03432 0.93107 0.0
H2677 H 0.06962 0.02708 1.00134 0.0
H2678 H 0.04408 1.0235 0.0467 0.0
H2679 H 0.04905 1.01559 0.99347 0.0
H2680 H 0.96794 1.0097 0.12463 0.0
H2681 H 0.98007 0.99075 0.99677 0.0
H2682 H 0.96872 0.03352 0.06572 0.0
H2683 H 0.00365 0.03139 0.08424 0.0
H2684 H 0.97585 0.0275 0.12444 0.0
H2685 H 0.98418 1.01038 0.90924 0.0
H2686 H -0.00403 0.99742 0.92135 0.0
H2687 H 0.01905 1.00825 0.92811 0.0
C2688 C 0.29988 0.28094 0.06722 0.0
C2689 C 0.28825 0.29088 0.06773 0.0
C2690 C 0.28759 0.27276 0.04089 0.0
C2691 C 0.26285 0.27444 0.01405 0.0
C2692 C 0.25039 0.28435 0.01586 0.0
C2693 C 0.26318 0.29242 0.04251 0.0
C2694 C 0.30167 0.26237 0.04049 0.0
C2695 C 0.22404 0.28656 0.98809 0.0
C2696 C 0.25253 0.25692 0.90201 0.0
C2697 C 0.23449 0.24927 0.9199 0.0
C2698 C 0.26116 0.26523 0.9317 0.0
C2699 C 0.25156 0.26608 0.98097 0.0
C2700 C 0.2325 0.25861 0.99884 0.0
C2701 C 0.2242 0.25033 0.9682 0.0
C2702 C 0.28126 0.27297 0.91056 0.0
C2703 C 0.22153 0.25919 0.0509 0.0
H2704 H 0.3189 0.27955 0.08712 0.0
H2705 H 0.25396 0.30003 0.04204 0.0
H2706 H 0.2869 0.25623 0.05144 0.0
H2707 H 0.30882 0.26057 0.00252 0.0
H2708 H 0.31972 0.26208 0.06575 0.0
H2709 H 0.21536 0.29426 0.99733 0.0
H2710 H 0.22811 0.2863 0.94778 0.0
H2711 H 0.20833 0.28058 0.99636 0.0
H2712 H 0.2602 0.25637 0.86455 0.0
H2713 H 0.21038 0.24449 0.98268 0.0
H2714 H 0.30093 0.27266 0.93151 0.0
H2715 H 0.27292 0.2809 0.91438 0.0
H2716 H 0.28581 0.27153 0.87095 0.0
H2717 H 0.23857 0.25778 0.07742 0.0
H2718 H 0.20496 0.25344 0.05782 0.0
H2719 H 0.21331 0.26702 0.05852 0.0
C2720 C 0.01323 0.75613 0.78413 0.0
C2721 C 0.00414 0.755 0.83319 0.0
C2722 C 0.00565 0.76481 0.75527 0.0
C2723 C 0.9885 0.77261 0.77567 0.0
C2724 C 0.98008 0.77167 0.82562 0.0
C2725 C 0.98801 0.76297 0.85355 0.0
C2726 C 0.01532 0.76547 0.7024 0.0
C2727 C 0.9619 0.77972 0.84933 0.0
C2728 C 0.97938 0.79946 0.71684 0.0
C2729 C 0.95362 0.79853 0.69331 0.0
C2730 C 0.99151 0.79103 0.74219 0.0
C2731 C 0.97765 0.78138 0.74437 0.0
C2732 C 0.95216 0.78032 0.71921 0.0
C2733 C 0.94061 0.78882 0.69407 0.0
C2734 C 0.01877 0.79257 0.76805 0.0
C2735 C 0.93651 0.77024 0.72014 0.0
H2736 H 0.02557 0.75007 0.76769 0.0
H2737 H 0.9813 0.76238 0.89159 0.0
H2738 H -0.00262 0.76472 0.67721 0.0
H2739 H 0.02486 0.7731 0.69515 0.0
H2740 H 0.0305 0.75934 0.69325 0.0
H2741 H 0.95821 0.77816 0.88915 0.0
H2742 H 0.97141 0.78747 0.84557 0.0
H2743 H 0.94167 0.77998 0.83015 0.0
H2744 H 0.98969 0.80687 0.71691 0.0
H2745 H 0.92107 0.78786 0.67529 0.0
H2746 H 0.0334 0.78634 0.75781 0.0
H2747 H 0.01568 0.79213 0.8086 0.0
H2748 H 0.02827 0.80014 0.75898 0.0
H2749 H 0.94995 0.76386 0.70725 0.0
H2750 H 0.91772 0.77047 0.69667 0.0
H2751 H 0.93024 0.76841 0.7586 0.0
C2752 C 0.72977 0.03921 0.82321 0.0
C2753 C 0.71353 0.04698 0.80143 0.0
C2754 C 0.74214 0.03136 0.7949 0.0
C2755 C 0.73804 0.03105 0.74307 0.0
C2756 C 0.72168 0.03889 0.72068 0.0
C2757 C 0.70989 0.0468 0.74999 0.0
C2758 C 0.75983 1.0234 0.82062 0.0
C2759 C 0.71636 0.03883 0.6658 0.0
C2760 C 0.79227 1.01594 0.66975 0.0
C2761 C 0.78022 1.00609 0.66511 0.0
C2762 C 0.77852 1.02415 0.6935 0.0
C2763 C 0.75161 1.02268 0.7128 0.0
C2764 C 0.73877 1.01292 0.70648 0.0
C2765 C 0.75318 1.00477 0.68308 0.0
C2766 C 0.7933 0.03433 0.69953 0.0
C2767 C 0.71003 1.01096 0.72581 0.0
H2768 H 0.7331 0.03935 0.86276 0.0
H2769 H 0.69725 0.05271 0.73288 0.0
H2770 H 0.7513 1.01557 0.81432 0.0
H2771 H 0.781 1.02351 0.80499 0.0
H2772 H 0.7612 1.02473 0.86107 0.0
H2773 H 0.70277 0.04529 0.65405 0.0
H2774 H 0.73616 0.03941 0.64543 0.0
H2775 H 0.70658 0.03144 0.65498 0.0
H2776 H 0.81277 1.01727 0.65529 0.0
H2777 H 0.74342 0.99729 0.68024 0.0
H2778 H 0.79677 0.03586 0.73935 0.0
H2779 H 0.78043 0.04072 0.6849 0.0
H2780 H 0.81356 0.03445 0.68034 0.0
H2781 H 0.71018 1.01119 0.76677 0.0
H2782 H 0.70183 1.00336 0.71392 0.0
H2783 H 0.69577 1.0171 0.71292 0.0
C2784 C 0.74545 0.75527 0.89611 0.0
C2785 C 0.72946 0.74754 0.91872 0.0
C2786 C 0.75325 0.76429 0.92157 0.0
C2787 C 0.74503 0.76574 0.97134 0.0
C2788 C 0.7282 0.75811 0.99407 0.0
C2789 C 0.72057 0.74915 0.96756 0.0
C2790 C 0.771 0.77217 0.89542 0.0
C2791 C 0.71895 0.75927 0.04698 0.0
C2792 C 0.79304 0.78304 0.04688 0.0
C2793 C 0.77949 0.79264 0.04593 0.0
C2794 C 0.78158 0.77422 0.02451 0.0
C2795 C 0.75576 0.77488 1.00011 0.0
C2796 C 0.74141 0.78444 1.00055 0.0
C2797 C 0.75336 0.79318 0.02352 0.0
C2798 C 0.79765 0.76423 0.02565 0.0
C2799 C 0.7139 0.78556 0.97507 0.0
H2800 H 0.75205 0.75427 0.85821 0.0
H2801 H 0.70837 0.74325 0.98568 0.0
H2802 H 0.76132 0.77991 0.89764 0.0
H2803 H 0.7914 0.77267 0.91386 0.0
H2804 H 0.77434 0.77023 0.85591 0.0
H2805 H 0.70473 0.753 0.05858 0.0
H2806 H 0.73719 0.75921 0.07175 0.0
H2807 H 0.70841 0.7668 0.0521 0.0
H2808 H 0.81295 0.78245 0.0648 0.0
H2809 H 0.74273 0.80053 0.02223 0.0
H2810 H 0.80392 0.76211 0.98757 0.0
H2811 H 0.78454 0.75789 0.04005 0.0
H2812 H 0.8165 0.76478 0.04887 0.0
H2813 H 0.71669 0.78469 0.93461 0.0
H2814 H 0.7042 0.79318 0.98235 0.0
H2815 H 0.69958 0.77939 0.98733 0.0
C2816 C 0.21795 0.54773 0.81062 0.0
C2817 C 0.22594 0.54907 0.8602 0.0
C2818 C 0.22677 0.53911 0.78283 0.0
C2819 C 0.24417 0.53156 0.80472 0.0
C2820 C 0.25157 0.5327 0.85511 0.0
C2821 C 0.24238 0.54136 0.88205 0.0
C2822 C 0.2182 0.53826 0.72941 0.0
C2823 C 0.27001 0.52491 0.88031 0.0
C2824 C 0.25642 0.50496 0.74538 0.0
C2825 C 0.28235 0.50628 0.72291 0.0
C2826 C 0.24336 0.51315 0.77097 0.0
C2827 C 0.25642 0.52294 0.77433 0.0
C2828 C 0.28213 0.52438 0.75031 0.0
C2829 C 0.29461 0.51612 0.72501 0.0
C2830 C 0.21592 0.51123 0.79562 0.0
C2831 C 0.29691 0.53463 0.75238 0.0
H2832 H 0.20555 0.5536 0.79278 0.0
H2833 H 0.24839 0.54214 0.92037 0.0
H2834 H 0.23651 0.53929 0.7053 0.0
H2835 H 0.20968 0.53048 0.72182 0.0
H2836 H 0.20252 0.54414 0.71911 0.0
H2837 H 0.2726 0.52654 0.92031 0.0
H2838 H 0.26141 0.51703 0.87603 0.0
H2839 H 0.29067 0.52495 0.86261 0.0
H2840 H 0.24671 0.49744 0.74439 0.0
H2841 H 0.3143 0.51736 0.70704 0.0
H2842 H 0.20078 0.5172 0.78423 0.0
H2843 H 0.21831 0.51181 0.83628 0.0
H2844 H 0.20742 0.5035 0.78662 0.0
H2845 H 0.28324 0.54087 0.73853 0.0
H2846 H 0.31622 0.53465 0.73026 0.0
H2847 H 0.30216 0.5365 0.79125 0.0
C2848 C 0.96381 0.50415 0.54335 0.0
C2849 C 0.98511 0.49776 0.56092 0.0
C2850 C 0.96957 0.51325 0.51622 0.0
C2851 C -0.00268 0.51602 0.5055 0.0
C2852 C 0.01881 0.50946 0.52222 0.0
C2853 C 0.01249 0.50052 0.54977 0.0
C2854 C 0.94594 0.52001 0.49978 0.0
C2855 C 0.04864 0.51192 0.51117 0.0
C2856 C 0.01231 0.53497 0.39934 0.0
C2857 C 0.01784 0.54422 0.42446 0.0
C2858 C 0.00563 0.52579 0.42504 0.0
C2859 C 0.004 0.5258 0.4774 0.0
C2860 C 0.00943 0.53514 0.50295 0.0
C2861 C 0.01638 0.54417 0.47636 0.0
C2862 C 0.00053 0.51604 0.39606 0.0
C2863 C 0.00771 0.53563 0.55856 0.0
H2864 H 0.94263 0.50217 0.55196 0.0
H2865 H 0.02914 0.49559 0.56232 0.0
H2866 H 0.94811 0.5278 0.51629 0.0
H2867 H 0.94641 0.52099 0.45908 0.0
H2868 H 0.92556 0.51679 0.51054 0.0
H2869 H 0.06293 0.5059 0.52538 0.0
H2870 H 0.0517 0.51268 0.47071 0.0
H2871 H 0.0543 0.51942 0.52804 0.0
H2872 H 0.01352 0.53487 0.3594 0.0
H2873 H 0.02006 0.55127 0.49633 0.0
H2874 H 0.97951 0.51307 0.4039 0.0
H2875 H 0.01538 0.50998 0.40764 0.0
H2876 H 0.00259 0.51726 0.3556 0.0
H2877 H 0.98679 0.5333 0.57093 0.0
H2878 H 0.01216 0.54348 0.573 0.0
H2879 H 0.0226 0.53013 0.57522 0.0
C2880 C 0.27966 0.79057 0.56613 0.0
C2881 C 0.25867 0.79751 0.57925 0.0
C2882 C 0.27381 0.78154 0.53875 0.0
C2883 C 0.2464 0.77947 0.52291 0.0
C2884 C 0.2253 0.78661 0.53515 0.0
C2885 C 0.23161 0.79543 0.56344 0.0
C2886 C 0.29692 0.77411 0.52744 0.0
C2887 C 0.19596 0.78496 0.51815 0.0
C2888 C 0.23558 0.76126 0.41312 0.0
C2889 C 0.22637 0.75214 0.43596 0.0
C2890 C 0.24196 0.77016 0.44077 0.0
C2891 C 0.23974 0.76997 0.49301 0.0
C2892 C 0.23054 0.76076 0.51634 0.0
C2893 C 0.22367 0.75203 0.48759 0.0
C2894 C 0.25089 0.77982 0.41392 0.0
C2895 C 0.22828 0.76009 0.57183 0.0
H2896 H 0.30053 0.79207 0.57854 0.0
H2897 H 0.21531 0.8008 0.57284 0.0
H2898 H 0.2919 0.76637 0.54262 0.0
H2899 H 0.29927 0.77325 0.48691 0.0
H2900 H 0.31696 0.77668 0.54313 0.0
H2901 H 0.18206 0.79135 0.52956 0.0
H2902 H 0.19534 0.7843 0.4773 0.0
H2903 H 0.18784 0.77763 0.53353 0.0
H2904 H 0.23747 0.76146 0.37326 0.0
H2905 H 0.2169 0.745 0.5056 0.0
H2906 H 0.27185 0.78212 0.42612 0.0
H2907 H 0.23674 0.78627 0.42307 0.0
H2908 H 0.25114 0.77879 0.37319 0.0
H2909 H 0.24851 0.76191 0.58892 0.0
H2910 H 0.22161 0.75232 0.58452 0.0
H2911 H 0.21326 0.76588 0.58548 0.0
C2912 C 0.79129 0.51932 0.18432 0.0
C2913 C 0.78046 0.50928 0.18819 0.0
C2914 C 0.77884 0.52778 0.20819 0.0
C2915 C 0.7548 0.52628 0.2372 0.0
C2916 C 0.74304 0.51625 0.23965 0.0
C2917 C 0.75591 0.5079 0.21505 0.0
C2918 C 0.79212 0.53828 0.20385 0.0
C2919 C 0.71751 0.51424 0.27004 0.0
C2920 C 0.74682 0.54557 0.34295 0.0
C2921 C 0.72794 0.55279 0.32388 0.0
C2922 C 0.75478 0.53677 0.31599 0.0
C2923 C 0.74377 0.53503 0.26822 0.0
C2924 C 0.7239 0.54209 0.24934 0.0
C2925 C 0.71617 0.55084 0.27738 0.0
C2926 C 0.77577 0.5295 0.33816 0.0
C2927 C 0.7116 0.54061 0.19869 0.0
H2928 H 0.80992 0.52054 0.16299 0.0
H2929 H 0.74739 0.50021 0.21859 0.0
H2930 H 0.77663 0.54411 0.1923 0.0
H2931 H 0.80021 0.54068 0.2404 0.0
H2932 H 0.80942 0.53835 0.1769 0.0
H2933 H 0.70924 0.50634 0.26422 0.0
H2934 H 0.72243 0.51518 0.3098 0.0
H2935 H 0.70118 0.51993 0.26083 0.0
H2936 H 0.75568 0.54686 0.37913 0.0
H2937 H 0.70172 0.55637 0.26208 0.0
H2938 H 0.79499 0.52969 0.31587 0.0
H2939 H 0.76789 0.52147 0.33742 0.0
H2940 H 0.781 0.53154 0.37689 0.0
H2941 H 0.72779 0.54179 0.17026 0.0
H2942 H 0.69442 0.54608 0.19134 0.0
H2943 H 0.70382 0.53261 0.19447 0.0
C2944 C 0.75738 0.2943 0.54189 0.0
C2945 C 0.78226 0.29249 0.56724 0.0
C2946 C 0.74408 0.28634 0.51515 0.0
C2947 C 0.75582 0.2763 0.51353 0.0
C2948 C 0.78017 0.27435 0.54104 0.0
C2949 C 0.79296 0.28241 0.56738 0.0
C2950 C 0.71807 0.28882 0.48689 0.0
C2951 C 0.79351 0.26382 0.54095 0.0
C2952 C 0.71759 0.25228 0.46545 0.0
C2953 C 0.72886 0.25118 0.41788 0.0
C2954 C 0.72519 0.26062 0.49638 0.0
C2955 C 0.74454 0.26808 0.47955 0.0
C2956 C 0.75499 0.26722 0.43083 0.0
C2957 C 0.74703 0.25886 0.40085 0.0
C2958 C 0.71331 0.26121 0.54779 0.0
C2959 C 0.77548 0.27494 0.41078 0.0
H2960 H 0.74892 0.30203 0.54113 0.0
H2961 H 0.81181 0.28084 0.58749 0.0
H2962 H 0.72234 0.2885 0.44666 0.0
H2963 H 0.70188 0.283 0.49494 0.0
H2964 H 0.70993 0.29661 0.49592 0.0
H2965 H 0.81115 0.26332 0.56706 0.0
H2966 H 0.77818 0.25781 0.55096 0.0
H2967 H 0.80112 0.26202 0.50328 0.0
H2968 H 0.70362 0.24642 0.47926 0.0
H2969 H 0.75544 0.25828 0.3639 0.0
H2970 H 0.7057 0.26911 0.55554 0.0
H2971 H 0.7297 0.25947 0.57518 0.0
H2972 H 0.6961 0.25566 0.55328 0.0
H2973 H 0.76731 0.2829 0.41479 0.0
H2974 H 0.78038 0.27358 0.37123 0.0
H2975 H 0.79493 0.2745 0.43231 0.0
C2976 C 0.45913 0.28818 0.66685 0.0
C2977 C 0.46333 0.29834 0.68343 0.0
C2978 C 0.46798 0.27955 0.69465 0.0
C2979 C 0.48171 0.28098 0.74043 0.0
C2980 C 0.48592 0.29122 0.75755 0.0
C2981 C 0.47665 0.29972 0.72912 0.0
C2982 C 0.46262 0.26885 0.67489 0.0
C2983 C 0.50057 0.2932 0.80577 0.0
C2984 C 0.48263 0.25841 0.83279 0.0
C2985 C 0.50874 0.25393 0.82488 0.0
C2986 C 0.47377 0.26719 0.80611 0.0
C2987 C 0.49135 0.27178 0.77037 0.0
C2988 C 0.51784 0.26738 0.76252 0.0
C2989 C 0.52612 0.25854 0.78954 0.0
C2990 C 0.44528 0.27146 0.81565 0.0
C2991 C 0.53746 0.27199 0.72524 0.0
H2992 H 0.44866 0.28695 0.63203 0.0
H2993 H 0.48045 0.30748 0.74222 0.0
H2994 H 0.48243 0.26469 0.66986 0.0
H2995 H 0.45019 0.26437 0.70185 0.0
H2996 H 0.45151 0.26899 0.63901 0.0
H2997 H 0.50231 0.30157 0.81412 0.0
H2998 H 0.48936 0.28938 0.83648 0.0
H2999 H 0.52161 0.28983 0.80456 0.0
H3000 H 0.46868 0.25491 0.85915 0.0
H3001 H 0.54639 0.25528 0.78318 0.0
H3002 H 0.4328 0.27108 0.78134 0.0
H3003 H 0.44666 0.2797 0.82636 0.0
H3004 H 0.43426 0.26719 0.84527 0.0
H3005 H 0.52815 0.27168 0.68784 0.0
H3006 H 0.5576 0.26789 0.72434 0.0
H3007 H 0.54119 0.28023 0.73394 0.0
C3008 C 0.47404 0.04679 0.4416 0.0
C3009 C 0.501 0.04931 0.42629 0.0
C3010 C 0.46832 0.03776 0.46878 0.0
C3011 C 0.49001 0.03093 0.48162 0.0
C3012 C 0.51734 0.03343 0.46673 0.0
C3013 C 0.52251 0.04257 0.43946 0.0
C3014 C 0.43891 0.03555 0.48395 0.0
C3015 C 0.54113 0.02641 0.47947 0.0
C3016 C 0.47684 1.01249 0.59023 0.0
C3017 C 0.46948 1.00326 0.56642 0.0
C3018 C 0.48398 1.02145 0.56327 0.0
C3019 C 0.48388 1.02127 0.51087 0.0
C3020 C 0.4766 1.01197 0.48655 0.0
C3021 C 0.46953 1.00313 0.51443 0.0
C3022 C 0.49135 0.03116 0.591 0.0
C3023 C 0.47617 1.01135 0.43089 0.0
H3024 H 0.45721 0.05198 0.43299 0.0
H3025 H 0.54336 0.04435 0.42791 0.0
H3026 H 0.43226 0.02799 0.46885 0.0
H3027 H 0.43749 0.03502 0.52478 0.0
H3028 H 0.42431 0.04157 0.47092 0.0
H3029 H 0.56114 0.02938 0.46534 0.0
H3030 H 0.54263 0.02549 0.52013 0.0
H3031 H 0.53751 1.01862 0.46373 0.0
H3032 H 0.47672 1.01278 0.63019 0.0
H3033 H 0.46446 0.99606 0.49526 0.0
H3034 H 0.47637 0.03735 0.58191 0.0
H3035 H 0.51205 0.03392 0.57948 0.0
H3036 H 0.49139 0.02998 0.63165 0.0
H3037 H 0.46086 1.0169 0.41589 0.0
H3038 H 0.47086 1.0035 0.41747 0.0
H3039 H 0.49663 1.01354 0.41577 0.0
C3040 C 0.50155 0.8019 0.2007 0.0
C3041 C 0.47481 0.80401 0.18326 0.0
C3042 C 0.50776 0.79269 0.22623 0.0
C3043 C 0.48694 0.78515 0.23374 0.0
C3044 C 0.45988 0.78721 0.21593 0.0
C3045 C 0.45408 0.79665 0.1916 0.0
C3046 C 0.53664 0.79106 0.24566 0.0
C3047 C 0.43711 0.77938 0.22203 0.0
C3048 C 0.51017 0.75738 0.2632 0.0
C3049 C 0.50525 0.75669 0.3142 0.0
C3050 C 0.50402 0.7665 0.23646 0.0
C3051 C 0.49333 0.77529 0.26137 0.0
C3052 C 0.48905 0.77468 0.31313 0.0
C3053 C 0.4947 0.76541 0.3386 0.0
C3054 C 0.50845 0.76666 0.18131 0.0
C3055 C 0.47856 0.78386 0.34181 0.0
H3056 H 0.51764 0.80758 0.19491 0.0
H3057 H 0.43347 0.79816 0.17784 0.0
H3058 H 0.53602 0.78984 0.28622 0.0
H3059 H 0.54578 0.78404 0.22902 0.0
H3060 H 0.55038 0.79772 0.23761 0.0
H3061 H 0.41751 0.78193 0.20456 0.0
H3062 H 0.44344 0.77193 0.20539 0.0
H3063 H 0.43325 0.77795 0.26184 0.0
H3064 H 0.51802 0.75067 0.24397 0.0
H3065 H 0.49107 0.76498 0.37804 0.0
H3066 H 0.52319 0.77286 0.17125 0.0
H3067 H 0.48868 0.7684 0.16235 0.0
H3068 H 0.51653 0.7592 0.16723 0.0
H3069 H 0.49239 0.79057 0.33589 0.0
H3070 H 0.47722 0.78227 0.38208 0.0
H3071 H 0.45779 0.78609 0.32831 0.0
C3072 C 0.5103 0.49791 0.06503 0.0
C3073 C 0.4835 0.49579 0.08221 0.0
C3074 C 0.51622 0.5068 0.03679 0.0
C3075 C 0.495 0.51399 0.02593 0.0
C3076 C 0.46784 0.5119 0.04317 0.0
C3077 C 0.46237 0.50279 0.0705 0.0
C3078 C 0.54528 0.50846 0.0183 0.0
C3079 C 0.4446 0.51937 0.03335 0.0
C3080 C 0.51719 0.54151 0.9892 0.0
C3081 C 0.51355 0.54144 0.93773 0.0
C3082 C 0.51085 0.53274 0.01837 0.0
C3083 C 0.50119 0.52354 0.99564 0.0
C3084 C 0.49806 0.5234 0.94355 0.0
C3085 C 0.50396 0.53232 0.91551 0.0
C3086 C 0.51414 0.53337 0.07369 0.0
C3087 C 0.48863 0.51376 0.91723 0.0
H3088 H 0.52672 0.4925 0.07331 0.0
H3089 H 0.4417 0.50129 0.08394 0.0
H3090 H 0.54525 0.50915 0.97743 0.0
H3091 H 0.55365 0.51578 0.03321 0.0
H3092 H 0.55936 0.50207 0.02901 0.0
H3093 H 0.42485 0.51681 0.05022 0.0
H3094 H 0.44998 0.52709 0.04825 0.0
H3095 H 0.44151 0.52028 0.99298 0.0
H3096 H 0.52428 0.54852 0.00681 0.0
H3097 H 0.50136 0.53213 0.87579 0.0
H3098 H 0.52919 0.52751 0.08653 0.0
H3099 H 0.49415 0.53164 0.09194 0.0
H3100 H 0.52129 0.5411 0.08591 0.0
H3101 H 0.50289 0.50729 0.92563 0.0
H3102 H 0.48771 0.51482 0.87653 0.0
H3103 H 0.46787 0.51148 0.93056 0.0
C3104 C 0.11625 0.2154 0.4943 0.0
C3105 C 0.10328 0.22375 0.47107 0.0
C3106 C 0.12913 0.21654 0.54044 0.0
C3107 C 0.1289 0.22628 0.56418 0.0
C3108 C 0.11725 0.23489 0.53942 0.0
C3109 C 0.10434 0.2335 0.49323 0.0
C3110 C 0.14138 0.20714 0.56516 0.0
C3111 C 0.11685 0.24543 0.56301 0.0
C3112 C 0.13377 0.22413 0.70445 0.0
C3113 C 0.16229 0.225 0.71169 0.0
C3114 C 0.1223 0.22513 0.65681 0.0
C3115 C 0.13974 0.22719 0.61575 0.0
C3116 C 0.16821 0.22889 0.62378 0.0
C3117 C 0.17913 0.22771 0.67149 0.0
C3118 C 0.09182 0.22326 0.64992 0.0
C3119 C 0.18751 0.23128 0.58149 0.0
H3120 H 0.11478 0.20781 0.47784 0.0
H3121 H 0.09349 0.23989 0.47605 0.0
H3122 H 0.16298 0.20869 0.57644 0.0
H3123 H 0.12953 0.2053 0.59913 0.0
H3124 H 0.14117 0.20026 0.54071 0.0
H3125 H 0.11058 0.25154 0.53646 0.0
H3126 H 0.10207 0.24542 0.5943 0.0
H3127 H 0.13747 0.24737 0.57817 0.0
H3128 H 0.12071 0.22196 0.73528 0.0
H3129 H 0.20121 0.22846 0.67696 0.0
H3130 H 0.08871 0.21589 0.62988 0.0
H3131 H 0.08252 0.22948 0.62719 0.0
H3132 H 0.08065 0.22282 0.68572 0.0
H3133 H 0.1903 0.22427 0.55855 0.0
H3134 H 0.20812 0.23384 0.59461 0.0
H3135 H 0.17868 0.23737 0.55736 0.0
C3136 C 0.14066 0.08113 0.54107 0.0
C3137 C 0.16509 0.08688 0.53823 0.0
C3138 C 0.12746 0.07945 0.58697 0.0
C3139 C 0.13873 0.08377 0.63077 0.0
C3140 C 0.16332 0.08961 0.62778 0.0
C3141 C 0.17618 0.09103 0.58186 0.0
C3142 C 0.10134 0.07314 0.58862 0.0
C3143 C 0.17576 0.09461 0.67299 0.0
C3144 C 0.09053 0.09066 0.73624 0.0
C3145 C 0.09595 0.08293 0.77141 0.0
C3146 C 0.10405 0.09091 0.69054 0.0
C3147 C 0.12355 0.08317 0.67892 0.0
C3148 C 0.12949 0.07537 0.71439 0.0
C3149 C 0.11573 0.07538 0.76052 0.0
C3150 C 0.09748 0.09953 0.65473 0.0
C3151 C 0.15012 0.06698 0.7033 0.0
H3152 H 0.13215 0.0778 0.50768 0.0
H3153 H 0.19499 0.09555 0.58013 0.0
H3154 H 0.10333 0.06688 0.61647 0.0
H3155 H 0.0838 0.07808 0.60014 0.0
H3156 H 0.09636 0.06964 0.55225 0.0
H3157 H 0.19569 0.0985 0.66485 0.0
H3158 H 0.16123 0.10043 0.68807 0.0
H3159 H 0.17923 0.08876 0.70229 0.0
H3160 H 0.07545 0.0966 0.74445 0.0
H3161 H 0.1198 0.06933 0.78727 0.0
H3162 H 0.08998 0.09629 0.6193 0.0
H3163 H 0.11643 0.10402 0.64654 0.0
H3164 H 0.08156 0.1049 0.66926 0.0
H3165 H 0.14395 0.06282 0.66926 0.0
H3166 H 0.15194 0.06133 0.73403 0.0
H3167 H 0.17071 0.07041 0.69627 0.0
C3168 C 0.86166 0.83346 0.25215 0.0
C3169 C 0.84322 0.8254 0.24229 0.0
C3170 C 0.87311 0.83469 0.29969 0.0
C3171 C 0.86597 0.82768 0.33797 0.0
C3172 C 0.84811 0.81934 0.32751 0.0
C3173 C 0.83703 0.81831 0.27996 0.0
C3174 C 0.89229 0.84363 0.30932 0.0
C3175 C 0.84019 0.8116 0.36687 0.0
C3176 C 0.91355 0.82423 0.44805 0.0
C3177 C 0.90026 0.82997 0.48512 0.0
C3178 C 0.90281 0.82357 0.40014 0.0
C3179 C 0.87794 0.82873 0.38857 0.0
C3180 C 0.86405 0.8344 0.4259 0.0
C3181 C 0.87538 0.83496 0.47388 0.0
C3182 C 0.91821 0.81736 0.3618 0.0
C3183 C 0.83735 0.83994 0.415 0.0
H3184 H 0.86615 0.83906 0.22346 0.0
H3185 H 0.82276 0.81205 0.2726 0.0
H3186 H 0.88339 0.8487 0.33823 0.0
H3187 H 0.91237 0.84076 0.32345 0.0
H3188 H 0.89609 0.84832 0.2756 0.0
H3189 H 0.82605 0.80555 0.35268 0.0
H3190 H 0.85893 0.8078 0.38182 0.0
H3191 H 0.82993 0.8156 0.39806 0.0
H3192 H 0.93275 0.8203 0.45628 0.0
H3193 H 0.86513 0.83948 0.50212 0.0
H3194 H 0.92333 0.82231 0.3296 0.0
H3195 H 0.90498 0.81099 0.34815 0.0
H3196 H 0.93763 0.81399 0.3765 0.0
H3197 H 0.84046 0.84555 0.38449 0.0
H3198 H 0.82926 0.84413 0.44773 0.0
H3199 H 0.82154 0.83433 0.40252 0.0
C3200 C 0.86053 0.96812 0.44997 0.0
C3201 C 0.83479 0.97265 0.45942 0.0
C3202 C 0.87061 0.96726 0.40123 0.0
C3203 C 0.85457 0.97099 0.36105 0.0
C3204 C 0.82903 0.97586 0.37068 0.0
C3205 C 0.81954 0.97664 0.41953 0.0
C3206 C 0.89809 0.96209 0.39257 0.0
C3207 C 0.81129 0.97998 0.32921 0.0
C3208 C 0.89237 0.97517 0.23917 0.0
C3209 C 0.88738 0.96584 0.21468 0.0
C3210 C 0.88091 0.97715 0.28594 0.0
C3211 C 0.86416 0.96958 0.30892 0.0
C3212 C 0.85759 0.96043 0.28276 0.0
C3213 C 0.86947 0.95863 0.23609 0.0
C3214 C 0.88844 0.98702 0.31223 0.0
C3215 C 0.83954 0.9522 0.30549 0.0
H3216 H 0.87238 0.96497 0.4804 0.0
H3217 H 0.79966 0.98021 0.42628 0.0
H3218 H 0.89508 0.95497 0.37054 0.0
H3219 H 0.91181 0.96726 0.37097 0.0
H3220 H 0.90861 0.96001 0.42767 0.0
H3221 H 0.79249 0.98395 0.34298 0.0
H3222 H 0.82326 0.98547 0.30618 0.0
H3223 H 0.80485 0.97353 0.30486 0.0
H3224 H 0.90703 0.98058 0.22344 0.0
H3225 H 0.86638 0.95127 0.21802 0.0
H3226 H 0.90213 0.98522 0.34394 0.0
H3227 H 0.86971 0.99081 0.32724 0.0
H3228 H 0.89927 0.99255 0.28752 0.0
H3229 H 0.85034 0.94867 0.33747 0.0
H3230 H 0.83435 0.946 0.27877 0.0
H3231 H 0.82008 0.95563 0.31951 0.0
C3232 C 0.08021 0.73931 0.04424 0.0
C3233 C 0.09051 0.73196 0.01107 0.0
C3234 C 0.0917 0.74047 0.09156 0.0
C3235 C 0.11343 0.73388 0.10657 0.0
C3236 C 0.12518 0.72695 0.07183 0.0
C3237 C 0.11369 0.72614 0.02424 0.0
C3238 C 0.07911 0.74818 0.12666 0.0
C3239 C 0.14827 0.71973 0.08626 0.0
C3240 C 0.15573 0.73704 0.22382 0.0
C3241 C 0.14337 0.72976 0.25519 0.0
C3242 C 0.14504 0.73905 0.17651 0.0
C3243 C 0.12194 0.73339 0.15962 0.0
C3244 C 0.10832 0.72652 0.19247 0.0
C3245 C 0.11911 0.72485 0.24008 0.0
C3246 C 0.15971 0.74667 0.14346 0.0
C3247 C 0.08371 0.72027 0.17597 0.0
H3248 H 0.06193 0.74368 0.03432 0.0
H3249 H 0.12115 0.72026 0.99911 0.0
H3250 H 0.06614 0.74407 0.15413 0.0
H3251 H 0.09541 0.75237 0.14727 0.0
H3252 H 0.06595 0.75389 0.10704 0.0
H3253 H 0.15657 0.71542 0.05408 0.0
H3254 H 0.16537 0.72407 0.10377 0.0
H3255 H 0.14054 0.71408 0.11385 0.0
H3256 H 0.17484 0.74069 0.23517 0.0
H3257 H 0.10998 0.71901 0.26365 0.0
H3258 H 0.14464 0.75163 0.12372 0.0
H3259 H 0.17177 0.74243 0.11517 0.0
H3260 H 0.17411 0.75167 0.16457 0.0
H3261 H 0.06768 0.72539 0.15992 0.0
H3262 H 0.07438 0.7158 0.20679 0.0
H3263 H 0.09015 0.7148 0.14667 0.0
C3264 C 0.10809 0.57445 0.26298 0.0
C3265 C 0.09753 0.58386 0.2799 0.0
C3266 C 0.12083 0.57375 0.21615 0.0
C3267 C 0.12298 0.58268 0.18586 0.0
C3268 C 0.11356 0.59227 0.20423 0.0
C3269 C 0.10082 0.59272 0.25068 0.0
C3270 C 0.13067 0.56338 0.19806 0.0
C3271 C 0.11578 0.60204 0.17388 0.0
C3272 C 0.17372 0.58526 0.07969 0.0
C3273 C 0.15657 0.58438 0.03799 0.0
C3274 C 0.16334 0.58415 0.12779 0.0
C3275 C 0.13495 0.58216 0.13491 0.0
C3276 C 0.11765 0.58081 0.093 0.0
C3277 C 0.12869 0.5819 0.04496 0.0
C3278 C 0.18262 0.58561 0.17108 0.0
C3279 C 0.08725 0.57866 0.09898 0.0
H3280 H 0.1048 0.56754 0.28484 0.0
H3281 H 0.09215 0.59996 0.26324 0.0
H3282 H 0.1176 0.56085 0.16672 0.0
H3283 H 0.15217 0.56394 0.1842 0.0
H3284 H 0.12981 0.5574 0.22746 0.0
H3285 H 0.10852 0.60894 0.19438 0.0
H3286 H 0.1375 0.60333 0.16246 0.0
H3287 H 0.10331 0.60126 0.13972 0.0
H3288 H 0.19543 0.58702 0.07489 0.0
H3289 H 0.11533 0.58116 0.01305 0.0
H3290 H 0.18034 0.57917 0.19781 0.0
H3291 H 0.17723 0.59284 0.19077 0.0
H3292 H 0.20457 0.58607 0.15944 0.0
H3293 H 0.08402 0.57211 0.12478 0.0
H3294 H 0.07713 0.57684 0.06323 0.0
H3295 H 0.07694 0.5855 0.11525 0.0
C3296 C 0.88669 0.32604 1.00167 0.0
C3297 C 0.88483 0.33615 0.0195 0.0
C3298 C 0.87594 0.32338 0.95513 0.0
C3299 C 0.86278 0.33103 0.92599 0.0
C3300 C 0.85896 0.34106 0.94568 0.0
C3301 C 0.8704 0.34354 0.99192 0.0
C3302 C 0.8807 0.31263 0.9356 0.0
C3303 C 0.84445 0.34938 0.9165 0.0
C3304 C 0.86296 0.32928 0.78498 0.0
C3305 C 0.83627 0.32563 0.77544 0.0
C3306 C 0.87217 0.33078 0.83389 0.0
C3307 C 0.85415 0.32871 0.87412 0.0
C3308 C 0.82751 0.32476 0.86462 0.0
C3309 C 0.81903 0.32319 0.81565 0.0
C3310 C 0.90095 0.33483 0.84252 0.0
C3311 C 0.80753 0.32254 0.90615 0.0
H3312 H 0.8987 0.32042 0.02219 0.0
H3313 H 0.86978 0.35145 0.00493 0.0
H3314 H 0.86129 0.30936 0.92061 0.0
H3315 H 0.8958 0.31294 0.9048 0.0
H3316 H 0.8888 0.30733 0.96448 0.0
H3317 H 0.84058 0.3564 0.939 0.0
H3318 H 0.85725 0.35158 0.88418 0.0
H3319 H 0.82444 0.34649 0.90218 0.0
H3320 H 0.8764 0.3312 0.75431 0.0
H3321 H 0.79834 0.32035 0.80897 0.0
H3322 H 0.91215 0.32973 0.86867 0.0
H3323 H 0.89985 0.3426 0.85958 0.0
H3324 H 0.91303 0.33541 0.80775 0.0
H3325 H 0.81699 0.3172 0.93339 0.0
H3326 H 0.78795 0.31908 0.89274 0.0
H3327 H 0.80262 0.3298 0.92592 0.0
C3328 C 0.83716 0.4874 0.95469 0.0
C3329 C 0.84498 0.47965 0.98819 0.0
C3330 C 0.84791 0.48774 0.90659 0.0
C3331 C 0.86673 0.48005 0.89125 0.0
C3332 C 0.87562 0.47244 0.92558 0.0
C3333 C 0.86475 0.47237 0.97385 0.0
C3334 C 0.8383 0.49609 0.87164 0.0
C3335 C 0.89571 0.46411 0.91065 0.0
C3336 C 0.87391 0.47276 0.75551 0.0
C3337 C 0.89971 0.477 0.74422 0.0
C3338 C 0.86226 0.47406 0.80277 0.0
C3339 C 0.87671 0.47982 0.83909 0.0
C3340 C 0.90165 0.48482 0.82621 0.0
C3341 C 0.91294 0.48327 0.7791 0.0
C3342 C 0.83559 0.46862 0.81497 0.0
C3343 C 0.91745 0.4912 0.86326 0.0
H3344 H 0.82189 0.49307 0.96568 0.0
H3345 H 0.87054 0.46628 0.99937 0.0
H3346 H 0.85628 0.50005 0.85474 0.0
H3347 H 0.82621 0.49261 0.84115 0.0
H3348 H 0.82522 0.50194 0.89038 0.0
H3349 H 0.90118 0.45894 0.94196 0.0
H3350 H 0.8866 0.45937 0.88068 0.0
H3351 H 0.9149 0.46762 0.8959 0.0
H3352 H 0.86401 0.46771 0.72906 0.0
H3353 H 0.93314 0.48641 0.77054 0.0
H3354 H 0.82082 0.47404 0.83241 0.0
H3355 H 0.83967 0.46235 0.84197 0.0
H3356 H 0.82575 0.46521 0.78172 0.0
H3357 H 0.90349 0.4967 0.88223 0.0
H3358 H 0.93452 0.4956 0.84573 0.0
H3359 H 0.92637 0.48606 0.89193 0.0
C3360 C 0.61296 0.21276 0.99659 0.0
C3361 C 0.60207 0.22071 0.96752 0.0
C3362 C 0.62561 0.21482 0.04211 0.0
C3363 C 0.62699 0.22511 0.05954 0.0
C3364 C 0.61721 0.23326 0.02911 0.0
C3365 C 0.6048 0.23095 0.98331 0.0
C3366 C 0.63612 0.20589 0.07276 0.0
C3367 C 0.61827 0.24432 0.04622 0.0
C3368 C 0.63171 0.22594 0.19993 0.0
C3369 C 0.66035 0.2263 0.20675 0.0
C3370 C 0.62027 0.22632 0.15205 0.0
C3371 C 0.63791 0.22712 0.11029 0.0
C3372 C 0.6666 0.2284 0.11754 0.0
C3373 C 0.67743 0.22795 0.16556 0.0
C3374 C 0.58951 0.22505 0.14601 0.0
C3375 C 0.68618 0.22938 0.07439 0.0
H3376 H 0.61023 0.20483 0.98484 0.0
H3377 H 0.59554 0.23707 0.96154 0.0
H3378 H 0.65788 0.20724 0.08367 0.0
H3379 H 0.6238 0.20524 0.10719 0.0
H3380 H 0.6349 0.19843 0.0527 0.0
H3381 H 0.61319 0.24981 0.01602 0.0
H3382 H 0.60325 0.24544 0.07668 0.0
H3383 H 0.63902 0.24621 0.06095 0.0
H3384 H 0.6184 0.22464 0.23151 0.0
H3385 H 0.6996 0.22836 0.17061 0.0
H3386 H 0.58505 0.21726 0.131 0.0
H3387 H 0.58135 0.23079 0.11929 0.0
H3388 H 0.57836 0.22592 0.18162 0.0
H3389 H 0.68798 0.2218 0.05557 0.0
H3390 H 0.70712 0.23184 0.08619 0.0
H3391 H 0.67822 0.235 0.04693 0.0
C3392 C 0.66062 0.07192 0.04105 0.0
C3393 C 0.6488 0.07909 0.00841 0.0
C3394 C 0.64868 0.06978 0.08712 0.0
C3395 C 0.62466 0.07516 0.10171 0.0
C3396 C 0.61214 0.08223 0.06828 0.0
C3397 C 0.62423 0.08403 0.02163 0.0
C3398 C 0.66229 0.06199 0.12078 0.0
C3399 C 0.58666 0.08821 0.08267 0.0
C3400 C 0.57931 0.06583 0.20746 0.0
C3401 C 0.58773 0.07225 0.24626 0.0
C3402 C 0.59204 0.06633 0.16089 0.0
C3403 C 0.6132 0.07365 0.15248 0.0
C3404 C 0.62281 0.07976 0.19236 0.0
C3405 C 0.61014 0.0789 0.23899 0.0
C3406 C 0.58176 0.05942 0.11999 0.0
C3407 C 0.64517 0.08773 0.18497 0.0
H3408 H 0.67968 0.06808 0.0308 0.0
H3409 H 0.61533 0.08968 0.99671 0.0
H3410 H 0.67063 0.06594 0.15389 0.0
H3411 H 0.64693 0.05625 0.13382 0.0
H3412 H 0.67946 0.05783 0.10225 0.0
H3413 H 0.57908 0.09322 0.05223 0.0
H3414 H 0.56991 0.08283 0.09352 0.0
H3415 H 0.59126 0.09311 0.11521 0.0
H3416 H 0.56169 0.06079 0.21284 0.0
H3417 H 0.61623 0.08407 0.26846 0.0
H3418 H 0.59934 0.05563 0.10102 0.0
H3419 H 0.57066 0.06412 0.09204 0.0
H3420 H 0.56751 0.05336 0.13391 0.0
H3421 H 0.66376 0.08412 0.1685 0.0
H3422 H 0.65116 0.09154 0.22011 0.0
H3423 H 0.63787 0.09373 0.15876 0.0
C3424 C 0.4053 0.81687 0.98133 0.0
C3425 C 0.39201 0.8247 0.00789 0.0
C3426 C 0.39574 0.81382 0.93461 0.0
C3427 C 0.37293 0.819 0.91339 0.0
C3428 C 0.35831 0.82643 0.9417 0.0
C3429 C 0.36794 0.82913 0.98893 0.0
C3430 C 0.41138 0.80564 0.90658 0.0
C3431 C 0.33394 0.83218 0.92044 0.0
C3432 C 0.36814 0.82433 0.7758 0.0
C3433 C 0.34491 0.81851 0.76307 0.0
C3434 C 0.37876 0.82404 0.82411 0.0
C3435 C 0.36614 0.8176 0.86004 0.0
C3436 C 0.34479 0.81081 0.84557 0.0
C3437 C 0.33416 0.81146 0.7974 0.0
C3438 C 0.40159 0.83142 0.83785 0.0
C3439 C 0.33143 0.80354 0.88203 0.0
H3440 H 0.42423 0.81358 0.99581 0.0
H3441 H 0.35813 0.83537 0.00902 0.0
H3442 H 0.39698 0.80039 0.88704 0.0
H3443 H 0.42466 0.80936 0.87832 0.0
H3444 H 0.42478 0.80099 0.9314 0.0
H3445 H 0.32369 0.83717 0.94829 0.0
H3446 H 0.34096 0.83711 0.88929 0.0
H3447 H 0.31852 0.82669 0.90556 0.0
H3448 H 0.3762 0.82992 0.74985 0.0
H3449 H 0.31595 0.80703 0.78776 0.0
H3450 H 0.41812 0.82734 0.8584 0.0
H3451 H 0.39323 0.8375 0.8625 0.0
H3452 H 0.41086 0.83521 0.80493 0.0
H3453 H 0.34717 0.79986 0.90606 0.0
H3454 H 0.3194 0.79741 0.86311 0.0
H3455 H 0.31718 0.80794 0.90619 0.0
C3456 C 0.31452 0.976 0.91297 0.0
C3457 C 0.33181 0.97477 0.95432 0.0
C3458 C 0.32469 0.9752 0.86463 0.0
C3459 C 0.35299 0.97314 0.85694 0.0
C3460 C 0.37086 0.97227 0.89837 0.0
C3461 C 0.36005 0.97309 0.94667 0.0
C3462 C 0.30488 0.9762 0.8218 0.0
C3463 C 0.40123 0.97013 0.89168 0.0
C3464 C 0.37546 0.95928 0.73975 0.0
C3465 C 0.38656 0.96735 0.71162 0.0
C3466 C 0.36364 0.96112 0.7863 0.0
C3467 C 0.36342 0.97127 0.8057 0.0
C3468 C 0.37347 0.97953 0.77631 0.0
C3469 C 0.38496 0.97746 0.72955 0.0
C3470 C 0.35276 0.9521 0.81584 0.0
C3471 C 0.37365 0.99045 0.79548 0.0
H3472 H 0.29267 0.9774 0.91824 0.0
H3473 H 0.37353 0.97213 0.97828 0.0
H3474 H 0.31248 0.98204 0.79505 0.0
H3475 H 0.30356 0.96873 0.80192 0.0
H3476 H 0.2838 0.97843 0.83387 0.0
H3477 H 0.41268 0.97036 0.9272 0.0
H3478 H 0.40408 0.96241 0.87485 0.0
H3479 H 0.41042 0.97587 0.86603 0.0
H3480 H 0.37752 0.95142 0.72654 0.0
H3481 H 0.39453 0.98364 0.70862 0.0
H3482 H 0.33138 0.95367 0.82841 0.0
H3483 H 0.36563 0.95098 0.84931 0.0
H3484 H 0.35281 0.94481 0.79427 0.0
H3485 H 0.35291 0.99263 0.80934 0.0
H3486 H 0.38003 0.99609 0.76671 0.0
H3487 H 0.38818 0.99103 0.82704 0.0
C3488 C 0.56459 0.73009 0.55395 0.0
C3489 C 0.57863 0.73039 0.50859 0.0
C3490 C 0.57891 0.72991 0.59881 0.0
C3491 C 0.60805 0.73032 0.59852 0.0
C3492 C 0.6222 0.73185 0.55318 0.0
C3493 C 0.60732 0.73176 0.50847 0.0
C3494 C 0.56287 0.72809 0.64593 0.0
C3495 C 0.65323 0.7327 0.55151 0.0
C3496 C 0.64221 0.7308 0.72556 0.0
C3497 C 0.64889 0.72036 0.73165 0.0
C3498 C 0.62987 0.73431 0.68147 0.0
C3499 C 0.62337 0.72713 0.64374 0.0
C3500 C 0.62976 0.71655 0.65048 0.0
C3501 C 0.64281 0.71335 0.69396 0.0
C3502 C 0.62419 0.74567 0.67488 0.0
C3503 C 0.62246 0.70855 0.61205 0.0
H3504 H 0.54234 0.72923 0.55444 0.0
H3505 H 0.6183 0.73209 0.47362 0.0
H3506 H 0.56614 0.72002 0.65843 0.0
H3507 H 0.57021 0.73324 0.67581 0.0
H3508 H 0.54037 0.72934 0.6408 0.0
H3509 H 0.66043 0.73616 0.5162 0.0
H3510 H 0.66097 0.73744 0.58267 0.0
H3511 H 0.66245 0.7249 0.55501 0.0
H3512 H 0.64743 0.73623 0.75449 0.0
H3513 H 0.64803 0.70527 0.69882 0.0
H3514 H 0.60177 0.747 0.66962 0.0
H3515 H 0.63473 0.74853 0.64113 0.0
H3516 H 0.63128 0.75029 0.70699 0.0
H3517 H 0.5999 0.70867 0.60495 0.0
H3518 H 0.62842 0.70063 0.62354 0.0
H3519 H 0.63296 0.71036 0.57668 0.0
C3520 C 0.62264 0.57347 0.75308 0.0
C3521 C 0.60318 0.56578 0.7631 0.0
C3522 C 0.63567 0.57403 0.7068 0.0
C3523 C 0.6296 0.56653 0.67033 0.0
C3524 C 0.6123 0.55809 0.68244 0.0
C3525 C 0.59884 0.55793 0.7284 0.0
C3526 C 0.65365 0.58325 0.69535 0.0
C3527 C 0.60618 0.5497 0.6455 0.0
C3528 C 0.63129 0.57639 0.53793 0.0
C3529 C 0.6583 0.57396 0.52401 0.0
C3530 C 0.62138 0.57373 0.58507 0.0
C3531 C 0.63866 0.56822 0.61829 0.0
C3532 C 0.66523 0.56507 0.60274 0.0
C3533 C 0.67493 0.56816 0.55612 0.0
C3534 C 0.59307 0.57738 0.60044 0.0
C3535 C 0.68388 0.55886 0.63611 0.0
H3536 H 0.62548 0.57968 0.77929 0.0
H3537 H 0.58342 0.55207 0.73587 0.0
H3538 H 0.67345 0.58076 0.67869 0.0
H3539 H 0.64306 0.58826 0.66797 0.0
H3540 H 0.65817 0.58791 0.72878 0.0
H3541 H 0.59701 0.54279 0.66347 0.0
H3542 H 0.59135 0.55262 0.61758 0.0
H3543 H 0.62522 0.54736 0.62569 0.0
H3544 H 0.61861 0.581 0.51337 0.0
H3545 H 0.69587 0.56627 0.54523 0.0
H3546 H 0.59497 0.58283 0.63186 0.0
H3547 H 0.5804 0.57078 0.61324 0.0
H3548 H 0.58195 0.58134 0.56989 0.0
H3549 H 0.69164 0.56383 0.66637 0.0
H3550 H 0.7019 0.55567 0.61587 0.0
H3551 H 0.67232 0.5524 0.65335 0.0
C3552 C 0.37225 0.3433 0.49606 0.0
C3553 C 0.38478 0.33546 0.52369 0.0
C3554 C 0.36052 0.34126 0.44958 0.0
C3555 C 0.36211 0.33116 0.42968 0.0
C3556 C 0.37335 0.32309 0.45881 0.0
C3557 C 0.38442 0.32534 0.50561 0.0
C3558 C 0.34809 0.35004 0.42045 0.0
C3559 C 0.37566 0.31224 0.43905 0.0
C3560 C 0.31678 0.32456 0.31959 0.0
C3561 C 0.33456 0.32627 0.27927 0.0
C3562 C 0.32551 0.32604 0.36846 0.0
C3563 C 0.35294 0.32915 0.37781 0.0
C3564 C 0.37134 0.3306 0.33751 0.0
C3565 C 0.36189 0.32921 0.28864 0.0
C3566 C 0.30509 0.32454 0.41005 0.0
C3567 C 0.40091 0.33378 0.34601 0.0
H3568 H 0.37336 0.35119 0.5093 0.0
H3569 H 0.395 0.31933 0.52617 0.0
H3570 H 0.36144 0.35185 0.38827 0.0
H3571 H 0.32752 0.34783 0.4059 0.0
H3572 H 0.3458 0.35714 0.44305 0.0
H3573 H 0.38273 0.30669 0.46772 0.0
H3574 H 0.35552 0.30959 0.42436 0.0
H3575 H 0.39061 0.31212 0.40799 0.0
H3576 H 0.29556 0.3223 0.31308 0.0
H3577 H 0.37575 0.33056 0.25789 0.0
H3578 H 0.30224 0.33192 0.43015 0.0
H3579 H 0.3131 0.31882 0.437 0.0
H3580 H 0.28463 0.32187 0.39668 0.0
H3581 H 0.40152 0.34152 0.36339 0.0
H3582 H 0.413 0.33405 0.31116 0.0
H3583 H 0.41105 0.32831 0.37187 0.0
C3584 C 0.36702 0.46964 0.50375 0.0
C3585 C 0.34898 0.47745 0.51899 0.0
C3586 C 0.37809 0.46966 0.45562 0.0
C3587 C 0.37119 0.47776 0.42238 0.0
C3588 C 0.35424 0.48595 0.43874 0.0
C3589 C 0.34323 0.48565 0.48666 0.0
C3590 C 0.39613 0.46079 0.43957 0.0
C3591 C 0.34683 0.49482 0.40502 0.0
C3592 C 0.41831 0.48025 0.311 0.0
C3593 C 0.40373 0.47474 0.27489 0.0
C3594 C 0.40735 0.48178 0.35837 0.0
C3595 C 0.38129 0.47753 0.37027 0.0
C3596 C 0.36562 0.47258 0.33289 0.0
C3597 C 0.37698 0.47131 0.28537 0.0
C3598 C 0.42448 0.48733 0.39656 0.0
C3599 C 0.3377 0.46797 0.34403 0.0
H3600 H 0.37115 0.4632 0.52832 0.0
H3601 H 0.32925 0.49171 0.49834 0.0
H3602 H 0.386 0.45657 0.40889 0.0
H3603 H 0.41614 0.46372 0.42544 0.0
H3604 H 0.40024 0.45527 0.47015 0.0
H3605 H 0.33524 0.50098 0.4246 0.0
H3606 H 0.36574 0.49824 0.38869 0.0
H3607 H 0.33395 0.49197 0.37404 0.0
H3608 H 0.43912 0.48285 0.303 0.0
H3609 H 0.36581 0.46692 0.2579 0.0
H3610 H 0.43189 0.48173 0.4246 0.0
H3611 H 0.41186 0.49318 0.41613 0.0
H3612 H 0.44269 0.49122 0.37994 0.0
H3613 H 0.34015 0.46144 0.37026 0.0
H3614 H 0.32726 0.46509 0.31024 0.0
H3615 H 0.32419 0.47376 0.36201 0.0
loop_
_geom_bond_atom_site_label_1
_geom_bond_atom_site_label_2
_geom_bond_distance
_geom_bond_site_symmetry_2
_ccdc_geom_bond_type
C0 C1 1.351 . S
C0 N3 1.368 . S
C0 H5 0.931 . S
C1 C0 1.351 . S
C1 N2 1.373 . S
C1 H29 0.930 . S
N2 C1 1.373 . S
N2 C4 1.340 . S
N3 C0 1.368 . S
N3 C4 1.321 . S
N3 Co6 2.135 . S
C4 N2 1.340 . S
C4 N3 1.321 . S
C4 H28 0.930 . S
H5 C0 0.931 . S
Co6 N3 2.135 . S
Co6 N9 2.121 . S
Co6 O14 2.055 . S
Co6 O17 2.039 . S
Co6 N20 2.140 . S
C7 O8 1.227 . S
C7 O17 1.265 . S
O8 C7 1.227 . S
N9 Co6 2.121 . S
N9 C11 1.375 . S
N9 C12 1.313 . S
C10 C11 1.338 . S
C10 N13 1.377 . S
C10 H30 0.930 . S
C11 N9 1.375 . S
C11 C10 1.338 . S
C11 H15 0.931 . S
C12 N9 1.313 . S
C12 N13 1.344 . S
C12 H16 0.930 . S
N13 C10 1.377 . S
N13 C12 1.344 . S
O14 Co6 2.055 . S
O14 C18 1.253 . S
H15 C11 0.931 . S
H16 C12 0.930 . S
O17 Co6 2.039 . S
O17 C7 1.265 . S
C18 O14 1.253 . S
C18 O19 1.227 . S
O19 C18 1.227 . S
N20 Co6 2.140 . S
N20 C23 1.346 . S
N20 C24 1.345 . S
C21 C22 1.387 . S
C21 C25 1.391 . S
C22 C21 1.387 . S
C22 C23 1.369 1_655 S
C22 H31 0.929 . S
C23 N20 1.346 . S
C23 C22 1.369 1_455 S
C23 H26 0.928 . S
C24 N20 1.345 . S
C24 C25 1.371 1_455 S
C24 H27 0.931 . S
C25 C21 1.391 . S
C25 C24 1.371 1_655 S
C25 H32 0.930 . S
H26 C23 0.928 . S
H27 C24 0.931 . S
H28 C4 0.930 . S
H29 C1 0.930 . S
H30 C10 0.930 . S
H31 C22 0.929 . S
H32 C25 0.930 . S
C33 C34 1.351 . S
C33 N36 1.368 . S
C33 H38 0.931 . S
C34 C33 1.351 . S
C34 N35 1.373 . S
C34 H62 0.930 . S
N35 C34 1.373 . S
N35 C37 1.340 . S
N36 C33 1.368 . S
N36 C37 1.321 . S
N36 Co39 2.135 . S
C37 N35 1.340 . S
C37 N36 1.321 . S
C37 H61 0.930 . S
H38 C33 0.931 . S
Co39 N36 2.135 . S
Co39 N42 2.121 . S
Co39 O47 2.055 . S
Co39 O50 2.039 . S
Co39 N53 2.140 . S
C40 O41 1.227 . S
C40 O50 1.265 . S
O41 C40 1.227 . S
N42 Co39 2.121 . S
N42 C44 1.375 . S
N42 C45 1.313 . S
C43 C44 1.338 . S
C43 N46 1.377 . S
C43 H63 0.930 . S
C44 N42 1.375 . S
C44 C43 1.338 . S
C44 H48 0.931 . S
C45 N42 1.313 . S
C45 N46 1.344 . S
C45 H49 0.930 . S
N46 C43 1.377 . S
N46 C45 1.344 . S
O47 Co39 2.055 . S
O47 C51 1.253 . S
H48 C44 0.931 . S
H49 C45 0.930 . S
O50 Co39 2.039 . S
O50 C40 1.265 . S
C51 O47 1.253 . S
C51 O52 1.227 . S
O52 C51 1.227 . S
N53 Co39 2.140 . S
N53 C56 1.346 . S
N53 C57 1.345 . S
C54 C55 1.387 . S
C54 C58 1.391 . S
C55 C54 1.387 . S
C55 C56 1.369 . S
C55 H64 0.929 . S
C56 N53 1.346 . S
C56 C55 1.369 . S
C56 H59 0.928 . S
C57 N53 1.345 . S
C57 C58 1.371 . S
C57 H60 0.931 . S
C58 C54 1.391 . S
C58 C57 1.371 . S
C58 H65 0.930 . S
H59 C56 0.928 . S
H60 C57 0.931 . S
H61 C37 0.930 . S
H62 C34 0.930 . S
H63 C43 0.930 . S
H64 C55 0.929 . S
H65 C58 0.930 . S
C66 C67 1.351 . S
C66 N69 1.368 . S
C66 H71 0.931 . S
C67 C66 1.351 . S
C67 N68 1.373 . S
C67 H95 0.930 . S
N68 C67 1.373 . S
N68 C70 1.340 . S
N69 C66 1.368 . S
N69 C70 1.321 . S
N69 Co72 2.135 . S
C70 N68 1.340 . S
C70 N69 1.321 . S
C70 H94 0.930 . S
H71 C66 0.931 . S
Co72 N69 2.135 . S
Co72 N75 2.121 . S
Co72 O80 2.055 . S
Co72 O83 2.039 . S
Co72 N86 2.140 . S
C73 O74 1.227 . S
C73 O83 1.265 . S
O74 C73 1.227 . S
N75 Co72 2.121 . S
N75 C77 1.375 . S
N75 C78 1.313 . S
C76 C77 1.338 . S
C76 N79 1.377 . S
C76 H96 0.930 . S
C77 N75 1.375 . S
C77 C76 1.338 . S
C77 H81 0.931 . S
C78 N75 1.313 . S
C78 N79 1.344 . S
C78 H82 0.930 . S
N79 C76 1.377 . S
N79 C78 1.344 . S
O80 Co72 2.055 . S
O80 C84 1.253 . S
H81 C77 0.931 . S
H82 C78 0.930 . S
O83 Co72 2.039 . S
O83 C73 1.265 . S
C84 O80 1.253 . S
C84 O85 1.227 . S
O85 C84 1.227 . S
N86 Co72 2.140 . S
N86 C89 1.346 . S
N86 C90 1.345 . S
C87 C88 1.387 . S
C87 C91 1.391 . S
C88 C87 1.387 . S
C88 C89 1.369 1_655 S
C88 H97 0.929 . S
C89 N86 1.346 . S
C89 C88 1.369 1_455 S
C89 H92 0.928 . S
C90 N86 1.345 . S
C90 C91 1.371 1_455 S
C90 H93 0.931 . S
C91 C87 1.391 . S
C91 C90 1.371 1_655 S
C91 H98 0.930 . S
H92 C89 0.928 . S
H93 C90 0.931 . S
H94 C70 0.930 . S
H95 C67 0.930 . S
H96 C76 0.930 . S
H97 C88 0.929 . S
H98 C91 0.930 . S
C99 C100 1.351 . S
C99 N102 1.368 . S
C99 H104 0.931 . S
C100 C99 1.351 . S
C100 N101 1.373 . S
C100 H128 0.930 . S
N101 C100 1.373 . S
N101 C103 1.340 . S
N102 C99 1.368 . S
N102 C103 1.321 . S
N102 Co105 2.135 . S
C103 N101 1.340 . S
C103 N102 1.321 . S
C103 H127 0.930 . S
H104 C99 0.931 . S
Co105 N102 2.135 . S
Co105 N108 2.121 . S
Co105 O113 2.055 . S
Co105 O116 2.039 . S
Co105 N119 2.140 . S
C106 O107 1.227 . S
C106 O116 1.265 . S
O107 C106 1.227 . S
N108 Co105 2.121 . S
N108 C110 1.375 . S
N108 C111 1.313 . S
C109 C110 1.338 . S
C109 N112 1.377 . S
C109 H129 0.930 . S
C110 N108 1.375 . S
C110 C109 1.338 . S
C110 H114 0.931 . S
C111 N108 1.313 . S
C111 N112 1.344 . S
C111 H115 0.930 . S
N112 C109 1.377 . S
N112 C111 1.344 . S
O113 Co105 2.055 . S
O113 C117 1.253 . S
H114 C110 0.931 . S
H115 C111 0.930 . S
O116 Co105 2.039 . S
O116 C106 1.265 . S
C117 O113 1.253 . S
C117 O118 1.227 . S
O118 C117 1.227 . S
N119 Co105 2.140 . S
N119 C122 1.346 . S
N119 C123 1.345 . S
C120 C121 1.387 . S
C120 C124 1.391 . S
C121 C120 1.387 . S
C121 C122 1.369 . S
C121 H130 0.929 . S
C122 N119 1.346 . S
C122 C121 1.369 . S
C122 H125 0.928 . S
C123 N119 1.345 . S
C123 C124 1.371 . S
C123 H126 0.931 . S
C124 C120 1.391 . S
C124 C123 1.371 . S
C124 H131 0.930 . S
H125 C122 0.928 . S
H126 C123 0.931 . S
H127 C103 0.930 . S
H128 C100 0.930 . S
H129 C109 0.930 . S
H130 C121 0.929 . S
H131 C124 0.930 . S
C132 C133 1.351 . S
C132 N135 1.368 . S
C132 H137 0.931 . S
C133 C132 1.351 . S
C133 N134 1.373 . S
C133 H161 0.930 . S
N134 C133 1.373 . S
N134 C136 1.340 . S
N135 C132 1.368 . S
N135 C136 1.321 . S
N135 Co138 2.135 . S
C136 N134 1.340 . S
C136 N135 1.321 . S
C136 H160 0.930 . S
H137 C132 0.931 . S
Co138 N135 2.135 . S
Co138 N141 2.121 . S
Co138 O146 2.055 . S
Co138 O149 2.039 . S
Co138 N152 2.140 . S
C139 O140 1.227 . S
C139 O149 1.265 . S
O140 C139 1.227 . S
N141 Co138 2.121 . S
N141 C143 1.375 . S
N141 C144 1.313 . S
C142 C143 1.338 . S
C142 N145 1.377 . S
C142 H162 0.930 . S
C143 N141 1.375 . S
C143 C142 1.338 . S
C143 H147 0.931 . S
C144 N141 1.313 . S
C144 N145 1.344 . S
C144 H148 0.930 . S
N145 C142 1.377 . S
N145 C144 1.344 . S
O146 Co138 2.055 . S
O146 C150 1.253 . S
H147 C143 0.931 . S
H148 C144 0.930 . S
O149 Co138 2.039 . S
O149 C139 1.265 . S
C150 O146 1.253 . S
C150 O151 1.227 . S
O151 C150 1.227 . S
N152 Co138 2.140 . S
N152 C155 1.346 . S
N152 C156 1.345 . S
C153 C154 1.387 . S
C153 C157 1.391 . S
C154 C153 1.387 . S
C154 C155 1.369 1_455 S
C154 H163 0.929 . S
C155 N152 1.346 . S
C155 C154 1.369 1_655 S
C155 H158 0.928 . S
C156 N152 1.345 . S
C156 C157 1.371 1_655 S
C156 H159 0.931 . S
C157 C153 1.391 . S
C157 C156 1.371 1_455 S
C157 H164 0.930 . S
H158 C155 0.928 . S
H159 C156 0.931 . S
H160 C136 0.930 . S
H161 C133 0.930 . S
H162 C142 0.930 . S
H163 C154 0.929 . S
H164 C157 0.930 . S
C165 C166 1.351 . S
C165 N168 1.368 . S
C165 H170 0.931 . S
C166 C165 1.351 . S
C166 N167 1.373 . S
C166 H194 0.930 . S
N167 C166 1.373 . S
N167 C169 1.340 . S
N168 C165 1.368 . S
N168 C169 1.321 . S
N168 Co171 2.135 . S
C169 N167 1.340 . S
C169 N168 1.321 . S
C169 H193 0.930 . S
H170 C165 0.931 . S
Co171 N168 2.135 . S
Co171 N174 2.121 . S
Co171 O179 2.055 . S
Co171 O182 2.039 . S
Co171 N185 2.140 . S
C172 O173 1.227 . S
C172 O182 1.265 . S
O173 C172 1.227 . S
N174 Co171 2.121 . S
N174 C176 1.375 . S
N174 C177 1.313 . S
C175 C176 1.338 . S
C175 N178 1.377 . S
C175 H195 0.930 . S
C176 N174 1.375 . S
C176 C175 1.338 . S
C176 H180 0.931 . S
C177 N174 1.313 . S
C177 N178 1.344 . S
C177 H181 0.930 . S
N178 C175 1.377 . S
N178 C177 1.344 . S
O179 Co171 2.055 . S
O179 C183 1.253 . S
H180 C176 0.931 . S
H181 C177 0.930 . S
O182 Co171 2.039 . S
O182 C172 1.265 . S
C183 O179 1.253 . S
C183 O184 1.227 . S
O184 C183 1.227 . S
N185 Co171 2.140 . S
N185 C188 1.346 . S
N185 C189 1.345 . S
C186 C187 1.387 . S
C186 C190 1.391 . S
C187 C186 1.387 . S
C187 C188 1.369 . S
C187 H196 0.929 . S
C188 N185 1.346 . S
C188 C187 1.369 . S
C188 H191 0.928 . S
C189 N185 1.345 . S
C189 C190 1.371 . S
C189 H192 0.931 . S
C190 C186 1.391 . S
C190 C189 1.371 . S
C190 H197 0.930 . S
H191 C188 0.928 . S
H192 C189 0.931 . S
H193 C169 0.930 . S
H194 C166 0.930 . S
H195 C175 0.930 . S
H196 C187 0.929 . S
H197 C190 0.930 . S
C198 C199 1.351 . S
C198 N201 1.368 . S
C198 H203 0.931 . S
C199 C198 1.351 . S
C199 N200 1.373 . S
C199 H227 0.930 . S
N200 C199 1.373 . S
N200 C202 1.340 . S
N201 C198 1.368 . S
N201 C202 1.321 . S
N201 Co204 2.135 . S
C202 N200 1.340 . S
C202 N201 1.321 . S
C202 H226 0.930 . S
H203 C198 0.931 . S
Co204 N201 2.135 . S
Co204 N207 2.121 . S
Co204 O212 2.055 . S
Co204 O215 2.039 . S
Co204 N218 2.140 . S
C205 O206 1.227 . S
C205 O215 1.265 . S
O206 C205 1.227 . S
N207 Co204 2.121 . S
N207 C209 1.375 . S
N207 C210 1.313 . S
C208 C209 1.338 . S
C208 N211 1.377 . S
C208 H228 0.930 . S
C209 N207 1.375 . S
C209 C208 1.338 . S
C209 H213 0.931 . S
C210 N207 1.313 . S
C210 N211 1.344 . S
C210 H214 0.930 . S
N211 C208 1.377 . S
N211 C210 1.344 . S
O212 Co204 2.055 . S
O212 C216 1.253 . S
H213 C209 0.931 . S
H214 C210 0.930 . S
O215 Co204 2.039 . S
O215 C205 1.265 . S
C216 O212 1.253 . S
C216 O217 1.227 . S
O217 C216 1.227 . S
N218 Co204 2.140 . S
N218 C221 1.346 . S
N218 C222 1.345 . S
C219 C220 1.387 . S
C219 C223 1.391 . S
C220 C219 1.387 . S
C220 C221 1.369 1_455 S
C220 H229 0.929 . S
C221 N218 1.346 . S
C221 C220 1.369 1_655 S
C221 H224 0.928 . S
C222 N218 1.345 . S
C222 C223 1.371 1_655 S
C222 H225 0.931 . S
C223 C219 1.391 . S
C223 C222 1.371 1_455 S
C223 H230 0.930 . S
H224 C221 0.928 . S
H225 C222 0.931 . S
H226 C202 0.930 . S
H227 C199 0.930 . S
H228 C208 0.930 . S
H229 C220 0.929 . S
H230 C223 0.930 . S
C231 C232 1.351 . S
C231 N234 1.368 . S
C231 H236 0.931 . S
C232 C231 1.351 . S
C232 N233 1.373 . S
C232 H260 0.930 . S
N233 C232 1.373 . S
N233 C235 1.340 . S
N234 C231 1.368 . S
N234 C235 1.321 . S
N234 Co237 2.135 . S
C235 N233 1.340 . S
C235 N234 1.321 . S
C235 H259 0.930 . S
H236 C231 0.931 . S
Co237 N234 2.135 . S
Co237 N240 2.121 . S
Co237 O245 2.055 . S
Co237 O248 2.039 . S
Co237 N251 2.140 . S
C238 O239 1.227 . S
C238 O248 1.265 . S
O239 C238 1.227 . S
N240 Co237 2.121 . S
N240 C242 1.375 . S
N240 C243 1.313 . S
C241 C242 1.338 . S
C241 N244 1.377 . S
C241 H261 0.930 . S
C242 N240 1.375 . S
C242 C241 1.338 . S
C242 H246 0.931 . S
C243 N240 1.313 . S
C243 N244 1.344 . S
C243 H247 0.930 . S
N244 C241 1.377 . S
N244 C243 1.344 . S
O245 Co237 2.055 . S
O245 C249 1.253 . S
H246 C242 0.931 . S
H247 C243 0.930 . S
O248 Co237 2.039 . S
O248 C238 1.265 . S
C249 O245 1.253 . S
C249 O250 1.227 . S
O250 C249 1.227 . S
N251 Co237 2.140 . S
N251 C254 1.346 . S
N251 C255 1.345 . S
C252 C253 1.387 . S
C252 C256 1.391 . S
C253 C252 1.387 . S
C253 C254 1.369 . S
C253 H262 0.929 . S
C254 N251 1.346 . S
C254 C253 1.369 . S
C254 H257 0.928 . S
C255 N251 1.345 . S
C255 C256 1.371 . S
C255 H258 0.931 . S
C256 C252 1.391 . S
C256 C255 1.371 . S
C256 H263 0.930 . S
H257 C254 0.928 . S
H258 C255 0.931 . S
H259 C235 0.930 . S
H260 C232 0.930 . S
H261 C241 0.930 . S
H262 C253 0.929 . S
H263 C256 0.930 . S
C264 C265 1.351 . S
C264 N267 1.368 . S
C264 H269 0.931 . S
C265 C264 1.351 . S
C265 N266 1.373 . S
C265 H293 0.930 . S
N266 C265 1.373 . S
N266 C268 1.340 . S
N267 C264 1.368 . S
N267 C268 1.321 . S
N267 Co270 2.135 . S
C268 N266 1.340 . S
C268 N267 1.321 . S
C268 H292 0.930 . S
H269 C264 0.931 . S
Co270 N267 2.135 . S
Co270 N273 2.121 . S
Co270 O278 2.055 . S
Co270 O281 2.039 . S
Co270 N284 2.140 . S
C271 O272 1.227 . S
C271 O281 1.265 . S
O272 C271 1.227 . S
N273 Co270 2.121 . S
N273 C275 1.375 . S
N273 C276 1.313 . S
C274 C275 1.338 . S
C274 N277 1.377 . S
C274 H294 0.930 . S
C275 N273 1.375 . S
C275 C274 1.338 . S
C275 H279 0.931 . S
C276 N273 1.313 . S
C276 N277 1.344 . S
C276 H280 0.930 . S
N277 C274 1.377 . S
N277 C276 1.344 . S
O278 Co270 2.055 . S
O278 C282 1.253 . S
H279 C275 0.931 . S
H280 C276 0.930 . S
O281 Co270 2.039 . S
O281 C271 1.265 . S
C282 O278 1.253 . S
C282 O283 1.227 . S
O283 C282 1.227 . S
N284 Co270 2.140 . S
N284 C287 1.346 . S
N284 C288 1.345 . S
C285 C286 1.387 . S
C285 C289 1.391 . S
C286 C285 1.387 . S
C286 C287 1.369 1_655 S
C286 H295 0.929 . S
C287 N284 1.346 . S
C287 C286 1.369 1_455 S
C287 H290 0.928 . S
C288 N284 1.345 . S
C288 C289 1.371 1_455 S
C288 H291 0.931 . S
C289 C285 1.391 . S
C289 C288 1.371 1_655 S
C289 H296 0.930 . S
H290 C287 0.928 . S
H291 C288 0.931 . S
H292 C268 0.930 . S
H293 C265 0.930 . S
H294 C274 0.930 . S
H295 C286 0.929 . S
H296 C289 0.930 . S
C297 C298 1.351 . S
C297 N300 1.368 . S
C297 H302 0.931 . S
C298 C297 1.351 . S
C298 N299 1.373 . S
C298 H326 0.930 . S
N299 C298 1.373 . S
N299 C301 1.340 . S
N300 C297 1.368 . S
N300 C301 1.321 . S
N300 Co303 2.135 . S
C301 N299 1.340 . S
C301 N300 1.321 . S
C301 H325 0.930 . S
H302 C297 0.931 . S
Co303 N300 2.135 . S
Co303 N306 2.121 . S
Co303 O311 2.055 . S
Co303 O314 2.039 . S
Co303 N317 2.140 . S
C304 O305 1.227 . S
C304 O314 1.265 . S
O305 C304 1.227 . S
N306 Co303 2.121 . S
N306 C308 1.375 . S
N306 C309 1.313 . S
C307 C308 1.338 . S
C307 N310 1.377 . S
C307 H327 0.930 . S
C308 N306 1.375 . S
C308 C307 1.338 . S
C308 H312 0.931 . S
C309 N306 1.313 . S
C309 N310 1.344 . S
C309 H313 0.930 . S
N310 C307 1.377 . S
N310 C309 1.344 . S
O311 Co303 2.055 . S
O311 C315 1.253 . S
H312 C308 0.931 . S
H313 C309 0.930 . S
O314 Co303 2.039 . S
O314 C304 1.265 . S
C315 O311 1.253 . S
C315 O316 1.227 . S
O316 C315 1.227 . S
N317 Co303 2.140 . S
N317 C320 1.346 . S
N317 C321 1.345 . S
C318 C319 1.387 . S
C318 C322 1.391 . S
C319 C318 1.387 . S
C319 C320 1.369 . S
C319 H328 0.929 . S
C320 N317 1.346 . S
C320 C319 1.369 . S
C320 H323 0.928 . S
C321 N317 1.345 . S
C321 C322 1.371 . S
C321 H324 0.931 . S
C322 C318 1.391 . S
C322 C321 1.371 . S
C322 H329 0.930 . S
H323 C320 0.928 . S
H324 C321 0.931 . S
H325 C301 0.930 . S
H326 C298 0.930 . S
H327 C307 0.930 . S
H328 C319 0.929 . S
H329 C322 0.930 . S
C330 C331 1.351 . S
C330 N333 1.368 . S
C330 H335 0.931 . S
C331 C330 1.351 . S
C331 N332 1.373 . S
C331 H359 0.930 . S
N332 C331 1.373 . S
N332 C334 1.340 . S
N333 C330 1.368 . S
N333 C334 1.321 . S
N333 Co336 2.135 . S
C334 N332 1.340 . S
C334 N333 1.321 . S
C334 H358 0.930 . S
H335 C330 0.931 . S
Co336 N333 2.135 . S
Co336 N339 2.121 . S
Co336 O344 2.055 . S
Co336 O347 2.039 . S
Co336 N350 2.140 . S
C337 O338 1.227 . S
C337 O347 1.265 . S
O338 C337 1.227 . S
N339 Co336 2.121 . S
N339 C341 1.375 . S
N339 C342 1.313 . S
C340 C341 1.338 . S
C340 N343 1.377 . S
C340 H360 0.930 . S
C341 N339 1.375 . S
C341 C340 1.338 . S
C341 H345 0.931 . S
C342 N339 1.313 . S
C342 N343 1.344 . S
C342 H346 0.930 . S
N343 C340 1.377 . S
N343 C342 1.344 . S
O344 Co336 2.055 . S
O344 C348 1.253 . S
H345 C341 0.931 . S
H346 C342 0.930 . S
O347 Co336 2.039 . S
O347 C337 1.265 . S
C348 O344 1.253 . S
C348 O349 1.227 . S
O349 C348 1.227 . S
N350 Co336 2.140 . S
N350 C353 1.346 . S
N350 C354 1.345 . S
C351 C352 1.387 . S
C351 C355 1.391 . S
C352 C351 1.387 . S
C352 C353 1.369 1_655 S
C352 H361 0.929 . S
C353 N350 1.346 . S
C353 C352 1.369 1_455 S
C353 H356 0.928 . S
C354 N350 1.345 . S
C354 C355 1.371 1_455 S
C354 H357 0.931 . S
C355 C351 1.391 . S
C355 C354 1.371 1_655 S
C355 H362 0.930 . S
H356 C353 0.928 . S
H357 C354 0.931 . S
H358 C334 0.930 . S
H359 C331 0.930 . S
H360 C340 0.930 . S
H361 C352 0.929 . S
H362 C355 0.930 . S
C363 C364 1.351 . S
C363 N366 1.368 . S
C363 H368 0.931 . S
C364 C363 1.351 . S
C364 N365 1.373 . S
C364 H392 0.930 . S
N365 C364 1.373 . S
N365 C367 1.340 . S
N366 C363 1.368 . S
N366 C367 1.321 . S
N366 Co369 2.135 . S
C367 N365 1.340 . S
C367 N366 1.321 . S
C367 H391 0.930 . S
H368 C363 0.931 . S
Co369 N366 2.135 . S
Co369 N372 2.121 . S
Co369 O377 2.055 . S
Co369 O380 2.039 . S
Co369 N383 2.140 . S
C370 O371 1.227 . S
C370 O380 1.265 . S
O371 C370 1.227 . S
N372 Co369 2.121 . S
N372 C374 1.375 . S
N372 C375 1.313 . S
C373 C374 1.338 . S
C373 N376 1.377 . S
C373 H393 0.930 . S
C374 N372 1.375 . S
C374 C373 1.338 . S
C374 H378 0.931 . S
C375 N372 1.313 . S
C375 N376 1.344 . S
C375 H379 0.930 . S
N376 C373 1.377 . S
N376 C375 1.344 . S
O377 Co369 2.055 . S
O377 C381 1.253 . S
H378 C374 0.931 . S
H379 C375 0.930 . S
O380 Co369 2.039 . S
O380 C370 1.265 . S
C381 O377 1.253 . S
C381 O382 1.227 . S
O382 C381 1.227 . S
N383 Co369 2.140 . S
N383 C386 1.346 . S
N383 C387 1.345 . S
C384 C385 1.387 . S
C384 C388 1.391 . S
C385 C384 1.387 . S
C385 C386 1.369 . S
C385 H394 0.929 . S
C386 N383 1.346 . S
C386 C385 1.369 . S
C386 H389 0.928 . S
C387 N383 1.345 . S
C387 C388 1.371 . S
C387 H390 0.931 . S
C388 C384 1.391 . S
C388 C387 1.371 . S
C388 H395 0.930 . S
H389 C386 0.928 . S
H390 C387 0.931 . S
H391 C367 0.930 . S
H392 C364 0.930 . S
H393 C373 0.930 . S
H394 C385 0.929 . S
H395 C388 0.930 . S
C396 C397 1.351 . S
C396 N399 1.368 . S
C396 H401 0.931 . S
C397 C396 1.351 . S
C397 N398 1.373 . S
C397 H425 0.930 . S
N398 C397 1.373 . S
N398 C400 1.340 . S
N399 C396 1.368 . S
N399 C400 1.321 . S
N399 Co402 2.135 . S
C400 N398 1.340 . S
C400 N399 1.321 . S
C400 H424 0.930 . S
H401 C396 0.931 . S
Co402 N399 2.135 . S
Co402 N405 2.121 . S
Co402 O410 2.055 . S
Co402 O413 2.039 . S
Co402 N416 2.140 . S
C403 O404 1.227 . S
C403 O413 1.265 . S
O404 C403 1.227 . S
N405 Co402 2.121 . S
N405 C407 1.375 . S
N405 C408 1.313 . S
C406 C407 1.338 . S
C406 N409 1.377 . S
C406 H426 0.930 . S
C407 N405 1.375 . S
C407 C406 1.338 . S
C407 H411 0.931 . S
C408 N405 1.313 . S
C408 N409 1.344 . S
C408 H412 0.930 . S
N409 C406 1.377 . S
N409 C408 1.344 . S
O410 Co402 2.055 . S
O410 C414 1.253 . S
H411 C407 0.931 . S
H412 C408 0.930 . S
O413 Co402 2.039 . S
O413 C403 1.265 . S
C414 O410 1.253 . S
C414 O415 1.227 . S
O415 C414 1.227 . S
N416 Co402 2.140 . S
N416 C419 1.346 . S
N416 C420 1.345 . S
C417 C418 1.387 . S
C417 C421 1.391 . S
C418 C417 1.387 . S
C418 C419 1.369 1_455 S
C418 H427 0.929 . S
C419 N416 1.346 . S
C419 C418 1.369 1_655 S
C419 H422 0.928 . S
C420 N416 1.345 . S
C420 C421 1.371 1_655 S
C420 H423 0.931 . S
C421 C417 1.391 . S
C421 C420 1.371 1_455 S
C421 H428 0.930 . S
H422 C419 0.928 . S
H423 C420 0.931 . S
H424 C400 0.930 . S
H425 C397 0.930 . S
H426 C406 0.930 . S
H427 C418 0.929 . S
H428 C421 0.930 . S
C429 C430 1.351 . S
C429 N432 1.368 . S
C429 H434 0.931 . S
C430 C429 1.351 . S
C430 N431 1.373 . S
C430 H458 0.930 . S
N431 C430 1.373 . S
N431 C433 1.340 . S
N432 C429 1.368 . S
N432 C433 1.321 . S
N432 Co435 2.135 . S
C433 N431 1.340 . S
C433 N432 1.321 . S
C433 H457 0.930 . S
H434 C429 0.931 . S
Co435 N432 2.135 . S
Co435 N438 2.121 . S
Co435 O443 2.055 . S
Co435 O446 2.039 . S
Co435 N449 2.140 . S
C436 O437 1.227 . S
C436 O446 1.265 . S
O437 C436 1.227 . S
N438 Co435 2.121 . S
N438 C440 1.375 . S
N438 C441 1.313 . S
C439 C440 1.338 . S
C439 N442 1.377 . S
C439 H459 0.930 . S
C440 N438 1.375 . S
C440 C439 1.338 . S
C440 H444 0.931 . S
C441 N438 1.313 . S
C441 N442 1.344 . S
C441 H445 0.930 . S
N442 C439 1.377 . S
N442 C441 1.344 . S
O443 Co435 2.055 . S
O443 C447 1.253 . S
H444 C440 0.931 . S
H445 C441 0.930 . S
O446 Co435 2.039 . S
O446 C436 1.265 . S
C447 O443 1.253 . S
C447 O448 1.227 . S
O448 C447 1.227 . S
N449 Co435 2.140 . S
N449 C452 1.346 . S
N449 C453 1.345 . S
C450 C451 1.387 . S
C450 C454 1.391 . S
C451 C450 1.387 . S
C451 C452 1.369 . S
C451 H460 0.929 . S
C452 N449 1.346 . S
C452 C451 1.369 . S
C452 H455 0.928 . S
C453 N449 1.345 . S
C453 C454 1.371 . S
C453 H456 0.931 . S
C454 C450 1.391 . S
C454 C453 1.371 . S
C454 H461 0.930 . S
H455 C452 0.928 . S
H456 C453 0.931 . S
H457 C433 0.930 . S
H458 C430 0.930 . S
H459 C439 0.930 . S
H460 C451 0.929 . S
H461 C454 0.930 . S
C462 C463 1.351 . S
C462 N465 1.368 . S
C462 H467 0.931 . S
C463 C462 1.351 . S
C463 N464 1.373 . S
C463 H491 0.930 . S
N464 C463 1.373 . S
N464 C466 1.340 . S
N465 C462 1.368 . S
N465 C466 1.321 . S
N465 Co468 2.135 . S
C466 N464 1.340 . S
C466 N465 1.321 . S
C466 H490 0.930 . S
H467 C462 0.931 . S
Co468 N465 2.135 . S
Co468 N471 2.121 . S
Co468 O476 2.055 . S
Co468 O479 2.039 . S
Co468 N482 2.140 . S
C469 O470 1.227 . S
C469 O479 1.265 . S
O470 C469 1.227 . S
N471 Co468 2.121 . S
N471 C473 1.375 . S
N471 C474 1.313 . S
C472 C473 1.338 . S
C472 N475 1.377 . S
C472 H492 0.930 . S
C473 N471 1.375 . S
C473 C472 1.338 . S
C473 H477 0.931 . S
C474 N471 1.313 . S
C474 N475 1.344 . S
C474 H478 0.930 . S
N475 C472 1.377 . S
N475 C474 1.344 . S
O476 Co468 2.055 . S
O476 C480 1.253 . S
H477 C473 0.931 . S
H478 C474 0.930 . S
O479 Co468 2.039 . S
O479 C469 1.265 . S
C480 O476 1.253 . S
C480 O481 1.227 . S
O481 C480 1.227 . S
N482 Co468 2.140 . S
N482 C485 1.346 . S
N482 C486 1.345 . S
C483 C484 1.387 . S
C483 C487 1.391 . S
C484 C483 1.387 . S
C484 C485 1.369 1_455 S
C484 H493 0.929 . S
C485 N482 1.346 . S
C485 C484 1.369 1_655 S
C485 H488 0.928 . S
C486 N482 1.345 . S
C486 C487 1.371 1_655 S
C486 H489 0.931 . S
C487 C483 1.391 . S
C487 C486 1.371 1_455 S
C487 H494 0.930 . S
H488 C485 0.928 . S
H489 C486 0.931 . S
H490 C466 0.930 . S
H491 C463 0.930 . S
H492 C472 0.930 . S
H493 C484 0.929 . S
H494 C487 0.930 . S
C495 C496 1.351 . S
C495 N498 1.368 . S
C495 H500 0.931 . S
C496 C495 1.351 . S
C496 N497 1.373 . S
C496 H524 0.930 . S
N497 C496 1.373 . S
N497 C499 1.340 . S
N498 C495 1.368 . S
N498 C499 1.321 . S
N498 Co501 2.135 . S
C499 N497 1.340 . S
C499 N498 1.321 . S
C499 H523 0.930 . S
H500 C495 0.931 . S
Co501 N498 2.135 . S
Co501 N504 2.121 . S
Co501 O509 2.055 . S
Co501 O512 2.039 . S
Co501 N515 2.140 . S
C502 O503 1.227 . S
C502 O512 1.265 . S
O503 C502 1.227 . S
N504 Co501 2.121 . S
N504 C506 1.375 . S
N504 C507 1.313 . S
C505 C506 1.338 . S
C505 N508 1.377 . S
C505 H525 0.930 . S
C506 N504 1.375 . S
C506 C505 1.338 . S
C506 H510 0.931 . S
C507 N504 1.313 . S
C507 N508 1.344 . S
C507 H511 0.930 . S
N508 C505 1.377 . S
N508 C507 1.344 . S
O509 Co501 2.055 . S
O509 C513 1.253 . S
H510 C506 0.931 . S
H511 C507 0.930 . S
O512 Co501 2.039 . S
O512 C502 1.265 . S
C513 O509 1.253 . S
C513 O514 1.227 . S
O514 C513 1.227 . S
N515 Co501 2.140 . S
N515 C518 1.346 . S
N515 C519 1.345 . S
C516 C517 1.387 . S
C516 C520 1.391 . S
C517 C516 1.387 . S
C517 C518 1.369 . S
C517 H526 0.929 . S
C518 N515 1.346 . S
C518 C517 1.369 . S
C518 H521 0.928 . S
C519 N515 1.345 . S
C519 C520 1.371 . S
C519 H522 0.931 . S
C520 C516 1.391 . S
C520 C519 1.371 . S
C520 H527 0.930 . S
H521 C518 0.928 . S
H522 C519 0.931 . S
H523 C499 0.930 . S
H524 C496 0.930 . S
H525 C505 0.930 . S
H526 C517 0.929 . S
H527 C520 0.930 . S
C528 C529 1.351 . S
C528 N531 1.368 . S
C528 H533 0.931 . S
C529 C528 1.351 . S
C529 N530 1.373 . S
C529 H557 0.930 . S
N530 C529 1.373 . S
N530 C532 1.340 . S
N531 C528 1.368 . S
N531 C532 1.321 . S
N531 Co534 2.135 . S
C532 N530 1.340 . S
C532 N531 1.321 . S
C532 H556 0.930 . S
H533 C528 0.931 . S
Co534 N531 2.135 . S
Co534 N537 2.121 . S
Co534 O542 2.055 . S
Co534 O545 2.039 . S
Co534 N548 2.140 . S
C535 O536 1.227 . S
C535 O545 1.265 . S
O536 C535 1.227 . S
N537 Co534 2.121 . S
N537 C539 1.375 . S
N537 C540 1.313 . S
C538 C539 1.338 . S
C538 N541 1.377 . S
C538 H558 0.930 . S
C539 N537 1.375 . S
C539 C538 1.338 . S
C539 H543 0.931 . S
C540 N537 1.313 . S
C540 N541 1.344 . S
C540 H544 0.930 . S
N541 C538 1.377 . S
N541 C540 1.344 . S
O542 Co534 2.055 . S
O542 C546 1.253 . S
H543 C539 0.931 . S
H544 C540 0.930 . S
O545 Co534 2.039 . S
O545 C535 1.265 . S
C546 O542 1.253 . S
C546 O547 1.227 . S
O547 C546 1.227 . S
N548 Co534 2.140 . S
N548 C551 1.346 . S
N548 C552 1.345 . S
C549 C550 1.387 . S
C549 C553 1.391 . S
C550 C549 1.387 . S
C550 C551 1.369 . S
C550 H559 0.929 . S
C551 N548 1.346 . S
C551 C550 1.369 . S
C551 H554 0.928 . S
C552 N548 1.345 . S
C552 C553 1.371 . S
C552 H555 0.931 . S
C553 C549 1.391 . S
C553 C552 1.371 . S
C553 H560 0.930 . S
H554 C551 0.928 . S
H555 C552 0.931 . S
H556 C532 0.930 . S
H557 C529 0.930 . S
H558 C538 0.930 . S
H559 C550 0.929 . S
H560 C553 0.930 . S
C561 C562 1.351 . S
C561 N564 1.368 . S
C561 H566 0.931 . S
C562 C561 1.351 . S
C562 N563 1.373 . S
C562 H590 0.930 . S
N563 C562 1.373 . S
N563 C565 1.340 . S
N564 C561 1.368 . S
N564 C565 1.321 . S
N564 Co567 2.135 . S
C565 N563 1.340 . S
C565 N564 1.321 . S
C565 H589 0.930 . S
H566 C561 0.931 . S
Co567 N564 2.135 . S
Co567 N570 2.121 . S
Co567 O575 2.055 . S
Co567 O578 2.039 . S
Co567 N581 2.140 . S
C568 O569 1.227 . S
C568 O578 1.265 . S
O569 C568 1.227 . S
N570 Co567 2.121 . S
N570 C572 1.375 . S
N570 C573 1.313 . S
C571 C572 1.338 . S
C571 N574 1.377 . S
C571 H591 0.930 . S
C572 N570 1.375 . S
C572 C571 1.338 . S
C572 H576 0.931 . S
C573 N570 1.313 . S
C573 N574 1.344 . S
C573 H577 0.930 . S
N574 C571 1.377 . S
N574 C573 1.344 . S
O575 Co567 2.055 . S
O575 C579 1.253 . S
H576 C572 0.931 . S
H577 C573 0.930 . S
O578 Co567 2.039 . S
O578 C568 1.265 . S
C579 O575 1.253 . S
C579 O580 1.227 . S
O580 C579 1.227 . S
N581 Co567 2.140 . S
N581 C584 1.346 . S
N581 C585 1.345 . S
C582 C583 1.387 . S
C582 C586 1.391 . S
C583 C582 1.387 . S
C583 C584 1.369 . S
C583 H592 0.929 . S
C584 N581 1.346 . S
C584 C583 1.369 . S
C584 H587 0.928 . S
C585 N581 1.345 . S
C585 C586 1.371 . S
C585 H588 0.931 . S
C586 C582 1.391 . S
C586 C585 1.371 . S
C586 H593 0.930 . S
H587 C584 0.928 . S
H588 C585 0.931 . S
H589 C565 0.930 . S
H590 C562 0.930 . S
H591 C571 0.930 . S
H592 C583 0.929 . S
H593 C586 0.930 . S
C594 C595 1.351 . S
C594 N597 1.368 . S
C594 H599 0.931 . S
C595 C594 1.351 . S
C595 N596 1.373 . S
C595 H623 0.930 . S
N596 C595 1.373 . S
N596 C598 1.340 . S
N597 C594 1.368 . S
N597 C598 1.321 . S
N597 Co600 2.135 . S
C598 N596 1.340 . S
C598 N597 1.321 . S
C598 H622 0.930 . S
H599 C594 0.931 . S
Co600 N597 2.135 . S
Co600 N603 2.121 . S
Co600 O608 2.055 . S
Co600 O611 2.039 . S
Co600 N614 2.140 . S
C601 O602 1.227 . S
C601 O611 1.265 . S
O602 C601 1.227 . S
N603 Co600 2.121 . S
N603 C605 1.375 . S
N603 C606 1.313 . S
C604 C605 1.338 . S
C604 N607 1.377 . S
C604 H624 0.930 . S
C605 N603 1.375 . S
C605 C604 1.338 . S
C605 H609 0.931 . S
C606 N603 1.313 . S
C606 N607 1.344 . S
C606 H610 0.930 . S
N607 C604 1.377 . S
N607 C606 1.344 . S
O608 Co600 2.055 . S
O608 C612 1.253 . S
H609 C605 0.931 . S
H610 C606 0.930 . S
O611 Co600 2.039 . S
O611 C601 1.265 . S
C612 O608 1.253 . S
C612 O613 1.227 . S
O613 C612 1.227 . S
N614 Co600 2.140 . S
N614 C617 1.346 . S
N614 C618 1.345 . S
C615 C616 1.387 . S
C615 C619 1.391 . S
C616 C615 1.387 . S
C616 C617 1.369 . S
C616 H625 0.929 . S
C617 N614 1.346 . S
C617 C616 1.369 . S
C617 H620 0.928 . S
C618 N614 1.345 . S
C618 C619 1.371 . S
C618 H621 0.931 . S
C619 C615 1.391 . S
C619 C618 1.371 . S
C619 H626 0.930 . S
H620 C617 0.928 . S
H621 C618 0.931 . S
H622 C598 0.930 . S
H623 C595 0.930 . S
H624 C604 0.930 . S
H625 C616 0.929 . S
H626 C619 0.930 . S
C627 C628 1.351 . S
C627 N630 1.368 . S
C627 H632 0.931 . S
C628 C627 1.351 . S
C628 N629 1.373 . S
C628 H656 0.930 . S
N629 C628 1.373 . S
N629 C631 1.340 . S
N630 C627 1.368 . S
N630 C631 1.321 . S
N630 Co633 2.135 . S
C631 N629 1.340 . S
C631 N630 1.321 . S
C631 H655 0.930 . S
H632 C627 0.931 . S
Co633 N630 2.135 . S
Co633 N636 2.121 . S
Co633 O641 2.055 . S
Co633 O644 2.039 . S
Co633 N647 2.140 . S
C634 O635 1.227 . S
C634 O644 1.265 . S
O635 C634 1.227 . S
N636 Co633 2.121 . S
N636 C638 1.375 . S
N636 C639 1.313 . S
C637 C638 1.338 . S
C637 N640 1.377 . S
C637 H657 0.930 . S
C638 N636 1.375 . S
C638 C637 1.338 . S
C638 H642 0.931 . S
C639 N636 1.313 . S
C639 N640 1.344 . S
C639 H643 0.930 . S
N640 C637 1.377 . S
N640 C639 1.344 . S
O641 Co633 2.055 . S
O641 C645 1.253 . S
H642 C638 0.931 . S
H643 C639 0.930 . S
O644 Co633 2.039 . S
O644 C634 1.265 . S
C645 O641 1.253 . S
C645 O646 1.227 . S
O646 C645 1.227 . S
N647 Co633 2.140 . S
N647 C650 1.346 . S
N647 C651 1.345 . S
C648 C649 1.387 . S
C648 C652 1.391 . S
C649 C648 1.387 . S
C649 C650 1.369 . S
C649 H658 0.929 . S
C650 N647 1.346 . S
C650 C649 1.369 . S
C650 H653 0.928 . S
C651 N647 1.345 . S
C651 C652 1.371 . S
C651 H654 0.931 . S
C652 C648 1.391 . S
C652 C651 1.371 . S
C652 H659 0.930 . S
H653 C650 0.928 . S
H654 C651 0.931 . S
H655 C631 0.930 . S
H656 C628 0.930 . S
H657 C637 0.930 . S
H658 C649 0.929 . S
H659 C652 0.930 . S
C660 C661 1.351 . S
C660 N663 1.368 . S
C660 H665 0.931 . S
C661 C660 1.351 . S
C661 N662 1.373 . S
C661 H689 0.930 . S
N662 C661 1.373 . S
N662 C664 1.340 . S
N663 C660 1.368 . S
N663 C664 1.321 . S
N663 Co666 2.135 . S
C664 N662 1.340 . S
C664 N663 1.321 . S
C664 H688 0.930 . S
H665 C660 0.931 . S
Co666 N663 2.135 . S
Co666 N669 2.121 . S
Co666 O674 2.055 . S
Co666 O677 2.039 . S
Co666 N680 2.140 . S
C667 O668 1.227 . S
C667 O677 1.265 . S
O668 C667 1.227 . S
N669 Co666 2.121 . S
N669 C671 1.375 . S
N669 C672 1.313 . S
C670 C671 1.338 . S
C670 N673 1.377 . S
C670 H690 0.930 . S
C671 N669 1.375 . S
C671 C670 1.338 . S
C671 H675 0.931 . S
C672 N669 1.313 . S
C672 N673 1.344 . S
C672 H676 0.930 . S
N673 C670 1.377 . S
N673 C672 1.344 . S
O674 Co666 2.055 . S
O674 C678 1.253 . S
H675 C671 0.931 . S
H676 C672 0.930 . S
O677 Co666 2.039 . S
O677 C667 1.265 . S
C678 O674 1.253 . S
C678 O679 1.227 . S
O679 C678 1.227 . S
N680 Co666 2.140 . S
N680 C683 1.346 . S
N680 C684 1.345 . S
C681 C682 1.387 . S
C681 C685 1.391 . S
C682 C681 1.387 . S
C682 C683 1.369 . S
C682 H691 0.929 . S
C683 N680 1.346 . S
C683 C682 1.369 . S
C683 H686 0.928 . S
C684 N680 1.345 . S
C684 C685 1.371 . S
C684 H687 0.931 . S
C685 C681 1.391 . S
C685 C684 1.371 . S
C685 H692 0.930 . S
H686 C683 0.928 . S
H687 C684 0.931 . S
H688 C664 0.930 . S
H689 C661 0.930 . S
H690 C670 0.930 . S
H691 C682 0.929 . S
H692 C685 0.930 . S
C693 C694 1.351 . S
C693 N696 1.368 . S
C693 H698 0.931 . S
C694 C693 1.351 . S
C694 N695 1.373 . S
C694 H722 0.930 . S
N695 C694 1.373 . S
N695 C697 1.340 . S
N696 C693 1.368 . S
N696 C697 1.321 . S
N696 Co699 2.135 . S
C697 N695 1.340 . S
C697 N696 1.321 . S
C697 H721 0.930 . S
H698 C693 0.931 . S
Co699 N696 2.135 . S
Co699 N702 2.121 . S
Co699 O707 2.055 . S
Co699 O710 2.039 . S
Co699 N713 2.140 . S
C700 O701 1.227 . S
C700 O710 1.265 . S
O701 C700 1.227 . S
N702 Co699 2.121 . S
N702 C704 1.375 . S
N702 C705 1.313 . S
C703 C704 1.338 . S
C703 N706 1.377 . S
C703 H723 0.930 . S
C704 N702 1.375 . S
C704 C703 1.338 . S
C704 H708 0.931 . S
C705 N702 1.313 . S
C705 N706 1.344 . S
C705 H709 0.930 . S
N706 C703 1.377 . S
N706 C705 1.344 . S
O707 Co699 2.055 . S
O707 C711 1.253 . S
H708 C704 0.931 . S
H709 C705 0.930 . S
O710 Co699 2.039 . S
O710 C700 1.265 . S
C711 O707 1.253 . S
C711 O712 1.227 . S
O712 C711 1.227 . S
N713 Co699 2.140 . S
N713 C716 1.346 . S
N713 C717 1.345 . S
C714 C715 1.387 . S
C714 C718 1.391 . S
C715 C714 1.387 . S
C715 C716 1.369 . S
C715 H724 0.929 . S
C716 N713 1.346 . S
C716 C715 1.369 . S
C716 H719 0.928 . S
C717 N713 1.345 . S
C717 C718 1.371 . S
C717 H720 0.931 . S
C718 C714 1.391 . S
C718 C717 1.371 . S
C718 H725 0.930 . S
H719 C716 0.928 . S
H720 C717 0.931 . S
H721 C697 0.930 . S
H722 C694 0.930 . S
H723 C703 0.930 . S
H724 C715 0.929 . S
H725 C718 0.930 . S
C726 C727 1.351 . S
C726 N729 1.368 . S
C726 H731 0.931 . S
C727 C726 1.351 . S
C727 N728 1.373 . S
C727 H755 0.930 . S
N728 C727 1.373 . S
N728 C730 1.340 . S
N729 C726 1.368 . S
N729 C730 1.321 . S
N729 Co732 2.135 . S
C730 N728 1.340 . S
C730 N729 1.321 . S
C730 H754 0.930 . S
H731 C726 0.931 . S
Co732 N729 2.135 . S
Co732 N735 2.121 . S
Co732 O740 2.055 . S
Co732 O743 2.039 . S
Co732 N746 2.140 . S
C733 O734 1.227 . S
C733 O743 1.265 . S
O734 C733 1.227 . S
N735 Co732 2.121 . S
N735 C737 1.375 . S
N735 C738 1.313 . S
C736 C737 1.338 . S
C736 N739 1.377 . S
C736 H756 0.930 . S
C737 N735 1.375 . S
C737 C736 1.338 . S
C737 H741 0.931 . S
C738 N735 1.313 . S
C738 N739 1.344 . S
C738 H742 0.930 . S
N739 C736 1.377 . S
N739 C738 1.344 . S
O740 Co732 2.055 . S
O740 C744 1.253 . S
H741 C737 0.931 . S
H742 C738 0.930 . S
O743 Co732 2.039 . S
O743 C733 1.265 . S
C744 O740 1.253 . S
C744 O745 1.227 . S
O745 C744 1.227 . S
N746 Co732 2.140 . S
N746 C749 1.346 . S
N746 C750 1.345 . S
C747 C748 1.387 . S
C747 C751 1.391 . S
C748 C747 1.387 . S
C748 C749 1.369 . S
C748 H757 0.929 . S
C749 N746 1.346 . S
C749 C748 1.369 . S
C749 H752 0.928 . S
C750 N746 1.345 . S
C750 C751 1.371 . S
C750 H753 0.931 . S
C751 C747 1.391 . S
C751 C750 1.371 . S
C751 H758 0.930 . S
H752 C749 0.928 . S
H753 C750 0.931 . S
H754 C730 0.930 . S
H755 C727 0.930 . S
H756 C736 0.930 . S
H757 C748 0.929 . S
H758 C751 0.930 . S
C759 C760 1.351 . S
C759 N762 1.368 . S
C759 H764 0.931 . S
C760 C759 1.351 . S
C760 N761 1.373 . S
C760 H788 0.930 . S
N761 C760 1.373 . S
N761 C763 1.340 . S
N762 C759 1.368 . S
N762 C763 1.321 . S
N762 Co765 2.135 . S
C763 N761 1.340 . S
C763 N762 1.321 . S
C763 H787 0.930 . S
H764 C759 0.931 . S
Co765 N762 2.135 . S
Co765 N768 2.121 . S
Co765 O773 2.055 . S
Co765 O776 2.039 . S
Co765 N779 2.140 . S
C766 O767 1.227 . S
C766 O776 1.265 . S
O767 C766 1.227 . S
N768 Co765 2.121 . S
N768 C770 1.375 . S
N768 C771 1.313 . S
C769 C770 1.338 . S
C769 N772 1.377 . S
C769 H789 0.930 . S
C770 N768 1.375 . S
C770 C769 1.338 . S
C770 H774 0.931 . S
C771 N768 1.313 . S
C771 N772 1.344 . S
C771 H775 0.930 . S
N772 C769 1.377 . S
N772 C771 1.344 . S
O773 Co765 2.055 . S
O773 C777 1.253 . S
H774 C770 0.931 . S
H775 C771 0.930 . S
O776 Co765 2.039 . S
O776 C766 1.265 . S
C777 O773 1.253 . S
C777 O778 1.227 . S
O778 C777 1.227 . S
N779 Co765 2.140 . S
N779 C782 1.346 . S
N779 C783 1.345 . S
C780 C781 1.387 . S
C780 C784 1.391 . S
C781 C780 1.387 . S
C781 C782 1.369 . S
C781 H790 0.929 . S
C782 N779 1.346 . S
C782 C781 1.369 . S
C782 H785 0.928 . S
C783 N779 1.345 . S
C783 C784 1.371 . S
C783 H786 0.931 . S
C784 C780 1.391 . S
C784 C783 1.371 . S
C784 H791 0.930 . S
H785 C782 0.928 . S
H786 C783 0.931 . S
H787 C763 0.930 . S
H788 C760 0.930 . S
H789 C769 0.930 . S
H790 C781 0.929 . S
H791 C784 0.930 . S
C792 C793 1.351 . S
C792 N795 1.368 . S
C792 H797 0.931 . S
C793 C792 1.351 . S
C793 N794 1.373 . S
C793 H821 0.930 . S
N794 C793 1.373 . S
N794 C796 1.340 . S
N795 C792 1.368 . S
N795 C796 1.321 . S
N795 Co798 2.135 . S
C796 N794 1.340 . S
C796 N795 1.321 . S
C796 H820 0.930 . S
H797 C792 0.931 . S
Co798 N795 2.135 . S
Co798 N801 2.121 . S
Co798 O806 2.055 . S
Co798 O809 2.039 . S
Co798 N812 2.140 . S
C799 O800 1.227 . S
C799 O809 1.265 . S
O800 C799 1.227 . S
N801 Co798 2.121 . S
N801 C803 1.375 . S
N801 C804 1.313 . S
C802 C803 1.338 . S
C802 N805 1.377 . S
C802 H822 0.930 . S
C803 N801 1.375 . S
C803 C802 1.338 . S
C803 H807 0.931 . S
C804 N801 1.313 . S
C804 N805 1.344 . S
C804 H808 0.930 . S
N805 C802 1.377 . S
N805 C804 1.344 . S
O806 Co798 2.055 . S
O806 C810 1.253 . S
H807 C803 0.931 . S
H808 C804 0.930 . S
O809 Co798 2.039 . S
O809 C799 1.265 . S
C810 O806 1.253 . S
C810 O811 1.227 . S
O811 C810 1.227 . S
N812 Co798 2.140 . S
N812 C815 1.346 . S
N812 C816 1.345 . S
C813 C814 1.387 . S
C813 C817 1.391 . S
C814 C813 1.387 . S
C814 C815 1.369 . S
C814 H823 0.929 . S
C815 N812 1.346 . S
C815 C814 1.369 . S
C815 H818 0.928 . S
C816 N812 1.345 . S
C816 C817 1.371 . S
C816 H819 0.931 . S
C817 C813 1.391 . S
C817 C816 1.371 . S
C817 H824 0.930 . S
H818 C815 0.928 . S
H819 C816 0.931 . S
H820 C796 0.930 . S
H821 C793 0.930 . S
H822 C802 0.930 . S
H823 C814 0.929 . S
H824 C817 0.930 . S
C825 C826 1.351 . S
C825 N828 1.368 . S
C825 H830 0.931 . S
C826 C825 1.351 . S
C826 N827 1.373 . S
C826 H854 0.930 . S
N827 C826 1.373 . S
N827 C829 1.340 . S
N828 C825 1.368 . S
N828 C829 1.321 . S
N828 Co831 2.135 . S
C829 N827 1.340 . S
C829 N828 1.321 . S
C829 H853 0.930 . S
H830 C825 0.931 . S
Co831 N828 2.135 . S
Co831 N834 2.121 . S
Co831 O839 2.055 . S
Co831 O842 2.039 . S
Co831 N845 2.140 . S
C832 O833 1.227 . S
C832 O842 1.265 . S
O833 C832 1.227 . S
N834 Co831 2.121 . S
N834 C836 1.375 . S
N834 C837 1.313 . S
C835 C836 1.338 . S
C835 N838 1.377 . S
C835 H855 0.930 . S
C836 N834 1.375 . S
C836 C835 1.338 . S
C836 H840 0.931 . S
C837 N834 1.313 . S
C837 N838 1.344 . S
C837 H841 0.930 . S
N838 C835 1.377 . S
N838 C837 1.344 . S
O839 Co831 2.055 . S
O839 C843 1.253 . S
H840 C836 0.931 . S
H841 C837 0.930 . S
O842 Co831 2.039 . S
O842 C832 1.265 . S
C843 O839 1.253 . S
C843 O844 1.227 . S
O844 C843 1.227 . S
N845 Co831 2.140 . S
N845 C848 1.346 . S
N845 C849 1.345 . S
C846 C847 1.387 . S
C846 C850 1.391 . S
C847 C846 1.387 . S
C847 C848 1.369 . S
C847 H856 0.929 . S
C848 N845 1.346 . S
C848 C847 1.369 . S
C848 H851 0.928 . S
C849 N845 1.345 . S
C849 C850 1.371 . S
C849 H852 0.931 . S
C850 C846 1.391 . S
C850 C849 1.371 . S
C850 H857 0.930 . S
H851 C848 0.928 . S
H852 C849 0.931 . S
H853 C829 0.930 . S
H854 C826 0.930 . S
H855 C835 0.930 . S
H856 C847 0.929 . S
H857 C850 0.930 . S
C858 C859 1.351 . S
C858 N861 1.368 . S
C858 H863 0.931 . S
C859 C858 1.351 . S
C859 N860 1.373 . S
C859 H887 0.930 . S
N860 C859 1.373 . S
N860 C862 1.340 . S
N861 C858 1.368 . S
N861 C862 1.321 . S
N861 Co864 2.135 . S
C862 N860 1.340 . S
C862 N861 1.321 . S
C862 H886 0.930 . S
H863 C858 0.931 . S
Co864 N861 2.135 . S
Co864 N867 2.121 . S
Co864 O872 2.055 . S
Co864 O875 2.039 . S
Co864 N878 2.140 . S
C865 O866 1.227 . S
C865 O875 1.265 . S
O866 C865 1.227 . S
N867 Co864 2.121 . S
N867 C869 1.375 . S
N867 C870 1.313 . S
C868 C869 1.338 . S
C868 N871 1.377 . S
C868 H888 0.930 . S
C869 N867 1.375 . S
C869 C868 1.338 . S
C869 H873 0.931 . S
C870 N867 1.313 . S
C870 N871 1.344 . S
C870 H874 0.930 . S
N871 C868 1.377 . S
N871 C870 1.344 . S
O872 Co864 2.055 . S
O872 C876 1.253 . S
H873 C869 0.931 . S
H874 C870 0.930 . S
O875 Co864 2.039 . S
O875 C865 1.265 . S
C876 O872 1.253 . S
C876 O877 1.227 . S
O877 C876 1.227 . S
N878 Co864 2.140 . S
N878 C881 1.346 . S
N878 C882 1.345 . S
C879 C880 1.387 . S
C879 C883 1.391 . S
C880 C879 1.387 . S
C880 C881 1.369 . S
C880 H889 0.929 . S
C881 N878 1.346 . S
C881 C880 1.369 . S
C881 H884 0.928 . S
C882 N878 1.345 . S
C882 C883 1.371 . S
C882 H885 0.931 . S
C883 C879 1.391 . S
C883 C882 1.371 . S
C883 H890 0.930 . S
H884 C881 0.928 . S
H885 C882 0.931 . S
H886 C862 0.930 . S
H887 C859 0.930 . S
H888 C868 0.930 . S
H889 C880 0.929 . S
H890 C883 0.930 . S
C891 C892 1.351 . S
C891 N894 1.368 . S
C891 H896 0.931 . S
C892 C891 1.351 . S
C892 N893 1.373 . S
C892 H920 0.930 . S
N893 C892 1.373 . S
N893 C895 1.340 . S
N894 C891 1.368 . S
N894 C895 1.321 . S
N894 Co897 2.135 . S
C895 N893 1.340 . S
C895 N894 1.321 . S
C895 H919 0.930 . S
H896 C891 0.931 . S
Co897 N894 2.135 . S
Co897 N900 2.121 . S
Co897 O905 2.055 . S
Co897 O908 2.039 . S
Co897 N911 2.140 . S
C898 O899 1.227 . S
C898 O908 1.265 . S
O899 C898 1.227 . S
N900 Co897 2.121 . S
N900 C902 1.375 . S
N900 C903 1.313 . S
C901 C902 1.338 . S
C901 N904 1.377 . S
C901 H921 0.930 . S
C902 N900 1.375 . S
C902 C901 1.338 . S
C902 H906 0.931 . S
C903 N900 1.313 . S
C903 N904 1.344 . S
C903 H907 0.930 . S
N904 C901 1.377 . S
N904 C903 1.344 . S
O905 Co897 2.055 . S
O905 C909 1.253 . S
H906 C902 0.931 . S
H907 C903 0.930 . S
O908 Co897 2.039 . S
O908 C898 1.265 . S
C909 O905 1.253 . S
C909 O910 1.227 . S
O910 C909 1.227 . S
N911 Co897 2.140 . S
N911 C914 1.346 . S
N911 C915 1.345 . S
C912 C913 1.387 . S
C912 C916 1.391 . S
C913 C912 1.387 . S
C913 C914 1.369 . S
C913 H922 0.929 . S
C914 N911 1.346 . S
C914 C913 1.369 . S
C914 H917 0.928 . S
C915 N911 1.345 . S
C915 C916 1.371 . S
C915 H918 0.931 . S
C916 C912 1.391 . S
C916 C915 1.371 . S
C916 H923 0.930 . S
H917 C914 0.928 . S
H918 C915 0.931 . S
H919 C895 0.930 . S
H920 C892 0.930 . S
H921 C901 0.930 . S
H922 C913 0.929 . S
H923 C916 0.930 . S
C924 C925 1.351 . S
C924 N927 1.368 . S
C924 H929 0.931 . S
C925 C924 1.351 . S
C925 N926 1.373 . S
C925 H953 0.930 . S
N926 C925 1.373 . S
N926 C928 1.340 . S
N927 C924 1.368 . S
N927 C928 1.321 . S
N927 Co930 2.135 . S
C928 N926 1.340 . S
C928 N927 1.321 . S
C928 H952 0.930 . S
H929 C924 0.931 . S
Co930 N927 2.135 . S
Co930 N933 2.121 . S
Co930 O938 2.055 . S
Co930 O941 2.039 . S
Co930 N944 2.140 . S
C931 O932 1.227 . S
C931 O941 1.265 . S
O932 C931 1.227 . S
N933 Co930 2.121 . S
N933 C935 1.375 . S
N933 C936 1.313 . S
C934 C935 1.338 . S
C934 N937 1.377 . S
C934 H954 0.930 . S
C935 N933 1.375 . S
C935 C934 1.338 . S
C935 H939 0.931 . S
C936 N933 1.313 . S
C936 N937 1.344 . S
C936 H940 0.930 . S
N937 C934 1.377 . S
N937 C936 1.344 . S
O938 Co930 2.055 . S
O938 C942 1.253 . S
H939 C935 0.931 . S
H940 C936 0.930 . S
O941 Co930 2.039 . S
O941 C931 1.265 . S
C942 O938 1.253 . S
C942 O943 1.227 . S
O943 C942 1.227 . S
N944 Co930 2.140 . S
N944 C947 1.346 . S
N944 C948 1.345 . S
C945 C946 1.387 . S
C945 C949 1.391 . S
C946 C945 1.387 . S
C946 C947 1.369 . S
C946 H955 0.929 . S
C947 N944 1.346 . S
C947 C946 1.369 . S
C947 H950 0.928 . S
C948 N944 1.345 . S
C948 C949 1.371 . S
C948 H951 0.931 . S
C949 C945 1.391 . S
C949 C948 1.371 . S
C949 H956 0.930 . S
H950 C947 0.928 . S
H951 C948 0.931 . S
H952 C928 0.930 . S
H953 C925 0.930 . S
H954 C934 0.930 . S
H955 C946 0.929 . S
H956 C949 0.930 . S
C957 C958 1.351 . S
C957 N960 1.368 . S
C957 H962 0.931 . S
C958 C957 1.351 . S
C958 N959 1.373 . S
C958 H986 0.930 . S
N959 C958 1.373 . S
N959 C961 1.340 . S
N960 C957 1.368 . S
N960 C961 1.321 . S
N960 Co963 2.135 . S
C961 N959 1.340 . S
C961 N960 1.321 . S
C961 H985 0.930 . S
H962 C957 0.931 . S
Co963 N960 2.135 . S
Co963 N966 2.121 . S
Co963 O971 2.055 . S
Co963 O974 2.039 . S
Co963 N977 2.140 . S
C964 O965 1.227 . S
C964 O974 1.265 . S
O965 C964 1.227 . S
N966 Co963 2.121 . S
N966 C968 1.375 . S
N966 C969 1.313 . S
C967 C968 1.338 . S
C967 N970 1.377 . S
C967 H987 0.930 . S
C968 N966 1.375 . S
C968 C967 1.338 . S
C968 H972 0.931 . S
C969 N966 1.313 . S
C969 N970 1.344 . S
C969 H973 0.930 . S
N970 C967 1.377 . S
N970 C969 1.344 . S
O971 Co963 2.055 . S
O971 C975 1.253 . S
H972 C968 0.931 . S
H973 C969 0.930 . S
O974 Co963 2.039 . S
O974 C964 1.265 . S
C975 O971 1.253 . S
C975 O976 1.227 . S
O976 C975 1.227 . S
N977 Co963 2.140 . S
N977 C980 1.346 . S
N977 C981 1.345 . S
C978 C979 1.387 . S
C978 C982 1.391 . S
C979 C978 1.387 . S
C979 C980 1.369 . S
C979 H988 0.929 . S
C980 N977 1.346 . S
C980 C979 1.369 . S
C980 H983 0.928 . S
C981 N977 1.345 . S
C981 C982 1.371 . S
C981 H984 0.931 . S
C982 C978 1.391 . S
C982 C981 1.371 . S
C982 H989 0.930 . S
H983 C980 0.928 . S
H984 C981 0.931 . S
H985 C961 0.930 . S
H986 C958 0.930 . S
H987 C967 0.930 . S
H988 C979 0.929 . S
H989 C982 0.930 . S
C990 C991 1.351 . S
C990 N993 1.368 . S
C990 H995 0.931 . S
C991 C990 1.351 . S
C991 N992 1.373 . S
C991 H1019 0.930 . S
N992 C991 1.373 . S
N992 C994 1.340 . S
N993 C990 1.368 . S
N993 C994 1.321 . S
N993 Co996 2.135 . S
C994 N992 1.340 . S
C994 N993 1.321 . S
C994 H1018 0.930 . S
H995 C990 0.931 . S
Co996 N993 2.135 . S
Co996 N999 2.121 . S
Co996 O1004 2.055 . S
Co996 O1007 2.039 . S
Co996 N1010 2.140 . S
C997 O998 1.227 . S
C997 O1007 1.265 . S
O998 C997 1.227 . S
N999 Co996 2.121 . S
N999 C1001 1.375 . S
N999 C1002 1.313 . S
C1000 C1001 1.338 . S
C1000 N1003 1.377 . S
C1000 H1020 0.930 . S
C1001 N999 1.375 . S
C1001 C1000 1.338 . S
C1001 H1005 0.931 . S
C1002 N999 1.313 . S
C1002 N1003 1.344 . S
C1002 H1006 0.930 . S
N1003 C1000 1.377 . S
N1003 C1002 1.344 . S
O1004 Co996 2.055 . S
O1004 C1008 1.253 . S
H1005 C1001 0.931 . S
H1006 C1002 0.930 . S
O1007 Co996 2.039 . S
O1007 C997 1.265 . S
C1008 O1004 1.253 . S
C1008 O1009 1.227 . S
O1009 C1008 1.227 . S
N1010 Co996 2.140 . S
N1010 C1013 1.346 . S
N1010 C1014 1.345 . S
C1011 C1012 1.387 . S
C1011 C1015 1.391 . S
C1012 C1011 1.387 . S
C1012 C1013 1.369 . S
C1012 H1021 0.929 . S
C1013 N1010 1.346 . S
C1013 C1012 1.369 . S
C1013 H1016 0.928 . S
C1014 N1010 1.345 . S
C1014 C1015 1.371 . S
C1014 H1017 0.931 . S
C1015 C1011 1.391 . S
C1015 C1014 1.371 . S
C1015 H1022 0.930 . S
H1016 C1013 0.928 . S
H1017 C1014 0.931 . S
H1018 C994 0.930 . S
H1019 C991 0.930 . S
H1020 C1000 0.930 . S
H1021 C1012 0.929 . S
H1022 C1015 0.930 . S
C1023 C1024 1.351 . S
C1023 N1026 1.368 . S
C1023 H1028 0.931 . S
C1024 C1023 1.351 . S
C1024 N1025 1.373 . S
C1024 H1052 0.930 . S
N1025 C1024 1.373 . S
N1025 C1027 1.340 . S
N1026 C1023 1.368 . S
N1026 C1027 1.321 . S
N1026 Co1029 2.135 . S
C1027 N1025 1.340 . S
C1027 N1026 1.321 . S
C1027 H1051 0.930 . S
H1028 C1023 0.931 . S
Co1029 N1026 2.135 . S
Co1029 N1032 2.121 . S
Co1029 O1037 2.055 . S
Co1029 O1040 2.039 . S
Co1029 N1043 2.140 . S
C1030 O1031 1.227 . S
C1030 O1040 1.265 . S
O1031 C1030 1.227 . S
N1032 Co1029 2.121 . S
N1032 C1034 1.375 . S
N1032 C1035 1.313 . S
C1033 C1034 1.338 . S
C1033 N1036 1.377 . S
C1033 H1053 0.930 . S
C1034 N1032 1.375 . S
C1034 C1033 1.338 . S
C1034 H1038 0.931 . S
C1035 N1032 1.313 . S
C1035 N1036 1.344 . S
C1035 H1039 0.930 . S
N1036 C1033 1.377 . S
N1036 C1035 1.344 . S
O1037 Co1029 2.055 . S
O1037 C1041 1.253 . S
H1038 C1034 0.931 . S
H1039 C1035 0.930 . S
O1040 Co1029 2.039 . S
O1040 C1030 1.265 . S
C1041 O1037 1.253 . S
C1041 O1042 1.227 . S
O1042 C1041 1.227 . S
N1043 Co1029 2.140 . S
N1043 C1046 1.346 . S
N1043 C1047 1.345 . S
C1044 C1045 1.387 . S
C1044 C1048 1.391 . S
C1045 C1044 1.387 . S
C1045 C1046 1.369 . S
C1045 H1054 0.929 . S
C1046 N1043 1.346 . S
C1046 C1045 1.369 . S
C1046 H1049 0.928 . S
C1047 N1043 1.345 . S
C1047 C1048 1.371 . S
C1047 H1050 0.931 . S
C1048 C1044 1.391 . S
C1048 C1047 1.371 . S
C1048 H1055 0.930 . S
H1049 C1046 0.928 . S
H1050 C1047 0.931 . S
H1051 C1027 0.930 . S
H1052 C1024 0.930 . S
H1053 C1033 0.930 . S
H1054 C1045 0.929 . S
H1055 C1048 0.930 . S
C1056 C1057 1.391 . S
C1056 C1058 1.394 . S
C1056 H1072 0.931 . S
C1057 C1056 1.391 . S
C1057 C1061 1.376 . S
C1058 C1056 1.394 . S
C1058 C1059 1.369 . S
C1058 C1062 1.531 . S
C1059 C1058 1.369 . S
C1059 C1060 1.410 . S
C1059 C1067 1.503 . S
C1060 C1059 1.410 . S
C1060 C1061 1.392 . S
C1060 C1063 1.511 . S
C1061 C1057 1.376 . S
C1061 C1060 1.392 . S
C1061 H1073 0.929 1_554 S
C1062 C1058 1.531 . S
C1062 H1074 0.960 . S
C1062 H1075 0.962 . S
C1062 H1076 0.960 . S
C1063 C1060 1.511 . S
C1063 H1077 0.961 . S
C1063 H1078 0.961 . S
C1063 H1079 0.961 . S
C1064 C1065 1.370 . S
C1064 C1066 1.363 . S
C1064 H1080 0.931 . S
C1065 C1064 1.370 . S
C1065 C1069 1.408 . S
C1066 C1064 1.363 . S
C1066 C1067 1.370 . S
C1066 C1070 1.524 . S
C1067 C1059 1.503 . S
C1067 C1066 1.370 . S
C1067 C1068 1.403 . S
C1068 C1067 1.403 . S
C1068 C1069 1.404 . S
C1068 C1071 1.539 . S
C1069 C1065 1.408 . S
C1069 C1068 1.404 . S
C1069 H1081 0.930 . S
C1070 C1066 1.524 . S
C1070 H1082 0.956 . S
C1070 H1083 0.961 . S
C1070 H1084 0.961 . S
C1071 C1068 1.539 . S
C1071 H1085 0.958 . S
C1071 H1086 0.961 . S
C1071 H1087 0.960 . S
H1072 C1056 0.931 . S
H1073 C1061 0.929 1_556 S
H1074 C1062 0.960 . S
H1075 C1062 0.962 . S
H1076 C1062 0.960 . S
H1077 C1063 0.961 . S
H1078 C1063 0.961 . S
H1079 C1063 0.961 . S
H1080 C1064 0.931 . S
H1081 C1069 0.930 . S
H1082 C1070 0.956 . S
H1083 C1070 0.961 . S
H1084 C1070 0.961 . S
H1085 C1071 0.958 . S
H1086 C1071 0.961 . S
H1087 C1071 0.960 . S
C1088 C1089 1.391 . S
C1088 C1090 1.394 . S
C1088 H1104 0.931 . S
C1089 C1088 1.391 . S
C1089 C1093 1.376 . S
C1090 C1088 1.394 . S
C1090 C1091 1.369 . S
C1090 C1094 1.531 . S
C1091 C1090 1.369 . S
C1091 C1092 1.410 . S
C1091 C1099 1.503 . S
C1092 C1091 1.410 . S
C1092 C1093 1.392 . S
C1092 C1095 1.511 . S
C1093 C1089 1.376 . S
C1093 C1092 1.392 . S
C1093 H1105 0.929 . S
C1094 C1090 1.531 . S
C1094 H1106 0.960 . S
C1094 H1107 0.962 . S
C1094 H1108 0.960 . S
C1095 C1092 1.511 . S
C1095 H1109 0.961 . S
C1095 H1110 0.961 . S
C1095 H1111 0.961 . S
C1096 C1097 1.370 . S
C1096 C1098 1.363 . S
C1096 H1112 0.931 . S
C1097 C1096 1.370 . S
C1097 C1101 1.408 . S
C1098 C1096 1.363 . S
C1098 C1099 1.370 . S
C1098 C1102 1.524 . S
C1099 C1091 1.503 . S
C1099 C1098 1.370 . S
C1099 C1100 1.403 . S
C1100 C1099 1.403 . S
C1100 C1101 1.404 . S
C1100 C1103 1.539 . S
C1101 C1097 1.408 . S
C1101 C1100 1.404 . S
C1101 H1113 0.930 1_554 S
C1102 C1098 1.524 . S
C1102 H1114 0.956 . S
C1102 H1115 0.961 . S
C1102 H1116 0.961 . S
C1103 C1100 1.539 . S
C1103 H1117 0.958 . S
C1103 H1118 0.961 . S
C1103 H1119 0.960 . S
H1104 C1088 0.931 . S
H1105 C1093 0.929 . S
H1106 C1094 0.960 . S
H1107 C1094 0.962 . S
H1108 C1094 0.960 . S
H1109 C1095 0.961 . S
H1110 C1095 0.961 . S
H1111 C1095 0.961 . S
H1112 C1096 0.931 . S
H1113 C1101 0.930 1_556 S
H1114 C1102 0.956 . S
H1115 C1102 0.961 . S
H1116 C1102 0.961 . S
H1117 C1103 0.958 . S
H1118 C1103 0.961 . S
H1119 C1103 0.960 . S
C1120 C1121 1.391 . S
C1120 C1122 1.394 . S
C1120 H1136 0.931 . S
C1121 C1120 1.391 . S
C1121 C1125 1.376 . S
C1122 C1120 1.394 . S
C1122 C1123 1.369 . S
C1122 C1126 1.531 . S
C1123 C1122 1.369 . S
C1123 C1124 1.410 . S
C1123 C1131 1.503 . S
C1124 C1123 1.410 . S
C1124 C1125 1.392 . S
C1124 C1127 1.511 . S
C1125 C1121 1.376 . S
C1125 C1124 1.392 . S
C1125 H1137 0.929 . S
C1126 C1122 1.531 . S
C1126 H1138 0.960 . S
C1126 H1139 0.962 . S
C1126 H1140 0.960 . S
C1127 C1124 1.511 . S
C1127 H1141 0.961 . S
C1127 H1142 0.961 . S
C1127 H1143 0.961 . S
C1128 C1129 1.370 . S
C1128 C1130 1.363 . S
C1128 H1144 0.931 . S
C1129 C1128 1.370 . S
C1129 C1133 1.408 . S
C1130 C1128 1.363 . S
C1130 C1131 1.370 . S
C1130 C1134 1.524 . S
C1131 C1123 1.503 . S
C1131 C1130 1.370 . S
C1131 C1132 1.403 . S
C1132 C1131 1.403 . S
C1132 C1133 1.404 . S
C1132 C1135 1.539 . S
C1133 C1129 1.408 . S
C1133 C1132 1.404 . S
C1133 H1145 0.930 . S
C1134 C1130 1.524 . S
C1134 H1146 0.956 . S
C1134 H1147 0.961 . S
C1134 H1148 0.961 . S
C1135 C1132 1.539 . S
C1135 H1149 0.958 . S
C1135 H1150 0.961 . S
C1135 H1151 0.960 . S
H1136 C1120 0.931 . S
H1137 C1125 0.929 . S
H1138 C1126 0.960 . S
H1139 C1126 0.962 . S
H1140 C1126 0.960 . S
H1141 C1127 0.961 . S
H1142 C1127 0.961 . S
H1143 C1127 0.961 . S
H1144 C1128 0.931 . S
H1145 C1133 0.930 . S
H1146 C1134 0.956 . S
H1147 C1134 0.961 . S
H1148 C1134 0.961 . S
H1149 C1135 0.958 . S
H1150 C1135 0.961 . S
H1151 C1135 0.960 . S
C1152 C1153 1.391 . S
C1152 C1154 1.394 . S
C1152 H1168 0.931 . S
C1153 C1152 1.391 . S
C1153 C1157 1.376 . S
C1154 C1152 1.394 . S
C1154 C1155 1.369 . S
C1154 C1158 1.531 . S
C1155 C1154 1.369 . S
C1155 C1156 1.410 . S
C1155 C1163 1.503 . S
C1156 C1155 1.410 . S
C1156 C1157 1.392 . S
C1156 C1159 1.511 . S
C1157 C1153 1.376 . S
C1157 C1156 1.392 . S
C1157 H1169 0.929 . S
C1158 C1154 1.531 . S
C1158 H1170 0.960 . S
C1158 H1171 0.962 . S
C1158 H1172 0.960 . S
C1159 C1156 1.511 . S
C1159 H1173 0.961 . S
C1159 H1174 0.961 . S
C1159 H1175 0.961 . S
C1160 C1161 1.370 . S
C1160 C1162 1.363 . S
C1160 H1176 0.931 1_556 S
C1161 C1160 1.370 . S
C1161 C1165 1.408 . S
C1162 C1160 1.363 . S
C1162 C1163 1.370 . S
C1162 C1166 1.524 . S
C1163 C1155 1.503 . S
C1163 C1162 1.370 . S
C1163 C1164 1.403 . S
C1164 C1163 1.403 . S
C1164 C1165 1.404 . S
C1164 C1167 1.539 . S
C1165 C1161 1.408 . S
C1165 C1164 1.404 . S
C1165 H1177 0.930 . S
C1166 C1162 1.524 . S
C1166 H1178 0.956 . S
C1166 H1179 0.961 . S
C1166 H1180 0.961 . S
C1167 C1164 1.539 . S
C1167 H1181 0.958 . S
C1167 H1182 0.961 . S
C1167 H1183 0.960 . S
H1168 C1152 0.931 . S
H1169 C1157 0.929 . S
H1170 C1158 0.960 . S
H1171 C1158 0.962 . S
H1172 C1158 0.960 . S
H1173 C1159 0.961 . S
H1174 C1159 0.961 . S
H1175 C1159 0.961 . S
H1176 C1160 0.931 1_554 S
H1177 C1165 0.930 . S
H1178 C1166 0.956 . S
H1179 C1166 0.961 . S
H1180 C1166 0.961 . S
H1181 C1167 0.958 . S
H1182 C1167 0.961 . S
H1183 C1167 0.960 . S
C1184 C1185 1.391 . S
C1184 C1186 1.394 . S
C1184 H1200 0.931 . S
C1185 C1184 1.391 . S
C1185 C1189 1.376 . S
C1186 C1184 1.394 . S
C1186 C1187 1.369 . S
C1186 C1190 1.531 . S
C1187 C1186 1.369 . S
C1187 C1188 1.410 . S
C1187 C1195 1.503 . S
C1188 C1187 1.410 . S
C1188 C1189 1.392 . S
C1188 C1191 1.511 . S
C1189 C1185 1.376 . S
C1189 C1188 1.392 . S
C1189 H1201 0.929 . S
C1190 C1186 1.531 . S
C1190 H1202 0.960 . S
C1190 H1203 0.962 . S
C1190 H1204 0.960 . S
C1191 C1188 1.511 . S
C1191 H1205 0.961 . S
C1191 H1206 0.961 . S
C1191 H1207 0.961 . S
C1192 C1193 1.370 . S
C1192 C1194 1.363 . S
C1192 H1208 0.931 . S
C1193 C1192 1.370 . S
C1193 C1197 1.408 . S
C1194 C1192 1.363 . S
C1194 C1195 1.370 . S
C1194 C1198 1.524 . S
C1195 C1187 1.503 . S
C1195 C1194 1.370 . S
C1195 C1196 1.403 . S
C1196 C1195 1.403 . S
C1196 C1197 1.404 . S
C1196 C1199 1.539 . S
C1197 C1193 1.408 . S
C1197 C1196 1.404 . S
C1197 H1209 0.930 . S
C1198 C1194 1.524 . S
C1198 H1210 0.956 . S
C1198 H1211 0.961 . S
C1198 H1212 0.961 . S
C1199 C1196 1.539 . S
C1199 H1213 0.958 . S
C1199 H1214 0.961 . S
C1199 H1215 0.960 . S
H1200 C1184 0.931 . S
H1201 C1189 0.929 . S
H1202 C1190 0.960 . S
H1203 C1190 0.962 . S
H1204 C1190 0.960 . S
H1205 C1191 0.961 . S
H1206 C1191 0.961 . S
H1207 C1191 0.961 . S
H1208 C1192 0.931 . S
H1209 C1197 0.930 . S
H1210 C1198 0.956 . S
H1211 C1198 0.961 . S
H1212 C1198 0.961 . S
H1213 C1199 0.958 . S
H1214 C1199 0.961 . S
H1215 C1199 0.960 . S
C1216 C1217 1.391 . S
C1216 C1218 1.394 . S
C1216 H1232 0.931 . S
C1217 C1216 1.391 . S
C1217 C1221 1.376 . S
C1218 C1216 1.394 . S
C1218 C1219 1.369 . S
C1218 C1222 1.531 . S
C1219 C1218 1.369 . S
C1219 C1220 1.410 . S
C1219 C1227 1.503 . S
C1220 C1219 1.410 . S
C1220 C1221 1.392 . S
C1220 C1223 1.511 . S
C1221 C1217 1.376 . S
C1221 C1220 1.392 . S
C1221 H1233 0.929 . S
C1222 C1218 1.531 . S
C1222 H1234 0.960 . S
C1222 H1235 0.962 . S
C1222 H1236 0.960 . S
C1223 C1220 1.511 . S
C1223 H1237 0.961 . S
C1223 H1238 0.961 . S
C1223 H1239 0.961 . S
C1224 C1225 1.370 . S
C1224 C1226 1.363 . S
C1224 H1240 0.931 . S
C1225 C1224 1.370 . S
C1225 C1229 1.408 . S
C1226 C1224 1.363 . S
C1226 C1227 1.370 . S
C1226 C1230 1.524 . S
C1227 C1219 1.503 . S
C1227 C1226 1.370 . S
C1227 C1228 1.403 . S
C1228 C1227 1.403 . S
C1228 C1229 1.404 . S
C1228 C1231 1.539 . S
C1229 C1225 1.408 . S
C1229 C1228 1.404 . S
C1229 H1241 0.930 . S
C1230 C1226 1.524 . S
C1230 H1242 0.956 . S
C1230 H1243 0.961 . S
C1230 H1244 0.961 . S
C1231 C1228 1.539 . S
C1231 H1245 0.958 . S
C1231 H1246 0.961 . S
C1231 H1247 0.960 . S
H1232 C1216 0.931 . S
H1233 C1221 0.929 . S
H1234 C1222 0.960 . S
H1235 C1222 0.962 . S
H1236 C1222 0.960 . S
H1237 C1223 0.961 . S
H1238 C1223 0.961 . S
H1239 C1223 0.961 . S
H1240 C1224 0.931 . S
H1241 C1229 0.930 . S
H1242 C1230 0.956 . S
H1243 C1230 0.961 . S
H1244 C1230 0.961 . S
H1245 C1231 0.958 . S
H1246 C1231 0.961 . S
H1247 C1231 0.960 . S
C1248 C1249 1.391 . S
C1248 C1250 1.394 . S
C1248 H1264 0.931 . S
C1249 C1248 1.391 . S
C1249 C1253 1.376 . S
C1250 C1248 1.394 . S
C1250 C1251 1.369 . S
C1250 C1254 1.531 . S
C1251 C1250 1.369 . S
C1251 C1252 1.410 . S
C1251 C1259 1.503 . S
C1252 C1251 1.410 . S
C1252 C1253 1.392 . S
C1252 C1255 1.511 . S
C1253 C1249 1.376 . S
C1253 C1252 1.392 . S
C1253 H1265 0.929 . S
C1254 C1250 1.531 . S
C1254 H1266 0.960 . S
C1254 H1267 0.962 . S
C1254 H1268 0.960 . S
C1255 C1252 1.511 . S
C1255 H1269 0.961 . S
C1255 H1270 0.961 . S
C1255 H1271 0.961 . S
C1256 C1257 1.370 . S
C1256 C1258 1.363 . S
C1256 H1272 0.931 . S
C1257 C1256 1.370 . S
C1257 C1261 1.408 . S
C1258 C1256 1.363 . S
C1258 C1259 1.370 . S
C1258 C1262 1.524 . S
C1259 C1251 1.503 . S
C1259 C1258 1.370 . S
C1259 C1260 1.403 . S
C1260 C1259 1.403 . S
C1260 C1261 1.404 . S
C1260 C1263 1.539 . S
C1261 C1257 1.408 . S
C1261 C1260 1.404 . S
C1261 H1273 0.930 . S
C1262 C1258 1.524 . S
C1262 H1274 0.956 . S
C1262 H1275 0.961 . S
C1262 H1276 0.961 . S
C1263 C1260 1.539 . S
C1263 H1277 0.958 . S
C1263 H1278 0.961 . S
C1263 H1279 0.960 . S
H1264 C1248 0.931 . S
H1265 C1253 0.929 . S
H1266 C1254 0.960 . S
H1267 C1254 0.962 . S
H1268 C1254 0.960 . S
H1269 C1255 0.961 . S
H1270 C1255 0.961 . S
H1271 C1255 0.961 . S
H1272 C1256 0.931 . S
H1273 C1261 0.930 . S
H1274 C1262 0.956 . S
H1275 C1262 0.961 . S
H1276 C1262 0.961 . S
H1277 C1263 0.958 . S
H1278 C1263 0.961 . S
H1279 C1263 0.960 . S
C1280 C1281 1.391 . S
C1280 C1282 1.394 . S
C1280 H1296 0.931 . S
C1281 C1280 1.391 . S
C1281 C1285 1.376 . S
C1282 C1280 1.394 . S
C1282 C1283 1.369 . S
C1282 C1286 1.531 . S
C1283 C1282 1.369 . S
C1283 C1284 1.410 . S
C1283 C1291 1.503 . S
C1284 C1283 1.410 . S
C1284 C1285 1.392 . S
C1284 C1287 1.511 . S
C1285 C1281 1.376 . S
C1285 C1284 1.392 . S
C1285 H1297 0.929 . S
C1286 C1282 1.531 . S
C1286 H1298 0.960 . S
C1286 H1299 0.962 . S
C1286 H1300 0.960 . S
C1287 C1284 1.511 . S
C1287 H1301 0.961 . S
C1287 H1302 0.961 . S
C1287 H1303 0.961 . S
C1288 C1289 1.370 . S
C1288 C1290 1.363 . S
C1288 H1304 0.931 . S
C1289 C1288 1.370 . S
C1289 C1293 1.408 . S
C1290 C1288 1.363 . S
C1290 C1291 1.370 . S
C1290 C1294 1.524 . S
C1291 C1283 1.503 . S
C1291 C1290 1.370 . S
C1291 C1292 1.403 . S
C1292 C1291 1.403 . S
C1292 C1293 1.404 . S
C1292 C1295 1.539 . S
C1293 C1289 1.408 . S
C1293 C1292 1.404 . S
C1293 H1305 0.930 . S
C1294 C1290 1.524 . S
C1294 H1306 0.956 . S
C1294 H1307 0.961 . S
C1294 H1308 0.961 . S
C1295 C1292 1.539 . S
C1295 H1309 0.958 . S
C1295 H1310 0.961 . S
C1295 H1311 0.960 . S
H1296 C1280 0.931 . S
H1297 C1285 0.929 . S
H1298 C1286 0.960 . S
H1299 C1286 0.962 . S
H1300 C1286 0.960 . S
H1301 C1287 0.961 . S
H1302 C1287 0.961 . S
H1303 C1287 0.961 . S
H1304 C1288 0.931 . S
H1305 C1293 0.930 . S
H1306 C1294 0.956 . S
H1307 C1294 0.961 . S
H1308 C1294 0.961 . S
H1309 C1295 0.958 . S
H1310 C1295 0.961 . S
H1311 C1295 0.960 . S
C1312 C1313 1.391 . S
C1312 C1314 1.394 . S
C1312 H1328 0.931 . S
C1313 C1312 1.391 . S
C1313 C1317 1.376 . S
C1314 C1312 1.394 . S
C1314 C1315 1.369 . S
C1314 C1318 1.531 . S
C1315 C1314 1.369 . S
C1315 C1316 1.410 . S
C1315 C1323 1.503 . S
C1316 C1315 1.410 . S
C1316 C1317 1.392 . S
C1316 C1319 1.511 . S
C1317 C1313 1.376 . S
C1317 C1316 1.392 . S
C1317 H1329 0.929 . S
C1318 C1314 1.531 . S
C1318 H1330 0.960 . S
C1318 H1331 0.962 . S
C1318 H1332 0.960 . S
C1319 C1316 1.511 . S
C1319 H1333 0.961 . S
C1319 H1334 0.961 . S
C1319 H1335 0.961 . S
C1320 C1321 1.370 . S
C1320 C1322 1.363 . S
C1320 H1336 0.931 . S
C1321 C1320 1.370 . S
C1321 C1325 1.408 . S
C1322 C1320 1.363 . S
C1322 C1323 1.370 . S
C1322 C1326 1.524 . S
C1323 C1315 1.503 . S
C1323 C1322 1.370 . S
C1323 C1324 1.403 . S
C1324 C1323 1.403 . S
C1324 C1325 1.404 . S
C1324 C1327 1.539 . S
C1325 C1321 1.408 . S
C1325 C1324 1.404 . S
C1325 H1337 0.930 . S
C1326 C1322 1.524 . S
C1326 H1338 0.956 . S
C1326 H1339 0.961 . S
C1326 H1340 0.961 . S
C1327 C1324 1.539 . S
C1327 H1341 0.958 . S
C1327 H1342 0.961 . S
C1327 H1343 0.960 . S
H1328 C1312 0.931 . S
H1329 C1317 0.929 . S
H1330 C1318 0.960 . S
H1331 C1318 0.962 . S
H1332 C1318 0.960 . S
H1333 C1319 0.961 . S
H1334 C1319 0.961 . S
H1335 C1319 0.961 . S
H1336 C1320 0.931 . S
H1337 C1325 0.930 . S
H1338 C1326 0.956 . S
H1339 C1326 0.961 . S
H1340 C1326 0.961 . S
H1341 C1327 0.958 . S
H1342 C1327 0.961 . S
H1343 C1327 0.960 . S
C1344 C1345 1.391 . S
C1344 C1346 1.394 . S
C1344 H1360 0.931 . S
C1345 C1344 1.391 . S
C1345 C1349 1.376 . S
C1346 C1344 1.394 . S
C1346 C1347 1.369 . S
C1346 C1350 1.531 . S
C1347 C1346 1.369 . S
C1347 C1348 1.410 . S
C1347 C1355 1.503 . S
C1348 C1347 1.410 . S
C1348 C1349 1.392 . S
C1348 C1351 1.511 . S
C1349 C1345 1.376 . S
C1349 C1348 1.392 . S
C1349 H1361 0.929 . S
C1350 C1346 1.531 . S
C1350 H1362 0.960 . S
C1350 H1363 0.962 . S
C1350 H1364 0.960 . S
C1351 C1348 1.511 . S
C1351 H1365 0.961 . S
C1351 H1366 0.961 . S
C1351 H1367 0.961 . S
C1352 C1353 1.370 . S
C1352 C1354 1.363 . S
C1352 H1368 0.931 . S
C1353 C1352 1.370 . S
C1353 C1357 1.408 . S
C1354 C1352 1.363 . S
C1354 C1355 1.370 . S
C1354 C1358 1.524 . S
C1355 C1347 1.503 . S
C1355 C1354 1.370 . S
C1355 C1356 1.403 . S
C1356 C1355 1.403 . S
C1356 C1357 1.404 . S
C1356 C1359 1.539 . S
C1357 C1353 1.408 . S
C1357 C1356 1.404 . S
C1357 H1369 0.930 . S
C1358 C1354 1.524 . S
C1358 H1370 0.956 . S
C1358 H1371 0.961 . S
C1358 H1372 0.961 . S
C1359 C1356 1.539 . S
C1359 H1373 0.958 . S
C1359 H1374 0.961 . S
C1359 H1375 0.960 . S
H1360 C1344 0.931 . S
H1361 C1349 0.929 . S
H1362 C1350 0.960 . S
H1363 C1350 0.962 . S
H1364 C1350 0.960 . S
H1365 C1351 0.961 . S
H1366 C1351 0.961 . S
H1367 C1351 0.961 . S
H1368 C1352 0.931 . S
H1369 C1357 0.930 . S
H1370 C1358 0.956 . S
H1371 C1358 0.961 . S
H1372 C1358 0.961 . S
H1373 C1359 0.958 . S
H1374 C1359 0.961 . S
H1375 C1359 0.960 . S
C1376 C1377 1.391 . S
C1376 C1378 1.394 . S
C1376 H1392 0.931 . S
C1377 C1376 1.391 . S
C1377 C1381 1.376 . S
C1378 C1376 1.394 . S
C1378 C1379 1.369 . S
C1378 C1382 1.531 . S
C1379 C1378 1.369 . S
C1379 C1380 1.410 . S
C1379 C1387 1.503 . S
C1380 C1379 1.410 . S
C1380 C1381 1.392 . S
C1380 C1383 1.511 . S
C1381 C1377 1.376 . S
C1381 C1380 1.392 . S
C1381 H1393 0.929 . S
C1382 C1378 1.531 . S
C1382 H1394 0.960 . S
C1382 H1395 0.962 . S
C1382 H1396 0.960 . S
C1383 C1380 1.511 . S
C1383 H1397 0.961 . S
C1383 H1398 0.961 . S
C1383 H1399 0.961 . S
C1384 C1385 1.370 . S
C1384 C1386 1.363 . S
C1384 H1400 0.931 . S
C1385 C1384 1.370 . S
C1385 C1389 1.408 . S
C1386 C1384 1.363 . S
C1386 C1387 1.370 . S
C1386 C1390 1.524 . S
C1387 C1379 1.503 . S
C1387 C1386 1.370 . S
C1387 C1388 1.403 . S
C1388 C1387 1.403 . S
C1388 C1389 1.404 . S
C1388 C1391 1.539 . S
C1389 C1385 1.408 . S
C1389 C1388 1.404 . S
C1389 H1401 0.930 . S
C1390 C1386 1.524 . S
C1390 H1402 0.956 . S
C1390 H1403 0.961 . S
C1390 H1404 0.961 . S
C1391 C1388 1.539 . S
C1391 H1405 0.958 . S
C1391 H1406 0.961 . S
C1391 H1407 0.960 . S
H1392 C1376 0.931 . S
H1393 C1381 0.929 . S
H1394 C1382 0.960 . S
H1395 C1382 0.962 . S
H1396 C1382 0.960 . S
H1397 C1383 0.961 . S
H1398 C1383 0.961 . S
H1399 C1383 0.961 . S
H1400 C1384 0.931 . S
H1401 C1389 0.930 . S
H1402 C1390 0.956 . S
H1403 C1390 0.961 . S
H1404 C1390 0.961 . S
H1405 C1391 0.958 . S
H1406 C1391 0.961 . S
H1407 C1391 0.960 . S
C1408 C1409 1.391 . S
C1408 C1410 1.394 . S
C1408 H1424 0.931 . S
C1409 C1408 1.391 . S
C1409 C1413 1.376 . S
C1410 C1408 1.394 . S
C1410 C1411 1.369 . S
C1410 C1414 1.531 . S
C1411 C1410 1.369 . S
C1411 C1412 1.410 . S
C1411 C1419 1.503 . S
C1412 C1411 1.410 . S
C1412 C1413 1.392 . S
C1412 C1415 1.511 . S
C1413 C1409 1.376 . S
C1413 C1412 1.392 . S
C1413 H1425 0.929 . S
C1414 C1410 1.531 . S
C1414 H1426 0.960 . S
C1414 H1427 0.962 . S
C1414 H1428 0.960 . S
C1415 C1412 1.511 . S
C1415 H1429 0.961 . S
C1415 H1430 0.961 . S
C1415 H1431 0.961 . S
C1416 C1417 1.370 . S
C1416 C1418 1.363 . S
C1416 H1432 0.931 . S
C1417 C1416 1.370 . S
C1417 C1421 1.408 . S
C1418 C1416 1.363 . S
C1418 C1419 1.370 . S
C1418 C1422 1.524 . S
C1419 C1411 1.503 . S
C1419 C1418 1.370 . S
C1419 C1420 1.403 . S
C1420 C1419 1.403 . S
C1420 C1421 1.404 . S
C1420 C1423 1.539 . S
C1421 C1417 1.408 . S
C1421 C1420 1.404 . S
C1421 H1433 0.930 . S
C1422 C1418 1.524 . S
C1422 H1434 0.956 . S
C1422 H1435 0.961 . S
C1422 H1436 0.961 . S
C1423 C1420 1.539 . S
C1423 H1437 0.958 . S
C1423 H1438 0.961 . S
C1423 H1439 0.960 . S
H1424 C1408 0.931 . S
H1425 C1413 0.929 . S
H1426 C1414 0.960 . S
H1427 C1414 0.962 . S
H1428 C1414 0.960 . S
H1429 C1415 0.961 . S
H1430 C1415 0.961 . S
H1431 C1415 0.961 . S
H1432 C1416 0.931 . S
H1433 C1421 0.930 . S
H1434 C1422 0.956 . S
H1435 C1422 0.961 . S
H1436 C1422 0.961 . S
H1437 C1423 0.958 . S
H1438 C1423 0.961 . S
H1439 C1423 0.960 . S
C1440 C1441 1.391 . S
C1440 C1442 1.394 . S
C1440 H1456 0.931 . S
C1441 C1440 1.391 . S
C1441 C1445 1.376 . S
C1442 C1440 1.394 . S
C1442 C1443 1.369 . S
C1442 C1446 1.531 . S
C1443 C1442 1.369 . S
C1443 C1444 1.410 . S
C1443 C1451 1.503 . S
C1444 C1443 1.410 . S
C1444 C1445 1.392 . S
C1444 C1447 1.511 . S
C1445 C1441 1.376 . S
C1445 C1444 1.392 . S
C1445 H1457 0.929 . S
C1446 C1442 1.531 . S
C1446 H1458 0.960 . S
C1446 H1459 0.962 . S
C1446 H1460 0.960 . S
C1447 C1444 1.511 . S
C1447 H1461 0.961 . S
C1447 H1462 0.961 . S
C1447 H1463 0.961 . S
C1448 C1449 1.370 . S
C1448 C1450 1.363 . S
C1448 H1464 0.931 . S
C1449 C1448 1.370 . S
C1449 C1453 1.408 . S
C1450 C1448 1.363 . S
C1450 C1451 1.370 . S
C1450 C1454 1.524 . S
C1451 C1443 1.503 . S
C1451 C1450 1.370 . S
C1451 C1452 1.403 . S
C1452 C1451 1.403 . S
C1452 C1453 1.404 . S
C1452 C1455 1.539 . S
C1453 C1449 1.408 . S
C1453 C1452 1.404 . S
C1453 H1465 0.930 . S
C1454 C1450 1.524 . S
C1454 H1466 0.956 . S
C1454 H1467 0.961 . S
C1454 H1468 0.961 . S
C1455 C1452 1.539 . S
C1455 H1469 0.958 . S
C1455 H1470 0.961 . S
C1455 H1471 0.960 . S
H1456 C1440 0.931 . S
H1457 C1445 0.929 . S
H1458 C1446 0.960 . S
H1459 C1446 0.962 . S
H1460 C1446 0.960 . S
H1461 C1447 0.961 . S
H1462 C1447 0.961 . S
H1463 C1447 0.961 . S
H1464 C1448 0.931 . S
H1465 C1453 0.930 . S
H1466 C1454 0.956 . S
H1467 C1454 0.961 . S
H1468 C1454 0.961 . S
H1469 C1455 0.958 . S
H1470 C1455 0.961 . S
H1471 C1455 0.960 . S
C1472 C1473 1.391 . S
C1472 C1474 1.394 . S
C1472 H1488 0.931 . S
C1473 C1472 1.391 . S
C1473 C1477 1.376 . S
C1474 C1472 1.394 . S
C1474 C1475 1.369 . S
C1474 C1478 1.531 . S
C1475 C1474 1.369 . S
C1475 C1476 1.410 . S
C1475 C1483 1.503 . S
C1476 C1475 1.410 . S
C1476 C1477 1.392 . S
C1476 C1479 1.511 . S
C1477 C1473 1.376 . S
C1477 C1476 1.392 . S
C1477 H1489 0.929 1_554 S
C1478 C1474 1.531 . S
C1478 H1490 0.960 . S
C1478 H1491 0.962 . S
C1478 H1492 0.960 . S
C1479 C1476 1.511 . S
C1479 H1493 0.961 . S
C1479 H1494 0.961 . S
C1479 H1495 0.961 . S
C1480 C1481 1.370 . S
C1480 C1482 1.363 . S
C1480 H1496 0.931 . S
C1481 C1480 1.370 . S
C1481 C1485 1.408 . S
C1482 C1480 1.363 . S
C1482 C1483 1.370 . S
C1482 C1486 1.524 . S
C1483 C1475 1.503 . S
C1483 C1482 1.370 . S
C1483 C1484 1.403 . S
C1484 C1483 1.403 . S
C1484 C1485 1.404 . S
C1484 C1487 1.539 . S
C1485 C1481 1.408 . S
C1485 C1484 1.404 . S
C1485 H1497 0.930 . S
C1486 C1482 1.524 . S
C1486 H1498 0.956 . S
C1486 H1499 0.961 . S
C1486 H1500 0.961 . S
C1487 C1484 1.539 . S
C1487 H1501 0.958 . S
C1487 H1502 0.961 . S
C1487 H1503 0.960 . S
H1488 C1472 0.931 . S
H1489 C1477 0.929 1_556 S
H1490 C1478 0.960 . S
H1491 C1478 0.962 . S
H1492 C1478 0.960 . S
H1493 C1479 0.961 . S
H1494 C1479 0.961 . S
H1495 C1479 0.961 . S
H1496 C1480 0.931 . S
H1497 C1485 0.930 . S
H1498 C1486 0.956 . S
H1499 C1486 0.961 . S
H1500 C1486 0.961 . S
H1501 C1487 0.958 . S
H1502 C1487 0.961 . S
H1503 C1487 0.960 . S
C1504 C1505 1.391 . S
C1504 C1506 1.394 . S
C1504 H1520 0.931 . S
C1505 C1504 1.391 . S
C1505 C1509 1.376 . S
C1506 C1504 1.394 . S
C1506 C1507 1.369 . S
C1506 C1510 1.531 . S
C1507 C1506 1.369 . S
C1507 C1508 1.410 . S
C1507 C1515 1.503 . S
C1508 C1507 1.410 . S
C1508 C1509 1.392 . S
C1508 C1511 1.511 . S
C1509 C1505 1.376 . S
C1509 C1508 1.392 . S
C1509 H1521 0.929 . S
C1510 C1506 1.531 . S
C1510 H1522 0.960 . S
C1510 H1523 0.962 . S
C1510 H1524 0.960 . S
C1511 C1508 1.511 . S
C1511 H1525 0.961 . S
C1511 H1526 0.961 . S
C1511 H1527 0.961 . S
C1512 C1513 1.370 . S
C1512 C1514 1.363 . S
C1512 H1528 0.931 . S
C1513 C1512 1.370 . S
C1513 C1517 1.408 . S
C1514 C1512 1.363 . S
C1514 C1515 1.370 . S
C1514 C1518 1.524 . S
C1515 C1507 1.503 . S
C1515 C1514 1.370 . S
C1515 C1516 1.403 . S
C1516 C1515 1.403 . S
C1516 C1517 1.404 . S
C1516 C1519 1.539 . S
C1517 C1513 1.408 . S
C1517 C1516 1.404 . S
C1517 H1529 0.930 . S
C1518 C1514 1.524 . S
C1518 H1530 0.956 . S
C1518 H1531 0.961 . S
C1518 H1532 0.961 . S
C1519 C1516 1.539 . S
C1519 H1533 0.958 . S
C1519 H1534 0.961 . S
C1519 H1535 0.960 . S
H1520 C1504 0.931 . S
H1521 C1509 0.929 . S
H1522 C1510 0.960 . S
H1523 C1510 0.962 . S
H1524 C1510 0.960 . S
H1525 C1511 0.961 . S
H1526 C1511 0.961 . S
H1527 C1511 0.961 . S
H1528 C1512 0.931 . S
H1529 C1517 0.930 . S
H1530 C1518 0.956 . S
H1531 C1518 0.961 . S
H1532 C1518 0.961 . S
H1533 C1519 0.958 . S
H1534 C1519 0.961 . S
H1535 C1519 0.960 . S
C1536 C1537 1.391 . S
C1536 C1538 1.394 . S
C1536 H1552 0.931 1_556 S
C1537 C1536 1.391 . S
C1537 C1541 1.376 . S
C1538 C1536 1.394 . S
C1538 C1539 1.369 . S
C1538 C1542 1.531 . S
C1539 C1538 1.369 . S
C1539 C1540 1.410 . S
C1539 C1547 1.503 . S
C1540 C1539 1.410 . S
C1540 C1541 1.392 . S
C1540 C1543 1.511 . S
C1541 C1537 1.376 . S
C1541 C1540 1.392 . S
C1541 H1553 0.929 . S
C1542 C1538 1.531 . S
C1542 H1554 0.960 . S
C1542 H1555 0.962 . S
C1542 H1556 0.960 . S
C1543 C1540 1.511 . S
C1543 H1557 0.961 . S
C1543 H1558 0.961 . S
C1543 H1559 0.961 . S
C1544 C1545 1.370 . S
C1544 C1546 1.363 . S
C1544 H1560 0.931 . S
C1545 C1544 1.370 . S
C1545 C1549 1.408 . S
C1546 C1544 1.363 . S
C1546 C1547 1.370 . S
C1546 C1550 1.524 . S
C1547 C1539 1.503 . S
C1547 C1546 1.370 . S
C1547 C1548 1.403 . S
C1548 C1547 1.403 . S
C1548 C1549 1.404 . S
C1548 C1551 1.539 . S
C1549 C1545 1.408 . S
C1549 C1548 1.404 . S
C1549 H1561 0.930 . S
C1550 C1546 1.524 . S
C1550 H1562 0.956 . S
C1550 H1563 0.961 . S
C1550 H1564 0.961 . S
C1551 C1548 1.539 . S
C1551 H1565 0.958 . S
C1551 H1566 0.961 . S
C1551 H1567 0.960 . S
H1552 C1536 0.931 1_554 S
H1553 C1541 0.929 . S
H1554 C1542 0.960 . S
H1555 C1542 0.962 . S
H1556 C1542 0.960 . S
H1557 C1543 0.961 . S
H1558 C1543 0.961 . S
H1559 C1543 0.961 . S
H1560 C1544 0.931 . S
H1561 C1549 0.930 . S
H1562 C1550 0.956 . S
H1563 C1550 0.961 . S
H1564 C1550 0.961 . S
H1565 C1551 0.958 . S
H1566 C1551 0.961 . S
H1567 C1551 0.960 . S
C1568 C1569 1.391 . S
C1568 C1570 1.394 . S
C1568 H1584 0.931 . S
C1569 C1568 1.391 . S
C1569 C1573 1.376 . S
C1570 C1568 1.394 . S
C1570 C1571 1.369 . S
C1570 C1574 1.531 . S
C1571 C1570 1.369 . S
C1571 C1572 1.410 . S
C1571 C1579 1.503 . S
C1572 C1571 1.410 . S
C1572 C1573 1.392 . S
C1572 C1575 1.511 . S
C1573 C1569 1.376 . S
C1573 C1572 1.392 . S
C1573 H1585 0.929 . S
C1574 C1570 1.531 . S
C1574 H1586 0.960 . S
C1574 H1587 0.962 . S
C1574 H1588 0.960 . S
C1575 C1572 1.511 . S
C1575 H1589 0.961 . S
C1575 H1590 0.961 . S
C1575 H1591 0.961 . S
C1576 C1577 1.370 . S
C1576 C1578 1.363 . S
C1576 H1592 0.931 . S
C1577 C1576 1.370 . S
C1577 C1581 1.408 . S
C1578 C1576 1.363 . S
C1578 C1579 1.370 . S
C1578 C1582 1.524 . S
C1579 C1571 1.503 . S
C1579 C1578 1.370 . S
C1579 C1580 1.403 . S
C1580 C1579 1.403 . S
C1580 C1581 1.404 . S
C1580 C1583 1.539 . S
C1581 C1577 1.408 . S
C1581 C1580 1.404 . S
C1581 H1593 0.930 . S
C1582 C1578 1.524 . S
C1582 H1594 0.956 . S
C1582 H1595 0.961 . S
C1582 H1596 0.961 . S
C1583 C1580 1.539 . S
C1583 H1597 0.958 . S
C1583 H1598 0.961 . S
C1583 H1599 0.960 . S
H1584 C1568 0.931 . S
H1585 C1573 0.929 . S
H1586 C1574 0.960 . S
H1587 C1574 0.962 . S
H1588 C1574 0.960 . S
H1589 C1575 0.961 . S
H1590 C1575 0.961 . S
H1591 C1575 0.961 . S
H1592 C1576 0.931 . S
H1593 C1581 0.930 . S
H1594 C1582 0.956 . S
H1595 C1582 0.961 . S
H1596 C1582 0.961 . S
H1597 C1583 0.958 . S
H1598 C1583 0.961 . S
H1599 C1583 0.960 . S
C1600 C1601 1.391 . S
C1600 C1602 1.394 . S
C1600 H1616 0.931 . S
C1601 C1600 1.391 . S
C1601 C1605 1.376 . S
C1602 C1600 1.394 . S
C1602 C1603 1.369 . S
C1602 C1606 1.531 . S
C1603 C1602 1.369 . S
C1603 C1604 1.410 . S
C1603 C1611 1.503 . S
C1604 C1603 1.410 . S
C1604 C1605 1.392 . S
C1604 C1607 1.511 . S
C1605 C1601 1.376 . S
C1605 C1604 1.392 . S
C1605 H1617 0.929 . S
C1606 C1602 1.531 . S
C1606 H1618 0.960 . S
C1606 H1619 0.962 . S
C1606 H1620 0.960 . S
C1607 C1604 1.511 . S
C1607 H1621 0.961 . S
C1607 H1622 0.961 . S
C1607 H1623 0.961 . S
C1608 C1609 1.370 . S
C1608 C1610 1.363 . S
C1608 H1624 0.931 . S
C1609 C1608 1.370 . S
C1609 C1613 1.408 . S
C1610 C1608 1.363 . S
C1610 C1611 1.370 . S
C1610 C1614 1.524 . S
C1611 C1603 1.503 . S
C1611 C1610 1.370 . S
C1611 C1612 1.403 . S
C1612 C1611 1.403 . S
C1612 C1613 1.404 . S
C1612 C1615 1.539 . S
C1613 C1609 1.408 . S
C1613 C1612 1.404 . S
C1613 H1625 0.930 . S
C1614 C1610 1.524 . S
C1614 H1626 0.956 . S
C1614 H1627 0.961 . S
C1614 H1628 0.961 . S
C1615 C1612 1.539 . S
C1615 H1629 0.958 . S
C1615 H1630 0.961 . S
C1615 H1631 0.960 . S
H1616 C1600 0.931 . S
H1617 C1605 0.929 . S
H1618 C1606 0.960 . S
H1619 C1606 0.962 . S
H1620 C1606 0.960 . S
H1621 C1607 0.961 . S
H1622 C1607 0.961 . S
H1623 C1607 0.961 . S
H1624 C1608 0.931 . S
H1625 C1613 0.930 . S
H1626 C1614 0.956 . S
H1627 C1614 0.961 . S
H1628 C1614 0.961 . S
H1629 C1615 0.958 . S
H1630 C1615 0.961 . S
H1631 C1615 0.960 . S
C1632 C1633 1.391 . S
C1632 C1634 1.394 . S
C1632 H1648 0.931 . S
C1633 C1632 1.391 . S
C1633 C1637 1.376 . S
C1634 C1632 1.394 . S
C1634 C1635 1.369 . S
C1634 C1638 1.531 . S
C1635 C1634 1.369 . S
C1635 C1636 1.410 . S
C1635 C1643 1.503 . S
C1636 C1635 1.410 . S
C1636 C1637 1.392 . S
C1636 C1639 1.511 . S
C1637 C1633 1.376 . S
C1637 C1636 1.392 . S
C1637 H1649 0.929 . S
C1638 C1634 1.531 . S
C1638 H1650 0.960 . S
C1638 H1651 0.962 . S
C1638 H1652 0.960 . S
C1639 C1636 1.511 . S
C1639 H1653 0.961 . S
C1639 H1654 0.961 . S
C1639 H1655 0.961 . S
C1640 C1641 1.370 . S
C1640 C1642 1.363 . S
C1640 H1656 0.931 . S
C1641 C1640 1.370 . S
C1641 C1645 1.408 . S
C1642 C1640 1.363 . S
C1642 C1643 1.370 . S
C1642 C1646 1.524 . S
C1643 C1635 1.503 . S
C1643 C1642 1.370 . S
C1643 C1644 1.403 . S
C1644 C1643 1.403 . S
C1644 C1645 1.404 . S
C1644 C1647 1.539 . S
C1645 C1641 1.408 . S
C1645 C1644 1.404 . S
C1645 H1657 0.930 . S
C1646 C1642 1.524 . S
C1646 H1658 0.956 . S
C1646 H1659 0.961 . S
C1646 H1660 0.961 . S
C1647 C1644 1.539 . S
C1647 H1661 0.958 . S
C1647 H1662 0.961 . S
C1647 H1663 0.960 . S
H1648 C1632 0.931 . S
H1649 C1637 0.929 . S
H1650 C1638 0.960 . S
H1651 C1638 0.962 . S
H1652 C1638 0.960 . S
H1653 C1639 0.961 . S
H1654 C1639 0.961 . S
H1655 C1639 0.961 . S
H1656 C1640 0.931 . S
H1657 C1645 0.930 . S
H1658 C1646 0.956 . S
H1659 C1646 0.961 . S
H1660 C1646 0.961 . S
H1661 C1647 0.958 . S
H1662 C1647 0.961 . S
H1663 C1647 0.960 . S
C1664 C1665 1.391 . S
C1664 C1666 1.394 . S
C1664 H1680 0.931 . S
C1665 C1664 1.391 . S
C1665 C1669 1.376 . S
C1666 C1664 1.394 . S
C1666 C1667 1.369 . S
C1666 C1670 1.531 . S
C1667 C1666 1.369 . S
C1667 C1668 1.410 . S
C1667 C1675 1.503 . S
C1668 C1667 1.410 . S
C1668 C1669 1.392 . S
C1668 C1671 1.511 . S
C1669 C1665 1.376 . S
C1669 C1668 1.392 . S
C1669 H1681 0.929 . S
C1670 C1666 1.531 . S
C1670 H1682 0.960 . S
C1670 H1683 0.962 . S
C1670 H1684 0.960 . S
C1671 C1668 1.511 . S
C1671 H1685 0.961 . S
C1671 H1686 0.961 . S
C1671 H1687 0.961 . S
C1672 C1673 1.370 . S
C1672 C1674 1.363 . S
C1672 H1688 0.931 . S
C1673 C1672 1.370 . S
C1673 C1677 1.408 . S
C1674 C1672 1.363 . S
C1674 C1675 1.370 . S
C1674 C1678 1.524 . S
C1675 C1667 1.503 . S
C1675 C1674 1.370 . S
C1675 C1676 1.403 . S
C1676 C1675 1.403 . S
C1676 C1677 1.404 . S
C1676 C1679 1.539 . S
C1677 C1673 1.408 . S
C1677 C1676 1.404 . S
C1677 H1689 0.930 . S
C1678 C1674 1.524 . S
C1678 H1690 0.956 . S
C1678 H1691 0.961 . S
C1678 H1692 0.961 . S
C1679 C1676 1.539 . S
C1679 H1693 0.958 . S
C1679 H1694 0.961 . S
C1679 H1695 0.960 . S
H1680 C1664 0.931 . S
H1681 C1669 0.929 . S
H1682 C1670 0.960 . S
H1683 C1670 0.962 . S
H1684 C1670 0.960 . S
H1685 C1671 0.961 . S
H1686 C1671 0.961 . S
H1687 C1671 0.961 . S
H1688 C1672 0.931 . S
H1689 C1677 0.930 . S
H1690 C1678 0.956 . S
H1691 C1678 0.961 . S
H1692 C1678 0.961 . S
H1693 C1679 0.958 . S
H1694 C1679 0.961 . S
H1695 C1679 0.960 . S
C1696 C1697 1.391 . S
C1696 C1698 1.394 . S
C1696 H1712 0.931 . S
C1697 C1696 1.391 . S
C1697 C1701 1.376 . S
C1698 C1696 1.394 . S
C1698 C1699 1.369 . S
C1698 C1702 1.531 . S
C1699 C1698 1.369 . S
C1699 C1700 1.410 . S
C1699 C1707 1.503 . S
C1700 C1699 1.410 . S
C1700 C1701 1.392 . S
C1700 C1703 1.511 . S
C1701 C1697 1.376 . S
C1701 C1700 1.392 . S
C1701 H1713 0.929 . S
C1702 C1698 1.531 . S
C1702 H1714 0.960 . S
C1702 H1715 0.962 . S
C1702 H1716 0.960 . S
C1703 C1700 1.511 . S
C1703 H1717 0.961 . S
C1703 H1718 0.961 . S
C1703 H1719 0.961 . S
C1704 C1705 1.370 . S
C1704 C1706 1.363 . S
C1704 H1720 0.931 . S
C1705 C1704 1.370 . S
C1705 C1709 1.408 . S
C1706 C1704 1.363 . S
C1706 C1707 1.370 . S
C1706 C1710 1.524 . S
C1707 C1699 1.503 . S
C1707 C1706 1.370 . S
C1707 C1708 1.403 . S
C1708 C1707 1.403 . S
C1708 C1709 1.404 . S
C1708 C1711 1.539 . S
C1709 C1705 1.408 . S
C1709 C1708 1.404 . S
C1709 H1721 0.930 . S
C1710 C1706 1.524 . S
C1710 H1722 0.956 . S
C1710 H1723 0.961 . S
C1710 H1724 0.961 . S
C1711 C1708 1.539 . S
C1711 H1725 0.958 . S
C1711 H1726 0.961 . S
C1711 H1727 0.960 . S
H1712 C1696 0.931 . S
H1713 C1701 0.929 . S
H1714 C1702 0.960 . S
H1715 C1702 0.962 . S
H1716 C1702 0.960 . S
H1717 C1703 0.961 . S
H1718 C1703 0.961 . S
H1719 C1703 0.961 . S
H1720 C1704 0.931 . S
H1721 C1709 0.930 . S
H1722 C1710 0.956 . S
H1723 C1710 0.961 . S
H1724 C1710 0.961 . S
H1725 C1711 0.958 . S
H1726 C1711 0.961 . S
H1727 C1711 0.960 . S
C1728 C1729 1.391 . S
C1728 C1730 1.394 . S
C1728 H1744 0.931 . S
C1729 C1728 1.391 . S
C1729 C1733 1.376 . S
C1730 C1728 1.394 . S
C1730 C1731 1.369 . S
C1730 C1734 1.531 . S
C1731 C1730 1.369 . S
C1731 C1732 1.410 . S
C1731 C1739 1.503 . S
C1732 C1731 1.410 . S
C1732 C1733 1.392 . S
C1732 C1735 1.511 . S
C1733 C1729 1.376 . S
C1733 C1732 1.392 . S
C1733 H1745 0.929 . S
C1734 C1730 1.531 . S
C1734 H1746 0.960 . S
C1734 H1747 0.962 . S
C1734 H1748 0.960 . S
C1735 C1732 1.511 . S
C1735 H1749 0.961 . S
C1735 H1750 0.961 . S
C1735 H1751 0.961 . S
C1736 C1737 1.370 . S
C1736 C1738 1.363 . S
C1736 H1752 0.931 . S
C1737 C1736 1.370 . S
C1737 C1741 1.408 . S
C1738 C1736 1.363 . S
C1738 C1739 1.370 . S
C1738 C1742 1.524 . S
C1739 C1731 1.503 . S
C1739 C1738 1.370 . S
C1739 C1740 1.403 . S
C1740 C1739 1.403 . S
C1740 C1741 1.404 . S
C1740 C1743 1.539 . S
C1741 C1737 1.408 . S
C1741 C1740 1.404 . S
C1741 H1753 0.930 . S
C1742 C1738 1.524 . S
C1742 H1754 0.956 . S
C1742 H1755 0.961 . S
C1742 H1756 0.961 . S
C1743 C1740 1.539 . S
C1743 H1757 0.958 . S
C1743 H1758 0.961 . S
C1743 H1759 0.960 . S
H1744 C1728 0.931 . S
H1745 C1733 0.929 . S
H1746 C1734 0.960 . S
H1747 C1734 0.962 . S
H1748 C1734 0.960 . S
H1749 C1735 0.961 . S
H1750 C1735 0.961 . S
H1751 C1735 0.961 . S
H1752 C1736 0.931 . S
H1753 C1741 0.930 . S
H1754 C1742 0.956 . S
H1755 C1742 0.961 . S
H1756 C1742 0.961 . S
H1757 C1743 0.958 . S
H1758 C1743 0.961 . S
H1759 C1743 0.960 . S
C1760 C1761 1.391 . S
C1760 C1762 1.394 . S
C1760 H1776 0.931 . S
C1761 C1760 1.391 . S
C1761 C1765 1.376 . S
C1762 C1760 1.394 . S
C1762 C1763 1.369 . S
C1762 C1766 1.531 . S
C1763 C1762 1.369 . S
C1763 C1764 1.410 . S
C1763 C1771 1.503 . S
C1764 C1763 1.410 . S
C1764 C1765 1.392 . S
C1764 C1767 1.511 . S
C1765 C1761 1.376 . S
C1765 C1764 1.392 . S
C1765 H1777 0.929 . S
C1766 C1762 1.531 . S
C1766 H1778 0.960 . S
C1766 H1779 0.962 . S
C1766 H1780 0.967 . S
C1767 C1764 1.511 . S
C1767 H1781 0.961 . S
C1767 H1782 0.961 . S
C1767 H1783 0.961 . S
C1768 C1769 1.370 . S
C1768 C1770 1.363 . S
C1768 H1784 0.931 . S
C1769 C1768 1.370 . S
C1769 C1773 1.408 . S
C1770 C1768 1.363 . S
C1770 C1771 1.370 . S
C1770 C1774 1.524 . S
C1771 C1763 1.503 . S
C1771 C1770 1.370 . S
C1771 C1772 1.403 . S
C1772 C1771 1.403 . S
C1772 C1773 1.404 . S
C1772 C1775 1.539 . S
C1773 C1769 1.408 . S
C1773 C1772 1.404 . S
C1773 H1785 0.930 . S
C1774 C1770 1.524 . S
C1774 H1786 0.956 . S
C1774 H1787 0.961 . S
C1774 H1788 0.961 . S
C1775 C1772 1.539 . S
C1775 H1789 0.958 . S
C1775 H1790 0.961 . S
C1775 H1791 0.960 . S
H1776 C1760 0.931 . S
H1777 C1765 0.929 . S
H1778 C1766 0.960 . S
H1779 C1766 0.962 . S
H1780 C1766 0.967 . S
H1781 C1767 0.961 . S
H1782 C1767 0.961 . S
H1783 C1767 0.961 . S
H1784 C1768 0.931 . S
H1785 C1773 0.930 . S
H1786 C1774 0.956 . S
H1787 C1774 0.961 . S
H1788 C1774 0.961 . S
H1789 C1775 0.958 . S
H1790 C1775 0.961 . S
H1791 C1775 0.960 . S
C1792 C1793 1.391 . S
C1792 C1794 1.394 . S
C1792 H1808 0.931 . S
C1793 C1792 1.391 . S
C1793 C1797 1.376 . S
C1794 C1792 1.394 . S
C1794 C1795 1.369 . S
C1794 C1798 1.531 . S
C1795 C1794 1.369 . S
C1795 C1796 1.410 . S
C1795 C1803 1.503 . S
C1796 C1795 1.410 . S
C1796 C1797 1.392 . S
C1796 C1799 1.511 . S
C1797 C1793 1.376 . S
C1797 C1796 1.392 . S
C1797 H1809 0.929 . S
C1798 C1794 1.531 . S
C1798 H1810 0.960 . S
C1798 H1811 0.962 . S
C1798 H1812 0.960 . S
C1799 C1796 1.511 . S
C1799 H1813 0.961 . S
C1799 H1814 0.961 . S
C1799 H1815 0.961 . S
C1800 C1801 1.370 . S
C1800 C1802 1.363 . S
C1800 H1816 0.931 . S
C1801 C1800 1.370 . S
C1801 C1805 1.408 . S
C1802 C1800 1.363 . S
C1802 C1803 1.370 . S
C1802 C1806 1.524 . S
C1803 C1795 1.503 . S
C1803 C1802 1.370 . S
C1803 C1804 1.403 . S
C1804 C1803 1.403 . S
C1804 C1805 1.404 . S
C1804 C1807 1.539 . S
C1805 C1801 1.408 . S
C1805 C1804 1.404 . S
C1805 H1817 0.930 . S
C1806 C1802 1.524 . S
C1806 H1818 0.956 . S
C1806 H1819 0.961 . S
C1806 H1820 0.961 . S
C1807 C1804 1.539 . S
C1807 H1821 0.958 . S
C1807 H1822 0.961 . S
C1807 H1823 0.960 . S
H1808 C1792 0.931 . S
H1809 C1797 0.929 . S
H1810 C1798 0.960 . S
H1811 C1798 0.962 . S
H1812 C1798 0.960 . S
H1813 C1799 0.961 . S
H1814 C1799 0.961 . S
H1815 C1799 0.961 . S
H1816 C1800 0.931 . S
H1817 C1805 0.930 . S
H1818 C1806 0.956 . S
H1819 C1806 0.961 . S
H1820 C1806 0.961 . S
H1821 C1807 0.958 . S
H1822 C1807 0.961 . S
H1823 C1807 0.960 . S
C1824 C1825 1.391 . S
C1824 C1826 1.394 . S
C1824 H1840 0.931 . S
C1825 C1824 1.391 . S
C1825 C1829 1.376 . S
C1826 C1824 1.394 . S
C1826 C1827 1.369 . S
C1826 C1830 1.531 . S
C1827 C1826 1.369 . S
C1827 C1828 1.410 . S
C1827 C1835 1.503 . S
C1828 C1827 1.410 . S
C1828 C1829 1.392 . S
C1828 C1831 1.511 . S
C1829 C1825 1.376 . S
C1829 C1828 1.392 . S
C1829 H1841 0.929 . S
C1830 C1826 1.531 . S
C1830 H1842 0.960 . S
C1830 H1843 0.962 . S
C1830 H1844 0.960 . S
C1831 C1828 1.511 . S
C1831 H1845 0.961 . S
C1831 H1846 0.961 . S
C1831 H1847 0.961 . S
C1832 C1833 1.370 . S
C1832 C1834 1.363 . S
C1832 H1848 0.931 . S
C1833 C1832 1.370 . S
C1833 C1837 1.408 . S
C1834 C1832 1.363 . S
C1834 C1835 1.370 . S
C1834 C1838 1.524 . S
C1835 C1827 1.503 . S
C1835 C1834 1.370 . S
C1835 C1836 1.403 . S
C1836 C1835 1.403 . S
C1836 C1837 1.404 . S
C1836 C1839 1.539 . S
C1837 C1833 1.408 . S
C1837 C1836 1.404 . S
C1837 H1849 0.930 . S
C1838 C1834 1.524 . S
C1838 H1850 0.956 . S
C1838 H1851 0.961 . S
C1838 H1852 0.961 . S
C1839 C1836 1.539 . S
C1839 H1853 0.958 . S
C1839 H1854 0.961 . S
C1839 H1855 0.960 . S
H1840 C1824 0.931 . S
H1841 C1829 0.929 . S
H1842 C1830 0.960 . S
H1843 C1830 0.962 . S
H1844 C1830 0.960 . S
H1845 C1831 0.961 . S
H1846 C1831 0.961 . S
H1847 C1831 0.961 . S
H1848 C1832 0.931 . S
H1849 C1837 0.930 . S
H1850 C1838 0.956 . S
H1851 C1838 0.961 . S
H1852 C1838 0.961 . S
H1853 C1839 0.958 . S
H1854 C1839 0.961 . S
H1855 C1839 0.960 . S
C1856 C1857 1.391 . S
C1856 C1858 1.394 . S
C1856 H1872 0.931 . S
C1857 C1856 1.391 . S
C1857 C1861 1.376 . S
C1858 C1856 1.394 . S
C1858 C1859 1.369 . S
C1858 C1862 1.531 . S
C1859 C1858 1.369 . S
C1859 C1860 1.410 . S
C1859 C1867 1.503 . S
C1860 C1859 1.410 . S
C1860 C1861 1.392 . S
C1860 C1863 1.511 . S
C1861 C1857 1.376 . S
C1861 C1860 1.392 . S
C1861 H1873 0.929 . S
C1862 C1858 1.531 . S
C1862 H1874 0.960 . S
C1862 H1875 0.962 . S
C1862 H1876 0.960 . S
C1863 C1860 1.511 . S
C1863 H1877 0.961 . S
C1863 H1878 0.961 . S
C1863 H1879 0.961 . S
C1864 C1865 1.370 . S
C1864 C1866 1.363 . S
C1864 H1880 0.931 . S
C1865 C1864 1.370 . S
C1865 C1869 1.408 . S
C1866 C1864 1.363 . S
C1866 C1867 1.370 . S
C1866 C1870 1.524 . S
C1867 C1859 1.503 . S
C1867 C1866 1.370 . S
C1867 C1868 1.403 . S
C1868 C1867 1.403 . S
C1868 C1869 1.404 . S
C1868 C1871 1.539 . S
C1869 C1865 1.408 . S
C1869 C1868 1.404 . S
C1869 H1881 0.930 . S
C1870 C1866 1.524 . S
C1870 H1882 0.956 . S
C1870 H1883 0.961 . S
C1870 H1884 0.961 . S
C1871 C1868 1.539 . S
C1871 H1885 0.958 . S
C1871 H1886 0.961 . S
C1871 H1887 0.960 . S
H1872 C1856 0.931 . S
H1873 C1861 0.929 . S
H1874 C1862 0.960 . S
H1875 C1862 0.962 . S
H1876 C1862 0.960 . S
H1877 C1863 0.961 . S
H1878 C1863 0.961 . S
H1879 C1863 0.961 . S
H1880 C1864 0.931 . S
H1881 C1869 0.930 . S
H1882 C1870 0.956 . S
H1883 C1870 0.961 . S
H1884 C1870 0.961 . S
H1885 C1871 0.958 . S
H1886 C1871 0.961 . S
H1887 C1871 0.960 . S
C1888 C1889 1.391 . S
C1888 C1890 1.394 . S
C1888 H1904 0.931 . S
C1889 C1888 1.391 . S
C1889 C1893 1.376 . S
C1890 C1888 1.394 . S
C1890 C1891 1.369 . S
C1890 C1894 1.531 . S
C1891 C1890 1.369 . S
C1891 C1892 1.410 . S
C1891 C1899 1.503 . S
C1892 C1891 1.410 . S
C1892 C1893 1.392 . S
C1892 C1895 1.511 . S
C1893 C1889 1.376 . S
C1893 C1892 1.392 . S
C1893 H1905 0.929 . S
C1894 C1890 1.531 . S
C1894 H1906 0.960 . S
C1894 H1907 0.962 . S
C1894 H1908 0.960 . S
C1895 C1892 1.511 . S
C1895 H1909 0.961 . S
C1895 H1910 0.961 . S
C1895 H1911 0.961 . S
C1896 C1897 1.370 . S
C1896 C1898 1.363 . S
C1896 H1912 0.931 . S
C1897 C1896 1.370 . S
C1897 C1901 1.408 . S
C1898 C1896 1.363 . S
C1898 C1899 1.370 . S
C1898 C1902 1.524 . S
C1899 C1891 1.503 . S
C1899 C1898 1.370 . S
C1899 C1900 1.403 . S
C1900 C1899 1.403 . S
C1900 C1901 1.404 . S
C1900 C1903 1.539 . S
C1901 C1897 1.408 . S
C1901 C1900 1.404 . S
C1901 H1913 0.930 . S
C1902 C1898 1.524 . S
C1902 H1914 0.956 . S
C1902 H1915 0.961 . S
C1902 H1916 0.961 . S
C1903 C1900 1.539 . S
C1903 H1917 0.958 . S
C1903 H1918 0.961 . S
C1903 H1919 0.960 . S
H1904 C1888 0.931 . S
H1905 C1893 0.929 . S
H1906 C1894 0.960 . S
H1907 C1894 0.962 . S
H1908 C1894 0.960 . S
H1909 C1895 0.961 . S
H1910 C1895 0.961 . S
H1911 C1895 0.961 . S
H1912 C1896 0.931 . S
H1913 C1901 0.930 . S
H1914 C1902 0.956 . S
H1915 C1902 0.961 . S
H1916 C1902 0.961 . S
H1917 C1903 0.958 . S
H1918 C1903 0.961 . S
H1919 C1903 0.960 . S
C1920 C1921 1.391 . S
C1920 C1922 1.394 . S
C1920 H1936 0.931 . S
C1921 C1920 1.391 . S
C1921 C1925 1.376 . S
C1922 C1920 1.394 . S
C1922 C1923 1.369 . S
C1922 C1926 1.531 . S
C1923 C1922 1.369 . S
C1923 C1924 1.410 . S
C1923 C1931 1.503 . S
C1924 C1923 1.410 . S
C1924 C1925 1.392 . S
C1924 C1927 1.511 . S
C1925 C1921 1.376 . S
C1925 C1924 1.392 . S
C1925 H1937 0.929 . S
C1926 C1922 1.531 . S
C1926 H1938 0.960 . S
C1926 H1939 0.962 . S
C1926 H1940 0.960 . S
C1927 C1924 1.511 . S
C1927 H1941 0.961 . S
C1927 H1942 0.961 . S
C1927 H1943 0.961 . S
C1928 C1929 1.370 . S
C1928 C1930 1.363 . S
C1928 H1944 0.931 . S
C1929 C1928 1.370 . S
C1929 C1933 1.408 . S
C1930 C1928 1.363 . S
C1930 C1931 1.370 . S
C1930 C1934 1.524 . S
C1931 C1923 1.503 . S
C1931 C1930 1.370 . S
C1931 C1932 1.403 . S
C1932 C1931 1.403 . S
C1932 C1933 1.404 . S
C1932 C1935 1.539 . S
C1933 C1929 1.408 . S
C1933 C1932 1.404 . S
C1933 H1945 0.930 . S
C1934 C1930 1.524 . S
C1934 H1946 0.956 . S
C1934 H1947 0.961 . S
C1934 H1948 0.961 . S
C1935 C1932 1.539 . S
C1935 H1949 0.958 . S
C1935 H1950 0.961 . S
C1935 H1951 0.960 . S
H1936 C1920 0.931 . S
H1937 C1925 0.929 . S
H1938 C1926 0.960 . S
H1939 C1926 0.962 . S
H1940 C1926 0.960 . S
H1941 C1927 0.961 . S
H1942 C1927 0.961 . S
H1943 C1927 0.961 . S
H1944 C1928 0.931 . S
H1945 C1933 0.930 . S
H1946 C1934 0.956 . S
H1947 C1934 0.961 . S
H1948 C1934 0.961 . S
H1949 C1935 0.958 . S
H1950 C1935 0.961 . S
H1951 C1935 0.960 . S
C1952 C1953 1.391 . S
C1952 C1954 1.394 . S
C1952 H1968 0.931 . S
C1953 C1952 1.391 . S
C1953 C1957 1.376 . S
C1954 C1952 1.394 . S
C1954 C1955 1.369 . S
C1954 C1958 1.531 . S
C1955 C1954 1.369 . S
C1955 C1956 1.410 . S
C1955 C1963 1.503 . S
C1956 C1955 1.410 . S
C1956 C1957 1.392 . S
C1956 C1959 1.511 . S
C1957 C1953 1.376 . S
C1957 C1956 1.392 . S
C1957 H1969 0.929 . S
C1958 C1954 1.531 . S
C1958 H1970 0.960 . S
C1958 H1971 0.962 . S
C1958 H1972 0.960 . S
C1959 C1956 1.511 . S
C1959 H1973 0.961 . S
C1959 H1974 0.961 . S
C1959 H1975 0.961 . S
C1960 C1961 1.370 . S
C1960 C1962 1.363 . S
C1960 H1976 0.931 . S
C1961 C1960 1.370 . S
C1961 C1965 1.408 . S
C1962 C1960 1.363 . S
C1962 C1963 1.370 . S
C1962 C1966 1.524 . S
C1963 C1955 1.503 . S
C1963 C1962 1.370 . S
C1963 C1964 1.403 . S
C1964 C1963 1.403 . S
C1964 C1965 1.404 . S
C1964 C1967 1.539 . S
C1965 C1961 1.408 . S
C1965 C1964 1.404 . S
C1965 H1977 0.930 . S
C1966 C1962 1.524 . S
C1966 H1978 0.956 . S
C1966 H1979 0.961 . S
C1966 H1980 0.961 . S
C1967 C1964 1.539 . S
C1967 H1981 0.958 . S
C1967 H1982 0.961 . S
C1967 H1983 0.960 . S
H1968 C1952 0.931 . S
H1969 C1957 0.929 . S
H1970 C1958 0.960 . S
H1971 C1958 0.962 . S
H1972 C1958 0.960 . S
H1973 C1959 0.961 . S
H1974 C1959 0.961 . S
H1975 C1959 0.961 . S
H1976 C1960 0.931 . S
H1977 C1965 0.930 . S
H1978 C1966 0.956 . S
H1979 C1966 0.961 . S
H1980 C1966 0.961 . S
H1981 C1967 0.958 . S
H1982 C1967 0.961 . S
H1983 C1967 0.960 . S
C1984 C1985 1.391 . S
C1984 C1986 1.394 . S
C1984 H2000 0.931 . S
C1985 C1984 1.391 . S
C1985 C1989 1.376 . S
C1986 C1984 1.394 . S
C1986 C1987 1.369 . S
C1986 C1990 1.531 . S
C1987 C1986 1.369 . S
C1987 C1988 1.410 . S
C1987 C1995 1.503 . S
C1988 C1987 1.410 . S
C1988 C1989 1.392 . S
C1988 C1991 1.511 . S
C1989 C1985 1.376 . S
C1989 C1988 1.392 . S
C1989 H2001 0.929 . S
C1990 C1986 1.531 . S
C1990 H2002 0.960 . S
C1990 H2003 0.962 . S
C1990 H2004 0.960 . S
C1991 C1988 1.511 . S
C1991 H2005 0.961 . S
C1991 H2006 0.961 . S
C1991 H2007 0.961 . S
C1992 C1993 1.370 . S
C1992 C1994 1.363 . S
C1992 H2008 0.931 . S
C1993 C1992 1.370 . S
C1993 C1997 1.408 . S
C1994 C1992 1.363 . S
C1994 C1995 1.370 . S
C1994 C1998 1.524 . S
C1995 C1987 1.503 . S
C1995 C1994 1.370 . S
C1995 C1996 1.403 . S
C1996 C1995 1.403 . S
C1996 C1997 1.404 . S
C1996 C1999 1.539 . S
C1997 C1993 1.408 . S
C1997 C1996 1.404 . S
C1997 H2009 0.930 . S
C1998 C1994 1.524 . S
C1998 H2010 0.956 . S
C1998 H2011 0.961 . S
C1998 H2012 0.961 . S
C1999 C1996 1.539 . S
C1999 H2013 0.958 . S
C1999 H2014 0.961 . S
C1999 H2015 0.960 . S
H2000 C1984 0.931 . S
H2001 C1989 0.929 . S
H2002 C1990 0.960 . S
H2003 C1990 0.962 . S
H2004 C1990 0.960 . S
H2005 C1991 0.961 . S
H2006 C1991 0.961 . S
H2007 C1991 0.961 . S
H2008 C1992 0.931 . S
H2009 C1997 0.930 . S
H2010 C1998 0.956 . S
H2011 C1998 0.961 . S
H2012 C1998 0.961 . S
H2013 C1999 0.958 . S
H2014 C1999 0.961 . S
H2015 C1999 0.960 . S
C2016 C2017 1.391 . S
C2016 C2018 1.394 . S
C2016 H2032 0.931 . S
C2017 C2016 1.391 . S
C2017 C2021 1.376 . S
C2018 C2016 1.394 . S
C2018 C2019 1.369 . S
C2018 C2022 1.531 . S
C2019 C2018 1.369 . S
C2019 C2020 1.410 . S
C2019 C2027 1.503 . S
C2020 C2019 1.410 . S
C2020 C2021 1.392 . S
C2020 C2023 1.511 . S
C2021 C2017 1.376 . S
C2021 C2020 1.392 . S
C2021 H2033 0.929 . S
C2022 C2018 1.531 . S
C2022 H2034 0.960 . S
C2022 H2035 0.962 . S
C2022 H2036 0.960 . S
C2023 C2020 1.511 . S
C2023 H2037 0.961 . S
C2023 H2038 0.961 . S
C2023 H2039 0.961 . S
C2024 C2025 1.370 . S
C2024 C2026 1.363 . S
C2024 H2040 0.931 . S
C2025 C2024 1.370 . S
C2025 C2029 1.408 . S
C2026 C2024 1.363 . S
C2026 C2027 1.370 . S
C2026 C2030 1.524 . S
C2027 C2019 1.503 . S
C2027 C2026 1.370 . S
C2027 C2028 1.403 . S
C2028 C2027 1.403 . S
C2028 C2029 1.404 . S
C2028 C2031 1.539 . S
C2029 C2025 1.408 . S
C2029 C2028 1.404 . S
C2029 H2041 0.930 . S
C2030 C2026 1.524 . S
C2030 H2042 0.956 . S
C2030 H2043 0.961 . S
C2030 H2044 0.961 . S
C2031 C2028 1.539 . S
C2031 H2045 0.958 . S
C2031 H2046 0.961 . S
C2031 H2047 0.960 . S
H2032 C2016 0.931 . S
H2033 C2021 0.929 . S
H2034 C2022 0.960 . S
H2035 C2022 0.962 . S
H2036 C2022 0.960 . S
H2037 C2023 0.961 . S
H2038 C2023 0.961 . S
H2039 C2023 0.961 . S
H2040 C2024 0.931 . S
H2041 C2029 0.930 . S
H2042 C2030 0.956 . S
H2043 C2030 0.961 . S
H2044 C2030 0.961 . S
H2045 C2031 0.958 . S
H2046 C2031 0.961 . S
H2047 C2031 0.960 . S
C2048 C2049 1.391 . S
C2048 C2050 1.394 . S
C2048 H2064 0.931 . S
C2049 C2048 1.391 . S
C2049 C2053 1.376 . S
C2050 C2048 1.394 . S
C2050 C2051 1.369 . S
C2050 C2054 1.531 . S
C2051 C2050 1.369 . S
C2051 C2052 1.410 . S
C2051 C2059 1.503 . S
C2052 C2051 1.410 . S
C2052 C2053 1.392 . S
C2052 C2055 1.511 . S
C2053 C2049 1.376 . S
C2053 C2052 1.392 . S
C2053 H2065 0.929 . S
C2054 C2050 1.531 . S
C2054 H2066 0.960 . S
C2054 H2067 0.962 . S
C2054 H2068 0.960 . S
C2055 C2052 1.511 . S
C2055 H2069 0.961 . S
C2055 H2070 0.961 . S
C2055 H2071 0.961 . S
C2056 C2057 1.370 . S
C2056 C2058 1.363 . S
C2056 H2072 0.931 . S
C2057 C2056 1.370 . S
C2057 C2061 1.408 . S
C2058 C2056 1.363 . S
C2058 C2059 1.370 . S
C2058 C2062 1.524 . S
C2059 C2051 1.503 . S
C2059 C2058 1.370 . S
C2059 C2060 1.403 . S
C2060 C2059 1.403 . S
C2060 C2061 1.404 . S
C2060 C2063 1.539 . S
C2061 C2057 1.408 . S
C2061 C2060 1.404 . S
C2061 H2073 0.930 . S
C2062 C2058 1.524 . S
C2062 H2074 0.956 . S
C2062 H2075 0.961 . S
C2062 H2076 0.961 . S
C2063 C2060 1.539 . S
C2063 H2077 0.958 . S
C2063 H2078 0.961 . S
C2063 H2079 0.960 . S
H2064 C2048 0.931 . S
H2065 C2053 0.929 . S
H2066 C2054 0.960 . S
H2067 C2054 0.962 . S
H2068 C2054 0.960 . S
H2069 C2055 0.961 . S
H2070 C2055 0.961 . S
H2071 C2055 0.961 . S
H2072 C2056 0.931 . S
H2073 C2061 0.930 . S
H2074 C2062 0.956 . S
H2075 C2062 0.961 . S
H2076 C2062 0.961 . S
H2077 C2063 0.958 . S
H2078 C2063 0.961 . S
H2079 C2063 0.960 . S
C2080 C2081 1.391 . S
C2080 C2082 1.394 . S
C2080 H2096 0.931 . S
C2081 C2080 1.391 . S
C2081 C2085 1.376 . S
C2082 C2080 1.394 . S
C2082 C2083 1.369 . S
C2082 C2086 1.531 . S
C2083 C2082 1.369 . S
C2083 C2084 1.410 . S
C2083 C2091 1.503 . S
C2084 C2083 1.410 . S
C2084 C2085 1.392 . S
C2084 C2087 1.511 . S
C2085 C2081 1.376 . S
C2085 C2084 1.392 . S
C2085 H2097 0.929 . S
C2086 C2082 1.531 . S
C2086 H2098 0.960 . S
C2086 H2099 0.962 . S
C2086 H2100 0.960 . S
C2087 C2084 1.511 . S
C2087 H2101 0.961 . S
C2087 H2102 0.961 . S
C2087 H2103 0.961 . S
C2088 C2089 1.370 . S
C2088 C2090 1.363 . S
C2088 H2104 0.931 . S
C2089 C2088 1.370 . S
C2089 C2093 1.408 . S
C2090 C2088 1.363 . S
C2090 C2091 1.370 . S
C2090 C2094 1.524 . S
C2091 C2083 1.503 . S
C2091 C2090 1.370 . S
C2091 C2092 1.403 . S
C2092 C2091 1.403 . S
C2092 C2093 1.404 . S
C2092 C2095 1.539 . S
C2093 C2089 1.408 . S
C2093 C2092 1.404 . S
C2093 H2105 0.930 . S
C2094 C2090 1.524 . S
C2094 H2106 0.956 . S
C2094 H2107 0.961 . S
C2094 H2108 0.961 . S
C2095 C2092 1.539 . S
C2095 H2109 0.958 . S
C2095 H2110 0.961 . S
C2095 H2111 0.960 . S
H2096 C2080 0.931 . S
H2097 C2085 0.929 . S
H2098 C2086 0.960 . S
H2099 C2086 0.962 . S
H2100 C2086 0.960 . S
H2101 C2087 0.961 . S
H2102 C2087 0.961 . S
H2103 C2087 0.961 . S
H2104 C2088 0.931 . S
H2105 C2093 0.930 . S
H2106 C2094 0.956 . S
H2107 C2094 0.961 . S
H2108 C2094 0.961 . S
H2109 C2095 0.958 . S
H2110 C2095 0.961 . S
H2111 C2095 0.960 . S
C2112 C2113 1.391 . S
C2112 C2114 1.394 . S
C2112 H2128 0.931 . S
C2113 C2112 1.391 . S
C2113 C2117 1.376 . S
C2114 C2112 1.394 . S
C2114 C2115 1.369 . S
C2114 C2118 1.531 . S
C2115 C2114 1.369 . S
C2115 C2116 1.410 . S
C2115 C2123 1.503 . S
C2116 C2115 1.410 . S
C2116 C2117 1.392 . S
C2116 C2119 1.511 . S
C2117 C2113 1.376 . S
C2117 C2116 1.392 . S
C2117 H2129 0.929 . S
C2118 C2114 1.531 . S
C2118 H2130 0.960 . S
C2118 H2131 0.962 . S
C2118 H2132 0.960 . S
C2119 C2116 1.511 . S
C2119 H2133 0.961 . S
C2119 H2134 0.961 . S
C2119 H2135 0.961 . S
C2120 C2121 1.370 . S
C2120 C2122 1.363 . S
C2120 H2136 0.931 . S
C2121 C2120 1.370 . S
C2121 C2125 1.408 . S
C2122 C2120 1.363 . S
C2122 C2123 1.370 . S
C2122 C2126 1.524 . S
C2123 C2115 1.503 . S
C2123 C2122 1.370 . S
C2123 C2124 1.403 . S
C2124 C2123 1.403 . S
C2124 C2125 1.404 . S
C2124 C2127 1.539 . S
C2125 C2121 1.408 . S
C2125 C2124 1.404 . S
C2125 H2137 0.930 . S
C2126 C2122 1.524 . S
C2126 H2138 0.956 . S
C2126 H2139 0.961 . S
C2126 H2140 0.961 . S
C2127 C2124 1.539 . S
C2127 H2141 0.958 . S
C2127 H2142 0.961 . S
C2127 H2143 0.960 . S
H2128 C2112 0.931 . S
H2129 C2117 0.929 . S
H2130 C2118 0.960 . S
H2131 C2118 0.962 . S
H2132 C2118 0.960 . S
H2133 C2119 0.961 . S
H2134 C2119 0.961 . S
H2135 C2119 0.961 . S
H2136 C2120 0.931 . S
H2137 C2125 0.930 . S
H2138 C2126 0.956 . S
H2139 C2126 0.961 . S
H2140 C2126 0.961 . S
H2141 C2127 0.958 . S
H2142 C2127 0.961 . S
H2143 C2127 0.960 . S
C2144 C2145 1.391 . S
C2144 C2146 1.394 . S
C2144 H2160 0.931 . S
C2145 C2144 1.391 . S
C2145 C2149 1.376 . S
C2146 C2144 1.394 . S
C2146 C2147 1.369 . S
C2146 C2150 1.531 . S
C2147 C2146 1.369 . S
C2147 C2148 1.410 . S
C2147 C2155 1.503 . S
C2148 C2147 1.410 . S
C2148 C2149 1.392 . S
C2148 C2151 1.511 . S
C2149 C2145 1.376 . S
C2149 C2148 1.392 . S
C2149 H2161 0.929 . S
C2150 C2146 1.531 . S
C2150 H2162 0.960 . S
C2150 H2163 0.962 . S
C2150 H2164 0.960 . S
C2151 C2148 1.511 . S
C2151 H2165 0.961 . S
C2151 H2166 0.961 . S
C2151 H2167 0.961 . S
C2152 C2153 1.370 . S
C2152 C2154 1.363 . S
C2152 H2168 0.931 . S
C2153 C2152 1.370 . S
C2153 C2157 1.408 . S
C2154 C2152 1.363 . S
C2154 C2155 1.370 . S
C2154 C2158 1.524 . S
C2155 C2147 1.503 . S
C2155 C2154 1.370 . S
C2155 C2156 1.403 . S
C2156 C2155 1.403 . S
C2156 C2157 1.404 . S
C2156 C2159 1.539 . S
C2157 C2153 1.408 . S
C2157 C2156 1.404 . S
C2157 H2169 0.930 . S
C2158 C2154 1.524 . S
C2158 H2170 0.956 . S
C2158 H2171 0.961 . S
C2158 H2172 0.961 . S
C2159 C2156 1.539 . S
C2159 H2173 0.958 . S
C2159 H2174 0.961 . S
C2159 H2175 0.960 . S
H2160 C2144 0.931 . S
H2161 C2149 0.929 . S
H2162 C2150 0.960 . S
H2163 C2150 0.962 . S
H2164 C2150 0.960 . S
H2165 C2151 0.961 . S
H2166 C2151 0.961 . S
H2167 C2151 0.961 . S
H2168 C2152 0.931 . S
H2169 C2157 0.930 . S
H2170 C2158 0.956 . S
H2171 C2158 0.961 . S
H2172 C2158 0.961 . S
H2173 C2159 0.958 . S
H2174 C2159 0.961 . S
H2175 C2159 0.960 . S
C2176 C2177 1.391 . S
C2176 C2178 1.394 . S
C2176 H2192 0.931 . S
C2177 C2176 1.391 . S
C2177 C2181 1.376 . S
C2178 C2176 1.394 . S
C2178 C2179 1.369 . S
C2178 C2182 1.531 . S
C2179 C2178 1.369 . S
C2179 C2180 1.410 . S
C2179 C2187 1.503 . S
C2180 C2179 1.410 . S
C2180 C2181 1.392 . S
C2180 C2183 1.511 . S
C2181 C2177 1.376 . S
C2181 C2180 1.392 . S
C2181 H2193 0.929 . S
C2182 C2178 1.531 . S
C2182 H2194 0.960 . S
C2182 H2195 0.962 . S
C2182 H2196 0.960 . S
C2183 C2180 1.511 . S
C2183 H2197 0.961 . S
C2183 H2198 0.961 . S
C2183 H2199 0.961 . S
C2184 C2185 1.370 . S
C2184 C2186 1.363 . S
C2184 H2200 0.931 . S
C2185 C2184 1.370 . S
C2185 C2189 1.408 . S
C2186 C2184 1.363 . S
C2186 C2187 1.370 . S
C2186 C2190 1.524 . S
C2187 C2179 1.503 . S
C2187 C2186 1.370 . S
C2187 C2188 1.403 . S
C2188 C2187 1.403 . S
C2188 C2189 1.404 . S
C2188 C2191 1.539 . S
C2189 C2185 1.408 . S
C2189 C2188 1.404 . S
C2189 H2201 0.930 . S
C2190 C2186 1.524 . S
C2190 H2202 0.956 . S
C2190 H2203 0.961 . S
C2190 H2204 0.961 . S
C2191 C2188 1.539 . S
C2191 H2205 0.958 . S
C2191 H2206 0.961 . S
C2191 H2207 0.960 . S
H2192 C2176 0.931 . S
H2193 C2181 0.929 . S
H2194 C2182 0.960 . S
H2195 C2182 0.962 . S
H2196 C2182 0.960 . S
H2197 C2183 0.961 . S
H2198 C2183 0.961 . S
H2199 C2183 0.961 . S
H2200 C2184 0.931 . S
H2201 C2189 0.930 . S
H2202 C2190 0.956 . S
H2203 C2190 0.961 . S
H2204 C2190 0.961 . S
H2205 C2191 0.958 . S
H2206 C2191 0.961 . S
H2207 C2191 0.960 . S
C2208 C2209 1.391 . S
C2208 C2210 1.394 . S
C2208 H2224 0.931 . S
C2209 C2208 1.391 . S
C2209 C2213 1.376 . S
C2210 C2208 1.394 . S
C2210 C2211 1.369 . S
C2210 C2214 1.531 . S
C2211 C2210 1.369 . S
C2211 C2212 1.410 . S
C2211 C2219 1.503 . S
C2212 C2211 1.410 . S
C2212 C2213 1.392 . S
C2212 C2215 1.511 . S
C2213 C2209 1.376 . S
C2213 C2212 1.392 . S
C2213 H2225 0.929 . S
C2214 C2210 1.531 . S
C2214 H2226 0.960 . S
C2214 H2227 0.962 . S
C2214 H2228 0.960 . S
C2215 C2212 1.511 . S
C2215 H2229 0.961 . S
C2215 H2230 0.961 . S
C2215 H2231 0.961 . S
C2216 C2217 1.370 . S
C2216 C2218 1.363 . S
C2216 H2232 0.931 . S
C2217 C2216 1.370 . S
C2217 C2221 1.408 . S
C2218 C2216 1.363 . S
C2218 C2219 1.370 . S
C2218 C2222 1.524 . S
C2219 C2211 1.503 . S
C2219 C2218 1.370 . S
C2219 C2220 1.403 . S
C2220 C2219 1.403 . S
C2220 C2221 1.404 . S
C2220 C2223 1.539 . S
C2221 C2217 1.408 . S
C2221 C2220 1.404 . S
C2221 H2233 0.930 . S
C2222 C2218 1.524 . S
C2222 H2234 0.956 . S
C2222 H2235 0.961 . S
C2222 H2236 0.961 1_556 S
C2223 C2220 1.539 . S
C2223 H2237 0.958 . S
C2223 H2238 0.961 . S
C2223 H2239 0.960 . S
H2224 C2208 0.931 . S
H2225 C2213 0.929 . S
H2226 C2214 0.960 . S
H2227 C2214 0.962 . S
H2228 C2214 0.960 . S
H2229 C2215 0.961 . S
H2230 C2215 0.961 . S
H2231 C2215 0.961 . S
H2232 C2216 0.931 . S
H2233 C2221 0.930 . S
H2234 C2222 0.956 . S
H2235 C2222 0.961 . S
H2236 C2222 0.961 1_554 S
H2237 C2223 0.958 . S
H2238 C2223 0.961 . S
H2239 C2223 0.960 . S
C2240 C2241 1.391 . S
C2240 C2242 1.394 . S
C2240 H2256 0.931 . S
C2241 C2240 1.391 . S
C2241 C2245 1.376 . S
C2242 C2240 1.394 . S
C2242 C2243 1.369 . S
C2242 C2246 1.531 . S
C2243 C2242 1.369 . S
C2243 C2244 1.410 . S
C2243 C2251 1.503 . S
C2244 C2243 1.410 . S
C2244 C2245 1.392 . S
C2244 C2247 1.511 . S
C2245 C2241 1.376 . S
C2245 C2244 1.392 . S
C2245 H2257 0.929 . S
C2246 C2242 1.531 . S
C2246 H2258 0.960 . S
C2246 H2259 0.962 . S
C2246 H2260 0.960 . S
C2247 C2244 1.511 . S
C2247 H2261 0.961 . S
C2247 H2262 0.961 . S
C2247 H2263 0.961 . S
C2248 C2249 1.370 . S
C2248 C2250 1.363 . S
C2248 H2264 0.931 . S
C2249 C2248 1.370 . S
C2249 C2253 1.408 . S
C2250 C2248 1.363 . S
C2250 C2251 1.370 . S
C2250 C2254 1.524 . S
C2251 C2243 1.503 . S
C2251 C2250 1.370 . S
C2251 C2252 1.403 . S
C2252 C2251 1.403 . S
C2252 C2253 1.404 . S
C2252 C2255 1.539 . S
C2253 C2249 1.408 . S
C2253 C2252 1.404 . S
C2253 H2265 0.930 . S
C2254 C2250 1.524 . S
C2254 H2266 0.956 . S
C2254 H2267 0.961 . S
C2254 H2268 0.961 . S
C2255 C2252 1.539 . S
C2255 H2269 0.958 . S
C2255 H2270 0.961 . S
C2255 H2271 0.960 . S
H2256 C2240 0.931 . S
H2257 C2245 0.929 . S
H2258 C2246 0.960 . S
H2259 C2246 0.962 . S
H2260 C2246 0.960 . S
H2261 C2247 0.961 . S
H2262 C2247 0.961 . S
H2263 C2247 0.961 . S
H2264 C2248 0.931 . S
H2265 C2253 0.930 . S
H2266 C2254 0.956 . S
H2267 C2254 0.961 . S
H2268 C2254 0.961 . S
H2269 C2255 0.958 . S
H2270 C2255 0.961 . S
H2271 C2255 0.960 . S
C2272 C2273 1.391 . S
C2272 C2274 1.394 . S
C2272 H2288 0.931 . S
C2273 C2272 1.391 . S
C2273 C2277 1.376 . S
C2274 C2272 1.394 . S
C2274 C2275 1.369 . S
C2274 C2278 1.531 . S
C2275 C2274 1.369 . S
C2275 C2276 1.410 . S
C2275 C2283 1.503 . S
C2276 C2275 1.410 . S
C2276 C2277 1.392 . S
C2276 C2279 1.511 . S
C2277 C2273 1.376 . S
C2277 C2276 1.392 . S
C2277 H2289 0.929 . S
C2278 C2274 1.531 . S
C2278 H2290 0.960 . S
C2278 H2291 0.962 . S
C2278 H2292 0.960 . S
C2279 C2276 1.511 . S
C2279 H2293 0.961 . S
C2279 H2294 0.961 . S
C2279 H2295 0.961 . S
C2280 C2281 1.370 . S
C2280 C2282 1.363 . S
C2280 H2296 0.931 . S
C2281 C2280 1.370 . S
C2281 C2285 1.408 . S
C2282 C2280 1.363 . S
C2282 C2283 1.370 . S
C2282 C2286 1.524 . S
C2283 C2275 1.503 . S
C2283 C2282 1.370 . S
C2283 C2284 1.403 . S
C2284 C2283 1.403 . S
C2284 C2285 1.404 . S
C2284 C2287 1.539 . S
C2285 C2281 1.408 . S
C2285 C2284 1.404 . S
C2285 H2297 0.930 . S
C2286 C2282 1.524 . S
C2286 H2298 0.956 . S
C2286 H2299 0.961 . S
C2286 H2300 0.961 1_554 S
C2287 C2284 1.539 . S
C2287 H2301 0.958 . S
C2287 H2302 0.961 . S
C2287 H2303 0.960 . S
H2288 C2272 0.931 . S
H2289 C2277 0.929 . S
H2290 C2278 0.960 . S
H2291 C2278 0.962 . S
H2292 C2278 0.960 . S
H2293 C2279 0.961 . S
H2294 C2279 0.961 . S
H2295 C2279 0.961 . S
H2296 C2280 0.931 . S
H2297 C2285 0.930 . S
H2298 C2286 0.956 . S
H2299 C2286 0.961 . S
H2300 C2286 0.961 1_556 S
H2301 C2287 0.958 . S
H2302 C2287 0.961 . S
H2303 C2287 0.960 . S
C2304 C2305 1.391 . S
C2304 C2306 1.394 . S
C2304 H2320 0.931 . S
C2305 C2304 1.391 . S
C2305 C2309 1.376 . S
C2306 C2304 1.394 . S
C2306 C2307 1.369 . S
C2306 C2310 1.531 . S
C2307 C2306 1.369 . S
C2307 C2308 1.410 . S
C2307 C2315 1.503 . S
C2308 C2307 1.410 . S
C2308 C2309 1.392 . S
C2308 C2311 1.511 . S
C2309 C2305 1.376 . S
C2309 C2308 1.392 . S
C2309 H2321 0.929 . S
C2310 C2306 1.531 . S
C2310 H2322 0.960 . S
C2310 H2323 0.962 . S
C2310 H2324 0.960 . S
C2311 C2308 1.511 . S
C2311 H2325 0.961 . S
C2311 H2326 0.961 . S
C2311 H2327 0.961 . S
C2312 C2313 1.370 . S
C2312 C2314 1.363 . S
C2312 H2328 0.931 . S
C2313 C2312 1.370 . S
C2313 C2317 1.408 . S
C2314 C2312 1.363 . S
C2314 C2315 1.370 . S
C2314 C2318 1.524 . S
C2315 C2307 1.503 . S
C2315 C2314 1.370 . S
C2315 C2316 1.403 . S
C2316 C2315 1.403 . S
C2316 C2317 1.404 . S
C2316 C2319 1.539 . S
C2317 C2313 1.408 . S
C2317 C2316 1.404 . S
C2317 H2329 0.930 . S
C2318 C2314 1.524 . S
C2318 H2330 0.956 . S
C2318 H2331 0.961 . S
C2318 H2332 0.961 . S
C2319 C2316 1.539 . S
C2319 H2333 0.958 . S
C2319 H2334 0.961 . S
C2319 H2335 0.960 . S
H2320 C2304 0.931 . S
H2321 C2309 0.929 . S
H2322 C2310 0.960 . S
H2323 C2310 0.962 . S
H2324 C2310 0.960 . S
H2325 C2311 0.961 . S
H2326 C2311 0.961 . S
H2327 C2311 0.961 . S
H2328 C2312 0.931 . S
H2329 C2317 0.930 . S
H2330 C2318 0.956 . S
H2331 C2318 0.961 . S
H2332 C2318 0.961 . S
H2333 C2319 0.958 . S
H2334 C2319 0.961 . S
H2335 C2319 0.960 . S
C2336 C2337 1.391 . S
C2336 C2338 1.394 . S
C2336 H2352 0.931 . S
C2337 C2336 1.391 . S
C2337 C2341 1.376 . S
C2338 C2336 1.394 . S
C2338 C2339 1.369 . S
C2338 C2342 1.531 . S
C2339 C2338 1.369 . S
C2339 C2340 1.410 . S
C2339 C2347 1.503 . S
C2340 C2339 1.410 . S
C2340 C2341 1.392 . S
C2340 C2343 1.511 . S
C2341 C2337 1.376 . S
C2341 C2340 1.392 . S
C2341 H2353 0.929 . S
C2342 C2338 1.531 . S
C2342 H2354 0.960 . S
C2342 H2355 0.962 . S
C2342 H2356 0.960 . S
C2343 C2340 1.511 . S
C2343 H2357 0.961 . S
C2343 H2358 0.961 . S
C2343 H2359 0.961 . S
C2344 C2345 1.370 . S
C2344 C2346 1.363 . S
C2344 H2360 0.931 . S
C2345 C2344 1.370 . S
C2345 C2349 1.408 . S
C2346 C2344 1.363 . S
C2346 C2347 1.370 . S
C2346 C2350 1.524 . S
C2347 C2339 1.503 . S
C2347 C2346 1.370 . S
C2347 C2348 1.403 . S
C2348 C2347 1.403 . S
C2348 C2349 1.404 . S
C2348 C2351 1.539 . S
C2349 C2345 1.408 . S
C2349 C2348 1.404 . S
C2349 H2361 0.930 . S
C2350 C2346 1.524 . S
C2350 H2362 0.956 . S
C2350 H2363 0.961 . S
C2350 H2364 0.961 1_556 S
C2351 C2348 1.539 . S
C2351 H2365 0.958 . S
C2351 H2366 0.961 . S
C2351 H2367 0.960 . S
H2352 C2336 0.931 . S
H2353 C2341 0.929 . S
H2354 C2342 0.960 . S
H2355 C2342 0.962 . S
H2356 C2342 0.960 . S
H2357 C2343 0.961 . S
H2358 C2343 0.961 . S
H2359 C2343 0.961 . S
H2360 C2344 0.931 . S
H2361 C2349 0.930 . S
H2362 C2350 0.956 . S
H2363 C2350 0.961 . S
H2364 C2350 0.961 1_554 S
H2365 C2351 0.958 . S
H2366 C2351 0.961 . S
H2367 C2351 0.960 . S
C2368 C2369 1.391 . S
C2368 C2370 1.394 . S
C2368 H2384 0.931 . S
C2369 C2368 1.391 . S
C2369 C2373 1.376 . S
C2370 C2368 1.394 . S
C2370 C2371 1.369 . S
C2370 C2374 1.531 . S
C2371 C2370 1.369 . S
C2371 C2372 1.410 . S
C2371 C2379 1.503 . S
C2372 C2371 1.410 . S
C2372 C2373 1.392 . S
C2372 C2375 1.511 . S
C2373 C2369 1.376 . S
C2373 C2372 1.392 . S
C2373 H2385 0.929 . S
C2374 C2370 1.531 . S
C2374 H2386 0.960 . S
C2374 H2387 0.962 . S
C2374 H2388 0.960 . S
C2375 C2372 1.511 . S
C2375 H2389 0.961 . S
C2375 H2390 0.961 . S
C2375 H2391 0.961 . S
C2376 C2377 1.370 . S
C2376 C2378 1.363 . S
C2376 H2392 0.931 . S
C2377 C2376 1.370 . S
C2377 C2381 1.408 . S
C2378 C2376 1.363 . S
C2378 C2379 1.370 . S
C2378 C2382 1.524 . S
C2379 C2371 1.503 . S
C2379 C2378 1.370 . S
C2379 C2380 1.403 . S
C2380 C2379 1.403 . S
C2380 C2381 1.404 . S
C2380 C2383 1.539 . S
C2381 C2377 1.408 . S
C2381 C2380 1.404 . S
C2381 H2393 0.930 . S
C2382 C2378 1.524 . S
C2382 H2394 0.956 . S
C2382 H2395 0.961 . S
C2382 H2396 0.961 . S
C2383 C2380 1.539 . S
C2383 H2397 0.958 . S
C2383 H2398 0.961 . S
C2383 H2399 0.960 . S
H2384 C2368 0.931 . S
H2385 C2373 0.929 . S
H2386 C2374 0.960 . S
H2387 C2374 0.962 . S
H2388 C2374 0.960 . S
H2389 C2375 0.961 . S
H2390 C2375 0.961 . S
H2391 C2375 0.961 . S
H2392 C2376 0.931 . S
H2393 C2381 0.930 . S
H2394 C2382 0.956 . S
H2395 C2382 0.961 . S
H2396 C2382 0.961 . S
H2397 C2383 0.958 . S
H2398 C2383 0.961 . S
H2399 C2383 0.960 . S
C2400 C2401 1.391 . S
C2400 C2402 1.394 . S
C2400 H2416 0.931 . S
C2401 C2400 1.391 . S
C2401 C2405 1.376 . S
C2402 C2400 1.394 . S
C2402 C2403 1.369 . S
C2402 C2406 1.531 . S
C2403 C2402 1.369 . S
C2403 C2404 1.410 . S
C2403 C2411 1.503 . S
C2404 C2403 1.410 . S
C2404 C2405 1.392 . S
C2404 C2407 1.511 . S
C2405 C2401 1.376 . S
C2405 C2404 1.392 . S
C2405 H2417 0.929 . S
C2406 C2402 1.531 . S
C2406 H2418 0.960 . S
C2406 H2419 0.962 . S
C2406 H2420 0.960 . S
C2407 C2404 1.511 . S
C2407 H2421 0.961 . S
C2407 H2422 0.961 . S
C2407 H2423 0.961 . S
C2408 C2409 1.370 . S
C2408 C2410 1.363 . S
C2408 H2424 0.931 . S
C2409 C2408 1.370 . S
C2409 C2413 1.408 . S
C2410 C2408 1.363 . S
C2410 C2411 1.370 . S
C2410 C2414 1.524 . S
C2411 C2403 1.503 . S
C2411 C2410 1.370 . S
C2411 C2412 1.403 . S
C2412 C2411 1.403 . S
C2412 C2413 1.404 . S
C2412 C2415 1.539 1_554 S
C2413 C2409 1.408 . S
C2413 C2412 1.404 . S
C2413 H2425 0.930 . S
C2414 C2410 1.524 . S
C2414 H2426 0.956 . S
C2414 H2427 0.961 . S
C2414 H2428 0.961 . S
C2415 C2412 1.539 1_556 S
C2415 H2429 0.958 . S
C2415 H2430 0.961 . S
C2415 H2431 0.958 1_556 S
H2416 C2400 0.931 . S
H2417 C2405 0.929 . S
H2418 C2406 0.960 . S
H2419 C2406 0.962 . S
H2420 C2406 0.960 . S
H2421 C2407 0.961 . S
H2422 C2407 0.961 . S
H2423 C2407 0.961 . S
H2424 C2408 0.931 . S
H2425 C2413 0.930 . S
H2426 C2414 0.956 . S
H2427 C2414 0.961 . S
H2428 C2414 0.961 . S
H2429 C2415 0.958 . S
H2430 C2415 0.961 . S
H2431 C2415 0.958 1_554 S
C2432 C2433 1.391 . S
C2432 C2434 1.394 . S
C2432 H2448 0.931 . S
C2433 C2432 1.391 . S
C2433 C2437 1.376 . S
C2434 C2432 1.394 . S
C2434 C2435 1.369 . S
C2434 C2438 1.531 . S
C2435 C2434 1.369 . S
C2435 C2436 1.410 . S
C2435 C2443 1.503 . S
C2436 C2435 1.410 . S
C2436 C2437 1.392 . S
C2436 C2439 1.511 . S
C2437 C2433 1.376 . S
C2437 C2436 1.392 . S
C2437 H2449 0.929 . S
C2438 C2434 1.531 . S
C2438 H2450 0.960 . S
C2438 H2451 0.962 . S
C2438 H2452 0.960 . S
C2439 C2436 1.511 . S
C2439 H2453 0.961 . S
C2439 H2454 0.961 . S
C2439 H2455 0.961 . S
C2440 C2441 1.370 . S
C2440 C2442 1.363 . S
C2440 H2456 0.931 . S
C2441 C2440 1.370 . S
C2441 C2445 1.408 . S
C2442 C2440 1.363 . S
C2442 C2443 1.370 . S
C2442 C2446 1.524 . S
C2443 C2435 1.503 . S
C2443 C2442 1.370 . S
C2443 C2444 1.403 . S
C2444 C2443 1.403 . S
C2444 C2445 1.404 . S
C2444 C2447 1.539 . S
C2445 C2441 1.408 . S
C2445 C2444 1.404 . S
C2445 H2457 0.930 . S
C2446 C2442 1.524 . S
C2446 H2458 0.956 . S
C2446 H2459 0.961 . S
C2446 H2460 0.961 . S
C2447 C2444 1.539 . S
C2447 H2461 0.958 . S
C2447 H2462 0.961 . S
C2447 H2463 0.960 . S
H2448 C2432 0.931 . S
H2449 C2437 0.929 . S
H2450 C2438 0.960 . S
H2451 C2438 0.962 . S
H2452 C2438 0.960 . S
H2453 C2439 0.961 . S
H2454 C2439 0.961 . S
H2455 C2439 0.961 . S
H2456 C2440 0.931 . S
H2457 C2445 0.930 . S
H2458 C2446 0.956 . S
H2459 C2446 0.961 . S
H2460 C2446 0.961 . S
H2461 C2447 0.958 . S
H2462 C2447 0.961 . S
H2463 C2447 0.960 . S
C2464 C2465 1.391 . S
C2464 C2466 1.394 . S
C2464 H2480 0.931 . S
C2465 C2464 1.391 . S
C2465 C2469 1.376 . S
C2466 C2464 1.394 . S
C2466 C2467 1.369 . S
C2466 C2470 1.531 . S
C2467 C2466 1.369 . S
C2467 C2468 1.410 . S
C2467 C2475 1.503 . S
C2468 C2467 1.410 . S
C2468 C2469 1.392 . S
C2468 C2471 1.511 . S
C2469 C2465 1.376 . S
C2469 C2468 1.392 . S
C2469 H2481 0.929 . S
C2470 C2466 1.531 . S
C2470 H2482 0.960 . S
C2470 H2483 0.962 . S
C2470 H2484 0.960 . S
C2471 C2468 1.511 . S
C2471 H2485 0.961 . S
C2471 H2486 0.961 . S
C2471 H2487 0.961 . S
C2472 C2473 1.370 . S
C2472 C2474 1.363 . S
C2472 H2488 0.931 . S
C2473 C2472 1.370 . S
C2473 C2477 1.408 . S
C2474 C2472 1.363 . S
C2474 C2475 1.370 . S
C2474 C2478 1.524 . S
C2475 C2467 1.503 . S
C2475 C2474 1.370 . S
C2475 C2476 1.403 . S
C2476 C2475 1.403 . S
C2476 C2477 1.404 . S
C2476 C2479 1.539 . S
C2477 C2473 1.408 . S
C2477 C2476 1.404 . S
C2477 H2489 0.930 . S
C2478 C2474 1.524 . S
C2478 H2490 0.956 . S
C2478 H2491 0.961 . S
C2478 H2492 0.961 . S
C2479 C2476 1.539 . S
C2479 H2493 0.958 . S
C2479 H2494 0.961 . S
C2479 H2495 0.960 . S
H2480 C2464 0.931 . S
H2481 C2469 0.929 . S
H2482 C2470 0.960 . S
H2483 C2470 0.962 . S
H2484 C2470 0.960 . S
H2485 C2471 0.961 . S
H2486 C2471 0.961 . S
H2487 C2471 0.961 . S
H2488 C2472 0.931 . S
H2489 C2477 0.930 . S
H2490 C2478 0.956 . S
H2491 C2478 0.961 . S
H2492 C2478 0.961 . S
H2493 C2479 0.958 . S
H2494 C2479 0.961 . S
H2495 C2479 0.960 . S
C2496 C2497 1.391 . S
C2496 C2498 1.394 . S
C2496 H2512 0.931 . S
C2497 C2496 1.391 . S
C2497 C2501 1.376 . S
C2498 C2496 1.394 . S
C2498 C2499 1.369 . S
C2498 C2502 1.531 . S
C2499 C2498 1.369 . S
C2499 C2500 1.410 . S
C2499 C2507 1.503 . S
C2500 C2499 1.410 . S
C2500 C2501 1.392 . S
C2500 C2503 1.511 . S
C2501 C2497 1.376 . S
C2501 C2500 1.392 . S
C2501 H2513 0.929 . S
C2502 C2498 1.531 . S
C2502 H2514 0.960 . S
C2502 H2515 0.962 . S
C2502 H2516 0.960 . S
C2503 C2500 1.511 . S
C2503 H2517 0.961 . S
C2503 H2518 0.961 . S
C2503 H2519 0.961 . S
C2504 C2505 1.370 . S
C2504 C2506 1.363 . S
C2504 H2520 0.931 . S
C2505 C2504 1.370 . S
C2505 C2509 1.408 . S
C2506 C2504 1.363 . S
C2506 C2507 1.370 . S
C2506 C2510 1.524 . S
C2507 C2499 1.503 . S
C2507 C2506 1.370 . S
C2507 C2508 1.403 . S
C2508 C2507 1.403 . S
C2508 C2509 1.404 . S
C2508 C2511 1.539 . S
C2509 C2505 1.408 . S
C2509 C2508 1.404 . S
C2509 H2521 0.930 . S
C2510 C2506 1.524 . S
C2510 H2522 0.956 . S
C2510 H2523 0.961 . S
C2510 H2524 0.961 . S
C2511 C2508 1.539 . S
C2511 H2525 0.958 . S
C2511 H2526 0.961 . S
C2511 H2527 0.960 . S
H2512 C2496 0.931 . S
H2513 C2501 0.929 . S
H2514 C2502 0.960 . S
H2515 C2502 0.962 . S
H2516 C2502 0.960 . S
H2517 C2503 0.961 . S
H2518 C2503 0.961 . S
H2519 C2503 0.961 . S
H2520 C2504 0.931 . S
H2521 C2509 0.930 . S
H2522 C2510 0.956 . S
H2523 C2510 0.961 . S
H2524 C2510 0.961 . S
H2525 C2511 0.958 . S
H2526 C2511 0.961 . S
H2527 C2511 0.960 . S
C2528 C2529 1.391 . S
C2528 C2530 1.394 . S
C2528 H2544 0.931 . S
C2529 C2528 1.391 . S
C2529 C2533 1.376 . S
C2530 C2528 1.394 . S
C2530 C2531 1.369 . S
C2530 C2534 1.531 . S
C2531 C2530 1.369 . S
C2531 C2532 1.410 . S
C2531 C2539 1.503 . S
C2532 C2531 1.410 . S
C2532 C2533 1.392 . S
C2532 C2535 1.511 . S
C2533 C2529 1.376 . S
C2533 C2532 1.392 . S
C2533 H2545 0.929 . S
C2534 C2530 1.531 . S
C2534 H2546 0.960 . S
C2534 H2547 0.962 . S
C2534 H2548 0.960 . S
C2535 C2532 1.511 . S
C2535 H2549 0.961 . S
C2535 H2550 0.961 . S
C2535 H2551 0.961 . S
C2536 C2537 1.370 . S
C2536 C2538 1.363 . S
C2536 H2552 0.931 . S
C2537 C2536 1.370 . S
C2537 C2541 1.408 . S
C2538 C2536 1.363 . S
C2538 C2539 1.370 . S
C2538 C2542 1.524 . S
C2539 C2531 1.503 . S
C2539 C2538 1.370 . S
C2539 C2540 1.403 . S
C2540 C2539 1.403 . S
C2540 C2541 1.404 . S
C2540 C2543 1.539 . S
C2541 C2537 1.408 . S
C2541 C2540 1.404 . S
C2541 H2553 0.930 . S
C2542 C2538 1.524 . S
C2542 H2554 0.956 . S
C2542 H2555 0.961 . S
C2542 H2556 0.961 . S
C2543 C2540 1.539 . S
C2543 H2557 0.958 . S
C2543 H2558 0.961 . S
C2543 H2559 0.960 . S
H2544 C2528 0.931 . S
H2545 C2533 0.929 . S
H2546 C2534 0.960 . S
H2547 C2534 0.962 . S
H2548 C2534 0.960 . S
H2549 C2535 0.961 . S
H2550 C2535 0.961 . S
H2551 C2535 0.961 . S
H2552 C2536 0.931 . S
H2553 C2541 0.930 . S
H2554 C2542 0.956 . S
H2555 C2542 0.961 . S
H2556 C2542 0.961 . S
H2557 C2543 0.958 . S
H2558 C2543 0.961 . S
H2559 C2543 0.960 . S
C2560 C2561 1.391 . S
C2560 C2562 1.394 . S
C2560 H2576 0.931 . S
C2561 C2560 1.391 . S
C2561 C2565 1.376 . S
C2562 C2560 1.394 . S
C2562 C2563 1.369 . S
C2562 C2566 1.531 . S
C2563 C2562 1.369 . S
C2563 C2564 1.410 . S
C2563 C2571 1.503 . S
C2564 C2563 1.410 . S
C2564 C2565 1.392 . S
C2564 C2567 1.511 . S
C2565 C2561 1.376 . S
C2565 C2564 1.392 . S
C2565 H2577 0.929 . S
C2566 C2562 1.531 . S
C2566 H2578 0.960 . S
C2566 H2579 0.962 . S
C2566 H2580 0.960 . S
C2567 C2564 1.511 . S
C2567 H2581 0.961 . S
C2567 H2582 0.961 . S
C2567 H2583 0.961 . S
C2568 C2569 1.370 . S
C2568 C2570 1.363 . S
C2568 H2584 0.931 . S
C2569 C2568 1.370 . S
C2569 C2573 1.408 . S
C2570 C2568 1.363 . S
C2570 C2571 1.370 . S
C2570 C2574 1.524 . S
C2571 C2563 1.503 . S
C2571 C2570 1.370 . S
C2571 C2572 1.403 . S
C2572 C2571 1.403 . S
C2572 C2573 1.404 . S
C2572 C2575 1.539 . S
C2573 C2569 1.408 . S
C2573 C2572 1.404 . S
C2573 H2585 0.930 . S
C2574 C2570 1.524 . S
C2574 H2586 0.956 . S
C2574 H2587 0.961 . S
C2574 H2588 0.961 . S
C2575 C2572 1.539 . S
C2575 H2589 0.958 . S
C2575 H2590 0.961 . S
C2575 H2591 0.960 . S
H2576 C2560 0.931 . S
H2577 C2565 0.929 . S
H2578 C2566 0.960 . S
H2579 C2566 0.962 . S
H2580 C2566 0.960 . S
H2581 C2567 0.961 . S
H2582 C2567 0.961 . S
H2583 C2567 0.961 . S
H2584 C2568 0.931 . S
H2585 C2573 0.930 . S
H2586 C2574 0.956 . S
H2587 C2574 0.961 . S
H2588 C2574 0.961 . S
H2589 C2575 0.958 . S
H2590 C2575 0.961 . S
H2591 C2575 0.960 . S
C2592 C2593 1.391 . S
C2592 C2594 1.394 . S
C2592 H2608 0.931 . S
C2593 C2592 1.391 . S
C2593 C2597 1.376 . S
C2594 C2592 1.394 . S
C2594 C2595 1.385 . S
C2594 C2598 1.531 . S
C2595 C2594 1.385 . S
C2595 C2596 1.414 . S
C2595 C2603 1.488 1_655 S
C2596 C2595 1.414 . S
C2596 C2597 1.392 . S
C2596 C2599 1.511 1_655 S
C2597 C2593 1.376 . S
C2597 C2596 1.392 . S
C2597 H2609 0.929 . S
C2598 C2594 1.531 . S
C2598 H2610 0.960 1_655 S
C2598 H2611 0.962 . S
C2598 H2612 0.960 . S
C2599 C2596 1.511 1_455 S
C2599 H2613 0.961 1_455 S
C2599 H2614 0.961 . S
C2599 H2615 0.961 . S
C2600 C2601 1.370 . S
C2600 C2602 1.363 1_455 S
C2600 H2616 0.931 1_455 S
C2601 C2600 1.370 . S
C2601 C2605 1.408 . S
C2602 C2600 1.363 1_655 S
C2602 C2603 1.370 1_655 S
C2602 C2606 1.524 . S
C2603 C2595 1.488 1_455 S
C2603 C2602 1.370 1_455 S
C2603 C2604 1.403 . S
C2604 C2603 1.403 . S
C2604 C2605 1.404 . S
C2604 C2607 1.539 . S
C2605 C2601 1.408 . S
C2605 C2604 1.404 . S
C2605 H2617 0.930 . S
C2606 C2602 1.524 . S
C2606 H2618 0.956 . S
C2606 H2619 0.961 . S
C2606 H2620 0.961 . S
C2607 C2604 1.539 . S
C2607 H2621 0.958 . S
C2607 H2622 0.961 . S
C2607 H2623 0.960 . S
H2608 C2592 0.931 . S
H2609 C2597 0.929 . S
H2610 C2598 0.960 1_455 S
H2611 C2598 0.962 . S
H2612 C2598 0.960 . S
H2613 C2599 0.961 1_655 S
H2614 C2599 0.961 . S
H2615 C2599 0.961 . S
H2616 C2600 0.931 1_655 S
H2617 C2605 0.930 . S
H2618 C2606 0.956 . S
H2619 C2606 0.961 . S
H2620 C2606 0.961 . S
H2621 C2607 0.958 . S
H2622 C2607 0.961 . S
H2623 C2607 0.960 . S
C2624 C2625 1.391 . S
C2624 C2626 1.394 . S
C2624 H2640 0.931 . S
C2625 C2624 1.391 . S
C2625 C2629 1.376 . S
C2626 C2624 1.394 . S
C2626 C2627 1.369 . S
C2626 C2630 1.531 . S
C2627 C2626 1.369 . S
C2627 C2628 1.410 . S
C2627 C2635 1.503 1_565 S
C2628 C2627 1.410 . S
C2628 C2629 1.392 . S
C2628 C2631 1.511 1_565 S
C2629 C2625 1.376 . S
C2629 C2628 1.392 . S
C2629 H2641 0.929 . S
C2630 C2626 1.531 . S
C2630 H2642 0.961 . S
C2630 H2643 0.962 . S
C2630 H2644 0.960 . S
C2631 C2628 1.511 1_545 S
C2631 H2645 0.961 1_545 S
C2631 H2646 0.961 . S
C2631 H2647 0.961 . S
C2632 C2633 1.370 . S
C2632 C2634 1.363 . S
C2632 H2648 0.931 . S
C2633 C2632 1.370 . S
C2633 C2637 1.408 . S
C2634 C2632 1.363 . S
C2634 C2635 1.370 . S
C2634 C2638 1.524 1_545 S
C2635 C2627 1.503 1_545 S
C2635 C2634 1.370 . S
C2635 C2636 1.403 . S
C2636 C2635 1.403 . S
C2636 C2637 1.404 . S
C2636 C2639 1.539 . S
C2637 C2633 1.408 . S
C2637 C2636 1.404 . S
C2637 H2649 0.930 . S
C2638 C2634 1.524 1_565 S
C2638 H2650 0.956 . S
C2638 H2651 0.961 . S
C2638 H2652 0.961 . S
C2639 C2636 1.539 . S
C2639 H2653 0.958 . S
C2639 H2654 0.961 . S
C2639 H2655 0.960 . S
H2640 C2624 0.931 . S
H2641 C2629 0.929 . S
H2642 C2630 0.961 . S
H2643 C2630 0.962 . S
H2644 C2630 0.960 . S
H2645 C2631 0.961 1_565 S
H2646 C2631 0.961 . S
H2647 C2631 0.961 . S
H2648 C2632 0.931 . S
H2649 C2637 0.930 . S
H2650 C2638 0.956 . S
H2651 C2638 0.961 . S
H2652 C2638 0.961 . S
H2653 C2639 0.958 . S
H2654 C2639 0.961 . S
H2655 C2639 0.960 . S
C2656 C2657 1.391 . S
C2656 C2658 1.394 1_455 S
C2656 H2672 0.931 1_455 S
C2657 C2656 1.391 . S
C2657 C2661 1.376 . S
C2658 C2656 1.394 1_655 S
C2658 C2659 1.369 1_655 S
C2658 C2662 1.531 . S
C2659 C2658 1.369 1_455 S
C2659 C2660 1.410 . S
C2659 C2667 1.503 1_446 S
C2660 C2659 1.410 . S
C2660 C2661 1.392 . S
C2660 C2663 1.511 1_556 S
C2661 C2657 1.376 . S
C2661 C2660 1.392 . S
C2661 H2673 0.929 . S
C2662 C2658 1.531 . S
C2662 H2674 0.960 1_545 S
C2662 H2675 0.962 . S
C2662 H2676 0.960 . S
C2663 C2660 1.511 1_554 S
C2663 H2677 0.961 . S
C2663 H2678 0.961 1_545 S
C2663 H2679 0.961 1_545 S
C2664 C2665 1.370 . S
C2664 C2666 1.363 . S
C2664 H2680 0.931 . S
C2665 C2664 1.370 . S
C2665 C2669 1.408 . S
C2666 C2664 1.363 . S
C2666 C2667 1.370 . S
C2666 C2670 1.524 1_565 S
C2667 C2659 1.503 1_664 S
C2667 C2666 1.370 . S
C2667 C2668 1.403 1_554 S
C2668 C2667 1.403 1_556 S
C2668 C2669 1.404 1_556 S
C2668 C2671 1.539 1_655 S
C2669 C2665 1.408 . S
C2669 C2668 1.404 1_554 S
C2669 H2681 0.930 . S
C2670 C2666 1.524 1_545 S
C2670 H2682 0.956 . S
C2670 H2683 0.961 . S
C2670 H2684 0.961 . S
C2671 C2668 1.539 1_455 S
C2671 H2685 0.958 . S
C2671 H2686 0.961 . S
C2671 H2687 0.960 . S
H2672 C2656 0.931 1_655 S
H2673 C2661 0.929 . S
H2674 C2662 0.960 1_565 S
H2675 C2662 0.962 . S
H2676 C2662 0.960 . S
H2677 C2663 0.961 . S
H2678 C2663 0.961 1_565 S
H2679 C2663 0.961 1_565 S
H2680 C2664 0.931 . S
H2681 C2669 0.930 . S
H2682 C2670 0.956 . S
H2683 C2670 0.961 . S
H2684 C2670 0.961 . S
H2685 C2671 0.958 . S
H2686 C2671 0.961 . S
H2687 C2671 0.960 . S
C2688 C2689 1.391 . S
C2688 C2690 1.394 . S
C2688 H2704 0.931 . S
C2689 C2688 1.391 . S
C2689 C2693 1.376 . S
C2690 C2688 1.394 . S
C2690 C2691 1.369 . S
C2690 C2694 1.531 . S
C2691 C2690 1.369 . S
C2691 C2692 1.410 . S
C2691 C2699 1.503 1_554 S
C2692 C2691 1.410 . S
C2692 C2693 1.392 . S
C2692 C2695 1.511 . S
C2693 C2689 1.376 . S
C2693 C2692 1.392 . S
C2693 H2705 0.929 . S
C2694 C2690 1.531 . S
C2694 H2706 0.960 . S
C2694 H2707 0.962 . S
C2694 H2708 0.960 . S
C2695 C2692 1.511 . S
C2695 H2709 0.961 . S
C2695 H2710 0.961 1_554 S
C2695 H2711 0.961 . S
C2696 C2697 1.370 . S
C2696 C2698 1.363 . S
C2696 H2712 0.931 . S
C2697 C2696 1.370 . S
C2697 C2701 1.408 . S
C2698 C2696 1.363 . S
C2698 C2699 1.370 . S
C2698 C2702 1.524 . S
C2699 C2691 1.503 1_556 S
C2699 C2698 1.370 . S
C2699 C2700 1.403 1_556 S
C2700 C2699 1.403 1_554 S
C2700 C2701 1.404 1_554 S
C2700 C2703 1.539 . S
C2701 C2697 1.408 . S
C2701 C2700 1.404 1_556 S
C2701 H2713 0.930 1_556 S
C2702 C2698 1.524 . S
C2702 H2714 0.956 . S
C2702 H2715 0.961 . S
C2702 H2716 0.961 . S
C2703 C2700 1.539 . S
C2703 H2717 0.958 . S
C2703 H2718 0.961 . S
C2703 H2719 0.960 . S
H2704 C2688 0.931 . S
H2705 C2693 0.929 . S
H2706 C2694 0.960 . S
H2707 C2694 0.962 . S
H2708 C2694 0.960 . S
H2709 C2695 0.961 . S
H2710 C2695 0.961 1_556 S
H2711 C2695 0.961 . S
H2712 C2696 0.931 . S
H2713 C2701 0.930 1_554 S
H2714 C2702 0.956 . S
H2715 C2702 0.961 . S
H2716 C2702 0.961 . S
H2717 C2703 0.958 . S
H2718 C2703 0.961 . S
H2719 C2703 0.960 . S
C2720 C2721 1.391 . S
C2720 C2722 1.394 . S
C2720 H2736 0.931 . S
C2721 C2720 1.391 . S
C2721 C2725 1.376 . S
C2722 C2720 1.394 . S
C2722 C2723 1.369 . S
C2722 C2726 1.531 . S
C2723 C2722 1.369 . S
C2723 C2724 1.410 1_455 S
C2723 C2731 1.503 1_455 S
C2724 C2723 1.410 1_655 S
C2724 C2725 1.392 1_655 S
C2724 C2727 1.511 . S
C2725 C2721 1.376 . S
C2725 C2724 1.392 1_455 S
C2725 H2737 0.934 . S
C2726 C2722 1.531 . S
C2726 H2738 0.960 . S
C2726 H2739 0.962 . S
C2726 H2740 0.960 . S
C2727 C2724 1.511 . S
C2727 H2741 0.961 . S
C2727 H2742 0.961 . S
C2727 H2743 0.961 . S
C2728 C2729 1.370 . S
C2728 C2730 1.349 1_655 S
C2728 H2744 0.931 . S
C2729 C2728 1.370 . S
C2729 C2733 1.408 . S
C2730 C2728 1.349 1_455 S
C2730 C2731 1.357 1_455 S
C2730 C2734 1.553 . S
C2731 C2723 1.503 1_655 S
C2731 C2730 1.357 1_655 S
C2731 C2732 1.403 . S
C2732 C2731 1.403 . S
C2732 C2733 1.404 . S
C2732 C2735 1.539 . S
C2733 C2729 1.408 . S
C2733 C2732 1.404 . S
C2733 H2745 0.930 . S
C2734 C2730 1.553 . S
C2734 H2746 0.956 . S
C2734 H2747 0.961 . S
C2734 H2748 0.961 . S
C2735 C2732 1.539 . S
C2735 H2749 0.958 . S
C2735 H2750 0.961 . S
C2735 H2751 0.960 . S
H2736 C2720 0.931 . S
H2737 C2725 0.934 . S
H2738 C2726 0.960 . S
H2739 C2726 0.962 . S
H2740 C2726 0.960 . S
H2741 C2727 0.961 . S
H2742 C2727 0.961 . S
H2743 C2727 0.961 . S
H2744 C2728 0.931 . S
H2745 C2733 0.930 . S
H2746 C2734 0.956 . S
H2747 C2734 0.961 . S
H2748 C2734 0.961 . S
H2749 C2735 0.958 . S
H2750 C2735 0.961 . S
H2751 C2735 0.960 . S
C2752 C2753 1.391 . S
C2752 C2754 1.394 . S
C2752 H2768 0.931 . S
C2753 C2752 1.391 . S
C2753 C2757 1.376 . S
C2754 C2752 1.394 . S
C2754 C2755 1.369 . S
C2754 C2758 1.494 1_545 S
C2755 C2754 1.369 . S
C2755 C2756 1.410 . S
C2755 C2763 1.503 1_545 S
C2756 C2755 1.410 . S
C2756 C2757 1.392 . S
C2756 C2759 1.511 . S
C2757 C2753 1.376 . S
C2757 C2756 1.392 . S
C2757 H2769 0.929 . S
C2758 C2754 1.494 1_565 S
C2758 H2770 1.028 . S
C2758 H2771 0.937 1_565 S
C2758 H2772 0.959 . S
C2759 C2756 1.511 . S
C2759 H2773 0.961 . S
C2759 H2774 0.961 . S
C2759 H2775 0.990 . S
C2760 C2761 1.370 . S
C2760 C2762 1.363 . S
C2760 H2776 0.931 . S
C2761 C2760 1.370 . S
C2761 C2765 1.408 . S
C2762 C2760 1.363 . S
C2762 C2763 1.370 . S
C2762 C2766 1.524 1_565 S
C2763 C2755 1.503 1_565 S
C2763 C2762 1.370 . S
C2763 C2764 1.403 . S
C2764 C2763 1.403 . S
C2764 C2765 1.404 . S
C2764 C2767 1.539 . S
C2765 C2761 1.408 . S
C2765 C2764 1.404 . S
C2765 H2777 0.930 . S
C2766 C2762 1.524 1_545 S
C2766 H2778 0.956 . S
C2766 H2779 0.961 . S
C2766 H2780 0.961 . S
C2767 C2764 1.539 . S
C2767 H2781 0.958 . S
C2767 H2782 0.961 . S
C2767 H2783 0.960 . S
H2768 C2752 0.931 . S
H2769 C2757 0.929 . S
H2770 C2758 1.028 . S
H2771 C2758 0.937 1_545 S
H2772 C2758 0.959 . S
H2773 C2759 0.961 . S
H2774 C2759 0.961 . S
H2775 C2759 0.990 . S
H2776 C2760 0.931 . S
H2777 C2765 0.930 . S
H2778 C2766 0.956 . S
H2779 C2766 0.961 . S
H2780 C2766 0.961 . S
H2781 C2767 0.958 . S
H2782 C2767 0.961 . S
H2783 C2767 0.960 . S
C2784 C2785 1.391 . S
C2784 C2786 1.394 . S
C2784 H2800 0.931 . S
C2785 C2784 1.391 . S
C2785 C2789 1.376 . S
C2786 C2784 1.394 . S
C2786 C2787 1.369 . S
C2786 C2790 1.531 . S
C2787 C2786 1.369 . S
C2787 C2788 1.410 . S
C2787 C2795 1.503 1_556 S
C2788 C2787 1.410 . S
C2788 C2789 1.392 . S
C2788 C2791 1.511 . S
C2789 C2785 1.376 . S
C2789 C2788 1.392 . S
C2789 H2801 0.929 . S
C2790 C2786 1.531 . S
C2790 H2802 0.960 . S
C2790 H2803 0.962 1_556 S
C2790 H2804 0.960 . S
C2791 C2788 1.511 . S
C2791 H2805 0.961 . S
C2791 H2806 0.961 1_556 S
C2791 H2807 0.961 . S
C2792 C2793 1.370 . S
C2792 C2794 1.363 . S
C2792 H2808 0.931 . S
C2793 C2792 1.370 . S
C2793 C2797 1.408 . S
C2794 C2792 1.363 . S
C2794 C2795 1.370 . S
C2794 C2798 1.524 . S
C2795 C2787 1.503 1_554 S
C2795 C2794 1.370 . S
C2795 C2796 1.403 1_554 S
C2796 C2795 1.403 1_556 S
C2796 C2797 1.404 1_556 S
C2796 C2799 1.539 . S
C2797 C2793 1.408 . S
C2797 C2796 1.404 1_554 S
C2797 H2809 0.930 1_554 S
C2798 C2794 1.524 . S
C2798 H2810 0.956 . S
C2798 H2811 0.961 . S
C2798 H2812 0.961 . S
C2799 C2796 1.539 . S
C2799 H2813 0.958 . S
C2799 H2814 0.961 . S
C2799 H2815 0.960 . S
H2800 C2784 0.931 . S
H2801 C2789 0.929 . S
H2802 C2790 0.960 . S
H2803 C2790 0.962 1_554 S
H2804 C2790 0.960 . S
H2805 C2791 0.961 . S
H2806 C2791 0.961 1_554 S
H2807 C2791 0.961 . S
H2808 C2792 0.931 . S
H2809 C2797 0.930 1_556 S
H2810 C2798 0.956 . S
H2811 C2798 0.961 . S
H2812 C2798 0.961 . S
H2813 C2799 0.958 . S
H2814 C2799 0.961 . S
H2815 C2799 0.960 . S
C2816 C2817 1.391 . S
C2816 C2818 1.394 . S
C2816 H2832 0.931 . S
C2817 C2816 1.391 . S
C2817 C2821 1.376 . S
C2818 C2816 1.394 . S
C2818 C2819 1.369 . S
C2818 C2822 1.531 . S
C2819 C2818 1.369 . S
C2819 C2820 1.410 . S
C2819 C2827 1.503 . S
C2820 C2819 1.410 . S
C2820 C2821 1.392 . S
C2820 C2823 1.511 . S
C2821 C2817 1.376 . S
C2821 C2820 1.392 . S
C2821 H2833 0.929 . S
C2822 C2818 1.531 . S
C2822 H2834 0.960 . S
C2822 H2835 0.962 . S
C2822 H2836 0.960 . S
C2823 C2820 1.511 . S
C2823 H2837 0.961 . S
C2823 H2838 0.961 . S
C2823 H2839 0.961 . S
C2824 C2825 1.370 . S
C2824 C2826 1.363 . S
C2824 H2840 0.931 . S
C2825 C2824 1.370 . S
C2825 C2829 1.408 . S
C2826 C2824 1.363 . S
C2826 C2827 1.370 . S
C2826 C2830 1.524 . S
C2827 C2819 1.503 . S
C2827 C2826 1.370 . S
C2827 C2828 1.403 . S
C2828 C2827 1.403 . S
C2828 C2829 1.404 . S
C2828 C2831 1.539 . S
C2829 C2825 1.408 . S
C2829 C2828 1.404 . S
C2829 H2841 0.930 . S
C2830 C2826 1.524 . S
C2830 H2842 0.956 . S
C2830 H2843 0.961 . S
C2830 H2844 0.961 . S
C2831 C2828 1.539 . S
C2831 H2845 0.958 . S
C2831 H2846 0.961 . S
C2831 H2847 0.960 . S
H2832 C2816 0.931 . S
H2833 C2821 0.929 . S
H2834 C2822 0.960 . S
H2835 C2822 0.962 . S
H2836 C2822 0.960 . S
H2837 C2823 0.961 . S
H2838 C2823 0.961 . S
H2839 C2823 0.961 . S
H2840 C2824 0.931 . S
H2841 C2829 0.930 . S
H2842 C2830 0.956 . S
H2843 C2830 0.961 . S
H2844 C2830 0.961 . S
H2845 C2831 0.958 . S
H2846 C2831 0.961 . S
H2847 C2831 0.960 . S
C2848 C2849 1.391 . S
C2848 C2850 1.394 . S
C2848 H2864 0.931 . S
C2849 C2848 1.391 . S
C2849 C2853 1.376 . S
C2850 C2848 1.394 . S
C2850 C2851 1.369 . S
C2850 C2854 1.531 . S
C2851 C2850 1.369 . S
C2851 C2852 1.410 1_655 S
C2851 C2859 1.503 1_655 S
C2852 C2851 1.410 1_455 S
C2852 C2853 1.392 1_455 S
C2852 C2855 1.511 . S
C2853 C2849 1.376 . S
C2853 C2852 1.392 1_655 S
C2853 H2865 0.929 1_655 S
C2854 C2850 1.531 . S
C2854 H2866 0.960 . S
C2854 H2867 0.962 . S
C2854 H2868 0.960 . S
C2855 C2852 1.511 . S
C2855 H2869 0.961 . S
C2855 H2870 0.961 . S
C2855 H2871 0.961 . S
C2856 C2857 1.370 . S
C2856 C2858 1.363 . S
C2856 H2872 0.931 . S
C2857 C2856 1.370 . S
C2857 C2861 1.408 . S
C2858 C2856 1.363 . S
C2858 C2859 1.370 . S
C2858 C2862 1.524 1_455 S
C2859 C2851 1.503 1_455 S
C2859 C2858 1.370 . S
C2859 C2860 1.403 . S
C2860 C2859 1.403 . S
C2860 C2861 1.404 . S
C2860 C2863 1.539 . S
C2861 C2857 1.408 . S
C2861 C2860 1.404 . S
C2861 H2873 0.930 . S
C2862 C2858 1.524 1_655 S
C2862 H2874 0.956 . S
C2862 H2875 0.972 . S
C2862 H2876 0.961 . S
C2863 C2860 1.539 . S
C2863 H2877 0.958 . S
C2863 H2878 0.961 . S
C2863 H2879 0.960 . S
H2864 C2848 0.931 . S
H2865 C2853 0.929 1_455 S
H2866 C2854 0.960 . S
H2867 C2854 0.962 . S
H2868 C2854 0.960 . S
H2869 C2855 0.961 . S
H2870 C2855 0.961 . S
H2871 C2855 0.961 . S
H2872 C2856 0.931 . S
H2873 C2861 0.930 . S
H2874 C2862 0.956 . S
H2875 C2862 0.972 . S
H2876 C2862 0.961 . S
H2877 C2863 0.958 . S
H2878 C2863 0.961 . S
H2879 C2863 0.960 . S
C2880 C2881 1.391 . S
C2880 C2882 1.394 . S
C2880 H2896 0.931 . S
C2881 C2880 1.391 . S
C2881 C2885 1.376 . S
C2882 C2880 1.394 . S
C2882 C2883 1.369 . S
C2882 C2886 1.531 . S
C2883 C2882 1.369 . S
C2883 C2884 1.410 . S
C2883 C2891 1.503 . S
C2884 C2883 1.410 . S
C2884 C2885 1.392 . S
C2884 C2887 1.511 . S
C2885 C2881 1.376 . S
C2885 C2884 1.392 . S
C2885 H2897 0.929 . S
C2886 C2882 1.531 . S
C2886 H2898 0.960 . S
C2886 H2899 0.962 . S
C2886 H2900 0.960 . S
C2887 C2884 1.511 . S
C2887 H2901 0.961 . S
C2887 H2902 0.961 . S
C2887 H2903 0.961 . S
C2888 C2889 1.370 . S
C2888 C2890 1.363 . S
C2888 H2904 0.931 . S
C2889 C2888 1.370 . S
C2889 C2893 1.408 . S
C2890 C2888 1.363 . S
C2890 C2891 1.370 . S
C2890 C2894 1.524 . S
C2891 C2883 1.503 . S
C2891 C2890 1.370 . S
C2891 C2892 1.403 . S
C2892 C2891 1.403 . S
C2892 C2893 1.404 . S
C2892 C2895 1.539 . S
C2893 C2889 1.408 . S
C2893 C2892 1.404 . S
C2893 H2905 0.930 . S
C2894 C2890 1.524 . S
C2894 H2906 0.956 . S
C2894 H2907 0.961 . S
C2894 H2908 0.961 . S
C2895 C2892 1.539 . S
C2895 H2909 0.958 . S
C2895 H2910 0.961 . S
C2895 H2911 0.960 . S
H2896 C2880 0.931 . S
H2897 C2885 0.929 . S
H2898 C2886 0.960 . S
H2899 C2886 0.962 . S
H2900 C2886 0.960 . S
H2901 C2887 0.961 . S
H2902 C2887 0.961 . S
H2903 C2887 0.961 . S
H2904 C2888 0.931 . S
H2905 C2893 0.930 . S
H2906 C2894 0.956 . S
H2907 C2894 0.961 . S
H2908 C2894 0.961 . S
H2909 C2895 0.958 . S
H2910 C2895 0.961 . S
H2911 C2895 0.960 . S
C2912 C2913 1.391 . S
C2912 C2914 1.394 . S
C2912 H2928 0.931 . S
C2913 C2912 1.391 . S
C2913 C2917 1.376 . S
C2914 C2912 1.394 . S
C2914 C2915 1.369 . S
C2914 C2918 1.531 . S
C2915 C2914 1.369 . S
C2915 C2916 1.410 . S
C2915 C2923 1.503 . S
C2916 C2915 1.410 . S
C2916 C2917 1.392 . S
C2916 C2919 1.511 . S
C2917 C2913 1.376 . S
C2917 C2916 1.392 . S
C2917 H2929 0.929 . S
C2918 C2914 1.531 . S
C2918 H2930 0.960 . S
C2918 H2931 0.962 . S
C2918 H2932 0.960 . S
C2919 C2916 1.511 . S
C2919 H2933 0.961 . S
C2919 H2934 0.961 . S
C2919 H2935 0.961 . S
C2920 C2921 1.370 . S
C2920 C2922 1.363 . S
C2920 H2936 0.931 . S
C2921 C2920 1.370 . S
C2921 C2925 1.408 . S
C2922 C2920 1.363 . S
C2922 C2923 1.370 . S
C2922 C2926 1.524 . S
C2923 C2915 1.503 . S
C2923 C2922 1.370 . S
C2923 C2924 1.403 . S
C2924 C2923 1.403 . S
C2924 C2925 1.404 . S
C2924 C2927 1.539 . S
C2925 C2921 1.408 . S
C2925 C2924 1.404 . S
C2925 H2937 0.930 . S
C2926 C2922 1.524 . S
C2926 H2938 0.956 . S
C2926 H2939 0.961 . S
C2926 H2940 0.961 . S
C2927 C2924 1.539 . S
C2927 H2941 0.958 . S
C2927 H2942 0.961 . S
C2927 H2943 0.960 . S
H2928 C2912 0.931 . S
H2929 C2917 0.929 . S
H2930 C2918 0.960 . S
H2931 C2918 0.962 . S
H2932 C2918 0.960 . S
H2933 C2919 0.961 . S
H2934 C2919 0.961 . S
H2935 C2919 0.961 . S
H2936 C2920 0.931 . S
H2937 C2925 0.930 . S
H2938 C2926 0.956 . S
H2939 C2926 0.961 . S
H2940 C2926 0.961 . S
H2941 C2927 0.958 . S
H2942 C2927 0.961 . S
H2943 C2927 0.960 . S
C2944 C2945 1.391 . S
C2944 C2946 1.394 . S
C2944 H2960 0.931 . S
C2945 C2944 1.391 . S
C2945 C2949 1.376 . S
C2946 C2944 1.394 . S
C2946 C2947 1.369 . S
C2946 C2950 1.531 . S
C2947 C2946 1.369 . S
C2947 C2948 1.410 . S
C2947 C2955 1.503 . S
C2948 C2947 1.410 . S
C2948 C2949 1.392 . S
C2948 C2951 1.511 . S
C2949 C2945 1.376 . S
C2949 C2948 1.392 . S
C2949 H2961 0.929 . S
C2950 C2946 1.531 . S
C2950 H2962 0.960 . S
C2950 H2963 0.962 . S
C2950 H2964 0.960 . S
C2951 C2948 1.511 . S
C2951 H2965 0.961 . S
C2951 H2966 0.961 . S
C2951 H2967 0.961 . S
C2952 C2953 1.370 . S
C2952 C2954 1.363 . S
C2952 H2968 0.931 . S
C2953 C2952 1.370 . S
C2953 C2957 1.408 . S
C2954 C2952 1.363 . S
C2954 C2955 1.370 . S
C2954 C2958 1.524 . S
C2955 C2947 1.503 . S
C2955 C2954 1.370 . S
C2955 C2956 1.403 . S
C2956 C2955 1.403 . S
C2956 C2957 1.404 . S
C2956 C2959 1.539 . S
C2957 C2953 1.408 . S
C2957 C2956 1.404 . S
C2957 H2969 0.930 . S
C2958 C2954 1.524 . S
C2958 H2970 0.956 . S
C2958 H2971 0.961 . S
C2958 H2972 0.961 . S
C2959 C2956 1.539 . S
C2959 H2973 0.958 . S
C2959 H2974 0.961 . S
C2959 H2975 0.960 . S
H2960 C2944 0.931 . S
H2961 C2949 0.929 . S
H2962 C2950 0.960 . S
H2963 C2950 0.962 . S
H2964 C2950 0.960 . S
H2965 C2951 0.961 . S
H2966 C2951 0.961 . S
H2967 C2951 0.961 . S
H2968 C2952 0.931 . S
H2969 C2957 0.930 . S
H2970 C2958 0.956 . S
H2971 C2958 0.961 . S
H2972 C2958 0.961 . S
H2973 C2959 0.958 . S
H2974 C2959 0.961 . S
H2975 C2959 0.960 . S
C2976 C2977 1.391 . S
C2976 C2978 1.394 . S
C2976 H2992 0.931 . S
C2977 C2976 1.391 . S
C2977 C2981 1.376 . S
C2978 C2976 1.394 . S
C2978 C2979 1.369 . S
C2978 C2982 1.531 . S
C2979 C2978 1.369 . S
C2979 C2980 1.410 . S
C2979 C2987 1.503 . S
C2980 C2979 1.410 . S
C2980 C2981 1.392 . S
C2980 C2983 1.511 . S
C2981 C2977 1.376 . S
C2981 C2980 1.392 . S
C2981 H2993 0.929 . S
C2982 C2978 1.531 . S
C2982 H2994 0.960 . S
C2982 H2995 0.962 . S
C2982 H2996 0.960 . S
C2983 C2980 1.511 . S
C2983 H2997 0.961 . S
C2983 H2998 0.961 . S
C2983 H2999 0.961 . S
C2984 C2985 1.370 . S
C2984 C2986 1.363 . S
C2984 H3000 0.931 . S
C2985 C2984 1.370 . S
C2985 C2989 1.408 . S
C2986 C2984 1.363 . S
C2986 C2987 1.370 . S
C2986 C2990 1.524 . S
C2987 C2979 1.503 . S
C2987 C2986 1.370 . S
C2987 C2988 1.403 . S
C2988 C2987 1.403 . S
C2988 C2989 1.404 . S
C2988 C2991 1.539 . S
C2989 C2985 1.408 . S
C2989 C2988 1.404 . S
C2989 H3001 0.930 . S
C2990 C2986 1.524 . S
C2990 H3002 0.956 . S
C2990 H3003 0.961 . S
C2990 H3004 0.961 . S
C2991 C2988 1.539 . S
C2991 H3005 0.958 . S
C2991 H3006 0.961 . S
C2991 H3007 0.960 . S
H2992 C2976 0.931 . S
H2993 C2981 0.929 . S
H2994 C2982 0.960 . S
H2995 C2982 0.962 . S
H2996 C2982 0.960 . S
H2997 C2983 0.961 . S
H2998 C2983 0.961 . S
H2999 C2983 0.961 . S
H3000 C2984 0.931 . S
H3001 C2989 0.930 . S
H3002 C2990 0.956 . S
H3003 C2990 0.961 . S
H3004 C2990 0.961 . S
H3005 C2991 0.958 . S
H3006 C2991 0.961 . S
H3007 C2991 0.960 . S
C3008 C3009 1.391 . S
C3008 C3010 1.394 . S
C3008 H3024 0.931 . S
C3009 C3008 1.391 . S
C3009 C3013 1.376 . S
C3010 C3008 1.394 . S
C3010 C3011 1.369 . S
C3010 C3014 1.531 . S
C3011 C3010 1.369 . S
C3011 C3012 1.410 . S
C3011 C3019 1.503 1_545 S
C3012 C3011 1.410 . S
C3012 C3013 1.392 . S
C3012 C3015 1.511 . S
C3013 C3009 1.376 . S
C3013 C3012 1.392 . S
C3013 H3025 0.929 . S
C3014 C3010 1.531 . S
C3014 H3026 0.960 1_545 S
C3014 H3027 0.962 . S
C3014 H3028 0.960 . S
C3015 C3012 1.511 . S
C3015 H3029 0.961 . S
C3015 H3030 0.961 1_545 S
C3015 H3031 0.961 1_545 S
C3016 C3017 1.370 . S
C3016 C3018 1.363 . S
C3016 H3032 0.931 . S
C3017 C3016 1.370 . S
C3017 C3021 1.408 . S
C3018 C3016 1.363 . S
C3018 C3019 1.370 . S
C3018 C3022 1.524 1_565 S
C3019 C3011 1.503 1_565 S
C3019 C3018 1.370 . S
C3019 C3020 1.403 . S
C3020 C3019 1.403 . S
C3020 C3021 1.404 . S
C3020 C3023 1.539 . S
C3021 C3017 1.408 . S
C3021 C3020 1.404 . S
C3021 H3033 0.930 . S
C3022 C3018 1.524 1_545 S
C3022 H3034 0.956 . S
C3022 H3035 0.961 . S
C3022 H3036 0.961 . S
C3023 C3020 1.539 . S
C3023 H3037 0.958 . S
C3023 H3038 0.961 . S
C3023 H3039 0.960 . S
H3024 C3008 0.931 . S
H3025 C3013 0.929 . S
H3026 C3014 0.960 1_565 S
H3027 C3014 0.962 . S
H3028 C3014 0.960 . S
H3029 C3015 0.961 . S
H3030 C3015 0.961 1_565 S
H3031 C3015 0.961 1_565 S
H3032 C3016 0.931 . S
H3033 C3021 0.930 . S
H3034 C3022 0.956 . S
H3035 C3022 0.961 . S
H3036 C3022 0.961 . S
H3037 C3023 0.958 . S
H3038 C3023 0.961 . S
H3039 C3023 0.960 . S
C3040 C3041 1.391 . S
C3040 C3042 1.394 . S
C3040 H3056 0.931 . S
C3041 C3040 1.391 . S
C3041 C3045 1.376 . S
C3042 C3040 1.394 . S
C3042 C3043 1.369 . S
C3042 C3046 1.531 . S
C3043 C3042 1.369 . S
C3043 C3044 1.410 . S
C3043 C3051 1.503 . S
C3044 C3043 1.410 . S
C3044 C3045 1.392 . S
C3044 C3047 1.511 . S
C3045 C3041 1.376 . S
C3045 C3044 1.392 . S
C3045 H3057 0.929 . S
C3046 C3042 1.531 . S
C3046 H3058 0.960 . S
C3046 H3059 0.962 . S
C3046 H3060 0.960 . S
C3047 C3044 1.511 . S
C3047 H3061 0.961 . S
C3047 H3062 0.961 . S
C3047 H3063 0.961 . S
C3048 C3049 1.370 . S
C3048 C3050 1.363 . S
C3048 H3064 0.931 . S
C3049 C3048 1.370 . S
C3049 C3053 1.408 . S
C3050 C3048 1.363 . S
C3050 C3051 1.370 . S
C3050 C3054 1.524 . S
C3051 C3043 1.503 . S
C3051 C3050 1.370 . S
C3051 C3052 1.403 . S
C3052 C3051 1.403 . S
C3052 C3053 1.404 . S
C3052 C3055 1.539 . S
C3053 C3049 1.408 . S
C3053 C3052 1.404 . S
C3053 H3065 0.930 . S
C3054 C3050 1.524 . S
C3054 H3066 0.956 . S
C3054 H3067 0.961 . S
C3054 H3068 0.961 . S
C3055 C3052 1.539 . S
C3055 H3069 0.958 . S
C3055 H3070 0.961 . S
C3055 H3071 0.960 . S
H3056 C3040 0.931 . S
H3057 C3045 0.929 . S
H3058 C3046 0.960 . S
H3059 C3046 0.962 . S
H3060 C3046 0.960 . S
H3061 C3047 0.961 . S
H3062 C3047 0.961 . S
H3063 C3047 0.961 . S
H3064 C3048 0.931 . S
H3065 C3053 0.930 . S
H3066 C3054 0.956 . S
H3067 C3054 0.961 . S
H3068 C3054 0.961 . S
H3069 C3055 0.958 . S
H3070 C3055 0.961 . S
H3071 C3055 0.960 . S
C3072 C3073 1.391 . S
C3072 C3074 1.394 . S
C3072 H3088 0.931 . S
C3073 C3072 1.391 . S
C3073 C3077 1.376 . S
C3074 C3072 1.394 . S
C3074 C3075 1.369 . S
C3074 C3078 1.531 . S
C3075 C3074 1.369 . S
C3075 C3076 1.410 . S
C3075 C3083 1.503 1_554 S
C3076 C3075 1.410 . S
C3076 C3077 1.392 . S
C3076 C3079 1.511 1_554 S
C3077 C3073 1.376 . S
C3077 C3076 1.392 . S
C3077 H3089 0.929 . S
C3078 C3074 1.531 . S
C3078 H3090 0.960 1_554 S
C3078 H3091 0.962 . S
C3078 H3092 0.960 . S
C3079 C3076 1.511 1_556 S
C3079 H3093 0.961 1_556 S
C3079 H3094 0.961 . S
C3079 H3095 0.961 . S
C3080 C3081 1.370 . S
C3080 C3082 1.363 1_556 S
C3080 H3096 0.931 1_556 S
C3081 C3080 1.370 . S
C3081 C3085 1.408 . S
C3082 C3080 1.363 1_554 S
C3082 C3083 1.370 1_554 S
C3082 C3086 1.524 . S
C3083 C3075 1.503 1_556 S
C3083 C3082 1.370 1_556 S
C3083 C3084 1.403 . S
C3084 C3083 1.403 . S
C3084 C3085 1.404 . S
C3084 C3087 1.539 . S
C3085 C3081 1.408 . S
C3085 C3084 1.404 . S
C3085 H3097 0.930 . S
C3086 C3082 1.524 . S
C3086 H3098 0.956 . S
C3086 H3099 0.961 . S
C3086 H3100 0.961 . S
C3087 C3084 1.539 . S
C3087 H3101 0.958 . S
C3087 H3102 0.961 . S
C3087 H3103 0.960 . S
H3088 C3072 0.931 . S
H3089 C3077 0.929 . S
H3090 C3078 0.960 1_556 S
H3091 C3078 0.962 . S
H3092 C3078 0.960 . S
H3093 C3079 0.961 1_554 S
H3094 C3079 0.961 . S
H3095 C3079 0.961 . S
H3096 C3080 0.931 1_554 S
H3097 C3085 0.930 . S
H3098 C3086 0.956 . S
H3099 C3086 0.961 . S
H3100 C3086 0.961 . S
H3101 C3087 0.958 . S
H3102 C3087 0.961 . S
H3103 C3087 0.960 . S
C3104 C3105 1.391 . S
C3104 C3106 1.394 . S
C3104 H3120 0.931 . S
C3105 C3104 1.391 . S
C3105 C3109 1.376 . S
C3106 C3104 1.394 . S
C3106 C3107 1.369 . S
C3106 C3110 1.531 . S
C3107 C3106 1.369 . S
C3107 C3108 1.410 . S
C3107 C3115 1.503 . S
C3108 C3107 1.410 . S
C3108 C3109 1.392 . S
C3108 C3111 1.511 . S
C3109 C3105 1.376 . S
C3109 C3108 1.392 . S
C3109 H3121 0.929 . S
C3110 C3106 1.531 . S
C3110 H3122 0.960 . S
C3110 H3123 0.962 . S
C3110 H3124 0.960 . S
C3111 C3108 1.511 . S
C3111 H3125 0.961 . S
C3111 H3126 0.961 . S
C3111 H3127 0.961 . S
C3112 C3113 1.370 . S
C3112 C3114 1.363 . S
C3112 H3128 0.931 . S
C3113 C3112 1.370 . S
C3113 C3117 1.408 . S
C3114 C3112 1.363 . S
C3114 C3115 1.370 . S
C3114 C3118 1.524 . S
C3115 C3107 1.503 . S
C3115 C3114 1.370 . S
C3115 C3116 1.403 . S
C3116 C3115 1.403 . S
C3116 C3117 1.404 . S
C3116 C3119 1.539 . S
C3117 C3113 1.408 . S
C3117 C3116 1.404 . S
C3117 H3129 0.930 . S
C3118 C3114 1.524 . S
C3118 H3130 0.956 . S
C3118 H3131 0.961 . S
C3118 H3132 0.961 . S
C3119 C3116 1.539 . S
C3119 H3133 0.958 . S
C3119 H3134 0.961 . S
C3119 H3135 0.960 . S
H3120 C3104 0.931 . S
H3121 C3109 0.929 . S
H3122 C3110 0.960 . S
H3123 C3110 0.962 . S
H3124 C3110 0.960 . S
H3125 C3111 0.961 . S
H3126 C3111 0.961 . S
H3127 C3111 0.961 . S
H3128 C3112 0.931 . S
H3129 C3117 0.930 . S
H3130 C3118 0.956 . S
H3131 C3118 0.961 . S
H3132 C3118 0.961 . S
H3133 C3119 0.958 . S
H3134 C3119 0.961 . S
H3135 C3119 0.960 . S
C3136 C3137 1.391 . S
C3136 C3138 1.394 . S
C3136 H3152 0.931 . S
C3137 C3136 1.391 . S
C3137 C3141 1.376 . S
C3138 C3136 1.394 . S
C3138 C3139 1.369 . S
C3138 C3142 1.531 . S
C3139 C3138 1.369 . S
C3139 C3140 1.410 . S
C3139 C3147 1.503 . S
C3140 C3139 1.410 . S
C3140 C3141 1.392 . S
C3140 C3143 1.511 . S
C3141 C3137 1.376 . S
C3141 C3140 1.392 . S
C3141 H3153 0.929 . S
C3142 C3138 1.531 . S
C3142 H3154 0.960 . S
C3142 H3155 0.962 . S
C3142 H3156 0.960 . S
C3143 C3140 1.511 . S
C3143 H3157 0.961 . S
C3143 H3158 0.961 . S
C3143 H3159 0.961 . S
C3144 C3145 1.370 . S
C3144 C3146 1.363 . S
C3144 H3160 0.931 . S
C3145 C3144 1.370 . S
C3145 C3149 1.408 . S
C3146 C3144 1.363 . S
C3146 C3147 1.370 . S
C3146 C3150 1.524 . S
C3147 C3139 1.503 . S
C3147 C3146 1.370 . S
C3147 C3148 1.403 . S
C3148 C3147 1.403 . S
C3148 C3149 1.404 . S
C3148 C3151 1.539 . S
C3149 C3145 1.408 . S
C3149 C3148 1.404 . S
C3149 H3161 0.930 . S
C3150 C3146 1.524 . S
C3150 H3162 0.956 . S
C3150 H3163 0.961 . S
C3150 H3164 0.961 . S
C3151 C3148 1.539 . S
C3151 H3165 0.958 . S
C3151 H3166 0.961 . S
C3151 H3167 0.960 . S
H3152 C3136 0.931 . S
H3153 C3141 0.929 . S
H3154 C3142 0.960 . S
H3155 C3142 0.962 . S
H3156 C3142 0.960 . S
H3157 C3143 0.961 . S
H3158 C3143 0.961 . S
H3159 C3143 0.961 . S
H3160 C3144 0.931 . S
H3161 C3149 0.930 . S
H3162 C3150 0.956 . S
H3163 C3150 0.961 . S
H3164 C3150 0.961 . S
H3165 C3151 0.958 . S
H3166 C3151 0.961 . S
H3167 C3151 0.960 . S
C3168 C3169 1.391 . S
C3168 C3170 1.394 . S
C3168 H3184 0.931 . S
C3169 C3168 1.391 . S
C3169 C3173 1.376 . S
C3170 C3168 1.394 . S
C3170 C3171 1.369 . S
C3170 C3174 1.531 . S
C3171 C3170 1.369 . S
C3171 C3172 1.410 . S
C3171 C3179 1.503 . S
C3172 C3171 1.410 . S
C3172 C3173 1.392 . S
C3172 C3175 1.511 . S
C3173 C3169 1.376 . S
C3173 C3172 1.392 . S
C3173 H3185 0.929 . S
C3174 C3170 1.531 . S
C3174 H3186 0.960 . S
C3174 H3187 0.962 . S
C3174 H3188 0.960 . S
C3175 C3172 1.511 . S
C3175 H3189 0.961 . S
C3175 H3190 0.961 . S
C3175 H3191 0.961 . S
C3176 C3177 1.370 . S
C3176 C3178 1.363 . S
C3176 H3192 0.931 . S
C3177 C3176 1.370 . S
C3177 C3181 1.408 . S
C3178 C3176 1.363 . S
C3178 C3179 1.370 . S
C3178 C3182 1.524 . S
C3179 C3171 1.503 . S
C3179 C3178 1.370 . S
C3179 C3180 1.403 . S
C3180 C3179 1.403 . S
C3180 C3181 1.404 . S
C3180 C3183 1.539 . S
C3181 C3177 1.408 . S
C3181 C3180 1.404 . S
C3181 H3193 0.930 . S
C3182 C3178 1.524 . S
C3182 H3194 0.956 . S
C3182 H3195 0.961 . S
C3182 H3196 0.961 . S
C3183 C3180 1.539 . S
C3183 H3197 0.958 . S
C3183 H3198 0.961 . S
C3183 H3199 0.960 . S
H3184 C3168 0.931 . S
H3185 C3173 0.929 . S
H3186 C3174 0.960 . S
H3187 C3174 0.962 . S
H3188 C3174 0.960 . S
H3189 C3175 0.961 . S
H3190 C3175 0.961 . S
H3191 C3175 0.961 . S
H3192 C3176 0.931 . S
H3193 C3181 0.930 . S
H3194 C3182 0.956 . S
H3195 C3182 0.961 . S
H3196 C3182 0.961 . S
H3197 C3183 0.958 . S
H3198 C3183 0.961 . S
H3199 C3183 0.960 . S
C3200 C3201 1.391 . S
C3200 C3202 1.394 . S
C3200 H3216 0.931 . S
C3201 C3200 1.391 . S
C3201 C3205 1.376 . S
C3202 C3200 1.394 . S
C3202 C3203 1.369 . S
C3202 C3206 1.531 . S
C3203 C3202 1.369 . S
C3203 C3204 1.410 . S
C3203 C3211 1.503 . S
C3204 C3203 1.410 . S
C3204 C3205 1.392 . S
C3204 C3207 1.511 . S
C3205 C3201 1.376 . S
C3205 C3204 1.392 . S
C3205 H3217 0.929 . S
C3206 C3202 1.531 . S
C3206 H3218 0.960 . S
C3206 H3219 0.962 . S
C3206 H3220 0.960 . S
C3207 C3204 1.511 . S
C3207 H3221 0.961 . S
C3207 H3222 0.961 . S
C3207 H3223 0.961 . S
C3208 C3209 1.370 . S
C3208 C3210 1.363 . S
C3208 H3224 0.931 . S
C3209 C3208 1.370 . S
C3209 C3213 1.408 . S
C3210 C3208 1.363 . S
C3210 C3211 1.370 . S
C3210 C3214 1.524 . S
C3211 C3203 1.503 . S
C3211 C3210 1.370 . S
C3211 C3212 1.403 . S
C3212 C3211 1.403 . S
C3212 C3213 1.404 . S
C3212 C3215 1.539 . S
C3213 C3209 1.408 . S
C3213 C3212 1.404 . S
C3213 H3225 0.930 . S
C3214 C3210 1.524 . S
C3214 H3226 0.956 . S
C3214 H3227 0.961 . S
C3214 H3228 0.961 . S
C3215 C3212 1.539 . S
C3215 H3229 0.958 . S
C3215 H3230 0.961 . S
C3215 H3231 0.960 . S
H3216 C3200 0.931 . S
H3217 C3205 0.929 . S
H3218 C3206 0.960 . S
H3219 C3206 0.962 . S
H3220 C3206 0.960 . S
H3221 C3207 0.961 . S
H3222 C3207 0.961 . S
H3223 C3207 0.961 . S
H3224 C3208 0.931 . S
H3225 C3213 0.930 . S
H3226 C3214 0.956 . S
H3227 C3214 0.961 . S
H3228 C3214 0.961 . S
H3229 C3215 0.958 . S
H3230 C3215 0.961 . S
H3231 C3215 0.960 . S
C3232 C3233 1.391 . S
C3232 C3234 1.394 . S
C3232 H3248 0.931 . S
C3233 C3232 1.391 . S
C3233 C3237 1.376 . S
C3234 C3232 1.394 . S
C3234 C3235 1.369 . S
C3234 C3238 1.531 . S
C3235 C3234 1.369 . S
C3235 C3236 1.410 . S
C3235 C3243 1.503 . S
C3236 C3235 1.410 . S
C3236 C3237 1.392 . S
C3236 C3239 1.511 . S
C3237 C3233 1.376 . S
C3237 C3236 1.392 . S
C3237 H3249 0.929 1_554 S
C3238 C3234 1.531 . S
C3238 H3250 0.960 . S
C3238 H3251 0.962 . S
C3238 H3252 0.960 . S
C3239 C3236 1.511 . S
C3239 H3253 0.961 . S
C3239 H3254 0.961 . S
C3239 H3255 0.961 . S
C3240 C3241 1.370 . S
C3240 C3242 1.363 . S
C3240 H3256 0.931 . S
C3241 C3240 1.370 . S
C3241 C3245 1.408 . S
C3242 C3240 1.363 . S
C3242 C3243 1.370 . S
C3242 C3246 1.524 . S
C3243 C3235 1.503 . S
C3243 C3242 1.370 . S
C3243 C3244 1.403 . S
C3244 C3243 1.403 . S
C3244 C3245 1.404 . S
C3244 C3247 1.539 . S
C3245 C3241 1.408 . S
C3245 C3244 1.404 . S
C3245 H3257 0.930 . S
C3246 C3242 1.524 . S
C3246 H3258 0.956 . S
C3246 H3259 0.961 . S
C3246 H3260 0.961 . S
C3247 C3244 1.539 . S
C3247 H3261 0.958 . S
C3247 H3262 0.961 . S
C3247 H3263 0.960 . S
H3248 C3232 0.931 . S
H3249 C3237 0.929 1_556 S
H3250 C3238 0.960 . S
H3251 C3238 0.962 . S
H3252 C3238 0.960 . S
H3253 C3239 0.961 . S
H3254 C3239 0.961 . S
H3255 C3239 0.961 . S
H3256 C3240 0.931 . S
H3257 C3245 0.930 . S
H3258 C3246 0.956 . S
H3259 C3246 0.961 . S
H3260 C3246 0.961 . S
H3261 C3247 0.958 . S
H3262 C3247 0.961 . S
H3263 C3247 0.960 . S
C3264 C3265 1.391 . S
C3264 C3266 1.394 . S
C3264 H3280 0.931 . S
C3265 C3264 1.391 . S
C3265 C3269 1.376 . S
C3266 C3264 1.394 . S
C3266 C3267 1.369 . S
C3266 C3270 1.531 . S
C3267 C3266 1.369 . S
C3267 C3268 1.410 . S
C3267 C3275 1.503 . S
C3268 C3267 1.410 . S
C3268 C3269 1.392 . S
C3268 C3271 1.511 . S
C3269 C3265 1.376 . S
C3269 C3268 1.392 . S
C3269 H3281 0.929 . S
C3270 C3266 1.531 . S
C3270 H3282 0.960 . S
C3270 H3283 0.962 . S
C3270 H3284 0.960 . S
C3271 C3268 1.511 . S
C3271 H3285 0.961 . S
C3271 H3286 0.961 . S
C3271 H3287 0.961 . S
C3272 C3273 1.370 . S
C3272 C3274 1.363 . S
C3272 H3288 0.931 . S
C3273 C3272 1.370 . S
C3273 C3277 1.408 . S
C3274 C3272 1.363 . S
C3274 C3275 1.370 . S
C3274 C3278 1.524 . S
C3275 C3267 1.503 . S
C3275 C3274 1.370 . S
C3275 C3276 1.403 . S
C3276 C3275 1.403 . S
C3276 C3277 1.404 . S
C3276 C3279 1.539 . S
C3277 C3273 1.408 . S
C3277 C3276 1.404 . S
C3277 H3289 0.930 1_554 S
C3278 C3274 1.524 . S
C3278 H3290 0.956 . S
C3278 H3291 0.961 . S
C3278 H3292 0.961 . S
C3279 C3276 1.539 . S
C3279 H3293 0.958 . S
C3279 H3294 0.961 . S
C3279 H3295 0.960 . S
H3280 C3264 0.931 . S
H3281 C3269 0.929 . S
H3282 C3270 0.960 . S
H3283 C3270 0.962 . S
H3284 C3270 0.960 . S
H3285 C3271 0.961 . S
H3286 C3271 0.961 . S
H3287 C3271 0.961 . S
H3288 C3272 0.931 . S
H3289 C3277 0.930 1_556 S
H3290 C3278 0.956 . S
H3291 C3278 0.961 . S
H3292 C3278 0.961 . S
H3293 C3279 0.958 . S
H3294 C3279 0.961 . S
H3295 C3279 0.960 . S
C3296 C3297 1.391 . S
C3296 C3298 1.394 . S
C3296 H3312 0.931 . S
C3297 C3296 1.391 . S
C3297 C3301 1.376 . S
C3298 C3296 1.394 . S
C3298 C3299 1.369 . S
C3298 C3302 1.531 . S
C3299 C3298 1.369 . S
C3299 C3300 1.410 . S
C3299 C3307 1.503 . S
C3300 C3299 1.410 . S
C3300 C3301 1.392 . S
C3300 C3303 1.511 . S
C3301 C3297 1.376 . S
C3301 C3300 1.392 . S
C3301 H3313 0.929 1_556 S
C3302 C3298 1.531 . S
C3302 H3314 0.960 . S
C3302 H3315 0.962 . S
C3302 H3316 0.960 . S
C3303 C3300 1.511 . S
C3303 H3317 0.961 . S
C3303 H3318 0.961 . S
C3303 H3319 0.961 . S
C3304 C3305 1.370 . S
C3304 C3306 1.363 . S
C3304 H3320 0.931 . S
C3305 C3304 1.370 . S
C3305 C3309 1.408 . S
C3306 C3304 1.363 . S
C3306 C3307 1.370 . S
C3306 C3310 1.524 . S
C3307 C3299 1.503 . S
C3307 C3306 1.370 . S
C3307 C3308 1.403 . S
C3308 C3307 1.403 . S
C3308 C3309 1.404 . S
C3308 C3311 1.539 . S
C3309 C3305 1.408 . S
C3309 C3308 1.404 . S
C3309 H3321 0.930 . S
C3310 C3306 1.524 . S
C3310 H3322 0.956 . S
C3310 H3323 0.961 . S
C3310 H3324 0.961 . S
C3311 C3308 1.539 . S
C3311 H3325 0.958 . S
C3311 H3326 0.961 . S
C3311 H3327 0.960 . S
H3312 C3296 0.931 . S
H3313 C3301 0.929 1_554 S
H3314 C3302 0.960 . S
H3315 C3302 0.962 . S
H3316 C3302 0.960 . S
H3317 C3303 0.961 . S
H3318 C3303 0.961 . S
H3319 C3303 0.961 . S
H3320 C3304 0.931 . S
H3321 C3309 0.930 . S
H3322 C3310 0.956 . S
H3323 C3310 0.961 . S
H3324 C3310 0.961 . S
H3325 C3311 0.958 . S
H3326 C3311 0.961 . S
H3327 C3311 0.960 . S
C3328 C3329 1.391 . S
C3328 C3330 1.394 . S
C3328 H3344 0.931 . S
C3329 C3328 1.391 . S
C3329 C3333 1.376 . S
C3330 C3328 1.394 . S
C3330 C3331 1.369 . S
C3330 C3334 1.531 . S
C3331 C3330 1.369 . S
C3331 C3332 1.410 . S
C3331 C3339 1.503 . S
C3332 C3331 1.410 . S
C3332 C3333 1.392 . S
C3332 C3335 1.511 . S
C3333 C3329 1.376 . S
C3333 C3332 1.392 . S
C3333 H3345 0.929 1_556 S
C3334 C3330 1.531 . S
C3334 H3346 0.960 . S
C3334 H3347 0.962 . S
C3334 H3348 0.960 . S
C3335 C3332 1.511 . S
C3335 H3349 0.961 . S
C3335 H3350 0.961 . S
C3335 H3351 0.961 . S
C3336 C3337 1.370 . S
C3336 C3338 1.363 . S
C3336 H3352 0.931 . S
C3337 C3336 1.370 . S
C3337 C3341 1.408 . S
C3338 C3336 1.363 . S
C3338 C3339 1.370 . S
C3338 C3342 1.524 . S
C3339 C3331 1.503 . S
C3339 C3338 1.370 . S
C3339 C3340 1.403 . S
C3340 C3339 1.403 . S
C3340 C3341 1.404 . S
C3340 C3343 1.539 . S
C3341 C3337 1.408 . S
C3341 C3340 1.404 . S
C3341 H3353 0.930 . S
C3342 C3338 1.524 . S
C3342 H3354 0.956 . S
C3342 H3355 0.961 . S
C3342 H3356 0.961 . S
C3343 C3340 1.539 . S
C3343 H3357 0.958 . S
C3343 H3358 0.961 . S
C3343 H3359 0.960 . S
H3344 C3328 0.931 . S
H3345 C3333 0.929 1_554 S
H3346 C3334 0.960 . S
H3347 C3334 0.962 . S
H3348 C3334 0.960 . S
H3349 C3335 0.961 . S
H3350 C3335 0.961 . S
H3351 C3335 0.961 . S
H3352 C3336 0.931 . S
H3353 C3341 0.930 . S
H3354 C3342 0.956 . S
H3355 C3342 0.961 . S
H3356 C3342 0.961 . S
H3357 C3343 0.958 . S
H3358 C3343 0.961 . S
H3359 C3343 0.960 . S
C3360 C3361 1.391 . S
C3360 C3362 1.394 . S
C3360 H3376 0.931 . S
C3361 C3360 1.391 . S
C3361 C3365 1.376 . S
C3362 C3360 1.394 . S
C3362 C3363 1.369 . S
C3362 C3366 1.531 . S
C3363 C3362 1.369 . S
C3363 C3364 1.410 . S
C3363 C3371 1.503 . S
C3364 C3363 1.410 . S
C3364 C3365 1.392 . S
C3364 C3367 1.511 . S
C3365 C3361 1.376 . S
C3365 C3364 1.392 . S
C3365 H3377 0.929 1_554 S
C3366 C3362 1.531 . S
C3366 H3378 0.960 . S
C3366 H3379 0.962 . S
C3366 H3380 0.960 . S
C3367 C3364 1.511 . S
C3367 H3381 0.961 . S
C3367 H3382 0.961 . S
C3367 H3383 0.961 . S
C3368 C3369 1.370 . S
C3368 C3370 1.363 . S
C3368 H3384 0.931 . S
C3369 C3368 1.370 . S
C3369 C3373 1.408 . S
C3370 C3368 1.363 . S
C3370 C3371 1.370 . S
C3370 C3374 1.524 . S
C3371 C3363 1.503 . S
C3371 C3370 1.370 . S
C3371 C3372 1.403 . S
C3372 C3371 1.403 . S
C3372 C3373 1.404 . S
C3372 C3375 1.539 . S
C3373 C3369 1.408 . S
C3373 C3372 1.404 . S
C3373 H3385 0.930 . S
C3374 C3370 1.524 . S
C3374 H3386 0.956 . S
C3374 H3387 0.961 . S
C3374 H3388 0.961 . S
C3375 C3372 1.539 . S
C3375 H3389 0.958 . S
C3375 H3390 0.961 . S
C3375 H3391 0.960 . S
H3376 C3360 0.931 . S
H3377 C3365 0.929 1_556 S
H3378 C3366 0.960 . S
H3379 C3366 0.962 . S
H3380 C3366 0.960 . S
H3381 C3367 0.961 . S
H3382 C3367 0.961 . S
H3383 C3367 0.961 . S
H3384 C3368 0.931 . S
H3385 C3373 0.930 . S
H3386 C3374 0.956 . S
H3387 C3374 0.961 . S
H3388 C3374 0.961 . S
H3389 C3375 0.958 . S
H3390 C3375 0.961 . S
H3391 C3375 0.960 . S
C3392 C3393 1.391 . S
C3392 C3394 1.394 . S
C3392 H3408 0.931 . S
C3393 C3392 1.391 . S
C3393 C3397 1.376 . S
C3394 C3392 1.394 . S
C3394 C3395 1.369 . S
C3394 C3398 1.531 . S
C3395 C3394 1.369 . S
C3395 C3396 1.410 . S
C3395 C3403 1.503 . S
C3396 C3395 1.410 . S
C3396 C3397 1.392 . S
C3396 C3399 1.511 . S
C3397 C3393 1.376 . S
C3397 C3396 1.392 . S
C3397 H3409 0.929 1_554 S
C3398 C3394 1.531 . S
C3398 H3410 0.960 . S
C3398 H3411 0.962 . S
C3398 H3412 0.960 . S
C3399 C3396 1.511 . S
C3399 H3413 0.961 . S
C3399 H3414 0.961 . S
C3399 H3415 0.961 . S
C3400 C3401 1.370 . S
C3400 C3402 1.363 . S
C3400 H3416 0.931 . S
C3401 C3400 1.370 . S
C3401 C3405 1.408 . S
C3402 C3400 1.363 . S
C3402 C3403 1.370 . S
C3402 C3406 1.524 . S
C3403 C3395 1.503 . S
C3403 C3402 1.370 . S
C3403 C3404 1.403 . S
C3404 C3403 1.403 . S
C3404 C3405 1.404 . S
C3404 C3407 1.539 . S
C3405 C3401 1.408 . S
C3405 C3404 1.404 . S
C3405 H3417 0.930 . S
C3406 C3402 1.524 . S
C3406 H3418 0.956 . S
C3406 H3419 0.961 . S
C3406 H3420 0.961 . S
C3407 C3404 1.539 . S
C3407 H3421 0.958 . S
C3407 H3422 0.961 . S
C3407 H3423 0.960 . S
H3408 C3392 0.931 . S
H3409 C3397 0.929 1_556 S
H3410 C3398 0.960 . S
H3411 C3398 0.962 . S
H3412 C3398 0.960 . S
H3413 C3399 0.961 . S
H3414 C3399 0.961 . S
H3415 C3399 0.961 . S
H3416 C3400 0.931 . S
H3417 C3405 0.930 . S
H3418 C3406 0.956 . S
H3419 C3406 0.961 . S
H3420 C3406 0.961 . S
H3421 C3407 0.958 . S
H3422 C3407 0.961 . S
H3423 C3407 0.960 . S
C3424 C3425 1.391 . S
C3424 C3426 1.394 . S
C3424 H3440 0.931 . S
C3425 C3424 1.391 . S
C3425 C3429 1.376 . S
C3426 C3424 1.394 . S
C3426 C3427 1.369 . S
C3426 C3430 1.531 . S
C3427 C3426 1.369 . S
C3427 C3428 1.410 . S
C3427 C3435 1.503 . S
C3428 C3427 1.410 . S
C3428 C3429 1.392 . S
C3428 C3431 1.511 . S
C3429 C3425 1.376 . S
C3429 C3428 1.392 . S
C3429 H3441 0.929 1_556 S
C3430 C3426 1.531 . S
C3430 H3442 0.960 . S
C3430 H3443 0.962 . S
C3430 H3444 0.960 . S
C3431 C3428 1.511 . S
C3431 H3445 0.961 . S
C3431 H3446 0.961 . S
C3431 H3447 0.961 . S
C3432 C3433 1.370 . S
C3432 C3434 1.363 . S
C3432 H3448 0.931 . S
C3433 C3432 1.370 . S
C3433 C3437 1.408 . S
C3434 C3432 1.363 . S
C3434 C3435 1.370 . S
C3434 C3438 1.524 . S
C3435 C3427 1.503 . S
C3435 C3434 1.370 . S
C3435 C3436 1.403 . S
C3436 C3435 1.403 . S
C3436 C3437 1.404 . S
C3436 C3439 1.539 . S
C3437 C3433 1.408 . S
C3437 C3436 1.404 . S
C3437 H3449 0.930 . S
C3438 C3434 1.524 . S
C3438 H3450 0.956 . S
C3438 H3451 0.961 . S
C3438 H3452 0.961 . S
C3439 C3436 1.539 . S
C3439 H3453 0.958 . S
C3439 H3454 0.961 . S
C3439 H3455 0.960 . S
H3440 C3424 0.931 . S
H3441 C3429 0.929 1_554 S
H3442 C3430 0.960 . S
H3443 C3430 0.962 . S
H3444 C3430 0.960 . S
H3445 C3431 0.961 . S
H3446 C3431 0.961 . S
H3447 C3431 0.961 . S
H3448 C3432 0.931 . S
H3449 C3437 0.930 . S
H3450 C3438 0.956 . S
H3451 C3438 0.961 . S
H3452 C3438 0.961 . S
H3453 C3439 0.958 . S
H3454 C3439 0.961 . S
H3455 C3439 0.960 . S
C3456 C3457 1.391 . S
C3456 C3458 1.394 . S
C3456 H3472 0.931 . S
C3457 C3456 1.391 . S
C3457 C3461 1.376 . S
C3458 C3456 1.394 . S
C3458 C3459 1.369 . S
C3458 C3462 1.531 . S
C3459 C3458 1.369 . S
C3459 C3460 1.410 . S
C3459 C3467 1.503 . S
C3460 C3459 1.410 . S
C3460 C3461 1.392 . S
C3460 C3463 1.511 . S
C3461 C3457 1.376 . S
C3461 C3460 1.392 . S
C3461 H3473 0.929 1_556 S
C3462 C3458 1.531 . S
C3462 H3474 0.960 . S
C3462 H3475 0.962 . S
C3462 H3476 0.960 . S
C3463 C3460 1.511 . S
C3463 H3477 0.961 . S
C3463 H3478 0.961 . S
C3463 H3479 0.961 . S
C3464 C3465 1.370 . S
C3464 C3466 1.363 . S
C3464 H3480 0.931 . S
C3465 C3464 1.370 . S
C3465 C3469 1.408 . S
C3466 C3464 1.363 . S
C3466 C3467 1.370 . S
C3466 C3470 1.524 . S
C3467 C3459 1.503 . S
C3467 C3466 1.370 . S
C3467 C3468 1.403 . S
C3468 C3467 1.403 . S
C3468 C3469 1.404 . S
C3468 C3471 1.539 . S
C3469 C3465 1.408 . S
C3469 C3468 1.404 . S
C3469 H3481 0.930 . S
C3470 C3466 1.524 . S
C3470 H3482 0.956 . S
C3470 H3483 0.961 . S
C3470 H3484 0.961 . S
C3471 C3468 1.539 . S
C3471 H3485 0.958 . S
C3471 H3486 0.961 . S
C3471 H3487 0.960 . S
H3472 C3456 0.931 . S
H3473 C3461 0.929 1_554 S
H3474 C3462 0.960 . S
H3475 C3462 0.962 . S
H3476 C3462 0.960 . S
H3477 C3463 0.961 . S
H3478 C3463 0.961 . S
H3479 C3463 0.961 . S
H3480 C3464 0.931 . S
H3481 C3469 0.930 . S
H3482 C3470 0.956 . S
H3483 C3470 0.961 . S
H3484 C3470 0.961 . S
H3485 C3471 0.958 . S
H3486 C3471 0.961 . S
H3487 C3471 0.960 . S
C3488 C3489 1.391 . S
C3488 C3490 1.394 . S
C3488 H3504 0.931 . S
C3489 C3488 1.391 . S
C3489 C3493 1.376 . S
C3490 C3488 1.394 . S
C3490 C3491 1.369 . S
C3490 C3494 1.531 . S
C3491 C3490 1.369 . S
C3491 C3492 1.410 . S
C3491 C3499 1.503 . S
C3492 C3491 1.410 . S
C3492 C3493 1.392 . S
C3492 C3495 1.511 . S
C3493 C3489 1.376 . S
C3493 C3492 1.392 . S
C3493 H3505 0.929 . S
C3494 C3490 1.531 . S
C3494 H3506 0.960 . S
C3494 H3507 0.962 . S
C3494 H3508 0.960 . S
C3495 C3492 1.511 . S
C3495 H3509 0.961 . S
C3495 H3510 0.961 . S
C3495 H3511 0.961 . S
C3496 C3497 1.370 . S
C3496 C3498 1.363 . S
C3496 H3512 0.931 . S
C3497 C3496 1.370 . S
C3497 C3501 1.408 . S
C3498 C3496 1.363 . S
C3498 C3499 1.370 . S
C3498 C3502 1.524 . S
C3499 C3491 1.503 . S
C3499 C3498 1.370 . S
C3499 C3500 1.403 . S
C3500 C3499 1.403 . S
C3500 C3501 1.404 . S
C3500 C3503 1.539 . S
C3501 C3497 1.408 . S
C3501 C3500 1.404 . S
C3501 H3513 0.930 . S
C3502 C3498 1.524 . S
C3502 H3514 0.956 . S
C3502 H3515 0.961 . S
C3502 H3516 0.961 . S
C3503 C3500 1.539 . S
C3503 H3517 0.958 . S
C3503 H3518 0.961 . S
C3503 H3519 0.960 . S
H3504 C3488 0.931 . S
H3505 C3493 0.929 . S
H3506 C3494 0.960 . S
H3507 C3494 0.962 . S
H3508 C3494 0.960 . S
H3509 C3495 0.961 . S
H3510 C3495 0.961 . S
H3511 C3495 0.961 . S
H3512 C3496 0.931 . S
H3513 C3501 0.930 . S
H3514 C3502 0.956 . S
H3515 C3502 0.961 . S
H3516 C3502 0.961 . S
H3517 C3503 0.958 . S
H3518 C3503 0.961 . S
H3519 C3503 0.960 . S
C3520 C3521 1.391 . S
C3520 C3522 1.394 . S
C3520 H3536 0.931 . S
C3521 C3520 1.391 . S
C3521 C3525 1.376 . S
C3522 C3520 1.394 . S
C3522 C3523 1.369 . S
C3522 C3526 1.531 . S
C3523 C3522 1.369 . S
C3523 C3524 1.410 . S
C3523 C3531 1.503 . S
C3524 C3523 1.410 . S
C3524 C3525 1.392 . S
C3524 C3527 1.511 . S
C3525 C3521 1.376 . S
C3525 C3524 1.392 . S
C3525 H3537 0.929 . S
C3526 C3522 1.531 . S
C3526 H3538 0.960 . S
C3526 H3539 0.962 . S
C3526 H3540 0.960 . S
C3527 C3524 1.511 . S
C3527 H3541 0.961 . S
C3527 H3542 0.961 . S
C3527 H3543 0.961 . S
C3528 C3529 1.370 . S
C3528 C3530 1.363 . S
C3528 H3544 0.931 . S
C3529 C3528 1.370 . S
C3529 C3533 1.408 . S
C3530 C3528 1.363 . S
C3530 C3531 1.370 . S
C3530 C3534 1.524 . S
C3531 C3523 1.503 . S
C3531 C3530 1.370 . S
C3531 C3532 1.403 . S
C3532 C3531 1.403 . S
C3532 C3533 1.404 . S
C3532 C3535 1.539 . S
C3533 C3529 1.408 . S
C3533 C3532 1.404 . S
C3533 H3545 0.930 . S
C3534 C3530 1.524 . S
C3534 H3546 0.956 . S
C3534 H3547 0.961 . S
C3534 H3548 0.961 . S
C3535 C3532 1.539 . S
C3535 H3549 0.958 . S
C3535 H3550 0.961 . S
C3535 H3551 0.960 . S
H3536 C3520 0.931 . S
H3537 C3525 0.929 . S
H3538 C3526 0.960 . S
H3539 C3526 0.962 . S
H3540 C3526 0.960 . S
H3541 C3527 0.961 . S
H3542 C3527 0.961 . S
H3543 C3527 0.961 . S
H3544 C3528 0.931 . S
H3545 C3533 0.930 . S
H3546 C3534 0.956 . S
H3547 C3534 0.961 . S
H3548 C3534 0.961 . S
H3549 C3535 0.958 . S
H3550 C3535 0.961 . S
H3551 C3535 0.960 . S
C3552 C3553 1.391 . S
C3552 C3554 1.394 . S
C3552 H3568 0.931 . S
C3553 C3552 1.391 . S
C3553 C3557 1.376 . S
C3554 C3552 1.394 . S
C3554 C3555 1.369 . S
C3554 C3558 1.531 . S
C3555 C3554 1.369 . S
C3555 C3556 1.410 . S
C3555 C3563 1.503 . S
C3556 C3555 1.410 . S
C3556 C3557 1.392 . S
C3556 C3559 1.511 . S
C3557 C3553 1.376 . S
C3557 C3556 1.392 . S
C3557 H3569 0.929 . S
C3558 C3554 1.531 . S
C3558 H3570 0.960 . S
C3558 H3571 0.962 . S
C3558 H3572 0.960 . S
C3559 C3556 1.511 . S
C3559 H3573 0.961 . S
C3559 H3574 0.961 . S
C3559 H3575 0.961 . S
C3560 C3561 1.370 . S
C3560 C3562 1.363 . S
C3560 H3576 0.931 . S
C3561 C3560 1.370 . S
C3561 C3565 1.408 . S
C3562 C3560 1.363 . S
C3562 C3563 1.370 . S
C3562 C3566 1.524 . S
C3563 C3555 1.503 . S
C3563 C3562 1.370 . S
C3563 C3564 1.403 . S
C3564 C3563 1.403 . S
C3564 C3565 1.404 . S
C3564 C3567 1.539 . S
C3565 C3561 1.408 . S
C3565 C3564 1.404 . S
C3565 H3577 0.930 . S
C3566 C3562 1.524 . S
C3566 H3578 0.956 . S
C3566 H3579 0.961 . S
C3566 H3580 0.961 . S
C3567 C3564 1.539 . S
C3567 H3581 0.958 . S
C3567 H3582 0.961 . S
C3567 H3583 0.960 . S
H3568 C3552 0.931 . S
H3569 C3557 0.929 . S
H3570 C3558 0.960 . S
H3571 C3558 0.962 . S
H3572 C3558 0.960 . S
H3573 C3559 0.961 . S
H3574 C3559 0.961 . S
H3575 C3559 0.961 . S
H3576 C3560 0.931 . S
H3577 C3565 0.930 . S
H3578 C3566 0.956 . S
H3579 C3566 0.961 . S
H3580 C3566 0.961 . S
H3581 C3567 0.958 . S
H3582 C3567 0.961 . S
H3583 C3567 0.960 . S
C3584 C3585 1.391 . S
C3584 C3586 1.394 . S
C3584 H3600 0.931 . S
C3585 C3584 1.391 . S
C3585 C3589 1.376 . S
C3586 C3584 1.394 . S
C3586 C3587 1.369 . S
C3586 C3590 1.531 . S
C3587 C3586 1.369 . S
C3587 C3588 1.410 . S
C3587 C3595 1.503 . S
C3588 C3587 1.410 . S
C3588 C3589 1.392 . S
C3588 C3591 1.511 . S
C3589 C3585 1.376 . S
C3589 C3588 1.392 . S
C3589 H3601 0.929 . S
C3590 C3586 1.531 . S
C3590 H3602 0.960 . S
C3590 H3603 0.962 . S
C3590 H3604 0.960 . S
C3591 C3588 1.511 . S
C3591 H3605 0.961 . S
C3591 H3606 0.961 . S
C3591 H3607 0.961 . S
C3592 C3593 1.370 . S
C3592 C3594 1.363 . S
C3592 H3608 0.931 . S
C3593 C3592 1.370 . S
C3593 C3597 1.408 . S
C3594 C3592 1.363 . S
C3594 C3595 1.370 . S
C3594 C3598 1.524 . S
C3595 C3587 1.503 . S
C3595 C3594 1.370 . S
C3595 C3596 1.403 . S
C3596 C3595 1.403 . S
C3596 C3597 1.404 . S
C3596 C3599 1.539 . S
C3597 C3593 1.408 . S
C3597 C3596 1.404 . S
C3597 H3609 0.930 . S
C3598 C3594 1.524 . S
C3598 H3610 0.956 . S
C3598 H3611 0.961 . S
C3598 H3612 0.961 . S
C3599 C3596 1.539 . S
C3599 H3613 0.958 . S
C3599 H3614 0.961 . S
C3599 H3615 0.960 . S
H3600 C3584 0.931 . S
H3601 C3589 0.929 . S
H3602 C3590 0.960 . S
H3603 C3590 0.962 . S
H3604 C3590 0.960 . S
H3605 C3591 0.961 . S
H3606 C3591 0.961 . S
H3607 C3591 0.961 . S
H3608 C3592 0.931 . S
H3609 C3597 0.930 . S
H3610 C3598 0.956 . S
H3611 C3598 0.961 . S
H3612 C3598 0.961 . S
H3613 C3599 0.958 . S
H3614 C3599 0.961 . S
H3615 C3599 0.960 . S
C1057 C106 0.991 1_554 S
C1065 C7 0.996 . S
C1089 C40 1.000 . S
C1097 C73 0.999 1_554 S
C1121 C139 1.002 . S
C1129 C238 1.000 1_556 S
C1153 C172 0.999 . S
C1161 C205 0.999 1_556 S
C1185 C370 0.997 . S
C1193 C271 0.997 . S
C1217 C304 0.990 . S
C1225 C337 0.996 . S
C1249 C502 1.001 . S
C1257 C403 1.000 . S
C1281 C436 1.000 . S
C1289 C469 0.999 . S
C1313 C535 0.990 . S
C1321 C634 0.995 . S
C1345 C601 1.001 . S
C1353 C568 1.000 . S
C1377 C766 0.994 . S
C1385 C667 0.997 . S
C1409 C733 0.993 . S
C1417 C700 0.996 . S
C1441 C898 0.995 1_554 S
C1449 C799 0.998 . S
C1473 C865 0.990 1_554 S
C1481 C832 0.995 . S
C1505 C1030 0.995 1_556 S
C1513 C931 0.998 . S
C1537 C997 0.991 1_556 S
C1545 C964 0.996 . S
C1569 C648 0.740 . S
C1577 C21 0.756 . S
C1601 C615 0.770 . S
C1609 C54 0.762 . S
C1633 C582 0.767 . S
C1641 C87 0.750 . S
C1665 C549 0.776 . S
C1673 C120 0.760 . S
C1697 C780 0.728 . S
C1705 C153 0.748 . S
C1729 C747 0.728 . S
C1737 C186 0.748 . S
C1761 C219 0.735 . S
C1769 C714 0.743 . S
C1793 C681 0.775 . S
C1801 C252 0.759 . S
C1825 C912 0.735 . S
C1833 C285 0.753 . S
C1857 C879 0.752 . S
C1865 C318 0.760 . S
C1889 C351 0.772 . S
C1897 C846 0.762 . S
C1921 C384 0.766 . S
C1929 C813 0.762 . S
C1953 C1044 0.757 . S
C1961 C417 0.744 . S
C1985 C1011 0.759 . S
C1993 C450 0.762 . S
C2017 C483 0.735 . S
C2025 C978 0.743 . S
C2049 C945 0.775 . S
C2057 C516 0.759 . S
C2081 N13 1.568 . S
C2089 N46 1.566 . S
C2113 N79 1.550 . S
C2121 N112 1.575 . S
C2145 N145 1.599 . S
C2153 N178 1.589 . S
C2177 N211 1.597 . S
C2185 N244 1.589 . S
C2209 N277 1.540 . S
C2217 N310 1.563 . S
C2241 N376 1.603 . S
C2249 N343 1.584 . S
C2273 N442 1.546 . S
C2281 N409 1.563 . S
C2305 N475 1.585 . S
C2313 N508 1.585 . S
C2337 N574 1.540 . S
C2345 N541 1.563 . S
C2369 N640 1.544 . S
C2377 N607 1.571 . S
C2401 N673 1.603 . S
C2409 N706 1.589 . S
C2433 N772 1.604 . S
C2441 N739 1.588 . S
C2465 N805 1.600 . S
C2473 N838 1.581 . S
C2497 N904 1.601 . S
C2505 N871 1.581 . S
C2529 N937 1.579 . S
C2537 N970 1.583 . S
C2561 N1003 1.593 . S
C2569 N1036 1.581 . S
C2593 N398 1.875 . S
C2601 N2 1.893 . S
C2625 N695 1.891 . S
C2633 N35 1.887 . S
C2657 N68 1.887 . S
C2665 N200 1.888 . S
C2689 N1025 1.879 . S
C2697 N101 1.893 . S
C2721 N266 1.879 . S
C2729 N134 1.891 . S
C2753 N563 1.890 . S
C2761 N167 1.886 . S
C2785 N893 1.881 . S
C2793 N233 1.891 . S
C2817 N299 1.883 . S
C2825 N959 1.890 . S
C2849 N464 1.880 . S
C2857 N332 1.892 . S
C2881 N761 1.880 . S
C2889 N365 1.893 . S
C2913 N431 1.876 . S
C2921 N827 1.892 . S
C2945 N497 1.889 . S
C2953 N629 1.888 . S
C2977 N926 1.877 . S
C2985 N530 1.892 . S
C3009 N596 1.888 . S
C3017 N728 1.888 . S
C3041 N662 1.888 . S
C3049 N794 1.887 . S
C3073 N992 1.889 . S
C3081 N860 1.888 . S
C3105 C18 1.424 . S
C3113 C117 1.425 . S
C3137 C51 1.421 . S
C3145 C84 1.433 . S
C3169 C249 1.415 . S
C3177 C150 1.429 . S
C3201 C183 1.415 . S
C3209 C216 1.429 . S
C3233 C282 1.424 1_554 S
C3241 C381 1.425 . S
C3265 C348 1.416 . S
C3273 C315 1.430 1_554 S
C3297 C414 1.436 1_556 S
C3305 C513 1.431 . S
C3329 C447 1.437 1_556 S
C3337 C480 1.429 . S
C3361 C546 1.421 1_554 S
C3369 C645 1.425 . S
C3393 C579 1.420 1_554 S
C3401 C612 1.425 . S
C3425 C678 1.435 1_556 S
C3433 C777 1.432 . S
C3457 C711 1.437 1_556 S
C3465 C744 1.428 . S
C3489 C810 1.425 . S
C3497 C909 1.425 . S
C3521 C876 1.436 . S
C3529 C843 1.429 . S
C3553 C942 1.417 . S
C3561 C1041 1.432 . S
C3585 C975 1.421 . S
C3593 C1008 1.425 . S
