# Generated by pormake.
# Topology uke, (4)-cn, num edge types: 1
# Building blocks:
#     Node 0, Type 0, BuildingBlock: AZAVOO_clean_sbu_0, # of connection points: 4
#     Node 1, Type 0, BuildingBlock: AZAVOO_clean_sbu_0, # of connection points: 4
#     Node 2, Type 0, BuildingBlock: AZAVOO_clean_sbu_0, # of connection points: 4
#     Node 3, Type 0, BuildingBlock: AZAVOO_clean_sbu_0, # of connection points: 4
#     Node 4, Type 0, BuildingBlock: AZAVOO_clean_sbu_0, # of connection points: 4
#     Node 5, Type 0, BuildingBlock: AZAVOO_clean_sbu_0, # of connection points: 4
#     Node 6, Type 0, BuildingBlock: AZAVOO_clean_sbu_0, # of connection points: 4
#     Node 7, Type 0, BuildingBlock: AZAVOO_clean_sbu_0, # of connection points: 4
#     Node 8, Type 0, BuildingBlock: AZAVOO_clean_sbu_0, # of connection points: 4
#     Node 9, Type 0, BuildingBlock: AZAVOO_clean_sbu_0, # of connection points: 4
#     Node 10, Type 0, BuildingBlock: AZAVOO_clean_sbu_0, # of connection points: 4
#     Node 11, Type 0, BuildingBlock: AZAVOO_clean_sbu_0, # of connection points: 4
#     Node 12, Type 0, BuildingBlock: AZAVOO_clean_sbu_0, # of connection points: 4
#     Node 13, Type 0, BuildingBlock: AZAVOO_clean_sbu_0, # of connection points: 4
#     Node 14, Type 0, BuildingBlock: AZAVOO_clean_sbu_0, # of connection points: 4
#     Node 15, Type 0, BuildingBlock: AZAVOO_clean_sbu_0, # of connection points: 4
#     Node 16, Type 0, BuildingBlock: AZAVOO_clean_sbu_0, # of connection points: 4
#     Node 17, Type 0, BuildingBlock: AZAVOO_clean_sbu_0, # of connection points: 4
#     Node 18, Type 0, BuildingBlock: AZAVOO_clean_sbu_0, # of connection points: 4
#     Node 19, Type 0, BuildingBlock: AZAVOO_clean_sbu_0, # of connection points: 4
#     Node 20, Type 0, BuildingBlock: AZAVOO_clean_sbu_0, # of connection points: 4
#     Node 21, Type 0, BuildingBlock: AZAVOO_clean_sbu_0, # of connection points: 4
#     Node 22, Type 0, BuildingBlock: AZAVOO_clean_sbu_0, # of connection points: 4
#     Node 23, Type 0, BuildingBlock: AZAVOO_clean_sbu_0, # of connection points: 4
#     Node 24, Type 0, BuildingBlock: AZAVOO_clean_sbu_0, # of connection points: 4
#     Node 25, Type 0, BuildingBlock: AZAVOO_clean_sbu_0, # of connection points: 4
#     Node 26, Type 0, BuildingBlock: AZAVOO_clean_sbu_0, # of connection points: 4
#     Node 27, Type 0, BuildingBlock: AZAVOO_clean_sbu_0, # of connection points: 4
#     Node 28, Type 0, BuildingBlock: AZAVOO_clean_sbu_0, # of connection points: 4
#     Node 29, Type 0, BuildingBlock: AZAVOO_clean_sbu_0, # of connection points: 4
#     Node 30, Type 0, BuildingBlock: AZAVOO_clean_sbu_0, # of connection points: 4
#     Node 31, Type 0, BuildingBlock: AZAVOO_clean_sbu_0, # of connection points: 4
#     Edge 32, Type (0, 0), BuildingBlock: KIFKEQ_clean_linker_1, # of connection points: 2
#     Edge 33, Type (0, 0), BuildingBlock: KIFKEQ_clean_linker_1, # of connection points: 2
#     Edge 34, Type (0, 0), BuildingBlock: KIFKEQ_clean_linker_1, # of connection points: 2
#     Edge 35, Type (0, 0), BuildingBlock: KIFKEQ_clean_linker_1, # of connection points: 2
#     Edge 36, Type (0, 0), BuildingBlock: KIFKEQ_clean_linker_1, # of connection points: 2
#     Edge 37, Type (0, 0), BuildingBlock: KIFKEQ_clean_linker_1, # of connection points: 2
#     Edge 38, Type (0, 0), BuildingBlock: KIFKEQ_clean_linker_1, # of connection points: 2
#     Edge 39, Type (0, 0), BuildingBlock: KIFKEQ_clean_linker_1, # of connection points: 2
#     Edge 40, Type (0, 0), BuildingBlock: KIFKEQ_clean_linker_1, # of connection points: 2
#     Edge 41, Type (0, 0), BuildingBlock: KIFKEQ_clean_linker_1, # of connection points: 2
#     Edge 42, Type (0, 0), BuildingBlock: KIFKEQ_clean_linker_1, # of connection points: 2
#     Edge 43, Type (0, 0), BuildingBlock: KIFKEQ_clean_linker_1, # of connection points: 2
#     Edge 44, Type (0, 0), BuildingBlock: KIFKEQ_clean_linker_1, # of connection points: 2
#     Edge 45, Type (0, 0), BuildingBlock: KIFKEQ_clean_linker_1, # of connection points: 2
#     Edge 46, Type (0, 0), BuildingBlock: KIFKEQ_clean_linker_1, # of connection points: 2
#     Edge 47, Type (0, 0), BuildingBlock: KIFKEQ_clean_linker_1, # of connection points: 2
#     Edge 48, Type (0, 0), BuildingBlock: KIFKEQ_clean_linker_1, # of connection points: 2
#     Edge 49, Type (0, 0), BuildingBlock: KIFKEQ_clean_linker_1, # of connection points: 2
#     Edge 50, Type (0, 0), BuildingBlock: KIFKEQ_clean_linker_1, # of connection points: 2
#     Edge 51, Type (0, 0), BuildingBlock: KIFKEQ_clean_linker_1, # of connection points: 2
#     Edge 52, Type (0, 0), BuildingBlock: KIFKEQ_clean_linker_1, # of connection points: 2
#     Edge 53, Type (0, 0), BuildingBlock: KIFKEQ_clean_linker_1, # of connection points: 2
#     Edge 54, Type (0, 0), BuildingBlock: KIFKEQ_clean_linker_1, # of connection points: 2
#     Edge 55, Type (0, 0), BuildingBlock: KIFKEQ_clean_linker_1, # of connection points: 2
#     Edge 56, Type (0, 0), BuildingBlock: KIFKEQ_clean_linker_1, # of connection points: 2
#     Edge 57, Type (0, 0), BuildingBlock: KIFKEQ_clean_linker_1, # of connection points: 2
#     Edge 58, Type (0, 0), BuildingBlock: KIFKEQ_clean_linker_1, # of connection points: 2
#     Edge 59, Type (0, 0), BuildingBlock: KIFKEQ_clean_linker_1, # of connection points: 2
#     Edge 60, Type (0, 0), BuildingBlock: KIFKEQ_clean_linker_1, # of connection points: 2
#     Edge 61, Type (0, 0), BuildingBlock: KIFKEQ_clean_linker_1, # of connection points: 2
#     Edge 62, Type (0, 0), BuildingBlock: KIFKEQ_clean_linker_1, # of connection points: 2
#     Edge 63, Type (0, 0), BuildingBlock: KIFKEQ_clean_linker_1, # of connection points: 2
#     Edge 64, Type (0, 0), BuildingBlock: KIFKEQ_clean_linker_1, # of connection points: 2
#     Edge 65, Type (0, 0), BuildingBlock: KIFKEQ_clean_linker_1, # of connection points: 2
#     Edge 66, Type (0, 0), BuildingBlock: KIFKEQ_clean_linker_1, # of connection points: 2
#     Edge 67, Type (0, 0), BuildingBlock: KIFKEQ_clean_linker_1, # of connection points: 2
#     Edge 68, Type (0, 0), BuildingBlock: KIFKEQ_clean_linker_1, # of connection points: 2
#     Edge 69, Type (0, 0), BuildingBlock: KIFKEQ_clean_linker_1, # of connection points: 2
#     Edge 70, Type (0, 0), BuildingBlock: KIFKEQ_clean_linker_1, # of connection points: 2
#     Edge 71, Type (0, 0), BuildingBlock: KIFKEQ_clean_linker_1, # of connection points: 2
#     Edge 72, Type (0, 0), BuildingBlock: KIFKEQ_clean_linker_1, # of connection points: 2
#     Edge 73, Type (0, 0), BuildingBlock: KIFKEQ_clean_linker_1, # of connection points: 2
#     Edge 74, Type (0, 0), BuildingBlock: KIFKEQ_clean_linker_1, # of connection points: 2
#     Edge 75, Type (0, 0), BuildingBlock: KIFKEQ_clean_linker_1, # of connection points: 2
#     Edge 76, Type (0, 0), BuildingBlock: KIFKEQ_clean_linker_1, # of connection points: 2
#     Edge 77, Type (0, 0), BuildingBlock: KIFKEQ_clean_linker_1, # of connection points: 2
#     Edge 78, Type (0, 0), BuildingBlock: KIFKEQ_clean_linker_1, # of connection points: 2
#     Edge 79, Type (0, 0), BuildingBlock: KIFKEQ_clean_linker_1, # of connection points: 2
#     Edge 80, Type (0, 0), BuildingBlock: KIFKEQ_clean_linker_1, # of connection points: 2
#     Edge 81, Type (0, 0), BuildingBlock: KIFKEQ_clean_linker_1, # of connection points: 2
#     Edge 82, Type (0, 0), BuildingBlock: KIFKEQ_clean_linker_1, # of connection points: 2
#     Edge 83, Type (0, 0), BuildingBlock: KIFKEQ_clean_linker_1, # of connection points: 2
#     Edge 84, Type (0, 0), BuildingBlock: KIFKEQ_clean_linker_1, # of connection points: 2
#     Edge 85, Type (0, 0), BuildingBlock: KIFKEQ_clean_linker_1, # of connection points: 2
#     Edge 86, Type (0, 0), BuildingBlock: KIFKEQ_clean_linker_1, # of connection points: 2
#     Edge 87, Type (0, 0), BuildingBlock: KIFKEQ_clean_linker_1, # of connection points: 2
#     Edge 88, Type (0, 0), BuildingBlock: KIFKEQ_clean_linker_1, # of connection points: 2
#     Edge 89, Type (0, 0), BuildingBlock: KIFKEQ_clean_linker_1, # of connection points: 2
#     Edge 90, Type (0, 0), BuildingBlock: KIFKEQ_clean_linker_1, # of connection points: 2
#     Edge 91, Type (0, 0), BuildingBlock: KIFKEQ_clean_linker_1, # of connection points: 2
#     Edge 92, Type (0, 0), BuildingBlock: KIFKEQ_clean_linker_1, # of connection points: 2
#     Edge 93, Type (0, 0), BuildingBlock: KIFKEQ_clean_linker_1, # of connection points: 2
#     Edge 94, Type (0, 0), BuildingBlock: KIFKEQ_clean_linker_1, # of connection points: 2
#     Edge 95, Type (0, 0), BuildingBlock: KIFKEQ_clean_linker_1, # of connection points: 2
# Relax obj value: 0.247
# Max RMSD: 0.250
# Mean RMSD: 0.250
data_MOF--net-uke--node1-AZAVOO_clean_sbu_0--edge1-KIFKEQ_clean_linker_1
_symmetry_space_group_name_H-M    P1
_symmetry_Int_Tables_number       1
_symmetry_cell_setting            triclinic
loop_
_symmetry_equiv_pos_as_xyz
'x, y, z'
_cell_length_a     29.933281
_cell_length_b     108.19595
_cell_length_c     41.75796
_cell_angle_alpha  90.010849
_cell_angle_beta   89.980443
_cell_angle_gamma 90.032093
loop_
_atom_site_label
_atom_site_type_symbol
_atom_site_fract_x
_atom_site_fract_y
_atom_site_fract_z
_atom_type_partial_charge
Mg0 Mg 0.09848 0.0484 0.31791 0.0
O1 O 0.08941 0.04825 0.26368 0.0
O2 O 0.03146 0.05987 0.24925 0.0
Mg3 Mg 0.00176 0.06723 0.29608 0.0
C4 C 0.06429 0.05287 0.24219 0.0
C5 C 0.17609 0.0331 0.29071 0.0
O6 O 0.18207 0.04372 0.27605 0.0
O7 O 0.03997 0.03534 0.32476 0.0
O8 O 0.98246 0.04757 0.3122 0.0
O9 O 0.14027 0.06526 0.31329 0.0
O10 O 0.06706 0.06557 0.32063 0.0
C11 C -0.00185 0.03718 0.32149 0.0
C12 C 0.10358 0.07155 0.31554 0.0
O13 O 0.14561 0.0322 0.31175 0.0
Mg14 Mg 0.13513 0.18711 0.3231 0.0
O15 O 0.14139 0.18533 0.26861 0.0
O16 O 0.19007 0.17043 0.25668 0.0
Mg17 Mg 0.21988 0.16389 0.30411 0.0
C18 C 0.16176 0.17861 0.24822 0.0
C19 C 0.06126 0.20442 0.29755 0.0
O20 O 0.0463 0.19368 0.28752 0.0
O21 O 0.20037 0.19784 0.32685 0.0
O22 O 0.24976 0.18307 0.3145 0.0
O23 O 0.08519 0.17168 0.32221 0.0
O24 O 0.1578 0.1691 0.32913 0.0
C25 C 0.24034 0.19419 0.32218 0.0
C26 C 0.11892 0.16428 0.32529 0.0
O27 O 0.09655 0.20479 0.3144 0.0
Mg28 Mg 0.0904 0.18593 0.94409 0.0
O29 O 0.08176 0.18473 0.99843 0.0
O30 O 0.03011 0.17055 0.00991 0.0
Mg31 Mg 0.00242 0.16355 0.96216 0.0
C32 C 0.05921 0.17849 0.01865 0.0
C33 C 0.16556 0.20332 0.96854 0.0
O34 O 0.18062 0.19271 0.97939 0.0
O35 O 0.02658 0.19702 0.93815 0.0
O36 O 0.97471 0.1827 0.94846 0.0
O37 O 0.13893 0.17024 0.94665 0.0
O38 O 0.06639 0.16802 0.93858 0.0
C39 C 0.98583 0.19369 0.94054 0.0
C40 C 0.10479 0.163 0.94308 0.0
O41 O 0.12996 0.20349 0.95202 0.0
Mg42 Mg 0.14001 0.04725 0.93556 0.0
O43 O 0.14164 0.04776 0.99024 0.0
O44 O 0.19553 0.06052 0.00655 0.0
Mg45 Mg 0.22904 0.06812 0.96146 0.0
C46 C 0.1635 0.05309 0.01249 0.0
C47 C 0.06017 0.03052 0.95459 0.0
O48 O 0.04584 0.04116 0.96575 0.0
O49 O 0.20233 0.03532 0.93347 0.0
O50 O 0.25505 0.04875 0.94842 0.0
O51 O 0.09373 0.06334 0.93651 0.0
O52 O 0.16731 0.06494 0.93362 0.0
C53 C 0.24305 0.03799 0.93918 0.0
C54 C 0.12907 0.07026 0.93637 0.0
O55 O 0.09693 0.03014 0.93944 0.0
Mg56 Mg 0.88445 0.93791 0.6805 0.0
O57 O 0.89436 0.93573 0.73441 0.0
O58 O 0.94564 0.92129 0.74421 0.0
Mg59 Mg 0.97295 0.91536 0.69539 0.0
C60 C 0.91677 0.92912 0.75387 0.0
C61 C 0.8118 0.95464 0.71048 0.0
O62 O 0.7979 0.94378 0.72047 0.0
O63 O 0.94792 0.9492 0.67532 0.0
O64 O 2e-05 0.93483 0.68432 0.0
O65 O 0.83628 0.92214 0.68216 0.0
O66 O 0.90861 0.92014 0.67268 0.0
C67 C 0.9887 0.94592 0.67762 0.0
C68 C 0.87047 0.91502 0.6776 0.0
O69 O 0.84526 0.95523 0.69184 0.0
Mg70 Mg 0.84409 0.79908 0.68818 0.0
O71 O 0.83681 0.80082 0.7424 0.0
O72 O 0.78463 0.81465 0.75513 0.0
Mg73 Mg 0.75349 0.82054 0.70749 0.0
C74 C 0.81497 0.80698 0.76313 0.0
C75 C 0.91764 0.78298 0.71856 0.0
O76 O 0.92509 0.79362 0.73275 0.0
O77 O 0.7822 0.78702 0.68533 0.0
O78 O 0.72894 0.80075 0.6972 0.0
O79 O 0.88984 0.81535 0.6884 0.0
O80 O 0.81662 0.81659 0.68209 0.0
C81 C 0.74127 0.78981 0.68974 0.0
C82 C 0.8544 0.82212 0.68532 0.0
O83 O 0.8877 0.78231 0.69706 0.0
Mg84 Mg 0.89078 0.79625 0.06568 0.0
O85 O 0.89868 0.79833 0.01153 0.0
O86 O 0.95025 0.81264 1.00089 0.0
Mg87 Mg 0.97952 0.81857 0.04906 0.0
C88 C 0.92078 0.80489 0.99173 0.0
C89 C 0.81565 0.77958 0.0383 0.0
O90 O 0.80197 0.79039 0.02788 0.0
O91 O 0.95395 0.78479 0.06935 0.0
O92 O 0.00632 0.79901 0.05952 0.0
O93 O 0.84294 0.81203 0.0649 0.0
O94 O 0.91567 0.81402 0.07274 0.0
C95 C -0.00522 0.78793 0.06629 0.0
C96 C 0.87737 0.81916 0.0685 0.0
O97 O 0.8502 0.77901 0.05587 0.0
Mg98 Mg 0.841 0.93491 0.05794 0.0
O99 O 0.8339 0.93309 0.00368 0.0
O100 O 0.78353 0.91871 0.99117 0.0
Mg101 Mg 0.75331 0.91249 0.03886 0.0
C102 C 0.81284 0.92668 0.98304 0.0
C103 C 0.91273 0.9517 0.02773 0.0
O104 O 0.92103 0.94115 0.01333 0.0
O105 O 0.7774 0.9463 0.06109 0.0
O106 O 0.72605 0.93197 0.04942 0.0
O107 O 0.88887 0.91909 0.0577 0.0
O108 O 0.81588 0.91714 0.06414 0.0
C109 C 0.73686 0.94303 0.05692 0.0
C110 C 0.85431 0.91198 0.06094 0.0
O111 O 0.8826 0.95213 0.04915 0.0
Mg112 Mg 0.07499 0.54788 0.79422 0.0
O113 O 0.06489 0.5498 0.74036 0.0
O114 O 0.01071 0.56332 0.72993 0.0
Mg115 Mg 0.98229 0.56905 0.77866 0.0
C116 C 0.04118 0.55591 0.72063 0.0
C117 C 0.15221 0.53333 0.76437 0.0
O118 O 0.15925 0.54451 0.75317 0.0
O119 O 0.01397 0.53555 0.79893 0.0
O120 O 0.95926 0.5492 0.79034 0.0
O121 O 0.12004 0.56422 0.79315 0.0
O122 O 0.04725 0.56535 0.8018 0.0
C123 C 0.97259 0.53826 0.79695 0.0
C124 C 0.08477 0.57093 0.79756 0.0
O125 O 0.11978 0.53153 0.78347 0.0
Mg126 Mg 0.12668 0.68604 0.82102 0.0
O127 O 0.12931 0.68569 0.7663 0.0
O128 O 0.18068 0.67216 0.75007 0.0
Mg129 Mg 0.21161 0.66388 0.7953 0.0
C130 C 0.15037 0.68011 0.74407 0.0
C131 C 0.05089 0.70375 0.80116 0.0
O132 O 0.0352 0.69322 0.79021 0.0
O133 O 0.19155 0.69694 0.82422 0.0
O134 O 0.24143 0.68272 0.80911 0.0
O135 O 0.07717 0.67063 0.81913 0.0
O136 O 0.15027 0.668 0.82278 0.0
C137 C 0.23169 0.69361 0.81869 0.0
C138 C 0.11116 0.66323 0.81944 0.0
O139 O 0.08722 0.70377 0.81685 0.0
Mg140 Mg 0.09784 0.68698 0.43823 0.0
O141 O 0.08561 0.68722 0.49214 0.0
O142 O 0.02558 0.67612 0.50488 0.0
Mg143 Mg -0.00198 0.6689 0.45719 0.0
C144 C 0.05877 0.68284 0.5129 0.0
C145 C 0.17505 0.70183 0.46794 0.0
O146 O 0.17932 0.69121 0.48288 0.0
O147 O 0.0411 0.70042 0.42906 0.0
O148 O 0.98173 0.68857 0.43964 0.0
O149 O 0.13742 0.66973 0.44388 0.0
O150 O 0.06474 0.6701 0.43439 0.0
C151 C -0.00105 0.69881 0.43061 0.0
C152 C 0.1002 0.66377 0.44018 0.0
O153 O 0.14606 0.70285 0.44589 0.0
Mg154 Mg 0.12155 0.54864 0.41717 0.0
O155 O 0.12731 0.55059 0.47147 0.0
O156 O 0.17577 0.56549 0.48387 0.0
Mg157 Mg 0.20655 0.57177 0.43649 0.0
C158 C 0.14723 0.55732 0.49203 0.0
C159 C 0.04817 0.53151 0.44415 0.0
O160 O 0.03336 0.54233 0.4537 0.0
O161 O 0.18651 0.53779 0.41436 0.0
O162 O 0.23601 0.55251 0.42681 0.0
O163 O 0.07202 0.56414 0.41785 0.0
O164 O 0.14475 0.56659 0.41101 0.0
C165 C 0.22656 0.54137 0.41921 0.0
C166 C 0.10602 0.57148 0.41503 0.0
O167 O 0.08279 0.53103 0.42659 0.0
Mg168 Mg 0.87848 0.4371 0.19361 0.0
O169 O 0.88317 0.43621 0.24817 0.0
O170 O 0.93561 0.42285 0.2634 0.0
Mg171 Mg 0.9661 0.41531 0.21707 0.0
C172 C 0.90486 0.4306 0.27 0.0
C173 C 0.80429 0.45384 0.21962 0.0
O174 O 0.79382 0.44313 0.2324 0.0
O175 O 0.94229 0.44854 0.19017 0.0
O176 O -0.00648 0.4345 0.20407 0.0
O177 O 0.83081 0.42122 0.19496 0.0
O178 O 0.90406 0.41928 0.19023 0.0
C179 C 0.9828 0.4454 0.19516 0.0
C180 C 0.86559 0.41412 0.19341 0.0
O181 O 0.83664 0.4544 0.19996 0.0
Mg182 Mg 0.83949 0.29822 0.19004 0.0
O183 O 0.83003 0.2983 0.24431 0.0
O184 O 0.77374 0.31064 0.25816 0.0
Mg185 Mg 0.74532 0.31817 0.21116 0.0
C186 C 0.80547 0.30332 0.26556 0.0
C187 C 0.91576 0.28244 0.21714 0.0
O188 O 0.92251 0.29306 0.23157 0.0
O189 O 0.77908 0.28579 0.18281 0.0
O190 O 0.72349 0.29874 0.19505 0.0
O191 O 0.88354 0.31467 0.19486 0.0
O192 O 0.81053 0.31571 0.18704 0.0
C193 C 0.73755 0.28816 0.18584 0.0
C194 C 0.84771 0.32131 0.19248 0.0
O195 O 0.88475 0.2816 0.19648 0.0
Mg196 Mg 0.88556 0.30045 0.57207 0.0
O197 O 0.88555 0.30087 0.51737 0.0
O198 O 0.93801 0.31388 0.49997 0.0
Mg199 Mg 0.97196 0.32185 0.54448 0.0
C200 C 0.90638 0.30624 0.49467 0.0
C201 C 0.80755 0.28309 0.55311 0.0
O202 O 0.79274 0.29355 0.54118 0.0
O203 O 0.94916 0.28894 0.57335 0.0
O204 O 0.00012 0.30274 0.55746 0.0
O205 O 0.83812 0.31638 0.57203 0.0
O206 O 0.91167 0.31821 0.57356 0.0
C207 C 0.98946 0.29192 0.56704 0.0
C208 C 0.87315 0.32342 0.57183 0.0
O209 O 0.84378 0.28307 0.56892 0.0
Mg210 Mg 0.84584 0.43932 0.57582 0.0
O211 O 0.83525 0.4386 0.52176 0.0
O212 O 0.77954 0.42588 0.50907 0.0
Mg213 Mg 0.7524 0.41874 0.55693 0.0
C214 C 0.81078 0.43327 0.501 0.0
C215 C 0.9204 0.45484 0.54605 0.0
O216 O 0.92776 0.44387 0.53367 0.0
O217 O 0.78479 0.45154 0.58306 0.0
O218 O 0.72983 0.43821 0.57203 0.0
O219 O 0.89056 0.42299 0.57145 0.0
O220 O 0.81783 0.42175 0.5804 0.0
C221 C 0.74337 0.44893 0.58054 0.0
C222 C 0.85509 0.41624 0.5747 0.0
O223 O 0.88989 0.45606 0.56698 0.0
Mg224 Mg 0.59936 0.04687 0.83022 0.0
O225 O 0.59554 0.04688 0.77565 0.0
O226 O 0.54073 0.05909 0.75842 0.0
Mg227 Mg 0.50701 0.06654 0.80367 0.0
C228 C 0.57333 0.0518 0.75299 0.0
C229 C 0.6785 0.03162 0.80653 0.0
O230 O 0.68633 0.04251 0.79378 0.0
O231 O 0.53891 0.03423 0.83398 0.0
O232 O 0.48453 0.04699 0.81812 0.0
O233 O 0.643 0.06346 0.82756 0.0
O234 O 0.56933 0.06426 0.83151 0.0
C235 C 0.49785 0.03645 0.82815 0.0
C236 C 0.60669 0.06997 0.82779 0.0
O237 O 0.64579 0.03041 0.82567 0.0
Mg238 Mg 0.63468 0.1856 0.81054 0.0
O239 O 0.64212 0.18366 0.75628 0.0
O240 O 0.69359 0.1694 0.74525 0.0
Mg241 Mg 0.72245 0.1631 0.79333 0.0
C242 C 0.66414 0.17719 0.73627 0.0
C243 C 0.561 0.20284 0.78319 0.0
O244 O 0.5462 0.19221 0.77226 0.0
O245 O 0.69857 0.19681 0.81484 0.0
O246 O 0.75035 0.18241 0.80511 0.0
O247 O 0.58638 0.16977 0.80995 0.0
O248 O 0.65916 0.16787 0.81746 0.0
C249 C 0.7393 0.19349 0.81228 0.0
C250 C 0.62085 0.16269 0.81392 0.0
O251 O 0.59526 0.20302 0.8011 0.0
Mg252 Mg 0.62389 0.18469 0.43299 0.0
O253 O 0.60328 0.18312 0.4854 0.0
O254 O 0.55326 0.1681 0.49202 0.0
Mg255 Mg 0.5373 0.16096 0.44153 0.0
C256 C 0.57853 0.17652 0.50336 0.0
C257 C 0.6837 0.20261 0.47087 0.0
O258 O 0.69029 0.19222 0.48643 0.0
O259 O 0.55996 0.19507 0.42039 0.0
O260 O 0.51021 0.17969 0.42437 0.0
O261 O 0.67373 0.16956 0.44124 0.0
O262 O 0.60436 0.16648 0.425 0.0
C263 C 0.5202 0.19092 0.41819 0.0
C264 C 0.64188 0.16193 0.43415 0.0
O265 O 0.65918 0.20257 0.44603 0.0
Mg266 Mg 0.66407 0.04629 0.44962 0.0
O267 O 0.66564 0.04626 0.50426 0.0
O268 O 0.72193 0.05791 0.52183 0.0
Mg269 Mg 0.7571 0.06545 0.47724 0.0
C270 C 0.68828 0.05096 0.52705 0.0
C271 C 0.58286 0.03072 0.47024 0.0
O272 O 0.57445 0.04122 0.48487 0.0
O273 O 0.72371 0.03341 0.44681 0.0
O274 O 0.77919 0.04593 0.46196 0.0
O275 O 0.62126 0.06305 0.451 0.0
O276 O 0.69509 0.06355 0.44884 0.0
C277 C 0.76503 0.03545 0.45203 0.0
C278 C 0.65788 0.06944 0.45121 0.0
O279 O 0.61681 0.02997 0.4521 0.0
Mg280 Mg 0.37199 0.93614 0.17297 0.0
O281 O 0.38248 0.93455 0.22709 0.0
O282 O 0.43183 0.91965 0.23746 0.0
Mg283 Mg 0.45784 0.91295 0.18902 0.0
C284 C 0.40429 0.92789 0.24681 0.0
C285 C 0.30183 0.95394 0.2017 0.0
O286 O 0.2872 0.94338 0.21314 0.0
O287 O 0.43682 0.94678 0.16666 0.0
O288 O 0.48715 0.93207 0.1771 0.0
O289 O 0.32186 0.92087 0.17655 0.0
O290 O 0.39373 0.91807 0.16661 0.0
C291 C 0.47717 0.94319 0.16958 0.0
C292 C 0.35514 0.91337 0.17253 0.0
O293 O 0.33502 0.95397 0.18276 0.0
Mg294 Mg 0.33694 0.79787 0.19353 0.0
O295 O 0.33148 0.79754 0.24806 0.0
O296 O 0.2738 0.80894 0.26419 0.0
Mg297 Mg 0.24136 0.81657 0.21864 0.0
C298 C 0.30725 0.80204 0.27027 0.0
C299 C 0.4176 0.78276 0.21673 0.0
O300 O 0.42374 0.79325 0.23197 0.0
O301 O 0.27811 0.78478 0.18799 0.0
O302 O 0.22133 0.79705 0.20202 0.0
O303 O 0.37864 0.81483 0.19684 0.0
O304 O 0.30506 0.81499 0.19207 0.0
C305 C 0.23644 0.78668 0.19206 0.0
C306 C 0.34171 0.82105 0.19569 0.0
O307 O 0.38517 0.7818 0.19727 0.0
Mg308 Mg 0.3846 0.79769 0.57582 0.0
O309 O 0.38863 0.79757 0.52122 0.0
O310 O 0.44235 0.81033 0.50469 0.0
Mg311 Mg 0.47391 0.81846 0.54993 0.0
C312 C 0.41086 0.80271 0.49886 0.0
C313 C 0.30751 0.7805 0.55488 0.0
O314 O 0.29372 0.79103 0.54273 0.0
O315 O 0.44719 0.786 0.58039 0.0
O316 O 0.50006 0.79935 0.5652 0.0
O317 O 0.33787 0.81365 0.57243 0.0
O318 O 0.41123 0.81545 0.57694 0.0
C319 C 0.48803 0.7887 0.57526 0.0
C320 C 0.373 0.82065 0.57282 0.0
O321 O 0.34266 0.78037 0.57188 0.0
Mg322 Mg 0.33937 0.9362 0.55257 0.0
O323 O 0.33218 0.93463 0.49818 0.0
O324 O 0.27941 0.92074 0.48684 0.0
Mg325 Mg 0.24984 0.9143 0.53451 0.0
C326 C 0.30945 0.92839 0.47804 0.0
C327 C 0.41918 0.95287 0.53177 0.0
O328 O 0.43624 0.94203 0.52462 0.0
O329 O 0.27658 0.94781 0.55668 0.0
O330 O 0.22361 0.93379 0.54644 0.0
O331 O 0.38651 0.92019 0.55171 0.0
O332 O 0.31355 0.91851 0.55868 0.0
C333 C 0.23561 0.94478 0.55375 0.0
C334 C 0.35166 0.91321 0.55512 0.0
O335 O 0.38074 0.95342 0.54452 0.0
Mg336 Mg 0.5986 0.55114 0.32166 0.0
O337 O 0.60028 0.55123 0.26688 0.0
O338 O 0.54781 0.56399 0.24839 0.0
Mg339 Mg 0.51343 0.57244 0.29203 0.0
C340 C 0.57969 0.55638 0.24374 0.0
C341 C 0.67601 0.53344 0.30438 0.0
O342 O 0.69218 0.54391 0.29338 0.0
O343 O 0.5346 0.53983 0.3227 0.0
O344 O 0.48408 0.55358 0.30607 0.0
O345 O 0.6472 0.56671 0.32219 0.0
O346 O 0.57387 0.56918 0.32164 0.0
C347 C 0.49442 0.54282 0.31621 0.0
C348 C 0.61313 0.57406 0.32057 0.0
O349 O 0.63918 0.53352 0.31948 0.0
Mg350 Mg 0.66483 0.68949 0.30175 0.0
O351 O 0.66514 0.68723 0.24725 0.0
O352 O 0.71737 0.67346 0.23383 0.0
Mg353 Mg 0.75202 0.6674 0.27995 0.0
C354 C 0.68594 0.68087 0.2263 0.0
C355 C 0.58596 0.706 0.28041 0.0
O356 O 0.57144 0.69514 0.27092 0.0
O357 O 0.72784 0.70106 0.30072 0.0
O358 O 0.77984 0.68691 0.28975 0.0
O359 O 0.61682 0.67389 0.30594 0.0
O360 O 0.69023 0.6716 0.307 0.0
C361 C 0.76852 0.698 0.29653 0.0
C362 C 0.65111 0.66661 0.30678 0.0
O363 O 0.62295 0.7067 0.29517 0.0
Mg364 Mg 0.6016 0.68483 0.92502 0.0
O365 O 0.59269 0.68365 0.97928 0.0
O366 O 0.54276 0.66921 0.99224 0.0
Mg367 Mg 0.5138 0.66249 0.94467 0.0
C368 C 0.57141 0.67739 1.00013 0.0
C369 C 0.67294 0.70155 0.95487 0.0
O370 O 0.68083 0.69091 0.96892 0.0
O371 O 0.53789 0.69613 0.92017 0.0
O372 O 0.48675 0.68187 0.93292 0.0
O373 O 0.64978 0.66913 0.92774 0.0
O374 O 0.57712 0.6669 0.92007 0.0
C375 C 0.4974 0.69287 0.92466 0.0
C376 C 0.61551 0.6619 0.9249 0.0
O377 O 0.6429 0.70214 0.93342 0.0
Mg378 Mg 0.63968 0.54609 0.9401 0.0
O379 O 0.65229 0.54665 0.9939 0.0
O380 O 0.70939 0.55899 0.00583 0.0
Mg381 Mg 0.73518 0.56612 0.95754 0.0
C382 C 0.67791 0.55175 0.01433 0.0
C383 C 0.56511 0.5308 0.97113 0.0
O384 O 0.55919 0.5417 0.98435 0.0
O385 O 0.69953 0.53356 0.93163 0.0
O386 O 0.75584 0.5466 0.94142 0.0
O387 O 0.5963 0.5627 0.9449 0.0
O388 O 0.66883 0.5635 0.93503 0.0
C389 C 0.74121 0.53597 0.93309 0.0
C390 C 0.63208 0.56925 0.9408 0.0
O391 O 0.59465 0.52959 0.94949 0.0
Mg392 Mg 0.40051 0.43749 0.70755 0.0
O393 O 0.40467 0.43631 0.76189 0.0
O394 O 0.46085 0.42405 0.77645 0.0
Mg395 Mg 0.49291 0.41723 0.72984 0.0
C396 C 0.42801 0.43106 0.78344 0.0
C397 C 0.34837 0.46253 0.69512 0.0
O398 O 0.36962 0.46249 0.66758 0.0
O399 O 0.46118 0.45011 0.70471 0.0
O400 O 0.51602 0.43688 0.71664 0.0
O401 O 0.35637 0.42101 0.70779 0.0
O402 O 0.42996 0.42015 0.70309 0.0
C403 C 0.50252 0.44764 0.70849 0.0
C404 C 0.3924 0.41443 0.70569 0.0
O405 O 0.35423 0.45371 0.71468 0.0
Mg406 Mg 0.35774 0.2995 0.67445 0.0
O407 O 0.35069 0.29983 0.72904 0.0
O408 O 0.29844 0.31334 0.74382 0.0
Mg409 Mg 0.26976 0.32125 0.69741 0.0
C410 C 0.32844 0.30541 0.75068 0.0
C411 C 0.43079 0.28248 0.70021 0.0
O412 O 0.44052 0.29305 0.71404 0.0
O413 O 0.294 0.28821 0.66896 0.0
O414 O 0.24256 0.30217 0.68307 0.0
O415 O 0.406 0.31509 0.6784 0.0
O416 O 0.33311 0.31746 0.67203 0.0
C417 C 0.25342 0.29134 0.67366 0.0
C418 C 0.37167 0.32235 0.67708 0.0
O419 O 0.39897 0.28208 0.68012 0.0
Mg420 Mg 0.39567 0.29876 0.05766 0.0
O421 O 0.40037 0.29943 0.00304 0.0
O422 O 0.45643 0.31172 0.98819 0.0
Mg423 Mg 0.488 0.31902 0.03444 0.0
C424 C 0.4239 0.30457 0.98137 0.0
C425 C 0.31772 0.2826 0.03319 0.0
O426 O 0.30945 0.29302 0.01817 0.0
O427 O 0.45669 0.28633 0.0612 0.0
O428 O 0.51144 0.29951 0.04856 0.0
O429 O 0.35129 0.31527 0.05668 0.0
O430 O 0.42486 0.31617 0.06095 0.0
C431 C 0.49801 0.2888 0.05723 0.0
C432 C 0.38733 0.32188 0.0584 0.0
O433 O 0.35021 0.2821 0.0527 0.0
Mg434 Mg 0.35266 0.43685 0.08928 0.0
O435 O 0.34799 0.43599 0.03478 0.0
O436 O 0.29645 0.42227 0.01988 0.0
Mg437 Mg 0.26622 0.41466 0.06617 0.0
C438 C 0.32665 0.43017 0.0131 0.0
C439 C 0.42841 0.45401 0.0663 0.0
O440 O 0.4431 0.44322 0.05637 0.0
O441 O 0.28822 0.44794 0.09311 0.0
O442 O 0.23763 0.43372 0.07918 0.0
O443 O 0.40149 0.4213 0.08694 0.0
O444 O 0.32853 0.41883 0.09248 0.0
C445 C 0.24786 0.44466 0.08815 0.0
C446 C 0.3673 0.41398 0.08818 0.0
O447 O 0.39272 0.45446 0.08272 0.0
H448 H 0.08441 0.04353 0.03408 0.0
H449 H 0.21036 0.05845 0.06696 0.0
H450 H 0.05881 0.04193 0.08949 0.0
H451 H 0.18471 0.05673 0.12227 0.0
H452 H 0.13857 0.04139 0.21829 0.0
H453 H 0.16216 0.04 0.16261 0.0
H454 H 0.04064 0.05813 0.13292 0.0
H455 H 0.01691 0.05968 0.18878 0.0
C456 C 0.10684 0.04633 0.05311 0.0
C457 C 0.14941 0.05117 0.04611 0.0
C458 C 0.09203 0.04547 0.08478 0.0
C459 C 0.11975 0.04923 0.11008 0.0
C460 C 0.16279 0.05368 0.10319 0.0
C461 C 0.17737 0.05472 0.07152 0.0
C462 C 0.11658 0.04501 0.19998 0.0
C463 C 0.076 0.05079 0.20811 0.0
C464 C 0.13025 0.04423 0.16808 0.0
C465 C 0.10339 0.04904 0.14355 0.0
C466 C 0.0619 0.0543 0.15141 0.0
C467 C 0.04843 0.05523 0.1834 0.0
H468 H 0.10387 0.19736 0.04852 0.0
H469 H 0.04078 0.16208 0.06655 0.0
H470 H 0.12897 0.19811 0.10431 0.0
H471 H 0.06658 0.16281 0.12197 0.0
H472 H 0.17533 0.1616 0.20093 0.0
H473 H 0.14828 0.16232 0.14583 0.0
H474 H 0.09236 0.19848 0.16278 0.0
H475 H 0.11871 0.19774 0.21829 0.0
C476 C 0.09499 0.18983 0.06442 0.0
C477 C 0.07034 0.17965 0.05309 0.0
C478 C 0.10931 0.19029 0.0963 0.0
C479 C 0.1 0.18047 0.11722 0.0
C480 C 0.07453 0.17044 0.10616 0.0
C481 C 0.0595 0.17008 0.0745 0.0
C482 C 0.15769 0.16977 0.1929 0.0
C483 C 0.14917 0.17961 0.21402 0.0
C484 C 0.14192 0.17012 0.16144 0.0
C485 C 0.118 0.18041 0.15024 0.0
C486 C 0.11077 0.19045 0.1709 0.0
C487 C 0.12582 0.19001 0.20261 0.0
H488 H 0.85698 0.94588 0.95446 0.0
H489 H 0.79863 0.91012 0.93468 0.0
H490 H 0.88375 0.94706 0.89919 0.0
H491 H 0.82607 0.91128 0.87964 0.0
H492 H 0.93356 0.91179 0.79987 0.0
H493 H 0.90725 0.91173 0.85526 0.0
H494 H 0.84775 0.94764 0.8413 0.0
H495 H 0.87336 0.94768 0.78565 0.0
C496 C 0.84959 0.93831 0.93829 0.0
C497 C 0.82562 0.9279 0.94894 0.0
C498 C 0.86489 0.93901 0.9067 0.0
C499 C 0.85724 0.92922 0.88536 0.0
C500 C 0.83275 0.9189 0.89579 0.0
C501 C 0.81675 0.91829 0.92719 0.0
C502 C 0.91538 0.91975 0.80868 0.0
C503 C 0.90553 0.92974 0.78835 0.0
C504 C 0.90002 0.91965 0.84028 0.0
C505 C 0.87522 0.92963 0.85235 0.0
C506 C 0.86686 0.93984 0.83251 0.0
C507 C 0.88151 0.93985 0.80071 0.0
H508 H 0.93629 0.82224 0.9456 0.0
H509 H 0.87693 0.78626 0.96047 0.0
H510 H 0.90927 0.82221 0.89041 0.0
H511 H 0.85067 0.7862 0.90495 0.0
H512 H 0.86061 0.78804 0.79146 0.0
H513 H 0.88743 0.78694 0.84672 0.0
H514 H 0.82705 0.82232 0.86664 0.0
H515 H 0.79947 0.82339 0.81162 0.0
C516 C 0.91811 0.81425 0.93697 0.0
C517 C 0.90874 0.80425 0.95741 0.0
C518 C 0.90236 0.81429 0.90549 0.0
C519 C 0.87767 0.80425 0.89364 0.0
C520 C 0.86969 0.79405 0.9136 0.0
C521 C 0.8847 0.7941 0.9453 0.0
C522 C 0.85262 0.79552 0.80772 0.0
C523 C 0.82786 0.8058 0.79719 0.0
C524 C 0.86794 0.79487 0.83929 0.0
C525 C 0.85953 0.80458 0.86072 0.0
C526 C 0.83426 0.81476 0.85041 0.0
C527 C 0.81822 0.81532 0.81902 0.0
H528 H 0.08693 0.53754 0.68996 0.0
H529 H 0.02196 0.57266 0.67364 0.0
H530 H 0.11255 0.53735 0.63435 0.0
H531 H 0.04831 0.57249 0.61822 0.0
H532 H 0.15828 0.57443 0.53944 0.0
H533 H 0.12981 0.57352 0.59422 0.0
H534 H 0.07685 0.53707 0.57632 0.0
H535 H 0.10463 0.53799 0.52125 0.0
C536 C 0.07774 0.54515 0.67444 0.0
C537 C 0.05242 0.55513 0.68619 0.0
C538 C 0.09238 0.54502 0.64265 0.0
C539 C 0.08268 0.55495 0.62221 0.0
C540 C 0.05654 0.56478 0.63367 0.0
C541 C 0.04119 0.56482 0.66528 0.0
C542 C 0.14097 0.56617 0.54723 0.0
C543 C 0.13377 0.55628 0.52602 0.0
C544 C 0.12435 0.56571 0.57847 0.0
C545 C 0.10091 0.55527 0.58929 0.0
C546 C 0.09486 0.54521 0.56849 0.0
C547 C 0.11076 0.54576 0.53704 0.0
H548 H 0.1978 0.67466 0.68992 0.0
H549 H 0.07306 0.69055 0.72199 0.0
H550 H 0.17387 0.67706 0.63439 0.0
H551 H 0.0491 0.6928 0.66633 0.0
H552 H 0.00855 0.67606 0.5651 0.0
H553 H 0.03036 0.67702 0.62146 0.0
H554 H 0.15452 0.69455 0.59494 0.0
H555 H 0.13282 0.69378 0.53882 0.0
C556 C 0.16544 0.67874 0.68514 0.0
C557 C 0.13733 0.68238 0.71038 0.0
C558 C 0.15185 0.68016 0.65335 0.0
C559 C 0.10962 0.6851 0.64614 0.0
C560 C 0.08171 0.68891 0.67129 0.0
C561 C 0.09559 0.68767 0.7031 0.0
C562 C 0.04021 0.68028 0.57128 0.0
C563 C 0.06911 0.68471 0.54731 0.0
C564 C 0.0526 0.68086 0.60356 0.0
C565 C 0.0943 0.68575 0.61245 0.0
C566 C 0.12242 0.6906 0.58868 0.0
C567 C 0.10984 0.69017 0.55651 0.0
H568 H 0.76191 0.42603 0.44864 0.0
H569 H 0.88554 0.44394 0.47548 0.0
H570 H 0.78478 0.42674 0.39243 0.0
H571 H 0.90836 0.44443 0.41951 0.0
H572 H 0.82812 0.44117 0.29265 0.0
H573 H 0.80403 0.44309 0.34824 0.0
H574 H 0.92771 0.4266 0.37967 0.0
H575 H 0.9518 0.42447 0.324 0.0
C576 C 0.79369 0.43021 0.44259 0.0
C577 C 0.82198 0.43484 0.46665 0.0
C578 C 0.80669 0.43064 0.41043 0.0
C579 C 0.84847 0.43554 0.40177 0.0
C580 C 0.87618 0.44049 0.42563 0.0
C581 C 0.86293 0.44024 0.45768 0.0
C582 C 0.8504 0.43802 0.31135 0.0
C583 C 0.89186 0.43261 0.30384 0.0
C584 C 0.83643 0.43908 0.34316 0.0
C585 C 0.86397 0.43497 0.36814 0.0
C586 C 0.90597 0.42991 0.36079 0.0
C587 C 0.91965 0.42865 0.32894 0.0
H588 H 0.75798 0.31056 0.31856 0.0
H589 H 0.87969 0.29203 0.29011 0.0
H590 H 0.78199 0.30968 0.37445 0.0
H591 H 0.90359 0.29133 0.34582 0.0
H592 H 0.95206 0.31131 0.43949 0.0
H593 H 0.92585 0.30885 0.38449 0.0
H594 H 0.80115 0.29394 0.41921 0.0
H595 H 0.82735 0.29625 0.47432 0.0
C596 C 0.78954 0.30617 0.32419 0.0
C597 C 0.81706 0.30148 0.29975 0.0
C598 C 0.80318 0.30564 0.3562 0.0
C599 C 0.84481 0.30054 0.36433 0.0
C600 C 0.87157 0.29544 0.34012 0.0
C601 C 0.8577 0.29581 0.30821 0.0
C602 C 0.91921 0.30741 0.43542 0.0
C603 C 0.89178 0.30401 0.46129 0.0
C604 C 0.90432 0.30595 0.40395 0.0
C605 C 0.86147 0.30122 0.39768 0.0
C606 C 0.83422 0.29767 0.42344 0.0
C607 C 0.84937 0.29894 0.45494 0.0
H608 H 0.65013 0.04054 0.7328 0.0
H609 H 0.53061 0.05835 0.69745 0.0
H610 H 0.67831 0.03885 0.67824 0.0
H611 H 0.5589 0.05651 0.64279 0.0
H612 H 0.60867 0.04117 0.54693 0.0
H613 H 0.58003 0.03991 0.60149 0.0
H614 H 0.70365 0.05511 0.6373 0.0
H615 H 0.73244 0.05651 0.58269 0.0
C616 C 0.62961 0.04398 0.71343 0.0
C617 C 0.5882 0.04968 0.71958 0.0
C618 C 0.64591 0.04305 0.68219 0.0
C619 C 0.62089 0.04761 0.65638 0.0
C620 C 0.57875 0.05286 0.66229 0.0
C621 C 0.56266 0.05395 0.6936 0.0
C622 C 0.63001 0.04414 0.56639 0.0
C623 C 0.6728 0.04903 0.56038 0.0
C624 C 0.61344 0.04346 0.59762 0.0
C625 C 0.63954 0.04747 0.62353 0.0
C626 C 0.68293 0.05189 0.61773 0.0
C627 C 0.69932 0.05274 0.58645 0.0
H628 H 0.61857 0.19571 0.70577 0.0
H629 H 0.68188 0.16038 0.68913 0.0
H630 H 0.59399 0.1962 0.64988 0.0
H631 H 0.65668 0.16085 0.63355 0.0
H632 H 0.55798 0.15952 0.54949 0.0
H633 H 0.57812 0.16025 0.60618 0.0
H634 H 0.63255 0.19686 0.59333 0.0
H635 H 0.61302 0.19612 0.53653 0.0
C636 C 0.62747 0.18809 0.69018 0.0
C637 C 0.6523 0.17801 0.70189 0.0
C638 C 0.61337 0.18838 0.65824 0.0
C639 C 0.62307 0.1785 0.63758 0.0
C640 C 0.64829 0.16851 0.64914 0.0
C641 C 0.66306 0.16831 0.68087 0.0
C642 C 0.57348 0.16781 0.55883 0.0
C643 C 0.58397 0.17775 0.53847 0.0
C644 C 0.58536 0.16818 0.5912 0.0
C645 C 0.60724 0.17856 0.60397 0.0
C646 C 0.61564 0.18875 0.58407 0.0
C647 C 0.60446 0.18832 0.55157 0.0
H648 H 0.29074 0.91179 0.4307 0.0
H649 H 0.35486 0.947 0.44768 0.0
H650 H 0.31566 0.91235 0.37505 0.0
H651 H 0.37908 0.94759 0.39166 0.0
H652 H 0.36365 0.94715 0.27782 0.0
H653 H 0.34022 0.94798 0.33397 0.0
H654 H 0.39655 0.91178 0.34965 0.0
H655 H 0.42069 0.91097 0.29385 0.0
C656 C 0.3096 0.91973 0.42248 0.0
C657 C 0.32088 0.92934 0.44363 0.0
C658 C 0.32412 0.91999 0.3907 0.0
C659 C 0.34952 0.92997 0.37926 0.0
C660 C 0.35949 0.9398 0.39998 0.0
C661 C 0.34568 0.93944 0.43198 0.0
C662 C 0.37155 0.93944 0.29335 0.0
C663 C 0.39406 0.929 0.28138 0.0
C664 C 0.35817 0.93993 0.32543 0.0
C665 C 0.36629 0.9299 0.34592 0.0
C666 C 0.38956 0.91959 0.33418 0.0
C667 C 0.40365 0.91918 0.30232 0.0
H668 H 0.4566 0.80866 0.44418 0.0
H669 H 0.33392 0.79186 0.4774 0.0
H670 H 0.43069 0.80674 0.38897 0.0
H671 H 0.30812 0.79005 0.42217 0.0
H672 H 0.26036 0.80772 0.32473 0.0
H673 H 0.28603 0.80614 0.38008 0.0
H674 H 0.41028 0.79025 0.34762 0.0
H675 H 0.38478 0.7917 0.29234 0.0
C676 C 0.42435 0.80445 0.43972 0.0
C677 C 0.39728 0.80048 0.46524 0.0
C678 C 0.40962 0.8033 0.4081 0.0
C679 C 0.36733 0.7983 0.40136 0.0
C680 C 0.34071 0.79404 0.42675 0.0
C681 C 0.35566 0.79502 0.45834 0.0
C682 C 0.29294 0.80375 0.32937 0.0
C683 C 0.32061 0.79994 0.30402 0.0
C684 C 0.30752 0.8028 0.36109 0.0
C685 C 0.35025 0.79815 0.36806 0.0
C686 C 0.37738 0.79399 0.34286 0.0
C687 C 0.36261 0.79479 0.3112 0.0
H688 H 0.60656 0.53972 0.04082 0.0
H689 H 0.72563 0.56017 0.06615 0.0
H690 H 0.58398 0.53943 0.09679 0.0
H691 H 0.70296 0.55968 0.12241 0.0
H692 H 0.65999 0.54695 0.22412 0.0
H693 H 0.6864 0.54424 0.1691 0.0
H694 H 0.55978 0.55746 0.13352 0.0
H695 H 0.53345 0.56034 0.18833 0.0
C696 C 0.62828 0.54402 0.0583 0.0
C697 C 0.6677 0.55012 0.04884 0.0
C698 C 0.61519 0.54387 0.09037 0.0
C699 C 0.64152 0.54963 0.1138 0.0
C700 C 0.68213 0.55514 0.10476 0.0
C701 C 0.695 0.55545 0.07254 0.0
C702 C 0.63765 0.54919 0.20456 0.0
C703 C 0.59464 0.5539 0.21057 0.0
C704 C 0.65289 0.54768 0.17313 0.0
C705 C 0.62511 0.55063 0.14716 0.0
C706 C 0.58173 0.55502 0.15315 0.0
C707 C 0.56677 0.55672 0.18451 0.0
H708 H 0.63647 0.69896 0.19717 0.0
H709 H 0.69987 0.66371 0.17953 0.0
H710 H 0.60649 0.69882 0.14256 0.0
H711 H 0.66917 0.66353 0.12539 0.0
H712 H 0.55736 0.66117 0.04921 0.0
H713 H 0.58537 0.66268 0.10403 0.0
H714 H 0.64136 0.69853 0.08307 0.0
H715 H 0.61412 0.697 0.02796 0.0
C716 C 0.64421 0.69123 0.18163 0.0
C717 C 0.67061 0.68135 0.19264 0.0
C718 C 0.62708 0.69117 0.15045 0.0
C719 C 0.63527 0.68111 0.13004 0.0
C720 C 0.66206 0.67133 0.14086 0.0
C721 C 0.67989 0.67149 0.17174 0.0
C722 C 0.5751 0.66945 0.05635 0.0
C723 C 0.58358 0.67895 0.03423 0.0
C724 C 0.59136 0.67026 0.08763 0.0
C725 C 0.61568 0.68068 0.09756 0.0
C726 C 0.62259 0.69042 0.07593 0.0
C727 C 0.60705 0.68952 0.04445 0.0
H728 H 0.47564 0.42503 0.8373 0.0
H729 H 0.34936 0.4403 0.80635 0.0
H730 H 0.45048 0.42613 0.89295 0.0
H731 H 0.32439 0.44127 0.86187 0.0
H732 H 0.28122 0.4231 0.95922 0.0
H733 H 0.30641 0.42457 0.9037 0.0
H734 H 0.42771 0.44248 0.93489 0.0
H735 H 0.4026 0.44115 0.99038 0.0
C736 C 0.44272 0.4287 0.84235 0.0
C737 C 0.41449 0.43254 0.81736 0.0
C738 C 0.42842 0.42937 0.87419 0.0
C739 C 0.38543 0.43373 0.88162 0.0
C740 C 0.35754 0.43778 0.85675 0.0
C741 C 0.37202 0.43728 0.82498 0.0
C742 C 0.31305 0.42746 0.95424 0.0
C743 C 0.3399 0.43197 0.97925 0.0
C744 C 0.32737 0.42834 0.92246 0.0
C745 C 0.36908 0.43359 0.91509 0.0
C746 C 0.39559 0.4383 0.93998 0.0
C747 C 0.38101 0.43759 0.97171 0.0
H748 H 0.40286 0.29392 0.77433 0.0
H749 H 0.2815 0.31229 0.80411 0.0
H750 H 0.42632 0.29234 0.83011 0.0
H751 H 0.30498 0.31054 0.85995 0.0
H752 H 0.34591 0.29495 0.95798 0.0
H753 H 0.32197 0.29373 0.90225 0.0
H754 H 0.44846 0.30892 0.87195 0.0
H755 H 0.47249 0.3103 0.92776 0.0
C756 C 0.38089 0.29749 0.79273 0.0
C757 C 0.34038 0.30331 0.7847 0.0
C758 C 0.39451 0.29663 0.82466 0.0
C759 C 0.36756 0.30137 0.84925 0.0
C760 C 0.32627 0.30675 0.84141 0.0
C761 C 0.31294 0.30779 0.80944 0.0
C762 C 0.36886 0.29794 0.93949 0.0
C763 C 0.41107 0.30281 0.94739 0.0
C764 C 0.35499 0.29728 0.9076 0.0
C765 C 0.3833 0.30127 0.88288 0.0
C766 C 0.42609 0.30571 0.89059 0.0
C767 C 0.43974 0.30655 0.92253 0.0
H768 H 0.22545 0.95744 0.23625 0.0
H769 H 0.33679 0.97705 0.19426 0.0
H770 H 0.1971 0.97677 0.25817 0.0
H771 H 0.30955 -0.00372 0.2172 0.0
H772 H 0.22202 0.03022 0.23487 0.0
H773 H 0.25205 0.01118 0.21275 0.0
H774 H 0.21292 0.99162 0.29861 0.0
H775 H 0.18122 0.01062 0.32016 0.0
C776 C 0.24388 0.96588 0.23174 0.0
C777 C 0.28324 0.96573 0.21347 0.0
C778 C 0.2279 0.97695 0.24456 0.0
C779 C 0.25123 0.98809 0.23969 0.0
C780 C 0.29041 0.98792 0.22111 0.0
C781 C 0.3061 0.97688 0.20801 0.0
C782 C 0.22031 0.02189 0.2492 0.0
C783 C 0.19919 0.0219 0.27923 0.0
C784 C 0.23761 0.01096 0.23652 0.0
C785 C 0.23462 -0.00017 0.25378 0.0
C786 C 0.21489 -4e-05 0.28436 0.0
C787 C 0.19713 0.01087 0.29687 0.0
H788 H 0.96662 0.27975 0.27076 0.0
H789 H 0.91907 0.25991 0.18767 0.0
H790 H 0.0012 0.26096 0.29081 0.0
H791 H 0.95518 0.24117 0.2071 0.0
H792 H 0.98068 0.20703 0.26774 0.0
H793 H 0.94674 0.22602 0.24807 0.0
H794 H 0.06053 0.24684 0.28218 0.0
H795 H 0.09355 0.22793 0.30289 0.0
C796 C 0.96422 0.27141 0.25649 0.0
C797 C 0.94011 0.2713 0.22764 0.0
C798 C 0.98417 0.26063 0.26796 0.0
C799 C 0.98085 0.24952 0.25066 0.0
C800 C 0.95764 0.2495 0.22136 0.0
C801 C 0.93729 0.26026 0.21006 0.0
C802 C -0.00173 0.21568 0.27121 0.0
C803 C 0.03971 0.21599 0.28694 0.0
C804 C 0.97902 0.22656 0.25967 0.0
C805 C 0.00102 0.23797 0.26334 0.0
C806 C 0.04235 0.23825 0.27931 0.0
C807 C 0.06137 0.2274 0.29111 0.0
H808 H 0.24772 0.20632 0.99587 0.0
H809 H 0.13336 0.22673 0.96148 0.0
H810 H 0.28343 0.22562 0.01171 0.0
H811 H 0.16814 0.24596 0.97844 0.0
H812 H 0.26329 0.27887 0.98179 0.0
H813 H 0.227 0.25973 0.96572 0.0
H814 H 0.27852 0.24168 0.05039 0.0
H815 H 0.31628 0.26073 0.06575 0.0
C816 C 0.23016 0.21493 0.99181 0.0
C817 C 0.18783 0.21501 0.97734 0.0
C818 C 0.25043 0.22599 1.00113 0.0
C819 C 0.22859 0.23736 0.99649 0.0
C820 C 0.18625 0.23741 0.98194 0.0
C821 C 0.16621 0.22637 0.97231 0.0
C822 C 0.26656 0.27084 0.9971 0.0
C823 C 0.29266 0.27129 0.02501 0.0
C824 C 0.24564 0.25986 0.98794 0.0
C825 C 0.24995 0.24912 0.00668 0.0
C826 C 0.27522 0.24969 0.03504 0.0
C827 C 0.29655 0.26064 0.044 0.0
H828 H 0.08971 0.00692 0.94588 0.0
H829 H 0.97788 0.02795 0.98216 0.0
H830 H 0.05438 0.98791 0.96367 0.0
H831 H 0.94159 0.00883 0.99892 0.0
H832 H 0.9142 0.97415 0.05766 0.0
H833 H 0.94901 -0.00684 0.03875 0.0
H834 H -0.00565 0.97416 0.95364 0.0
H835 H 0.96103 0.95508 0.97314 0.0
C836 C 0.05721 0.00747 0.9572 0.0
C837 C 0.03663 0.01894 0.9627 0.0
C838 C 0.03684 -0.00345 0.96731 0.0
C839 C -0.0048 -0.00317 0.98287 0.0
C840 C 0.97407 0.0083 0.98757 0.0
C841 C -0.00534 0.01925 0.97772 0.0
C842 C 0.93185 0.97404 0.03501 0.0
C843 C 0.93513 0.96312 0.01698 0.0
C844 C 0.95145 0.98496 0.02401 0.0
C845 C 0.97435 0.98522 0.99459 0.0
C846 C 0.97759 0.97426 0.97663 0.0
C847 C 0.9584 0.96332 0.98778 0.0
H848 H 0.68028 0.00847 0.83268 0.0
H849 H 0.72949 0.02989 0.75278 0.0
H850 H 0.71391 0.98992 0.80986 0.0
H851 H 0.76121 0.01136 0.72926 0.0
H852 H 0.84685 0.97787 0.70844 0.0
H853 H 0.81779 -0.00355 0.73363 0.0
H854 H 0.70287 0.9759 0.76703 0.0
H855 H 0.73317 0.95717 0.74299 0.0
C856 C 0.69842 0.00921 0.81031 0.0
C857 C 0.70234 0.02063 0.79457 0.0
C858 C 0.7173 -0.00143 0.79704 0.0
C859 C 0.73997 -0.0009 0.76754 0.0
C860 C 0.7446 0.0106 0.75221 0.0
C861 C 0.72629 0.02125 0.76569 0.0
C862 C 0.81524 0.97734 0.721 0.0
C863 C 0.79222 0.96607 0.72368 0.0
C864 C 0.79849 0.98801 0.73541 0.0
C865 C 0.75798 0.9877 0.75246 0.0
C866 C 0.73461 0.97644 0.75465 0.0
C867 C 0.7517 0.96572 0.7406 0.0
H868 H 0.08422 0.72704 0.80898 0.0
H869 H 0.97042 0.70709 0.77168 0.0
H870 H 0.05332 0.74627 0.78864 0.0
H871 H 0.93862 0.72642 0.75233 0.0
H872 H 0.91959 0.76031 0.68993 0.0
H873 H 0.95159 0.74129 0.71109 0.0
H874 H -0.00501 0.76095 0.79571 0.0
H875 H 0.96443 0.78003 0.774 0.0
C876 C 0.05221 0.72679 0.7969 0.0
C877 C 0.02981 0.71554 0.79183 0.0
C878 C 0.03442 0.73783 0.7853 0.0
C879 C -0.00637 0.73789 0.76863 0.0
C880 C 0.97058 0.72667 0.76446 0.0
C881 C 0.98858 0.71561 0.77582 0.0
C882 C 0.93632 0.76057 0.71292 0.0
C883 C 0.93964 0.77166 0.73025 0.0
C884 C 0.95428 0.74966 0.7252 0.0
C885 C 0.97554 0.74957 0.75524 0.0
C886 C 0.97934 0.76071 0.77234 0.0
C887 C 0.96177 0.77165 0.7599 0.0
H888 H 0.72009 0.70447 0.01003 0.0
H889 H 0.6756 0.72422 0.92598 0.0
H890 H 0.75306 0.72333 0.03097 0.0
H891 H 0.71022 0.74307 0.94633 0.0
H892 H 0.73593 0.77728 0.00699 0.0
H893 H 0.70155 0.75838 0.98688 0.0
H894 H 0.81305 0.73719 0.02312 0.0
H895 H 0.84634 0.75598 0.04427 0.0
C896 C 0.71798 0.71282 0.99577 0.0
C897 C 0.69538 0.71287 0.96631 0.0
C898 C 0.73701 0.72364 0.00775 0.0
C899 C 0.73435 0.73474 0.99036 0.0
C900 C 0.71224 0.73474 0.96063 0.0
C901 C 0.69273 0.72392 0.94881 0.0
C902 C 0.75287 0.76857 0.01084 0.0
C903 C 0.79373 0.76811 0.02731 0.0
C904 C 0.73339 0.75774 0.99907 0.0
C905 C 0.75459 0.74625 0.00325 0.0
C906 C 0.79539 0.74584 0.0199 0.0
C907 C 0.81459 0.75663 0.03194 0.0
H908 H 0.1412 0.50879 0.77744 0.0
H909 H 0.22696 0.53439 0.72701 0.0
H910 H 0.18715 0.49164 0.75906 0.0
H911 H 0.27367 0.51725 0.70939 0.0
H912 H 0.32258 0.48231 0.65846 0.0
H913 H 0.27388 0.49937 0.67434 0.0
H914 H 0.26016 0.48328 0.76856 0.0
H915 H 0.30746 0.46617 0.75255 0.0
C916 C 0.17004 0.51076 0.76263 0.0
C917 C 0.18056 0.52294 0.7538 0.0
C918 C 0.19647 0.50094 0.75217 0.0
C919 C 0.23416 0.50308 0.73283 0.0
C920 C 0.24454 0.51527 0.7239 0.0
C921 C 0.21797 0.5251 0.73423 0.0
C922 C 0.30899 0.48242 0.6825 0.0
C923 C 0.31877 0.47288 0.70419 0.0
C924 C 0.28132 0.49221 0.69166 0.0
C925 C 0.26306 0.49266 0.7227 0.0
C926 C 0.27298 0.48311 0.7443 0.0
C927 C 0.30037 0.47332 0.73514 0.0
H928 H 0.33843 0.7571 0.56499 0.0
H929 H 0.22962 0.77738 0.52185 0.0
H930 H 0.30853 0.73793 0.54343 0.0
H931 H 0.19871 0.75812 0.50126 0.0
H932 H 0.18274 0.72429 0.43872 0.0
H933 H 0.21475 0.74314 0.46092 0.0
H934 H 0.2491 0.72344 0.54755 0.0
H935 H 0.2186 0.70452 0.52485 0.0
C936 C 0.30767 0.75744 0.55137 0.0
C937 C 0.28646 0.76876 0.54501 0.0
C938 C 0.29045 0.74643 0.53906 0.0
C939 C 0.25142 0.74649 0.52035 0.0
C940 C 0.2294 0.75778 0.51495 0.0
C941 C 0.24684 0.7688 0.52703 0.0
C942 C 0.1976 0.72397 0.46236 0.0
C943 C 0.19823 0.71293 0.48001 0.0
C944 C 0.21552 0.7348 0.47523 0.0
C945 C 0.23404 0.73485 0.50619 0.0
C946 C 0.23554 0.72371 0.52353 0.0
C947 C 0.21802 0.71286 0.51051 0.0
H948 H 0.96744 0.45623 0.49035 0.0
H949 H 0.92211 0.47832 0.5702 0.0
H950 H -0.00289 0.47462 0.46466 0.0
H951 H 0.9535 0.49673 0.54509 0.0
H952 H 0.96956 0.52894 0.47663 0.0
H953 H 0.93981 0.51028 0.50134 0.0
H954 H 0.05413 0.48969 0.46729 0.0
H955 H 0.08282 0.50821 0.44155 0.0
C956 C 0.96457 0.46499 0.50272 0.0
C957 C 0.94244 0.46583 0.53231 0.0
C958 C 0.98169 0.47556 0.48799 0.0
C959 C 0.97754 0.48719 0.50269 0.0
C960 C 0.95646 0.48796 0.53276 0.0
C961 C 0.93887 0.4774 0.54732 0.0
C962 C 0.98807 0.52039 0.47418 0.0
C963 C 0.02845 0.52004 0.45709 0.0
C964 C 0.97127 0.50971 0.48862 0.0
C965 C -0.00525 0.49848 0.48658 0.0
C966 C 0.03485 0.49812 0.46904 0.0
C967 C 0.05137 0.50876 0.45432 0.0
H968 H 0.64023 0.51036 0.31005 0.0
H969 H 0.75774 0.52973 0.27691 0.0
H970 H 0.66994 0.49111 0.28901 0.0
H971 H 0.78848 0.51035 0.25698 0.0
H972 H 0.80778 0.47688 0.19297 0.0
H973 H 0.77715 0.49599 0.2147 0.0
H974 H 0.72508 0.47579 0.29592 0.0
H975 H 0.75404 0.45667 0.27349 0.0
C976 C 0.67284 0.51047 0.2988 0.0
C977 C 0.6966 0.52158 0.29506 0.0
C978 C 0.68996 0.49941 0.28678 0.0
C979 C 0.73151 0.49917 0.27107 0.0
C980 C 0.75594 0.51023 0.26831 0.0
C981 C 0.73855 0.52133 0.28003 0.0
C982 C 0.78939 0.47653 0.2153 0.0
C983 C 0.78312 0.46528 0.23143 0.0
C984 C 0.77223 0.4875 0.22795 0.0
C985 C 0.74892 0.48746 0.25723 0.0
C986 C 0.74229 0.47615 0.27312 0.0
C987 C 0.75896 0.46518 0.26027 0.0
H988 H 0.83745 0.25978 0.56577 0.0
H989 H 0.72931 0.27966 0.52053 0.0
H990 H 0.80676 0.24039 0.54642 0.0
H991 H 0.69765 0.26015 0.50204 0.0
H992 H 0.68652 0.22511 0.44122 0.0
H993 H 0.71434 0.24454 0.46304 0.0
H994 H 0.74666 0.2261 0.5519 0.0
H995 H 0.72027 0.20663 0.5297 0.0
C996 C 0.80666 0.26 0.55216 0.0
C997 C 0.78592 0.27127 0.54454 0.0
C998 C 0.78895 0.24885 0.54115 0.0
C999 C 0.74988 0.24871 0.52249 0.0
C1000 C 0.72827 0.25996 0.51583 0.0
C1001 C 0.74619 0.27113 0.52667 0.0
C1002 C 0.69974 0.22522 0.46536 0.0
C1003 C 0.70151 0.21434 0.48366 0.0
C1004 C 0.71531 0.23637 0.47799 0.0
C1005 C 0.7326 0.2369 0.50928 0.0
C1006 C 0.73417 0.226 0.52757 0.0
C1007 C 0.71897 0.21483 0.51485 0.0
H1008 H 0.47998 0.27912 0.75425 0.0
H1009 H 0.42958 0.25985 0.67113 0.0
H1010 H 0.51017 0.25989 0.77491 0.0
H1011 H 0.46157 0.24061 0.69112 0.0
H1012 H 0.48159 0.20619 0.75209 0.0
H1013 H 0.45084 0.22552 0.73174 0.0
H1014 H 0.56672 0.24512 0.76711 0.0
H1015 H 0.59628 0.22595 0.78858 0.0
C1016 C 0.47608 0.2708 0.74009 0.0
C1017 C 0.45248 0.27099 0.71104 0.0
C1018 C 0.49351 0.25976 0.75191 0.0
C1019 C 0.48828 0.24867 0.73474 0.0
C1020 C 0.46548 0.24893 0.70528 0.0
C1021 C 0.44752 0.25996 0.69365 0.0
C1022 C 0.50024 0.21466 0.7557 0.0
C1023 C 0.54119 0.21457 0.77207 0.0
C1024 C 0.48286 0.22573 0.74378 0.0
C1025 C 0.50636 0.2369 0.74766 0.0
C1026 C 0.5473 0.23675 0.76414 0.0
C1027 C 0.56436 0.22574 0.77638 0.0
H1028 H 0.52008 0.02798 0.51704 0.0
H1029 H 0.58619 0.00825 0.44053 0.0
H1030 H 0.4809 0.00918 0.53226 0.0
H1031 H 0.54585 0.98951 0.45509 0.0
H1032 H 0.50578 0.95534 0.51205 0.0
H1033 H 0.54429 0.9743 0.49675 0.0
H1034 H 0.42403 -0.0048 0.5155 0.0
H1035 H 0.38616 0.97634 0.53184 0.0
C1036 C 0.52572 0.01967 0.50315 0.0
C1037 C 0.55625 0.01959 0.4776 0.0
C1038 C 0.50316 0.00889 0.51183 0.0
C1039 C 0.51035 -0.00219 0.49499 0.0
C1040 C 0.54015 -0.00218 0.46895 0.0
C1041 C 0.56298 0.00859 0.46042 0.0
C1042 C 0.48768 0.96399 0.51301 0.0
C1043 C 0.44301 0.96435 0.52323 0.0
C1044 C 0.50962 0.97485 0.50401 0.0
C1045 C 0.48719 0.98627 0.50476 0.0
C1046 C 0.44251 0.9866 0.51507 0.0
C1047 C 0.42074 0.97577 0.52434 0.0
H1048 H 0.61464 0.72985 0.28582 0.0
H1049 H 0.50198 0.70779 0.25538 0.0
H1050 H 0.57586 0.74851 0.26908 0.0
H1051 H 0.46243 0.7265 0.2397 0.0
H1052 H 0.42182 0.76078 0.18473 0.0
H1053 H 0.4635 0.74235 0.19994 0.0
H1054 H 0.51487 0.76152 0.28301 0.0
H1055 H 0.47452 0.78004 0.26715 0.0
C1056 C 0.58135 0.729 0.2759 0.0
C1057 C 0.56134 0.71735 0.27191 0.0
C1058 C 0.55903 0.73971 0.2664 0.0
C1059 C 0.51605 0.73902 0.25296 0.0
C1060 C 0.49584 0.72736 0.2494 0.0
C1061 C 0.51833 0.71664 0.25864 0.0
C1062 C 0.44234 0.76107 0.20608 0.0
C1063 C 0.44497 0.77185 0.22471 0.0
C1064 C 0.46593 0.75048 0.21496 0.0
C1065 C 0.4923 0.75042 0.24283 0.0
C1066 C 0.49538 0.76128 0.26117 0.0
C1067 C 0.47214 0.7719 0.25212 0.0
H1068 H 0.50824 0.45642 0.03534 0.0
H1069 H 0.39628 0.47756 0.0709 0.0
H1070 H 0.54045 0.47514 0.01264 0.0
H1071 H 0.42757 0.4962 0.04721 0.0
H1072 H 0.51822 0.52922 0.02693 0.0
H1073 H 0.48654 0.5108 0.05139 0.0
H1074 H 0.52801 0.48918 0.96954 0.0
H1075 H 0.56121 0.50756 0.94562 0.0
C1076 C 0.49056 0.46507 0.03837 0.0
C1077 C 0.44974 0.46551 0.05491 0.0
C1078 C 0.50878 0.47579 0.02508 0.0
C1079 C 0.48639 0.48717 0.02779 0.0
C1080 C 0.44599 0.48763 0.04494 0.0
C1081 C 0.42797 0.47693 0.05848 0.0
C1082 C 0.52022 0.52056 0.014 0.0
C1083 C 0.54221 0.51984 0.98433 0.0
C1084 C 0.50196 0.50999 0.02802 0.0
C1085 C 0.50491 0.49848 0.01254 0.0
C1086 C 0.52595 0.49784 0.98245 0.0
C1087 C 0.5446 0.50839 0.96857 0.0
H1088 H 0.18063 0.14695 0.34061 0.0
H1089 H 0.04706 0.15105 0.30291 0.0
H1090 H 0.17517 0.12472 0.3349 0.0
H1091 H 0.04186 0.1286 0.29644 0.0
H1092 H 0.03485 0.08738 0.32817 0.0
H1093 H 0.03684 0.10989 0.32813 0.0
H1094 H 0.17356 0.10892 0.29487 0.0
H1095 H 0.17196 0.08641 0.29588 0.0
C1096 C 0.15018 0.1431 0.33076 0.0
C1097 C 0.11434 0.15076 0.32204 0.0
C1098 C 0.14717 0.13033 0.32729 0.0
C1099 C 0.1083 0.12487 0.31483 0.0
C1100 C 0.07219 0.13252 0.30628 0.0
C1101 C 0.07515 0.14536 0.30992 0.0
C1102 C 0.06519 0.09198 0.32053 0.0
C1103 C 0.10343 0.08514 0.31235 0.0
C1104 C 0.06624 0.10489 0.32036 0.0
C1105 C 0.1055 0.11121 0.31183 0.0
C1106 C 0.14308 0.10433 0.30225 0.0
C1107 C 0.14213 0.09143 0.30266 0.0
H1108 H 0.17624 0.14936 0.96399 0.0
H1109 H 0.04232 0.14598 0.92643 0.0
H1110 H 0.18224 0.12684 0.96608 0.0
H1111 H 0.04872 0.12365 0.92744 0.0
H1112 H 0.05688 0.08375 0.95587 0.0
H1113 H 0.05177 0.10614 0.96134 0.0
H1114 H 0.18923 0.10964 0.93075 0.0
H1115 H 0.19468 0.08727 0.92649 0.0
C1116 C 0.14817 0.14381 0.95615 0.0
C1117 C 0.10881 0.14943 0.94513 0.0
C1118 C 0.15162 0.13092 0.9572 0.0
C1119 C 0.11591 0.12341 0.94697 0.0
C1120 C 0.07654 0.1291 0.93614 0.0
C1121 C 0.07297 0.14194 0.93537 0.0
C1122 C 0.08603 0.08932 0.95051 0.0
C1123 C 0.1261 0.08377 0.94065 0.0
C1124 C 0.08309 0.10215 0.9535 0.0
C1125 C 0.12003 0.10972 0.9463 0.0
C1126 C 0.16033 0.10411 0.93696 0.0
C1127 C 0.16337 0.09128 0.9343 0.0
H1128 H 0.80059 0.90125 0.70061 0.0
H1129 H 0.93319 0.89813 0.66049 0.0
H1130 H 0.79678 0.87876 0.70551 0.0
H1131 H 0.92905 0.87579 0.66465 0.0
H1132 H 0.92554 0.83665 0.70203 0.0
H1133 H 0.92867 0.85919 0.70287 0.0
H1134 H 0.79109 0.86079 0.6717 0.0
H1135 H 0.7877 0.83835 0.67164 0.0
C1136 C 0.82879 0.89577 0.69274 0.0
C1137 C 0.86722 0.90145 0.68029 0.0
C1138 C 0.82662 0.8829 0.69547 0.0
C1139 C 0.86273 0.87548 0.68561 0.0
C1140 C 0.90103 0.88122 0.6731 0.0
C1141 C 0.90327 0.89404 0.67053 0.0
C1142 C 0.89596 0.84183 0.69554 0.0
C1143 C 0.85641 0.83573 0.68679 0.0
C1144 C 0.89776 0.85474 0.69589 0.0
C1145 C 0.86013 0.86179 0.68727 0.0
C1146 C 0.82045 0.85565 0.67896 0.0
C1147 C 0.8186 0.84278 0.67877 0.0
H1148 H 0.78995 0.89521 0.07583 0.0
H1149 H 0.92679 0.89803 0.04366 0.0
H1150 H 0.79564 0.87284 0.07584 0.0
H1151 H 0.9322 0.8755 0.0428 0.0
H1152 H 0.94056 0.83624 0.08381 0.0
H1153 H 0.93523 0.8586 0.0799 0.0
H1154 H 0.80151 0.85513 0.04186 0.0
H1155 H 0.80648 0.83269 0.04666 0.0
C1156 C 0.82113 0.89104 0.06833 0.0
C1157 C 0.85795 0.89838 0.05973 0.0
C1158 C 0.8243 0.87819 0.06817 0.0
C1159 C 0.86432 0.87236 0.05925 0.0
C1160 C 0.90105 0.87971 0.05022 0.0
C1161 C 0.89794 0.89261 0.05057 0.0
C1162 C 0.91008 0.84024 0.07446 0.0
C1163 C 0.87389 0.83271 0.06559 0.0
C1164 C 0.90714 0.85307 0.07203 0.0
C1165 C 0.868 0.85867 0.06049 0.0
C1166 C 0.83193 0.85112 0.05126 0.0
C1167 C 0.83478 0.83826 0.05391 0.0
H1168 H 0.0201 0.58719 0.81572 0.0
H1169 H 0.15463 0.5854 0.7785 0.0
H1170 H 0.02557 0.6096 0.81886 0.0
H1171 H 0.15965 0.60787 0.78056 0.0
H1172 H 0.17378 0.64544 0.82879 0.0
H1173 H 0.16627 0.62333 0.82083 0.0
H1174 H 0.03 0.62851 0.78927 0.0
H1175 H 0.03723 0.65074 0.79825 0.0
C1176 C 0.05062 0.59161 0.80773 0.0
C1177 C 0.08708 0.58454 0.79708 0.0
C1178 C 0.05366 0.60447 0.80936 0.0
C1179 C 0.09314 0.61054 0.80014 0.0
C1180 C 0.12906 0.60347 0.78846 0.0
C1181 C 0.12614 0.5906 0.78711 0.0
C1182 C 0.14226 0.64189 0.81999 0.0
C1183 C 0.10609 0.64983 0.81411 0.0
C1184 C 0.13804 0.62919 0.81521 0.0
C1185 C 0.09763 0.62413 0.80419 0.0
C1186 C 0.06145 0.63209 0.79811 0.0
C1187 C 0.0656 0.64482 0.80315 0.0
H1188 H 0.02936 0.64886 0.4261 0.0
H1189 H 0.16698 0.64789 0.45723 0.0
H1190 H 0.02879 0.62641 0.42224 0.0
H1191 H 0.16606 0.62539 0.45416 0.0
H1192 H 0.168 0.58884 0.40046 0.0
H1193 H 0.1648 0.6109 0.4103 0.0
H1194 H 0.03272 0.6068 0.4508 0.0
H1195 H 0.0357 0.58453 0.44036 0.0
C1196 C 0.05925 0.64384 0.43271 0.0
C1197 C 0.09839 0.65015 0.44168 0.0
C1198 C 0.05883 0.63096 0.43061 0.0
C1199 C 0.09751 0.62412 0.43753 0.0
C1200 C 0.13598 0.63042 0.44802 0.0
C1201 C 0.13646 0.6433 0.44996 0.0
C1202 C 0.13827 0.59261 0.41157 0.0
C1203 C 0.10219 0.58495 0.41982 0.0
C1204 C 0.13658 0.60527 0.41743 0.0
C1205 C 0.09879 0.61059 0.43179 0.0
C1206 C 0.06227 0.60297 0.43962 0.0
C1207 C 0.06393 0.59024 0.43363 0.0
H1208 H 0.9164 0.33536 0.21549 0.0
H1209 H 0.78177 0.33782 0.1788 0.0
H1210 H 0.91947 0.35782 0.21976 0.0
H1211 H 0.78532 0.36025 0.18193 0.0
H1212 H 0.79306 0.40044 0.21214 0.0
H1213 H 0.788 0.37794 0.2161 0.0
H1214 H 0.92499 0.37486 0.1842 0.0
H1215 H 0.93034 0.39719 0.18129 0.0
C1216 C 0.88748 0.34071 0.20834 0.0
C1217 C 0.84895 0.33485 0.19667 0.0
C1218 C 0.88928 0.35358 0.21063 0.0
C1219 C 0.85276 0.36087 0.20094 0.0
C1220 C 0.81383 0.35495 0.19001 0.0
C1221 C 0.8119 0.34208 0.18802 0.0
C1222 C 0.82209 0.39492 0.20618 0.0
C1223 C 0.8621 0.40057 0.19649 0.0
C1224 C 0.81918 0.38204 0.20832 0.0
C1225 C 0.85614 0.37457 0.20054 0.0
C1226 C 0.89615 0.38029 0.19104 0.0
C1227 C 0.89914 0.39312 0.18916 0.0
H1228 H 0.79962 0.33719 0.55588 0.0
H1229 H 0.93908 0.34027 0.58129 0.0
H1230 H 0.79456 0.35969 0.55249 0.0
H1231 H 0.93379 0.36262 0.57908 0.0
H1232 H 0.92281 0.40233 0.54968 0.0
H1233 H 0.92588 0.37989 0.54484 0.0
H1234 H 0.79429 0.37718 0.58703 0.0
H1235 H 0.79066 0.39958 0.59066 0.0
C1236 C 0.82913 0.34267 0.56076 0.0
C1237 C 0.86972 0.33698 0.5688 0.0
C1238 C 0.82624 0.35556 0.55897 0.0
C1239 C 0.86379 0.36299 0.56551 0.0
C1240 C 0.90442 0.35722 0.57325 0.0
C1241 C 0.90738 0.34438 0.57473 0.0
C1242 C 0.89448 0.39693 0.55771 0.0
C1243 C 0.8566 0.4027 0.57067 0.0
C1244 C 0.89627 0.38406 0.55507 0.0
C1245 C 0.86043 0.3767 0.56573 0.0
C1246 C 0.82222 0.38254 0.57813 0.0
C1247 C 0.82026 0.39539 0.58043 0.0
H1248 H 0.67629 0.08394 0.80599 0.0
H1249 H 0.53899 0.08639 0.83729 0.0
H1250 H 0.67828 0.10629 0.79883 0.0
H1251 H 0.54138 0.10875 0.83126 0.0
H1252 H 0.54985 0.14838 0.79492 0.0
H1253 H 0.54574 0.12578 0.79457 0.0
H1254 H 0.68 0.12395 0.83244 0.0
H1255 H 0.68447 0.14629 0.83184 0.0
C1256 C 0.64658 0.08926 0.8114 0.0
C1257 C 0.6076 0.08344 0.82237 0.0
C1258 C 0.64773 0.10207 0.80742 0.0
C1259 C 0.61008 0.10934 0.81472 0.0
C1260 C 0.57078 0.10344 0.82502 0.0
C1261 C 0.56951 0.09062 0.82869 0.0
C1262 C 0.57845 0.1431 0.80299 0.0
C1263 C 0.61752 0.14909 0.81325 0.0
C1264 C 0.57609 0.13018 0.80291 0.0
C1265 C 0.61265 0.12304 0.81332 0.0
C1266 C 0.65159 0.12911 0.82356 0.0
C1267 C 0.65404 0.14196 0.8234 0.0
H1268 H 0.70838 0.14927 0.46546 0.0
H1269 H 0.5854 0.14414 0.41293 0.0
H1270 H 0.71306 0.12689 0.47394 0.0
H1271 H 0.59033 0.12201 0.42094 0.0
H1272 H 0.58609 0.08424 0.46338 0.0
H1273 H 0.58374 0.10675 0.46284 0.0
H1274 H 0.7255 0.10788 0.44342 0.0
H1275 H 0.72805 0.08538 0.44473 0.0
C1276 C 0.6825 0.14338 0.45567 0.0
C1277 C 0.64634 0.14846 0.43878 0.0
C1278 C 0.68517 0.13059 0.46049 0.0
C1279 C 0.65176 0.12269 0.44845 0.0
C1280 C 0.61601 0.12783 0.43125 0.0
C1281 C 0.61333 0.14054 0.4265 0.0
C1282 C 0.61683 0.0893 0.45935 0.0
C1283 C 0.65716 0.08304 0.45385 0.0
C1284 C 0.61547 0.10219 0.45889 0.0
C1285 C 0.65436 0.1091 0.4527 0.0
C1286 C 0.69504 0.10284 0.44851 0.0
C1287 C 0.69643 0.08994 0.44911 0.0
H1288 H 0.41486 0.89566 0.15602 0.0
H1289 H 0.2857 0.90072 0.20033 0.0
H1290 H 0.41015 0.87359 0.16541 0.0
H1291 H 0.2813 0.87846 0.21044 0.0
H1292 H 0.27151 0.83659 0.1851 0.0
H1293 H 0.27319 0.85906 0.18192 0.0
H1294 H 0.41287 0.85879 0.20812 0.0
H1295 H 0.41148 0.83629 0.21036 0.0
C1296 C 0.38556 0.89206 0.16805 0.0
C1297 C 0.35074 0.89993 0.17759 0.0
C1298 C 0.383 0.87939 0.17365 0.0
C1299 C 0.34564 0.87427 0.18908 0.0
C1300 C 0.31047 0.88212 0.19836 0.0
C1301 C 0.31296 0.89485 0.1926 0.0
C1302 C 0.30245 0.84134 0.19057 0.0
C1303 C 0.34151 0.83467 0.19765 0.0
C1304 C 0.30333 0.85423 0.18889 0.0
C1305 C 0.34328 0.86071 0.19439 0.0
C1306 C 0.38178 0.85405 0.20304 0.0
C1307 C 0.38096 0.84116 0.20452 0.0
H1308 H 0.42299 0.89898 0.53697 0.0
H1309 H 0.2872 0.8967 0.57156 0.0
H1310 H 0.42796 0.87645 0.53747 0.0
H1311 H 0.29255 0.87434 0.57315 0.0
H1312 H 0.30156 0.83377 0.55031 0.0
H1313 H 0.29683 0.85605 0.54198 0.0
H1314 H 0.43279 0.86009 0.57537 0.0
H1315 H 0.43789 0.83786 0.58253 0.0
C1316 C 0.39426 0.89367 0.54468 0.0
C1317 C 0.35474 0.8996 0.55421 0.0
C1318 C 0.39713 0.88077 0.54512 0.0
C1319 C 0.36066 0.87356 0.55542 0.0
C1320 C 0.321 0.87955 0.56453 0.0
C1321 C 0.31803 0.8924 0.5638 0.0
C1322 C 0.33044 0.83944 0.55569 0.0
C1323 C 0.37003 0.83408 0.56712 0.0
C1324 C 0.32773 0.85221 0.55105 0.0
C1325 C 0.36441 0.8599 0.55809 0.0
C1326 C 0.40415 0.85447 0.56916 0.0
C1327 C 0.40698 0.84171 0.57349 0.0
H1328 H 0.57752 0.65365 0.32494 0.0
H1329 H 0.71182 0.6489 0.28936 0.0
H1330 H 0.56885 0.63134 0.3281 0.0
H1331 H 0.70254 0.62665 0.29061 0.0
H1332 H 0.68958 0.58744 0.32861 0.0
H1333 H 0.69865 0.60975 0.325 0.0
H1334 H 0.55947 0.61335 0.29873 0.0
H1335 H 0.54999 0.59126 0.30452 0.0
C1336 C 0.60498 0.64783 0.31732 0.0
C1337 C 0.6454 0.65305 0.30698 0.0
C1338 C 0.59997 0.63501 0.31892 0.0
C1339 C 0.63499 0.6271 0.30959 0.0
C1340 C 0.67514 0.63239 0.29866 0.0
C1341 C 0.6804 0.64521 0.29769 0.0
C1342 C 0.66097 0.59302 0.32203 0.0
C1343 C 0.61908 0.58754 0.31678 0.0
C1344 C 0.6662 0.60583 0.31972 0.0
C1345 C 0.62979 0.61343 0.31155 0.0
C1346 C 0.58811 0.60787 0.30572 0.0
C1347 C 0.58274 0.59512 0.30867 0.0
H1348 H 0.68676 0.64875 0.94805 0.0
H1349 H 0.55236 0.64456 0.91192 0.0
H1350 H 0.69146 0.6264 0.95594 0.0
H1351 H 0.55732 0.62235 0.91906 0.0
H1352 H 0.56285 0.58401 0.95977 0.0
H1353 H 0.56005 0.60654 0.95929 0.0
H1354 H 0.69604 0.60773 0.92458 0.0
H1355 H 0.6992 0.58528 0.92591 0.0
C1356 C 0.65832 0.64306 0.94171 0.0
C1357 C 0.61915 0.64841 0.92949 0.0
C1358 C 0.66101 0.63026 0.94616 0.0
C1359 C 0.62465 0.62258 0.9383 0.0
C1360 C 0.58558 0.62799 0.92603 0.0
C1361 C 0.58285 0.64074 0.92175 0.0
C1362 C 0.59225 0.5891 0.95234 0.0
C1363 C 0.63116 0.58287 0.94276 0.0
C1364 C 0.5906 0.602 0.9519 0.0
C1365 C 0.62772 0.60894 0.94164 0.0
C1366 C 0.66704 0.6027 0.93297 0.0
C1367 C 0.66876 0.58981 0.93359 0.0
H1368 H 0.45964 0.39842 0.69128 0.0
H1369 H 0.32128 0.39969 0.72058 0.0
H1370 H 0.4552 0.37605 0.68668 0.0
H1371 H 0.3172 0.37722 0.71716 0.0
H1372 H 0.30947 0.3401 0.66574 0.0
H1373 H 0.31532 0.36214 0.67583 0.0
H1374 H 0.44808 0.35685 0.71424 0.0
H1375 H 0.44265 0.33475 0.70306 0.0
C1376 C 0.42847 0.39389 0.6973 0.0
C1377 C 0.39069 0.4008 0.70605 0.0
C1378 C 0.42599 0.38104 0.69482 0.0
C1379 C 0.38575 0.37482 0.70132 0.0
C1380 C 0.34845 0.38174 0.71132 0.0
C1381 C 0.35083 0.3946 0.71349 0.0
C1382 C 0.33986 0.34363 0.67645 0.0
C1383 C 0.37563 0.33571 0.68358 0.0
C1384 C 0.3431 0.35627 0.68248 0.0
C1385 C 0.38206 0.36128 0.69605 0.0
C1386 C 0.41778 0.35332 0.70342 0.0
C1387 C 0.41467 0.34066 0.6971 0.0
H1388 H 0.30549 0.39618 0.10006 0.0
H1389 H 0.43837 0.40159 0.0622 0.0
H1390 H 0.31116 0.37415 0.08973 0.0
H1391 H 0.44362 0.3795 0.05073 0.0
H1392 H 0.45498 0.33784 0.07223 0.0
H1393 H 0.45086 0.36019 0.07737 0.0
H1394 H 0.31228 0.35917 0.04829 0.0
H1395 H 0.31607 0.33671 0.04435 0.0
C1396 C 0.3358 0.39266 0.08922 0.0
C1397 C 0.37151 0.4006 0.08196 0.0
C1398 C 0.33893 0.38003 0.08303 0.0
C1399 C 0.37771 0.37503 0.06914 0.0
C1400 C 0.41344 0.38301 0.06178 0.0
C1401 C 0.41045 0.39567 0.06827 0.0
C1402 C 0.42374 0.3424 0.06661 0.0
C1403 C 0.38573 0.33551 0.05811 0.0
C1404 C 0.42144 0.35524 0.06941 0.0
C1405 C 0.38115 0.3615 0.0635 0.0
C1406 C 0.3436 0.35462 0.0537 0.0
C1407 C 0.34581 0.34176 0.05122 0.0
H1408 H 0.91079 0.03408 0.30532 0.0
H1409 H 0.01333 0.01992 0.36807 0.0
H1410 H 0.85382 0.02522 0.33958 0.0
H1411 H 0.95598 0.011 0.40262 0.0
H1412 H 0.85241 0.03342 0.46958 0.0
H1413 H 0.91148 0.02551 0.43564 0.0
H1414 H 0.81314 0.00968 0.37199 0.0
H1415 H 0.75369 0.01767 0.40612 0.0
C1416 C 0.92119 0.02861 0.32573 0.0
C1417 C 0.96635 0.02804 0.33458 0.0
C1418 C 0.88848 0.02341 0.34532 0.0
C1419 C 0.90038 0.01767 0.37433 0.0
C1420 C 0.94585 0.01554 0.38068 0.0
C1421 C 0.97868 0.02064 0.36082 0.0
C1422 C 0.84335 0.02778 0.44914 0.0
C1423 C 0.79849 0.02656 0.43988 0.0
C1424 C 0.87732 0.02313 0.42971 0.0
C1425 C 0.86692 0.01729 0.40055 0.0
C1426 C 0.82208 0.01436 0.39402 0.0
C1427 C 0.78802 0.01893 0.41366 0.0
H1428 H 0.25577 0.2028 0.38156 0.0
H1429 H 0.31003 0.20233 0.28602 0.0
H1430 H 0.32875 0.20779 0.40306 0.0
H1431 H 0.38273 0.20858 0.30686 0.0
H1432 H 0.49996 0.18875 0.35648 0.0
H1433 H 0.43306 0.19579 0.33009 0.0
H1434 H 0.39665 0.21656 0.41491 0.0
H1435 H 0.46368 0.20869 0.44187 0.0
C1436 C 0.28298 0.20451 0.36501 0.0
C1437 C 0.27775 0.20203 0.33229 0.0
C1438 C 0.3251 0.20742 0.3773 0.0
C1439 C 0.36253 0.20814 0.35688 0.0
C1440 C 0.35529 0.20754 0.32353 0.0
C1441 C 0.31352 0.20416 0.31141 0.0
C1442 C 0.47822 0.19513 0.36907 0.0
C1443 C 0.48651 0.19816 0.40106 0.0
C1444 C 0.43977 0.19931 0.35386 0.0
C1445 C 0.40854 0.2067 0.37031 0.0
C1446 C 0.41923 0.21067 0.40162 0.0
C1447 C 0.45777 0.2063 0.41703 0.0
H1448 H 0.73203 0.21093 0.85916 0.0
H1449 H 0.82686 0.19406 0.79465 0.0
H1450 H 0.79345 0.21816 0.8928 0.0
H1451 H 0.88802 0.20144 0.82786 0.0
H1452 H -0.00633 0.21073 0.89272 0.0
H1453 H 0.93259 0.21788 0.85866 0.0
H1454 H 0.83727 0.2017 0.924 0.0
H1455 H 0.89809 0.19439 0.95762 0.0
C1456 C 0.766 0.2093 0.85126 0.0
C1457 C 0.77474 0.2017 0.82466 0.0
C1458 C 0.80113 0.21342 0.87062 0.0
C1459 C 0.84541 0.21019 0.86324 0.0
C1460 C 0.85426 0.20411 0.83416 0.0
C1461 C 0.8192 0.19981 0.81517 0.0
C1462 C 0.95961 0.2092 0.90057 0.0
C1463 C 0.95054 0.20177 0.92746 0.0
C1464 C 0.92469 0.21327 0.88099 0.0
C1465 C 0.88028 0.21019 0.88842 0.0
C1466 C 0.87113 0.20426 0.91766 0.0
C1467 C 0.90599 0.2 0.93689 0.0
H1468 H 0.2387 0.01993 0.89345 0.0
H1469 H 0.32781 0.0366 0.96236 0.0
H1470 H 0.30275 0.01126 0.86505 0.0
H1471 H 0.39143 0.02799 0.93422 0.0
H1472 H 0.50323 0.01999 0.87759 0.0
H1473 H 0.43929 0.01223 0.90786 0.0
H1474 H 0.35058 0.02575 0.83419 0.0
H1475 H 0.41412 0.03346 0.80422 0.0
C1476 C 0.27178 0.02128 0.90338 0.0
C1477 C 0.27848 0.02925 0.92954 0.0
C1478 C 0.30845 0.01632 0.88707 0.0
C1479 C 0.35217 0.01917 0.89692 0.0
C1480 C 0.35827 0.0256 0.92588 0.0
C1481 C 0.32176 0.03066 0.94193 0.0
C1482 C 0.47022 0.02075 0.86714 0.0
C1483 C 0.46338 0.02766 0.83906 0.0
C1484 C 0.4336 0.01633 0.88455 0.0
C1485 C 0.38986 0.01867 0.87386 0.0
C1486 C 0.38376 0.02381 0.84324 0.0
C1487 C 0.42022 0.02834 0.82608 0.0
H1488 H 0.14852 0.94587 0.53521 0.0
H1489 H 0.24372 0.96249 0.59989 0.0
H1490 H 0.08751 0.95395 0.56739 0.0
H1491 H 0.18239 0.97044 0.63252 0.0
H1492 H 0.07563 0.94686 0.69641 0.0
H1493 H 0.13722 0.95434 0.66378 0.0
H1494 H 0.04351 0.97062 0.59751 0.0
H1495 H 0.98162 0.96329 0.63061 0.0
C1496 C 0.15636 0.95171 0.55554 0.0
C1497 C 0.20077 0.95331 0.56547 0.0
C1498 C 0.12137 0.95643 0.57392 0.0
C1499 C 0.13026 0.96264 0.60281 0.0
C1500 C 0.17469 0.9656 0.61047 0.0
C1501 C 0.20976 0.96106 0.59172 0.0
C1502 C 0.06823 0.95256 0.67573 0.0
C1503 C 0.02395 0.95427 0.66566 0.0
C1504 C 0.10354 0.95692 0.65708 0.0
C1505 C 0.09508 0.96287 0.62776 0.0
C1506 C 0.05087 0.96598 0.61988 0.0
C1507 C 0.01548 0.9618 0.63891 0.0
H1508 H 0.6563 0.78826 0.71242 0.0
H1509 H 0.74662 0.77191 0.64382 0.0
H1510 H 0.5931 0.77996 0.68306 0.0
H1511 H 0.68302 0.76363 0.6141 0.0
H1512 H 0.57346 0.78687 0.55355 0.0
H1513 H 0.6364 0.77911 0.5841 0.0
H1514 H 0.54593 0.76413 0.65476 0.0
H1515 H 0.48258 0.77187 0.62386 0.0
C1516 C 0.66267 0.78241 0.69184 0.0
C1517 C 0.70619 0.78101 0.6799 0.0
C1518 C 0.62641 0.77755 0.67507 0.0
C1519 C 0.6331 0.77138 0.64582 0.0
C1520 C 0.67695 0.76849 0.63637 0.0
C1521 C 0.71335 0.77321 0.65346 0.0
C1522 C 0.56691 0.78145 0.57486 0.0
C1523 C 0.52329 0.78027 0.58679 0.0
C1524 C 0.60302 0.77689 0.59231 0.0
C1525 C 0.59611 0.77123 0.62222 0.0
C1526 C 0.55218 0.76858 0.63195 0.0
C1527 C 0.51593 0.773 0.6142 0.0
H1528 H 0.15018 0.78312 0.21048 0.0
H1529 H 0.24878 0.77073 0.14217 0.0
H1530 H 0.09105 0.77548 0.17602 0.0
H1531 H 0.18931 0.76312 0.10737 0.0
H1532 H 0.08223 0.78776 0.04837 0.0
H1533 H 0.14331 0.77932 0.07965 0.0
H1534 H 0.04881 0.76063 0.14106 0.0
H1535 H 0.98738 0.76905 0.10943 0.0
C1536 C 0.15927 0.77824 0.18876 0.0
C1537 C 0.20392 0.77784 0.17857 0.0
C1538 C 0.12534 0.77377 0.16902 0.0
C1539 C 0.13553 0.76897 0.13857 0.0
C1540 C 0.18053 0.76693 0.13053 0.0
C1541 C 0.21458 0.77126 0.15054 0.0
C1542 C 0.07452 0.78141 0.06767 0.0
C1543 C 0.0301 0.77935 0.077 0.0
C1544 C 0.10959 0.77647 0.08552 0.0
C1545 C 0.10079 0.76952 0.11328 0.0
C1546 C 0.05649 0.76607 0.11999 0.0
C1547 C 0.02133 0.77089 0.10181 0.0
H1548 H 0.73935 0.96035 0.10435 0.0
H1549 H 0.65209 0.94404 0.0337 0.0
H1550 H 0.67434 0.96779 0.13402 0.0
H1551 H 0.58742 0.95159 0.06295 0.0
H1552 H 0.47458 0.96025 0.12155 0.0
H1553 H 0.53935 0.96768 0.09147 0.0
H1554 H 0.62695 0.95139 0.16192 0.0
H1555 H 0.56256 0.94384 0.19151 0.0
C1556 C 0.70642 0.9589 0.09428 0.0
C1557 C 0.70059 0.95138 0.06714 0.0
C1558 C 0.66922 0.96314 0.11133 0.0
C1559 C 0.62587 0.96008 0.10111 0.0
C1560 C 0.62037 0.95413 0.07145 0.0
C1561 C 0.65744 0.94972 0.05474 0.0
C1562 C 0.50766 0.95875 0.13133 0.0
C1563 C 0.51374 0.95126 0.15847 0.0
C1564 C 0.54469 0.96299 0.11406 0.0
C1565 C 0.58814 0.95997 0.1241 0.0
C1566 C 0.59392 0.95393 0.15361 0.0
C1567 C 0.55703 0.94951 0.1705 0.0
H1568 H 0.98498 0.51971 0.84045 0.0
H1569 H 0.88403 0.53722 0.78221 0.0
H1570 H 0.92681 0.51116 0.87493 0.0
H1571 H 0.82617 0.52867 0.81639 0.0
H1572 H 0.72641 0.51979 0.88406 0.0
H1573 H 0.78363 0.51252 0.84687 0.0
H1574 H 0.88616 0.52595 0.9108 0.0
H1575 H 0.82923 0.53325 0.94762 0.0
C1576 C 0.95035 0.52124 0.83406 0.0
C1577 C 0.939 0.52942 0.80918 0.0
C1578 C 0.91705 0.51637 0.8539 0.0
C1579 C 0.87201 0.51947 0.84883 0.0
C1580 C 0.86052 0.52609 0.82105 0.0
C1581 C 0.89375 0.53109 0.80151 0.0
C1582 C 0.76119 0.52063 0.89089 0.0
C1583 C 0.77348 0.52737 0.91831 0.0
C1584 C 0.79395 0.5165 0.8695 0.0
C1585 C 0.83933 0.51891 0.87554 0.0
C1586 C 0.85153 0.52394 0.90535 0.0
C1587 C 0.81886 0.52821 0.92645 0.0
H1588 H 0.31551 0.69448 0.79376 0.0
H1589 H 0.23236 0.71046 0.86741 0.0
H1590 H 0.38179 0.7018 0.82141 0.0
H1591 H 0.29907 0.71774 0.89541 0.0
H1592 H 0.41383 0.69417 0.94972 0.0
H1593 H 0.34806 0.70185 0.92214 0.0
H1594 H 0.43188 0.71743 0.84822 0.0
H1595 H 0.49809 0.70979 0.8762 0.0
C1596 C 0.31138 0.70001 0.8152 0.0
C1597 C 0.26894 0.70165 0.82883 0.0
C1598 C 0.34939 0.7043 0.83097 0.0
C1599 C 0.34564 0.71016 0.86092 0.0
C1600 C 0.30289 0.71316 0.87251 0.0
C1601 C 0.26472 0.70901 0.85642 0.0
C1602 C 0.41833 0.69971 0.92834 0.0
C1603 C 0.46086 0.70116 0.91472 0.0
C1604 C 0.38062 0.70421 0.91259 0.0
C1605 C 0.38479 0.71006 0.88267 0.0
C1606 C 0.42774 0.71286 0.87111 0.0
C1607 C 0.46562 0.70852 0.88719 0.0
H1608 H 0.91183 0.70346 0.44467 0.0
H1609 H 0.01812 0.71402 0.38033 0.0
H1610 H 0.85711 0.71133 0.40699 0.0
H1611 H 0.96308 0.72181 0.34222 0.0
H1612 H 0.76054 0.71797 0.33632 0.0
H1613 H 0.82065 0.72636 0.36915 0.0
H1614 H 0.91687 0.70577 0.31358 0.0
H1615 H 0.85706 0.69734 0.281 0.0
C1616 C 0.92355 0.708 0.42311 0.0
C1617 C 0.96905 0.70783 0.41505 0.0
C1618 C 0.89219 0.7126 0.4015 0.0
C1619 C 0.9058 0.71693 0.37127 0.0
C1620 C 0.95168 0.71839 0.3652 0.0
C1621 C 0.98318 0.71395 0.3871 0.0
C1622 C 0.79469 0.71568 0.33012 0.0
C1623 C 0.80403 0.70665 0.30678 0.0
C1624 C 0.82911 0.7205 0.34901 0.0
C1625 C 0.87328 0.71648 0.34449 0.0
C1626 C 0.88317 0.70903 0.31781 0.0
C1627 C 0.84878 0.7041 0.2992 0.0
H1628 H 0.49438 0.52586 0.36466 0.0
H1629 H 0.41094 0.54149 0.29071 0.0
H1630 H 0.42796 0.51804 0.39199 0.0
H1631 H 0.34493 0.5336 0.31771 0.0
H1632 H 0.22866 0.52432 0.37113 0.0
H1633 H 0.29627 0.51729 0.34379 0.0
H1634 H 0.37673 0.53359 0.41853 0.0
H1635 H 0.30953 0.5407 0.44544 0.0
C1636 C 0.46208 0.52713 0.35345 0.0
C1637 C 0.45762 0.53454 0.32597 0.0
C1638 C 0.42407 0.52266 0.36916 0.0
C1639 C 0.38125 0.52538 0.35729 0.0
C1640 C 0.37741 0.53131 0.32746 0.0
C1641 C 0.41525 0.53593 0.31207 0.0
C1642 C 0.26072 0.52587 0.38246 0.0
C1643 C 0.26406 0.53328 0.41001 0.0
C1644 C 0.2994 0.52188 0.36674 0.0
C1645 C 0.34175 0.52508 0.37871 0.0
C1646 C 0.34465 0.53094 0.40869 0.0
C1647 C 0.30612 0.5351 0.42407 0.0
H1648 H 0.98241 0.46191 0.14574 0.0
H1649 H 0.06624 0.44697 0.22035 0.0
H1650 H 0.0488 0.46913 0.1172 0.0
H1651 H 0.13222 0.4542 0.19217 0.0
H1652 H 0.24821 0.46176 0.13628 0.0
H1653 H 0.182 0.46944 0.16423 0.0
H1654 H 0.09808 0.45327 0.09125 0.0
H1655 H 0.16385 0.44558 0.06365 0.0
C1656 C 0.01483 0.46071 0.15682 0.0
C1657 C 0.01938 0.45364 0.18487 0.0
C1658 C 0.05284 0.4648 0.14041 0.0
C1659 C 0.09573 0.46202 0.1521 0.0
C1660 C 0.09972 0.45652 0.18247 0.0
C1661 C 0.06188 0.45229 0.19859 0.0
C1662 C 0.2157 0.46034 0.12549 0.0
C1663 C 0.21098 0.45284 0.09821 0.0
C1664 C 0.17781 0.46471 0.14156 0.0
C1665 C 0.13484 0.46178 0.13026 0.0
C1666 C 0.13064 0.45573 0.1006 0.0
C1667 C 0.16837 0.45123 0.08485 0.0
H1668 H 0.65041 0.28567 0.20315 0.0
H1669 H 0.7492 0.2715 0.13735 0.0
H1670 H 0.5913 0.27785 0.169 0.0
H1671 H 0.68971 0.26366 0.10287 0.0
H1672 H 0.58522 0.28716 0.03922 0.0
H1673 H 0.64513 0.27901 0.07209 0.0
H1674 H 0.54823 0.26278 0.13621 0.0
H1675 H 0.48796 0.27097 0.10309 0.0
C1676 C 0.65948 0.2804 0.18206 0.0
C1677 C 0.70429 0.2795 0.17246 0.0
C1678 C 0.62555 0.27581 0.16251 0.0
C1679 C 0.63584 0.27038 0.1328 0.0
C1680 C 0.68083 0.26795 0.12542 0.0
C1681 C 0.71489 0.27242 0.14525 0.0
C1682 C 0.57667 0.28139 0.05953 0.0
C1683 C 0.53199 0.28003 0.06913 0.0
C1684 C 0.61108 0.27661 0.07833 0.0
C1685 C 0.60137 0.27051 0.10724 0.0
C1686 C 0.55665 0.26761 0.11431 0.0
C1687 C 0.52213 0.27229 0.09525 0.0
H1688 H 0.98909 0.27455 0.61454 0.0
H1689 H 0.07305 0.29078 0.5417 0.0
H1690 H 0.05537 0.26678 0.64206 0.0
H1691 H 0.13892 0.28302 0.56895 0.0
H1692 H 0.16967 0.28965 0.69823 0.0
H1693 H 0.10426 0.28217 0.66988 0.0
H1694 H 0.18885 0.26746 0.59522 0.0
H1695 H 0.25472 0.27494 0.62395 0.0
C1696 C 0.0215 0.27596 0.60359 0.0
C1697 C 0.02611 0.28355 0.57647 0.0
C1698 C 0.05945 0.27153 0.61942 0.0
C1699 C 0.10236 0.27451 0.60806 0.0
C1700 C 0.10641 0.28054 0.57839 0.0
C1701 C 0.06862 0.2851 0.56284 0.0
C1702 C 0.17442 0.28435 0.67647 0.0
C1703 C 0.21707 0.28312 0.66291 0.0
C1704 C 0.13691 0.27996 0.66028 0.0
C1705 C 0.14137 0.27442 0.62997 0.0
C1706 C 0.18446 0.2718 0.61839 0.0
C1707 C 0.22215 0.27605 0.63489 0.0
H1708 H 0.58959 0.44938 0.72678 0.0
H1709 H 0.49253 0.4655 0.66274 0.0
H1710 H 0.64961 0.45761 0.69408 0.0
H1711 H 0.55292 0.47376 0.62976 0.0
H1712 H 0.65629 0.45116 0.56298 0.0
H1713 H 0.59664 0.45875 0.59704 0.0
H1714 H 0.69409 0.47316 0.66358 0.0
H1715 H 0.75411 0.46557 0.62916 0.0
C1716 C 0.5811 0.45516 0.70648 0.0
C1717 C 0.53646 0.45649 0.6968 0.0
C1718 C 0.61558 0.45998 0.68777 0.0
C1719 C 0.60599 0.46609 0.65885 0.0
C1720 C 0.56126 0.46893 0.65168 0.0
C1721 C 0.52668 0.46422 0.67067 0.0
C1722 C 0.66501 0.45645 0.58413 0.0
C1723 C 0.70973 0.4575 0.59383 0.0
C1724 C 0.63077 0.46089 0.60364 0.0
C1725 C 0.64067 0.46631 0.63342 0.0
C1726 C 0.68552 0.46887 0.64095 0.0
C1727 C 0.71988 0.46456 0.62115 0.0
loop_
_geom_bond_atom_site_label_1
_geom_bond_atom_site_label_2
_geom_bond_distance
_geom_bond_site_symmetry_2
_ccdc_geom_bond_type
Mg0 O1 2.028 . S
Mg0 O7 1.986 . S
Mg0 O9 2.114 . S
Mg0 O10 2.251 . S
Mg0 O13 2.010 . S
O1 Mg0 2.028 . S
O1 C4 1.250 . S
O2 Mg3 2.028 . S
O2 C4 1.248 . S
Mg3 O2 2.028 . S
Mg3 O8 2.032 1_455 S
Mg3 O10 2.079 . S
C4 O1 1.250 . S
C4 O2 1.248 . S
C5 O6 1.264 . S
C5 O13 1.249 . S
O6 C5 1.264 . S
O7 Mg0 1.986 . S
O7 C11 1.246 . S
O8 Mg3 2.032 1_655 S
O8 C11 1.259 1_655 S
O9 Mg0 2.114 . S
O9 C12 1.252 . S
O10 Mg0 2.251 . S
O10 Mg3 2.079 . S
O10 C12 1.273 . S
C11 O7 1.246 . S
C11 O8 1.259 1_455 S
C12 O9 1.252 . S
C12 O10 1.273 . S
O13 Mg0 2.010 . S
O13 C5 1.249 . S
Mg14 O15 2.028 . S
Mg14 O21 1.986 . S
Mg14 O23 2.114 . S
Mg14 O24 2.251 . S
Mg14 O27 2.010 . S
O15 Mg14 2.028 . S
O15 C18 1.250 . S
O16 Mg17 2.028 . S
O16 C18 1.248 . S
Mg17 O16 2.028 . S
Mg17 O22 2.032 . S
Mg17 O24 2.079 . S
C18 O15 1.250 . S
C18 O16 1.248 . S
C19 O20 1.264 . S
C19 O27 1.249 . S
O20 C19 1.264 . S
O21 Mg14 1.986 . S
O21 C25 1.246 . S
O22 Mg17 2.032 . S
O22 C25 1.259 . S
O23 Mg14 2.114 . S
O23 C26 1.252 . S
O24 Mg14 2.251 . S
O24 Mg17 2.079 . S
O24 C26 1.273 . S
C25 O21 1.246 . S
C25 O22 1.259 . S
C26 O23 1.252 . S
C26 O24 1.273 . S
O27 Mg14 2.010 . S
O27 C19 1.249 . S
Mg28 O29 2.028 1_556 S
Mg28 O35 1.986 . S
Mg28 O37 2.114 . S
Mg28 O38 2.251 . S
Mg28 O41 2.010 . S
O29 Mg28 2.028 1_554 S
O29 C32 1.250 . S
O30 Mg31 2.028 1_554 S
O30 C32 1.248 . S
Mg31 O30 2.028 1_556 S
Mg31 O36 2.032 1_455 S
Mg31 O38 2.079 . S
C32 O29 1.250 . S
C32 O30 1.248 . S
C33 O34 1.264 . S
C33 O41 1.249 . S
O34 C33 1.264 . S
O35 Mg28 1.986 . S
O35 C39 1.246 . S
O36 Mg31 2.032 1_655 S
O36 C39 1.259 1_655 S
O37 Mg28 2.114 . S
O37 C40 1.252 . S
O38 Mg28 2.251 . S
O38 Mg31 2.079 . S
O38 C40 1.273 . S
C39 O35 1.246 . S
C39 O36 1.259 1_455 S
C40 O37 1.252 . S
C40 O38 1.273 . S
O41 Mg28 2.010 . S
O41 C33 1.249 . S
Mg42 O43 2.028 1_556 S
Mg42 O49 1.986 . S
Mg42 O51 2.114 . S
Mg42 O52 2.251 . S
Mg42 O55 2.010 . S
O43 Mg42 2.028 1_554 S
O43 C46 1.250 . S
O44 Mg45 2.028 1_554 S
O44 C46 1.248 . S
Mg45 O44 2.028 1_556 S
Mg45 O50 2.032 . S
Mg45 O52 2.079 . S
C46 O43 1.250 . S
C46 O44 1.248 . S
C47 O48 1.264 . S
C47 O55 1.249 . S
O48 C47 1.264 . S
O49 Mg42 1.986 . S
O49 C53 1.246 . S
O50 Mg45 2.032 . S
O50 C53 1.259 . S
O51 Mg42 2.114 . S
O51 C54 1.252 . S
O52 Mg42 2.251 . S
O52 Mg45 2.079 . S
O52 C54 1.273 . S
C53 O49 1.246 . S
C53 O50 1.259 . S
C54 O51 1.252 . S
C54 O52 1.273 . S
O55 Mg42 2.010 . S
O55 C47 1.249 . S
Mg56 O57 2.028 . S
Mg56 O63 1.986 . S
Mg56 O65 2.114 . S
Mg56 O66 2.251 . S
Mg56 O69 2.010 . S
O57 Mg56 2.028 . S
O57 C60 1.250 . S
O58 Mg59 2.028 . S
O58 C60 1.248 . S
Mg59 O58 2.028 . S
Mg59 O64 2.032 1_655 S
Mg59 O66 2.079 . S
C60 O57 1.250 . S
C60 O58 1.248 . S
C61 O62 1.264 . S
C61 O69 1.249 . S
O62 C61 1.264 . S
O63 Mg56 1.986 . S
O63 C67 1.246 . S
O64 Mg59 2.032 1_455 S
O64 C67 1.259 1_455 S
O65 Mg56 2.114 . S
O65 C68 1.252 . S
O66 Mg56 2.251 . S
O66 Mg59 2.079 . S
O66 C68 1.273 . S
C67 O63 1.246 . S
C67 O64 1.259 1_655 S
C68 O65 1.252 . S
C68 O66 1.273 . S
O69 Mg56 2.010 . S
O69 C61 1.249 . S
Mg70 O71 2.028 . S
Mg70 O77 1.986 . S
Mg70 O79 2.114 . S
Mg70 O80 2.251 . S
Mg70 O83 2.010 . S
O71 Mg70 2.028 . S
O71 C74 1.250 . S
O72 Mg73 2.028 . S
O72 C74 1.248 . S
Mg73 O72 2.028 . S
Mg73 O78 2.032 . S
Mg73 O80 2.079 . S
C74 O71 1.250 . S
C74 O72 1.248 . S
C75 O76 1.264 . S
C75 O83 1.249 . S
O76 C75 1.264 . S
O77 Mg70 1.986 . S
O77 C81 1.246 . S
O78 Mg73 2.032 . S
O78 C81 1.259 . S
O79 Mg70 2.114 . S
O79 C82 1.252 . S
O80 Mg70 2.251 . S
O80 Mg73 2.079 . S
O80 C82 1.273 . S
C81 O77 1.246 . S
C81 O78 1.259 . S
C82 O79 1.252 . S
C82 O80 1.273 . S
O83 Mg70 2.010 . S
O83 C75 1.249 . S
Mg84 O85 2.028 1_554 S
Mg84 O91 1.986 . S
Mg84 O93 2.114 . S
Mg84 O94 2.251 . S
Mg84 O97 2.010 . S
O85 Mg84 2.028 1_556 S
O85 C88 1.250 . S
O86 Mg87 2.028 1_556 S
O86 C88 1.248 . S
Mg87 O86 2.028 1_554 S
Mg87 O92 2.032 1_655 S
Mg87 O94 2.079 . S
C88 O85 1.250 . S
C88 O86 1.248 . S
C89 O90 1.264 . S
C89 O97 1.249 . S
O90 C89 1.264 . S
O91 Mg84 1.986 . S
O91 C95 1.246 . S
O92 Mg87 2.032 1_455 S
O92 C95 1.259 1_455 S
O93 Mg84 2.114 . S
O93 C96 1.252 . S
O94 Mg84 2.251 . S
O94 Mg87 2.079 . S
O94 C96 1.273 . S
C95 O91 1.246 . S
C95 O92 1.259 1_655 S
C96 O93 1.252 . S
C96 O94 1.273 . S
O97 Mg84 2.010 . S
O97 C89 1.249 . S
Mg98 O99 2.028 1_554 S
Mg98 O105 1.986 . S
Mg98 O107 2.114 . S
Mg98 O108 2.251 . S
Mg98 O111 2.010 . S
O99 Mg98 2.028 1_556 S
O99 C102 1.250 . S
O100 Mg101 2.028 1_556 S
O100 C102 1.248 . S
Mg101 O100 2.028 1_554 S
Mg101 O106 2.032 . S
Mg101 O108 2.079 . S
C102 O99 1.250 . S
C102 O100 1.248 . S
C103 O104 1.264 . S
C103 O111 1.249 . S
O104 C103 1.264 . S
O105 Mg98 1.986 . S
O105 C109 1.246 . S
O106 Mg101 2.032 . S
O106 C109 1.259 . S
O107 Mg98 2.114 . S
O107 C110 1.252 . S
O108 Mg98 2.251 . S
O108 Mg101 2.079 . S
O108 C110 1.273 . S
C109 O105 1.246 . S
C109 O106 1.259 . S
C110 O107 1.252 . S
C110 O108 1.273 . S
O111 Mg98 2.010 . S
O111 C103 1.249 . S
Mg112 O113 2.028 . S
Mg112 O119 1.986 . S
Mg112 O121 2.114 . S
Mg112 O122 2.251 . S
Mg112 O125 2.010 . S
O113 Mg112 2.028 . S
O113 C116 1.250 . S
O114 Mg115 2.028 . S
O114 C116 1.248 . S
Mg115 O114 2.028 . S
Mg115 O120 2.032 1_455 S
Mg115 O122 2.079 . S
C116 O113 1.250 . S
C116 O114 1.248 . S
C117 O118 1.264 . S
C117 O125 1.249 . S
O118 C117 1.264 . S
O119 Mg112 1.986 . S
O119 C123 1.246 . S
O120 Mg115 2.032 1_655 S
O120 C123 1.259 1_655 S
O121 Mg112 2.114 . S
O121 C124 1.252 . S
O122 Mg112 2.251 . S
O122 Mg115 2.079 . S
O122 C124 1.273 . S
C123 O119 1.246 . S
C123 O120 1.259 1_455 S
C124 O121 1.252 . S
C124 O122 1.273 . S
O125 Mg112 2.010 . S
O125 C117 1.249 . S
Mg126 O127 2.028 . S
Mg126 O133 1.986 . S
Mg126 O135 2.114 . S
Mg126 O136 2.251 . S
Mg126 O139 2.010 . S
O127 Mg126 2.028 . S
O127 C130 1.250 . S
O128 Mg129 2.028 . S
O128 C130 1.248 . S
Mg129 O128 2.028 . S
Mg129 O134 2.032 . S
Mg129 O136 2.079 . S
C130 O127 1.250 . S
C130 O128 1.248 . S
C131 O132 1.264 . S
C131 O139 1.249 . S
O132 C131 1.264 . S
O133 Mg126 1.986 . S
O133 C137 1.246 . S
O134 Mg129 2.032 . S
O134 C137 1.259 . S
O135 Mg126 2.114 . S
O135 C138 1.252 . S
O136 Mg126 2.251 . S
O136 Mg129 2.079 . S
O136 C138 1.273 . S
C137 O133 1.246 . S
C137 O134 1.259 . S
C138 O135 1.252 . S
C138 O136 1.273 . S
O139 Mg126 2.010 . S
O139 C131 1.249 . S
Mg140 O141 2.028 . S
Mg140 O147 1.986 . S
Mg140 O149 2.114 . S
Mg140 O150 2.251 . S
Mg140 O153 2.010 . S
O141 Mg140 2.028 . S
O141 C144 1.250 . S
O142 Mg143 2.028 . S
O142 C144 1.248 . S
Mg143 O142 2.028 . S
Mg143 O148 2.032 1_455 S
Mg143 O150 2.079 . S
C144 O141 1.250 . S
C144 O142 1.248 . S
C145 O146 1.264 . S
C145 O153 1.249 . S
O146 C145 1.264 . S
O147 Mg140 1.986 . S
O147 C151 1.246 . S
O148 Mg143 2.032 1_655 S
O148 C151 1.259 1_655 S
O149 Mg140 2.114 . S
O149 C152 1.252 . S
O150 Mg140 2.251 . S
O150 Mg143 2.079 . S
O150 C152 1.273 . S
C151 O147 1.246 . S
C151 O148 1.259 1_455 S
C152 O149 1.252 . S
C152 O150 1.273 . S
O153 Mg140 2.010 . S
O153 C145 1.249 . S
Mg154 O155 2.028 . S
Mg154 O161 1.986 . S
Mg154 O163 2.114 . S
Mg154 O164 2.251 . S
Mg154 O167 2.010 . S
O155 Mg154 2.028 . S
O155 C158 1.250 . S
O156 Mg157 2.028 . S
O156 C158 1.248 . S
Mg157 O156 2.028 . S
Mg157 O162 2.032 . S
Mg157 O164 2.079 . S
C158 O155 1.250 . S
C158 O156 1.248 . S
C159 O160 1.264 . S
C159 O167 1.249 . S
O160 C159 1.264 . S
O161 Mg154 1.986 . S
O161 C165 1.246 . S
O162 Mg157 2.032 . S
O162 C165 1.259 . S
O163 Mg154 2.114 . S
O163 C166 1.252 . S
O164 Mg154 2.251 . S
O164 Mg157 2.079 . S
O164 C166 1.273 . S
C165 O161 1.246 . S
C165 O162 1.259 . S
C166 O163 1.252 . S
C166 O164 1.273 . S
O167 Mg154 2.010 . S
O167 C159 1.249 . S
Mg168 O169 2.028 . S
Mg168 O175 1.986 . S
Mg168 O177 2.114 . S
Mg168 O178 2.251 . S
Mg168 O181 2.010 . S
O169 Mg168 2.028 . S
O169 C172 1.250 . S
O170 Mg171 2.028 . S
O170 C172 1.248 . S
Mg171 O170 2.028 . S
Mg171 O176 2.032 1_655 S
Mg171 O178 2.079 . S
C172 O169 1.250 . S
C172 O170 1.248 . S
C173 O174 1.264 . S
C173 O181 1.249 . S
O174 C173 1.264 . S
O175 Mg168 1.986 . S
O175 C179 1.246 . S
O176 Mg171 2.032 1_455 S
O176 C179 1.259 1_455 S
O177 Mg168 2.114 . S
O177 C180 1.252 . S
O178 Mg168 2.251 . S
O178 Mg171 2.079 . S
O178 C180 1.273 . S
C179 O175 1.246 . S
C179 O176 1.259 1_655 S
C180 O177 1.252 . S
C180 O178 1.273 . S
O181 Mg168 2.010 . S
O181 C173 1.249 . S
Mg182 O183 2.028 . S
Mg182 O189 1.986 . S
Mg182 O191 2.114 . S
Mg182 O192 2.251 . S
Mg182 O195 2.010 . S
O183 Mg182 2.028 . S
O183 C186 1.250 . S
O184 Mg185 2.028 . S
O184 C186 1.248 . S
Mg185 O184 2.028 . S
Mg185 O190 2.032 . S
Mg185 O192 2.079 . S
C186 O183 1.250 . S
C186 O184 1.248 . S
C187 O188 1.264 . S
C187 O195 1.249 . S
O188 C187 1.264 . S
O189 Mg182 1.986 . S
O189 C193 1.246 . S
O190 Mg185 2.032 . S
O190 C193 1.259 . S
O191 Mg182 2.114 . S
O191 C194 1.252 . S
O192 Mg182 2.251 . S
O192 Mg185 2.079 . S
O192 C194 1.273 . S
C193 O189 1.246 . S
C193 O190 1.259 . S
C194 O191 1.252 . S
C194 O192 1.273 . S
O195 Mg182 2.010 . S
O195 C187 1.249 . S
Mg196 O197 2.028 . S
Mg196 O203 1.986 . S
Mg196 O205 2.114 . S
Mg196 O206 2.251 . S
Mg196 O209 2.010 . S
O197 Mg196 2.028 . S
O197 C200 1.250 . S
O198 Mg199 2.028 . S
O198 C200 1.248 . S
Mg199 O198 2.028 . S
Mg199 O204 2.032 1_655 S
Mg199 O206 2.079 . S
C200 O197 1.250 . S
C200 O198 1.248 . S
C201 O202 1.264 . S
C201 O209 1.249 . S
O202 C201 1.264 . S
O203 Mg196 1.986 . S
O203 C207 1.246 . S
O204 Mg199 2.032 1_455 S
O204 C207 1.259 1_455 S
O205 Mg196 2.114 . S
O205 C208 1.252 . S
O206 Mg196 2.251 . S
O206 Mg199 2.079 . S
O206 C208 1.273 . S
C207 O203 1.246 . S
C207 O204 1.259 1_655 S
C208 O205 1.252 . S
C208 O206 1.273 . S
O209 Mg196 2.010 . S
O209 C201 1.249 . S
Mg210 O211 2.028 . S
Mg210 O217 1.986 . S
Mg210 O219 2.114 . S
Mg210 O220 2.251 . S
Mg210 O223 2.010 . S
O211 Mg210 2.028 . S
O211 C214 1.250 . S
O212 Mg213 2.028 . S
O212 C214 1.248 . S
Mg213 O212 2.028 . S
Mg213 O218 2.032 . S
Mg213 O220 2.079 . S
C214 O211 1.250 . S
C214 O212 1.248 . S
C215 O216 1.264 . S
C215 O223 1.249 . S
O216 C215 1.264 . S
O217 Mg210 1.986 . S
O217 C221 1.246 . S
O218 Mg213 2.032 . S
O218 C221 1.259 . S
O219 Mg210 2.114 . S
O219 C222 1.252 . S
O220 Mg210 2.251 . S
O220 Mg213 2.079 . S
O220 C222 1.273 . S
C221 O217 1.246 . S
C221 O218 1.259 . S
C222 O219 1.252 . S
C222 O220 1.273 . S
O223 Mg210 2.010 . S
O223 C215 1.249 . S
Mg224 O225 2.028 . S
Mg224 O231 1.986 . S
Mg224 O233 2.114 . S
Mg224 O234 2.251 . S
Mg224 O237 2.010 . S
O225 Mg224 2.028 . S
O225 C228 1.250 . S
O226 Mg227 2.028 . S
O226 C228 1.248 . S
Mg227 O226 2.028 . S
Mg227 O232 2.032 . S
Mg227 O234 2.079 . S
C228 O225 1.250 . S
C228 O226 1.248 . S
C229 O230 1.264 . S
C229 O237 1.249 . S
O230 C229 1.264 . S
O231 Mg224 1.986 . S
O231 C235 1.246 . S
O232 Mg227 2.032 . S
O232 C235 1.259 . S
O233 Mg224 2.114 . S
O233 C236 1.252 . S
O234 Mg224 2.251 . S
O234 Mg227 2.079 . S
O234 C236 1.273 . S
C235 O231 1.246 . S
C235 O232 1.259 . S
C236 O233 1.252 . S
C236 O234 1.273 . S
O237 Mg224 2.010 . S
O237 C229 1.249 . S
Mg238 O239 2.028 . S
Mg238 O245 1.986 . S
Mg238 O247 2.114 . S
Mg238 O248 2.251 . S
Mg238 O251 2.010 . S
O239 Mg238 2.028 . S
O239 C242 1.250 . S
O240 Mg241 2.028 . S
O240 C242 1.248 . S
Mg241 O240 2.028 . S
Mg241 O246 2.032 . S
Mg241 O248 2.079 . S
C242 O239 1.250 . S
C242 O240 1.248 . S
C243 O244 1.264 . S
C243 O251 1.249 . S
O244 C243 1.264 . S
O245 Mg238 1.986 . S
O245 C249 1.246 . S
O246 Mg241 2.032 . S
O246 C249 1.259 . S
O247 Mg238 2.114 . S
O247 C250 1.252 . S
O248 Mg238 2.251 . S
O248 Mg241 2.079 . S
O248 C250 1.273 . S
C249 O245 1.246 . S
C249 O246 1.259 . S
C250 O247 1.252 . S
C250 O248 1.273 . S
O251 Mg238 2.010 . S
O251 C243 1.249 . S
Mg252 O253 2.028 . S
Mg252 O259 1.986 . S
Mg252 O261 2.114 . S
Mg252 O262 2.251 . S
Mg252 O265 2.010 . S
O253 Mg252 2.028 . S
O253 C256 1.250 . S
O254 Mg255 2.028 . S
O254 C256 1.248 . S
Mg255 O254 2.028 . S
Mg255 O260 2.032 . S
Mg255 O262 2.079 . S
C256 O253 1.250 . S
C256 O254 1.248 . S
C257 O258 1.264 . S
C257 O265 1.249 . S
O258 C257 1.264 . S
O259 Mg252 1.986 . S
O259 C263 1.246 . S
O260 Mg255 2.032 . S
O260 C263 1.259 . S
O261 Mg252 2.114 . S
O261 C264 1.252 . S
O262 Mg252 2.251 . S
O262 Mg255 2.079 . S
O262 C264 1.273 . S
C263 O259 1.246 . S
C263 O260 1.259 . S
C264 O261 1.252 . S
C264 O262 1.273 . S
O265 Mg252 2.010 . S
O265 C257 1.249 . S
Mg266 O267 2.028 . S
Mg266 O273 1.986 . S
Mg266 O275 2.114 . S
Mg266 O276 2.251 . S
Mg266 O279 2.010 . S
O267 Mg266 2.028 . S
O267 C270 1.250 . S
O268 Mg269 2.028 . S
O268 C270 1.248 . S
Mg269 O268 2.028 . S
Mg269 O274 2.032 . S
Mg269 O276 2.079 . S
C270 O267 1.250 . S
C270 O268 1.248 . S
C271 O272 1.264 . S
C271 O279 1.249 . S
O272 C271 1.264 . S
O273 Mg266 1.986 . S
O273 C277 1.246 . S
O274 Mg269 2.032 . S
O274 C277 1.259 . S
O275 Mg266 2.114 . S
O275 C278 1.252 . S
O276 Mg266 2.251 . S
O276 Mg269 2.079 . S
O276 C278 1.273 . S
C277 O273 1.246 . S
C277 O274 1.259 . S
C278 O275 1.252 . S
C278 O276 1.273 . S
O279 Mg266 2.010 . S
O279 C271 1.249 . S
Mg280 O281 2.028 . S
Mg280 O287 1.986 . S
Mg280 O289 2.114 . S
Mg280 O290 2.251 . S
Mg280 O293 2.010 . S
O281 Mg280 2.028 . S
O281 C284 1.250 . S
O282 Mg283 2.028 . S
O282 C284 1.248 . S
Mg283 O282 2.028 . S
Mg283 O288 2.032 . S
Mg283 O290 2.079 . S
C284 O281 1.250 . S
C284 O282 1.248 . S
C285 O286 1.264 . S
C285 O293 1.249 . S
O286 C285 1.264 . S
O287 Mg280 1.986 . S
O287 C291 1.246 . S
O288 Mg283 2.032 . S
O288 C291 1.259 . S
O289 Mg280 2.114 . S
O289 C292 1.252 . S
O290 Mg280 2.251 . S
O290 Mg283 2.079 . S
O290 C292 1.273 . S
C291 O287 1.246 . S
C291 O288 1.259 . S
C292 O289 1.252 . S
C292 O290 1.273 . S
O293 Mg280 2.010 . S
O293 C285 1.249 . S
Mg294 O295 2.028 . S
Mg294 O301 1.986 . S
Mg294 O303 2.114 . S
Mg294 O304 2.251 . S
Mg294 O307 2.010 . S
O295 Mg294 2.028 . S
O295 C298 1.250 . S
O296 Mg297 2.028 . S
O296 C298 1.248 . S
Mg297 O296 2.028 . S
Mg297 O302 2.032 . S
Mg297 O304 2.079 . S
C298 O295 1.250 . S
C298 O296 1.248 . S
C299 O300 1.264 . S
C299 O307 1.249 . S
O300 C299 1.264 . S
O301 Mg294 1.986 . S
O301 C305 1.246 . S
O302 Mg297 2.032 . S
O302 C305 1.259 . S
O303 Mg294 2.114 . S
O303 C306 1.252 . S
O304 Mg294 2.251 . S
O304 Mg297 2.079 . S
O304 C306 1.273 . S
C305 O301 1.246 . S
C305 O302 1.259 . S
C306 O303 1.252 . S
C306 O304 1.273 . S
O307 Mg294 2.010 . S
O307 C299 1.249 . S
Mg308 O309 2.028 . S
Mg308 O315 1.986 . S
Mg308 O317 2.114 . S
Mg308 O318 2.251 . S
Mg308 O321 2.010 . S
O309 Mg308 2.028 . S
O309 C312 1.250 . S
O310 Mg311 2.028 . S
O310 C312 1.248 . S
Mg311 O310 2.028 . S
Mg311 O316 2.032 . S
Mg311 O318 2.079 . S
C312 O309 1.250 . S
C312 O310 1.248 . S
C313 O314 1.264 . S
C313 O321 1.249 . S
O314 C313 1.264 . S
O315 Mg308 1.986 . S
O315 C319 1.246 . S
O316 Mg311 2.032 . S
O316 C319 1.259 . S
O317 Mg308 2.114 . S
O317 C320 1.252 . S
O318 Mg308 2.251 . S
O318 Mg311 2.079 . S
O318 C320 1.273 . S
C319 O315 1.246 . S
C319 O316 1.259 . S
C320 O317 1.252 . S
C320 O318 1.273 . S
O321 Mg308 2.010 . S
O321 C313 1.249 . S
Mg322 O323 2.028 . S
Mg322 O329 1.986 . S
Mg322 O331 2.114 . S
Mg322 O332 2.251 . S
Mg322 O335 2.010 . S
O323 Mg322 2.028 . S
O323 C326 1.250 . S
O324 Mg325 2.028 . S
O324 C326 1.248 . S
Mg325 O324 2.028 . S
Mg325 O330 2.032 . S
Mg325 O332 2.079 . S
C326 O323 1.250 . S
C326 O324 1.248 . S
C327 O328 1.264 . S
C327 O335 1.249 . S
O328 C327 1.264 . S
O329 Mg322 1.986 . S
O329 C333 1.246 . S
O330 Mg325 2.032 . S
O330 C333 1.259 . S
O331 Mg322 2.114 . S
O331 C334 1.252 . S
O332 Mg322 2.251 . S
O332 Mg325 2.079 . S
O332 C334 1.273 . S
C333 O329 1.246 . S
C333 O330 1.259 . S
C334 O331 1.252 . S
C334 O332 1.273 . S
O335 Mg322 2.010 . S
O335 C327 1.249 . S
Mg336 O337 2.028 . S
Mg336 O343 1.986 . S
Mg336 O345 2.114 . S
Mg336 O346 2.251 . S
Mg336 O349 2.010 . S
O337 Mg336 2.028 . S
O337 C340 1.250 . S
O338 Mg339 2.028 . S
O338 C340 1.248 . S
Mg339 O338 2.028 . S
Mg339 O344 2.032 . S
Mg339 O346 2.079 . S
C340 O337 1.250 . S
C340 O338 1.248 . S
C341 O342 1.264 . S
C341 O349 1.249 . S
O342 C341 1.264 . S
O343 Mg336 1.986 . S
O343 C347 1.246 . S
O344 Mg339 2.032 . S
O344 C347 1.259 . S
O345 Mg336 2.114 . S
O345 C348 1.252 . S
O346 Mg336 2.251 . S
O346 Mg339 2.079 . S
O346 C348 1.273 . S
C347 O343 1.246 . S
C347 O344 1.259 . S
C348 O345 1.252 . S
C348 O346 1.273 . S
O349 Mg336 2.010 . S
O349 C341 1.249 . S
Mg350 O351 2.028 . S
Mg350 O357 1.986 . S
Mg350 O359 2.114 . S
Mg350 O360 2.251 . S
Mg350 O363 2.010 . S
O351 Mg350 2.028 . S
O351 C354 1.250 . S
O352 Mg353 2.028 . S
O352 C354 1.248 . S
Mg353 O352 2.028 . S
Mg353 O358 2.032 . S
Mg353 O360 2.079 . S
C354 O351 1.250 . S
C354 O352 1.248 . S
C355 O356 1.264 . S
C355 O363 1.249 . S
O356 C355 1.264 . S
O357 Mg350 1.986 . S
O357 C361 1.246 . S
O358 Mg353 2.032 . S
O358 C361 1.259 . S
O359 Mg350 2.114 . S
O359 C362 1.252 . S
O360 Mg350 2.251 . S
O360 Mg353 2.079 . S
O360 C362 1.273 . S
C361 O357 1.246 . S
C361 O358 1.259 . S
C362 O359 1.252 . S
C362 O360 1.273 . S
O363 Mg350 2.010 . S
O363 C355 1.249 . S
Mg364 O365 2.028 1_556 S
Mg364 O371 1.986 . S
Mg364 O373 2.114 . S
Mg364 O374 2.251 . S
Mg364 O377 2.010 . S
O365 Mg364 2.028 1_554 S
O365 C368 1.250 . S
O366 Mg367 2.028 1_554 S
O366 C368 1.248 . S
Mg367 O366 2.028 1_556 S
Mg367 O372 2.032 . S
Mg367 O374 2.079 . S
C368 O365 1.250 . S
C368 O366 1.248 . S
C369 O370 1.264 . S
C369 O377 1.249 . S
O370 C369 1.264 . S
O371 Mg364 1.986 . S
O371 C375 1.246 . S
O372 Mg367 2.032 . S
O372 C375 1.259 . S
O373 Mg364 2.114 . S
O373 C376 1.252 . S
O374 Mg364 2.251 . S
O374 Mg367 2.079 . S
O374 C376 1.273 . S
C375 O371 1.246 . S
C375 O372 1.259 . S
C376 O373 1.252 . S
C376 O374 1.273 . S
O377 Mg364 2.010 . S
O377 C369 1.249 . S
Mg378 O379 2.028 1_556 S
Mg378 O385 1.986 . S
Mg378 O387 2.114 . S
Mg378 O388 2.251 . S
Mg378 O391 2.010 . S
O379 Mg378 2.028 1_554 S
O379 C382 1.250 . S
O380 Mg381 2.028 1_554 S
O380 C382 1.248 . S
Mg381 O380 2.028 1_556 S
Mg381 O386 2.032 . S
Mg381 O388 2.079 . S
C382 O379 1.250 . S
C382 O380 1.248 . S
C383 O384 1.264 . S
C383 O391 1.249 . S
O384 C383 1.264 . S
O385 Mg378 1.986 . S
O385 C389 1.246 . S
O386 Mg381 2.032 . S
O386 C389 1.259 . S
O387 Mg378 2.114 . S
O387 C390 1.252 . S
O388 Mg378 2.251 . S
O388 Mg381 2.079 . S
O388 C390 1.273 . S
C389 O385 1.246 . S
C389 O386 1.259 . S
C390 O387 1.252 . S
C390 O388 1.273 . S
O391 Mg378 2.010 . S
O391 C383 1.249 . S
Mg392 O393 2.028 . S
Mg392 O399 1.986 . S
Mg392 O401 2.114 . S
Mg392 O402 2.251 . S
Mg392 O405 2.010 . S
O393 Mg392 2.028 . S
O393 C396 1.250 . S
O394 Mg395 2.028 . S
O394 C396 1.248 . S
Mg395 O394 2.028 . S
Mg395 O400 2.032 . S
Mg395 O402 2.079 . S
C396 O393 1.250 . S
C396 O394 1.248 . S
C397 O398 1.264 . S
C397 O405 1.249 . S
O398 C397 1.264 . S
O399 Mg392 1.986 . S
O399 C403 1.246 . S
O400 Mg395 2.032 . S
O400 C403 1.259 . S
O401 Mg392 2.114 . S
O401 C404 1.252 . S
O402 Mg392 2.251 . S
O402 Mg395 2.079 . S
O402 C404 1.273 . S
C403 O399 1.246 . S
C403 O400 1.259 . S
C404 O401 1.252 . S
C404 O402 1.273 . S
O405 Mg392 2.010 . S
O405 C397 1.249 . S
Mg406 O407 2.028 . S
Mg406 O413 1.986 . S
Mg406 O415 2.114 . S
Mg406 O416 2.251 . S
Mg406 O419 2.010 . S
O407 Mg406 2.028 . S
O407 C410 1.250 . S
O408 Mg409 2.028 . S
O408 C410 1.248 . S
Mg409 O408 2.028 . S
Mg409 O414 2.032 . S
Mg409 O416 2.079 . S
C410 O407 1.250 . S
C410 O408 1.248 . S
C411 O412 1.264 . S
C411 O419 1.249 . S
O412 C411 1.264 . S
O413 Mg406 1.986 . S
O413 C417 1.246 . S
O414 Mg409 2.032 . S
O414 C417 1.259 . S
O415 Mg406 2.114 . S
O415 C418 1.252 . S
O416 Mg406 2.251 . S
O416 Mg409 2.079 . S
O416 C418 1.273 . S
C417 O413 1.246 . S
C417 O414 1.259 . S
C418 O415 1.252 . S
C418 O416 1.273 . S
O419 Mg406 2.010 . S
O419 C411 1.249 . S
Mg420 O421 2.028 1_554 S
Mg420 O427 1.986 . S
Mg420 O429 2.114 . S
Mg420 O430 2.251 . S
Mg420 O433 2.010 . S
O421 Mg420 2.028 1_556 S
O421 C424 1.250 . S
O422 Mg423 2.028 1_556 S
O422 C424 1.248 . S
Mg423 O422 2.028 1_554 S
Mg423 O428 2.032 . S
Mg423 O430 2.079 . S
C424 O421 1.250 . S
C424 O422 1.248 . S
C425 O426 1.264 . S
C425 O433 1.249 . S
O426 C425 1.264 . S
O427 Mg420 1.986 . S
O427 C431 1.246 . S
O428 Mg423 2.032 . S
O428 C431 1.259 . S
O429 Mg420 2.114 . S
O429 C432 1.252 . S
O430 Mg420 2.251 . S
O430 Mg423 2.079 . S
O430 C432 1.273 . S
C431 O427 1.246 . S
C431 O428 1.259 . S
C432 O429 1.252 . S
C432 O430 1.273 . S
O433 Mg420 2.010 . S
O433 C425 1.249 . S
Mg434 O435 2.028 1_554 S
Mg434 O441 1.986 . S
Mg434 O443 2.114 . S
Mg434 O444 2.251 . S
Mg434 O447 2.010 . S
O435 Mg434 2.028 1_556 S
O435 C438 1.250 . S
O436 Mg437 2.028 1_556 S
O436 C438 1.248 . S
Mg437 O436 2.028 1_554 S
Mg437 O442 2.032 . S
Mg437 O444 2.079 . S
C438 O435 1.250 . S
C438 O436 1.248 . S
C439 O440 1.264 . S
C439 O447 1.249 . S
O440 C439 1.264 . S
O441 Mg434 1.986 . S
O441 C445 1.246 . S
O442 Mg437 2.032 . S
O442 C445 1.259 . S
O443 Mg434 2.114 . S
O443 C446 1.252 . S
O444 Mg434 2.251 . S
O444 Mg437 2.079 . S
O444 C446 1.273 . S
C445 O441 1.246 . S
C445 O442 1.259 . S
C446 O443 1.252 . S
C446 O444 1.273 . S
O447 Mg434 2.010 . S
O447 C439 1.249 . S
H448 C456 0.950 . S
H449 C461 0.950 . S
H450 C458 0.950 . S
H451 C460 0.950 . S
H452 C462 0.950 . S
H453 C464 0.950 . S
H454 C466 0.950 . S
H455 C467 0.950 . S
C456 H448 0.950 . S
C456 C457 1.386 . S
C456 C458 1.391 . S
C457 C456 1.386 . S
C457 C461 1.393 . S
C458 H450 0.950 . S
C458 C456 1.391 . S
C458 C459 1.400 . S
C459 C458 1.400 . S
C459 C460 1.398 . S
C459 C465 1.491 . S
C460 H451 0.950 . S
C460 C459 1.398 . S
C460 C461 1.391 . S
C461 H449 0.950 . S
C461 C457 1.393 . S
C461 C460 1.391 . S
C462 H452 0.950 . S
C462 C463 1.386 . S
C462 C464 1.391 . S
C463 C462 1.386 . S
C463 C467 1.393 . S
C464 H453 0.950 . S
C464 C462 1.391 . S
C464 C465 1.400 . S
C465 C459 1.491 . S
C465 C464 1.400 . S
C465 C466 1.398 . S
C466 H454 0.950 . S
C466 C465 1.398 . S
C466 C467 1.391 . S
C467 H455 0.950 . S
C467 C463 1.393 . S
C467 C466 1.391 . S
H468 C476 0.950 . S
H469 C481 0.950 . S
H470 C478 0.950 . S
H471 C480 0.950 . S
H472 C482 0.950 . S
H473 C484 0.950 . S
H474 C486 0.950 . S
H475 C487 0.950 . S
C476 H468 0.950 . S
C476 C477 1.386 . S
C476 C478 1.391 . S
C477 C476 1.386 . S
C477 C481 1.393 . S
C478 H470 0.950 . S
C478 C476 1.391 . S
C478 C479 1.400 . S
C479 C478 1.400 . S
C479 C480 1.398 . S
C479 C485 1.491 . S
C480 H471 0.950 . S
C480 C479 1.398 . S
C480 C481 1.391 . S
C481 H469 0.950 . S
C481 C477 1.393 . S
C481 C480 1.391 . S
C482 H472 0.950 . S
C482 C483 1.386 . S
C482 C484 1.391 . S
C483 C482 1.386 . S
C483 C487 1.393 . S
C484 H473 0.950 . S
C484 C482 1.391 . S
C484 C485 1.400 . S
C485 C479 1.491 . S
C485 C484 1.400 . S
C485 C486 1.398 . S
C486 H474 0.950 . S
C486 C485 1.398 . S
C486 C487 1.391 . S
C487 H475 0.950 . S
C487 C483 1.393 . S
C487 C486 1.391 . S
H488 C496 0.950 . S
H489 C501 0.950 . S
H490 C498 0.950 . S
H491 C500 0.950 . S
H492 C502 0.950 . S
H493 C504 0.950 . S
H494 C506 0.950 . S
H495 C507 0.950 . S
C496 H488 0.950 . S
C496 C497 1.386 . S
C496 C498 1.391 . S
C497 C496 1.386 . S
C497 C501 1.393 . S
C498 H490 0.950 . S
C498 C496 1.391 . S
C498 C499 1.400 . S
C499 C498 1.400 . S
C499 C500 1.398 . S
C499 C505 1.491 . S
C500 H491 0.950 . S
C500 C499 1.398 . S
C500 C501 1.391 . S
C501 H489 0.950 . S
C501 C497 1.393 . S
C501 C500 1.391 . S
C502 H492 0.950 . S
C502 C503 1.386 . S
C502 C504 1.391 . S
C503 C502 1.386 . S
C503 C507 1.393 . S
C504 H493 0.950 . S
C504 C502 1.391 . S
C504 C505 1.400 . S
C505 C499 1.491 . S
C505 C504 1.400 . S
C505 C506 1.398 . S
C506 H494 0.950 . S
C506 C505 1.398 . S
C506 C507 1.391 . S
C507 H495 0.950 . S
C507 C503 1.393 . S
C507 C506 1.391 . S
H508 C516 0.950 . S
H509 C521 0.950 . S
H510 C518 0.950 . S
H511 C520 0.950 . S
H512 C522 0.950 . S
H513 C524 0.950 . S
H514 C526 0.950 . S
H515 C527 0.950 . S
C516 H508 0.950 . S
C516 C517 1.386 . S
C516 C518 1.391 . S
C517 C516 1.386 . S
C517 C521 1.393 . S
C518 H510 0.950 . S
C518 C516 1.391 . S
C518 C519 1.400 . S
C519 C518 1.400 . S
C519 C520 1.398 . S
C519 C525 1.491 . S
C520 H511 0.950 . S
C520 C519 1.398 . S
C520 C521 1.391 . S
C521 H509 0.950 . S
C521 C517 1.393 . S
C521 C520 1.391 . S
C522 H512 0.950 . S
C522 C523 1.386 . S
C522 C524 1.391 . S
C523 C522 1.386 . S
C523 C527 1.393 . S
C524 H513 0.950 . S
C524 C522 1.391 . S
C524 C525 1.400 . S
C525 C519 1.491 . S
C525 C524 1.400 . S
C525 C526 1.398 . S
C526 H514 0.950 . S
C526 C525 1.398 . S
C526 C527 1.391 . S
C527 H515 0.950 . S
C527 C523 1.393 . S
C527 C526 1.391 . S
H528 C536 0.950 . S
H529 C541 0.950 . S
H530 C538 0.950 . S
H531 C540 0.950 . S
H532 C542 0.950 . S
H533 C544 0.950 . S
H534 C546 0.950 . S
H535 C547 0.950 . S
C536 H528 0.950 . S
C536 C537 1.386 . S
C536 C538 1.391 . S
C537 C536 1.386 . S
C537 C541 1.393 . S
C538 H530 0.950 . S
C538 C536 1.391 . S
C538 C539 1.400 . S
C539 C538 1.400 . S
C539 C540 1.398 . S
C539 C545 1.491 . S
C540 H531 0.950 . S
C540 C539 1.398 . S
C540 C541 1.391 . S
C541 H529 0.950 . S
C541 C537 1.393 . S
C541 C540 1.391 . S
C542 H532 0.950 . S
C542 C543 1.386 . S
C542 C544 1.391 . S
C543 C542 1.386 . S
C543 C547 1.393 . S
C544 H533 0.950 . S
C544 C542 1.391 . S
C544 C545 1.400 . S
C545 C539 1.491 . S
C545 C544 1.400 . S
C545 C546 1.398 . S
C546 H534 0.950 . S
C546 C545 1.398 . S
C546 C547 1.391 . S
C547 H535 0.950 . S
C547 C543 1.393 . S
C547 C546 1.391 . S
H548 C556 0.950 . S
H549 C561 0.950 . S
H550 C558 0.950 . S
H551 C560 0.950 . S
H552 C562 0.950 . S
H553 C564 0.950 . S
H554 C566 0.950 . S
H555 C567 0.950 . S
C556 H548 0.950 . S
C556 C557 1.386 . S
C556 C558 1.391 . S
C557 C556 1.386 . S
C557 C561 1.393 . S
C558 H550 0.950 . S
C558 C556 1.391 . S
C558 C559 1.400 . S
C559 C558 1.400 . S
C559 C560 1.398 . S
C559 C565 1.491 . S
C560 H551 0.950 . S
C560 C559 1.398 . S
C560 C561 1.391 . S
C561 H549 0.950 . S
C561 C557 1.393 . S
C561 C560 1.391 . S
C562 H552 0.950 . S
C562 C563 1.386 . S
C562 C564 1.391 . S
C563 C562 1.386 . S
C563 C567 1.393 . S
C564 H553 0.950 . S
C564 C562 1.391 . S
C564 C565 1.400 . S
C565 C559 1.491 . S
C565 C564 1.400 . S
C565 C566 1.398 . S
C566 H554 0.950 . S
C566 C565 1.398 . S
C566 C567 1.391 . S
C567 H555 0.950 . S
C567 C563 1.393 . S
C567 C566 1.391 . S
H568 C576 0.950 . S
H569 C581 0.950 . S
H570 C578 0.950 . S
H571 C580 0.950 . S
H572 C582 0.950 . S
H573 C584 0.950 . S
H574 C586 0.950 . S
H575 C587 0.950 . S
C576 H568 0.950 . S
C576 C577 1.386 . S
C576 C578 1.391 . S
C577 C576 1.386 . S
C577 C581 1.393 . S
C578 H570 0.950 . S
C578 C576 1.391 . S
C578 C579 1.400 . S
C579 C578 1.400 . S
C579 C580 1.398 . S
C579 C585 1.491 . S
C580 H571 0.950 . S
C580 C579 1.398 . S
C580 C581 1.391 . S
C581 H569 0.950 . S
C581 C577 1.393 . S
C581 C580 1.391 . S
C582 H572 0.950 . S
C582 C583 1.386 . S
C582 C584 1.391 . S
C583 C582 1.386 . S
C583 C587 1.393 . S
C584 H573 0.950 . S
C584 C582 1.391 . S
C584 C585 1.400 . S
C585 C579 1.491 . S
C585 C584 1.400 . S
C585 C586 1.398 . S
C586 H574 0.950 . S
C586 C585 1.398 . S
C586 C587 1.391 . S
C587 H575 0.950 . S
C587 C583 1.393 . S
C587 C586 1.391 . S
H588 C596 0.950 . S
H589 C601 0.950 . S
H590 C598 0.950 . S
H591 C600 0.950 . S
H592 C602 0.950 . S
H593 C604 0.950 . S
H594 C606 0.950 . S
H595 C607 0.950 . S
C596 H588 0.950 . S
C596 C597 1.386 . S
C596 C598 1.391 . S
C597 C596 1.386 . S
C597 C601 1.393 . S
C598 H590 0.950 . S
C598 C596 1.391 . S
C598 C599 1.400 . S
C599 C598 1.400 . S
C599 C600 1.398 . S
C599 C605 1.491 . S
C600 H591 0.950 . S
C600 C599 1.398 . S
C600 C601 1.391 . S
C601 H589 0.950 . S
C601 C597 1.393 . S
C601 C600 1.391 . S
C602 H592 0.950 . S
C602 C603 1.386 . S
C602 C604 1.391 . S
C603 C602 1.386 . S
C603 C607 1.393 . S
C604 H593 0.950 . S
C604 C602 1.391 . S
C604 C605 1.400 . S
C605 C599 1.491 . S
C605 C604 1.400 . S
C605 C606 1.398 . S
C606 H594 0.950 . S
C606 C605 1.398 . S
C606 C607 1.391 . S
C607 H595 0.950 . S
C607 C603 1.393 . S
C607 C606 1.391 . S
H608 C616 0.950 . S
H609 C621 0.950 . S
H610 C618 0.950 . S
H611 C620 0.950 . S
H612 C622 0.950 . S
H613 C624 0.950 . S
H614 C626 0.950 . S
H615 C627 0.950 . S
C616 H608 0.950 . S
C616 C617 1.386 . S
C616 C618 1.391 . S
C617 C616 1.386 . S
C617 C621 1.393 . S
C618 H610 0.950 . S
C618 C616 1.391 . S
C618 C619 1.400 . S
C619 C618 1.400 . S
C619 C620 1.398 . S
C619 C625 1.491 . S
C620 H611 0.950 . S
C620 C619 1.398 . S
C620 C621 1.391 . S
C621 H609 0.950 . S
C621 C617 1.393 . S
C621 C620 1.391 . S
C622 H612 0.950 . S
C622 C623 1.386 . S
C622 C624 1.391 . S
C623 C622 1.386 . S
C623 C627 1.393 . S
C624 H613 0.950 . S
C624 C622 1.391 . S
C624 C625 1.400 . S
C625 C619 1.491 . S
C625 C624 1.400 . S
C625 C626 1.398 . S
C626 H614 0.950 . S
C626 C625 1.398 . S
C626 C627 1.391 . S
C627 H615 0.950 . S
C627 C623 1.393 . S
C627 C626 1.391 . S
H628 C636 0.950 . S
H629 C641 0.950 . S
H630 C638 0.950 . S
H631 C640 0.950 . S
H632 C642 0.950 . S
H633 C644 0.950 . S
H634 C646 0.950 . S
H635 C647 0.950 . S
C636 H628 0.950 . S
C636 C637 1.386 . S
C636 C638 1.391 . S
C637 C636 1.386 . S
C637 C641 1.393 . S
C638 H630 0.950 . S
C638 C636 1.391 . S
C638 C639 1.400 . S
C639 C638 1.400 . S
C639 C640 1.398 . S
C639 C645 1.491 . S
C640 H631 0.950 . S
C640 C639 1.398 . S
C640 C641 1.391 . S
C641 H629 0.950 . S
C641 C637 1.393 . S
C641 C640 1.391 . S
C642 H632 0.950 . S
C642 C643 1.386 . S
C642 C644 1.391 . S
C643 C642 1.386 . S
C643 C647 1.393 . S
C644 H633 0.950 . S
C644 C642 1.391 . S
C644 C645 1.400 . S
C645 C639 1.491 . S
C645 C644 1.400 . S
C645 C646 1.398 . S
C646 H634 0.950 . S
C646 C645 1.398 . S
C646 C647 1.391 . S
C647 H635 0.950 . S
C647 C643 1.393 . S
C647 C646 1.391 . S
H648 C656 0.950 . S
H649 C661 0.950 . S
H650 C658 0.950 . S
H651 C660 0.950 . S
H652 C662 0.950 . S
H653 C664 0.950 . S
H654 C666 0.950 . S
H655 C667 0.950 . S
C656 H648 0.950 . S
C656 C657 1.386 . S
C656 C658 1.391 . S
C657 C656 1.386 . S
C657 C661 1.393 . S
C658 H650 0.950 . S
C658 C656 1.391 . S
C658 C659 1.400 . S
C659 C658 1.400 . S
C659 C660 1.398 . S
C659 C665 1.491 . S
C660 H651 0.950 . S
C660 C659 1.398 . S
C660 C661 1.391 . S
C661 H649 0.950 . S
C661 C657 1.393 . S
C661 C660 1.391 . S
C662 H652 0.950 . S
C662 C663 1.386 . S
C662 C664 1.391 . S
C663 C662 1.386 . S
C663 C667 1.393 . S
C664 H653 0.950 . S
C664 C662 1.391 . S
C664 C665 1.400 . S
C665 C659 1.491 . S
C665 C664 1.400 . S
C665 C666 1.398 . S
C666 H654 0.950 . S
C666 C665 1.398 . S
C666 C667 1.391 . S
C667 H655 0.950 . S
C667 C663 1.393 . S
C667 C666 1.391 . S
H668 C676 0.950 . S
H669 C681 0.950 . S
H670 C678 0.950 . S
H671 C680 0.950 . S
H672 C682 0.950 . S
H673 C684 0.950 . S
H674 C686 0.950 . S
H675 C687 0.950 . S
C676 H668 0.950 . S
C676 C677 1.386 . S
C676 C678 1.391 . S
C677 C676 1.386 . S
C677 C681 1.393 . S
C678 H670 0.950 . S
C678 C676 1.391 . S
C678 C679 1.400 . S
C679 C678 1.400 . S
C679 C680 1.398 . S
C679 C685 1.491 . S
C680 H671 0.950 . S
C680 C679 1.398 . S
C680 C681 1.391 . S
C681 H669 0.950 . S
C681 C677 1.393 . S
C681 C680 1.391 . S
C682 H672 0.950 . S
C682 C683 1.386 . S
C682 C684 1.391 . S
C683 C682 1.386 . S
C683 C687 1.393 . S
C684 H673 0.950 . S
C684 C682 1.391 . S
C684 C685 1.400 . S
C685 C679 1.491 . S
C685 C684 1.400 . S
C685 C686 1.398 . S
C686 H674 0.950 . S
C686 C685 1.398 . S
C686 C687 1.391 . S
C687 H675 0.950 . S
C687 C683 1.393 . S
C687 C686 1.391 . S
H688 C696 0.950 . S
H689 C701 0.950 . S
H690 C698 0.950 . S
H691 C700 0.950 . S
H692 C702 0.950 . S
H693 C704 0.950 . S
H694 C706 0.950 . S
H695 C707 0.950 . S
C696 H688 0.950 . S
C696 C697 1.386 . S
C696 C698 1.391 . S
C697 C696 1.386 . S
C697 C701 1.393 . S
C698 H690 0.950 . S
C698 C696 1.391 . S
C698 C699 1.400 . S
C699 C698 1.400 . S
C699 C700 1.398 . S
C699 C705 1.491 . S
C700 H691 0.950 . S
C700 C699 1.398 . S
C700 C701 1.391 . S
C701 H689 0.950 . S
C701 C697 1.393 . S
C701 C700 1.391 . S
C702 H692 0.950 . S
C702 C703 1.386 . S
C702 C704 1.391 . S
C703 C702 1.386 . S
C703 C707 1.393 . S
C704 H693 0.950 . S
C704 C702 1.391 . S
C704 C705 1.400 . S
C705 C699 1.491 . S
C705 C704 1.400 . S
C705 C706 1.398 . S
C706 H694 0.950 . S
C706 C705 1.398 . S
C706 C707 1.391 . S
C707 H695 0.950 . S
C707 C703 1.393 . S
C707 C706 1.391 . S
H708 C716 0.950 . S
H709 C721 0.950 . S
H710 C718 0.950 . S
H711 C720 0.950 . S
H712 C722 0.950 . S
H713 C724 0.950 . S
H714 C726 0.950 . S
H715 C727 0.950 . S
C716 H708 0.950 . S
C716 C717 1.386 . S
C716 C718 1.391 . S
C717 C716 1.386 . S
C717 C721 1.393 . S
C718 H710 0.950 . S
C718 C716 1.391 . S
C718 C719 1.400 . S
C719 C718 1.400 . S
C719 C720 1.398 . S
C719 C725 1.491 . S
C720 H711 0.950 . S
C720 C719 1.398 . S
C720 C721 1.391 . S
C721 H709 0.950 . S
C721 C717 1.393 . S
C721 C720 1.391 . S
C722 H712 0.950 . S
C722 C723 1.386 . S
C722 C724 1.391 . S
C723 C722 1.386 . S
C723 C727 1.393 . S
C724 H713 0.950 . S
C724 C722 1.391 . S
C724 C725 1.400 . S
C725 C719 1.491 . S
C725 C724 1.400 . S
C725 C726 1.398 . S
C726 H714 0.950 . S
C726 C725 1.398 . S
C726 C727 1.391 . S
C727 H715 0.950 . S
C727 C723 1.393 . S
C727 C726 1.391 . S
H728 C736 0.950 . S
H729 C741 0.950 . S
H730 C738 0.950 . S
H731 C740 0.950 . S
H732 C742 0.950 . S
H733 C744 0.950 . S
H734 C746 0.950 . S
H735 C747 0.950 . S
C736 H728 0.950 . S
C736 C737 1.386 . S
C736 C738 1.391 . S
C737 C736 1.386 . S
C737 C741 1.393 . S
C738 H730 0.950 . S
C738 C736 1.391 . S
C738 C739 1.400 . S
C739 C738 1.400 . S
C739 C740 1.398 . S
C739 C745 1.491 . S
C740 H731 0.950 . S
C740 C739 1.398 . S
C740 C741 1.391 . S
C741 H729 0.950 . S
C741 C737 1.393 . S
C741 C740 1.391 . S
C742 H732 0.950 . S
C742 C743 1.386 . S
C742 C744 1.391 . S
C743 C742 1.386 . S
C743 C747 1.393 . S
C744 H733 0.950 . S
C744 C742 1.391 . S
C744 C745 1.400 . S
C745 C739 1.491 . S
C745 C744 1.400 . S
C745 C746 1.398 . S
C746 H734 0.950 . S
C746 C745 1.398 . S
C746 C747 1.391 . S
C747 H735 0.950 . S
C747 C743 1.393 . S
C747 C746 1.391 . S
H748 C756 0.950 . S
H749 C761 0.950 . S
H750 C758 0.950 . S
H751 C760 0.950 . S
H752 C762 0.950 . S
H753 C764 0.950 . S
H754 C766 0.950 . S
H755 C767 0.950 . S
C756 H748 0.950 . S
C756 C757 1.386 . S
C756 C758 1.391 . S
C757 C756 1.386 . S
C757 C761 1.393 . S
C758 H750 0.950 . S
C758 C756 1.391 . S
C758 C759 1.400 . S
C759 C758 1.400 . S
C759 C760 1.398 . S
C759 C765 1.491 . S
C760 H751 0.950 . S
C760 C759 1.398 . S
C760 C761 1.391 . S
C761 H749 0.950 . S
C761 C757 1.393 . S
C761 C760 1.391 . S
C762 H752 0.950 . S
C762 C763 1.386 . S
C762 C764 1.391 . S
C763 C762 1.386 . S
C763 C767 1.393 . S
C764 H753 0.950 . S
C764 C762 1.391 . S
C764 C765 1.400 . S
C765 C759 1.491 . S
C765 C764 1.400 . S
C765 C766 1.398 . S
C766 H754 0.950 . S
C766 C765 1.398 . S
C766 C767 1.391 . S
C767 H755 0.950 . S
C767 C763 1.393 . S
C767 C766 1.391 . S
H768 C776 0.950 . S
H769 C781 0.950 . S
H770 C778 0.950 . S
H771 C780 0.950 . S
H772 C782 0.950 . S
H773 C784 0.950 . S
H774 C786 0.950 . S
H775 C787 0.950 . S
C776 H768 0.950 . S
C776 C777 1.386 . S
C776 C778 1.391 . S
C777 C776 1.386 . S
C777 C781 1.393 . S
C778 H770 0.950 . S
C778 C776 1.391 . S
C778 C779 1.400 . S
C779 C778 1.400 . S
C779 C780 1.398 . S
C779 C785 1.491 1_565 S
C780 H771 0.950 . S
C780 C779 1.398 . S
C780 C781 1.391 . S
C781 H769 0.950 . S
C781 C777 1.393 . S
C781 C780 1.391 . S
C782 H772 0.950 . S
C782 C783 1.386 . S
C782 C784 1.391 . S
C783 C782 1.386 . S
C783 C787 1.393 . S
C784 H773 0.950 . S
C784 C782 1.391 . S
C784 C785 1.400 . S
C785 C779 1.491 1_545 S
C785 C784 1.400 . S
C785 C786 1.398 . S
C786 H774 0.950 . S
C786 C785 1.398 . S
C786 C787 1.391 . S
C787 H775 0.950 . S
C787 C783 1.393 . S
C787 C786 1.391 . S
H788 C796 0.950 . S
H789 C801 0.950 . S
H790 C798 0.950 1_455 S
H791 C800 0.950 . S
H792 C802 0.950 . S
H793 C804 0.950 1_655 S
H794 C806 0.950 . S
H795 C807 0.950 . S
C796 H788 0.950 . S
C796 C797 1.386 . S
C796 C798 1.391 . S
C797 C796 1.386 . S
C797 C801 1.393 . S
C798 H790 0.950 1_655 S
C798 C796 1.391 . S
C798 C799 1.400 . S
C799 C798 1.400 . S
C799 C800 1.398 . S
C799 C805 1.491 1_655 S
C800 H791 0.950 . S
C800 C799 1.398 . S
C800 C801 1.391 . S
C801 H789 0.950 . S
C801 C797 1.393 . S
C801 C800 1.391 . S
C802 H792 0.950 . S
C802 C803 1.386 . S
C802 C804 1.391 . S
C803 C802 1.386 . S
C803 C807 1.393 . S
C804 H793 0.950 1_455 S
C804 C802 1.391 . S
C804 C805 1.400 . S
C805 C799 1.491 1_455 S
C805 C804 1.400 . S
C805 C806 1.398 . S
C806 H794 0.950 . S
C806 C805 1.398 . S
C806 C807 1.391 . S
C807 H795 0.950 . S
C807 C803 1.393 . S
C807 C806 1.391 . S
H808 C816 0.950 . S
H809 C821 0.950 . S
H810 C818 0.950 . S
H811 C820 0.950 1_554 S
H812 C822 0.950 . S
H813 C824 0.950 . S
H814 C826 0.950 1_556 S
H815 C827 0.950 . S
C816 H808 0.950 . S
C816 C817 1.386 . S
C816 C818 1.391 . S
C817 C816 1.386 . S
C817 C821 1.393 . S
C818 H810 0.950 . S
C818 C816 1.391 . S
C818 C819 1.400 . S
C819 C818 1.400 . S
C819 C820 1.398 . S
C819 C825 1.491 1_556 S
C820 H811 0.950 1_556 S
C820 C819 1.398 . S
C820 C821 1.391 . S
C821 H809 0.950 . S
C821 C817 1.393 . S
C821 C820 1.391 . S
C822 H812 0.950 . S
C822 C823 1.386 . S
C822 C824 1.391 . S
C823 C822 1.386 . S
C823 C827 1.393 . S
C824 H813 0.950 . S
C824 C822 1.391 . S
C824 C825 1.400 . S
C825 C819 1.491 1_554 S
C825 C824 1.400 . S
C825 C826 1.398 . S
C826 H814 0.950 1_554 S
C826 C825 1.398 . S
C826 C827 1.391 . S
C827 H815 0.950 . S
C827 C823 1.393 . S
C827 C826 1.391 . S
H828 C836 0.950 . S
H829 C841 0.950 1_655 S
H830 C838 0.950 1_554 S
H831 C840 0.950 . S
H832 C842 0.950 . S
H833 C844 0.950 1_556 S
H834 C846 0.950 . S
H835 C847 0.950 1_455 S
C836 H828 0.950 . S
C836 C837 1.386 . S
C836 C838 1.391 . S
C837 C836 1.386 . S
C837 C841 1.393 . S
C838 H830 0.950 1_556 S
C838 C836 1.391 . S
C838 C839 1.400 . S
C839 C838 1.400 . S
C839 C840 1.398 1_455 S
C839 C845 1.491 1_446 S
C840 H831 0.950 . S
C840 C839 1.398 1_655 S
C840 C841 1.391 1_655 S
C841 H829 0.950 1_455 S
C841 C837 1.393 . S
C841 C840 1.391 1_455 S
C842 H832 0.950 . S
C842 C843 1.386 . S
C842 C844 1.391 . S
C843 C842 1.386 . S
C843 C847 1.393 . S
C844 H833 0.950 1_554 S
C844 C842 1.391 . S
C844 C845 1.400 . S
C845 C839 1.491 1_664 S
C845 C844 1.400 . S
C845 C846 1.398 1_655 S
C846 H834 0.950 . S
C846 C845 1.398 1_455 S
C846 C847 1.391 1_455 S
C847 H835 0.950 1_655 S
C847 C843 1.393 . S
C847 C846 1.391 1_655 S
H848 C856 0.950 . S
H849 C861 0.950 . S
H850 C858 0.950 1_565 S
H851 C860 0.950 . S
H852 C862 0.950 . S
H853 C864 0.950 1_545 S
H854 C866 0.950 . S
H855 C867 0.950 . S
C856 H848 0.950 . S
C856 C857 1.386 . S
C856 C858 1.391 . S
C857 C856 1.386 . S
C857 C861 1.393 . S
C858 H850 0.950 1_545 S
C858 C856 1.391 . S
C858 C859 1.400 . S
C859 C858 1.400 . S
C859 C860 1.398 . S
C859 C865 1.491 1_545 S
C860 H851 0.950 . S
C860 C859 1.398 . S
C860 C861 1.391 . S
C861 H849 0.950 . S
C861 C857 1.393 . S
C861 C860 1.391 . S
C862 H852 0.950 . S
C862 C863 1.386 . S
C862 C864 1.391 . S
C863 C862 1.386 . S
C863 C867 1.393 . S
C864 H853 0.950 1_565 S
C864 C862 1.391 . S
C864 C865 1.400 . S
C865 C859 1.491 1_565 S
C865 C864 1.400 . S
C865 C866 1.398 . S
C866 H854 0.950 . S
C866 C865 1.398 . S
C866 C867 1.391 . S
C867 H855 0.950 . S
C867 C863 1.393 . S
C867 C866 1.391 . S
H868 C876 0.950 . S
H869 C881 0.945 1_655 S
H870 C878 0.950 . S
H871 C880 0.950 . S
H872 C882 0.950 . S
H873 C884 0.950 . S
H874 C886 0.950 . S
H875 C887 0.945 1_455 S
C876 H868 0.950 . S
C876 C877 1.386 . S
C876 C878 1.391 . S
C877 C876 1.386 . S
C877 C881 1.393 . S
C878 H870 0.950 . S
C878 C876 1.391 . S
C878 C879 1.400 . S
C879 C878 1.400 . S
C879 C880 1.398 1_455 S
C879 C885 1.491 1_455 S
C880 H871 0.950 . S
C880 C879 1.398 1_655 S
C880 C881 1.391 1_655 S
C881 H869 0.945 1_455 S
C881 C877 1.393 . S
C881 C880 1.391 1_455 S
C882 H872 0.950 . S
C882 C883 1.386 . S
C882 C884 1.391 . S
C883 C882 1.386 . S
C883 C887 1.393 . S
C884 H873 0.950 . S
C884 C882 1.391 . S
C884 C885 1.400 . S
C885 C879 1.491 1_655 S
C885 C884 1.400 . S
C885 C886 1.398 1_655 S
C886 H874 0.950 . S
C886 C885 1.398 1_455 S
C886 C887 1.391 1_455 S
C887 H875 0.945 1_655 S
C887 C883 1.393 . S
C887 C886 1.391 1_655 S
H888 C896 0.950 . S
H889 C901 0.950 1_554 S
H890 C898 0.950 . S
H891 C900 0.950 . S
H892 C902 0.950 . S
H893 C904 0.950 . S
H894 C906 0.950 . S
H895 C907 0.950 1_556 S
C896 H888 0.950 . S
C896 C897 1.386 . S
C896 C898 1.391 . S
C897 C896 1.386 . S
C897 C901 1.393 . S
C898 H890 0.950 . S
C898 C896 1.391 . S
C898 C899 1.400 . S
C899 C898 1.400 . S
C899 C900 1.398 1_556 S
C899 C905 1.491 1_556 S
C900 H891 0.950 . S
C900 C899 1.398 1_554 S
C900 C901 1.391 1_554 S
C901 H889 0.950 1_556 S
C901 C897 1.393 . S
C901 C900 1.391 1_556 S
C902 H892 0.950 . S
C902 C903 1.386 . S
C902 C904 1.391 . S
C903 C902 1.386 . S
C903 C907 1.393 . S
C904 H893 0.950 . S
C904 C902 1.391 . S
C904 C905 1.400 . S
C905 C899 1.491 1_554 S
C905 C904 1.400 . S
C905 C906 1.398 1_554 S
C906 H894 0.950 . S
C906 C905 1.398 1_556 S
C906 C907 1.391 1_556 S
C907 H895 0.950 1_554 S
C907 C903 1.393 . S
C907 C906 1.391 1_554 S
H908 C916 0.950 . S
H909 C921 0.950 . S
H910 C918 0.950 . S
H911 C920 0.950 . S
H912 C922 0.950 . S
H913 C924 0.950 . S
H914 C926 0.950 . S
H915 C927 0.950 . S
C916 H908 0.950 . S
C916 C917 1.386 . S
C916 C918 1.391 . S
C917 C916 1.386 . S
C917 C921 1.393 . S
C918 H910 0.950 . S
C918 C916 1.391 . S
C918 C919 1.400 . S
C919 C918 1.400 . S
C919 C920 1.398 . S
C919 C925 1.491 . S
C920 H911 0.950 . S
C920 C919 1.398 . S
C920 C921 1.391 . S
C921 H909 0.950 . S
C921 C917 1.393 . S
C921 C920 1.391 . S
C922 H912 0.950 . S
C922 C923 1.386 . S
C922 C924 1.391 . S
C923 C922 1.386 . S
C923 C927 1.393 . S
C924 H913 0.950 . S
C924 C922 1.391 . S
C924 C925 1.400 . S
C925 C919 1.491 . S
C925 C924 1.400 . S
C925 C926 1.398 . S
C926 H914 0.950 . S
C926 C925 1.398 . S
C926 C927 1.391 . S
C927 H915 0.950 . S
C927 C923 1.393 . S
C927 C926 1.391 . S
H928 C936 0.950 . S
H929 C941 0.950 . S
H930 C938 0.950 . S
H931 C940 0.950 . S
H932 C942 0.950 . S
H933 C944 0.950 . S
H934 C946 0.950 . S
H935 C947 0.950 . S
C936 H928 0.950 . S
C936 C937 1.386 . S
C936 C938 1.391 . S
C937 C936 1.386 . S
C937 C941 1.393 . S
C938 H930 0.950 . S
C938 C936 1.391 . S
C938 C939 1.400 . S
C939 C938 1.400 . S
C939 C940 1.398 . S
C939 C945 1.491 . S
C940 H931 0.950 . S
C940 C939 1.398 . S
C940 C941 1.391 . S
C941 H929 0.950 . S
C941 C937 1.393 . S
C941 C940 1.391 . S
C942 H932 0.950 . S
C942 C943 1.386 . S
C942 C944 1.391 . S
C943 C942 1.386 . S
C943 C947 1.393 . S
C944 H933 0.950 . S
C944 C942 1.391 . S
C944 C945 1.400 . S
C945 C939 1.491 . S
C945 C944 1.400 . S
C945 C946 1.398 . S
C946 H934 0.950 . S
C946 C945 1.398 . S
C946 C947 1.391 . S
C947 H935 0.950 . S
C947 C943 1.393 . S
C947 C946 1.391 . S
H948 C956 0.950 . S
H949 C961 0.950 . S
H950 C958 0.950 1_455 S
H951 C960 0.950 . S
H952 C962 0.950 . S
H953 C964 0.950 1_655 S
H954 C966 0.950 . S
H955 C967 0.950 . S
C956 H948 0.950 . S
C956 C957 1.386 . S
C956 C958 1.391 . S
C957 C956 1.386 . S
C957 C961 1.393 . S
C958 H950 0.950 1_655 S
C958 C956 1.391 . S
C958 C959 1.400 . S
C959 C958 1.400 . S
C959 C960 1.398 . S
C959 C965 1.491 1_655 S
C960 H951 0.950 . S
C960 C959 1.398 . S
C960 C961 1.391 . S
C961 H949 0.950 . S
C961 C957 1.393 . S
C961 C960 1.391 . S
C962 H952 0.950 . S
C962 C963 1.386 . S
C962 C964 1.391 . S
C963 C962 1.386 . S
C963 C967 1.393 . S
C964 H953 0.950 1_455 S
C964 C962 1.391 . S
C964 C965 1.400 . S
C965 C959 1.491 1_455 S
C965 C964 1.400 . S
C965 C966 1.398 . S
C966 H954 0.950 . S
C966 C965 1.398 . S
C966 C967 1.391 . S
C967 H955 0.950 . S
C967 C963 1.393 . S
C967 C966 1.391 . S
H968 C976 0.950 . S
H969 C981 0.950 . S
H970 C978 0.950 . S
H971 C980 0.950 . S
H972 C982 0.950 . S
H973 C984 0.950 . S
H974 C986 0.950 . S
H975 C987 0.950 . S
C976 H968 0.950 . S
C976 C977 1.386 . S
C976 C978 1.391 . S
C977 C976 1.386 . S
C977 C981 1.393 . S
C978 H970 0.950 . S
C978 C976 1.391 . S
C978 C979 1.400 . S
C979 C978 1.400 . S
C979 C980 1.398 . S
C979 C985 1.491 . S
C980 H971 0.950 . S
C980 C979 1.398 . S
C980 C981 1.391 . S
C981 H969 0.950 . S
C981 C977 1.393 . S
C981 C980 1.391 . S
C982 H972 0.950 . S
C982 C983 1.386 . S
C982 C984 1.391 . S
C983 C982 1.386 . S
C983 C987 1.393 . S
C984 H973 0.950 . S
C984 C982 1.391 . S
C984 C985 1.400 . S
C985 C979 1.491 . S
C985 C984 1.400 . S
C985 C986 1.398 . S
C986 H974 0.950 . S
C986 C985 1.398 . S
C986 C987 1.391 . S
C987 H975 0.950 . S
C987 C983 1.393 . S
C987 C986 1.391 . S
H988 C996 0.950 . S
H989 C1001 0.950 . S
H990 C998 0.950 . S
H991 C1000 0.950 . S
H992 C1002 0.950 . S
H993 C1004 0.950 . S
H994 C1006 0.950 . S
H995 C1007 0.950 . S
C996 H988 0.950 . S
C996 C997 1.386 . S
C996 C998 1.391 . S
C997 C996 1.386 . S
C997 C1001 1.393 . S
C998 H990 0.950 . S
C998 C996 1.391 . S
C998 C999 1.400 . S
C999 C998 1.400 . S
C999 C1000 1.398 . S
C999 C1005 1.491 . S
C1000 H991 0.950 . S
C1000 C999 1.398 . S
C1000 C1001 1.391 . S
C1001 H989 0.950 . S
C1001 C997 1.393 . S
C1001 C1000 1.391 . S
C1002 H992 0.950 . S
C1002 C1003 1.386 . S
C1002 C1004 1.391 . S
C1003 C1002 1.386 . S
C1003 C1007 1.393 . S
C1004 H993 0.950 . S
C1004 C1002 1.391 . S
C1004 C1005 1.400 . S
C1005 C999 1.491 . S
C1005 C1004 1.400 . S
C1005 C1006 1.398 . S
C1006 H994 0.950 . S
C1006 C1005 1.398 . S
C1006 C1007 1.391 . S
C1007 H995 0.950 . S
C1007 C1003 1.393 . S
C1007 C1006 1.391 . S
H1008 C1016 0.950 . S
H1009 C1021 0.950 . S
H1010 C1018 0.950 . S
H1011 C1020 0.950 . S
H1012 C1022 0.950 . S
H1013 C1024 0.950 . S
H1014 C1026 0.950 . S
H1015 C1027 0.950 . S
C1016 H1008 0.950 . S
C1016 C1017 1.386 . S
C1016 C1018 1.391 . S
C1017 C1016 1.386 . S
C1017 C1021 1.393 . S
C1018 H1010 0.950 . S
C1018 C1016 1.391 . S
C1018 C1019 1.400 . S
C1019 C1018 1.400 . S
C1019 C1020 1.398 . S
C1019 C1025 1.491 . S
C1020 H1011 0.950 . S
C1020 C1019 1.398 . S
C1020 C1021 1.391 . S
C1021 H1009 0.950 . S
C1021 C1017 1.393 . S
C1021 C1020 1.391 . S
C1022 H1012 0.950 . S
C1022 C1023 1.386 . S
C1022 C1024 1.391 . S
C1023 C1022 1.386 . S
C1023 C1027 1.393 . S
C1024 H1013 0.950 . S
C1024 C1022 1.391 . S
C1024 C1025 1.400 . S
C1025 C1019 1.491 . S
C1025 C1024 1.400 . S
C1025 C1026 1.398 . S
C1026 H1014 0.950 . S
C1026 C1025 1.398 . S
C1026 C1027 1.391 . S
C1027 H1015 0.950 . S
C1027 C1023 1.393 . S
C1027 C1026 1.391 . S
H1028 C1036 0.950 . S
H1029 C1041 0.950 . S
H1030 C1038 0.953 1_565 S
H1031 C1040 0.950 . S
H1032 C1042 0.950 . S
H1033 C1044 0.953 1_545 S
H1034 C1046 0.950 . S
H1035 C1047 0.950 . S
C1036 H1028 0.950 . S
C1036 C1037 1.386 . S
C1036 C1038 1.391 . S
C1037 C1036 1.386 . S
C1037 C1041 1.393 . S
C1038 H1030 0.953 1_545 S
C1038 C1036 1.391 . S
C1038 C1039 1.400 . S
C1039 C1038 1.400 . S
C1039 C1040 1.398 . S
C1039 C1045 1.491 1_545 S
C1040 H1031 0.950 . S
C1040 C1039 1.398 . S
C1040 C1041 1.391 . S
C1041 H1029 0.950 . S
C1041 C1037 1.393 . S
C1041 C1040 1.391 . S
C1042 H1032 0.950 . S
C1042 C1043 1.386 . S
C1042 C1044 1.391 . S
C1043 C1042 1.386 . S
C1043 C1047 1.393 . S
C1044 H1033 0.953 1_565 S
C1044 C1042 1.391 . S
C1044 C1045 1.400 . S
C1045 C1039 1.491 1_565 S
C1045 C1044 1.400 . S
C1045 C1046 1.398 . S
C1046 H1034 0.950 . S
C1046 C1045 1.398 . S
C1046 C1047 1.391 . S
C1047 H1035 0.950 . S
C1047 C1043 1.393 . S
C1047 C1046 1.391 . S
H1048 C1056 0.950 . S
H1049 C1061 0.950 . S
H1050 C1058 0.950 . S
H1051 C1060 0.950 . S
H1052 C1062 0.950 . S
H1053 C1064 0.950 . S
H1054 C1066 0.950 . S
H1055 C1067 0.950 . S
C1056 H1048 0.950 . S
C1056 C1057 1.386 . S
C1056 C1058 1.391 . S
C1057 C1056 1.386 . S
C1057 C1061 1.393 . S
C1058 H1050 0.950 . S
C1058 C1056 1.391 . S
C1058 C1059 1.400 . S
C1059 C1058 1.400 . S
C1059 C1060 1.398 . S
C1059 C1065 1.491 . S
C1060 H1051 0.950 . S
C1060 C1059 1.398 . S
C1060 C1061 1.391 . S
C1061 H1049 0.950 . S
C1061 C1057 1.393 . S
C1061 C1060 1.391 . S
C1062 H1052 0.950 . S
C1062 C1063 1.386 . S
C1062 C1064 1.391 . S
C1063 C1062 1.386 . S
C1063 C1067 1.393 . S
C1064 H1053 0.950 . S
C1064 C1062 1.391 . S
C1064 C1065 1.400 . S
C1065 C1059 1.491 . S
C1065 C1064 1.400 . S
C1065 C1066 1.398 . S
C1066 H1054 0.950 . S
C1066 C1065 1.398 . S
C1066 C1067 1.391 . S
C1067 H1055 0.950 . S
C1067 C1063 1.393 . S
C1067 C1066 1.391 . S
H1068 C1076 0.950 . S
H1069 C1081 0.950 . S
H1070 C1078 0.950 . S
H1071 C1080 0.950 . S
H1072 C1082 0.950 . S
H1073 C1084 0.950 . S
H1074 C1086 0.950 . S
H1075 C1087 0.950 . S
C1076 H1068 0.950 . S
C1076 C1077 1.386 . S
C1076 C1078 1.391 1_554 S
C1077 C1076 1.386 . S
C1077 C1081 1.393 . S
C1078 H1070 0.950 . S
C1078 C1076 1.391 1_556 S
C1078 C1079 1.400 1_556 S
C1079 C1078 1.400 1_554 S
C1079 C1080 1.398 . S
C1079 C1085 1.491 1_554 S
C1080 H1071 0.950 . S
C1080 C1079 1.398 . S
C1080 C1081 1.391 . S
C1081 H1069 0.950 . S
C1081 C1077 1.393 . S
C1081 C1080 1.391 . S
C1082 H1072 0.950 . S
C1082 C1083 1.386 . S
C1082 C1084 1.391 1_556 S
C1083 C1082 1.386 . S
C1083 C1087 1.393 . S
C1084 H1073 0.950 . S
C1084 C1082 1.391 1_554 S
C1084 C1085 1.400 1_554 S
C1085 C1079 1.491 1_556 S
C1085 C1084 1.400 1_556 S
C1085 C1086 1.398 . S
C1086 H1074 0.950 . S
C1086 C1085 1.398 . S
C1086 C1087 1.391 . S
C1087 H1075 0.950 . S
C1087 C1083 1.393 . S
C1087 C1086 1.391 . S
H1088 C1096 0.950 . S
H1089 C1101 0.950 . S
H1090 C1098 0.950 . S
H1091 C1100 0.950 . S
H1092 C1102 0.950 . S
H1093 C1104 0.950 . S
H1094 C1106 0.950 . S
H1095 C1107 0.950 . S
C1096 H1088 0.950 . S
C1096 C1097 1.386 . S
C1096 C1098 1.391 . S
C1097 C1096 1.386 . S
C1097 C1101 1.393 . S
C1098 H1090 0.950 . S
C1098 C1096 1.391 . S
C1098 C1099 1.400 . S
C1099 C1098 1.400 . S
C1099 C1100 1.398 . S
C1099 C1105 1.491 . S
C1100 H1091 0.950 . S
C1100 C1099 1.398 . S
C1100 C1101 1.391 . S
C1101 H1089 0.950 . S
C1101 C1097 1.393 . S
C1101 C1100 1.391 . S
C1102 H1092 0.950 . S
C1102 C1103 1.386 . S
C1102 C1104 1.391 . S
C1103 C1102 1.386 . S
C1103 C1107 1.393 . S
C1104 H1093 0.950 . S
C1104 C1102 1.391 . S
C1104 C1105 1.400 . S
C1105 C1099 1.491 . S
C1105 C1104 1.400 . S
C1105 C1106 1.398 . S
C1106 H1094 0.950 . S
C1106 C1105 1.398 . S
C1106 C1107 1.391 . S
C1107 H1095 0.950 . S
C1107 C1103 1.393 . S
C1107 C1106 1.391 . S
H1108 C1116 0.950 . S
H1109 C1121 0.950 1_554 S
H1110 C1118 0.950 . S
H1111 C1120 0.950 1_554 S
H1112 C1122 0.964 . S
H1113 C1124 0.951 1_554 S
H1114 C1126 0.950 . S
H1115 C1127 0.950 . S
C1116 H1108 0.950 . S
C1116 C1117 1.386 . S
C1116 C1118 1.391 . S
C1117 C1116 1.386 . S
C1117 C1121 1.393 . S
C1118 H1110 0.950 . S
C1118 C1116 1.391 . S
C1118 C1119 1.400 . S
C1119 C1118 1.400 . S
C1119 C1120 1.398 . S
C1119 C1125 1.491 . S
C1120 H1111 0.950 1_556 S
C1120 C1119 1.398 . S
C1120 C1121 1.391 . S
C1121 H1109 0.950 1_556 S
C1121 C1117 1.393 . S
C1121 C1120 1.391 . S
C1122 H1112 0.964 . S
C1122 C1123 1.386 . S
C1122 C1124 1.391 . S
C1123 C1122 1.386 . S
C1123 C1127 1.393 . S
C1124 H1113 0.951 1_556 S
C1124 C1122 1.391 . S
C1124 C1125 1.400 . S
C1125 C1119 1.491 . S
C1125 C1124 1.400 . S
C1125 C1126 1.398 . S
C1126 H1114 0.950 . S
C1126 C1125 1.398 . S
C1126 C1127 1.391 . S
C1127 H1115 0.950 . S
C1127 C1123 1.393 . S
C1127 C1126 1.391 . S
H1128 C1136 0.950 . S
H1129 C1141 0.950 . S
H1130 C1138 0.950 . S
H1131 C1140 0.950 . S
H1132 C1142 0.950 . S
H1133 C1144 0.950 . S
H1134 C1146 0.950 . S
H1135 C1147 0.950 . S
C1136 H1128 0.950 . S
C1136 C1137 1.386 . S
C1136 C1138 1.391 . S
C1137 C1136 1.386 . S
C1137 C1141 1.393 . S
C1138 H1130 0.950 . S
C1138 C1136 1.391 . S
C1138 C1139 1.400 . S
C1139 C1138 1.400 . S
C1139 C1140 1.398 . S
C1139 C1145 1.491 . S
C1140 H1131 0.950 . S
C1140 C1139 1.398 . S
C1140 C1141 1.391 . S
C1141 H1129 0.950 . S
C1141 C1137 1.393 . S
C1141 C1140 1.391 . S
C1142 H1132 0.950 . S
C1142 C1143 1.386 . S
C1142 C1144 1.391 . S
C1143 C1142 1.386 . S
C1143 C1147 1.393 . S
C1144 H1133 0.950 . S
C1144 C1142 1.391 . S
C1144 C1145 1.400 . S
C1145 C1139 1.491 . S
C1145 C1144 1.400 . S
C1145 C1146 1.398 . S
C1146 H1134 0.950 . S
C1146 C1145 1.398 . S
C1146 C1147 1.391 . S
C1147 H1135 0.950 . S
C1147 C1143 1.393 . S
C1147 C1146 1.391 . S
H1148 C1156 0.950 . S
H1149 C1161 0.950 . S
H1150 C1158 0.950 . S
H1151 C1160 0.950 . S
H1152 C1162 0.950 . S
H1153 C1164 0.950 . S
H1154 C1166 0.950 . S
H1155 C1167 0.950 . S
C1156 H1148 0.950 . S
C1156 C1157 1.386 . S
C1156 C1158 1.391 . S
C1157 C1156 1.386 . S
C1157 C1161 1.393 . S
C1158 H1150 0.950 . S
C1158 C1156 1.391 . S
C1158 C1159 1.400 . S
C1159 C1158 1.400 . S
C1159 C1160 1.398 . S
C1159 C1165 1.491 . S
C1160 H1151 0.950 . S
C1160 C1159 1.398 . S
C1160 C1161 1.391 . S
C1161 H1149 0.950 . S
C1161 C1157 1.393 . S
C1161 C1160 1.391 . S
C1162 H1152 0.950 . S
C1162 C1163 1.386 . S
C1162 C1164 1.391 . S
C1163 C1162 1.386 . S
C1163 C1167 1.393 . S
C1164 H1153 0.950 . S
C1164 C1162 1.391 . S
C1164 C1165 1.400 . S
C1165 C1159 1.491 . S
C1165 C1164 1.400 . S
C1165 C1166 1.398 . S
C1166 H1154 0.950 . S
C1166 C1165 1.398 . S
C1166 C1167 1.391 . S
C1167 H1155 0.950 . S
C1167 C1163 1.393 . S
C1167 C1166 1.391 . S
H1168 C1176 0.950 . S
H1169 C1181 0.950 . S
H1170 C1178 0.950 . S
H1171 C1180 0.950 . S
H1172 C1182 0.950 . S
H1173 C1184 0.950 . S
H1174 C1186 0.950 . S
H1175 C1187 0.950 . S
C1176 H1168 0.950 . S
C1176 C1177 1.386 . S
C1176 C1178 1.391 . S
C1177 C1176 1.386 . S
C1177 C1181 1.393 . S
C1178 H1170 0.950 . S
C1178 C1176 1.391 . S
C1178 C1179 1.400 . S
C1179 C1178 1.400 . S
C1179 C1180 1.398 . S
C1179 C1185 1.491 . S
C1180 H1171 0.950 . S
C1180 C1179 1.398 . S
C1180 C1181 1.391 . S
C1181 H1169 0.950 . S
C1181 C1177 1.393 . S
C1181 C1180 1.391 . S
C1182 H1172 0.950 . S
C1182 C1183 1.386 . S
C1182 C1184 1.391 . S
C1183 C1182 1.386 . S
C1183 C1187 1.393 . S
C1184 H1173 0.950 . S
C1184 C1182 1.391 . S
C1184 C1185 1.400 . S
C1185 C1179 1.491 . S
C1185 C1184 1.400 . S
C1185 C1186 1.398 . S
C1186 H1174 0.950 . S
C1186 C1185 1.398 . S
C1186 C1187 1.391 . S
C1187 H1175 0.950 . S
C1187 C1183 1.393 . S
C1187 C1186 1.391 . S
H1188 C1196 0.950 . S
H1189 C1201 0.950 . S
H1190 C1198 0.950 . S
H1191 C1200 0.950 . S
H1192 C1202 0.950 . S
H1193 C1204 0.950 . S
H1194 C1206 0.950 . S
H1195 C1207 0.950 . S
C1196 H1188 0.950 . S
C1196 C1197 1.386 . S
C1196 C1198 1.391 . S
C1197 C1196 1.386 . S
C1197 C1201 1.393 . S
C1198 H1190 0.950 . S
C1198 C1196 1.391 . S
C1198 C1199 1.400 . S
C1199 C1198 1.400 . S
C1199 C1200 1.398 . S
C1199 C1205 1.491 . S
C1200 H1191 0.950 . S
C1200 C1199 1.398 . S
C1200 C1201 1.391 . S
C1201 H1189 0.950 . S
C1201 C1197 1.393 . S
C1201 C1200 1.391 . S
C1202 H1192 0.950 . S
C1202 C1203 1.386 . S
C1202 C1204 1.391 . S
C1203 C1202 1.386 . S
C1203 C1207 1.393 . S
C1204 H1193 0.950 . S
C1204 C1202 1.391 . S
C1204 C1205 1.400 . S
C1205 C1199 1.491 . S
C1205 C1204 1.400 . S
C1205 C1206 1.398 . S
C1206 H1194 0.950 . S
C1206 C1205 1.398 . S
C1206 C1207 1.391 . S
C1207 H1195 0.950 . S
C1207 C1203 1.393 . S
C1207 C1206 1.391 . S
H1208 C1216 0.950 . S
H1209 C1221 0.950 . S
H1210 C1218 0.950 . S
H1211 C1220 0.950 . S
H1212 C1222 0.950 . S
H1213 C1224 0.950 . S
H1214 C1226 0.950 . S
H1215 C1227 0.950 . S
C1216 H1208 0.950 . S
C1216 C1217 1.386 . S
C1216 C1218 1.391 . S
C1217 C1216 1.386 . S
C1217 C1221 1.393 . S
C1218 H1210 0.950 . S
C1218 C1216 1.391 . S
C1218 C1219 1.400 . S
C1219 C1218 1.400 . S
C1219 C1220 1.398 . S
C1219 C1225 1.491 . S
C1220 H1211 0.950 . S
C1220 C1219 1.398 . S
C1220 C1221 1.391 . S
C1221 H1209 0.950 . S
C1221 C1217 1.393 . S
C1221 C1220 1.391 . S
C1222 H1212 0.950 . S
C1222 C1223 1.386 . S
C1222 C1224 1.391 . S
C1223 C1222 1.386 . S
C1223 C1227 1.393 . S
C1224 H1213 0.950 . S
C1224 C1222 1.391 . S
C1224 C1225 1.400 . S
C1225 C1219 1.491 . S
C1225 C1224 1.400 . S
C1225 C1226 1.398 . S
C1226 H1214 0.950 . S
C1226 C1225 1.398 . S
C1226 C1227 1.391 . S
C1227 H1215 0.950 . S
C1227 C1223 1.393 . S
C1227 C1226 1.391 . S
H1228 C1236 0.950 . S
H1229 C1241 0.950 . S
H1230 C1238 0.950 . S
H1231 C1240 0.950 . S
H1232 C1242 0.950 . S
H1233 C1244 0.950 . S
H1234 C1246 0.950 . S
H1235 C1247 0.950 . S
C1236 H1228 0.950 . S
C1236 C1237 1.386 . S
C1236 C1238 1.391 . S
C1237 C1236 1.386 . S
C1237 C1241 1.393 . S
C1238 H1230 0.950 . S
C1238 C1236 1.391 . S
C1238 C1239 1.400 . S
C1239 C1238 1.400 . S
C1239 C1240 1.398 . S
C1239 C1245 1.491 . S
C1240 H1231 0.950 . S
C1240 C1239 1.398 . S
C1240 C1241 1.391 . S
C1241 H1229 0.950 . S
C1241 C1237 1.393 . S
C1241 C1240 1.391 . S
C1242 H1232 0.950 . S
C1242 C1243 1.386 . S
C1242 C1244 1.391 . S
C1243 C1242 1.386 . S
C1243 C1247 1.393 . S
C1244 H1233 0.950 . S
C1244 C1242 1.391 . S
C1244 C1245 1.400 . S
C1245 C1239 1.491 . S
C1245 C1244 1.400 . S
C1245 C1246 1.398 . S
C1246 H1234 0.950 . S
C1246 C1245 1.398 . S
C1246 C1247 1.391 . S
C1247 H1235 0.950 . S
C1247 C1243 1.393 . S
C1247 C1246 1.391 . S
H1248 C1256 0.950 . S
H1249 C1261 0.950 . S
H1250 C1258 0.950 . S
H1251 C1260 0.950 . S
H1252 C1262 0.950 . S
H1253 C1264 0.950 . S
H1254 C1266 0.950 . S
H1255 C1267 0.950 . S
C1256 H1248 0.950 . S
C1256 C1257 1.386 . S
C1256 C1258 1.391 . S
C1257 C1256 1.386 . S
C1257 C1261 1.393 . S
C1258 H1250 0.950 . S
C1258 C1256 1.391 . S
C1258 C1259 1.400 . S
C1259 C1258 1.400 . S
C1259 C1260 1.398 . S
C1259 C1265 1.491 . S
C1260 H1251 0.950 . S
C1260 C1259 1.398 . S
C1260 C1261 1.391 . S
C1261 H1249 0.950 . S
C1261 C1257 1.393 . S
C1261 C1260 1.391 . S
C1262 H1252 0.950 . S
C1262 C1263 1.386 . S
C1262 C1264 1.391 . S
C1263 C1262 1.386 . S
C1263 C1267 1.393 . S
C1264 H1253 0.950 . S
C1264 C1262 1.391 . S
C1264 C1265 1.400 . S
C1265 C1259 1.491 . S
C1265 C1264 1.400 . S
C1265 C1266 1.398 . S
C1266 H1254 0.950 . S
C1266 C1265 1.398 . S
C1266 C1267 1.391 . S
C1267 H1255 0.950 . S
C1267 C1263 1.393 . S
C1267 C1266 1.391 . S
H1268 C1276 0.950 . S
H1269 C1281 0.950 . S
H1270 C1278 0.950 . S
H1271 C1280 0.950 . S
H1272 C1282 0.950 . S
H1273 C1284 0.950 . S
H1274 C1286 0.950 . S
H1275 C1287 0.950 . S
C1276 H1268 0.950 . S
C1276 C1277 1.386 . S
C1276 C1278 1.391 . S
C1277 C1276 1.386 . S
C1277 C1281 1.393 . S
C1278 H1270 0.950 . S
C1278 C1276 1.391 . S
C1278 C1279 1.400 . S
C1279 C1278 1.400 . S
C1279 C1280 1.398 . S
C1279 C1285 1.491 . S
C1280 H1271 0.950 . S
C1280 C1279 1.398 . S
C1280 C1281 1.391 . S
C1281 H1269 0.950 . S
C1281 C1277 1.393 . S
C1281 C1280 1.391 . S
C1282 H1272 0.950 . S
C1282 C1283 1.386 . S
C1282 C1284 1.391 . S
C1283 C1282 1.386 . S
C1283 C1287 1.393 . S
C1284 H1273 0.950 . S
C1284 C1282 1.391 . S
C1284 C1285 1.400 . S
C1285 C1279 1.491 . S
C1285 C1284 1.400 . S
C1285 C1286 1.398 . S
C1286 H1274 0.950 . S
C1286 C1285 1.398 . S
C1286 C1287 1.391 . S
C1287 H1275 0.950 . S
C1287 C1283 1.393 . S
C1287 C1286 1.391 . S
H1288 C1296 0.950 . S
H1289 C1301 0.950 . S
H1290 C1298 0.950 . S
H1291 C1300 0.950 . S
H1292 C1302 0.950 . S
H1293 C1304 0.950 . S
H1294 C1306 0.950 . S
H1295 C1307 0.950 . S
C1296 H1288 0.950 . S
C1296 C1297 1.386 . S
C1296 C1298 1.391 . S
C1297 C1296 1.386 . S
C1297 C1301 1.393 . S
C1298 H1290 0.950 . S
C1298 C1296 1.391 . S
C1298 C1299 1.400 . S
C1299 C1298 1.400 . S
C1299 C1300 1.398 . S
C1299 C1305 1.491 . S
C1300 H1291 0.950 . S
C1300 C1299 1.398 . S
C1300 C1301 1.391 . S
C1301 H1289 0.950 . S
C1301 C1297 1.393 . S
C1301 C1300 1.391 . S
C1302 H1292 0.950 . S
C1302 C1303 1.386 . S
C1302 C1304 1.391 . S
C1303 C1302 1.386 . S
C1303 C1307 1.393 . S
C1304 H1293 0.950 . S
C1304 C1302 1.391 . S
C1304 C1305 1.400 . S
C1305 C1299 1.491 . S
C1305 C1304 1.400 . S
C1305 C1306 1.398 . S
C1306 H1294 0.950 . S
C1306 C1305 1.398 . S
C1306 C1307 1.391 . S
C1307 H1295 0.950 . S
C1307 C1303 1.393 . S
C1307 C1306 1.391 . S
H1308 C1316 0.950 . S
H1309 C1321 0.950 . S
H1310 C1318 0.950 . S
H1311 C1320 0.950 . S
H1312 C1322 0.950 . S
H1313 C1324 0.950 . S
H1314 C1326 0.950 . S
H1315 C1327 0.950 . S
C1316 H1308 0.950 . S
C1316 C1317 1.386 . S
C1316 C1318 1.391 . S
C1317 C1316 1.386 . S
C1317 C1321 1.393 . S
C1318 H1310 0.950 . S
C1318 C1316 1.391 . S
C1318 C1319 1.400 . S
C1319 C1318 1.400 . S
C1319 C1320 1.398 . S
C1319 C1325 1.491 . S
C1320 H1311 0.950 . S
C1320 C1319 1.398 . S
C1320 C1321 1.391 . S
C1321 H1309 0.950 . S
C1321 C1317 1.393 . S
C1321 C1320 1.391 . S
C1322 H1312 0.950 . S
C1322 C1323 1.386 . S
C1322 C1324 1.391 . S
C1323 C1322 1.386 . S
C1323 C1327 1.393 . S
C1324 H1313 0.950 . S
C1324 C1322 1.391 . S
C1324 C1325 1.400 . S
C1325 C1319 1.491 . S
C1325 C1324 1.400 . S
C1325 C1326 1.398 . S
C1326 H1314 0.950 . S
C1326 C1325 1.398 . S
C1326 C1327 1.391 . S
C1327 H1315 0.950 . S
C1327 C1323 1.393 . S
C1327 C1326 1.391 . S
H1328 C1336 0.950 . S
H1329 C1341 0.950 . S
H1330 C1338 0.950 . S
H1331 C1340 0.950 . S
H1332 C1342 0.950 . S
H1333 C1344 0.950 . S
H1334 C1346 0.950 . S
H1335 C1347 0.950 . S
C1336 H1328 0.950 . S
C1336 C1337 1.386 . S
C1336 C1338 1.391 . S
C1337 C1336 1.386 . S
C1337 C1341 1.393 . S
C1338 H1330 0.950 . S
C1338 C1336 1.391 . S
C1338 C1339 1.400 . S
C1339 C1338 1.400 . S
C1339 C1340 1.398 . S
C1339 C1345 1.491 . S
C1340 H1331 0.950 . S
C1340 C1339 1.398 . S
C1340 C1341 1.391 . S
C1341 H1329 0.950 . S
C1341 C1337 1.393 . S
C1341 C1340 1.391 . S
C1342 H1332 0.950 . S
C1342 C1343 1.386 . S
C1342 C1344 1.391 . S
C1343 C1342 1.386 . S
C1343 C1347 1.393 . S
C1344 H1333 0.950 . S
C1344 C1342 1.391 . S
C1344 C1345 1.400 . S
C1345 C1339 1.491 . S
C1345 C1344 1.400 . S
C1345 C1346 1.398 . S
C1346 H1334 0.950 . S
C1346 C1345 1.398 . S
C1346 C1347 1.391 . S
C1347 H1335 0.950 . S
C1347 C1343 1.393 . S
C1347 C1346 1.391 . S
H1348 C1356 0.950 . S
H1349 C1361 0.950 . S
H1350 C1358 0.950 . S
H1351 C1360 0.950 . S
H1352 C1362 0.950 . S
H1353 C1364 0.950 . S
H1354 C1366 0.950 . S
H1355 C1367 0.950 . S
C1356 H1348 0.950 . S
C1356 C1357 1.386 . S
C1356 C1358 1.391 . S
C1357 C1356 1.386 . S
C1357 C1361 1.393 . S
C1358 H1350 0.950 . S
C1358 C1356 1.391 . S
C1358 C1359 1.400 . S
C1359 C1358 1.400 . S
C1359 C1360 1.398 . S
C1359 C1365 1.491 . S
C1360 H1351 0.950 . S
C1360 C1359 1.398 . S
C1360 C1361 1.391 . S
C1361 H1349 0.950 . S
C1361 C1357 1.393 . S
C1361 C1360 1.391 . S
C1362 H1352 0.950 . S
C1362 C1363 1.386 . S
C1362 C1364 1.391 . S
C1363 C1362 1.386 . S
C1363 C1367 1.393 . S
C1364 H1353 0.950 . S
C1364 C1362 1.391 . S
C1364 C1365 1.400 . S
C1365 C1359 1.491 . S
C1365 C1364 1.400 . S
C1365 C1366 1.398 . S
C1366 H1354 0.950 . S
C1366 C1365 1.398 . S
C1366 C1367 1.391 . S
C1367 H1355 0.950 . S
C1367 C1363 1.393 . S
C1367 C1366 1.391 . S
H1368 C1376 0.950 . S
H1369 C1381 0.950 . S
H1370 C1378 0.950 . S
H1371 C1380 0.950 . S
H1372 C1382 0.950 . S
H1373 C1384 0.950 . S
H1374 C1386 0.950 . S
H1375 C1387 0.950 . S
C1376 H1368 0.950 . S
C1376 C1377 1.386 . S
C1376 C1378 1.391 . S
C1377 C1376 1.386 . S
C1377 C1381 1.393 . S
C1378 H1370 0.950 . S
C1378 C1376 1.391 . S
C1378 C1379 1.400 . S
C1379 C1378 1.400 . S
C1379 C1380 1.398 . S
C1379 C1385 1.491 . S
C1380 H1371 0.950 . S
C1380 C1379 1.398 . S
C1380 C1381 1.391 . S
C1381 H1369 0.950 . S
C1381 C1377 1.393 . S
C1381 C1380 1.391 . S
C1382 H1372 0.950 . S
C1382 C1383 1.386 . S
C1382 C1384 1.391 . S
C1383 C1382 1.386 . S
C1383 C1387 1.393 . S
C1384 H1373 0.950 . S
C1384 C1382 1.391 . S
C1384 C1385 1.400 . S
C1385 C1379 1.491 . S
C1385 C1384 1.400 . S
C1385 C1386 1.398 . S
C1386 H1374 0.950 . S
C1386 C1385 1.398 . S
C1386 C1387 1.391 . S
C1387 H1375 0.950 . S
C1387 C1383 1.393 . S
C1387 C1386 1.391 . S
H1388 C1396 0.950 . S
H1389 C1401 0.950 1_556 S
H1390 C1398 0.950 . S
H1391 C1400 0.950 1_556 S
H1392 C1402 0.950 1_556 S
H1393 C1404 0.950 1_556 S
H1394 C1406 0.950 . S
H1395 C1407 0.950 . S
C1396 H1388 0.950 . S
C1396 C1397 1.386 . S
C1396 C1398 1.391 . S
C1397 C1396 1.386 . S
C1397 C1401 1.393 . S
C1398 H1390 0.950 . S
C1398 C1396 1.391 . S
C1398 C1399 1.400 . S
C1399 C1398 1.400 . S
C1399 C1400 1.398 . S
C1399 C1405 1.491 . S
C1400 H1391 0.950 1_554 S
C1400 C1399 1.398 . S
C1400 C1401 1.391 . S
C1401 H1389 0.950 1_554 S
C1401 C1397 1.393 . S
C1401 C1400 1.391 . S
C1402 H1392 0.950 1_554 S
C1402 C1403 1.386 . S
C1402 C1404 1.391 . S
C1403 C1402 1.386 . S
C1403 C1407 1.393 . S
C1404 H1393 0.950 1_554 S
C1404 C1402 1.391 . S
C1404 C1405 1.400 . S
C1405 C1399 1.491 . S
C1405 C1404 1.400 . S
C1405 C1406 1.398 . S
C1406 H1394 0.950 . S
C1406 C1405 1.398 . S
C1406 C1407 1.391 . S
C1407 H1395 0.950 . S
C1407 C1403 1.393 . S
C1407 C1406 1.391 . S
H1408 C1416 0.950 . S
H1409 C1421 0.950 1_455 S
H1410 C1418 0.950 . S
H1411 C1420 0.950 . S
H1412 C1422 0.950 . S
H1413 C1424 0.950 . S
H1414 C1426 0.950 . S
H1415 C1427 0.950 . S
C1416 H1408 0.950 . S
C1416 C1417 1.386 . S
C1416 C1418 1.391 . S
C1417 C1416 1.386 . S
C1417 C1421 1.393 . S
C1418 H1410 0.950 . S
C1418 C1416 1.391 . S
C1418 C1419 1.400 . S
C1419 C1418 1.400 . S
C1419 C1420 1.398 . S
C1419 C1425 1.491 . S
C1420 H1411 0.950 . S
C1420 C1419 1.398 . S
C1420 C1421 1.391 . S
C1421 H1409 0.950 1_655 S
C1421 C1417 1.393 . S
C1421 C1420 1.391 . S
C1422 H1412 0.950 . S
C1422 C1423 1.386 . S
C1422 C1424 1.391 . S
C1423 C1422 1.386 . S
C1423 C1427 1.393 . S
C1424 H1413 0.950 . S
C1424 C1422 1.391 . S
C1424 C1425 1.400 . S
C1425 C1419 1.491 . S
C1425 C1424 1.400 . S
C1425 C1426 1.398 . S
C1426 H1414 0.950 . S
C1426 C1425 1.398 . S
C1426 C1427 1.391 . S
C1427 H1415 0.950 . S
C1427 C1423 1.393 . S
C1427 C1426 1.391 . S
H1428 C1436 0.950 . S
H1429 C1441 0.950 . S
H1430 C1438 0.950 . S
H1431 C1440 0.950 . S
H1432 C1442 0.950 . S
H1433 C1444 0.950 . S
H1434 C1446 0.950 . S
H1435 C1447 0.950 . S
C1436 H1428 0.950 . S
C1436 C1437 1.386 . S
C1436 C1438 1.391 . S
C1437 C1436 1.386 . S
C1437 C1441 1.393 . S
C1438 H1430 0.950 . S
C1438 C1436 1.391 . S
C1438 C1439 1.400 . S
C1439 C1438 1.400 . S
C1439 C1440 1.398 . S
C1439 C1445 1.491 . S
C1440 H1431 0.950 . S
C1440 C1439 1.398 . S
C1440 C1441 1.391 . S
C1441 H1429 0.950 . S
C1441 C1437 1.393 . S
C1441 C1440 1.391 . S
C1442 H1432 0.950 . S
C1442 C1443 1.386 . S
C1442 C1444 1.391 . S
C1443 C1442 1.386 . S
C1443 C1447 1.393 . S
C1444 H1433 0.950 . S
C1444 C1442 1.391 . S
C1444 C1445 1.400 . S
C1445 C1439 1.491 . S
C1445 C1444 1.400 . S
C1445 C1446 1.398 . S
C1446 H1434 0.950 . S
C1446 C1445 1.398 . S
C1446 C1447 1.391 . S
C1447 H1435 0.950 . S
C1447 C1443 1.393 . S
C1447 C1446 1.391 . S
H1448 C1456 0.950 . S
H1449 C1461 0.950 . S
H1450 C1458 0.950 . S
H1451 C1460 0.950 . S
H1452 C1462 0.950 . S
H1453 C1464 0.950 . S
H1454 C1466 0.950 . S
H1455 C1467 0.950 . S
C1456 H1448 0.950 . S
C1456 C1457 1.386 . S
C1456 C1458 1.391 . S
C1457 C1456 1.386 . S
C1457 C1461 1.393 . S
C1458 H1450 0.950 . S
C1458 C1456 1.391 . S
C1458 C1459 1.400 . S
C1459 C1458 1.400 . S
C1459 C1460 1.398 . S
C1459 C1465 1.491 . S
C1460 H1451 0.950 . S
C1460 C1459 1.398 . S
C1460 C1461 1.391 . S
C1461 H1449 0.950 . S
C1461 C1457 1.393 . S
C1461 C1460 1.391 . S
C1462 H1452 0.950 . S
C1462 C1463 1.386 . S
C1462 C1464 1.391 . S
C1463 C1462 1.386 . S
C1463 C1467 1.393 . S
C1464 H1453 0.950 . S
C1464 C1462 1.391 . S
C1464 C1465 1.400 . S
C1465 C1459 1.491 . S
C1465 C1464 1.400 . S
C1465 C1466 1.398 . S
C1466 H1454 0.950 . S
C1466 C1465 1.398 . S
C1466 C1467 1.391 . S
C1467 H1455 0.950 . S
C1467 C1463 1.393 . S
C1467 C1466 1.391 . S
H1468 C1476 0.950 . S
H1469 C1481 0.950 . S
H1470 C1478 0.950 . S
H1471 C1480 0.950 . S
H1472 C1482 0.950 . S
H1473 C1484 0.950 . S
H1474 C1486 0.950 . S
H1475 C1487 0.950 . S
C1476 H1468 0.950 . S
C1476 C1477 1.386 . S
C1476 C1478 1.391 . S
C1477 C1476 1.386 . S
C1477 C1481 1.393 . S
C1478 H1470 0.950 . S
C1478 C1476 1.391 . S
C1478 C1479 1.400 . S
C1479 C1478 1.400 . S
C1479 C1480 1.398 . S
C1479 C1485 1.491 . S
C1480 H1471 0.950 . S
C1480 C1479 1.398 . S
C1480 C1481 1.391 . S
C1481 H1469 0.950 . S
C1481 C1477 1.393 . S
C1481 C1480 1.391 . S
C1482 H1472 0.950 . S
C1482 C1483 1.386 . S
C1482 C1484 1.391 . S
C1483 C1482 1.386 . S
C1483 C1487 1.393 . S
C1484 H1473 0.950 . S
C1484 C1482 1.391 . S
C1484 C1485 1.400 . S
C1485 C1479 1.491 . S
C1485 C1484 1.400 . S
C1485 C1486 1.398 . S
C1486 H1474 0.950 . S
C1486 C1485 1.398 . S
C1486 C1487 1.391 . S
C1487 H1475 0.950 . S
C1487 C1483 1.393 . S
C1487 C1486 1.391 . S
H1488 C1496 0.950 . S
H1489 C1501 0.950 . S
H1490 C1498 0.950 . S
H1491 C1500 0.950 . S
H1492 C1502 0.950 . S
H1493 C1504 0.950 . S
H1494 C1506 0.950 . S
H1495 C1507 0.950 . S
C1496 H1488 0.950 . S
C1496 C1497 1.386 . S
C1496 C1498 1.391 . S
C1497 C1496 1.386 . S
C1497 C1501 1.393 . S
C1498 H1490 0.950 . S
C1498 C1496 1.391 . S
C1498 C1499 1.400 . S
C1499 C1498 1.400 . S
C1499 C1500 1.398 . S
C1499 C1505 1.491 . S
C1500 H1491 0.950 . S
C1500 C1499 1.398 . S
C1500 C1501 1.391 . S
C1501 H1489 0.950 . S
C1501 C1497 1.393 . S
C1501 C1500 1.391 . S
C1502 H1492 0.950 . S
C1502 C1503 1.386 . S
C1502 C1504 1.391 . S
C1503 C1502 1.386 . S
C1503 C1507 1.393 . S
C1504 H1493 0.950 . S
C1504 C1502 1.391 . S
C1504 C1505 1.400 . S
C1505 C1499 1.491 . S
C1505 C1504 1.400 . S
C1505 C1506 1.398 . S
C1506 H1494 0.950 . S
C1506 C1505 1.398 . S
C1506 C1507 1.391 . S
C1507 H1495 0.950 . S
C1507 C1503 1.393 . S
C1507 C1506 1.391 . S
H1508 C1516 0.950 . S
H1509 C1521 0.950 . S
H1510 C1518 0.950 . S
H1511 C1520 0.950 . S
H1512 C1522 0.950 . S
H1513 C1524 0.950 . S
H1514 C1526 0.950 . S
H1515 C1527 0.950 . S
C1516 H1508 0.950 . S
C1516 C1517 1.386 . S
C1516 C1518 1.391 . S
C1517 C1516 1.386 . S
C1517 C1521 1.393 . S
C1518 H1510 0.950 . S
C1518 C1516 1.391 . S
C1518 C1519 1.400 . S
C1519 C1518 1.400 . S
C1519 C1520 1.398 . S
C1519 C1525 1.491 . S
C1520 H1511 0.950 . S
C1520 C1519 1.398 . S
C1520 C1521 1.391 . S
C1521 H1509 0.950 . S
C1521 C1517 1.393 . S
C1521 C1520 1.391 . S
C1522 H1512 0.950 . S
C1522 C1523 1.386 . S
C1522 C1524 1.391 . S
C1523 C1522 1.386 . S
C1523 C1527 1.393 . S
C1524 H1513 0.950 . S
C1524 C1522 1.391 . S
C1524 C1525 1.400 . S
C1525 C1519 1.491 . S
C1525 C1524 1.400 . S
C1525 C1526 1.398 . S
C1526 H1514 0.950 . S
C1526 C1525 1.398 . S
C1526 C1527 1.391 . S
C1527 H1515 0.950 . S
C1527 C1523 1.393 . S
C1527 C1526 1.391 . S
H1528 C1536 0.950 . S
H1529 C1541 0.950 . S
H1530 C1538 0.950 . S
H1531 C1540 0.950 . S
H1532 C1542 0.950 . S
H1533 C1544 0.950 . S
H1534 C1546 0.950 . S
H1535 C1547 0.950 . S
C1536 H1528 0.950 . S
C1536 C1537 1.386 . S
C1536 C1538 1.391 . S
C1537 C1536 1.386 . S
C1537 C1541 1.393 . S
C1538 H1530 0.950 . S
C1538 C1536 1.391 . S
C1538 C1539 1.400 . S
C1539 C1538 1.400 . S
C1539 C1540 1.398 . S
C1539 C1545 1.491 . S
C1540 H1531 0.950 . S
C1540 C1539 1.398 . S
C1540 C1541 1.391 . S
C1541 H1529 0.950 . S
C1541 C1537 1.393 . S
C1541 C1540 1.391 . S
C1542 H1532 0.950 . S
C1542 C1543 1.386 . S
C1542 C1544 1.391 . S
C1543 C1542 1.386 . S
C1543 C1547 1.393 . S
C1544 H1533 0.950 . S
C1544 C1542 1.391 . S
C1544 C1545 1.400 . S
C1545 C1539 1.491 . S
C1545 C1544 1.400 . S
C1545 C1546 1.398 . S
C1546 H1534 0.950 . S
C1546 C1545 1.398 . S
C1546 C1547 1.391 . S
C1547 H1535 0.950 . S
C1547 C1543 1.393 . S
C1547 C1546 1.391 . S
H1548 C1556 0.950 . S
H1549 C1561 0.950 . S
H1550 C1558 0.950 . S
H1551 C1560 0.950 . S
H1552 C1562 0.950 . S
H1553 C1564 0.950 . S
H1554 C1566 0.950 . S
H1555 C1567 0.950 . S
C1556 H1548 0.950 . S
C1556 C1557 1.386 . S
C1556 C1558 1.391 . S
C1557 C1556 1.386 . S
C1557 C1561 1.393 . S
C1558 H1550 0.950 . S
C1558 C1556 1.391 . S
C1558 C1559 1.400 . S
C1559 C1558 1.400 . S
C1559 C1560 1.398 . S
C1559 C1565 1.491 . S
C1560 H1551 0.950 . S
C1560 C1559 1.398 . S
C1560 C1561 1.391 . S
C1561 H1549 0.950 . S
C1561 C1557 1.393 . S
C1561 C1560 1.391 . S
C1562 H1552 0.950 . S
C1562 C1563 1.386 . S
C1562 C1564 1.391 . S
C1563 C1562 1.386 . S
C1563 C1567 1.393 . S
C1564 H1553 0.950 . S
C1564 C1562 1.391 . S
C1564 C1565 1.400 . S
C1565 C1559 1.491 . S
C1565 C1564 1.400 . S
C1565 C1566 1.398 . S
C1566 H1554 0.950 . S
C1566 C1565 1.398 . S
C1566 C1567 1.391 . S
C1567 H1555 0.950 . S
C1567 C1563 1.393 . S
C1567 C1566 1.391 . S
H1568 C1576 0.950 1_455 S
H1569 C1581 0.950 . S
H1570 C1578 0.950 . S
H1571 C1580 0.950 . S
H1572 C1582 0.950 . S
H1573 C1584 0.950 . S
H1574 C1586 0.950 . S
H1575 C1587 0.950 . S
C1576 H1568 0.950 1_655 S
C1576 C1577 1.386 . S
C1576 C1578 1.391 . S
C1577 C1576 1.386 . S
C1577 C1581 1.393 . S
C1578 H1570 0.950 . S
C1578 C1576 1.391 . S
C1578 C1579 1.400 . S
C1579 C1578 1.400 . S
C1579 C1580 1.398 . S
C1579 C1585 1.491 . S
C1580 H1571 0.950 . S
C1580 C1579 1.398 . S
C1580 C1581 1.391 . S
C1581 H1569 0.950 . S
C1581 C1577 1.393 . S
C1581 C1580 1.391 . S
C1582 H1572 0.950 . S
C1582 C1583 1.386 . S
C1582 C1584 1.391 . S
C1583 C1582 1.386 . S
C1583 C1587 1.393 . S
C1584 H1573 0.950 . S
C1584 C1582 1.391 . S
C1584 C1585 1.400 . S
C1585 C1579 1.491 . S
C1585 C1584 1.400 . S
C1585 C1586 1.398 . S
C1586 H1574 0.950 . S
C1586 C1585 1.398 . S
C1586 C1587 1.391 . S
C1587 H1575 0.950 . S
C1587 C1583 1.393 . S
C1587 C1586 1.391 . S
H1588 C1596 0.950 . S
H1589 C1601 0.950 . S
H1590 C1598 0.950 . S
H1591 C1600 0.950 . S
H1592 C1602 0.950 . S
H1593 C1604 0.950 . S
H1594 C1606 0.950 . S
H1595 C1607 0.950 . S
C1596 H1588 0.950 . S
C1596 C1597 1.386 . S
C1596 C1598 1.391 . S
C1597 C1596 1.386 . S
C1597 C1601 1.393 . S
C1598 H1590 0.950 . S
C1598 C1596 1.391 . S
C1598 C1599 1.400 . S
C1599 C1598 1.400 . S
C1599 C1600 1.398 . S
C1599 C1605 1.491 . S
C1600 H1591 0.950 . S
C1600 C1599 1.398 . S
C1600 C1601 1.391 . S
C1601 H1589 0.950 . S
C1601 C1597 1.393 . S
C1601 C1600 1.391 . S
C1602 H1592 0.950 . S
C1602 C1603 1.386 . S
C1602 C1604 1.391 . S
C1603 C1602 1.386 . S
C1603 C1607 1.393 . S
C1604 H1593 0.950 . S
C1604 C1602 1.391 . S
C1604 C1605 1.400 . S
C1605 C1599 1.491 . S
C1605 C1604 1.400 . S
C1605 C1606 1.398 . S
C1606 H1594 0.950 . S
C1606 C1605 1.398 . S
C1606 C1607 1.391 . S
C1607 H1595 0.950 . S
C1607 C1603 1.393 . S
C1607 C1606 1.391 . S
H1608 C1616 0.950 . S
H1609 C1621 0.950 . S
H1610 C1618 0.950 . S
H1611 C1620 0.950 . S
H1612 C1622 0.950 . S
H1613 C1624 0.950 . S
H1614 C1626 0.950 . S
H1615 C1627 0.950 . S
C1616 H1608 0.950 . S
C1616 C1617 1.386 . S
C1616 C1618 1.391 . S
C1617 C1616 1.386 . S
C1617 C1621 1.393 . S
C1618 H1610 0.950 . S
C1618 C1616 1.391 . S
C1618 C1619 1.400 . S
C1619 C1618 1.400 . S
C1619 C1620 1.398 . S
C1619 C1625 1.491 . S
C1620 H1611 0.950 . S
C1620 C1619 1.398 . S
C1620 C1621 1.391 . S
C1621 H1609 0.950 . S
C1621 C1617 1.393 . S
C1621 C1620 1.391 . S
C1622 H1612 0.950 . S
C1622 C1623 1.386 . S
C1622 C1624 1.391 . S
C1623 C1622 1.386 . S
C1623 C1627 1.393 . S
C1624 H1613 0.950 . S
C1624 C1622 1.391 . S
C1624 C1625 1.400 . S
C1625 C1619 1.491 . S
C1625 C1624 1.400 . S
C1625 C1626 1.398 . S
C1626 H1614 0.950 . S
C1626 C1625 1.398 . S
C1626 C1627 1.391 . S
C1627 H1615 0.950 . S
C1627 C1623 1.393 . S
C1627 C1626 1.391 . S
H1628 C1636 0.950 . S
H1629 C1641 0.950 . S
H1630 C1638 0.950 . S
H1631 C1640 0.950 . S
H1632 C1642 0.950 . S
H1633 C1644 0.950 . S
H1634 C1646 0.950 . S
H1635 C1647 0.950 . S
C1636 H1628 0.950 . S
C1636 C1637 1.386 . S
C1636 C1638 1.391 . S
C1637 C1636 1.386 . S
C1637 C1641 1.393 . S
C1638 H1630 0.950 . S
C1638 C1636 1.391 . S
C1638 C1639 1.400 . S
C1639 C1638 1.400 . S
C1639 C1640 1.398 . S
C1639 C1645 1.491 . S
C1640 H1631 0.950 . S
C1640 C1639 1.398 . S
C1640 C1641 1.391 . S
C1641 H1629 0.950 . S
C1641 C1637 1.393 . S
C1641 C1640 1.391 . S
C1642 H1632 0.950 . S
C1642 C1643 1.386 . S
C1642 C1644 1.391 . S
C1643 C1642 1.386 . S
C1643 C1647 1.393 . S
C1644 H1633 0.950 . S
C1644 C1642 1.391 . S
C1644 C1645 1.400 . S
C1645 C1639 1.491 . S
C1645 C1644 1.400 . S
C1645 C1646 1.398 . S
C1646 H1634 0.950 . S
C1646 C1645 1.398 . S
C1646 C1647 1.391 . S
C1647 H1635 0.950 . S
C1647 C1643 1.393 . S
C1647 C1646 1.391 . S
H1648 C1656 0.950 . S
H1649 C1661 0.950 . S
H1650 C1658 0.950 . S
H1651 C1660 0.950 . S
H1652 C1662 0.950 . S
H1653 C1664 0.950 . S
H1654 C1666 0.950 . S
H1655 C1667 0.950 . S
C1656 H1648 0.950 . S
C1656 C1657 1.386 . S
C1656 C1658 1.391 . S
C1657 C1656 1.386 . S
C1657 C1661 1.393 . S
C1658 H1650 0.950 . S
C1658 C1656 1.391 . S
C1658 C1659 1.400 . S
C1659 C1658 1.400 . S
C1659 C1660 1.398 . S
C1659 C1665 1.491 . S
C1660 H1651 0.950 . S
C1660 C1659 1.398 . S
C1660 C1661 1.391 . S
C1661 H1649 0.950 . S
C1661 C1657 1.393 . S
C1661 C1660 1.391 . S
C1662 H1652 0.950 . S
C1662 C1663 1.386 . S
C1662 C1664 1.391 . S
C1663 C1662 1.386 . S
C1663 C1667 1.393 . S
C1664 H1653 0.950 . S
C1664 C1662 1.391 . S
C1664 C1665 1.400 . S
C1665 C1659 1.491 . S
C1665 C1664 1.400 . S
C1665 C1666 1.398 . S
C1666 H1654 0.950 . S
C1666 C1665 1.398 . S
C1666 C1667 1.391 . S
C1667 H1655 0.950 . S
C1667 C1663 1.393 . S
C1667 C1666 1.391 . S
H1668 C1676 0.950 . S
H1669 C1681 0.950 . S
H1670 C1678 0.950 . S
H1671 C1680 0.950 . S
H1672 C1682 0.950 . S
H1673 C1684 0.950 . S
H1674 C1686 0.950 . S
H1675 C1687 0.950 . S
C1676 H1668 0.950 . S
C1676 C1677 1.386 . S
C1676 C1678 1.391 . S
C1677 C1676 1.386 . S
C1677 C1681 1.393 . S
C1678 H1670 0.950 . S
C1678 C1676 1.391 . S
C1678 C1679 1.400 . S
C1679 C1678 1.400 . S
C1679 C1680 1.398 . S
C1679 C1685 1.491 . S
C1680 H1671 0.950 . S
C1680 C1679 1.398 . S
C1680 C1681 1.391 . S
C1681 H1669 0.950 . S
C1681 C1677 1.393 . S
C1681 C1680 1.391 . S
C1682 H1672 0.950 . S
C1682 C1683 1.386 . S
C1682 C1684 1.391 . S
C1683 C1682 1.386 . S
C1683 C1687 1.393 . S
C1684 H1673 0.950 . S
C1684 C1682 1.391 . S
C1684 C1685 1.400 . S
C1685 C1679 1.491 . S
C1685 C1684 1.400 . S
C1685 C1686 1.398 . S
C1686 H1674 0.950 . S
C1686 C1685 1.398 . S
C1686 C1687 1.391 . S
C1687 H1675 0.950 . S
C1687 C1683 1.393 . S
C1687 C1686 1.391 . S
H1688 C1696 0.950 . S
H1689 C1701 0.950 . S
H1690 C1698 0.950 . S
H1691 C1700 0.950 . S
H1692 C1702 0.950 . S
H1693 C1704 0.950 . S
H1694 C1706 0.950 . S
H1695 C1707 0.950 . S
C1696 H1688 0.950 . S
C1696 C1697 1.386 . S
C1696 C1698 1.391 . S
C1697 C1696 1.386 . S
C1697 C1701 1.393 . S
C1698 H1690 0.950 . S
C1698 C1696 1.391 . S
C1698 C1699 1.400 . S
C1699 C1698 1.400 . S
C1699 C1700 1.398 . S
C1699 C1705 1.491 . S
C1700 H1691 0.950 . S
C1700 C1699 1.398 . S
C1700 C1701 1.391 . S
C1701 H1689 0.950 . S
C1701 C1697 1.393 . S
C1701 C1700 1.391 . S
C1702 H1692 0.950 . S
C1702 C1703 1.386 . S
C1702 C1704 1.391 . S
C1703 C1702 1.386 . S
C1703 C1707 1.393 . S
C1704 H1693 0.950 . S
C1704 C1702 1.391 . S
C1704 C1705 1.400 . S
C1705 C1699 1.491 . S
C1705 C1704 1.400 . S
C1705 C1706 1.398 . S
C1706 H1694 0.950 . S
C1706 C1705 1.398 . S
C1706 C1707 1.391 . S
C1707 H1695 0.950 . S
C1707 C1703 1.393 . S
C1707 C1706 1.391 . S
H1708 C1716 0.950 . S
H1709 C1721 0.950 . S
H1710 C1718 0.950 . S
H1711 C1720 0.950 . S
H1712 C1722 0.950 . S
H1713 C1724 0.950 . S
H1714 C1726 0.950 . S
H1715 C1727 0.950 . S
C1716 H1708 0.950 . S
C1716 C1717 1.386 . S
C1716 C1718 1.391 . S
C1717 C1716 1.386 . S
C1717 C1721 1.393 . S
C1718 H1710 0.950 . S
C1718 C1716 1.391 . S
C1718 C1719 1.400 . S
C1719 C1718 1.400 . S
C1719 C1720 1.398 . S
C1719 C1725 1.491 . S
C1720 H1711 0.950 . S
C1720 C1719 1.398 . S
C1720 C1721 1.391 . S
C1721 H1709 0.950 . S
C1721 C1717 1.393 . S
C1721 C1720 1.391 . S
C1722 H1712 0.950 . S
C1722 C1723 1.386 . S
C1722 C1724 1.391 . S
C1723 C1722 1.386 . S
C1723 C1727 1.393 . S
C1724 H1713 0.950 . S
C1724 C1722 1.391 . S
C1724 C1725 1.400 . S
C1725 C1719 1.491 . S
C1725 C1724 1.400 . S
C1725 C1726 1.398 . S
C1726 H1714 0.950 . S
C1726 C1725 1.398 . S
C1726 C1727 1.391 . S
C1727 H1715 0.950 . S
C1727 C1723 1.393 . S
C1727 C1726 1.391 . S
C457 C46 0.732 . S
C463 C4 0.698 . S
C477 C32 0.727 . S
C483 C18 0.711 . S
C497 C102 0.713 . S
C503 C60 0.692 . S
C517 C88 0.720 . S
C523 C74 0.719 . S
C537 C116 0.731 . S
C543 C158 0.700 . S
C557 C130 0.697 . S
C563 C144 0.705 . S
C577 C214 0.716 . S
C583 C172 0.723 . S
C597 C186 0.730 . S
C603 C200 0.692 . S
C617 C228 0.730 . S
C623 C270 0.692 . S
C637 C242 0.703 . S
C643 C256 0.731 . S
C657 C326 0.706 . S
C663 C284 0.730 . S
C677 C312 0.705 . S
C683 C298 0.697 . S
C697 C382 0.724 . S
C703 C340 0.689 . S
C717 C354 0.715 . S
C723 C368 0.724 . S
C737 C396 0.730 . S
C743 C438 0.692 . S
C757 C410 0.699 . S
C763 C424 0.703 . S
C777 C285 1.323 . S
C783 C5 1.323 . S
C797 C187 1.315 . S
C803 C19 1.315 . S
C817 C33 1.300 . S
C823 C425 1.300 . S
C837 C47 1.322 . S
C843 C103 1.322 . S
C857 C229 1.324 . S
C863 C61 1.324 . S
C877 C131 1.318 . S
C883 C75 1.318 . S
C897 C369 1.311 . S
C903 C89 1.311 . S
C917 C117 1.316 . S
C923 C397 1.316 . S
C937 C313 1.300 . S
C943 C145 1.300 . S
C957 C215 1.317 . S
C963 C159 1.317 . S
C977 C341 1.324 . S
C983 C173 1.324 . S
C997 C201 1.299 . S
C1003 C257 1.299 . S
C1017 C411 1.323 . S
C1023 C243 1.323 . S
C1037 C271 1.315 . S
C1043 C327 1.315 . S
C1057 C355 1.307 . S
C1063 C299 1.307 . S
C1077 C439 1.320 . S
C1083 C383 1.320 . S
C1097 C26 1.301 . S
C1103 C12 1.293 . S
C1117 C40 1.295 . S
C1123 C54 1.301 . S
C1137 C68 1.301 . S
C1143 C82 1.295 . S
C1157 C110 1.294 . S
C1163 C96 1.301 . S
C1177 C124 1.281 . S
C1183 C138 1.280 . S
C1197 C152 1.299 . S
C1203 C166 1.291 . S
C1217 C194 1.296 . S
C1223 C180 1.287 . S
C1237 C208 1.280 . S
C1243 C222 1.280 . S
C1257 C236 1.294 . S
C1263 C250 1.301 . S
C1277 C264 1.280 . S
C1283 C278 1.281 . S
C1297 C292 1.280 . S
C1303 C306 1.286 . S
C1317 C334 1.297 . S
C1323 C320 1.289 . S
C1337 C362 1.289 . S
C1343 C348 1.298 . S
C1357 C376 1.280 . S
C1363 C390 1.288 . S
C1377 C404 1.295 . S
C1383 C418 1.301 . S
C1397 C446 1.279 . S
C1403 C432 1.283 . S
C1417 C11 1.470 1_655 S
C1423 C277 1.449 . S
C1437 C25 1.452 . S
C1443 C263 1.466 . S
C1457 C249 1.451 . S
C1463 C39 1.467 1_655 S
C1477 C53 1.458 . S
C1483 C235 1.463 . S
C1497 C333 1.451 . S
C1503 C67 1.468 1_455 S
C1517 C81 1.456 . S
C1523 C319 1.465 . S
C1537 C305 1.455 . S
C1543 C95 1.466 1_455 S
C1557 C109 1.468 . S
C1563 C291 1.450 . S
C1577 C123 1.450 1_655 S
C1583 C389 1.469 . S
C1597 C137 1.467 . S
C1603 C375 1.454 . S
C1617 C151 1.456 1_655 S
C1623 C361 1.462 . S
C1637 C347 1.458 . S
C1643 C165 1.463 . S
C1657 C179 1.467 1_455 S
C1663 C445 1.451 . S
C1677 C193 1.454 . S
C1683 C431 1.466 . S
C1697 C207 1.454 1_455 S
C1703 C417 1.464 . S
C1717 C403 1.452 . S
C1723 C221 1.468 . S
