# Generated by pormake.
# Topology etf, (3)-cn, num edge types: 1
# Building blocks:
#     Node 0, Type 0, BuildingBlock: WUSLED_clean_sbu_0, # of connection points: 3
#     Node 1, Type 0, BuildingBlock: WUSLED_clean_sbu_0, # of connection points: 3
#     Node 2, Type 0, BuildingBlock: WUSLED_clean_sbu_0, # of connection points: 3
#     Node 3, Type 0, BuildingBlock: WUSLED_clean_sbu_0, # of connection points: 3
#     Node 4, Type 0, BuildingBlock: WUSLED_clean_sbu_0, # of connection points: 3
#     Node 5, Type 0, BuildingBlock: WUSLED_clean_sbu_0, # of connection points: 3
#     Node 6, Type 0, BuildingBlock: WUSLED_clean_sbu_0, # of connection points: 3
#     Node 7, Type 0, BuildingBlock: WUSLED_clean_sbu_0, # of connection points: 3
#     Node 8, Type 0, BuildingBlock: WUSLED_clean_sbu_0, # of connection points: 3
#     Node 9, Type 0, BuildingBlock: WUSLED_clean_sbu_0, # of connection points: 3
#     Node 10, Type 0, BuildingBlock: WUSLED_clean_sbu_0, # of connection points: 3
#     Node 11, Type 0, BuildingBlock: WUSLED_clean_sbu_0, # of connection points: 3
#     Node 12, Type 0, BuildingBlock: WUSLED_clean_sbu_0, # of connection points: 3
#     Node 13, Type 0, BuildingBlock: WUSLED_clean_sbu_0, # of connection points: 3
#     Node 14, Type 0, BuildingBlock: WUSLED_clean_sbu_0, # of connection points: 3
#     Node 15, Type 0, BuildingBlock: WUSLED_clean_sbu_0, # of connection points: 3
#     Node 16, Type 0, BuildingBlock: WUSLED_clean_sbu_0, # of connection points: 3
#     Node 17, Type 0, BuildingBlock: WUSLED_clean_sbu_0, # of connection points: 3
#     Node 18, Type 0, BuildingBlock: WUSLED_clean_sbu_0, # of connection points: 3
#     Node 19, Type 0, BuildingBlock: WUSLED_clean_sbu_0, # of connection points: 3
#     Node 20, Type 0, BuildingBlock: WUSLED_clean_sbu_0, # of connection points: 3
#     Node 21, Type 0, BuildingBlock: WUSLED_clean_sbu_0, # of connection points: 3
#     Node 22, Type 0, BuildingBlock: WUSLED_clean_sbu_0, # of connection points: 3
#     Node 23, Type 0, BuildingBlock: WUSLED_clean_sbu_0, # of connection points: 3
#     Node 24, Type 0, BuildingBlock: WUSLED_clean_sbu_0, # of connection points: 3
#     Node 25, Type 0, BuildingBlock: WUSLED_clean_sbu_0, # of connection points: 3
#     Node 26, Type 0, BuildingBlock: WUSLED_clean_sbu_0, # of connection points: 3
#     Node 27, Type 0, BuildingBlock: WUSLED_clean_sbu_0, # of connection points: 3
#     Node 28, Type 0, BuildingBlock: WUSLED_clean_sbu_0, # of connection points: 3
#     Node 29, Type 0, BuildingBlock: WUSLED_clean_sbu_0, # of connection points: 3
#     Node 30, Type 0, BuildingBlock: WUSLED_clean_sbu_0, # of connection points: 3
#     Node 31, Type 0, BuildingBlock: WUSLED_clean_sbu_0, # of connection points: 3
#     Node 32, Type 0, BuildingBlock: WUSLED_clean_sbu_0, # of connection points: 3
#     Node 33, Type 0, BuildingBlock: WUSLED_clean_sbu_0, # of connection points: 3
#     Node 34, Type 0, BuildingBlock: WUSLED_clean_sbu_0, # of connection points: 3
#     Node 35, Type 0, BuildingBlock: WUSLED_clean_sbu_0, # of connection points: 3
#     Edge 36, Type (0, 0), BuildingBlock: MIFKUJ_clean_linker_0, # of connection points: 2
#     Edge 37, Type (0, 0), BuildingBlock: MIFKUJ_clean_linker_0, # of connection points: 2
#     Edge 38, Type (0, 0), BuildingBlock: MIFKUJ_clean_linker_0, # of connection points: 2
#     Edge 39, Type (0, 0), BuildingBlock: MIFKUJ_clean_linker_0, # of connection points: 2
#     Edge 40, Type (0, 0), BuildingBlock: MIFKUJ_clean_linker_0, # of connection points: 2
#     Edge 41, Type (0, 0), BuildingBlock: MIFKUJ_clean_linker_0, # of connection points: 2
#     Edge 42, Type (0, 0), BuildingBlock: MIFKUJ_clean_linker_0, # of connection points: 2
#     Edge 43, Type (0, 0), BuildingBlock: MIFKUJ_clean_linker_0, # of connection points: 2
#     Edge 44, Type (0, 0), BuildingBlock: MIFKUJ_clean_linker_0, # of connection points: 2
#     Edge 45, Type (0, 0), BuildingBlock: MIFKUJ_clean_linker_0, # of connection points: 2
#     Edge 46, Type (0, 0), BuildingBlock: MIFKUJ_clean_linker_0, # of connection points: 2
#     Edge 47, Type (0, 0), BuildingBlock: MIFKUJ_clean_linker_0, # of connection points: 2
#     Edge 48, Type (0, 0), BuildingBlock: MIFKUJ_clean_linker_0, # of connection points: 2
#     Edge 49, Type (0, 0), BuildingBlock: MIFKUJ_clean_linker_0, # of connection points: 2
#     Edge 50, Type (0, 0), BuildingBlock: MIFKUJ_clean_linker_0, # of connection points: 2
#     Edge 51, Type (0, 0), BuildingBlock: MIFKUJ_clean_linker_0, # of connection points: 2
#     Edge 52, Type (0, 0), BuildingBlock: MIFKUJ_clean_linker_0, # of connection points: 2
#     Edge 53, Type (0, 0), BuildingBlock: MIFKUJ_clean_linker_0, # of connection points: 2
#     Edge 54, Type (0, 0), BuildingBlock: MIFKUJ_clean_linker_0, # of connection points: 2
#     Edge 55, Type (0, 0), BuildingBlock: MIFKUJ_clean_linker_0, # of connection points: 2
#     Edge 56, Type (0, 0), BuildingBlock: MIFKUJ_clean_linker_0, # of connection points: 2
#     Edge 57, Type (0, 0), BuildingBlock: MIFKUJ_clean_linker_0, # of connection points: 2
#     Edge 58, Type (0, 0), BuildingBlock: MIFKUJ_clean_linker_0, # of connection points: 2
#     Edge 59, Type (0, 0), BuildingBlock: MIFKUJ_clean_linker_0, # of connection points: 2
#     Edge 60, Type (0, 0), BuildingBlock: MIFKUJ_clean_linker_0, # of connection points: 2
#     Edge 61, Type (0, 0), BuildingBlock: MIFKUJ_clean_linker_0, # of connection points: 2
#     Edge 62, Type (0, 0), BuildingBlock: MIFKUJ_clean_linker_0, # of connection points: 2
#     Edge 63, Type (0, 0), BuildingBlock: MIFKUJ_clean_linker_0, # of connection points: 2
#     Edge 64, Type (0, 0), BuildingBlock: MIFKUJ_clean_linker_0, # of connection points: 2
#     Edge 65, Type (0, 0), BuildingBlock: MIFKUJ_clean_linker_0, # of connection points: 2
#     Edge 66, Type (0, 0), BuildingBlock: MIFKUJ_clean_linker_0, # of connection points: 2
#     Edge 67, Type (0, 0), BuildingBlock: MIFKUJ_clean_linker_0, # of connection points: 2
#     Edge 68, Type (0, 0), BuildingBlock: MIFKUJ_clean_linker_0, # of connection points: 2
#     Edge 69, Type (0, 0), BuildingBlock: MIFKUJ_clean_linker_0, # of connection points: 2
#     Edge 70, Type (0, 0), BuildingBlock: MIFKUJ_clean_linker_0, # of connection points: 2
#     Edge 71, Type (0, 0), BuildingBlock: MIFKUJ_clean_linker_0, # of connection points: 2
#     Edge 72, Type (0, 0), BuildingBlock: MIFKUJ_clean_linker_0, # of connection points: 2
#     Edge 73, Type (0, 0), BuildingBlock: MIFKUJ_clean_linker_0, # of connection points: 2
#     Edge 74, Type (0, 0), BuildingBlock: MIFKUJ_clean_linker_0, # of connection points: 2
#     Edge 75, Type (0, 0), BuildingBlock: MIFKUJ_clean_linker_0, # of connection points: 2
#     Edge 76, Type (0, 0), BuildingBlock: MIFKUJ_clean_linker_0, # of connection points: 2
#     Edge 77, Type (0, 0), BuildingBlock: MIFKUJ_clean_linker_0, # of connection points: 2
#     Edge 78, Type (0, 0), BuildingBlock: MIFKUJ_clean_linker_0, # of connection points: 2
#     Edge 79, Type (0, 0), BuildingBlock: MIFKUJ_clean_linker_0, # of connection points: 2
#     Edge 80, Type (0, 0), BuildingBlock: MIFKUJ_clean_linker_0, # of connection points: 2
#     Edge 81, Type (0, 0), BuildingBlock: MIFKUJ_clean_linker_0, # of connection points: 2
#     Edge 82, Type (0, 0), BuildingBlock: MIFKUJ_clean_linker_0, # of connection points: 2
#     Edge 83, Type (0, 0), BuildingBlock: MIFKUJ_clean_linker_0, # of connection points: 2
#     Edge 84, Type (0, 0), BuildingBlock: MIFKUJ_clean_linker_0, # of connection points: 2
#     Edge 85, Type (0, 0), BuildingBlock: MIFKUJ_clean_linker_0, # of connection points: 2
#     Edge 86, Type (0, 0), BuildingBlock: MIFKUJ_clean_linker_0, # of connection points: 2
#     Edge 87, Type (0, 0), BuildingBlock: MIFKUJ_clean_linker_0, # of connection points: 2
#     Edge 88, Type (0, 0), BuildingBlock: MIFKUJ_clean_linker_0, # of connection points: 2
#     Edge 89, Type (0, 0), BuildingBlock: MIFKUJ_clean_linker_0, # of connection points: 2
# Relax obj value: 0.003
# Max RMSD: 0.005
# Mean RMSD: 0.005
data_MOF--net-etf--node1-WUSLED_clean_sbu_0--edge1-MIFKUJ_clean_linker_0
_symmetry_space_group_name_H-M    P1
_symmetry_Int_Tables_number       1
_symmetry_cell_setting            triclinic
loop_
_symmetry_equiv_pos_as_xyz
'x, y, z'
_cell_length_a     161.60872
_cell_length_b     161.62323
_cell_length_c     91.655236
_cell_angle_alpha  89.902106
_cell_angle_beta   90.0523
_cell_angle_gamma 120.03609
loop_
_atom_site_label
_atom_site_type_symbol
_atom_site_fract_x
_atom_site_fract_y
_atom_site_fract_z
_atom_type_partial_charge
C0 C 0.08148 0.30035 0.25916 0.0
C1 C 0.07639 0.30045 0.24679 0.0
C2 C 0.06124 0.28994 0.25901 0.0
C3 C 0.06637 0.29531 0.24672 0.0
C4 C 0.06641 0.28983 0.27132 0.0
C5 C 0.07642 0.29499 0.27138 0.0
U6 U 0.10545 0.31535 0.24001 0.0
O7 O 0.11842 0.32846 0.24709 0.0
O8 O 0.11909 0.3155 0.24241 0.0
C9 C 0.12366 0.32434 0.24727 0.0
C10 C 0.09202 0.30587 0.25949 0.0
C11 C 0.12975 0.32616 0.26028 0.0
C12 C 0.13249 0.32229 0.28488 0.0
C13 C 0.12641 0.32045 0.27287 0.0
C14 C 0.14528 0.3356 0.2719 0.0
C15 C 0.14203 0.3299 0.28455 0.0
C16 C 0.13921 0.33375 0.25994 0.0
C17 C 0.10384 0.31954 0.19832 0.0
C18 C 0.11578 0.32434 0.17909 0.0
C19 C 0.10078 0.32378 0.17426 0.0
C20 C 0.09789 0.32087 0.18862 0.0
C21 C 0.1097 0.32542 0.16921 0.0
C22 C 0.11287 0.3214 0.19354 0.0
C23 C 0.10011 0.31573 0.213 0.0
O24 O 0.09637 0.30211 0.25232 0.0
O25 O 0.09588 0.31511 0.25726 0.0
O26 O 0.10098 0.32196 0.22297 0.0
O27 O 0.10172 0.30905 0.21805 0.0
H28 H 0.08018 0.30451 0.23721 0.0
H29 H 0.06265 0.29547 0.23699 0.0
H30 H 0.06271 0.28589 0.28103 0.0
H31 H 0.08022 0.29485 0.28104 0.0
H32 H 0.1297 0.31781 0.29447 0.0
H33 H 0.11911 0.31458 0.27339 0.0
H34 H 0.15259 0.34141 0.27111 0.0
H35 H 0.14195 0.33822 0.25031 0.0
H36 H 0.12268 0.32551 0.17556 0.0
H37 H 0.09598 0.32471 0.16707 0.0
H38 H 0.09091 0.3195 0.1921 0.0
H39 H 0.11757 0.32041 0.20085 0.0
C40 C 0.71486 0.78419 0.25909 0.0
C41 C 0.71488 0.77918 0.2466 0.0
C42 C 0.72482 0.77392 0.25906 0.0
C43 C 0.7198 0.77409 0.24659 0.0
C44 C 0.72479 0.779 0.27151 0.0
C45 C 0.71986 0.78407 0.27152 0.0
U46 U 0.70098 0.79437 0.23964 0.0
O47 O 0.6883 0.79507 0.24646 0.0
O48 O 0.70176 0.80833 0.24206 0.0
C49 C 0.69294 0.80447 0.24693 0.0
C50 C 0.70971 0.78958 0.2593 0.0
C51 C 0.69146 0.80896 0.26003 0.0
C52 C 0.68687 0.8085 0.2855 0.0
C53 C 0.68879 0.80426 0.27359 0.0
C54 C 0.69047 0.82227 0.27058 0.0
C55 C 0.68763 0.81754 0.28413 0.0
C56 C 0.69234 0.81801 0.2587 0.0
C57 C 0.69743 0.78906 0.19769 0.0
C58 C 0.68752 0.79164 0.18031 0.0
C59 C 0.6977 0.78559 0.17197 0.0
C60 C 0.70092 0.78596 0.18622 0.0
C61 C 0.69088 0.78831 0.16881 0.0
C62 C 0.69075 0.79198 0.19467 0.0
C63 C 0.70074 0.78881 0.21259 0.0
O64 O 0.7139 0.79779 0.25231 0.0
O65 O 0.70047 0.78455 0.25676 0.0
O66 O 0.69415 0.78365 0.22228 0.0
O67 O 0.70762 0.7969 0.21787 0.0
H68 H 0.71106 0.77919 0.23689 0.0
H69 H 0.71956 0.77018 0.23686 0.0
H70 H 0.72869 0.77917 0.28123 0.0
H71 H 0.71998 0.78794 0.28124 0.0
H72 H 0.68483 0.8047 0.2958 0.0
H73 H 0.68809 0.79728 0.27496 0.0
H74 H 0.69102 0.82917 0.26903 0.0
H75 H 0.69433 0.82176 0.24834 0.0
H76 H 0.68224 0.79376 0.17826 0.0
H77 H 0.70058 0.78317 0.16338 0.0
H78 H 0.70611 0.78372 0.18831 0.0
H79 H 0.68796 0.7944 0.20341 0.0
C80 C 0.23064 0.93382 0.2592 0.0
C81 C 0.23628 0.93889 0.24716 0.0
C82 C 0.2405 0.95406 0.2589 0.0
C83 C 0.24119 0.9489 0.24703 0.0
C84 C 0.23476 0.94891 0.27088 0.0
C85 C 0.22989 0.9389 0.27102 0.0
U86 U 0.22162 0.90977 0.24031 0.0
O87 O 0.22162 0.89678 0.24763 0.0
O88 O 0.20805 0.89618 0.24264 0.0
C89 C 0.21224 0.89155 0.24759 0.0
C90 C 0.22555 0.92327 0.25961 0.0
C91 C 0.20784 0.88537 0.26046 0.0
C92 C 0.20286 0.88291 0.28594 0.0
C93 C 0.2071 0.88905 0.27396 0.0
C94 C 0.20009 0.86941 0.27103 0.0
C95 C 0.19932 0.873 0.28464 0.0
C96 C 0.2043 0.87553 0.25912 0.0
C97 C 0.22757 0.91108 0.19876 0.0
C98 C 0.21971 0.90002 0.17864 0.0
C99 C 0.23579 0.91332 0.17562 0.0
C100 C 0.23569 0.91616 0.18998 0.0
C101 C 0.22776 0.90531 0.16966 0.0
C102 C 0.21961 0.90288 0.19307 0.0
C103 C 0.22748 0.91496 0.21332 0.0
O104 O 0.21747 0.91893 0.25234 0.0
O105 O 0.2309 0.91936 0.2576 0.0
O106 O 0.23278 0.91414 0.22346 0.0
O107 O 0.21921 0.91348 0.21823 0.0
H108 H 0.23691 0.93509 0.23788 0.0
H109 H 0.24544 0.95262 0.23755 0.0
H110 H 0.23414 0.95262 0.28028 0.0
H111 H 0.22557 0.93512 0.28041 0.0
H112 H 0.20248 0.88595 0.29627 0.0
H113 H 0.20982 0.89664 0.27524 0.0
H114 H 0.19731 0.86183 0.26949 0.0
H115 H 0.20476 0.87254 0.24878 0.0
H116 H 0.21339 0.89384 0.17439 0.0
H117 H 0.24218 0.91747 0.16914 0.0
H118 H 0.24191 0.92249 0.19414 0.0
H119 H 0.21325 0.89883 0.19963 0.0
C120 C 0.30322 0.07783 0.26181 0.0
C121 C 0.29791 0.07278 0.27413 0.0
C122 C 0.29317 0.05758 0.26209 0.0
C123 C 0.2929 0.06275 0.27424 0.0
C124 C 0.2986 0.06268 0.24985 0.0
C125 C 0.30355 0.07269 0.24972 0.0
U126 U 0.31787 0.10239 0.27991 0.0
O127 O 0.33033 0.11555 0.27179 0.0
O128 O 0.31714 0.11559 0.27729 0.0
C129 C 0.3258 0.1204 0.27178 0.0
C130 C 0.30841 0.0884 0.26127 0.0
C131 C 0.32697 0.12628 0.25869 0.0
C132 C 0.32961 0.12951 0.2326 0.0
C133 C 0.3279 0.12343 0.2446 0.0
C134 C 0.32931 0.14125 0.24858 0.0
C135 C 0.3304 0.13854 0.23444 0.0
C136 C 0.32762 0.1352 0.26052 0.0
C137 C 0.32361 0.10233 0.32137 0.0
C138 C 0.32461 0.1117 0.34283 0.0
C139 C 0.33271 0.10253 0.3427 0.0
C140 C 0.32941 0.09942 0.32853 0.0
C141 C 0.33026 0.10861 0.35013 0.0
C142 C 0.32132 0.1086 0.32859 0.0
C143 C 0.31939 0.09798 0.30707 0.0
O144 O 0.30453 0.09265 0.26843 0.0
O145 O 0.31772 0.09263 0.26298 0.0
O146 O 0.32539 0.09884 0.2967 0.0
O147 O 0.31219 0.09886 0.30228 0.0
H148 H 0.29761 0.07657 0.28367 0.0
H149 H 0.2889 0.05906 0.2839 0.0
H150 H 0.2989 0.05894 0.24026 0.0
H151 H 0.30759 0.07643 0.2401 0.0
H152 H 0.3303 0.12712 0.22187 0.0
H153 H 0.3274 0.11657 0.24288 0.0
H154 H 0.33 0.14818 0.2505 0.0
H155 H 0.32698 0.13758 0.2713 0.0
H156 H 0.32268 0.11647 0.34815 0.0
H157 H 0.33691 0.09987 0.34801 0.0
H158 H 0.33118 0.0945 0.3233 0.0
H159 H 0.31685 0.11097 0.32338 0.0
C160 C 0.93753 0.22903 0.2616 0.0
C161 C 0.94254 0.22929 0.2743 0.0
C162 C 0.95778 0.23928 0.26196 0.0
C163 C 0.95256 0.23433 0.27445 0.0
C164 C 0.95271 0.23907 0.24934 0.0
C165 C 0.9427 0.23398 0.24916 0.0
U166 U 0.91295 0.21899 0.27969 0.0
O167 O 0.8998 0.21832 0.2716 0.0
O168 O 0.89977 0.20505 0.2769 0.0
C169 C 0.89499 0.20892 0.2713 0.0
C170 C 0.92697 0.22362 0.26105 0.0
C171 C 0.88925 0.20431 0.25803 0.0
C172 C 0.88465 0.20496 0.23287 0.0
C173 C 0.89075 0.2093 0.24481 0.0
C174 C 0.87561 0.19049 0.24699 0.0
C175 C 0.87694 0.19551 0.23384 0.0
C176 C 0.88167 0.19484 0.25892 0.0
C177 C 0.91303 0.22468 0.32116 0.0
C178 C 0.90232 0.2163 0.34147 0.0
C179 C 0.9138 0.23319 0.34346 0.0
C180 C 0.91704 0.23313 0.32935 0.0
C181 C 0.90646 0.22477 0.3498 0.0
C182 C 0.90557 0.21626 0.32728 0.0
C183 C 0.91734 0.22483 0.30685 0.0
O184 O 0.92273 0.21547 0.2682 0.0
O185 O 0.92273 0.22869 0.2628 0.0
O186 O 0.91648 0.23 0.29653 0.0
O187 O 0.91639 0.21673 0.30205 0.0
H188 H 0.93871 0.22559 0.28408 0.0
H189 H 0.95623 0.23444 0.28441 0.0
H190 H 0.95648 0.2427 0.23949 0.0
H191 H 0.93898 0.23387 0.23926 0.0
H192 H 0.88597 0.209 0.22286 0.0
H193 H 0.89654 0.21661 0.24375 0.0
H194 H 0.8697 0.18326 0.24823 0.0
H195 H 0.88031 0.19086 0.26901 0.0
H196 H 0.89659 0.20971 0.34593 0.0
H197 H 0.91728 0.23981 0.34958 0.0
H198 H 0.92286 0.23969 0.32492 0.0
H199 H 0.90235 0.20962 0.32121 0.0
C200 C 0.78638 0.71166 0.26072 0.0
C201 C 0.78579 0.71618 0.27344 0.0
C202 C 0.77625 0.72179 0.26061 0.0
C203 C 0.78082 0.72122 0.27337 0.0
C204 C 0.77679 0.71715 0.24795 0.0
C205 C 0.78181 0.71216 0.24801 0.0
U206 U 0.79592 0.69715 0.28001 0.0
O207 O 0.79653 0.68448 0.27281 0.0
O208 O 0.80979 0.6977 0.27812 0.0
C209 C 0.80592 0.68894 0.27302 0.0
C210 C 0.79167 0.70639 0.26051 0.0
C211 C 0.81064 0.68754 0.26022 0.0
C212 C 0.81249 0.68661 0.23398 0.0
C213 C 0.80807 0.68833 0.24585 0.0
C214 C 0.82217 0.68341 0.2507 0.0
C215 C 0.81959 0.68409 0.23625 0.0
C216 C 0.81774 0.68511 0.26251 0.0
C217 C 0.78979 0.69251 0.32151 0.0
C218 C 0.79708 0.68781 0.34068 0.0
C219 C 0.78249 0.68807 0.34554 0.0
C220 C 0.78247 0.69102 0.33121 0.0
C221 C 0.78985 0.68656 0.35055 0.0
C222 C 0.79706 0.69079 0.32627 0.0
C223 C 0.7898 0.69632 0.30686 0.0
O224 O 0.79978 0.71032 0.26776 0.0
O225 O 0.78648 0.69711 0.26258 0.0
O226 O 0.78474 0.69005 0.29676 0.0
O227 O 0.79801 0.70329 0.30203 0.0
H228 H 0.78922 0.71585 0.28341 0.0
H229 H 0.78067 0.72478 0.28329 0.0
H230 H 0.77324 0.71727 0.23799 0.0
H231 H 0.78211 0.70867 0.23811 0.0
H232 H 0.8104 0.68731 0.22303 0.0
H233 H 0.80262 0.69023 0.24383 0.0
H234 H 0.82747 0.68136 0.25292 0.0
H235 H 0.8198 0.68442 0.2735 0.0
H236 H 0.80288 0.68674 0.34419 0.0
H237 H 0.77671 0.687 0.35272 0.0
H238 H 0.77678 0.69227 0.32774 0.0
H239 H 0.80279 0.69191 0.31895 0.0
C240 C 0.93694 0.7118 0.76258 0.0
C241 C 0.94198 0.71078 0.77428 0.0
C242 C 0.95719 0.72211 0.76293 0.0
C243 C 0.952 0.71586 0.77443 0.0
C244 C 0.95208 0.72317 0.75132 0.0
C245 C 0.94207 0.71806 0.75115 0.0
U246 U 0.91248 0.69735 0.78099 0.0
O247 O 0.8991 0.69751 0.77738 0.0
O248 O 0.8995 0.68431 0.77365 0.0
C249 C 0.89447 0.68864 0.77266 0.0
C250 C 0.92639 0.70637 0.76203 0.0
C251 C 0.88857 0.68671 0.75934 0.0
C252 C 0.88416 0.69191 0.73712 0.0
C253 C 0.89039 0.69384 0.74896 0.0
C254 C 0.87435 0.67566 0.74567 0.0
C255 C 0.87598 0.68282 0.73542 0.0
C256 C 0.88056 0.67759 0.75747 0.0
C257 C 0.9124 0.69357 0.82316 0.0
C258 C 0.90586 0.68103 0.8417 0.0
C259 C 0.90993 0.69714 0.84808 0.0
C260 C 0.91283 0.70008 0.8337 0.0
C261 C 0.9066 0.68762 0.85236 0.0
C262 C 0.90876 0.68397 0.82728 0.0
C263 C 0.91684 0.69716 0.80862 0.0
O264 O 0.92237 0.69716 0.76471 0.0
O265 O 0.92203 0.71037 0.7685 0.0
O266 O 0.91581 0.70402 0.80275 0.0
O267 O 0.91626 0.69085 0.79902 0.0
H268 H 0.93816 0.70603 0.78327 0.0
H269 H 0.95569 0.71495 0.78363 0.0
H270 H 0.95581 0.72782 0.7422 0.0
H271 H 0.93832 0.71895 0.74202 0.0
H272 H 0.88562 0.69763 0.72954 0.0
H273 H 0.89652 0.70095 0.75012 0.0
H274 H 0.86825 0.66853 0.7446 0.0
H275 H 0.879 0.67197 0.76531 0.0
H276 H 0.90343 0.67366 0.84461 0.0
H277 H 0.91046 0.70239 0.85593 0.0
H278 H 0.91569 0.70754 0.83094 0.0
H279 H 0.90843 0.67877 0.81952 0.0
C280 C 0.30331 0.2279 0.76154 0.0
C281 C 0.30169 0.23137 0.77462 0.0
C282 C 0.29316 0.23798 0.76145 0.0
C283 C 0.29666 0.23635 0.77459 0.0
C284 C 0.29481 0.23447 0.74838 0.0
C285 C 0.29983 0.22948 0.74844 0.0
U286 U 0.31688 0.21747 0.78124 0.0
O287 O 0.31646 0.20375 0.7782 0.0
O288 O 0.32992 0.21721 0.77496 0.0
C289 C 0.32545 0.20783 0.7741 0.0
C290 C 0.30859 0.22264 0.76138 0.0
C291 C 0.32751 0.20379 0.76108 0.0
C292 C 0.32447 0.19815 0.73593 0.0
C293 C 0.32249 0.20228 0.74793 0.0
C294 C 0.33657 0.19709 0.75007 0.0
C295 C 0.33154 0.19548 0.73685 0.0
C296 C 0.33457 0.20119 0.76201 0.0
C297 C 0.3195 0.22135 0.82337 0.0
C298 C 0.33057 0.2202 0.84017 0.0
C299 C 0.31749 0.22186 0.84959 0.0
C300 C 0.31448 0.22202 0.83534 0.0
C301 C 0.32561 0.221 0.85223 0.0
C302 C 0.32754 0.22036 0.82585 0.0
C303 C 0.31637 0.22217 0.80857 0.0
O304 O 0.31773 0.2277 0.76459 0.0
O305 O 0.3043 0.21425 0.76783 0.0
O306 O 0.30964 0.21426 0.80261 0.0
O307 O 0.3231 0.22772 0.79931 0.0
H308 H 0.30434 0.23023 0.78486 0.0
H309 H 0.29563 0.23904 0.78483 0.0
H310 H 0.29212 0.23546 0.73809 0.0
H311 H 0.30098 0.22684 0.73823 0.0
H312 H 0.32053 0.19712 0.7259 0.0
H313 H 0.31702 0.20425 0.74696 0.0
H314 H 0.34194 0.19501 0.75131 0.0
H315 H 0.3385 0.20225 0.77207 0.0
H316 H 0.3368 0.21943 0.84178 0.0
H317 H 0.31358 0.22267 0.85853 0.0
H318 H 0.3083 0.22285 0.83367 0.0
H319 H 0.33151 0.21981 0.81676 0.0
C320 C 0.78625 0.0774 0.76239 0.0
C321 C 0.786 0.07223 0.77488 0.0
C322 C 0.77591 0.05715 0.76221 0.0
C323 C 0.78091 0.0622 0.77477 0.0
C324 C 0.7761 0.06239 0.74981 0.0
C325 C 0.78123 0.07241 0.7499 0.0
U326 U 0.79726 0.10171 0.7815 0.0
O327 O 0.8113 0.1147 0.77846 0.0
O328 O 0.79815 0.11519 0.77454 0.0
C329 C 0.80755 0.11982 0.77393 0.0
C330 C 0.79176 0.08797 0.76211 0.0
C331 C 0.81199 0.12585 0.7609 0.0
C332 C 0.81295 0.12867 0.73466 0.0
C333 C 0.80871 0.12259 0.7467 0.0
C334 C 0.82381 0.14125 0.75088 0.0
C335 C 0.82055 0.13811 0.7366 0.0
C336 C 0.81958 0.1352 0.76285 0.0
C337 C 0.79337 0.10121 0.82357 0.0
C338 C 0.79309 0.11288 0.84006 0.0
C339 C 0.79445 0.09969 0.84983 0.0
C340 C 0.79425 0.09638 0.83567 0.0
C341 C 0.79378 0.10793 0.85225 0.0
C342 C 0.7929 0.10956 0.82585 0.0
C343 C 0.79236 0.09696 0.80894 0.0
O344 O 0.7869 0.09229 0.76497 0.0
O345 O 0.80015 0.09198 0.76858 0.0
O346 O 0.80013 0.09768 0.80314 0.0
O347 O 0.78699 0.09823 0.79944 0.0
H348 H 0.78975 0.07593 0.7847 0.0
H349 H 0.78082 0.05841 0.78457 0.0
H350 H 0.77243 0.05876 0.73991 0.0
H351 H 0.78134 0.07626 0.74015 0.0
H352 H 0.81031 0.12596 0.72383 0.0
H353 H 0.80288 0.11539 0.74493 0.0
H354 H 0.82952 0.14849 0.75287 0.0
H355 H 0.82218 0.13787 0.77372 0.0
H356 H 0.79267 0.1193 0.8415 0.0
H357 H 0.79484 0.09559 0.8589 0.0
H358 H 0.79455 0.08989 0.83419 0.0
H359 H 0.79224 0.11343 0.81668 0.0
C360 C 0.71496 0.9334 0.75812 0.0
C361 C 0.71474 0.93842 0.74574 0.0
C362 C 0.72511 0.95364 0.75785 0.0
C363 C 0.71974 0.94844 0.74562 0.0
C364 C 0.72531 0.94854 0.77019 0.0
C365 C 0.72028 0.93853 0.77031 0.0
U366 U 0.70085 0.90902 0.73939 0.0
O367 O 0.70167 0.89591 0.74236 0.0
O368 O 0.68826 0.89573 0.74688 0.0
C369 C 0.69287 0.89096 0.74729 0.0
C370 C 0.70974 0.92285 0.75851 0.0
C371 C 0.69144 0.88502 0.7604 0.0
C372 C 0.68933 0.88217 0.78662 0.0
C373 C 0.69114 0.88821 0.77454 0.0
C374 C 0.68825 0.86978 0.77059 0.0
C375 C 0.68783 0.87285 0.7848 0.0
C376 C 0.69003 0.87579 0.75857 0.0
C377 C 0.69671 0.90921 0.69733 0.0
C378 C 0.684 0.90196 0.67915 0.0
C379 C 0.70039 0.90768 0.67203 0.0
C380 C 0.70335 0.91051 0.68641 0.0
C381 C 0.6907 0.90353 0.66813 0.0
C382 C 0.68697 0.90479 0.69358 0.0
C383 C 0.70024 0.91354 0.71195 0.0
O384 O 0.70049 0.91865 0.75603 0.0
O385 O 0.71387 0.91873 0.75168 0.0
O386 O 0.70734 0.91279 0.71751 0.0
O387 O 0.69386 0.91255 0.72175 0.0
H388 H 0.7107 0.93458 0.73618 0.0
H389 H 0.71952 0.95212 0.73588 0.0
H390 H 0.72924 0.95228 0.77987 0.0
H391 H 0.72053 0.93479 0.77997 0.0
H392 H 0.68917 0.88483 0.79739 0.0
H393 H 0.69223 0.89532 0.77622 0.0
H394 H 0.68699 0.86263 0.76869 0.0
H395 H 0.69018 0.87317 0.74776 0.0
H396 H 0.67649 0.89887 0.67654 0.0
H397 H 0.70574 0.90887 0.6639 0.0
H398 H 0.71091 0.91398 0.6889 0.0
H399 H 0.68165 0.90378 0.70166 0.0
C400 C 0.08084 0.78303 0.75762 0.0
C401 C 0.07562 0.78356 0.74574 0.0
C402 C 0.06059 0.77268 0.75795 0.0
C403 C 0.0656 0.77847 0.74594 0.0
C404 C 0.06587 0.77207 0.76972 0.0
C405 C 0.07588 0.77722 0.76956 0.0
U406 U 0.10505 0.79402 0.73823 0.0
O407 O 0.11807 0.80806 0.74108 0.0
O408 O 0.11856 0.79491 0.74487 0.0
C409 C 0.12321 0.8043 0.74548 0.0
C410 C 0.09142 0.78854 0.75783 0.0
C411 C 0.1293 0.80872 0.75844 0.0
C412 C 0.13245 0.80934 0.78455 0.0
C413 C 0.12627 0.80518 0.77261 0.0
C414 C 0.14467 0.82071 0.7683 0.0
C415 C 0.14179 0.81712 0.78252 0.0
C416 C 0.13851 0.81656 0.75643 0.0
C417 C 0.10407 0.78999 0.69616 0.0
C418 C 0.11646 0.79135 0.67957 0.0
C419 C 0.10167 0.78948 0.66992 0.0
C420 C 0.0984 0.78924 0.68411 0.0
C421 C 0.11071 0.79048 0.66742 0.0
C422 C 0.11317 0.79112 0.69383 0.0
C423 C 0.10001 0.78906 0.71091 0.0
O424 O 0.09573 0.78367 0.75489 0.0
O425 O 0.09544 0.79695 0.75143 0.0
O426 O 0.10085 0.79687 0.71672 0.0
O427 O 0.10143 0.78374 0.72031 0.0
H428 H 0.07927 0.78793 0.73633 0.0
H429 H 0.06177 0.779 0.73662 0.0
H430 H 0.06226 0.76776 0.7792 0.0
H431 H 0.07976 0.7767 0.77884 0.0
H432 H 0.13 0.80633 0.79531 0.0
H433 H 0.11918 0.79914 0.77443 0.0
H434 H 0.15171 0.82679 0.76631 0.0
H435 H 0.14098 0.81944 0.7456 0.0
H436 H 0.1235 0.79222 0.67807 0.0
H437 H 0.09696 0.78861 0.6609 0.0
H438 H 0.09133 0.7883 0.68567 0.0
H439 H 0.11767 0.79172 0.703 0.0
C440 C 0.2303 0.29888 0.75904 0.0
C441 C 0.2324 0.2959 0.74586 0.0
C442 C 0.24047 0.28881 0.75907 0.0
C443 C 0.23741 0.2909 0.74587 0.0
C444 C 0.23839 0.29188 0.77222 0.0
C445 C 0.23335 0.29685 0.77219 0.0
U446 U 0.22084 0.31352 0.73989 0.0
O447 O 0.20698 0.31301 0.74192 0.0
O448 O 0.22029 0.32618 0.74728 0.0
C449 C 0.21089 0.32172 0.74721 0.0
C450 C 0.225 0.30413 0.75926 0.0
C451 C 0.20617 0.32307 0.76012 0.0
C452 C 0.20606 0.32712 0.78572 0.0
C453 C 0.21044 0.32519 0.77401 0.0
C454 C 0.19299 0.3246 0.76993 0.0
C455 C 0.19732 0.32696 0.7838 0.0
C456 C 0.19737 0.3227 0.75826 0.0
C457 C 0.22711 0.31857 0.69851 0.0
C458 C 0.22037 0.3243 0.67997 0.0
C459 C 0.23454 0.32336 0.67461 0.0
C460 C 0.2343 0.3199 0.68866 0.0
C461 C 0.22758 0.32561 0.67003 0.0
C462 C 0.22014 0.32082 0.69412 0.0
C463 C 0.22701 0.31455 0.71301 0.0
O464 O 0.2302 0.31341 0.75731 0.0
O465 O 0.21696 0.30024 0.75184 0.0
O466 O 0.21875 0.30759 0.71771 0.0
O467 O 0.23208 0.32069 0.72326 0.0
H468 H 0.23012 0.29742 0.73556 0.0
H469 H 0.23877 0.28856 0.73554 0.0
H470 H 0.24076 0.29056 0.78258 0.0
H471 H 0.23186 0.29914 0.78248 0.0
H472 H 0.20966 0.32898 0.79618 0.0
H473 H 0.21723 0.32553 0.77576 0.0
H474 H 0.18619 0.32421 0.76806 0.0
H475 H 0.19393 0.32106 0.74767 0.0
H476 H 0.21494 0.32604 0.67686 0.0
H477 H 0.2401 0.3241 0.66722 0.0
H478 H 0.23971 0.31814 0.6918 0.0
H479 H 0.21453 0.31986 0.70157 0.0
C480 C 0.74703 0.63314 0.59057 0.0
C481 C 0.742 0.63503 0.57979 0.0
C482 C 0.72678 0.62289 0.59015 0.0
C483 C 0.73198 0.62998 0.57962 0.0
C484 C 0.73188 0.62095 0.60079 0.0
C485 C 0.74189 0.62604 0.601 0.0
U486 U 0.7716 0.64759 0.57243 0.0
O487 O 0.78454 0.66065 0.57984 0.0
O488 O 0.78497 0.64745 0.57624 0.0
C489 C 0.78957 0.65633 0.58094 0.0
C490 C 0.75759 0.63856 0.59123 0.0
C491 C 0.79544 0.6583 0.5943 0.0
C492 C 0.79987 0.65315 0.61655 0.0
C493 C 0.79365 0.65118 0.60469 0.0
C494 C 0.80961 0.66941 0.60802 0.0
C495 C 0.80802 0.66227 0.61827 0.0
C496 C 0.80342 0.66744 0.59619 0.0
C497 C 0.7719 0.65143 0.53034 0.0
C498 C 0.78082 0.66451 0.51324 0.0
C499 C 0.77301 0.64817 0.50468 0.0
C500 C 0.76976 0.64493 0.51884 0.0
C501 C 0.77844 0.65801 0.50163 0.0
C502 C 0.77759 0.66126 0.52744 0.0
C503 C 0.76735 0.64777 0.54476 0.0
O504 O 0.76197 0.63455 0.58486 0.0
O505 O 0.76166 0.64779 0.58861 0.0
O506 O 0.76785 0.65405 0.55434 0.0
O507 O 0.76841 0.64093 0.55063 0.0
H508 H 0.74582 0.64043 0.57154 0.0
H509 H 0.7283 0.63157 0.57116 0.0
H510 H 0.72812 0.61562 0.60915 0.0
H511 H 0.74562 0.62447 0.60941 0.0
H512 H 0.79843 0.64744 0.62414 0.0
H513 H 0.78755 0.64406 0.60351 0.0
H514 H 0.81569 0.67656 0.60909 0.0
H515 H 0.80496 0.67305 0.58834 0.0
H516 H 0.78509 0.67213 0.51133 0.0
H517 H 0.77094 0.64296 0.49601 0.0
H518 H 0.7653 0.63732 0.52072 0.0
H519 H 0.77937 0.66647 0.53605 0.0
C520 C 0.37977 0.11557 0.59283 0.0
C521 C 0.38303 0.11386 0.5796 0.0
C522 C 0.38984 0.10541 0.59249 0.0
C523 C 0.38804 0.10885 0.57943 0.0
C524 C 0.38651 0.10712 0.60569 0.0
C525 C 0.38154 0.11216 0.60584 0.0
U526 U 0.36603 0.12621 0.57401 0.0
O527 O 0.35307 0.12643 0.58093 0.0
O528 O 0.3665 0.1399 0.57759 0.0
C529 C 0.35754 0.1358 0.58186 0.0
C530 C 0.37453 0.12087 0.59327 0.0
C531 C 0.35554 0.13983 0.59496 0.0
C532 C 0.35872 0.14554 0.62007 0.0
C533 C 0.36066 0.1414 0.60803 0.0
C534 C 0.34649 0.14648 0.60614 0.0
C535 C 0.35161 0.14815 0.61928 0.0
C536 C 0.34844 0.14237 0.59416 0.0
C537 C 0.3626 0.12269 0.53178 0.0
C538 C 0.35031 0.11669 0.51287 0.0
C539 C 0.36641 0.12909 0.50704 0.0
C540 C 0.36918 0.12901 0.52148 0.0
C541 C 0.35698 0.1228 0.50245 0.0
C542 C 0.35309 0.11661 0.52734 0.0
C543 C 0.36602 0.12171 0.54641 0.0
O544 O 0.37875 0.1293 0.5869 0.0
O545 O 0.36535 0.11584 0.59031 0.0
O546 O 0.35956 0.11602 0.5559 0.0
O547 O 0.37293 0.12952 0.55239 0.0
H548 H 0.38169 0.1164 0.56941 0.0
H549 H 0.3904 0.10757 0.56905 0.0
H550 H 0.38786 0.10469 0.61596 0.0
H551 H 0.37909 0.11341 0.61617 0.0
H552 H 0.36274 0.14662 0.63003 0.0
H553 H 0.36617 0.13947 0.60889 0.0
H554 H 0.34108 0.14853 0.60498 0.0
H555 H 0.34443 0.14127 0.58416 0.0
H556 H 0.34302 0.11166 0.50972 0.0
H557 H 0.37171 0.13399 0.49939 0.0
H558 H 0.37658 0.1337 0.52448 0.0
H559 H 0.34784 0.11155 0.53489 0.0
C560 C 0.89687 0.26673 0.59143 0.0
C561 C 0.9038 0.27179 0.58069 0.0
C562 C 0.90688 0.28698 0.59113 0.0
C563 C 0.90879 0.28182 0.58058 0.0
C564 C 0.89987 0.28185 0.60177 0.0
C565 C 0.89493 0.27184 0.60192 0.0
U566 U 0.88662 0.24234 0.57277 0.0
O567 O 0.88598 0.22907 0.58017 0.0
O568 O 0.8727 0.22919 0.57573 0.0
C569 C 0.87658 0.22425 0.58058 0.0
C570 C 0.89157 0.25617 0.59186 0.0
C571 C 0.87211 0.21826 0.59363 0.0
C572 C 0.87117 0.21546 0.61988 0.0
C573 C 0.87539 0.22153 0.60783 0.0
C574 C 0.8603 0.20287 0.60369 0.0
C575 C 0.86357 0.20602 0.61796 0.0
C576 C 0.86452 0.20891 0.5917 0.0
C577 C 0.89079 0.24265 0.53067 0.0
C578 C 0.89572 0.23489 0.5126 0.0
C579 C 0.88595 0.24163 0.50523 0.0
C580 C 0.88587 0.24445 0.51963 0.0
C581 C 0.89104 0.23698 0.50145 0.0
C582 C 0.89563 0.23772 0.52704 0.0
C583 C 0.89164 0.24692 0.54532 0.0
O584 O 0.88327 0.252 0.58513 0.0
O585 O 0.89661 0.25197 0.58941 0.0
O586 O 0.89707 0.24592 0.55505 0.0
O587 O 0.88379 0.24613 0.55095 0.0
H588 H 0.90535 0.268 0.57239 0.0
H589 H 0.91405 0.28553 0.57213 0.0
H590 H 0.89829 0.28557 0.61015 0.0
H591 H 0.88961 0.26808 0.61029 0.0
H592 H 0.87381 0.21818 0.6307 0.0
H593 H 0.88123 0.22874 0.60959 0.0
H594 H 0.85459 0.19563 0.60171 0.0
H595 H 0.86191 0.20623 0.58084 0.0
H596 H 0.89978 0.2314 0.51008 0.0
H597 H 0.88213 0.24322 0.49701 0.0
H598 H 0.88215 0.2483 0.52205 0.0
H599 H 0.89958 0.23628 0.53523 0.0
C600 C 0.96916 0.41067 0.5956 0.0
C601 C 0.97243 0.40551 0.60381 0.0
C602 C 0.9588 0.39041 0.59584 0.0
C603 C 0.96732 0.39549 0.60386 0.0
C604 C 0.95547 0.39562 0.58785 0.0
C605 C 0.96062 0.40563 0.58771 0.0
U606 U 0.98451 0.43518 0.61344 0.0
O607 O 0.99748 0.44797 0.60543 0.0
O608 O 0.98461 0.44875 0.61043 0.0
C609 C 0.99332 0.45318 0.60503 0.0
C610 C 0.97463 0.42125 0.59491 0.0
C611 C 0.99503 0.4591 0.59177 0.0
C612 C 0.98939 0.46421 0.57078 0.0
C613 C 0.98756 0.45796 0.58257 0.0
C614 C 1.00619 0.4727 0.57701 0.0
C615 C 0.99873 0.47175 0.56794 0.0
C616 C 1.00435 0.46647 0.58876 0.0
C617 C 0.98984 0.43467 0.65497 0.0
C618 C 0.99374 0.44622 0.67457 0.0
C619 C 0.99629 0.43281 0.67794 0.0
C620 C 0.99291 0.42965 0.66384 0.0
C621 C 0.9967 0.4411 0.68357 0.0
C622 C 0.99035 0.44304 0.66039 0.0
C623 C 0.98559 0.43055 0.64063 0.0
O624 O 0.97095 0.4257 0.60204 0.0
O625 O 0.98394 0.42529 0.59651 0.0
O626 O 0.99151 0.43109 0.63037 0.0
O627 O 0.97878 0.43203 0.63579 0.0
H628 H 0.97895 0.40921 0.61012 0.0
H629 H 0.97002 0.39172 0.61029 0.0
H630 H 0.94898 0.39194 0.58145 0.0
H631 H 0.95796 0.40945 0.5813 0.0
H632 H 0.98345 0.46329 0.56413 0.0
H633 H 0.98028 0.45235 0.58461 0.0
H634 H 0.0135 0.47828 0.57504 0.0
H635 H 0.01024 0.46751 0.59568 0.0
H636 H 0.99404 0.45269 0.67849 0.0
H637 H 0.99832 0.42856 0.68459 0.0
H638 H 0.99249 0.42312 0.65995 0.0
H639 H 0.98802 0.44705 0.65375 0.0
C640 C 0.60308 0.56143 0.59495 0.0
C641 C 0.6082 0.56991 0.60302 0.0
C642 C 0.62334 0.57156 0.59486 0.0
C643 C 0.61822 0.57495 0.60291 0.0
C644 C 0.61817 0.56301 0.58693 0.0
C645 C 0.60816 0.55803 0.58695 0.0
U646 U 0.57878 0.55104 0.61403 0.0
O647 O 0.56537 0.55023 0.60699 0.0
O648 O 0.56567 0.53703 0.61138 0.0
C649 C 0.56067 0.54084 0.6065 0.0
C650 C 0.59249 0.55602 0.5947 0.0
C651 C 0.55468 0.53632 0.59342 0.0
C652 C 0.55062 0.53665 0.56786 0.0
C653 C 0.55683 0.54088 0.57974 0.0
C654 C 0.54016 0.52317 0.58306 0.0
C655 C 0.54213 0.52778 0.5694 0.0
C656 C 0.54635 0.5274 0.5949 0.0
C657 C 0.58001 0.55587 0.65601 0.0
C658 C 0.56721 0.55309 0.67284 0.0
C659 C 0.58309 0.5582 0.68207 0.0
C660 C 0.58627 0.55832 0.66787 0.0
C661 C 0.57352 0.5556 0.6848 0.0
C662 C 0.57043 0.55322 0.65855 0.0
C663 C 0.58386 0.55642 0.64123 0.0
O664 O 0.58842 0.54775 0.6015 0.0
O665 O 0.58816 0.56095 0.59707 0.0
O666 O 0.58245 0.56161 0.63157 0.0
O667 O 0.58283 0.54844 0.63581 0.0
H668 H 0.60447 0.57266 0.60941 0.0
H669 H 0.62197 0.58143 0.60927 0.0
H670 H 0.62187 0.56025 0.5805 0.0
H671 H 0.60437 0.55151 0.58065 0.0
H672 H 0.55236 0.54046 0.55758 0.0
H673 H 0.56322 0.54778 0.57829 0.0
H674 H 0.53382 0.51626 0.58464 0.0
H675 H 0.54455 0.52373 0.60532 0.0
H676 H 0.55978 0.55098 0.67452 0.0
H677 H 0.58821 0.56035 0.6909 0.0
H678 H 0.59371 0.56044 0.66613 0.0
H679 H 0.56547 0.55129 0.64952 0.0
C680 C 0.45273 0.04457 0.59446 0.0
C681 C 0.44908 0.0459 0.60758 0.0
C682 C 0.44267 0.05474 0.59473 0.0
C683 C 0.44409 0.05093 0.60771 0.0
C684 C 0.44636 0.05336 0.58162 0.0
C685 C 0.45133 0.04833 0.5815 0.0
U686 U 0.46315 0.03078 0.61361 0.0
O687 O 0.46356 0.01791 0.60681 0.0
O688 O 0.47694 0.03135 0.61052 0.0
C689 C 0.47294 0.02241 0.60622 0.0
C690 C 0.45802 0.03931 0.59411 0.0
C691 C 0.4772 0.02053 0.59329 0.0
C692 C 0.48133 0.02231 0.56746 0.0
C693 C 0.47705 0.02415 0.57941 0.0
C694 C 0.48592 0.01321 0.58314 0.0
C695 C 0.48588 0.01686 0.56919 0.0
C696 C 0.48164 0.01504 0.59501 0.0
C697 C 0.45934 0.02753 0.6558 0.0
C698 C 0.45485 0.01494 0.67399 0.0
C699 C 0.46397 0.03153 0.68126 0.0
C700 C 0.46398 0.03435 0.66682 0.0
C701 C 0.45925 0.02179 0.68511 0.0
C702 C 0.45487 0.01777 0.6595 0.0
C703 C 0.45841 0.03081 0.64107 0.0
O704 O 0.46638 0.04353 0.60064 0.0
O705 O 0.45296 0.03013 0.59704 0.0
O706 O 0.45284 0.02427 0.63159 0.0
O707 O 0.46624 0.03773 0.63517 0.0
H708 H 0.45011 0.04308 0.61771 0.0
H709 H 0.44146 0.05194 0.61803 0.0
H710 H 0.44529 0.05604 0.57138 0.0
H711 H 0.45407 0.04735 0.57126 0.0
H712 H 0.48123 0.0253 0.55693 0.0
H713 H 0.47367 0.02843 0.57786 0.0
H714 H 0.48917 0.00884 0.58489 0.0
H715 H 0.4818 0.01214 0.60562 0.0
H716 H 0.45108 0.00738 0.67655 0.0
H717 H 0.46757 0.037 0.68946 0.0
H718 H 0.46742 0.04191 0.66433 0.0
H719 H 0.45116 0.01232 0.65131 0.0
C720 C 0.60311 0.04534 0.09477 0.0
C721 C 0.6082 0.04494 0.10691 0.0
C722 C 0.62336 0.05532 0.09461 0.0
C723 C 0.61822 0.04987 0.10683 0.0
C724 C 0.61818 0.05573 0.08251 0.0
C725 C 0.60817 0.05079 0.08261 0.0
U726 U 0.57908 0.03133 0.1143 0.0
O727 O 0.56589 0.03211 0.11201 0.0
O728 O 0.56567 0.01868 0.10739 0.0
C729 C 0.56092 0.02332 0.10704 0.0
C730 C 0.59256 0.04018 0.09464 0.0
C731 C 0.55496 0.02193 0.09396 0.0
C732 C 0.55105 0.01784 0.0683 0.0
C733 C 0.55719 0.01968 0.08024 0.0
C734 C 0.5405 0.02069 0.08353 0.0
C735 C 0.54259 0.01827 0.06981 0.0
C736 C 0.5466 0.02247 0.09544 0.0
C737 C 0.58063 0.02742 0.15608 0.0
C738 C 0.56759 0.0191 0.17341 0.0
C739 C 0.584 0.02645 0.18167 0.0
C740 C 0.58717 0.0295 0.16745 0.0
C741 C 0.57418 0.02125 0.1849 0.0
C742 C 0.5708 0.02219 0.1591 0.0
C743 C 0.58439 0.03089 0.14132 0.0
O744 O 0.58836 0.03093 0.09708 0.0
O745 O 0.58857 0.04432 0.10176 0.0
O746 O 0.58324 0.03782 0.13612 0.0
O747 O 0.58298 0.02437 0.13153 0.0
H748 H 0.60441 0.04078 0.11643 0.0
H749 H 0.62193 0.04929 0.11627 0.0
H750 H 0.62187 0.05997 0.07301 0.0
H751 H 0.60438 0.05124 0.07316 0.0
H752 H 0.55295 0.01612 0.05788 0.0
H753 H 0.56361 0.01925 0.07876 0.0
H754 H 0.53402 0.02097 0.08519 0.0
H755 H 0.54471 0.02415 0.10592 0.0
H756 H 0.55998 0.01517 0.1755 0.0
H757 H 0.58928 0.02808 0.19013 0.0
H758 H 0.59479 0.03349 0.16532 0.0
H759 H 0.56563 0.02052 0.15044 0.0
C760 C 0.96992 0.56164 0.09551 0.0
C761 C 0.96744 0.56418 0.10877 0.0
C762 C 0.95985 0.57181 0.09565 0.0
C763 C 0.96244 0.5692 0.10884 0.0
C764 C 0.96238 0.56924 0.08242 0.0
C765 C 0.96736 0.56421 0.08237 0.0
U766 U 0.98367 0.55107 0.11451 0.0
O767 O 0.9833 0.53743 0.11092 0.0
O768 O 0.9967 0.55095 0.10763 0.0
C769 C 0.99224 0.54159 0.10651 0.0
C770 C 0.9752 0.55638 0.09518 0.0
C771 C 0.99425 0.53765 0.09325 0.0
C772 C 0.98937 0.52887 0.0703 0.0
C773 C 0.98744 0.53315 0.08214 0.0
C774 C 1.00501 0.53375 0.08032 0.0
C775 C 0.99815 0.52901 0.06932 0.0
C776 C 1.00307 0.53799 0.09213 0.0
C777 C 0.98692 0.55445 0.15666 0.0
C778 C 0.99967 0.55705 0.17354 0.0
C779 C 0.98367 0.55138 0.18265 0.0
C780 C 0.98053 0.55148 0.16845 0.0
C781 C 0.99331 0.5543 0.18543 0.0
C782 C 0.99651 0.55712 0.1593 0.0
C783 C 0.98352 0.55547 0.14211 0.0
O784 O 0.98435 0.56144 0.09825 0.0
O785 O 0.97096 0.54796 0.10154 0.0
O786 O 0.97669 0.54763 0.13611 0.0
O787 O 0.99003 0.56119 0.1327 0.0
H788 H 0.96939 0.5623 0.11904 0.0
H789 H 0.96071 0.57115 0.11922 0.0
H790 H 0.96041 0.571 0.07207 0.0
H791 H 0.96919 0.5623 0.07203 0.0
H792 H 0.98389 0.52524 0.06211 0.0
H793 H 0.98057 0.53278 0.08274 0.0
H794 H 0.01191 0.53418 0.07984 0.0
H795 H 1.00844 0.54143 0.10054 0.0
H796 H 1.00712 0.55922 0.17525 0.0
H797 H 0.97859 0.54934 0.19152 0.0
H798 H 0.97312 0.54947 0.16673 0.0
H799 H 1.00161 0.55943 0.15042 0.0
C800 C 0.45336 0.41177 0.09523 0.0
C801 C 0.45384 0.40664 0.10728 0.0
C802 C 0.44314 0.39152 0.09517 0.0
C803 C 0.44882 0.39662 0.10722 0.0
C804 C 0.44261 0.39671 0.08321 0.0
C805 C 0.44768 0.40672 0.08324 0.0
U806 U 0.46422 0.43609 0.11428 0.0
O807 O 0.47803 0.44927 0.11087 0.0
O808 O 0.46466 0.4494 0.10756 0.0
C809 C 0.47404 0.45425 0.10672 0.0
C810 C 0.45874 0.42235 0.0949 0.0
C811 C 0.47818 0.46037 0.0937 0.0
C812 C 0.48128 0.46265 0.06757 0.0
C813 C 0.47722 0.45655 0.07964 0.0
C814 C 0.48729 0.47639 0.08352 0.0
C815 C 0.48634 0.47267 0.06935 0.0
C816 C 0.48325 0.47031 0.09552 0.0
C817 C 0.46066 0.43557 0.15643 0.0
C818 C 0.45968 0.44682 0.17301 0.0
C819 C 0.46205 0.43421 0.18267 0.0
C820 C 0.46199 0.431 0.16848 0.0
C821 C 0.46077 0.44208 0.18516 0.0
C822 C 0.45964 0.4436 0.15878 0.0
C823 C 0.45967 0.43132 0.1418 0.0
O824 O 0.45378 0.42655 0.09794 0.0
O825 O 0.46721 0.42651 0.10112 0.0
O826 O 0.46749 0.43227 0.13581 0.0
O827 O 0.45408 0.43235 0.13244 0.0
H828 H 0.45811 0.41037 0.11673 0.0
H829 H 0.44929 0.39285 0.11668 0.0
H830 H 0.43839 0.39304 0.0737 0.0
H831 H 0.4472 0.41054 0.07384 0.0
H832 H 0.48033 0.45953 0.05682 0.0
H833 H 0.47332 0.44889 0.07801 0.0
H834 H 0.49127 0.48402 0.08541 0.0
H835 H 0.48412 0.47339 0.10629 0.0
H836 H 0.45879 0.45297 0.1745 0.0
H837 H 0.46277 0.43028 0.1917 0.0
H838 H 0.46272 0.42475 0.16694 0.0
H839 H 0.45862 0.44727 0.14967 0.0
C840 C 0.3823 0.26775 0.09122 0.0
C841 C 0.38147 0.2728 0.07935 0.0
C842 C 0.39238 0.288 0.0911 0.0
C843 C 0.38644 0.28282 0.07931 0.0
C844 C 0.39321 0.28287 0.10291 0.0
C845 C 0.38821 0.27286 0.10297 0.0
U846 U 0.36842 0.24357 0.07204 0.0
O847 O 0.36927 0.23044 0.0747 0.0
O848 O 0.35579 0.23016 0.07908 0.0
C849 C 0.36045 0.22543 0.07949 0.0
C850 C 0.37713 0.2572 0.0915 0.0
C851 C 0.35896 0.21941 0.09253 0.0
C852 C 0.35613 0.21615 0.11859 0.0
C853 C 0.358 0.22227 0.10661 0.0
C854 C 0.35631 0.20433 0.10263 0.0
C855 C 0.35522 0.20706 0.11675 0.0
C856 C 0.35815 0.21042 0.09069 0.0
C857 C 0.36474 0.24459 0.03011 0.0
C858 C 0.35392 0.23192 0.0137 0.0
C859 C 0.36589 0.24719 1.00388 0.0
C860 C 0.36909 0.25049 0.018 0.0
C861 C 0.35824 0.23788 1.0015 0.0
C862 C 0.35715 0.23525 0.0279 0.0
C863 C 0.36811 0.2486 0.0448 0.0
O864 O 0.36789 0.25296 0.08893 0.0
O865 O 0.38133 0.25316 0.08465 0.0
O866 O 0.37509 0.24763 0.05029 0.0
O867 O 0.36154 0.24726 0.05446 0.0
H868 H 0.377 0.26898 0.07012 0.0
H869 H 0.38572 0.28652 0.06996 0.0
H870 H 0.39761 0.2866 0.11225 0.0
H871 H 0.38895 0.2691 0.11223 0.0
H872 H 0.35545 0.21855 0.12931 0.0
H873 H 0.35863 0.22919 0.10832 0.0
H874 H 0.35552 0.19736 0.1007 0.0
H875 H 0.35881 0.20805 0.07993 0.0
H876 H 0.34808 0.22468 0.01229 0.0
H877 H 0.36929 0.25206 0.99483 0.0
H878 H 0.37492 0.25774 0.01948 0.0
H879 H 0.3537 0.23057 0.03712 0.0
C880 C 0.74721 0.11664 0.09167 0.0
C881 C 0.74204 0.11652 0.07927 0.0
C882 C 0.72694 0.1064 0.09192 0.0
C883 C 0.73202 0.11149 0.07941 0.0
C884 C 0.73219 0.10646 0.10424 0.0
C885 C 0.7422 0.11153 0.10411 0.0
U886 U 0.77143 0.12733 0.07239 0.0
O887 O 0.78448 0.14136 0.07515 0.0
O888 O 0.78489 0.12819 0.07927 0.0
C889 C 0.78952 0.13758 0.07998 0.0
C890 C 0.75777 0.12209 0.09189 0.0
C891 C 0.79541 0.14203 0.09318 0.0
C892 C 0.80003 0.14122 0.11827 0.0
C893 C 0.7939 0.13696 0.10632 0.0
C894 C 0.80914 0.15573 0.10427 0.0
C895 C 0.80778 0.15065 0.11737 0.0
C896 C 0.80305 0.15147 0.09234 0.0
C897 C 0.77018 0.12269 0.03037 0.0
C898 C 0.78318 0.1263 0.01346 0.0
C899 C 0.767 0.11968 1.00442 0.0
C900 C 0.76379 0.1195 0.01862 0.0
C901 C 0.77674 0.12307 1.0016 0.0
C902 C 0.77993 0.12612 0.02774 0.0
C903 C 0.76633 0.12207 0.04516 0.0
O904 O 0.76204 0.11716 0.08917 0.0
O905 O 0.76182 0.13043 0.08526 0.0
O906 O 0.76733 0.13001 0.0507 0.0
O907 O 0.76779 0.11686 0.05472 0.0
H908 H 0.74574 0.12038 0.0695 0.0
H909 H 0.72826 0.11172 0.06977 0.0
H910 H 0.72858 0.1025 0.11398 0.0
H911 H 0.74605 0.11148 0.11376 0.0
H912 H 0.79869 0.13713 0.12823 0.0
H913 H 0.78806 0.12968 0.10733 0.0
H914 H 0.81508 0.16295 0.10308 0.0
H915 H 0.80441 0.15551 0.08231 0.0
H916 H 0.79073 0.12903 0.01169 0.0
H917 H 0.7618 0.11696 0.99569 0.0
H918 H 0.75623 0.11677 0.02045 0.0
H919 H 0.78498 0.12861 0.03669 0.0
C920 C 0.89704 0.63271 0.09314 0.0
C921 C 0.90003 0.63067 0.07992 0.0
C922 C 0.90718 0.62262 0.09304 0.0
C923 C 0.90505 0.62567 0.07987 0.0
C924 C 0.90419 0.62474 0.10624 0.0
C925 C 0.89917 0.62973 0.10627 0.0
U926 U 0.88757 0.64745 0.07426 0.0
O927 O 0.87369 0.64687 0.07634 0.0
O928 O 0.88694 0.66001 0.08198 0.0
C929 C 0.87755 0.65556 0.08169 0.0
C930 C 0.89174 0.63795 0.09342 0.0
C931 C 0.87278 0.65683 0.09455 0.0
C932 C 0.87097 0.65774 0.12079 0.0
C933 C 0.87539 0.65606 0.10889 0.0
C934 C 0.8612 0.66085 0.10416 0.0
C935 C 0.86382 0.6602 0.11858 0.0
C936 C 0.86562 0.65919 0.09231 0.0
C937 C 0.89369 0.65306 0.03295 0.0
C938 C 0.88541 0.65455 0.01173 0.0
C939 C 0.90264 0.66182 0.01143 0.0
C940 C 0.9024 0.65847 0.02558 0.0
C941 C 0.89414 0.65982 1.00423 0.0
C942 C 0.88519 0.65122 0.02595 0.0
C943 C 0.89373 0.64884 0.0473 0.0
O944 O 0.89692 0.64725 0.0916 0.0
O945 O 0.88372 0.63409 0.08593 0.0
O946 O 0.88558 0.64169 0.05199 0.0
O947 O 0.89883 0.65484 0.05768 0.0
H948 H 0.89846 0.63292 0.06965 0.0
H949 H 0.90713 0.62408 0.06949 0.0
H950 H 0.90583 0.62266 0.1166 0.0
H951 H 0.89697 0.63128 0.11658 0.0
H952 H 0.8731 0.65707 0.13173 0.0
H953 H 0.88089 0.65423 0.11087 0.0
H954 H 0.85585 0.66287 0.10197 0.0
H955 H 0.86353 0.65987 0.08134 0.0
H956 H 0.87874 0.65297 1.00658 0.0
H957 H 0.90947 0.66572 1.00596 0.0
H958 H 0.90905 0.6599 0.03066 0.0
H959 H 0.87835 0.64706 0.03134 0.0
C960 C 0.41349 0.96586 0.92472 0.0
C961 C 0.40847 0.96792 0.91416 0.0
C962 C 0.39325 0.95561 0.9243 0.0
C963 C 0.39844 0.96287 0.91399 0.0
C964 C 0.39834 0.95353 0.93473 0.0
C965 C 0.40835 0.95861 0.93495 0.0
U966 U 0.43796 0.98116 0.90673 0.0
O967 O 0.45097 0.99371 0.915 0.0
O968 O 0.45133 0.98072 0.90922 0.0
C969 C 0.45596 0.98931 0.91499 0.0
C970 C 0.42404 0.97121 0.9253 0.0
C971 C 0.46176 0.99042 0.92818 0.0
C972 C 0.46562 0.99442 0.95387 0.0
C973 C 0.45954 0.99269 0.9419 0.0
C974 C 0.47608 0.99143 0.93871 0.0
C975 C 0.47402 0.99389 0.95241 0.0
C976 C 0.47004 0.98974 0.92676 0.0
C977 C 0.43773 0.98714 0.86545 0.0
C978 C 0.44863 0.98998 0.84523 0.0
C979 C 0.43668 0.99476 0.84315 0.0
C980 C 0.43347 0.99135 0.85724 0.0
C981 C 0.44423 0.99403 0.83686 0.0
C982 C 0.44542 0.98657 0.8594 0.0
C983 C 0.43345 0.98278 0.8797 0.0
O984 O 0.42836 0.96754 0.91782 0.0
O985 O 0.42813 0.98054 0.92385 0.0
O986 O 0.43419 0.98866 0.89018 0.0
O987 O 0.43457 0.97569 0.88428 0.0
H988 H 0.41229 0.97344 0.90608 0.0
H989 H 0.39476 0.96458 0.90569 0.0
H990 H 0.39459 0.94807 0.94293 0.0
H991 H 0.41209 0.95691 0.94318 0.0
H992 H 0.46373 0.99617 0.96429 0.0
H993 H 0.45318 0.99324 0.94334 0.0
H994 H 0.48253 0.99107 0.93708 0.0
H995 H 0.47194 0.98807 0.91628 0.0
H996 H 0.45453 0.9894 0.84081 0.0
H997 H 0.43301 0.99769 0.837 0.0
H998 H 0.42748 0.99178 0.86162 0.0
H999 H 0.44884 0.98336 0.86549 0.0
C1000 C 0.04753 0.44998 0.92556 0.0
C1001 C 0.04777 0.44522 0.91291 0.0
C1002 C 0.05777 0.43999 0.9253 0.0
C1003 C 0.05283 0.44026 0.91279 0.0
C1004 C 0.05752 0.44484 0.9379 0.0
C1005 C 0.05245 0.44977 0.93802 0.0
U1006 U 0.03364 0.46037 0.90658 0.0
O1007 O 0.02054 0.46039 0.91334 0.0
O1008 O 0.0339 0.47396 0.91012 0.0
C1009 C 0.02494 0.46975 0.91447 0.0
C1010 C 0.04216 0.45515 0.92596 0.0
C1011 C 0.02287 0.47365 0.92771 0.0
C1012 C 0.02764 0.48237 0.95072 0.0
C1013 C 0.02963 0.47814 0.93888 0.0
C1014 C 0.01203 0.47748 0.94057 0.0
C1015 C 0.01884 0.4822 0.95163 0.0
C1016 C 0.01403 0.47328 0.92877 0.0
C1017 C 0.03082 0.45699 0.86426 0.0
C1018 C 0.01829 0.45378 0.84654 0.0
C1019 C 0.03462 0.46019 0.83844 0.0
C1020 C 0.0375 0.46029 0.85286 0.0
C1021 C 0.02495 0.45674 0.83503 0.0
C1022 C 0.02119 0.45388 0.86102 0.0
C1023 C 0.03401 0.45604 0.87902 0.0
O1024 O 0.04635 0.4636 0.91967 0.0
O1025 O 0.03301 0.45005 0.92286 0.0
O1026 O 0.02741 0.45029 0.8883 0.0
O1027 O 0.04076 0.46389 0.88511 0.0
H1028 H 0.04405 0.44534 0.90314 0.0
H1029 H 0.05295 0.43672 0.90284 0.0
H1030 H 0.06113 0.44469 0.94778 0.0
H1031 H 0.05233 0.45338 0.94789 0.0
H1032 H 0.03309 0.486 0.95895 0.0
H1033 H 0.03651 0.47853 0.93834 0.0
H1034 H 1.00512 0.47703 0.941 0.0
H1035 H 1.00869 0.46984 0.92031 0.0
H1036 H 0.01078 0.45102 0.84432 0.0
H1037 H 0.03998 0.4627 0.82991 0.0
H1038 H 0.04496 0.46271 0.85505 0.0
H1039 H 0.01585 0.45127 0.86958 0.0
C1040 C 0.56427 0.60026 0.92512 0.0
C1041 C 0.57025 0.60541 0.91342 0.0
C1042 C 0.57442 0.62052 0.92535 0.0
C1043 C 0.57529 0.61543 0.91354 0.0
C1044 C 0.56833 0.61529 0.93697 0.0
C1045 C 0.56332 0.60528 0.93685 0.0
U1046 U 0.55377 0.57621 0.90552 0.0
O1047 O 0.55334 0.56285 0.91193 0.0
O1048 O 0.53996 0.56296 0.90854 0.0
C1049 C 0.54396 0.55798 0.91265 0.0
C1050 C 0.55895 0.5897 0.92527 0.0
C1051 C 0.53978 0.5518 0.9256 0.0
C1052 C 0.53669 0.54942 0.95172 0.0
C1053 C 0.54074 0.55556 0.9397 0.0
C1054 C 0.53069 0.53574 0.93565 0.0
C1055 C 0.53163 0.53941 0.94987 0.0
C1056 C 0.53472 0.54186 0.9237 0.0
C1057 C 0.55764 0.57739 0.86338 0.0
C1058 C 0.55704 0.56543 0.84658 0.0
C1059 C 0.55746 0.57964 0.83716 0.0
C1060 C 0.55767 0.5828 0.85141 0.0
C1061 C 0.55721 0.57094 0.83451 0.0
C1062 C 0.55724 0.56862 0.8609 0.0
C1063 C 0.55853 0.58138 0.87817 0.0
O1064 O 0.55057 0.58563 0.91878 0.0
O1065 O 0.56396 0.58555 0.9222 0.0
O1066 O 0.56404 0.58016 0.88746 0.0
O1067 O 0.55065 0.58029 0.88411 0.0
H1068 H 0.57106 0.60167 0.90422 0.0
H1069 H 0.57999 0.61918 0.90447 0.0
H1070 H 0.56732 0.61892 0.94612 0.0
H1071 H 0.55869 0.60145 0.94595 0.0
H1072 H 0.53764 0.55251 0.9625 0.0
H1073 H 0.54463 0.56322 0.94139 0.0
H1074 H 0.52672 0.52811 0.93371 0.0
H1075 H 0.53386 0.53882 0.9129 0.0
H1076 H 0.55674 0.55865 0.84497 0.0
H1077 H 0.55777 0.58416 0.82821 0.0
H1078 H 0.55805 0.58962 0.85308 0.0
H1079 H 0.55719 0.5643 0.86999 0.0
C1080 C 0.6357 0.7444 0.92868 0.0
C1081 C 0.6382 0.73928 0.93841 0.0
C1082 C 0.62567 0.72413 0.92841 0.0
C1083 C 0.63326 0.72926 0.93824 0.0
C1084 C 0.62314 0.72933 0.91882 0.0
C1085 C 0.62811 0.73934 0.91895 0.0
U1086 U 0.64965 0.76853 0.94807 0.0
O1087 O 0.66233 0.78192 0.94118 0.0
O1088 O 0.64889 0.78171 0.9456 0.0
C1089 C 0.65773 0.78671 0.94085 0.0
C1090 C 0.64088 0.75498 0.92853 0.0
C1091 C 0.65926 0.79276 0.92784 0.0
C1092 C 0.66142 0.79573 0.90165 0.0
C1093 C 0.65954 0.78962 0.91366 0.0
C1094 C 0.66262 0.8081 0.91784 0.0
C1095 C 0.66302 0.80507 0.90359 0.0
C1096 C 0.66077 0.80201 0.92979 0.0
C1097 C 0.65327 0.76698 0.99 0.0
C1098 C 0.66395 0.77937 1.00692 0.0
C1099 C 0.65246 0.76366 0.016 0.0
C1100 C 0.64916 0.76071 1.00181 0.0
C1101 C 0.65998 0.77298 0.01875 0.0
C1102 C 0.66064 0.77638 0.99263 0.0
C1103 C 0.64992 0.76326 0.97518 0.0
O1104 O 0.63669 0.759 0.93546 0.0
O1105 O 0.65013 0.75925 0.93096 0.0
O1106 O 0.65648 0.76465 0.96548 0.0
O1107 O 0.643 0.7644 0.96984 0.0
H1108 H 0.644 0.74303 0.94609 0.0
H1109 H 0.63551 0.72556 0.94568 0.0
H1110 H 0.61723 0.72567 0.91129 0.0
H1111 H 0.62602 0.74314 0.91142 0.0
H1112 H 0.66156 0.79311 0.89084 0.0
H1113 H 0.65836 0.78249 0.91187 0.0
H1114 H 0.66395 0.81526 0.91983 0.0
H1115 H 0.66064 0.8046 0.94064 0.0
H1116 H 0.66978 0.78658 1.00866 0.0
H1117 H 0.64911 0.7586 0.02484 0.0
H1118 H 0.64344 0.75344 1.00001 0.0
H1119 H 0.66391 0.78134 0.98365 0.0
C1120 C 0.26954 0.89388 0.92921 0.0
C1121 C 0.27464 0.90231 0.93739 0.0
C1122 C 0.2898 0.90398 0.92931 0.0
C1123 C 0.28466 0.90733 0.93738 0.0
C1124 C 0.28466 0.89547 0.9213 0.0
C1125 C 0.27465 0.8905 0.92123 0.0
U1126 U 0.24497 0.88383 0.9474 0.0
O1127 O 0.23181 0.88326 0.93957 0.0
O1128 O 0.23177 0.86994 0.94446 0.0
C1129 C 0.22694 0.87386 0.93932 0.0
C1130 C 0.25896 0.88856 0.92869 0.0
C1131 C 0.22097 0.86934 0.92628 0.0
C1132 C 0.21786 0.86877 0.90015 0.0
C1133 C 0.22401 0.87294 0.91213 0.0
C1134 C 0.20568 0.85725 0.9163 0.0
C1135 C 0.20856 0.86092 0.90211 0.0
C1136 C 0.21181 0.86141 0.92821 0.0
C1137 C 0.24472 0.88849 0.98917 0.0
C1138 C 0.23758 0.89444 1.0067 0.0
C1139 C 0.24226 0.88306 0.01448 0.0
C1140 C 0.24538 0.88285 1.00031 0.0
C1141 C 0.23848 0.88899 0.01793 0.0
C1142 C 0.24067 0.8942 0.9925 0.0
C1143 C 0.24926 0.88913 0.9748 0.0
O1144 O 0.25473 0.88033 0.93564 0.0
O1145 O 0.2547 0.8936 0.93063 0.0
O1146 O 0.24853 0.89452 0.96471 0.0
O1147 O 0.24845 0.88119 0.96956 0.0
H1148 H 0.27089 0.90505 0.94376 0.0
H1149 H 0.28839 0.9138 0.94381 0.0
H1150 H 0.28838 0.89273 0.91486 0.0
H1151 H 0.27088 0.88402 0.91483 0.0
H1152 H 0.22031 0.87183 0.88942 0.0
H1153 H 0.23105 0.87906 0.91036 0.0
H1154 H 0.19867 0.85112 0.91823 0.0
H1155 H 0.20932 0.8585 0.93901 0.0
H1156 H 0.2346 0.899 1.00892 0.0
H1157 H 0.24319 0.87887 0.02287 0.0
H1158 H 0.2486 0.8785 0.99818 0.0
H1159 H 0.24011 0.8987 0.98425 0.0
C1160 C 0.11911 0.37769 0.92855 0.0
C1161 C 0.11846 0.38208 0.94138 0.0
C1162 C 0.10866 0.38748 0.92882 0.0
C1163 C 0.11332 0.38696 0.94149 0.0
C1164 C 0.10925 0.38296 0.91606 0.0
C1165 C 0.11443 0.37814 0.91593 0.0
U1166 U 0.13014 0.36419 0.94707 0.0
O1167 O 0.13103 0.35171 0.93969 0.0
O1168 O 0.14419 0.3653 0.94381 0.0
C1169 C 0.14042 0.35649 0.93901 0.0
C1170 C 0.12466 0.37269 0.92806 0.0
C1171 C 0.1449 0.35503 0.92591 0.0
C1172 C 0.14456 0.35068 0.90035 0.0
C1173 C 0.14036 0.35269 0.91222 0.0
C1174 C 0.15797 0.35354 0.91558 0.0
C1175 C 0.15338 0.35096 0.90192 0.0
C1176 C 0.15378 0.35553 0.9274 0.0
C1177 C 0.12625 0.36003 0.98909 0.0
C1178 C 0.12223 0.34704 1.00633 0.0
C1179 C 0.13058 0.36342 0.01476 0.0
C1180 C 0.13052 0.36658 1.00055 0.0
C1181 C 0.12629 0.3536 0.0179 0.0
C1182 C 0.12221 0.35021 0.99209 0.0
C1183 C 0.12524 0.36357 0.97461 0.0
O1184 O 0.13302 0.37701 0.93462 0.0
O1185 O 0.11981 0.36345 0.93064 0.0
O1186 O 0.11981 0.35716 0.96488 0.0
O1187 O 0.133 0.37074 0.96895 0.0
H1188 H 0.12196 0.38176 0.95128 0.0
H1189 H 0.11292 0.39024 0.95155 0.0
H1190 H 0.10585 0.3833 0.90607 0.0
H1191 H 0.11484 0.3748 0.90593 0.0
H1192 H 0.14078 0.34867 0.89005 0.0
H1193 H 0.1335 0.35226 0.91077 0.0
H1194 H 0.16484 0.35402 0.91717 0.0
H1195 H 0.15743 0.35734 0.93783 0.0
H1196 H 0.11897 0.33944 1.00832 0.0
H1197 H 0.13365 0.36867 0.02339 0.0
H1198 H 0.13357 0.37417 0.9986 0.0
H1199 H 0.11883 0.34496 0.98353 0.0
C1200 C 0.26995 0.37839 0.42914 0.0
C1201 C 0.27509 0.37586 0.4388 0.0
C1202 C 0.2902 0.38875 0.42932 0.0
C1203 C 0.28511 0.38096 0.43883 0.0
C1204 C 0.28501 0.39132 0.41981 0.0
C1205 C 0.275 0.38617 0.41971 0.0
U1206 U 0.24558 0.36433 0.44792 0.0
O1207 O 0.23226 0.36465 0.44442 0.0
O1208 O 0.23243 0.35129 0.44111 0.0
C1209 C 0.22747 0.3557 0.44011 0.0
C1210 C 0.25937 0.373 0.42868 0.0
C1211 C 0.2215 0.3537 0.4269 0.0
C1212 C 0.21882 0.35749 0.40221 0.0
C1213 C 0.22486 0.35941 0.41431 0.0
C1214 C 0.20608 0.34407 0.41507 0.0
C1215 C 0.20933 0.3498 0.40244 0.0
C1216 C 0.21209 0.34601 0.42712 0.0
C1217 C 0.24637 0.36142 0.49022 0.0
C1218 C 0.23609 0.34909 0.5076 0.0
C1219 C 0.24791 0.36476 0.51627 0.0
C1220 C 0.25071 0.36774 0.50189 0.0
C1221 C 0.24069 0.35535 0.51935 0.0
C1222 C 0.23892 0.35209 0.49316 0.0
C1223 C 0.25038 0.3646 0.47543 0.0
O1224 O 0.25523 0.3638 0.43152 0.0
O1225 O 0.25509 0.37715 0.43498 0.0
O1226 O 0.24925 0.37137 0.46945 0.0
O1227 O 0.24943 0.358 0.4661 0.0
H1228 H 0.27136 0.36993 0.4463 0.0
H1229 H 0.28887 0.37886 0.44642 0.0
H1230 H 0.2887 0.39721 0.41225 0.0
H1231 H 0.27119 0.38826 0.41218 0.0
H1232 H 0.22161 0.36199 0.39264 0.0
H1233 H 0.23211 0.36538 0.41388 0.0
H1234 H 0.1988 0.33819 0.41579 0.0
H1235 H 0.20934 0.34153 0.43674 0.0
H1236 H 0.23053 0.34178 0.50958 0.0
H1237 H 0.25149 0.36983 0.525 0.0
H1238 H 0.25647 0.37497 0.49991 0.0
H1239 H 0.23545 0.34705 0.48435 0.0
C1240 C 0.63521 0.89454 0.42805 0.0
C1241 C 0.63526 0.89958 0.44053 0.0
C1242 C 0.62522 0.90478 0.42819 0.0
C1243 C 0.63031 0.90465 0.44061 0.0
C1244 C 0.62517 0.89964 0.41576 0.0
C1245 C 0.63012 0.89458 0.41571 0.0
U1246 U 0.65007 0.88497 0.44647 0.0
O1247 O 0.64943 0.87108 0.44392 0.0
O1248 O 0.66258 0.88438 0.4384 0.0
C1249 C 0.65807 0.87498 0.43829 0.0
C1250 C 0.64045 0.88924 0.42767 0.0
C1251 C 0.65921 0.87033 0.42512 0.0
C1252 C 0.66363 0.87065 0.39959 0.0
C1253 C 0.66186 0.87498 0.41151 0.0
C1254 C 0.65991 0.85686 0.41454 0.0
C1255 C 0.66276 0.86155 0.40097 0.0
C1256 C 0.65818 0.86121 0.42644 0.0
C1257 C 0.65584 0.89085 0.48785 0.0
C1258 C 0.65779 0.88249 0.50856 0.0
C1259 C 0.6641 0.89957 0.50978 0.0
C1260 C 0.66077 0.89944 0.49566 0.0
C1261 C 0.66257 0.89108 0.51652 0.0
C1262 C 0.65446 0.88237 0.49436 0.0
C1263 C 0.65159 0.89094 0.47356 0.0
O1264 O 0.64976 0.89441 0.4294 0.0
O1265 O 0.63661 0.88121 0.43512 0.0
O1266 O 0.64443 0.88281 0.46885 0.0
O1267 O 0.65755 0.8961 0.46316 0.0
H1268 H 0.63916 0.89963 0.45018 0.0
H1269 H 0.6306 0.9086 0.45032 0.0
H1270 H 0.62122 0.89943 0.40609 0.0
H1271 H 0.62996 0.8907 0.40599 0.0
H1272 H 0.66569 0.87442 0.38927 0.0
H1273 H 0.66269 0.88201 0.41014 0.0
H1274 H 0.65927 0.84992 0.4161 0.0
H1275 H 0.65621 0.8575 0.43683 0.0
H1276 H 0.65658 0.87583 0.51332 0.0
H1277 H 0.66761 0.90629 0.51561 0.0
H1278 H 0.66183 0.90606 0.49095 0.0
H1279 H 0.65068 0.87563 0.48861 0.0
C1280 C 0.11985 0.74494 0.42772 0.0
C1281 C 0.11814 0.73985 0.44085 0.0
C1282 C 0.10966 0.7247 0.42773 0.0
C1283 C 0.11312 0.72983 0.44085 0.0
C1284 C 0.11137 0.72987 0.41462 0.0
C1285 C 0.11642 0.73988 0.41463 0.0
U1286 U 0.13046 0.76896 0.44732 0.0
O1287 O 0.14422 0.78223 0.44425 0.0
O1288 O 0.13081 0.78231 0.44104 0.0
C1289 C 0.14019 0.78719 0.44021 0.0
C1290 C 0.12518 0.75549 0.4275 0.0
C1291 C 0.14428 0.79334 0.42721 0.0
C1292 C 0.14914 0.79582 0.40168 0.0
C1293 C 0.14502 0.78969 0.41369 0.0
C1294 C 0.15176 0.80928 0.41656 0.0
C1295 C 0.15257 0.80571 0.40296 0.0
C1296 C 0.14767 0.80316 0.42851 0.0
C1297 C 0.12655 0.76767 0.48942 0.0
C1298 C 0.12837 0.78023 0.50602 0.0
C1299 C 0.1254 0.76501 0.51564 0.0
C1300 C 0.12523 0.76178 0.50145 0.0
C1301 C 0.12691 0.77426 0.51815 0.0
C1302 C 0.1282 0.77696 0.49177 0.0
C1303 C 0.12571 0.76371 0.47465 0.0
O1304 O 0.12016 0.75961 0.4307 0.0
O1305 O 0.13359 0.75959 0.43388 0.0
O1306 O 0.13362 0.76488 0.46869 0.0
O1307 O 0.1202 0.76493 0.46539 0.0
H1308 H 0.12068 0.74363 0.4511 0.0
H1309 H 0.11184 0.7261 0.45116 0.0
H1310 H 0.10892 0.72617 0.40429 0.0
H1311 H 0.11767 0.74367 0.40438 0.0
H1312 H 0.14955 0.79279 0.39136 0.0
H1313 H 0.14243 0.78211 0.41245 0.0
H1314 H 0.15445 0.81684 0.41808 0.0
H1315 H 0.14721 0.80614 0.43887 0.0
H1316 H 0.12966 0.78742 0.50754 0.0
H1317 H 0.12408 0.76015 0.52462 0.0
H1318 H 0.12388 0.75457 0.49986 0.0
H1319 H 0.12925 0.78164 0.48261 0.0
C1320 C 0.04834 0.60095 0.42539 0.0
C1321 C 0.04957 0.60596 0.4123 0.0
C1322 C 0.05873 0.62119 0.42505 0.0
C1323 C 0.05471 0.61598 0.41213 0.0
C1324 C 0.05746 0.61608 0.43812 0.0
C1325 C 0.05232 0.60608 0.43827 0.0
U1326 U 0.03352 0.57686 0.40642 0.0
O1327 O 0.03347 0.5633 0.40907 0.0
O1328 O 0.02043 0.56387 0.41363 0.0
C1329 C 0.02466 0.55873 0.41412 0.0
C1330 C 0.04285 0.59041 0.42579 0.0
C1331 C 0.02284 0.55271 0.42731 0.0
C1332 C 0.02831 0.54757 0.44845 0.0
C1333 C 0.03023 0.55387 0.43672 0.0
C1334 C 0.01159 0.53898 0.44176 0.0
C1335 C 0.01898 0.53995 0.45105 0.0
C1336 C 0.01351 0.54525 0.43005 0.0
C1337 C 0.02954 0.57832 0.36462 0.0
C1338 C 0.02306 0.56561 0.34649 0.0
C1339 C 0.02679 0.5816 0.33974 0.0
C1340 C 0.02978 0.58468 0.35401 0.0
C1341 C 0.02348 0.57205 0.33572 0.0
C1342 C 0.0261 0.56872 0.36083 0.0
C1343 C 0.03323 0.58209 0.3793 0.0
O1344 O 0.03362 0.58652 0.42342 0.0
O1345 O 0.04668 0.58606 0.41879 0.0
O1346 O 0.03991 0.58053 0.38449 0.0
O1347 O 0.02691 0.58115 0.38915 0.0
H1348 H 0.04656 0.60212 0.40222 0.0
H1349 H 0.05563 0.61964 0.40184 0.0
H1350 H 0.06031 0.61982 0.44831 0.0
H1351 H 0.05141 0.60233 0.44849 0.0
H1352 H 0.03421 0.54852 0.45525 0.0
H1353 H 0.03751 0.55955 0.43489 0.0
H1354 H 1.00429 0.53334 0.44353 0.0
H1355 H 1.00769 0.54419 0.42297 0.0
H1356 H 0.0206 0.55822 0.34376 0.0
H1357 H 0.02704 0.58672 0.33186 0.0
H1358 H 0.03238 0.59211 0.35673 0.0
H1359 H 0.02586 0.5637 0.36889 0.0
C1360 C 0.41393 0.45038 0.42491 0.0
C1361 C 0.40877 0.44264 0.4154 0.0
C1362 C 0.39367 0.44047 0.42479 0.0
C1363 C 0.39875 0.43771 0.4154 0.0
C1364 C 0.39888 0.4483 0.43414 0.0
C1365 C 0.40889 0.45318 0.43422 0.0
U1366 U 0.43815 0.46019 0.40598 0.0
O1367 O 0.45158 0.47382 0.40881 0.0
O1368 O 0.45127 0.46028 0.41296 0.0
C1369 C 0.4563 0.46966 0.41354 0.0
C1370 C 0.4245 0.45557 0.42531 0.0
C1371 C 0.46236 0.47383 0.42665 0.0
C1372 C 0.46612 0.48247 0.44973 0.0
C1373 C 0.4599 0.47811 0.4379 0.0
C1374 C 0.47722 0.47818 0.43937 0.0
C1375 C 0.47493 0.48266 0.45055 0.0
C1376 C 0.47102 0.47385 0.42759 0.0
C1377 C 0.43661 0.4552 0.36399 0.0
C1378 C 0.44953 0.45989 0.34645 0.0
C1379 C 0.43306 0.45096 0.33842 0.0
C1380 C 0.42999 0.4508 0.3527 0.0
C1381 C 0.44286 0.45554 0.33504 0.0
C1382 C 0.44642 0.45974 0.36083 0.0
C1383 C 0.43292 0.45491 0.3788 0.0
O1384 O 0.4286 0.45042 0.42292 0.0
O1385 O 0.42878 0.46385 0.41854 0.0
O1386 O 0.43438 0.46306 0.3842 0.0
O1387 O 0.43404 0.44953 0.38845 0.0
H1388 H 0.41249 0.44039 0.408 0.0
H1389 H 0.39498 0.43179 0.40793 0.0
H1390 H 0.3952 0.45057 0.44161 0.0
H1391 H 0.41271 0.45913 0.44163 0.0
H1392 H 0.46412 0.4859 0.45804 0.0
H1393 H 0.45324 0.47819 0.43744 0.0
H1394 H 0.48382 0.47799 0.43973 0.0
H1395 H 0.47306 0.47057 0.41907 0.0
H1396 H 0.45713 0.46352 0.34424 0.0
H1397 H 0.42771 0.44737 0.33002 0.0
H1398 H 0.42239 0.44722 0.35493 0.0
H1399 H 0.45165 0.46318 0.36943 0.0
C1400 C 0.56365 0.967 0.42513 0.0
C1401 C 0.56421 0.9624 0.4125 0.0
C1402 C 0.57381 0.95691 0.42545 0.0
C1403 C 0.56921 0.95739 0.41266 0.0
C1404 C 0.5733 0.96164 0.43802 0.0
C1405 C 0.56826 0.96661 0.43785 0.0
U1406 U 0.55292 0.98044 0.40563 0.0
O1407 O 0.53909 0.97977 0.40873 0.0
O1408 O 0.55242 0.9933 0.41218 0.0
C1409 C 0.54304 0.98873 0.41288 0.0
C1410 C 0.55829 0.97219 0.42528 0.0
C1411 C 0.5388 0.99064 0.42582 0.0
C1412 C 0.53469 0.98887 0.45165 0.0
C1413 C 0.53897 0.98703 0.43969 0.0
C1414 C 0.5301 0.99796 0.43598 0.0
C1415 C 0.53014 0.99432 0.44992 0.0
C1416 C 0.53437 0.99613 0.42409 0.0
C1417 C 0.55663 0.98346 0.36351 0.0
C1418 C 0.55768 0.99566 0.34673 0.0
C1419 C 0.55497 0.98052 0.33734 0.0
C1420 C 0.55511 0.97745 0.35157 0.0
C1421 C 0.55637 0.98971 0.33469 0.0
C1422 C 0.5578 0.99256 0.36101 0.0
C1423 C 0.55761 0.98023 0.3782 0.0
O1424 O 0.56327 0.98135 0.42217 0.0
O1425 O 0.54987 0.96787 0.4189 0.0
O1426 O 0.54979 0.97333 0.38416 0.0
O1427 O 0.56315 0.98687 0.38755 0.0
H1428 H 0.56073 0.96264 0.40252 0.0
H1429 H 0.56934 0.95376 0.40282 0.0
H1430 H 0.57687 0.96159 0.448 0.0
H1431 H 0.56797 0.97016 0.4477 0.0
H1432 H 0.53481 0.98589 0.46218 0.0
H1433 H 0.54235 0.98275 0.44124 0.0
H1434 H 0.52683 1.00232 0.43423 0.0
H1435 H 0.53419 0.99902 0.41349 0.0
H1436 H 0.55866 1.00274 0.34512 0.0
H1437 H 0.55409 0.97578 0.32838 0.0
H1438 H 0.55427 0.97042 0.35322 0.0
H1439 H 0.55896 0.99734 0.37004 0.0
H1440 H 0.12716 0.3388 0.15799 0.0
H1441 H 0.13129 0.34338 0.13236 0.0
H1442 H 0.10254 0.32266 0.1196 0.0
H1443 H 0.09845 0.31789 0.14505 0.0
H1444 H 0.11527 0.32229 0.10122 0.0
H1445 H 0.10979 0.34648 0.12233 0.0
H1446 H 0.11243 0.35909 0.13994 0.0
H1447 H 0.14184 0.37543 0.12685 0.0
H1448 H 0.1394 0.36285 0.10928 0.0
H1449 H 0.111 0.3386 0.03138 0.0
H1450 H 0.10955 0.33365 0.05686 0.0
H1451 H 0.1385 0.35609 0.06491 0.0
H1452 H 0.13999 0.3611 0.03937 0.0
H1453 H 0.12718 0.35583 0.08587 0.0
H1454 H 0.1324 0.33223 0.06335 0.0
H1455 H 0.12976 0.31966 0.04565 0.0
H1456 H 0.10105 0.30222 0.06129 0.0
H1457 H 0.10347 0.31474 0.07895 0.0
C1458 C 0.12175 0.33515 0.14971 0.0
C1459 C 0.11244 0.32804 0.15362 0.0
C1460 C 0.1241 0.33782 0.13506 0.0
C1461 C 0.1172 0.33345 0.12403 0.0
C1462 C 0.10799 0.32617 0.12788 0.0
C1463 C 0.10563 0.32352 0.14248 0.0
C1464 C 0.11943 0.33651 0.10849 0.0
C1465 C 0.11781 0.32961 0.09785 0.0
C1466 C 0.12298 0.34611 0.10408 0.0
C1467 C 0.12444 0.35368 0.11462 0.0
C1468 C 0.11684 0.35273 0.12329 0.0
C1469 C 0.1183 0.35988 0.13325 0.0
C1470 C 0.12731 0.36804 0.13454 0.0
C1471 C 0.13487 0.36909 0.12585 0.0
C1472 C 0.13346 0.36196 0.11589 0.0
C1473 C 0.11713 0.34239 0.03848 0.0
C1474 C 0.12563 0.35024 0.03326 0.0
C1475 C 0.11628 0.33955 0.0531 0.0
C1476 C 0.12395 0.34442 0.06284 0.0
C1477 C 0.13248 0.35221 0.05764 0.0
C1478 C 0.13331 0.35508 0.04303 0.0
C1479 C 0.12292 0.34159 0.07854 0.0
C1480 C 0.12475 0.34853 0.08922 0.0
C1481 C 0.11958 0.33203 0.08298 0.0
C1482 C 0.1181 0.32446 0.07239 0.0
C1483 C 0.1255 0.32575 0.06294 0.0
C1484 C 0.12405 0.31863 0.05293 0.0
C1485 C 0.11524 0.31016 0.05232 0.0
C1486 C 0.10787 0.30879 0.06176 0.0
C1487 C 0.10928 0.31589 0.07178 0.0
H1488 H 0.11413 0.30466 0.04456 0.0
H1489 H 0.12842 0.37357 0.14226 0.0
H1490 H 0.68763 0.80107 0.15336 0.0
H1491 H 0.68268 0.79992 0.12777 0.0
H1492 H 0.68096 0.77248 0.12434 0.0
H1493 H 0.68589 0.7736 0.14974 0.0
H1494 H 0.69045 0.78333 0.10187 0.0
H1495 H 0.66083 0.775 0.12638 0.0
H1496 H 0.65044 0.77755 0.14325 0.0
H1497 H 0.65617 0.80288 0.11975 0.0
H1498 H 0.66671 0.80055 0.10284 0.0
H1499 H 0.66349 0.76251 0.03864 0.0
H1500 H 0.66911 0.76669 0.0637 0.0
H1501 H 0.67089 0.79405 0.05837 0.0
H1502 H 0.66504 0.7898 0.03318 0.0
H1503 H 0.66251 0.78551 0.08456 0.0
H1504 H 0.69103 0.79296 0.05876 0.0
H1505 H 0.7012 0.79019 0.04175 0.0
H1506 H 0.69749 0.76643 0.0677 0.0
H1507 H 0.68718 0.76897 0.08476 0.0
C1508 C 0.68608 0.79474 0.14719 0.0
C1509 C 0.68724 0.78746 0.15359 0.0
C1510 C 0.68326 0.79409 0.13255 0.0
C1511 C 0.68144 0.7861 0.12407 0.0
C1512 C 0.6824 0.77876 0.13057 0.0
C1513 C 0.68525 0.77942 0.14512 0.0
C1514 C 0.6788 0.78541 0.10832 0.0
C1515 C 0.68428 0.78373 0.09813 0.0
C1516 C 0.67096 0.78625 0.10329 0.0
C1517 C 0.66465 0.78767 0.11346 0.0
C1518 C 0.65994 0.78116 0.12489 0.0
C1519 C 0.65401 0.78256 0.13444 0.0
C1520 C 0.65267 0.79039 0.1326 0.0
C1521 C 0.65724 0.79683 0.12118 0.0
C1522 C 0.66318 0.79547 0.1116 0.0
C1523 C 0.66502 0.76941 0.04278 0.0
C1524 C 0.66377 0.7758 0.03389 0.0
C1525 C 0.66832 0.77182 0.05711 0.0
C1526 C 0.67051 0.78073 0.06292 0.0
C1527 C 0.66926 0.78715 0.05411 0.0
C1528 C 0.66599 0.78474 0.03969 0.0
C1529 C 0.67401 0.78317 0.07823 0.0
C1530 C 0.66873 0.78521 0.0883 0.0
C1531 C 0.68203 0.78265 0.08319 0.0
C1532 C 0.68827 0.78112 0.07299 0.0
C1533 C 0.69232 0.7871 0.06078 0.0
C1534 C 0.69812 0.78558 0.05114 0.0
C1535 C 0.69998 0.77813 0.05363 0.0
C1536 C 0.69604 0.77219 0.06578 0.0
C1537 C 0.69023 0.77368 0.07546 0.0
H1538 H 0.70447 0.77696 0.04615 0.0
H1539 H 0.64807 0.79146 0.14 0.0
H1540 H 0.23467 0.91743 0.14626 0.0
H1541 H 0.23508 0.91347 0.12071 0.0
H1542 H 0.22102 0.88351 0.13173 0.0
H1543 H 0.2208 0.88746 0.15752 0.0
H1544 H 0.23593 0.88843 0.11325 0.0
H1545 H 0.20876 0.89268 0.11464 0.0
H1546 H 0.19979 0.90091 0.12035 0.0
H1547 H 0.21877 0.92454 0.0932 0.0
H1548 H 0.22794 0.91651 0.08749 0.0
H1549 H 0.22932 0.87473 0.03831 0.0
H1550 H 0.22613 0.87639 0.06393 0.0
H1551 H 0.23889 0.90685 0.05808 0.0
H1552 H 0.24207 0.90524 0.03251 0.0
H1553 H 0.22318 0.90024 0.07417 0.0
H1554 H 0.25106 0.89666 0.0744 0.0
H1555 H 0.26027 0.88865 0.06885 0.0
H1556 H 0.24011 0.86394 0.09305 0.0
H1557 H 0.23071 0.87176 0.09858 0.0
C1558 C 0.23171 0.90999 0.14331 0.0
C1559 C 0.22773 0.90277 0.154 0.0
C1560 C 0.23186 0.90773 0.12864 0.0
C1561 C 0.22798 0.89818 0.12423 0.0
C1562 C 0.22402 0.89093 0.13485 0.0
C1563 C 0.22384 0.89319 0.14957 0.0
C1564 C 0.22828 0.89586 0.10857 0.0
C1565 C 0.23299 0.89086 0.10472 0.0
C1566 C 0.22461 0.89918 0.09739 0.0
C1567 C 0.21908 0.90402 0.10073 0.0
C1568 C 0.21106 0.89966 0.10997 0.0
C1569 C 0.20594 0.90429 0.11319 0.0
C1570 C 0.20872 0.91325 0.10716 0.0
C1571 C 0.21662 0.9176 0.09787 0.0
C1572 C 0.22178 0.913 0.09462 0.0
C1573 C 0.23146 0.88179 0.04248 0.0
C1574 C 0.23598 0.88985 0.03332 0.0
C1575 C 0.22963 0.88273 0.05715 0.0
C1576 C 0.23238 0.89177 0.06304 0.0
C1577 C 0.23668 0.89979 0.05383 0.0
C1578 C 0.23847 0.89886 0.03916 0.0
C1579 C 0.23096 0.89294 0.07882 0.0
C1580 C 0.22605 0.89773 0.0827 0.0
C1581 C 0.23446 0.88945 0.09002 0.0
C1582 C 0.24013 0.88475 0.08677 0.0
C1583 C 0.24855 0.88949 0.07844 0.0
C1584 C 0.25381 0.88499 0.07532 0.0
C1585 C 0.25076 0.87578 0.08056 0.0
C1586 C 0.24246 0.87106 0.08898 0.0
C1587 C 0.23716 0.87553 0.09212 0.0
H1588 H 0.25484 0.8723 0.07813 0.0
H1589 H 0.20474 0.91682 0.10967 0.0
H1590 H 0.31981 0.10987 0.37278 0.0
H1591 H 0.32439 0.11319 0.39847 0.0
H1592 H 0.35201 0.11664 0.3884 0.0
H1593 H 0.34752 0.11341 0.3627 0.0
H1594 H 0.34429 0.10519 0.41145 0.0
H1595 H 0.34922 0.13588 0.39676 0.0
H1596 H 0.34475 0.14709 0.38599 0.0
H1597 H 0.3222 0.13841 0.41742 0.0
H1598 H 0.32646 0.12705 0.42826 0.0
H1599 H 0.36755 0.12375 0.47847 0.0
H1600 H 0.36297 0.1222 0.45283 0.0
H1601 H 0.33558 0.1186 0.46494 0.0
H1602 H 0.34024 0.12046 0.49071 0.0
H1603 H 0.34271 0.13001 0.44111 0.0
H1604 H 0.33765 0.0994 0.4558 0.0
H1605 H 0.34191 0.08806 0.46666 0.0
H1606 H 0.36438 0.09635 0.43519 0.0
H1607 H 0.36034 0.10784 0.42427 0.0
C1608 C 0.32693 0.11151 0.37597 0.0
C1609 C 0.33328 0.11135 0.36562 0.0
C1610 C 0.32953 0.11339 0.3907 0.0
C1611 C 0.33857 0.11521 0.39541 0.0
C1612 C 0.34498 0.11522 0.38507 0.0
C1613 C 0.34239 0.11334 0.37036 0.0
C1614 C 0.34122 0.11671 0.41117 0.0
C1615 C 0.34408 0.11071 0.41786 0.0
C1616 C 0.34066 0.12371 0.41971 0.0
C1617 C 0.3381 0.13054 0.41323 0.0
C1618 C 0.34326 0.1363 0.4013 0.0
C1619 C 0.34077 0.1427 0.39519 0.0
C1620 C 0.33318 0.14344 0.40099 0.0
C1621 C 0.32807 0.13782 0.41293 0.0
C1622 C 0.33052 0.1314 0.41907 0.0
C1623 C 0.3606 0.12279 0.47572 0.0
C1624 C 0.35427 0.12223 0.48673 0.0
C1625 C 0.35795 0.1218 0.46102 0.0
C1626 C 0.34887 0.12014 0.45692 0.0
C1627 C 0.34261 0.11982 0.46782 0.0
C1628 C 0.34526 0.12081 0.48257 0.0
C1629 C 0.34589 0.11856 0.4413 0.0
C1630 C 0.34293 0.1245 0.43467 0.0
C1631 C 0.34632 0.11148 0.4328 0.0
C1632 C 0.34875 0.10455 0.43931 0.0
C1633 C 0.34355 0.09886 0.45127 0.0
C1634 C 0.34592 0.09239 0.45742 0.0
C1635 C 0.35343 0.0915 0.45164 0.0
C1636 C 0.35857 0.09706 0.43967 0.0
C1637 C 0.35624 0.10354 0.43348 0.0
H1638 H 0.35525 0.08649 0.45642 0.0
H1639 H 0.33127 0.1484 0.39625 0.0
H1640 H 0.89033 0.22087 0.49006 0.0
H1641 H 0.89189 0.21753 0.46445 0.0
H1642 H 0.89512 0.24474 0.45199 0.0
H1643 H 0.89359 0.24812 0.47745 0.0
H1644 H 0.88338 0.23123 0.43363 0.0
H1645 H 0.91439 0.24097 0.45431 0.0
H1646 H 0.92564 0.24017 0.47167 0.0
H1647 H 0.91639 0.21139 0.45822 0.0
H1648 H 0.90499 0.21199 0.44091 0.0
H1649 H 0.90415 0.23856 0.36349 0.0
H1650 H 0.90048 0.23929 0.38911 0.0
H1651 H 0.89803 0.21181 0.39668 0.0
H1652 H 0.90207 0.21119 0.37112 0.0
H1653 H 0.90833 0.22391 0.41767 0.0
H1654 H 0.87812 0.21457 0.39566 0.0
H1655 H 0.86695 0.21543 0.37822 0.0
H1656 H 0.8746 0.24335 0.39406 0.0
H1657 H 0.88592 0.24272 0.41147 0.0
C1658 C 0.89142 0.22617 0.48187 0.0
C1659 C 0.89181 0.23476 0.48586 0.0
C1660 C 0.89231 0.22424 0.46722 0.0
C1661 C 0.8937 0.23091 0.45625 0.0
C1662 C 0.894 0.23945 0.4602 0.0
C1663 C 0.89309 0.24136 0.4748 0.0
C1664 C 0.8949 0.2291 0.44065 0.0
C1665 C 0.8889 0.22972 0.43013 0.0
C1666 C 0.90191 0.22684 0.43606 0.0
C1667 C 0.90877 0.22649 0.44644 0.0
C1668 C 0.9147 0.23445 0.45514 0.0
C1669 C 0.92112 0.23404 0.46495 0.0
C1670 C 0.92171 0.22572 0.46608 0.0
C1671 C 0.91591 0.21782 0.45736 0.0
C1672 C 0.90948 0.21819 0.44754 0.0
C1673 C 0.90285 0.23267 0.37059 0.0
C1674 C 0.90344 0.22483 0.36519 0.0
C1675 C 0.90065 0.23305 0.38524 0.0
C1676 C 0.89887 0.22556 0.39486 0.0
C1677 C 0.89934 0.21767 0.38949 0.0
C1678 C 0.90156 0.21728 0.37481 0.0
C1679 C 0.8969 0.22618 0.41061 0.0
C1680 C 0.90275 0.22533 0.42116 0.0
C1681 C 0.88975 0.22822 0.41523 0.0
C1682 C 0.88293 0.22862 0.40479 0.0
C1683 C 0.87748 0.22092 0.39535 0.0
C1684 C 0.87111 0.22136 0.38549 0.0
C1685 C 0.87008 0.22944 0.38501 0.0
C1686 C 0.87541 0.2371 0.39443 0.0
C1687 C 0.88179 0.23669 0.40431 0.0
H1688 H 0.86514 0.22977 0.37737 0.0
H1689 H 0.92668 0.22542 0.47368 0.0
H1690 H 0.79418 0.67332 0.36162 0.0
H1691 H 0.79381 0.66868 0.38722 0.0
H1692 H 0.78537 0.68903 0.40019 0.0
H1693 H 0.78597 0.69386 0.37479 0.0
H1694 H 0.7986 0.68958 0.4185 0.0
H1695 H 0.76904 0.66513 0.39727 0.0
H1696 H 0.75918 0.65248 0.37961 0.0
H1697 H 0.77263 0.63649 0.39263 0.0
H1698 H 0.78267 0.64911 0.41024 0.0
H1699 H 0.77799 0.67293 0.48818 0.0
H1700 H 0.7815 0.67795 0.46273 0.0
H1701 H 0.78844 0.65583 0.45471 0.0
H1702 H 0.7849 0.65074 0.48022 0.0
H1703 H 0.77729 0.65593 0.43369 0.0
H1704 H 0.80597 0.67974 0.45635 0.0
H1705 H 0.81579 0.69232 0.47411 0.0
H1706 H 0.8042 0.70949 0.45853 0.0
H1707 H 0.79421 0.69696 0.4408 0.0
C1708 C 0.79235 0.67687 0.36995 0.0
C1709 C 0.79002 0.6839 0.36611 0.0
C1710 C 0.79206 0.67416 0.38457 0.0
C1711 C 0.78944 0.67842 0.39565 0.0
C1712 C 0.78737 0.68561 0.39187 0.0
C1713 C 0.78763 0.6883 0.3773 0.0
C1714 C 0.78866 0.67533 0.41117 0.0
C1715 C 0.79388 0.68223 0.42184 0.0
C1716 C 0.78271 0.6657 0.41552 0.0
C1717 C 0.77668 0.65811 0.40495 0.0
C1718 C 0.76995 0.65895 0.39628 0.0
C1719 C 0.76432 0.65178 0.3863 0.0
C1720 C 0.7653 0.6437 0.38497 0.0
C1721 C 0.7719 0.64276 0.39365 0.0
C1722 C 0.77756 0.64992 0.40364 0.0
C1723 C 0.78042 0.66923 0.48109 0.0
C1724 C 0.78119 0.66144 0.4863 0.0
C1725 C 0.78242 0.67211 0.46649 0.0
C1726 C 0.78534 0.66734 0.45677 0.0
C1727 C 0.78619 0.65962 0.46196 0.0
C1728 C 0.78415 0.65671 0.47656 0.0
C1729 C 0.78713 0.6702 0.44109 0.0
C1730 C 0.7821 0.66326 0.43037 0.0
C1731 C 0.79327 0.67979 0.4367 0.0
C1732 C 0.79928 0.68737 0.44732 0.0
C1733 C 0.80546 0.68617 0.45678 0.0
C1734 C 0.81107 0.6933 0.46683 0.0
C1735 C 0.8106 0.70169 0.46747 0.0
C1736 C 0.80455 0.70298 0.45803 0.0
C1737 C 0.79892 0.69587 0.44796 0.0
H1738 H 0.81495 0.70721 0.47526 0.0
H1739 H 0.76093 0.63816 0.37724 0.0
H1740 H 0.91649 0.69774 0.87647 0.0
H1741 H 0.91343 0.69289 0.90201 0.0
H1742 H 0.88906 0.666 0.88948 0.0
H1743 H 0.89191 0.67093 0.8638 0.0
H1744 H 0.88524 0.6733 0.91375 0.0
H1745 H 0.90986 0.6671 0.89814 0.0
H1746 H 0.92522 0.67087 0.88693 0.0
H1747 H 0.94031 0.69293 0.91867 0.0
H1748 H 0.92503 0.68939 0.92995 0.0
H1749 H 0.88198 0.64977 0.98176 0.0
H1750 H 0.8832 0.65446 0.95611 0.0
H1751 H 0.90828 0.68148 0.96594 0.0
H1752 H 0.90707 0.67687 0.99159 0.0
H1753 H 0.9113 0.67351 0.94268 0.0
H1754 H 0.88653 0.67971 0.9582 0.0
H1755 H 0.87111 0.67583 0.96931 0.0
H1756 H 0.85622 0.65356 0.9378 0.0
H1757 H 0.87157 0.65722 0.92662 0.0
C1758 C 0.91038 0.69085 0.87911 0.0
C1759 C 0.90445 0.68473 0.86801 0.0
C1760 C 0.90869 0.68805 0.89375 0.0
C1761 C 0.90109 0.67903 0.89769 0.0
C1762 C 0.895 0.67298 0.88671 0.0
C1763 C 0.89669 0.67578 0.87202 0.0
C1764 C 0.89966 0.67588 0.91323 0.0
C1765 C 0.89089 0.67322 0.92003 0.0
C1766 C 0.90708 0.67591 0.92152 0.0
C1767 C 0.91629 0.67804 0.91481 0.0
C1768 C 0.91645 0.67281 0.90267 0.0
C1769 C 0.92514 0.67489 0.89631 0.0
C1770 C 0.93374 0.68215 0.90206 0.0
C1771 C 0.93365 0.68732 0.91421 0.0
C1772 C 0.92497 0.68527 0.9206 0.0
C1773 C 0.88765 0.65678 0.97853 0.0
C1774 C 0.89444 0.66293 0.98878 0.0
C1775 C 0.88836 0.65945 0.96382 0.0
C1776 C 0.89581 0.66835 0.95905 0.0
C1777 C 0.90249 0.67456 0.96931 0.0
C1778 C 0.9018 0.6719 0.98399 0.0
C1779 C 0.89692 0.67105 0.94331 0.0
C1780 C 0.90564 0.67359 0.93643 0.0
C1781 C 0.88945 0.67088 0.93497 0.0
C1782 C 0.88021 0.66867 0.94167 0.0
C1783 C 0.87997 0.67393 0.95372 0.0
C1784 C 0.87124 0.67178 0.96001 0.0
C1785 C 0.86269 0.66444 0.95429 0.0
C1786 C 0.86285 0.65924 0.94223 0.0
C1787 C 0.87157 0.66135 0.93591 0.0
H1788 H 0.85594 0.66279 0.95918 0.0
H1789 H 0.94046 0.68375 0.89713 0.0
H1790 H 0.31477 0.21266 0.87667 0.0
H1791 H 0.32015 0.21432 0.90197 0.0
H1792 H 0.34941 0.23148 0.8879 0.0
H1793 H 0.34408 0.22997 0.86253 0.0
H1794 H 0.3474 0.21864 0.90949 0.0
H1795 H 0.33786 0.24211 0.90147 0.0
H1796 H 0.32684 0.24772 0.89396 0.0
H1797 H 0.30651 0.22961 0.92617 0.0
H1798 H 0.31737 0.22378 0.93374 0.0
H1799 H 0.36877 0.24138 0.97642 0.0
H1800 H 0.36297 0.23724 0.95143 0.0
H1801 H 0.3339 0.22254 0.96706 0.0
H1802 H 0.33965 0.22701 0.99211 0.0
H1803 H 0.3354 0.23343 0.94476 0.0
H1804 H 0.34505 0.21037 0.95363 0.0
H1805 H 0.35589 0.20453 0.96112 0.0
H1806 H 0.37573 0.22145 0.92756 0.0
H1807 H 0.36507 0.22749 0.91999 0.0
C1808 C 0.32236 0.21681 0.87892 0.0
C1809 C 0.32897 0.22127 0.86752 0.0
C1810 C 0.32542 0.21773 0.89341 0.0
C1811 C 0.33518 0.22314 0.89688 0.0
C1812 C 0.34185 0.22727 0.8855 0.0
C1813 C 0.33878 0.22638 0.87098 0.0
C1814 C 0.33838 0.22477 0.91239 0.0
C1815 C 0.34486 0.22196 0.91717 0.0
C1816 C 0.33489 0.2289 0.92253 0.0
C1817 C 0.32838 0.23244 0.91807 0.0
C1818 C 0.33101 0.23927 0.90688 0.0
C1819 C 0.3248 0.24249 0.90262 0.0
C1820 C 0.31597 0.239 0.90956 0.0
C1821 C 0.31335 0.23229 0.9208 0.0
C1822 C 0.31953 0.22903 0.92508 0.0
C1823 C 0.36114 0.23728 0.97458 0.0
C1824 C 0.35469 0.23458 0.98635 0.0
C1825 C 0.35782 0.23481 0.96025 0.0
C1826 C 0.34798 0.22948 0.95729 0.0
C1827 C 0.34152 0.22663 0.96903 0.0
C1828 C 0.34483 0.22913 0.98338 0.0
C1829 C 0.34444 0.2273 0.94194 0.0
C1830 C 0.3379 0.23004 0.93715 0.0
C1831 C 0.34786 0.22307 0.93182 0.0
C1832 C 0.35429 0.21945 0.93633 0.0
C1833 C 0.35176 0.2129 0.94792 0.0
C1834 C 0.35786 0.20955 0.95217 0.0
C1835 C 0.3665 0.21263 0.94485 0.0
C1836 C 0.36904 0.21907 0.93323 0.0
C1837 C 0.36297 0.22245 0.92895 0.0
H1838 H 0.37122 0.21003 0.94815 0.0
H1839 H 0.31117 0.24151 0.90625 0.0
H1840 H 0.80421 0.10808 0.87604 0.0
H1841 H 0.80263 0.11185 0.90134 0.0
H1842 H 0.78108 0.11867 0.88839 0.0
H1843 H 0.78254 0.11482 0.86306 0.0
H1844 H 0.79338 0.13144 0.90843 0.0
H1845 H 0.77475 0.09721 0.90355 0.0
H1846 H 0.77207 0.08123 0.89716 0.0
H1847 H 0.79351 0.08451 0.92803 0.0
H1848 H 0.79642 0.10057 0.93446 0.0
H1849 H 0.77072 0.12749 0.97628 0.0
H1850 H 0.77498 0.12608 0.95127 0.0
H1851 H 0.79464 0.11742 0.96714 0.0
H1852 H 0.79009 0.11842 0.99227 0.0
H1853 H 0.78431 0.10608 0.9458 0.0
H1854 H 0.80241 0.13993 0.95181 0.0
H1855 H 0.80524 0.15596 0.95818 0.0
H1856 H 0.78517 0.15361 0.92541 0.0
H1857 H 0.78212 0.1375 0.91897 0.0
C1858 C 0.79912 0.11037 0.87855 0.0
C1859 C 0.79344 0.11105 0.86747 0.0
C1860 C 0.79824 0.11254 0.89304 0.0
C1861 C 0.79164 0.11542 0.89683 0.0
C1862 C 0.78622 0.11647 0.88575 0.0
C1863 C 0.78709 0.11429 0.87124 0.0
C1864 C 0.79013 0.11699 0.9124 0.0
C1865 C 0.7913 0.12587 0.91658 0.0
C1866 C 0.78766 0.10981 0.92314 0.0
C1867 C 0.78587 0.10013 0.91937 0.0
C1868 C 0.77894 0.09455 0.9089 0.0
C1869 C 0.77738 0.08547 0.90528 0.0
C1870 C 0.78263 0.08187 0.91216 0.0
C1871 C 0.78945 0.08732 0.9227 0.0
C1872 C 0.79106 0.09641 0.92634 0.0
C1873 C 0.77594 0.12526 0.9745 0.0
C1874 C 0.78002 0.12302 0.98636 0.0
C1875 C 0.77846 0.12457 0.96014 0.0
C1876 C 0.78522 0.12174 0.95724 0.0
C1877 C 0.78943 0.11965 0.96906 0.0
C1878 C 0.78688 0.12031 0.98345 0.0
C1879 C 0.78753 0.12054 0.94189 0.0
C1880 C 0.78647 0.1117 0.93772 0.0
C1881 C 0.79013 0.12777 0.93118 0.0
C1882 C 0.79197 0.13747 0.93499 0.0
C1883 C 0.79854 0.1428 0.94603 0.0
C1884 C 0.8002 0.15191 0.94964 0.0
C1885 C 0.79538 0.15579 0.94222 0.0
C1886 C 0.7889 0.15059 0.93115 0.0
C1887 C 0.78721 0.14147 0.92751 0.0
H1888 H 0.79667 0.16285 0.94503 0.0
H1889 H 0.78141 0.07484 0.90935 0.0
H1890 H 0.67915 0.90448 0.52977 0.0
H1891 H 0.68363 0.90534 0.5554 0.0
H1892 H 0.65762 0.87883 0.56391 0.0
H1893 H 0.65292 0.87809 0.53834 0.0
H1894 H 0.6604 0.89162 0.58439 0.0
H1895 H 0.67954 0.87999 0.56289 0.0
H1896 H 0.69103 0.87971 0.54552 0.0
H1897 H 0.71276 0.9073 0.56051 0.0
H1898 H 0.70135 0.90781 0.57784 0.0
H1899 H 0.67469 0.88792 0.65688 0.0
H1900 H 0.66971 0.88464 0.6313 0.0
H1901 H 0.69486 0.91086 0.6185 0.0
H1902 H 0.69985 0.91419 0.64396 0.0
H1903 H 0.692 0.89685 0.60035 0.0
H1904 H 0.67256 0.90887 0.62063 0.0
H1905 H 0.66105 0.90922 0.63792 0.0
H1906 H 0.63989 0.88081 0.62513 0.0
H1907 H 0.65132 0.88025 0.60789 0.0
C1908 C 0.67436 0.89883 0.53708 0.0
C1909 C 0.66565 0.89122 0.53194 0.0
C1910 C 0.67699 0.89928 0.55174 0.0
C1911 C 0.67102 0.8921 0.56162 0.0
C1912 C 0.66237 0.88444 0.55651 0.0
C1913 C 0.65973 0.88398 0.54183 0.0
C1914 C 0.67367 0.8928 0.57736 0.0
C1915 C 0.66725 0.89259 0.58788 0.0
C1916 C 0.68267 0.89426 0.58198 0.0
C1917 C 0.68956 0.89397 0.57158 0.0
C1918 C 0.68674 0.88603 0.56241 0.0
C1919 C 0.69325 0.88583 0.55258 0.0
C1920 C 0.70261 0.89349 0.55189 0.0
C1921 C 0.7055 0.90137 0.56105 0.0
C1922 C 0.69902 0.90162 0.57089 0.0
C1923 C 0.67914 0.89301 0.64863 0.0
C1924 C 0.68769 0.90132 0.65253 0.0
C1925 C 0.67628 0.89112 0.63399 0.0
C1926 C 0.68186 0.89754 0.62293 0.0
C1927 C 0.69045 0.90577 0.62679 0.0
C1928 C 0.69331 0.90765 0.64139 0.0
C1929 C 0.67878 0.89578 0.60734 0.0
C1930 C 0.68512 0.8958 0.59685 0.0
C1931 C 0.66971 0.89414 0.60276 0.0
C1932 C 0.66283 0.89448 0.61309 0.0
C1933 C 0.66547 0.90267 0.62159 0.0
C1934 C 0.65896 0.90291 0.63137 0.0
C1935 C 0.64976 0.89503 0.63266 0.0
C1936 C 0.64703 0.8869 0.62414 0.0
C1937 C 0.65352 0.88662 0.61436 0.0
H1938 H 0.64473 0.89523 0.64023 0.0
H1939 H 0.70764 0.89332 0.54428 0.0
H1940 H 0.1082 0.79876 0.64291 0.0
H1941 H 0.11204 0.79716 0.61768 0.0
H1942 H 0.12441 0.78029 0.63199 0.0
H1943 H 0.12045 0.78173 0.6573 0.0
H1944 H 0.13518 0.79322 0.61033 0.0
H1945 H 0.10229 0.76936 0.61836 0.0
H1946 H 0.08562 0.7635 0.62589 0.0
H1947 H 0.08301 0.78136 0.59362 0.0
H1948 H 0.09973 0.78743 0.58604 0.0
H1949 H 0.13414 0.77083 0.54312 0.0
H1950 H 0.13244 0.77481 0.56819 0.0
H1951 H 0.11762 0.78914 0.55287 0.0
H1952 H 0.11893 0.78482 0.52776 0.0
H1953 H 0.10836 0.77806 0.57505 0.0
H1954 H 0.14098 0.80157 0.56624 0.0
H1955 H 0.1577 0.80767 0.55876 0.0
H1956 H 0.16096 0.79088 0.5922 0.0
H1957 H 0.14421 0.78458 0.59977 0.0
C1958 C 0.11172 0.79468 0.64073 0.0
C1959 C 0.11391 0.79028 0.65219 0.0
C1960 C 0.11394 0.79381 0.62627 0.0
C1961 C 0.11839 0.78849 0.62289 0.0
C1962 C 0.12096 0.78442 0.63432 0.0
C1963 C 0.11872 0.78528 0.64881 0.0
C1964 C 0.11999 0.78686 0.60741 0.0
C1965 C 0.12931 0.78981 0.60264 0.0
C1966 C 0.11236 0.78262 0.59727 0.0
C1967 C 0.10229 0.77892 0.60174 0.0
C1968 C 0.09819 0.77209 0.61295 0.0
C1969 C 0.08872 0.76872 0.61721 0.0
C1970 C 0.08327 0.77207 0.61026 0.0
C1971 C 0.08725 0.77878 0.59901 0.0
C1972 C 0.09672 0.78218 0.59472 0.0
C1973 C 0.1305 0.77481 0.54505 0.0
C1974 C 0.12664 0.77746 0.53335 0.0
C1975 C 0.12963 0.77719 0.55942 0.0
C1976 C 0.12498 0.78236 0.56248 0.0
C1977 C 0.12126 0.78516 0.55082 0.0
C1978 C 0.1221 0.78276 0.53643 0.0
C1979 C 0.12358 0.78444 0.57787 0.0
C1980 C 0.11427 0.78153 0.58266 0.0
C1981 C 0.13123 0.78875 0.58799 0.0
C1982 C 0.14131 0.79253 0.58348 0.0
C1983 C 0.14524 0.79912 0.57193 0.0
C1984 C 0.15473 0.80262 0.56768 0.0
C1985 C 0.16038 0.79965 0.57498 0.0
C1986 C 0.15657 0.79317 0.58655 0.0
C1987 C 0.14708 0.78964 0.59084 0.0
H1988 H 0.16773 0.80237 0.57167 0.0
H1989 H 0.07594 0.76945 0.61358 0.0
H1990 H 0.21258 0.32102 0.65125 0.0
H1991 H 0.21335 0.32621 0.62591 0.0
H1992 H 0.24406 0.34318 0.62901 0.0
H1993 H 0.24331 0.33834 0.65441 0.0
H1994 H 0.23736 0.35275 0.61461 0.0
H1995 H 0.23237 0.32064 0.61258 0.0
H1996 H 0.22377 0.30335 0.6178 0.0
H1997 H 0.19885 0.30028 0.59602 0.0
H1998 H 0.20727 0.31759 0.59083 0.0
H1999 H 0.25311 0.35917 0.54198 0.0
H2000 H 0.24943 0.35421 0.56739 0.0
H2001 H 0.21932 0.33895 0.55734 0.0
H2002 H 0.22297 0.34391 0.53172 0.0
H2003 H 0.22386 0.32856 0.57516 0.0
H2004 H 0.22944 0.36048 0.57516 0.0
H2005 H 0.23816 0.37774 0.56972 0.0
H2006 H 0.26197 0.3812 0.59526 0.0
H2007 H 0.25345 0.36393 0.60069 0.0
C2008 C 0.21948 0.32597 0.64661 0.0
C2009 C 0.22789 0.32918 0.65487 0.0
C2010 C 0.21992 0.32886 0.63205 0.0
C2011 C 0.22878 0.33498 0.62542 0.0
C2012 C 0.23714 0.33842 0.6338 0.0
C2013 C 0.2367 0.33557 0.64832 0.0
C2014 C 0.22946 0.33771 0.60971 0.0
C2015 C 0.23447 0.34745 0.606 0.0
C2016 C 0.22545 0.33083 0.59842 0.0
C2017 C 0.22041 0.32042 0.60147 0.0
C2018 C 0.22503 0.31629 0.609 0.0
C2019 C 0.2202 0.30648 0.61194 0.0
C2020 C 0.21076 0.30072 0.60728 0.0
C2021 C 0.20615 0.30475 0.59964 0.0
C2022 C 0.21095 0.31456 0.5967 0.0
C2023 C 0.24569 0.35484 0.54517 0.0
C2024 C 0.23833 0.35205 0.53481 0.0
C2025 C 0.24359 0.35199 0.55973 0.0
C2026 C 0.23409 0.34635 0.56439 0.0
C2027 C 0.22671 0.34334 0.55404 0.0
C2028 C 0.22881 0.34617 0.53939 0.0
C2029 C 0.23195 0.34359 0.58007 0.0
C2030 C 0.22666 0.33386 0.58378 0.0
C2031 C 0.2357 0.35048 0.59138 0.0
C2032 C 0.24082 0.36089 0.58825 0.0
C2033 C 0.23656 0.36491 0.57955 0.0
C2034 C 0.24146 0.3747 0.57647 0.0
C2035 C 0.25062 0.38056 0.58212 0.0
C2036 C 0.25488 0.37665 0.59088 0.0
C2037 C 0.25001 0.36686 0.59398 0.0
H2038 H 0.25441 0.38814 0.57972 0.0
H2039 H 0.20703 0.29313 0.60957 0.0
H2040 H 0.01136 0.44078 0.69813 0.0
H2041 H 0.01561 0.4441 0.72386 0.0
H2042 H 0.9938 0.45173 0.72967 0.0
H2043 H 0.98937 0.44825 0.70389 0.0
H2044 H 0.01063 0.46398 0.7446 0.0
H2045 H 0.98916 0.43037 0.74034 0.0
H2046 H 0.98305 0.41423 0.73016 0.0
H2047 H 0.00884 0.41471 0.74302 0.0
H2048 H 0.01518 0.43093 0.75308 0.0
H2049 H 0.01163 0.46061 0.82289 0.0
H2050 H 1.0064 0.45864 0.79736 0.0
H2051 H 0.02602 0.44883 0.7865 0.0
H2052 H 0.03106 0.45052 0.81193 0.0
H2053 H 0.00896 0.43756 0.7745 0.0
H2054 H 0.03071 0.47148 0.77779 0.0
H2055 H 0.03688 0.48768 0.78776 0.0
H2056 H 0.01051 0.48661 0.77683 0.0
H2057 H 1.00414 0.47033 0.76697 0.0
C2058 C 1.00743 0.44314 0.70485 0.0
C2059 C 0.99992 0.44411 0.69892 0.0
C2060 C 0.0099 0.44508 0.71957 0.0
C2061 C 1.00493 0.44803 0.72877 0.0
C2062 C 0.99772 0.44944 0.72279 0.0
C2063 C 0.99522 0.44748 0.70802 0.0
C2064 C 1.00703 0.44922 0.7447 0.0
C2065 C 0.01013 0.45816 0.7512 0.0
C2066 C 1.00649 0.44168 0.7533 0.0
C2067 C 1.00268 0.4319 0.74735 0.0
C2068 C 0.99356 0.42706 0.74089 0.0
C2069 C 0.99005 0.4179 0.73516 0.0
C2070 C 0.99556 0.41345 0.73591 0.0
C2071 C 1.00458 0.41816 0.74243 0.0
C2072 C 1.00814 0.42734 0.74816 0.0
C2073 C 0.0148 0.45799 0.81507 0.0
C2074 C 0.02182 0.45578 0.81948 0.0
C2075 C 0.01186 0.45695 0.80045 0.0
C2076 C 0.01588 0.45367 0.78994 0.0
C2077 C 0.02283 0.4514 0.79436 0.0
C2078 C 0.02578 0.45246 0.80892 0.0
C2079 C 0.01277 0.45237 0.77438 0.0
C2080 C 0.00943 0.44337 0.76795 0.0
C2081 C 0.01309 0.45986 0.76589 0.0
C2082 C 0.01691 0.46964 0.7718 0.0
C2083 C 0.0262 0.47466 0.77763 0.0
C2084 C 0.02974 0.48387 0.78324 0.0
C2085 C 0.02408 0.48816 0.78297 0.0
C2086 C 0.01488 0.48326 0.77706 0.0
C2087 C 0.0113 0.47405 0.77145 0.0
H2088 H 0.02684 0.49529 0.78731 0.0
H2089 H 0.99283 0.40636 0.73147 0.0
H2090 H 0.56126 0.56163 0.69434 0.0
H2091 H 0.55701 0.56291 0.71951 0.0
H2092 H 0.57456 0.55159 0.73503 0.0
H2093 H 0.5785 0.54989 0.70992 0.0
H2094 H 0.55885 0.54448 0.75076 0.0
H2095 H 0.58248 0.57594 0.73502 0.0
H2096 H 0.58944 0.59015 0.71907 0.0
H2097 H 0.56541 0.59397 0.72735 0.0
H2098 H 0.55825 0.5797 0.7432 0.0
H2099 H 0.56708 0.5625 0.82377 0.0
H2100 H 0.56836 0.55861 0.79839 0.0
H2101 H 0.54937 0.56874 0.78511 0.0
H2102 H 0.54796 0.57254 0.81045 0.0
H2103 H 0.56505 0.57613 0.76813 0.0
H2104 H 0.54198 0.54489 0.78532 0.0
H2105 H 0.53559 0.5309 0.80167 0.0
H2106 H 0.55924 0.5269 0.79116 0.0
H2107 H 0.56584 0.54095 0.77488 0.0
C2108 C 0.56409 0.55925 0.70308 0.0
C2109 C 0.57032 0.55575 0.70005 0.0
C2110 C 0.56173 0.56009 0.71751 0.0
C2111 C 0.56561 0.55752 0.72925 0.0
C2112 C 0.57152 0.55368 0.72622 0.0
C2113 C 0.57385 0.55281 0.71182 0.0
C2114 C 0.56377 0.55909 0.74467 0.0
C2115 C 0.56029 0.55142 0.75458 0.0
C2116 C 0.56548 0.56811 0.74968 0.0
C2117 C 0.56978 0.57669 0.74016 0.0
C2118 C 0.57864 0.57976 0.73335 0.0
C2119 C 0.58263 0.58784 0.72434 0.0
C2120 C 0.57786 0.59294 0.72216 0.0
C2121 C 0.56909 0.59 0.72902 0.0
C2122 C 0.56507 0.58192 0.73802 0.0
C2123 C 0.56303 0.56374 0.8155 0.0
C2124 C 0.55744 0.56787 0.81921 0.0
C2125 C 0.56378 0.56152 0.80096 0.0
C2126 C 0.55893 0.56334 0.7898 0.0
C2127 C 0.55322 0.56731 0.79349 0.0
C2128 C 0.55245 0.56951 0.80801 0.0
C2129 C 0.56014 0.56152 0.77421 0.0
C2130 C 0.56353 0.56916 0.76429 0.0
C2131 C 0.55842 0.5525 0.76924 0.0
C2132 C 0.55445 0.54403 0.77898 0.0
C2133 C 0.54586 0.54107 0.78658 0.0
C2134 C 0.54219 0.53312 0.79582 0.0
C2135 C 0.54701 0.52803 0.79748 0.0
C2136 C 0.55551 0.53086 0.78987 0.0
C2137 C 0.55922 0.53881 0.78063 0.0
H2138 H 0.54416 0.52188 0.80464 0.0
H2139 H 0.58096 0.59919 0.71519 0.0
H2140 H 0.46064 0.0068 0.69673 0.0
H2141 H 0.45916 1.00194 0.72237 0.0
H2142 H 0.45474 0.02522 0.73447 0.0
H2143 H 0.45617 0.03008 0.70896 0.0
H2144 H 0.46678 0.02399 0.75304 0.0
H2145 H 0.43609 1.00192 0.73216 0.0
H2146 H 0.42516 0.98968 0.71477 0.0
H2147 H 0.43529 0.9709 0.72853 0.0
H2148 H 0.44637 0.98309 0.74588 0.0
H2149 H 0.44594 0.00991 0.82308 0.0
H2150 H 0.44956 0.01439 0.79746 0.0
H2151 H 0.4531 0.99 0.79008 0.0
H2152 H 0.44912 0.98525 0.81564 0.0
H2153 H 0.44256 0.99135 0.76899 0.0
H2154 H 0.47247 0.01297 0.79113 0.0
H2155 H 0.48335 0.02519 0.80859 0.0
H2156 H 0.47482 0.04478 0.79254 0.0
H2157 H 0.46379 0.03264 0.77512 0.0
C2158 C 0.4593 0.01085 0.70484 0.0
C2159 C 0.45854 0.01885 0.70073 0.0
C2160 C 0.45846 0.00807 0.71952 0.0
C2161 C 0.45676 0.01316 0.73039 0.0
C2162 C 0.4561 0.02119 0.72633 0.0
C2163 C 0.45695 0.02398 0.7117 0.0
C2164 C 0.4556 0.01016 0.74601 0.0
C2165 C 0.46142 0.01688 0.75653 0.0
C2166 C 0.4488 1.0008 0.75059 0.0
C2167 C 0.44213 0.99346 0.74019 0.0
C2168 C 0.43604 0.99521 0.73139 0.0
C2169 C 0.42981 0.98827 0.72156 0.0
C2170 C 0.42955 0.97952 0.72051 0.0
C2171 C 0.43551 0.97768 0.72933 0.0
C2172 C 0.44176 0.9846 0.73917 0.0
C2173 C 0.44747 1.00547 0.81603 0.0
C2174 C 0.44721 0.99719 0.82148 0.0
C2175 C 0.44964 0.00811 0.80137 0.0
C2176 C 0.45171 1.0026 0.7918 0.0
C2177 C 0.45156 0.99439 0.79723 0.0
C2178 C 0.44937 0.99173 0.8119 0.0
C2179 C 0.45365 1.00523 0.77606 0.0
C2180 C 0.44798 0.99844 0.7655 0.0
C2181 C 0.46059 0.01453 0.77145 0.0
C2182 C 0.46724 0.02186 0.7819 0.0
C2183 C 0.47286 0.01986 0.7914 0.0
C2184 C 0.47906 0.02678 0.80127 0.0
C2185 C 0.47976 0.03575 0.80169 0.0
C2186 C 0.47427 0.03783 0.79221 0.0
C2187 C 0.46805 0.03093 0.78232 0.0
H2188 H 0.48457 0.04109 0.80935 0.0
H2189 H 0.42472 0.97416 0.7129 0.0
H2190 H 0.56865 0.00745 0.32335 0.0
H2191 H 0.57014 0.01269 0.29798 0.0
H2192 H 0.54683 0.98499 0.28588 0.0
H2193 H 0.54526 0.97971 0.31126 0.0
H2194 H 0.56144 0.99045 0.26754 0.0
H2195 H 0.54412 1.00481 0.28693 0.0
H2196 H 0.5408 0.01457 0.30399 0.0
H2197 H 0.56735 0.03944 0.2923 0.0
H2198 H 0.57089 0.02979 0.27531 0.0
H2199 H 0.55928 1.00404 0.19439 0.0
H2200 H 0.55475 0.99863 0.21961 0.0
H2201 H 0.5774 0.02573 0.23525 0.0
H2202 H 0.58173 0.0313 0.21015 0.0
H2203 H 0.56194 0.02003 0.25155 0.0
H2204 H 0.57982 1.00565 0.2337 0.0
H2205 H 0.5835 0.99602 0.2169 0.0
H2206 H 0.55621 0.97134 0.226 0.0
H2207 H 0.55232 0.98087 0.24272 0.0
C2208 C 0.56372 1.00252 0.31536 0.0
C2209 C 0.55683 0.99314 0.3194 0.0
C2210 C 0.56459 1.00553 0.30081 0.0
C2211 C 0.55856 0.99926 0.28997 0.0
C2212 C 0.55159 0.98995 0.29401 0.0
C2213 C 0.55072 0.98693 0.30854 0.0
C2214 C 0.55979 1.00229 0.27436 0.0
C2215 C 0.56138 0.99683 0.26401 0.0
C2216 C 0.55993 0.01073 0.26976 0.0
C2217 C 0.55781 0.01656 0.27994 0.0
C2218 C 0.54929 0.01234 0.28808 0.0
C2219 C 0.54736 0.01786 0.29772 0.0
C2220 C 0.55387 0.02761 0.29925 0.0
C2221 C 0.56232 0.03188 0.29112 0.0
C2222 C 0.56428 0.02639 0.28147 0.0
C2223 C 0.5632 0.00891 0.20319 0.0
C2224 C 0.57094 0.01808 0.2002 0.0
C2225 C 0.56066 1.00576 0.21763 0.0
C2226 C 0.56583 0.0117 0.22938 0.0
C2227 C 0.57332 0.02098 0.22641 0.0
C2228 C 0.57585 0.02413 0.21202 0.0
C2229 C 0.56366 0.00823 0.24477 0.0
C2230 C 0.56191 0.01361 0.25507 0.0
C2231 C 0.56341 0.99973 0.24936 0.0
C2232 C 0.56574 0.994 0.23932 0.0
C2233 C 0.57458 0.99819 0.23202 0.0
C2234 C 0.5767 0.99275 0.22253 0.0
C2235 C 0.57008 0.98308 0.22035 0.0
C2236 C 0.56133 0.97883 0.22768 0.0
C2237 C 0.55916 0.98425 0.23717 0.0
H2238 H 0.57174 0.97888 0.213 0.0
H2239 H 0.55236 0.03187 0.30672 0.0
H2240 H 0.0099 0.56838 0.19769 0.0
H2241 H 0.01504 0.56989 0.22309 0.0
H2242 H 0.98963 0.54323 0.23341 0.0
H2243 H 0.98444 0.54167 0.20798 0.0
H2244 H 0.99238 0.55632 0.25315 0.0
H2245 H 0.0119 0.54509 0.23182 0.0
H2246 H 0.02331 0.54484 0.21423 0.0
H2247 H 0.04467 0.57301 0.22764 0.0
H2248 H 0.03334 0.57349 0.24517 0.0
H2249 H 1.00806 0.55542 0.32568 0.0
H2250 H 1.003 0.55094 0.3003 0.0
H2251 H 0.0272 0.57733 0.28557 0.0
H2252 H 0.03242 0.58171 0.31078 0.0
H2253 H 0.0246 0.56292 0.26833 0.0
H2254 H 1.00472 0.57459 0.28814 0.0
H2255 H 0.99331 0.57499 0.30558 0.0
H2256 H 0.97264 0.54598 0.29485 0.0
H2257 H 0.98398 0.54537 0.27748 0.0
C2258 C 1.00547 0.56274 0.20528 0.0
C2259 C 0.99675 0.55489 0.20073 0.0
C2260 C 1.00842 0.56362 0.21985 0.0
C2261 C 1.00277 0.55663 0.2302 0.0
C2262 C 0.99411 0.54873 0.22567 0.0
C2263 C 0.99114 0.54786 0.21111 0.0
C2264 C 1.00572 0.55778 0.24585 0.0
C2265 C 0.99937 0.55759 0.25648 0.0
C2266 C 0.0149 0.55962 0.25023 0.0
C2267 C 0.02174 0.55935 0.23973 0.0
C2268 C 0.01901 0.55126 0.23094 0.0
C2269 C 0.02546 0.55107 0.221 0.0
C2270 C 0.0347 0.55891 0.2198 0.0
C2271 C 0.03751 0.56695 0.22857 0.0
C2272 C 0.03108 0.56717 0.23853 0.0
C2273 C 0.01237 0.56021 0.31702 0.0
C2274 C 0.0206 0.56898 0.32031 0.0
C2275 C 0.00942 0.55768 0.30252 0.0
C2276 C 0.01464 0.56386 0.29099 0.0
C2277 C 0.02302 0.57246 0.29423 0.0
C2278 C 0.02595 0.57499 0.30869 0.0
C2279 C 0.0113 0.56156 0.27558 0.0
C2280 C 0.01758 0.56155 0.26499 0.0
C2281 C 1.00206 0.55954 0.27122 0.0
C2282 C 0.99523 0.5599 0.28164 0.0
C2283 C 0.99777 0.56827 0.28959 0.0
C2284 C 0.99131 0.56854 0.29945 0.0
C2285 C 0.98227 0.56051 0.30136 0.0
C2286 C 0.97965 0.55219 0.29338 0.0
C2287 C 0.98609 0.55188 0.28353 0.0
H2288 H 0.97728 0.56073 0.30899 0.0
H2289 H 0.03969 0.55875 0.21209 0.0
H2290 H 0.45749 0.45299 0.325 0.0
H2291 H 0.46162 0.45198 0.29959 0.0
H2292 H 0.43933 0.45726 0.28487 0.0
H2293 H 0.43522 0.45836 0.31013 0.0
H2294 H 0.43826 0.44222 0.27112 0.0
H2295 H 0.46305 0.47428 0.2818 0.0
H2296 H 0.47666 0.48684 0.29553 0.0
H2297 H 0.493 0.47308 0.28691 0.0
H2298 H 0.47943 0.46035 0.2733 0.0
H2299 H 0.44856 0.4478 0.19586 0.0
H2300 H 0.44665 0.45135 0.22112 0.0
H2301 H 0.46922 0.44611 0.23445 0.0
H2302 H 0.47141 0.44288 0.20911 0.0
H2303 H 0.47046 0.46114 0.24902 0.0
H2304 H 0.44584 0.42905 0.23884 0.0
H2305 H 0.43228 0.41627 0.2253 0.0
H2306 H 0.41567 0.42981 0.23338 0.0
H2307 H 0.42918 0.44275 0.2468 0.0
C2308 C 0.45357 0.4541 0.31635 0.0
C2309 C 0.44597 0.45568 0.31965 0.0
C2310 C 0.45593 0.45351 0.30181 0.0
C2311 C 0.45079 0.45455 0.29027 0.0
C2312 C 0.44336 0.45636 0.29355 0.0
C2313 C 0.441 0.45695 0.30803 0.0
C2314 C 0.4528 0.45334 0.27477 0.0
C2315 C 0.44527 0.44646 0.26625 0.0
C2316 C 0.46201 0.45866 0.26848 0.0
C2317 C 0.47018 0.4663 0.27666 0.0
C2318 C 0.46951 0.47388 0.28294 0.0
C2319 C 0.47723 0.48104 0.29068 0.0
C2320 C 0.48568 0.48074 0.29213 0.0
C2321 C 0.48644 0.47329 0.2858 0.0
C2322 C 0.47874 0.46611 0.27806 0.0
C2323 C 0.45325 0.44757 0.20409 0.0
C2324 C 0.4601 0.44498 0.2004 0.0
C2325 C 0.45208 0.44951 0.21859 0.0
C2326 C 0.45768 0.44884 0.22977 0.0
C2327 C 0.46477 0.44662 0.22606 0.0
C2328 C 0.46596 0.44469 0.21156 0.0
C2329 C 0.45589 0.4501 0.24536 0.0
C2330 C 0.46344 0.45692 0.2539 0.0
C2331 C 0.4467 0.4447 0.25173 0.0
C2332 C 0.43856 0.43692 0.24369 0.0
C2333 C 0.43932 0.42934 0.23763 0.0
C2334 C 0.43164 0.42206 0.22999 0.0
C2335 C 0.42313 0.42224 0.22845 0.0
C2336 C 0.42227 0.42969 0.23457 0.0
C2337 C 0.42994 0.437 0.2422 0.0
H2338 H 0.41719 0.41659 0.22253 0.0
H2339 H 0.49165 0.4863 0.29812 0.0
H2340 H 0.04907 0.29565 0.24803 0.0
H2341 H 0.0316 0.28697 0.2485 0.0
H2342 H 0.03168 0.26353 0.27092 0.0
H2343 H 0.04916 0.27206 0.27011 0.0
H2344 H 0.01825 0.25702 0.24994 0.0
H2345 H 0.02744 0.27938 0.28929 0.0
H2346 H 0.03591 0.29524 0.30093 0.0
H2347 H 0.02145 0.30516 0.27272 0.0
H2348 H 0.01299 0.28938 0.26077 0.0
H2349 H 0.96979 0.23362 0.27368 0.0
H2350 H 0.98729 0.24219 0.2733 0.0
H2351 H 0.98745 0.26541 0.24982 0.0
H2352 H 0.96996 0.25696 0.25039 0.0
H2353 H 1.00074 0.27197 0.2715 0.0
H2354 H 0.99157 0.24952 0.23215 0.0
H2355 H 0.9831 0.23361 0.22067 0.0
H2356 H 0.99751 0.22379 0.24916 0.0
H2357 H 1.00597 0.23962 0.26096 0.0
C2358 C 0.04538 0.28861 0.25292 0.0
C2359 C 0.05056 0.28458 0.25908 0.0
C2360 C 0.03538 0.28368 0.25331 0.0
C2361 C 0.03029 0.27463 0.25992 0.0
C2362 C 0.03542 0.27052 0.26582 0.0
C2363 C 0.04543 0.27544 0.26546 0.0
C2364 C 0.01964 0.26949 0.26072 0.0
C2365 C 0.01443 0.26024 0.25484 0.0
C2366 C 0.01462 0.27374 0.26684 0.0
C2367 C 0.01966 0.28322 0.27404 0.0
C2368 C 0.02612 0.28496 0.28549 0.0
C2369 C 0.03091 0.29393 0.29216 0.0
C2370 C 0.02924 0.30121 0.28754 0.0
C2371 C 0.02275 0.29952 0.27627 0.0
C2372 C 0.01795 0.29056 0.26956 0.0
C2373 C 0.97355 0.24059 0.26855 0.0
C2374 C 0.96845 0.24458 0.26202 0.0
C2375 C 0.98356 0.24545 0.26823 0.0
C2376 C 0.98871 0.25441 0.26139 0.0
C2377 C 0.98365 0.2585 0.25511 0.0
C2378 C 0.97364 0.25362 0.25535 0.0
C2379 C 0.99935 0.25951 0.26071 0.0
C2380 C 1.00456 0.26874 0.26662 0.0
C2381 C 1.00438 0.25524 0.25465 0.0
C2382 C 0.99933 0.24573 0.24754 0.0
C2383 C 0.99287 0.24395 0.23605 0.0
C2384 C 0.98808 0.23495 0.22947 0.0
C2385 C 0.98975 0.22768 0.23421 0.0
C2386 C 0.99622 0.22942 0.24552 0.0
C2387 C 1.00102 0.2384 0.25215 0.0
H2388 H 0.98603 0.22072 0.2291 0.0
H2389 H 0.03295 0.30815 0.29272 0.0
H2390 H 0.77529 0.73286 0.23856 0.0
H2391 H 0.76649 0.74149 0.23824 0.0
H2392 H 0.75676 0.73208 0.28218 0.0
H2393 H 0.76516 0.72302 0.28233 0.0
H2394 H 0.74253 0.73069 0.26641 0.0
H2395 H 0.77504 0.75531 0.27409 0.0
H2396 H 0.79231 0.76467 0.26885 0.0
H2397 H 0.78644 0.77274 0.22713 0.0
H2398 H 0.76912 0.76333 0.23205 0.0
H2399 H 0.72618 0.76324 0.28131 0.0
H2400 H 0.73495 0.75456 0.28152 0.0
H2401 H 0.74388 0.76325 0.2371 0.0
H2402 H 0.73541 0.77226 0.23698 0.0
H2403 H 0.7585 0.76503 0.25308 0.0
H2404 H 0.72592 0.74038 0.24562 0.0
H2405 H 0.70868 0.73109 0.25112 0.0
H2406 H 0.71477 0.72318 0.2928 0.0
H2407 H 0.73206 0.73252 0.28763 0.0
C2408 C 0.7712 0.73252 0.24812 0.0
C2409 C 0.77098 0.72722 0.26049 0.0
C2410 C 0.76626 0.73757 0.24798 0.0
C2411 C 0.76106 0.73758 0.26027 0.0
C2412 C 0.76075 0.73224 0.27258 0.0
C2413 C 0.76565 0.72713 0.2727 0.0
C2414 C 0.75585 0.74305 0.26022 0.0
C2415 C 0.74607 0.73823 0.2637 0.0
C2416 C 0.76037 0.75285 0.25635 0.0
C2417 C 0.77078 0.75854 0.25339 0.0
C2418 C 0.77743 0.75903 0.26376 0.0
C2419 C 0.78723 0.76435 0.26085 0.0
C2420 C 0.79047 0.76927 0.24765 0.0
C2421 C 0.78392 0.76891 0.23734 0.0
C2422 C 0.77411 0.76359 0.24019 0.0
C2423 C 0.73008 0.76339 0.27161 0.0
C2424 C 0.73006 0.76847 0.25911 0.0
C2425 C 0.73501 0.75832 0.2717 0.0
C2426 C 0.73999 0.75813 0.25926 0.0
C2427 C 0.74006 0.76325 0.24681 0.0
C2428 C 0.73514 0.76833 0.24672 0.0
C2429 C 0.7452 0.75267 0.25928 0.0
C2430 C 0.75497 0.75749 0.2558 0.0
C2431 C 0.74068 0.74288 0.26319 0.0
C2432 C 0.73029 0.73722 0.26629 0.0
C2433 C 0.72359 0.73671 0.25601 0.0
C2434 C 0.71381 0.73143 0.25906 0.0
C2435 C 0.71064 0.72657 0.27232 0.0
C2436 C 0.71724 0.72696 0.28254 0.0
C2437 C 0.72703 0.73223 0.27955 0.0
H2438 H 0.70306 0.72248 0.27466 0.0
H2439 H 0.79806 0.77339 0.24542 0.0
H2440 H 0.27495 0.04555 0.27189 0.0
H2441 H 0.266 0.02808 0.27139 0.0
H2442 H 0.29019 0.02793 0.25184 0.0
H2443 H 0.29913 0.04541 0.25215 0.0
H2444 H 0.27449 0.01552 0.23841 0.0
H2445 H 0.28393 0.02221 0.28869 0.0
H2446 H 0.2854 0.02954 0.31284 0.0
H2447 H 0.25483 0.01555 0.31632 0.0
H2448 H 0.25318 0.00823 0.2921 0.0
H2449 H 0.25882 0.96624 0.24955 0.0
H2450 H 0.26758 0.98371 0.24993 0.0
H2451 H 0.24306 0.9836 0.26867 0.0
H2452 H 0.23426 0.96612 0.26834 0.0
H2453 H 0.2588 0.99611 0.28248 0.0
H2454 H 0.24938 0.98934 0.23228 0.0
H2455 H 0.24791 0.982 0.20815 0.0
H2456 H 0.27848 0.99612 0.20455 0.0
H2457 H 0.28013 1.00345 0.22875 0.0
C2458 C 0.2784 0.0418 0.26761 0.0
C2459 C 0.28777 0.0469 0.26209 0.0
C2460 C 0.27327 0.03179 0.26734 0.0
C2461 C 0.27744 0.02663 0.26174 0.0
C2462 C 0.28679 0.03171 0.2562 0.0
C2463 C 0.2919 0.04172 0.25636 0.0
C2464 C 0.27201 0.01595 0.26141 0.0
C2465 C 0.27118 0.01128 0.24811 0.0
C2466 C 0.26746 0.01037 0.27395 0.0
C2467 C 0.26844 0.01475 0.28852 0.0
C2468 C 0.27752 0.02075 0.29456 0.0
C2469 C 0.27839 0.0249 0.30827 0.0
C2470 C 0.27021 0.02303 0.31609 0.0
C2471 C 0.26115 0.017 0.31024 0.0
C2472 C 0.26025 0.01284 0.29653 0.0
C2473 C 0.25524 0.96992 0.2536 0.0
C2474 C 0.24581 0.96474 0.25888 0.0
C2475 C 0.26027 0.97993 0.25383 0.0
C2476 C 0.25597 0.98502 0.25919 0.0
C2477 C 0.24656 0.97986 0.2645 0.0
C2478 C 0.24154 0.96985 0.26434 0.0
C2479 C 0.26131 0.99569 0.2595 0.0
C2480 C 0.26212 1.00035 0.27279 0.0
C2481 C 0.26585 1.00126 0.24695 0.0
C2482 C 0.26487 0.99687 0.23239 0.0
C2483 C 0.25578 0.99082 0.22639 0.0
C2484 C 0.25492 0.98667 0.21269 0.0
C2485 C 0.26309 0.98857 0.20484 0.0
C2486 C 0.27215 0.99465 0.21065 0.0
C2487 C 0.27306 0.99881 0.22435 0.0
H2488 H 0.26241 0.98536 0.19423 0.0
H2489 H 0.2709 0.02624 0.3267 0.0
H2490 H 0.04845 0.77909 0.74974 0.0
H2491 H 0.03097 0.77047 0.75069 0.0
H2492 H 0.03106 0.74572 0.76809 0.0
H2493 H 0.04856 0.75425 0.76695 0.0
H2494 H 0.01751 0.74085 0.74681 0.0
H2495 H 0.02712 0.75988 0.79028 0.0
H2496 H 0.03577 0.77472 0.80459 0.0
H2497 H 0.02121 0.78677 0.78134 0.0
H2498 H 0.01257 0.77204 0.76673 0.0
H2499 H 0.96924 0.7155 0.77082 0.0
H2500 H 0.98672 0.7241 0.77022 0.0
H2501 H 0.98683 0.74923 0.75405 0.0
H2502 H 0.96935 0.74075 0.75497 0.0
H2503 H 1.00032 0.75389 0.77477 0.0
H2504 H 0.99079 0.73506 0.7312 0.0
H2505 H 0.98217 0.72033 0.71664 0.0
H2506 H 0.99657 0.70804 0.73972 0.0
H2507 H 1.00518 0.72266 0.75457 0.0
C2508 C 0.04476 0.77178 0.75365 0.0
C2509 C 0.04992 0.76737 0.7583 0.0
C2510 C 0.03475 0.76689 0.7543 0.0
C2511 C 0.02968 0.75747 0.7596 0.0
C2512 C 0.03481 0.75298 0.764 0.0
C2513 C 0.04482 0.7579 0.76345 0.0
C2514 C 0.01905 0.75231 0.7606 0.0
C2515 C 0.01375 0.74364 0.75309 0.0
C2516 C 0.01412 0.75604 0.76851 0.0
C2517 C 0.01927 0.76489 0.77731 0.0
C2518 C 0.02582 0.76572 0.78814 0.0
C2519 C 0.03071 0.77411 0.79631 0.0
C2520 C 0.02906 0.7817 0.79385 0.0
C2521 C 0.02249 0.7809 0.78322 0.0
C2522 C 0.01759 0.77253 0.775 0.0
C2523 C 0.97298 0.72289 0.76728 0.0
C2524 C 0.96786 0.72741 0.76289 0.0
C2525 C 0.98299 0.72778 0.76681 0.0
C2526 C 0.98812 0.73729 0.76191 0.0
C2527 C 0.98305 0.74189 0.75781 0.0
C2528 C 0.97304 0.737 0.75823 0.0
C2529 C 0.99876 0.74243 0.76098 0.0
C2530 C 1.00406 0.7511 0.7685 0.0
C2531 C 1.0037 0.73871 0.75304 0.0
C2532 C 0.99856 0.72992 0.7441 0.0
C2533 C 0.99206 0.72919 0.73325 0.0
C2534 C 0.98719 0.72086 0.72493 0.0
C2535 C 0.9888 0.71324 0.72728 0.0
C2536 C 0.99532 0.71395 0.73793 0.0
C2537 C 1.0002 0.72225 0.74629 0.0
H2538 H 0.98502 0.7068 0.72082 0.0
H2539 H 0.03285 0.78818 0.80019 0.0
H2540 H 0.29435 0.25124 0.74149 0.0
H2541 H 0.28537 0.25972 0.74109 0.0
H2542 H 0.27103 0.24553 0.78087 0.0
H2543 H 0.27976 0.23678 0.7811 0.0
H2544 H 0.25856 0.24566 0.76168 0.0
H2545 H 0.28911 0.26899 0.7808 0.0
H2546 H 0.30669 0.27893 0.78108 0.0
H2547 H 0.30596 0.2921 0.74074 0.0
H2548 H 0.28838 0.28214 0.74012 0.0
H2549 H 0.23892 0.27516 0.77858 0.0
H2550 H 0.24789 0.26669 0.77899 0.0
H2551 H 0.26285 0.2815 0.73992 0.0
H2552 H 0.25421 0.29033 0.73978 0.0
H2553 H 0.27501 0.28103 0.75873 0.0
H2554 H 0.24453 0.25775 0.73948 0.0
H2555 H 0.22696 0.24779 0.73899 0.0
H2556 H 0.22753 0.23447 0.77926 0.0
H2557 H 0.2451 0.24445 0.78009 0.0
C2558 C 0.28923 0.24985 0.75011 0.0
C2559 C 0.2878 0.24331 0.76134 0.0
C2560 C 0.28416 0.25479 0.74994 0.0
C2561 C 0.27759 0.25336 0.76104 0.0
C2562 C 0.27608 0.24679 0.77221 0.0
C2563 C 0.28115 0.24185 0.7724 0.0
C2564 C 0.2722 0.25864 0.76092 0.0
C2565 C 0.26217 0.2534 0.76124 0.0
C2566 C 0.27687 0.26874 0.75997 0.0
C2567 C 0.28743 0.27475 0.76034 0.0
C2568 C 0.29271 0.27395 0.77193 0.0
C2569 C 0.30267 0.2796 0.77216 0.0
C2570 C 0.30744 0.28613 0.76092 0.0
C2571 C 0.30225 0.28703 0.74944 0.0
C2572 C 0.29229 0.2814 0.74914 0.0
C2573 C 0.24418 0.2767 0.77013 0.0
C2574 C 0.24581 0.28345 0.75914 0.0
C2575 C 0.24923 0.27175 0.77029 0.0
C2576 C 0.25598 0.27334 0.75937 0.0
C2577 C 0.25767 0.28011 0.74843 0.0
C2578 C 0.25264 0.28509 0.7483 0.0
C2579 C 0.26136 0.26805 0.75948 0.0
C2580 C 0.27139 0.27329 0.75916 0.0
C2581 C 0.25669 0.25794 0.7604 0.0
C2582 C 0.24612 0.25192 0.75991 0.0
C2583 C 0.2409 0.25275 0.74829 0.0
C2584 C 0.23094 0.24709 0.74794 0.0
C2585 C 0.22613 0.24052 0.75911 0.0
C2586 C 0.23127 0.23957 0.77063 0.0
C2587 C 0.24123 0.24522 0.77103 0.0
H2588 H 0.21842 0.23614 0.75882 0.0
H2589 H 0.31515 0.2905 0.76112 0.0
H2590 H 0.71933 0.96578 0.74692 0.0
H2591 H 0.72797 0.98326 0.7474 0.0
H2592 H 0.7516 0.98323 0.76926 0.0
H2593 H 0.743 0.96576 0.76881 0.0
H2594 H 0.74767 0.99557 0.78199 0.0
H2595 H 0.75256 0.98911 0.73263 0.0
H2596 H 0.74778 0.98191 0.70818 0.0
H2597 H 0.73152 0.99601 0.70167 0.0
H2598 H 0.73611 1.0032 0.72617 0.0
H2599 H 0.78159 0.04498 0.77322 0.0
H2600 H 0.773 0.02751 0.77243 0.0
H2601 H 0.74961 0.02765 0.74992 0.0
H2602 H 0.75822 0.04513 0.75056 0.0
H2603 H 0.75338 0.01523 0.73751 0.0
H2604 H 0.74848 0.02168 0.78691 0.0
H2605 H 0.75328 0.02888 0.81136 0.0
H2606 H 0.76955 0.01478 0.81781 0.0
H2607 H 0.76494 0.0076 0.79331 0.0
C2608 C 0.72641 0.96949 0.75168 0.0
C2609 C 0.73046 0.96433 0.75782 0.0
C2610 C 0.73135 0.9795 0.75196 0.0
C2611 C 0.7405 0.98461 0.75825 0.0
C2612 C 0.74455 0.97948 0.76438 0.0
C2613 C 0.73961 0.96947 0.76415 0.0
C2614 C 0.74578 0.99528 0.7587 0.0
C2615 C 0.74903 0.99986 0.77222 0.0
C2616 C 0.74737 1.00093 0.74604 0.0
C2617 C 0.74461 0.99662 0.7313 0.0
C2618 C 0.74791 0.99061 0.72603 0.0
C2619 C 0.74524 0.98655 0.71215 0.0
C2620 C 0.73933 0.98848 0.70339 0.0
C2621 C 0.73609 0.99451 0.70847 0.0
C2622 C 0.73873 0.99859 0.72235 0.0
C2623 C 0.77457 0.04129 0.76823 0.0
C2624 C 0.77059 0.04648 0.76199 0.0
C2625 C 0.76966 0.03128 0.76778 0.0
C2626 C 0.76058 0.0262 0.76127 0.0
C2627 C 0.7566 0.03137 0.75499 0.0
C2628 C 0.76155 0.04138 0.75534 0.0
C2629 C 0.75528 0.01553 0.7608 0.0
C2630 C 0.75202 0.01094 0.74728 0.0
C2631 C 0.75368 0.00988 0.77347 0.0
C2632 C 0.75644 0.01417 0.78822 0.0
C2633 C 0.75314 0.02017 0.7935 0.0
C2634 C 0.75582 0.02424 0.80737 0.0
C2635 C 0.76174 0.02231 0.81612 0.0
C2636 C 0.76497 0.01628 0.81102 0.0
C2637 C 0.76232 0.0122 0.79714 0.0
H2638 H 0.7638 0.02547 0.82686 0.0
H2639 H 0.73727 0.98533 0.69264 0.0
H2640 H 0.71458 0.60373 0.59471 0.0
H2641 H 0.6971 0.59518 0.59536 0.0
H2642 H 0.69729 0.62145 0.58617 0.0
H2643 H 0.71479 0.63009 0.58577 0.0
H2644 H 0.68488 0.61141 0.60812 0.0
H2645 H 0.69147 0.60484 0.55978 0.0
H2646 H 0.69878 0.59937 0.54136 0.0
H2647 H 0.68469 0.57131 0.56039 0.0
H2648 H 0.6774 0.57665 0.57906 0.0
H2649 H 0.63536 0.59089 0.59209 0.0
H2650 H 0.65283 0.59963 0.59127 0.0
H2651 H 0.65296 0.57315 0.59642 0.0
H2652 H 0.63548 0.56437 0.59702 0.0
H2653 H 0.66532 0.58344 0.5764 0.0
H2654 H 0.65888 0.58979 0.62488 0.0
H2655 H 0.65168 0.59509 0.64373 0.0
H2656 H 0.66553 0.62328 0.62516 0.0
H2657 H 0.67272 0.61812 0.60607 0.0
C2658 C 0.71091 0.60771 0.59289 0.0
C2659 C 0.71611 0.61761 0.59017 0.0
C2660 C 0.7009 0.60279 0.59315 0.0
C2661 C 0.69585 0.60764 0.59069 0.0
C2662 C 0.70101 0.61753 0.58806 0.0
C2663 C 0.71103 0.62245 0.58771 0.0
C2664 C 0.6852 0.60244 0.59108 0.0
C2665 C 0.68059 0.60538 0.60105 0.0
C2666 C 0.67959 0.5944 0.58212 0.0
C2667 C 0.68397 0.59117 0.5709 0.0
C2668 C 0.69 0.59752 0.56011 0.0
C2669 C 0.69412 0.59444 0.54961 0.0
C2670 C 0.69222 0.585 0.54973 0.0
C2671 C 0.68617 0.57862 0.56033 0.0
C2672 C 0.68203 0.58167 0.57086 0.0
C2673 C 0.63911 0.58694 0.59319 0.0
C2674 C 0.63401 0.57692 0.59466 0.0
C2675 C 0.64912 0.59195 0.59273 0.0
C2676 C 0.65428 0.58709 0.59397 0.0
C2677 C 0.64918 0.57709 0.59541 0.0
C2678 C 0.63918 0.57206 0.59574 0.0
C2679 C 0.66496 0.59239 0.5935 0.0
C2680 C 0.66958 0.58947 0.5835 0.0
C2681 C 0.67058 0.60041 0.6025 0.0
C2682 C 0.66626 0.60354 0.61396 0.0
C2683 C 0.66033 0.5971 0.62475 0.0
C2684 C 0.65626 0.60009 0.63549 0.0
C2685 C 0.65813 0.60951 0.63562 0.0
C2686 C 0.66408 0.61598 0.62503 0.0
C2687 C 0.66816 0.61303 0.61426 0.0
H2688 H 0.65497 0.61181 0.64394 0.0
H2689 H 0.69542 0.58263 0.54159 0.0
H2690 H 0.38608 0.08948 0.60833 0.0
H2691 H 0.39507 0.08101 0.60868 0.0
H2692 H 0.41469 0.10072 0.57682 0.0
H2693 H 0.40571 0.10922 0.57639 0.0
H2694 H 0.41032 0.08296 0.57027 0.0
H2695 H 0.42066 0.1023 0.61336 0.0
H2696 H 0.41863 0.10867 0.63668 0.0
H2697 H 0.40484 0.08046 0.65518 0.0
H2698 H 0.40667 0.0739 0.63189 0.0
H2699 H 0.44672 0.07093 0.57931 0.0
H2700 H 0.43778 0.07945 0.57891 0.0
H2701 H 0.41769 0.05938 0.60994 0.0
H2702 H 0.42656 0.05077 0.61034 0.0
H2703 H 0.42239 0.07738 0.61691 0.0
H2704 H 0.4121 0.0581 0.57361 0.0
H2705 H 0.4143 0.05188 0.55027 0.0
H2706 H 0.42822 0.08019 0.53215 0.0
H2707 H 0.42622 0.08661 0.55546 0.0
C2708 C 0.39235 0.09206 0.60147 0.0
C2709 C 0.39519 0.10008 0.5924 0.0
C2710 C 0.39749 0.08721 0.60167 0.0
C2711 C 0.40567 0.0903 0.59294 0.0
C2712 C 0.40842 0.09819 0.58367 0.0
C2713 C 0.40326 0.10303 0.58341 0.0
C2714 C 0.41133 0.08531 0.59348 0.0
C2715 C 0.41307 0.08187 0.58045 0.0
C2716 C 0.41477 0.08367 0.60679 0.0
C2717 C 0.41372 0.0876 0.62084 0.0
C2718 C 0.41713 0.09745 0.62237 0.0
C2719 C 0.41603 0.10109 0.63558 0.0
C2720 C 0.41158 0.09497 0.64739 0.0
C2721 C 0.40826 0.08519 0.64602 0.0
C2722 C 0.40934 0.08151 0.63282 0.0
C2723 C 0.44035 0.06826 0.58596 0.0
C2724 C 0.43734 0.0601 0.59478 0.0
C2725 C 0.43525 0.07316 0.58575 0.0
C2726 C 0.42697 0.07 0.59425 0.0
C2727 C 0.42405 0.06197 0.60328 0.0
C2728 C 0.42916 0.05707 0.60352 0.0
C2729 C 0.42136 0.07504 0.5937 0.0
C2730 C 0.41964 0.07849 0.60673 0.0
C2731 C 0.41795 0.0767 0.58039 0.0
C2732 C 0.41909 0.07285 0.56633 0.0
C2733 C 0.41569 0.06301 0.56468 0.0
C2734 C 0.41689 0.05945 0.55145 0.0
C2735 C 0.42142 0.06564 0.53975 0.0
C2736 C 0.42473 0.07541 0.54124 0.0
C2737 C 0.42355 0.07901 0.55445 0.0
H2738 H 0.42234 0.06286 0.52952 0.0
H2739 H 0.41073 0.0978 0.65761 0.0
H2740 H 0.93943 0.37826 0.59795 0.0
H2741 H 0.93072 0.36077 0.59712 0.0
H2742 H 0.95733 0.3609 0.59245 0.0
H2743 H 0.96609 0.3784 0.59309 0.0
H2744 H 0.94372 0.34856 0.57323 0.0
H2745 H 0.94587 0.35508 0.62461 0.0
H2746 H 0.94397 0.36233 0.64708 0.0
H2747 H 0.91364 0.34822 0.64017 0.0
H2748 H 0.91537 0.34099 0.61753 0.0
H2749 H 0.92606 0.29912 0.58666 0.0
H2750 H 0.93482 0.31659 0.58724 0.0
H2751 H 0.90857 0.31652 0.59616 0.0
H2752 H 0.8998 0.29904 0.59573 0.0
H2753 H 0.92207 0.32893 0.6132 0.0
H2754 H 0.91967 0.32249 0.56192 0.0
H2755 H 0.92135 0.31532 0.53918 0.0
H2756 H 0.95174 0.32935 0.54539 0.0
H2757 H 0.95023 0.3365 0.56829 0.0
C2758 C 0.94343 0.37457 0.59669 0.0
C2759 C 0.95347 0.37974 0.59561 0.0
C2760 C 0.93844 0.36456 0.59632 0.0
C2761 C 0.94337 0.35949 0.59484 0.0
C2762 C 0.95338 0.36464 0.59364 0.0
C2763 C 0.95838 0.37464 0.59412 0.0
C2764 C 0.93808 0.34884 0.59437 0.0
C2765 C 0.93909 0.34426 0.58205 0.0
C2766 C 0.93183 0.34322 0.6057 0.0
C2767 C 0.93077 0.34757 0.61929 0.0
C2768 C 0.9388 0.35359 0.62781 0.0
C2769 C 0.93775 0.35768 0.64059 0.0
C2770 C 0.92869 0.35576 0.64503 0.0
C2771 C 0.92065 0.34971 0.63671 0.0
C2772 C 0.92167 0.34561 0.62391 0.0
C2773 C 0.92213 0.30282 0.58859 0.0
C2774 C 0.91221 0.29765 0.59112 0.0
C2775 C 0.92715 0.31283 0.58892 0.0
C2776 C 0.92236 0.31793 0.59158 0.0
C2777 C 0.91246 0.31278 0.59412 0.0
C2778 C 0.90744 0.30277 0.59389 0.0
C2779 C 0.92768 0.32861 0.59202 0.0
C2780 C 0.92669 0.33321 0.60434 0.0
C2781 C 0.9339 0.33425 0.58065 0.0
C2782 C 0.93483 0.32995 0.5669 0.0
C2783 C 0.92671 0.32398 0.5585 0.0
C2784 C 0.92762 0.31993 0.54557 0.0
C2785 C 0.93664 0.32186 0.54087 0.0
C2786 C 0.94476 0.32785 0.54906 0.0
C2787 C 0.94388 0.33191 0.56201 0.0
H2788 H 0.93734 0.31872 0.53085 0.0
H2789 H 0.92789 0.35893 0.65493 0.0
H2790 H 0.63526 0.05748 0.07173 0.0
H2791 H 0.65271 0.0662 0.07134 0.0
H2792 H 0.65323 0.07348 0.11671 0.0
H2793 H 0.63575 0.06508 0.11704 0.0
H2794 H 0.66608 0.08864 0.10165 0.0
H2795 H 0.65794 0.05578 0.10569 0.0
H2796 H 0.64982 0.03878 0.09867 0.0
H2797 H 0.66361 0.04638 0.05683 0.0
H2798 H 0.67172 0.06344 0.06354 0.0
H2799 H 0.71507 0.1046 0.11469 0.0
H2800 H 0.69763 0.09585 0.11519 0.0
H2801 H 0.69701 0.08785 0.07017 0.0
H2802 H 0.71447 0.09619 0.06978 0.0
H2803 H 0.68418 0.07305 0.08509 0.0
H2804 H 0.69228 0.10585 0.08086 0.0
H2805 H 0.70035 0.12289 0.08766 0.0
H2806 H 0.68661 0.11548 0.12955 0.0
H2807 H 0.67855 0.09838 0.12306 0.0
C2808 C 0.63907 0.06101 0.08161 0.0
C2809 C 0.63405 0.06054 0.09443 0.0
C2810 C 0.64907 0.06592 0.08141 0.0
C2811 C 0.65433 0.07041 0.09405 0.0
C2812 C 0.64936 0.07004 0.10682 0.0
C2813 C 0.63934 0.06515 0.10703 0.0
C2814 C 0.66499 0.07556 0.09391 0.0
C2815 C 0.67003 0.08519 0.09822 0.0
C2816 C 0.67019 0.07116 0.08909 0.0
C2817 C 0.66537 0.0609 0.08507 0.0
C2818 C 0.65919 0.05383 0.09496 0.0
C2819 C 0.6546 0.04418 0.09104 0.0
C2820 C 0.65618 0.0415 0.0773 0.0
C2821 C 0.66238 0.04846 0.06747 0.0
C2822 C 0.66699 0.05813 0.07132 0.0
C2823 C 0.71125 0.10089 0.10492 0.0
C2824 C 0.71624 0.10114 0.09218 0.0
C2825 C 0.70124 0.09598 0.10517 0.0
C2826 C 0.69595 0.09129 0.09265 0.0
C2827 C 0.7009 0.09144 0.07996 0.0
C2828 C 0.71091 0.09631 0.07972 0.0
C2829 C 0.68528 0.08614 0.09283 0.0
C2830 C 0.68023 0.07651 0.08852 0.0
C2831 C 0.68008 0.09055 0.09762 0.0
C2832 C 0.68488 0.10083 0.10152 0.0
C2833 C 0.69103 0.10785 0.09156 0.0
C2834 C 0.69559 0.11752 0.09535 0.0
C2835 C 0.69401 0.12026 0.10904 0.0
C2836 C 0.68784 0.11334 0.11895 0.0
C2837 C 0.68327 0.10366 0.11522 0.0
H2838 H 0.69755 0.12775 0.11196 0.0
H2839 H 0.65262 0.03403 0.07429 0.0
H2840 H 0.96252 0.58657 0.0777 0.0
H2841 H 0.95358 0.59507 0.0773 0.0
H2842 H 0.93633 0.57793 0.11331 0.0
H2843 H 0.94508 0.56919 0.11351 0.0
H2844 H 0.92539 0.57952 0.09261 0.0
H2845 H 0.95404 0.60114 0.11832 0.0
H2846 H 0.97144 0.61099 0.12212 0.0
H2847 H 0.97388 0.62731 0.0837 0.0
H2848 H 0.95651 0.61747 0.07956 0.0
H2849 H 0.90422 0.60753 0.11051 0.0
H2850 H 0.91317 0.59905 0.11096 0.0
H2851 H 0.93099 0.61677 0.07581 0.0
H2852 H 0.9223 0.62556 0.07569 0.0
H2853 H 0.94166 0.61486 0.09605 0.0
H2854 H 0.91309 0.59332 0.07021 0.0
H2855 H 0.89572 0.58346 0.06618 0.0
H2856 H 0.89311 0.56698 0.10448 0.0
H2857 H 0.91045 0.57684 0.10886 0.0
C2858 C 0.95679 0.58455 0.08549 0.0
C2859 C 0.95454 0.57717 0.09565 0.0
C2860 C 0.95173 0.58949 0.08533 0.0
C2861 C 0.94433 0.58723 0.09537 0.0
C2862 C 0.94203 0.57984 0.10548 0.0
C2863 C 0.94709 0.5749 0.10566 0.0
C2864 C 0.93891 0.59247 0.0952 0.0
C2865 C 0.92893 0.58724 0.09357 0.0
C2866 C 0.94354 0.60257 0.09607 0.0
C2867 C 0.95399 0.6085 0.09855 0.0
C2868 C 0.9583 0.60678 0.11061 0.0
C2869 C 0.96816 0.61237 0.11284 0.0
C2870 C 0.97377 0.61975 0.10314 0.0
C2871 C 0.96953 0.62158 0.0912 0.0
C2872 C 0.95968 0.616 0.08891 0.0
C2873 C 0.91009 0.6097 0.10294 0.0
C2874 C 0.91251 0.61726 0.09306 0.0
C2875 C 0.91515 0.60476 0.1031 0.0
C2876 C 0.9227 0.60717 0.09329 0.0
C2877 C 0.92518 0.61474 0.08346 0.0
C2878 C 0.92013 0.6197 0.08331 0.0
C2879 C 0.92812 0.60192 0.09345 0.0
C2880 C 0.9381 0.60715 0.09508 0.0
C2881 C 0.92349 0.59182 0.09255 0.0
C2882 C 0.91306 0.58588 0.08994 0.0
C2883 C 0.9088 0.58765 0.07784 0.0
C2884 C 0.89896 0.58205 0.07548 0.0
C2885 C 0.89331 0.57462 0.08509 0.0
C2886 C 0.89749 0.57275 0.09706 0.0
C2887 C 0.90733 0.57834 0.09948 0.0
H2888 H 0.88569 0.57029 0.08324 0.0
H2889 H 0.9814 0.62408 0.10488 0.0
H2890 H 0.38597 0.30008 0.08236 0.0
H2891 H 0.39459 0.31755 0.08286 0.0
H2892 H 0.41939 0.31762 0.10044 0.0
H2893 H 0.4108 0.30015 0.10001 0.0
H2894 H 0.41631 0.33 0.11477 0.0
H2895 H 0.41814 0.32342 0.06419 0.0
H2896 H 0.41185 0.31613 0.04015 0.0
H2897 H 0.39525 0.33015 0.03798 0.0
H2898 H 0.40135 0.33742 0.06211 0.0
H2899 H 0.44948 0.37943 0.10407 0.0
H2900 H 0.44091 0.36196 0.10337 0.0
H2901 H 0.41625 0.36193 0.08523 0.0
H2902 H 0.42484 0.37941 0.08575 0.0
H2903 H 0.41925 0.34952 0.07118 0.0
H2904 H 0.41741 0.35608 0.12181 0.0
H2905 H 0.4237 0.36335 0.14586 0.0
H2906 H 0.44031 0.34935 0.14795 0.0
H2907 H 0.43421 0.34209 0.12382 0.0
C2908 C 0.3933 0.30381 0.08618 0.0
C2909 C 0.39769 0.29868 0.09112 0.0
C2910 C 0.39822 0.31382 0.08647 0.0
C2911 C 0.4077 0.31896 0.09155 0.0
C2912 C 0.41209 0.31385 0.09651 0.0
C2913 C 0.40715 0.30385 0.09628 0.0
C2914 C 0.41298 0.32963 0.09194 0.0
C2915 C 0.41706 0.33426 0.10518 0.0
C2916 C 0.41379 0.33524 0.07954 0.0
C2917 C 0.41013 0.33089 0.06502 0.0
C2918 C 0.41309 0.32489 0.05864 0.0
C2919 C 0.40957 0.32077 0.04499 0.0
C2920 C 0.40314 0.32266 0.03756 0.0
C2921 C 0.40023 0.32868 0.04376 0.0
C2922 C 0.40372 0.33281 0.05741 0.0
C2923 C 0.4422 0.37571 0.10006 0.0
C2924 C 0.43785 0.38084 0.09501 0.0
C2925 C 0.43729 0.3657 0.09967 0.0
C2926 C 0.42786 0.36057 0.09442 0.0
C2927 C 0.42352 0.36569 0.08932 0.0
C2928 C 0.42844 0.3757 0.08961 0.0
C2929 C 0.42257 0.34989 0.09402 0.0
C2930 C 0.4185 0.34526 0.08078 0.0
C2931 C 0.42176 0.34428 0.10642 0.0
C2932 C 0.42542 0.34862 0.12094 0.0
C2933 C 0.42246 0.35461 0.12735 0.0
C2934 C 0.42598 0.35872 0.141 0.0
C2935 C 0.43242 0.35683 0.14841 0.0
C2936 C 0.43533 0.35082 0.14219 0.0
C2937 C 0.43184 0.3467 0.12854 0.0
H2938 H 0.43514 0.36002 0.15898 0.0
H2939 H 0.40042 0.31947 0.02699 0.0
H2940 H 0.38109 0.9364 0.92835 0.0
H2941 H 0.36361 0.92779 0.92903 0.0
H2942 H 0.3637 0.95411 0.92075 0.0
H2943 H 0.3812 0.9628 0.92036 0.0
H2944 H 0.35134 0.9439 0.94251 0.0
H2945 H 0.35786 0.93766 0.89392 0.0
H2946 H 0.36513 0.93234 0.87522 0.0
H2947 H 0.35113 0.90415 0.89379 0.0
H2948 H 0.34388 0.90934 0.91273 0.0
H2949 H 0.30178 0.92333 0.92676 0.0
H2950 H 0.31925 0.93212 0.92587 0.0
H2951 H 0.31948 0.90567 0.93059 0.0
H2952 H 0.302 0.89684 0.93127 0.0
H2953 H 0.33177 0.9161 0.91051 0.0
H2954 H 0.32542 0.92214 0.95923 0.0
H2955 H 0.31823 0.92731 0.97831 0.0
H2956 H 0.33197 0.9556 0.96009 0.0
H2957 H 0.33914 0.95056 0.94078 0.0
C2958 C 0.3774 0.94037 0.92674 0.0
C2959 C 0.38257 0.9503 0.92429 0.0
C2960 C 0.36739 0.93542 0.92701 0.0
C2961 C 0.36231 0.94028 0.92482 0.0
C2962 C 0.36745 0.9502 0.92243 0.0
C2963 C 0.37746 0.95515 0.92209 0.0
C2964 C 0.35165 0.93504 0.92526 0.0
C2965 C 0.34706 0.9379 0.93537 0.0
C2966 C 0.34604 0.92705 0.91622 0.0
C2967 C 0.3504 0.92392 0.90484 0.0
C2968 C 0.35639 0.93035 0.89409 0.0
C2969 C 0.3605 0.92735 0.88343 0.0
C2970 C 0.35861 0.91792 0.88334 0.0
C2971 C 0.3526 0.91146 0.89389 0.0
C2972 C 0.34848 0.91442 0.90458 0.0
C2973 C 0.30555 0.9194 0.92775 0.0
C2974 C 0.30047 0.90938 0.92912 0.0
C2975 C 0.31556 0.92443 0.92725 0.0
C2976 C 0.32074 0.9196 0.92835 0.0
C2977 C 0.31568 0.90959 0.92969 0.0
C2978 C 0.30567 0.90454 0.93007 0.0
C2979 C 0.33142 0.92493 0.92781 0.0
C2980 C 0.33603 0.92209 0.91767 0.0
C2981 C 0.33705 0.9329 0.93689 0.0
C2982 C 0.33274 0.93595 0.94848 0.0
C2983 C 0.32685 0.92944 0.95923 0.0
C2984 C 0.32279 0.93235 0.97009 0.0
C2985 C 0.32462 0.94177 0.97038 0.0
C2986 C 0.33054 0.9483 0.95983 0.0
C2987 C 0.33461 0.94543 0.94893 0.0
H2988 H 0.32148 0.94401 0.97881 0.0
H2989 H 0.3618 0.91561 0.87507 0.0
H2990 H 0.07526 0.44534 0.93753 0.0
H2991 H 0.08377 0.43641 0.93806 0.0
H2992 H 0.06107 0.41371 0.91332 0.0
H2993 H 0.05237 0.42249 0.91311 0.0
H2994 H 0.06642 0.40657 0.9355 0.0
H2995 H 0.08245 0.42937 0.89735 0.0
H2996 H 0.09106 0.44537 0.88608 0.0
H2997 H 0.11365 0.45408 0.91748 0.0
H2998 H 0.10511 0.43817 0.92906 0.0
H2999 H 0.09133 0.3822 0.91614 0.0
H3000 H 0.08275 0.3911 0.9156 0.0
H3001 H 0.10513 0.41357 0.94109 0.0
H3002 H 0.11385 0.4048 0.94141 0.0
H3003 H 0.09995 0.4208 0.91848 0.0
H3004 H 0.08386 0.39796 0.9566 0.0
H3005 H 0.07524 0.38194 0.96779 0.0
H3006 H 0.05272 0.37327 0.93627 0.0
H3007 H 0.06128 0.38921 0.92477 0.0
C3008 C 0.07203 0.43842 0.93227 0.0
C3009 C 0.06311 0.43465 0.92527 0.0
C3010 C 0.07697 0.43335 0.93246 0.0
C3011 C 0.07313 0.42441 0.9256 0.0
C3012 C 0.06421 0.4206 0.91866 0.0
C3013 C 0.05927 0.42568 0.91843 0.0
C3014 C 0.07834 0.41897 0.92588 0.0
C3015 C 0.0737 0.40964 0.93157 0.0
C3016 C 0.08794 0.42302 0.92109 0.0
C3017 C 0.09309 0.43261 0.91417 0.0
C3018 C 0.08921 0.43472 0.90193 0.0
C3019 C 0.09409 0.44377 0.89547 0.0
C3020 C 0.10289 0.45075 0.90108 0.0
C3021 C 0.10683 0.44868 0.91315 0.0
C3022 C 0.10198 0.43964 0.91966 0.0
C3023 C 0.09446 0.38906 0.92158 0.0
C3024 C 0.10329 0.39278 0.92883 0.0
C3025 C 0.0895 0.39411 0.92137 0.0
C3026 C 0.09324 0.40298 0.92841 0.0
C3027 C 0.10208 0.40673 0.9356 0.0
C3028 C 0.10702 0.40167 0.93588 0.0
C3029 C 0.08802 0.40841 0.9281 0.0
C3030 C 0.09266 0.41774 0.92239 0.0
C3031 C 0.07842 0.40435 0.93285 0.0
C3032 C 0.07327 0.39475 0.93973 0.0
C3033 C 0.07712 0.39261 0.95198 0.0
C3034 C 0.07223 0.38355 0.95839 0.0
C3035 C 0.06345 0.37658 0.95272 0.0
C3036 C 0.05953 0.37867 0.94064 0.0
C3037 C 0.06439 0.38772 0.93417 0.0
H3038 H 0.05968 0.36957 0.95771 0.0
H3039 H 0.10666 0.45774 0.89606 0.0
H3040 H 0.57819 0.63297 0.90247 0.0
H3041 H 0.58702 0.65044 0.90297 0.0
H3042 H 0.59162 0.64987 0.94921 0.0
H3043 H 0.58294 0.63241 0.94878 0.0
H3044 H 0.58606 0.66271 0.94259 0.0
H3045 H 0.60957 0.65523 0.92501 0.0
H3046 H 0.61599 0.64767 0.90872 0.0
H3047 H 0.61303 0.66253 0.87201 0.0
H3048 H 0.60646 0.67008 0.88806 0.0
H3049 H 0.62085 0.71164 0.95154 0.0
H3050 H 0.61243 0.6942 0.95094 0.0
H3051 H 0.60975 0.6948 0.90418 0.0
H3052 H 0.61861 0.71225 0.9046 0.0
H3053 H 0.61427 0.68187 0.91102 0.0
H3054 H 0.59069 0.68926 0.92811 0.0
H3055 H 0.58401 0.69675 0.94403 0.0
H3056 H 0.58671 0.68201 0.98113 0.0
H3057 H 0.59353 0.67453 0.96545 0.0
C3058 C 0.58117 0.63654 0.91273 0.0
C3059 C 0.57984 0.63122 0.92558 0.0
C3060 C 0.58621 0.64655 0.913 0.0
C3061 C 0.59007 0.6515 0.92611 0.0
C3062 C 0.5887 0.64623 0.93897 0.0
C3063 C 0.58368 0.63622 0.9387 0.0
C3064 C 0.59546 0.66216 0.92647 0.0
C3065 C 0.59231 0.6669 0.93583 0.0
C3066 C 0.60346 0.66766 0.91738 0.0
C3067 C 0.60743 0.66315 0.90772 0.0
C3068 C 0.61021 0.65683 0.91345 0.0
C3069 C 0.61389 0.65256 0.90426 0.0
C3070 C 0.6149 0.6546 0.88933 0.0
C3071 C 0.61224 0.66094 0.88357 0.0
C3072 C 0.60854 0.66523 0.89271 0.0
C3073 C 0.61858 0.70809 0.94109 0.0
C3074 C 0.62042 0.71343 0.92812 0.0
C3075 C 0.61364 0.69808 0.94078 0.0
C3076 C 0.61029 0.69313 0.92753 0.0
C3077 C 0.6122 0.69842 0.91456 0.0
C3078 C 0.61719 0.70843 0.91485 0.0
C3079 C 0.60488 0.68245 0.92716 0.0
C3080 C 0.60802 0.6777 0.91779 0.0
C3081 C 0.59683 0.67693 0.93618 0.0
C3082 C 0.59271 0.68141 0.94563 0.0
C3083 C 0.58993 0.68768 0.93968 0.0
C3084 C 0.5861 0.69191 0.94866 0.0
C3085 C 0.58496 0.68988 0.96359 0.0
C3086 C 0.58761 0.68359 0.96956 0.0
C3087 C 0.59145 0.67934 0.96064 0.0
H3088 H 0.58199 0.69316 0.97052 0.0
H3089 H 0.61775 0.65129 0.88224 0.0
H3090 H 0.38164 0.44783 0.42578 0.0
H3091 H 0.36417 0.43911 0.42649 0.0
H3092 H 0.36405 0.41237 0.42501 0.0
H3093 H 0.38153 0.42107 0.42408 0.0
H3094 H 0.3506 0.41134 0.40784 0.0
H3095 H 0.35991 0.42142 0.45722 0.0
H3096 H 0.36842 0.43293 0.47699 0.0
H3097 H 0.35393 0.44827 0.466 0.0
H3098 H 0.34544 0.43692 0.44602 0.0
H3099 H 0.30235 0.38152 0.43052 0.0
H3100 H 0.31984 0.39033 0.42984 0.0
H3101 H 0.31975 0.41691 0.42696 0.0
H3102 H 0.30225 0.40816 0.42785 0.0
H3103 H 0.3332 0.41798 0.44641 0.0
H3104 H 0.32382 0.40759 0.39701 0.0
H3105 H 0.31526 0.39581 0.37758 0.0
H3106 H 0.32984 0.38067 0.38922 0.0
H3107 H 0.33839 0.39229 0.40887 0.0
C3108 C 0.3779 0.44009 0.42569 0.0
C3109 C 0.383 0.43516 0.42495 0.0
C3110 C 0.36789 0.4351 0.42611 0.0
C3111 C 0.36274 0.42505 0.42605 0.0
C3112 C 0.36782 0.42011 0.42508 0.0
C3113 C 0.37783 0.4251 0.42453 0.0
C3114 C 0.35207 0.41969 0.42698 0.0
C3115 C 0.34682 0.41271 0.41641 0.0
C3116 C 0.34706 0.42157 0.43797 0.0
C3117 C 0.35211 0.42837 0.45004 0.0
C3118 C 0.35859 0.42728 0.45895 0.0
C3119 C 0.3634 0.43377 0.47021 0.0
C3120 C 0.36173 0.44134 0.47272 0.0
C3121 C 0.35523 0.44241 0.46402 0.0
C3122 C 0.3504 0.43595 0.45274 0.0
C3123 C 0.30605 0.38925 0.42987 0.0
C3124 C 0.30088 0.39412 0.42919 0.0
C3125 C 0.31606 0.39427 0.42937 0.0
C3126 C 0.32113 0.40429 0.4282 0.0
C3127 C 0.316 0.40919 0.42781 0.0
C3128 C 0.30599 0.40417 0.42821 0.0
C3129 C 0.33177 0.40965 0.4273 0.0
C3130 C 0.337 0.41662 0.43787 0.0
C3131 C 0.33676 0.40772 0.41637 0.0
C3132 C 0.33168 0.40076 0.40451 0.0
C3133 C 0.32515 0.40171 0.3955 0.0
C3134 C 0.3203 0.39507 0.38444 0.0
C3135 C 0.32198 0.38749 0.38219 0.0
C3136 C 0.32853 0.38654 0.39099 0.0
C3137 C 0.33339 0.39316 0.40208 0.0
H3138 H 0.31823 0.38235 0.37362 0.0
H3139 H 0.36547 0.44636 0.48144 0.0
H3140 H 0.6239 0.91545 0.40592 0.0
H3141 H 0.61516 0.92415 0.40563 0.0
H3142 H 0.6062 0.91552 0.45006 0.0
H3143 H 0.61467 0.90651 0.45027 0.0
H3144 H 0.59155 0.9137 0.43385 0.0
H3145 H 0.62406 0.93833 0.44169 0.0
H3146 H 0.64134 0.94761 0.43646 0.0
H3147 H 0.63553 0.95559 0.39461 0.0
H3148 H 0.61821 0.94625 0.39952 0.0
H3149 H 0.5747 0.94592 0.44768 0.0
H3150 H 0.58349 0.93729 0.44827 0.0
H3151 H 0.59337 0.94655 0.40434 0.0
H3152 H 0.58494 0.95558 0.4039 0.0
H3153 H 0.60758 0.94804 0.42046 0.0
H3154 H 0.57514 0.92339 0.41237 0.0
H3155 H 0.55783 0.91402 0.41734 0.0
H3156 H 0.56343 0.90597 0.45928 0.0
H3157 H 0.58078 0.9154 0.45463 0.0
C3158 C 0.62001 0.91532 0.41561 0.0
C3159 C 0.62001 0.91026 0.42813 0.0
C3160 C 0.61509 0.9204 0.41548 0.0
C3161 C 0.6101 0.92061 0.42788 0.0
C3162 C 0.61002 0.91551 0.44036 0.0
C3163 C 0.61494 0.91042 0.44051 0.0
C3164 C 0.60489 0.92607 0.42778 0.0
C3165 C 0.59509 0.92124 0.43113 0.0
C3166 C 0.60942 0.93586 0.42387 0.0
C3167 C 0.61984 0.94152 0.42092 0.0
C3168 C 0.62647 0.94201 0.43133 0.0
C3169 C 0.63627 0.94729 0.42843 0.0
C3170 C 0.63953 0.95217 0.4152 0.0
C3171 C 0.633 0.9518 0.40485 0.0
C3172 C 0.62319 0.94652 0.40769 0.0
C3173 C 0.57881 0.94622 0.43817 0.0
C3174 C 0.57907 0.95148 0.42573 0.0
C3175 C 0.58376 0.94117 0.43847 0.0
C3176 C 0.58901 0.94113 0.42628 0.0
C3177 C 0.58935 0.94642 0.41388 0.0
C3178 C 0.58444 0.95151 0.41359 0.0
C3179 C 0.59422 0.93567 0.42651 0.0
C3180 C 0.60403 0.9405 0.42319 0.0
C3181 C 0.58969 0.92587 0.43041 0.0
C3182 C 0.57926 0.92017 0.43321 0.0
C3183 C 0.57268 0.91968 0.4227 0.0
C3184 C 0.56286 0.91435 0.42545 0.0
C3185 C 0.55954 0.90942 0.43863 0.0
C3186 C 0.56602 0.9098 0.44908 0.0
C3187 C 0.57584 0.91513 0.44639 0.0
H3188 H 0.55193 0.9053 0.44074 0.0
H3189 H 0.64712 0.95625 0.41297 0.0
H3190 H 0.07512 0.63326 0.44006 0.0
H3191 H 0.0837 0.65072 0.44047 0.0
H3192 H 0.06334 0.65088 0.4102 0.0
H3193 H 0.05466 0.63339 0.40981 0.0
H3194 H 0.08133 0.66418 0.40284 0.0
H3195 H 0.06242 0.65508 0.44657 0.0
H3196 H 0.05638 0.64658 0.46995 0.0
H3197 H 0.08485 0.6609 0.48743 0.0
H3198 H 0.09108 0.66939 0.46408 0.0
H3199 H 0.09368 0.71263 0.41193 0.0
H3200 H 0.08518 0.69517 0.41143 0.0
H3201 H 0.10502 0.69506 0.44283 0.0
H3202 H 0.11355 0.71254 0.44342 0.0
H3203 H 0.08734 0.6817 0.44961 0.0
H3204 H 0.10633 0.6908 0.4061 0.0
H3205 H 0.11253 0.69925 0.38274 0.0
H3206 H 0.08417 0.68492 0.36482 0.0
H3207 H 0.07778 0.67647 0.38816 0.0
C3208 C 0.0724 0.63699 0.43357 0.0
C3209 C 0.06414 0.63187 0.42497 0.0
C3210 C 0.07734 0.64699 0.4338 0.0
C3211 C 0.07411 0.65214 0.42551 0.0
C3212 C 0.06598 0.64708 0.41669 0.0
C3213 C 0.06104 0.63707 0.41645 0.0
C3214 C 0.07918 0.6628 0.42609 0.0
C3215 C 0.08253 0.668 0.41305 0.0
C3216 C 0.08097 0.66783 0.43944 0.0
C3217 C 0.07723 0.6628 0.45353 0.0
C3218 C 0.0674 0.65636 0.45537 0.0
C3219 C 0.06394 0.65156 0.46862 0.0
C3220 C 0.07023 0.65318 0.48016 0.0
C3221 C 0.07999 0.65964 0.47848 0.0
C3222 C 0.08349 0.66446 0.46524 0.0
C3223 C 0.09629 0.7089 0.41865 0.0
C3224 C 0.10435 0.71402 0.42765 0.0
C3225 C 0.09141 0.6989 0.41836 0.0
C3226 C 0.09452 0.69375 0.42693 0.0
C3227 C 0.10247 0.69884 0.43611 0.0
C3228 C 0.10733 0.70885 0.43646 0.0
C3229 C 0.08949 0.6831 0.42634 0.0
C3230 C 0.08615 0.67788 0.43939 0.0
C3231 C 0.08774 0.67806 0.413 0.0
C3232 C 0.09156 0.68308 0.39893 0.0
C3233 C 0.1014 0.6895 0.39721 0.0
C3234 C 0.10495 0.69428 0.38397 0.0
C3235 C 0.09874 0.69264 0.37231 0.0
C3236 C 0.08897 0.68619 0.37386 0.0
C3237 C 0.08538 0.6814 0.38709 0.0
H3238 H 0.1015 0.69635 0.36206 0.0
H3239 H 0.06754 0.64945 0.49041 0.0
H3240 H 0.19608 0.33237 0.39118 0.0
H3241 H 0.18475 0.32908 0.37136 0.0
H3242 H 0.19636 0.35933 0.36479 0.0
H3243 H 0.20753 0.36268 0.38499 0.0
H3244 H 0.17731 0.3503 0.3643 0.0
H3245 H 0.20126 0.3457 0.34109 0.0
H3246 H 0.21191 0.339 0.33807 0.0
H3247 H 0.18758 0.31067 0.33598 0.0
H3248 H 0.17678 0.31719 0.33919 0.0
H3249 H 0.15537 0.34731 0.29572 0.0
H3250 H 0.16669 0.35056 0.31555 0.0
H3251 H 0.15494 0.3203 0.32218 0.0
H3252 H 0.14377 0.31698 0.302 0.0
H3253 H 0.17404 0.32931 0.32266 0.0
H3254 H 0.15009 0.33392 0.34582 0.0
H3255 H 0.13945 0.34063 0.34882 0.0
H3256 H 0.16379 0.36894 0.35096 0.0
H3257 H 0.17458 0.36241 0.34777 0.0
C3258 C 0.19622 0.33834 0.38559 0.0
C3259 C 0.20275 0.34781 0.38976 0.0
C3260 C 0.18977 0.33644 0.37412 0.0
C3261 C 0.18973 0.34395 0.36642 0.0
C3262 C 0.19625 0.3534 0.37051 0.0
C3263 C 0.20271 0.35532 0.38199 0.0
C3264 C 0.18275 0.34192 0.35434 0.0
C3265 C 0.1767 0.34582 0.35509 0.0
C3266 C 0.18174 0.33587 0.34247 0.0
C3267 C 0.18821 0.33193 0.34053 0.0
C3268 C 0.19818 0.33803 0.34011 0.0
C3269 C 0.20424 0.33427 0.33834 0.0
C3270 C 0.20042 0.32441 0.33687 0.0
C3271 C 0.19053 0.3183 0.33714 0.0
C3272 C 0.18443 0.32203 0.33892 0.0
C3273 C 0.1552 0.34132 0.30133 0.0
C3274 C 0.14863 0.33186 0.29719 0.0
C3275 C 0.16164 0.3432 0.3128 0.0
C3276 C 0.16164 0.33568 0.32052 0.0
C3277 C 0.15508 0.32623 0.31645 0.0
C3278 C 0.14863 0.32434 0.30497 0.0
C3279 C 0.16861 0.33769 0.33261 0.0
C3280 C 0.17465 0.33378 0.33187 0.0
C3281 C 0.16961 0.34373 0.34448 0.0
C3282 C 0.16314 0.34768 0.34642 0.0
C3283 C 0.15317 0.34158 0.34682 0.0
C3284 C 0.14711 0.34535 0.34857 0.0
C3285 C 0.15094 0.35521 0.35004 0.0
C3286 C 0.16083 0.36131 0.3498 0.0
C3287 C 0.16693 0.35758 0.34803 0.0
H3288 H 0.14623 0.35811 0.3514 0.0
H3289 H 0.20513 0.32151 0.3355 0.0
H3290 H 0.67751 0.87017 0.38129 0.0
H3291 H 0.6816 0.86271 0.36153 0.0
H3292 H 0.65741 0.8353 0.37266 0.0
H3293 H 0.65329 0.84272 0.39247 0.0
H3294 H 0.6726 0.83351 0.36806 0.0
H3295 H 0.65747 0.84816 0.34211 0.0
H3296 H 0.65484 0.86133 0.33465 0.0
H3297 H 0.6834 0.87686 0.31764 0.0
H3298 H 0.68625 0.86382 0.32518 0.0
H3299 H 0.67288 0.80882 0.30379 0.0
H3300 H 0.66871 0.8162 0.32358 0.0
H3301 H 0.69281 0.84369 0.31253 0.0
H3302 H 0.697 0.83635 0.2927 0.0
H3303 H 0.6776 0.8454 0.31709 0.0
H3304 H 0.69275 0.83078 0.34308 0.0
H3305 H 0.6954 0.81762 0.35056 0.0
H3306 H 0.66682 0.80205 0.3675 0.0
H3307 H 0.66396 0.81507 0.35994 0.0
C3308 C 0.67297 0.86257 0.37943 0.0
C3309 C 0.66504 0.85707 0.3885 0.0
C3310 C 0.67533 0.8583 0.36811 0.0
C3311 C 0.66977 0.84843 0.36545 0.0
C3312 C 0.66184 0.84292 0.37447 0.0
C3313 C 0.6595 0.84718 0.38583 0.0
C3314 C 0.67231 0.84382 0.35348 0.0
C3315 C 0.67356 0.83603 0.35688 0.0
C3316 C 0.6738 0.84722 0.33891 0.0
C3317 C 0.6721 0.85505 0.33434 0.0
C3318 C 0.66321 0.85441 0.33688 0.0
C3319 C 0.66168 0.86185 0.33262 0.0
C3320 C 0.66896 0.86994 0.32571 0.0
C3321 C 0.67778 0.87059 0.32301 0.0
C3322 C 0.67935 0.86318 0.32726 0.0
C3323 C 0.67737 0.81642 0.30568 0.0
C3324 C 0.68529 0.82197 0.29662 0.0
C3325 C 0.67497 0.82064 0.31701 0.0
C3326 C 0.68049 0.83052 0.3197 0.0
C3327 C 0.68841 0.83607 0.3107 0.0
C3328 C 0.69079 0.83186 0.29932 0.0
C3329 C 0.6779 0.83509 0.33167 0.0
C3330 C 0.67664 0.84287 0.32827 0.0
C3331 C 0.6764 0.83169 0.34623 0.0
C3332 C 0.67811 0.82386 0.35081 0.0
C3333 C 0.68701 0.82451 0.3483 0.0
C3334 C 0.68855 0.81709 0.35257 0.0
C3335 C 0.68127 0.80899 0.35947 0.0
C3336 C 0.67245 0.80832 0.36214 0.0
C3337 C 0.67086 0.81573 0.35788 0.0
H3338 H 0.68248 0.80325 0.36277 0.0
H3339 H 0.66776 0.87568 0.32241 0.0
H3340 H 0.16476 0.8055 0.38217 0.0
H3341 H 0.17254 0.81677 0.36208 0.0
H3342 H 0.15865 0.83244 0.3752 0.0
H3343 H 0.15059 0.82102 0.39496 0.0
H3344 H 0.1583 0.83094 0.34638 0.0
H3345 H 0.1824 0.84032 0.38339 0.0
H3346 H 0.19263 0.838 0.40095 0.0
H3347 H 0.20491 0.83003 0.36602 0.0
H3348 H 0.19466 0.83218 0.34826 0.0
H3349 H 0.18718 0.87327 0.30545 0.0
H3350 H 0.17939 0.86201 0.32556 0.0
H3351 H 0.19317 0.84626 0.3124 0.0
H3352 H 0.20122 0.85765 0.29261 0.0
H3353 H 0.19358 0.84782 0.34126 0.0
H3354 H 0.16948 0.83841 0.30426 0.0
H3355 H 0.15925 0.84074 0.28669 0.0
H3356 H 0.14699 0.84876 0.32159 0.0
H3357 H 0.15724 0.84661 0.33936 0.0
C3358 C 0.16326 0.81127 0.38069 0.0
C3359 C 0.15708 0.81236 0.3903 0.0
C3360 C 0.1678 0.81779 0.36926 0.0
C3361 C 0.16632 0.82558 0.36722 0.0
C3362 C 0.15998 0.82654 0.37657 0.0
C3363 C 0.15543 0.82003 0.38797 0.0
C3364 C 0.17141 0.83277 0.35542 0.0
C3365 C 0.16602 0.83471 0.34539 0.0
C3366 C 0.18149 0.83759 0.35387 0.0
C3367 C 0.18769 0.83632 0.36452 0.0
C3368 C 0.18723 0.838 0.37947 0.0
C3369 C 0.19304 0.83673 0.38945 0.0
C3370 C 0.1994 0.83384 0.38461 0.0
C3371 C 0.19998 0.83225 0.36976 0.0
C3372 C 0.19417 0.8335 0.35973 0.0
C3373 C 0.18865 0.86748 0.30693 0.0
C3374 C 0.1948 0.86636 0.29729 0.0
C3375 C 0.1841 0.86098 0.31836 0.0
C3376 C 0.18555 0.85317 0.32041 0.0
C3377 C 0.19187 0.85217 0.31104 0.0
C3378 C 0.19642 0.85866 0.29962 0.0
C3379 C 0.18047 0.84599 0.33222 0.0
C3380 C 0.18586 0.84405 0.34225 0.0
C3381 C 0.17039 0.84117 0.33377 0.0
C3382 C 0.1642 0.84244 0.32312 0.0
C3383 C 0.16465 0.84074 0.30818 0.0
C3384 C 0.15884 0.84202 0.29818 0.0
C3385 C 0.15249 0.84492 0.30301 0.0
C3386 C 0.15192 0.84653 0.31786 0.0
C3387 C 0.15772 0.84527 0.3279 0.0
H3388 H 0.148 0.84591 0.29526 0.0
H3389 H 0.2039 0.83286 0.39236 0.0
H3390 H 0.32301 0.15026 0.22865 0.0
H3391 H 0.32724 0.16182 0.20885 0.0
H3392 H 0.3468 0.15348 0.1916 0.0
H3393 H 0.34284 0.14211 0.21169 0.0
H3394 H 0.35493 0.17248 0.1917 0.0
H3395 H 0.32499 0.14651 0.17528 0.0
H3396 H 0.30789 0.13437 0.17704 0.0
H3397 H 0.3008 0.15646 0.18279 0.0
H3398 H 0.31788 0.16873 0.18127 0.0
H3399 H 0.36249 0.19525 0.12259 0.0
H3400 H 0.35821 0.18372 0.14245 0.0
H3401 H 0.33875 0.19222 0.1596 0.0
H3402 H 0.34277 0.20357 0.13947 0.0
H3403 H 0.33056 0.17318 0.1596 0.0
H3404 H 0.36049 0.19914 0.17596 0.0
H3405 H 0.37758 0.21129 0.17423 0.0
H3406 H 0.38469 0.18921 0.1686 0.0
H3407 H 0.36762 0.17693 0.17011 0.0
C3408 C 0.32825 0.1509 0.2207 0.0
C3409 C 0.33258 0.14522 0.22183 0.0
C3410 C 0.33059 0.15746 0.20926 0.0
C3411 C 0.33729 0.15849 0.19859 0.0
C3412 C 0.3416 0.15282 0.19965 0.0
C3413 C 0.33926 0.14624 0.21109 0.0
C3414 C 0.33993 0.16563 0.18653 0.0
C3415 C 0.3496 0.17253 0.18455 0.0
C3416 C 0.33299 0.1659 0.17739 0.0
C3417 C 0.32272 0.15853 0.1783 0.0
C3418 C 0.31979 0.14878 0.17704 0.0
C3419 C 0.3101 0.14187 0.17797 0.0
C3420 C 0.30327 0.14464 0.18007 0.0
C3421 C 0.30611 0.15432 0.18119 0.0
C3422 C 0.31579 0.16126 0.18028 0.0
C3423 C 0.35726 0.19465 0.13053 0.0
C3424 C 0.35298 0.20037 0.12936 0.0
C3425 C 0.35489 0.1881 0.142 0.0
C3426 C 0.34821 0.18713 0.15266 0.0
C3427 C 0.34393 0.19283 0.15156 0.0
C3428 C 0.34631 0.1994 0.14009 0.0
C3429 C 0.34555 0.18002 0.16476 0.0
C3430 C 0.33588 0.17312 0.16675 0.0
C3431 C 0.35249 0.17975 0.17391 0.0
C3432 C 0.36276 0.18712 0.173 0.0
C3433 C 0.36569 0.19688 0.17423 0.0
C3434 C 0.37537 0.20379 0.17332 0.0
C3435 C 0.38221 0.20102 0.17127 0.0
C3436 C 0.37938 0.19134 0.17017 0.0
C3437 C 0.3697 0.1844 0.17107 0.0
H3438 H 0.38971 0.20638 0.17057 0.0
H3439 H 0.29577 0.13928 0.18078 0.0
H3440 H 0.81578 0.16906 0.12754 0.0
H3441 H 0.82743 0.17657 0.14719 0.0
H3442 H 0.82686 0.14998 0.15516 0.0
H3443 H 0.81517 0.14241 0.13553 0.0
H3444 H 0.82695 0.15815 0.18035 0.0
H3445 H 0.84544 0.16871 0.13628 0.0
H3446 H 0.84973 0.17601 0.11181 0.0
H3447 H 0.85401 0.20253 0.12918 0.0
H3448 H 0.84961 0.19534 0.15374 0.0
H3449 H 0.86892 0.17706 0.22381 0.0
H3450 H 0.85725 0.16948 0.20421 0.0
H3451 H 0.85779 0.19603 0.19605 0.0
H3452 H 0.86949 0.20367 0.21563 0.0
H3453 H 0.85772 0.18785 0.17095 0.0
H3454 H 0.83922 0.17731 0.21499 0.0
H3455 H 0.83491 0.17003 0.23947 0.0
H3456 H 0.83064 0.1435 0.22216 0.0
H3457 H 0.83506 0.15067 0.1976 0.0
C3458 C 0.81816 0.16481 0.13342 0.0
C3459 C 0.81456 0.15513 0.12985 0.0
C3460 C 0.82484 0.16912 0.14468 0.0
C3461 C 0.82818 0.1639 0.15256 0.0
C3462 C 0.82443 0.15418 0.14926 0.0
C3463 C 0.81771 0.14985 0.13804 0.0
C3464 C 0.83561 0.16859 0.16416 0.0
C3465 C 0.83373 0.16457 0.17822 0.0
C3466 C 0.8444 0.1771 0.16156 0.0
C3467 C 0.84711 0.18146 0.14682 0.0
C3468 C 0.84723 0.17608 0.13487 0.0
C3469 C 0.84969 0.1802 0.12098 0.0
C3470 C 0.85212 0.18972 0.11894 0.0
C3471 C 0.85212 0.19515 0.13078 0.0
C3472 C 0.84965 0.19106 0.14469 0.0
C3473 C 0.86653 0.18129 0.2179 0.0
C3474 C 0.87014 0.19098 0.2214 0.0
C3475 C 0.85984 0.17693 0.20667 0.0
C3476 C 0.85649 0.18212 0.19874 0.0
C3477 C 0.86023 0.19185 0.20198 0.0
C3478 C 0.86696 0.19623 0.21317 0.0
C3479 C 0.84906 0.17742 0.18713 0.0
C3480 C 0.85095 0.18143 0.17307 0.0
C3481 C 0.84028 0.1689 0.18974 0.0
C3482 C 0.83756 0.16456 0.20448 0.0
C3483 C 0.83743 0.16995 0.21642 0.0
C3484 C 0.83495 0.16583 0.23031 0.0
C3485 C 0.83252 0.15631 0.23238 0.0
C3486 C 0.83254 0.15087 0.22055 0.0
C3487 C 0.83502 0.15496 0.20664 0.0
H3488 H 0.83061 0.15314 0.24314 0.0
H3489 H 0.85402 0.1929 0.10818 0.0
H3490 H 0.83844 0.68908 0.23317 0.0
H3491 H 0.84582 0.68498 0.21334 0.0
H3492 H 0.81877 0.67054 0.19086 0.0
H3493 H 0.81124 0.67434 0.21093 0.0
H3494 H 0.82718 0.65994 0.19027 0.0
H3495 H 0.83702 0.69263 0.17962 0.0
H3496 H 0.84419 0.70985 0.18474 0.0
H3497 H 0.87118 0.71178 0.19376 0.0
H3498 H 0.86413 0.69453 0.18889 0.0
H3499 H 0.84496 0.65517 0.12177 0.0
H3500 H 0.83761 0.65927 0.14161 0.0
H3501 H 0.8647 0.67377 0.16398 0.0
H3502 H 0.8722 0.66998 0.14388 0.0
H3503 H 0.85628 0.68434 0.16465 0.0
H3504 H 0.84645 0.65166 0.1753 0.0
H3505 H 0.83929 0.63445 0.17017 0.0
H3506 H 0.81229 0.63251 0.16116 0.0
H3507 H 0.81933 0.64974 0.16604 0.0
C3508 C 0.83403 0.68499 0.22405 0.0
C3509 C 0.82422 0.68204 0.22372 0.0
C3510 C 0.8383 0.68273 0.21262 0.0
C3511 C 0.8329 0.67752 0.20048 0.0
C3512 C 0.82311 0.67458 0.20007 0.0
C3513 C 0.81883 0.67684 0.21151 0.0
C3514 C 0.83741 0.67496 0.18839 0.0
C3515 C 0.83346 0.6653 0.18453 0.0
C3516 C 0.84576 0.6819 0.18111 0.0
C3517 C 0.85002 0.69227 0.18403 0.0
C3518 C 0.84446 0.69671 0.18281 0.0
C3519 C 0.84851 0.70648 0.18565 0.0
C3520 C 0.85813 0.7119 0.18961 0.0
C3521 C 0.86373 0.70756 0.19071 0.0
C3522 C 0.85971 0.6978 0.1879 0.0
C3523 C 0.84939 0.65927 0.13086 0.0
C3524 C 0.85921 0.66225 0.13115 0.0
C3525 C 0.84514 0.66154 0.14231 0.0
C3526 C 0.85056 0.66676 0.15443 0.0
C3527 C 0.86035 0.66972 0.15479 0.0
C3528 C 0.86461 0.66746 0.14333 0.0
C3529 C 0.84605 0.66932 0.16653 0.0
C3530 C 0.85 0.67898 0.17039 0.0
C3531 C 0.8377 0.66239 0.17382 0.0
C3532 C 0.83345 0.65201 0.1709 0.0
C3533 C 0.83901 0.64758 0.17211 0.0
C3534 C 0.83497 0.63781 0.16927 0.0
C3535 C 0.82535 0.63239 0.16531 0.0
C3536 C 0.81975 0.63672 0.16421 0.0
C3537 C 0.82376 0.64648 0.16703 0.0
H3538 H 0.82223 0.62483 0.16311 0.0
H3539 H 0.86125 0.71946 0.19179 0.0
H3540 H 0.8276 0.673 0.61734 0.0
H3541 H 0.83897 0.67651 0.63716 0.0
H3542 H 0.81572 0.65943 0.66654 0.0
H3543 H 0.80424 0.65616 0.64684 0.0
H3544 H 0.82852 0.6757 0.67949 0.0
H3545 H 0.82999 0.65112 0.65239 0.0
H3546 H 0.8319 0.64343 0.63045 0.0
H3547 H 0.86033 0.66706 0.62436 0.0
H3548 H 0.85854 0.67496 0.64616 0.0
H3549 H 0.85639 0.67216 0.73637 0.0
H3550 H 0.84502 0.66869 0.71656 0.0
H3551 H 0.86828 0.6857 0.68716 0.0
H3552 H 0.87975 0.68893 0.70686 0.0
H3553 H 0.85547 0.66947 0.67422 0.0
H3554 H 0.85403 0.69405 0.70131 0.0
H3555 H 0.85213 0.70177 0.72323 0.0
H3556 H 0.82368 0.67816 0.72933 0.0
H3557 H 0.82546 0.67024 0.70755 0.0
C3558 C 0.82487 0.67005 0.62804 0.0
C3559 C 0.81496 0.66429 0.63044 0.0
C3560 C 0.83141 0.67198 0.63936 0.0
C3561 C 0.82824 0.66814 0.65336 0.0
C3562 C 0.81836 0.66246 0.65584 0.0
C3563 C 0.8118 0.66052 0.64451 0.0
C3564 C 0.83524 0.67014 0.6654 0.0
C3565 C 0.83433 0.67421 0.6784 0.0
C3566 C 0.84298 0.66843 0.66391 0.0
C3567 C 0.84409 0.66368 0.65083 0.0
C3568 C 0.83662 0.65471 0.64631 0.0
C3569 C 0.83769 0.65031 0.63391 0.0
C3570 C 0.84622 0.65476 0.62599 0.0
C3571 C 0.85372 0.66362 0.63049 0.0
C3572 C 0.85268 0.66807 0.64287 0.0
C3573 C 0.85912 0.6751 0.72567 0.0
C3574 C 0.86903 0.68083 0.72327 0.0
C3575 C 0.85258 0.67319 0.71436 0.0
C3576 C 0.85575 0.67702 0.70036 0.0
C3577 C 0.86563 0.68268 0.69786 0.0
C3578 C 0.87219 0.68459 0.70919 0.0
C3579 C 0.84876 0.67503 0.68831 0.0
C3580 C 0.84967 0.67097 0.67531 0.0
C3581 C 0.84102 0.67675 0.6898 0.0
C3582 C 0.83991 0.68151 0.70288 0.0
C3583 C 0.84739 0.69047 0.70739 0.0
C3584 C 0.84633 0.69489 0.71978 0.0
C3585 C 0.8378 0.69044 0.72769 0.0
C3586 C 0.8303 0.68159 0.72321 0.0
C3587 C 0.83132 0.67713 0.71083 0.0
H3588 H 0.83699 0.69388 0.73728 0.0
H3589 H 0.84703 0.65134 0.6164 0.0
H3590 H 0.36438 0.16169 0.63832 0.0
H3591 H 0.361 0.1696 0.65828 0.0
H3592 H 0.33087 0.15302 0.64876 0.0
H3593 H 0.33418 0.14504 0.62888 0.0
H3594 H 0.336 0.17131 0.65273 0.0
H3595 H 0.34069 0.14817 0.67864 0.0
H3596 H 0.34926 0.13976 0.6859 0.0
H3597 H 0.37257 0.16603 0.70216 0.0
H3598 H 0.3642 0.17462 0.69481 0.0
H3599 H 0.31884 0.182 0.71769 0.0
H3600 H 0.32228 0.17414 0.69774 0.0
H3601 H 0.35238 0.19063 0.70756 0.0
H3602 H 0.349 0.19856 0.72745 0.0
H3603 H 0.3473 0.17242 0.70341 0.0
H3604 H 0.34262 0.19557 0.67755 0.0
H3605 H 0.33409 0.204 0.67026 0.0
H3606 H 0.3108 0.17776 0.65387 0.0
H3607 H 0.31914 0.16915 0.66124 0.0
C3608 C 0.35702 0.15961 0.64059 0.0
C3609 C 0.34956 0.15271 0.63192 0.0
C3610 C 0.35509 0.16417 0.65201 0.0
C3611 C 0.34566 0.16189 0.65513 0.0
C3612 C 0.33821 0.15496 0.64656 0.0
C3613 C 0.34012 0.15041 0.63514 0.0
C3614 C 0.34355 0.16681 0.66712 0.0
C3615 C 0.33837 0.17144 0.66385 0.0
C3616 C 0.34681 0.16721 0.6816 0.0
C3617 C 0.35186 0.16206 0.68604 0.0
C3618 C 0.34768 0.15217 0.68366 0.0
C3619 C 0.35249 0.14737 0.6878 0.0
C3620 C 0.36146 0.15237 0.69445 0.0
C3621 C 0.36563 0.16217 0.69699 0.0
C3622 C 0.36085 0.16701 0.69285 0.0
C3623 C 0.32621 0.18406 0.71549 0.0
C3624 C 0.33363 0.19093 0.72424 0.0
C3625 C 0.32817 0.17953 0.70407 0.0
C3626 C 0.33761 0.18182 0.70103 0.0
C3627 C 0.34503 0.1887 0.70969 0.0
C3628 C 0.34308 0.19322 0.72111 0.0
C3629 C 0.33975 0.17692 0.68902 0.0
C3630 C 0.34494 0.1723 0.69228 0.0
C3631 C 0.3365 0.17654 0.67454 0.0
C3632 C 0.33146 0.1817 0.67009 0.0
C3633 C 0.33565 0.19158 0.6725 0.0
C3634 C 0.33085 0.1964 0.66834 0.0
C3635 C 0.32189 0.19142 0.66165 0.0
C3636 C 0.31773 0.18161 0.65907 0.0
C3637 C 0.32249 0.17676 0.66323 0.0
H3638 H 0.31819 0.19516 0.65842 0.0
H3639 H 0.36518 0.14864 0.69766 0.0
H3640 H 0.87245 0.20396 0.6422 0.0
H3641 H 0.8652 0.19261 0.66235 0.0
H3642 H 0.83745 0.18149 0.64246 0.0
H3643 H 0.84459 0.19302 0.62256 0.0
H3644 H 0.83614 0.18312 0.67109 0.0
H3645 H 0.85028 0.16966 0.64004 0.0
H3646 H 0.86328 0.16953 0.62615 0.0
H3647 H 0.87939 0.17432 0.66562 0.0
H3648 H 0.86653 0.1746 0.67973 0.0
H3649 H 0.81171 0.14019 0.71233 0.0
H3650 H 0.81899 0.15155 0.6922 0.0
H3651 H 0.84672 0.16263 0.71217 0.0
H3652 H 0.83954 0.15109 0.73204 0.0
H3653 H 0.84806 0.16104 0.68352 0.0
H3654 H 0.83394 0.17449 0.71458 0.0
H3655 H 0.82095 0.17463 0.72849 0.0
H3656 H 0.80484 0.16988 0.68903 0.0
H3657 H 0.81768 0.16958 0.67491 0.0
C3658 C 0.86479 0.19919 0.64219 0.0
C3659 C 0.85913 0.1994 0.63065 0.0
C3660 C 0.86065 0.19262 0.65367 0.0
C3661 C 0.85078 0.18605 0.65385 0.0
C3662 C 0.84509 0.18642 0.64256 0.0
C3663 C 0.8492 0.19298 0.6311 0.0
C3664 C 0.84637 0.17876 0.66571 0.0
C3665 C 0.83868 0.17821 0.67367 0.0
C3666 C 0.84977 0.17246 0.66936 0.0
C3667 C 0.85749 0.17225 0.66091 0.0
C3668 C 0.85663 0.17076 0.64574 0.0
C3669 C 0.86396 0.17064 0.63783 0.0
C3670 C 0.87217 0.17194 0.645 0.0
C3671 C 0.87304 0.17333 0.66009 0.0
C3672 C 0.86572 0.17346 0.66805 0.0
C3673 C 0.81937 0.14495 0.71236 0.0
C3674 C 0.82501 0.14474 0.72392 0.0
C3675 C 0.82353 0.15153 0.70089 0.0
C3676 C 0.83341 0.15809 0.70074 0.0
C3677 C 0.83908 0.15771 0.71204 0.0
C3678 C 0.83494 0.15114 0.7235 0.0
C3679 C 0.83783 0.16539 0.68889 0.0
C3680 C 0.84552 0.16594 0.68094 0.0
C3681 C 0.83444 0.1717 0.68526 0.0
C3682 C 0.82673 0.17192 0.69371 0.0
C3683 C 0.82759 0.1734 0.70888 0.0
C3684 C 0.82027 0.17353 0.7168 0.0
C3685 C 0.81206 0.17224 0.70965 0.0
C3686 C 0.81119 0.17086 0.69456 0.0
C3687 C 0.81849 0.17072 0.68659 0.0
H3688 H 0.8064 0.17234 0.7158 0.0
H3689 H 0.87784 0.17185 0.63886 0.0
H3690 H 0.6567 0.81777 0.89862 0.0
H3691 H 0.66097 0.8292 0.87862 0.0
H3692 H 0.67849 0.81886 0.85963 0.0
H3693 H 0.67448 0.80759 0.87989 0.0
H3694 H 0.68772 0.83796 0.85923 0.0
H3695 H 0.65655 0.81308 0.8451 0.0
H3696 H 0.63931 0.80176 0.84816 0.0
H3697 H 0.63425 0.82516 0.85476 0.0
H3698 H 0.65148 0.83662 0.85194 0.0
H3699 H 0.69427 0.86027 0.78991 0.0
H3700 H 0.69004 0.84888 0.80995 0.0
H3701 H 0.67243 0.85914 0.82884 0.0
H3702 H 0.67638 0.87035 0.80852 0.0
H3703 H 0.66326 0.84008 0.8293 0.0
H3704 H 0.69445 0.86496 0.8434 0.0
H3705 H 0.71168 0.87627 0.84032 0.0
H3706 H 0.71672 0.85285 0.83374 0.0
H3707 H 0.69949 0.84141 0.83659 0.0
C3708 C 0.6615 0.81794 0.89024 0.0
C3709 C 0.66524 0.81173 0.89093 0.0
C3710 C 0.66387 0.82444 0.8787 0.0
C3711 C 0.67 0.82487 0.86748 0.0
C3712 C 0.67373 0.81867 0.86811 0.0
C3713 C 0.67136 0.81216 0.87965 0.0
C3714 C 0.67264 0.8319 0.85528 0.0
C3715 C 0.68236 0.83832 0.85255 0.0
C3716 C 0.66568 0.83258 0.84676 0.0
C3717 C 0.65532 0.8257 0.84845 0.0
C3718 C 0.65177 0.81581 0.84732 0.0
C3719 C 0.642 0.80937 0.84899 0.0
C3720 C 0.63569 0.81274 0.85169 0.0
C3721 C 0.63914 0.82256 0.85269 0.0
C3722 C 0.64891 0.82903 0.85104 0.0
C3723 C 0.68946 0.86009 0.79828 0.0
C3724 C 0.68567 0.86626 0.79753 0.0
C3725 C 0.68712 0.85362 0.80984 0.0
C3726 C 0.68098 0.85318 0.82105 0.0
C3727 C 0.6772 0.85934 0.82038 0.0
C3728 C 0.67954 0.86583 0.8088 0.0
C3729 C 0.67833 0.84614 0.83325 0.0
C3730 C 0.66861 0.83972 0.83598 0.0
C3731 C 0.68529 0.84547 0.84177 0.0
C3732 C 0.69566 0.85233 0.84007 0.0
C3733 C 0.69922 0.86223 0.84118 0.0
C3734 C 0.70899 0.86866 0.8395 0.0
C3735 C 0.71529 0.86528 0.8368 0.0
C3736 C 0.71183 0.85546 0.83581 0.0
C3737 C 0.70206 0.849 0.83747 0.0
H3738 H 0.72285 0.87027 0.8355 0.0
H3739 H 0.62813 0.80774 0.85298 0.0
H3740 H 0.16103 0.82345 0.7831 0.0
H3741 H 0.17221 0.83091 0.80326 0.0
H3742 H 0.14918 0.82779 0.83075 0.0
H3743 H 0.13796 0.8206 0.81042 0.0
H3744 H 0.16458 0.84516 0.83412 0.0
H3745 H 0.15876 0.81304 0.83443 0.0
H3746 H 0.15767 0.79849 0.82396 0.0
H3747 H 0.18752 0.81416 0.81309 0.0
H3748 H 0.18875 0.82885 0.82333 0.0
H3749 H 0.18932 0.85455 0.90155 0.0
H3750 H 0.17815 0.84716 0.88136 0.0
H3751 H 0.20121 0.85042 0.85381 0.0
H3752 H 0.21242 0.85756 0.87417 0.0
H3753 H 0.1858 0.83299 0.85047 0.0
H3754 H 0.19161 0.86512 0.85023 0.0
H3755 H 0.19268 0.87965 0.86075 0.0
H3756 H 0.16282 0.86393 0.87155 0.0
H3757 H 0.16161 0.84927 0.86126 0.0
C3758 C 0.15832 0.82441 0.79339 0.0
C3759 C 0.14856 0.82142 0.79507 0.0
C3760 C 0.16474 0.8286 0.80498 0.0
C3761 C 0.16156 0.82983 0.81863 0.0
C3762 C 0.15183 0.82689 0.82036 0.0
C3763 C 0.14539 0.8227 0.80874 0.0
C3764 C 0.16842 0.8343 0.831 0.0
C3765 C 0.16912 0.84241 0.83783 0.0
C3766 C 0.17454 0.83089 0.83565 0.0
C3767 C 0.17382 0.82206 0.82953 0.0
C3768 C 0.16507 0.8134 0.82971 0.0
C3769 C 0.16443 0.80512 0.82383 0.0
C3770 C 0.17252 0.8054 0.81783 0.0
C3771 C 0.18126 0.81396 0.81773 0.0
C3772 C 0.18194 0.82226 0.82358 0.0
C3773 C 0.19203 0.85364 0.89124 0.0
C3774 C 0.2018 0.85665 0.88955 0.0
C3775 C 0.18563 0.84949 0.87963 0.0
C3776 C 0.18882 0.84831 0.86596 0.0
C3777 C 0.19856 0.85127 0.86422 0.0
C3778 C 0.20499 0.85544 0.87585 0.0
C3779 C 0.18197 0.84385 0.85359 0.0
C3780 C 0.18127 0.83575 0.84676 0.0
C3781 C 0.17584 0.84726 0.84894 0.0
C3782 C 0.17654 0.85607 0.8551 0.0
C3783 C 0.18529 0.86474 0.85495 0.0
C3784 C 0.18592 0.873 0.86085 0.0
C3785 C 0.17783 0.87271 0.86685 0.0
C3786 C 0.16909 0.86415 0.86692 0.0
C3787 C 0.16842 0.85586 0.86104 0.0
H3788 H 0.17833 0.87911 0.87142 0.0
H3789 H 0.17201 0.79899 0.81328 0.0
H3790 H 0.19638 0.32231 0.81294 0.0
H3791 H 0.189 0.32642 0.83281 0.0
H3792 H 0.18042 0.34108 0.80233 0.0
H3793 H 0.1881 0.33733 0.78253 0.0
H3794 H 0.1871 0.35136 0.82632 0.0
H3795 H 0.1644 0.31852 0.81598 0.0
H3796 H 0.15889 0.30142 0.81247 0.0
H3797 H 0.16691 0.29947 0.85647 0.0
H3798 H 0.17259 0.31661 0.86019 0.0
H3799 H 0.15393 0.35538 0.87275 0.0
H3800 H 0.16116 0.35121 0.85271 0.0
H3801 H 0.17009 0.33676 0.883 0.0
H3802 H 0.1626 0.3406 0.90297 0.0
H3803 H 0.16315 0.32637 0.85901 0.0
H3804 H 0.18591 0.35922 0.86929 0.0
H3805 H 0.1914 0.37633 0.8728 0.0
H3806 H 0.18322 0.37822 0.82887 0.0
H3807 H 0.17756 0.36108 0.82516 0.0
C3808 C 0.193 0.32648 0.81046 0.0
C3809 C 0.19281 0.32942 0.79605 0.0
C3810 C 0.18868 0.32875 0.82183 0.0
C3811 C 0.18401 0.33396 0.81909 0.0
C3812 C 0.18393 0.33702 0.80476 0.0
C3813 C 0.18825 0.33477 0.7934 0.0
C3814 C 0.17925 0.33628 0.8311 0.0
C3815 C 0.18177 0.34586 0.83333 0.0
C3816 C 0.17243 0.32918 0.84051 0.0
C3817 C 0.16901 0.31887 0.83831 0.0
C3818 C 0.16506 0.31447 0.82487 0.0
C3819 C 0.16189 0.30476 0.82285 0.0
C3820 C 0.16258 0.29937 0.83422 0.0
C3821 C 0.1664 0.30366 0.84766 0.0
C3822 C 0.16959 0.31337 0.84974 0.0
C3823 C 0.15735 0.35124 0.87515 0.0
C3824 C 0.15772 0.3484 0.88955 0.0
C3825 C 0.16158 0.34894 0.86367 0.0
C3826 C 0.16631 0.34377 0.86632 0.0
C3827 C 0.16654 0.34079 0.88064 0.0
C3828 C 0.16232 0.34308 0.8921 0.0
C3829 C 0.171 0.34144 0.85423 0.0
C3830 C 0.16847 0.33186 0.85199 0.0
C3831 C 0.17781 0.34854 0.84481 0.0
C3832 C 0.18122 0.35885 0.847 0.0
C3833 C 0.18521 0.36327 0.86042 0.0
C3834 C 0.18837 0.37297 0.86244 0.0
C3835 C 0.18763 0.37835 0.85108 0.0
C3836 C 0.18377 0.37404 0.83767 0.0
C3837 C 0.1806 0.36433 0.8356 0.0
H3838 H 0.19008 0.38586 0.85266 0.0
H3839 H 0.16012 0.29185 0.83264 0.0
H3840 H 0.02663 0.5434 0.47875 0.0
H3841 H 0.02327 0.53185 0.49837 0.0
H3842 H 1.00331 0.50908 0.47054 0.0
H3843 H 1.0067 0.52054 0.45084 0.0
H3844 H 0.99591 0.50733 0.49726 0.0
H3845 H 0.02555 0.51228 0.47763 0.0
H3846 H 0.04237 0.52169 0.46978 0.0
H3847 H 0.05074 0.53247 0.51331 0.0
H3848 H 0.03395 0.52322 0.52138 0.0
H3849 H 0.99088 0.46826 0.54037 0.0
H3850 H 0.99421 0.47976 0.52069 0.0
H3851 H 0.01439 0.50256 0.54826 0.0
H3852 H 0.01106 0.49115 0.56799 0.0
H3853 H 0.02167 0.50427 0.52161 0.0
H3854 H 0.99206 0.49939 0.54126 0.0
H3855 H 0.97525 0.49001 0.54916 0.0
H3856 H 0.96682 0.47916 0.50567 0.0
H3857 H 0.98361 0.48837 0.49756 0.0
C3858 C 0.02159 0.53593 0.47673 0.0
C3859 C 0.01695 0.53294 0.46314 0.0
C3860 C 0.01966 0.52932 0.488 0.0
C3861 C 0.01308 0.51955 0.48594 0.0
C3862 C 1.00838 0.51656 0.47245 0.0
C3863 C 0.01031 0.52316 0.46119 0.0
C3864 C 0.01103 0.51245 0.49785 0.0
C3865 C 1.00154 0.50658 0.50245 0.0
C3866 C 0.01837 0.51158 0.50489 0.0
C3867 C 0.02848 0.51714 0.50007 0.0
C3868 C 0.03097 0.51672 0.4855 0.0
C3869 C 0.0405 0.52201 0.48101 0.0
C3870 C 0.04762 0.5277 0.49103 0.0
C3871 C 0.04522 0.52808 0.50556 0.0
C3872 C 0.0357 0.52281 0.51009 0.0
C3873 C 0.99596 0.47573 0.54232 0.0
C3874 C 1.0007 0.47873 0.55583 0.0
C3875 C 0.99787 0.48231 0.53102 0.0
C3876 C 1.00451 0.49207 0.53298 0.0
C3877 C 0.00928 0.49508 0.54641 0.0
C3878 C 1.00738 0.48851 0.5577 0.0
C3879 C 1.00655 0.49916 0.52104 0.0
C3880 C 0.01604 0.50502 0.51643 0.0
C3881 C 0.99921 0.50003 0.514 0.0
C3882 C 0.98911 0.49449 0.51884 0.0
C3883 C 0.98663 0.49494 0.53341 0.0
C3884 C 0.97711 0.48967 0.53792 0.0
C3885 C 0.96997 0.48397 0.52793 0.0
C3886 C 0.97235 0.48356 0.5134 0.0
C3887 C 0.98187 0.48881 0.50884 0.0
H3888 H 0.9626 0.47989 0.53144 0.0
H3889 H 0.05499 0.53179 0.48753 0.0
H3890 H 0.4945 0.49353 0.44929 0.0
H3891 H 0.50574 0.50122 0.46932 0.0
H3892 H 0.48229 0.4909 0.49971 0.0
H3893 H 0.47095 0.48309 0.4797 0.0
H3894 H 0.49542 0.50928 0.50537 0.0
H3895 H 0.49601 0.48028 0.49717 0.0
H3896 H 0.49763 0.46835 0.48263 0.0
H3897 H 0.52637 0.48948 0.47126 0.0
H3898 H 0.52488 0.50158 0.48558 0.0
H3899 H 0.5225 0.51808 0.57031 0.0
H3900 H 0.51127 0.51065 0.55022 0.0
H3901 H 0.53479 0.52032 0.52004 0.0
H3902 H 0.54611 0.52747 0.54023 0.0
H3903 H 0.52163 0.50232 0.5142 0.0
H3904 H 0.52111 0.53131 0.52246 0.0
H3905 H 0.51951 0.54328 0.53693 0.0
H3906 H 0.49069 0.52225 0.54809 0.0
H3907 H 0.49217 0.51011 0.53384 0.0
C3908 C 0.4917 0.49279 0.46024 0.0
C3909 C 0.48178 0.48758 0.46283 0.0
C3910 C 0.49817 0.49723 0.47171 0.0
C3911 C 0.4949 0.49654 0.48611 0.0
C3912 C 0.485 0.49153 0.48872 0.0
C3913 C 0.47852 0.48708 0.47723 0.0
C3914 C 0.50183 0.50104 0.49839 0.0
C3915 C 0.50107 0.50765 0.50741 0.0
C3916 C 0.50937 0.49913 0.5009 0.0
C3917 C 0.5103 0.49186 0.49234 0.0
C3918 C 0.50265 0.4824 0.49148 0.0
C3919 C 0.50355 0.47561 0.48329 0.0
C3920 C 0.51209 0.47816 0.47599 0.0
C3921 C 0.51976 0.48751 0.4769 0.0
C3922 C 0.51889 0.49434 0.48506 0.0
C3923 C 0.52532 0.51857 0.55944 0.0
C3924 C 0.53526 0.52339 0.55697 0.0
C3925 C 0.51886 0.51439 0.54789 0.0
C3926 C 0.52214 0.51501 0.53352 0.0
C3927 C 0.53205 0.51977 0.531 0.0
C3928 C 0.53853 0.52394 0.54256 0.0
C3929 C 0.51523 0.51056 0.52118 0.0
C3930 C 0.51599 0.50396 0.51215 0.0
C3931 C 0.5077 0.51249 0.51866 0.0
C3932 C 0.50678 0.51978 0.52719 0.0
C3933 C 0.51446 0.52922 0.52809 0.0
C3934 C 0.51357 0.53604 0.53623 0.0
C3935 C 0.50501 0.53352 0.54345 0.0
C3936 C 0.49732 0.52419 0.54251 0.0
C3937 C 0.49817 0.51734 0.53439 0.0
H3938 H 0.50434 0.53881 0.54976 0.0
H3939 H 0.51277 0.47289 0.46966 0.0
H3940 H 0.5028 0.01672 0.56911 0.0
H3941 H 0.51016 0.01287 0.54898 0.0
H3942 H 0.48725 0.00902 0.52048 0.0
H3943 H 0.47966 0.01257 0.54076 0.0
H3944 H 0.49111 0.99487 0.51676 0.0
H3945 H 0.50969 0.02906 0.51838 0.0
H3946 H 0.51964 0.04484 0.52975 0.0
H3947 H 0.54076 0.03721 0.54105 0.0
H3948 H 0.53087 0.02133 0.5299 0.0
H3949 H 0.51321 0.99443 0.45003 0.0
H3950 H 0.50585 0.99827 0.47017 0.0
H3951 H 0.52878 1.00214 0.49864 0.0
H3952 H 0.53638 0.99861 0.47835 0.0
H3953 H 0.5249 0.01627 0.50239 0.0
H3954 H 0.50635 0.9821 0.50078 0.0
H3955 H 0.49641 0.96631 0.48943 0.0
H3956 H 0.47526 0.97389 0.47815 0.0
H3957 H 0.48514 0.98978 0.48927 0.0
C3958 C 0.49927 0.015 0.5586 0.0
C3959 C 0.49059 0.01494 0.55663 0.0
C3960 C 0.50356 0.01289 0.54702 0.0
C3961 C 0.49933 0.01073 0.53311 0.0
C3962 C 0.49068 0.01068 0.53108 0.0
C3963 C 0.48638 0.0128 0.54267 0.0
C3964 C 0.50385 0.00836 0.52082 0.0
C3965 C 0.49846 0.99962 0.51348 0.0
C3966 C 0.51352 0.01442 0.51673 0.0
C3967 C 0.51949 0.02397 0.52343 0.0
C3968 C 0.51642 0.03071 0.52339 0.0
C3969 C 0.52205 0.03969 0.52978 0.0
C3970 C 0.53081 0.04202 0.53615 0.0
C3971 C 0.53396 0.03539 0.53612 0.0
C3972 C 0.52835 0.02641 0.52976 0.0
C3973 C 0.51674 0.99615 0.46054 0.0
C3974 C 0.52543 0.99623 0.4625 0.0
C3975 C 0.51245 0.99825 0.47212 0.0
C3976 C 0.51668 1.00041 0.48603 0.0
C3977 C 0.52534 1.00048 0.48805 0.0
C3978 C 0.52964 0.99837 0.47645 0.0
C3979 C 0.51217 1.00278 0.49833 0.0
C3980 C 0.51756 0.01152 0.50567 0.0
C3981 C 0.50249 0.99672 0.50242 0.0
C3982 C 0.49653 0.98717 0.49574 0.0
C3983 C 0.49962 0.98043 0.49578 0.0
C3984 C 0.49398 0.97145 0.4894 0.0
C3985 C 0.48522 0.9691 0.48304 0.0
C3986 C 0.48205 0.97572 0.48307 0.0
C3987 C 0.48766 0.98471 0.48942 0.0
H3988 H 0.48087 0.96215 0.47811 0.0
H3989 H 0.53516 0.04897 0.54109 0.0
H3990 H 0.53705 1.004 0.04944 0.0
H3991 H 0.52555 0.99995 0.02956 0.0
H3992 H 0.52126 0.02326 0.04195 0.0
H3993 H 0.53273 0.02734 0.06187 0.0
H3994 H 0.50458 0.00786 0.03674 0.0
H3995 H 0.53448 0.02431 0.01127 0.0
H3996 H 0.55051 0.02763 1.00376 0.0
H3997 H 0.53834 0.9995 0.98542 0.0
H3998 H 0.52225 0.99596 0.993 0.0
H3999 H 0.47963 0.00819 0.97274 0.0
H4000 H 0.49112 0.01222 0.99262 0.0
H4001 H 0.49529 0.98881 0.98032 0.0
H4002 H 0.48381 0.98475 0.96041 0.0
H4003 H 0.51203 1.00426 0.98547 0.0
H4004 H 0.48211 0.98782 0.01095 0.0
H4005 H 0.46609 0.98455 0.01844 0.0
H4006 H 0.47831 0.0127 0.03673 0.0
H4007 H 0.49439 0.01619 0.02918 0.0
C4008 C 0.53376 0.00835 0.04783 0.0
C4009 C 0.53585 0.01601 0.05728 0.0
C4010 C 0.52716 0.00602 0.03644 0.0
C4011 C 0.52256 0.01135 0.0341 0.0
C4012 C 0.52466 0.01901 0.0435 0.0
C4013 C 0.53123 0.02133 0.05493 0.0
C4014 C 0.51544 0.00883 0.02208 0.0
C4015 C 0.50626 0.0072 0.0255 0.0
C4016 C 0.51751 0.00773 1.00742 0.0
C4017 C 0.52717 0.00984 1.00283 0.0
C4018 C 0.53523 0.01881 1.00574 0.0
C4019 C 0.54433 0.02073 1.00145 0.0
C4020 C 0.54545 0.01377 0.99415 0.0
C4021 C 0.53747 1.00488 0.99109 0.0
C4022 C 0.52836 1.00291 0.99537 0.0
C4023 C 0.48288 1.0038 0.97438 0.0
C4024 C 0.48075 0.99612 0.96495 0.0
C4025 C 0.48948 0.00613 0.98576 0.0
C4026 C 0.49405 1.00077 0.98811 0.0
C4027 C 0.49191 0.99308 0.97875 0.0
C4028 C 0.48534 0.99077 0.96733 0.0
C4029 C 0.50117 1.00329 1.00013 0.0
C4030 C 0.51034 1.00491 0.99671 0.0
C4031 C 0.4991 1.00439 0.01479 0.0
C4032 C 0.48944 1.0023 0.01937 0.0
C4033 C 0.48137 0.99334 0.01647 0.0
C4034 C 0.47228 0.99144 0.02074 0.0
C4035 C 0.47118 0.99842 0.02802 0.0
C4036 C 0.47917 0.00731 0.03108 0.0
C4037 C 0.48828 0.00924 0.02681 0.0
H4038 H 0.46414 0.99694 0.03132 0.0
H4039 H 0.55249 0.01528 0.99084 0.0
H4040 H 0.00956 0.49251 0.95029 0.0
H4041 H 1.006 0.50026 0.97018 0.0
H4042 H 0.02022 0.49109 1.00053 0.0
H4043 H 0.02351 0.48299 0.98073 0.0
H4044 H 1.00386 0.48847 0.01196 0.0
H4045 H 0.03081 0.51443 0.98826 0.0
H4046 H 0.04003 0.52461 0.96752 0.0
H4047 H 0.01828 0.53196 0.95984 0.0
H4048 H 0.00887 0.52172 0.98042 0.0
H4049 H 1.00737 0.51865 0.07062 0.0
H4050 H 0.01086 0.51085 0.05072 0.0
H4051 H 0.99664 0.52005 0.02043 0.0
H4052 H 0.99341 0.52819 0.04025 0.0
H4053 H 0.01297 0.52265 1.00896 0.0
H4054 H 0.98603 0.49671 0.03268 0.0
H4055 H 0.97681 0.48653 0.05341 0.0
H4056 H 0.99853 0.47913 0.06105 0.0
H4057 H 1.00795 0.48938 0.04047 0.0
C4058 C 0.01186 0.49204 0.96121 0.0
C4059 C 0.01682 0.48708 0.96385 0.0
C4060 C 0.00991 0.49659 0.97258 0.0
C4061 C 0.01294 0.49639 0.98688 0.0
C4062 C 0.01783 0.49139 0.9896 0.0
C4063 C 0.01978 0.48683 0.97822 0.0
C4064 C 0.0109 0.50129 0.99899 0.0
C4065 C 1.00598 0.49598 0.01138 0.0
C4066 C 0.01344 0.51104 0.99815 0.0
C4067 C 0.0191 0.51723 0.9858 0.0
C4068 C 0.02796 0.51816 0.98208 0.0
C4069 C 0.03323 0.52395 0.97036 0.0
C4070 C 0.02973 0.52891 0.96234 0.0
C4071 C 0.02098 0.52811 0.96605 0.0
C4072 C 0.01568 0.52232 0.97775 0.0
C4073 C 1.00505 0.51911 0.05972 0.0
C4074 C 1.00011 0.52409 0.0571 0.0
C4075 C 1.00697 0.51454 0.04834 0.0
C4076 C 1.00392 0.51474 0.03405 0.0
C4077 C 0.99904 0.51975 0.03136 0.0
C4078 C 0.99713 0.52434 0.04274 0.0
C4079 C 1.00593 0.50982 0.02192 0.0
C4080 C 0.01085 0.51514 1.00953 0.0
C4081 C 1.0034 0.50007 0.02276 0.0
C4082 C 0.99773 0.49389 0.03512 0.0
C4083 C 0.98887 0.49297 0.03885 0.0
C4084 C 0.9836 0.48718 0.05056 0.0
C4085 C 0.98709 0.48221 0.05857 0.0
C4086 C 0.99584 0.483 0.05485 0.0
C4087 C 1.00114 0.48879 0.04315 0.0
H4088 H 0.983 0.47772 0.06763 0.0
H4089 H 0.03382 0.53339 0.95328 0.0
H4090 H 0.49554 0.47065 0.04548 0.0
H4091 H 0.50307 0.48181 0.02518 0.0
H4092 H 0.49478 0.50096 0.0442 0.0
H4093 H 0.48695 0.48971 0.06422 0.0
H4094 H 0.49199 0.50001 0.01565 0.0
H4095 H 0.51792 0.50494 0.04696 0.0
H4096 H 0.52787 0.5002 0.0611 0.0
H4097 H 0.53452 0.49013 0.02197 0.0
H4098 H 0.5245 0.4947 1.00762 0.0
H4099 H 0.52244 0.54135 0.97379 0.0
H4100 H 0.51493 0.53015 0.99405 0.0
H4101 H 0.52323 0.51106 0.97482 0.0
H4102 H 0.53104 0.52235 0.95484 0.0
H4103 H 0.52602 0.51194 1.00342 0.0
H4104 H 0.50011 0.50703 0.97211 0.0
H4105 H 0.49017 0.5118 0.95797 0.0
H4106 H 0.48349 0.52182 0.9971 0.0
H4107 H 0.4935 0.51723 0.01146 0.0
C4108 C 0.49521 0.47718 0.04527 0.0
C4109 C 0.49068 0.47928 0.05661 0.0
C4110 C 0.49962 0.48362 0.03371 0.0
C4111 C 0.49965 0.49233 0.03322 0.0
C4112 C 0.49493 0.49433 0.04433 0.0
C4113 C 0.49051 0.48791 0.05586 0.0
C4114 C 0.50462 0.4994 0.02123 0.0
C4115 C 0.49946 0.5027 0.01311 0.0
C4116 C 0.51433 0.50281 0.01764 0.0
C4117 C 0.52038 0.50008 0.02624 0.0
C4118 C 0.52144 0.50165 0.04139 0.0
C4119 C 0.5271 0.499 0.04944 0.0
C4120 C 0.5318 0.49484 0.04245 0.0
C4121 C 0.53087 0.49334 0.02738 0.0
C4122 C 0.5252 0.49597 0.01928 0.0
C4123 C 0.52278 0.53483 0.97394 0.0
C4124 C 0.52731 0.53276 0.96257 0.0
C4125 C 0.51838 0.52836 0.98548 0.0
C4126 C 0.51836 0.51965 0.98589 0.0
C4127 C 0.52308 0.51768 0.97475 0.0
C4128 C 0.52748 0.52413 0.96323 0.0
C4129 C 0.51339 0.51255 0.99785 0.0
C4130 C 0.51854 0.50925 1.00595 0.0
C4131 C 0.50367 0.50914 1.00143 0.0
C4132 C 0.49763 0.51188 0.99283 0.0
C4133 C 0.49658 0.51032 0.97768 0.0
C4134 C 0.49092 0.51298 0.96963 0.0
C4135 C 0.48622 0.51713 0.97663 0.0
C4136 C 0.48715 0.51862 0.9917 0.0
C4137 C 0.4928 0.51598 0.9998 0.0
H4138 H 0.48185 0.51918 0.97037 0.0
H4139 H 0.53618 0.4928 0.0487 0.0
loop_
_geom_bond_atom_site_label_1
_geom_bond_atom_site_label_2
_geom_bond_distance
_geom_bond_site_symmetry_2
_ccdc_geom_bond_type
C0 C1 1.264 . S
C0 C5 1.479 . S
C0 C10 1.465 . S
C1 C0 1.264 . S
C1 C3 1.339 . S
C1 H28 0.931 . S
C2 C3 1.395 . S
C2 C4 1.320 . S
C3 C1 1.339 . S
C3 C2 1.395 . S
C3 H29 0.929 . S
C4 C2 1.320 . S
C4 C5 1.405 . S
C4 H30 0.930 . S
C5 C0 1.479 . S
C5 C4 1.405 . S
C5 H31 0.931 . S
U6 O7 2.454 . S
U6 O8 2.458 . S
U6 C9 2.984 . S
U6 C10 2.847 . S
U6 C23 2.882 . S
U6 O24 2.441 . S
U6 O25 2.420 . S
U6 O26 2.455 . S
U6 O27 2.449 . S
O7 U6 2.454 . S
O7 C9 1.353 . S
O8 U6 2.458 . S
O8 C9 1.286 . S
C9 U6 2.984 . S
C9 O7 1.353 . S
C9 O8 1.286 . S
C9 C11 1.363 . S
C10 C0 1.465 . S
C10 U6 2.847 . S
C10 O24 1.249 . S
C10 O25 1.202 . S
C11 C9 1.363 . S
C11 C13 1.408 . S
C11 C16 1.342 . S
C12 C13 1.310 . S
C12 C15 1.461 . S
C12 H32 0.932 . S
C13 C11 1.408 . S
C13 C12 1.310 . S
C13 H33 0.930 . S
C14 C15 1.474 . S
C14 C16 1.285 . S
C14 H34 0.929 . S
C15 C12 1.461 . S
C15 C14 1.474 . S
C16 C11 1.342 . S
C16 C14 1.285 . S
C16 H35 0.930 . S
C17 C20 1.424 . S
C17 C22 1.245 . S
C17 C23 1.428 . S
C18 C21 1.260 . S
C18 C22 1.477 . S
C18 H36 0.932 . S
C19 C20 1.384 . S
C19 C21 1.479 . S
C19 H37 0.929 . S
C20 C17 1.424 . S
C20 C19 1.384 . S
C20 H38 0.928 . S
C21 C18 1.260 . S
C21 C19 1.479 . S
C22 C17 1.245 . S
C22 C18 1.477 . S
C22 H39 0.932 . S
C23 U6 2.882 . S
C23 C17 1.428 . S
C23 O26 1.301 . S
C23 O27 1.282 . S
O24 U6 2.441 . S
O24 C10 1.249 . S
O25 U6 2.420 . S
O25 C10 1.202 . S
O26 U6 2.455 . S
O26 C23 1.301 . S
O27 U6 2.449 . S
O27 C23 1.282 . S
H28 C1 0.931 . S
H29 C3 0.929 . S
H30 C4 0.930 . S
H31 C5 0.931 . S
H32 C12 0.932 . S
H33 C13 0.930 . S
H34 C14 0.929 . S
H35 C16 0.930 . S
H36 C18 0.932 . S
H37 C19 0.929 . S
H38 C20 0.928 . S
H39 C22 0.932 . S
C40 C41 1.264 . S
C40 C45 1.479 . S
C40 C50 1.465 . S
C41 C40 1.264 . S
C41 C43 1.339 . S
C41 H68 0.931 . S
C42 C43 1.395 . S
C42 C44 1.320 . S
C43 C41 1.339 . S
C43 C42 1.395 . S
C43 H69 0.929 . S
C44 C42 1.320 . S
C44 C45 1.405 . S
C44 H70 0.930 . S
C45 C40 1.479 . S
C45 C44 1.405 . S
C45 H71 0.931 . S
U46 O47 2.454 . S
U46 O48 2.458 . S
U46 C49 2.984 . S
U46 C50 2.847 . S
U46 C63 2.882 . S
U46 O64 2.441 . S
U46 O65 2.420 . S
U46 O66 2.455 . S
U46 O67 2.449 . S
O47 U46 2.454 . S
O47 C49 1.353 . S
O48 U46 2.458 . S
O48 C49 1.286 . S
C49 U46 2.984 . S
C49 O47 1.353 . S
C49 O48 1.286 . S
C49 C51 1.363 . S
C50 C40 1.465 . S
C50 U46 2.847 . S
C50 O64 1.249 . S
C50 O65 1.202 . S
C51 C49 1.363 . S
C51 C53 1.408 . S
C51 C56 1.342 . S
C52 C53 1.310 . S
C52 C55 1.461 . S
C52 H72 0.932 . S
C53 C51 1.408 . S
C53 C52 1.310 . S
C53 H73 0.930 . S
C54 C55 1.474 . S
C54 C56 1.285 . S
C54 H74 0.929 . S
C55 C52 1.461 . S
C55 C54 1.474 . S
C56 C51 1.342 . S
C56 C54 1.285 . S
C56 H75 0.930 . S
C57 C60 1.424 . S
C57 C62 1.245 . S
C57 C63 1.428 . S
C58 C61 1.260 . S
C58 C62 1.477 . S
C58 H76 0.932 . S
C59 C60 1.384 . S
C59 C61 1.479 . S
C59 H77 0.929 . S
C60 C57 1.424 . S
C60 C59 1.384 . S
C60 H78 0.928 . S
C61 C58 1.260 . S
C61 C59 1.479 . S
C62 C57 1.245 . S
C62 C58 1.477 . S
C62 H79 0.932 . S
C63 U46 2.882 . S
C63 C57 1.428 . S
C63 O66 1.301 . S
C63 O67 1.282 . S
O64 U46 2.441 . S
O64 C50 1.249 . S
O65 U46 2.420 . S
O65 C50 1.202 . S
O66 U46 2.455 . S
O66 C63 1.301 . S
O67 U46 2.449 . S
O67 C63 1.282 . S
H68 C41 0.931 . S
H69 C43 0.929 . S
H70 C44 0.930 . S
H71 C45 0.931 . S
H72 C52 0.932 . S
H73 C53 0.930 . S
H74 C54 0.929 . S
H75 C56 0.930 . S
H76 C58 0.932 . S
H77 C59 0.929 . S
H78 C60 0.928 . S
H79 C62 0.932 . S
C80 C81 1.264 . S
C80 C85 1.479 . S
C80 C90 1.465 . S
C81 C80 1.264 . S
C81 C83 1.339 . S
C81 H108 0.931 . S
C82 C83 1.395 . S
C82 C84 1.320 . S
C83 C81 1.339 . S
C83 C82 1.395 . S
C83 H109 0.929 . S
C84 C82 1.320 . S
C84 C85 1.405 . S
C84 H110 0.930 . S
C85 C80 1.479 . S
C85 C84 1.405 . S
C85 H111 0.931 . S
U86 O87 2.454 . S
U86 O88 2.458 . S
U86 C89 2.984 . S
U86 C90 2.847 . S
U86 C103 2.882 . S
U86 O104 2.441 . S
U86 O105 2.420 . S
U86 O106 2.455 . S
U86 O107 2.449 . S
O87 U86 2.454 . S
O87 C89 1.353 . S
O88 U86 2.458 . S
O88 C89 1.286 . S
C89 U86 2.984 . S
C89 O87 1.353 . S
C89 O88 1.286 . S
C89 C91 1.363 . S
C90 C80 1.465 . S
C90 U86 2.847 . S
C90 O104 1.249 . S
C90 O105 1.202 . S
C91 C89 1.363 . S
C91 C93 1.408 . S
C91 C96 1.342 . S
C92 C93 1.310 . S
C92 C95 1.461 . S
C92 H112 0.932 . S
C93 C91 1.408 . S
C93 C92 1.310 . S
C93 H113 0.930 . S
C94 C95 1.474 . S
C94 C96 1.285 . S
C94 H114 0.929 . S
C95 C92 1.461 . S
C95 C94 1.474 . S
C96 C91 1.342 . S
C96 C94 1.285 . S
C96 H115 0.930 . S
C97 C100 1.424 . S
C97 C102 1.245 . S
C97 C103 1.428 . S
C98 C101 1.260 . S
C98 C102 1.477 . S
C98 H116 0.932 . S
C99 C100 1.384 . S
C99 C101 1.479 . S
C99 H117 0.929 . S
C100 C97 1.424 . S
C100 C99 1.384 . S
C100 H118 0.928 . S
C101 C98 1.260 . S
C101 C99 1.479 . S
C102 C97 1.245 . S
C102 C98 1.477 . S
C102 H119 0.932 . S
C103 U86 2.882 . S
C103 C97 1.428 . S
C103 O106 1.301 . S
C103 O107 1.282 . S
O104 U86 2.441 . S
O104 C90 1.249 . S
O105 U86 2.420 . S
O105 C90 1.202 . S
O106 U86 2.455 . S
O106 C103 1.301 . S
O107 U86 2.449 . S
O107 C103 1.282 . S
H108 C81 0.931 . S
H109 C83 0.929 . S
H110 C84 0.930 . S
H111 C85 0.931 . S
H112 C92 0.932 . S
H113 C93 0.930 . S
H114 C94 0.929 . S
H115 C96 0.930 . S
H116 C98 0.932 . S
H117 C99 0.929 . S
H118 C100 0.928 . S
H119 C102 0.932 . S
C120 C121 1.264 . S
C120 C125 1.479 . S
C120 C130 1.465 . S
C121 C120 1.264 . S
C121 C123 1.339 . S
C121 H148 0.931 . S
C122 C123 1.395 . S
C122 C124 1.320 . S
C123 C121 1.339 . S
C123 C122 1.395 . S
C123 H149 0.929 . S
C124 C122 1.320 . S
C124 C125 1.405 . S
C124 H150 0.930 . S
C125 C120 1.479 . S
C125 C124 1.405 . S
C125 H151 0.931 . S
U126 O127 2.454 . S
U126 O128 2.458 . S
U126 C129 2.984 . S
U126 C130 2.847 . S
U126 C143 2.882 . S
U126 O144 2.441 . S
U126 O145 2.420 . S
U126 O146 2.455 . S
U126 O147 2.449 . S
O127 U126 2.454 . S
O127 C129 1.353 . S
O128 U126 2.458 . S
O128 C129 1.286 . S
C129 U126 2.984 . S
C129 O127 1.353 . S
C129 O128 1.286 . S
C129 C131 1.363 . S
C130 C120 1.465 . S
C130 U126 2.847 . S
C130 O144 1.249 . S
C130 O145 1.202 . S
C131 C129 1.363 . S
C131 C133 1.408 . S
C131 C136 1.342 . S
C132 C133 1.310 . S
C132 C135 1.461 . S
C132 H152 0.932 . S
C133 C131 1.408 . S
C133 C132 1.310 . S
C133 H153 0.930 . S
C134 C135 1.474 . S
C134 C136 1.285 . S
C134 H154 0.929 . S
C135 C132 1.461 . S
C135 C134 1.474 . S
C136 C131 1.342 . S
C136 C134 1.285 . S
C136 H155 0.930 . S
C137 C140 1.424 . S
C137 C142 1.245 . S
C137 C143 1.428 . S
C138 C141 1.260 . S
C138 C142 1.477 . S
C138 H156 0.932 . S
C139 C140 1.384 . S
C139 C141 1.479 . S
C139 H157 0.929 . S
C140 C137 1.424 . S
C140 C139 1.384 . S
C140 H158 0.928 . S
C141 C138 1.260 . S
C141 C139 1.479 . S
C142 C137 1.245 . S
C142 C138 1.477 . S
C142 H159 0.932 . S
C143 U126 2.882 . S
C143 C137 1.428 . S
C143 O146 1.301 . S
C143 O147 1.282 . S
O144 U126 2.441 . S
O144 C130 1.249 . S
O145 U126 2.420 . S
O145 C130 1.202 . S
O146 U126 2.455 . S
O146 C143 1.301 . S
O147 U126 2.449 . S
O147 C143 1.282 . S
H148 C121 0.931 . S
H149 C123 0.929 . S
H150 C124 0.930 . S
H151 C125 0.931 . S
H152 C132 0.932 . S
H153 C133 0.930 . S
H154 C134 0.929 . S
H155 C136 0.930 . S
H156 C138 0.932 . S
H157 C139 0.929 . S
H158 C140 0.928 . S
H159 C142 0.932 . S
C160 C161 1.264 . S
C160 C165 1.479 . S
C160 C170 1.465 . S
C161 C160 1.264 . S
C161 C163 1.339 . S
C161 H188 0.931 . S
C162 C163 1.395 . S
C162 C164 1.320 . S
C163 C161 1.339 . S
C163 C162 1.395 . S
C163 H189 0.929 . S
C164 C162 1.320 . S
C164 C165 1.405 . S
C164 H190 0.930 . S
C165 C160 1.479 . S
C165 C164 1.405 . S
C165 H191 0.931 . S
U166 O167 2.454 . S
U166 O168 2.458 . S
U166 C169 2.984 . S
U166 C170 2.847 . S
U166 C183 2.882 . S
U166 O184 2.441 . S
U166 O185 2.420 . S
U166 O186 2.455 . S
U166 O187 2.449 . S
O167 U166 2.454 . S
O167 C169 1.353 . S
O168 U166 2.458 . S
O168 C169 1.286 . S
C169 U166 2.984 . S
C169 O167 1.353 . S
C169 O168 1.286 . S
C169 C171 1.363 . S
C170 C160 1.465 . S
C170 U166 2.847 . S
C170 O184 1.249 . S
C170 O185 1.202 . S
C171 C169 1.363 . S
C171 C173 1.408 . S
C171 C176 1.342 . S
C172 C173 1.310 . S
C172 C175 1.461 . S
C172 H192 0.932 . S
C173 C171 1.408 . S
C173 C172 1.310 . S
C173 H193 0.930 . S
C174 C175 1.474 . S
C174 C176 1.285 . S
C174 H194 0.929 . S
C175 C172 1.461 . S
C175 C174 1.474 . S
C176 C171 1.342 . S
C176 C174 1.285 . S
C176 H195 0.930 . S
C177 C180 1.424 . S
C177 C182 1.245 . S
C177 C183 1.428 . S
C178 C181 1.260 . S
C178 C182 1.477 . S
C178 H196 0.932 . S
C179 C180 1.384 . S
C179 C181 1.479 . S
C179 H197 0.929 . S
C180 C177 1.424 . S
C180 C179 1.384 . S
C180 H198 0.928 . S
C181 C178 1.260 . S
C181 C179 1.479 . S
C182 C177 1.245 . S
C182 C178 1.477 . S
C182 H199 0.932 . S
C183 U166 2.882 . S
C183 C177 1.428 . S
C183 O186 1.301 . S
C183 O187 1.282 . S
O184 U166 2.441 . S
O184 C170 1.249 . S
O185 U166 2.420 . S
O185 C170 1.202 . S
O186 U166 2.455 . S
O186 C183 1.301 . S
O187 U166 2.449 . S
O187 C183 1.282 . S
H188 C161 0.931 . S
H189 C163 0.929 . S
H190 C164 0.930 . S
H191 C165 0.931 . S
H192 C172 0.932 . S
H193 C173 0.930 . S
H194 C174 0.929 . S
H195 C176 0.930 . S
H196 C178 0.932 . S
H197 C179 0.929 . S
H198 C180 0.928 . S
H199 C182 0.932 . S
C200 C201 1.264 . S
C200 C205 1.479 . S
C200 C210 1.465 . S
C201 C200 1.264 . S
C201 C203 1.339 . S
C201 H228 0.931 . S
C202 C203 1.395 . S
C202 C204 1.320 . S
C203 C201 1.339 . S
C203 C202 1.395 . S
C203 H229 0.929 . S
C204 C202 1.320 . S
C204 C205 1.405 . S
C204 H230 0.930 . S
C205 C200 1.479 . S
C205 C204 1.405 . S
C205 H231 0.931 . S
U206 O207 2.454 . S
U206 O208 2.458 . S
U206 C209 2.984 . S
U206 C210 2.847 . S
U206 C223 2.882 . S
U206 O224 2.441 . S
U206 O225 2.420 . S
U206 O226 2.455 . S
U206 O227 2.449 . S
O207 U206 2.454 . S
O207 C209 1.353 . S
O208 U206 2.458 . S
O208 C209 1.286 . S
C209 U206 2.984 . S
C209 O207 1.353 . S
C209 O208 1.286 . S
C209 C211 1.363 . S
C210 C200 1.465 . S
C210 U206 2.847 . S
C210 O224 1.249 . S
C210 O225 1.202 . S
C211 C209 1.363 . S
C211 C213 1.408 . S
C211 C216 1.342 . S
C212 C213 1.310 . S
C212 C215 1.461 . S
C212 H232 0.932 . S
C213 C211 1.408 . S
C213 C212 1.310 . S
C213 H233 0.930 . S
C214 C215 1.474 . S
C214 C216 1.285 . S
C214 H234 0.929 . S
C215 C212 1.461 . S
C215 C214 1.474 . S
C216 C211 1.342 . S
C216 C214 1.285 . S
C216 H235 0.930 . S
C217 C220 1.424 . S
C217 C222 1.245 . S
C217 C223 1.428 . S
C218 C221 1.260 . S
C218 C222 1.477 . S
C218 H236 0.932 . S
C219 C220 1.384 . S
C219 C221 1.479 . S
C219 H237 0.929 . S
C220 C217 1.424 . S
C220 C219 1.384 . S
C220 H238 0.928 . S
C221 C218 1.260 . S
C221 C219 1.479 . S
C222 C217 1.245 . S
C222 C218 1.477 . S
C222 H239 0.932 . S
C223 U206 2.882 . S
C223 C217 1.428 . S
C223 O226 1.301 . S
C223 O227 1.282 . S
O224 U206 2.441 . S
O224 C210 1.249 . S
O225 U206 2.420 . S
O225 C210 1.202 . S
O226 U206 2.455 . S
O226 C223 1.301 . S
O227 U206 2.449 . S
O227 C223 1.282 . S
H228 C201 0.931 . S
H229 C203 0.929 . S
H230 C204 0.930 . S
H231 C205 0.931 . S
H232 C212 0.932 . S
H233 C213 0.930 . S
H234 C214 0.929 . S
H235 C216 0.930 . S
H236 C218 0.932 . S
H237 C219 0.929 . S
H238 C220 0.928 . S
H239 C222 0.932 . S
C240 C241 1.264 . S
C240 C245 1.479 . S
C240 C250 1.465 . S
C241 C240 1.264 . S
C241 C243 1.339 . S
C241 H268 0.931 . S
C242 C243 1.395 . S
C242 C244 1.320 . S
C243 C241 1.339 . S
C243 C242 1.395 . S
C243 H269 0.929 . S
C244 C242 1.320 . S
C244 C245 1.405 . S
C244 H270 0.930 . S
C245 C240 1.479 . S
C245 C244 1.405 . S
C245 H271 0.931 . S
U246 O247 2.454 . S
U246 O248 2.458 . S
U246 C249 2.984 . S
U246 C250 2.847 . S
U246 C263 2.882 . S
U246 O264 2.441 . S
U246 O265 2.420 . S
U246 O266 2.455 . S
U246 O267 2.449 . S
O247 U246 2.454 . S
O247 C249 1.353 . S
O248 U246 2.458 . S
O248 C249 1.286 . S
C249 U246 2.984 . S
C249 O247 1.353 . S
C249 O248 1.286 . S
C249 C251 1.363 . S
C250 C240 1.465 . S
C250 U246 2.847 . S
C250 O264 1.249 . S
C250 O265 1.202 . S
C251 C249 1.363 . S
C251 C253 1.408 . S
C251 C256 1.342 . S
C252 C253 1.310 . S
C252 C255 1.461 . S
C252 H272 0.932 . S
C253 C251 1.408 . S
C253 C252 1.310 . S
C253 H273 0.930 . S
C254 C255 1.474 . S
C254 C256 1.285 . S
C254 H274 0.929 . S
C255 C252 1.461 . S
C255 C254 1.474 . S
C256 C251 1.342 . S
C256 C254 1.285 . S
C256 H275 0.930 . S
C257 C260 1.424 . S
C257 C262 1.245 . S
C257 C263 1.428 . S
C258 C261 1.260 . S
C258 C262 1.477 . S
C258 H276 0.932 . S
C259 C260 1.384 . S
C259 C261 1.479 . S
C259 H277 0.929 . S
C260 C257 1.424 . S
C260 C259 1.384 . S
C260 H278 0.928 . S
C261 C258 1.260 . S
C261 C259 1.479 . S
C262 C257 1.245 . S
C262 C258 1.477 . S
C262 H279 0.932 . S
C263 U246 2.882 . S
C263 C257 1.428 . S
C263 O266 1.301 . S
C263 O267 1.282 . S
O264 U246 2.441 . S
O264 C250 1.249 . S
O265 U246 2.420 . S
O265 C250 1.202 . S
O266 U246 2.455 . S
O266 C263 1.301 . S
O267 U246 2.449 . S
O267 C263 1.282 . S
H268 C241 0.931 . S
H269 C243 0.929 . S
H270 C244 0.930 . S
H271 C245 0.931 . S
H272 C252 0.932 . S
H273 C253 0.930 . S
H274 C254 0.929 . S
H275 C256 0.930 . S
H276 C258 0.932 . S
H277 C259 0.929 . S
H278 C260 0.928 . S
H279 C262 0.932 . S
C280 C281 1.264 . S
C280 C285 1.479 . S
C280 C290 1.465 . S
C281 C280 1.264 . S
C281 C283 1.339 . S
C281 H308 0.931 . S
C282 C283 1.395 . S
C282 C284 1.320 . S
C283 C281 1.339 . S
C283 C282 1.395 . S
C283 H309 0.929 . S
C284 C282 1.320 . S
C284 C285 1.405 . S
C284 H310 0.930 . S
C285 C280 1.479 . S
C285 C284 1.405 . S
C285 H311 0.931 . S
U286 O287 2.454 . S
U286 O288 2.458 . S
U286 C289 2.984 . S
U286 C290 2.847 . S
U286 C303 2.882 . S
U286 O304 2.441 . S
U286 O305 2.420 . S
U286 O306 2.455 . S
U286 O307 2.449 . S
O287 U286 2.454 . S
O287 C289 1.353 . S
O288 U286 2.458 . S
O288 C289 1.286 . S
C289 U286 2.984 . S
C289 O287 1.353 . S
C289 O288 1.286 . S
C289 C291 1.363 . S
C290 C280 1.465 . S
C290 U286 2.847 . S
C290 O304 1.249 . S
C290 O305 1.202 . S
C291 C289 1.363 . S
C291 C293 1.408 . S
C291 C296 1.342 . S
C292 C293 1.310 . S
C292 C295 1.461 . S
C292 H312 0.932 . S
C293 C291 1.408 . S
C293 C292 1.310 . S
C293 H313 0.930 . S
C294 C295 1.474 . S
C294 C296 1.285 . S
C294 H314 0.929 . S
C295 C292 1.461 . S
C295 C294 1.474 . S
C296 C291 1.342 . S
C296 C294 1.285 . S
C296 H315 0.930 . S
C297 C300 1.424 . S
C297 C302 1.245 . S
C297 C303 1.428 . S
C298 C301 1.260 . S
C298 C302 1.477 . S
C298 H316 0.932 . S
C299 C300 1.384 . S
C299 C301 1.479 . S
C299 H317 0.929 . S
C300 C297 1.424 . S
C300 C299 1.384 . S
C300 H318 0.928 . S
C301 C298 1.260 . S
C301 C299 1.479 . S
C302 C297 1.245 . S
C302 C298 1.477 . S
C302 H319 0.932 . S
C303 U286 2.882 . S
C303 C297 1.428 . S
C303 O306 1.301 . S
C303 O307 1.282 . S
O304 U286 2.441 . S
O304 C290 1.249 . S
O305 U286 2.420 . S
O305 C290 1.202 . S
O306 U286 2.455 . S
O306 C303 1.301 . S
O307 U286 2.449 . S
O307 C303 1.282 . S
H308 C281 0.931 . S
H309 C283 0.929 . S
H310 C284 0.930 . S
H311 C285 0.931 . S
H312 C292 0.932 . S
H313 C293 0.930 . S
H314 C294 0.929 . S
H315 C296 0.930 . S
H316 C298 0.932 . S
H317 C299 0.929 . S
H318 C300 0.928 . S
H319 C302 0.932 . S
C320 C321 1.264 . S
C320 C325 1.479 . S
C320 C330 1.465 . S
C321 C320 1.264 . S
C321 C323 1.339 . S
C321 H348 0.931 . S
C322 C323 1.395 . S
C322 C324 1.320 . S
C323 C321 1.339 . S
C323 C322 1.395 . S
C323 H349 0.929 . S
C324 C322 1.320 . S
C324 C325 1.405 . S
C324 H350 0.930 . S
C325 C320 1.479 . S
C325 C324 1.405 . S
C325 H351 0.931 . S
U326 O327 2.454 . S
U326 O328 2.458 . S
U326 C329 2.984 . S
U326 C330 2.847 . S
U326 C343 2.882 . S
U326 O344 2.441 . S
U326 O345 2.420 . S
U326 O346 2.455 . S
U326 O347 2.449 . S
O327 U326 2.454 . S
O327 C329 1.353 . S
O328 U326 2.458 . S
O328 C329 1.286 . S
C329 U326 2.984 . S
C329 O327 1.353 . S
C329 O328 1.286 . S
C329 C331 1.363 . S
C330 C320 1.465 . S
C330 U326 2.847 . S
C330 O344 1.249 . S
C330 O345 1.202 . S
C331 C329 1.363 . S
C331 C333 1.408 . S
C331 C336 1.342 . S
C332 C333 1.310 . S
C332 C335 1.461 . S
C332 H352 0.932 . S
C333 C331 1.408 . S
C333 C332 1.310 . S
C333 H353 0.930 . S
C334 C335 1.474 . S
C334 C336 1.285 . S
C334 H354 0.929 . S
C335 C332 1.461 . S
C335 C334 1.474 . S
C336 C331 1.342 . S
C336 C334 1.285 . S
C336 H355 0.930 . S
C337 C340 1.424 . S
C337 C342 1.245 . S
C337 C343 1.428 . S
C338 C341 1.260 . S
C338 C342 1.477 . S
C338 H356 0.932 . S
C339 C340 1.384 . S
C339 C341 1.479 . S
C339 H357 0.929 . S
C340 C337 1.424 . S
C340 C339 1.384 . S
C340 H358 0.928 . S
C341 C338 1.260 . S
C341 C339 1.479 . S
C342 C337 1.245 . S
C342 C338 1.477 . S
C342 H359 0.932 . S
C343 U326 2.882 . S
C343 C337 1.428 . S
C343 O346 1.301 . S
C343 O347 1.282 . S
O344 U326 2.441 . S
O344 C330 1.249 . S
O345 U326 2.420 . S
O345 C330 1.202 . S
O346 U326 2.455 . S
O346 C343 1.301 . S
O347 U326 2.449 . S
O347 C343 1.282 . S
H348 C321 0.931 . S
H349 C323 0.929 . S
H350 C324 0.930 . S
H351 C325 0.931 . S
H352 C332 0.932 . S
H353 C333 0.930 . S
H354 C334 0.929 . S
H355 C336 0.930 . S
H356 C338 0.932 . S
H357 C339 0.929 . S
H358 C340 0.928 . S
H359 C342 0.932 . S
C360 C361 1.264 . S
C360 C365 1.479 . S
C360 C370 1.465 . S
C361 C360 1.264 . S
C361 C363 1.339 . S
C361 H388 0.931 . S
C362 C363 1.395 . S
C362 C364 1.320 . S
C363 C361 1.339 . S
C363 C362 1.395 . S
C363 H389 0.929 . S
C364 C362 1.320 . S
C364 C365 1.405 . S
C364 H390 0.930 . S
C365 C360 1.479 . S
C365 C364 1.405 . S
C365 H391 0.931 . S
U366 O367 2.454 . S
U366 O368 2.458 . S
U366 C369 2.984 . S
U366 C370 2.847 . S
U366 C383 2.882 . S
U366 O384 2.441 . S
U366 O385 2.420 . S
U366 O386 2.455 . S
U366 O387 2.449 . S
O367 U366 2.454 . S
O367 C369 1.353 . S
O368 U366 2.458 . S
O368 C369 1.286 . S
C369 U366 2.984 . S
C369 O367 1.353 . S
C369 O368 1.286 . S
C369 C371 1.363 . S
C370 C360 1.465 . S
C370 U366 2.847 . S
C370 O384 1.249 . S
C370 O385 1.202 . S
C371 C369 1.363 . S
C371 C373 1.408 . S
C371 C376 1.342 . S
C372 C373 1.310 . S
C372 C375 1.461 . S
C372 H392 0.932 . S
C373 C371 1.408 . S
C373 C372 1.310 . S
C373 H393 0.930 . S
C374 C375 1.474 . S
C374 C376 1.285 . S
C374 H394 0.929 . S
C375 C372 1.461 . S
C375 C374 1.474 . S
C376 C371 1.342 . S
C376 C374 1.285 . S
C376 H395 0.930 . S
C377 C380 1.424 . S
C377 C382 1.245 . S
C377 C383 1.428 . S
C378 C381 1.260 . S
C378 C382 1.477 . S
C378 H396 0.932 . S
C379 C380 1.384 . S
C379 C381 1.479 . S
C379 H397 0.929 . S
C380 C377 1.424 . S
C380 C379 1.384 . S
C380 H398 0.928 . S
C381 C378 1.260 . S
C381 C379 1.479 . S
C382 C377 1.245 . S
C382 C378 1.477 . S
C382 H399 0.932 . S
C383 U366 2.882 . S
C383 C377 1.428 . S
C383 O386 1.301 . S
C383 O387 1.282 . S
O384 U366 2.441 . S
O384 C370 1.249 . S
O385 U366 2.420 . S
O385 C370 1.202 . S
O386 U366 2.455 . S
O386 C383 1.301 . S
O387 U366 2.449 . S
O387 C383 1.282 . S
H388 C361 0.931 . S
H389 C363 0.929 . S
H390 C364 0.930 . S
H391 C365 0.931 . S
H392 C372 0.932 . S
H393 C373 0.930 . S
H394 C374 0.929 . S
H395 C376 0.930 . S
H396 C378 0.932 . S
H397 C379 0.929 . S
H398 C380 0.928 . S
H399 C382 0.932 . S
C400 C401 1.264 . S
C400 C405 1.479 . S
C400 C410 1.465 . S
C401 C400 1.264 . S
C401 C403 1.339 . S
C401 H428 0.931 . S
C402 C403 1.395 . S
C402 C404 1.320 . S
C403 C401 1.339 . S
C403 C402 1.395 . S
C403 H429 0.929 . S
C404 C402 1.320 . S
C404 C405 1.405 . S
C404 H430 0.930 . S
C405 C400 1.479 . S
C405 C404 1.405 . S
C405 H431 0.931 . S
U406 O407 2.454 . S
U406 O408 2.458 . S
U406 C409 2.984 . S
U406 C410 2.847 . S
U406 C423 2.882 . S
U406 O424 2.441 . S
U406 O425 2.420 . S
U406 O426 2.455 . S
U406 O427 2.449 . S
O407 U406 2.454 . S
O407 C409 1.353 . S
O408 U406 2.458 . S
O408 C409 1.286 . S
C409 U406 2.984 . S
C409 O407 1.353 . S
C409 O408 1.286 . S
C409 C411 1.363 . S
C410 C400 1.465 . S
C410 U406 2.847 . S
C410 O424 1.249 . S
C410 O425 1.202 . S
C411 C409 1.363 . S
C411 C413 1.408 . S
C411 C416 1.342 . S
C412 C413 1.310 . S
C412 C415 1.461 . S
C412 H432 0.932 . S
C413 C411 1.408 . S
C413 C412 1.310 . S
C413 H433 0.930 . S
C414 C415 1.474 . S
C414 C416 1.285 . S
C414 H434 0.929 . S
C415 C412 1.461 . S
C415 C414 1.474 . S
C416 C411 1.342 . S
C416 C414 1.285 . S
C416 H435 0.930 . S
C417 C420 1.424 . S
C417 C422 1.245 . S
C417 C423 1.428 . S
C418 C421 1.260 . S
C418 C422 1.477 . S
C418 H436 0.932 . S
C419 C420 1.384 . S
C419 C421 1.479 . S
C419 H437 0.929 . S
C420 C417 1.424 . S
C420 C419 1.384 . S
C420 H438 0.928 . S
C421 C418 1.260 . S
C421 C419 1.479 . S
C422 C417 1.245 . S
C422 C418 1.477 . S
C422 H439 0.932 . S
C423 U406 2.882 . S
C423 C417 1.428 . S
C423 O426 1.301 . S
C423 O427 1.282 . S
O424 U406 2.441 . S
O424 C410 1.249 . S
O425 U406 2.420 . S
O425 C410 1.202 . S
O426 U406 2.455 . S
O426 C423 1.301 . S
O427 U406 2.449 . S
O427 C423 1.282 . S
H428 C401 0.931 . S
H429 C403 0.929 . S
H430 C404 0.930 . S
H431 C405 0.931 . S
H432 C412 0.932 . S
H433 C413 0.930 . S
H434 C414 0.929 . S
H435 C416 0.930 . S
H436 C418 0.932 . S
H437 C419 0.929 . S
H438 C420 0.928 . S
H439 C422 0.932 . S
C440 C441 1.264 . S
C440 C445 1.479 . S
C440 C450 1.465 . S
C441 C440 1.264 . S
C441 C443 1.339 . S
C441 H468 0.931 . S
C442 C443 1.395 . S
C442 C444 1.320 . S
C443 C441 1.339 . S
C443 C442 1.395 . S
C443 H469 0.929 . S
C444 C442 1.320 . S
C444 C445 1.405 . S
C444 H470 0.930 . S
C445 C440 1.479 . S
C445 C444 1.405 . S
C445 H471 0.931 . S
U446 O447 2.454 . S
U446 O448 2.458 . S
U446 C449 2.984 . S
U446 C450 2.847 . S
U446 C463 2.882 . S
U446 O464 2.441 . S
U446 O465 2.420 . S
U446 O466 2.455 . S
U446 O467 2.449 . S
O447 U446 2.454 . S
O447 C449 1.353 . S
O448 U446 2.458 . S
O448 C449 1.286 . S
C449 U446 2.984 . S
C449 O447 1.353 . S
C449 O448 1.286 . S
C449 C451 1.363 . S
C450 C440 1.465 . S
C450 U446 2.847 . S
C450 O464 1.249 . S
C450 O465 1.202 . S
C451 C449 1.363 . S
C451 C453 1.408 . S
C451 C456 1.342 . S
C452 C453 1.310 . S
C452 C455 1.461 . S
C452 H472 0.932 . S
C453 C451 1.408 . S
C453 C452 1.310 . S
C453 H473 0.930 . S
C454 C455 1.474 . S
C454 C456 1.285 . S
C454 H474 0.929 . S
C455 C452 1.461 . S
C455 C454 1.474 . S
C456 C451 1.342 . S
C456 C454 1.285 . S
C456 H475 0.930 . S
C457 C460 1.424 . S
C457 C462 1.245 . S
C457 C463 1.428 . S
C458 C461 1.260 . S
C458 C462 1.477 . S
C458 H476 0.932 . S
C459 C460 1.384 . S
C459 C461 1.479 . S
C459 H477 0.929 . S
C460 C457 1.424 . S
C460 C459 1.384 . S
C460 H478 0.928 . S
C461 C458 1.260 . S
C461 C459 1.479 . S
C462 C457 1.245 . S
C462 C458 1.477 . S
C462 H479 0.932 . S
C463 U446 2.882 . S
C463 C457 1.428 . S
C463 O466 1.301 . S
C463 O467 1.282 . S
O464 U446 2.441 . S
O464 C450 1.249 . S
O465 U446 2.420 . S
O465 C450 1.202 . S
O466 U446 2.455 . S
O466 C463 1.301 . S
O467 U446 2.449 . S
O467 C463 1.282 . S
H468 C441 0.931 . S
H469 C443 0.929 . S
H470 C444 0.930 . S
H471 C445 0.931 . S
H472 C452 0.932 . S
H473 C453 0.930 . S
H474 C454 0.929 . S
H475 C456 0.930 . S
H476 C458 0.932 . S
H477 C459 0.929 . S
H478 C460 0.928 . S
H479 C462 0.932 . S
C480 C481 1.264 . S
C480 C485 1.479 . S
C480 C490 1.465 . S
C481 C480 1.264 . S
C481 C483 1.339 . S
C481 H508 0.931 . S
C482 C483 1.395 . S
C482 C484 1.320 . S
C483 C481 1.339 . S
C483 C482 1.395 . S
C483 H509 0.929 . S
C484 C482 1.320 . S
C484 C485 1.405 . S
C484 H510 0.930 . S
C485 C480 1.479 . S
C485 C484 1.405 . S
C485 H511 0.931 . S
U486 O487 2.454 . S
U486 O488 2.458 . S
U486 C489 2.984 . S
U486 C490 2.847 . S
U486 C503 2.882 . S
U486 O504 2.441 . S
U486 O505 2.420 . S
U486 O506 2.455 . S
U486 O507 2.449 . S
O487 U486 2.454 . S
O487 C489 1.353 . S
O488 U486 2.458 . S
O488 C489 1.286 . S
C489 U486 2.984 . S
C489 O487 1.353 . S
C489 O488 1.286 . S
C489 C491 1.363 . S
C490 C480 1.465 . S
C490 U486 2.847 . S
C490 O504 1.249 . S
C490 O505 1.202 . S
C491 C489 1.363 . S
C491 C493 1.408 . S
C491 C496 1.342 . S
C492 C493 1.310 . S
C492 C495 1.461 . S
C492 H512 0.932 . S
C493 C491 1.408 . S
C493 C492 1.310 . S
C493 H513 0.930 . S
C494 C495 1.474 . S
C494 C496 1.285 . S
C494 H514 0.929 . S
C495 C492 1.461 . S
C495 C494 1.474 . S
C496 C491 1.342 . S
C496 C494 1.285 . S
C496 H515 0.930 . S
C497 C500 1.424 . S
C497 C502 1.245 . S
C497 C503 1.428 . S
C498 C501 1.260 . S
C498 C502 1.477 . S
C498 H516 0.932 . S
C499 C500 1.384 . S
C499 C501 1.479 . S
C499 H517 0.929 . S
C500 C497 1.424 . S
C500 C499 1.384 . S
C500 H518 0.928 . S
C501 C498 1.260 . S
C501 C499 1.479 . S
C502 C497 1.245 . S
C502 C498 1.477 . S
C502 H519 0.932 . S
C503 U486 2.882 . S
C503 C497 1.428 . S
C503 O506 1.301 . S
C503 O507 1.282 . S
O504 U486 2.441 . S
O504 C490 1.249 . S
O505 U486 2.420 . S
O505 C490 1.202 . S
O506 U486 2.455 . S
O506 C503 1.301 . S
O507 U486 2.449 . S
O507 C503 1.282 . S
H508 C481 0.931 . S
H509 C483 0.929 . S
H510 C484 0.930 . S
H511 C485 0.931 . S
H512 C492 0.932 . S
H513 C493 0.930 . S
H514 C494 0.929 . S
H515 C496 0.930 . S
H516 C498 0.932 . S
H517 C499 0.929 . S
H518 C500 0.928 . S
H519 C502 0.932 . S
C520 C521 1.264 . S
C520 C525 1.479 . S
C520 C530 1.465 . S
C521 C520 1.264 . S
C521 C523 1.339 . S
C521 H548 0.931 . S
C522 C523 1.395 . S
C522 C524 1.320 . S
C523 C521 1.339 . S
C523 C522 1.395 . S
C523 H549 0.929 . S
C524 C522 1.320 . S
C524 C525 1.405 . S
C524 H550 0.930 . S
C525 C520 1.479 . S
C525 C524 1.405 . S
C525 H551 0.931 . S
U526 O527 2.454 . S
U526 O528 2.458 . S
U526 C529 2.984 . S
U526 C530 2.847 . S
U526 C543 2.882 . S
U526 O544 2.441 . S
U526 O545 2.420 . S
U526 O546 2.455 . S
U526 O547 2.449 . S
O527 U526 2.454 . S
O527 C529 1.353 . S
O528 U526 2.458 . S
O528 C529 1.286 . S
C529 U526 2.984 . S
C529 O527 1.353 . S
C529 O528 1.286 . S
C529 C531 1.363 . S
C530 C520 1.465 . S
C530 U526 2.847 . S
C530 O544 1.249 . S
C530 O545 1.202 . S
C531 C529 1.363 . S
C531 C533 1.408 . S
C531 C536 1.342 . S
C532 C533 1.310 . S
C532 C535 1.461 . S
C532 H552 0.932 . S
C533 C531 1.408 . S
C533 C532 1.310 . S
C533 H553 0.930 . S
C534 C535 1.474 . S
C534 C536 1.285 . S
C534 H554 0.929 . S
C535 C532 1.461 . S
C535 C534 1.474 . S
C536 C531 1.342 . S
C536 C534 1.285 . S
C536 H555 0.930 . S
C537 C540 1.424 . S
C537 C542 1.245 . S
C537 C543 1.428 . S
C538 C541 1.260 . S
C538 C542 1.477 . S
C538 H556 0.932 . S
C539 C540 1.384 . S
C539 C541 1.479 . S
C539 H557 0.929 . S
C540 C537 1.424 . S
C540 C539 1.384 . S
C540 H558 0.928 . S
C541 C538 1.260 . S
C541 C539 1.479 . S
C542 C537 1.245 . S
C542 C538 1.477 . S
C542 H559 0.932 . S
C543 U526 2.882 . S
C543 C537 1.428 . S
C543 O546 1.301 . S
C543 O547 1.282 . S
O544 U526 2.441 . S
O544 C530 1.249 . S
O545 U526 2.420 . S
O545 C530 1.202 . S
O546 U526 2.455 . S
O546 C543 1.301 . S
O547 U526 2.449 . S
O547 C543 1.282 . S
H548 C521 0.931 . S
H549 C523 0.929 . S
H550 C524 0.930 . S
H551 C525 0.931 . S
H552 C532 0.932 . S
H553 C533 0.930 . S
H554 C534 0.929 . S
H555 C536 0.930 . S
H556 C538 0.932 . S
H557 C539 0.929 . S
H558 C540 0.928 . S
H559 C542 0.932 . S
C560 C561 1.264 . S
C560 C565 1.479 . S
C560 C570 1.465 . S
C561 C560 1.264 . S
C561 C563 1.339 . S
C561 H588 0.931 . S
C562 C563 1.395 . S
C562 C564 1.320 . S
C563 C561 1.339 . S
C563 C562 1.395 . S
C563 H589 0.929 . S
C564 C562 1.320 . S
C564 C565 1.405 . S
C564 H590 0.930 . S
C565 C560 1.479 . S
C565 C564 1.405 . S
C565 H591 0.931 . S
U566 O567 2.454 . S
U566 O568 2.458 . S
U566 C569 2.984 . S
U566 C570 2.847 . S
U566 C583 2.882 . S
U566 O584 2.441 . S
U566 O585 2.420 . S
U566 O586 2.455 . S
U566 O587 2.449 . S
O567 U566 2.454 . S
O567 C569 1.353 . S
O568 U566 2.458 . S
O568 C569 1.286 . S
C569 U566 2.984 . S
C569 O567 1.353 . S
C569 O568 1.286 . S
C569 C571 1.363 . S
C570 C560 1.465 . S
C570 U566 2.847 . S
C570 O584 1.249 . S
C570 O585 1.202 . S
C571 C569 1.363 . S
C571 C573 1.408 . S
C571 C576 1.342 . S
C572 C573 1.310 . S
C572 C575 1.461 . S
C572 H592 0.932 . S
C573 C571 1.408 . S
C573 C572 1.310 . S
C573 H593 0.930 . S
C574 C575 1.474 . S
C574 C576 1.285 . S
C574 H594 0.929 . S
C575 C572 1.461 . S
C575 C574 1.474 . S
C576 C571 1.342 . S
C576 C574 1.285 . S
C576 H595 0.930 . S
C577 C580 1.424 . S
C577 C582 1.245 . S
C577 C583 1.428 . S
C578 C581 1.260 . S
C578 C582 1.477 . S
C578 H596 0.932 . S
C579 C580 1.384 . S
C579 C581 1.479 . S
C579 H597 0.929 . S
C580 C577 1.424 . S
C580 C579 1.384 . S
C580 H598 0.928 . S
C581 C578 1.260 . S
C581 C579 1.479 . S
C582 C577 1.245 . S
C582 C578 1.477 . S
C582 H599 0.932 . S
C583 U566 2.882 . S
C583 C577 1.428 . S
C583 O586 1.301 . S
C583 O587 1.282 . S
O584 U566 2.441 . S
O584 C570 1.249 . S
O585 U566 2.420 . S
O585 C570 1.202 . S
O586 U566 2.455 . S
O586 C583 1.301 . S
O587 U566 2.449 . S
O587 C583 1.282 . S
H588 C561 0.931 . S
H589 C563 0.929 . S
H590 C564 0.930 . S
H591 C565 0.931 . S
H592 C572 0.932 . S
H593 C573 0.930 . S
H594 C574 0.929 . S
H595 C576 0.930 . S
H596 C578 0.932 . S
H597 C579 0.929 . S
H598 C580 0.928 . S
H599 C582 0.932 . S
C600 C601 1.264 . S
C600 C605 1.479 . S
C600 C610 1.465 . S
C601 C600 1.264 . S
C601 C603 1.339 . S
C601 H628 0.931 . S
C602 C603 1.395 . S
C602 C604 1.320 . S
C603 C601 1.339 . S
C603 C602 1.395 . S
C603 H629 0.929 . S
C604 C602 1.320 . S
C604 C605 1.405 . S
C604 H630 0.930 . S
C605 C600 1.479 . S
C605 C604 1.405 . S
C605 H631 0.931 . S
U606 O607 2.454 . S
U606 O608 2.458 . S
U606 C609 2.984 . S
U606 C610 2.847 . S
U606 C623 2.882 . S
U606 O624 2.441 . S
U606 O625 2.420 . S
U606 O626 2.455 . S
U606 O627 2.449 . S
O607 U606 2.454 . S
O607 C609 1.353 . S
O608 U606 2.458 . S
O608 C609 1.286 . S
C609 U606 2.984 . S
C609 O607 1.353 . S
C609 O608 1.286 . S
C609 C611 1.363 . S
C610 C600 1.465 . S
C610 U606 2.847 . S
C610 O624 1.249 . S
C610 O625 1.202 . S
C611 C609 1.363 . S
C611 C613 1.408 . S
C611 C616 1.342 . S
C612 C613 1.310 . S
C612 C615 1.461 . S
C612 H632 0.932 . S
C613 C611 1.408 . S
C613 C612 1.310 . S
C613 H633 0.930 . S
C614 C615 1.474 . S
C614 C616 1.285 . S
C614 H634 0.929 . S
C615 C612 1.461 . S
C615 C614 1.474 . S
C616 C611 1.342 . S
C616 C614 1.285 . S
C616 H635 0.930 . S
C617 C620 1.424 . S
C617 C622 1.245 . S
C617 C623 1.428 . S
C618 C621 1.260 . S
C618 C622 1.477 . S
C618 H636 0.932 . S
C619 C620 1.384 . S
C619 C621 1.479 . S
C619 H637 0.929 . S
C620 C617 1.424 . S
C620 C619 1.384 . S
C620 H638 0.928 . S
C621 C618 1.260 . S
C621 C619 1.479 . S
C622 C617 1.245 . S
C622 C618 1.477 . S
C622 H639 0.932 . S
C623 U606 2.882 . S
C623 C617 1.428 . S
C623 O626 1.301 . S
C623 O627 1.282 . S
O624 U606 2.441 . S
O624 C610 1.249 . S
O625 U606 2.420 . S
O625 C610 1.202 . S
O626 U606 2.455 . S
O626 C623 1.301 . S
O627 U606 2.449 . S
O627 C623 1.282 . S
H628 C601 0.931 . S
H629 C603 0.929 . S
H630 C604 0.930 . S
H631 C605 0.931 . S
H632 C612 0.932 . S
H633 C613 0.930 . S
H634 C614 0.929 . S
H635 C616 0.930 . S
H636 C618 0.932 . S
H637 C619 0.929 . S
H638 C620 0.928 . S
H639 C622 0.932 . S
C640 C641 1.264 . S
C640 C645 1.479 . S
C640 C650 1.465 . S
C641 C640 1.264 . S
C641 C643 1.339 . S
C641 H668 0.931 . S
C642 C643 1.395 . S
C642 C644 1.320 . S
C643 C641 1.339 . S
C643 C642 1.395 . S
C643 H669 0.929 . S
C644 C642 1.320 . S
C644 C645 1.405 . S
C644 H670 0.930 . S
C645 C640 1.479 . S
C645 C644 1.405 . S
C645 H671 0.931 . S
U646 O647 2.454 . S
U646 O648 2.458 . S
U646 C649 2.984 . S
U646 C650 2.847 . S
U646 C663 2.882 . S
U646 O664 2.441 . S
U646 O665 2.420 . S
U646 O666 2.455 . S
U646 O667 2.449 . S
O647 U646 2.454 . S
O647 C649 1.353 . S
O648 U646 2.458 . S
O648 C649 1.286 . S
C649 U646 2.984 . S
C649 O647 1.353 . S
C649 O648 1.286 . S
C649 C651 1.363 . S
C650 C640 1.465 . S
C650 U646 2.847 . S
C650 O664 1.249 . S
C650 O665 1.202 . S
C651 C649 1.363 . S
C651 C653 1.408 . S
C651 C656 1.342 . S
C652 C653 1.310 . S
C652 C655 1.461 . S
C652 H672 0.932 . S
C653 C651 1.408 . S
C653 C652 1.310 . S
C653 H673 0.930 . S
C654 C655 1.474 . S
C654 C656 1.285 . S
C654 H674 0.929 . S
C655 C652 1.461 . S
C655 C654 1.474 . S
C656 C651 1.342 . S
C656 C654 1.285 . S
C656 H675 0.930 . S
C657 C660 1.424 . S
C657 C662 1.245 . S
C657 C663 1.428 . S
C658 C661 1.260 . S
C658 C662 1.477 . S
C658 H676 0.932 . S
C659 C660 1.384 . S
C659 C661 1.479 . S
C659 H677 0.929 . S
C660 C657 1.424 . S
C660 C659 1.384 . S
C660 H678 0.928 . S
C661 C658 1.260 . S
C661 C659 1.479 . S
C662 C657 1.245 . S
C662 C658 1.477 . S
C662 H679 0.932 . S
C663 U646 2.882 . S
C663 C657 1.428 . S
C663 O666 1.301 . S
C663 O667 1.282 . S
O664 U646 2.441 . S
O664 C650 1.249 . S
O665 U646 2.420 . S
O665 C650 1.202 . S
O666 U646 2.455 . S
O666 C663 1.301 . S
O667 U646 2.449 . S
O667 C663 1.282 . S
H668 C641 0.931 . S
H669 C643 0.929 . S
H670 C644 0.930 . S
H671 C645 0.931 . S
H672 C652 0.932 . S
H673 C653 0.930 . S
H674 C654 0.929 . S
H675 C656 0.930 . S
H676 C658 0.932 . S
H677 C659 0.929 . S
H678 C660 0.928 . S
H679 C662 0.932 . S
C680 C681 1.264 . S
C680 C685 1.479 . S
C680 C690 1.465 . S
C681 C680 1.264 . S
C681 C683 1.339 . S
C681 H708 0.931 . S
C682 C683 1.395 . S
C682 C684 1.320 . S
C683 C681 1.339 . S
C683 C682 1.395 . S
C683 H709 0.929 . S
C684 C682 1.320 . S
C684 C685 1.405 . S
C684 H710 0.930 . S
C685 C680 1.479 . S
C685 C684 1.405 . S
C685 H711 0.931 . S
U686 O687 2.454 . S
U686 O688 2.458 . S
U686 C689 2.984 . S
U686 C690 2.847 . S
U686 C703 2.882 . S
U686 O704 2.441 . S
U686 O705 2.420 . S
U686 O706 2.455 . S
U686 O707 2.449 . S
O687 U686 2.454 . S
O687 C689 1.353 . S
O688 U686 2.458 . S
O688 C689 1.286 . S
C689 U686 2.984 . S
C689 O687 1.353 . S
C689 O688 1.286 . S
C689 C691 1.363 . S
C690 C680 1.465 . S
C690 U686 2.847 . S
C690 O704 1.249 . S
C690 O705 1.202 . S
C691 C689 1.363 . S
C691 C693 1.408 . S
C691 C696 1.342 . S
C692 C693 1.310 . S
C692 C695 1.461 . S
C692 H712 0.932 . S
C693 C691 1.408 . S
C693 C692 1.310 . S
C693 H713 0.930 . S
C694 C695 1.474 . S
C694 C696 1.285 . S
C694 H714 0.929 . S
C695 C692 1.461 . S
C695 C694 1.474 . S
C696 C691 1.342 . S
C696 C694 1.285 . S
C696 H715 0.930 . S
C697 C700 1.424 . S
C697 C702 1.245 . S
C697 C703 1.428 . S
C698 C701 1.260 . S
C698 C702 1.477 . S
C698 H716 0.932 . S
C699 C700 1.384 . S
C699 C701 1.479 . S
C699 H717 0.929 . S
C700 C697 1.424 . S
C700 C699 1.384 . S
C700 H718 0.928 . S
C701 C698 1.260 . S
C701 C699 1.479 . S
C702 C697 1.245 . S
C702 C698 1.477 . S
C702 H719 0.932 . S
C703 U686 2.882 . S
C703 C697 1.428 . S
C703 O706 1.301 . S
C703 O707 1.282 . S
O704 U686 2.441 . S
O704 C690 1.249 . S
O705 U686 2.420 . S
O705 C690 1.202 . S
O706 U686 2.455 . S
O706 C703 1.301 . S
O707 U686 2.449 . S
O707 C703 1.282 . S
H708 C681 0.931 . S
H709 C683 0.929 . S
H710 C684 0.930 . S
H711 C685 0.931 . S
H712 C692 0.932 . S
H713 C693 0.930 . S
H714 C694 0.929 . S
H715 C696 0.930 . S
H716 C698 0.932 . S
H717 C699 0.929 . S
H718 C700 0.928 . S
H719 C702 0.932 . S
C720 C721 1.264 . S
C720 C725 1.479 . S
C720 C730 1.465 . S
C721 C720 1.264 . S
C721 C723 1.339 . S
C721 H748 0.931 . S
C722 C723 1.395 . S
C722 C724 1.320 . S
C723 C721 1.339 . S
C723 C722 1.395 . S
C723 H749 0.929 . S
C724 C722 1.320 . S
C724 C725 1.405 . S
C724 H750 0.930 . S
C725 C720 1.479 . S
C725 C724 1.405 . S
C725 H751 0.931 . S
U726 O727 2.454 . S
U726 O728 2.458 . S
U726 C729 2.984 . S
U726 C730 2.847 . S
U726 C743 2.882 . S
U726 O744 2.441 . S
U726 O745 2.420 . S
U726 O746 2.455 . S
U726 O747 2.449 . S
O727 U726 2.454 . S
O727 C729 1.353 . S
O728 U726 2.458 . S
O728 C729 1.286 . S
C729 U726 2.984 . S
C729 O727 1.353 . S
C729 O728 1.286 . S
C729 C731 1.363 . S
C730 C720 1.465 . S
C730 U726 2.847 . S
C730 O744 1.249 . S
C730 O745 1.202 . S
C731 C729 1.363 . S
C731 C733 1.408 . S
C731 C736 1.342 . S
C732 C733 1.310 . S
C732 C735 1.461 . S
C732 H752 0.932 . S
C733 C731 1.408 . S
C733 C732 1.310 . S
C733 H753 0.930 . S
C734 C735 1.474 . S
C734 C736 1.285 . S
C734 H754 0.929 . S
C735 C732 1.461 . S
C735 C734 1.474 . S
C736 C731 1.342 . S
C736 C734 1.285 . S
C736 H755 0.930 . S
C737 C740 1.424 . S
C737 C742 1.245 . S
C737 C743 1.428 . S
C738 C741 1.260 . S
C738 C742 1.477 . S
C738 H756 0.932 . S
C739 C740 1.384 . S
C739 C741 1.479 . S
C739 H757 0.929 . S
C740 C737 1.424 . S
C740 C739 1.384 . S
C740 H758 0.928 . S
C741 C738 1.260 . S
C741 C739 1.479 . S
C742 C737 1.245 . S
C742 C738 1.477 . S
C742 H759 0.932 . S
C743 U726 2.882 . S
C743 C737 1.428 . S
C743 O746 1.301 . S
C743 O747 1.282 . S
O744 U726 2.441 . S
O744 C730 1.249 . S
O745 U726 2.420 . S
O745 C730 1.202 . S
O746 U726 2.455 . S
O746 C743 1.301 . S
O747 U726 2.449 . S
O747 C743 1.282 . S
H748 C721 0.931 . S
H749 C723 0.929 . S
H750 C724 0.930 . S
H751 C725 0.931 . S
H752 C732 0.932 . S
H753 C733 0.930 . S
H754 C734 0.929 . S
H755 C736 0.930 . S
H756 C738 0.932 . S
H757 C739 0.929 . S
H758 C740 0.928 . S
H759 C742 0.932 . S
C760 C761 1.264 . S
C760 C765 1.479 . S
C760 C770 1.465 . S
C761 C760 1.264 . S
C761 C763 1.339 . S
C761 H788 0.931 . S
C762 C763 1.395 . S
C762 C764 1.320 . S
C763 C761 1.339 . S
C763 C762 1.395 . S
C763 H789 0.929 . S
C764 C762 1.320 . S
C764 C765 1.405 . S
C764 H790 0.930 . S
C765 C760 1.479 . S
C765 C764 1.405 . S
C765 H791 0.931 . S
U766 O767 2.454 . S
U766 O768 2.458 . S
U766 C769 2.984 . S
U766 C770 2.847 . S
U766 C783 2.882 . S
U766 O784 2.441 . S
U766 O785 2.420 . S
U766 O786 2.455 . S
U766 O787 2.449 . S
O767 U766 2.454 . S
O767 C769 1.353 . S
O768 U766 2.458 . S
O768 C769 1.286 . S
C769 U766 2.984 . S
C769 O767 1.353 . S
C769 O768 1.286 . S
C769 C771 1.363 . S
C770 C760 1.465 . S
C770 U766 2.847 . S
C770 O784 1.249 . S
C770 O785 1.202 . S
C771 C769 1.363 . S
C771 C773 1.408 . S
C771 C776 1.342 . S
C772 C773 1.310 . S
C772 C775 1.461 . S
C772 H792 0.932 . S
C773 C771 1.408 . S
C773 C772 1.310 . S
C773 H793 0.930 . S
C774 C775 1.474 . S
C774 C776 1.285 . S
C774 H794 0.929 . S
C775 C772 1.461 . S
C775 C774 1.474 . S
C776 C771 1.342 . S
C776 C774 1.285 . S
C776 H795 0.930 . S
C777 C780 1.424 . S
C777 C782 1.245 . S
C777 C783 1.428 . S
C778 C781 1.260 . S
C778 C782 1.477 . S
C778 H796 0.932 . S
C779 C780 1.384 . S
C779 C781 1.479 . S
C779 H797 0.929 . S
C780 C777 1.424 . S
C780 C779 1.384 . S
C780 H798 0.928 . S
C781 C778 1.260 . S
C781 C779 1.479 . S
C782 C777 1.245 . S
C782 C778 1.477 . S
C782 H799 0.932 . S
C783 U766 2.882 . S
C783 C777 1.428 . S
C783 O786 1.301 . S
C783 O787 1.282 . S
O784 U766 2.441 . S
O784 C770 1.249 . S
O785 U766 2.420 . S
O785 C770 1.202 . S
O786 U766 2.455 . S
O786 C783 1.301 . S
O787 U766 2.449 . S
O787 C783 1.282 . S
H788 C761 0.931 . S
H789 C763 0.929 . S
H790 C764 0.930 . S
H791 C765 0.931 . S
H792 C772 0.932 . S
H793 C773 0.930 . S
H794 C774 0.929 . S
H795 C776 0.930 . S
H796 C778 0.932 . S
H797 C779 0.929 . S
H798 C780 0.928 . S
H799 C782 0.932 . S
C800 C801 1.264 . S
C800 C805 1.479 . S
C800 C810 1.465 . S
C801 C800 1.264 . S
C801 C803 1.339 . S
C801 H828 0.931 . S
C802 C803 1.395 . S
C802 C804 1.320 . S
C803 C801 1.339 . S
C803 C802 1.395 . S
C803 H829 0.929 . S
C804 C802 1.320 . S
C804 C805 1.405 . S
C804 H830 0.930 . S
C805 C800 1.479 . S
C805 C804 1.405 . S
C805 H831 0.931 . S
U806 O807 2.454 . S
U806 O808 2.458 . S
U806 C809 2.984 . S
U806 C810 2.847 . S
U806 C823 2.882 . S
U806 O824 2.441 . S
U806 O825 2.420 . S
U806 O826 2.455 . S
U806 O827 2.449 . S
O807 U806 2.454 . S
O807 C809 1.353 . S
O808 U806 2.458 . S
O808 C809 1.286 . S
C809 U806 2.984 . S
C809 O807 1.353 . S
C809 O808 1.286 . S
C809 C811 1.363 . S
C810 C800 1.465 . S
C810 U806 2.847 . S
C810 O824 1.249 . S
C810 O825 1.202 . S
C811 C809 1.363 . S
C811 C813 1.408 . S
C811 C816 1.342 . S
C812 C813 1.310 . S
C812 C815 1.461 . S
C812 H832 0.932 . S
C813 C811 1.408 . S
C813 C812 1.310 . S
C813 H833 0.930 . S
C814 C815 1.474 . S
C814 C816 1.285 . S
C814 H834 0.929 . S
C815 C812 1.461 . S
C815 C814 1.474 . S
C816 C811 1.342 . S
C816 C814 1.285 . S
C816 H835 0.930 . S
C817 C820 1.424 . S
C817 C822 1.245 . S
C817 C823 1.428 . S
C818 C821 1.260 . S
C818 C822 1.477 . S
C818 H836 0.932 . S
C819 C820 1.384 . S
C819 C821 1.479 . S
C819 H837 0.929 . S
C820 C817 1.424 . S
C820 C819 1.384 . S
C820 H838 0.928 . S
C821 C818 1.260 . S
C821 C819 1.479 . S
C822 C817 1.245 . S
C822 C818 1.477 . S
C822 H839 0.932 . S
C823 U806 2.882 . S
C823 C817 1.428 . S
C823 O826 1.301 . S
C823 O827 1.282 . S
O824 U806 2.441 . S
O824 C810 1.249 . S
O825 U806 2.420 . S
O825 C810 1.202 . S
O826 U806 2.455 . S
O826 C823 1.301 . S
O827 U806 2.449 . S
O827 C823 1.282 . S
H828 C801 0.931 . S
H829 C803 0.929 . S
H830 C804 0.930 . S
H831 C805 0.931 . S
H832 C812 0.932 . S
H833 C813 0.930 . S
H834 C814 0.929 . S
H835 C816 0.930 . S
H836 C818 0.932 . S
H837 C819 0.929 . S
H838 C820 0.928 . S
H839 C822 0.932 . S
C840 C841 1.264 . S
C840 C845 1.479 . S
C840 C850 1.465 . S
C841 C840 1.264 . S
C841 C843 1.339 . S
C841 H868 0.931 . S
C842 C843 1.395 . S
C842 C844 1.320 . S
C843 C841 1.339 . S
C843 C842 1.395 . S
C843 H869 0.929 . S
C844 C842 1.320 . S
C844 C845 1.405 . S
C844 H870 0.930 . S
C845 C840 1.479 . S
C845 C844 1.405 . S
C845 H871 0.931 . S
U846 O847 2.454 . S
U846 O848 2.458 . S
U846 C849 2.984 . S
U846 C850 2.847 . S
U846 C863 2.882 . S
U846 O864 2.441 . S
U846 O865 2.420 . S
U846 O866 2.455 . S
U846 O867 2.449 . S
O847 U846 2.454 . S
O847 C849 1.353 . S
O848 U846 2.458 . S
O848 C849 1.286 . S
C849 U846 2.984 . S
C849 O847 1.353 . S
C849 O848 1.286 . S
C849 C851 1.363 . S
C850 C840 1.465 . S
C850 U846 2.847 . S
C850 O864 1.249 . S
C850 O865 1.202 . S
C851 C849 1.363 . S
C851 C853 1.408 . S
C851 C856 1.342 . S
C852 C853 1.310 . S
C852 C855 1.461 . S
C852 H872 0.932 . S
C853 C851 1.408 . S
C853 C852 1.310 . S
C853 H873 0.930 . S
C854 C855 1.474 . S
C854 C856 1.285 . S
C854 H874 0.929 . S
C855 C852 1.461 . S
C855 C854 1.474 . S
C856 C851 1.342 . S
C856 C854 1.285 . S
C856 H875 0.930 . S
C857 C860 1.425 1_554 S
C857 C862 1.245 . S
C857 C863 1.428 . S
C858 C861 1.260 . S
C858 C862 1.477 1_556 S
C858 H876 0.932 . S
C859 C860 1.382 . S
C859 C861 1.479 . S
C859 H877 0.929 . S
C860 C857 1.425 1_556 S
C860 C859 1.382 . S
C860 H878 0.929 1_556 S
C861 C858 1.260 . S
C861 C859 1.479 . S
C862 C857 1.245 . S
C862 C858 1.477 1_554 S
C862 H879 0.932 . S
C863 U846 2.882 . S
C863 C857 1.428 . S
C863 O866 1.301 . S
C863 O867 1.282 . S
O864 U846 2.441 . S
O864 C850 1.249 . S
O865 U846 2.420 . S
O865 C850 1.202 . S
O866 U846 2.455 . S
O866 C863 1.301 . S
O867 U846 2.449 . S
O867 C863 1.282 . S
H868 C841 0.931 . S
H869 C843 0.929 . S
H870 C844 0.930 . S
H871 C845 0.931 . S
H872 C852 0.932 . S
H873 C853 0.930 . S
H874 C854 0.929 . S
H875 C856 0.930 . S
H876 C858 0.932 . S
H877 C859 0.929 . S
H878 C860 0.929 1_554 S
H879 C862 0.932 . S
C880 C881 1.264 . S
C880 C885 1.479 . S
C880 C890 1.465 . S
C881 C880 1.264 . S
C881 C883 1.339 . S
C881 H908 0.931 . S
C882 C883 1.395 . S
C882 C884 1.320 . S
C883 C881 1.339 . S
C883 C882 1.395 . S
C883 H909 0.929 . S
C884 C882 1.320 . S
C884 C885 1.405 . S
C884 H910 0.930 . S
C885 C880 1.479 . S
C885 C884 1.405 . S
C885 H911 0.931 . S
U886 O887 2.454 . S
U886 O888 2.458 . S
U886 C889 2.984 . S
U886 C890 2.847 . S
U886 C903 2.882 . S
U886 O904 2.441 . S
U886 O905 2.420 . S
U886 O906 2.455 . S
U886 O907 2.449 . S
O887 U886 2.454 . S
O887 C889 1.353 . S
O888 U886 2.458 . S
O888 C889 1.286 . S
C889 U886 2.984 . S
C889 O887 1.353 . S
C889 O888 1.286 . S
C889 C891 1.363 . S
C890 C880 1.465 . S
C890 U886 2.847 . S
C890 O904 1.249 . S
C890 O905 1.202 . S
C891 C889 1.363 . S
C891 C893 1.408 . S
C891 C896 1.342 . S
C892 C893 1.310 . S
C892 C895 1.461 . S
C892 H912 0.932 . S
C893 C891 1.408 . S
C893 C892 1.310 . S
C893 H913 0.930 . S
C894 C895 1.474 . S
C894 C896 1.285 . S
C894 H914 0.929 . S
C895 C892 1.461 . S
C895 C894 1.474 . S
C896 C891 1.342 . S
C896 C894 1.285 . S
C896 H915 0.930 . S
C897 C900 1.424 1_554 S
C897 C902 1.245 . S
C897 C903 1.428 . S
C898 C901 1.260 . S
C898 C902 1.477 1_556 S
C898 H916 0.932 . S
C899 C900 1.383 . S
C899 C901 1.479 . S
C899 H917 0.929 . S
C900 C897 1.424 1_556 S
C900 C899 1.383 . S
C900 H918 0.928 1_556 S
C901 C898 1.260 . S
C901 C899 1.479 . S
C902 C897 1.245 . S
C902 C898 1.477 1_554 S
C902 H919 0.932 . S
C903 U886 2.882 . S
C903 C897 1.428 . S
C903 O906 1.301 . S
C903 O907 1.282 . S
O904 U886 2.441 . S
O904 C890 1.249 . S
O905 U886 2.420 . S
O905 C890 1.202 . S
O906 U886 2.455 . S
O906 C903 1.301 . S
O907 U886 2.449 . S
O907 C903 1.282 . S
H908 C881 0.931 . S
H909 C883 0.929 . S
H910 C884 0.930 . S
H911 C885 0.931 . S
H912 C892 0.932 . S
H913 C893 0.930 . S
H914 C894 0.929 . S
H915 C896 0.930 . S
H916 C898 0.932 . S
H917 C899 0.929 . S
H918 C900 0.928 1_554 S
H919 C902 0.932 . S
C920 C921 1.264 . S
C920 C925 1.479 . S
C920 C930 1.465 . S
C921 C920 1.264 . S
C921 C923 1.339 . S
C921 H948 0.931 . S
C922 C923 1.395 . S
C922 C924 1.320 . S
C923 C921 1.339 . S
C923 C922 1.395 . S
C923 H949 0.929 . S
C924 C922 1.320 . S
C924 C925 1.405 . S
C924 H950 0.930 . S
C925 C920 1.479 . S
C925 C924 1.405 . S
C925 H951 0.931 . S
U926 O927 2.454 . S
U926 O928 2.458 . S
U926 C929 2.984 . S
U926 C930 2.847 . S
U926 C943 2.882 . S
U926 O944 2.441 . S
U926 O945 2.420 . S
U926 O946 2.455 . S
U926 O947 2.449 . S
O927 U926 2.454 . S
O927 C929 1.353 . S
O928 U926 2.458 . S
O928 C929 1.286 . S
C929 U926 2.984 . S
C929 O927 1.353 . S
C929 O928 1.286 . S
C929 C931 1.363 . S
C930 C920 1.465 . S
C930 U926 2.847 . S
C930 O944 1.249 . S
C930 O945 1.202 . S
C931 C929 1.363 . S
C931 C933 1.408 . S
C931 C936 1.342 . S
C932 C933 1.310 . S
C932 C935 1.461 . S
C932 H952 0.932 . S
C933 C931 1.408 . S
C933 C932 1.310 . S
C933 H953 0.930 . S
C934 C935 1.474 . S
C934 C936 1.285 . S
C934 H954 0.929 . S
C935 C932 1.461 . S
C935 C934 1.474 . S
C936 C931 1.342 . S
C936 C934 1.285 . S
C936 H955 0.930 . S
C937 C940 1.423 1_554 S
C937 C942 1.245 . S
C937 C943 1.428 . S
C938 C941 1.260 . S
C938 C942 1.477 1_556 S
C938 H956 0.932 . S
C939 C940 1.385 . S
C939 C941 1.479 . S
C939 H957 0.929 . S
C940 C937 1.423 1_556 S
C940 C939 1.385 . S
C940 H958 0.928 1_556 S
C941 C938 1.260 . S
C941 C939 1.479 . S
C942 C937 1.245 . S
C942 C938 1.477 1_554 S
C942 H959 0.932 . S
C943 U926 2.882 . S
C943 C937 1.428 . S
C943 O946 1.301 . S
C943 O947 1.282 . S
O944 U926 2.441 . S
O944 C930 1.249 . S
O945 U926 2.420 . S
O945 C930 1.202 . S
O946 U926 2.455 . S
O946 C943 1.301 . S
O947 U926 2.449 . S
O947 C943 1.282 . S
H948 C921 0.931 . S
H949 C923 0.929 . S
H950 C924 0.930 . S
H951 C925 0.931 . S
H952 C932 0.932 . S
H953 C933 0.930 . S
H954 C934 0.929 . S
H955 C936 0.930 . S
H956 C938 0.932 . S
H957 C939 0.929 . S
H958 C940 0.928 1_554 S
H959 C942 0.932 . S
C960 C961 1.264 . S
C960 C965 1.479 . S
C960 C970 1.465 . S
C961 C960 1.264 . S
C961 C963 1.339 . S
C961 H988 0.931 . S
C962 C963 1.395 . S
C962 C964 1.320 . S
C963 C961 1.339 . S
C963 C962 1.395 . S
C963 H989 0.929 . S
C964 C962 1.320 . S
C964 C965 1.405 . S
C964 H990 0.930 . S
C965 C960 1.479 . S
C965 C964 1.405 . S
C965 H991 0.931 . S
U966 O967 2.454 . S
U966 O968 2.458 . S
U966 C969 2.984 . S
U966 C970 2.847 . S
U966 C983 2.882 . S
U966 O984 2.441 . S
U966 O985 2.420 . S
U966 O986 2.455 . S
U966 O987 2.449 . S
O967 U966 2.454 . S
O967 C969 1.353 . S
O968 U966 2.458 . S
O968 C969 1.286 . S
C969 U966 2.984 . S
C969 O967 1.353 . S
C969 O968 1.286 . S
C969 C971 1.363 . S
C970 C960 1.465 . S
C970 U966 2.847 . S
C970 O984 1.249 . S
C970 O985 1.202 . S
C971 C969 1.363 . S
C971 C973 1.408 . S
C971 C976 1.342 . S
C972 C973 1.310 . S
C972 C975 1.461 . S
C972 H992 0.932 . S
C973 C971 1.408 . S
C973 C972 1.310 . S
C973 H993 0.930 . S
C974 C975 1.474 . S
C974 C976 1.285 . S
C974 H994 0.929 . S
C975 C972 1.461 . S
C975 C974 1.474 . S
C976 C971 1.342 . S
C976 C974 1.285 . S
C976 H995 0.930 . S
C977 C980 1.424 . S
C977 C982 1.245 . S
C977 C983 1.428 . S
C978 C981 1.260 . S
C978 C982 1.477 . S
C978 H996 0.932 . S
C979 C980 1.384 . S
C979 C981 1.479 . S
C979 H997 0.929 . S
C980 C977 1.424 . S
C980 C979 1.384 . S
C980 H998 0.928 . S
C981 C978 1.260 . S
C981 C979 1.479 . S
C982 C977 1.245 . S
C982 C978 1.477 . S
C982 H999 0.932 . S
C983 U966 2.882 . S
C983 C977 1.428 . S
C983 O986 1.301 . S
C983 O987 1.282 . S
O984 U966 2.441 . S
O984 C970 1.249 . S
O985 U966 2.420 . S
O985 C970 1.202 . S
O986 U966 2.455 . S
O986 C983 1.301 . S
O987 U966 2.449 . S
O987 C983 1.282 . S
H988 C961 0.931 . S
H989 C963 0.929 . S
H990 C964 0.930 . S
H991 C965 0.931 . S
H992 C972 0.932 . S
H993 C973 0.930 . S
H994 C974 0.929 . S
H995 C976 0.930 . S
H996 C978 0.932 . S
H997 C979 0.929 . S
H998 C980 0.928 . S
H999 C982 0.932 . S
C1000 C1001 1.264 . S
C1000 C1005 1.479 . S
C1000 C1010 1.465 . S
C1001 C1000 1.264 . S
C1001 C1003 1.339 . S
C1001 H1028 0.931 . S
C1002 C1003 1.395 . S
C1002 C1004 1.320 . S
C1003 C1001 1.339 . S
C1003 C1002 1.395 . S
C1003 H1029 0.929 . S
C1004 C1002 1.320 . S
C1004 C1005 1.405 . S
C1004 H1030 0.930 . S
C1005 C1000 1.479 . S
C1005 C1004 1.405 . S
C1005 H1031 0.931 . S
U1006 O1007 2.454 . S
U1006 O1008 2.458 . S
U1006 C1009 2.984 . S
U1006 C1010 2.847 . S
U1006 C1023 2.882 . S
U1006 O1024 2.441 . S
U1006 O1025 2.420 . S
U1006 O1026 2.455 . S
U1006 O1027 2.449 . S
O1007 U1006 2.454 . S
O1007 C1009 1.353 . S
O1008 U1006 2.458 . S
O1008 C1009 1.286 . S
C1009 U1006 2.984 . S
C1009 O1007 1.353 . S
C1009 O1008 1.286 . S
C1009 C1011 1.363 . S
C1010 C1000 1.465 . S
C1010 U1006 2.847 . S
C1010 O1024 1.249 . S
C1010 O1025 1.202 . S
C1011 C1009 1.363 . S
C1011 C1013 1.408 . S
C1011 C1016 1.342 . S
C1012 C1013 1.310 . S
C1012 C1015 1.461 . S
C1012 H1032 0.932 . S
C1013 C1011 1.408 . S
C1013 C1012 1.310 . S
C1013 H1033 0.930 . S
C1014 C1015 1.474 . S
C1014 C1016 1.285 . S
C1014 H1034 0.929 . S
C1015 C1012 1.461 . S
C1015 C1014 1.474 . S
C1016 C1011 1.342 . S
C1016 C1014 1.285 . S
C1016 H1035 0.930 . S
C1017 C1020 1.424 . S
C1017 C1022 1.245 . S
C1017 C1023 1.428 . S
C1018 C1021 1.260 . S
C1018 C1022 1.477 . S
C1018 H1036 0.932 . S
C1019 C1020 1.384 . S
C1019 C1021 1.479 . S
C1019 H1037 0.929 . S
C1020 C1017 1.424 . S
C1020 C1019 1.384 . S
C1020 H1038 0.928 . S
C1021 C1018 1.260 . S
C1021 C1019 1.479 . S
C1022 C1017 1.245 . S
C1022 C1018 1.477 . S
C1022 H1039 0.932 . S
C1023 U1006 2.882 . S
C1023 C1017 1.428 . S
C1023 O1026 1.301 . S
C1023 O1027 1.282 . S
O1024 U1006 2.441 . S
O1024 C1010 1.249 . S
O1025 U1006 2.420 . S
O1025 C1010 1.202 . S
O1026 U1006 2.455 . S
O1026 C1023 1.301 . S
O1027 U1006 2.449 . S
O1027 C1023 1.282 . S
H1028 C1001 0.931 . S
H1029 C1003 0.929 . S
H1030 C1004 0.930 . S
H1031 C1005 0.931 . S
H1032 C1012 0.932 . S
H1033 C1013 0.930 . S
H1034 C1014 0.929 . S
H1035 C1016 0.930 . S
H1036 C1018 0.932 . S
H1037 C1019 0.929 . S
H1038 C1020 0.928 . S
H1039 C1022 0.932 . S
C1040 C1041 1.264 . S
C1040 C1045 1.479 . S
C1040 C1050 1.465 . S
C1041 C1040 1.264 . S
C1041 C1043 1.339 . S
C1041 H1068 0.931 . S
C1042 C1043 1.395 . S
C1042 C1044 1.320 . S
C1043 C1041 1.339 . S
C1043 C1042 1.395 . S
C1043 H1069 0.929 . S
C1044 C1042 1.320 . S
C1044 C1045 1.405 . S
C1044 H1070 0.930 . S
C1045 C1040 1.479 . S
C1045 C1044 1.405 . S
C1045 H1071 0.931 . S
U1046 O1047 2.454 . S
U1046 O1048 2.458 . S
U1046 C1049 2.984 . S
U1046 C1050 2.847 . S
U1046 C1063 2.882 . S
U1046 O1064 2.441 . S
U1046 O1065 2.420 . S
U1046 O1066 2.455 . S
U1046 O1067 2.449 . S
O1047 U1046 2.454 . S
O1047 C1049 1.353 . S
O1048 U1046 2.458 . S
O1048 C1049 1.286 . S
C1049 U1046 2.984 . S
C1049 O1047 1.353 . S
C1049 O1048 1.286 . S
C1049 C1051 1.363 . S
C1050 C1040 1.465 . S
C1050 U1046 2.847 . S
C1050 O1064 1.249 . S
C1050 O1065 1.202 . S
C1051 C1049 1.363 . S
C1051 C1053 1.408 . S
C1051 C1056 1.342 . S
C1052 C1053 1.310 . S
C1052 C1055 1.461 . S
C1052 H1072 0.932 . S
C1053 C1051 1.408 . S
C1053 C1052 1.310 . S
C1053 H1073 0.930 . S
C1054 C1055 1.474 . S
C1054 C1056 1.285 . S
C1054 H1074 0.929 . S
C1055 C1052 1.461 . S
C1055 C1054 1.474 . S
C1056 C1051 1.342 . S
C1056 C1054 1.285 . S
C1056 H1075 0.930 . S
C1057 C1060 1.424 . S
C1057 C1062 1.245 . S
C1057 C1063 1.428 . S
C1058 C1061 1.260 . S
C1058 C1062 1.477 . S
C1058 H1076 0.932 . S
C1059 C1060 1.384 . S
C1059 C1061 1.479 . S
C1059 H1077 0.929 . S
C1060 C1057 1.424 . S
C1060 C1059 1.384 . S
C1060 H1078 0.928 . S
C1061 C1058 1.260 . S
C1061 C1059 1.479 . S
C1062 C1057 1.245 . S
C1062 C1058 1.477 . S
C1062 H1079 0.932 . S
C1063 U1046 2.882 . S
C1063 C1057 1.428 . S
C1063 O1066 1.301 . S
C1063 O1067 1.282 . S
O1064 U1046 2.441 . S
O1064 C1050 1.249 . S
O1065 U1046 2.420 . S
O1065 C1050 1.202 . S
O1066 U1046 2.455 . S
O1066 C1063 1.301 . S
O1067 U1046 2.449 . S
O1067 C1063 1.282 . S
H1068 C1041 0.931 . S
H1069 C1043 0.929 . S
H1070 C1044 0.930 . S
H1071 C1045 0.931 . S
H1072 C1052 0.932 . S
H1073 C1053 0.930 . S
H1074 C1054 0.929 . S
H1075 C1056 0.930 . S
H1076 C1058 0.932 . S
H1077 C1059 0.929 . S
H1078 C1060 0.928 . S
H1079 C1062 0.932 . S
C1080 C1081 1.264 . S
C1080 C1085 1.479 . S
C1080 C1090 1.465 . S
C1081 C1080 1.264 . S
C1081 C1083 1.339 . S
C1081 H1108 0.931 . S
C1082 C1083 1.395 . S
C1082 C1084 1.320 . S
C1083 C1081 1.339 . S
C1083 C1082 1.395 . S
C1083 H1109 0.929 . S
C1084 C1082 1.320 . S
C1084 C1085 1.405 . S
C1084 H1110 0.930 . S
C1085 C1080 1.479 . S
C1085 C1084 1.405 . S
C1085 H1111 0.931 . S
U1086 O1087 2.454 . S
U1086 O1088 2.458 . S
U1086 C1089 2.984 . S
U1086 C1090 2.847 . S
U1086 C1103 2.882 . S
U1086 O1104 2.441 . S
U1086 O1105 2.420 . S
U1086 O1106 2.455 . S
U1086 O1107 2.449 . S
O1087 U1086 2.454 . S
O1087 C1089 1.353 . S
O1088 U1086 2.458 . S
O1088 C1089 1.286 . S
C1089 U1086 2.984 . S
C1089 O1087 1.353 . S
C1089 O1088 1.286 . S
C1089 C1091 1.363 . S
C1090 C1080 1.465 . S
C1090 U1086 2.847 . S
C1090 O1104 1.249 . S
C1090 O1105 1.202 . S
C1091 C1089 1.363 . S
C1091 C1093 1.408 . S
C1091 C1096 1.342 . S
C1092 C1093 1.310 . S
C1092 C1095 1.461 . S
C1092 H1112 0.932 . S
C1093 C1091 1.408 . S
C1093 C1092 1.310 . S
C1093 H1113 0.930 . S
C1094 C1095 1.474 . S
C1094 C1096 1.285 . S
C1094 H1114 0.929 . S
C1095 C1092 1.461 . S
C1095 C1094 1.474 . S
C1096 C1091 1.342 . S
C1096 C1094 1.285 . S
C1096 H1115 0.930 . S
C1097 C1100 1.424 . S
C1097 C1102 1.245 . S
C1097 C1103 1.428 . S
C1098 C1101 1.260 . S
C1098 C1102 1.477 1_554 S
C1098 H1116 0.932 . S
C1099 C1100 1.384 1_554 S
C1099 C1101 1.479 . S
C1099 H1117 0.929 . S
C1100 C1097 1.424 . S
C1100 C1099 1.384 1_556 S
C1100 H1118 0.928 . S
C1101 C1098 1.260 . S
C1101 C1099 1.479 . S
C1102 C1097 1.245 . S
C1102 C1098 1.477 1_556 S
C1102 H1119 0.932 . S
C1103 U1086 2.882 . S
C1103 C1097 1.428 . S
C1103 O1106 1.301 . S
C1103 O1107 1.282 . S
O1104 U1086 2.441 . S
O1104 C1090 1.249 . S
O1105 U1086 2.420 . S
O1105 C1090 1.202 . S
O1106 U1086 2.455 . S
O1106 C1103 1.301 . S
O1107 U1086 2.449 . S
O1107 C1103 1.282 . S
H1108 C1081 0.931 . S
H1109 C1083 0.929 . S
H1110 C1084 0.930 . S
H1111 C1085 0.931 . S
H1112 C1092 0.932 . S
H1113 C1093 0.930 . S
H1114 C1094 0.929 . S
H1115 C1096 0.930 . S
H1116 C1098 0.932 . S
H1117 C1099 0.929 . S
H1118 C1100 0.928 . S
H1119 C1102 0.932 . S
C1120 C1121 1.264 . S
C1120 C1125 1.479 . S
C1120 C1130 1.465 . S
C1121 C1120 1.264 . S
C1121 C1123 1.339 . S
C1121 H1148 0.931 . S
C1122 C1123 1.395 . S
C1122 C1124 1.320 . S
C1123 C1121 1.339 . S
C1123 C1122 1.395 . S
C1123 H1149 0.929 . S
C1124 C1122 1.320 . S
C1124 C1125 1.405 . S
C1124 H1150 0.930 . S
C1125 C1120 1.479 . S
C1125 C1124 1.405 . S
C1125 H1151 0.931 . S
U1126 O1127 2.454 . S
U1126 O1128 2.458 . S
U1126 C1129 2.984 . S
U1126 C1130 2.847 . S
U1126 C1143 2.882 . S
U1126 O1144 2.441 . S
U1126 O1145 2.420 . S
U1126 O1146 2.455 . S
U1126 O1147 2.449 . S
O1127 U1126 2.454 . S
O1127 C1129 1.353 . S
O1128 U1126 2.458 . S
O1128 C1129 1.286 . S
C1129 U1126 2.984 . S
C1129 O1127 1.353 . S
C1129 O1128 1.286 . S
C1129 C1131 1.363 . S
C1130 C1120 1.465 . S
C1130 U1126 2.847 . S
C1130 O1144 1.249 . S
C1130 O1145 1.202 . S
C1131 C1129 1.363 . S
C1131 C1133 1.408 . S
C1131 C1136 1.342 . S
C1132 C1133 1.310 . S
C1132 C1135 1.461 . S
C1132 H1152 0.932 . S
C1133 C1131 1.408 . S
C1133 C1132 1.310 . S
C1133 H1153 0.930 . S
C1134 C1135 1.474 . S
C1134 C1136 1.285 . S
C1134 H1154 0.929 . S
C1135 C1132 1.461 . S
C1135 C1134 1.474 . S
C1136 C1131 1.342 . S
C1136 C1134 1.285 . S
C1136 H1155 0.930 . S
C1137 C1140 1.424 . S
C1137 C1142 1.245 . S
C1137 C1143 1.428 . S
C1138 C1141 1.260 . S
C1138 C1142 1.477 1_554 S
C1138 H1156 0.932 . S
C1139 C1140 1.384 1_554 S
C1139 C1141 1.479 . S
C1139 H1157 0.929 . S
C1140 C1137 1.424 . S
C1140 C1139 1.384 1_556 S
C1140 H1158 0.928 . S
C1141 C1138 1.260 . S
C1141 C1139 1.479 . S
C1142 C1137 1.245 . S
C1142 C1138 1.477 1_556 S
C1142 H1159 0.932 . S
C1143 U1126 2.882 . S
C1143 C1137 1.428 . S
C1143 O1146 1.301 . S
C1143 O1147 1.282 . S
O1144 U1126 2.441 . S
O1144 C1130 1.249 . S
O1145 U1126 2.420 . S
O1145 C1130 1.202 . S
O1146 U1126 2.455 . S
O1146 C1143 1.301 . S
O1147 U1126 2.449 . S
O1147 C1143 1.282 . S
H1148 C1121 0.931 . S
H1149 C1123 0.929 . S
H1150 C1124 0.930 . S
H1151 C1125 0.931 . S
H1152 C1132 0.932 . S
H1153 C1133 0.930 . S
H1154 C1134 0.929 . S
H1155 C1136 0.930 . S
H1156 C1138 0.932 . S
H1157 C1139 0.929 . S
H1158 C1140 0.928 . S
H1159 C1142 0.932 . S
C1160 C1161 1.264 . S
C1160 C1165 1.479 . S
C1160 C1170 1.465 . S
C1161 C1160 1.264 . S
C1161 C1163 1.339 . S
C1161 H1188 0.931 . S
C1162 C1163 1.395 . S
C1162 C1164 1.320 . S
C1163 C1161 1.339 . S
C1163 C1162 1.395 . S
C1163 H1189 0.929 . S
C1164 C1162 1.320 . S
C1164 C1165 1.405 . S
C1164 H1190 0.930 . S
C1165 C1160 1.479 . S
C1165 C1164 1.405 . S
C1165 H1191 0.931 . S
U1166 O1167 2.454 . S
U1166 O1168 2.458 . S
U1166 C1169 2.984 . S
U1166 C1170 2.847 . S
U1166 C1183 2.882 . S
U1166 O1184 2.441 . S
U1166 O1185 2.420 . S
U1166 O1186 2.455 . S
U1166 O1187 2.449 . S
O1167 U1166 2.454 . S
O1167 C1169 1.353 . S
O1168 U1166 2.458 . S
O1168 C1169 1.286 . S
C1169 U1166 2.984 . S
C1169 O1167 1.353 . S
C1169 O1168 1.286 . S
C1169 C1171 1.363 . S
C1170 C1160 1.465 . S
C1170 U1166 2.847 . S
C1170 O1184 1.249 . S
C1170 O1185 1.202 . S
C1171 C1169 1.363 . S
C1171 C1173 1.408 . S
C1171 C1176 1.342 . S
C1172 C1173 1.310 . S
C1172 C1175 1.461 . S
C1172 H1192 0.932 . S
C1173 C1171 1.408 . S
C1173 C1172 1.310 . S
C1173 H1193 0.930 . S
C1174 C1175 1.474 . S
C1174 C1176 1.285 . S
C1174 H1194 0.929 . S
C1175 C1172 1.461 . S
C1175 C1174 1.474 . S
C1176 C1171 1.342 . S
C1176 C1174 1.285 . S
C1176 H1195 0.930 . S
C1177 C1180 1.424 . S
C1177 C1182 1.245 . S
C1177 C1183 1.428 . S
C1178 C1181 1.260 . S
C1178 C1182 1.477 1_554 S
C1178 H1196 0.932 . S
C1179 C1180 1.384 1_554 S
C1179 C1181 1.479 . S
C1179 H1197 0.929 . S
C1180 C1177 1.424 . S
C1180 C1179 1.384 1_556 S
C1180 H1198 0.928 . S
C1181 C1178 1.260 . S
C1181 C1179 1.479 . S
C1182 C1177 1.245 . S
C1182 C1178 1.477 1_556 S
C1182 H1199 0.932 . S
C1183 U1166 2.882 . S
C1183 C1177 1.428 . S
C1183 O1186 1.301 . S
C1183 O1187 1.282 . S
O1184 U1166 2.441 . S
O1184 C1170 1.249 . S
O1185 U1166 2.420 . S
O1185 C1170 1.202 . S
O1186 U1166 2.455 . S
O1186 C1183 1.301 . S
O1187 U1166 2.449 . S
O1187 C1183 1.282 . S
H1188 C1161 0.931 . S
H1189 C1163 0.929 . S
H1190 C1164 0.930 . S
H1191 C1165 0.931 . S
H1192 C1172 0.932 . S
H1193 C1173 0.930 . S
H1194 C1174 0.929 . S
H1195 C1176 0.930 . S
H1196 C1178 0.932 . S
H1197 C1179 0.929 . S
H1198 C1180 0.928 . S
H1199 C1182 0.932 . S
C1200 C1201 1.264 . S
C1200 C1205 1.479 . S
C1200 C1210 1.465 . S
C1201 C1200 1.264 . S
C1201 C1203 1.339 . S
C1201 H1228 0.931 . S
C1202 C1203 1.395 . S
C1202 C1204 1.320 . S
C1203 C1201 1.339 . S
C1203 C1202 1.395 . S
C1203 H1229 0.929 . S
C1204 C1202 1.320 . S
C1204 C1205 1.405 . S
C1204 H1230 0.930 . S
C1205 C1200 1.479 . S
C1205 C1204 1.405 . S
C1205 H1231 0.931 . S
U1206 O1207 2.454 . S
U1206 O1208 2.458 . S
U1206 C1209 2.984 . S
U1206 C1210 2.847 . S
U1206 C1223 2.882 . S
U1206 O1224 2.441 . S
U1206 O1225 2.420 . S
U1206 O1226 2.455 . S
U1206 O1227 2.449 . S
O1207 U1206 2.454 . S
O1207 C1209 1.353 . S
O1208 U1206 2.458 . S
O1208 C1209 1.286 . S
C1209 U1206 2.984 . S
C1209 O1207 1.353 . S
C1209 O1208 1.286 . S
C1209 C1211 1.363 . S
C1210 C1200 1.465 . S
C1210 U1206 2.847 . S
C1210 O1224 1.249 . S
C1210 O1225 1.202 . S
C1211 C1209 1.363 . S
C1211 C1213 1.408 . S
C1211 C1216 1.342 . S
C1212 C1213 1.310 . S
C1212 C1215 1.461 . S
C1212 H1232 0.932 . S
C1213 C1211 1.408 . S
C1213 C1212 1.310 . S
C1213 H1233 0.930 . S
C1214 C1215 1.474 . S
C1214 C1216 1.285 . S
C1214 H1234 0.929 . S
C1215 C1212 1.461 . S
C1215 C1214 1.474 . S
C1216 C1211 1.342 . S
C1216 C1214 1.285 . S
C1216 H1235 0.930 . S
C1217 C1220 1.424 . S
C1217 C1222 1.245 . S
C1217 C1223 1.428 . S
C1218 C1221 1.260 . S
C1218 C1222 1.477 . S
C1218 H1236 0.932 . S
C1219 C1220 1.384 . S
C1219 C1221 1.479 . S
C1219 H1237 0.929 . S
C1220 C1217 1.424 . S
C1220 C1219 1.384 . S
C1220 H1238 0.928 . S
C1221 C1218 1.260 . S
C1221 C1219 1.479 . S
C1222 C1217 1.245 . S
C1222 C1218 1.477 . S
C1222 H1239 0.932 . S
C1223 U1206 2.882 . S
C1223 C1217 1.428 . S
C1223 O1226 1.301 . S
C1223 O1227 1.282 . S
O1224 U1206 2.441 . S
O1224 C1210 1.249 . S
O1225 U1206 2.420 . S
O1225 C1210 1.202 . S
O1226 U1206 2.455 . S
O1226 C1223 1.301 . S
O1227 U1206 2.449 . S
O1227 C1223 1.282 . S
H1228 C1201 0.931 . S
H1229 C1203 0.929 . S
H1230 C1204 0.930 . S
H1231 C1205 0.931 . S
H1232 C1212 0.932 . S
H1233 C1213 0.930 . S
H1234 C1214 0.929 . S
H1235 C1216 0.930 . S
H1236 C1218 0.932 . S
H1237 C1219 0.929 . S
H1238 C1220 0.928 . S
H1239 C1222 0.932 . S
C1240 C1241 1.264 . S
C1240 C1245 1.479 . S
C1240 C1250 1.465 . S
C1241 C1240 1.264 . S
C1241 C1243 1.339 . S
C1241 H1268 0.931 . S
C1242 C1243 1.395 . S
C1242 C1244 1.320 . S
C1243 C1241 1.339 . S
C1243 C1242 1.395 . S
C1243 H1269 0.929 . S
C1244 C1242 1.320 . S
C1244 C1245 1.405 . S
C1244 H1270 0.930 . S
C1245 C1240 1.479 . S
C1245 C1244 1.405 . S
C1245 H1271 0.931 . S
U1246 O1247 2.454 . S
U1246 O1248 2.458 . S
U1246 C1249 2.984 . S
U1246 C1250 2.847 . S
U1246 C1263 2.882 . S
U1246 O1264 2.441 . S
U1246 O1265 2.420 . S
U1246 O1266 2.455 . S
U1246 O1267 2.449 . S
O1247 U1246 2.454 . S
O1247 C1249 1.353 . S
O1248 U1246 2.458 . S
O1248 C1249 1.286 . S
C1249 U1246 2.984 . S
C1249 O1247 1.353 . S
C1249 O1248 1.286 . S
C1249 C1251 1.363 . S
C1250 C1240 1.465 . S
C1250 U1246 2.847 . S
C1250 O1264 1.249 . S
C1250 O1265 1.202 . S
C1251 C1249 1.363 . S
C1251 C1253 1.408 . S
C1251 C1256 1.342 . S
C1252 C1253 1.310 . S
C1252 C1255 1.461 . S
C1252 H1272 0.932 . S
C1253 C1251 1.408 . S
C1253 C1252 1.310 . S
C1253 H1273 0.930 . S
C1254 C1255 1.474 . S
C1254 C1256 1.285 . S
C1254 H1274 0.929 . S
C1255 C1252 1.461 . S
C1255 C1254 1.474 . S
C1256 C1251 1.342 . S
C1256 C1254 1.285 . S
C1256 H1275 0.930 . S
C1257 C1260 1.424 . S
C1257 C1262 1.245 . S
C1257 C1263 1.428 . S
C1258 C1261 1.260 . S
C1258 C1262 1.477 . S
C1258 H1276 0.932 . S
C1259 C1260 1.384 . S
C1259 C1261 1.479 . S
C1259 H1277 0.929 . S
C1260 C1257 1.424 . S
C1260 C1259 1.384 . S
C1260 H1278 0.928 . S
C1261 C1258 1.260 . S
C1261 C1259 1.479 . S
C1262 C1257 1.245 . S
C1262 C1258 1.477 . S
C1262 H1279 0.932 . S
C1263 U1246 2.882 . S
C1263 C1257 1.428 . S
C1263 O1266 1.301 . S
C1263 O1267 1.282 . S
O1264 U1246 2.441 . S
O1264 C1250 1.249 . S
O1265 U1246 2.420 . S
O1265 C1250 1.202 . S
O1266 U1246 2.455 . S
O1266 C1263 1.301 . S
O1267 U1246 2.449 . S
O1267 C1263 1.282 . S
H1268 C1241 0.931 . S
H1269 C1243 0.929 . S
H1270 C1244 0.930 . S
H1271 C1245 0.931 . S
H1272 C1252 0.932 . S
H1273 C1253 0.930 . S
H1274 C1254 0.929 . S
H1275 C1256 0.930 . S
H1276 C1258 0.932 . S
H1277 C1259 0.929 . S
H1278 C1260 0.928 . S
H1279 C1262 0.932 . S
C1280 C1281 1.264 . S
C1280 C1285 1.479 . S
C1280 C1290 1.465 . S
C1281 C1280 1.264 . S
C1281 C1283 1.339 . S
C1281 H1308 0.931 . S
C1282 C1283 1.395 . S
C1282 C1284 1.320 . S
C1283 C1281 1.339 . S
C1283 C1282 1.395 . S
C1283 H1309 0.929 . S
C1284 C1282 1.320 . S
C1284 C1285 1.405 . S
C1284 H1310 0.930 . S
C1285 C1280 1.479 . S
C1285 C1284 1.405 . S
C1285 H1311 0.931 . S
U1286 O1287 2.454 . S
U1286 O1288 2.458 . S
U1286 C1289 2.984 . S
U1286 C1290 2.847 . S
U1286 C1303 2.882 . S
U1286 O1304 2.441 . S
U1286 O1305 2.420 . S
U1286 O1306 2.455 . S
U1286 O1307 2.449 . S
O1287 U1286 2.454 . S
O1287 C1289 1.353 . S
O1288 U1286 2.458 . S
O1288 C1289 1.286 . S
C1289 U1286 2.984 . S
C1289 O1287 1.353 . S
C1289 O1288 1.286 . S
C1289 C1291 1.363 . S
C1290 C1280 1.465 . S
C1290 U1286 2.847 . S
C1290 O1304 1.249 . S
C1290 O1305 1.202 . S
C1291 C1289 1.363 . S
C1291 C1293 1.408 . S
C1291 C1296 1.342 . S
C1292 C1293 1.310 . S
C1292 C1295 1.461 . S
C1292 H1312 0.932 . S
C1293 C1291 1.408 . S
C1293 C1292 1.310 . S
C1293 H1313 0.930 . S
C1294 C1295 1.474 . S
C1294 C1296 1.285 . S
C1294 H1314 0.929 . S
C1295 C1292 1.461 . S
C1295 C1294 1.474 . S
C1296 C1291 1.342 . S
C1296 C1294 1.285 . S
C1296 H1315 0.930 . S
C1297 C1300 1.424 . S
C1297 C1302 1.245 . S
C1297 C1303 1.428 . S
C1298 C1301 1.260 . S
C1298 C1302 1.477 . S
C1298 H1316 0.932 . S
C1299 C1300 1.384 . S
C1299 C1301 1.479 . S
C1299 H1317 0.929 . S
C1300 C1297 1.424 . S
C1300 C1299 1.384 . S
C1300 H1318 0.928 . S
C1301 C1298 1.260 . S
C1301 C1299 1.479 . S
C1302 C1297 1.245 . S
C1302 C1298 1.477 . S
C1302 H1319 0.932 . S
C1303 U1286 2.882 . S
C1303 C1297 1.428 . S
C1303 O1306 1.301 . S
C1303 O1307 1.282 . S
O1304 U1286 2.441 . S
O1304 C1290 1.249 . S
O1305 U1286 2.420 . S
O1305 C1290 1.202 . S
O1306 U1286 2.455 . S
O1306 C1303 1.301 . S
O1307 U1286 2.449 . S
O1307 C1303 1.282 . S
H1308 C1281 0.931 . S
H1309 C1283 0.929 . S
H1310 C1284 0.930 . S
H1311 C1285 0.931 . S
H1312 C1292 0.932 . S
H1313 C1293 0.930 . S
H1314 C1294 0.929 . S
H1315 C1296 0.930 . S
H1316 C1298 0.932 . S
H1317 C1299 0.929 . S
H1318 C1300 0.928 . S
H1319 C1302 0.932 . S
C1320 C1321 1.264 . S
C1320 C1325 1.479 . S
C1320 C1330 1.465 . S
C1321 C1320 1.264 . S
C1321 C1323 1.339 . S
C1321 H1348 0.931 . S
C1322 C1323 1.395 . S
C1322 C1324 1.320 . S
C1323 C1321 1.339 . S
C1323 C1322 1.395 . S
C1323 H1349 0.929 . S
C1324 C1322 1.320 . S
C1324 C1325 1.405 . S
C1324 H1350 0.930 . S
C1325 C1320 1.479 . S
C1325 C1324 1.405 . S
C1325 H1351 0.931 . S
U1326 O1327 2.454 . S
U1326 O1328 2.458 . S
U1326 C1329 2.984 . S
U1326 C1330 2.847 . S
U1326 C1343 2.882 . S
U1326 O1344 2.441 . S
U1326 O1345 2.420 . S
U1326 O1346 2.455 . S
U1326 O1347 2.449 . S
O1327 U1326 2.454 . S
O1327 C1329 1.353 . S
O1328 U1326 2.458 . S
O1328 C1329 1.286 . S
C1329 U1326 2.984 . S
C1329 O1327 1.353 . S
C1329 O1328 1.286 . S
C1329 C1331 1.363 . S
C1330 C1320 1.465 . S
C1330 U1326 2.847 . S
C1330 O1344 1.249 . S
C1330 O1345 1.202 . S
C1331 C1329 1.363 . S
C1331 C1333 1.408 . S
C1331 C1336 1.342 . S
C1332 C1333 1.310 . S
C1332 C1335 1.461 . S
C1332 H1352 0.932 . S
C1333 C1331 1.408 . S
C1333 C1332 1.310 . S
C1333 H1353 0.930 . S
C1334 C1335 1.474 . S
C1334 C1336 1.285 . S
C1334 H1354 0.929 . S
C1335 C1332 1.461 . S
C1335 C1334 1.474 . S
C1336 C1331 1.342 . S
C1336 C1334 1.285 . S
C1336 H1355 0.930 . S
C1337 C1340 1.424 . S
C1337 C1342 1.245 . S
C1337 C1343 1.428 . S
C1338 C1341 1.260 . S
C1338 C1342 1.477 . S
C1338 H1356 0.932 . S
C1339 C1340 1.384 . S
C1339 C1341 1.479 . S
C1339 H1357 0.929 . S
C1340 C1337 1.424 . S
C1340 C1339 1.384 . S
C1340 H1358 0.928 . S
C1341 C1338 1.260 . S
C1341 C1339 1.479 . S
C1342 C1337 1.245 . S
C1342 C1338 1.477 . S
C1342 H1359 0.932 . S
C1343 U1326 2.882 . S
C1343 C1337 1.428 . S
C1343 O1346 1.301 . S
C1343 O1347 1.282 . S
O1344 U1326 2.441 . S
O1344 C1330 1.249 . S
O1345 U1326 2.420 . S
O1345 C1330 1.202 . S
O1346 U1326 2.455 . S
O1346 C1343 1.301 . S
O1347 U1326 2.449 . S
O1347 C1343 1.282 . S
H1348 C1321 0.931 . S
H1349 C1323 0.929 . S
H1350 C1324 0.930 . S
H1351 C1325 0.931 . S
H1352 C1332 0.932 . S
H1353 C1333 0.930 . S
H1354 C1334 0.929 . S
H1355 C1336 0.930 . S
H1356 C1338 0.932 . S
H1357 C1339 0.929 . S
H1358 C1340 0.928 . S
H1359 C1342 0.932 . S
C1360 C1361 1.264 . S
C1360 C1365 1.479 . S
C1360 C1370 1.465 . S
C1361 C1360 1.264 . S
C1361 C1363 1.339 . S
C1361 H1388 0.931 . S
C1362 C1363 1.395 . S
C1362 C1364 1.320 . S
C1363 C1361 1.339 . S
C1363 C1362 1.395 . S
C1363 H1389 0.929 . S
C1364 C1362 1.320 . S
C1364 C1365 1.405 . S
C1364 H1390 0.930 . S
C1365 C1360 1.479 . S
C1365 C1364 1.405 . S
C1365 H1391 0.931 . S
U1366 O1367 2.454 . S
U1366 O1368 2.458 . S
U1366 C1369 2.984 . S
U1366 C1370 2.847 . S
U1366 C1383 2.882 . S
U1366 O1384 2.441 . S
U1366 O1385 2.420 . S
U1366 O1386 2.455 . S
U1366 O1387 2.449 . S
O1367 U1366 2.454 . S
O1367 C1369 1.353 . S
O1368 U1366 2.458 . S
O1368 C1369 1.286 . S
C1369 U1366 2.984 . S
C1369 O1367 1.353 . S
C1369 O1368 1.286 . S
C1369 C1371 1.363 . S
C1370 C1360 1.465 . S
C1370 U1366 2.847 . S
C1370 O1384 1.249 . S
C1370 O1385 1.202 . S
C1371 C1369 1.363 . S
C1371 C1373 1.408 . S
C1371 C1376 1.342 . S
C1372 C1373 1.310 . S
C1372 C1375 1.461 . S
C1372 H1392 0.932 . S
C1373 C1371 1.408 . S
C1373 C1372 1.310 . S
C1373 H1393 0.930 . S
C1374 C1375 1.474 . S
C1374 C1376 1.285 . S
C1374 H1394 0.929 . S
C1375 C1372 1.461 . S
C1375 C1374 1.474 . S
C1376 C1371 1.342 . S
C1376 C1374 1.285 . S
C1376 H1395 0.930 . S
C1377 C1380 1.424 . S
C1377 C1382 1.245 . S
C1377 C1383 1.428 . S
C1378 C1381 1.260 . S
C1378 C1382 1.477 . S
C1378 H1396 0.932 . S
C1379 C1380 1.384 . S
C1379 C1381 1.479 . S
C1379 H1397 0.929 . S
C1380 C1377 1.424 . S
C1380 C1379 1.384 . S
C1380 H1398 0.928 . S
C1381 C1378 1.260 . S
C1381 C1379 1.479 . S
C1382 C1377 1.245 . S
C1382 C1378 1.477 . S
C1382 H1399 0.932 . S
C1383 U1366 2.882 . S
C1383 C1377 1.428 . S
C1383 O1386 1.301 . S
C1383 O1387 1.282 . S
O1384 U1366 2.441 . S
O1384 C1370 1.249 . S
O1385 U1366 2.420 . S
O1385 C1370 1.202 . S
O1386 U1366 2.455 . S
O1386 C1383 1.301 . S
O1387 U1366 2.449 . S
O1387 C1383 1.282 . S
H1388 C1361 0.931 . S
H1389 C1363 0.929 . S
H1390 C1364 0.930 . S
H1391 C1365 0.931 . S
H1392 C1372 0.932 . S
H1393 C1373 0.930 . S
H1394 C1374 0.929 . S
H1395 C1376 0.930 . S
H1396 C1378 0.932 . S
H1397 C1379 0.929 . S
H1398 C1380 0.928 . S
H1399 C1382 0.932 . S
C1400 C1401 1.264 . S
C1400 C1405 1.479 . S
C1400 C1410 1.465 . S
C1401 C1400 1.264 . S
C1401 C1403 1.339 . S
C1401 H1428 0.931 . S
C1402 C1403 1.395 . S
C1402 C1404 1.320 . S
C1403 C1401 1.339 . S
C1403 C1402 1.395 . S
C1403 H1429 0.929 . S
C1404 C1402 1.320 . S
C1404 C1405 1.405 . S
C1404 H1430 0.930 . S
C1405 C1400 1.479 . S
C1405 C1404 1.405 . S
C1405 H1431 0.931 . S
U1406 O1407 2.454 . S
U1406 O1408 2.458 . S
U1406 C1409 2.984 . S
U1406 C1410 2.847 . S
U1406 C1423 2.882 . S
U1406 O1424 2.441 . S
U1406 O1425 2.420 . S
U1406 O1426 2.455 . S
U1406 O1427 2.449 . S
O1407 U1406 2.454 . S
O1407 C1409 1.353 . S
O1408 U1406 2.458 . S
O1408 C1409 1.286 . S
C1409 U1406 2.984 . S
C1409 O1407 1.353 . S
C1409 O1408 1.286 . S
C1409 C1411 1.363 . S
C1410 C1400 1.465 . S
C1410 U1406 2.847 . S
C1410 O1424 1.249 . S
C1410 O1425 1.202 . S
C1411 C1409 1.363 . S
C1411 C1413 1.408 . S
C1411 C1416 1.342 . S
C1412 C1413 1.310 . S
C1412 C1415 1.461 . S
C1412 H1432 0.932 . S
C1413 C1411 1.408 . S
C1413 C1412 1.310 . S
C1413 H1433 0.930 . S
C1414 C1415 1.474 . S
C1414 C1416 1.285 . S
C1414 H1434 0.929 . S
C1415 C1412 1.461 . S
C1415 C1414 1.474 . S
C1416 C1411 1.342 . S
C1416 C1414 1.285 . S
C1416 H1435 0.930 . S
C1417 C1420 1.424 . S
C1417 C1422 1.245 . S
C1417 C1423 1.428 . S
C1418 C1421 1.260 . S
C1418 C1422 1.477 . S
C1418 H1436 0.932 . S
C1419 C1420 1.384 . S
C1419 C1421 1.479 . S
C1419 H1437 0.929 . S
C1420 C1417 1.424 . S
C1420 C1419 1.384 . S
C1420 H1438 0.928 . S
C1421 C1418 1.260 . S
C1421 C1419 1.479 . S
C1422 C1417 1.245 . S
C1422 C1418 1.477 . S
C1422 H1439 0.932 . S
C1423 U1406 2.882 . S
C1423 C1417 1.428 . S
C1423 O1426 1.301 . S
C1423 O1427 1.282 . S
O1424 U1406 2.441 . S
O1424 C1410 1.249 . S
O1425 U1406 2.420 . S
O1425 C1410 1.202 . S
O1426 U1406 2.455 . S
O1426 C1423 1.301 . S
O1427 U1406 2.449 . S
O1427 C1423 1.282 . S
H1428 C1401 0.931 . S
H1429 C1403 0.929 . S
H1430 C1404 0.930 . S
H1431 C1405 0.931 . S
H1432 C1412 0.932 . S
H1433 C1413 0.930 . S
H1434 C1414 0.929 . S
H1435 C1416 0.930 . S
H1436 C1418 0.932 . S
H1437 C1419 0.929 . S
H1438 C1420 0.928 . S
H1439 C1422 0.932 . S
H1440 C1458 0.951 . S
H1441 C1460 0.951 . S
H1442 C1462 0.950 . S
H1443 C1463 0.950 . S
H1444 C1465 0.950 . S
H1445 C1468 0.950 . S
H1446 C1469 0.950 . S
H1447 C1471 0.950 . S
H1448 C1472 0.950 . S
H1449 C1473 0.951 . S
H1450 C1475 0.951 . S
H1451 C1477 0.950 . S
H1452 C1478 0.950 . S
H1453 C1480 0.950 . S
H1454 C1483 0.950 . S
H1455 C1484 0.950 . S
H1456 C1486 0.950 . S
H1457 C1487 0.950 . S
C1458 H1440 0.951 . S
C1458 C1459 1.366 . S
C1458 C1460 1.388 . S
C1459 C1458 1.366 . S
C1459 C1463 1.385 . S
C1460 H1441 0.951 . S
C1460 C1458 1.388 . S
C1460 C1461 1.366 . S
C1461 C1460 1.366 . S
C1461 C1462 1.414 . S
C1461 C1464 1.499 . S
C1462 H1442 0.950 . S
C1462 C1461 1.414 . S
C1462 C1463 1.374 . S
C1463 H1443 0.950 . S
C1463 C1459 1.385 . S
C1463 C1462 1.374 . S
C1464 C1461 1.499 . S
C1464 C1465 1.373 . S
C1464 C1466 1.389 . S
C1465 H1444 0.950 . S
C1465 C1464 1.373 . S
C1465 C1481 1.377 . S
C1466 C1464 1.389 . S
C1466 C1467 1.524 . S
C1466 C1480 1.377 . S
C1467 C1466 1.524 . S
C1467 C1468 1.397 . S
C1467 C1472 1.363 . S
C1468 H1445 0.950 . S
C1468 C1467 1.397 . S
C1468 C1469 1.334 . S
C1469 H1446 0.950 . S
C1469 C1468 1.334 . S
C1469 C1470 1.287 . S
C1470 C1469 1.287 . S
C1470 C1471 1.524 . S
C1470 H1489 0.913 . S
C1471 H1447 0.950 . S
C1471 C1470 1.524 . S
C1471 C1472 1.415 . S
C1472 H1448 0.950 . S
C1472 C1467 1.363 . S
C1472 C1471 1.415 . S
C1473 H1449 0.951 . S
C1473 C1474 1.366 . S
C1473 C1475 1.388 . S
C1474 C1473 1.366 . S
C1474 C1478 1.385 . S
C1475 H1450 0.951 . S
C1475 C1473 1.388 . S
C1475 C1476 1.366 . S
C1476 C1475 1.366 . S
C1476 C1477 1.414 . S
C1476 C1479 1.499 . S
C1477 H1451 0.950 . S
C1477 C1476 1.414 . S
C1477 C1478 1.374 . S
C1478 H1452 0.950 . S
C1478 C1474 1.385 . S
C1478 C1477 1.374 . S
C1479 C1476 1.499 . S
C1479 C1480 1.373 . S
C1479 C1481 1.389 . S
C1480 H1453 0.950 . S
C1480 C1466 1.377 . S
C1480 C1479 1.373 . S
C1481 C1465 1.377 . S
C1481 C1479 1.389 . S
C1481 C1482 1.524 . S
C1482 C1481 1.524 . S
C1482 C1483 1.397 . S
C1482 C1487 1.363 . S
C1483 H1454 0.950 . S
C1483 C1482 1.397 . S
C1483 C1484 1.334 . S
C1484 H1455 0.950 . S
C1484 C1483 1.334 . S
C1484 C1485 1.287 . S
C1485 C1484 1.287 . S
C1485 C1486 1.524 . S
C1485 H1488 0.999 . S
C1486 H1456 0.950 . S
C1486 C1485 1.524 . S
C1486 C1487 1.415 . S
C1487 H1457 0.950 . S
C1487 C1482 1.363 . S
C1487 C1486 1.415 . S
H1488 C1485 0.999 . S
H1489 C1470 0.913 . S
H1490 C1508 0.951 . S
H1491 C1510 0.951 . S
H1492 C1512 0.950 . S
H1493 C1513 0.950 . S
H1494 C1515 0.950 . S
H1495 C1518 0.950 . S
H1496 C1519 0.950 . S
H1497 C1521 0.950 . S
H1498 C1522 0.950 . S
H1499 C1523 0.951 . S
H1500 C1525 0.951 . S
H1501 C1527 0.950 . S
H1502 C1528 0.950 . S
H1503 C1530 0.950 . S
H1504 C1533 0.950 . S
H1505 C1534 0.950 . S
H1506 C1536 0.950 . S
H1507 C1537 0.950 . S
C1508 H1490 0.951 . S
C1508 C1509 1.366 . S
C1508 C1510 1.388 . S
C1509 C1508 1.366 . S
C1509 C1513 1.385 . S
C1510 H1491 0.951 . S
C1510 C1508 1.388 . S
C1510 C1511 1.366 . S
C1511 C1510 1.366 . S
C1511 C1512 1.414 . S
C1511 C1514 1.499 . S
C1512 H1492 0.950 . S
C1512 C1511 1.414 . S
C1512 C1513 1.374 . S
C1513 H1493 0.950 . S
C1513 C1509 1.385 . S
C1513 C1512 1.374 . S
C1514 C1511 1.499 . S
C1514 C1515 1.373 . S
C1514 C1516 1.389 . S
C1515 H1494 0.950 . S
C1515 C1514 1.373 . S
C1515 C1531 1.377 . S
C1516 C1514 1.389 . S
C1516 C1517 1.524 . S
C1516 C1530 1.377 . S
C1517 C1516 1.524 . S
C1517 C1518 1.397 . S
C1517 C1522 1.363 . S
C1518 H1495 0.950 . S
C1518 C1517 1.397 . S
C1518 C1519 1.334 . S
C1519 H1496 0.950 . S
C1519 C1518 1.334 . S
C1519 C1520 1.287 . S
C1520 C1519 1.287 . S
C1520 C1521 1.524 . S
C1520 H1539 0.913 . S
C1521 H1497 0.950 . S
C1521 C1520 1.524 . S
C1521 C1522 1.415 . S
C1522 H1498 0.950 . S
C1522 C1517 1.363 . S
C1522 C1521 1.415 . S
C1523 H1499 0.951 . S
C1523 C1524 1.366 . S
C1523 C1525 1.388 . S
C1524 C1523 1.366 . S
C1524 C1528 1.385 . S
C1525 H1500 0.951 . S
C1525 C1523 1.388 . S
C1525 C1526 1.366 . S
C1526 C1525 1.366 . S
C1526 C1527 1.414 . S
C1526 C1529 1.499 . S
C1527 H1501 0.950 . S
C1527 C1526 1.414 . S
C1527 C1528 1.374 . S
C1528 H1502 0.950 . S
C1528 C1524 1.385 . S
C1528 C1527 1.374 . S
C1529 C1526 1.499 . S
C1529 C1530 1.373 . S
C1529 C1531 1.389 . S
C1530 H1503 0.950 . S
C1530 C1516 1.377 . S
C1530 C1529 1.373 . S
C1531 C1515 1.377 . S
C1531 C1529 1.389 . S
C1531 C1532 1.524 . S
C1532 C1531 1.524 . S
C1532 C1533 1.397 . S
C1532 C1537 1.363 . S
C1533 H1504 0.950 . S
C1533 C1532 1.397 . S
C1533 C1534 1.334 . S
C1534 H1505 0.950 . S
C1534 C1533 1.334 . S
C1534 C1535 1.287 . S
C1535 C1534 1.287 . S
C1535 C1536 1.524 . S
C1535 H1538 0.999 . S
C1536 H1506 0.950 . S
C1536 C1535 1.524 . S
C1536 C1537 1.415 . S
C1537 H1507 0.950 . S
C1537 C1532 1.363 . S
C1537 C1536 1.415 . S
H1538 C1535 0.999 . S
H1539 C1520 0.913 . S
H1540 C1558 0.951 . S
H1541 C1560 0.951 . S
H1542 C1562 0.950 . S
H1543 C1563 0.950 . S
H1544 C1565 0.950 . S
H1545 C1568 0.950 . S
H1546 C1569 0.950 . S
H1547 C1571 0.950 . S
H1548 C1572 0.950 . S
H1549 C1573 0.951 . S
H1550 C1575 0.951 . S
H1551 C1577 0.950 . S
H1552 C1578 0.950 . S
H1553 C1580 0.950 . S
H1554 C1583 0.950 . S
H1555 C1584 0.950 . S
H1556 C1586 0.950 . S
H1557 C1587 0.950 . S
C1558 H1540 0.951 . S
C1558 C1559 1.366 . S
C1558 C1560 1.388 . S
C1559 C1558 1.366 . S
C1559 C1563 1.385 . S
C1560 H1541 0.951 . S
C1560 C1558 1.388 . S
C1560 C1561 1.366 . S
C1561 C1560 1.366 . S
C1561 C1562 1.414 . S
C1561 C1564 1.499 . S
C1562 H1542 0.950 . S
C1562 C1561 1.414 . S
C1562 C1563 1.374 . S
C1563 H1543 0.950 . S
C1563 C1559 1.385 . S
C1563 C1562 1.374 . S
C1564 C1561 1.499 . S
C1564 C1565 1.373 . S
C1564 C1566 1.389 . S
C1565 H1544 0.950 . S
C1565 C1564 1.373 . S
C1565 C1581 1.377 . S
C1566 C1564 1.389 . S
C1566 C1567 1.524 . S
C1566 C1580 1.377 . S
C1567 C1566 1.524 . S
C1567 C1568 1.397 . S
C1567 C1572 1.363 . S
C1568 H1545 0.950 . S
C1568 C1567 1.397 . S
C1568 C1569 1.334 . S
C1569 H1546 0.950 . S
C1569 C1568 1.334 . S
C1569 C1570 1.287 . S
C1570 C1569 1.287 . S
C1570 C1571 1.524 . S
C1570 H1589 0.913 . S
C1571 H1547 0.950 . S
C1571 C1570 1.524 . S
C1571 C1572 1.415 . S
C1572 H1548 0.950 . S
C1572 C1567 1.363 . S
C1572 C1571 1.415 . S
C1573 H1549 0.951 . S
C1573 C1574 1.366 . S
C1573 C1575 1.388 . S
C1574 C1573 1.366 . S
C1574 C1578 1.385 . S
C1575 H1550 0.951 . S
C1575 C1573 1.388 . S
C1575 C1576 1.366 . S
C1576 C1575 1.366 . S
C1576 C1577 1.414 . S
C1576 C1579 1.499 . S
C1577 H1551 0.950 . S
C1577 C1576 1.414 . S
C1577 C1578 1.374 . S
C1578 H1552 0.950 . S
C1578 C1574 1.385 . S
C1578 C1577 1.374 . S
C1579 C1576 1.499 . S
C1579 C1580 1.373 . S
C1579 C1581 1.389 . S
C1580 H1553 0.950 . S
C1580 C1566 1.377 . S
C1580 C1579 1.373 . S
C1581 C1565 1.377 . S
C1581 C1579 1.389 . S
C1581 C1582 1.524 . S
C1582 C1581 1.524 . S
C1582 C1583 1.397 . S
C1582 C1587 1.363 . S
C1583 H1554 0.950 . S
C1583 C1582 1.397 . S
C1583 C1584 1.334 . S
C1584 H1555 0.950 . S
C1584 C1583 1.334 . S
C1584 C1585 1.287 . S
C1585 C1584 1.287 . S
C1585 C1586 1.524 . S
C1585 H1588 0.999 . S
C1586 H1556 0.950 . S
C1586 C1585 1.524 . S
C1586 C1587 1.415 . S
C1587 H1557 0.950 . S
C1587 C1582 1.363 . S
C1587 C1586 1.415 . S
H1588 C1585 0.999 . S
H1589 C1570 0.913 . S
H1590 C1608 0.951 . S
H1591 C1610 0.951 . S
H1592 C1612 0.950 . S
H1593 C1613 0.950 . S
H1594 C1615 0.950 . S
H1595 C1618 0.950 . S
H1596 C1619 0.950 . S
H1597 C1621 0.950 . S
H1598 C1622 0.950 . S
H1599 C1623 0.951 . S
H1600 C1625 0.951 . S
H1601 C1627 0.950 . S
H1602 C1628 0.950 . S
H1603 C1630 0.950 . S
H1604 C1633 0.950 . S
H1605 C1634 0.950 . S
H1606 C1636 0.950 . S
H1607 C1637 0.950 . S
C1608 H1590 0.951 . S
C1608 C1609 1.366 . S
C1608 C1610 1.388 . S
C1609 C1608 1.366 . S
C1609 C1613 1.385 . S
C1610 H1591 0.951 . S
C1610 C1608 1.388 . S
C1610 C1611 1.366 . S
C1611 C1610 1.366 . S
C1611 C1612 1.414 . S
C1611 C1614 1.499 . S
C1612 H1592 0.950 . S
C1612 C1611 1.414 . S
C1612 C1613 1.374 . S
C1613 H1593 0.950 . S
C1613 C1609 1.385 . S
C1613 C1612 1.374 . S
C1614 C1611 1.499 . S
C1614 C1615 1.373 . S
C1614 C1616 1.389 . S
C1615 H1594 0.950 . S
C1615 C1614 1.373 . S
C1615 C1631 1.377 . S
C1616 C1614 1.389 . S
C1616 C1617 1.524 . S
C1616 C1630 1.377 . S
C1617 C1616 1.524 . S
C1617 C1618 1.397 . S
C1617 C1622 1.363 . S
C1618 H1595 0.950 . S
C1618 C1617 1.397 . S
C1618 C1619 1.334 . S
C1619 H1596 0.950 . S
C1619 C1618 1.334 . S
C1619 C1620 1.287 . S
C1620 C1619 1.287 . S
C1620 C1621 1.524 . S
C1620 H1639 0.913 . S
C1621 H1597 0.950 . S
C1621 C1620 1.524 . S
C1621 C1622 1.415 . S
C1622 H1598 0.950 . S
C1622 C1617 1.363 . S
C1622 C1621 1.415 . S
C1623 H1599 0.951 . S
C1623 C1624 1.366 . S
C1623 C1625 1.388 . S
C1624 C1623 1.366 . S
C1624 C1628 1.385 . S
C1625 H1600 0.951 . S
C1625 C1623 1.388 . S
C1625 C1626 1.366 . S
C1626 C1625 1.366 . S
C1626 C1627 1.414 . S
C1626 C1629 1.499 . S
C1627 H1601 0.950 . S
C1627 C1626 1.414 . S
C1627 C1628 1.374 . S
C1628 H1602 0.950 . S
C1628 C1624 1.385 . S
C1628 C1627 1.374 . S
C1629 C1626 1.499 . S
C1629 C1630 1.373 . S
C1629 C1631 1.389 . S
C1630 H1603 0.950 . S
C1630 C1616 1.377 . S
C1630 C1629 1.373 . S
C1631 C1615 1.377 . S
C1631 C1629 1.389 . S
C1631 C1632 1.524 . S
C1632 C1631 1.524 . S
C1632 C1633 1.397 . S
C1632 C1637 1.363 . S
C1633 H1604 0.950 . S
C1633 C1632 1.397 . S
C1633 C1634 1.334 . S
C1634 H1605 0.950 . S
C1634 C1633 1.334 . S
C1634 C1635 1.287 . S
C1635 C1634 1.287 . S
C1635 C1636 1.524 . S
C1635 H1638 0.999 . S
C1636 H1606 0.950 . S
C1636 C1635 1.524 . S
C1636 C1637 1.415 . S
C1637 H1607 0.950 . S
C1637 C1632 1.363 . S
C1637 C1636 1.415 . S
H1638 C1635 0.999 . S
H1639 C1620 0.913 . S
H1640 C1658 0.951 . S
H1641 C1660 0.951 . S
H1642 C1662 0.950 . S
H1643 C1663 0.950 . S
H1644 C1665 0.950 . S
H1645 C1668 0.950 . S
H1646 C1669 0.950 . S
H1647 C1671 0.950 . S
H1648 C1672 0.950 . S
H1649 C1673 0.951 . S
H1650 C1675 0.951 . S
H1651 C1677 0.950 . S
H1652 C1678 0.950 . S
H1653 C1680 0.950 . S
H1654 C1683 0.950 . S
H1655 C1684 0.950 . S
H1656 C1686 0.950 . S
H1657 C1687 0.950 . S
C1658 H1640 0.951 . S
C1658 C1659 1.366 . S
C1658 C1660 1.388 . S
C1659 C1658 1.366 . S
C1659 C1663 1.385 . S
C1660 H1641 0.951 . S
C1660 C1658 1.388 . S
C1660 C1661 1.366 . S
C1661 C1660 1.366 . S
C1661 C1662 1.414 . S
C1661 C1664 1.499 . S
C1662 H1642 0.950 . S
C1662 C1661 1.414 . S
C1662 C1663 1.374 . S
C1663 H1643 0.950 . S
C1663 C1659 1.385 . S
C1663 C1662 1.374 . S
C1664 C1661 1.499 . S
C1664 C1665 1.373 . S
C1664 C1666 1.389 . S
C1665 H1644 0.950 . S
C1665 C1664 1.373 . S
C1665 C1681 1.377 . S
C1666 C1664 1.389 . S
C1666 C1667 1.524 . S
C1666 C1680 1.377 . S
C1667 C1666 1.524 . S
C1667 C1668 1.397 . S
C1667 C1672 1.363 . S
C1668 H1645 0.950 . S
C1668 C1667 1.397 . S
C1668 C1669 1.334 . S
C1669 H1646 0.950 . S
C1669 C1668 1.334 . S
C1669 C1670 1.287 . S
C1670 C1669 1.287 . S
C1670 C1671 1.524 . S
C1670 H1689 0.913 . S
C1671 H1647 0.950 . S
C1671 C1670 1.524 . S
C1671 C1672 1.415 . S
C1672 H1648 0.950 . S
C1672 C1667 1.363 . S
C1672 C1671 1.415 . S
C1673 H1649 0.951 . S
C1673 C1674 1.366 . S
C1673 C1675 1.388 . S
C1674 C1673 1.366 . S
C1674 C1678 1.385 . S
C1675 H1650 0.951 . S
C1675 C1673 1.388 . S
C1675 C1676 1.366 . S
C1676 C1675 1.366 . S
C1676 C1677 1.414 . S
C1676 C1679 1.499 . S
C1677 H1651 0.950 . S
C1677 C1676 1.414 . S
C1677 C1678 1.374 . S
C1678 H1652 0.950 . S
C1678 C1674 1.385 . S
C1678 C1677 1.374 . S
C1679 C1676 1.499 . S
C1679 C1680 1.373 . S
C1679 C1681 1.389 . S
C1680 H1653 0.950 . S
C1680 C1666 1.377 . S
C1680 C1679 1.373 . S
C1681 C1665 1.377 . S
C1681 C1679 1.389 . S
C1681 C1682 1.524 . S
C1682 C1681 1.524 . S
C1682 C1683 1.397 . S
C1682 C1687 1.363 . S
C1683 H1654 0.950 . S
C1683 C1682 1.397 . S
C1683 C1684 1.334 . S
C1684 H1655 0.950 . S
C1684 C1683 1.334 . S
C1684 C1685 1.287 . S
C1685 C1684 1.287 . S
C1685 C1686 1.524 . S
C1685 H1688 0.999 . S
C1686 H1656 0.950 . S
C1686 C1685 1.524 . S
C1686 C1687 1.415 . S
C1687 H1657 0.950 . S
C1687 C1682 1.363 . S
C1687 C1686 1.415 . S
H1688 C1685 0.999 . S
H1689 C1670 0.913 . S
H1690 C1708 0.951 . S
H1691 C1710 0.951 . S
H1692 C1712 0.950 . S
H1693 C1713 0.950 . S
H1694 C1715 0.950 . S
H1695 C1718 0.950 . S
H1696 C1719 0.950 . S
H1697 C1721 0.950 . S
H1698 C1722 0.950 . S
H1699 C1723 0.951 . S
H1700 C1725 0.951 . S
H1701 C1727 0.950 . S
H1702 C1728 0.950 . S
H1703 C1730 0.950 . S
H1704 C1733 0.950 . S
H1705 C1734 0.950 . S
H1706 C1736 0.950 . S
H1707 C1737 0.950 . S
C1708 H1690 0.951 . S
C1708 C1709 1.366 . S
C1708 C1710 1.388 . S
C1709 C1708 1.366 . S
C1709 C1713 1.385 . S
C1710 H1691 0.951 . S
C1710 C1708 1.388 . S
C1710 C1711 1.366 . S
C1711 C1710 1.366 . S
C1711 C1712 1.414 . S
C1711 C1714 1.499 . S
C1712 H1692 0.950 . S
C1712 C1711 1.414 . S
C1712 C1713 1.374 . S
C1713 H1693 0.950 . S
C1713 C1709 1.385 . S
C1713 C1712 1.374 . S
C1714 C1711 1.499 . S
C1714 C1715 1.373 . S
C1714 C1716 1.389 . S
C1715 H1694 0.950 . S
C1715 C1714 1.373 . S
C1715 C1731 1.377 . S
C1716 C1714 1.389 . S
C1716 C1717 1.524 . S
C1716 C1730 1.377 . S
C1717 C1716 1.524 . S
C1717 C1718 1.397 . S
C1717 C1722 1.363 . S
C1718 H1695 0.950 . S
C1718 C1717 1.397 . S
C1718 C1719 1.334 . S
C1719 H1696 0.950 . S
C1719 C1718 1.334 . S
C1719 C1720 1.287 . S
C1720 C1719 1.287 . S
C1720 C1721 1.524 . S
C1720 H1739 0.913 . S
C1721 H1697 0.950 . S
C1721 C1720 1.524 . S
C1721 C1722 1.415 . S
C1722 H1698 0.950 . S
C1722 C1717 1.363 . S
C1722 C1721 1.415 . S
C1723 H1699 0.951 . S
C1723 C1724 1.366 . S
C1723 C1725 1.388 . S
C1724 C1723 1.366 . S
C1724 C1728 1.385 . S
C1725 H1700 0.951 . S
C1725 C1723 1.388 . S
C1725 C1726 1.366 . S
C1726 C1725 1.366 . S
C1726 C1727 1.414 . S
C1726 C1729 1.499 . S
C1727 H1701 0.950 . S
C1727 C1726 1.414 . S
C1727 C1728 1.374 . S
C1728 H1702 0.950 . S
C1728 C1724 1.385 . S
C1728 C1727 1.374 . S
C1729 C1726 1.499 . S
C1729 C1730 1.373 . S
C1729 C1731 1.389 . S
C1730 H1703 0.950 . S
C1730 C1716 1.377 . S
C1730 C1729 1.373 . S
C1731 C1715 1.377 . S
C1731 C1729 1.389 . S
C1731 C1732 1.524 . S
C1732 C1731 1.524 . S
C1732 C1733 1.397 . S
C1732 C1737 1.363 . S
C1733 H1704 0.950 . S
C1733 C1732 1.397 . S
C1733 C1734 1.334 . S
C1734 H1705 0.950 . S
C1734 C1733 1.334 . S
C1734 C1735 1.287 . S
C1735 C1734 1.287 . S
C1735 C1736 1.524 . S
C1735 H1738 0.999 . S
C1736 H1706 0.950 . S
C1736 C1735 1.524 . S
C1736 C1737 1.415 . S
C1737 H1707 0.950 . S
C1737 C1732 1.363 . S
C1737 C1736 1.415 . S
H1738 C1735 0.999 . S
H1739 C1720 0.913 . S
H1740 C1758 0.951 . S
H1741 C1760 0.951 . S
H1742 C1762 0.950 . S
H1743 C1763 0.950 . S
H1744 C1765 0.950 . S
H1745 C1768 0.950 . S
H1746 C1769 0.950 . S
H1747 C1771 0.950 . S
H1748 C1772 0.950 . S
H1749 C1773 0.951 . S
H1750 C1775 0.951 . S
H1751 C1777 0.950 . S
H1752 C1778 0.950 . S
H1753 C1780 0.950 . S
H1754 C1783 0.950 . S
H1755 C1784 0.950 . S
H1756 C1786 0.950 . S
H1757 C1787 0.950 . S
C1758 H1740 0.951 . S
C1758 C1759 1.366 . S
C1758 C1760 1.388 . S
C1759 C1758 1.366 . S
C1759 C1763 1.385 . S
C1760 H1741 0.951 . S
C1760 C1758 1.388 . S
C1760 C1761 1.366 . S
C1761 C1760 1.366 . S
C1761 C1762 1.414 . S
C1761 C1764 1.499 . S
C1762 H1742 0.950 . S
C1762 C1761 1.414 . S
C1762 C1763 1.374 . S
C1763 H1743 0.950 . S
C1763 C1759 1.385 . S
C1763 C1762 1.374 . S
C1764 C1761 1.499 . S
C1764 C1765 1.373 . S
C1764 C1766 1.389 . S
C1765 H1744 0.950 . S
C1765 C1764 1.373 . S
C1765 C1781 1.377 . S
C1766 C1764 1.389 . S
C1766 C1767 1.524 . S
C1766 C1780 1.377 . S
C1767 C1766 1.524 . S
C1767 C1768 1.397 . S
C1767 C1772 1.363 . S
C1768 H1745 0.950 . S
C1768 C1767 1.397 . S
C1768 C1769 1.334 . S
C1769 H1746 0.950 . S
C1769 C1768 1.334 . S
C1769 C1770 1.287 . S
C1770 C1769 1.287 . S
C1770 C1771 1.524 . S
C1770 H1789 0.913 . S
C1771 H1747 0.950 . S
C1771 C1770 1.524 . S
C1771 C1772 1.415 . S
C1772 H1748 0.950 . S
C1772 C1767 1.363 . S
C1772 C1771 1.415 . S
C1773 H1749 0.951 . S
C1773 C1774 1.366 . S
C1773 C1775 1.388 . S
C1774 C1773 1.366 . S
C1774 C1778 1.385 . S
C1775 H1750 0.951 . S
C1775 C1773 1.388 . S
C1775 C1776 1.366 . S
C1776 C1775 1.366 . S
C1776 C1777 1.414 . S
C1776 C1779 1.499 . S
C1777 H1751 0.950 . S
C1777 C1776 1.414 . S
C1777 C1778 1.374 . S
C1778 H1752 0.950 . S
C1778 C1774 1.385 . S
C1778 C1777 1.374 . S
C1779 C1776 1.499 . S
C1779 C1780 1.373 . S
C1779 C1781 1.389 . S
C1780 H1753 0.950 . S
C1780 C1766 1.377 . S
C1780 C1779 1.373 . S
C1781 C1765 1.377 . S
C1781 C1779 1.389 . S
C1781 C1782 1.524 . S
C1782 C1781 1.524 . S
C1782 C1783 1.397 . S
C1782 C1787 1.363 . S
C1783 H1754 0.950 . S
C1783 C1782 1.397 . S
C1783 C1784 1.334 . S
C1784 H1755 0.950 . S
C1784 C1783 1.334 . S
C1784 C1785 1.287 . S
C1785 C1784 1.287 . S
C1785 C1786 1.524 . S
C1785 H1788 0.999 . S
C1786 H1756 0.950 . S
C1786 C1785 1.524 . S
C1786 C1787 1.415 . S
C1787 H1757 0.950 . S
C1787 C1782 1.363 . S
C1787 C1786 1.415 . S
H1788 C1785 0.999 . S
H1789 C1770 0.913 . S
H1790 C1808 0.951 . S
H1791 C1810 0.951 . S
H1792 C1812 0.950 . S
H1793 C1813 0.950 . S
H1794 C1815 0.950 . S
H1795 C1818 0.950 . S
H1796 C1819 0.950 . S
H1797 C1821 0.950 . S
H1798 C1822 0.950 . S
H1799 C1823 0.951 . S
H1800 C1825 0.951 . S
H1801 C1827 0.950 . S
H1802 C1828 0.950 . S
H1803 C1830 0.950 . S
H1804 C1833 0.950 . S
H1805 C1834 0.950 . S
H1806 C1836 0.950 . S
H1807 C1837 0.950 . S
C1808 H1790 0.951 . S
C1808 C1809 1.366 . S
C1808 C1810 1.388 . S
C1809 C1808 1.366 . S
C1809 C1813 1.385 . S
C1810 H1791 0.951 . S
C1810 C1808 1.388 . S
C1810 C1811 1.366 . S
C1811 C1810 1.366 . S
C1811 C1812 1.414 . S
C1811 C1814 1.499 . S
C1812 H1792 0.950 . S
C1812 C1811 1.414 . S
C1812 C1813 1.374 . S
C1813 H1793 0.950 . S
C1813 C1809 1.385 . S
C1813 C1812 1.374 . S
C1814 C1811 1.499 . S
C1814 C1815 1.373 . S
C1814 C1816 1.389 . S
C1815 H1794 0.950 . S
C1815 C1814 1.373 . S
C1815 C1831 1.377 . S
C1816 C1814 1.389 . S
C1816 C1817 1.524 . S
C1816 C1830 1.377 . S
C1817 C1816 1.524 . S
C1817 C1818 1.397 . S
C1817 C1822 1.363 . S
C1818 H1795 0.950 . S
C1818 C1817 1.397 . S
C1818 C1819 1.334 . S
C1819 H1796 0.950 . S
C1819 C1818 1.334 . S
C1819 C1820 1.287 . S
C1820 C1819 1.287 . S
C1820 C1821 1.524 . S
C1820 H1839 0.913 . S
C1821 H1797 0.950 . S
C1821 C1820 1.524 . S
C1821 C1822 1.415 . S
C1822 H1798 0.950 . S
C1822 C1817 1.363 . S
C1822 C1821 1.415 . S
C1823 H1799 0.951 . S
C1823 C1824 1.366 . S
C1823 C1825 1.388 . S
C1824 C1823 1.366 . S
C1824 C1828 1.385 . S
C1825 H1800 0.951 . S
C1825 C1823 1.388 . S
C1825 C1826 1.366 . S
C1826 C1825 1.366 . S
C1826 C1827 1.414 . S
C1826 C1829 1.499 . S
C1827 H1801 0.950 . S
C1827 C1826 1.414 . S
C1827 C1828 1.374 . S
C1828 H1802 0.950 . S
C1828 C1824 1.385 . S
C1828 C1827 1.374 . S
C1829 C1826 1.499 . S
C1829 C1830 1.373 . S
C1829 C1831 1.389 . S
C1830 H1803 0.950 . S
C1830 C1816 1.377 . S
C1830 C1829 1.373 . S
C1831 C1815 1.377 . S
C1831 C1829 1.389 . S
C1831 C1832 1.524 . S
C1832 C1831 1.524 . S
C1832 C1833 1.397 . S
C1832 C1837 1.363 . S
C1833 H1804 0.950 . S
C1833 C1832 1.397 . S
C1833 C1834 1.334 . S
C1834 H1805 0.950 . S
C1834 C1833 1.334 . S
C1834 C1835 1.287 . S
C1835 C1834 1.287 . S
C1835 C1836 1.524 . S
C1835 H1838 0.999 . S
C1836 H1806 0.950 . S
C1836 C1835 1.524 . S
C1836 C1837 1.415 . S
C1837 H1807 0.950 . S
C1837 C1832 1.363 . S
C1837 C1836 1.415 . S
H1838 C1835 0.999 . S
H1839 C1820 0.913 . S
H1840 C1858 0.951 . S
H1841 C1860 0.951 . S
H1842 C1862 0.950 . S
H1843 C1863 0.950 . S
H1844 C1865 0.950 . S
H1845 C1868 0.950 . S
H1846 C1869 0.950 . S
H1847 C1871 0.950 . S
H1848 C1872 0.950 . S
H1849 C1873 0.951 . S
H1850 C1875 0.951 . S
H1851 C1877 0.950 . S
H1852 C1878 0.950 . S
H1853 C1880 0.950 . S
H1854 C1883 0.950 . S
H1855 C1884 0.950 . S
H1856 C1886 0.950 . S
H1857 C1887 0.950 . S
C1858 H1840 0.951 . S
C1858 C1859 1.366 . S
C1858 C1860 1.388 . S
C1859 C1858 1.366 . S
C1859 C1863 1.385 . S
C1860 H1841 0.951 . S
C1860 C1858 1.388 . S
C1860 C1861 1.366 . S
C1861 C1860 1.366 . S
C1861 C1862 1.414 . S
C1861 C1864 1.499 . S
C1862 H1842 0.950 . S
C1862 C1861 1.414 . S
C1862 C1863 1.374 . S
C1863 H1843 0.950 . S
C1863 C1859 1.385 . S
C1863 C1862 1.374 . S
C1864 C1861 1.499 . S
C1864 C1865 1.373 . S
C1864 C1866 1.389 . S
C1865 H1844 0.950 . S
C1865 C1864 1.373 . S
C1865 C1881 1.377 . S
C1866 C1864 1.389 . S
C1866 C1867 1.524 . S
C1866 C1880 1.377 . S
C1867 C1866 1.524 . S
C1867 C1868 1.397 . S
C1867 C1872 1.363 . S
C1868 H1845 0.950 . S
C1868 C1867 1.397 . S
C1868 C1869 1.334 . S
C1869 H1846 0.950 . S
C1869 C1868 1.334 . S
C1869 C1870 1.287 . S
C1870 C1869 1.287 . S
C1870 C1871 1.524 . S
C1870 H1889 0.913 . S
C1871 H1847 0.950 . S
C1871 C1870 1.524 . S
C1871 C1872 1.415 . S
C1872 H1848 0.950 . S
C1872 C1867 1.363 . S
C1872 C1871 1.415 . S
C1873 H1849 0.951 . S
C1873 C1874 1.366 . S
C1873 C1875 1.388 . S
C1874 C1873 1.366 . S
C1874 C1878 1.385 . S
C1875 H1850 0.951 . S
C1875 C1873 1.388 . S
C1875 C1876 1.366 . S
C1876 C1875 1.366 . S
C1876 C1877 1.414 . S
C1876 C1879 1.499 . S
C1877 H1851 0.950 . S
C1877 C1876 1.414 . S
C1877 C1878 1.374 . S
C1878 H1852 0.950 . S
C1878 C1874 1.385 . S
C1878 C1877 1.374 . S
C1879 C1876 1.499 . S
C1879 C1880 1.373 . S
C1879 C1881 1.389 . S
C1880 H1853 0.950 . S
C1880 C1866 1.377 . S
C1880 C1879 1.373 . S
C1881 C1865 1.377 . S
C1881 C1879 1.389 . S
C1881 C1882 1.524 . S
C1882 C1881 1.524 . S
C1882 C1883 1.397 . S
C1882 C1887 1.363 . S
C1883 H1854 0.950 . S
C1883 C1882 1.397 . S
C1883 C1884 1.334 . S
C1884 H1855 0.950 . S
C1884 C1883 1.334 . S
C1884 C1885 1.287 . S
C1885 C1884 1.287 . S
C1885 C1886 1.524 . S
C1885 H1888 0.999 . S
C1886 H1856 0.950 . S
C1886 C1885 1.524 . S
C1886 C1887 1.415 . S
C1887 H1857 0.950 . S
C1887 C1882 1.363 . S
C1887 C1886 1.415 . S
H1888 C1885 0.999 . S
H1889 C1870 0.913 . S
H1890 C1908 0.951 . S
H1891 C1910 0.951 . S
H1892 C1912 0.950 . S
H1893 C1913 0.950 . S
H1894 C1915 0.950 . S
H1895 C1918 0.950 . S
H1896 C1919 0.950 . S
H1897 C1921 0.950 . S
H1898 C1922 0.950 . S
H1899 C1923 0.951 . S
H1900 C1925 0.951 . S
H1901 C1927 0.950 . S
H1902 C1928 0.950 . S
H1903 C1930 0.950 . S
H1904 C1933 0.950 . S
H1905 C1934 0.950 . S
H1906 C1936 0.950 . S
H1907 C1937 0.950 . S
C1908 H1890 0.951 . S
C1908 C1909 1.366 . S
C1908 C1910 1.388 . S
C1909 C1908 1.366 . S
C1909 C1913 1.385 . S
C1910 H1891 0.951 . S
C1910 C1908 1.388 . S
C1910 C1911 1.366 . S
C1911 C1910 1.366 . S
C1911 C1912 1.414 . S
C1911 C1914 1.499 . S
C1912 H1892 0.950 . S
C1912 C1911 1.414 . S
C1912 C1913 1.374 . S
C1913 H1893 0.950 . S
C1913 C1909 1.385 . S
C1913 C1912 1.374 . S
C1914 C1911 1.499 . S
C1914 C1915 1.373 . S
C1914 C1916 1.389 . S
C1915 H1894 0.950 . S
C1915 C1914 1.373 . S
C1915 C1931 1.377 . S
C1916 C1914 1.389 . S
C1916 C1917 1.524 . S
C1916 C1930 1.377 . S
C1917 C1916 1.524 . S
C1917 C1918 1.397 . S
C1917 C1922 1.363 . S
C1918 H1895 0.950 . S
C1918 C1917 1.397 . S
C1918 C1919 1.334 . S
C1919 H1896 0.950 . S
C1919 C1918 1.334 . S
C1919 C1920 1.287 . S
C1920 C1919 1.287 . S
C1920 C1921 1.524 . S
C1920 H1939 0.913 . S
C1921 H1897 0.950 . S
C1921 C1920 1.524 . S
C1921 C1922 1.415 . S
C1922 H1898 0.950 . S
C1922 C1917 1.363 . S
C1922 C1921 1.415 . S
C1923 H1899 0.951 . S
C1923 C1924 1.366 . S
C1923 C1925 1.388 . S
C1924 C1923 1.366 . S
C1924 C1928 1.385 . S
C1925 H1900 0.951 . S
C1925 C1923 1.388 . S
C1925 C1926 1.366 . S
C1926 C1925 1.366 . S
C1926 C1927 1.414 . S
C1926 C1929 1.499 . S
C1927 H1901 0.950 . S
C1927 C1926 1.414 . S
C1927 C1928 1.374 . S
C1928 H1902 0.950 . S
C1928 C1924 1.385 . S
C1928 C1927 1.374 . S
C1929 C1926 1.499 . S
C1929 C1930 1.373 . S
C1929 C1931 1.389 . S
C1930 H1903 0.950 . S
C1930 C1916 1.377 . S
C1930 C1929 1.373 . S
C1931 C1915 1.377 . S
C1931 C1929 1.389 . S
C1931 C1932 1.524 . S
C1932 C1931 1.524 . S
C1932 C1933 1.397 . S
C1932 C1937 1.363 . S
C1933 H1904 0.950 . S
C1933 C1932 1.397 . S
C1933 C1934 1.334 . S
C1934 H1905 0.950 . S
C1934 C1933 1.334 . S
C1934 C1935 1.287 . S
C1935 C1934 1.287 . S
C1935 C1936 1.524 . S
C1935 H1938 0.999 . S
C1936 H1906 0.950 . S
C1936 C1935 1.524 . S
C1936 C1937 1.415 . S
C1937 H1907 0.950 . S
C1937 C1932 1.363 . S
C1937 C1936 1.415 . S
H1938 C1935 0.999 . S
H1939 C1920 0.913 . S
H1940 C1958 0.951 . S
H1941 C1960 0.951 . S
H1942 C1962 0.950 . S
H1943 C1963 0.950 . S
H1944 C1965 0.950 . S
H1945 C1968 0.950 . S
H1946 C1969 0.950 . S
H1947 C1971 0.950 . S
H1948 C1972 0.950 . S
H1949 C1973 0.951 . S
H1950 C1975 0.951 . S
H1951 C1977 0.950 . S
H1952 C1978 0.950 . S
H1953 C1980 0.950 . S
H1954 C1983 0.950 . S
H1955 C1984 0.950 . S
H1956 C1986 0.950 . S
H1957 C1987 0.950 . S
C1958 H1940 0.951 . S
C1958 C1959 1.366 . S
C1958 C1960 1.388 . S
C1959 C1958 1.366 . S
C1959 C1963 1.385 . S
C1960 H1941 0.951 . S
C1960 C1958 1.388 . S
C1960 C1961 1.366 . S
C1961 C1960 1.366 . S
C1961 C1962 1.414 . S
C1961 C1964 1.499 . S
C1962 H1942 0.950 . S
C1962 C1961 1.414 . S
C1962 C1963 1.374 . S
C1963 H1943 0.950 . S
C1963 C1959 1.385 . S
C1963 C1962 1.374 . S
C1964 C1961 1.499 . S
C1964 C1965 1.373 . S
C1964 C1966 1.389 . S
C1965 H1944 0.950 . S
C1965 C1964 1.373 . S
C1965 C1981 1.377 . S
C1966 C1964 1.389 . S
C1966 C1967 1.524 . S
C1966 C1980 1.377 . S
C1967 C1966 1.524 . S
C1967 C1968 1.397 . S
C1967 C1972 1.363 . S
C1968 H1945 0.950 . S
C1968 C1967 1.397 . S
C1968 C1969 1.334 . S
C1969 H1946 0.950 . S
C1969 C1968 1.334 . S
C1969 C1970 1.287 . S
C1970 C1969 1.287 . S
C1970 C1971 1.524 . S
C1970 H1989 0.913 . S
C1971 H1947 0.950 . S
C1971 C1970 1.524 . S
C1971 C1972 1.415 . S
C1972 H1948 0.950 . S
C1972 C1967 1.363 . S
C1972 C1971 1.415 . S
C1973 H1949 0.951 . S
C1973 C1974 1.366 . S
C1973 C1975 1.388 . S
C1974 C1973 1.366 . S
C1974 C1978 1.385 . S
C1975 H1950 0.951 . S
C1975 C1973 1.388 . S
C1975 C1976 1.366 . S
C1976 C1975 1.366 . S
C1976 C1977 1.414 . S
C1976 C1979 1.499 . S
C1977 H1951 0.950 . S
C1977 C1976 1.414 . S
C1977 C1978 1.374 . S
C1978 H1952 0.950 . S
C1978 C1974 1.385 . S
C1978 C1977 1.374 . S
C1979 C1976 1.499 . S
C1979 C1980 1.373 . S
C1979 C1981 1.389 . S
C1980 H1953 0.950 . S
C1980 C1966 1.377 . S
C1980 C1979 1.373 . S
C1981 C1965 1.377 . S
C1981 C1979 1.389 . S
C1981 C1982 1.524 . S
C1982 C1981 1.524 . S
C1982 C1983 1.397 . S
C1982 C1987 1.363 . S
C1983 H1954 0.950 . S
C1983 C1982 1.397 . S
C1983 C1984 1.334 . S
C1984 H1955 0.950 . S
C1984 C1983 1.334 . S
C1984 C1985 1.287 . S
C1985 C1984 1.287 . S
C1985 C1986 1.524 . S
C1985 H1988 0.999 . S
C1986 H1956 0.950 . S
C1986 C1985 1.524 . S
C1986 C1987 1.415 . S
C1987 H1957 0.950 . S
C1987 C1982 1.363 . S
C1987 C1986 1.415 . S
H1988 C1985 0.999 . S
H1989 C1970 0.913 . S
H1990 C2008 0.951 . S
H1991 C2010 0.951 . S
H1992 C2012 0.950 . S
H1993 C2013 0.950 . S
H1994 C2015 0.950 . S
H1995 C2018 0.950 . S
H1996 C2019 0.950 . S
H1997 C2021 0.950 . S
H1998 C2022 0.950 . S
H1999 C2023 0.951 . S
H2000 C2025 0.951 . S
H2001 C2027 0.950 . S
H2002 C2028 0.950 . S
H2003 C2030 0.950 . S
H2004 C2033 0.950 . S
H2005 C2034 0.950 . S
H2006 C2036 0.950 . S
H2007 C2037 0.950 . S
C2008 H1990 0.951 . S
C2008 C2009 1.366 . S
C2008 C2010 1.388 . S
C2009 C2008 1.366 . S
C2009 C2013 1.385 . S
C2010 H1991 0.951 . S
C2010 C2008 1.388 . S
C2010 C2011 1.366 . S
C2011 C2010 1.366 . S
C2011 C2012 1.414 . S
C2011 C2014 1.499 . S
C2012 H1992 0.950 . S
C2012 C2011 1.414 . S
C2012 C2013 1.374 . S
C2013 H1993 0.950 . S
C2013 C2009 1.385 . S
C2013 C2012 1.374 . S
C2014 C2011 1.499 . S
C2014 C2015 1.373 . S
C2014 C2016 1.389 . S
C2015 H1994 0.950 . S
C2015 C2014 1.373 . S
C2015 C2031 1.377 . S
C2016 C2014 1.389 . S
C2016 C2017 1.524 . S
C2016 C2030 1.377 . S
C2017 C2016 1.524 . S
C2017 C2018 1.397 . S
C2017 C2022 1.363 . S
C2018 H1995 0.950 . S
C2018 C2017 1.397 . S
C2018 C2019 1.334 . S
C2019 H1996 0.950 . S
C2019 C2018 1.334 . S
C2019 C2020 1.287 . S
C2020 C2019 1.287 . S
C2020 C2021 1.524 . S
C2020 H2039 0.913 . S
C2021 H1997 0.950 . S
C2021 C2020 1.524 . S
C2021 C2022 1.415 . S
C2022 H1998 0.950 . S
C2022 C2017 1.363 . S
C2022 C2021 1.415 . S
C2023 H1999 0.951 . S
C2023 C2024 1.366 . S
C2023 C2025 1.388 . S
C2024 C2023 1.366 . S
C2024 C2028 1.385 . S
C2025 H2000 0.951 . S
C2025 C2023 1.388 . S
C2025 C2026 1.366 . S
C2026 C2025 1.366 . S
C2026 C2027 1.414 . S
C2026 C2029 1.499 . S
C2027 H2001 0.950 . S
C2027 C2026 1.414 . S
C2027 C2028 1.374 . S
C2028 H2002 0.950 . S
C2028 C2024 1.385 . S
C2028 C2027 1.374 . S
C2029 C2026 1.499 . S
C2029 C2030 1.373 . S
C2029 C2031 1.389 . S
C2030 H2003 0.950 . S
C2030 C2016 1.377 . S
C2030 C2029 1.373 . S
C2031 C2015 1.377 . S
C2031 C2029 1.389 . S
C2031 C2032 1.524 . S
C2032 C2031 1.524 . S
C2032 C2033 1.397 . S
C2032 C2037 1.363 . S
C2033 H2004 0.950 . S
C2033 C2032 1.397 . S
C2033 C2034 1.334 . S
C2034 H2005 0.950 . S
C2034 C2033 1.334 . S
C2034 C2035 1.287 . S
C2035 C2034 1.287 . S
C2035 C2036 1.524 . S
C2035 H2038 0.999 . S
C2036 H2006 0.950 . S
C2036 C2035 1.524 . S
C2036 C2037 1.415 . S
C2037 H2007 0.950 . S
C2037 C2032 1.363 . S
C2037 C2036 1.415 . S
H2038 C2035 0.999 . S
H2039 C2020 0.913 . S
H2040 C2058 0.951 . S
H2041 C2060 0.951 . S
H2042 C2062 0.950 . S
H2043 C2063 0.950 . S
H2044 C2065 0.974 . S
H2045 C2068 0.950 . S
H2046 C2069 0.950 . S
H2047 C2071 0.950 . S
H2048 C2072 0.950 . S
H2049 C2073 0.951 . S
H2050 C2075 0.951 . S
H2051 C2077 0.950 . S
H2052 C2078 0.950 . S
H2053 C2080 0.974 . S
H2054 C2083 0.950 . S
H2055 C2084 0.950 . S
H2056 C2086 0.950 . S
H2057 C2087 0.950 . S
C2058 H2040 0.951 . S
C2058 C2059 1.366 . S
C2058 C2060 1.388 . S
C2059 C2058 1.366 . S
C2059 C2063 1.385 . S
C2060 H2041 0.951 . S
C2060 C2058 1.388 . S
C2060 C2061 1.366 . S
C2061 C2060 1.366 . S
C2061 C2062 1.414 . S
C2061 C2064 1.499 . S
C2062 H2042 0.950 . S
C2062 C2061 1.414 . S
C2062 C2063 1.374 . S
C2063 H2043 0.950 . S
C2063 C2059 1.385 . S
C2063 C2062 1.374 . S
C2064 C2061 1.499 . S
C2064 C2065 1.360 1_655 S
C2064 C2066 1.389 . S
C2065 H2044 0.974 . S
C2065 C2064 1.360 1_455 S
C2065 C2081 1.414 . S
C2066 C2064 1.389 . S
C2066 C2067 1.524 . S
C2066 C2080 1.416 . S
C2067 C2066 1.524 . S
C2067 C2068 1.397 . S
C2067 C2072 1.363 . S
C2068 H2045 0.950 . S
C2068 C2067 1.397 . S
C2068 C2069 1.334 . S
C2069 H2046 0.950 . S
C2069 C2068 1.334 . S
C2069 C2070 1.287 . S
C2070 C2069 1.287 . S
C2070 C2071 1.524 . S
C2070 H2089 0.913 . S
C2071 H2047 0.950 . S
C2071 C2070 1.524 . S
C2071 C2072 1.415 . S
C2072 H2048 0.950 . S
C2072 C2067 1.363 . S
C2072 C2071 1.415 . S
C2073 H2049 0.951 . S
C2073 C2074 1.366 . S
C2073 C2075 1.388 . S
C2074 C2073 1.366 . S
C2074 C2078 1.385 . S
C2075 H2050 0.951 . S
C2075 C2073 1.388 . S
C2075 C2076 1.366 . S
C2076 C2075 1.366 . S
C2076 C2077 1.414 . S
C2076 C2079 1.499 . S
C2077 H2051 0.950 . S
C2077 C2076 1.414 . S
C2077 C2078 1.374 . S
C2078 H2052 0.950 . S
C2078 C2074 1.385 . S
C2078 C2077 1.374 . S
C2079 C2076 1.499 . S
C2079 C2080 1.359 1_455 S
C2079 C2081 1.389 . S
C2080 H2053 0.974 . S
C2080 C2066 1.416 . S
C2080 C2079 1.359 1_655 S
C2081 C2065 1.414 . S
C2081 C2079 1.389 . S
C2081 C2082 1.524 . S
C2082 C2081 1.524 . S
C2082 C2083 1.397 . S
C2082 C2087 1.363 . S
C2083 H2054 0.950 . S
C2083 C2082 1.397 . S
C2083 C2084 1.334 . S
C2084 H2055 0.950 . S
C2084 C2083 1.334 . S
C2084 C2085 1.287 . S
C2085 C2084 1.287 . S
C2085 C2086 1.524 . S
C2085 H2088 0.999 . S
C2086 H2056 0.950 . S
C2086 C2085 1.524 . S
C2086 C2087 1.415 . S
C2087 H2057 0.950 . S
C2087 C2082 1.363 . S
C2087 C2086 1.415 . S
H2088 C2085 0.999 . S
H2089 C2070 0.913 . S
H2090 C2108 0.951 . S
H2091 C2110 0.951 . S
H2092 C2112 0.950 . S
H2093 C2113 0.950 . S
H2094 C2115 0.950 . S
H2095 C2118 0.950 . S
H2096 C2119 0.950 . S
H2097 C2121 0.950 . S
H2098 C2122 0.950 . S
H2099 C2123 0.951 . S
H2100 C2125 0.951 . S
H2101 C2127 0.950 . S
H2102 C2128 0.950 . S
H2103 C2130 0.950 . S
H2104 C2133 0.950 . S
H2105 C2134 0.950 . S
H2106 C2136 0.950 . S
H2107 C2137 0.950 . S
C2108 H2090 0.951 . S
C2108 C2109 1.366 . S
C2108 C2110 1.388 . S
C2109 C2108 1.366 . S
C2109 C2113 1.385 . S
C2110 H2091 0.951 . S
C2110 C2108 1.388 . S
C2110 C2111 1.366 . S
C2111 C2110 1.366 . S
C2111 C2112 1.414 . S
C2111 C2114 1.499 . S
C2112 H2092 0.950 . S
C2112 C2111 1.414 . S
C2112 C2113 1.374 . S
C2113 H2093 0.950 . S
C2113 C2109 1.385 . S
C2113 C2112 1.374 . S
C2114 C2111 1.499 . S
C2114 C2115 1.373 . S
C2114 C2116 1.389 . S
C2115 H2094 0.950 . S
C2115 C2114 1.373 . S
C2115 C2131 1.377 . S
C2116 C2114 1.389 . S
C2116 C2117 1.524 . S
C2116 C2130 1.377 . S
C2117 C2116 1.524 . S
C2117 C2118 1.397 . S
C2117 C2122 1.363 . S
C2118 H2095 0.950 . S
C2118 C2117 1.397 . S
C2118 C2119 1.334 . S
C2119 H2096 0.950 . S
C2119 C2118 1.334 . S
C2119 C2120 1.287 . S
C2120 C2119 1.287 . S
C2120 C2121 1.524 . S
C2120 H2139 0.913 . S
C2121 H2097 0.950 . S
C2121 C2120 1.524 . S
C2121 C2122 1.415 . S
C2122 H2098 0.950 . S
C2122 C2117 1.363 . S
C2122 C2121 1.415 . S
C2123 H2099 0.951 . S
C2123 C2124 1.366 . S
C2123 C2125 1.388 . S
C2124 C2123 1.366 . S
C2124 C2128 1.385 . S
C2125 H2100 0.951 . S
C2125 C2123 1.388 . S
C2125 C2126 1.366 . S
C2126 C2125 1.366 . S
C2126 C2127 1.414 . S
C2126 C2129 1.499 . S
C2127 H2101 0.950 . S
C2127 C2126 1.414 . S
C2127 C2128 1.374 . S
C2128 H2102 0.950 . S
C2128 C2124 1.385 . S
C2128 C2127 1.374 . S
C2129 C2126 1.499 . S
C2129 C2130 1.373 . S
C2129 C2131 1.389 . S
C2130 H2103 0.950 . S
C2130 C2116 1.377 . S
C2130 C2129 1.373 . S
C2131 C2115 1.377 . S
C2131 C2129 1.389 . S
C2131 C2132 1.524 . S
C2132 C2131 1.524 . S
C2132 C2133 1.397 . S
C2132 C2137 1.363 . S
C2133 H2104 0.950 . S
C2133 C2132 1.397 . S
C2133 C2134 1.334 . S
C2134 H2105 0.950 . S
C2134 C2133 1.334 . S
C2134 C2135 1.287 . S
C2135 C2134 1.287 . S
C2135 C2136 1.524 . S
C2135 H2138 0.999 . S
C2136 H2106 0.950 . S
C2136 C2135 1.524 . S
C2136 C2137 1.415 . S
C2137 H2107 0.950 . S
C2137 C2132 1.363 . S
C2137 C2136 1.415 . S
H2138 C2135 0.999 . S
H2139 C2120 0.913 . S
H2140 C2158 0.951 . S
H2141 C2160 0.951 . S
H2142 C2162 0.950 . S
H2143 C2163 0.950 . S
H2144 C2165 0.950 . S
H2145 C2168 0.950 . S
H2146 C2169 0.950 . S
H2147 C2171 0.950 . S
H2148 C2172 0.950 . S
H2149 C2173 0.951 . S
H2150 C2175 0.951 . S
H2151 C2177 0.950 . S
H2152 C2178 0.950 . S
H2153 C2180 0.950 . S
H2154 C2183 0.950 . S
H2155 C2184 0.950 . S
H2156 C2186 0.950 . S
H2157 C2187 0.950 . S
C2158 H2140 0.951 . S
C2158 C2159 1.366 . S
C2158 C2160 1.388 . S
C2159 C2158 1.366 . S
C2159 C2163 1.385 . S
C2160 H2141 0.951 . S
C2160 C2158 1.388 . S
C2160 C2161 1.366 . S
C2161 C2160 1.366 . S
C2161 C2162 1.414 . S
C2161 C2164 1.499 . S
C2162 H2142 0.950 . S
C2162 C2161 1.414 . S
C2162 C2163 1.374 . S
C2163 H2143 0.950 . S
C2163 C2159 1.385 . S
C2163 C2162 1.374 . S
C2164 C2161 1.499 . S
C2164 C2165 1.373 . S
C2164 C2166 1.389 1_545 S
C2165 H2144 0.950 . S
C2165 C2164 1.373 . S
C2165 C2181 1.377 . S
C2166 C2164 1.389 1_565 S
C2166 C2167 1.524 . S
C2166 C2180 1.377 . S
C2167 C2166 1.524 . S
C2167 C2168 1.397 . S
C2167 C2172 1.363 . S
C2168 H2145 0.950 . S
C2168 C2167 1.397 . S
C2168 C2169 1.334 . S
C2169 H2146 0.950 . S
C2169 C2168 1.334 . S
C2169 C2170 1.287 . S
C2170 C2169 1.287 . S
C2170 C2171 1.524 . S
C2170 H2189 0.913 . S
C2171 H2147 0.950 . S
C2171 C2170 1.524 . S
C2171 C2172 1.415 . S
C2172 H2148 0.950 . S
C2172 C2167 1.363 . S
C2172 C2171 1.415 . S
C2173 H2149 0.951 . S
C2173 C2174 1.366 . S
C2173 C2175 1.388 . S
C2174 C2173 1.366 . S
C2174 C2178 1.385 . S
C2175 H2150 0.951 . S
C2175 C2173 1.388 . S
C2175 C2176 1.366 . S
C2176 C2175 1.366 . S
C2176 C2177 1.414 . S
C2176 C2179 1.499 . S
C2177 H2151 0.950 . S
C2177 C2176 1.414 . S
C2177 C2178 1.374 . S
C2178 H2152 0.950 . S
C2178 C2174 1.385 . S
C2178 C2177 1.374 . S
C2179 C2176 1.499 . S
C2179 C2180 1.373 . S
C2179 C2181 1.389 1_565 S
C2180 H2153 0.950 . S
C2180 C2166 1.377 . S
C2180 C2179 1.373 . S
C2181 C2165 1.377 . S
C2181 C2179 1.389 1_545 S
C2181 C2182 1.524 . S
C2182 C2181 1.524 . S
C2182 C2183 1.397 . S
C2182 C2187 1.363 . S
C2183 H2154 0.950 . S
C2183 C2182 1.397 . S
C2183 C2184 1.334 . S
C2184 H2155 0.950 . S
C2184 C2183 1.334 . S
C2184 C2185 1.287 . S
C2185 C2184 1.287 . S
C2185 C2186 1.524 . S
C2185 H2188 0.999 . S
C2186 H2156 0.950 . S
C2186 C2185 1.524 . S
C2186 C2187 1.415 . S
C2187 H2157 0.950 . S
C2187 C2182 1.363 . S
C2187 C2186 1.415 . S
H2188 C2185 0.999 . S
H2189 C2170 0.913 . S
H2190 C2208 0.951 . S
H2191 C2210 0.951 . S
H2192 C2212 0.950 . S
H2193 C2213 0.950 . S
H2194 C2215 0.950 . S
H2195 C2218 0.950 1_565 S
H2196 C2219 0.979 . S
H2197 C2221 0.950 . S
H2198 C2222 0.950 . S
H2199 C2223 0.951 . S
H2200 C2225 0.951 . S
H2201 C2227 0.950 . S
H2202 C2228 0.950 . S
H2203 C2230 0.950 . S
H2204 C2233 0.950 1_545 S
H2205 C2234 0.979 . S
H2206 C2236 0.950 . S
H2207 C2237 0.950 . S
C2208 H2190 0.951 . S
C2208 C2209 1.366 . S
C2208 C2210 1.388 . S
C2209 C2208 1.366 . S
C2209 C2213 1.385 . S
C2210 H2191 0.951 . S
C2210 C2208 1.388 . S
C2210 C2211 1.366 . S
C2211 C2210 1.366 . S
C2211 C2212 1.414 . S
C2211 C2214 1.499 . S
C2212 H2192 0.950 . S
C2212 C2211 1.414 . S
C2212 C2213 1.374 . S
C2213 H2193 0.950 . S
C2213 C2209 1.385 . S
C2213 C2212 1.374 . S
C2214 C2211 1.499 . S
C2214 C2215 1.373 . S
C2214 C2216 1.389 1_565 S
C2215 H2194 0.950 . S
C2215 C2214 1.373 . S
C2215 C2231 1.377 . S
C2216 C2214 1.389 1_545 S
C2216 C2217 1.524 . S
C2216 C2230 1.377 . S
C2217 C2216 1.524 . S
C2217 C2218 1.397 . S
C2217 C2222 1.363 . S
C2218 H2195 0.950 1_545 S
C2218 C2217 1.397 . S
C2218 C2219 1.334 . S
C2219 H2196 0.979 . S
C2219 C2218 1.334 . S
C2219 C2220 1.287 . S
C2220 C2219 1.287 . S
C2220 C2221 1.524 . S
C2220 H2239 0.913 . S
C2221 H2197 0.950 . S
C2221 C2220 1.524 . S
C2221 C2222 1.415 . S
C2222 H2198 0.950 . S
C2222 C2217 1.363 . S
C2222 C2221 1.415 . S
C2223 H2199 0.951 . S
C2223 C2224 1.366 . S
C2223 C2225 1.388 . S
C2224 C2223 1.366 . S
C2224 C2228 1.385 . S
C2225 H2200 0.951 . S
C2225 C2223 1.388 . S
C2225 C2226 1.366 . S
C2226 C2225 1.366 . S
C2226 C2227 1.414 . S
C2226 C2229 1.499 . S
C2227 H2201 0.950 . S
C2227 C2226 1.414 . S
C2227 C2228 1.374 . S
C2228 H2202 0.950 . S
C2228 C2224 1.385 . S
C2228 C2227 1.374 . S
C2229 C2226 1.499 . S
C2229 C2230 1.373 . S
C2229 C2231 1.389 1_545 S
C2230 H2203 0.950 . S
C2230 C2216 1.377 . S
C2230 C2229 1.373 . S
C2231 C2215 1.377 . S
C2231 C2229 1.389 1_565 S
C2231 C2232 1.524 . S
C2232 C2231 1.524 . S
C2232 C2233 1.397 . S
C2232 C2237 1.363 . S
C2233 H2204 0.950 1_565 S
C2233 C2232 1.397 . S
C2233 C2234 1.334 . S
C2234 H2205 0.979 . S
C2234 C2233 1.334 . S
C2234 C2235 1.287 . S
C2235 C2234 1.287 . S
C2235 C2236 1.524 . S
C2235 H2238 0.999 . S
C2236 H2206 0.950 . S
C2236 C2235 1.524 . S
C2236 C2237 1.415 . S
C2237 H2207 0.950 . S
C2237 C2232 1.363 . S
C2237 C2236 1.415 . S
H2238 C2235 0.999 . S
H2239 C2220 0.913 . S
H2240 C2258 0.951 . S
H2241 C2260 0.951 . S
H2242 C2262 0.950 . S
H2243 C2263 0.950 . S
H2244 C2265 0.950 . S
H2245 C2268 0.950 1_655 S
H2246 C2269 0.950 . S
H2247 C2271 0.950 . S
H2248 C2272 0.950 . S
H2249 C2273 0.951 . S
H2250 C2275 0.951 . S
H2251 C2277 0.950 . S
H2252 C2278 0.950 . S
H2253 C2280 0.950 . S
H2254 C2283 0.950 1_455 S
H2255 C2284 0.950 . S
H2256 C2286 0.950 . S
H2257 C2287 0.950 . S
C2258 H2240 0.951 . S
C2258 C2259 1.366 . S
C2258 C2260 1.388 . S
C2259 C2258 1.366 . S
C2259 C2263 1.385 . S
C2260 H2241 0.951 . S
C2260 C2258 1.388 . S
C2260 C2261 1.366 . S
C2261 C2260 1.366 . S
C2261 C2262 1.414 . S
C2261 C2264 1.499 . S
C2262 H2242 0.950 . S
C2262 C2261 1.414 . S
C2262 C2263 1.374 . S
C2263 H2243 0.950 . S
C2263 C2259 1.385 . S
C2263 C2262 1.374 . S
C2264 C2261 1.499 . S
C2264 C2265 1.373 . S
C2264 C2266 1.389 1_655 S
C2265 H2244 0.950 . S
C2265 C2264 1.373 . S
C2265 C2281 1.377 . S
C2266 C2264 1.389 1_455 S
C2266 C2267 1.524 . S
C2266 C2280 1.377 . S
C2267 C2266 1.524 . S
C2267 C2268 1.397 . S
C2267 C2272 1.363 . S
C2268 H2245 0.950 1_455 S
C2268 C2267 1.397 . S
C2268 C2269 1.334 . S
C2269 H2246 0.950 . S
C2269 C2268 1.334 . S
C2269 C2270 1.287 . S
C2270 C2269 1.287 . S
C2270 C2271 1.524 . S
C2270 H2289 0.913 . S
C2271 H2247 0.950 . S
C2271 C2270 1.524 . S
C2271 C2272 1.415 . S
C2272 H2248 0.950 . S
C2272 C2267 1.363 . S
C2272 C2271 1.415 . S
C2273 H2249 0.951 . S
C2273 C2274 1.366 . S
C2273 C2275 1.388 . S
C2274 C2273 1.366 . S
C2274 C2278 1.385 . S
C2275 H2250 0.951 . S
C2275 C2273 1.388 . S
C2275 C2276 1.366 . S
C2276 C2275 1.366 . S
C2276 C2277 1.414 . S
C2276 C2279 1.499 . S
C2277 H2251 0.950 . S
C2277 C2276 1.414 . S
C2277 C2278 1.374 . S
C2278 H2252 0.950 . S
C2278 C2274 1.385 . S
C2278 C2277 1.374 . S
C2279 C2276 1.499 . S
C2279 C2280 1.373 . S
C2279 C2281 1.389 1_455 S
C2280 H2253 0.950 . S
C2280 C2266 1.377 . S
C2280 C2279 1.373 . S
C2281 C2265 1.377 . S
C2281 C2279 1.389 1_655 S
C2281 C2282 1.524 . S
C2282 C2281 1.524 . S
C2282 C2283 1.397 . S
C2282 C2287 1.363 . S
C2283 H2254 0.950 1_655 S
C2283 C2282 1.397 . S
C2283 C2284 1.334 . S
C2284 H2255 0.950 . S
C2284 C2283 1.334 . S
C2284 C2285 1.287 . S
C2285 C2284 1.287 . S
C2285 C2286 1.524 . S
C2285 H2288 0.999 . S
C2286 H2256 0.950 . S
C2286 C2285 1.524 . S
C2286 C2287 1.415 . S
C2287 H2257 0.950 . S
C2287 C2282 1.363 . S
C2287 C2286 1.415 . S
H2288 C2285 0.999 . S
H2289 C2270 0.913 . S
H2290 C2308 0.951 . S
H2291 C2310 0.951 . S
H2292 C2312 0.950 . S
H2293 C2313 0.950 . S
H2294 C2315 0.950 . S
H2295 C2318 0.950 . S
H2296 C2319 0.950 . S
H2297 C2321 0.950 . S
H2298 C2322 0.950 . S
H2299 C2323 0.951 . S
H2300 C2325 0.951 . S
H2301 C2327 0.950 . S
H2302 C2328 0.950 . S
H2303 C2330 0.950 . S
H2304 C2333 0.950 . S
H2305 C2334 0.950 . S
H2306 C2336 0.950 . S
H2307 C2337 0.950 . S
C2308 H2290 0.951 . S
C2308 C2309 1.366 . S
C2308 C2310 1.388 . S
C2309 C2308 1.366 . S
C2309 C2313 1.385 . S
C2310 H2291 0.951 . S
C2310 C2308 1.388 . S
C2310 C2311 1.366 . S
C2311 C2310 1.366 . S
C2311 C2312 1.414 . S
C2311 C2314 1.499 . S
C2312 H2292 0.950 . S
C2312 C2311 1.414 . S
C2312 C2313 1.374 . S
C2313 H2293 0.950 . S
C2313 C2309 1.385 . S
C2313 C2312 1.374 . S
C2314 C2311 1.499 . S
C2314 C2315 1.373 . S
C2314 C2316 1.389 . S
C2315 H2294 0.950 . S
C2315 C2314 1.373 . S
C2315 C2331 1.377 . S
C2316 C2314 1.389 . S
C2316 C2317 1.524 . S
C2316 C2330 1.377 . S
C2317 C2316 1.524 . S
C2317 C2318 1.397 . S
C2317 C2322 1.363 . S
C2318 H2295 0.950 . S
C2318 C2317 1.397 . S
C2318 C2319 1.334 . S
C2319 H2296 0.950 . S
C2319 C2318 1.334 . S
C2319 C2320 1.287 . S
C2320 C2319 1.287 . S
C2320 C2321 1.524 . S
C2320 H2339 0.913 . S
C2321 H2297 0.950 . S
C2321 C2320 1.524 . S
C2321 C2322 1.415 . S
C2322 H2298 0.950 . S
C2322 C2317 1.363 . S
C2322 C2321 1.415 . S
C2323 H2299 0.951 . S
C2323 C2324 1.366 . S
C2323 C2325 1.388 . S
C2324 C2323 1.366 . S
C2324 C2328 1.385 . S
C2325 H2300 0.951 . S
C2325 C2323 1.388 . S
C2325 C2326 1.366 . S
C2326 C2325 1.366 . S
C2326 C2327 1.414 . S
C2326 C2329 1.499 . S
C2327 H2301 0.950 . S
C2327 C2326 1.414 . S
C2327 C2328 1.374 . S
C2328 H2302 0.950 . S
C2328 C2324 1.385 . S
C2328 C2327 1.374 . S
C2329 C2326 1.499 . S
C2329 C2330 1.373 . S
C2329 C2331 1.389 . S
C2330 H2303 0.950 . S
C2330 C2316 1.377 . S
C2330 C2329 1.373 . S
C2331 C2315 1.377 . S
C2331 C2329 1.389 . S
C2331 C2332 1.524 . S
C2332 C2331 1.524 . S
C2332 C2333 1.397 . S
C2332 C2337 1.363 . S
C2333 H2304 0.950 . S
C2333 C2332 1.397 . S
C2333 C2334 1.334 . S
C2334 H2305 0.950 . S
C2334 C2333 1.334 . S
C2334 C2335 1.287 . S
C2335 C2334 1.287 . S
C2335 C2336 1.524 . S
C2335 H2338 0.999 . S
C2336 H2306 0.950 . S
C2336 C2335 1.524 . S
C2336 C2337 1.415 . S
C2337 H2307 0.950 . S
C2337 C2332 1.363 . S
C2337 C2336 1.415 . S
H2338 C2335 0.999 . S
H2339 C2320 0.913 . S
H2340 C2358 0.951 . S
H2341 C2360 0.951 . S
H2342 C2362 0.950 . S
H2343 C2363 0.950 . S
H2344 C2365 0.950 . S
H2345 C2368 0.950 . S
H2346 C2369 0.950 . S
H2347 C2371 0.950 . S
H2348 C2372 0.950 . S
H2349 C2373 0.951 . S
H2350 C2375 0.951 . S
H2351 C2377 0.950 . S
H2352 C2378 0.950 . S
H2353 C2380 0.950 . S
H2354 C2383 0.950 . S
H2355 C2384 0.950 . S
H2356 C2386 0.950 . S
H2357 C2387 0.950 . S
C2358 H2340 0.951 . S
C2358 C2359 1.366 . S
C2358 C2360 1.388 . S
C2359 C2358 1.366 . S
C2359 C2363 1.385 . S
C2360 H2341 0.951 . S
C2360 C2358 1.388 . S
C2360 C2361 1.366 . S
C2361 C2360 1.366 . S
C2361 C2362 1.414 . S
C2361 C2364 1.499 . S
C2362 H2342 0.950 . S
C2362 C2361 1.414 . S
C2362 C2363 1.374 . S
C2363 H2343 0.950 . S
C2363 C2359 1.385 . S
C2363 C2362 1.374 . S
C2364 C2361 1.499 . S
C2364 C2365 1.373 . S
C2364 C2366 1.389 . S
C2365 H2344 0.950 . S
C2365 C2364 1.373 . S
C2365 C2381 1.377 1_455 S
C2366 C2364 1.389 . S
C2366 C2367 1.524 . S
C2366 C2380 1.377 1_455 S
C2367 C2366 1.524 . S
C2367 C2368 1.397 . S
C2367 C2372 1.363 . S
C2368 H2345 0.950 . S
C2368 C2367 1.397 . S
C2368 C2369 1.334 . S
C2369 H2346 0.950 . S
C2369 C2368 1.334 . S
C2369 C2370 1.287 . S
C2370 C2369 1.287 . S
C2370 C2371 1.524 . S
C2370 H2389 0.913 . S
C2371 H2347 0.950 . S
C2371 C2370 1.524 . S
C2371 C2372 1.415 . S
C2372 H2348 0.950 . S
C2372 C2367 1.363 . S
C2372 C2371 1.415 . S
C2373 H2349 0.951 . S
C2373 C2374 1.366 . S
C2373 C2375 1.388 . S
C2374 C2373 1.366 . S
C2374 C2378 1.385 . S
C2375 H2350 0.951 . S
C2375 C2373 1.388 . S
C2375 C2376 1.366 . S
C2376 C2375 1.366 . S
C2376 C2377 1.414 . S
C2376 C2379 1.499 . S
C2377 H2351 0.950 . S
C2377 C2376 1.414 . S
C2377 C2378 1.374 . S
C2378 H2352 0.950 . S
C2378 C2374 1.385 . S
C2378 C2377 1.374 . S
C2379 C2376 1.499 . S
C2379 C2380 1.373 . S
C2379 C2381 1.389 . S
C2380 H2353 0.950 . S
C2380 C2366 1.377 1_655 S
C2380 C2379 1.373 . S
C2381 C2365 1.377 1_655 S
C2381 C2379 1.389 . S
C2381 C2382 1.524 . S
C2382 C2381 1.524 . S
C2382 C2383 1.397 . S
C2382 C2387 1.363 . S
C2383 H2354 0.950 . S
C2383 C2382 1.397 . S
C2383 C2384 1.334 . S
C2384 H2355 0.950 . S
C2384 C2383 1.334 . S
C2384 C2385 1.287 . S
C2385 C2384 1.287 . S
C2385 C2386 1.524 . S
C2385 H2388 0.999 . S
C2386 H2356 0.950 . S
C2386 C2385 1.524 . S
C2386 C2387 1.415 . S
C2387 H2357 0.950 . S
C2387 C2382 1.363 . S
C2387 C2386 1.415 . S
H2388 C2385 0.999 . S
H2389 C2370 0.913 . S
H2390 C2408 0.951 . S
H2391 C2410 0.951 . S
H2392 C2412 0.950 . S
H2393 C2413 0.950 . S
H2394 C2415 0.950 . S
H2395 C2418 0.950 . S
H2396 C2419 0.950 . S
H2397 C2421 0.950 . S
H2398 C2422 0.950 . S
H2399 C2423 0.951 . S
H2400 C2425 0.951 . S
H2401 C2427 0.950 . S
H2402 C2428 0.950 . S
H2403 C2430 0.950 . S
H2404 C2433 0.950 . S
H2405 C2434 0.950 . S
H2406 C2436 0.950 . S
H2407 C2437 0.950 . S
C2408 H2390 0.951 . S
C2408 C2409 1.366 . S
C2408 C2410 1.388 . S
C2409 C2408 1.366 . S
C2409 C2413 1.385 . S
C2410 H2391 0.951 . S
C2410 C2408 1.388 . S
C2410 C2411 1.366 . S
C2411 C2410 1.366 . S
C2411 C2412 1.414 . S
C2411 C2414 1.499 . S
C2412 H2392 0.950 . S
C2412 C2411 1.414 . S
C2412 C2413 1.374 . S
C2413 H2393 0.950 . S
C2413 C2409 1.385 . S
C2413 C2412 1.374 . S
C2414 C2411 1.499 . S
C2414 C2415 1.373 . S
C2414 C2416 1.389 . S
C2415 H2394 0.950 . S
C2415 C2414 1.373 . S
C2415 C2431 1.377 . S
C2416 C2414 1.389 . S
C2416 C2417 1.524 . S
C2416 C2430 1.377 . S
C2417 C2416 1.524 . S
C2417 C2418 1.397 . S
C2417 C2422 1.363 . S
C2418 H2395 0.950 . S
C2418 C2417 1.397 . S
C2418 C2419 1.334 . S
C2419 H2396 0.950 . S
C2419 C2418 1.334 . S
C2419 C2420 1.287 . S
C2420 C2419 1.287 . S
C2420 C2421 1.524 . S
C2420 H2439 0.913 . S
C2421 H2397 0.950 . S
C2421 C2420 1.524 . S
C2421 C2422 1.415 . S
C2422 H2398 0.950 . S
C2422 C2417 1.363 . S
C2422 C2421 1.415 . S
C2423 H2399 0.951 . S
C2423 C2424 1.366 . S
C2423 C2425 1.388 . S
C2424 C2423 1.366 . S
C2424 C2428 1.385 . S
C2425 H2400 0.951 . S
C2425 C2423 1.388 . S
C2425 C2426 1.366 . S
C2426 C2425 1.366 . S
C2426 C2427 1.414 . S
C2426 C2429 1.499 . S
C2427 H2401 0.950 . S
C2427 C2426 1.414 . S
C2427 C2428 1.374 . S
C2428 H2402 0.950 . S
C2428 C2424 1.385 . S
C2428 C2427 1.374 . S
C2429 C2426 1.499 . S
C2429 C2430 1.373 . S
C2429 C2431 1.389 . S
C2430 H2403 0.950 . S
C2430 C2416 1.377 . S
C2430 C2429 1.373 . S
C2431 C2415 1.377 . S
C2431 C2429 1.389 . S
C2431 C2432 1.524 . S
C2432 C2431 1.524 . S
C2432 C2433 1.397 . S
C2432 C2437 1.363 . S
C2433 H2404 0.950 . S
C2433 C2432 1.397 . S
C2433 C2434 1.334 . S
C2434 H2405 0.950 . S
C2434 C2433 1.334 . S
C2434 C2435 1.287 . S
C2435 C2434 1.287 . S
C2435 C2436 1.524 . S
C2435 H2438 0.999 . S
C2436 H2406 0.950 . S
C2436 C2435 1.524 . S
C2436 C2437 1.415 . S
C2437 H2407 0.950 . S
C2437 C2432 1.363 . S
C2437 C2436 1.415 . S
H2438 C2435 0.999 . S
H2439 C2420 0.913 . S
H2440 C2458 0.951 . S
H2441 C2460 0.951 . S
H2442 C2462 0.950 . S
H2443 C2463 0.950 . S
H2444 C2465 0.950 . S
H2445 C2468 0.950 . S
H2446 C2469 0.950 . S
H2447 C2471 0.950 . S
H2448 C2472 0.950 1_565 S
H2449 C2473 0.951 . S
H2450 C2475 0.951 . S
H2451 C2477 0.950 . S
H2452 C2478 0.950 . S
H2453 C2480 0.950 . S
H2454 C2483 0.950 . S
H2455 C2484 0.950 . S
H2456 C2486 0.950 . S
H2457 C2487 0.950 1_545 S
C2458 H2440 0.951 . S
C2458 C2459 1.366 . S
C2458 C2460 1.388 . S
C2459 C2458 1.366 . S
C2459 C2463 1.385 . S
C2460 H2441 0.951 . S
C2460 C2458 1.388 . S
C2460 C2461 1.366 . S
C2461 C2460 1.366 . S
C2461 C2462 1.414 . S
C2461 C2464 1.499 . S
C2462 H2442 0.950 . S
C2462 C2461 1.414 . S
C2462 C2463 1.374 . S
C2463 H2443 0.950 . S
C2463 C2459 1.385 . S
C2463 C2462 1.374 . S
C2464 C2461 1.499 . S
C2464 C2465 1.373 . S
C2464 C2466 1.389 . S
C2465 H2444 0.950 . S
C2465 C2464 1.373 . S
C2465 C2481 1.377 1_545 S
C2466 C2464 1.389 . S
C2466 C2467 1.524 . S
C2466 C2480 1.377 1_545 S
C2467 C2466 1.524 . S
C2467 C2468 1.397 . S
C2467 C2472 1.363 . S
C2468 H2445 0.950 . S
C2468 C2467 1.397 . S
C2468 C2469 1.334 . S
C2469 H2446 0.950 . S
C2469 C2468 1.334 . S
C2469 C2470 1.287 . S
C2470 C2469 1.287 . S
C2470 C2471 1.524 . S
C2470 H2489 0.913 . S
C2471 H2447 0.950 . S
C2471 C2470 1.524 . S
C2471 C2472 1.415 . S
C2472 H2448 0.950 1_545 S
C2472 C2467 1.363 . S
C2472 C2471 1.415 . S
C2473 H2449 0.951 . S
C2473 C2474 1.366 . S
C2473 C2475 1.388 . S
C2474 C2473 1.366 . S
C2474 C2478 1.385 . S
C2475 H2450 0.951 . S
C2475 C2473 1.388 . S
C2475 C2476 1.366 . S
C2476 C2475 1.366 . S
C2476 C2477 1.414 . S
C2476 C2479 1.499 . S
C2477 H2451 0.950 . S
C2477 C2476 1.414 . S
C2477 C2478 1.374 . S
C2478 H2452 0.950 . S
C2478 C2474 1.385 . S
C2478 C2477 1.374 . S
C2479 C2476 1.499 . S
C2479 C2480 1.373 . S
C2479 C2481 1.389 . S
C2480 H2453 0.950 . S
C2480 C2466 1.377 1_565 S
C2480 C2479 1.373 . S
C2481 C2465 1.377 1_565 S
C2481 C2479 1.389 . S
C2481 C2482 1.524 . S
C2482 C2481 1.524 . S
C2482 C2483 1.397 . S
C2482 C2487 1.363 . S
C2483 H2454 0.950 . S
C2483 C2482 1.397 . S
C2483 C2484 1.334 . S
C2484 H2455 0.950 . S
C2484 C2483 1.334 . S
C2484 C2485 1.287 . S
C2485 C2484 1.287 . S
C2485 C2486 1.524 . S
C2485 H2488 0.999 . S
C2486 H2456 0.950 . S
C2486 C2485 1.524 . S
C2486 C2487 1.415 . S
C2487 H2457 0.950 1_565 S
C2487 C2482 1.363 . S
C2487 C2486 1.415 . S
H2488 C2485 0.999 . S
H2489 C2470 0.913 . S
H2490 C2508 0.951 . S
H2491 C2510 0.951 . S
H2492 C2512 0.950 . S
H2493 C2513 0.950 . S
H2494 C2515 0.950 . S
H2495 C2518 0.950 . S
H2496 C2519 0.950 . S
H2497 C2521 0.950 . S
H2498 C2522 0.950 . S
H2499 C2523 0.951 . S
H2500 C2525 0.951 . S
H2501 C2527 0.950 . S
H2502 C2528 0.950 . S
H2503 C2530 0.950 . S
H2504 C2533 0.950 . S
H2505 C2534 0.950 . S
H2506 C2536 0.950 . S
H2507 C2537 0.950 . S
C2508 H2490 0.951 . S
C2508 C2509 1.366 . S
C2508 C2510 1.388 . S
C2509 C2508 1.366 . S
C2509 C2513 1.385 . S
C2510 H2491 0.951 . S
C2510 C2508 1.388 . S
C2510 C2511 1.366 . S
C2511 C2510 1.366 . S
C2511 C2512 1.414 . S
C2511 C2514 1.499 . S
C2512 H2492 0.950 . S
C2512 C2511 1.414 . S
C2512 C2513 1.374 . S
C2513 H2493 0.950 . S
C2513 C2509 1.385 . S
C2513 C2512 1.374 . S
C2514 C2511 1.499 . S
C2514 C2515 1.373 . S
C2514 C2516 1.389 . S
C2515 H2494 0.950 . S
C2515 C2514 1.373 . S
C2515 C2531 1.377 1_455 S
C2516 C2514 1.389 . S
C2516 C2517 1.524 . S
C2516 C2530 1.377 1_455 S
C2517 C2516 1.524 . S
C2517 C2518 1.397 . S
C2517 C2522 1.363 . S
C2518 H2495 0.950 . S
C2518 C2517 1.397 . S
C2518 C2519 1.334 . S
C2519 H2496 0.950 . S
C2519 C2518 1.334 . S
C2519 C2520 1.287 . S
C2520 C2519 1.287 . S
C2520 C2521 1.524 . S
C2520 H2539 0.913 . S
C2521 H2497 0.950 . S
C2521 C2520 1.524 . S
C2521 C2522 1.415 . S
C2522 H2498 0.950 . S
C2522 C2517 1.363 . S
C2522 C2521 1.415 . S
C2523 H2499 0.951 . S
C2523 C2524 1.366 . S
C2523 C2525 1.388 . S
C2524 C2523 1.366 . S
C2524 C2528 1.385 . S
C2525 H2500 0.951 . S
C2525 C2523 1.388 . S
C2525 C2526 1.366 . S
C2526 C2525 1.366 . S
C2526 C2527 1.414 . S
C2526 C2529 1.499 . S
C2527 H2501 0.950 . S
C2527 C2526 1.414 . S
C2527 C2528 1.374 . S
C2528 H2502 0.950 . S
C2528 C2524 1.385 . S
C2528 C2527 1.374 . S
C2529 C2526 1.499 . S
C2529 C2530 1.373 . S
C2529 C2531 1.389 . S
C2530 H2503 0.950 . S
C2530 C2516 1.377 1_655 S
C2530 C2529 1.373 . S
C2531 C2515 1.377 1_655 S
C2531 C2529 1.389 . S
C2531 C2532 1.524 . S
C2532 C2531 1.524 . S
C2532 C2533 1.397 . S
C2532 C2537 1.363 . S
C2533 H2504 0.950 . S
C2533 C2532 1.397 . S
C2533 C2534 1.334 . S
C2534 H2505 0.950 . S
C2534 C2533 1.334 . S
C2534 C2535 1.287 . S
C2535 C2534 1.287 . S
C2535 C2536 1.524 . S
C2535 H2538 0.999 . S
C2536 H2506 0.950 . S
C2536 C2535 1.524 . S
C2536 C2537 1.415 . S
C2537 H2507 0.950 . S
C2537 C2532 1.363 . S
C2537 C2536 1.415 . S
H2538 C2535 0.999 . S
H2539 C2520 0.913 . S
H2540 C2558 0.951 . S
H2541 C2560 0.951 . S
H2542 C2562 0.950 . S
H2543 C2563 0.950 . S
H2544 C2565 0.950 . S
H2545 C2568 0.950 . S
H2546 C2569 0.950 . S
H2547 C2571 0.950 . S
H2548 C2572 0.950 . S
H2549 C2573 0.951 . S
H2550 C2575 0.951 . S
H2551 C2577 0.950 . S
H2552 C2578 0.950 . S
H2553 C2580 0.950 . S
H2554 C2583 0.950 . S
H2555 C2584 0.950 . S
H2556 C2586 0.950 . S
H2557 C2587 0.950 . S
C2558 H2540 0.951 . S
C2558 C2559 1.366 . S
C2558 C2560 1.388 . S
C2559 C2558 1.366 . S
C2559 C2563 1.385 . S
C2560 H2541 0.951 . S
C2560 C2558 1.388 . S
C2560 C2561 1.366 . S
C2561 C2560 1.366 . S
C2561 C2562 1.414 . S
C2561 C2564 1.499 . S
C2562 H2542 0.950 . S
C2562 C2561 1.414 . S
C2562 C2563 1.374 . S
C2563 H2543 0.950 . S
C2563 C2559 1.385 . S
C2563 C2562 1.374 . S
C2564 C2561 1.499 . S
C2564 C2565 1.373 . S
C2564 C2566 1.389 . S
C2565 H2544 0.950 . S
C2565 C2564 1.373 . S
C2565 C2581 1.377 . S
C2566 C2564 1.389 . S
C2566 C2567 1.524 . S
C2566 C2580 1.377 . S
C2567 C2566 1.524 . S
C2567 C2568 1.397 . S
C2567 C2572 1.363 . S
C2568 H2545 0.950 . S
C2568 C2567 1.397 . S
C2568 C2569 1.334 . S
C2569 H2546 0.950 . S
C2569 C2568 1.334 . S
C2569 C2570 1.287 . S
C2570 C2569 1.287 . S
C2570 C2571 1.524 . S
C2570 H2589 0.913 . S
C2571 H2547 0.950 . S
C2571 C2570 1.524 . S
C2571 C2572 1.415 . S
C2572 H2548 0.950 . S
C2572 C2567 1.363 . S
C2572 C2571 1.415 . S
C2573 H2549 0.951 . S
C2573 C2574 1.366 . S
C2573 C2575 1.388 . S
C2574 C2573 1.366 . S
C2574 C2578 1.385 . S
C2575 H2550 0.951 . S
C2575 C2573 1.388 . S
C2575 C2576 1.366 . S
C2576 C2575 1.366 . S
C2576 C2577 1.414 . S
C2576 C2579 1.499 . S
C2577 H2551 0.950 . S
C2577 C2576 1.414 . S
C2577 C2578 1.374 . S
C2578 H2552 0.950 . S
C2578 C2574 1.385 . S
C2578 C2577 1.374 . S
C2579 C2576 1.499 . S
C2579 C2580 1.373 . S
C2579 C2581 1.389 . S
C2580 H2553 0.950 . S
C2580 C2566 1.377 . S
C2580 C2579 1.373 . S
C2581 C2565 1.377 . S
C2581 C2579 1.389 . S
C2581 C2582 1.524 . S
C2582 C2581 1.524 . S
C2582 C2583 1.397 . S
C2582 C2587 1.363 . S
C2583 H2554 0.950 . S
C2583 C2582 1.397 . S
C2583 C2584 1.334 . S
C2584 H2555 0.950 . S
C2584 C2583 1.334 . S
C2584 C2585 1.287 . S
C2585 C2584 1.287 . S
C2585 C2586 1.524 . S
C2585 H2588 0.999 . S
C2586 H2556 0.950 . S
C2586 C2585 1.524 . S
C2586 C2587 1.415 . S
C2587 H2557 0.950 . S
C2587 C2582 1.363 . S
C2587 C2586 1.415 . S
H2588 C2585 0.999 . S
H2589 C2570 0.913 . S
H2590 C2608 0.951 . S
H2591 C2610 0.951 . S
H2592 C2612 0.950 . S
H2593 C2613 0.950 . S
H2594 C2615 0.950 . S
H2595 C2618 0.950 . S
H2596 C2619 0.950 . S
H2597 C2621 1.015 . S
H2598 C2622 0.950 1_545 S
H2599 C2623 0.951 . S
H2600 C2625 0.951 . S
H2601 C2627 0.950 . S
H2602 C2628 0.950 . S
H2603 C2630 0.950 . S
H2604 C2633 0.950 . S
H2605 C2634 0.950 . S
H2606 C2636 1.015 . S
H2607 C2637 0.950 1_565 S
C2608 H2590 0.951 . S
C2608 C2609 1.366 . S
C2608 C2610 1.388 . S
C2609 C2608 1.366 . S
C2609 C2613 1.385 . S
C2610 H2591 0.951 . S
C2610 C2608 1.388 . S
C2610 C2611 1.366 . S
C2611 C2610 1.366 . S
C2611 C2612 1.414 . S
C2611 C2614 1.499 . S
C2612 H2592 0.950 . S
C2612 C2611 1.414 . S
C2612 C2613 1.374 . S
C2613 H2593 0.950 . S
C2613 C2609 1.385 . S
C2613 C2612 1.374 . S
C2614 C2611 1.499 . S
C2614 C2615 1.373 . S
C2614 C2616 1.389 . S
C2615 H2594 0.950 . S
C2615 C2614 1.373 . S
C2615 C2631 1.377 1_565 S
C2616 C2614 1.389 . S
C2616 C2617 1.524 . S
C2616 C2630 1.377 1_565 S
C2617 C2616 1.524 . S
C2617 C2618 1.397 . S
C2617 C2622 1.363 . S
C2618 H2595 0.950 . S
C2618 C2617 1.397 . S
C2618 C2619 1.334 . S
C2619 H2596 0.950 . S
C2619 C2618 1.334 . S
C2619 C2620 1.287 . S
C2620 C2619 1.287 . S
C2620 C2621 1.524 . S
C2620 H2639 0.913 . S
C2621 H2597 1.015 . S
C2621 C2620 1.524 . S
C2621 C2622 1.415 . S
C2622 H2598 0.950 1_565 S
C2622 C2617 1.363 . S
C2622 C2621 1.415 . S
C2623 H2599 0.951 . S
C2623 C2624 1.366 . S
C2623 C2625 1.388 . S
C2624 C2623 1.366 . S
C2624 C2628 1.385 . S
C2625 H2600 0.951 . S
C2625 C2623 1.388 . S
C2625 C2626 1.366 . S
C2626 C2625 1.366 . S
C2626 C2627 1.414 . S
C2626 C2629 1.499 . S
C2627 H2601 0.950 . S
C2627 C2626 1.414 . S
C2627 C2628 1.374 . S
C2628 H2602 0.950 . S
C2628 C2624 1.385 . S
C2628 C2627 1.374 . S
C2629 C2626 1.499 . S
C2629 C2630 1.373 . S
C2629 C2631 1.389 . S
C2630 H2603 0.950 . S
C2630 C2616 1.377 1_545 S
C2630 C2629 1.373 . S
C2631 C2615 1.377 1_545 S
C2631 C2629 1.389 . S
C2631 C2632 1.524 . S
C2632 C2631 1.524 . S
C2632 C2633 1.397 . S
C2632 C2637 1.363 . S
C2633 H2604 0.950 . S
C2633 C2632 1.397 . S
C2633 C2634 1.334 . S
C2634 H2605 0.950 . S
C2634 C2633 1.334 . S
C2634 C2635 1.287 . S
C2635 C2634 1.287 . S
C2635 C2636 1.524 . S
C2635 H2638 0.999 . S
C2636 H2606 1.015 . S
C2636 C2635 1.524 . S
C2636 C2637 1.415 . S
C2637 H2607 0.950 1_545 S
C2637 C2632 1.363 . S
C2637 C2636 1.415 . S
H2638 C2635 0.999 . S
H2639 C2620 0.913 . S
H2640 C2658 0.951 . S
H2641 C2660 0.951 . S
H2642 C2662 0.950 . S
H2643 C2663 0.950 . S
H2644 C2665 0.950 . S
H2645 C2668 0.950 . S
H2646 C2669 0.950 . S
H2647 C2671 0.950 . S
H2648 C2672 0.950 . S
H2649 C2673 0.951 . S
H2650 C2675 0.951 . S
H2651 C2677 0.950 . S
H2652 C2678 0.950 . S
H2653 C2680 0.950 . S
H2654 C2683 0.950 . S
H2655 C2684 0.950 . S
H2656 C2686 0.950 . S
H2657 C2687 0.950 . S
C2658 H2640 0.951 . S
C2658 C2659 1.366 . S
C2658 C2660 1.388 . S
C2659 C2658 1.366 . S
C2659 C2663 1.385 . S
C2660 H2641 0.951 . S
C2660 C2658 1.388 . S
C2660 C2661 1.366 . S
C2661 C2660 1.366 . S
C2661 C2662 1.414 . S
C2661 C2664 1.499 . S
C2662 H2642 0.950 . S
C2662 C2661 1.414 . S
C2662 C2663 1.374 . S
C2663 H2643 0.950 . S
C2663 C2659 1.385 . S
C2663 C2662 1.374 . S
C2664 C2661 1.499 . S
C2664 C2665 1.373 . S
C2664 C2666 1.389 . S
C2665 H2644 0.950 . S
C2665 C2664 1.373 . S
C2665 C2681 1.377 . S
C2666 C2664 1.389 . S
C2666 C2667 1.524 . S
C2666 C2680 1.377 . S
C2667 C2666 1.524 . S
C2667 C2668 1.397 . S
C2667 C2672 1.363 . S
C2668 H2645 0.950 . S
C2668 C2667 1.397 . S
C2668 C2669 1.334 . S
C2669 H2646 0.950 . S
C2669 C2668 1.334 . S
C2669 C2670 1.287 . S
C2670 C2669 1.287 . S
C2670 C2671 1.524 . S
C2670 H2689 0.913 . S
C2671 H2647 0.950 . S
C2671 C2670 1.524 . S
C2671 C2672 1.415 . S
C2672 H2648 0.950 . S
C2672 C2667 1.363 . S
C2672 C2671 1.415 . S
C2673 H2649 0.951 . S
C2673 C2674 1.366 . S
C2673 C2675 1.388 . S
C2674 C2673 1.366 . S
C2674 C2678 1.385 . S
C2675 H2650 0.951 . S
C2675 C2673 1.388 . S
C2675 C2676 1.366 . S
C2676 C2675 1.366 . S
C2676 C2677 1.414 . S
C2676 C2679 1.499 . S
C2677 H2651 0.950 . S
C2677 C2676 1.414 . S
C2677 C2678 1.374 . S
C2678 H2652 0.950 . S
C2678 C2674 1.385 . S
C2678 C2677 1.374 . S
C2679 C2676 1.499 . S
C2679 C2680 1.373 . S
C2679 C2681 1.389 . S
C2680 H2653 0.950 . S
C2680 C2666 1.377 . S
C2680 C2679 1.373 . S
C2681 C2665 1.377 . S
C2681 C2679 1.389 . S
C2681 C2682 1.524 . S
C2682 C2681 1.524 . S
C2682 C2683 1.397 . S
C2682 C2687 1.363 . S
C2683 H2654 0.950 . S
C2683 C2682 1.397 . S
C2683 C2684 1.334 . S
C2684 H2655 0.950 . S
C2684 C2683 1.334 . S
C2684 C2685 1.287 . S
C2685 C2684 1.287 . S
C2685 C2686 1.524 . S
C2685 H2688 0.999 . S
C2686 H2656 0.950 . S
C2686 C2685 1.524 . S
C2686 C2687 1.415 . S
C2687 H2657 0.950 . S
C2687 C2682 1.363 . S
C2687 C2686 1.415 . S
H2688 C2685 0.999 . S
H2689 C2670 0.913 . S
H2690 C2708 0.951 . S
H2691 C2710 0.951 . S
H2692 C2712 0.950 . S
H2693 C2713 0.950 . S
H2694 C2715 0.950 . S
H2695 C2718 0.950 . S
H2696 C2719 0.950 . S
H2697 C2721 0.950 . S
H2698 C2722 0.950 . S
H2699 C2723 0.951 . S
H2700 C2725 0.951 . S
H2701 C2727 0.950 . S
H2702 C2728 0.950 . S
H2703 C2730 0.950 . S
H2704 C2733 0.950 . S
H2705 C2734 0.950 . S
H2706 C2736 0.950 . S
H2707 C2737 0.950 . S
C2708 H2690 0.951 . S
C2708 C2709 1.366 . S
C2708 C2710 1.388 . S
C2709 C2708 1.366 . S
C2709 C2713 1.385 . S
C2710 H2691 0.951 . S
C2710 C2708 1.388 . S
C2710 C2711 1.366 . S
C2711 C2710 1.366 . S
C2711 C2712 1.414 . S
C2711 C2714 1.499 . S
C2712 H2692 0.950 . S
C2712 C2711 1.414 . S
C2712 C2713 1.374 . S
C2713 H2693 0.950 . S
C2713 C2709 1.385 . S
C2713 C2712 1.374 . S
C2714 C2711 1.499 . S
C2714 C2715 1.373 . S
C2714 C2716 1.389 . S
C2715 H2694 0.950 . S
C2715 C2714 1.373 . S
C2715 C2731 1.377 . S
C2716 C2714 1.389 . S
C2716 C2717 1.524 . S
C2716 C2730 1.377 . S
C2717 C2716 1.524 . S
C2717 C2718 1.397 . S
C2717 C2722 1.363 . S
C2718 H2695 0.950 . S
C2718 C2717 1.397 . S
C2718 C2719 1.334 . S
C2719 H2696 0.950 . S
C2719 C2718 1.334 . S
C2719 C2720 1.287 . S
C2720 C2719 1.287 . S
C2720 C2721 1.524 . S
C2720 H2739 0.913 . S
C2721 H2697 0.950 . S
C2721 C2720 1.524 . S
C2721 C2722 1.415 . S
C2722 H2698 0.950 . S
C2722 C2717 1.363 . S
C2722 C2721 1.415 . S
C2723 H2699 0.951 . S
C2723 C2724 1.366 . S
C2723 C2725 1.388 . S
C2724 C2723 1.366 . S
C2724 C2728 1.385 . S
C2725 H2700 0.951 . S
C2725 C2723 1.388 . S
C2725 C2726 1.366 . S
C2726 C2725 1.366 . S
C2726 C2727 1.414 . S
C2726 C2729 1.499 . S
C2727 H2701 0.950 . S
C2727 C2726 1.414 . S
C2727 C2728 1.374 . S
C2728 H2702 0.950 . S
C2728 C2724 1.385 . S
C2728 C2727 1.374 . S
C2729 C2726 1.499 . S
C2729 C2730 1.373 . S
C2729 C2731 1.389 . S
C2730 H2703 0.950 . S
C2730 C2716 1.377 . S
C2730 C2729 1.373 . S
C2731 C2715 1.377 . S
C2731 C2729 1.389 . S
C2731 C2732 1.524 . S
C2732 C2731 1.524 . S
C2732 C2733 1.397 . S
C2732 C2737 1.363 . S
C2733 H2704 0.950 . S
C2733 C2732 1.397 . S
C2733 C2734 1.334 . S
C2734 H2705 0.950 . S
C2734 C2733 1.334 . S
C2734 C2735 1.287 . S
C2735 C2734 1.287 . S
C2735 C2736 1.524 . S
C2735 H2738 0.999 . S
C2736 H2706 0.950 . S
C2736 C2735 1.524 . S
C2736 C2737 1.415 . S
C2737 H2707 0.950 . S
C2737 C2732 1.363 . S
C2737 C2736 1.415 . S
H2738 C2735 0.999 . S
H2739 C2720 0.913 . S
H2740 C2758 0.951 . S
H2741 C2760 0.951 . S
H2742 C2762 0.950 . S
H2743 C2763 0.950 . S
H2744 C2765 0.950 . S
H2745 C2768 0.950 . S
H2746 C2769 0.950 . S
H2747 C2771 0.950 . S
H2748 C2772 0.950 . S
H2749 C2773 0.951 . S
H2750 C2775 0.951 . S
H2751 C2777 0.950 . S
H2752 C2778 0.950 . S
H2753 C2780 0.950 . S
H2754 C2783 0.950 . S
H2755 C2784 0.950 . S
H2756 C2786 0.950 . S
H2757 C2787 0.950 . S
C2758 H2740 0.951 . S
C2758 C2759 1.366 . S
C2758 C2760 1.388 . S
C2759 C2758 1.366 . S
C2759 C2763 1.385 . S
C2760 H2741 0.951 . S
C2760 C2758 1.388 . S
C2760 C2761 1.366 . S
C2761 C2760 1.366 . S
C2761 C2762 1.414 . S
C2761 C2764 1.499 . S
C2762 H2742 0.950 . S
C2762 C2761 1.414 . S
C2762 C2763 1.374 . S
C2763 H2743 0.950 . S
C2763 C2759 1.385 . S
C2763 C2762 1.374 . S
C2764 C2761 1.499 . S
C2764 C2765 1.373 . S
C2764 C2766 1.389 . S
C2765 H2744 0.950 . S
C2765 C2764 1.373 . S
C2765 C2781 1.377 . S
C2766 C2764 1.389 . S
C2766 C2767 1.524 . S
C2766 C2780 1.377 . S
C2767 C2766 1.524 . S
C2767 C2768 1.397 . S
C2767 C2772 1.363 . S
C2768 H2745 0.950 . S
C2768 C2767 1.397 . S
C2768 C2769 1.334 . S
C2769 H2746 0.950 . S
C2769 C2768 1.334 . S
C2769 C2770 1.287 . S
C2770 C2769 1.287 . S
C2770 C2771 1.524 . S
C2770 H2789 0.913 . S
C2771 H2747 0.950 . S
C2771 C2770 1.524 . S
C2771 C2772 1.415 . S
C2772 H2748 0.950 . S
C2772 C2767 1.363 . S
C2772 C2771 1.415 . S
C2773 H2749 0.951 . S
C2773 C2774 1.366 . S
C2773 C2775 1.388 . S
C2774 C2773 1.366 . S
C2774 C2778 1.385 . S
C2775 H2750 0.951 . S
C2775 C2773 1.388 . S
C2775 C2776 1.366 . S
C2776 C2775 1.366 . S
C2776 C2777 1.414 . S
C2776 C2779 1.499 . S
C2777 H2751 0.950 . S
C2777 C2776 1.414 . S
C2777 C2778 1.374 . S
C2778 H2752 0.950 . S
C2778 C2774 1.385 . S
C2778 C2777 1.374 . S
C2779 C2776 1.499 . S
C2779 C2780 1.373 . S
C2779 C2781 1.389 . S
C2780 H2753 0.950 . S
C2780 C2766 1.377 . S
C2780 C2779 1.373 . S
C2781 C2765 1.377 . S
C2781 C2779 1.389 . S
C2781 C2782 1.524 . S
C2782 C2781 1.524 . S
C2782 C2783 1.397 . S
C2782 C2787 1.363 . S
C2783 H2754 0.950 . S
C2783 C2782 1.397 . S
C2783 C2784 1.334 . S
C2784 H2755 0.950 . S
C2784 C2783 1.334 . S
C2784 C2785 1.287 . S
C2785 C2784 1.287 . S
C2785 C2786 1.524 . S
C2785 H2788 0.999 . S
C2786 H2756 0.950 . S
C2786 C2785 1.524 . S
C2786 C2787 1.415 . S
C2787 H2757 0.950 . S
C2787 C2782 1.363 . S
C2787 C2786 1.415 . S
H2788 C2785 0.999 . S
H2789 C2770 0.913 . S
H2790 C2808 0.951 . S
H2791 C2810 0.951 . S
H2792 C2812 0.950 . S
H2793 C2813 0.950 . S
H2794 C2815 0.950 . S
H2795 C2818 0.950 . S
H2796 C2819 0.950 . S
H2797 C2821 0.950 . S
H2798 C2822 0.950 . S
H2799 C2823 0.951 . S
H2800 C2825 0.951 . S
H2801 C2827 0.950 . S
H2802 C2828 0.950 . S
H2803 C2830 0.950 . S
H2804 C2833 0.950 . S
H2805 C2834 0.950 . S
H2806 C2836 0.950 . S
H2807 C2837 0.950 . S
C2808 H2790 0.951 . S
C2808 C2809 1.366 . S
C2808 C2810 1.388 . S
C2809 C2808 1.366 . S
C2809 C2813 1.385 . S
C2810 H2791 0.951 . S
C2810 C2808 1.388 . S
C2810 C2811 1.366 . S
C2811 C2810 1.366 . S
C2811 C2812 1.414 . S
C2811 C2814 1.499 . S
C2812 H2792 0.950 . S
C2812 C2811 1.414 . S
C2812 C2813 1.374 . S
C2813 H2793 0.950 . S
C2813 C2809 1.385 . S
C2813 C2812 1.374 . S
C2814 C2811 1.499 . S
C2814 C2815 1.373 . S
C2814 C2816 1.389 . S
C2815 H2794 0.950 . S
C2815 C2814 1.373 . S
C2815 C2831 1.377 . S
C2816 C2814 1.389 . S
C2816 C2817 1.524 . S
C2816 C2830 1.377 . S
C2817 C2816 1.524 . S
C2817 C2818 1.397 . S
C2817 C2822 1.363 . S
C2818 H2795 0.950 . S
C2818 C2817 1.397 . S
C2818 C2819 1.334 . S
C2819 H2796 0.950 . S
C2819 C2818 1.334 . S
C2819 C2820 1.287 . S
C2820 C2819 1.287 . S
C2820 C2821 1.524 . S
C2820 H2839 0.913 . S
C2821 H2797 0.950 . S
C2821 C2820 1.524 . S
C2821 C2822 1.415 . S
C2822 H2798 0.950 . S
C2822 C2817 1.363 . S
C2822 C2821 1.415 . S
C2823 H2799 0.951 . S
C2823 C2824 1.366 . S
C2823 C2825 1.388 . S
C2824 C2823 1.366 . S
C2824 C2828 1.385 . S
C2825 H2800 0.951 . S
C2825 C2823 1.388 . S
C2825 C2826 1.366 . S
C2826 C2825 1.366 . S
C2826 C2827 1.414 . S
C2826 C2829 1.499 . S
C2827 H2801 0.950 . S
C2827 C2826 1.414 . S
C2827 C2828 1.374 . S
C2828 H2802 0.950 . S
C2828 C2824 1.385 . S
C2828 C2827 1.374 . S
C2829 C2826 1.499 . S
C2829 C2830 1.373 . S
C2829 C2831 1.389 . S
C2830 H2803 0.950 . S
C2830 C2816 1.377 . S
C2830 C2829 1.373 . S
C2831 C2815 1.377 . S
C2831 C2829 1.389 . S
C2831 C2832 1.524 . S
C2832 C2831 1.524 . S
C2832 C2833 1.397 . S
C2832 C2837 1.363 . S
C2833 H2804 0.950 . S
C2833 C2832 1.397 . S
C2833 C2834 1.334 . S
C2834 H2805 0.950 . S
C2834 C2833 1.334 . S
C2834 C2835 1.287 . S
C2835 C2834 1.287 . S
C2835 C2836 1.524 . S
C2835 H2838 0.999 . S
C2836 H2806 0.950 . S
C2836 C2835 1.524 . S
C2836 C2837 1.415 . S
C2837 H2807 0.950 . S
C2837 C2832 1.363 . S
C2837 C2836 1.415 . S
H2838 C2835 0.999 . S
H2839 C2820 0.913 . S
H2840 C2858 0.951 . S
H2841 C2860 0.951 . S
H2842 C2862 0.950 . S
H2843 C2863 0.950 . S
H2844 C2865 0.950 . S
H2845 C2868 0.950 . S
H2846 C2869 0.950 . S
H2847 C2871 0.950 . S
H2848 C2872 0.950 . S
H2849 C2873 0.951 . S
H2850 C2875 0.951 . S
H2851 C2877 0.950 . S
H2852 C2878 0.950 . S
H2853 C2880 0.950 . S
H2854 C2883 0.950 . S
H2855 C2884 0.950 . S
H2856 C2886 0.950 . S
H2857 C2887 0.950 . S
C2858 H2840 0.951 . S
C2858 C2859 1.366 . S
C2858 C2860 1.388 . S
C2859 C2858 1.366 . S
C2859 C2863 1.385 . S
C2860 H2841 0.951 . S
C2860 C2858 1.388 . S
C2860 C2861 1.366 . S
C2861 C2860 1.366 . S
C2861 C2862 1.414 . S
C2861 C2864 1.499 . S
C2862 H2842 0.950 . S
C2862 C2861 1.414 . S
C2862 C2863 1.374 . S
C2863 H2843 0.950 . S
C2863 C2859 1.385 . S
C2863 C2862 1.374 . S
C2864 C2861 1.499 . S
C2864 C2865 1.373 . S
C2864 C2866 1.389 . S
C2865 H2844 0.950 . S
C2865 C2864 1.373 . S
C2865 C2881 1.377 . S
C2866 C2864 1.389 . S
C2866 C2867 1.524 . S
C2866 C2880 1.377 . S
C2867 C2866 1.524 . S
C2867 C2868 1.397 . S
C2867 C2872 1.363 . S
C2868 H2845 0.950 . S
C2868 C2867 1.397 . S
C2868 C2869 1.334 . S
C2869 H2846 0.950 . S
C2869 C2868 1.334 . S
C2869 C2870 1.287 . S
C2870 C2869 1.287 . S
C2870 C2871 1.524 . S
C2870 H2889 0.913 . S
C2871 H2847 0.950 . S
C2871 C2870 1.524 . S
C2871 C2872 1.415 . S
C2872 H2848 0.950 . S
C2872 C2867 1.363 . S
C2872 C2871 1.415 . S
C2873 H2849 0.951 . S
C2873 C2874 1.366 . S
C2873 C2875 1.388 . S
C2874 C2873 1.366 . S
C2874 C2878 1.385 . S
C2875 H2850 0.951 . S
C2875 C2873 1.388 . S
C2875 C2876 1.366 . S
C2876 C2875 1.366 . S
C2876 C2877 1.414 . S
C2876 C2879 1.499 . S
C2877 H2851 0.950 . S
C2877 C2876 1.414 . S
C2877 C2878 1.374 . S
C2878 H2852 0.950 . S
C2878 C2874 1.385 . S
C2878 C2877 1.374 . S
C2879 C2876 1.499 . S
C2879 C2880 1.373 . S
C2879 C2881 1.389 . S
C2880 H2853 0.950 . S
C2880 C2866 1.377 . S
C2880 C2879 1.373 . S
C2881 C2865 1.377 . S
C2881 C2879 1.389 . S
C2881 C2882 1.524 . S
C2882 C2881 1.524 . S
C2882 C2883 1.397 . S
C2882 C2887 1.363 . S
C2883 H2854 0.950 . S
C2883 C2882 1.397 . S
C2883 C2884 1.334 . S
C2884 H2855 0.950 . S
C2884 C2883 1.334 . S
C2884 C2885 1.287 . S
C2885 C2884 1.287 . S
C2885 C2886 1.524 . S
C2885 H2888 0.999 . S
C2886 H2856 0.950 . S
C2886 C2885 1.524 . S
C2886 C2887 1.415 . S
C2887 H2857 0.950 . S
C2887 C2882 1.363 . S
C2887 C2886 1.415 . S
H2888 C2885 0.999 . S
H2889 C2870 0.913 . S
H2890 C2908 0.951 . S
H2891 C2910 0.951 . S
H2892 C2912 0.950 . S
H2893 C2913 0.950 . S
H2894 C2915 0.950 . S
H2895 C2918 0.950 . S
H2896 C2919 0.950 . S
H2897 C2921 0.950 . S
H2898 C2922 0.950 . S
H2899 C2923 0.951 . S
H2900 C2925 0.951 . S
H2901 C2927 0.950 . S
H2902 C2928 0.950 . S
H2903 C2930 0.950 . S
H2904 C2933 0.950 . S
H2905 C2934 0.950 . S
H2906 C2936 0.950 . S
H2907 C2937 0.950 . S
C2908 H2890 0.951 . S
C2908 C2909 1.366 . S
C2908 C2910 1.388 . S
C2909 C2908 1.366 . S
C2909 C2913 1.385 . S
C2910 H2891 0.951 . S
C2910 C2908 1.388 . S
C2910 C2911 1.366 . S
C2911 C2910 1.366 . S
C2911 C2912 1.414 . S
C2911 C2914 1.499 . S
C2912 H2892 0.950 . S
C2912 C2911 1.414 . S
C2912 C2913 1.374 . S
C2913 H2893 0.950 . S
C2913 C2909 1.385 . S
C2913 C2912 1.374 . S
C2914 C2911 1.499 . S
C2914 C2915 1.373 . S
C2914 C2916 1.389 . S
C2915 H2894 0.950 . S
C2915 C2914 1.373 . S
C2915 C2931 1.377 . S
C2916 C2914 1.389 . S
C2916 C2917 1.524 . S
C2916 C2930 1.377 . S
C2917 C2916 1.524 . S
C2917 C2918 1.397 . S
C2917 C2922 1.363 . S
C2918 H2895 0.950 . S
C2918 C2917 1.397 . S
C2918 C2919 1.334 . S
C2919 H2896 0.950 . S
C2919 C2918 1.334 . S
C2919 C2920 1.287 . S
C2920 C2919 1.287 . S
C2920 C2921 1.524 . S
C2920 H2939 0.913 . S
C2921 H2897 0.950 . S
C2921 C2920 1.524 . S
C2921 C2922 1.415 . S
C2922 H2898 0.950 . S
C2922 C2917 1.363 . S
C2922 C2921 1.415 . S
C2923 H2899 0.951 . S
C2923 C2924 1.366 . S
C2923 C2925 1.388 . S
C2924 C2923 1.366 . S
C2924 C2928 1.385 . S
C2925 H2900 0.951 . S
C2925 C2923 1.388 . S
C2925 C2926 1.366 . S
C2926 C2925 1.366 . S
C2926 C2927 1.414 . S
C2926 C2929 1.499 . S
C2927 H2901 0.950 . S
C2927 C2926 1.414 . S
C2927 C2928 1.374 . S
C2928 H2902 0.950 . S
C2928 C2924 1.385 . S
C2928 C2927 1.374 . S
C2929 C2926 1.499 . S
C2929 C2930 1.373 . S
C2929 C2931 1.389 . S
C2930 H2903 0.950 . S
C2930 C2916 1.377 . S
C2930 C2929 1.373 . S
C2931 C2915 1.377 . S
C2931 C2929 1.389 . S
C2931 C2932 1.524 . S
C2932 C2931 1.524 . S
C2932 C2933 1.397 . S
C2932 C2937 1.363 . S
C2933 H2904 0.950 . S
C2933 C2932 1.397 . S
C2933 C2934 1.334 . S
C2934 H2905 0.950 . S
C2934 C2933 1.334 . S
C2934 C2935 1.287 . S
C2935 C2934 1.287 . S
C2935 C2936 1.524 . S
C2935 H2938 0.999 . S
C2936 H2906 0.950 . S
C2936 C2935 1.524 . S
C2936 C2937 1.415 . S
C2937 H2907 0.950 . S
C2937 C2932 1.363 . S
C2937 C2936 1.415 . S
H2938 C2935 0.999 . S
H2939 C2920 0.913 . S
H2940 C2958 0.951 . S
H2941 C2960 0.951 . S
H2942 C2962 0.950 . S
H2943 C2963 0.950 . S
H2944 C2965 0.950 . S
H2945 C2968 0.950 . S
H2946 C2969 0.950 . S
H2947 C2971 0.950 . S
H2948 C2972 0.950 . S
H2949 C2973 0.951 . S
H2950 C2975 0.951 . S
H2951 C2977 0.950 . S
H2952 C2978 0.950 . S
H2953 C2980 0.950 . S
H2954 C2983 0.950 . S
H2955 C2984 0.950 . S
H2956 C2986 0.950 . S
H2957 C2987 0.950 . S
C2958 H2940 0.951 . S
C2958 C2959 1.366 . S
C2958 C2960 1.388 . S
C2959 C2958 1.366 . S
C2959 C2963 1.385 . S
C2960 H2941 0.951 . S
C2960 C2958 1.388 . S
C2960 C2961 1.366 . S
C2961 C2960 1.366 . S
C2961 C2962 1.414 . S
C2961 C2964 1.499 . S
C2962 H2942 0.950 . S
C2962 C2961 1.414 . S
C2962 C2963 1.374 . S
C2963 H2943 0.950 . S
C2963 C2959 1.385 . S
C2963 C2962 1.374 . S
C2964 C2961 1.499 . S
C2964 C2965 1.373 . S
C2964 C2966 1.389 . S
C2965 H2944 0.950 . S
C2965 C2964 1.373 . S
C2965 C2981 1.377 . S
C2966 C2964 1.389 . S
C2966 C2967 1.524 . S
C2966 C2980 1.377 . S
C2967 C2966 1.524 . S
C2967 C2968 1.397 . S
C2967 C2972 1.363 . S
C2968 H2945 0.950 . S
C2968 C2967 1.397 . S
C2968 C2969 1.334 . S
C2969 H2946 0.950 . S
C2969 C2968 1.334 . S
C2969 C2970 1.287 . S
C2970 C2969 1.287 . S
C2970 C2971 1.524 . S
C2970 H2989 0.913 . S
C2971 H2947 0.950 . S
C2971 C2970 1.524 . S
C2971 C2972 1.415 . S
C2972 H2948 0.950 . S
C2972 C2967 1.363 . S
C2972 C2971 1.415 . S
C2973 H2949 0.951 . S
C2973 C2974 1.366 . S
C2973 C2975 1.388 . S
C2974 C2973 1.366 . S
C2974 C2978 1.385 . S
C2975 H2950 0.951 . S
C2975 C2973 1.388 . S
C2975 C2976 1.366 . S
C2976 C2975 1.366 . S
C2976 C2977 1.414 . S
C2976 C2979 1.499 . S
C2977 H2951 0.950 . S
C2977 C2976 1.414 . S
C2977 C2978 1.374 . S
C2978 H2952 0.950 . S
C2978 C2974 1.385 . S
C2978 C2977 1.374 . S
C2979 C2976 1.499 . S
C2979 C2980 1.373 . S
C2979 C2981 1.389 . S
C2980 H2953 0.950 . S
C2980 C2966 1.377 . S
C2980 C2979 1.373 . S
C2981 C2965 1.377 . S
C2981 C2979 1.389 . S
C2981 C2982 1.524 . S
C2982 C2981 1.524 . S
C2982 C2983 1.397 . S
C2982 C2987 1.363 . S
C2983 H2954 0.950 . S
C2983 C2982 1.397 . S
C2983 C2984 1.334 . S
C2984 H2955 0.950 . S
C2984 C2983 1.334 . S
C2984 C2985 1.287 . S
C2985 C2984 1.287 . S
C2985 C2986 1.524 . S
C2985 H2988 0.999 . S
C2986 H2956 0.950 . S
C2986 C2985 1.524 . S
C2986 C2987 1.415 . S
C2987 H2957 0.950 . S
C2987 C2982 1.363 . S
C2987 C2986 1.415 . S
H2988 C2985 0.999 . S
H2989 C2970 0.913 . S
H2990 C3008 0.951 . S
H2991 C3010 0.951 . S
H2992 C3012 0.950 . S
H2993 C3013 0.950 . S
H2994 C3015 0.950 . S
H2995 C3018 0.950 . S
H2996 C3019 0.950 . S
H2997 C3021 0.950 . S
H2998 C3022 0.950 . S
H2999 C3023 0.951 . S
H3000 C3025 0.951 . S
H3001 C3027 0.950 . S
H3002 C3028 0.950 . S
H3003 C3030 0.950 . S
H3004 C3033 0.950 . S
H3005 C3034 0.950 . S
H3006 C3036 0.950 . S
H3007 C3037 0.950 . S
C3008 H2990 0.951 . S
C3008 C3009 1.366 . S
C3008 C3010 1.388 . S
C3009 C3008 1.366 . S
C3009 C3013 1.385 . S
C3010 H2991 0.951 . S
C3010 C3008 1.388 . S
C3010 C3011 1.366 . S
C3011 C3010 1.366 . S
C3011 C3012 1.414 . S
C3011 C3014 1.499 . S
C3012 H2992 0.950 . S
C3012 C3011 1.414 . S
C3012 C3013 1.374 . S
C3013 H2993 0.950 . S
C3013 C3009 1.385 . S
C3013 C3012 1.374 . S
C3014 C3011 1.499 . S
C3014 C3015 1.373 . S
C3014 C3016 1.389 . S
C3015 H2994 0.950 . S
C3015 C3014 1.373 . S
C3015 C3031 1.377 . S
C3016 C3014 1.389 . S
C3016 C3017 1.524 . S
C3016 C3030 1.377 . S
C3017 C3016 1.524 . S
C3017 C3018 1.397 . S
C3017 C3022 1.363 . S
C3018 H2995 0.950 . S
C3018 C3017 1.397 . S
C3018 C3019 1.334 . S
C3019 H2996 0.950 . S
C3019 C3018 1.334 . S
C3019 C3020 1.287 . S
C3020 C3019 1.287 . S
C3020 C3021 1.524 . S
C3020 H3039 0.913 . S
C3021 H2997 0.950 . S
C3021 C3020 1.524 . S
C3021 C3022 1.415 . S
C3022 H2998 0.950 . S
C3022 C3017 1.363 . S
C3022 C3021 1.415 . S
C3023 H2999 0.951 . S
C3023 C3024 1.366 . S
C3023 C3025 1.388 . S
C3024 C3023 1.366 . S
C3024 C3028 1.385 . S
C3025 H3000 0.951 . S
C3025 C3023 1.388 . S
C3025 C3026 1.366 . S
C3026 C3025 1.366 . S
C3026 C3027 1.414 . S
C3026 C3029 1.499 . S
C3027 H3001 0.950 . S
C3027 C3026 1.414 . S
C3027 C3028 1.374 . S
C3028 H3002 0.950 . S
C3028 C3024 1.385 . S
C3028 C3027 1.374 . S
C3029 C3026 1.499 . S
C3029 C3030 1.373 . S
C3029 C3031 1.389 . S
C3030 H3003 0.950 . S
C3030 C3016 1.377 . S
C3030 C3029 1.373 . S
C3031 C3015 1.377 . S
C3031 C3029 1.389 . S
C3031 C3032 1.524 . S
C3032 C3031 1.524 . S
C3032 C3033 1.397 . S
C3032 C3037 1.363 . S
C3033 H3004 0.950 . S
C3033 C3032 1.397 . S
C3033 C3034 1.334 . S
C3034 H3005 0.950 . S
C3034 C3033 1.334 . S
C3034 C3035 1.287 . S
C3035 C3034 1.287 . S
C3035 C3036 1.524 . S
C3035 H3038 0.999 . S
C3036 H3006 0.950 . S
C3036 C3035 1.524 . S
C3036 C3037 1.415 . S
C3037 H3007 0.950 . S
C3037 C3032 1.363 . S
C3037 C3036 1.415 . S
H3038 C3035 0.999 . S
H3039 C3020 0.913 . S
H3040 C3058 0.951 . S
H3041 C3060 0.951 . S
H3042 C3062 0.950 . S
H3043 C3063 0.950 . S
H3044 C3065 0.950 . S
H3045 C3068 0.950 . S
H3046 C3069 0.950 . S
H3047 C3071 0.950 . S
H3048 C3072 0.950 . S
H3049 C3073 0.951 . S
H3050 C3075 0.951 . S
H3051 C3077 0.950 . S
H3052 C3078 0.950 . S
H3053 C3080 0.950 . S
H3054 C3083 0.950 . S
H3055 C3084 0.950 . S
H3056 C3086 0.950 . S
H3057 C3087 0.950 . S
C3058 H3040 0.951 . S
C3058 C3059 1.366 . S
C3058 C3060 1.388 . S
C3059 C3058 1.366 . S
C3059 C3063 1.385 . S
C3060 H3041 0.951 . S
C3060 C3058 1.388 . S
C3060 C3061 1.366 . S
C3061 C3060 1.366 . S
C3061 C3062 1.414 . S
C3061 C3064 1.499 . S
C3062 H3042 0.950 . S
C3062 C3061 1.414 . S
C3062 C3063 1.374 . S
C3063 H3043 0.950 . S
C3063 C3059 1.385 . S
C3063 C3062 1.374 . S
C3064 C3061 1.499 . S
C3064 C3065 1.373 . S
C3064 C3066 1.389 . S
C3065 H3044 0.950 . S
C3065 C3064 1.373 . S
C3065 C3081 1.377 . S
C3066 C3064 1.389 . S
C3066 C3067 1.524 . S
C3066 C3080 1.377 . S
C3067 C3066 1.524 . S
C3067 C3068 1.397 . S
C3067 C3072 1.363 . S
C3068 H3045 0.950 . S
C3068 C3067 1.397 . S
C3068 C3069 1.334 . S
C3069 H3046 0.950 . S
C3069 C3068 1.334 . S
C3069 C3070 1.287 . S
C3070 C3069 1.287 . S
C3070 C3071 1.524 . S
C3070 H3089 0.913 . S
C3071 H3047 0.950 . S
C3071 C3070 1.524 . S
C3071 C3072 1.415 . S
C3072 H3048 0.950 . S
C3072 C3067 1.363 . S
C3072 C3071 1.415 . S
C3073 H3049 0.951 . S
C3073 C3074 1.366 . S
C3073 C3075 1.388 . S
C3074 C3073 1.366 . S
C3074 C3078 1.385 . S
C3075 H3050 0.951 . S
C3075 C3073 1.388 . S
C3075 C3076 1.366 . S
C3076 C3075 1.366 . S
C3076 C3077 1.414 . S
C3076 C3079 1.499 . S
C3077 H3051 0.950 . S
C3077 C3076 1.414 . S
C3077 C3078 1.374 . S
C3078 H3052 0.950 . S
C3078 C3074 1.385 . S
C3078 C3077 1.374 . S
C3079 C3076 1.499 . S
C3079 C3080 1.373 . S
C3079 C3081 1.389 . S
C3080 H3053 0.950 . S
C3080 C3066 1.377 . S
C3080 C3079 1.373 . S
C3081 C3065 1.377 . S
C3081 C3079 1.389 . S
C3081 C3082 1.524 . S
C3082 C3081 1.524 . S
C3082 C3083 1.397 . S
C3082 C3087 1.363 . S
C3083 H3054 0.950 . S
C3083 C3082 1.397 . S
C3083 C3084 1.334 . S
C3084 H3055 0.950 . S
C3084 C3083 1.334 . S
C3084 C3085 1.287 . S
C3085 C3084 1.287 . S
C3085 C3086 1.524 . S
C3085 H3088 0.999 . S
C3086 H3056 0.950 . S
C3086 C3085 1.524 . S
C3086 C3087 1.415 . S
C3087 H3057 0.950 . S
C3087 C3082 1.363 . S
C3087 C3086 1.415 . S
H3088 C3085 0.999 . S
H3089 C3070 0.913 . S
H3090 C3108 0.951 . S
H3091 C3110 0.951 . S
H3092 C3112 0.950 . S
H3093 C3113 0.950 . S
H3094 C3115 0.950 . S
H3095 C3118 0.950 . S
H3096 C3119 0.950 . S
H3097 C3121 0.950 . S
H3098 C3122 0.950 . S
H3099 C3123 0.951 . S
H3100 C3125 0.951 . S
H3101 C3127 0.950 . S
H3102 C3128 0.950 . S
H3103 C3130 0.950 . S
H3104 C3133 0.950 . S
H3105 C3134 0.950 . S
H3106 C3136 0.950 . S
H3107 C3137 0.950 . S
C3108 H3090 0.951 . S
C3108 C3109 1.366 . S
C3108 C3110 1.388 . S
C3109 C3108 1.366 . S
C3109 C3113 1.385 . S
C3110 H3091 0.951 . S
C3110 C3108 1.388 . S
C3110 C3111 1.366 . S
C3111 C3110 1.366 . S
C3111 C3112 1.414 . S
C3111 C3114 1.499 . S
C3112 H3092 0.950 . S
C3112 C3111 1.414 . S
C3112 C3113 1.374 . S
C3113 H3093 0.950 . S
C3113 C3109 1.385 . S
C3113 C3112 1.374 . S
C3114 C3111 1.499 . S
C3114 C3115 1.373 . S
C3114 C3116 1.389 . S
C3115 H3094 0.950 . S
C3115 C3114 1.373 . S
C3115 C3131 1.377 . S
C3116 C3114 1.389 . S
C3116 C3117 1.524 . S
C3116 C3130 1.377 . S
C3117 C3116 1.524 . S
C3117 C3118 1.397 . S
C3117 C3122 1.363 . S
C3118 H3095 0.950 . S
C3118 C3117 1.397 . S
C3118 C3119 1.334 . S
C3119 H3096 0.950 . S
C3119 C3118 1.334 . S
C3119 C3120 1.287 . S
C3120 C3119 1.287 . S
C3120 C3121 1.524 . S
C3120 H3139 0.913 . S
C3121 H3097 0.950 . S
C3121 C3120 1.524 . S
C3121 C3122 1.415 . S
C3122 H3098 0.950 . S
C3122 C3117 1.363 . S
C3122 C3121 1.415 . S
C3123 H3099 0.951 . S
C3123 C3124 1.366 . S
C3123 C3125 1.388 . S
C3124 C3123 1.366 . S
C3124 C3128 1.385 . S
C3125 H3100 0.951 . S
C3125 C3123 1.388 . S
C3125 C3126 1.366 . S
C3126 C3125 1.366 . S
C3126 C3127 1.414 . S
C3126 C3129 1.499 . S
C3127 H3101 0.950 . S
C3127 C3126 1.414 . S
C3127 C3128 1.374 . S
C3128 H3102 0.950 . S
C3128 C3124 1.385 . S
C3128 C3127 1.374 . S
C3129 C3126 1.499 . S
C3129 C3130 1.373 . S
C3129 C3131 1.389 . S
C3130 H3103 0.950 . S
C3130 C3116 1.377 . S
C3130 C3129 1.373 . S
C3131 C3115 1.377 . S
C3131 C3129 1.389 . S
C3131 C3132 1.524 . S
C3132 C3131 1.524 . S
C3132 C3133 1.397 . S
C3132 C3137 1.363 . S
C3133 H3104 0.950 . S
C3133 C3132 1.397 . S
C3133 C3134 1.334 . S
C3134 H3105 0.950 . S
C3134 C3133 1.334 . S
C3134 C3135 1.287 . S
C3135 C3134 1.287 . S
C3135 C3136 1.524 . S
C3135 H3138 0.999 . S
C3136 H3106 0.950 . S
C3136 C3135 1.524 . S
C3136 C3137 1.415 . S
C3137 H3107 0.950 . S
C3137 C3132 1.363 . S
C3137 C3136 1.415 . S
H3138 C3135 0.999 . S
H3139 C3120 0.913 . S
H3140 C3158 0.951 . S
H3141 C3160 0.951 . S
H3142 C3162 0.950 . S
H3143 C3163 0.950 . S
H3144 C3165 0.950 . S
H3145 C3168 0.950 . S
H3146 C3169 0.950 . S
H3147 C3171 0.950 . S
H3148 C3172 0.950 . S
H3149 C3173 0.951 . S
H3150 C3175 0.951 . S
H3151 C3177 0.950 . S
H3152 C3178 0.950 . S
H3153 C3180 0.950 . S
H3154 C3183 0.950 . S
H3155 C3184 0.950 . S
H3156 C3186 0.950 . S
H3157 C3187 0.950 . S
C3158 H3140 0.951 . S
C3158 C3159 1.366 . S
C3158 C3160 1.388 . S
C3159 C3158 1.366 . S
C3159 C3163 1.385 . S
C3160 H3141 0.951 . S
C3160 C3158 1.388 . S
C3160 C3161 1.366 . S
C3161 C3160 1.366 . S
C3161 C3162 1.414 . S
C3161 C3164 1.499 . S
C3162 H3142 0.950 . S
C3162 C3161 1.414 . S
C3162 C3163 1.374 . S
C3163 H3143 0.950 . S
C3163 C3159 1.385 . S
C3163 C3162 1.374 . S
C3164 C3161 1.499 . S
C3164 C3165 1.373 . S
C3164 C3166 1.389 . S
C3165 H3144 0.950 . S
C3165 C3164 1.373 . S
C3165 C3181 1.377 . S
C3166 C3164 1.389 . S
C3166 C3167 1.524 . S
C3166 C3180 1.377 . S
C3167 C3166 1.524 . S
C3167 C3168 1.397 . S
C3167 C3172 1.363 . S
C3168 H3145 0.950 . S
C3168 C3167 1.397 . S
C3168 C3169 1.334 . S
C3169 H3146 0.950 . S
C3169 C3168 1.334 . S
C3169 C3170 1.287 . S
C3170 C3169 1.287 . S
C3170 C3171 1.524 . S
C3170 H3189 0.913 . S
C3171 H3147 0.950 . S
C3171 C3170 1.524 . S
C3171 C3172 1.415 . S
C3172 H3148 0.950 . S
C3172 C3167 1.363 . S
C3172 C3171 1.415 . S
C3173 H3149 0.951 . S
C3173 C3174 1.366 . S
C3173 C3175 1.388 . S
C3174 C3173 1.366 . S
C3174 C3178 1.385 . S
C3175 H3150 0.951 . S
C3175 C3173 1.388 . S
C3175 C3176 1.366 . S
C3176 C3175 1.366 . S
C3176 C3177 1.414 . S
C3176 C3179 1.499 . S
C3177 H3151 0.950 . S
C3177 C3176 1.414 . S
C3177 C3178 1.374 . S
C3178 H3152 0.950 . S
C3178 C3174 1.385 . S
C3178 C3177 1.374 . S
C3179 C3176 1.499 . S
C3179 C3180 1.373 . S
C3179 C3181 1.389 . S
C3180 H3153 0.950 . S
C3180 C3166 1.377 . S
C3180 C3179 1.373 . S
C3181 C3165 1.377 . S
C3181 C3179 1.389 . S
C3181 C3182 1.524 . S
C3182 C3181 1.524 . S
C3182 C3183 1.397 . S
C3182 C3187 1.363 . S
C3183 H3154 0.950 . S
C3183 C3182 1.397 . S
C3183 C3184 1.334 . S
C3184 H3155 0.950 . S
C3184 C3183 1.334 . S
C3184 C3185 1.287 . S
C3185 C3184 1.287 . S
C3185 C3186 1.524 . S
C3185 H3188 0.999 . S
C3186 H3156 0.950 . S
C3186 C3185 1.524 . S
C3186 C3187 1.415 . S
C3187 H3157 0.950 . S
C3187 C3182 1.363 . S
C3187 C3186 1.415 . S
H3188 C3185 0.999 . S
H3189 C3170 0.913 . S
H3190 C3208 0.951 . S
H3191 C3210 0.951 . S
H3192 C3212 0.950 . S
H3193 C3213 0.950 . S
H3194 C3215 0.950 . S
H3195 C3218 0.950 . S
H3196 C3219 0.950 . S
H3197 C3221 0.950 . S
H3198 C3222 0.950 . S
H3199 C3223 0.951 . S
H3200 C3225 0.951 . S
H3201 C3227 0.950 . S
H3202 C3228 0.950 . S
H3203 C3230 0.950 . S
H3204 C3233 0.950 . S
H3205 C3234 0.950 . S
H3206 C3236 0.950 . S
H3207 C3237 0.950 . S
C3208 H3190 0.951 . S
C3208 C3209 1.366 . S
C3208 C3210 1.388 . S
C3209 C3208 1.366 . S
C3209 C3213 1.385 . S
C3210 H3191 0.951 . S
C3210 C3208 1.388 . S
C3210 C3211 1.366 . S
C3211 C3210 1.366 . S
C3211 C3212 1.414 . S
C3211 C3214 1.499 . S
C3212 H3192 0.950 . S
C3212 C3211 1.414 . S
C3212 C3213 1.374 . S
C3213 H3193 0.950 . S
C3213 C3209 1.385 . S
C3213 C3212 1.374 . S
C3214 C3211 1.499 . S
C3214 C3215 1.373 . S
C3214 C3216 1.389 . S
C3215 H3194 0.950 . S
C3215 C3214 1.373 . S
C3215 C3231 1.377 . S
C3216 C3214 1.389 . S
C3216 C3217 1.524 . S
C3216 C3230 1.377 . S
C3217 C3216 1.524 . S
C3217 C3218 1.397 . S
C3217 C3222 1.363 . S
C3218 H3195 0.950 . S
C3218 C3217 1.397 . S
C3218 C3219 1.334 . S
C3219 H3196 0.950 . S
C3219 C3218 1.334 . S
C3219 C3220 1.287 . S
C3220 C3219 1.287 . S
C3220 C3221 1.524 . S
C3220 H3239 0.913 . S
C3221 H3197 0.950 . S
C3221 C3220 1.524 . S
C3221 C3222 1.415 . S
C3222 H3198 0.950 . S
C3222 C3217 1.363 . S
C3222 C3221 1.415 . S
C3223 H3199 0.951 . S
C3223 C3224 1.366 . S
C3223 C3225 1.388 . S
C3224 C3223 1.366 . S
C3224 C3228 1.385 . S
C3225 H3200 0.951 . S
C3225 C3223 1.388 . S
C3225 C3226 1.366 . S
C3226 C3225 1.366 . S
C3226 C3227 1.414 . S
C3226 C3229 1.499 . S
C3227 H3201 0.950 . S
C3227 C3226 1.414 . S
C3227 C3228 1.374 . S
C3228 H3202 0.950 . S
C3228 C3224 1.385 . S
C3228 C3227 1.374 . S
C3229 C3226 1.499 . S
C3229 C3230 1.373 . S
C3229 C3231 1.389 . S
C3230 H3203 0.950 . S
C3230 C3216 1.377 . S
C3230 C3229 1.373 . S
C3231 C3215 1.377 . S
C3231 C3229 1.389 . S
C3231 C3232 1.524 . S
C3232 C3231 1.524 . S
C3232 C3233 1.397 . S
C3232 C3237 1.363 . S
C3233 H3204 0.950 . S
C3233 C3232 1.397 . S
C3233 C3234 1.334 . S
C3234 H3205 0.950 . S
C3234 C3233 1.334 . S
C3234 C3235 1.287 . S
C3235 C3234 1.287 . S
C3235 C3236 1.524 . S
C3235 H3238 0.999 . S
C3236 H3206 0.950 . S
C3236 C3235 1.524 . S
C3236 C3237 1.415 . S
C3237 H3207 0.950 . S
C3237 C3232 1.363 . S
C3237 C3236 1.415 . S
H3238 C3235 0.999 . S
H3239 C3220 0.913 . S
H3240 C3258 0.951 . S
H3241 C3260 0.951 . S
H3242 C3262 0.950 . S
H3243 C3263 0.950 . S
H3244 C3265 0.950 . S
H3245 C3268 0.950 . S
H3246 C3269 0.950 . S
H3247 C3271 0.950 . S
H3248 C3272 0.950 . S
H3249 C3273 0.951 . S
H3250 C3275 0.951 . S
H3251 C3277 0.950 . S
H3252 C3278 0.950 . S
H3253 C3280 0.950 . S
H3254 C3283 0.950 . S
H3255 C3284 0.950 . S
H3256 C3286 0.950 . S
H3257 C3287 0.950 . S
C3258 H3240 0.951 . S
C3258 C3259 1.366 . S
C3258 C3260 1.388 . S
C3259 C3258 1.366 . S
C3259 C3263 1.385 . S
C3260 H3241 0.951 . S
C3260 C3258 1.388 . S
C3260 C3261 1.366 . S
C3261 C3260 1.366 . S
C3261 C3262 1.414 . S
C3261 C3264 1.499 . S
C3262 H3242 0.950 . S
C3262 C3261 1.414 . S
C3262 C3263 1.374 . S
C3263 H3243 0.950 . S
C3263 C3259 1.385 . S
C3263 C3262 1.374 . S
C3264 C3261 1.499 . S
C3264 C3265 1.373 . S
C3264 C3266 1.389 . S
C3265 H3244 0.950 . S
C3265 C3264 1.373 . S
C3265 C3281 1.377 . S
C3266 C3264 1.389 . S
C3266 C3267 1.524 . S
C3266 C3280 1.377 . S
C3267 C3266 1.524 . S
C3267 C3268 1.397 . S
C3267 C3272 1.363 . S
C3268 H3245 0.950 . S
C3268 C3267 1.397 . S
C3268 C3269 1.334 . S
C3269 H3246 0.950 . S
C3269 C3268 1.334 . S
C3269 C3270 1.287 . S
C3270 C3269 1.287 . S
C3270 C3271 1.524 . S
C3270 H3289 0.913 . S
C3271 H3247 0.950 . S
C3271 C3270 1.524 . S
C3271 C3272 1.415 . S
C3272 H3248 0.950 . S
C3272 C3267 1.363 . S
C3272 C3271 1.415 . S
C3273 H3249 0.951 . S
C3273 C3274 1.366 . S
C3273 C3275 1.388 . S
C3274 C3273 1.366 . S
C3274 C3278 1.385 . S
C3275 H3250 0.951 . S
C3275 C3273 1.388 . S
C3275 C3276 1.366 . S
C3276 C3275 1.366 . S
C3276 C3277 1.414 . S
C3276 C3279 1.499 . S
C3277 H3251 0.950 . S
C3277 C3276 1.414 . S
C3277 C3278 1.374 . S
C3278 H3252 0.950 . S
C3278 C3274 1.385 . S
C3278 C3277 1.374 . S
C3279 C3276 1.499 . S
C3279 C3280 1.373 . S
C3279 C3281 1.389 . S
C3280 H3253 0.950 . S
C3280 C3266 1.377 . S
C3280 C3279 1.373 . S
C3281 C3265 1.377 . S
C3281 C3279 1.389 . S
C3281 C3282 1.524 . S
C3282 C3281 1.524 . S
C3282 C3283 1.397 . S
C3282 C3287 1.363 . S
C3283 H3254 0.950 . S
C3283 C3282 1.397 . S
C3283 C3284 1.334 . S
C3284 H3255 0.950 . S
C3284 C3283 1.334 . S
C3284 C3285 1.287 . S
C3285 C3284 1.287 . S
C3285 C3286 1.524 . S
C3285 H3288 0.999 . S
C3286 H3256 0.950 . S
C3286 C3285 1.524 . S
C3286 C3287 1.415 . S
C3287 H3257 0.950 . S
C3287 C3282 1.363 . S
C3287 C3286 1.415 . S
H3288 C3285 0.999 . S
H3289 C3270 0.913 . S
H3290 C3308 0.951 . S
H3291 C3310 0.951 . S
H3292 C3312 0.950 . S
H3293 C3313 0.950 . S
H3294 C3315 0.950 . S
H3295 C3318 0.950 . S
H3296 C3319 0.950 . S
H3297 C3321 0.950 . S
H3298 C3322 0.950 . S
H3299 C3323 0.951 . S
H3300 C3325 0.951 . S
H3301 C3327 0.950 . S
H3302 C3328 0.950 . S
H3303 C3330 0.950 . S
H3304 C3333 0.950 . S
H3305 C3334 0.950 . S
H3306 C3336 0.950 . S
H3307 C3337 0.950 . S
C3308 H3290 0.951 . S
C3308 C3309 1.366 . S
C3308 C3310 1.388 . S
C3309 C3308 1.366 . S
C3309 C3313 1.385 . S
C3310 H3291 0.951 . S
C3310 C3308 1.388 . S
C3310 C3311 1.366 . S
C3311 C3310 1.366 . S
C3311 C3312 1.414 . S
C3311 C3314 1.499 . S
C3312 H3292 0.950 . S
C3312 C3311 1.414 . S
C3312 C3313 1.374 . S
C3313 H3293 0.950 . S
C3313 C3309 1.385 . S
C3313 C3312 1.374 . S
C3314 C3311 1.499 . S
C3314 C3315 1.373 . S
C3314 C3316 1.389 . S
C3315 H3294 0.950 . S
C3315 C3314 1.373 . S
C3315 C3331 1.377 . S
C3316 C3314 1.389 . S
C3316 C3317 1.524 . S
C3316 C3330 1.377 . S
C3317 C3316 1.524 . S
C3317 C3318 1.397 . S
C3317 C3322 1.363 . S
C3318 H3295 0.950 . S
C3318 C3317 1.397 . S
C3318 C3319 1.334 . S
C3319 H3296 0.950 . S
C3319 C3318 1.334 . S
C3319 C3320 1.287 . S
C3320 C3319 1.287 . S
C3320 C3321 1.524 . S
C3320 H3339 0.913 . S
C3321 H3297 0.950 . S
C3321 C3320 1.524 . S
C3321 C3322 1.415 . S
C3322 H3298 0.950 . S
C3322 C3317 1.363 . S
C3322 C3321 1.415 . S
C3323 H3299 0.951 . S
C3323 C3324 1.366 . S
C3323 C3325 1.388 . S
C3324 C3323 1.366 . S
C3324 C3328 1.385 . S
C3325 H3300 0.951 . S
C3325 C3323 1.388 . S
C3325 C3326 1.366 . S
C3326 C3325 1.366 . S
C3326 C3327 1.414 . S
C3326 C3329 1.499 . S
C3327 H3301 0.950 . S
C3327 C3326 1.414 . S
C3327 C3328 1.374 . S
C3328 H3302 0.950 . S
C3328 C3324 1.385 . S
C3328 C3327 1.374 . S
C3329 C3326 1.499 . S
C3329 C3330 1.373 . S
C3329 C3331 1.389 . S
C3330 H3303 0.950 . S
C3330 C3316 1.377 . S
C3330 C3329 1.373 . S
C3331 C3315 1.377 . S
C3331 C3329 1.389 . S
C3331 C3332 1.524 . S
C3332 C3331 1.524 . S
C3332 C3333 1.397 . S
C3332 C3337 1.363 . S
C3333 H3304 0.950 . S
C3333 C3332 1.397 . S
C3333 C3334 1.334 . S
C3334 H3305 0.950 . S
C3334 C3333 1.334 . S
C3334 C3335 1.287 . S
C3335 C3334 1.287 . S
C3335 C3336 1.524 . S
C3335 H3338 0.999 . S
C3336 H3306 0.950 . S
C3336 C3335 1.524 . S
C3336 C3337 1.415 . S
C3337 H3307 0.950 . S
C3337 C3332 1.363 . S
C3337 C3336 1.415 . S
H3338 C3335 0.999 . S
H3339 C3320 0.913 . S
H3340 C3358 0.951 . S
H3341 C3360 0.951 . S
H3342 C3362 0.950 . S
H3343 C3363 0.950 . S
H3344 C3365 0.950 . S
H3345 C3368 0.950 . S
H3346 C3369 0.950 . S
H3347 C3371 0.950 . S
H3348 C3372 0.950 . S
H3349 C3373 0.951 . S
H3350 C3375 0.951 . S
H3351 C3377 0.950 . S
H3352 C3378 0.950 . S
H3353 C3380 0.950 . S
H3354 C3383 0.950 . S
H3355 C3384 0.950 . S
H3356 C3386 0.950 . S
H3357 C3387 0.950 . S
C3358 H3340 0.951 . S
C3358 C3359 1.366 . S
C3358 C3360 1.388 . S
C3359 C3358 1.366 . S
C3359 C3363 1.385 . S
C3360 H3341 0.951 . S
C3360 C3358 1.388 . S
C3360 C3361 1.366 . S
C3361 C3360 1.366 . S
C3361 C3362 1.414 . S
C3361 C3364 1.499 . S
C3362 H3342 0.950 . S
C3362 C3361 1.414 . S
C3362 C3363 1.374 . S
C3363 H3343 0.950 . S
C3363 C3359 1.385 . S
C3363 C3362 1.374 . S
C3364 C3361 1.499 . S
C3364 C3365 1.373 . S
C3364 C3366 1.389 . S
C3365 H3344 0.950 . S
C3365 C3364 1.373 . S
C3365 C3381 1.377 . S
C3366 C3364 1.389 . S
C3366 C3367 1.524 . S
C3366 C3380 1.377 . S
C3367 C3366 1.524 . S
C3367 C3368 1.397 . S
C3367 C3372 1.363 . S
C3368 H3345 0.950 . S
C3368 C3367 1.397 . S
C3368 C3369 1.334 . S
C3369 H3346 0.950 . S
C3369 C3368 1.334 . S
C3369 C3370 1.287 . S
C3370 C3369 1.287 . S
C3370 C3371 1.524 . S
C3370 H3389 0.913 . S
C3371 H3347 0.950 . S
C3371 C3370 1.524 . S
C3371 C3372 1.415 . S
C3372 H3348 0.950 . S
C3372 C3367 1.363 . S
C3372 C3371 1.415 . S
C3373 H3349 0.951 . S
C3373 C3374 1.366 . S
C3373 C3375 1.388 . S
C3374 C3373 1.366 . S
C3374 C3378 1.385 . S
C3375 H3350 0.951 . S
C3375 C3373 1.388 . S
C3375 C3376 1.366 . S
C3376 C3375 1.366 . S
C3376 C3377 1.414 . S
C3376 C3379 1.499 . S
C3377 H3351 0.950 . S
C3377 C3376 1.414 . S
C3377 C3378 1.374 . S
C3378 H3352 0.950 . S
C3378 C3374 1.385 . S
C3378 C3377 1.374 . S
C3379 C3376 1.499 . S
C3379 C3380 1.373 . S
C3379 C3381 1.389 . S
C3380 H3353 0.950 . S
C3380 C3366 1.377 . S
C3380 C3379 1.373 . S
C3381 C3365 1.377 . S
C3381 C3379 1.389 . S
C3381 C3382 1.524 . S
C3382 C3381 1.524 . S
C3382 C3383 1.397 . S
C3382 C3387 1.363 . S
C3383 H3354 0.950 . S
C3383 C3382 1.397 . S
C3383 C3384 1.334 . S
C3384 H3355 0.950 . S
C3384 C3383 1.334 . S
C3384 C3385 1.287 . S
C3385 C3384 1.287 . S
C3385 C3386 1.524 . S
C3385 H3388 0.999 . S
C3386 H3356 0.950 . S
C3386 C3385 1.524 . S
C3386 C3387 1.415 . S
C3387 H3357 0.950 . S
C3387 C3382 1.363 . S
C3387 C3386 1.415 . S
H3388 C3385 0.999 . S
H3389 C3370 0.913 . S
H3390 C3408 0.951 . S
H3391 C3410 0.951 . S
H3392 C3412 0.950 . S
H3393 C3413 0.950 . S
H3394 C3415 0.950 . S
H3395 C3418 0.950 . S
H3396 C3419 0.950 . S
H3397 C3421 0.950 . S
H3398 C3422 0.950 . S
H3399 C3423 0.951 . S
H3400 C3425 0.951 . S
H3401 C3427 0.950 . S
H3402 C3428 0.950 . S
H3403 C3430 0.950 . S
H3404 C3433 0.950 . S
H3405 C3434 0.950 . S
H3406 C3436 0.950 . S
H3407 C3437 0.950 . S
C3408 H3390 0.951 . S
C3408 C3409 1.366 . S
C3408 C3410 1.388 . S
C3409 C3408 1.366 . S
C3409 C3413 1.385 . S
C3410 H3391 0.951 . S
C3410 C3408 1.388 . S
C3410 C3411 1.366 . S
C3411 C3410 1.366 . S
C3411 C3412 1.414 . S
C3411 C3414 1.499 . S
C3412 H3392 0.950 . S
C3412 C3411 1.414 . S
C3412 C3413 1.374 . S
C3413 H3393 0.950 . S
C3413 C3409 1.385 . S
C3413 C3412 1.374 . S
C3414 C3411 1.499 . S
C3414 C3415 1.373 . S
C3414 C3416 1.389 . S
C3415 H3394 0.950 . S
C3415 C3414 1.373 . S
C3415 C3431 1.377 . S
C3416 C3414 1.389 . S
C3416 C3417 1.524 . S
C3416 C3430 1.377 . S
C3417 C3416 1.524 . S
C3417 C3418 1.397 . S
C3417 C3422 1.363 . S
C3418 H3395 0.950 . S
C3418 C3417 1.397 . S
C3418 C3419 1.334 . S
C3419 H3396 0.950 . S
C3419 C3418 1.334 . S
C3419 C3420 1.287 . S
C3420 C3419 1.287 . S
C3420 C3421 1.524 . S
C3420 H3439 0.913 . S
C3421 H3397 0.950 . S
C3421 C3420 1.524 . S
C3421 C3422 1.415 . S
C3422 H3398 0.950 . S
C3422 C3417 1.363 . S
C3422 C3421 1.415 . S
C3423 H3399 0.951 . S
C3423 C3424 1.366 . S
C3423 C3425 1.388 . S
C3424 C3423 1.366 . S
C3424 C3428 1.385 . S
C3425 H3400 0.951 . S
C3425 C3423 1.388 . S
C3425 C3426 1.366 . S
C3426 C3425 1.366 . S
C3426 C3427 1.414 . S
C3426 C3429 1.499 . S
C3427 H3401 0.950 . S
C3427 C3426 1.414 . S
C3427 C3428 1.374 . S
C3428 H3402 0.950 . S
C3428 C3424 1.385 . S
C3428 C3427 1.374 . S
C3429 C3426 1.499 . S
C3429 C3430 1.373 . S
C3429 C3431 1.389 . S
C3430 H3403 0.950 . S
C3430 C3416 1.377 . S
C3430 C3429 1.373 . S
C3431 C3415 1.377 . S
C3431 C3429 1.389 . S
C3431 C3432 1.524 . S
C3432 C3431 1.524 . S
C3432 C3433 1.397 . S
C3432 C3437 1.363 . S
C3433 H3404 0.950 . S
C3433 C3432 1.397 . S
C3433 C3434 1.334 . S
C3434 H3405 0.950 . S
C3434 C3433 1.334 . S
C3434 C3435 1.287 . S
C3435 C3434 1.287 . S
C3435 C3436 1.524 . S
C3435 H3438 0.999 . S
C3436 H3406 0.950 . S
C3436 C3435 1.524 . S
C3436 C3437 1.415 . S
C3437 H3407 0.950 . S
C3437 C3432 1.363 . S
C3437 C3436 1.415 . S
H3438 C3435 0.999 . S
H3439 C3420 0.913 . S
H3440 C3458 0.951 . S
H3441 C3460 0.951 . S
H3442 C3462 0.950 . S
H3443 C3463 0.950 . S
H3444 C3465 0.950 . S
H3445 C3468 0.950 . S
H3446 C3469 0.950 . S
H3447 C3471 0.950 . S
H3448 C3472 0.950 . S
H3449 C3473 0.951 . S
H3450 C3475 0.951 . S
H3451 C3477 0.950 . S
H3452 C3478 0.950 . S
H3453 C3480 0.950 . S
H3454 C3483 0.950 . S
H3455 C3484 0.950 . S
H3456 C3486 0.950 . S
H3457 C3487 0.950 . S
C3458 H3440 0.951 . S
C3458 C3459 1.366 . S
C3458 C3460 1.388 . S
C3459 C3458 1.366 . S
C3459 C3463 1.385 . S
C3460 H3441 0.951 . S
C3460 C3458 1.388 . S
C3460 C3461 1.366 . S
C3461 C3460 1.366 . S
C3461 C3462 1.414 . S
C3461 C3464 1.499 . S
C3462 H3442 0.950 . S
C3462 C3461 1.414 . S
C3462 C3463 1.374 . S
C3463 H3443 0.950 . S
C3463 C3459 1.385 . S
C3463 C3462 1.374 . S
C3464 C3461 1.499 . S
C3464 C3465 1.373 . S
C3464 C3466 1.389 . S
C3465 H3444 0.950 . S
C3465 C3464 1.373 . S
C3465 C3481 1.377 . S
C3466 C3464 1.389 . S
C3466 C3467 1.524 . S
C3466 C3480 1.377 . S
C3467 C3466 1.524 . S
C3467 C3468 1.397 . S
C3467 C3472 1.363 . S
C3468 H3445 0.950 . S
C3468 C3467 1.397 . S
C3468 C3469 1.334 . S
C3469 H3446 0.950 . S
C3469 C3468 1.334 . S
C3469 C3470 1.287 . S
C3470 C3469 1.287 . S
C3470 C3471 1.524 . S
C3470 H3489 0.913 . S
C3471 H3447 0.950 . S
C3471 C3470 1.524 . S
C3471 C3472 1.415 . S
C3472 H3448 0.950 . S
C3472 C3467 1.363 . S
C3472 C3471 1.415 . S
C3473 H3449 0.951 . S
C3473 C3474 1.366 . S
C3473 C3475 1.388 . S
C3474 C3473 1.366 . S
C3474 C3478 1.385 . S
C3475 H3450 0.951 . S
C3475 C3473 1.388 . S
C3475 C3476 1.366 . S
C3476 C3475 1.366 . S
C3476 C3477 1.414 . S
C3476 C3479 1.499 . S
C3477 H3451 0.950 . S
C3477 C3476 1.414 . S
C3477 C3478 1.374 . S
C3478 H3452 0.950 . S
C3478 C3474 1.385 . S
C3478 C3477 1.374 . S
C3479 C3476 1.499 . S
C3479 C3480 1.373 . S
C3479 C3481 1.389 . S
C3480 H3453 0.950 . S
C3480 C3466 1.377 . S
C3480 C3479 1.373 . S
C3481 C3465 1.377 . S
C3481 C3479 1.389 . S
C3481 C3482 1.524 . S
C3482 C3481 1.524 . S
C3482 C3483 1.397 . S
C3482 C3487 1.363 . S
C3483 H3454 0.950 . S
C3483 C3482 1.397 . S
C3483 C3484 1.334 . S
C3484 H3455 0.950 . S
C3484 C3483 1.334 . S
C3484 C3485 1.287 . S
C3485 C3484 1.287 . S
C3485 C3486 1.524 . S
C3485 H3488 0.999 . S
C3486 H3456 0.950 . S
C3486 C3485 1.524 . S
C3486 C3487 1.415 . S
C3487 H3457 0.950 . S
C3487 C3482 1.363 . S
C3487 C3486 1.415 . S
H3488 C3485 0.999 . S
H3489 C3470 0.913 . S
H3490 C3508 0.951 . S
H3491 C3510 0.951 . S
H3492 C3512 0.950 . S
H3493 C3513 0.950 . S
H3494 C3515 0.950 . S
H3495 C3518 0.950 . S
H3496 C3519 0.950 . S
H3497 C3521 0.950 . S
H3498 C3522 0.950 . S
H3499 C3523 0.951 . S
H3500 C3525 0.951 . S
H3501 C3527 0.950 . S
H3502 C3528 0.950 . S
H3503 C3530 0.950 . S
H3504 C3533 0.950 . S
H3505 C3534 0.950 . S
H3506 C3536 0.950 . S
H3507 C3537 0.950 . S
C3508 H3490 0.951 . S
C3508 C3509 1.366 . S
C3508 C3510 1.388 . S
C3509 C3508 1.366 . S
C3509 C3513 1.385 . S
C3510 H3491 0.951 . S
C3510 C3508 1.388 . S
C3510 C3511 1.366 . S
C3511 C3510 1.366 . S
C3511 C3512 1.414 . S
C3511 C3514 1.499 . S
C3512 H3492 0.950 . S
C3512 C3511 1.414 . S
C3512 C3513 1.374 . S
C3513 H3493 0.950 . S
C3513 C3509 1.385 . S
C3513 C3512 1.374 . S
C3514 C3511 1.499 . S
C3514 C3515 1.373 . S
C3514 C3516 1.389 . S
C3515 H3494 0.950 . S
C3515 C3514 1.373 . S
C3515 C3531 1.377 . S
C3516 C3514 1.389 . S
C3516 C3517 1.524 . S
C3516 C3530 1.377 . S
C3517 C3516 1.524 . S
C3517 C3518 1.397 . S
C3517 C3522 1.363 . S
C3518 H3495 0.950 . S
C3518 C3517 1.397 . S
C3518 C3519 1.334 . S
C3519 H3496 0.950 . S
C3519 C3518 1.334 . S
C3519 C3520 1.287 . S
C3520 C3519 1.287 . S
C3520 C3521 1.524 . S
C3520 H3539 0.913 . S
C3521 H3497 0.950 . S
C3521 C3520 1.524 . S
C3521 C3522 1.415 . S
C3522 H3498 0.950 . S
C3522 C3517 1.363 . S
C3522 C3521 1.415 . S
C3523 H3499 0.951 . S
C3523 C3524 1.366 . S
C3523 C3525 1.388 . S
C3524 C3523 1.366 . S
C3524 C3528 1.385 . S
C3525 H3500 0.951 . S
C3525 C3523 1.388 . S
C3525 C3526 1.366 . S
C3526 C3525 1.366 . S
C3526 C3527 1.414 . S
C3526 C3529 1.499 . S
C3527 H3501 0.950 . S
C3527 C3526 1.414 . S
C3527 C3528 1.374 . S
C3528 H3502 0.950 . S
C3528 C3524 1.385 . S
C3528 C3527 1.374 . S
C3529 C3526 1.499 . S
C3529 C3530 1.373 . S
C3529 C3531 1.389 . S
C3530 H3503 0.950 . S
C3530 C3516 1.377 . S
C3530 C3529 1.373 . S
C3531 C3515 1.377 . S
C3531 C3529 1.389 . S
C3531 C3532 1.524 . S
C3532 C3531 1.524 . S
C3532 C3533 1.397 . S
C3532 C3537 1.363 . S
C3533 H3504 0.950 . S
C3533 C3532 1.397 . S
C3533 C3534 1.334 . S
C3534 H3505 0.950 . S
C3534 C3533 1.334 . S
C3534 C3535 1.287 . S
C3535 C3534 1.287 . S
C3535 C3536 1.524 . S
C3535 H3538 0.999 . S
C3536 H3506 0.950 . S
C3536 C3535 1.524 . S
C3536 C3537 1.415 . S
C3537 H3507 0.950 . S
C3537 C3532 1.363 . S
C3537 C3536 1.415 . S
H3538 C3535 0.999 . S
H3539 C3520 0.913 . S
H3540 C3558 0.951 . S
H3541 C3560 0.951 . S
H3542 C3562 0.950 . S
H3543 C3563 0.950 . S
H3544 C3565 0.950 . S
H3545 C3568 0.950 . S
H3546 C3569 0.950 . S
H3547 C3571 0.950 . S
H3548 C3572 0.950 . S
H3549 C3573 0.951 . S
H3550 C3575 0.951 . S
H3551 C3577 0.950 . S
H3552 C3578 0.950 . S
H3553 C3580 0.950 . S
H3554 C3583 0.950 . S
H3555 C3584 0.950 . S
H3556 C3586 0.950 . S
H3557 C3587 0.950 . S
C3558 H3540 0.951 . S
C3558 C3559 1.366 . S
C3558 C3560 1.388 . S
C3559 C3558 1.366 . S
C3559 C3563 1.385 . S
C3560 H3541 0.951 . S
C3560 C3558 1.388 . S
C3560 C3561 1.366 . S
C3561 C3560 1.366 . S
C3561 C3562 1.414 . S
C3561 C3564 1.499 . S
C3562 H3542 0.950 . S
C3562 C3561 1.414 . S
C3562 C3563 1.374 . S
C3563 H3543 0.950 . S
C3563 C3559 1.385 . S
C3563 C3562 1.374 . S
C3564 C3561 1.499 . S
C3564 C3565 1.373 . S
C3564 C3566 1.389 . S
C3565 H3544 0.950 . S
C3565 C3564 1.373 . S
C3565 C3581 1.377 . S
C3566 C3564 1.389 . S
C3566 C3567 1.524 . S
C3566 C3580 1.377 . S
C3567 C3566 1.524 . S
C3567 C3568 1.397 . S
C3567 C3572 1.363 . S
C3568 H3545 0.950 . S
C3568 C3567 1.397 . S
C3568 C3569 1.334 . S
C3569 H3546 0.950 . S
C3569 C3568 1.334 . S
C3569 C3570 1.287 . S
C3570 C3569 1.287 . S
C3570 C3571 1.524 . S
C3570 H3589 0.913 . S
C3571 H3547 0.950 . S
C3571 C3570 1.524 . S
C3571 C3572 1.415 . S
C3572 H3548 0.950 . S
C3572 C3567 1.363 . S
C3572 C3571 1.415 . S
C3573 H3549 0.951 . S
C3573 C3574 1.366 . S
C3573 C3575 1.388 . S
C3574 C3573 1.366 . S
C3574 C3578 1.385 . S
C3575 H3550 0.951 . S
C3575 C3573 1.388 . S
C3575 C3576 1.366 . S
C3576 C3575 1.366 . S
C3576 C3577 1.414 . S
C3576 C3579 1.499 . S
C3577 H3551 0.950 . S
C3577 C3576 1.414 . S
C3577 C3578 1.374 . S
C3578 H3552 0.950 . S
C3578 C3574 1.385 . S
C3578 C3577 1.374 . S
C3579 C3576 1.499 . S
C3579 C3580 1.373 . S
C3579 C3581 1.389 . S
C3580 H3553 0.950 . S
C3580 C3566 1.377 . S
C3580 C3579 1.373 . S
C3581 C3565 1.377 . S
C3581 C3579 1.389 . S
C3581 C3582 1.524 . S
C3582 C3581 1.524 . S
C3582 C3583 1.397 . S
C3582 C3587 1.363 . S
C3583 H3554 0.950 . S
C3583 C3582 1.397 . S
C3583 C3584 1.334 . S
C3584 H3555 0.950 . S
C3584 C3583 1.334 . S
C3584 C3585 1.287 . S
C3585 C3584 1.287 . S
C3585 C3586 1.524 . S
C3585 H3588 0.999 . S
C3586 H3556 0.950 . S
C3586 C3585 1.524 . S
C3586 C3587 1.415 . S
C3587 H3557 0.950 . S
C3587 C3582 1.363 . S
C3587 C3586 1.415 . S
H3588 C3585 0.999 . S
H3589 C3570 0.913 . S
H3590 C3608 0.951 . S
H3591 C3610 0.951 . S
H3592 C3612 0.950 . S
H3593 C3613 0.950 . S
H3594 C3615 0.950 . S
H3595 C3618 0.950 . S
H3596 C3619 0.950 . S
H3597 C3621 0.950 . S
H3598 C3622 0.950 . S
H3599 C3623 0.951 . S
H3600 C3625 0.951 . S
H3601 C3627 0.950 . S
H3602 C3628 0.950 . S
H3603 C3630 0.950 . S
H3604 C3633 0.950 . S
H3605 C3634 0.950 . S
H3606 C3636 0.950 . S
H3607 C3637 0.950 . S
C3608 H3590 0.951 . S
C3608 C3609 1.366 . S
C3608 C3610 1.388 . S
C3609 C3608 1.366 . S
C3609 C3613 1.385 . S
C3610 H3591 0.951 . S
C3610 C3608 1.388 . S
C3610 C3611 1.366 . S
C3611 C3610 1.366 . S
C3611 C3612 1.414 . S
C3611 C3614 1.499 . S
C3612 H3592 0.950 . S
C3612 C3611 1.414 . S
C3612 C3613 1.374 . S
C3613 H3593 0.950 . S
C3613 C3609 1.385 . S
C3613 C3612 1.374 . S
C3614 C3611 1.499 . S
C3614 C3615 1.373 . S
C3614 C3616 1.389 . S
C3615 H3594 0.950 . S
C3615 C3614 1.373 . S
C3615 C3631 1.377 . S
C3616 C3614 1.389 . S
C3616 C3617 1.524 . S
C3616 C3630 1.377 . S
C3617 C3616 1.524 . S
C3617 C3618 1.397 . S
C3617 C3622 1.363 . S
C3618 H3595 0.950 . S
C3618 C3617 1.397 . S
C3618 C3619 1.334 . S
C3619 H3596 0.950 . S
C3619 C3618 1.334 . S
C3619 C3620 1.287 . S
C3620 C3619 1.287 . S
C3620 C3621 1.524 . S
C3620 H3639 0.913 . S
C3621 H3597 0.950 . S
C3621 C3620 1.524 . S
C3621 C3622 1.415 . S
C3622 H3598 0.950 . S
C3622 C3617 1.363 . S
C3622 C3621 1.415 . S
C3623 H3599 0.951 . S
C3623 C3624 1.366 . S
C3623 C3625 1.388 . S
C3624 C3623 1.366 . S
C3624 C3628 1.385 . S
C3625 H3600 0.951 . S
C3625 C3623 1.388 . S
C3625 C3626 1.366 . S
C3626 C3625 1.366 . S
C3626 C3627 1.414 . S
C3626 C3629 1.499 . S
C3627 H3601 0.950 . S
C3627 C3626 1.414 . S
C3627 C3628 1.374 . S
C3628 H3602 0.950 . S
C3628 C3624 1.385 . S
C3628 C3627 1.374 . S
C3629 C3626 1.499 . S
C3629 C3630 1.373 . S
C3629 C3631 1.389 . S
C3630 H3603 0.950 . S
C3630 C3616 1.377 . S
C3630 C3629 1.373 . S
C3631 C3615 1.377 . S
C3631 C3629 1.389 . S
C3631 C3632 1.524 . S
C3632 C3631 1.524 . S
C3632 C3633 1.397 . S
C3632 C3637 1.363 . S
C3633 H3604 0.950 . S
C3633 C3632 1.397 . S
C3633 C3634 1.334 . S
C3634 H3605 0.950 . S
C3634 C3633 1.334 . S
C3634 C3635 1.287 . S
C3635 C3634 1.287 . S
C3635 C3636 1.524 . S
C3635 H3638 0.999 . S
C3636 H3606 0.950 . S
C3636 C3635 1.524 . S
C3636 C3637 1.415 . S
C3637 H3607 0.950 . S
C3637 C3632 1.363 . S
C3637 C3636 1.415 . S
H3638 C3635 0.999 . S
H3639 C3620 0.913 . S
H3640 C3658 0.951 . S
H3641 C3660 0.951 . S
H3642 C3662 0.950 . S
H3643 C3663 0.950 . S
H3644 C3665 0.950 . S
H3645 C3668 0.950 . S
H3646 C3669 0.950 . S
H3647 C3671 0.950 . S
H3648 C3672 0.950 . S
H3649 C3673 0.951 . S
H3650 C3675 0.951 . S
H3651 C3677 0.950 . S
H3652 C3678 0.950 . S
H3653 C3680 0.950 . S
H3654 C3683 0.950 . S
H3655 C3684 0.950 . S
H3656 C3686 0.950 . S
H3657 C3687 0.950 . S
C3658 H3640 0.951 . S
C3658 C3659 1.366 . S
C3658 C3660 1.388 . S
C3659 C3658 1.366 . S
C3659 C3663 1.385 . S
C3660 H3641 0.951 . S
C3660 C3658 1.388 . S
C3660 C3661 1.366 . S
C3661 C3660 1.366 . S
C3661 C3662 1.414 . S
C3661 C3664 1.499 . S
C3662 H3642 0.950 . S
C3662 C3661 1.414 . S
C3662 C3663 1.374 . S
C3663 H3643 0.950 . S
C3663 C3659 1.385 . S
C3663 C3662 1.374 . S
C3664 C3661 1.499 . S
C3664 C3665 1.373 . S
C3664 C3666 1.389 . S
C3665 H3644 0.950 . S
C3665 C3664 1.373 . S
C3665 C3681 1.377 . S
C3666 C3664 1.389 . S
C3666 C3667 1.524 . S
C3666 C3680 1.377 . S
C3667 C3666 1.524 . S
C3667 C3668 1.397 . S
C3667 C3672 1.363 . S
C3668 H3645 0.950 . S
C3668 C3667 1.397 . S
C3668 C3669 1.334 . S
C3669 H3646 0.950 . S
C3669 C3668 1.334 . S
C3669 C3670 1.287 . S
C3670 C3669 1.287 . S
C3670 C3671 1.524 . S
C3670 H3689 0.913 . S
C3671 H3647 0.950 . S
C3671 C3670 1.524 . S
C3671 C3672 1.415 . S
C3672 H3648 0.950 . S
C3672 C3667 1.363 . S
C3672 C3671 1.415 . S
C3673 H3649 0.951 . S
C3673 C3674 1.366 . S
C3673 C3675 1.388 . S
C3674 C3673 1.366 . S
C3674 C3678 1.385 . S
C3675 H3650 0.951 . S
C3675 C3673 1.388 . S
C3675 C3676 1.366 . S
C3676 C3675 1.366 . S
C3676 C3677 1.414 . S
C3676 C3679 1.499 . S
C3677 H3651 0.950 . S
C3677 C3676 1.414 . S
C3677 C3678 1.374 . S
C3678 H3652 0.950 . S
C3678 C3674 1.385 . S
C3678 C3677 1.374 . S
C3679 C3676 1.499 . S
C3679 C3680 1.373 . S
C3679 C3681 1.389 . S
C3680 H3653 0.950 . S
C3680 C3666 1.377 . S
C3680 C3679 1.373 . S
C3681 C3665 1.377 . S
C3681 C3679 1.389 . S
C3681 C3682 1.524 . S
C3682 C3681 1.524 . S
C3682 C3683 1.397 . S
C3682 C3687 1.363 . S
C3683 H3654 0.950 . S
C3683 C3682 1.397 . S
C3683 C3684 1.334 . S
C3684 H3655 0.950 . S
C3684 C3683 1.334 . S
C3684 C3685 1.287 . S
C3685 C3684 1.287 . S
C3685 C3686 1.524 . S
C3685 H3688 0.999 . S
C3686 H3656 0.950 . S
C3686 C3685 1.524 . S
C3686 C3687 1.415 . S
C3687 H3657 0.950 . S
C3687 C3682 1.363 . S
C3687 C3686 1.415 . S
H3688 C3685 0.999 . S
H3689 C3670 0.913 . S
H3690 C3708 0.951 . S
H3691 C3710 0.951 . S
H3692 C3712 0.950 . S
H3693 C3713 0.950 . S
H3694 C3715 0.950 . S
H3695 C3718 0.950 . S
H3696 C3719 0.950 . S
H3697 C3721 0.950 . S
H3698 C3722 0.950 . S
H3699 C3723 0.951 . S
H3700 C3725 0.951 . S
H3701 C3727 0.950 . S
H3702 C3728 0.950 . S
H3703 C3730 0.950 . S
H3704 C3733 0.950 . S
H3705 C3734 0.950 . S
H3706 C3736 0.950 . S
H3707 C3737 0.950 . S
C3708 H3690 0.951 . S
C3708 C3709 1.366 . S
C3708 C3710 1.388 . S
C3709 C3708 1.366 . S
C3709 C3713 1.385 . S
C3710 H3691 0.951 . S
C3710 C3708 1.388 . S
C3710 C3711 1.366 . S
C3711 C3710 1.366 . S
C3711 C3712 1.414 . S
C3711 C3714 1.499 . S
C3712 H3692 0.950 . S
C3712 C3711 1.414 . S
C3712 C3713 1.374 . S
C3713 H3693 0.950 . S
C3713 C3709 1.385 . S
C3713 C3712 1.374 . S
C3714 C3711 1.499 . S
C3714 C3715 1.373 . S
C3714 C3716 1.389 . S
C3715 H3694 0.950 . S
C3715 C3714 1.373 . S
C3715 C3731 1.377 . S
C3716 C3714 1.389 . S
C3716 C3717 1.524 . S
C3716 C3730 1.377 . S
C3717 C3716 1.524 . S
C3717 C3718 1.397 . S
C3717 C3722 1.363 . S
C3718 H3695 0.950 . S
C3718 C3717 1.397 . S
C3718 C3719 1.334 . S
C3719 H3696 0.950 . S
C3719 C3718 1.334 . S
C3719 C3720 1.287 . S
C3720 C3719 1.287 . S
C3720 C3721 1.524 . S
C3720 H3739 0.913 . S
C3721 H3697 0.950 . S
C3721 C3720 1.524 . S
C3721 C3722 1.415 . S
C3722 H3698 0.950 . S
C3722 C3717 1.363 . S
C3722 C3721 1.415 . S
C3723 H3699 0.951 . S
C3723 C3724 1.366 . S
C3723 C3725 1.388 . S
C3724 C3723 1.366 . S
C3724 C3728 1.385 . S
C3725 H3700 0.951 . S
C3725 C3723 1.388 . S
C3725 C3726 1.366 . S
C3726 C3725 1.366 . S
C3726 C3727 1.414 . S
C3726 C3729 1.499 . S
C3727 H3701 0.950 . S
C3727 C3726 1.414 . S
C3727 C3728 1.374 . S
C3728 H3702 0.950 . S
C3728 C3724 1.385 . S
C3728 C3727 1.374 . S
C3729 C3726 1.499 . S
C3729 C3730 1.373 . S
C3729 C3731 1.389 . S
C3730 H3703 0.950 . S
C3730 C3716 1.377 . S
C3730 C3729 1.373 . S
C3731 C3715 1.377 . S
C3731 C3729 1.389 . S
C3731 C3732 1.524 . S
C3732 C3731 1.524 . S
C3732 C3733 1.397 . S
C3732 C3737 1.363 . S
C3733 H3704 0.950 . S
C3733 C3732 1.397 . S
C3733 C3734 1.334 . S
C3734 H3705 0.950 . S
C3734 C3733 1.334 . S
C3734 C3735 1.287 . S
C3735 C3734 1.287 . S
C3735 C3736 1.524 . S
C3735 H3738 0.999 . S
C3736 H3706 0.950 . S
C3736 C3735 1.524 . S
C3736 C3737 1.415 . S
C3737 H3707 0.950 . S
C3737 C3732 1.363 . S
C3737 C3736 1.415 . S
H3738 C3735 0.999 . S
H3739 C3720 0.913 . S
H3740 C3758 0.951 . S
H3741 C3760 0.951 . S
H3742 C3762 0.950 . S
H3743 C3763 0.950 . S
H3744 C3765 0.950 . S
H3745 C3768 0.950 . S
H3746 C3769 0.950 . S
H3747 C3771 0.950 . S
H3748 C3772 0.950 . S
H3749 C3773 0.951 . S
H3750 C3775 0.951 . S
H3751 C3777 0.950 . S
H3752 C3778 0.950 . S
H3753 C3780 0.950 . S
H3754 C3783 0.950 . S
H3755 C3784 0.950 . S
H3756 C3786 0.950 . S
H3757 C3787 0.950 . S
C3758 H3740 0.951 . S
C3758 C3759 1.366 . S
C3758 C3760 1.388 . S
C3759 C3758 1.366 . S
C3759 C3763 1.385 . S
C3760 H3741 0.951 . S
C3760 C3758 1.388 . S
C3760 C3761 1.366 . S
C3761 C3760 1.366 . S
C3761 C3762 1.414 . S
C3761 C3764 1.499 . S
C3762 H3742 0.950 . S
C3762 C3761 1.414 . S
C3762 C3763 1.374 . S
C3763 H3743 0.950 . S
C3763 C3759 1.385 . S
C3763 C3762 1.374 . S
C3764 C3761 1.499 . S
C3764 C3765 1.373 . S
C3764 C3766 1.389 . S
C3765 H3744 0.950 . S
C3765 C3764 1.373 . S
C3765 C3781 1.377 . S
C3766 C3764 1.389 . S
C3766 C3767 1.524 . S
C3766 C3780 1.377 . S
C3767 C3766 1.524 . S
C3767 C3768 1.397 . S
C3767 C3772 1.363 . S
C3768 H3745 0.950 . S
C3768 C3767 1.397 . S
C3768 C3769 1.334 . S
C3769 H3746 0.950 . S
C3769 C3768 1.334 . S
C3769 C3770 1.287 . S
C3770 C3769 1.287 . S
C3770 C3771 1.524 . S
C3770 H3789 0.913 . S
C3771 H3747 0.950 . S
C3771 C3770 1.524 . S
C3771 C3772 1.415 . S
C3772 H3748 0.950 . S
C3772 C3767 1.363 . S
C3772 C3771 1.415 . S
C3773 H3749 0.951 . S
C3773 C3774 1.366 . S
C3773 C3775 1.388 . S
C3774 C3773 1.366 . S
C3774 C3778 1.385 . S
C3775 H3750 0.951 . S
C3775 C3773 1.388 . S
C3775 C3776 1.366 . S
C3776 C3775 1.366 . S
C3776 C3777 1.414 . S
C3776 C3779 1.499 . S
C3777 H3751 0.950 . S
C3777 C3776 1.414 . S
C3777 C3778 1.374 . S
C3778 H3752 0.950 . S
C3778 C3774 1.385 . S
C3778 C3777 1.374 . S
C3779 C3776 1.499 . S
C3779 C3780 1.373 . S
C3779 C3781 1.389 . S
C3780 H3753 0.950 . S
C3780 C3766 1.377 . S
C3780 C3779 1.373 . S
C3781 C3765 1.377 . S
C3781 C3779 1.389 . S
C3781 C3782 1.524 . S
C3782 C3781 1.524 . S
C3782 C3783 1.397 . S
C3782 C3787 1.363 . S
C3783 H3754 0.950 . S
C3783 C3782 1.397 . S
C3783 C3784 1.334 . S
C3784 H3755 0.950 . S
C3784 C3783 1.334 . S
C3784 C3785 1.287 . S
C3785 C3784 1.287 . S
C3785 C3786 1.524 . S
C3785 H3788 0.999 . S
C3786 H3756 0.950 . S
C3786 C3785 1.524 . S
C3786 C3787 1.415 . S
C3787 H3757 0.950 . S
C3787 C3782 1.363 . S
C3787 C3786 1.415 . S
H3788 C3785 0.999 . S
H3789 C3770 0.913 . S
H3790 C3808 0.951 . S
H3791 C3810 0.951 . S
H3792 C3812 0.950 . S
H3793 C3813 0.950 . S
H3794 C3815 0.950 . S
H3795 C3818 0.950 . S
H3796 C3819 0.950 . S
H3797 C3821 0.950 . S
H3798 C3822 0.950 . S
H3799 C3823 0.951 . S
H3800 C3825 0.951 . S
H3801 C3827 0.950 . S
H3802 C3828 0.950 . S
H3803 C3830 0.950 . S
H3804 C3833 0.950 . S
H3805 C3834 0.950 . S
H3806 C3836 0.950 . S
H3807 C3837 0.950 . S
C3808 H3790 0.951 . S
C3808 C3809 1.366 . S
C3808 C3810 1.388 . S
C3809 C3808 1.366 . S
C3809 C3813 1.385 . S
C3810 H3791 0.951 . S
C3810 C3808 1.388 . S
C3810 C3811 1.366 . S
C3811 C3810 1.366 . S
C3811 C3812 1.414 . S
C3811 C3814 1.499 . S
C3812 H3792 0.950 . S
C3812 C3811 1.414 . S
C3812 C3813 1.374 . S
C3813 H3793 0.950 . S
C3813 C3809 1.385 . S
C3813 C3812 1.374 . S
C3814 C3811 1.499 . S
C3814 C3815 1.373 . S
C3814 C3816 1.389 . S
C3815 H3794 0.950 . S
C3815 C3814 1.373 . S
C3815 C3831 1.377 . S
C3816 C3814 1.389 . S
C3816 C3817 1.524 . S
C3816 C3830 1.377 . S
C3817 C3816 1.524 . S
C3817 C3818 1.397 . S
C3817 C3822 1.363 . S
C3818 H3795 0.950 . S
C3818 C3817 1.397 . S
C3818 C3819 1.334 . S
C3819 H3796 0.950 . S
C3819 C3818 1.334 . S
C3819 C3820 1.287 . S
C3820 C3819 1.287 . S
C3820 C3821 1.524 . S
C3820 H3839 0.913 . S
C3821 H3797 0.950 . S
C3821 C3820 1.524 . S
C3821 C3822 1.415 . S
C3822 H3798 0.950 . S
C3822 C3817 1.363 . S
C3822 C3821 1.415 . S
C3823 H3799 0.951 . S
C3823 C3824 1.366 . S
C3823 C3825 1.388 . S
C3824 C3823 1.366 . S
C3824 C3828 1.385 . S
C3825 H3800 0.951 . S
C3825 C3823 1.388 . S
C3825 C3826 1.366 . S
C3826 C3825 1.366 . S
C3826 C3827 1.414 . S
C3826 C3829 1.499 . S
C3827 H3801 0.950 . S
C3827 C3826 1.414 . S
C3827 C3828 1.374 . S
C3828 H3802 0.950 . S
C3828 C3824 1.385 . S
C3828 C3827 1.374 . S
C3829 C3826 1.499 . S
C3829 C3830 1.373 . S
C3829 C3831 1.389 . S
C3830 H3803 0.950 . S
C3830 C3816 1.377 . S
C3830 C3829 1.373 . S
C3831 C3815 1.377 . S
C3831 C3829 1.389 . S
C3831 C3832 1.524 . S
C3832 C3831 1.524 . S
C3832 C3833 1.397 . S
C3832 C3837 1.363 . S
C3833 H3804 0.950 . S
C3833 C3832 1.397 . S
C3833 C3834 1.334 . S
C3834 H3805 0.950 . S
C3834 C3833 1.334 . S
C3834 C3835 1.287 . S
C3835 C3834 1.287 . S
C3835 C3836 1.524 . S
C3835 H3838 0.999 . S
C3836 H3806 0.950 . S
C3836 C3835 1.524 . S
C3836 C3837 1.415 . S
C3837 H3807 0.950 . S
C3837 C3832 1.363 . S
C3837 C3836 1.415 . S
H3838 C3835 0.999 . S
H3839 C3820 0.913 . S
H3840 C3858 0.951 . S
H3841 C3860 0.951 . S
H3842 C3862 0.950 . S
H3843 C3863 0.950 . S
H3844 C3865 0.950 . S
H3845 C3868 0.950 . S
H3846 C3869 0.950 . S
H3847 C3871 0.950 . S
H3848 C3872 0.950 . S
H3849 C3873 0.951 . S
H3850 C3875 0.951 . S
H3851 C3877 0.950 . S
H3852 C3878 0.950 . S
H3853 C3880 0.950 . S
H3854 C3883 0.950 . S
H3855 C3884 0.950 . S
H3856 C3886 0.950 . S
H3857 C3887 0.950 . S
C3858 H3840 0.951 . S
C3858 C3859 1.366 . S
C3858 C3860 1.388 . S
C3859 C3858 1.366 . S
C3859 C3863 1.385 . S
C3860 H3841 0.951 . S
C3860 C3858 1.388 . S
C3860 C3861 1.366 . S
C3861 C3860 1.366 . S
C3861 C3862 1.414 . S
C3861 C3864 1.499 . S
C3862 H3842 0.950 . S
C3862 C3861 1.414 . S
C3862 C3863 1.374 . S
C3863 H3843 0.950 . S
C3863 C3859 1.385 . S
C3863 C3862 1.374 . S
C3864 C3861 1.499 . S
C3864 C3865 1.373 1_455 S
C3864 C3866 1.389 . S
C3865 H3844 0.950 . S
C3865 C3864 1.373 1_655 S
C3865 C3881 1.377 . S
C3866 C3864 1.389 . S
C3866 C3867 1.524 . S
C3866 C3880 1.377 . S
C3867 C3866 1.524 . S
C3867 C3868 1.397 . S
C3867 C3872 1.363 . S
C3868 H3845 0.950 . S
C3868 C3867 1.397 . S
C3868 C3869 1.334 . S
C3869 H3846 0.950 . S
C3869 C3868 1.334 . S
C3869 C3870 1.287 . S
C3870 C3869 1.287 . S
C3870 C3871 1.524 . S
C3870 H3889 0.913 . S
C3871 H3847 0.950 . S
C3871 C3870 1.524 . S
C3871 C3872 1.415 . S
C3872 H3848 0.950 . S
C3872 C3867 1.363 . S
C3872 C3871 1.415 . S
C3873 H3849 0.951 . S
C3873 C3874 1.366 . S
C3873 C3875 1.388 . S
C3874 C3873 1.366 . S
C3874 C3878 1.385 . S
C3875 H3850 0.951 . S
C3875 C3873 1.388 . S
C3875 C3876 1.366 . S
C3876 C3875 1.366 . S
C3876 C3877 1.414 . S
C3876 C3879 1.499 . S
C3877 H3851 0.950 . S
C3877 C3876 1.414 . S
C3877 C3878 1.374 . S
C3878 H3852 0.950 . S
C3878 C3874 1.385 . S
C3878 C3877 1.374 . S
C3879 C3876 1.499 . S
C3879 C3880 1.373 1_655 S
C3879 C3881 1.389 . S
C3880 H3853 0.950 . S
C3880 C3866 1.377 . S
C3880 C3879 1.373 1_455 S
C3881 C3865 1.377 . S
C3881 C3879 1.389 . S
C3881 C3882 1.524 . S
C3882 C3881 1.524 . S
C3882 C3883 1.397 . S
C3882 C3887 1.363 . S
C3883 H3854 0.950 . S
C3883 C3882 1.397 . S
C3883 C3884 1.334 . S
C3884 H3855 0.950 . S
C3884 C3883 1.334 . S
C3884 C3885 1.287 . S
C3885 C3884 1.287 . S
C3885 C3886 1.524 . S
C3885 H3888 0.999 . S
C3886 H3856 0.950 . S
C3886 C3885 1.524 . S
C3886 C3887 1.415 . S
C3887 H3857 0.950 . S
C3887 C3882 1.363 . S
C3887 C3886 1.415 . S
H3888 C3885 0.999 . S
H3889 C3870 0.913 . S
H3890 C3908 0.951 . S
H3891 C3910 0.951 . S
H3892 C3912 0.950 . S
H3893 C3913 0.950 . S
H3894 C3915 0.950 . S
H3895 C3918 0.950 . S
H3896 C3919 0.950 . S
H3897 C3921 0.950 . S
H3898 C3922 0.950 . S
H3899 C3923 0.951 . S
H3900 C3925 0.951 . S
H3901 C3927 0.950 . S
H3902 C3928 0.950 . S
H3903 C3930 0.950 . S
H3904 C3933 0.950 . S
H3905 C3934 0.950 . S
H3906 C3936 0.950 . S
H3907 C3937 0.950 . S
C3908 H3890 0.951 . S
C3908 C3909 1.366 . S
C3908 C3910 1.388 . S
C3909 C3908 1.366 . S
C3909 C3913 1.385 . S
C3910 H3891 0.951 . S
C3910 C3908 1.388 . S
C3910 C3911 1.366 . S
C3911 C3910 1.366 . S
C3911 C3912 1.414 . S
C3911 C3914 1.499 . S
C3912 H3892 0.950 . S
C3912 C3911 1.414 . S
C3912 C3913 1.374 . S
C3913 H3893 0.950 . S
C3913 C3909 1.385 . S
C3913 C3912 1.374 . S
C3914 C3911 1.499 . S
C3914 C3915 1.373 . S
C3914 C3916 1.389 . S
C3915 H3894 0.950 . S
C3915 C3914 1.373 . S
C3915 C3931 1.377 . S
C3916 C3914 1.389 . S
C3916 C3917 1.524 . S
C3916 C3930 1.377 . S
C3917 C3916 1.524 . S
C3917 C3918 1.397 . S
C3917 C3922 1.363 . S
C3918 H3895 0.950 . S
C3918 C3917 1.397 . S
C3918 C3919 1.334 . S
C3919 H3896 0.950 . S
C3919 C3918 1.334 . S
C3919 C3920 1.287 . S
C3920 C3919 1.287 . S
C3920 C3921 1.524 . S
C3920 H3939 0.913 . S
C3921 H3897 0.950 . S
C3921 C3920 1.524 . S
C3921 C3922 1.415 . S
C3922 H3898 0.950 . S
C3922 C3917 1.363 . S
C3922 C3921 1.415 . S
C3923 H3899 0.951 . S
C3923 C3924 1.366 . S
C3923 C3925 1.388 . S
C3924 C3923 1.366 . S
C3924 C3928 1.385 . S
C3925 H3900 0.951 . S
C3925 C3923 1.388 . S
C3925 C3926 1.366 . S
C3926 C3925 1.366 . S
C3926 C3927 1.414 . S
C3926 C3929 1.499 . S
C3927 H3901 0.950 . S
C3927 C3926 1.414 . S
C3927 C3928 1.374 . S
C3928 H3902 0.950 . S
C3928 C3924 1.385 . S
C3928 C3927 1.374 . S
C3929 C3926 1.499 . S
C3929 C3930 1.373 . S
C3929 C3931 1.389 . S
C3930 H3903 0.950 . S
C3930 C3916 1.377 . S
C3930 C3929 1.373 . S
C3931 C3915 1.377 . S
C3931 C3929 1.389 . S
C3931 C3932 1.524 . S
C3932 C3931 1.524 . S
C3932 C3933 1.397 . S
C3932 C3937 1.363 . S
C3933 H3904 0.950 . S
C3933 C3932 1.397 . S
C3933 C3934 1.334 . S
C3934 H3905 0.950 . S
C3934 C3933 1.334 . S
C3934 C3935 1.287 . S
C3935 C3934 1.287 . S
C3935 C3936 1.524 . S
C3935 H3938 0.999 . S
C3936 H3906 0.950 . S
C3936 C3935 1.524 . S
C3936 C3937 1.415 . S
C3937 H3907 0.950 . S
C3937 C3932 1.363 . S
C3937 C3936 1.415 . S
H3938 C3935 0.999 . S
H3939 C3920 0.913 . S
H3940 C3958 0.951 . S
H3941 C3960 0.951 . S
H3942 C3962 0.950 . S
H3943 C3963 0.950 . S
H3944 C3965 0.950 . S
H3945 C3968 0.950 . S
H3946 C3969 0.950 . S
H3947 C3971 0.950 . S
H3948 C3972 0.950 . S
H3949 C3973 0.951 . S
H3950 C3975 0.951 . S
H3951 C3977 0.950 . S
H3952 C3978 0.950 . S
H3953 C3980 0.950 . S
H3954 C3983 0.950 . S
H3955 C3984 0.950 . S
H3956 C3986 0.950 . S
H3957 C3987 0.950 . S
C3958 H3940 0.951 . S
C3958 C3959 1.366 . S
C3958 C3960 1.388 . S
C3959 C3958 1.366 . S
C3959 C3963 1.385 . S
C3960 H3941 0.951 . S
C3960 C3958 1.388 . S
C3960 C3961 1.366 . S
C3961 C3960 1.366 . S
C3961 C3962 1.414 . S
C3961 C3964 1.499 . S
C3962 H3942 0.950 . S
C3962 C3961 1.414 . S
C3962 C3963 1.374 . S
C3963 H3943 0.950 . S
C3963 C3959 1.385 . S
C3963 C3962 1.374 . S
C3964 C3961 1.499 . S
C3964 C3965 1.373 1_545 S
C3964 C3966 1.389 . S
C3965 H3944 0.950 . S
C3965 C3964 1.373 1_565 S
C3965 C3981 1.377 . S
C3966 C3964 1.389 . S
C3966 C3967 1.524 . S
C3966 C3980 1.377 . S
C3967 C3966 1.524 . S
C3967 C3968 1.397 . S
C3967 C3972 1.363 . S
C3968 H3945 0.950 . S
C3968 C3967 1.397 . S
C3968 C3969 1.334 . S
C3969 H3946 0.950 . S
C3969 C3968 1.334 . S
C3969 C3970 1.287 . S
C3970 C3969 1.287 . S
C3970 C3971 1.524 . S
C3970 H3989 0.913 . S
C3971 H3947 0.950 . S
C3971 C3970 1.524 . S
C3971 C3972 1.415 . S
C3972 H3948 0.950 . S
C3972 C3967 1.363 . S
C3972 C3971 1.415 . S
C3973 H3949 0.951 . S
C3973 C3974 1.366 . S
C3973 C3975 1.388 . S
C3974 C3973 1.366 . S
C3974 C3978 1.385 . S
C3975 H3950 0.951 . S
C3975 C3973 1.388 . S
C3975 C3976 1.366 . S
C3976 C3975 1.366 . S
C3976 C3977 1.414 . S
C3976 C3979 1.499 . S
C3977 H3951 0.950 . S
C3977 C3976 1.414 . S
C3977 C3978 1.374 . S
C3978 H3952 0.950 . S
C3978 C3974 1.385 . S
C3978 C3977 1.374 . S
C3979 C3976 1.499 . S
C3979 C3980 1.373 1_565 S
C3979 C3981 1.389 . S
C3980 H3953 0.950 . S
C3980 C3966 1.377 . S
C3980 C3979 1.373 1_545 S
C3981 C3965 1.377 . S
C3981 C3979 1.389 . S
C3981 C3982 1.524 . S
C3982 C3981 1.524 . S
C3982 C3983 1.397 . S
C3982 C3987 1.363 . S
C3983 H3954 0.950 . S
C3983 C3982 1.397 . S
C3983 C3984 1.334 . S
C3984 H3955 0.950 . S
C3984 C3983 1.334 . S
C3984 C3985 1.287 . S
C3985 C3984 1.287 . S
C3985 C3986 1.524 . S
C3985 H3988 0.999 . S
C3986 H3956 0.950 . S
C3986 C3985 1.524 . S
C3986 C3987 1.415 . S
C3987 H3957 0.950 . S
C3987 C3982 1.363 . S
C3987 C3986 1.415 . S
H3988 C3985 0.999 . S
H3989 C3970 0.913 . S
H3990 C4008 0.951 . S
H3991 C4010 0.951 . S
H3992 C4012 0.950 . S
H3993 C4013 0.950 . S
H3994 C4015 0.950 . S
H3995 C4018 0.950 . S
H3996 C4019 0.950 . S
H3997 C4021 0.950 . S
H3998 C4022 0.950 1_565 S
H3999 C4023 0.951 . S
H4000 C4025 0.951 . S
H4001 C4027 0.950 . S
H4002 C4028 0.950 . S
H4003 C4030 0.950 . S
H4004 C4033 0.950 . S
H4005 C4034 0.950 . S
H4006 C4036 0.950 . S
H4007 C4037 0.950 1_545 S
C4008 H3990 0.951 . S
C4008 C4009 1.366 . S
C4008 C4010 1.388 . S
C4009 C4008 1.366 . S
C4009 C4013 1.385 . S
C4010 H3991 0.951 . S
C4010 C4008 1.388 . S
C4010 C4011 1.366 . S
C4011 C4010 1.366 . S
C4011 C4012 1.414 . S
C4011 C4014 1.499 . S
C4012 H3992 0.950 . S
C4012 C4011 1.414 . S
C4012 C4013 1.374 . S
C4013 H3993 0.950 . S
C4013 C4009 1.385 . S
C4013 C4012 1.374 . S
C4014 C4011 1.499 . S
C4014 C4015 1.373 . S
C4014 C4016 1.389 1_554 S
C4015 H3994 0.950 . S
C4015 C4014 1.373 . S
C4015 C4031 1.377 1_545 S
C4016 C4014 1.389 1_556 S
C4016 C4017 1.524 . S
C4016 C4030 1.377 1_545 S
C4017 C4016 1.524 . S
C4017 C4018 1.397 . S
C4017 C4022 1.363 . S
C4018 H3995 0.950 . S
C4018 C4017 1.397 . S
C4018 C4019 1.334 . S
C4019 H3996 0.950 . S
C4019 C4018 1.334 . S
C4019 C4020 1.287 . S
C4020 C4019 1.287 . S
C4020 C4021 1.524 . S
C4020 H4039 0.913 . S
C4021 H3997 0.950 . S
C4021 C4020 1.524 . S
C4021 C4022 1.415 . S
C4022 H3998 0.950 1_545 S
C4022 C4017 1.363 . S
C4022 C4021 1.415 . S
C4023 H3999 0.951 . S
C4023 C4024 1.366 . S
C4023 C4025 1.388 . S
C4024 C4023 1.366 . S
C4024 C4028 1.385 . S
C4025 H4000 0.951 . S
C4025 C4023 1.388 . S
C4025 C4026 1.366 . S
C4026 C4025 1.366 . S
C4026 C4027 1.414 . S
C4026 C4029 1.499 . S
C4027 H4001 0.950 . S
C4027 C4026 1.414 . S
C4027 C4028 1.374 . S
C4028 H4002 0.950 . S
C4028 C4024 1.385 . S
C4028 C4027 1.374 . S
C4029 C4026 1.499 . S
C4029 C4030 1.373 . S
C4029 C4031 1.389 1_556 S
C4030 H4003 0.950 . S
C4030 C4016 1.377 1_565 S
C4030 C4029 1.373 . S
C4031 C4015 1.377 1_565 S
C4031 C4029 1.389 1_554 S
C4031 C4032 1.524 . S
C4032 C4031 1.524 . S
C4032 C4033 1.397 . S
C4032 C4037 1.363 . S
C4033 H4004 0.950 . S
C4033 C4032 1.397 . S
C4033 C4034 1.334 . S
C4034 H4005 0.950 . S
C4034 C4033 1.334 . S
C4034 C4035 1.287 . S
C4035 C4034 1.287 . S
C4035 C4036 1.524 . S
C4035 H4038 0.999 . S
C4036 H4006 0.950 . S
C4036 C4035 1.524 . S
C4036 C4037 1.415 . S
C4037 H4007 0.950 1_565 S
C4037 C4032 1.363 . S
C4037 C4036 1.415 . S
H4038 C4035 0.999 . S
H4039 C4020 0.913 . S
H4040 C4058 0.951 . S
H4041 C4060 0.951 . S
H4042 C4062 0.950 . S
H4043 C4063 0.950 . S
H4044 C4065 0.929 . S
H4045 C4068 0.950 . S
H4046 C4069 0.950 . S
H4047 C4071 0.950 . S
H4048 C4072 0.950 . S
H4049 C4073 0.951 . S
H4050 C4075 0.951 . S
H4051 C4077 0.950 . S
H4052 C4078 0.950 . S
H4053 C4080 0.929 . S
H4054 C4083 0.950 . S
H4055 C4084 0.950 . S
H4056 C4086 0.950 . S
H4057 C4087 0.950 . S
C4058 H4040 0.951 . S
C4058 C4059 1.366 . S
C4058 C4060 1.388 . S
C4059 C4058 1.366 . S
C4059 C4063 1.385 . S
C4060 H4041 0.951 . S
C4060 C4058 1.388 . S
C4060 C4061 1.366 . S
C4061 C4060 1.366 . S
C4061 C4062 1.414 . S
C4061 C4064 1.499 . S
C4062 H4042 0.950 . S
C4062 C4061 1.414 . S
C4062 C4063 1.374 . S
C4063 H4043 0.950 . S
C4063 C4059 1.385 . S
C4063 C4062 1.374 . S
C4064 C4061 1.499 . S
C4064 C4065 1.385 . S
C4064 C4066 1.389 . S
C4065 H4044 0.929 . S
C4065 C4064 1.385 . S
C4065 C4081 1.338 1_456 S
C4066 C4064 1.389 . S
C4066 C4067 1.524 . S
C4066 C4080 1.337 1_456 S
C4067 C4066 1.524 . S
C4067 C4068 1.397 . S
C4067 C4072 1.363 . S
C4068 H4045 0.950 . S
C4068 C4067 1.397 . S
C4068 C4069 1.334 . S
C4069 H4046 0.950 . S
C4069 C4068 1.334 . S
C4069 C4070 1.287 . S
C4070 C4069 1.287 . S
C4070 C4071 1.524 . S
C4070 H4089 0.913 . S
C4071 H4047 0.950 . S
C4071 C4070 1.524 . S
C4071 C4072 1.415 . S
C4072 H4048 0.950 . S
C4072 C4067 1.363 . S
C4072 C4071 1.415 . S
C4073 H4049 0.951 . S
C4073 C4074 1.366 . S
C4073 C4075 1.388 . S
C4074 C4073 1.366 . S
C4074 C4078 1.385 . S
C4075 H4050 0.951 . S
C4075 C4073 1.388 . S
C4075 C4076 1.366 . S
C4076 C4075 1.366 . S
C4076 C4077 1.414 . S
C4076 C4079 1.499 . S
C4077 H4051 0.950 . S
C4077 C4076 1.414 . S
C4077 C4078 1.374 . S
C4078 H4052 0.950 . S
C4078 C4074 1.385 . S
C4078 C4077 1.374 . S
C4079 C4076 1.499 . S
C4079 C4080 1.385 . S
C4079 C4081 1.389 . S
C4080 H4053 0.929 . S
C4080 C4066 1.337 1_654 S
C4080 C4079 1.385 . S
C4081 C4065 1.338 1_654 S
C4081 C4079 1.389 . S
C4081 C4082 1.524 . S
C4082 C4081 1.524 . S
C4082 C4083 1.397 . S
C4082 C4087 1.363 . S
C4083 H4054 0.950 . S
C4083 C4082 1.397 . S
C4083 C4084 1.334 . S
C4084 H4055 0.950 . S
C4084 C4083 1.334 . S
C4084 C4085 1.287 . S
C4085 C4084 1.287 . S
C4085 C4086 1.524 . S
C4085 H4088 0.999 . S
C4086 H4056 0.950 . S
C4086 C4085 1.524 . S
C4086 C4087 1.415 . S
C4087 H4057 0.950 . S
C4087 C4082 1.363 . S
C4087 C4086 1.415 . S
H4088 C4085 0.999 . S
H4089 C4070 0.913 . S
H4090 C4108 0.951 . S
H4091 C4110 0.951 . S
H4092 C4112 0.950 . S
H4093 C4113 0.950 . S
H4094 C4115 0.950 . S
H4095 C4118 0.950 . S
H4096 C4119 0.950 . S
H4097 C4121 0.950 1_556 S
H4098 C4122 0.950 . S
H4099 C4123 0.951 . S
H4100 C4125 0.951 . S
H4101 C4127 0.950 . S
H4102 C4128 0.950 . S
H4103 C4130 0.950 . S
H4104 C4133 0.950 . S
H4105 C4134 0.950 . S
H4106 C4136 0.950 1_554 S
H4107 C4137 0.950 . S
C4108 H4090 0.951 . S
C4108 C4109 1.366 . S
C4108 C4110 1.388 . S
C4109 C4108 1.366 . S
C4109 C4113 1.385 . S
C4110 H4091 0.951 . S
C4110 C4108 1.388 . S
C4110 C4111 1.366 . S
C4111 C4110 1.366 . S
C4111 C4112 1.414 . S
C4111 C4114 1.499 . S
C4112 H4092 0.950 . S
C4112 C4111 1.414 . S
C4112 C4113 1.374 . S
C4113 H4093 0.950 . S
C4113 C4109 1.385 . S
C4113 C4112 1.374 . S
C4114 C4111 1.499 . S
C4114 C4115 1.373 . S
C4114 C4116 1.389 . S
C4115 H4094 0.950 . S
C4115 C4114 1.373 . S
C4115 C4131 1.377 1_554 S
C4116 C4114 1.389 . S
C4116 C4117 1.524 . S
C4116 C4130 1.377 1_554 S
C4117 C4116 1.524 . S
C4117 C4118 1.397 . S
C4117 C4122 1.363 1_554 S
C4118 H4095 0.950 . S
C4118 C4117 1.397 . S
C4118 C4119 1.334 . S
C4119 H4096 0.950 . S
C4119 C4118 1.334 . S
C4119 C4120 1.287 . S
C4120 C4119 1.287 . S
C4120 C4121 1.524 . S
C4120 H4139 0.913 . S
C4121 H4097 0.950 1_554 S
C4121 C4120 1.524 . S
C4121 C4122 1.415 1_554 S
C4122 H4098 0.950 . S
C4122 C4117 1.363 1_556 S
C4122 C4121 1.415 1_556 S
C4123 H4099 0.951 . S
C4123 C4124 1.366 . S
C4123 C4125 1.388 . S
C4124 C4123 1.366 . S
C4124 C4128 1.385 . S
C4125 H4100 0.951 . S
C4125 C4123 1.388 . S
C4125 C4126 1.366 . S
C4126 C4125 1.366 . S
C4126 C4127 1.414 . S
C4126 C4129 1.499 . S
C4127 H4101 0.950 . S
C4127 C4126 1.414 . S
C4127 C4128 1.374 . S
C4128 H4102 0.950 . S
C4128 C4124 1.385 . S
C4128 C4127 1.374 . S
C4129 C4126 1.499 . S
C4129 C4130 1.373 . S
C4129 C4131 1.389 . S
C4130 H4103 0.950 . S
C4130 C4116 1.377 1_556 S
C4130 C4129 1.373 . S
C4131 C4115 1.377 1_556 S
C4131 C4129 1.389 . S
C4131 C4132 1.524 . S
C4132 C4131 1.524 . S
C4132 C4133 1.397 . S
C4132 C4137 1.363 1_556 S
C4133 H4104 0.950 . S
C4133 C4132 1.397 . S
C4133 C4134 1.334 . S
C4134 H4105 0.950 . S
C4134 C4133 1.334 . S
C4134 C4135 1.287 . S
C4135 C4134 1.287 . S
C4135 C4136 1.524 . S
C4135 H4138 0.999 . S
C4136 H4106 0.950 1_556 S
C4136 C4135 1.524 . S
C4136 C4137 1.415 1_556 S
C4137 H4107 0.950 . S
C4137 C4132 1.363 1_554 S
C4137 C4136 1.415 1_554 S
H4138 C4135 0.999 . S
H4139 C4120 0.913 . S
C1459 C21 1.696 . S
C1474 C1181 1.696 . S
C1509 C61 1.695 . S
C1524 C1101 1.695 . S
C1559 C101 1.694 . S
C1574 C1141 1.695 . S
C1609 C141 1.696 . S
C1624 C541 1.697 . S
C1659 C581 1.696 . S
C1674 C181 1.696 . S
C1709 C221 1.696 . S
C1724 C501 1.695 . S
C1759 C261 1.756 . S
C1774 C941 1.756 . S
C1809 C301 1.755 . S
C1824 C861 1.755 . S
C1859 C341 1.755 . S
C1874 C901 1.755 . S
C1909 C1261 1.756 . S
C1924 C381 1.756 . S
C1959 C421 1.756 . S
C1974 C1301 1.756 . S
C2009 C461 1.756 . S
C2024 C1221 1.756 . S
C2059 C621 1.695 . S
C2074 C1021 1.695 . S
C2109 C661 1.696 . S
C2124 C1061 1.695 . S
C2159 C701 1.696 . S
C2174 C981 1.696 . S
C2209 C1421 1.755 . S
C2224 C741 1.755 . S
C2259 C781 1.756 . S
C2274 C1341 1.756 . S
C2309 C1381 1.755 . S
C2324 C821 1.755 . S
C2359 C2 1.692 . S
C2374 C162 1.691 . S
C2409 C202 1.693 . S
C2424 C42 1.694 . S
C2459 C122 1.691 . S
C2474 C82 1.691 . S
C2509 C402 1.725 . S
C2524 C242 1.725 . S
C2559 C282 1.726 . S
C2574 C442 1.726 . S
C2609 C362 1.725 . S
C2624 C322 1.724 . S
C2659 C482 1.691 . S
C2674 C642 1.691 . S
C2709 C522 1.692 . S
C2724 C682 1.692 . S
C2759 C602 1.691 . S
C2774 C562 1.691 . S
C2809 C722 1.724 . S
C2824 C882 1.725 . S
C2859 C762 1.724 . S
C2874 C922 1.724 . S
C2909 C842 1.725 . S
C2924 C802 1.725 . S
C2959 C962 1.691 . S
C2974 C1122 1.691 . S
C3009 C1002 1.693 . S
C3024 C1162 1.693 . S
C3059 C1042 1.691 . S
C3074 C1082 1.691 . S
C3109 C1362 1.725 . S
C3124 C1202 1.725 . S
C3159 C1242 1.728 . S
C3174 C1402 1.728 . S
C3209 C1322 1.725 . S
C3224 C1282 1.725 . S
C3259 C1215 1.868 . S
C3274 C15 1.861 . S
C3309 C1255 1.867 . S
C3324 C55 1.860 . S
C3359 C1295 1.867 . S
C3374 C95 1.860 . S
C3409 C135 1.860 . S
C3424 C855 1.867 . S
C3459 C895 1.868 . S
C3474 C175 1.861 . S
C3509 C215 1.861 . S
C3524 C935 1.868 . S
C3559 C495 1.860 . S
C3574 C255 1.867 . S
C3609 C535 1.862 . S
C3624 C295 1.869 . S
C3659 C575 1.860 . S
C3674 C335 1.867 . S
C3709 C1095 1.860 . S
C3724 C375 1.867 . S
C3759 C415 1.868 . S
C3774 C1135 1.861 . S
C3809 C455 1.867 . S
C3824 C1175 1.860 . S
C3859 C1335 1.867 . S
C3874 C615 1.860 . S
C3909 C1375 1.867 . S
C3924 C655 1.860 . S
C3959 C695 1.860 . S
C3974 C1415 1.867 . S
C4009 C735 1.866 . S
C4024 C975 1.859 . S
C4059 C1015 1.861 . S
C4074 C775 1.868 . S
C4109 C815 1.867 . S
C4124 C1055 1.860 . S
