# Generated by pormake.
# Topology atn, (4)-cn, num edge types: 1
# Building blocks:
#     Node 0, Type 0, BuildingBlock: KUFVIS_clean_sbu_0, # of connection points: 4
#     Node 1, Type 0, BuildingBlock: KUFVIS_clean_sbu_0, # of connection points: 4
#     Node 2, Type 0, BuildingBlock: KUFVIS_clean_sbu_0, # of connection points: 4
#     Node 3, Type 0, BuildingBlock: KUFVIS_clean_sbu_0, # of connection points: 4
#     Node 4, Type 0, BuildingBlock: KUFVIS_clean_sbu_0, # of connection points: 4
#     Node 5, Type 0, BuildingBlock: KUFVIS_clean_sbu_0, # of connection points: 4
#     Node 6, Type 0, BuildingBlock: KUFVIS_clean_sbu_0, # of connection points: 4
#     Node 7, Type 0, BuildingBlock: KUFVIS_clean_sbu_0, # of connection points: 4
#     Node 8, Type 0, BuildingBlock: KUFVIS_clean_sbu_0, # of connection points: 4
#     Node 9, Type 0, BuildingBlock: KUFVIS_clean_sbu_0, # of connection points: 4
#     Node 10, Type 0, BuildingBlock: KUFVIS_clean_sbu_0, # of connection points: 4
#     Node 11, Type 0, BuildingBlock: KUFVIS_clean_sbu_0, # of connection points: 4
#     Node 12, Type 0, BuildingBlock: KUFVIS_clean_sbu_0, # of connection points: 4
#     Node 13, Type 0, BuildingBlock: KUFVIS_clean_sbu_0, # of connection points: 4
#     Node 14, Type 0, BuildingBlock: KUFVIS_clean_sbu_0, # of connection points: 4
#     Node 15, Type 0, BuildingBlock: KUFVIS_clean_sbu_0, # of connection points: 4
#     Edge 16, Type (0, 0), None
#     Edge 17, Type (0, 0), None
#     Edge 18, Type (0, 0), None
#     Edge 19, Type (0, 0), None
#     Edge 20, Type (0, 0), None
#     Edge 21, Type (0, 0), None
#     Edge 22, Type (0, 0), None
#     Edge 23, Type (0, 0), None
#     Edge 24, Type (0, 0), None
#     Edge 25, Type (0, 0), None
#     Edge 26, Type (0, 0), None
#     Edge 27, Type (0, 0), None
#     Edge 28, Type (0, 0), None
#     Edge 29, Type (0, 0), None
#     Edge 30, Type (0, 0), None
#     Edge 31, Type (0, 0), None
#     Edge 32, Type (0, 0), None
#     Edge 33, Type (0, 0), None
#     Edge 34, Type (0, 0), None
#     Edge 35, Type (0, 0), None
#     Edge 36, Type (0, 0), None
#     Edge 37, Type (0, 0), None
#     Edge 38, Type (0, 0), None
#     Edge 39, Type (0, 0), None
#     Edge 40, Type (0, 0), None
#     Edge 41, Type (0, 0), None
#     Edge 42, Type (0, 0), None
#     Edge 43, Type (0, 0), None
#     Edge 44, Type (0, 0), None
#     Edge 45, Type (0, 0), None
#     Edge 46, Type (0, 0), None
#     Edge 47, Type (0, 0), None
# Relax obj value: 0.056
# Max RMSD: 0.083
# Mean RMSD: 0.083
data_MOF--net-atn--node1-KUFVIS_clean_sbu_0--edge1-none
_symmetry_space_group_name_H-M    P1
_symmetry_Int_Tables_number       1
_symmetry_cell_setting            triclinic
loop_
_symmetry_equiv_pos_as_xyz
'x, y, z'
_cell_length_a     28.708961
_cell_length_b     28.7085
_cell_length_c     11.986551
_cell_angle_alpha  89.993201
_cell_angle_beta   89.973187
_cell_angle_gamma 89.997351
loop_
_atom_site_label
_atom_site_type_symbol
_atom_site_fract_x
_atom_site_fract_y
_atom_site_fract_z
_atom_type_partial_charge
Mn0 Mn 0.21511 0.37984 0.05226 0.0
Mn1 Mn 0.13643 0.35817 0.04959 0.0
C2 C 0.19306 0.33253 0.23181 0.0
C3 C 0.26758 0.31373 0.04198 0.0
C4 C 0.18666 0.47249 0.03802 0.0
O5 O 0.20583 0.37673 0.86652 0.0
O6 O 0.15062 0.32954 0.89735 0.0
C7 C 0.07081 0.25579 -0.0029 0.0
N8 N 0.06768 0.30186 0.03387 0.0
C9 C -0.0074 0.28727 0.13622 0.0
C10 C -0.00435 0.2421 0.09085 0.0
C11 C 0.03302 0.22732 0.0241 0.0
C12 C 0.02486 0.3207 0.10466 0.0
H13 H 0.08104 0.28994 0.01025 0.0
C14 C 0.1739 0.35025 0.8228 0.0
O15 O 0.28214 0.35559 0.04777 0.0
O16 O 0.22332 0.30921 0.03861 0.0
N17 N 0.10175 0.4052 0.18113 0.0
C18 C 0.12385 0.41243 0.30622 0.0
C19 C 0.06591 0.40268 0.43993 0.0
C20 C 0.01377 0.3834 0.40703 0.0
C21 C -0.00335 0.36782 0.28357 0.0
C22 C 0.02892 0.37217 0.17084 0.0
H23 H 0.16056 0.41179 0.32124 0.0
O24 O 0.21547 0.37154 0.23187 0.0
O25 O 0.1844 0.32164 0.13013 0.0
O26 O 0.22665 0.4538 0.04754 0.0
O27 O 0.15484 0.43726 0.03373 0.0
C28 C 0.95958 0.33727 0.28149 0.0
C29 C 0.95918 0.29728 0.21536 0.0
H30 H 0.96935 0.21641 0.11159 0.0
H31 H 0.03346 0.19167 -0.0051 0.0
H32 H 0.07243 0.4101 0.52638 0.0
H33 H -0.00787 0.37844 0.47575 0.0
H34 H 0.93368 0.34162 0.34422 0.0
H35 H 0.93344 0.27083 0.23042 0.0
Mn36 Mn 0.60295 0.21421 0.0559 0.0
Mn37 Mn 0.62511 0.13772 0.05237 0.0
C38 C 0.65222 0.194 0.23458 0.0
C39 C 0.66758 0.26767 0.04249 0.0
C40 C 0.51053 0.18446 0.03641 0.0
O41 O 0.60474 0.20457 0.86976 0.0
O42 O 0.65551 0.15289 0.90177 0.0
C43 C 0.72554 0.07133 0.00437 0.0
N44 N 0.67883 0.06755 0.0365 0.0
C45 C 0.6938 -0.0049 0.14861 0.0
C46 C 0.73988 -0.00091 0.10917 0.0
C47 C 0.75477 0.03545 0.03981 0.0
C48 C 0.65962 0.02573 0.10959 0.0
H49 H 0.69098 0.0809 0.01305 0.0
C50 C 0.63334 0.17442 0.82662 0.0
O51 O 0.62554 0.28167 0.04896 0.0
O52 O 0.67297 0.22353 0.03952 0.0
N53 N 0.5777 0.1051 0.187 0.0
C54 C 0.57179 0.12741 0.31167 0.0
C55 C 0.57962 0.06919 0.44561 0.0
C56 C 0.59731 0.0165 0.4128 0.0
C57 C 0.61232 -0.00122 0.28947 0.0
C58 C 0.60872 0.03108 0.17623 0.0
H59 H 0.57454 0.16372 0.32734 0.0
O60 O 0.6131 0.21624 0.23459 0.0
O61 O 0.66268 0.18488 0.1329 0.0
O62 O 0.52864 0.22426 0.05404 0.0
O63 O 0.54599 0.1533 0.02687 0.0
C64 C 0.64238 0.96111 0.28805 0.0
C65 C 0.68293 0.96088 0.22493 0.0
H66 H 0.76592 0.97403 0.1355 0.0
H67 H 0.79092 0.0365 0.01442 0.0
H68 H 0.57292 0.07638 0.53295 0.0
H69 H 0.60323 -0.00455 0.48172 0.0
H70 H 0.63707 0.93411 0.34787 0.0
H71 H 0.70903 0.93491 0.24097 0.0
Mn72 Mn 0.76888 0.60109 0.05409 0.0
Mn73 Mn 0.84709 0.62385 0.05014 0.0
C74 C 0.7906 0.64881 0.23317 0.0
C75 C 0.71525 0.66568 0.04517 0.0
C76 C 0.79756 0.5092 0.03915 0.0
O77 O 0.77803 0.60443 0.86806 0.0
O78 O 0.83246 0.6525 0.89829 0.0
C79 C 0.91236 0.72652 -0.00361 0.0
N80 N 0.91558 0.6805 0.03363 0.0
C81 C 0.99086 0.69539 0.13492 0.0
C82 C 0.98767 0.74048 0.08917 0.0
C83 C 0.95017 0.75509 0.02265 0.0
C84 C 0.95857 0.66186 0.10394 0.0
H85 H 0.90216 0.6924 0.01008 0.0
C86 C 0.80958 0.63131 0.82391 0.0
O87 O 0.70145 0.62362 0.05089 0.0
O88 O 0.75939 0.67125 0.0405 0.0
N89 N 0.88223 0.57693 0.18111 0.0
C90 C 0.86041 0.56947 0.30641 0.0
C91 C 0.91842 0.57949 0.43941 0.0
C92 C 0.97039 0.5991 0.40609 0.0
C93 C 0.98728 0.61482 0.28244 0.0
C94 C 0.95486 0.61037 0.17004 0.0
H95 H 0.82375 0.56972 0.32193 0.0
O96 O 0.76864 0.60953 0.23356 0.0
O97 O 0.7989 0.65983 0.13136 0.0
O98 O 0.75752 0.52747 0.04932 0.0
O99 O 0.82917 0.54463 0.03432 0.0
C100 C 0.02413 0.64558 0.28026 0.0
C101 C 0.02442 0.68552 0.21387 0.0
H102 H 0.01397 0.76624 0.10938 0.0
H103 H 0.94965 0.79068 -0.00696 0.0
H104 H 0.91205 0.57195 0.52582 0.0
H105 H -0.00788 0.604 0.47458 0.0
H106 H 0.04983 0.64144 0.34341 0.0
H107 H 0.05015 0.71201 0.2288 0.0
Mn108 Mn 0.37983 0.7699 0.04931 0.0
Mn109 Mn 0.3599 0.85004 0.04681 0.0
C110 C 0.33299 0.79341 0.22762 0.0
C111 C 0.31457 0.71689 0.04322 0.0
C112 C 0.47281 0.7968 0.03776 0.0
O113 O 0.37521 0.77813 0.86399 0.0
O114 O 0.33118 0.83597 0.89441 0.0
C115 C 0.25889 0.91694 -0.01492 0.0
N116 N 0.30405 0.9189 0.02828 0.0
C117 C 0.28977 -0.00531 0.12534 0.0
C118 C 0.24568 -0.007 0.07373 0.0
C119 C 0.23125 0.95591 0.00589 0.0
C120 C 0.32301 0.9619 0.09828 0.0
H121 H 0.2922 0.90573 0.00404 0.0
C122 C 0.3499 0.81099 0.82009 0.0
O123 O 0.3565 0.70286 0.04914 0.0
O124 O 0.30935 0.76103 0.03677 0.0
N125 N 0.40673 0.8851 0.17986 0.0
C126 C 0.41261 0.86272 0.30552 0.0
C127 C 0.40096 0.92044 0.43922 0.0
C128 C 0.38224 0.97255 0.40528 0.0
C129 C 0.36864 0.98992 0.28006 0.0
C130 C 0.37408 0.95759 0.1674 0.0
H131 H 0.41132 0.82597 0.31974 0.0
O132 O 0.37184 0.77067 0.22874 0.0
O133 O 0.32245 0.80211 0.12589 0.0
O134 O 0.45341 0.75713 0.04376 0.0
O135 O 0.4383 0.82928 0.03487 0.0
C136 C 0.33736 0.02603 0.2776 0.0
C137 C 0.29772 0.02597 0.21003 0.0
H138 H 0.22027 0.02 0.09101 0.0
H139 H 0.19638 0.95651 0.97174 0.0
H140 H 0.40742 0.91432 0.5257 0.0
H141 H 0.37697 -0.00597 0.47423 0.0
H142 H 0.34045 0.05077 0.34297 0.0
H143 H 0.27028 0.05052 0.22535 0.0
Mn144 Mn 0.21401 0.63731 0.00273 0.0
Mn145 Mn 0.10683 0.62287 0.95608 0.0
C146 C 0.17693 0.67044 0.83397 0.0
C147 C 0.2751 0.68582 0.04427 0.0
C148 C 0.18051 0.5334 0.02363 0.0
O149 O 0.18115 0.64199 0.1659 0.0
O150 O 0.10604 0.65738 0.11541 0.0
C151 C -0.0006 0.65486 0.91716 0.0
N152 N 0.01811 0.61057 0.93949 0.0
C153 C 0.96301 0.5778 0.79652 0.0
C154 C 0.94174 0.62125 0.79602 0.0
C155 C 0.96398 0.65935 0.8393 0.0
C156 C 0.00594 0.5717 0.85038 0.0
H157 H 0.01734 0.62897 0.96446 0.0
C158 C 0.13989 0.65889 0.19239 0.0
O159 O 0.28015 0.64114 0.05022 0.0
O160 O 0.23391 0.7022 0.02747 0.0
N161 N 0.12384 0.57523 0.79777 0.0
C162 C 0.14903 0.59684 0.68483 0.0
C163 C 0.10438 0.57617 0.52415 0.0
C164 C 0.05299 0.55033 0.53416 0.0
C165 C 0.02704 0.53963 0.64926 0.0
C166 C 0.04845 0.54714 0.77535 0.0
H167 H 0.18384 0.61115 0.68846 0.0
O168 O 0.21997 0.65652 0.83139 0.0
O169 O 0.1593 0.65716 0.92657 0.0
O170 O 0.21234 0.55966 0.98072 0.0
O171 O 0.14522 0.56067 0.05388 0.0
C172 C 0.97969 0.53617 0.63554 0.0
C173 C 0.94863 0.54842 0.7153 0.0
H174 H 0.9105 0.62725 0.74896 0.0
H175 H 0.95214 0.6937 0.8159 0.0
H176 H 0.09024 0.54583 0.49399 0.0
H177 H 0.02848 0.54138 0.46211 0.0
H178 H 0.96648 0.52373 0.55704 0.0
H179 H 0.91303 0.54979 0.68941 0.0
Mn180 Mn 0.34572 0.21114 0.00046 0.0
Mn181 Mn 0.36181 0.10258 0.9486 0.0
C182 C 0.31162 0.17323 0.83376 0.0
C183 C 0.29799 0.27346 0.0418 0.0
C184 C 0.44998 0.17756 0.01959 0.0
O185 O 0.34051 0.17829 0.16264 0.0
O186 O 0.32784 0.10241 0.11159 0.0
C187 C 0.33735 0.99023 0.89966 0.0
N188 N 0.37924 0.01323 0.92381 0.0
C189 C 0.41749 0.96118 0.78021 0.0
C190 C 0.37767 0.93427 0.78549 0.0
C191 C 0.33715 0.95297 0.82564 0.0
C192 C 0.41811 0.00485 0.83239 0.0
H193 H 0.36103 0.01034 0.94901 0.0
C194 C 0.32428 0.13677 0.18862 0.0
O195 O 0.3427 0.27757 0.04755 0.0
O196 O 0.28098 0.23244 0.02535 0.0
N197 N 0.40709 0.12282 0.78833 0.0
C198 C 0.3831 0.14822 0.67817 0.0
C199 C 0.40404 0.10535 0.51463 0.0
C200 C 0.43028 0.05652 0.52003 0.0
C201 C 0.44529 0.03006 0.63012 0.0
C202 C 0.43828 0.04922 0.75871 0.0
H203 H 0.36895 0.18305 0.68462 0.0
O204 O 0.32522 0.21636 0.83057 0.0
O205 O 0.32628 0.15541 0.92507 0.0
O206 O 0.42335 0.20958 0.9789 0.0
O207 O 0.42355 0.14127 0.04672 0.0
C208 C 0.45237 0.98394 0.61093 0.0
C209 C 0.44523 0.95138 0.69099 0.0
H210 H 0.37509 0.90296 0.7371 0.0
H211 H 0.30446 0.93738 0.80123 0.0
H212 H 0.39304 0.11379 0.43167 0.0
H213 H 0.43582 0.0387 0.4431 0.0
H214 H 0.46412 0.97291 0.52969 0.0
H215 H 0.44826 0.91635 0.66243 0.0
Mn216 Mn 0.76955 0.34535 0.00276 0.0
Mn217 Mn 0.87694 0.35902 0.95668 0.0
C218 C 0.80679 0.31181 0.83463 0.0
C219 C 0.7074 0.29824 0.04299 0.0
C220 C 0.80374 0.44854 0.02424 0.0
O221 O 0.8024 0.34021 0.16624 0.0
O222 O 0.87754 0.32451 0.11594 0.0
C223 C 0.98431 0.32682 0.91734 0.0
N224 N 0.96569 0.37114 0.93999 0.0
C225 C 0.02093 0.40397 0.79728 0.0
C226 C 0.04207 0.36046 0.79644 0.0
C227 C 0.01968 0.32236 0.83928 0.0
C228 C 0.97797 0.41007 0.85106 0.0
H229 H 0.96638 0.35269 0.96472 0.0
C230 C 0.84363 0.32317 0.19288 0.0
O231 O 0.70314 0.34296 0.0492 0.0
O232 O 0.74838 0.28104 0.02738 0.0
N233 N 0.86006 0.40683 0.79844 0.0
C234 C 0.83486 0.38537 0.68541 0.0
C235 C 0.87965 0.406 0.52482 0.0
C236 C 0.93109 0.43177 0.53495 0.0
C237 C 0.95702 0.4423 0.65008 0.0
C238 C 0.93554 0.43476 0.77608 0.0
H239 H 0.80001 0.37117 0.68895 0.0
O240 O 0.76388 0.32609 0.83154 0.0
O241 O 0.82433 0.32487 0.92743 0.0
O242 O 0.77201 0.42265 0.98022 0.0
O243 O 0.83876 0.4211 0.05499 0.0
C244 C 0.0044 0.44571 0.63645 0.0
C245 C 0.0354 0.4334 0.71622 0.0
H246 H 0.07329 0.35445 0.74927 0.0
H247 H 0.03146 0.28801 0.8156 0.0
H248 H 0.89386 0.43629 0.4946 0.0
H249 H 0.95563 0.44092 0.46305 0.0
H250 H 0.01771 0.45807 0.55796 0.0
H251 H 0.07099 0.43191 0.69029 0.0
Mn252 Mn 0.63662 0.767 0.00706 0.0
Mn253 Mn 0.62467 0.87379 0.96587 0.0
C254 C 0.66957 0.80388 0.83762 0.0
C255 C 0.68428 0.7052 0.04684 0.0
C256 C 0.53364 0.80183 0.02565 0.0
O257 O 0.64131 0.79954 0.17248 0.0
O258 O 0.65933 0.87392 0.12296 0.0
C259 C 0.66348 0.97645 0.93517 0.0
N260 N 0.61726 0.96227 0.95677 0.0
C261 C 0.58974 0.01964 0.81409 0.0
C262 C 0.63605 0.03381 0.80487 0.0
C263 C 0.67167 0.00889 0.85199 0.0
C264 C 0.57912 0.97794 0.86916 0.0
H265 H 0.63573 0.96084 0.98083 0.0
C266 C 0.65884 0.84055 0.2 0.0
O267 O 0.63956 0.70051 0.0527 0.0
O268 O 0.70108 0.74632 0.03169 0.0
N269 N 0.57573 0.8607 0.80752 0.0
C270 C 0.59583 0.83618 0.69152 0.0
C271 C 0.57665 0.88527 0.53606 0.0
C272 C 0.55377 0.93584 0.55158 0.0
C273 C 0.5443 0.96112 0.66813 0.0
C274 C 0.55154 0.93773 0.79173 0.0
H275 H 0.60821 0.8005 0.69222 0.0
O276 O 0.65492 0.76112 0.83469 0.0
O277 O 0.65764 0.82122 0.93147 0.0
O278 O 0.55937 0.76975 0.98259 0.0
O279 O 0.56159 0.83586 0.05953 0.0
C280 C 0.54185 0.00882 0.65944 0.0
C281 C 0.56005 0.03812 0.73744 0.0
H282 H 0.64552 0.06366 0.75534 0.0
H283 H 0.7072 0.0171 0.8295 0.0
H284 H 0.58606 0.87811 0.45133 0.0
H285 H 0.54324 0.95362 0.47724 0.0
H286 H 0.53047 0.02305 0.58178 0.0
H287 H 0.56502 0.07377 0.71262 0.0
Mn288 Mn 0.71286 0.88004 0.55834 0.0
Mn289 Mn 0.63511 0.86025 0.55674 0.0
C290 C 0.69143 0.83135 0.73636 0.0
C291 C 0.76621 0.81491 0.54613 0.0
C292 C 0.68496 0.97396 0.54199 0.0
O293 O 0.70342 0.87724 0.37297 0.0
O294 O 0.64924 0.82942 0.4059 0.0
C295 C 0.5665 0.76208 0.50167 0.0
N296 N 0.56402 0.80839 0.53764 0.0
C297 C 0.48999 0.79475 0.64321 0.0
C298 C 0.49219 0.74936 0.59847 0.0
C299 C 0.52883 0.73396 0.53071 0.0
C300 C 0.52233 0.82802 0.61035 0.0
H301 H 0.57711 0.79613 0.51368 0.0
C302 C 0.67226 0.84967 0.33037 0.0
O303 O 0.78015 0.8569 0.55284 0.0
O304 O 0.72205 0.80968 0.54245 0.0
N305 N 0.60327 0.90723 0.69412 0.0
C306 C 0.62556 0.9116 0.81891 0.0
C307 C 0.56716 0.90294 0.95253 0.0
C308 C 0.51434 0.88629 0.91895 0.0
C309 C 0.49647 0.87314 0.79464 0.0
C310 C 0.52887 0.87764 0.68144 0.0
H311 H 0.66187 0.90781 0.83415 0.0
O312 O 0.71426 0.87017 0.73701 0.0
O313 O 0.682 0.82128 0.63481 0.0
O314 O 0.72438 0.95435 0.55524 0.0
O315 O 0.65256 0.9395 0.53505 0.0
C316 C 0.45781 0.84459 0.78949 0.0
C317 C 0.45688 0.8051 0.72217 0.0
H318 H 0.46574 0.72399 0.62041 0.0
H319 H 0.52874 0.69823 0.50207 0.0
H320 H 0.5737 0.90889 0.03965 0.0
H321 H 0.49284 0.88092 -0.01196 0.0
H322 H 0.43116 0.84912 0.85062 0.0
H323 H 0.43117 0.77883 0.73546 0.0
Mn324 Mn 0.10185 0.71384 0.55321 0.0
Mn325 Mn 0.12449 0.63571 0.54974 0.0
C326 C 0.14955 0.69224 0.7324 0.0
C327 C 0.16679 0.76699 0.5416 0.0
C328 C 0.00983 0.68561 0.53869 0.0
O329 O 0.10503 0.70456 0.3673 0.0
O330 O 0.15314 0.65021 0.39777 0.0
C331 C 0.2274 0.57068 0.49686 0.0
N332 N 0.18131 0.56726 0.53344 0.0
C333 C 0.19628 0.49207 0.63532 0.0
C334 C 0.24148 0.49549 0.59026 0.0
C335 C 0.25608 0.53303 0.52381 0.0
C336 C 0.16267 0.52423 0.60379 0.0
H337 H 0.19318 0.58071 0.50996 0.0
C338 C 0.13194 0.67302 0.3233 0.0
O339 O 0.12482 0.78102 0.54821 0.0
O340 O 0.17215 0.7228 0.53891 0.0
N341 N 0.07767 0.60053 0.68076 0.0
C342 C 0.0702 0.62235 0.8061 0.0
C343 C 0.08023 0.56425 0.93915 0.0
C344 C 0.09987 0.51231 0.90579 0.0
C345 C 0.11562 0.49547 0.78225 0.0
C346 C 0.11113 0.5279 0.6698 0.0
H347 H 0.07057 0.65902 0.8216 0.0
O348 O 0.11033 0.71429 0.73268 0.0
O349 O 0.16057 0.68385 0.63063 0.0
O350 O 0.02823 0.72562 0.54843 0.0
O351 O 0.04525 0.65394 0.53421 0.0
C352 C 0.14635 0.45855 0.78004 0.0
C353 C 0.18634 0.45834 0.71391 0.0
H354 H 0.26731 0.46932 0.61091 0.0
H355 H 0.29176 0.53372 0.49476 0.0
H356 H 0.0728 0.57068 0.02566 0.0
H357 H 0.105 0.49061 0.97426 0.0
H358 H 0.14227 0.43269 0.84299 0.0
H359 H 0.21282 0.43262 0.7291 0.0
Mn360 Mn 0.26647 0.09984 0.55176 0.0
Mn361 Mn 0.34409 0.12389 0.54468 0.0
C362 C 0.28921 0.14608 0.73262 0.0
C363 C 0.21418 0.1657 0.54354 0.0
C364 C 0.29376 0.00945 0.53538 0.0
O365 O 0.27616 0.10291 0.3645 0.0
O366 O 0.32647 0.15424 0.3951 0.0
C367 C 0.4044 0.22924 0.49289 0.0
N368 N 0.41006 0.18301 0.52678 0.0
C369 C 0.48433 0.20098 0.63088 0.0
C370 C 0.47799 0.24664 0.59092 0.0
C371 C 0.44002 0.2598 0.52407 0.0
C372 C 0.45407 0.16585 0.59466 0.0
H373 H 0.39581 0.19452 0.50426 0.0
C374 C 0.30697 0.13056 0.31968 0.0
O375 O 0.19948 0.12389 0.5483 0.0
O376 O 0.25845 0.17032 0.54087 0.0
N377 N 0.38204 0.07682 0.67133 0.0
C378 C 0.36245 0.06695 0.79771 0.0
C379 C 0.42118 0.07817 0.92625 0.0
C380 C 0.47213 0.1001 0.89073 0.0
C381 C 0.48711 0.11791 0.767 0.0
C382 C 0.45342 0.1137 0.65642 0.0
H383 H 0.3258 0.06479 0.81582 0.0
O384 O 0.26761 0.10664 0.7323 0.0
O385 O 0.29633 0.15812 0.63093 0.0
O386 O 0.25352 0.027 0.54475 0.0
O387 O 0.32492 0.04519 0.53162 0.0
C388 C 0.5227 0.14999 0.76569 0.0
C389 C 0.52035 0.19113 0.70455 0.0
H390 H 0.50254 0.27361 0.61432 0.0
H391 H 0.43745 0.2957 0.49737 0.0
H392 H 0.41529 0.0695 0.0124 0.0
H393 H 0.49447 0.10505 0.95689 0.0
H394 H 0.54854 0.14646 0.82883 0.0
H395 H 0.54568 0.21804 0.72207 0.0
Mn396 Mn 0.88196 0.26841 0.55398 0.0
Mn397 Mn 0.8593 0.34651 0.55022 0.0
C398 C 0.83427 0.29008 0.7332 0.0
C399 C 0.81719 0.21522 0.54484 0.0
C400 C 0.9739 0.29678 0.53878 0.0
O401 O 0.87853 0.27758 0.368 0.0
O402 O 0.83052 0.33204 0.39841 0.0
C403 C 0.7567 0.4119 0.49707 0.0
N404 N 0.80273 0.41511 0.53406 0.0
C405 C 0.78794 0.49031 0.63575 0.0
C406 C 0.74282 0.48716 0.59021 0.0
C407 C 0.72816 0.4497 0.52363 0.0
C408 C 0.82145 0.45806 0.6045 0.0
H409 H 0.79084 0.40171 0.5105 0.0
C410 C 0.85161 0.30911 0.32393 0.0
O411 O 0.85916 0.20111 0.55043 0.0
O412 O 0.81185 0.2594 0.54047 0.0
N413 N 0.90622 0.38149 0.68136 0.0
C414 C 0.9136 0.3596 0.80664 0.0
C415 C 0.90367 0.41761 0.93982 0.0
C416 C 0.88417 0.46961 0.90663 0.0
C417 C 0.86849 0.48657 0.78313 0.0
C418 C 0.87294 0.45421 0.67059 0.0
H419 H 0.91323 0.32295 0.82213 0.0
O420 O 0.8735 0.26803 0.73344 0.0
O421 O 0.82323 0.29844 0.63145 0.0
O422 O 0.95554 0.25678 0.54888 0.0
O423 O 0.93853 0.32848 0.53414 0.0
C424 C 0.8378 0.5235 0.78101 0.0
C425 C 0.79782 0.52379 0.71484 0.0
H426 H 0.71708 0.51344 0.61067 0.0
H427 H 0.69255 0.4492 0.49424 0.0
H428 H 0.91117 0.41123 0.02625 0.0
H429 H 0.87915 0.49128 0.97522 0.0
H430 H 0.84198 0.54933 0.84393 0.0
H431 H 0.77131 0.54947 0.72993 0.0
Mn432 Mn 0.71546 0.13769 0.50562 0.0
Mn433 Mn 0.60857 0.12667 0.46091 0.0
C434 C 0.6793 0.17184 0.33637 0.0
C435 C 0.77747 0.18464 0.5465 0.0
C436 C 0.68003 0.03495 0.52632 0.0
O437 O 0.68249 0.14256 0.66952 0.0
O438 O 0.60811 0.16092 0.61919 0.0
C439 C 0.50493 0.16429 0.42454 0.0
N440 N 0.5197 0.11837 0.44604 0.0
C441 C 0.46468 0.09085 0.297 0.0
C442 C 0.44869 0.13657 0.29178 0.0
C443 C 0.4719 0.17234 0.34285 0.0
C444 C 0.50556 0.0803 0.3564 0.0
H445 H 0.52043 0.13666 0.47075 0.0
C446 C 0.64154 0.16024 0.69649 0.0
O447 O 0.78178 0.1399 0.55234 0.0
O448 O 0.73655 0.20187 0.531 0.0
N449 N 0.62342 0.07823 0.30322 0.0
C450 C 0.64882 0.09888 0.18874 0.0
C451 C 0.60182 0.07865 0.03042 0.0
C452 C 0.55138 0.05513 0.04298 0.0
C453 C 0.52534 0.04495 0.15754 0.0
C454 C 0.547 0.05293 0.28253 0.0
H455 H 0.68438 0.11145 0.19123 0.0
O456 O 0.72191 0.15669 0.33385 0.0
O457 O 0.66155 0.15949 0.42954 0.0
O458 O 0.71229 0.06032 0.4826 0.0
O459 O 0.64553 0.06325 0.55716 0.0
C460 C 0.47811 0.04165 0.14476 0.0
C461 C 0.44751 0.06098 0.2185 0.0
H462 H 0.41871 0.14565 0.24262 0.0
H463 H 0.46263 0.20785 0.32274 0.0
H464 H 0.60969 0.08811 0.94579 0.0
H465 H 0.53383 0.04485 0.96818 0.0
H466 H 0.4658 0.02699 0.06812 0.0
H467 H 0.4119 0.06468 0.19178 0.0
Mn468 Mn 0.84538 0.71357 0.50321 0.0
Mn469 Mn 0.85976 0.60608 0.45641 0.0
C470 C 0.81235 0.67628 0.33459 0.0
C471 C 0.79721 0.77524 0.5449 0.0
C472 C 0.94906 0.67952 0.52417 0.0
O473 O 0.84047 0.6806 0.66636 0.0
O474 O 0.82523 0.60539 0.61587 0.0
C475 C 0.82791 0.49853 0.41706 0.0
N476 N 0.87214 0.51733 0.43963 0.0
C477 C 0.90518 0.46222 0.29688 0.0
C478 C 0.8618 0.44087 0.29627 0.0
C479 C 0.8236 0.46307 0.33921 0.0
C480 C 0.91109 0.5052 0.35062 0.0
H481 H 0.8537 0.51656 0.46443 0.0
C482 C 0.82367 0.63928 0.69287 0.0
O483 O 0.84191 0.7799 0.55064 0.0
O484 O 0.78059 0.73414 0.52788 0.0
N485 N 0.90752 0.62312 0.29807 0.0
C486 C 0.88595 0.64829 0.1851 0.0
C487 C 0.90657 0.60352 0.02444 0.0
C488 C 0.93246 0.55216 0.03456 0.0
C489 C 0.94322 0.52629 0.14962 0.0
C490 C 0.93562 0.5477 0.27562 0.0
H491 H 0.87163 0.68311 0.18873 0.0
O492 O 0.82622 0.71932 0.33186 0.0
O493 O 0.82555 0.65871 0.42728 0.0
O494 O 0.92294 0.71144 0.48125 0.0
O495 O 0.92176 0.64433 0.55458 0.0
C496 C 0.94695 0.47895 0.13603 0.0
C497 C 0.93469 0.44789 0.21578 0.0
H498 H 0.85594 0.40961 0.24922 0.0
H499 H 0.7893 0.45113 0.31565 0.0
H500 H 0.93705 0.5896 -0.00568 0.0
H501 H 0.94165 0.5277 0.96272 0.0
H502 H 0.95945 0.46572 0.05757 0.0
H503 H 0.9334 0.4123 0.1898 0.0
Mn504 Mn 0.26746 0.84618 0.4978 0.0
Mn505 Mn 0.37472 0.86145 0.45382 0.0
C506 C 0.30516 0.81483 0.32846 0.0
C507 C 0.2063 0.79796 0.53943 0.0
C508 C 0.30061 0.94934 0.52021 0.0
O509 O 0.29993 0.84129 0.66206 0.0
O510 O 0.37495 0.82586 0.61172 0.0
C511 C 0.48037 0.82873 0.42313 0.0
N512 N 0.46277 0.87359 0.44428 0.0
C513 C 0.51939 0.90534 0.3052 0.0
C514 C 0.53698 0.86036 0.29698 0.0
C515 C 0.51415 0.82303 0.34185 0.0
C516 C 0.47651 0.91261 0.35703 0.0
H517 H 0.46258 0.85516 0.4687 0.0
C518 C 0.34112 0.82422 0.6887 0.0
O519 O 0.20137 0.84264 0.54531 0.0
O520 O 0.24738 0.78136 0.52156 0.0
N521 N 0.35939 0.91019 0.29457 0.0
C522 C 0.33524 0.88896 0.18045 0.0
C523 C 0.38096 0.90932 0.02186 0.0
C524 C 0.43409 0.93566 0.03552 0.0
C525 C 0.45853 0.94631 0.15521 0.0
C526 C 0.43519 0.93777 0.27842 0.0
H527 H 0.29988 0.87572 0.18347 0.0
O528 O 0.26195 0.82816 0.32564 0.0
O529 O 0.32241 0.82738 0.42185 0.0
O530 O 0.26914 0.9233 0.47586 0.0
O531 O 0.33546 0.92232 0.55278 0.0
C532 C 0.50611 0.95033 0.14657 0.0
C533 C 0.53561 0.93529 0.22701 0.0
H534 H 0.56813 0.85335 0.25003 0.0
H535 H 0.52488 0.7883 0.31841 0.0
H536 H 0.40991 0.92355 0.01628 0.0
H537 H 0.4605 0.9512 0.96615 0.0
H538 H 0.52117 0.96234 0.0695 0.0
H539 H 0.57096 0.93181 0.20139 0.0
Mn540 Mn 0.13756 0.26828 0.50198 0.0
Mn541 Mn 0.12439 0.37568 0.45609 0.0
C542 C 0.17123 0.30524 0.33351 0.0
C543 C 0.18413 0.20591 0.54375 0.0
C544 C 0.03458 0.30279 0.52365 0.0
O545 O 0.14261 0.30119 0.66532 0.0
O546 O 0.15894 0.37618 0.61503 0.0
C547 C 0.15706 0.4829 0.41722 0.0
N548 N 0.11265 0.46448 0.43988 0.0
C549 C 0.08 0.51986 0.29728 0.0
C550 C 0.12362 0.54079 0.29631 0.0
C551 C 0.16164 0.5183 0.33929 0.0
C552 C 0.0737 0.47697 0.35123 0.0
H553 H 0.13111 0.46505 0.46453 0.0
C554 C 0.15992 0.3423 0.69194 0.0
O555 O 0.13936 0.20205 0.5493 0.0
O556 O 0.20173 0.24668 0.52729 0.0
N557 N 0.07638 0.3591 0.29831 0.0
C558 C 0.09766 0.33386 0.1851 0.0
C559 C 0.07699 0.37878 0.02474 0.0
C560 C 0.05134 0.43032 0.03531 0.0
C561 C 0.041 0.45622 0.15066 0.0
C562 C 0.04871 0.43467 0.27642 0.0
H563 H 0.11165 0.29892 0.18853 0.0
O564 O 0.15684 0.26235 0.33075 0.0
O565 O 0.15834 0.3229 0.42639 0.0
O566 O 0.06032 0.27106 0.47913 0.0
O567 O 0.0622 0.33766 0.55458 0.0
C568 C 0.03745 0.50362 0.13747 0.0
C569 C 0.05035 0.53459 0.2169 0.0
H570 H 0.12976 0.57196 0.24911 0.0
H571 H 0.19604 0.52996 0.31573 0.0
H572 H 0.04671 0.39304 -0.00534 0.0
H573 H 0.04195 0.45487 0.96367 0.0
H574 H 0.0248 0.51691 0.05928 0.0
H575 H 0.05188 0.57024 0.19117 0.0
loop_
_geom_bond_atom_site_label_1
_geom_bond_atom_site_label_2
_geom_bond_distance
_geom_bond_site_symmetry_2
_ccdc_geom_bond_type
Mn0 O5 2.095 1_554 S
Mn0 O15 2.162 . S
Mn0 O16 2.297 . S
Mn0 O24 2.385 . S
Mn0 O25 2.209 . S
Mn0 O26 2.094 . S
Mn1 O6 2.121 1_554 S
Mn1 N8 2.257 . S
Mn1 N17 2.282 . S
Mn1 O25 2.215 . S
Mn1 O27 2.117 . S
C2 O24 1.234 . S
C2 O25 1.283 . S
C3 O15 1.281 . S
C3 O16 1.236 . S
C4 O26 1.240 . S
C4 O27 1.264 . S
O5 Mn0 2.095 1_556 S
O5 C14 1.250 . S
O6 Mn1 2.121 1_556 S
O6 C14 1.258 . S
C7 N8 1.326 . S
C7 C11 1.460 1_455 S
C7 H13 0.929 1_554 S
N8 Mn1 2.257 . S
N8 C7 1.326 . S
N8 C12 1.362 . S
C9 C10 1.258 . S
C9 C12 1.431 1_655 S
C9 C29 1.449 . S
C10 C9 1.258 . S
C10 C11 1.477 . S
C10 H30 0.931 . S
C11 C7 1.460 1_655 S
C11 C10 1.477 . S
C11 H31 0.930 1_554 S
C12 N8 1.362 . S
C12 C9 1.431 1_455 S
C12 C22 1.476 . S
H13 C7 0.929 1_556 S
C14 O5 1.250 . S
C14 O6 1.258 . S
O15 Mn0 2.162 . S
O15 C3 1.281 . S
O16 Mn0 2.297 . S
O16 C3 1.236 . S
N17 Mn1 2.282 . S
N17 C18 1.328 . S
N17 C22 1.318 . S
C18 N17 1.328 . S
C18 C19 1.457 . S
C18 H23 0.929 . S
C19 C18 1.457 . S
C19 C20 1.291 . S
C19 H32 0.931 . S
C20 C19 1.291 . S
C20 C21 1.373 . S
C20 H33 0.929 . S
C21 C20 1.373 . S
C21 C22 1.396 . S
C21 C28 1.403 1_455 S
C22 C12 1.476 . S
C22 N17 1.318 . S
C22 C21 1.396 . S
H23 C18 0.929 . S
O24 Mn0 2.385 . S
O24 C2 1.234 . S
O25 Mn0 2.209 . S
O25 Mn1 2.215 . S
O25 C2 1.283 . S
O26 Mn0 2.094 . S
O26 C4 1.240 . S
O27 Mn1 2.117 . S
O27 C4 1.264 . S
C28 C21 1.403 1_655 S
C28 C29 1.399 . S
C28 H34 0.929 . S
C29 C9 1.449 . S
C29 C28 1.399 . S
C29 H35 0.930 . S
H30 C10 0.931 . S
H31 C11 0.930 1_556 S
H32 C19 0.931 . S
H33 C20 0.929 . S
H34 C28 0.929 . S
H35 C29 0.930 . S
Mn36 O41 2.095 1_554 S
Mn36 O51 2.162 . S
Mn36 O52 2.297 . S
Mn36 O60 2.385 . S
Mn36 O61 2.209 . S
Mn36 O62 2.094 . S
Mn37 O42 2.121 1_554 S
Mn37 N44 2.257 . S
Mn37 N53 2.282 . S
Mn37 O61 2.215 . S
Mn37 O63 2.117 . S
C38 O60 1.234 . S
C38 O61 1.283 . S
C39 O51 1.281 . S
C39 O52 1.236 . S
C40 O62 1.240 . S
C40 O63 1.264 . S
O41 Mn36 2.095 1_556 S
O41 C50 1.250 . S
O42 Mn37 2.121 1_556 S
O42 C50 1.258 . S
C43 N44 1.326 . S
C43 C47 1.460 1_545 S
C43 H49 0.929 1_554 S
N44 Mn37 2.257 . S
N44 C43 1.326 . S
N44 C48 1.362 . S
C45 C46 1.258 . S
C45 C48 1.431 1_565 S
C45 C65 1.449 . S
C46 C45 1.258 . S
C46 C47 1.477 . S
C46 H66 0.931 . S
C47 C43 1.460 1_565 S
C47 C46 1.477 . S
C47 H67 0.930 1_554 S
C48 N44 1.362 . S
C48 C45 1.431 1_545 S
C48 C58 1.476 . S
H49 C43 0.929 1_556 S
C50 O41 1.250 . S
C50 O42 1.258 . S
O51 Mn36 2.162 . S
O51 C39 1.281 . S
O52 Mn36 2.297 . S
O52 C39 1.236 . S
N53 Mn37 2.282 . S
N53 C54 1.328 . S
N53 C58 1.318 . S
C54 N53 1.328 . S
C54 C55 1.457 . S
C54 H59 0.929 . S
C55 C54 1.457 . S
C55 C56 1.291 . S
C55 H68 0.931 . S
C56 C55 1.291 . S
C56 C57 1.373 . S
C56 H69 0.929 . S
C57 C56 1.373 . S
C57 C58 1.396 . S
C57 C64 1.403 1_545 S
C58 C48 1.476 . S
C58 N53 1.318 . S
C58 C57 1.396 . S
H59 C54 0.929 . S
O60 Mn36 2.385 . S
O60 C38 1.234 . S
O61 Mn36 2.209 . S
O61 Mn37 2.215 . S
O61 C38 1.283 . S
O62 Mn36 2.094 . S
O62 C40 1.240 . S
O63 Mn37 2.117 . S
O63 C40 1.264 . S
C64 C57 1.403 1_565 S
C64 C65 1.399 . S
C64 H70 0.929 . S
C65 C45 1.449 . S
C65 C64 1.399 . S
C65 H71 0.930 . S
H66 C46 0.931 . S
H67 C47 0.930 1_556 S
H68 C55 0.931 . S
H69 C56 0.929 . S
H70 C64 0.929 . S
H71 C65 0.930 . S
Mn72 O77 2.095 1_554 S
Mn72 O87 2.162 . S
Mn72 O88 2.297 . S
Mn72 O96 2.385 . S
Mn72 O97 2.209 . S
Mn72 O98 2.094 . S
Mn73 O78 2.121 1_554 S
Mn73 N80 2.257 . S
Mn73 N89 2.282 . S
Mn73 O97 2.215 . S
Mn73 O99 2.117 . S
C74 O96 1.234 . S
C74 O97 1.283 . S
C75 O87 1.281 . S
C75 O88 1.236 . S
C76 O98 1.240 . S
C76 O99 1.264 . S
O77 Mn72 2.095 1_556 S
O77 C86 1.250 . S
O78 Mn73 2.121 1_556 S
O78 C86 1.258 . S
C79 N80 1.326 . S
C79 C83 1.460 1_655 S
C79 H85 0.929 1_554 S
N80 Mn73 2.257 . S
N80 C79 1.326 . S
N80 C84 1.362 . S
C81 C82 1.258 . S
C81 C84 1.431 1_455 S
C81 C101 1.449 . S
C82 C81 1.258 . S
C82 C83 1.477 . S
C82 H102 0.931 . S
C83 C79 1.460 1_455 S
C83 C82 1.477 . S
C83 H103 0.930 1_554 S
C84 N80 1.362 . S
C84 C81 1.431 1_655 S
C84 C94 1.476 . S
H85 C79 0.929 1_556 S
C86 O77 1.250 . S
C86 O78 1.258 . S
O87 Mn72 2.162 . S
O87 C75 1.281 . S
O88 Mn72 2.297 . S
O88 C75 1.236 . S
N89 Mn73 2.282 . S
N89 C90 1.328 . S
N89 C94 1.318 . S
C90 N89 1.328 . S
C90 C91 1.457 . S
C90 H95 0.929 . S
C91 C90 1.457 . S
C91 C92 1.291 . S
C91 H104 0.931 . S
C92 C91 1.291 . S
C92 C93 1.373 . S
C92 H105 0.929 . S
C93 C92 1.373 . S
C93 C94 1.396 . S
C93 C100 1.403 1_655 S
C94 C84 1.476 . S
C94 N89 1.318 . S
C94 C93 1.396 . S
H95 C90 0.929 . S
O96 Mn72 2.385 . S
O96 C74 1.234 . S
O97 Mn72 2.209 . S
O97 Mn73 2.215 . S
O97 C74 1.283 . S
O98 Mn72 2.094 . S
O98 C76 1.240 . S
O99 Mn73 2.117 . S
O99 C76 1.264 . S
C100 C93 1.403 1_455 S
C100 C101 1.399 . S
C100 H106 0.929 . S
C101 C81 1.449 . S
C101 C100 1.399 . S
C101 H107 0.930 . S
H102 C82 0.931 . S
H103 C83 0.930 1_556 S
H104 C91 0.931 . S
H105 C92 0.929 . S
H106 C100 0.929 . S
H107 C101 0.930 . S
Mn108 O113 2.095 1_554 S
Mn108 O123 2.162 . S
Mn108 O124 2.297 . S
Mn108 O132 2.385 . S
Mn108 O133 2.209 . S
Mn108 O134 2.094 . S
Mn109 O114 2.121 1_554 S
Mn109 N116 2.257 . S
Mn109 N125 2.282 . S
Mn109 O133 2.215 . S
Mn109 O135 2.117 . S
C110 O132 1.234 . S
C110 O133 1.283 . S
C111 O123 1.281 . S
C111 O124 1.236 . S
C112 O134 1.240 . S
C112 O135 1.264 . S
O113 Mn108 2.095 1_556 S
O113 C122 1.250 . S
O114 Mn109 2.121 1_556 S
O114 C122 1.258 . S
C115 N116 1.326 . S
C115 C119 1.460 1_565 S
C115 H121 0.929 1_554 S
N116 Mn109 2.257 . S
N116 C115 1.326 . S
N116 C120 1.362 . S
C117 C118 1.258 . S
C117 C120 1.431 1_545 S
C117 C137 1.449 . S
C118 C117 1.258 . S
C118 C119 1.477 . S
C118 H138 0.931 . S
C119 C115 1.460 1_545 S
C119 C118 1.477 . S
C119 H139 0.930 1_554 S
C120 N116 1.362 . S
C120 C117 1.431 1_565 S
C120 C130 1.476 . S
H121 C115 0.929 1_556 S
C122 O113 1.250 . S
C122 O114 1.258 . S
O123 Mn108 2.162 . S
O123 C111 1.281 . S
O124 Mn108 2.297 . S
O124 C111 1.236 . S
N125 Mn109 2.282 . S
N125 C126 1.328 . S
N125 C130 1.318 . S
C126 N125 1.328 . S
C126 C127 1.457 . S
C126 H131 0.929 . S
C127 C126 1.457 . S
C127 C128 1.291 . S
C127 H140 0.931 . S
C128 C127 1.291 . S
C128 C129 1.373 . S
C128 H141 0.929 . S
C129 C128 1.373 . S
C129 C130 1.396 . S
C129 C136 1.403 1_565 S
C130 C120 1.476 . S
C130 N125 1.318 . S
C130 C129 1.396 . S
H131 C126 0.929 . S
O132 Mn108 2.385 . S
O132 C110 1.234 . S
O133 Mn108 2.209 . S
O133 Mn109 2.215 . S
O133 C110 1.283 . S
O134 Mn108 2.094 . S
O134 C112 1.240 . S
O135 Mn109 2.117 . S
O135 C112 1.264 . S
C136 C129 1.403 1_545 S
C136 C137 1.399 . S
C136 H142 0.929 . S
C137 C117 1.449 . S
C137 C136 1.399 . S
C137 H143 0.930 . S
H138 C118 0.931 . S
H139 C119 0.930 1_556 S
H140 C127 0.931 . S
H141 C128 0.929 . S
H142 C136 0.929 . S
H143 C137 0.930 . S
Mn144 O149 2.095 . S
Mn144 O159 2.162 . S
Mn144 O160 2.297 . S
Mn144 O168 2.385 1_554 S
Mn144 O169 2.209 1_554 S
Mn144 O170 2.094 . S
Mn145 O150 2.121 1_556 S
Mn145 N152 2.257 . S
Mn145 N161 2.282 . S
Mn145 O169 2.215 . S
Mn145 O171 2.117 . S
C146 O168 1.234 . S
C146 O169 1.283 . S
C147 O159 1.281 . S
C147 O160 1.236 . S
C148 O170 1.240 . S
C148 O171 1.264 1_554 S
O149 Mn144 2.095 . S
O149 C158 1.250 . S
O150 Mn145 2.121 1_554 S
O150 C158 1.258 . S
C151 N152 1.326 1_554 S
C151 C155 1.460 1_454 S
C151 H157 0.929 . S
N152 Mn145 2.257 . S
N152 C151 1.326 1_556 S
N152 C156 1.362 . S
C153 C154 1.258 . S
C153 C156 1.431 1_655 S
C153 C173 1.449 . S
C154 C153 1.258 . S
C154 C155 1.477 . S
C154 H174 0.931 . S
C155 C151 1.460 1_656 S
C155 C154 1.477 . S
C155 H175 0.930 1_556 S
C156 N152 1.362 . S
C156 C153 1.431 1_455 S
C156 C166 1.476 . S
H157 C151 0.929 . S
C158 O149 1.250 . S
C158 O150 1.258 . S
O159 Mn144 2.162 . S
O159 C147 1.281 . S
O160 Mn144 2.297 . S
O160 C147 1.236 . S
N161 Mn145 2.282 . S
N161 C162 1.328 . S
N161 C166 1.318 . S
C162 N161 1.328 . S
C162 C163 1.457 . S
C162 H167 0.929 . S
C163 C162 1.457 . S
C163 C164 1.291 . S
C163 H176 0.931 . S
C164 C163 1.291 . S
C164 C165 1.373 . S
C164 H177 0.929 . S
C165 C164 1.373 . S
C165 C166 1.396 . S
C165 C172 1.403 1_455 S
C166 C156 1.476 . S
C166 N161 1.318 . S
C166 C165 1.396 . S
H167 C162 0.929 . S
O168 Mn144 2.385 1_556 S
O168 C146 1.234 . S
O169 Mn144 2.209 1_556 S
O169 Mn145 2.215 . S
O169 C146 1.283 . S
O170 Mn144 2.094 . S
O170 C148 1.240 . S
O171 Mn145 2.117 . S
O171 C148 1.264 1_556 S
C172 C165 1.403 1_655 S
C172 C173 1.399 . S
C172 H178 0.929 . S
C173 C153 1.449 . S
C173 C172 1.399 . S
C173 H179 0.930 . S
H174 C154 0.931 . S
H175 C155 0.930 1_554 S
H176 C163 0.931 . S
H177 C164 0.929 . S
H178 C172 0.929 . S
H179 C173 0.930 . S
Mn180 O185 2.095 . S
Mn180 O195 2.162 . S
Mn180 O196 2.297 . S
Mn180 O204 2.385 1_554 S
Mn180 O205 2.209 1_554 S
Mn180 O206 2.094 . S
Mn181 O186 2.121 1_556 S
Mn181 N188 2.257 . S
Mn181 N197 2.282 . S
Mn181 O205 2.215 . S
Mn181 O207 2.117 . S
C182 O204 1.234 . S
C182 O205 1.283 . S
C183 O195 1.281 . S
C183 O196 1.236 . S
C184 O206 1.240 . S
C184 O207 1.264 1_554 S
O185 Mn180 2.095 . S
O185 C194 1.250 . S
O186 Mn181 2.121 1_554 S
O186 C194 1.258 . S
C187 N188 1.326 1_554 S
C187 C191 1.460 1_544 S
C187 H193 0.929 . S
N188 Mn181 2.257 . S
N188 C187 1.326 1_556 S
N188 C192 1.362 . S
C189 C190 1.258 . S
C189 C192 1.431 1_565 S
C189 C209 1.449 . S
C190 C189 1.258 . S
C190 C191 1.477 . S
C190 H210 0.931 . S
C191 C187 1.460 1_566 S
C191 C190 1.477 . S
C191 H211 0.930 1_556 S
C192 N188 1.362 . S
C192 C189 1.431 1_545 S
C192 C202 1.476 . S
H193 C187 0.929 . S
C194 O185 1.250 . S
C194 O186 1.258 . S
O195 Mn180 2.162 . S
O195 C183 1.281 . S
O196 Mn180 2.297 . S
O196 C183 1.236 . S
N197 Mn181 2.282 . S
N197 C198 1.328 . S
N197 C202 1.318 . S
C198 N197 1.328 . S
C198 C199 1.457 . S
C198 H203 0.929 . S
C199 C198 1.457 . S
C199 C200 1.291 . S
C199 H212 0.931 . S
C200 C199 1.291 . S
C200 C201 1.373 . S
C200 H213 0.929 . S
C201 C200 1.373 . S
C201 C202 1.396 . S
C201 C208 1.403 1_545 S
C202 C192 1.476 . S
C202 N197 1.318 . S
C202 C201 1.396 . S
H203 C198 0.929 . S
O204 Mn180 2.385 1_556 S
O204 C182 1.234 . S
O205 Mn180 2.209 1_556 S
O205 Mn181 2.215 . S
O205 C182 1.283 . S
O206 Mn180 2.094 . S
O206 C184 1.240 . S
O207 Mn181 2.117 . S
O207 C184 1.264 1_556 S
C208 C201 1.403 1_565 S
C208 C209 1.399 . S
C208 H214 0.929 . S
C209 C189 1.449 . S
C209 C208 1.399 . S
C209 H215 0.930 . S
H210 C190 0.931 . S
H211 C191 0.930 1_554 S
H212 C199 0.931 . S
H213 C200 0.929 . S
H214 C208 0.929 . S
H215 C209 0.930 . S
Mn216 O221 2.095 . S
Mn216 O231 2.162 . S
Mn216 O232 2.297 . S
Mn216 O240 2.385 1_554 S
Mn216 O241 2.209 1_554 S
Mn216 O242 2.094 . S
Mn217 O222 2.121 1_556 S
Mn217 N224 2.257 . S
Mn217 N233 2.282 . S
Mn217 O241 2.215 . S
Mn217 O243 2.117 . S
C218 O240 1.234 . S
C218 O241 1.283 . S
C219 O231 1.281 . S
C219 O232 1.236 . S
C220 O242 1.240 . S
C220 O243 1.264 1_554 S
O221 Mn216 2.095 . S
O221 C230 1.250 . S
O222 Mn217 2.121 1_554 S
O222 C230 1.258 . S
C223 N224 1.326 1_554 S
C223 C227 1.460 1_654 S
C223 H229 0.929 . S
N224 Mn217 2.257 . S
N224 C223 1.326 1_556 S
N224 C228 1.362 . S
C225 C226 1.258 . S
C225 C228 1.431 1_455 S
C225 C245 1.449 . S
C226 C225 1.258 . S
C226 C227 1.477 . S
C226 H246 0.931 . S
C227 C223 1.460 1_456 S
C227 C226 1.477 . S
C227 H247 0.930 1_556 S
C228 N224 1.362 . S
C228 C225 1.431 1_655 S
C228 C238 1.476 . S
H229 C223 0.929 . S
C230 O221 1.250 . S
C230 O222 1.258 . S
O231 Mn216 2.162 . S
O231 C219 1.281 . S
O232 Mn216 2.297 . S
O232 C219 1.236 . S
N233 Mn217 2.282 . S
N233 C234 1.328 . S
N233 C238 1.318 . S
C234 N233 1.328 . S
C234 C235 1.457 . S
C234 H239 0.929 . S
C235 C234 1.457 . S
C235 C236 1.291 . S
C235 H248 0.931 . S
C236 C235 1.291 . S
C236 C237 1.373 . S
C236 H249 0.929 . S
C237 C236 1.373 . S
C237 C238 1.396 . S
C237 C244 1.403 1_655 S
C238 C228 1.476 . S
C238 N233 1.318 . S
C238 C237 1.396 . S
H239 C234 0.929 . S
O240 Mn216 2.385 1_556 S
O240 C218 1.234 . S
O241 Mn216 2.209 1_556 S
O241 Mn217 2.215 . S
O241 C218 1.283 . S
O242 Mn216 2.094 . S
O242 C220 1.240 . S
O243 Mn217 2.117 . S
O243 C220 1.264 1_556 S
C244 C237 1.403 1_455 S
C244 C245 1.399 . S
C244 H250 0.929 . S
C245 C225 1.449 . S
C245 C244 1.399 . S
C245 H251 0.930 . S
H246 C226 0.931 . S
H247 C227 0.930 1_554 S
H248 C235 0.931 . S
H249 C236 0.929 . S
H250 C244 0.929 . S
H251 C245 0.930 . S
Mn252 O257 2.095 . S
Mn252 O267 2.162 . S
Mn252 O268 2.297 . S
Mn252 O276 2.385 1_554 S
Mn252 O277 2.209 1_554 S
Mn252 O278 2.094 . S
Mn253 O258 2.121 1_556 S
Mn253 N260 2.257 . S
Mn253 N269 2.282 . S
Mn253 O277 2.215 . S
Mn253 O279 2.117 . S
C254 O276 1.234 . S
C254 O277 1.283 . S
C255 O267 1.281 . S
C255 O268 1.236 . S
C256 O278 1.240 . S
C256 O279 1.264 1_554 S
O257 Mn252 2.095 . S
O257 C266 1.250 . S
O258 Mn253 2.121 1_554 S
O258 C266 1.258 . S
C259 N260 1.326 1_554 S
C259 C263 1.460 1_564 S
C259 H265 0.929 . S
N260 Mn253 2.257 . S
N260 C259 1.326 1_556 S
N260 C264 1.362 . S
C261 C262 1.258 . S
C261 C264 1.431 1_545 S
C261 C281 1.449 . S
C262 C261 1.258 . S
C262 C263 1.477 . S
C262 H282 0.931 . S
C263 C259 1.460 1_546 S
C263 C262 1.477 . S
C263 H283 0.930 1_556 S
C264 N260 1.362 . S
C264 C261 1.431 1_565 S
C264 C274 1.476 . S
H265 C259 0.929 . S
C266 O257 1.250 . S
C266 O258 1.258 . S
O267 Mn252 2.162 . S
O267 C255 1.281 . S
O268 Mn252 2.297 . S
O268 C255 1.236 . S
N269 Mn253 2.282 . S
N269 C270 1.328 . S
N269 C274 1.318 . S
C270 N269 1.328 . S
C270 C271 1.457 . S
C270 H275 0.929 . S
C271 C270 1.457 . S
C271 C272 1.291 . S
C271 H284 0.931 . S
C272 C271 1.291 . S
C272 C273 1.373 . S
C272 H285 0.929 . S
C273 C272 1.373 . S
C273 C274 1.396 . S
C273 C280 1.403 1_565 S
C274 C264 1.476 . S
C274 N269 1.318 . S
C274 C273 1.396 . S
H275 C270 0.929 . S
O276 Mn252 2.385 1_556 S
O276 C254 1.234 . S
O277 Mn252 2.209 1_556 S
O277 Mn253 2.215 . S
O277 C254 1.283 . S
O278 Mn252 2.094 . S
O278 C256 1.240 . S
O279 Mn253 2.117 . S
O279 C256 1.264 1_556 S
C280 C273 1.403 1_545 S
C280 C281 1.399 . S
C280 H286 0.929 . S
C281 C261 1.449 . S
C281 C280 1.399 . S
C281 H287 0.930 . S
H282 C262 0.931 . S
H283 C263 0.930 1_554 S
H284 C271 0.931 . S
H285 C272 0.929 . S
H286 C280 0.929 . S
H287 C281 0.930 . S
Mn288 O293 2.095 . S
Mn288 O303 2.162 . S
Mn288 O304 2.297 . S
Mn288 O312 2.385 . S
Mn288 O313 2.209 . S
Mn288 O314 2.094 . S
Mn289 O294 2.121 . S
Mn289 N296 2.257 . S
Mn289 N305 2.282 . S
Mn289 O313 2.215 . S
Mn289 O315 2.117 . S
C290 O312 1.234 . S
C290 O313 1.283 . S
C291 O303 1.281 . S
C291 O304 1.236 . S
C292 O314 1.240 . S
C292 O315 1.264 . S
O293 Mn288 2.095 . S
O293 C302 1.250 . S
O294 Mn289 2.121 . S
O294 C302 1.258 . S
C295 N296 1.326 . S
C295 C299 1.460 . S
C295 H301 0.929 . S
N296 Mn289 2.257 . S
N296 C295 1.326 . S
N296 C300 1.362 . S
C297 C298 1.258 . S
C297 C300 1.431 . S
C297 C317 1.449 . S
C298 C297 1.258 . S
C298 C299 1.477 . S
C298 H318 0.931 . S
C299 C295 1.460 . S
C299 C298 1.477 . S
C299 H319 0.930 . S
C300 N296 1.362 . S
C300 C297 1.431 . S
C300 C310 1.476 . S
H301 C295 0.929 . S
C302 O293 1.250 . S
C302 O294 1.258 . S
O303 Mn288 2.162 . S
O303 C291 1.281 . S
O304 Mn288 2.297 . S
O304 C291 1.236 . S
N305 Mn289 2.282 . S
N305 C306 1.328 . S
N305 C310 1.318 . S
C306 N305 1.328 . S
C306 C307 1.457 . S
C306 H311 0.929 . S
C307 C306 1.457 . S
C307 C308 1.291 . S
C307 H320 0.931 . S
C308 C307 1.291 . S
C308 C309 1.373 . S
C308 H321 0.929 . S
C309 C308 1.373 . S
C309 C310 1.396 . S
C309 C316 1.403 . S
C310 C300 1.476 . S
C310 N305 1.318 . S
C310 C309 1.396 . S
H311 C306 0.929 . S
O312 Mn288 2.385 . S
O312 C290 1.234 . S
O313 Mn288 2.209 . S
O313 Mn289 2.215 . S
O313 C290 1.283 . S
O314 Mn288 2.094 . S
O314 C292 1.240 . S
O315 Mn289 2.117 . S
O315 C292 1.264 . S
C316 C309 1.403 . S
C316 C317 1.399 . S
C316 H322 0.929 . S
C317 C297 1.449 . S
C317 C316 1.399 . S
C317 H323 0.930 . S
H318 C298 0.931 . S
H319 C299 0.930 . S
H320 C307 0.931 . S
H321 C308 0.929 . S
H322 C316 0.929 . S
H323 C317 0.930 . S
Mn324 O329 2.095 . S
Mn324 O339 2.162 . S
Mn324 O340 2.297 . S
Mn324 O348 2.385 . S
Mn324 O349 2.209 . S
Mn324 O350 2.094 . S
Mn325 O330 2.121 . S
Mn325 N332 2.257 . S
Mn325 N341 2.282 . S
Mn325 O349 2.215 . S
Mn325 O351 2.117 . S
C326 O348 1.234 . S
C326 O349 1.283 . S
C327 O339 1.281 . S
C327 O340 1.236 . S
C328 O350 1.240 . S
C328 O351 1.264 . S
O329 Mn324 2.095 . S
O329 C338 1.250 . S
O330 Mn325 2.121 . S
O330 C338 1.258 . S
C331 N332 1.326 . S
C331 C335 1.460 . S
C331 H337 0.929 . S
N332 Mn325 2.257 . S
N332 C331 1.326 . S
N332 C336 1.362 . S
C333 C334 1.258 . S
C333 C336 1.431 . S
C333 C353 1.449 . S
C334 C333 1.258 . S
C334 C335 1.477 . S
C334 H354 0.931 . S
C335 C331 1.460 . S
C335 C334 1.477 . S
C335 H355 0.930 . S
C336 N332 1.362 . S
C336 C333 1.431 . S
C336 C346 1.476 . S
H337 C331 0.929 . S
C338 O329 1.250 . S
C338 O330 1.258 . S
O339 Mn324 2.162 . S
O339 C327 1.281 . S
O340 Mn324 2.297 . S
O340 C327 1.236 . S
N341 Mn325 2.282 . S
N341 C342 1.328 . S
N341 C346 1.318 . S
C342 N341 1.328 . S
C342 C343 1.457 . S
C342 H347 0.929 . S
C343 C342 1.457 . S
C343 C344 1.291 . S
C343 H356 0.931 . S
C344 C343 1.291 . S
C344 C345 1.373 . S
C344 H357 0.929 . S
C345 C344 1.373 . S
C345 C346 1.396 . S
C345 C352 1.403 . S
C346 C336 1.476 . S
C346 N341 1.318 . S
C346 C345 1.396 . S
H347 C342 0.929 . S
O348 Mn324 2.385 . S
O348 C326 1.234 . S
O349 Mn324 2.209 . S
O349 Mn325 2.215 . S
O349 C326 1.283 . S
O350 Mn324 2.094 . S
O350 C328 1.240 . S
O351 Mn325 2.117 . S
O351 C328 1.264 . S
C352 C345 1.403 . S
C352 C353 1.399 . S
C352 H358 0.929 . S
C353 C333 1.449 . S
C353 C352 1.399 . S
C353 H359 0.930 . S
H354 C334 0.931 . S
H355 C335 0.930 . S
H356 C343 0.931 . S
H357 C344 0.929 . S
H358 C352 0.929 . S
H359 C353 0.930 . S
Mn360 O365 2.095 . S
Mn360 O375 2.162 . S
Mn360 O376 2.297 . S
Mn360 O384 2.385 . S
Mn360 O385 2.209 . S
Mn360 O386 2.094 . S
Mn361 O366 2.121 . S
Mn361 N368 2.257 . S
Mn361 N377 2.282 . S
Mn361 O385 2.215 . S
Mn361 O387 2.117 . S
C362 O384 1.234 . S
C362 O385 1.283 . S
C363 O375 1.281 . S
C363 O376 1.236 . S
C364 O386 1.240 . S
C364 O387 1.264 . S
O365 Mn360 2.095 . S
O365 C374 1.250 . S
O366 Mn361 2.121 . S
O366 C374 1.258 . S
C367 N368 1.326 . S
C367 C371 1.460 . S
C367 H373 0.929 . S
N368 Mn361 2.257 . S
N368 C367 1.326 . S
N368 C372 1.362 . S
C369 C370 1.258 . S
C369 C372 1.431 . S
C369 C389 1.449 . S
C370 C369 1.258 . S
C370 C371 1.477 . S
C370 H390 0.931 . S
C371 C367 1.460 . S
C371 C370 1.477 . S
C371 H391 0.930 . S
C372 N368 1.362 . S
C372 C369 1.431 . S
C372 C382 1.476 . S
H373 C367 0.929 . S
C374 O365 1.250 . S
C374 O366 1.258 . S
O375 Mn360 2.162 . S
O375 C363 1.281 . S
O376 Mn360 2.297 . S
O376 C363 1.236 . S
N377 Mn361 2.282 . S
N377 C378 1.328 . S
N377 C382 1.318 . S
C378 N377 1.328 . S
C378 C379 1.457 . S
C378 H383 0.929 . S
C379 C378 1.457 . S
C379 C380 1.291 . S
C379 H392 0.931 . S
C380 C379 1.291 . S
C380 C381 1.373 . S
C380 H393 0.929 . S
C381 C380 1.373 . S
C381 C382 1.396 . S
C381 C388 1.403 . S
C382 C372 1.476 . S
C382 N377 1.318 . S
C382 C381 1.396 . S
H383 C378 0.929 . S
O384 Mn360 2.385 . S
O384 C362 1.234 . S
O385 Mn360 2.209 . S
O385 Mn361 2.215 . S
O385 C362 1.283 . S
O386 Mn360 2.094 . S
O386 C364 1.240 . S
O387 Mn361 2.117 . S
O387 C364 1.264 . S
C388 C381 1.403 . S
C388 C389 1.399 . S
C388 H394 0.929 . S
C389 C369 1.449 . S
C389 C388 1.399 . S
C389 H395 0.930 . S
H390 C370 0.931 . S
H391 C371 0.930 . S
H392 C379 0.931 . S
H393 C380 0.929 . S
H394 C388 0.929 . S
H395 C389 0.930 . S
Mn396 O401 2.095 . S
Mn396 O411 2.162 . S
Mn396 O412 2.297 . S
Mn396 O420 2.385 . S
Mn396 O421 2.209 . S
Mn396 O422 2.094 . S
Mn397 O402 2.121 . S
Mn397 N404 2.257 . S
Mn397 N413 2.282 . S
Mn397 O421 2.215 . S
Mn397 O423 2.117 . S
C398 O420 1.234 . S
C398 O421 1.283 . S
C399 O411 1.281 . S
C399 O412 1.236 . S
C400 O422 1.240 . S
C400 O423 1.264 . S
O401 Mn396 2.095 . S
O401 C410 1.250 . S
O402 Mn397 2.121 . S
O402 C410 1.258 . S
C403 N404 1.326 . S
C403 C407 1.460 . S
C403 H409 0.929 . S
N404 Mn397 2.257 . S
N404 C403 1.326 . S
N404 C408 1.362 . S
C405 C406 1.258 . S
C405 C408 1.431 . S
C405 C425 1.449 . S
C406 C405 1.258 . S
C406 C407 1.477 . S
C406 H426 0.931 . S
C407 C403 1.460 . S
C407 C406 1.477 . S
C407 H427 0.930 . S
C408 N404 1.362 . S
C408 C405 1.431 . S
C408 C418 1.476 . S
H409 C403 0.929 . S
C410 O401 1.250 . S
C410 O402 1.258 . S
O411 Mn396 2.162 . S
O411 C399 1.281 . S
O412 Mn396 2.297 . S
O412 C399 1.236 . S
N413 Mn397 2.282 . S
N413 C414 1.328 . S
N413 C418 1.318 . S
C414 N413 1.328 . S
C414 C415 1.457 . S
C414 H419 0.929 . S
C415 C414 1.457 . S
C415 C416 1.291 . S
C415 H428 0.931 . S
C416 C415 1.291 . S
C416 C417 1.373 . S
C416 H429 0.929 . S
C417 C416 1.373 . S
C417 C418 1.396 . S
C417 C424 1.403 . S
C418 C408 1.476 . S
C418 N413 1.318 . S
C418 C417 1.396 . S
H419 C414 0.929 . S
O420 Mn396 2.385 . S
O420 C398 1.234 . S
O421 Mn396 2.209 . S
O421 Mn397 2.215 . S
O421 C398 1.283 . S
O422 Mn396 2.094 . S
O422 C400 1.240 . S
O423 Mn397 2.117 . S
O423 C400 1.264 . S
C424 C417 1.403 . S
C424 C425 1.399 . S
C424 H430 0.929 . S
C425 C405 1.449 . S
C425 C424 1.399 . S
C425 H431 0.930 . S
H426 C406 0.931 . S
H427 C407 0.930 . S
H428 C415 0.931 . S
H429 C416 0.929 . S
H430 C424 0.929 . S
H431 C425 0.930 . S
Mn432 O437 2.095 . S
Mn432 O447 2.162 . S
Mn432 O448 2.297 . S
Mn432 O456 2.385 . S
Mn432 O457 2.209 . S
Mn432 O458 2.094 . S
Mn433 O438 2.121 . S
Mn433 N440 2.257 . S
Mn433 N449 2.282 . S
Mn433 O457 2.215 . S
Mn433 O459 2.117 . S
C434 O456 1.234 . S
C434 O457 1.283 . S
C435 O447 1.281 . S
C435 O448 1.236 . S
C436 O458 1.240 . S
C436 O459 1.264 . S
O437 Mn432 2.095 . S
O437 C446 1.250 . S
O438 Mn433 2.121 . S
O438 C446 1.258 . S
C439 N440 1.326 . S
C439 C443 1.460 . S
C439 H445 0.929 . S
N440 Mn433 2.257 . S
N440 C439 1.326 . S
N440 C444 1.362 . S
C441 C442 1.258 . S
C441 C444 1.431 . S
C441 C461 1.449 . S
C442 C441 1.258 . S
C442 C443 1.477 . S
C442 H462 0.931 . S
C443 C439 1.460 . S
C443 C442 1.477 . S
C443 H463 0.930 . S
C444 N440 1.362 . S
C444 C441 1.431 . S
C444 C454 1.476 . S
H445 C439 0.929 . S
C446 O437 1.250 . S
C446 O438 1.258 . S
O447 Mn432 2.162 . S
O447 C435 1.281 . S
O448 Mn432 2.297 . S
O448 C435 1.236 . S
N449 Mn433 2.282 . S
N449 C450 1.328 . S
N449 C454 1.318 . S
C450 N449 1.328 . S
C450 C451 1.457 . S
C450 H455 0.929 . S
C451 C450 1.457 . S
C451 C452 1.291 . S
C451 H464 0.931 . S
C452 C451 1.291 . S
C452 C453 1.373 . S
C452 H465 0.929 . S
C453 C452 1.373 . S
C453 C454 1.396 . S
C453 C460 1.403 . S
C454 C444 1.476 . S
C454 N449 1.318 . S
C454 C453 1.396 . S
H455 C450 0.929 . S
O456 Mn432 2.385 . S
O456 C434 1.234 . S
O457 Mn432 2.209 . S
O457 Mn433 2.215 . S
O457 C434 1.283 . S
O458 Mn432 2.094 . S
O458 C436 1.240 . S
O459 Mn433 2.117 . S
O459 C436 1.264 . S
C460 C453 1.403 . S
C460 C461 1.399 . S
C460 H466 0.929 . S
C461 C441 1.449 . S
C461 C460 1.399 . S
C461 H467 0.930 . S
H462 C442 0.931 . S
H463 C443 0.930 . S
H464 C451 0.931 . S
H465 C452 0.929 . S
H466 C460 0.929 . S
H467 C461 0.930 . S
Mn468 O473 2.095 . S
Mn468 O483 2.162 . S
Mn468 O484 2.297 . S
Mn468 O492 2.385 . S
Mn468 O493 2.209 . S
Mn468 O494 2.094 . S
Mn469 O474 2.121 . S
Mn469 N476 2.257 . S
Mn469 N485 2.282 . S
Mn469 O493 2.215 . S
Mn469 O495 2.117 . S
C470 O492 1.234 . S
C470 O493 1.283 . S
C471 O483 1.281 . S
C471 O484 1.236 . S
C472 O494 1.240 . S
C472 O495 1.264 . S
O473 Mn468 2.095 . S
O473 C482 1.250 . S
O474 Mn469 2.121 . S
O474 C482 1.258 . S
C475 N476 1.326 . S
C475 C479 1.460 . S
C475 H481 0.929 . S
N476 Mn469 2.257 . S
N476 C475 1.326 . S
N476 C480 1.362 . S
C477 C478 1.258 . S
C477 C480 1.431 . S
C477 C497 1.449 . S
C478 C477 1.258 . S
C478 C479 1.477 . S
C478 H498 0.931 . S
C479 C475 1.460 . S
C479 C478 1.477 . S
C479 H499 0.930 . S
C480 N476 1.362 . S
C480 C477 1.431 . S
C480 C490 1.476 . S
H481 C475 0.929 . S
C482 O473 1.250 . S
C482 O474 1.258 . S
O483 Mn468 2.162 . S
O483 C471 1.281 . S
O484 Mn468 2.297 . S
O484 C471 1.236 . S
N485 Mn469 2.282 . S
N485 C486 1.328 . S
N485 C490 1.318 . S
C486 N485 1.328 . S
C486 C487 1.457 . S
C486 H491 0.929 . S
C487 C486 1.457 . S
C487 C488 1.291 . S
C487 H500 0.931 . S
C488 C487 1.291 . S
C488 C489 1.373 . S
C488 H501 0.929 . S
C489 C488 1.373 . S
C489 C490 1.396 . S
C489 C496 1.403 . S
C490 C480 1.476 . S
C490 N485 1.318 . S
C490 C489 1.396 . S
H491 C486 0.929 . S
O492 Mn468 2.385 . S
O492 C470 1.234 . S
O493 Mn468 2.209 . S
O493 Mn469 2.215 . S
O493 C470 1.283 . S
O494 Mn468 2.094 . S
O494 C472 1.240 . S
O495 Mn469 2.117 . S
O495 C472 1.264 . S
C496 C489 1.403 . S
C496 C497 1.399 . S
C496 H502 0.929 . S
C497 C477 1.449 . S
C497 C496 1.399 . S
C497 H503 0.930 . S
H498 C478 0.931 . S
H499 C479 0.930 . S
H500 C487 0.931 . S
H501 C488 0.929 . S
H502 C496 0.929 . S
H503 C497 0.930 . S
Mn504 O509 2.095 . S
Mn504 O519 2.162 . S
Mn504 O520 2.297 . S
Mn504 O528 2.385 . S
Mn504 O529 2.209 . S
Mn504 O530 2.094 . S
Mn505 O510 2.121 . S
Mn505 N512 2.257 . S
Mn505 N521 2.282 . S
Mn505 O529 2.215 . S
Mn505 O531 2.117 . S
C506 O528 1.234 . S
C506 O529 1.283 . S
C507 O519 1.281 . S
C507 O520 1.236 . S
C508 O530 1.240 . S
C508 O531 1.264 . S
O509 Mn504 2.095 . S
O509 C518 1.250 . S
O510 Mn505 2.121 . S
O510 C518 1.258 . S
C511 N512 1.326 . S
C511 C515 1.460 . S
C511 H517 0.929 . S
N512 Mn505 2.257 . S
N512 C511 1.326 . S
N512 C516 1.362 . S
C513 C514 1.258 . S
C513 C516 1.431 . S
C513 C533 1.449 . S
C514 C513 1.258 . S
C514 C515 1.477 . S
C514 H534 0.931 . S
C515 C511 1.460 . S
C515 C514 1.477 . S
C515 H535 0.930 . S
C516 N512 1.362 . S
C516 C513 1.431 . S
C516 C526 1.476 . S
H517 C511 0.929 . S
C518 O509 1.250 . S
C518 O510 1.258 . S
O519 Mn504 2.162 . S
O519 C507 1.281 . S
O520 Mn504 2.297 . S
O520 C507 1.236 . S
N521 Mn505 2.282 . S
N521 C522 1.328 . S
N521 C526 1.318 . S
C522 N521 1.328 . S
C522 C523 1.457 . S
C522 H527 0.929 . S
C523 C522 1.457 . S
C523 C524 1.291 . S
C523 H536 0.931 . S
C524 C523 1.291 . S
C524 C525 1.373 . S
C524 H537 0.929 . S
C525 C524 1.373 . S
C525 C526 1.396 . S
C525 C532 1.403 . S
C526 C516 1.476 . S
C526 N521 1.318 . S
C526 C525 1.396 . S
H527 C522 0.929 . S
O528 Mn504 2.385 . S
O528 C506 1.234 . S
O529 Mn504 2.209 . S
O529 Mn505 2.215 . S
O529 C506 1.283 . S
O530 Mn504 2.094 . S
O530 C508 1.240 . S
O531 Mn505 2.117 . S
O531 C508 1.264 . S
C532 C525 1.403 . S
C532 C533 1.399 . S
C532 H538 0.929 . S
C533 C513 1.449 . S
C533 C532 1.399 . S
C533 H539 0.930 . S
H534 C514 0.931 . S
H535 C515 0.930 . S
H536 C523 0.931 . S
H537 C524 0.929 . S
H538 C532 0.929 . S
H539 C533 0.930 . S
Mn540 O545 2.095 . S
Mn540 O555 2.162 . S
Mn540 O556 2.297 . S
Mn540 O564 2.385 . S
Mn540 O565 2.209 . S
Mn540 O566 2.094 . S
Mn541 O546 2.121 . S
Mn541 N548 2.257 . S
Mn541 N557 2.282 . S
Mn541 O565 2.215 . S
Mn541 O567 2.117 . S
C542 O564 1.234 . S
C542 O565 1.283 . S
C543 O555 1.281 . S
C543 O556 1.236 . S
C544 O566 1.240 . S
C544 O567 1.264 . S
O545 Mn540 2.095 . S
O545 C554 1.250 . S
O546 Mn541 2.121 . S
O546 C554 1.258 . S
C547 N548 1.326 . S
C547 C551 1.460 . S
C547 H553 0.929 . S
N548 Mn541 2.257 . S
N548 C547 1.326 . S
N548 C552 1.362 . S
C549 C550 1.258 . S
C549 C552 1.431 . S
C549 C569 1.449 . S
C550 C549 1.258 . S
C550 C551 1.477 . S
C550 H570 0.931 . S
C551 C547 1.460 . S
C551 C550 1.477 . S
C551 H571 0.930 . S
C552 N548 1.362 . S
C552 C549 1.431 . S
C552 C562 1.476 . S
H553 C547 0.929 . S
C554 O545 1.250 . S
C554 O546 1.258 . S
O555 Mn540 2.162 . S
O555 C543 1.281 . S
O556 Mn540 2.297 . S
O556 C543 1.236 . S
N557 Mn541 2.282 . S
N557 C558 1.328 . S
N557 C562 1.318 . S
C558 N557 1.328 . S
C558 C559 1.457 . S
C558 H563 0.929 . S
C559 C558 1.457 . S
C559 C560 1.291 . S
C559 H572 0.931 . S
C560 C559 1.291 . S
C560 C561 1.373 . S
C560 H573 0.929 . S
C561 C560 1.373 . S
C561 C562 1.396 . S
C561 C568 1.403 . S
C562 C552 1.476 . S
C562 N557 1.318 . S
C562 C561 1.396 . S
H563 C558 0.929 . S
O564 Mn540 2.385 . S
O564 C542 1.234 . S
O565 Mn540 2.209 . S
O565 Mn541 2.215 . S
O565 C542 1.283 . S
O566 Mn540 2.094 . S
O566 C544 1.240 . S
O567 Mn541 2.117 . S
O567 C544 1.264 . S
C568 C561 1.403 . S
C568 C569 1.399 . S
C568 H574 0.929 . S
C569 C549 1.449 . S
C569 C568 1.399 . S
C569 H575 0.930 . S
H570 C550 0.931 . S
H571 C551 0.930 . S
H572 C559 0.931 . S
H573 C560 0.929 . S
H574 C568 0.929 . S
H575 C569 0.930 . S
C148 C4 1.354 . S
C184 C40 1.354 . S
C220 C76 1.354 . S
C256 C112 1.354 . S
C436 C292 1.354 1_545 S
C472 C328 1.354 1_655 S
C364 C508 1.354 1_545 S
C544 C400 1.354 1_455 S
C3 C183 1.475 . S
C219 C39 1.475 . S
C75 C255 1.475 . S
C147 C111 1.475 . S
C471 C291 1.475 . S
C507 C327 1.475 . S
C363 C543 1.475 . S
C399 C435 1.475 . S
C542 C2 1.456 . S
C434 C38 1.456 . S
C470 C74 1.456 . S
C506 C110 1.456 . S
C326 C146 1.456 . S
C362 C182 1.456 . S
C218 C398 1.456 . S
C254 C290 1.456 . S
C482 C86 1.343 . S
C518 C122 1.343 . S
C554 C14 1.343 . S
C50 C446 1.343 . S
C410 C230 1.343 . S
C266 C302 1.343 . S
C338 C158 1.343 . S
C374 C194 1.343 . S
