# Generated by pormake.
# Topology wgd, (5)-cn, num edge types: 1
# Building blocks:
#     Node 0, Type 0, BuildingBlock: XOMCOT_clean_sbu_1, # of connection points: 5
#     Node 1, Type 0, BuildingBlock: XOMCOT_clean_sbu_1, # of connection points: 5
#     Node 2, Type 0, BuildingBlock: XOMCOT_clean_sbu_1, # of connection points: 5
#     Node 3, Type 0, BuildingBlock: XOMCOT_clean_sbu_1, # of connection points: 5
#     Node 4, Type 0, BuildingBlock: XOMCOT_clean_sbu_1, # of connection points: 5
#     Node 5, Type 0, BuildingBlock: XOMCOT_clean_sbu_1, # of connection points: 5
#     Node 6, Type 0, BuildingBlock: XOMCOT_clean_sbu_1, # of connection points: 5
#     Node 7, Type 0, BuildingBlock: XOMCOT_clean_sbu_1, # of connection points: 5
#     Node 8, Type 0, BuildingBlock: XOMCOT_clean_sbu_1, # of connection points: 5
#     Node 9, Type 0, BuildingBlock: XOMCOT_clean_sbu_1, # of connection points: 5
#     Node 10, Type 0, BuildingBlock: XOMCOT_clean_sbu_1, # of connection points: 5
#     Node 11, Type 0, BuildingBlock: XOMCOT_clean_sbu_1, # of connection points: 5
#     Node 12, Type 0, BuildingBlock: XOMCOT_clean_sbu_1, # of connection points: 5
#     Node 13, Type 0, BuildingBlock: XOMCOT_clean_sbu_1, # of connection points: 5
#     Node 14, Type 0, BuildingBlock: XOMCOT_clean_sbu_1, # of connection points: 5
#     Node 15, Type 0, BuildingBlock: XOMCOT_clean_sbu_1, # of connection points: 5
#     Node 16, Type 0, BuildingBlock: XOMCOT_clean_sbu_1, # of connection points: 5
#     Node 17, Type 0, BuildingBlock: XOMCOT_clean_sbu_1, # of connection points: 5
#     Node 18, Type 0, BuildingBlock: XOMCOT_clean_sbu_1, # of connection points: 5
#     Node 19, Type 0, BuildingBlock: XOMCOT_clean_sbu_1, # of connection points: 5
#     Node 20, Type 0, BuildingBlock: XOMCOT_clean_sbu_1, # of connection points: 5
#     Node 21, Type 0, BuildingBlock: XOMCOT_clean_sbu_1, # of connection points: 5
#     Node 22, Type 0, BuildingBlock: XOMCOT_clean_sbu_1, # of connection points: 5
#     Node 23, Type 0, BuildingBlock: XOMCOT_clean_sbu_1, # of connection points: 5
#     Node 24, Type 0, BuildingBlock: XOMCOT_clean_sbu_1, # of connection points: 5
#     Node 25, Type 0, BuildingBlock: XOMCOT_clean_sbu_1, # of connection points: 5
#     Node 26, Type 0, BuildingBlock: XOMCOT_clean_sbu_1, # of connection points: 5
#     Node 27, Type 0, BuildingBlock: XOMCOT_clean_sbu_1, # of connection points: 5
#     Node 28, Type 0, BuildingBlock: XOMCOT_clean_sbu_1, # of connection points: 5
#     Node 29, Type 0, BuildingBlock: XOMCOT_clean_sbu_1, # of connection points: 5
#     Node 30, Type 0, BuildingBlock: XOMCOT_clean_sbu_1, # of connection points: 5
#     Node 31, Type 0, BuildingBlock: XOMCOT_clean_sbu_1, # of connection points: 5
#     Edge 32, Type (0, 0), BuildingBlock: KIFKEQ_clean_linker_1, # of connection points: 2
#     Edge 33, Type (0, 0), BuildingBlock: KIFKEQ_clean_linker_1, # of connection points: 2
#     Edge 34, Type (0, 0), BuildingBlock: KIFKEQ_clean_linker_1, # of connection points: 2
#     Edge 35, Type (0, 0), BuildingBlock: KIFKEQ_clean_linker_1, # of connection points: 2
#     Edge 36, Type (0, 0), BuildingBlock: KIFKEQ_clean_linker_1, # of connection points: 2
#     Edge 37, Type (0, 0), BuildingBlock: KIFKEQ_clean_linker_1, # of connection points: 2
#     Edge 38, Type (0, 0), BuildingBlock: KIFKEQ_clean_linker_1, # of connection points: 2
#     Edge 39, Type (0, 0), BuildingBlock: KIFKEQ_clean_linker_1, # of connection points: 2
#     Edge 40, Type (0, 0), BuildingBlock: KIFKEQ_clean_linker_1, # of connection points: 2
#     Edge 41, Type (0, 0), BuildingBlock: KIFKEQ_clean_linker_1, # of connection points: 2
#     Edge 42, Type (0, 0), BuildingBlock: KIFKEQ_clean_linker_1, # of connection points: 2
#     Edge 43, Type (0, 0), BuildingBlock: KIFKEQ_clean_linker_1, # of connection points: 2
#     Edge 44, Type (0, 0), BuildingBlock: KIFKEQ_clean_linker_1, # of connection points: 2
#     Edge 45, Type (0, 0), BuildingBlock: KIFKEQ_clean_linker_1, # of connection points: 2
#     Edge 46, Type (0, 0), BuildingBlock: KIFKEQ_clean_linker_1, # of connection points: 2
#     Edge 47, Type (0, 0), BuildingBlock: KIFKEQ_clean_linker_1, # of connection points: 2
#     Edge 48, Type (0, 0), BuildingBlock: KIFKEQ_clean_linker_1, # of connection points: 2
#     Edge 49, Type (0, 0), BuildingBlock: KIFKEQ_clean_linker_1, # of connection points: 2
#     Edge 50, Type (0, 0), BuildingBlock: KIFKEQ_clean_linker_1, # of connection points: 2
#     Edge 51, Type (0, 0), BuildingBlock: KIFKEQ_clean_linker_1, # of connection points: 2
#     Edge 52, Type (0, 0), BuildingBlock: KIFKEQ_clean_linker_1, # of connection points: 2
#     Edge 53, Type (0, 0), BuildingBlock: KIFKEQ_clean_linker_1, # of connection points: 2
#     Edge 54, Type (0, 0), BuildingBlock: KIFKEQ_clean_linker_1, # of connection points: 2
#     Edge 55, Type (0, 0), BuildingBlock: KIFKEQ_clean_linker_1, # of connection points: 2
#     Edge 56, Type (0, 0), BuildingBlock: KIFKEQ_clean_linker_1, # of connection points: 2
#     Edge 57, Type (0, 0), BuildingBlock: KIFKEQ_clean_linker_1, # of connection points: 2
#     Edge 58, Type (0, 0), BuildingBlock: KIFKEQ_clean_linker_1, # of connection points: 2
#     Edge 59, Type (0, 0), BuildingBlock: KIFKEQ_clean_linker_1, # of connection points: 2
#     Edge 60, Type (0, 0), BuildingBlock: KIFKEQ_clean_linker_1, # of connection points: 2
#     Edge 61, Type (0, 0), BuildingBlock: KIFKEQ_clean_linker_1, # of connection points: 2
#     Edge 62, Type (0, 0), BuildingBlock: KIFKEQ_clean_linker_1, # of connection points: 2
#     Edge 63, Type (0, 0), BuildingBlock: KIFKEQ_clean_linker_1, # of connection points: 2
#     Edge 64, Type (0, 0), BuildingBlock: KIFKEQ_clean_linker_1, # of connection points: 2
#     Edge 65, Type (0, 0), BuildingBlock: KIFKEQ_clean_linker_1, # of connection points: 2
#     Edge 66, Type (0, 0), BuildingBlock: KIFKEQ_clean_linker_1, # of connection points: 2
#     Edge 67, Type (0, 0), BuildingBlock: KIFKEQ_clean_linker_1, # of connection points: 2
#     Edge 68, Type (0, 0), BuildingBlock: KIFKEQ_clean_linker_1, # of connection points: 2
#     Edge 69, Type (0, 0), BuildingBlock: KIFKEQ_clean_linker_1, # of connection points: 2
#     Edge 70, Type (0, 0), BuildingBlock: KIFKEQ_clean_linker_1, # of connection points: 2
#     Edge 71, Type (0, 0), BuildingBlock: KIFKEQ_clean_linker_1, # of connection points: 2
#     Edge 72, Type (0, 0), BuildingBlock: KIFKEQ_clean_linker_1, # of connection points: 2
#     Edge 73, Type (0, 0), BuildingBlock: KIFKEQ_clean_linker_1, # of connection points: 2
#     Edge 74, Type (0, 0), BuildingBlock: KIFKEQ_clean_linker_1, # of connection points: 2
#     Edge 75, Type (0, 0), BuildingBlock: KIFKEQ_clean_linker_1, # of connection points: 2
#     Edge 76, Type (0, 0), BuildingBlock: KIFKEQ_clean_linker_1, # of connection points: 2
#     Edge 77, Type (0, 0), BuildingBlock: KIFKEQ_clean_linker_1, # of connection points: 2
#     Edge 78, Type (0, 0), BuildingBlock: KIFKEQ_clean_linker_1, # of connection points: 2
#     Edge 79, Type (0, 0), BuildingBlock: KIFKEQ_clean_linker_1, # of connection points: 2
#     Edge 80, Type (0, 0), BuildingBlock: KIFKEQ_clean_linker_1, # of connection points: 2
#     Edge 81, Type (0, 0), BuildingBlock: KIFKEQ_clean_linker_1, # of connection points: 2
#     Edge 82, Type (0, 0), BuildingBlock: KIFKEQ_clean_linker_1, # of connection points: 2
#     Edge 83, Type (0, 0), BuildingBlock: KIFKEQ_clean_linker_1, # of connection points: 2
#     Edge 84, Type (0, 0), BuildingBlock: KIFKEQ_clean_linker_1, # of connection points: 2
#     Edge 85, Type (0, 0), BuildingBlock: KIFKEQ_clean_linker_1, # of connection points: 2
#     Edge 86, Type (0, 0), BuildingBlock: KIFKEQ_clean_linker_1, # of connection points: 2
#     Edge 87, Type (0, 0), BuildingBlock: KIFKEQ_clean_linker_1, # of connection points: 2
#     Edge 88, Type (0, 0), BuildingBlock: KIFKEQ_clean_linker_1, # of connection points: 2
#     Edge 89, Type (0, 0), BuildingBlock: KIFKEQ_clean_linker_1, # of connection points: 2
#     Edge 90, Type (0, 0), BuildingBlock: KIFKEQ_clean_linker_1, # of connection points: 2
#     Edge 91, Type (0, 0), BuildingBlock: KIFKEQ_clean_linker_1, # of connection points: 2
#     Edge 92, Type (0, 0), BuildingBlock: KIFKEQ_clean_linker_1, # of connection points: 2
#     Edge 93, Type (0, 0), BuildingBlock: KIFKEQ_clean_linker_1, # of connection points: 2
#     Edge 94, Type (0, 0), BuildingBlock: KIFKEQ_clean_linker_1, # of connection points: 2
#     Edge 95, Type (0, 0), BuildingBlock: KIFKEQ_clean_linker_1, # of connection points: 2
#     Edge 96, Type (0, 0), BuildingBlock: KIFKEQ_clean_linker_1, # of connection points: 2
#     Edge 97, Type (0, 0), BuildingBlock: KIFKEQ_clean_linker_1, # of connection points: 2
#     Edge 98, Type (0, 0), BuildingBlock: KIFKEQ_clean_linker_1, # of connection points: 2
#     Edge 99, Type (0, 0), BuildingBlock: KIFKEQ_clean_linker_1, # of connection points: 2
#     Edge 100, Type (0, 0), BuildingBlock: KIFKEQ_clean_linker_1, # of connection points: 2
#     Edge 101, Type (0, 0), BuildingBlock: KIFKEQ_clean_linker_1, # of connection points: 2
#     Edge 102, Type (0, 0), BuildingBlock: KIFKEQ_clean_linker_1, # of connection points: 2
#     Edge 103, Type (0, 0), BuildingBlock: KIFKEQ_clean_linker_1, # of connection points: 2
#     Edge 104, Type (0, 0), BuildingBlock: KIFKEQ_clean_linker_1, # of connection points: 2
#     Edge 105, Type (0, 0), BuildingBlock: KIFKEQ_clean_linker_1, # of connection points: 2
#     Edge 106, Type (0, 0), BuildingBlock: KIFKEQ_clean_linker_1, # of connection points: 2
#     Edge 107, Type (0, 0), BuildingBlock: KIFKEQ_clean_linker_1, # of connection points: 2
#     Edge 108, Type (0, 0), BuildingBlock: KIFKEQ_clean_linker_1, # of connection points: 2
#     Edge 109, Type (0, 0), BuildingBlock: KIFKEQ_clean_linker_1, # of connection points: 2
#     Edge 110, Type (0, 0), BuildingBlock: KIFKEQ_clean_linker_1, # of connection points: 2
#     Edge 111, Type (0, 0), BuildingBlock: KIFKEQ_clean_linker_1, # of connection points: 2
# Relax obj value: 0.185
# Max RMSD: 0.165
# Mean RMSD: 0.165
data_MOF--net-wgd--node1-XOMCOT_clean_sbu_1--edge1-KIFKEQ_clean_linker_1
_symmetry_space_group_name_H-M    P1
_symmetry_Int_Tables_number       1
_symmetry_cell_setting            triclinic
loop_
_symmetry_equiv_pos_as_xyz
'x, y, z'
_cell_length_a     103.98282
_cell_length_b     103.98071
_cell_length_c     17.550714
_cell_angle_alpha  90.002182
_cell_angle_beta   89.975588
_cell_angle_gamma 90.008882
loop_
_atom_site_label
_atom_site_type_symbol
_atom_site_fract_x
_atom_site_fract_y
_atom_site_fract_z
_atom_type_partial_charge
C0 C 0.17237 0.16728 0.12385 0.0
C1 C 0.17007 0.16685 0.20105 0.0
N2 N 0.17832 0.15838 0.23294 0.0
N3 N 0.1821 0.15922 0.10703 0.0
C4 C 0.18531 0.15374 0.17405 0.0
H5 H 0.16772 0.17354 0.08308 0.0
Co6 Co 0.19028 0.15753 0.01298 0.0
C7 C 0.21762 0.15815 0.06414 0.0
O8 O 0.22011 0.16724 0.01415 0.0
N9 N 0.19805 0.15533 0.91701 0.0
C10 C 0.21006 0.14866 0.81956 0.0
C11 C 0.20936 0.14982 0.89738 0.0
C12 C 0.19174 0.15659 0.85 0.0
N13 N 0.19895 0.15293 0.78985 0.0
O14 O 0.1855 0.13972 0.00796 0.0
H15 H 0.21639 0.14596 0.93628 0.0
H16 H 0.18188 0.15983 0.84563 0.0
O17 O 0.20639 0.15313 0.06659 0.0
C18 C 0.17359 0.13731 0.99864 0.0
O19 O 0.16529 0.1468 0.00139 0.0
N20 N 0.19427 0.1755 0.01535 0.0
C21 C 0.19773 0.20222 0.0191 0.0
C22 C 0.2009 0.19464 0.08233 0.0
C23 C 0.19905 0.18132 0.07945 0.0
C24 C 0.19063 0.1829 0.95482 0.0
C25 C 0.19255 0.19619 0.95478 0.0
H26 H 0.20131 0.17571 0.12949 0.0
H27 H 0.18576 0.17871 0.90695 0.0
H28 H 0.19292 0.14674 0.17948 0.0
H29 H 0.1633 0.17287 0.23136 0.0
H30 H 0.21786 0.14436 0.7876 0.0
H31 H 0.20472 0.19898 0.13366 0.0
H32 H 0.18953 0.20178 0.90586 0.0
C33 C 0.09874 0.92061 0.3555 0.0
C34 C 0.09842 0.9189 0.43333 0.0
N35 N 0.09428 0.9299 0.46584 0.0
N36 N 0.09494 0.93268 0.33873 0.0
C37 C 0.09212 0.93798 0.40702 0.0
H38 H 0.10159 0.91343 0.31441 0.0
Co39 Co 0.09347 0.94095 0.24432 0.0
C40 C 0.1067 0.96585 0.28399 0.0
O41 O 0.11376 0.96634 0.222 0.0
N42 N 0.09171 0.94919 0.14991 0.0
C43 C 0.08767 0.96298 0.05594 0.0
C44 C 0.08867 0.96152 0.13373 0.0
C45 C 0.09219 0.94335 0.08128 0.0
N46 N 0.08989 0.95149 0.02292 0.0
O47 O 0.11113 0.93686 0.22032 0.0
H48 H 0.08699 0.96895 0.17559 0.0
H49 H 0.09406 0.93324 0.07408 0.0
O50 O 0.09874 0.9567 0.29414 0.0
C51 C 0.11214 0.92616 0.18533 0.0
O52 O 0.10177 0.91917 0.17489 0.0
N53 N 0.07611 0.94406 0.26393 0.0
C54 C 0.04939 0.946 0.27178 0.0
C55 C 0.05724 0.95637 0.29362 0.0
C56 C 0.07064 0.95523 0.28908 0.0
C57 C 0.06868 0.9338 0.24469 0.0
C58 C 0.05531 0.93454 0.24836 0.0
H59 H 0.07649 0.96343 0.30383 0.0
H60 H 0.07322 0.92506 0.22477 0.0
H61 H 0.08862 0.9477 0.41326 0.0
H62 H 0.10096 0.91017 0.46325 0.0
H63 H 0.08516 0.97176 0.0264 0.0
H64 H 0.05307 0.96542 0.31149 0.0
H65 H 0.04967 0.92621 0.23227 0.0
C66 C 0.33264 0.84712 0.59735 0.0
C67 C 0.33425 0.84683 0.6753 0.0
N68 N 0.32321 0.84269 0.7073 0.0
N69 N 0.3206 0.84325 0.58023 0.0
C70 C 0.3152 0.84048 0.64828 0.0
H71 H 0.3398 0.85007 0.55637 0.0
Co72 Co 0.31243 0.84181 0.4858 0.0
C73 C 0.28809 0.85607 0.52303 0.0
O74 O 0.28806 0.863 0.46049 0.0
N75 N 0.30425 0.84013 0.39128 0.0
C76 C 0.29039 0.83688 0.29653 0.0
C77 C 0.29179 0.83776 0.3744 0.0
C78 C 0.31021 0.84033 0.32297 0.0
N79 N 0.30202 0.83857 0.26436 0.0
O80 O 0.31709 0.8593 0.46135 0.0
H81 H 0.28417 0.83664 0.41571 0.0
H82 H 0.32045 0.84134 0.31597 0.0
O83 O 0.29683 0.84772 0.53463 0.0
C84 C 0.3277 0.8604 0.42543 0.0
O85 O 0.33458 0.85003 0.41263 0.0
N86 N 0.30871 0.8246 0.50707 0.0
C87 C 0.3063 0.79817 0.53022 0.0
C88 C 0.29571 0.80637 0.54038 0.0
C89 C 0.29711 0.81961 0.52877 0.0
C90 C 0.31906 0.8168 0.49672 0.0
C91 C 0.3181 0.80356 0.50836 0.0
H92 H 0.28885 0.82575 0.53676 0.0
H93 H 0.32813 0.82092 0.4789 0.0
H94 H 0.30554 0.83678 0.65421 0.0
H95 H 0.34281 0.84973 0.70584 0.0
H96 H 0.28149 0.83524 0.26612 0.0
H97 H 0.28644 0.80259 0.5576 0.0
H98 H 0.32648 0.79758 0.49873 0.0
C99 C 0.40522 0.08327 0.86971 0.0
C100 C 0.40551 0.08487 0.94768 0.0
N101 N 0.40965 0.07382 0.97958 0.0
N102 N 0.40907 0.07123 0.85249 0.0
C103 C 0.41186 0.06582 0.92048 0.0
H104 H 0.40222 0.09041 0.82877 0.0
Co105 Co 0.41024 0.06301 0.75808 0.0
C106 C 0.3964 0.03856 0.79759 0.0
O107 O 0.38934 0.03833 0.73559 0.0
N108 N 0.41166 0.05477 0.66357 0.0
C109 C 0.41501 0.04087 0.56912 0.0
C110 C 0.41424 0.04234 0.64699 0.0
C111 C 0.41122 0.06065 0.59506 0.0
N112 N 0.41304 0.05243 0.53662 0.0
O113 O 0.39261 0.06744 0.73616 0.0
H114 H 0.41566 0.03481 0.68855 0.0
H115 H 0.41006 0.07087 0.58779 0.0
O116 O 0.40468 0.0474 0.80806 0.0
C117 C 0.39123 0.07799 0.70006 0.0
O118 O 0.40146 0.08495 0.68481 0.0
N119 N 0.42757 0.05953 0.77691 0.0
C120 C 0.45415 0.05766 0.79522 0.0
C121 C 0.44618 0.047 0.8091 0.0
C122 C 0.43285 0.04814 0.79982 0.0
C123 C 0.43514 0.06993 0.7629 0.0
C124 C 0.44844 0.06923 0.77195 0.0
H125 H 0.42687 0.03985 0.81057 0.0
H126 H 0.43078 0.07882 0.74409 0.0
H127 H 0.41552 0.05615 0.92635 0.0
H128 H 0.40258 0.09341 0.9783 0.0
H129 H 0.41682 0.03197 0.53896 0.0
H130 H 0.45019 0.03791 0.82747 0.0
H131 H 0.45422 0.07764 0.75931 0.0
C132 C 0.17205 0.83617 0.84623 0.0
C133 C 0.16978 0.83585 0.769 0.0
N134 N 0.17903 0.84276 0.73402 0.0
N135 N 0.18271 0.84318 0.8597 0.0
C136 C 0.18666 0.84716 0.79043 0.0
H137 H 0.16648 0.83134 0.88975 0.0
Co138 Co 0.19034 0.84556 0.95406 0.0
C139 C 0.21823 0.84716 0.91688 0.0
O140 O 0.2208 0.83956 0.97478 0.0
N141 N 0.19764 0.84834 0.05061 0.0
C142 C 0.20735 0.85853 0.14636 0.0
C143 C 0.20628 0.85758 0.06859 0.0
C144 C 0.1932 0.84427 0.11887 0.0
N145 N 0.19904 0.85019 0.17793 0.0
O146 O 0.18472 0.86311 0.95551 0.0
H147 H 0.21086 0.86394 0.02809 0.0
H148 H 0.18524 0.83776 0.12575 0.0
O149 O 0.20658 0.85045 0.90369 0.0
C150 C 0.17312 0.86368 0.97864 0.0
O151 O 0.16704 0.85287 0.99327 0.0
N152 N 0.1947 0.82785 0.9542 0.0
C153 C 0.19642 0.80094 0.9505 0.0
C154 C 0.20352 0.80852 0.89938 0.0
C155 C 0.20227 0.82193 0.9009 0.0
C156 C 0.18727 0.82056 0.00138 0.0
C157 C 0.18822 0.80718 0.00202 0.0
H158 H 0.20689 0.8274 0.8564 0.0
H159 H 0.1799 0.82503 0.03538 0.0
H160 H 0.19526 0.85278 0.78109 0.0
H161 H 0.162 0.83082 0.74091 0.0
H162 H 0.2131 0.86549 0.17709 0.0
H163 H 0.20948 0.80412 0.85603 0.0
H164 H 0.18228 0.80178 0.04136 0.0
C165 C 0.41082 0.92349 0.1382 0.0
C166 C 0.41179 0.92167 0.06048 0.0
N167 N 0.41139 0.93329 0.02653 0.0
N168 N 0.40983 0.93617 0.15271 0.0
C169 C 0.41034 0.94186 0.08374 0.0
H170 H 0.41059 0.91605 0.18126 0.0
Co171 Co 0.4076 0.94385 0.24705 0.0
C172 C 0.40447 0.97178 0.20988 0.0
O173 O 0.41143 0.97503 0.26941 0.0
N174 N 0.40504 0.95136 0.34334 0.0
C175 C 0.39439 0.96042 0.43924 0.0
C176 C 0.395 0.959 0.36172 0.0
C177 C 0.41017 0.94799 0.41129 0.0
N178 N 0.40384 0.95334 0.47061 0.0
O179 O 0.39006 0.93791 0.24942 0.0
H180 H 0.38798 0.96263 0.32168 0.0
H181 H 0.41756 0.94079 0.41785 0.0
O182 O 0.40224 0.9599 0.19648 0.0
C183 C 0.38878 0.92853 0.29565 0.0
O184 O 0.39902 0.92423 0.33142 0.0
N185 N 0.42518 0.94834 0.24655 0.0
C186 C 0.45201 0.9499 0.24696 0.0
C187 C 0.44468 0.95854 0.20385 0.0
C188 C 0.43126 0.95735 0.20252 0.0
C189 C 0.43226 0.93965 0.2867 0.0
C190 C 0.44566 0.9403 0.28827 0.0
H191 H 0.42601 0.9633 0.16322 0.0
H192 H 0.42747 0.9318 0.31548 0.0
H193 H 0.40999 0.95214 0.07516 0.0
H194 H 0.41229 0.91251 0.03128 0.0
H195 H 0.3871 0.96573 0.47004 0.0
H196 H 0.44931 0.96575 0.1687 0.0
H197 H 0.45101 0.93324 0.32071 0.0
C198 C 0.33071 0.15605 0.39523 0.0
C199 C 0.33251 0.15667 0.3175 0.0
N200 N 0.32126 0.15999 0.28457 0.0
N201 N 0.31836 0.15886 0.41145 0.0
C202 C 0.31295 0.16141 0.34312 0.0
H203 H 0.33798 0.15366 0.43678 0.0
Co204 Co 0.30994 0.15926 0.5056 0.0
C205 C 0.28612 0.1445 0.4608 0.0
O206 O 0.28607 0.13682 0.52019 0.0
N207 N 0.30156 0.15993 0.60025 0.0
C208 C 0.28752 0.16215 0.69505 0.0
C209 C 0.28897 0.16132 0.61721 0.0
C210 C 0.30753 0.16023 0.66858 0.0
N211 N 0.29924 0.16146 0.72744 0.0
O212 O 0.31518 0.14177 0.52532 0.0
H213 H 0.2813 0.16204 0.57598 0.0
H214 H 0.31781 0.15972 0.67514 0.0
O215 O 0.29465 0.15322 0.45408 0.0
C216 C 0.32571 0.14075 0.56195 0.0
O217 O 0.33214 0.15122 0.57921 0.0
N218 N 0.30562 0.17646 0.48878 0.0
C219 C 0.30204 0.20293 0.47423 0.0
C220 C 0.29178 0.19439 0.46244 0.0
C221 C 0.29377 0.18113 0.4697 0.0
C222 C 0.31568 0.1846 0.50041 0.0
C223 C 0.31413 0.19786 0.49298 0.0
H224 H 0.28574 0.17473 0.46086 0.0
H225 H 0.32496 0.18072 0.51621 0.0
H226 H 0.303 0.16415 0.3367 0.0
H227 H 0.34145 0.15483 0.28796 0.0
H228 H 0.27853 0.16351 0.72503 0.0
H229 H 0.28231 0.19791 0.44752 0.0
H230 H 0.32227 0.20412 0.50364 0.0
C231 C 0.08556 0.08086 0.6138 0.0
C232 C 0.0859 0.08315 0.53653 0.0
N233 N 0.09397 0.07457 0.50432 0.0
N234 N 0.09333 0.07086 0.63005 0.0
C235 C 0.09847 0.06739 0.56255 0.0
H236 H 0.07964 0.08581 0.65517 0.0
Co237 Co 0.09528 0.06295 0.72451 0.0
C238 C 0.09465 0.03541 0.67778 0.0
O239 O 0.08594 0.03307 0.73034 0.0
N240 N 0.09776 0.05547 0.82084 0.0
C241 C 0.10581 0.04426 0.91793 0.0
C242 C 0.10416 0.04463 0.84034 0.0
C243 C 0.09634 0.06182 0.88756 0.0
N244 N 0.10087 0.0551 0.94764 0.0
O245 O 0.11311 0.06771 0.72724 0.0
H246 H 0.10829 0.03779 0.80116 0.0
H247 H 0.09287 0.0716 0.89139 0.0
O248 O 0.0995 0.04669 0.67219 0.0
C249 C 0.11556 0.07962 0.73597 0.0
O250 O 0.10607 0.08794 0.73389 0.0
N251 N 0.07732 0.059 0.72425 0.0
C252 C 0.05058 0.05564 0.72295 0.0
C253 C 0.05805 0.05196 0.66018 0.0
C254 C 0.07137 0.05379 0.66174 0.0
C255 C 0.07002 0.06316 0.78409 0.0
C256 C 0.05673 0.0613 0.7854 0.0
H257 H 0.07689 0.05121 0.61186 0.0
H258 H 0.07431 0.0684 0.83022 0.0
H259 H 0.10522 0.05956 0.556 0.0
H260 H 0.08018 0.09017 0.50616 0.0
H261 H 0.11063 0.03674 0.94956 0.0
H262 H 0.05362 0.04776 0.61017 0.0
H263 H 0.05124 0.06475 0.83376 0.0
C264 C 0.83241 0.835 0.84845 0.0
C265 C 0.83455 0.83454 0.77116 0.0
N266 N 0.82514 0.84123 0.73633 0.0
N267 N 0.82169 0.8419 0.86215 0.0
C268 C 0.81754 0.84566 0.79286 0.0
H269 H 0.83812 0.83033 0.89189 0.0
Co270 Co 0.8141 0.84414 0.95681 0.0
C271 C 0.78602 0.84549 0.92151 0.0
O272 O 0.78339 0.83819 0.98069 0.0
N273 N 0.80681 0.84669 0.05322 0.0
C274 C 0.79718 0.85682 0.14942 0.0
C275 C 0.79844 0.85615 0.07168 0.0
C276 C 0.81083 0.8421 0.12115 0.0
N277 N 0.80507 0.84802 0.18047 0.0
O278 O 0.81891 0.86196 0.95795 0.0
H279 H 0.79418 0.86278 0.03152 0.0
H280 H 0.8184 0.83512 0.12771 0.0
O281 O 0.7977 0.84849 0.90708 0.0
C282 C 0.83078 0.86432 0.96904 0.0
O283 O 0.83899 0.85473 0.96982 0.0
N284 N 0.81039 0.82631 0.95801 0.0
C285 C 0.80905 0.79944 0.96048 0.0
C286 C 0.80099 0.80659 0.91256 0.0
C287 C 0.8021 0.82001 0.91034 0.0
C288 C 0.81874 0.81941 0.00169 0.0
C289 C 0.81812 0.80602 0.00475 0.0
H290 H 0.79667 0.82514 0.86779 0.0
H291 H 0.82637 0.82429 0.0317 0.0
H292 H 0.80883 0.8511 0.78361 0.0
H293 H 0.84233 0.82953 0.74291 0.0
H294 H 0.79163 0.86388 0.18065 0.0
H295 H 0.79428 0.80183 0.8747 0.0
H296 H 0.82481 0.80085 0.04076 0.0
C297 C 0.92095 0.07953 0.61912 0.0
C298 C 0.92127 0.08146 0.5416 0.0
N299 N 0.9124 0.07373 0.50921 0.0
N300 N 0.91199 0.07058 0.63538 0.0
C301 C 0.90679 0.06743 0.56766 0.0
H302 H 0.92717 0.08402 0.66072 0.0
Co303 Co 0.9088 0.06331 0.72995 0.0
C304 C 0.90594 0.03526 0.69505 0.0
O305 O 0.91262 0.03227 0.75613 0.0
N306 N 0.90524 0.05636 0.82609 0.0
C307 C 0.89405 0.04732 0.92009 0.0
C308 C 0.89539 0.04833 0.84262 0.0
C309 C 0.90931 0.06053 0.89488 0.0
N310 N 0.90278 0.05508 0.95307 0.0
O311 O 0.8913 0.06921 0.72762 0.0
H312 H 0.88899 0.04409 0.80113 0.0
H313 H 0.91608 0.06827 0.90248 0.0
O314 O 0.90374 0.0471 0.67964 0.0
C315 C 0.88921 0.08126 0.73155 0.0
O316 O 0.89897 0.08924 0.72672 0.0
N317 N 0.92635 0.05833 0.73423 0.0
C318 C 0.95318 0.05522 0.73445 0.0
C319 C 0.94537 0.04808 0.68477 0.0
C320 C 0.93207 0.05005 0.68396 0.0
C321 C 0.93384 0.06568 0.7808 0.0
C322 C 0.94719 0.06418 0.78266 0.0
H323 H 0.92658 0.04537 0.63994 0.0
H324 H 0.92957 0.07342 0.81295 0.0
H325 H 0.89912 0.06051 0.5614 0.0
H326 H 0.92794 0.08762 0.51144 0.0
H327 H 0.88683 0.04169 0.94944 0.0
H328 H 0.94948 0.04122 0.64526 0.0
H329 H 0.95277 0.07046 0.81902 0.0
C330 C 0.66964 0.16473 0.35358 0.0
C331 C 0.66732 0.16419 0.27648 0.0
N332 N 0.67652 0.15688 0.24396 0.0
N333 N 0.68027 0.15783 0.36951 0.0
C334 C 0.68413 0.15301 0.30194 0.0
H335 H 0.66426 0.17023 0.39508 0.0
Co336 Co 0.68825 0.1568 0.46399 0.0
C337 C 0.71572 0.15913 0.42085 0.0
O338 O 0.71704 0.16801 0.47363 0.0
N339 N 0.69584 0.15523 0.56063 0.0
C340 C 0.70725 0.14745 0.65763 0.0
C341 C 0.70675 0.14895 0.58008 0.0
C342 C 0.68957 0.15674 0.62756 0.0
N343 N 0.69639 0.15232 0.68754 0.0
O344 O 0.68461 0.13875 0.46988 0.0
H345 H 0.71349 0.14467 0.54087 0.0
H346 H 0.67971 0.15997 0.63163 0.0
O347 O 0.70488 0.15342 0.41291 0.0
C348 C 0.67286 0.13587 0.48138 0.0
O349 O 0.66417 0.14503 0.47911 0.0
N350 N 0.69101 0.17495 0.46041 0.0
C351 C 0.69248 0.20184 0.4528 0.0
C352 C 0.69726 0.1942 0.39346 0.0
C353 C 0.6962 0.18082 0.39763 0.0
C354 C 0.68588 0.18231 0.51716 0.0
C355 C 0.68668 0.19571 0.5151 0.0
H356 H 0.69938 0.1752 0.34942 0.0
H357 H 0.68069 0.17792 0.56326 0.0
H358 H 0.69255 0.14702 0.2952 0.0
H359 H 0.65982 0.16933 0.24643 0.0
H360 H 0.7148 0.14264 0.68902 0.0
H361 H 0.70141 0.19853 0.34296 0.0
H362 H 0.68265 0.20122 0.5617 0.0
C363 C 0.5845 0.92392 0.17643 0.0
C364 C 0.58411 0.92162 0.0991 0.0
N365 N 0.59118 0.93071 0.06378 0.0
N366 N 0.59168 0.93447 0.18963 0.0
C367 C 0.59576 0.93825 0.12018 0.0
H368 H 0.57952 0.91852 0.22009 0.0
Co369 Co 0.59387 0.94251 0.28326 0.0
C370 C 0.5963 0.97034 0.24289 0.0
O371 O 0.58892 0.97344 0.30092 0.0
N372 N 0.59642 0.95026 0.3798 0.0
C373 C 0.60672 0.95978 0.47601 0.0
C374 C 0.60596 0.95855 0.39813 0.0
C375 C 0.59187 0.94629 0.44816 0.0
N376 N 0.59791 0.95194 0.50747 0.0
O377 O 0.6114 0.93671 0.28614 0.0
H378 H 0.61265 0.96269 0.3579 0.0
H379 H 0.58498 0.93866 0.45518 0.0
O380 O 0.59907 0.95851 0.23109 0.0
C381 C 0.61283 0.92725 0.33153 0.0
O382 O 0.60268 0.92272 0.36717 0.0
N383 N 0.57625 0.9471 0.2811 0.0
C384 C 0.54936 0.94916 0.27344 0.0
C385 C 0.55727 0.95591 0.2223 0.0
C386 C 0.57065 0.95459 0.22624 0.0
C387 C 0.56867 0.93998 0.32833 0.0
C388 C 0.55532 0.94118 0.32741 0.0
H389 H 0.57637 0.959 0.1821 0.0
H390 H 0.5729 0.93266 0.36373 0.0
H391 H 0.60155 0.94667 0.11063 0.0
H392 H 0.57884 0.91398 0.07117 0.0
H393 H 0.6139 0.9652 0.50697 0.0
H394 H 0.55317 0.96168 0.17705 0.0
H395 H 0.54976 0.93556 0.36751 0.0
C396 C 0.83568 0.16666 0.13806 0.0
C397 C 0.83788 0.16658 0.21531 0.0
N398 N 0.82852 0.15966 0.24905 0.0
N399 N 0.82495 0.15987 0.12279 0.0
C400 C 0.82092 0.15551 0.19154 0.0
H401 H 0.84107 0.17204 0.09607 0.0
Co402 Co 0.8167 0.16033 0.02781 0.0
C403 C 0.79138 0.14811 0.06466 0.0
O404 O 0.79154 0.14057 0.00461 0.0
N405 N 0.80872 0.161 0.93247 0.0
C406 C 0.79574 0.16602 0.83646 0.0
C407 C 0.79717 0.16608 0.91443 0.0
C408 C 0.81411 0.1579 0.86479 0.0
N409 N 0.80642 0.16088 0.80531 0.0
O410 O 0.82064 0.14249 0.01024 0.0
H411 H 0.79045 0.17005 0.95517 0.0
H412 H 0.82379 0.15419 0.85911 0.0
O413 O 0.80062 0.15591 0.07659 0.0
C414 C 0.83243 0.13968 0.99966 0.0
O415 O 0.84117 0.14871 0.00683 0.0
N416 N 0.81342 0.17794 0.0425 0.0
C417 C 0.81086 0.20446 0.0611 0.0
C418 C 0.80559 0.19594 0.11462 0.0
C419 C 0.80692 0.18268 0.10411 0.0
C420 C 0.81877 0.18609 0.99059 0.0
C421 C 0.81743 0.19939 0.99815 0.0
H422 H 0.80302 0.17627 0.14664 0.0
H423 H 0.82422 0.18224 0.9433 0.0
H424 H 0.8121 0.15022 0.20014 0.0
H425 H 0.84542 0.17176 0.24472 0.0
H426 H 0.7876 0.16974 0.80502 0.0
H427 H 0.80051 0.19951 0.16418 0.0
H428 H 0.82182 0.20567 0.95631 0.0
C429 C 0.58634 0.08211 0.89113 0.0
C430 C 0.5863 0.08462 0.96812 0.0
N431 N 0.59408 0.07605 0.00278 0.0
N432 N 0.59405 0.07198 0.8772 0.0
C433 C 0.59878 0.06864 0.94595 0.0
H434 H 0.58079 0.0871 0.84818 0.0
Co435 Co 0.59612 0.06396 0.78316 0.0
C436 C 0.59705 0.03608 0.82591 0.0
O437 O 0.58932 0.03321 0.76916 0.0
N438 N 0.59858 0.0564 0.68681 0.0
C439 C 0.60801 0.04603 0.59066 0.0
C440 C 0.6068 0.0468 0.66845 0.0
C441 C 0.59554 0.06172 0.61881 0.0
N442 N 0.60094 0.05547 0.55933 0.0
O443 O 0.6139 0.06883 0.77975 0.0
H444 H 0.61246 0.04136 0.70866 0.0
H445 H 0.59027 0.07058 0.61303 0.0
O446 O 0.60059 0.04777 0.83572 0.0
C447 C 0.61644 0.0807 0.77002 0.0
O448 O 0.60702 0.08911 0.77268 0.0
N449 N 0.57828 0.05994 0.78444 0.0
C450 C 0.5514 0.05788 0.79021 0.0
C451 C 0.55912 0.05169 0.84447 0.0
C452 C 0.5725 0.05307 0.8416 0.0
C453 C 0.57084 0.06642 0.73334 0.0
C454 C 0.55747 0.06531 0.73405 0.0
H455 H 0.5781 0.04913 0.88776 0.0
H456 H 0.57514 0.07314 0.69445 0.0
H457 H 0.60519 0.06064 0.95441 0.0
H458 H 0.58078 0.09206 0.9962 0.0
H459 H 0.61437 0.03961 0.56006 0.0
H460 H 0.55485 0.04633 0.89095 0.0
H461 H 0.55193 0.07051 0.69186 0.0
C462 C 0.67148 0.84422 0.59508 0.0
C463 C 0.6697 0.84368 0.67284 0.0
N464 N 0.68103 0.84069 0.70581 0.0
N465 N 0.68391 0.8417 0.57896 0.0
C466 C 0.68937 0.83939 0.64741 0.0
H467 H 0.66415 0.84634 0.55344 0.0
Co468 Co 0.69224 0.84133 0.48462 0.0
C469 C 0.71643 0.85553 0.5265 0.0
O470 O 0.71656 0.86284 0.46551 0.0
N471 N 0.70056 0.84066 0.38991 0.0
C472 C 0.71449 0.83733 0.29564 0.0
C473 C 0.71298 0.83809 0.3735 0.0
C474 C 0.69471 0.84113 0.32128 0.0
N475 N 0.70293 0.83922 0.26282 0.0
O476 O 0.68728 0.85892 0.46617 0.0
H477 H 0.72044 0.83643 0.41526 0.0
H478 H 0.68454 0.84259 0.31408 0.0
O479 O 0.70771 0.84707 0.53558 0.0
C480 C 0.67666 0.86011 0.43058 0.0
O481 O 0.6701 0.84971 0.41331 0.0
N482 N 0.69623 0.82405 0.49997 0.0
C483 C 0.69925 0.79743 0.50645 0.0
C484 C 0.70914 0.80566 0.53099 0.0
C485 C 0.70746 0.819 0.52716 0.0
C486 C 0.68647 0.81624 0.4773 0.0
C487 C 0.68775 0.80291 0.48019 0.0
H488 H 0.71526 0.82517 0.54476 0.0
H489 H 0.67766 0.82045 0.456 0.0
H490 H 0.69939 0.83692 0.65422 0.0
H491 H 0.66072 0.84533 0.70244 0.0
H492 H 0.72333 0.8351 0.26589 0.0
H493 H 0.71822 0.80184 0.55108 0.0
H494 H 0.67977 0.79697 0.46197 0.0
C495 C 0.91832 0.92211 0.36071 0.0
C496 C 0.91817 0.91982 0.43795 0.0
N497 N 0.90959 0.92787 0.47027 0.0
N498 N 0.90994 0.93161 0.34456 0.0
C499 C 0.9046 0.93474 0.41206 0.0
H500 H 0.92454 0.91756 0.3193 0.0
Co501 Co 0.9077 0.93941 0.25019 0.0
C502 C 0.90681 0.96717 0.29198 0.0
O503 O 0.91484 0.96977 0.23617 0.0
N504 N 0.905 0.94674 0.15374 0.0
C505 C 0.8956 0.95708 0.05749 0.0
C506 C 0.89712 0.9566 0.13507 0.0
C507 C 0.90746 0.94095 0.08631 0.0
N508 N 0.90209 0.94717 0.02678 0.0
O509 O 0.89004 0.93408 0.24725 0.0
H510 H 0.89188 0.96252 0.17495 0.0
H511 H 0.91204 0.93166 0.08137 0.0
O512 O 0.90293 0.9556 0.3019 0.0
C513 C 0.88778 0.92211 0.2396 0.0
O514 O 0.89737 0.91393 0.24385 0.0
N515 N 0.92547 0.94396 0.25112 0.0
C516 C 0.95219 0.94744 0.257 0.0
C517 C 0.94425 0.95221 0.31504 0.0
C518 C 0.93097 0.9502 0.31166 0.0
C519 C 0.93315 0.93885 0.19588 0.0
C520 C 0.94645 0.94067 0.19691 0.0
H521 H 0.92519 0.9533 0.35936 0.0
H522 H 0.92916 0.93273 0.15266 0.0
H523 H 0.89735 0.9421 0.41849 0.0
H524 H 0.92437 0.91321 0.46819 0.0
H525 H 0.8897 0.96388 0.02662 0.0
H526 H 0.94826 0.9573 0.36335 0.0
H527 H 0.95225 0.9363 0.15263 0.0
C528 C 0.67499 0.6676 0.61769 0.0
C529 C 0.67268 0.66747 0.69492 0.0
N530 N 0.68034 0.65851 0.72692 0.0
N531 N 0.68412 0.65883 0.60125 0.0
C532 C 0.687 0.65329 0.66854 0.0
H533 H 0.67067 0.67402 0.57646 0.0
Co534 Co 0.6917 0.65612 0.50665 0.0
C535 C 0.7195 0.65471 0.54712 0.0
O536 O 0.72225 0.66238 0.48985 0.0
N537 N 0.69881 0.65294 0.41007 0.0
C538 C 0.70879 0.64312 0.31393 0.0
C539 C 0.70845 0.6448 0.39147 0.0
C540 C 0.69297 0.65539 0.34278 0.0
N541 N 0.69901 0.6498 0.28328 0.0
O542 O 0.68595 0.6386 0.5059 0.0
H543 H 0.71432 0.63953 0.43145 0.0
H544 H 0.68379 0.66017 0.33795 0.0
O545 O 0.70784 0.65117 0.55807 0.0
C546 C 0.67391 0.63663 0.49969 0.0
O547 O 0.66599 0.64643 0.5044 0.0
N548 N 0.69668 0.67376 0.50531 0.0
C549 C 0.70093 0.70038 0.50718 0.0
C550 C 0.70553 0.69256 0.56622 0.0
C551 C 0.70315 0.67933 0.56478 0.0
C552 C 0.69169 0.68137 0.44933 0.0
C553 C 0.69391 0.6946 0.44827 0.0
H554 H 0.70615 0.67365 0.61313 0.0
H555 H 0.68536 0.6774 0.40715 0.0
H556 H 0.69399 0.64568 0.67465 0.0
H557 H 0.66631 0.67389 0.72539 0.0
H558 H 0.71545 0.63705 0.28305 0.0
H559 H 0.71076 0.69664 0.61377 0.0
H560 H 0.68965 0.70034 0.40339 0.0
C561 C 0.59172 0.41917 0.88697 0.0
C562 C 0.59165 0.41717 0.9647 0.0
N563 N 0.5935 0.42859 0.99919 0.0
N564 N 0.59374 0.43175 0.87279 0.0
C565 C 0.59483 0.43719 0.94235 0.0
H566 H 0.58993 0.41198 0.84376 0.0
Co567 Co 0.59325 0.43982 0.77807 0.0
C568 C 0.60798 0.46344 0.82022 0.0
O569 O 0.61719 0.46089 0.7713 0.0
N570 N 0.59254 0.44777 0.68292 0.0
C571 C 0.58984 0.4616 0.58769 0.0
C572 C 0.59016 0.46019 0.66569 0.0
C573 C 0.59335 0.4418 0.61484 0.0
N574 N 0.59182 0.44997 0.55591 0.0
O575 O 0.61092 0.43521 0.76057 0.0
H576 H 0.58842 0.46771 0.70695 0.0
H577 H 0.59489 0.4316 0.60834 0.0
O578 O 0.59827 0.45598 0.82519 0.0
C579 C 0.61212 0.42434 0.72783 0.0
O580 O 0.60176 0.4175 0.71401 0.0
N581 N 0.5758 0.44333 0.79249 0.0
C582 C 0.54914 0.44533 0.80709 0.0
C583 C 0.55735 0.45304 0.85122 0.0
C584 C 0.57069 0.45186 0.84329 0.0
C585 C 0.56801 0.43578 0.74918 0.0
C586 C 0.55466 0.43667 0.75516 0.0
H587 H 0.5768 0.45758 0.87926 0.0
H588 H 0.57222 0.42894 0.71002 0.0
H589 H 0.59632 0.44732 0.95184 0.0
H590 H 0.5898 0.40815 0.99347 0.0
H591 H 0.58789 0.4704 0.55692 0.0
H592 H 0.55354 0.4597 0.89296 0.0
H593 H 0.54874 0.43062 0.71923 0.0
C594 C 0.83615 0.33988 0.19707 0.0
C595 C 0.83835 0.34001 0.27428 0.0
N596 N 0.82846 0.3461 0.30825 0.0
N597 N 0.82491 0.34582 0.18209 0.0
C598 C 0.82051 0.34965 0.25109 0.0
H599 H 0.84205 0.33515 0.15478 0.0
Co600 Co 0.8169 0.34533 0.08668 0.0
C601 C 0.79209 0.35817 0.12005 0.0
O602 O 0.79336 0.36582 0.06094 0.0
N603 N 0.80916 0.34452 0.99118 0.0
C604 C 0.79625 0.33948 0.89494 0.0
C605 C 0.79761 0.33947 0.97289 0.0
C606 C 0.81464 0.34754 0.92369 0.0
N607 N 0.80697 0.34457 0.86413 0.0
O608 O 0.82073 0.36321 0.06925 0.0
H609 H 0.79078 0.33563 0.01347 0.0
H610 H 0.82431 0.35126 0.91822 0.0
O611 O 0.80069 0.34977 0.13423 0.0
C612 C 0.83245 0.36624 0.05818 0.0
O613 O 0.84138 0.35743 0.06655 0.0
N614 N 0.81392 0.32772 0.09997 0.0
C615 C 0.81207 0.30101 0.10541 0.0
C616 C 0.80302 0.30872 0.14315 0.0
C617 C 0.8042 0.32213 0.1406 0.0
C618 C 0.82278 0.32036 0.06313 0.0
C619 C 0.82211 0.30697 0.06557 0.0
H620 H 0.79724 0.32789 0.1709 0.0
H621 H 0.83042 0.32498 0.03138 0.0
H622 H 0.8113 0.3542 0.26013 0.0
H623 H 0.84634 0.33552 0.30346 0.0
H624 H 0.78811 0.33581 0.86326 0.0
H625 H 0.79519 0.30441 0.17495 0.0
H626 H 0.82923 0.30134 0.03532 0.0
C627 C 0.91364 0.5824 0.41842 0.0
C628 C 0.91359 0.58466 0.4956 0.0
N629 N 0.90753 0.5748 0.53007 0.0
N630 N 0.90765 0.57116 0.404 0.0
C631 C 0.90394 0.5668 0.47327 0.0
H632 H 0.91836 0.58823 0.37573 0.0
Co633 Co 0.90793 0.56314 0.3087 0.0
C634 C 0.89521 0.5382 0.33832 0.0
O635 O 0.88854 0.53906 0.27499 0.0
N636 N 0.90858 0.55538 0.21294 0.0
C637 C 0.91404 0.54269 0.11643 0.0
C638 C 0.914 0.54401 0.19439 0.0
C639 C 0.90542 0.56081 0.14554 0.0
N640 N 0.90865 0.55327 0.08583 0.0
O641 O 0.89009 0.56721 0.29226 0.0
H642 H 0.91812 0.53733 0.23483 0.0
H643 H 0.90151 0.57041 0.1402 0.0
O644 O 0.90322 0.54696 0.3564 0.0
C645 C 0.88743 0.579 0.28053 0.0
O646 O 0.89664 0.5876 0.28505 0.0
N647 N 0.92546 0.55993 0.32148 0.0
C648 C 0.95217 0.55778 0.32725 0.0
C649 C 0.94434 0.54988 0.37278 0.0
C650 C 0.93094 0.55118 0.36958 0.0
C651 C 0.9329 0.56772 0.27745 0.0
C652 C 0.94626 0.56679 0.27924 0.0
H653 H 0.92505 0.54523 0.40599 0.0
H654 H 0.92837 0.57468 0.24035 0.0
H655 H 0.89951 0.55755 0.48275 0.0
H656 H 0.91811 0.59268 0.52438 0.0
H657 H 0.91802 0.53471 0.08461 0.0
H658 H 0.94854 0.54292 0.41138 0.0
H659 H 0.9519 0.57299 0.24257 0.0
C660 C 0.66894 0.34872 0.37416 0.0
C661 C 0.66732 0.3486 0.29623 0.0
N662 N 0.67834 0.34443 0.26408 0.0
N663 N 0.68094 0.34472 0.39108 0.0
C664 C 0.68633 0.34205 0.3229 0.0
H665 H 0.66177 0.35159 0.4153 0.0
Co666 Co 0.68891 0.34288 0.48569 0.0
C667 C 0.71317 0.35701 0.45426 0.0
O668 O 0.71175 0.36421 0.51521 0.0
N669 N 0.69689 0.34079 0.58049 0.0
C670 C 0.71066 0.33694 0.67482 0.0
C671 C 0.70923 0.33785 0.59699 0.0
C672 C 0.69099 0.34127 0.64892 0.0
N673 N 0.69914 0.33917 0.70733 0.0
O674 O 0.68471 0.36045 0.51087 0.0
H675 H 0.71675 0.33637 0.55537 0.0
H676 H 0.68081 0.34275 0.65617 0.0
O677 O 0.70493 0.34831 0.43889 0.0
C678 C 0.67409 0.36161 0.54647 0.0
O679 O 0.667 0.35133 0.55794 0.0
N680 N 0.69204 0.32561 0.46419 0.0
C681 C 0.69334 0.29901 0.44488 0.0
C682 C 0.70403 0.30683 0.42856 0.0
C683 C 0.70319 0.32016 0.43858 0.0
C684 C 0.6816 0.31821 0.48011 0.0
C685 C 0.68202 0.30491 0.47081 0.0
H686 H 0.71152 0.32601 0.42638 0.0
H687 H 0.67291 0.32272 0.50109 0.0
H688 H 0.69592 0.33819 0.3167 0.0
H689 H 0.65878 0.35157 0.2658 0.0
H690 H 0.71951 0.33492 0.70495 0.0
H691 H 0.71293 0.30268 0.40802 0.0
H692 H 0.67361 0.29928 0.48555 0.0
C693 C 0.91132 0.41503 0.59373 0.0
C694 C 0.9112 0.4128 0.51654 0.0
N695 N 0.90566 0.42296 0.48214 0.0
N696 N 0.90586 0.42654 0.60827 0.0
C697 C 0.90243 0.43111 0.53898 0.0
H698 H 0.91579 0.40899 0.63631 0.0
Co699 Co 0.90669 0.43452 0.70351 0.0
C700 C 0.89419 0.45974 0.67722 0.0
O701 O 0.88806 0.45916 0.74255 0.0
N702 N 0.90792 0.4422 0.79927 0.0
C703 C 0.91385 0.45473 0.89561 0.0
C704 C 0.91368 0.45342 0.81763 0.0
C705 C 0.9047 0.43686 0.86679 0.0
N706 N 0.9082 0.4443 0.92637 0.0
O707 O 0.88891 0.43059 0.72368 0.0
H708 H 0.91784 0.46005 0.77702 0.0
H709 H 0.90048 0.42739 0.8723 0.0
O710 O 0.90178 0.45073 0.65717 0.0
C711 C 0.88589 0.41889 0.73577 0.0
O712 O 0.89469 0.40995 0.72756 0.0
N713 N 0.92417 0.4377 0.68719 0.0
C714 C 0.95084 0.44081 0.68283 0.0
C715 C 0.94274 0.44883 0.63971 0.0
C716 C 0.92939 0.44706 0.6422 0.0
C717 C 0.93186 0.42954 0.72711 0.0
C718 C 0.94519 0.43089 0.72562 0.0
H719 H 0.92334 0.45336 0.609 0.0
H720 H 0.92754 0.42204 0.76136 0.0
H721 H 0.89855 0.4406 0.52947 0.0
H722 H 0.91537 0.4046 0.48769 0.0
H723 H 0.91803 0.46262 0.92731 0.0
H724 H 0.94662 0.45663 0.60588 0.0
H725 H 0.95099 0.42421 0.75808 0.0
C726 C 0.83151 0.66765 0.89248 0.0
C727 C 0.83388 0.66727 0.81539 0.0
N728 N 0.826 0.65846 0.7834 0.0
N729 N 0.82209 0.65924 0.90922 0.0
C730 C 0.81916 0.65358 0.84229 0.0
H731 H 0.83592 0.67409 0.93325 0.0
Co732 Co 0.81399 0.65727 0.00332 0.0
C733 C 0.78641 0.65748 0.95583 0.0
O734 O 0.78378 0.66603 0.00878 0.0
N735 N 0.80635 0.65483 0.09945 0.0
C736 C 0.79478 0.64721 0.19642 0.0
C737 C 0.79547 0.64846 0.11865 0.0
C738 C 0.81249 0.65649 0.1667 0.0
N739 N 0.80552 0.65226 0.22657 0.0
O740 O 0.81876 0.63946 0.00655 0.0
H741 H 0.78884 0.64404 0.07932 0.0
H742 H 0.82216 0.66022 0.17145 0.0
O743 O 0.79784 0.65299 0.95 0.0
C744 C 0.83067 0.63684 0.01326 0.0
O745 O 0.83913 0.6462 0.00913 0.0
N746 N 0.80997 0.67521 0.00225 0.0
C747 C 0.80786 0.70212 0.99546 0.0
C748 C 0.80343 0.69439 0.93542 0.0
C749 C 0.80466 0.68101 0.93963 0.0
C750 C 0.8145 0.68263 0.06042 0.0
C751 C 0.81328 0.696 0.05903 0.0
H752 H 0.80185 0.67536 0.89071 0.0
H753 H 0.81966 0.67838 0.10696 0.0
H754 H 0.8119 0.64623 0.83714 0.0
H755 H 0.84048 0.67351 0.78532 0.0
H756 H 0.78733 0.64226 0.22799 0.0
H757 H 0.79955 0.69861 0.88396 0.0
H758 H 0.81688 0.70148 0.10695 0.0
C759 C 0.58761 0.58593 0.08598 0.0
C760 C 0.58795 0.58826 0.00892 0.0
N761 N 0.59391 0.5783 0.97468 0.0
N762 N 0.59339 0.5746 0.10054 0.0
C763 C 0.59718 0.5702 0.03168 0.0
H764 H 0.58305 0.5919 0.12861 0.0
Co765 Co 0.59363 0.56678 0.19574 0.0
C766 C 0.60815 0.54339 0.14902 0.0
O767 O 0.61824 0.54687 0.18903 0.0
N768 N 0.5937 0.55918 0.29094 0.0
C769 C 0.59136 0.54597 0.38912 0.0
C770 C 0.59057 0.54707 0.3111 0.0
C771 C 0.59625 0.56527 0.35695 0.0
N772 N 0.59491 0.55746 0.41794 0.0
O773 O 0.61145 0.57116 0.20906 0.0
H774 H 0.58757 0.53962 0.27192 0.0
H775 H 0.59893 0.57531 0.35988 0.0
O776 O 0.59805 0.55038 0.14892 0.0
C777 C 0.61434 0.58292 0.21993 0.0
O778 O 0.60529 0.59168 0.21512 0.0
N779 N 0.57604 0.56341 0.18642 0.0
C780 C 0.54934 0.56124 0.18016 0.0
C781 C 0.55716 0.55371 0.13268 0.0
C782 C 0.57053 0.5551 0.13574 0.0
C783 C 0.56858 0.57082 0.2327 0.0
C784 C 0.5552 0.56993 0.23036 0.0
H785 H 0.57638 0.54975 0.0962 0.0
H786 H 0.57309 0.57759 0.27117 0.0
H787 H 0.60164 0.56093 0.02283 0.0
H788 H 0.58386 0.59652 0.98035 0.0
H789 H 0.58902 0.53749 0.42207 0.0
H790 H 0.55294 0.54708 0.09215 0.0
H791 H 0.54947 0.57592 0.26776 0.0
C792 C 0.32712 0.33218 0.39445 0.0
C793 C 0.32966 0.33191 0.31744 0.0
N794 N 0.32159 0.34017 0.2824 0.0
N795 N 0.31747 0.3405 0.40787 0.0
C796 C 0.31445 0.34535 0.33889 0.0
H797 H 0.33176 0.32641 0.43776 0.0
Co798 Co 0.30971 0.34344 0.50182 0.0
C799 C 0.2822 0.34699 0.45956 0.0
O800 O 0.27886 0.33938 0.51603 0.0
N801 N 0.3025 0.34678 0.5984 0.0
C802 C 0.293 0.35701 0.69485 0.0
C803 C 0.2936 0.35573 0.61703 0.0
C804 C 0.30767 0.34339 0.66622 0.0
N805 N 0.30191 0.34924 0.72591 0.0
O806 O 0.31689 0.36039 0.50438 0.0
H807 H 0.28854 0.36178 0.57701 0.0
H808 H 0.31614 0.33749 0.67162 0.0
O809 O 0.2941 0.34973 0.44956 0.0
C810 C 0.3283 0.35986 0.53062 0.0
O811 O 0.33307 0.34852 0.54779 0.0
N812 N 0.30358 0.32617 0.5003 0.0
C813 C 0.29886 0.29968 0.49054 0.0
C814 C 0.29424 0.30809 0.4345 0.0
C815 C 0.29685 0.32125 0.43984 0.0
C816 C 0.3085 0.31799 0.55362 0.0
C817 C 0.30601 0.30481 0.5509 0.0
H818 H 0.29399 0.32735 0.39305 0.0
H819 H 0.31514 0.32143 0.59571 0.0
H820 H 0.30684 0.35222 0.32993 0.0
H821 H 0.33676 0.32594 0.28959 0.0
H822 H 0.28709 0.36382 0.72565 0.0
H823 H 0.28894 0.3045 0.38583 0.0
H824 H 0.3103 0.2986 0.5934 0.0
C825 C 0.41506 0.58432 0.10771 0.0
C826 C 0.41467 0.58702 0.031 0.0
N827 N 0.40801 0.57761 0.99572 0.0
N828 N 0.40869 0.57327 0.12097 0.0
C829 C 0.40437 0.56949 0.05194 0.0
H830 H 0.42002 0.58984 0.15092 0.0
Co831 Co 0.40774 0.56499 0.21509 0.0
C832 C 0.40863 0.53757 0.16803 0.0
O833 O 0.41783 0.5356 0.21804 0.0
N834 N 0.40626 0.5572 0.3116 0.0
C835 C 0.39874 0.54576 0.40926 0.0
C836 C 0.39989 0.54637 0.33146 0.0
C837 C 0.40814 0.56334 0.37868 0.0
N838 N 0.40394 0.55647 0.4392 0.0
O839 O 0.38987 0.56928 0.22373 0.0
H840 H 0.39528 0.5398 0.29257 0.0
H841 H 0.41185 0.57303 0.38252 0.0
O842 O 0.40344 0.54871 0.1631 0.0
C843 C 0.38738 0.58101 0.23864 0.0
O844 O 0.39682 0.5894 0.23939 0.0
N845 N 0.42578 0.56146 0.20851 0.0
C846 C 0.45253 0.55899 0.19581 0.0
C847 C 0.44448 0.55531 0.13577 0.0
C848 C 0.43116 0.55665 0.14311 0.0
C849 C 0.43361 0.56553 0.26614 0.0
C850 C 0.44695 0.5641 0.26174 0.0
H851 H 0.42518 0.55401 0.09529 0.0
H852 H 0.4297 0.57039 0.31486 0.0
H853 H 0.39923 0.56061 0.04255 0.0
H854 H 0.41917 0.59517 0.00348 0.0
H855 H 0.39363 0.53841 0.4407 0.0
H856 H 0.44845 0.55149 0.08337 0.0
H857 H 0.45289 0.56748 0.30833 0.0
C858 C 0.16998 0.65472 0.89012 0.0
C859 C 0.16833 0.65511 0.81223 0.0
N860 N 0.17933 0.65936 0.78024 0.0
N861 N 0.18201 0.65862 0.90721 0.0
C862 C 0.18736 0.66153 0.83923 0.0
H863 H 0.16287 0.65167 0.93111 0.0
Co864 Co 0.19016 0.65991 0.00167 0.0
C865 C 0.21453 0.64584 0.96409 0.0
O866 O 0.21435 0.63869 0.02575 0.0
N867 N 0.19831 0.66144 0.09633 0.0
C868 C 0.21212 0.66478 0.1912 0.0
C869 C 0.21075 0.66386 0.11334 0.0
C870 C 0.19232 0.66124 0.16455 0.0
N871 N 0.20048 0.66307 0.22323 0.0
O872 O 0.18566 0.6423 0.0243 0.0
H873 H 0.21838 0.66505 0.07213 0.0
H874 H 0.18207 0.66024 0.17141 0.0
O875 O 0.20584 0.65426 0.95266 0.0
C876 C 0.1751 0.6409 0.06025 0.0
O877 O 0.16813 0.65112 0.07538 0.0
N878 N 0.19373 0.6772 0.98192 0.0
C879 C 0.19584 0.7037 0.96034 0.0
C880 C 0.20653 0.69564 0.94973 0.0
C881 C 0.20527 0.68236 0.96054 0.0
C882 C 0.1833 0.68488 0.99292 0.0
C883 C 0.18411 0.69814 0.98208 0.0
H884 H 0.21359 0.67632 0.95209 0.0
H885 H 0.17428 0.68062 0.01051 0.0
H886 H 0.197 0.6653 0.83337 0.0
H887 H 0.15977 0.65219 0.78172 0.0
H888 H 0.221 0.66649 0.2217 0.0
H889 H 0.21574 0.69955 0.93262 0.0
H890 H 0.17567 0.704 0.99208 0.0
C891 C 0.08607 0.42095 0.63698 0.0
C892 C 0.0863 0.41832 0.56005 0.0
N893 N 0.09199 0.42827 0.52401 0.0
N894 N 0.09153 0.43251 0.64935 0.0
C895 C 0.09519 0.43664 0.57967 0.0
H896 H 0.0818 0.41503 0.68092 0.0
Co897 Co 0.09211 0.44088 0.74301 0.0
C898 C 0.09256 0.46832 0.69816 0.0
O899 O 0.08353 0.47048 0.74905 0.0
N900 N 0.09319 0.44888 0.83995 0.0
C901 C 0.10142 0.45985 0.93774 0.0
C902 C 0.1008 0.4589 0.85983 0.0
C903 C 0.08991 0.44355 0.90766 0.0
N904 N 0.09462 0.45011 0.96792 0.0
O905 O 0.10969 0.43564 0.75596 0.0
H906 H 0.10659 0.46449 0.82102 0.0
H907 H 0.08509 0.4344 0.91294 0.0
O908 O 0.0973 0.457 0.6917 0.0
C909 C 0.10957 0.42535 0.79542 0.0
O910 O 0.0984 0.42015 0.8122 0.0
N911 N 0.07432 0.4449 0.73197 0.0
C912 C 0.04767 0.44741 0.7144 0.0
C913 C 0.05608 0.45199 0.65827 0.0
C914 C 0.06936 0.45054 0.66777 0.0
C915 C 0.06616 0.4398 0.78475 0.0
C916 C 0.05287 0.44123 0.77818 0.0
H917 H 0.07561 0.45369 0.62233 0.0
H918 H 0.0698 0.43398 0.83036 0.0
H919 H 0.09947 0.44594 0.56924 0.0
H920 H 0.08235 0.40986 0.53285 0.0
H921 H 0.10734 0.46654 0.96945 0.0
H922 H 0.05242 0.45654 0.60718 0.0
H923 H 0.04667 0.43701 0.82109 0.0
C924 C 0.33223 0.6651 0.64645 0.0
C925 C 0.33484 0.66489 0.72329 0.0
N926 N 0.32571 0.6578 0.75826 0.0
N927 N 0.32152 0.65818 0.63291 0.0
C928 C 0.31785 0.65375 0.70185 0.0
H929 H 0.3376 0.67023 0.60327 0.0
Co930 Co 0.31351 0.65653 0.5386 0.0
C931 C 0.28591 0.65686 0.5824 0.0
O932 O 0.28378 0.66548 0.52908 0.0
N933 N 0.30596 0.65437 0.44201 0.0
C934 C 0.29495 0.64592 0.3453 0.0
C935 C 0.29556 0.64724 0.423 0.0
C936 C 0.3119 0.65652 0.37461 0.0
N937 N 0.30526 0.65177 0.31468 0.0
O938 O 0.31824 0.63872 0.53353 0.0
H939 H 0.28935 0.6423 0.46257 0.0
H940 H 0.32135 0.66075 0.37001 0.0
O941 O 0.29721 0.65215 0.59028 0.0
C942 C 0.33008 0.63645 0.52068 0.0
O943 O 0.33826 0.64606 0.5203 0.0
N944 N 0.30962 0.67447 0.54154 0.0
C945 C 0.30632 0.70122 0.54702 0.0
C946 C 0.30207 0.69341 0.60707 0.0
C947 C 0.30397 0.6801 0.60371 0.0
C948 C 0.31439 0.68206 0.48479 0.0
C949 C 0.31261 0.69537 0.48554 0.0
H950 H 0.30104 0.67436 0.65197 0.0
H951 H 0.32011 0.67799 0.43996 0.0
H952 H 0.30924 0.64813 0.7109 0.0
H953 H 0.34275 0.66975 0.75107 0.0
H954 H 0.28792 0.64029 0.31439 0.0
H955 H 0.29738 0.69753 0.65646 0.0
H956 H 0.31659 0.70109 0.43961 0.0
C957 C 0.09788 0.58076 0.34891 0.0
C958 C 0.09724 0.58283 0.4264 0.0
N959 N 0.09247 0.57215 0.45977 0.0
N960 N 0.09363 0.5688 0.33346 0.0
C961 C 0.09028 0.56387 0.40191 0.0
H962 H 0.10131 0.58751 0.30667 0.0
Co963 Co 0.09282 0.56076 0.2384 0.0
C964 C 0.10682 0.54041 0.32363 0.0
O965 O 0.11723 0.54752 0.32778 0.0
N966 N 0.09207 0.55276 0.14327 0.0
C967 C 0.09587 0.54012 0.04381 0.0
C968 C 0.09716 0.54142 0.12146 0.0
C969 C 0.08764 0.55812 0.07826 0.0
N970 N 0.08998 0.55071 0.01646 0.0
O971 O 0.11067 0.56482 0.22079 0.0
H972 H 0.10212 0.53478 0.15862 0.0
H973 H 0.08322 0.56753 0.07617 0.0
O974 O 0.09698 0.54454 0.28769 0.0
C975 C 0.11231 0.57415 0.17461 0.0
O976 O 0.10216 0.57984 0.14562 0.0
N977 N 0.07526 0.55773 0.25263 0.0
C978 C 0.04884 0.55566 0.27809 0.0
C979 C 0.05643 0.54461 0.26773 0.0
C980 C 0.06965 0.54586 0.25461 0.0
C981 C 0.06798 0.56855 0.25932 0.0
C982 C 0.05479 0.56775 0.2727 0.0
H983 H 0.07536 0.5373 0.24584 0.0
H984 H 0.0725 0.57789 0.25503 0.0
H985 H 0.08655 0.55424 0.40921 0.0
H986 H 0.10006 0.59154 0.45566 0.0
H987 H 0.0997 0.53234 0.00972 0.0
H988 H 0.05222 0.5351 0.27076 0.0
H989 H 0.04928 0.57654 0.27806 0.0
C990 C 0.17343 0.33057 0.11219 0.0
C991 C 0.17159 0.33007 0.18983 0.0
N992 N 0.17921 0.339 0.22254 0.0
N993 N 0.18225 0.33968 0.09617 0.0
C994 C 0.18535 0.34483 0.16418 0.0
H995 H 0.16901 0.32434 0.0704 0.0
Co996 Co 0.18956 0.34316 0.00185 0.0
C997 C 0.21742 0.34735 0.03916 0.0
O998 O 0.22097 0.34093 0.97814 0.0
N999 N 0.19653 0.34697 0.906 0.0
C1000 C 0.20522 0.35841 0.81195 0.0
C1001 C 0.20411 0.35715 0.88947 0.0
C1002 C 0.19273 0.34256 0.83716 0.0
N1003 N 0.19796 0.34926 0.77889 0.0
O1004 O 0.18277 0.36027 0.0043 0.0
H1005 H 0.20797 0.3638 0.93094 0.0
H1006 H 0.1854 0.33535 0.82954 0.0
O1007 O 0.20544 0.34889 0.05319 0.0
C1008 C 0.17105 0.36032 0.98331 0.0
O1009 O 0.16542 0.34925 0.96923 0.0
N1010 N 0.19517 0.32584 0.99756 0.0
C1011 C 0.19797 0.29908 0.99995 0.0
C1012 C 0.20563 0.30689 0.04645 0.0
C1013 C 0.20381 0.32023 0.04615 0.0
C1014 C 0.18752 0.31828 0.9531 0.0
C1015 C 0.18883 0.30492 0.95279 0.0
H1016 H 0.20876 0.3258 0.08877 0.0
H1017 H 0.17964 0.32252 0.92201 0.0
H1018 H 0.1921 0.35262 0.17074 0.0
H1019 H 0.16557 0.32326 0.21979 0.0
H1020 H 0.21055 0.36584 0.78262 0.0
H1021 H 0.21239 0.30267 0.08615 0.0
H1022 H 0.18245 0.29919 0.91779 0.0
C1023 C 0.40266 0.42038 0.87975 0.0
C1024 C 0.4029 0.41887 0.95772 0.0
N1025 N 0.4073 0.42985 0.98912 0.0
N1026 N 0.40684 0.4323 0.86191 0.0
C1027 C 0.40968 0.43774 0.92976 0.0
H1028 H 0.39958 0.41319 0.83939 0.0
Co1029 Co 0.40881 0.44034 0.76711 0.0
C1030 C 0.39445 0.46481 0.80035 0.0
O1031 O 0.38773 0.46474 0.73699 0.0
N1032 N 0.411 0.44844 0.67244 0.0
C1033 C 0.41454 0.46233 0.57809 0.0
C1034 C 0.41352 0.46089 0.65587 0.0
C1035 C 0.41084 0.44253 0.60397 0.0
N1036 N 0.41276 0.45074 0.54564 0.0
O1037 O 0.39155 0.43544 0.7387 0.0
H1038 H 0.41457 0.4685 0.69728 0.0
H1039 H 0.40965 0.43232 0.5965 0.0
O1040 O 0.40266 0.456 0.81372 0.0
C1041 C 0.39171 0.42462 0.7046 0.0
O1042 O 0.40269 0.41842 0.6993 0.0
N1043 N 0.42585 0.44412 0.7915 0.0
C1044 C 0.4522 0.44638 0.8171 0.0
C1045 C 0.44408 0.45709 0.82502 0.0
C1046 C 0.43086 0.45575 0.81238 0.0
C1047 C 0.43358 0.43366 0.7836 0.0
C1048 C 0.44677 0.43454 0.7966 0.0
H1049 H 0.42475 0.46408 0.81862 0.0
H1050 H 0.42944 0.42457 0.7664 0.0
H1051 H 0.41364 0.4473 0.93527 0.0
H1052 H 0.39983 0.41041 0.98869 0.0
H1053 H 0.41624 0.47125 0.54788 0.0
H1054 H 0.44792 0.46639 0.841 0.0
H1055 H 0.4527 0.42608 0.78874 0.0
H1056 H 0.21921 0.2837 0.98754 0.0
H1057 H 0.17823 0.2825 0.02593 0.0
H1058 H 0.22008 0.26012 0.99556 0.0
H1059 H 0.17912 0.25904 0.03514 0.0
H1060 H 0.18908 0.21871 0.12858 0.0
H1061 H 0.18982 0.24226 0.12706 0.0
H1062 H 0.21013 0.24126 0.91266 0.0
H1063 H 0.20924 0.2177 0.91364 0.0
C1064 C 0.21043 0.27838 0.99801 0.0
C1065 C 0.19865 0.28487 0.00559 0.0
C1066 C 0.21091 0.26494 0.00235 0.0
C1067 C 0.19967 0.2578 0.01616 0.0
C1068 C 0.18794 0.26432 0.025 0.0
C1069 C 0.18742 0.27771 0.01915 0.0
C1070 C 0.19384 0.22353 0.08166 0.0
C1071 C 0.1991 0.21641 0.02119 0.0
C1072 C 0.19419 0.23698 0.08057 0.0
C1073 C 0.20002 0.24355 0.01969 0.0
C1074 C 0.20565 0.23642 0.96045 0.0
C1075 C 0.20508 0.22298 0.96082 0.0
H1076 H 0.03287 0.93713 0.16296 0.0
H1077 H 0.03361 0.95764 0.37695 0.0
H1078 H 0.00953 0.93837 0.1613 0.0
H1079 H 0.01015 0.95932 0.37386 0.0
H1080 H 0.96779 0.94485 0.38207 0.0
H1081 H 0.99123 0.9455 0.38639 0.0
H1082 H 0.99226 0.95367 0.14512 0.0
H1083 H 0.96884 0.95297 0.14078 0.0
C1084 C 0.02804 0.9419 0.20978 0.0
C1085 C 0.03512 0.94719 0.27043 0.0
C1086 C 0.01465 0.94278 0.20828 0.0
C1087 C 0.00795 0.94899 0.2673 0.0
C1088 C 0.01501 0.95438 0.32779 0.0
C1089 C 0.02846 0.95352 0.32922 0.0
C1090 C 0.97301 0.94699 0.33019 0.0
C1091 C 0.96643 0.94879 0.26096 0.0
C1092 C 0.98645 0.94737 0.33267 0.0
C1093 C 0.99364 0.94955 0.26601 0.0
C1094 C 0.98704 0.95172 0.19727 0.0
C1095 C 0.97361 0.95133 0.19476 0.0
H1096 H 0.32289 0.78195 0.60335 0.0
H1097 H 0.28702 0.78242 0.47944 0.0
H1098 H 0.32179 0.75855 0.61155 0.0
H1099 H 0.2858 0.75899 0.48888 0.0
H1100 H 0.29888 0.71724 0.4318 0.0
H1101 H 0.2979 0.7407 0.43315 0.0
H1102 H 0.30927 0.7408 0.66979 0.0
H1103 H 0.3105 0.71732 0.66802 0.0
C1104 C 0.31473 0.77705 0.57826 0.0
C1105 C 0.30508 0.78403 0.54036 0.0
C1106 C 0.31404 0.76365 0.5836 0.0
C1107 C 0.30372 0.75691 0.5507 0.0
C1108 C 0.29392 0.76391 0.51421 0.0
C1109 C 0.29457 0.77733 0.5094 0.0
C1110 C 0.30115 0.72228 0.48414 0.0
C1111 C 0.30482 0.71543 0.54969 0.0
C1112 C 0.30047 0.7357 0.48513 0.0
C1113 C 0.30353 0.74261 0.55156 0.0
C1114 C 0.30696 0.73575 0.61757 0.0
C1115 C 0.30754 0.72231 0.61675 0.0
H1116 H 0.47009 0.03822 0.74788 0.0
H1117 H 0.47036 0.07515 0.86036 0.0
H1118 H 0.49359 0.03779 0.75102 0.0
H1119 H 0.49377 0.07469 0.86417 0.0
H1120 H 0.53433 0.07754 0.76823 0.0
H1121 H 0.511 0.07678 0.77352 0.0
H1122 H 0.51261 0.03646 0.83237 0.0
H1123 H 0.53608 0.03711 0.824 0.0
C1124 C 0.47516 0.04614 0.77439 0.0
C1125 C 0.46837 0.05678 0.80315 0.0
C1126 C 0.48863 0.0459 0.77622 0.0
C1127 C 0.49559 0.05628 0.80706 0.0
C1128 C 0.48874 0.06667 0.83839 0.0
C1129 C 0.47532 0.06693 0.83634 0.0
C1130 C 0.52974 0.06846 0.78142 0.0
C1131 C 0.5371 0.05735 0.79502 0.0
C1132 C 0.51634 0.06806 0.78557 0.0
C1133 C 0.5099 0.05657 0.80376 0.0
C1134 C 0.51725 0.04545 0.81765 0.0
C1135 C 0.5307 0.04585 0.81354 0.0
H1136 H 0.17904 0.71965 0.88721 0.0
H1137 H 0.2149 0.71977 0.01108 0.0
H1138 H 0.17975 0.74302 0.87879 0.0
H1139 H 0.21553 0.74322 0.00392 0.0
H1140 H 0.21738 0.78531 0.92727 0.0
H1141 H 0.21786 0.76182 0.92198 0.0
H1142 H 0.1769 0.7608 0.96291 0.0
H1143 H 0.17632 0.78412 0.96447 0.0
C1144 C 0.18707 0.72469 0.91279 0.0
C1145 C 0.19685 0.71787 0.95038 0.0
C1146 C 0.18747 0.73809 0.90815 0.0
C1147 C 0.19762 0.74505 0.94146 0.0
C1148 C 0.20763 0.73819 0.97699 0.0
C1149 C 0.20726 0.72474 0.98122 0.0
C1150 C 0.20847 0.78005 0.93429 0.0
C1151 C 0.19683 0.78663 0.94686 0.0
C1152 C 0.20876 0.76658 0.93202 0.0
C1153 C 0.19742 0.75938 0.94201 0.0
C1154 C 0.1858 0.76599 0.95397 0.0
C1155 C 0.1855 0.77941 0.95608 0.0
H1156 H 0.53402 0.96965 0.23216 0.0
H1157 H 0.53203 0.9297 0.29955 0.0
H1158 H 0.51071 0.9701 0.21921 0.0
H1159 H 0.50887 0.9305 0.29349 0.0
H1160 H 0.46832 0.93052 0.20975 0.0
H1161 H 0.49171 0.93076 0.2105 0.0
H1162 H 0.49117 0.9704 0.28554 0.0
H1163 H 0.46766 0.97024 0.28022 0.0
C1164 C 0.52866 0.96098 0.24457 0.0
C1165 C 0.53503 0.94966 0.26731 0.0
C1166 C 0.51523 0.96129 0.2382 0.0
C1167 C 0.50779 0.95034 0.25519 0.0
C1168 C 0.51418 0.93908 0.27844 0.0
C1169 C 0.52757 0.93871 0.28356 0.0
C1170 C 0.47325 0.93928 0.22608 0.0
C1171 C 0.46624 0.95033 0.24545 0.0
C1172 C 0.48667 0.93942 0.22712 0.0
C1173 C 0.49345 0.95055 0.24922 0.0
C1174 C 0.48636 0.96169 0.26738 0.0
C1175 C 0.47289 0.96161 0.26484 0.0
H1176 H 0.31751 0.22053 0.40381 0.0
H1177 H 0.28241 0.21726 0.53397 0.0
H1178 H 0.31533 0.24391 0.40361 0.0
H1179 H 0.28012 0.24068 0.53284 0.0
H1180 H 0.29239 0.28242 0.60172 0.0
H1181 H 0.29199 0.25898 0.59247 0.0
H1182 H 0.30148 0.2615 0.35337 0.0
H1183 H 0.30208 0.28494 0.36289 0.0
C1184 C 0.30928 0.22482 0.43197 0.0
C1185 C 0.30016 0.21707 0.46919 0.0
C1186 C 0.30797 0.23819 0.43125 0.0
C1187 C 0.29756 0.24414 0.46829 0.0
C1188 C 0.2883 0.23638 0.50429 0.0
C1189 C 0.28955 0.22298 0.50438 0.0
C1190 C 0.2943 0.27796 0.5471 0.0
C1191 C 0.29729 0.28553 0.48311 0.0
C1192 C 0.29398 0.26455 0.54164 0.0
C1193 C 0.29675 0.2584 0.47223 0.0
C1194 C 0.29941 0.26597 0.40776 0.0
C1195 C 0.29962 0.27939 0.41306 0.0
H1196 H 0.97018 0.05729 0.85371 0.0
H1197 H 0.96881 0.05057 0.61075 0.0
H1198 H 0.9935 0.05693 0.84925 0.0
H1199 H 0.99208 0.04915 0.60743 0.0
H1200 H 0.03389 0.06276 0.61065 0.0
H1201 H 0.01047 0.06198 0.61329 0.0
H1202 H 0.01184 0.04419 0.83595 0.0
H1203 H 0.03525 0.04555 0.83412 0.0
C1204 C 0.97482 0.05564 0.79933 0.0
C1205 C 0.9675 0.05402 0.7326 0.0
C1206 C 0.98826 0.05523 0.79696 0.0
C1207 C 0.99479 0.05301 0.72792 0.0
C1208 C 0.98746 0.05108 0.6615 0.0
C1209 C 0.97403 0.05167 0.66369 0.0
C1210 C 0.02915 0.05858 0.65975 0.0
C1211 C 0.03637 0.05425 0.72224 0.0
C1212 C 0.01571 0.05808 0.6613 0.0
C1213 C 0.00916 0.05305 0.72498 0.0
C1214 C 0.01647 0.04839 0.78661 0.0
C1215 C 0.0299 0.04908 0.78548 0.0
H1216 H 0.82581 0.71929 0.04816 0.0
H1217 H 0.78944 0.71758 0.92932 0.0
H1218 H 0.82551 0.74252 0.04013 0.0
H1219 H 0.78964 0.7409 0.91616 0.0
H1220 H 0.78785 0.78404 0.97433 0.0
H1221 H 0.78721 0.76058 0.98263 0.0
H1222 H 0.8285 0.75933 0.95358 0.0
H1223 H 0.82908 0.7827 0.94836 0.0
C1224 C 0.8177 0.72384 0.0205 0.0
C1225 C 0.8076 0.71646 0.98994 0.0
C1226 C 0.81765 0.73723 0.01459 0.0
C1227 C 0.80761 0.74368 0.97686 0.0
C1228 C 0.79748 0.73632 0.94628 0.0
C1229 C 0.79746 0.72289 0.95295 0.0
C1230 C 0.79675 0.77869 0.96949 0.0
C1231 C 0.80852 0.78518 0.96155 0.0
C1232 C 0.7964 0.76524 0.97391 0.0
C1233 C 0.80782 0.75798 0.9695 0.0
C1234 C 0.81954 0.76455 0.95931 0.0
C1235 C 0.81989 0.77796 0.95593 0.0
H1236 H 0.71317 0.28291 0.48425 0.0
H1237 H 0.67489 0.28285 0.38864 0.0
H1238 H 0.71333 0.25942 0.48193 0.0
H1239 H 0.67503 0.25942 0.38681 0.0
H1240 H 0.67355 0.21898 0.48953 0.0
H1241 H 0.67432 0.24236 0.48299 0.0
H1242 H 0.71317 0.24045 0.3965 0.0
H1243 H 0.71251 0.21697 0.405 0.0
C1244 C 0.70487 0.2779 0.46164 0.0
C1245 C 0.69396 0.28477 0.43731 0.0
C1246 C 0.70496 0.26444 0.46042 0.0
C1247 C 0.69414 0.25755 0.43497 0.0
C1248 C 0.68342 0.26443 0.40826 0.0
C1249 C 0.68334 0.27786 0.40931 0.0
C1250 C 0.6823 0.22354 0.46977 0.0
C1251 C 0.69299 0.21611 0.44815 0.0
C1252 C 0.68269 0.23694 0.46512 0.0
C1253 C 0.69379 0.24327 0.43889 0.0
C1254 C 0.70451 0.23586 0.41738 0.0
C1255 C 0.70409 0.22242 0.42165 0.0
H1256 H 0.81691 0.21825 0.18828 0.0
H1257 H 0.80284 0.22242 0.95827 0.0
H1258 H 0.81649 0.24167 0.2041 0.0
H1259 H 0.80224 0.24583 0.97448 0.0
H1260 H 0.79126 0.28631 0.06799 0.0
H1261 H 0.79014 0.26277 0.06065 0.0
H1262 H 0.82948 0.26023 0.13754 0.0
H1263 H 0.83066 0.28373 0.14366 0.0
C1264 C 0.81358 0.22418 0.14152 0.0
C1265 C 0.80992 0.21856 0.07203 0.0
C1266 C 0.81341 0.23755 0.15043 0.0
C1267 C 0.80932 0.24553 0.09052 0.0
C1268 C 0.80534 0.23989 0.02171 0.0
C1269 C 0.80576 0.22653 0.01229 0.0
C1270 C 0.79961 0.28069 0.08398 0.0
C1271 C 0.81105 0.28679 0.10629 0.0
C1272 C 0.79899 0.26726 0.07936 0.0
C1273 C 0.80972 0.25971 0.09852 0.0
C1274 C 0.82104 0.26583 0.12293 0.0
C1275 C 0.82174 0.27924 0.12608 0.0
H1276 H 0.69828 0.71658 0.62924 0.0
H1277 H 0.7073 0.71627 0.38905 0.0
H1278 H 0.69917 0.74002 0.62943 0.0
H1279 H 0.70834 0.73969 0.38927 0.0
H1280 H 0.69163 0.78037 0.39711 0.0
H1281 H 0.69322 0.75707 0.39911 0.0
H1282 H 0.71277 0.75888 0.61608 0.0
H1283 H 0.71067 0.7823 0.61555 0.0
C1284 C 0.7007 0.72151 0.57679 0.0
C1285 C 0.70264 0.71457 0.509 0.0
C1286 C 0.70122 0.73496 0.57689 0.0
C1287 C 0.70372 0.74176 0.50922 0.0
C1288 C 0.70612 0.73478 0.44207 0.0
C1289 C 0.70556 0.72135 0.44193 0.0
C1290 C 0.69619 0.77581 0.44558 0.0
C1291 C 0.70091 0.78321 0.50652 0.0
C1292 C 0.69727 0.76244 0.44623 0.0
C1293 C 0.70315 0.75607 0.50768 0.0
C1294 C 0.70807 0.76347 0.56818 0.0
C1295 C 0.70699 0.77689 0.56753 0.0
H1296 H 0.46802 0.43037 0.89675 0.0
H1297 H 0.46825 0.4648 0.75948 0.0
H1298 H 0.49143 0.4308 0.90241 0.0
H1299 H 0.49173 0.46513 0.76349 0.0
H1300 H 0.53416 0.46683 0.82744 0.0
H1301 H 0.5108 0.46789 0.83996 0.0
H1302 H 0.50863 0.42658 0.81605 0.0
H1303 H 0.53191 0.42548 0.80732 0.0
C1304 C 0.4731 0.43805 0.86793 0.0
C1305 C 0.46632 0.44749 0.82718 0.0
C1306 C 0.48652 0.43828 0.87087 0.0
C1307 C 0.4935 0.4479 0.83253 0.0
C1308 C 0.48668 0.45764 0.79426 0.0
C1309 C 0.47322 0.45746 0.79184 0.0
C1310 C 0.5287 0.45797 0.82596 0.0
C1311 C 0.53492 0.44607 0.81599 0.0
C1312 C 0.51529 0.45859 0.83233 0.0
C1313 C 0.5078 0.44733 0.82901 0.0
C1314 C 0.51407 0.43544 0.81994 0.0
C1315 C 0.52744 0.43482 0.81374 0.0
H1316 H 0.03473 0.56979 0.37931 0.0
H1317 H 0.03117 0.53946 0.21243 0.0
H1318 H 0.01154 0.56953 0.3986 0.0
H1319 H 0.0079 0.53921 0.2318 0.0
H1320 H 0.96699 0.53593 0.32787 0.0
H1321 H 0.99048 0.5345 0.32338 0.0
H1322 H 0.99293 0.57598 0.3242 0.0
H1323 H 0.9696 0.57738 0.33075 0.0
C1324 C 0.02899 0.56307 0.34661 0.0
C1325 C 0.0348 0.55475 0.29365 0.0
C1326 C 0.01569 0.56292 0.35775 0.0
C1327 C 0.00784 0.55443 0.31625 0.0
C1328 C 0.01368 0.54578 0.26522 0.0
C1329 C 0.02702 0.54593 0.25405 0.0
C1330 C 0.97258 0.54472 0.32821 0.0
C1331 C 0.96644 0.55677 0.32929 0.0
C1332 C 0.98602 0.54391 0.32487 0.0
C1333 C 0.99359 0.55513 0.32326 0.0
C1334 C 0.98742 0.56714 0.32616 0.0
C1335 C 0.97403 0.56795 0.3291 0.0
H1336 H 0.03016 0.45573 0.81866 0.0
H1337 H 0.03329 0.44092 0.5898 0.0
H1338 H 0.00679 0.45554 0.80835 0.0
H1339 H 0.00987 0.4402 0.58001 0.0
H1340 H 0.96695 0.44838 0.56634 0.0
H1341 H 0.99016 0.45165 0.57152 0.0
H1342 H 0.99012 0.44041 0.80866 0.0
H1343 H 0.96697 0.43804 0.80486 0.0
C1344 C 0.02581 0.45243 0.7661 0.0
C1345 C 0.03351 0.44829 0.70519 0.0
C1346 C 0.01241 0.45223 0.76023 0.0
C1347 C 0.00637 0.44768 0.69369 0.0
C1348 C 0.01413 0.44391 0.63183 0.0
C1349 C 0.02756 0.44428 0.63741 0.0
C1350 C 0.97187 0.44681 0.61989 0.0
C1351 C 0.96503 0.44287 0.68506 0.0
C1352 C 0.98523 0.44853 0.62263 0.0
C1353 C 0.99209 0.4463 0.69051 0.0
C1354 C 0.98521 0.44244 0.75561 0.0
C1355 C 0.97189 0.44084 0.75306 0.0
H1356 H 0.46954 0.54818 0.29531 0.0
H1357 H 0.46744 0.56823 0.08035 0.0
H1358 H 0.49308 0.54797 0.28646 0.0
H1359 H 0.49098 0.56822 0.07218 0.0
H1360 H 0.5322 0.5807 0.1597 0.0
H1361 H 0.50868 0.57934 0.15849 0.0
H1362 H 0.51096 0.53832 0.19357 0.0
H1363 H 0.53455 0.53965 0.19326 0.0
C1364 C 0.47414 0.55248 0.24609 0.0
C1365 C 0.46671 0.55821 0.18847 0.0
C1366 C 0.48756 0.5523 0.24085 0.0
C1367 C 0.49381 0.55809 0.17869 0.0
C1368 C 0.48638 0.56373 0.12078 0.0
C1369 C 0.47295 0.56367 0.12525 0.0
C1370 C 0.52765 0.57139 0.16673 0.0
C1371 C 0.53514 0.56028 0.17667 0.0
C1372 C 0.51424 0.57061 0.16563 0.0
C1373 C 0.50804 0.55873 0.17596 0.0
C1374 C 0.51552 0.5476 0.18573 0.0
C1375 C 0.52897 0.54834 0.1852 0.0
H1376 H 0.16252 0.16479 0.3512 0.0
H1377 H 0.19909 0.1469 0.29977 0.0
H1378 H 0.16723 0.16316 0.4863 0.0
H1379 H 0.20331 0.14455 0.43415 0.0
H1380 H 0.21482 0.15726 0.67144 0.0
H1381 H 0.20926 0.15781 0.53695 0.0
H1382 H 0.16967 0.14933 0.59346 0.0
H1383 H 0.1753 0.14916 0.7287 0.0
C1384 C 0.1715 0.16042 0.36816 0.0
C1385 C 0.18045 0.15617 0.31341 0.0
C1386 C 0.17413 0.15934 0.44607 0.0
C1387 C 0.18572 0.15385 0.4714 0.0
C1388 C 0.19441 0.1491 0.41688 0.0
C1389 C 0.19186 0.1503 0.33914 0.0
C1390 C 0.20496 0.15544 0.65498 0.0
C1391 C 0.19551 0.15316 0.71045 0.0
C1392 C 0.20175 0.15569 0.57782 0.0
C1393 C 0.18902 0.15351 0.55399 0.0
C1394 C 0.17954 0.15121 0.60968 0.0
C1395 C 0.18275 0.1511 0.68715 0.0
H1396 H 0.08041 0.94924 0.53129 0.0
H1397 H 0.10529 0.91713 0.58453 0.0
H1398 H 0.07911 0.95456 0.66588 0.0
H1399 H 0.10372 0.92238 0.71923 0.0
H1400 H 0.08671 0.92791 0.95787 0.0
H1401 H 0.08751 0.92264 0.8232 0.0
H1402 H 0.09349 0.96268 0.76888 0.0
H1403 H 0.09293 0.96802 0.90407 0.0
C1404 C 0.08566 0.94332 0.57121 0.0
C1405 C 0.09301 0.93274 0.54621 0.0
C1406 C 0.08488 0.94639 0.64862 0.0
C1407 C 0.09132 0.9389 0.70317 0.0
C1408 C 0.09852 0.92824 0.67861 0.0
C1409 C 0.09938 0.92522 0.60115 0.0
C1410 C 0.08833 0.93563 0.91772 0.0
C1411 C 0.08985 0.94842 0.94254 0.0
C1412 C 0.08876 0.93257 0.84025 0.0
C1413 C 0.09061 0.94223 0.78542 0.0
C1414 C 0.09191 0.95504 0.80978 0.0
C1415 C 0.09157 0.9581 0.8874 0.0
H1416 H 0.29956 0.84266 0.77367 0.0
H1417 H 0.34014 0.8398 0.82414 0.0
H1418 H 0.29462 0.84121 0.90821 0.0
H1419 H 0.33514 0.83824 0.95949 0.0
H1420 H 0.32164 0.85133 0.19659 0.0
H1421 H 0.32696 0.8517 0.06164 0.0
H1422 H 0.2949 0.82647 0.01493 0.0
H1423 H 0.28954 0.82615 0.1503 0.0
C1424 C 0.30746 0.84159 0.81309 0.0
C1425 C 0.32029 0.84142 0.78746 0.0
C1426 C 0.30459 0.84072 0.89062 0.0
C1427 C 0.31447 0.83961 0.94475 0.0
C1428 C 0.3273 0.83928 0.91933 0.0
C1429 C 0.33017 0.84018 0.84164 0.0
C1430 C 0.31581 0.84573 0.15775 0.0
C1431 C 0.30518 0.83868 0.18434 0.0
C1432 C 0.31887 0.84594 0.08029 0.0
C1433 C 0.31138 0.83909 0.02743 0.0
C1434 C 0.30077 0.83199 0.05401 0.0
C1435 C 0.29769 0.83181 0.13158 0.0
H1436 H 0.4123 0.09066 0.09713 0.0
H1437 H 0.40958 0.05011 0.04527 0.0
H1438 H 0.41358 0.08555 0.23243 0.0
H1439 H 0.41077 0.04507 0.17977 0.0
H1440 H 0.40012 0.07189 0.46836 0.0
H1441 H 0.39988 0.07723 0.33343 0.0
H1442 H 0.42537 0.04535 0.28745 0.0
H1443 H 0.42559 0.03999 0.42278 0.0
C1444 C 0.41189 0.08068 0.11429 0.0
C1445 C 0.41078 0.07083 0.05973 0.0
C1446 C 0.41262 0.07774 0.19196 0.0
C1447 C 0.41226 0.0649 0.21698 0.0
C1448 C 0.41128 0.05506 0.16249 0.0
C1449 C 0.41057 0.05798 0.08499 0.0
C1450 C 0.4058 0.0661 0.42969 0.0
C1451 C 0.41292 0.05553 0.45652 0.0
C1452 C 0.40566 0.06917 0.35224 0.0
C1453 C 0.41264 0.06175 0.29961 0.0
C1454 C 0.41976 0.05117 0.32637 0.0
C1455 C 0.41989 0.04809 0.40392 0.0
H1456 H 0.17131 0.82662 0.62154 0.0
H1457 H 0.1916 0.8622 0.66301 0.0
H1458 H 0.17598 0.82848 0.486 0.0
H1459 H 0.19632 0.86401 0.52755 0.0
H1460 H 0.21492 0.85449 0.29717 0.0
H1461 H 0.20964 0.85294 0.43229 0.0
H1462 H 0.17082 0.84179 0.37461 0.0
H1463 H 0.17607 0.84338 0.23985 0.0
C1464 C 0.17661 0.83493 0.60174 0.0
C1465 C 0.18112 0.84423 0.65332 0.0
C1466 C 0.17931 0.83598 0.52403 0.0
C1467 C 0.18659 0.84635 0.49619 0.0
C1468 C 0.1909 0.85578 0.54749 0.0
C1469 C 0.18818 0.85474 0.62513 0.0
C1470 C 0.20524 0.85178 0.31338 0.0
C1471 C 0.19595 0.84902 0.25766 0.0
C1472 C 0.20221 0.85091 0.39072 0.0
C1473 C 0.18981 0.84726 0.41405 0.0
C1474 C 0.18052 0.84445 0.3584 0.0
C1475 C 0.18355 0.84533 0.28108 0.0
H1476 H 0.39995 0.9537 0.95926 0.0
H1477 H 0.42183 0.91932 0.91122 0.0
H1478 H 0.39904 0.95858 0.82437 0.0
H1479 H 0.42054 0.92405 0.7746 0.0
H1480 H 0.42566 0.94554 0.54206 0.0
H1481 H 0.42811 0.94033 0.67735 0.0
H1482 H 0.388 0.94907 0.71428 0.0
H1483 H 0.38551 0.9541 0.58033 0.0
C1484 C 0.40467 0.94722 0.92001 0.0
C1485 C 0.41101 0.93612 0.94619 0.0
C1486 C 0.40401 0.94995 0.84246 0.0
C1487 C 0.40965 0.94166 0.78889 0.0
C1488 C 0.41617 0.93065 0.81473 0.0
C1489 C 0.4168 0.92787 0.89274 0.0
C1490 C 0.41737 0.94628 0.57909 0.0
C1491 C 0.40543 0.9504 0.55034 0.0
C1492 C 0.41877 0.94328 0.65642 0.0
C1493 C 0.40827 0.9444 0.70641 0.0
C1494 C 0.39633 0.94837 0.67746 0.0
C1495 C 0.39493 0.95132 0.6005 0.0
H1496 H 0.28332 0.15656 0.84708 0.0
H1497 H 0.32234 0.16751 0.79162 0.0
H1498 H 0.28877 0.15685 0.98203 0.0
H1499 H 0.32776 0.16752 0.92621 0.0
H1500 H 0.33532 0.1506 0.16583 0.0
H1501 H 0.32998 0.15153 0.03112 0.0
H1502 H 0.29519 0.17232 0.084 0.0
H1503 H 0.30057 0.1717 0.21853 0.0
C1504 C 0.29301 0.15914 0.8633 0.0
C1505 C 0.30237 0.16195 0.80773 0.0
C1506 C 0.29614 0.15928 0.94083 0.0
C1507 C 0.30871 0.16216 0.96474 0.0
C1508 C 0.31804 0.16507 0.90951 0.0
C1509 C 0.3149 0.16502 0.83208 0.0
C1510 C 0.32662 0.15555 0.14917 0.0
C1511 C 0.3184 0.16102 0.20406 0.0
C1512 C 0.32355 0.15605 0.07165 0.0
C1513 C 0.31214 0.16195 0.04695 0.0
C1514 C 0.30396 0.16754 0.10137 0.0
C1515 C 0.30708 0.16714 0.17881 0.0
H1516 H 0.10056 0.05216 0.43547 0.0
H1517 H 0.09199 0.09211 0.39039 0.0
H1518 H 0.10309 0.0483 0.29994 0.0
H1519 H 0.09449 0.0882 0.25396 0.0
H1520 H 0.08399 0.07109 0.01728 0.0
H1521 H 0.08321 0.07659 0.15229 0.0
H1522 H 0.11696 0.05332 0.1922 0.0
H1523 H 0.11773 0.04783 0.05743 0.0
C1524 C 0.09944 0.06019 0.39686 0.0
C1525 C 0.0961 0.07248 0.42406 0.0
C1526 C 0.10087 0.05796 0.31892 0.0
C1527 C 0.099 0.06794 0.2661 0.0
C1528 C 0.09583 0.08027 0.29317 0.0
C1529 C 0.09441 0.08251 0.37131 0.0
C1530 C 0.09135 0.06729 0.05467 0.0
C1531 C 0.10086 0.05893 0.0266 0.0
C1532 C 0.09091 0.07045 0.13206 0.0
C1533 C 0.09998 0.06533 0.18308 0.0
C1534 C 0.10969 0.05724 0.15462 0.0
C1535 C 0.11012 0.05408 0.07734 0.0
H1536 H 0.81243 0.86042 0.66414 0.0
H1537 H 0.83258 0.82467 0.62544 0.0
H1538 H 0.80756 0.86184 0.52869 0.0
H1539 H 0.82773 0.82611 0.49 0.0
H1540 H 0.82777 0.84059 0.24268 0.0
H1541 H 0.83291 0.83899 0.37758 0.0
H1542 H 0.79422 0.85074 0.43439 0.0
H1543 H 0.78908 0.85233 0.29912 0.0
C1544 C 0.81578 0.85284 0.62683 0.0
C1545 C 0.82287 0.84242 0.65571 0.0
C1546 C 0.81297 0.85364 0.54924 0.0
C1547 C 0.8172 0.84405 0.49875 0.0
C1548 C 0.82446 0.83373 0.52736 0.0
C1549 C 0.82727 0.83292 0.60499 0.0
C1550 C 0.8203 0.84265 0.28381 0.0
C1551 C 0.80799 0.84656 0.26017 0.0
C1552 C 0.82326 0.84176 0.36118 0.0
C1553 C 0.81399 0.84478 0.4166 0.0
C1554 C 0.80164 0.84856 0.393 0.0
C1555 C 0.79868 0.84945 0.31561 0.0
H1556 H 0.88455 0.05214 0.06285 0.0
H1557 H 0.92364 0.06488 0.02552 0.0
H1558 H 0.88662 0.05707 0.19763 0.0
H1559 H 0.92553 0.0701 0.16052 0.0
H1560 H 0.91823 0.0899 0.39256 0.0
H1561 H 0.91583 0.08564 0.25655 0.0
H1562 H 0.89955 0.04842 0.30747 0.0
H1563 H 0.90219 0.05246 0.44266 0.0
C1564 C 0.89362 0.0559 0.08316 0.0
C1565 C 0.90396 0.05805 0.03301 0.0
C1566 C 0.89476 0.05878 0.16047 0.0
C1567 C 0.90622 0.06397 0.18934 0.0
C1568 C 0.91653 0.06625 0.13946 0.0
C1569 C 0.91543 0.06327 0.06215 0.0
C1570 C 0.9142 0.08079 0.37487 0.0
C1571 C 0.91038 0.07156 0.42896 0.0
C1572 C 0.91282 0.07836 0.29699 0.0
C1573 C 0.9075 0.06671 0.27167 0.0
C1574 C 0.90352 0.05756 0.3255 0.0
C1575 C 0.90499 0.05993 0.40318 0.0
H1576 H 0.69924 0.15167 0.17427 0.0
H1577 H 0.65883 0.15802 0.13036 0.0
H1578 H 0.70316 0.14967 0.03853 0.0
H1579 H 0.66285 0.15616 0.99371 0.0
H1580 H 0.67992 0.16856 0.75857 0.0
H1581 H 0.67426 0.16869 0.89361 0.0
H1582 H 0.69837 0.13544 0.93008 0.0
H1583 H 0.70393 0.13524 0.79547 0.0
C1584 C 0.69113 0.15243 0.13595 0.0
C1585 C 0.6787 0.15499 0.16357 0.0
C1586 C 0.6934 0.15131 0.05791 0.0
C1587 C 0.68331 0.15276 0.00545 0.0
C1588 C 0.67084 0.15515 0.03281 0.0
C1589 C 0.66855 0.15622 0.11106 0.0
C1590 C 0.68386 0.16118 0.79521 0.0
C1591 C 0.69249 0.15199 0.76632 0.0
C1592 C 0.68062 0.16125 0.87252 0.0
C1593 C 0.68595 0.15213 0.92249 0.0
C1594 C 0.69429 0.14273 0.8932 0.0
C1595 C 0.69751 0.14265 0.81603 0.0
H1596 H 0.61058 0.94325 0.99171 0.0
H1597 H 0.5747 0.9234 0.95174 0.0
H1598 H 0.61205 0.94837 0.85669 0.0
H1599 H 0.57621 0.92849 0.81655 0.0
H1600 H 0.5903 0.92914 0.56854 0.0
H1601 H 0.58878 0.92366 0.70292 0.0
H1602 H 0.60135 0.96195 0.76274 0.0
H1603 H 0.60285 0.96745 0.62781 0.0
C1604 C 0.60298 0.94 0.95428 0.0
C1605 C 0.59249 0.93294 0.98293 0.0
C1606 C 0.60382 0.94296 0.87678 0.0
C1607 C 0.59421 0.93892 0.82584 0.0
C1608 C 0.58385 0.93164 0.85411 0.0
C1609 C 0.583 0.92869 0.9317 0.0
C1610 C 0.59256 0.93647 0.61013 0.0
C1611 C 0.59664 0.94878 0.58722 0.0
C1612 C 0.59172 0.9333 0.68736 0.0
C1613 C 0.59496 0.94235 0.74365 0.0
C1614 C 0.59898 0.95468 0.72082 0.0
C1615 C 0.59981 0.95785 0.64353 0.0
H1616 H 0.81802 0.1398 0.32784 0.0
H1617 H 0.83253 0.17845 0.3526 0.0
H1618 H 0.81272 0.13938 0.46454 0.0
H1619 H 0.82715 0.17808 0.48787 0.0
H1620 H 0.79967 0.17771 0.6952 0.0
H1621 H 0.80517 0.17672 0.56001 0.0
H1622 H 0.82558 0.14117 0.5978 0.0
H1623 H 0.82016 0.14224 0.7341 0.0
C1624 C 0.82011 0.14816 0.36251 0.0
C1625 C 0.82578 0.15911 0.32964 0.0
C1626 C 0.81714 0.1479 0.44057 0.0
C1627 C 0.81951 0.15871 0.48666 0.0
C1628 C 0.82518 0.16963 0.45367 0.0
C1629 C 0.82836 0.1698 0.37633 0.0
C1630 C 0.80524 0.16963 0.67465 0.0
C1631 C 0.80947 0.16005 0.72523 0.0
C1632 C 0.80846 0.16911 0.59738 0.0
C1633 C 0.81581 0.15888 0.56847 0.0
C1634 C 0.81985 0.14913 0.61857 0.0
C1635 C 0.81683 0.14979 0.69644 0.0
H1636 H 0.60486 0.03974 0.43844 0.0
H1637 H 0.5957 0.07901 0.49833 0.0
H1638 H 0.60389 0.0454 0.30388 0.0
H1639 H 0.59455 0.08457 0.36384 0.0
H1640 H 0.61362 0.06331 0.0732 0.0
H1641 H 0.6156 0.05863 0.20853 0.0
H1642 H 0.58065 0.07975 0.25261 0.0
H1643 H 0.57848 0.08428 0.11741 0.0
C1644 C 0.60274 0.04959 0.42312 0.0
C1645 C 0.60033 0.05888 0.47962 0.0
C1646 C 0.60219 0.05283 0.34592 0.0
C1647 C 0.59915 0.06543 0.32327 0.0
C1648 C 0.59675 0.07474 0.37954 0.0
C1649 C 0.59737 0.07152 0.45678 0.0
C1650 C 0.6063 0.06693 0.1114 0.0
C1651 C 0.59584 0.07413 0.08369 0.0
C1652 C 0.60746 0.06424 0.18912 0.0
C1653 C 0.59825 0.06877 0.24118 0.0
C1654 C 0.58798 0.07624 0.214 0.0
C1655 C 0.58677 0.07886 0.13625 0.0
H1656 H 0.7014 0.82858 0.77216 0.0
H1657 H 0.66732 0.8508 0.82356 0.0
H1658 H 0.7068 0.82805 0.90683 0.0
H1659 H 0.67268 0.85003 0.95838 0.0
H1660 H 0.67963 0.83428 0.19861 0.0
H1661 H 0.67427 0.83435 0.06393 0.0
H1662 H 0.71376 0.84316 0.00845 0.0
H1663 H 0.71915 0.8433 0.14369 0.0
C1664 C 0.69506 0.83341 0.81176 0.0
C1665 C 0.68391 0.83979 0.78626 0.0
C1666 C 0.69818 0.83308 0.88919 0.0
C1667 C 0.69019 0.83902 0.94326 0.0
C1668 C 0.67896 0.84523 0.91818 0.0
C1669 C 0.67587 0.84563 0.84069 0.0
C1670 C 0.68718 0.83638 0.15813 0.0
C1671 C 0.69984 0.83888 0.18255 0.0
C1672 C 0.68409 0.83639 0.08069 0.0
C1673 C 0.69357 0.8388 0.02552 0.0
C1674 C 0.70626 0.84112 0.04958 0.0
C1675 C 0.70935 0.84119 0.12718 0.0
H1676 H 0.8843 0.95248 0.91806 0.0
H1677 H 0.92062 0.93333 0.95566 0.0
H1678 H 0.88539 0.94703 0.7834 0.0
H1679 H 0.92165 0.92779 0.82069 0.0
H1680 H 0.91327 0.91071 0.5848 0.0
H1681 H 0.91088 0.91463 0.72129 0.0
H1682 H 0.89878 0.95356 0.67441 0.0
H1683 H 0.90129 0.94975 0.53888 0.0
C1684 C 0.89255 0.94716 0.89767 0.0
C1685 C 0.90244 0.94344 0.94768 0.0
C1686 C 0.89315 0.94401 0.82045 0.0
C1687 C 0.90363 0.93703 0.7914 0.0
C1688 C 0.91337 0.93305 0.84157 0.0
C1689 C 0.91279 0.93623 0.91888 0.0
C1690 C 0.91012 0.9201 0.60363 0.0
C1691 C 0.90744 0.92989 0.5506 0.0
C1692 C 0.90875 0.92234 0.68179 0.0
C1693 C 0.90463 0.9344 0.70854 0.0
C1694 C 0.90177 0.9441 0.65555 0.0
C1695 C 0.90318 0.94189 0.57761 0.0
H1696 H 0.68566 0.66869 0.21248 0.0
H1697 H 0.70384 0.63189 0.17435 0.0
H1698 H 0.68019 0.66995 0.07758 0.0
H1699 H 0.69845 0.63319 0.03962 0.0
H1700 H 0.7018 0.64927 0.79564 0.0
H1701 H 0.70539 0.64639 0.93111 0.0
H1702 H 0.66686 0.65978 0.9775 0.0
H1703 H 0.66318 0.66258 0.84106 0.0
C1704 C 0.68835 0.6608 0.17559 0.0
C1705 C 0.69527 0.65024 0.20423 0.0
C1706 C 0.6852 0.66151 0.09829 0.0
C1707 C 0.68895 0.65169 0.04792 0.0
C1708 C 0.69562 0.64101 0.07682 0.0
C1709 C 0.69874 0.64028 0.15406 0.0
C1710 C 0.69398 0.65137 0.83425 0.0
C1711 C 0.68217 0.65613 0.80714 0.0
C1712 C 0.69606 0.64974 0.91216 0.0
C1713 C 0.6864 0.65285 0.96503 0.0
C1714 C 0.67453 0.65745 0.93813 0.0
C1715 C 0.67243 0.65904 0.86 0.0
H1716 H 0.58512 0.45053 0.06536 0.0
H1717 H 0.60074 0.413 0.11515 0.0
H1718 H 0.58471 0.45557 0.20048 0.0
H1719 H 0.60048 0.41808 0.2512 0.0
H1720 H 0.5854 0.42717 0.49116 0.0
H1721 H 0.58583 0.42177 0.35624 0.0
H1722 H 0.59914 0.46014 0.30404 0.0
H1723 H 0.59862 0.46555 0.4391 0.0
C1724 C 0.58862 0.4434 0.10519 0.0
C1725 C 0.59308 0.43139 0.07952 0.0
C1726 C 0.58839 0.4463 0.18277 0.0
C1727 C 0.59265 0.43728 0.23674 0.0
C1728 C 0.59699 0.4252 0.21118 0.0
C1729 C 0.59717 0.42228 0.13334 0.0
C1730 C 0.58853 0.43442 0.45102 0.0
C1731 C 0.59199 0.4468 0.47596 0.0
C1732 C 0.58878 0.43131 0.3736 0.0
C1733 C 0.59252 0.44051 0.31925 0.0
C1734 C 0.59601 0.45288 0.34425 0.0
C1735 C 0.59572 0.456 0.42166 0.0
H1736 H 0.80068 0.32749 0.75471 0.0
H1737 H 0.82029 0.36348 0.79301 0.0
H1738 H 0.80616 0.32855 0.61942 0.0
H1739 H 0.82564 0.36465 0.65657 0.0
H1740 H 0.81687 0.36538 0.38627 0.0
H1741 H 0.81183 0.36574 0.52331 0.0
H1742 H 0.82877 0.32811 0.54814 0.0
H1743 H 0.83394 0.32782 0.41242 0.0
C1744 C 0.80606 0.33569 0.73394 0.0
C1745 C 0.81005 0.34541 0.78424 0.0
C1746 C 0.80925 0.33626 0.65672 0.0
C1747 C 0.81631 0.34668 0.62775 0.0
C1748 C 0.82013 0.35654 0.67758 0.0
C1749 C 0.81716 0.35584 0.75542 0.0
C1750 C 0.81956 0.35726 0.42135 0.0
C1751 C 0.82585 0.34662 0.38887 0.0
C1752 C 0.81675 0.35748 0.49953 0.0
C1753 C 0.81992 0.34694 0.54601 0.0
C1754 C 0.82621 0.33634 0.51348 0.0
C1755 C 0.82924 0.33622 0.43597 0.0
H1756 H 0.92615 0.54763 0.97743 0.0
H1757 H 0.88954 0.56616 0.01399 0.0
H1758 H 0.92521 0.55322 0.84233 0.0
H1759 H 0.88851 0.57164 0.8777 0.0
H1760 H 0.88834 0.56302 0.60777 0.0
H1761 H 0.88791 0.55805 0.74479 0.0
H1762 H 0.92524 0.57565 0.77069 0.0
H1763 H 0.92559 0.58071 0.63486 0.0
C1764 C 0.91784 0.55279 0.95631 0.0
C1765 C 0.9079 0.55644 0.00606 0.0
C1766 C 0.91735 0.55606 0.8792 0.0
C1767 C 0.90679 0.56286 0.84977 0.0
C1768 C 0.89672 0.56635 0.89906 0.0
C1769 C 0.89735 0.5633 0.97681 0.0
C1770 C 0.89638 0.56587 0.64306 0.0
C1771 C 0.90696 0.5723 0.61079 0.0
C1772 C 0.89611 0.5631 0.72125 0.0
C1773 C 0.90655 0.56647 0.76804 0.0
C1774 C 0.91708 0.57293 0.73578 0.0
C1775 C 0.91724 0.5759 0.6582 0.0
H1776 H 0.67982 0.35242 0.77491 0.0
H1777 H 0.7115 0.32676 0.82203 0.0
H1778 H 0.67456 0.35308 0.90982 0.0
H1779 H 0.70627 0.3275 0.95755 0.0
H1780 H 0.70189 0.34492 0.1973 0.0
H1781 H 0.70679 0.34307 0.06258 0.0
H1782 H 0.66629 0.33932 0.01262 0.0
H1783 H 0.66135 0.3411 0.14809 0.0
C1784 C 0.68557 0.34679 0.81385 0.0
C1785 C 0.69606 0.33949 0.78743 0.0
C1786 C 0.68256 0.34717 0.89131 0.0
C1787 C 0.68997 0.34031 0.94436 0.0
C1788 C 0.70046 0.33301 0.91812 0.0
C1789 C 0.70347 0.3326 0.8405 0.0
C1790 C 0.69401 0.34353 0.15806 0.0
C1791 C 0.68121 0.34315 0.18397 0.0
C1792 C 0.69684 0.34247 0.08058 0.0
C1793 C 0.68694 0.34104 0.02691 0.0
C1794 C 0.67413 0.34059 0.05256 0.0
C1795 C 0.6713 0.34162 0.13022 0.0
H1796 H 0.88862 0.43205 0.99785 0.0
H1797 H 0.92574 0.44948 0.0352 0.0
H1798 H 0.88726 0.42672 0.13419 0.0
H1799 H 0.92448 0.44401 0.17044 0.0
H1800 H 0.92363 0.41641 0.37812 0.0
H1801 H 0.92364 0.42151 0.24229 0.0
H1802 H 0.887 0.44052 0.26686 0.0
H1803 H 0.88706 0.43554 0.4039 0.0
C1804 C 0.89647 0.43471 0.03521 0.0
C1805 C 0.90727 0.44121 0.00618 0.0
C1806 C 0.89566 0.43174 0.113 0.0
C1807 C 0.90578 0.43495 0.16254 0.0
C1808 C 0.91658 0.44139 0.13334 0.0
C1809 C 0.91726 0.44459 0.05617 0.0
C1810 C 0.91551 0.42155 0.35448 0.0
C1811 C 0.90531 0.42554 0.40148 0.0
C1812 C 0.91556 0.42454 0.27691 0.0
C1813 C 0.90532 0.4314 0.2443 0.0
C1814 C 0.89497 0.43516 0.29071 0.0
C1815 C 0.89504 0.43238 0.36889 0.0
H1816 H 0.7894 0.6548 0.34575 0.0
H1817 H 0.82945 0.65032 0.28718 0.0
H1818 H 0.79499 0.65545 0.48024 0.0
H1819 H 0.83512 0.65065 0.42222 0.0
H1820 H 0.84101 0.66649 0.66468 0.0
H1821 H 0.83634 0.66461 0.52988 0.0
H1822 H 0.8023 0.64247 0.58203 0.0
H1823 H 0.80648 0.64492 0.71635 0.0
C1824 C 0.7994 0.6538 0.36185 0.0
C1825 C 0.80897 0.65252 0.30599 0.0
C1826 C 0.80262 0.65412 0.43899 0.0
C1827 C 0.81552 0.65302 0.46237 0.0
C1828 C 0.82511 0.6517 0.40634 0.0
C1829 C 0.82188 0.6515 0.32894 0.0
C1830 C 0.83248 0.66127 0.64798 0.0
C1831 C 0.82405 0.65609 0.70284 0.0
C1832 C 0.82989 0.66006 0.57011 0.0
C1833 C 0.81885 0.65352 0.54484 0.0
C1834 C 0.81074 0.64784 0.59933 0.0
C1835 C 0.81326 0.64914 0.67706 0.0
H1836 H 0.60011 0.54149 0.53624 0.0
H1837 H 0.59244 0.58123 0.48051 0.0
H1838 H 0.6007 0.54701 0.67108 0.0
H1839 H 0.59356 0.58682 0.61484 0.0
H1840 H 0.57893 0.58797 0.86192 0.0
H1841 H 0.5803 0.58332 0.72663 0.0
H1842 H 0.613 0.55865 0.76753 0.0
H1843 H 0.61165 0.56334 0.90355 0.0
C1844 C 0.59861 0.5514 0.55259 0.0
C1845 C 0.59612 0.56088 0.49731 0.0
C1846 C 0.59911 0.5546 0.62989 0.0
C1847 C 0.59713 0.56735 0.65377 0.0
C1848 C 0.59496 0.57688 0.59842 0.0
C1849 C 0.59447 0.57368 0.52117 0.0
C1850 C 0.58656 0.58173 0.84222 0.0
C1851 C 0.59518 0.57604 0.8939 0.0
C1852 C 0.58734 0.57905 0.76442 0.0
C1853 C 0.59676 0.57061 0.7362 0.0
C1854 C 0.60552 0.56506 0.78759 0.0
C1855 C 0.60474 0.56775 0.86555 0.0
H1856 H 0.28655 0.35431 0.847 0.0
H1857 H 0.32492 0.34196 0.78669 0.0
H1858 H 0.29207 0.35268 0.98145 0.0
H1859 H 0.33033 0.34015 0.92113 0.0
H1860 H 0.32865 0.32402 0.16779 0.0
H1861 H 0.3244 0.32663 0.03236 0.0
H1862 H 0.30619 0.36318 0.0768 0.0
H1863 H 0.3106 0.36073 0.21214 0.0
C1864 C 0.29619 0.35135 0.86219 0.0
C1865 C 0.30525 0.34826 0.80558 0.0
C1866 C 0.29935 0.35041 0.93935 0.0
C1867 C 0.31164 0.3463 0.96189 0.0
C1868 C 0.32073 0.3432 0.90552 0.0
C1869 C 0.31759 0.3442 0.8283 0.0
C1870 C 0.32394 0.33273 0.14889 0.0
C1871 C 0.31991 0.34212 0.20149 0.0
C1872 C 0.32148 0.3342 0.07107 0.0
C1873 C 0.31488 0.34506 0.04397 0.0
C1874 C 0.3111 0.35459 0.09612 0.0
C1875 C 0.31363 0.35316 0.17384 0.0
H1876 H 0.40576 0.58065 0.49885 0.0
H1877 H 0.40244 0.54056 0.56118 0.0
H1878 H 0.40606 0.58652 0.63331 0.0
H1879 H 0.40249 0.5465 0.69511 0.0
H1880 H 0.42226 0.58814 0.88139 0.0
H1881 H 0.42059 0.58367 0.7458 0.0
H1882 H 0.38872 0.55808 0.78891 0.0
H1883 H 0.39017 0.5627 0.92458 0.0
C1884 C 0.40517 0.57307 0.54084 0.0
C1885 C 0.40407 0.5601 0.51869 0.0
C1886 C 0.40529 0.57646 0.61801 0.0
C1887 C 0.40423 0.56698 0.67474 0.0
C1888 C 0.40309 0.55405 0.65271 0.0
C1889 C 0.40306 0.55065 0.57576 0.0
C1890 C 0.41473 0.58175 0.86227 0.0
C1891 C 0.40642 0.57572 0.91465 0.0
C1892 C 0.4138 0.57917 0.78429 0.0
C1893 C 0.40459 0.57045 0.75677 0.0
C1894 C 0.39606 0.56469 0.80861 0.0
C1895 C 0.39692 0.56733 0.88652 0.0
H1896 H 0.20296 0.65969 0.71363 0.0
H1897 H 0.16233 0.6621 0.66354 0.0
H1898 H 0.20784 0.6611 0.57908 0.0
H1899 H 0.16729 0.66363 0.52812 0.0
H1900 H 0.18091 0.65031 0.29145 0.0
H1901 H 0.17555 0.65013 0.4264 0.0
H1902 H 0.20741 0.67568 0.47187 0.0
H1903 H 0.21281 0.6758 0.33658 0.0
C1904 C 0.19504 0.66066 0.67431 0.0
C1905 C 0.18221 0.66069 0.70007 0.0
C1906 C 0.19787 0.6615 0.59675 0.0
C1907 C 0.18797 0.66246 0.5427 0.0
C1908 C 0.17514 0.66269 0.56823 0.0
C1909 C 0.1723 0.66181 0.64597 0.0
C1910 C 0.18669 0.65601 0.33004 0.0
C1911 C 0.19729 0.66309 0.30317 0.0
C1912 C 0.1836 0.65592 0.40748 0.0
C1913 C 0.19103 0.66291 0.45999 0.0
C1914 C 0.2016 0.67004 0.43308 0.0
C1915 C 0.2047 0.67011 0.35556 0.0
H1916 H 0.09173 0.42608 0.02738 0.0
H1917 H 0.09646 0.46602 0.08927 0.0
H1918 H 0.0915 0.42018 0.1617 0.0
H1919 H 0.09632 0.46009 0.22356 0.0
H1920 H 0.10914 0.44362 0.45108 0.0
H1921 H 0.10985 0.44856 0.31558 0.0
H1922 H 0.07806 0.42267 0.27646 0.0
H1923 H 0.07726 0.41779 0.4121 0.0
C1924 C 0.09257 0.43363 0.06945 0.0
C1925 C 0.0941 0.44655 0.04735 0.0
C1926 C 0.09248 0.43023 0.14656 0.0
C1927 C 0.09396 0.43965 0.20331 0.0
C1928 C 0.09539 0.45257 0.18123 0.0
C1929 C 0.09545 0.45597 0.10424 0.0
C1930 C 0.10227 0.439 0.41379 0.0
C1931 C 0.09308 0.43037 0.44291 0.0
C1932 C 0.10267 0.44184 0.33604 0.0
C1933 C 0.09394 0.43609 0.28534 0.0
C1934 C 0.085 0.42718 0.31393 0.0
C1935 C 0.08456 0.42435 0.39181 0.0
H1936 H 0.28933 0.6493 0.19345 0.0
H1937 H 0.32923 0.65496 0.25421 0.0
H1938 H 0.2951 0.64987 0.05923 0.0
H1939 H 0.33491 0.65576 0.11961 0.0
H1940 H 0.33533 0.67253 0.87307 0.0
H1941 H 0.33102 0.67035 0.00864 0.0
H1942 H 0.30743 0.63703 0.96404 0.0
H1943 H 0.3119 0.639 0.8284 0.0
C1944 C 0.29935 0.65054 0.17843 0.0
C1945 C 0.30879 0.65207 0.23511 0.0
C1946 C 0.30265 0.65087 0.10136 0.0
C1947 C 0.31546 0.65283 0.07892 0.0
C1948 C 0.32493 0.65437 0.13527 0.0
C1949 C 0.32164 0.65395 0.21251 0.0
C1950 C 0.32941 0.66459 0.89189 0.0
C1951 C 0.3239 0.656 0.83918 0.0
C1952 C 0.32693 0.66337 0.96981 0.0
C1953 C 0.31882 0.65358 0.99688 0.0
C1954 C 0.31356 0.6448 0.94466 0.0
C1955 C 0.3161 0.64596 0.86681 0.0
H1956 H 0.08951 0.57475 0.95551 0.0
H1957 H 0.08723 0.53448 0.8967 0.0
H1958 H 0.08874 0.5804 0.82093 0.0
H1959 H 0.08695 0.54011 0.76191 0.0
H1960 H 0.07629 0.55494 0.52634 0.0
H1961 H 0.07436 0.55009 0.66168 0.0
H1962 H 0.10301 0.57894 0.71208 0.0
H1963 H 0.10496 0.58377 0.57701 0.0
C1964 C 0.08868 0.56709 0.91406 0.0
C1965 C 0.08846 0.55414 0.93716 0.0
C1966 C 0.08841 0.57034 0.83668 0.0
C1967 C 0.08789 0.56072 0.7804 0.0
C1968 C 0.08726 0.54778 0.80359 0.0
C1969 C 0.08755 0.54454 0.88095 0.0
C1970 C 0.08221 0.56023 0.56613 0.0
C1971 C 0.09082 0.56973 0.54033 0.0
C1972 C 0.0811 0.55745 0.64388 0.0
C1973 C 0.08854 0.5641 0.69793 0.0
C1974 C 0.09697 0.57376 0.67227 0.0
C1975 C 0.0981 0.57653 0.59456 0.0
H1976 H 0.20041 0.3495 0.28847 0.0
H1977 H 0.1634 0.33262 0.34005 0.0
H1978 H 0.20458 0.35215 0.42346 0.0
H1979 H 0.16781 0.33502 0.47595 0.0
H1980 H 0.1888 0.328 0.707 0.0
H1981 H 0.18364 0.3258 0.57211 0.0
H1982 H 0.19575 0.36496 0.53326 0.0
H1983 H 0.2006 0.36734 0.66786 0.0
C1984 C 0.19306 0.34651 0.32823 0.0
C1985 C 0.1815 0.34091 0.30285 0.0
C1986 C 0.19551 0.34798 0.40584 0.0
C1987 C 0.18652 0.3438 0.46009 0.0
C1988 C 0.17497 0.33821 0.4352 0.0
C1989 C 0.17245 0.33683 0.35737 0.0
C1990 C 0.19023 0.3362 0.67006 0.0
C1991 C 0.19514 0.34785 0.69879 0.0
C1992 C 0.18728 0.33492 0.59276 0.0
C1993 C 0.1893 0.34521 0.54237 0.0
C1994 C 0.19424 0.35683 0.57076 0.0
C1995 C 0.19707 0.35815 0.64805 0.0
H1996 H 0.40778 0.4535 0.05518 0.0
H1997 H 0.41029 0.41289 0.1056 0.0
H1998 H 0.40966 0.45843 0.18971 0.0
H1999 H 0.41224 0.41787 0.24074 0.0
H2000 H 0.3995 0.43148 0.47794 0.0
H2001 H 0.39888 0.42626 0.34302 0.0
H2002 H 0.42468 0.45785 0.29583 0.0
H2003 H 0.42528 0.46309 0.43143 0.0
C2004 C 0.40886 0.4456 0.09461 0.0
C2005 C 0.4088 0.43277 0.06907 0.0
C2006 C 0.40998 0.44845 0.17204 0.0
C2007 C 0.41108 0.43855 0.22604 0.0
C2008 C 0.4112 0.42572 0.20066 0.0
C2009 C 0.41006 0.42286 0.12311 0.0
C2010 C 0.40519 0.43721 0.43904 0.0
C2011 C 0.4125 0.44767 0.46558 0.0
C2012 C 0.40483 0.43421 0.36159 0.0
C2013 C 0.41176 0.4416 0.30864 0.0
C2014 C 0.4191 0.45206 0.33508 0.0
C2015 C 0.41945 0.45507 0.41272 0.0
H2016 H 0.2893 0.14635 0.3083 0.0
H2017 H 0.26023 0.14079 0.48042 0.0
H2018 H 0.27279 0.14795 0.21091 0.0
H2019 H 0.24345 0.14278 0.38294 0.0
H2020 H 0.21642 0.13962 0.17629 0.0
H2021 H 0.23288 0.13442 0.27101 0.0
H2022 H 0.25765 0.16358 0.17471 0.0
H2023 H 0.24152 0.16845 0.0797 0.0
C2024 C 0.27933 0.14551 0.32521 0.0
C2025 C 0.27602 0.14367 0.40192 0.0
C2026 C 0.26983 0.14645 0.26942 0.0
C2027 C 0.25672 0.14579 0.28903 0.0
C2028 C 0.25343 0.1433 0.36557 0.0
C2029 C 0.26302 0.14217 0.4215 0.0
C2030 C 0.22544 0.14483 0.17509 0.0
C2031 C 0.22766 0.15442 0.12005 0.0
C2032 C 0.23485 0.1419 0.22971 0.0
C2033 C 0.24667 0.1485 0.23044 0.0
C2034 C 0.24883 0.15806 0.17512 0.0
C2035 C 0.23949 0.16093 0.12065 0.0
H2036 H 0.11257 0.03622 0.56215 0.0
H2037 H 0.08412 0.01153 0.66613 0.0
H2038 H 0.11716 0.01952 0.4678 0.0
H2039 H 0.08836 0.99516 0.5714 0.0
H2040 H 0.11005 0.99176 0.26211 0.0
H2041 H 0.10829 0.00876 0.35839 0.0
H2042 H 0.10363 0.97982 0.53321 0.0
H2043 H 0.10499 0.96309 0.43709 0.0
C2044 C 0.10731 0.02724 0.56502 0.0
C2045 C 0.09802 0.02521 0.62205 0.0
C2046 C 0.10989 0.01769 0.51059 0.0
C2047 C 0.1032 0.00591 0.51197 0.0
C2048 C 0.09394 0.00394 0.56927 0.0
C2049 C 0.09143 0.01341 0.62361 0.0
C2050 C 0.10879 0.9891 0.32132 0.0
C2051 C 0.10738 0.97614 0.34202 0.0
C2052 C 0.10781 0.99882 0.37659 0.0
C2053 C 0.10557 0.99571 0.45367 0.0
C2054 C 0.10493 0.98265 0.47432 0.0
C2055 C 0.10573 0.97302 0.41919 0.0
H2056 H 0.26219 0.85891 0.49951 0.0
H2057 H 0.2909 0.85634 0.67573 0.0
H2058 H 0.2452 0.85808 0.59617 0.0
H2059 H 0.27416 0.85601 0.77264 0.0
H2060 H 0.24263 0.8377 0.91362 0.0
H2061 H 0.25915 0.84133 0.81887 0.0
H2062 H 0.23405 0.86772 0.7 0.0
H2063 H 0.21722 0.86364 0.79424 0.0
C2064 C 0.26484 0.85843 0.55913 0.0
C2065 C 0.27781 0.85744 0.58043 0.0
C2066 C 0.25513 0.85799 0.61466 0.0
C2067 C 0.25825 0.85675 0.69254 0.0
C2068 C 0.27132 0.85654 0.71338 0.0
C2069 C 0.28094 0.85677 0.65798 0.0
C2070 C 0.24063 0.84437 0.86774 0.0
C2071 C 0.22857 0.85037 0.86168 0.0
C2072 C 0.25018 0.84653 0.81333 0.0
C2073 C 0.24804 0.8549 0.75155 0.0
C2074 C 0.23603 0.86109 0.74613 0.0
C2075 C 0.22639 0.85883 0.80048 0.0
H2076 H 0.41228 0.99678 0.20639 0.0
H2077 H 0.38965 0.9691 0.0811 0.0
H2078 H 0.40892 0.0125 0.10679 0.0
H2079 H 0.38573 0.98513 0.98206 0.0
H2080 H 0.3945 0.04242 0.94895 0.0
H2081 H 0.39448 0.02639 0.04995 0.0
H2082 H 0.39564 0.99618 0.88047 0.0
H2083 H 0.39503 0.01244 0.77957 0.0
C2084 C 0.40636 0.99411 0.15816 0.0
C2085 C 0.40123 0.98166 0.15194 0.0
C2086 C 0.40434 0.0032 0.10089 0.0
C2087 C 0.39697 1.0002 0.036 0.0
C2088 C 0.39159 0.98779 0.03051 0.0
C2089 C 0.39374 0.97862 0.08768 0.0
C2090 C 0.39467 0.03233 0.93365 0.0
C2091 C 0.39493 0.02863 0.8569 0.0
C2092 C 0.39473 0.02311 0.99142 0.0
C2093 C 0.39533 0.00991 0.97388 0.0
C2094 C 0.39507 0.00621 0.89652 0.0
C2095 C 0.39476 0.0155 0.83855 0.0
H2096 H 0.76179 0.83559 0.91611 0.0
H2097 H 0.78695 0.8623 0.80076 0.0
H2098 H 0.74531 0.83932 0.82118 0.0
H2099 H 0.77017 0.8665 0.70664 0.0
H2100 H 0.74231 0.8587 0.50461 0.0
H2101 H 0.75922 0.8574 0.60138 0.0
H2102 H 0.73014 0.85386 0.77651 0.0
H2103 H 0.71349 0.85463 0.6796 0.0
C2104 C 0.76373 0.84244 0.87109 0.0
C2105 C 0.77571 0.84863 0.86615 0.0
C2106 C 0.75421 0.84466 0.81659 0.0
C2107 C 0.7563 0.85329 0.756 0.0
C2108 C 0.76824 0.85966 0.75174 0.0
C2109 C 0.77785 0.85732 0.80603 0.0
C2110 C 0.73961 0.85779 0.56399 0.0
C2111 C 0.72664 0.85653 0.58466 0.0
C2112 C 0.74928 0.85707 0.6196 0.0
C2113 C 0.74611 0.85529 0.69707 0.0
C2114 C 0.73303 0.85479 0.71749 0.0
C2115 C 0.72344 0.85528 0.66196 0.0
H2116 H 0.90955 0.00933 0.70908 0.0
H2117 H 0.89547 0.03811 0.55249 0.0
H2118 H 0.9073 0.99298 0.61058 0.0
H2119 H 0.8933 0.02174 0.45379 0.0
H2120 H 0.89447 0.96465 0.42964 0.0
H2121 H 0.89185 0.98104 0.5281 0.0
H2122 H 0.90932 0.00917 0.37958 0.0
H2123 H 0.91201 0.99283 0.28159 0.0
C2124 C 0.90581 0.01216 0.65399 0.0
C2125 C 0.90289 0.0251 0.63842 0.0
C2126 C 0.90446 0.00276 0.59761 0.0
C2127 C 0.90022 0.00608 0.52416 0.0
C2128 C 0.89675 0.01891 0.50954 0.0
C2129 C 0.89798 0.0283 0.5662 0.0
C2130 C 0.89764 0.97434 0.41769 0.0
C2131 C 0.90361 0.97736 0.34804 0.0
C2132 C 0.89616 0.98373 0.47421 0.0
C2133 C 0.90044 0.99639 0.46181 0.0
C2134 C 0.90582 0.99954 0.39075 0.0
C2135 C 0.90743 0.99014 0.33468 0.0
H2136 H 0.71916 0.13861 0.32349 0.0
H2137 H 0.73658 0.17422 0.39695 0.0
H2138 H 0.73742 0.13478 0.23809 0.0
H2139 H 0.75427 0.17082 0.30999 0.0
H2140 H 0.79073 0.15735 0.20959 0.0
H2141 H 0.77263 0.1586 0.29546 0.0
H2142 H 0.74825 0.14119 0.1246 0.0
H2143 H 0.76682 0.13918 0.03969 0.0
C2144 C 0.72685 0.14563 0.32119 0.0
C2145 C 0.72653 0.15661 0.36791 0.0
C2146 C 0.73728 0.14349 0.27187 0.0
C2147 C 0.74749 0.15238 0.26766 0.0
C2148 C 0.74687 0.16351 0.31316 0.0
C2149 C 0.73663 0.16552 0.36297 0.0
C2150 C 0.78158 0.15363 0.19035 0.0
C2151 C 0.78025 0.14819 0.11754 0.0
C2152 C 0.77109 0.15448 0.23953 0.0
C2153 C 0.75882 0.15025 0.21679 0.0
C2154 C 0.75753 0.14449 0.14449 0.0
C2155 C 0.76817 0.14339 0.09557 0.0
H2156 H 0.59194 0.01031 0.8196 0.0
H2157 H 0.60889 0.03927 0.96479 0.0
H2158 H 0.59421 0.99451 0.92145 0.0
H2159 H 0.61085 0.02352 0.06701 0.0
H2160 H 0.60885 0.96718 0.10601 0.0
H2161 H 0.61108 0.98289 0.00363 0.0
H2162 H 0.59373 0.01186 0.14654 0.0
H2163 H 0.59112 0.9961 0.24821 0.0
C2164 C 0.59627 0.01331 0.87285 0.0
C2165 C 0.60002 0.02616 0.88424 0.0
C2166 C 0.59761 0.00422 0.9311 0.0
C2167 C 0.6026 0.00782 0.00239 0.0
C2168 C 0.60683 0.02052 0.0129 0.0
C2169 C 0.60569 0.02955 0.9542 0.0
C2170 C 0.60549 0.97686 0.11581 0.0
C2171 C 0.59951 0.98025 0.1849 0.0
C2172 C 0.60682 0.98588 0.05711 0.0
C2173 C 0.60248 0.99856 0.06689 0.0
C2174 C 0.59721 0.00216 0.13746 0.0
C2175 C 0.59568 0.9931 0.19564 0.0
H2176 H 0.76069 0.66256 0.96285 0.0
H2177 H 0.78946 0.64477 0.81995 0.0
H2178 H 0.74464 0.65929 0.86359 0.0
H2179 H 0.77339 0.64163 0.7202 0.0
H2180 H 0.71654 0.64391 0.68872 0.0
H2181 H 0.73266 0.64226 0.78937 0.0
H2182 H 0.76144 0.65725 0.63582 0.0
H2183 H 0.74532 0.65906 0.53564 0.0
C2184 C 0.76358 0.65781 0.91063 0.0
C2185 C 0.77642 0.65406 0.89908 0.0
C2186 C 0.75434 0.65587 0.8539 0.0
C2187 C 0.75777 0.65025 0.78395 0.0
C2188 C 0.7705 0.64608 0.77331 0.0
C2189 C 0.7797 0.64786 0.83055 0.0
C2190 C 0.72631 0.64673 0.67615 0.0
C2191 C 0.72957 0.6518 0.60444 0.0
C2192 C 0.73555 0.6458 0.73388 0.0
C2193 C 0.74829 0.64971 0.72065 0.0
C2194 C 0.75172 0.65409 0.64765 0.0
C2195 C 0.74245 0.65518 0.59034 0.0
H2196 H 0.62566 0.48311 0.81635 0.0
H2197 H 0.59193 0.47002 0.93743 0.0
H2198 H 0.62619 0.5024 0.89642 0.0
H2199 H 0.59253 0.48902 0.0168 0.0
H2200 H 0.58801 0.53099 0.08126 0.0
H2201 H 0.58858 0.51196 0.00125 0.0
H2202 H 0.62973 0.50954 0.03077 0.0
H2203 H 0.62921 0.5289 0.11007 0.0
C2204 C 0.61839 0.48429 0.85997 0.0
C2205 C 0.60865 0.47504 0.86952 0.0
C2206 C 0.61873 0.49531 0.90607 0.0
C2207 C 0.60932 0.49731 0.96251 0.0
C2208 C 0.59977 0.48793 0.97285 0.0
C2209 C 0.59944 0.47697 0.92711 0.0
C2210 C 0.5972 0.5265 0.07049 0.0
C2211 C 0.60856 0.53154 0.102 0.0
C2212 C 0.59752 0.51549 0.02503 0.0
C2213 C 0.6092 0.5092 0.00976 0.0
C2214 C 0.62059 0.51423 0.04093 0.0
C2215 C 0.62027 0.52526 0.08687 0.0
H2216 H 0.73694 0.36622 0.49338 0.0
H2217 H 0.71534 0.35094 0.30404 0.0
H2218 H 0.75618 0.36733 0.41261 0.0
H2219 H 0.73442 0.35231 0.22318 0.0
H2220 H 0.76912 0.37005 0.08988 0.0
H2221 H 0.74994 0.37072 0.17096 0.0
H2222 H 0.7699 0.349 0.34367 0.0
H2223 H 0.7889 0.34796 0.26237 0.0
C2224 C 0.73627 0.36324 0.43439 0.0
C2225 C 0.72465 0.35843 0.40504 0.0
C2226 C 0.74727 0.36383 0.38836 0.0
C2227 C 0.74676 0.35992 0.31173 0.0
C2228 C 0.73506 0.35546 0.28191 0.0
C2229 C 0.72416 0.3546 0.3283 0.0
C2230 C 0.76944 0.36546 0.14524 0.0
C2231 C 0.78057 0.35899 0.16965 0.0
C2232 C 0.75846 0.36583 0.19147 0.0
C2233 C 0.75849 0.35997 0.26364 0.0
C2234 C 0.76967 0.35371 0.28862 0.0
C2235 C 0.78054 0.35309 0.24184 0.0
H2236 H 0.89826 0.48455 0.7186 0.0
H2237 H 0.88786 0.46078 0.52728 0.0
H2238 H 0.89836 0.50345 0.63659 0.0
H2239 H 0.88694 0.47966 0.44563 0.0
H2240 H 0.89894 0.51332 0.29768 0.0
H2241 H 0.8985 0.49444 0.37991 0.0
H2242 H 0.88736 0.51856 0.57011 0.0
H2243 H 0.88884 0.53739 0.48827 0.0
C2244 C 0.89574 0.48346 0.65903 0.0
C2245 C 0.89313 0.47127 0.62893 0.0
C2246 C 0.8957 0.49431 0.61178 0.0
C2247 C 0.89268 0.49325 0.5336 0.0
C2248 C 0.88968 0.48096 0.50459 0.0
C2249 C 0.89009 0.47009 0.55147 0.0
C2250 C 0.89639 0.51448 0.35716 0.0
C2251 C 0.89401 0.52674 0.387 0.0
C2252 C 0.89603 0.50366 0.40452 0.0
C2253 C 0.89289 0.50481 0.48252 0.0
C2254 C 0.89016 0.51718 0.5113 0.0
C2255 C 0.89091 0.52802 0.46432 0.0
H2256 H 0.2859 0.35937 0.32261 0.0
H2257 H 0.25634 0.34256 0.46412 0.0
H2258 H 0.27035 0.36196 0.21962 0.0
H2259 H 0.24082 0.3453 0.36167 0.0
H2260 H 0.24344 0.34356 0.03302 0.0
H2261 H 0.25898 0.34619 0.1357 0.0
H2262 H 0.2291 0.36122 0.28148 0.0
H2263 H 0.21357 0.35877 0.17843 0.0
C2264 C 0.27609 0.35634 0.3322 0.0
C2265 C 0.27246 0.35052 0.4013 0.0
C2266 C 0.26718 0.35783 0.27306 0.0
C2267 C 0.25438 0.35373 0.28223 0.0
C2268 C 0.25058 0.34863 0.35287 0.0
C2269 C 0.25952 0.347 0.41157 0.0
C2270 C 0.24019 0.34762 0.08649 0.0
C2271 C 0.22716 0.35071 0.09782 0.0
C2272 C 0.24913 0.34918 0.1453 0.0
C2273 C 0.24525 0.3538 0.217 0.0
C2274 C 0.23235 0.35747 0.22723 0.0
C2275 C 0.22344 0.35604 0.16811 0.0
H2276 H 0.39091 0.49045 0.76996 0.0
H2277 H 0.39588 0.4634 0.95359 0.0
H2278 H 0.39292 0.50831 0.86049 0.0
H2279 H 0.39756 0.48102 0.0443 0.0
H2280 H 0.38995 0.53767 0.05654 0.0
H2281 H 0.38447 0.52019 0.96881 0.0
H2282 H 0.41366 0.49638 0.07273 0.0
H2283 H 0.41884 0.51353 0.1607 0.0
C2284 C 0.39215 0.48835 0.82995 0.0
C2285 C 0.39349 0.47559 0.85487 0.0
C2286 C 0.39329 0.49855 0.88188 0.0
C2287 C 0.39566 0.49614 0.95965 0.0
C2288 C 0.39614 0.48329 0.98466 0.0
C2289 C 0.39515 0.47317 0.93284 0.0
C2290 C 0.39511 0.52865 0.06087 0.0
C2291 C 0.40481 0.527 0.11594 0.0
C2292 C 0.39202 0.51866 0.01031 0.0
C2293 C 0.39854 0.50681 0.01389 0.0
C2294 C 0.4082 0.50523 0.06918 0.0
C2295 C 0.41125 0.51515 0.11954 0.0
H2296 H 0.24026 0.64229 0.99079 0.0
H2297 H 0.21241 0.64684 0.81116 0.0
H2298 H 0.25771 0.64361 0.89704 0.0
H2299 H 0.2296 0.64776 0.71714 0.0
H2300 H 0.2862 0.63907 0.69881 0.0
H2301 H 0.269 0.63449 0.79012 0.0
H2302 H 0.24507 0.66301 0.68062 0.0
H2303 H 0.26193 0.66723 0.58895 0.0
C2304 C 0.2379 0.64332 0.931 0.0
C2305 C 0.22505 0.64473 0.90802 0.0
C2306 C 0.24786 0.64404 0.8772 0.0
C2307 C 0.24511 0.64604 0.79942 0.0
C2308 C 0.23215 0.64664 0.77659 0.0
C2309 C 0.22227 0.64609 0.8303 0.0
C2310 C 0.27721 0.64426 0.694 0.0
C2311 C 0.27544 0.65348 0.63629 0.0
C2312 C 0.26738 0.64169 0.74664 0.0
C2313 C 0.25558 0.64831 0.74272 0.0
C2314 C 0.25387 0.65748 0.68466 0.0
C2315 C 0.26362 0.65998 0.63211 0.0
H2316 H 0.12597 0.52713 0.39752 0.0
H2317 H 0.08494 0.52713 0.3582 0.0
H2318 H 0.12343 0.5091 0.48644 0.0
H2319 H 0.08249 0.50929 0.44647 0.0
H2320 H 0.08147 0.4919 0.68514 0.0
H2321 H 0.08569 0.50842 0.59056 0.0
H2322 H 0.1156 0.48496 0.49183 0.0
H2323 H 0.11133 0.46817 0.58704 0.0
C2324 C 0.11645 0.5232 0.40699 0.0
C2325 C 0.10566 0.52861 0.37077 0.0
C2326 C 0.11502 0.51286 0.45767 0.0
C2327 C 0.10275 0.50789 0.47384 0.0
C2328 C 0.09205 0.51303 0.43573 0.0
C2329 C 0.09348 0.52321 0.38462 0.0
C2330 C 0.08901 0.49022 0.64377 0.0
C2331 C 0.09603 0.47866 0.64362 0.0
C2332 C 0.09136 0.49968 0.58921 0.0
C2333 C 0.10087 0.49791 0.53336 0.0
C2334 C 0.10821 0.48656 0.53433 0.0
C2335 C 0.10575 0.47696 0.5887 0.0
H2336 H 0.18298 0.12411 0.87707 0.0
H2337 H 0.15362 0.1231 0.05063 0.0
H2338 H 0.17186 0.10683 0.80781 0.0
H2339 H 0.14283 0.10552 0.98335 0.0
H2340 H 0.12943 0.09988 0.68463 0.0
H2341 H 0.14713 0.11061 0.75108 0.0
H2342 H 0.14668 0.081 0.92323 0.0
H2343 H 0.12928 0.06995 0.85473 0.0
C2344 C 0.1745 0.11976 0.90211 0.0
C2345 C 0.16918 0.12479 0.96942 0.0
C2346 C 0.16812 0.10996 0.86235 0.0
C2347 C 0.15655 0.10482 0.89057 0.0
C2348 C 0.15183 0.10919 0.96098 0.0
C2349 C 0.15798 0.11923 0.99943 0.0
C2350 C 0.13351 0.09539 0.73483 0.0
C2351 C 0.12815 0.08404 0.76418 0.0
C2352 C 0.14362 0.10151 0.77282 0.0
C2353 C 0.14826 0.09661 0.84212 0.0
C2354 C 0.14333 0.0849 0.86954 0.0
C2355 C 0.13346 0.07855 0.83019 0.0
H2356 H 0.14818 0.86868 0.95182 0.0
H2357 H 0.18273 0.88595 0.04141 0.0
H2358 H 0.1357 0.88705 0.99429 0.0
H2359 H 0.17007 0.90459 0.08537 0.0
H2360 H 0.13532 0.91991 0.24985 0.0
H2361 H 0.15243 0.9073 0.18822 0.0
H2362 H 0.13242 0.91031 0.97336 0.0
H2363 H 0.11536 0.92251 0.03522 0.0
C2364 C 0.15314 0.87659 0.97928 0.0
C2365 C 0.1664 0.87595 0.99296 0.0
C2366 C 0.146 0.88716 0.00343 0.0
C2367 C 0.15189 0.89733 0.04303 0.0
C2368 C 0.16528 0.8969 0.05496 0.0
C2369 C 0.17252 0.88633 0.02926 0.0
C2370 C 0.1349 0.91826 0.18896 0.0
C2371 C 0.12407 0.92211 0.14711 0.0
C2372 C 0.14466 0.91104 0.15363 0.0
C2373 C 0.14366 0.90763 0.07613 0.0
C2374 C 0.13337 0.91259 0.03333 0.0
C2375 C 0.12364 0.91964 0.0686 0.0
H2376 H 0.32566 0.88408 0.49386 0.0
H2377 H 0.34107 0.86479 0.29623 0.0
H2378 H 0.33738 0.90371 0.45798 0.0
H2379 H 0.35254 0.88429 0.25994 0.0
H2380 H 0.36957 0.92222 0.19513 0.0
H2381 H 0.35119 0.90798 0.22116 0.0
H2382 H 0.36179 0.90679 0.45892 0.0
H2383 H 0.3801 0.92072 0.43267 0.0
C2384 C 0.33125 0.88416 0.44176 0.0
C2385 C 0.3326 0.87292 0.39825 0.0
C2386 C 0.33797 0.89536 0.42132 0.0
C2387 C 0.34589 0.89553 0.35615 0.0
C2388 C 0.34643 0.88452 0.30992 0.0
C2389 C 0.33995 0.87332 0.33112 0.0
C2390 C 0.3677 0.91919 0.25313 0.0
C2391 C 0.37626 0.92244 0.31182 0.0
C2392 C 0.35724 0.91101 0.26803 0.0
C2393 C 0.35507 0.90624 0.3421 0.0
C2394 C 0.3631 0.91039 0.40151 0.0
C2395 C 0.37364 0.91829 0.38637 0.0
H2396 H 0.36876 0.07874 0.78158 0.0
H2397 H 0.38543 0.08854 0.56415 0.0
H2398 H 0.34936 0.09109 0.74844 0.0
H2399 H 0.36609 0.10053 0.53033 0.0
H2400 H 0.32802 0.11876 0.4769 0.0
H2401 H 0.34125 0.09989 0.50883 0.0
H2402 H 0.3488 0.11601 0.73105 0.0
H2403 H 0.33595 0.13484 0.69847 0.0
C2404 C 0.36807 0.08315 0.72582 0.0
C2405 C 0.37855 0.08279 0.67549 0.0
C2406 C 0.35703 0.09023 0.70694 0.0
C2407 C 0.35622 0.09676 0.63676 0.0
C2408 C 0.36635 0.09549 0.58436 0.0
C2409 C 0.37745 0.08871 0.6039 0.0
C2410 C 0.33221 0.11803 0.53323 0.0
C2411 C 0.33105 0.12822 0.5852 0.0
C2412 C 0.3398 0.10729 0.55141 0.0
C2413 C 0.34604 0.10649 0.62248 0.0
C2414 C 0.344 0.11627 0.67629 0.0
C2415 C 0.33671 0.12708 0.65748 0.0
H2416 H 0.85122 0.87819 0.92036 0.0
H2417 H 0.82075 0.87794 0.08712 0.0
H2418 H 0.86183 0.89573 0.98906 0.0
H2419 H 0.83169 0.89515 0.15793 0.0
H2420 H 0.87421 0.9319 0.12051 0.0
H2421 H 0.85715 0.9208 0.04929 0.0
H2422 H 0.8568 0.8906 0.2177 0.0
H2423 H 0.87419 0.90137 0.28689 0.0
C2424 C 0.84659 0.88223 0.97024 0.0
C2425 C 0.83512 0.87688 0.99801 0.0
C2426 C 0.85264 0.89223 0.00952 0.0
C2427 C 0.84754 0.89678 0.07855 0.0
C2428 C 0.83572 0.89188 0.10441 0.0
C2429 C 0.82945 0.88212 0.06374 0.0
C2430 C 0.87014 0.92313 0.14363 0.0
C2431 C 0.87539 0.9175 0.2094 0.0
C2432 C 0.86045 0.91678 0.10274 0.0
C2433 C 0.85565 0.90491 0.12843 0.0
C2434 C 0.86023 0.89982 0.19737 0.0
C2435 C 0.87016 0.90596 0.23689 0.0
H2436 H 0.82325 0.12827 0.87115 0.0
H2437 H 0.85117 0.12389 0.05088 0.0
H2438 H 0.83398 0.11116 0.79825 0.0
H2439 H 0.86151 0.10645 0.97997 0.0
H2440 H 0.87386 0.07138 0.8429 0.0
H2441 H 0.85658 0.08279 0.91011 0.0
H2442 H 0.85949 0.11407 0.7496 0.0
H2443 H 0.87708 0.10293 0.68441 0.0
C2444 C 0.83131 0.12323 0.89647 0.0
C2445 C 0.83637 0.12727 0.96673 0.0
C2446 C 0.83747 0.11352 0.8547 0.0
C2447 C 0.84851 0.10747 0.88382 0.0
C2448 C 0.85291 0.11084 0.95678 0.0
C2449 C 0.84701 0.1208 0.99732 0.0
C2450 C 0.87048 0.08048 0.82046 0.0
C2451 C 0.87674 0.08629 0.75838 0.0
C2452 C 0.86065 0.08701 0.85909 0.0
C2453 C 0.8567 0.09926 0.83473 0.0
C2454 C 0.86226 0.10457 0.76889 0.0
C2455 C 0.87232 0.09822 0.73171 0.0
H2456 H 0.6537 0.12016 0.43432 0.0
H2457 H 0.68282 0.12445 0.60732 0.0
H2458 H 0.64343 0.10318 0.50934 0.0
H2459 H 0.67223 0.10778 0.68417 0.0
H2460 H 0.63014 0.06966 0.65521 0.0
H2461 H 0.64739 0.07991 0.58127 0.0
H2462 H 0.64772 0.11169 0.73932 0.0
H2463 H 0.63018 0.10172 0.81118 0.0
C2464 C 0.65816 0.11709 0.48706 0.0
C2465 C 0.66912 0.12343 0.51468 0.0
C2466 C 0.6523 0.1074 0.53001 0.0
C2467 C 0.65706 0.10418 0.60244 0.0
C2468 C 0.66845 0.11002 0.62821 0.0
C2469 C 0.67454 0.11947 0.5841 0.0
C2470 C 0.63425 0.07859 0.67559 0.0
C2471 C 0.62893 0.08489 0.73906 0.0
C2472 C 0.64404 0.08448 0.63312 0.0
C2473 C 0.64889 0.09655 0.65489 0.0
C2474 C 0.64427 0.10231 0.72192 0.0
C2475 C 0.63424 0.09662 0.76297 0.0
H2476 H 0.63258 0.92331 0.23035 0.0
H2477 H 0.6213 0.91725 0.46423 0.0
H2478 H 0.65152 0.90955 0.25042 0.0
H2479 H 0.64017 0.90379 0.48461 0.0
H2480 H 0.67751 0.88273 0.51103 0.0
H2481 H 0.66488 0.90223 0.48464 0.0
H2482 H 0.65111 0.88517 0.27575 0.0
H2483 H 0.66344 0.86578 0.30272 0.0
C2484 C 0.63437 0.91935 0.28645 0.0
C2485 C 0.62545 0.9212 0.34552 0.0
C2486 C 0.64515 0.91147 0.29792 0.0
C2487 C 0.64731 0.90559 0.3691 0.0
C2488 C 0.63886 0.90828 0.42944 0.0
C2489 C 0.628 0.9159 0.41757 0.0
C2490 C 0.67204 0.88334 0.45863 0.0
C2491 C 0.67132 0.87275 0.40924 0.0
C2492 C 0.6648 0.89445 0.44362 0.0
C2493 C 0.657 0.89521 0.37814 0.0
C2494 C 0.65711 0.88495 0.32617 0.0
C2495 C 0.66409 0.8738 0.34194 0.0
H2496 H 0.62674 0.57212 0.3405 0.0
H2497 H 0.62942 0.60275 0.17558 0.0
H2498 H 0.64426 0.58197 0.41433 0.0
H2499 H 0.64725 0.61225 0.24725 0.0
H2500 H 0.68333 0.62274 0.38088 0.0
H2501 H 0.67161 0.60626 0.30852 0.0
H2502 H 0.64127 0.60691 0.47615 0.0
H2503 H 0.6527 0.62372 0.54658 0.0
C2504 C 0.63147 0.58062 0.31837 0.0
C2505 C 0.62685 0.58667 0.25226 0.0
C2506 C 0.64142 0.58626 0.36069 0.0
C2507 C 0.64711 0.5978 0.33606 0.0
C2508 C 0.64313 0.60326 0.26681 0.0
C2509 C 0.63295 0.59785 0.22589 0.0
C2510 C 0.6744 0.61898 0.40367 0.0
C2511 C 0.66892 0.62439 0.46947 0.0
C2512 C 0.66768 0.60963 0.36212 0.0
C2513 C 0.65559 0.60532 0.38712 0.0
C2514 C 0.65065 0.60997 0.4563 0.0
C2515 C 0.65717 0.61957 0.49653 0.0
H2516 H 0.67277 0.38494 0.47424 0.0
H2517 H 0.66473 0.36586 0.68713 0.0
H2518 H 0.66068 0.40389 0.51847 0.0
H2519 H 0.65306 0.38473 0.732 0.0
H2520 H 0.63478 0.42162 0.80567 0.0
H2521 H 0.65364 0.40923 0.76311 0.0
H2522 H 0.63594 0.40398 0.5428 0.0
H2523 H 0.61713 0.41598 0.5859 0.0
C2524 C 0.66882 0.38501 0.53138 0.0
C2525 C 0.66959 0.37399 0.57731 0.0
C2526 C 0.6619 0.39579 0.5566 0.0
C2527 C 0.65595 0.39578 0.62874 0.0
C2528 C 0.65766 0.3851 0.67664 0.0
C2529 C 0.66427 0.37427 0.6508 0.0
C2530 C 0.63516 0.41812 0.74756 0.0
C2531 C 0.62456 0.41964 0.69903 0.0
C2532 C 0.64589 0.41103 0.72327 0.0
C2533 C 0.64625 0.40566 0.64959 0.0
C2534 C 0.63603 0.40812 0.59945 0.0
C2535 C 0.62523 0.41491 0.62425 0.0
H2536 H 0.8705 0.39869 0.70229 0.0
H2537 H 0.87454 0.43062 0.85736 0.0
H2538 H 0.85376 0.38949 0.78359 0.0
H2539 H 0.8581 0.42112 0.94071 0.0
H2540 H 0.85256 0.38168 0.09292 0.0
H2541 H 0.86202 0.39824 0.0114 0.0
H2542 H 0.83076 0.39374 0.85199 0.0
H2543 H 0.821 0.37749 0.93548 0.0
C2544 C 0.86747 0.40394 0.75253 0.0
C2545 C 0.87371 0.41537 0.77343 0.0
C2546 C 0.85789 0.3987 0.79899 0.0
C2547 C 0.85465 0.4046 0.86838 0.0
C2548 C 0.86038 0.41644 0.88723 0.0
C2549 C 0.86971 0.42189 0.83945 0.0
C2550 C 0.84744 0.38465 0.04214 0.0
C2551 C 0.83604 0.37841 0.02063 0.0
C2552 C 0.85283 0.39413 0.99554 0.0
C2553 C 0.84711 0.39725 0.92544 0.0
C2554 C 0.83529 0.39155 0.90601 0.0
C2555 C 0.82969 0.38232 0.95388 0.0
H2556 H 0.87215 0.59808 0.33256 0.0
H2557 H 0.87537 0.56968 0.15456 0.0
H2558 H 0.85474 0.60865 0.26281 0.0
H2559 H 0.85826 0.5806 0.0828 0.0
H2560 H 0.85127 0.62323 0.96423 0.0
H2561 H 0.86168 0.60532 0.0303 0.0
H2562 H 0.83108 0.60496 0.19641 0.0
H2563 H 0.82038 0.62262 0.12832 0.0
C2564 C 0.86879 0.59386 0.27973 0.0
C2565 C 0.87495 0.58303 0.24916 0.0
C2566 C 0.85885 0.59989 0.23986 0.0
C2567 C 0.85517 0.59542 0.16755 0.0
C2568 C 0.86086 0.58416 0.13874 0.0
C2569 C 0.87058 0.57789 0.17986 0.0
C2570 C 0.84651 0.61895 0.01298 0.0
C2571 C 0.83501 0.62419 0.04093 0.0
C2572 C 0.85244 0.6087 0.05068 0.0
C2573 C 0.84716 0.60377 0.11831 0.0
C2574 C 0.83527 0.60854 0.14402 0.0
C2575 C 0.82914 0.61857 0.10492 0.0
H2576 H 0.35416 0.36087 0.53685 0.0
H2577 H 0.32044 0.38487 0.55695 0.0
H2578 H 0.36773 0.37892 0.57035 0.0
H2579 H 0.33427 0.40328 0.59111 0.0
H2580 H 0.36674 0.4231 0.75715 0.0
H2581 H 0.34971 0.4092 0.70455 0.0
H2582 H 0.37434 0.39981 0.51437 0.0
H2583 H 0.39124 0.41322 0.56759 0.0
C2584 C 0.34964 0.37008 0.54772 0.0
C2585 C 0.33624 0.37145 0.54405 0.0
C2586 C 0.35745 0.38048 0.56655 0.0
C2587 C 0.35209 0.39257 0.58284 0.0
C2588 C 0.33865 0.39406 0.57876 0.0
C2589 C 0.33078 0.38359 0.55869 0.0
C2590 C 0.36829 0.41833 0.70308 0.0
C2591 C 0.38032 0.41904 0.66687 0.0
C2592 C 0.35858 0.4104 0.67293 0.0
C2593 C 0.3608 0.40322 0.6061 0.0
C2594 C 0.37243 0.40499 0.56673 0.0
C2595 C 0.3821 0.4127 0.5971 0.0
H2596 H 0.37483 0.57058 0.35952 0.0
H2597 H 0.37259 0.60096 0.19283 0.0
H2598 H 0.35761 0.58091 0.43354 0.0
H2599 H 0.35508 0.61098 0.2648 0.0
H2600 H 0.35045 0.62232 0.56735 0.0
H2601 H 0.3611 0.60514 0.49578 0.0
H2602 H 0.331 0.60653 0.32688 0.0
H2603 H 0.32005 0.6234 0.40048 0.0
C2604 C 0.37021 0.57912 0.33697 0.0
C2605 C 0.37487 0.58494 0.27022 0.0
C2606 C 0.36045 0.58505 0.37944 0.0
C2607 C 0.355 0.59668 0.35454 0.0
C2608 C 0.35899 0.60192 0.28464 0.0
C2609 C 0.36899 0.59621 0.24348 0.0
C2610 C 0.34583 0.61852 0.5168 0.0
C2611 C 0.33438 0.62401 0.48984 0.0
C2612 C 0.35191 0.60872 0.47585 0.0
C2613 C 0.34684 0.60452 0.40596 0.0
C2614 C 0.33502 0.60953 0.38096 0.0
C2615 C 0.32873 0.6191 0.42321 0.0
H2616 H 0.13267 0.57772 0.27148 0.0
H2617 H 0.12048 0.58315 0.03879 0.0
H2618 H 0.15159 0.59131 0.24728 0.0
H2619 H 0.13935 0.59643 0.01421 0.0
H2620 H 0.17616 0.61814 0.98139 0.0
H2621 H 0.16402 0.59844 0.01073 0.0
H2622 H 0.15076 0.6156 0.22054 0.0
H2623 H 0.1626 0.63519 0.19059 0.0
C2624 C 0.13429 0.58143 0.21459 0.0
C2625 C 0.12513 0.57948 0.15706 0.0
C2626 C 0.14506 0.58924 0.2008 0.0
C2627 C 0.14693 0.59496 0.12887 0.0
C2628 C 0.13827 0.59207 0.0699 0.0
C2629 C 0.12743 0.58452 0.0841 0.0
C2630 C 0.17092 0.6175 0.03464 0.0
C2631 C 0.17019 0.62817 0.08347 0.0
C2632 C 0.16396 0.60628 0.05134 0.0
C2633 C 0.15643 0.60548 0.11795 0.0
C2634 C 0.15656 0.61584 0.16929 0.0
C2635 C 0.16326 0.6271 0.15184 0.0
H2636 H 0.18013 0.38367 0.93213 0.0
H2637 H 0.14555 0.36378 1.00013 0.0
H2638 H 0.16708 0.40229 0.89221 0.0
H2639 H 0.13269 0.38212 0.96135 0.0
H2640 H 0.13311 0.42003 0.7302 0.0
H2641 H 0.14998 0.4063 0.7859 0.0
H2642 H 0.12873 0.40484 0.99718 0.0
H2643 H 0.11195 0.41814 0.94133 0.0
C2644 C 0.1698 0.38341 0.94012 0.0
C2645 C 0.16382 0.37233 0.96951 0.0
C2646 C 0.16235 0.39398 0.91667 0.0
C2647 C 0.14887 0.3937 0.92395 0.0
C2648 C 0.14305 0.38275 0.95594 0.0
C2649 C 0.15042 0.3722 0.97794 0.0
C2650 C 0.1323 0.41704 0.78914 0.0
C2651 C 0.12119 0.41993 0.83125 0.0
C2652 C 0.14193 0.40922 0.82108 0.0
C2653 C 0.14054 0.4043 0.89548 0.0
C2654 C 0.12995 0.40825 0.93929 0.0
C2655 C 0.12036 0.41588 0.90737 0.0
loop_
_geom_bond_atom_site_label_1
_geom_bond_atom_site_label_2
_geom_bond_distance
_geom_bond_site_symmetry_2
_ccdc_geom_bond_type
C0 C1 1.351 . S
C0 N3 1.368 . S
C0 H5 0.931 . S
C1 C0 1.351 . S
C1 N2 1.373 . S
C1 H29 0.930 . S
N2 C1 1.373 . S
N2 C4 1.340 . S
N3 C0 1.368 . S
N3 C4 1.321 . S
N3 Co6 2.135 . S
C4 N2 1.340 . S
C4 N3 1.321 . S
C4 H28 0.930 . S
H5 C0 0.931 . S
Co6 N3 2.135 . S
Co6 N9 2.121 1_554 S
Co6 O14 2.055 . S
Co6 O17 2.039 . S
Co6 N20 2.140 . S
C7 O8 1.227 . S
C7 O17 1.265 . S
O8 C7 1.227 . S
N9 Co6 2.121 1_556 S
N9 C11 1.375 . S
N9 C12 1.313 . S
C10 C11 1.338 . S
C10 N13 1.377 . S
C10 H30 0.930 . S
C11 N9 1.375 . S
C11 C10 1.338 . S
C11 H15 0.931 . S
C12 N9 1.313 . S
C12 N13 1.344 . S
C12 H16 0.930 . S
N13 C10 1.377 . S
N13 C12 1.344 . S
O14 Co6 2.055 . S
O14 C18 1.253 . S
H15 C11 0.931 . S
H16 C12 0.930 . S
O17 Co6 2.039 . S
O17 C7 1.265 . S
C18 O14 1.253 . S
C18 O19 1.227 . S
O19 C18 1.227 . S
N20 Co6 2.140 . S
N20 C23 1.346 . S
N20 C24 1.345 . S
C21 C22 1.387 . S
C21 C25 1.391 . S
C22 C21 1.387 . S
C22 C23 1.369 . S
C22 H31 0.929 . S
C23 N20 1.346 . S
C23 C22 1.369 . S
C23 H26 0.928 . S
C24 N20 1.345 . S
C24 C25 1.371 . S
C24 H27 0.931 1_554 S
C25 C21 1.391 . S
C25 C24 1.371 . S
C25 H32 0.930 1_554 S
H26 C23 0.928 . S
H27 C24 0.931 1_556 S
H28 C4 0.930 . S
H29 C1 0.930 . S
H30 C10 0.930 . S
H31 C22 0.929 . S
H32 C25 0.930 1_556 S
C33 C34 1.351 . S
C33 N36 1.368 . S
C33 H38 0.931 . S
C34 C33 1.351 . S
C34 N35 1.373 . S
C34 H62 0.930 . S
N35 C34 1.373 . S
N35 C37 1.340 . S
N36 C33 1.368 . S
N36 C37 1.321 . S
N36 Co39 2.135 . S
C37 N35 1.340 . S
C37 N36 1.321 . S
C37 H61 0.930 . S
H38 C33 0.931 . S
Co39 N36 2.135 . S
Co39 N42 2.121 . S
Co39 O47 2.055 . S
Co39 O50 2.039 . S
Co39 N53 2.140 . S
C40 O41 1.227 . S
C40 O50 1.265 . S
O41 C40 1.227 . S
N42 Co39 2.121 . S
N42 C44 1.375 . S
N42 C45 1.313 . S
C43 C44 1.338 . S
C43 N46 1.377 . S
C43 H63 0.930 . S
C44 N42 1.375 . S
C44 C43 1.338 . S
C44 H48 0.931 . S
C45 N42 1.313 . S
C45 N46 1.344 . S
C45 H49 0.930 . S
N46 C43 1.377 . S
N46 C45 1.344 . S
O47 Co39 2.055 . S
O47 C51 1.253 . S
H48 C44 0.931 . S
H49 C45 0.930 . S
O50 Co39 2.039 . S
O50 C40 1.265 . S
C51 O47 1.253 . S
C51 O52 1.227 . S
O52 C51 1.227 . S
N53 Co39 2.140 . S
N53 C56 1.346 . S
N53 C57 1.345 . S
C54 C55 1.387 . S
C54 C58 1.391 . S
C55 C54 1.387 . S
C55 C56 1.369 . S
C55 H64 0.929 . S
C56 N53 1.346 . S
C56 C55 1.369 . S
C56 H59 0.928 . S
C57 N53 1.345 . S
C57 C58 1.371 . S
C57 H60 0.931 . S
C58 C54 1.391 . S
C58 C57 1.371 . S
C58 H65 0.930 . S
H59 C56 0.928 . S
H60 C57 0.931 . S
H61 C37 0.930 . S
H62 C34 0.930 . S
H63 C43 0.930 . S
H64 C55 0.929 . S
H65 C58 0.930 . S
C66 C67 1.351 . S
C66 N69 1.368 . S
C66 H71 0.931 . S
C67 C66 1.351 . S
C67 N68 1.373 . S
C67 H95 0.930 . S
N68 C67 1.373 . S
N68 C70 1.340 . S
N69 C66 1.368 . S
N69 C70 1.321 . S
N69 Co72 2.135 . S
C70 N68 1.340 . S
C70 N69 1.321 . S
C70 H94 0.930 . S
H71 C66 0.931 . S
Co72 N69 2.135 . S
Co72 N75 2.121 . S
Co72 O80 2.055 . S
Co72 O83 2.039 . S
Co72 N86 2.140 . S
C73 O74 1.227 . S
C73 O83 1.265 . S
O74 C73 1.227 . S
N75 Co72 2.121 . S
N75 C77 1.375 . S
N75 C78 1.313 . S
C76 C77 1.338 . S
C76 N79 1.377 . S
C76 H96 0.930 . S
C77 N75 1.375 . S
C77 C76 1.338 . S
C77 H81 0.931 . S
C78 N75 1.313 . S
C78 N79 1.344 . S
C78 H82 0.930 . S
N79 C76 1.377 . S
N79 C78 1.344 . S
O80 Co72 2.055 . S
O80 C84 1.253 . S
H81 C77 0.931 . S
H82 C78 0.930 . S
O83 Co72 2.039 . S
O83 C73 1.265 . S
C84 O80 1.253 . S
C84 O85 1.227 . S
O85 C84 1.227 . S
N86 Co72 2.140 . S
N86 C89 1.346 . S
N86 C90 1.345 . S
C87 C88 1.387 . S
C87 C91 1.391 . S
C88 C87 1.387 . S
C88 C89 1.369 . S
C88 H97 0.929 . S
C89 N86 1.346 . S
C89 C88 1.369 . S
C89 H92 0.928 . S
C90 N86 1.345 . S
C90 C91 1.371 . S
C90 H93 0.931 . S
C91 C87 1.391 . S
C91 C90 1.371 . S
C91 H98 0.930 . S
H92 C89 0.928 . S
H93 C90 0.931 . S
H94 C70 0.930 . S
H95 C67 0.930 . S
H96 C76 0.930 . S
H97 C88 0.929 . S
H98 C91 0.930 . S
C99 C100 1.351 1_556 S
C99 N102 1.368 . S
C99 H104 0.931 . S
C100 C99 1.351 1_554 S
C100 N101 1.373 . S
C100 H128 0.930 . S
N101 C100 1.373 . S
N101 C103 1.340 . S
N102 C99 1.368 . S
N102 C103 1.321 1_556 S
N102 Co105 2.135 . S
C103 N101 1.340 . S
C103 N102 1.321 1_554 S
C103 H127 0.930 . S
H104 C99 0.931 . S
Co105 N102 2.135 . S
Co105 N108 2.121 . S
Co105 O113 2.055 . S
Co105 O116 2.039 . S
Co105 N119 2.140 . S
C106 O107 1.227 . S
C106 O116 1.265 . S
O107 C106 1.227 . S
N108 Co105 2.121 . S
N108 C110 1.375 . S
N108 C111 1.313 . S
C109 C110 1.338 . S
C109 N112 1.377 . S
C109 H129 0.930 . S
C110 N108 1.375 . S
C110 C109 1.338 . S
C110 H114 0.931 . S
C111 N108 1.313 . S
C111 N112 1.344 . S
C111 H115 0.930 . S
N112 C109 1.377 . S
N112 C111 1.344 . S
O113 Co105 2.055 . S
O113 C117 1.253 . S
H114 C110 0.931 . S
H115 C111 0.930 . S
O116 Co105 2.039 . S
O116 C106 1.265 . S
C117 O113 1.253 . S
C117 O118 1.227 . S
O118 C117 1.227 . S
N119 Co105 2.140 . S
N119 C122 1.346 . S
N119 C123 1.345 . S
C120 C121 1.387 . S
C120 C124 1.391 . S
C121 C120 1.387 . S
C121 C122 1.369 . S
C121 H130 0.929 . S
C122 N119 1.346 . S
C122 C121 1.369 . S
C122 H125 0.928 . S
C123 N119 1.345 . S
C123 C124 1.371 . S
C123 H126 0.931 . S
C124 C120 1.391 . S
C124 C123 1.371 . S
C124 H131 0.930 . S
H125 C122 0.928 . S
H126 C123 0.931 . S
H127 C103 0.930 . S
H128 C100 0.930 . S
H129 C109 0.930 . S
H130 C121 0.929 . S
H131 C124 0.930 . S
C132 C133 1.351 . S
C132 N135 1.368 . S
C132 H137 0.931 . S
C133 C132 1.351 . S
C133 N134 1.373 . S
C133 H161 0.930 . S
N134 C133 1.373 . S
N134 C136 1.340 . S
N135 C132 1.368 . S
N135 C136 1.321 . S
N135 Co138 2.135 . S
C136 N134 1.340 . S
C136 N135 1.321 . S
C136 H160 0.930 . S
H137 C132 0.931 . S
Co138 N135 2.135 . S
Co138 N141 2.121 1_556 S
Co138 O146 2.055 . S
Co138 O149 2.039 . S
Co138 N152 2.140 . S
C139 O140 1.227 . S
C139 O149 1.265 . S
O140 C139 1.227 . S
N141 Co138 2.121 1_554 S
N141 C143 1.375 . S
N141 C144 1.313 . S
C142 C143 1.338 . S
C142 N145 1.377 . S
C142 H162 0.930 . S
C143 N141 1.375 . S
C143 C142 1.338 . S
C143 H147 0.931 . S
C144 N141 1.313 . S
C144 N145 1.344 . S
C144 H148 0.930 . S
N145 C142 1.377 . S
N145 C144 1.344 . S
O146 Co138 2.055 . S
O146 C150 1.253 . S
H147 C143 0.931 . S
H148 C144 0.930 . S
O149 Co138 2.039 . S
O149 C139 1.265 . S
C150 O146 1.253 . S
C150 O151 1.227 . S
O151 C150 1.227 . S
N152 Co138 2.140 . S
N152 C155 1.346 . S
N152 C156 1.345 . S
C153 C154 1.387 . S
C153 C157 1.391 . S
C154 C153 1.387 . S
C154 C155 1.369 . S
C154 H163 0.929 . S
C155 N152 1.346 . S
C155 C154 1.369 . S
C155 H158 0.928 . S
C156 N152 1.345 . S
C156 C157 1.371 . S
C156 H159 0.931 1_556 S
C157 C153 1.391 . S
C157 C156 1.371 . S
C157 H164 0.930 1_556 S
H158 C155 0.928 . S
H159 C156 0.931 1_554 S
H160 C136 0.930 . S
H161 C133 0.930 . S
H162 C142 0.930 . S
H163 C154 0.929 . S
H164 C157 0.930 1_554 S
C165 C166 1.351 1_554 S
C165 N168 1.368 . S
C165 H170 0.931 . S
C166 C165 1.351 1_556 S
C166 N167 1.373 . S
C166 H194 0.930 . S
N167 C166 1.373 . S
N167 C169 1.340 . S
N168 C165 1.368 . S
N168 C169 1.321 1_554 S
N168 Co171 2.135 . S
C169 N167 1.340 . S
C169 N168 1.321 1_556 S
C169 H193 0.930 . S
H170 C165 0.931 . S
Co171 N168 2.135 . S
Co171 N174 2.121 . S
Co171 O179 2.055 . S
Co171 O182 2.039 . S
Co171 N185 2.140 . S
C172 O173 1.227 . S
C172 O182 1.265 . S
O173 C172 1.227 . S
N174 Co171 2.121 . S
N174 C176 1.375 . S
N174 C177 1.313 . S
C175 C176 1.338 . S
C175 N178 1.377 . S
C175 H195 0.930 . S
C176 N174 1.375 . S
C176 C175 1.338 . S
C176 H180 0.931 . S
C177 N174 1.313 . S
C177 N178 1.344 . S
C177 H181 0.930 . S
N178 C175 1.377 . S
N178 C177 1.344 . S
O179 Co171 2.055 . S
O179 C183 1.253 . S
H180 C176 0.931 . S
H181 C177 0.930 . S
O182 Co171 2.039 . S
O182 C172 1.265 . S
C183 O179 1.253 . S
C183 O184 1.227 . S
O184 C183 1.227 . S
N185 Co171 2.140 . S
N185 C188 1.346 . S
N185 C189 1.345 . S
C186 C187 1.387 . S
C186 C190 1.391 . S
C187 C186 1.387 . S
C187 C188 1.369 . S
C187 H196 0.929 . S
C188 N185 1.346 . S
C188 C187 1.369 . S
C188 H191 0.928 . S
C189 N185 1.345 . S
C189 C190 1.371 . S
C189 H192 0.931 . S
C190 C186 1.391 . S
C190 C189 1.371 . S
C190 H197 0.930 . S
H191 C188 0.928 . S
H192 C189 0.931 . S
H193 C169 0.930 . S
H194 C166 0.930 . S
H195 C175 0.930 . S
H196 C187 0.929 . S
H197 C190 0.930 . S
C198 C199 1.351 . S
C198 N201 1.368 . S
C198 H203 0.931 . S
C199 C198 1.351 . S
C199 N200 1.373 . S
C199 H227 0.930 . S
N200 C199 1.373 . S
N200 C202 1.340 . S
N201 C198 1.368 . S
N201 C202 1.321 . S
N201 Co204 2.135 . S
C202 N200 1.340 . S
C202 N201 1.321 . S
C202 H226 0.930 . S
H203 C198 0.931 . S
Co204 N201 2.135 . S
Co204 N207 2.121 . S
Co204 O212 2.055 . S
Co204 O215 2.039 . S
Co204 N218 2.140 . S
C205 O206 1.227 . S
C205 O215 1.265 . S
O206 C205 1.227 . S
N207 Co204 2.121 . S
N207 C209 1.375 . S
N207 C210 1.313 . S
C208 C209 1.338 . S
C208 N211 1.377 . S
C208 H228 0.930 . S
C209 N207 1.375 . S
C209 C208 1.338 . S
C209 H213 0.931 . S
C210 N207 1.313 . S
C210 N211 1.344 . S
C210 H214 0.930 . S
N211 C208 1.377 . S
N211 C210 1.344 . S
O212 Co204 2.055 . S
O212 C216 1.253 . S
H213 C209 0.931 . S
H214 C210 0.930 . S
O215 Co204 2.039 . S
O215 C205 1.265 . S
C216 O212 1.253 . S
C216 O217 1.227 . S
O217 C216 1.227 . S
N218 Co204 2.140 . S
N218 C221 1.346 . S
N218 C222 1.345 . S
C219 C220 1.387 . S
C219 C223 1.391 . S
C220 C219 1.387 . S
C220 C221 1.369 . S
C220 H229 0.929 . S
C221 N218 1.346 . S
C221 C220 1.369 . S
C221 H224 0.928 . S
C222 N218 1.345 . S
C222 C223 1.371 . S
C222 H225 0.931 . S
C223 C219 1.391 . S
C223 C222 1.371 . S
C223 H230 0.930 . S
H224 C221 0.928 . S
H225 C222 0.931 . S
H226 C202 0.930 . S
H227 C199 0.930 . S
H228 C208 0.930 . S
H229 C220 0.929 . S
H230 C223 0.930 . S
C231 C232 1.351 . S
C231 N234 1.368 . S
C231 H236 0.931 . S
C232 C231 1.351 . S
C232 N233 1.373 . S
C232 H260 0.930 . S
N233 C232 1.373 . S
N233 C235 1.340 . S
N234 C231 1.368 . S
N234 C235 1.321 . S
N234 Co237 2.135 . S
C235 N233 1.340 . S
C235 N234 1.321 . S
C235 H259 0.930 . S
H236 C231 0.931 . S
Co237 N234 2.135 . S
Co237 N240 2.121 . S
Co237 O245 2.055 . S
Co237 O248 2.039 . S
Co237 N251 2.140 . S
C238 O239 1.227 . S
C238 O248 1.265 . S
O239 C238 1.227 . S
N240 Co237 2.121 . S
N240 C242 1.375 . S
N240 C243 1.313 . S
C241 C242 1.338 . S
C241 N244 1.377 . S
C241 H261 0.930 . S
C242 N240 1.375 . S
C242 C241 1.338 . S
C242 H246 0.931 . S
C243 N240 1.313 . S
C243 N244 1.344 . S
C243 H247 0.930 . S
N244 C241 1.377 . S
N244 C243 1.344 . S
O245 Co237 2.055 . S
O245 C249 1.253 . S
H246 C242 0.931 . S
H247 C243 0.930 . S
O248 Co237 2.039 . S
O248 C238 1.265 . S
C249 O245 1.253 . S
C249 O250 1.227 . S
O250 C249 1.227 . S
N251 Co237 2.140 . S
N251 C254 1.346 . S
N251 C255 1.345 . S
C252 C253 1.387 . S
C252 C256 1.391 . S
C253 C252 1.387 . S
C253 C254 1.369 . S
C253 H262 0.929 . S
C254 N251 1.346 . S
C254 C253 1.369 . S
C254 H257 0.928 . S
C255 N251 1.345 . S
C255 C256 1.371 . S
C255 H258 0.931 . S
C256 C252 1.391 . S
C256 C255 1.371 . S
C256 H263 0.930 . S
H257 C254 0.928 . S
H258 C255 0.931 . S
H259 C235 0.930 . S
H260 C232 0.930 . S
H261 C241 0.930 . S
H262 C253 0.929 . S
H263 C256 0.930 . S
C264 C265 1.351 . S
C264 N267 1.368 . S
C264 H269 0.931 . S
C265 C264 1.351 . S
C265 N266 1.373 . S
C265 H293 0.930 . S
N266 C265 1.373 . S
N266 C268 1.340 . S
N267 C264 1.368 . S
N267 C268 1.321 . S
N267 Co270 2.135 . S
C268 N266 1.340 . S
C268 N267 1.321 . S
C268 H292 0.930 . S
H269 C264 0.931 . S
Co270 N267 2.135 . S
Co270 N273 2.121 1_556 S
Co270 O278 2.055 . S
Co270 O281 2.039 . S
Co270 N284 2.140 . S
C271 O272 1.227 . S
C271 O281 1.265 . S
O272 C271 1.227 . S
N273 Co270 2.121 1_554 S
N273 C275 1.375 . S
N273 C276 1.313 . S
C274 C275 1.338 . S
C274 N277 1.377 . S
C274 H294 0.930 . S
C275 N273 1.375 . S
C275 C274 1.338 . S
C275 H279 0.931 . S
C276 N273 1.313 . S
C276 N277 1.344 . S
C276 H280 0.930 . S
N277 C274 1.377 . S
N277 C276 1.344 . S
O278 Co270 2.055 . S
O278 C282 1.253 . S
H279 C275 0.931 . S
H280 C276 0.930 . S
O281 Co270 2.039 . S
O281 C271 1.265 . S
C282 O278 1.253 . S
C282 O283 1.227 . S
O283 C282 1.227 . S
N284 Co270 2.140 . S
N284 C287 1.346 . S
N284 C288 1.345 . S
C285 C286 1.387 . S
C285 C289 1.391 . S
C286 C285 1.387 . S
C286 C287 1.369 . S
C286 H295 0.929 . S
C287 N284 1.346 . S
C287 C286 1.369 . S
C287 H290 0.928 . S
C288 N284 1.345 . S
C288 C289 1.371 . S
C288 H291 0.931 1_556 S
C289 C285 1.391 . S
C289 C288 1.371 . S
C289 H296 0.930 1_556 S
H290 C287 0.928 . S
H291 C288 0.931 1_554 S
H292 C268 0.930 . S
H293 C265 0.930 . S
H294 C274 0.930 . S
H295 C286 0.929 . S
H296 C289 0.930 1_554 S
C297 C298 1.351 . S
C297 N300 1.368 . S
C297 H302 0.931 . S
C298 C297 1.351 . S
C298 N299 1.373 . S
C298 H326 0.930 . S
N299 C298 1.373 . S
N299 C301 1.340 . S
N300 C297 1.368 . S
N300 C301 1.321 . S
N300 Co303 2.135 . S
C301 N299 1.340 . S
C301 N300 1.321 . S
C301 H325 0.930 . S
H302 C297 0.931 . S
Co303 N300 2.135 . S
Co303 N306 2.121 . S
Co303 O311 2.055 . S
Co303 O314 2.039 . S
Co303 N317 2.140 . S
C304 O305 1.227 . S
C304 O314 1.265 . S
O305 C304 1.227 . S
N306 Co303 2.121 . S
N306 C308 1.375 . S
N306 C309 1.313 . S
C307 C308 1.338 . S
C307 N310 1.377 . S
C307 H327 0.930 . S
C308 N306 1.375 . S
C308 C307 1.338 . S
C308 H312 0.931 . S
C309 N306 1.313 . S
C309 N310 1.344 . S
C309 H313 0.930 . S
N310 C307 1.377 . S
N310 C309 1.344 . S
O311 Co303 2.055 . S
O311 C315 1.253 . S
H312 C308 0.931 . S
H313 C309 0.930 . S
O314 Co303 2.039 . S
O314 C304 1.265 . S
C315 O311 1.253 . S
C315 O316 1.227 . S
O316 C315 1.227 . S
N317 Co303 2.140 . S
N317 C320 1.346 . S
N317 C321 1.345 . S
C318 C319 1.387 . S
C318 C322 1.391 . S
C319 C318 1.387 . S
C319 C320 1.369 . S
C319 H328 0.929 . S
C320 N317 1.346 . S
C320 C319 1.369 . S
C320 H323 0.928 . S
C321 N317 1.345 . S
C321 C322 1.371 . S
C321 H324 0.931 . S
C322 C318 1.391 . S
C322 C321 1.371 . S
C322 H329 0.930 . S
H323 C320 0.928 . S
H324 C321 0.931 . S
H325 C301 0.930 . S
H326 C298 0.930 . S
H327 C307 0.930 . S
H328 C319 0.929 . S
H329 C322 0.930 . S
C330 C331 1.351 . S
C330 N333 1.368 . S
C330 H335 0.931 . S
C331 C330 1.351 . S
C331 N332 1.373 . S
C331 H359 0.930 . S
N332 C331 1.373 . S
N332 C334 1.340 . S
N333 C330 1.368 . S
N333 C334 1.321 . S
N333 Co336 2.135 . S
C334 N332 1.340 . S
C334 N333 1.321 . S
C334 H358 0.930 . S
H335 C330 0.931 . S
Co336 N333 2.135 . S
Co336 N339 2.121 . S
Co336 O344 2.055 . S
Co336 O347 2.039 . S
Co336 N350 2.140 . S
C337 O338 1.227 . S
C337 O347 1.265 . S
O338 C337 1.227 . S
N339 Co336 2.121 . S
N339 C341 1.375 . S
N339 C342 1.313 . S
C340 C341 1.338 . S
C340 N343 1.377 . S
C340 H360 0.930 . S
C341 N339 1.375 . S
C341 C340 1.338 . S
C341 H345 0.931 . S
C342 N339 1.313 . S
C342 N343 1.344 . S
C342 H346 0.930 . S
N343 C340 1.377 . S
N343 C342 1.344 . S
O344 Co336 2.055 . S
O344 C348 1.253 . S
H345 C341 0.931 . S
H346 C342 0.930 . S
O347 Co336 2.039 . S
O347 C337 1.265 . S
C348 O344 1.253 . S
C348 O349 1.227 . S
O349 C348 1.227 . S
N350 Co336 2.140 . S
N350 C353 1.346 . S
N350 C354 1.345 . S
C351 C352 1.387 . S
C351 C355 1.391 . S
C352 C351 1.387 . S
C352 C353 1.369 . S
C352 H361 0.929 . S
C353 N350 1.346 . S
C353 C352 1.369 . S
C353 H356 0.928 . S
C354 N350 1.345 . S
C354 C355 1.371 . S
C354 H357 0.931 . S
C355 C351 1.391 . S
C355 C354 1.371 . S
C355 H362 0.930 . S
H356 C353 0.928 . S
H357 C354 0.931 . S
H358 C334 0.930 . S
H359 C331 0.930 . S
H360 C340 0.930 . S
H361 C352 0.929 . S
H362 C355 0.930 . S
C363 C364 1.351 1_554 S
C363 N366 1.368 . S
C363 H368 0.931 . S
C364 C363 1.351 1_556 S
C364 N365 1.373 . S
C364 H392 0.930 . S
N365 C364 1.373 . S
N365 C367 1.340 . S
N366 C363 1.368 . S
N366 C367 1.321 1_554 S
N366 Co369 2.135 . S
C367 N365 1.340 . S
C367 N366 1.321 1_556 S
C367 H391 0.930 . S
H368 C363 0.931 . S
Co369 N366 2.135 . S
Co369 N372 2.121 . S
Co369 O377 2.055 . S
Co369 O380 2.039 . S
Co369 N383 2.140 . S
C370 O371 1.227 . S
C370 O380 1.265 . S
O371 C370 1.227 . S
N372 Co369 2.121 . S
N372 C374 1.375 . S
N372 C375 1.313 . S
C373 C374 1.338 . S
C373 N376 1.377 . S
C373 H393 0.930 . S
C374 N372 1.375 . S
C374 C373 1.338 . S
C374 H378 0.931 . S
C375 N372 1.313 . S
C375 N376 1.344 . S
C375 H379 0.930 . S
N376 C373 1.377 . S
N376 C375 1.344 . S
O377 Co369 2.055 . S
O377 C381 1.253 . S
H378 C374 0.931 . S
H379 C375 0.930 . S
O380 Co369 2.039 . S
O380 C370 1.265 . S
C381 O377 1.253 . S
C381 O382 1.227 . S
O382 C381 1.227 . S
N383 Co369 2.140 . S
N383 C386 1.346 . S
N383 C387 1.345 . S
C384 C385 1.387 . S
C384 C388 1.391 . S
C385 C384 1.387 . S
C385 C386 1.369 . S
C385 H394 0.929 . S
C386 N383 1.346 . S
C386 C385 1.369 . S
C386 H389 0.928 . S
C387 N383 1.345 . S
C387 C388 1.371 . S
C387 H390 0.931 . S
C388 C384 1.391 . S
C388 C387 1.371 . S
C388 H395 0.930 . S
H389 C386 0.928 . S
H390 C387 0.931 . S
H391 C367 0.930 . S
H392 C364 0.930 . S
H393 C373 0.930 . S
H394 C385 0.929 . S
H395 C388 0.930 . S
C396 C397 1.351 . S
C396 N399 1.368 . S
C396 H401 0.931 . S
C397 C396 1.351 . S
C397 N398 1.373 . S
C397 H425 0.930 . S
N398 C397 1.373 . S
N398 C400 1.340 . S
N399 C396 1.368 . S
N399 C400 1.321 . S
N399 Co402 2.135 . S
C400 N398 1.340 . S
C400 N399 1.321 . S
C400 H424 0.930 . S
H401 C396 0.931 . S
Co402 N399 2.135 . S
Co402 N405 2.121 1_554 S
Co402 O410 2.055 . S
Co402 O413 2.039 . S
Co402 N416 2.140 . S
C403 O404 1.227 . S
C403 O413 1.265 . S
O404 C403 1.227 . S
N405 Co402 2.121 1_556 S
N405 C407 1.375 . S
N405 C408 1.313 . S
C406 C407 1.338 . S
C406 N409 1.377 . S
C406 H426 0.930 . S
C407 N405 1.375 . S
C407 C406 1.338 . S
C407 H411 0.931 . S
C408 N405 1.313 . S
C408 N409 1.344 . S
C408 H412 0.930 . S
N409 C406 1.377 . S
N409 C408 1.344 . S
O410 Co402 2.055 . S
O410 C414 1.253 . S
H411 C407 0.931 . S
H412 C408 0.930 . S
O413 Co402 2.039 . S
O413 C403 1.265 . S
C414 O410 1.253 . S
C414 O415 1.227 . S
O415 C414 1.227 . S
N416 Co402 2.140 . S
N416 C419 1.346 . S
N416 C420 1.345 . S
C417 C418 1.387 . S
C417 C421 1.391 . S
C418 C417 1.387 . S
C418 C419 1.369 . S
C418 H427 0.929 . S
C419 N416 1.346 . S
C419 C418 1.369 . S
C419 H422 0.928 . S
C420 N416 1.345 . S
C420 C421 1.371 . S
C420 H423 0.931 1_554 S
C421 C417 1.391 . S
C421 C420 1.371 . S
C421 H428 0.930 1_554 S
H422 C419 0.928 . S
H423 C420 0.931 1_556 S
H424 C400 0.930 . S
H425 C397 0.930 . S
H426 C406 0.930 . S
H427 C418 0.929 . S
H428 C421 0.930 1_556 S
C429 C430 1.351 1_556 S
C429 N432 1.368 . S
C429 H434 0.931 . S
C430 C429 1.351 1_554 S
C430 N431 1.373 . S
C430 H458 0.930 . S
N431 C430 1.373 . S
N431 C433 1.340 . S
N432 C429 1.368 . S
N432 C433 1.321 1_556 S
N432 Co435 2.135 . S
C433 N431 1.340 . S
C433 N432 1.321 1_554 S
C433 H457 0.930 . S
H434 C429 0.931 . S
Co435 N432 2.135 . S
Co435 N438 2.121 . S
Co435 O443 2.055 . S
Co435 O446 2.039 . S
Co435 N449 2.140 . S
C436 O437 1.227 . S
C436 O446 1.265 . S
O437 C436 1.227 . S
N438 Co435 2.121 . S
N438 C440 1.375 . S
N438 C441 1.313 . S
C439 C440 1.338 . S
C439 N442 1.377 . S
C439 H459 0.930 . S
C440 N438 1.375 . S
C440 C439 1.338 . S
C440 H444 0.931 . S
C441 N438 1.313 . S
C441 N442 1.344 . S
C441 H445 0.930 . S
N442 C439 1.377 . S
N442 C441 1.344 . S
O443 Co435 2.055 . S
O443 C447 1.253 . S
H444 C440 0.931 . S
H445 C441 0.930 . S
O446 Co435 2.039 . S
O446 C436 1.265 . S
C447 O443 1.253 . S
C447 O448 1.227 . S
O448 C447 1.227 . S
N449 Co435 2.140 . S
N449 C452 1.346 . S
N449 C453 1.345 . S
C450 C451 1.387 . S
C450 C454 1.391 . S
C451 C450 1.387 . S
C451 C452 1.369 . S
C451 H460 0.929 . S
C452 N449 1.346 . S
C452 C451 1.369 . S
C452 H455 0.928 . S
C453 N449 1.345 . S
C453 C454 1.371 . S
C453 H456 0.931 . S
C454 C450 1.391 . S
C454 C453 1.371 . S
C454 H461 0.930 . S
H455 C452 0.928 . S
H456 C453 0.931 . S
H457 C433 0.930 . S
H458 C430 0.930 . S
H459 C439 0.930 . S
H460 C451 0.929 . S
H461 C454 0.930 . S
C462 C463 1.351 . S
C462 N465 1.368 . S
C462 H467 0.931 . S
C463 C462 1.351 . S
C463 N464 1.373 . S
C463 H491 0.930 . S
N464 C463 1.373 . S
N464 C466 1.340 . S
N465 C462 1.368 . S
N465 C466 1.321 . S
N465 Co468 2.135 . S
C466 N464 1.340 . S
C466 N465 1.321 . S
C466 H490 0.930 . S
H467 C462 0.931 . S
Co468 N465 2.135 . S
Co468 N471 2.121 . S
Co468 O476 2.055 . S
Co468 O479 2.039 . S
Co468 N482 2.140 . S
C469 O470 1.227 . S
C469 O479 1.265 . S
O470 C469 1.227 . S
N471 Co468 2.121 . S
N471 C473 1.375 . S
N471 C474 1.313 . S
C472 C473 1.338 . S
C472 N475 1.377 . S
C472 H492 0.930 . S
C473 N471 1.375 . S
C473 C472 1.338 . S
C473 H477 0.931 . S
C474 N471 1.313 . S
C474 N475 1.344 . S
C474 H478 0.930 . S
N475 C472 1.377 . S
N475 C474 1.344 . S
O476 Co468 2.055 . S
O476 C480 1.253 . S
H477 C473 0.931 . S
H478 C474 0.930 . S
O479 Co468 2.039 . S
O479 C469 1.265 . S
C480 O476 1.253 . S
C480 O481 1.227 . S
O481 C480 1.227 . S
N482 Co468 2.140 . S
N482 C485 1.346 . S
N482 C486 1.345 . S
C483 C484 1.387 . S
C483 C487 1.391 . S
C484 C483 1.387 . S
C484 C485 1.369 . S
C484 H493 0.929 . S
C485 N482 1.346 . S
C485 C484 1.369 . S
C485 H488 0.928 . S
C486 N482 1.345 . S
C486 C487 1.371 . S
C486 H489 0.931 . S
C487 C483 1.391 . S
C487 C486 1.371 . S
C487 H494 0.930 . S
H488 C485 0.928 . S
H489 C486 0.931 . S
H490 C466 0.930 . S
H491 C463 0.930 . S
H492 C472 0.930 . S
H493 C484 0.929 . S
H494 C487 0.930 . S
C495 C496 1.351 . S
C495 N498 1.368 . S
C495 H500 0.931 . S
C496 C495 1.351 . S
C496 N497 1.373 . S
C496 H524 0.930 . S
N497 C496 1.373 . S
N497 C499 1.340 . S
N498 C495 1.368 . S
N498 C499 1.321 . S
N498 Co501 2.135 . S
C499 N497 1.340 . S
C499 N498 1.321 . S
C499 H523 0.930 . S
H500 C495 0.931 . S
Co501 N498 2.135 . S
Co501 N504 2.121 . S
Co501 O509 2.055 . S
Co501 O512 2.039 . S
Co501 N515 2.140 . S
C502 O503 1.227 . S
C502 O512 1.265 . S
O503 C502 1.227 . S
N504 Co501 2.121 . S
N504 C506 1.375 . S
N504 C507 1.313 . S
C505 C506 1.338 . S
C505 N508 1.377 . S
C505 H525 0.930 . S
C506 N504 1.375 . S
C506 C505 1.338 . S
C506 H510 0.931 . S
C507 N504 1.313 . S
C507 N508 1.344 . S
C507 H511 0.930 . S
N508 C505 1.377 . S
N508 C507 1.344 . S
O509 Co501 2.055 . S
O509 C513 1.253 . S
H510 C506 0.931 . S
H511 C507 0.930 . S
O512 Co501 2.039 . S
O512 C502 1.265 . S
C513 O509 1.253 . S
C513 O514 1.227 . S
O514 C513 1.227 . S
N515 Co501 2.140 . S
N515 C518 1.346 . S
N515 C519 1.345 . S
C516 C517 1.387 . S
C516 C520 1.391 . S
C517 C516 1.387 . S
C517 C518 1.369 . S
C517 H526 0.929 . S
C518 N515 1.346 . S
C518 C517 1.369 . S
C518 H521 0.928 . S
C519 N515 1.345 . S
C519 C520 1.371 . S
C519 H522 0.931 . S
C520 C516 1.391 . S
C520 C519 1.371 . S
C520 H527 0.930 . S
H521 C518 0.928 . S
H522 C519 0.931 . S
H523 C499 0.930 . S
H524 C496 0.930 . S
H525 C505 0.930 . S
H526 C517 0.929 . S
H527 C520 0.930 . S
C528 C529 1.351 . S
C528 N531 1.368 . S
C528 H533 0.931 . S
C529 C528 1.351 . S
C529 N530 1.373 . S
C529 H557 0.930 . S
N530 C529 1.373 . S
N530 C532 1.340 . S
N531 C528 1.368 . S
N531 C532 1.321 . S
N531 Co534 2.135 . S
C532 N530 1.340 . S
C532 N531 1.321 . S
C532 H556 0.930 . S
H533 C528 0.931 . S
Co534 N531 2.135 . S
Co534 N537 2.121 . S
Co534 O542 2.055 . S
Co534 O545 2.039 . S
Co534 N548 2.140 . S
C535 O536 1.227 . S
C535 O545 1.265 . S
O536 C535 1.227 . S
N537 Co534 2.121 . S
N537 C539 1.375 . S
N537 C540 1.313 . S
C538 C539 1.338 . S
C538 N541 1.377 . S
C538 H558 0.930 . S
C539 N537 1.375 . S
C539 C538 1.338 . S
C539 H543 0.931 . S
C540 N537 1.313 . S
C540 N541 1.344 . S
C540 H544 0.930 . S
N541 C538 1.377 . S
N541 C540 1.344 . S
O542 Co534 2.055 . S
O542 C546 1.253 . S
H543 C539 0.931 . S
H544 C540 0.930 . S
O545 Co534 2.039 . S
O545 C535 1.265 . S
C546 O542 1.253 . S
C546 O547 1.227 . S
O547 C546 1.227 . S
N548 Co534 2.140 . S
N548 C551 1.346 . S
N548 C552 1.345 . S
C549 C550 1.387 . S
C549 C553 1.391 . S
C550 C549 1.387 . S
C550 C551 1.369 . S
C550 H559 0.929 . S
C551 N548 1.346 . S
C551 C550 1.369 . S
C551 H554 0.928 . S
C552 N548 1.345 . S
C552 C553 1.371 . S
C552 H555 0.931 . S
C553 C549 1.391 . S
C553 C552 1.371 . S
C553 H560 0.930 . S
H554 C551 0.928 . S
H555 C552 0.931 . S
H556 C532 0.930 . S
H557 C529 0.930 . S
H558 C538 0.930 . S
H559 C550 0.929 . S
H560 C553 0.930 . S
C561 C562 1.351 1_556 S
C561 N564 1.368 . S
C561 H566 0.931 . S
C562 C561 1.351 1_554 S
C562 N563 1.373 . S
C562 H590 0.930 . S
N563 C562 1.373 . S
N563 C565 1.340 . S
N564 C561 1.368 . S
N564 C565 1.321 1_556 S
N564 Co567 2.135 . S
C565 N563 1.340 . S
C565 N564 1.321 1_554 S
C565 H589 0.930 . S
H566 C561 0.931 . S
Co567 N564 2.135 . S
Co567 N570 2.121 . S
Co567 O575 2.055 . S
Co567 O578 2.039 . S
Co567 N581 2.140 . S
C568 O569 1.227 . S
C568 O578 1.265 . S
O569 C568 1.227 . S
N570 Co567 2.121 . S
N570 C572 1.375 . S
N570 C573 1.313 . S
C571 C572 1.338 . S
C571 N574 1.377 . S
C571 H591 0.930 . S
C572 N570 1.375 . S
C572 C571 1.338 . S
C572 H576 0.931 . S
C573 N570 1.313 . S
C573 N574 1.344 . S
C573 H577 0.930 . S
N574 C571 1.377 . S
N574 C573 1.344 . S
O575 Co567 2.055 . S
O575 C579 1.253 . S
H576 C572 0.931 . S
H577 C573 0.930 . S
O578 Co567 2.039 . S
O578 C568 1.265 . S
C579 O575 1.253 . S
C579 O580 1.227 . S
O580 C579 1.227 . S
N581 Co567 2.140 . S
N581 C584 1.346 . S
N581 C585 1.345 . S
C582 C583 1.387 . S
C582 C586 1.391 . S
C583 C582 1.387 . S
C583 C584 1.369 . S
C583 H592 0.929 . S
C584 N581 1.346 . S
C584 C583 1.369 . S
C584 H587 0.928 . S
C585 N581 1.345 . S
C585 C586 1.371 . S
C585 H588 0.931 . S
C586 C582 1.391 . S
C586 C585 1.371 . S
C586 H593 0.930 . S
H587 C584 0.928 . S
H588 C585 0.931 . S
H589 C565 0.930 . S
H590 C562 0.930 . S
H591 C571 0.930 . S
H592 C583 0.929 . S
H593 C586 0.930 . S
C594 C595 1.351 . S
C594 N597 1.368 . S
C594 H599 0.931 . S
C595 C594 1.351 . S
C595 N596 1.373 . S
C595 H623 0.930 . S
N596 C595 1.373 . S
N596 C598 1.340 . S
N597 C594 1.368 . S
N597 C598 1.321 . S
N597 Co600 2.135 . S
C598 N596 1.340 . S
C598 N597 1.321 . S
C598 H622 0.930 . S
H599 C594 0.931 . S
Co600 N597 2.135 . S
Co600 N603 2.121 1_554 S
Co600 O608 2.055 . S
Co600 O611 2.039 . S
Co600 N614 2.140 . S
C601 O602 1.227 . S
C601 O611 1.265 . S
O602 C601 1.227 . S
N603 Co600 2.121 1_556 S
N603 C605 1.375 . S
N603 C606 1.313 . S
C604 C605 1.338 . S
C604 N607 1.377 . S
C604 H624 0.930 . S
C605 N603 1.375 . S
C605 C604 1.338 . S
C605 H609 0.931 . S
C606 N603 1.313 . S
C606 N607 1.344 . S
C606 H610 0.930 . S
N607 C604 1.377 . S
N607 C606 1.344 . S
O608 Co600 2.055 . S
O608 C612 1.253 . S
H609 C605 0.931 . S
H610 C606 0.930 . S
O611 Co600 2.039 . S
O611 C601 1.265 . S
C612 O608 1.253 . S
C612 O613 1.227 . S
O613 C612 1.227 . S
N614 Co600 2.140 . S
N614 C617 1.346 . S
N614 C618 1.345 . S
C615 C616 1.387 . S
C615 C619 1.391 . S
C616 C615 1.387 . S
C616 C617 1.369 . S
C616 H625 0.929 . S
C617 N614 1.346 . S
C617 C616 1.369 . S
C617 H620 0.928 . S
C618 N614 1.345 . S
C618 C619 1.371 . S
C618 H621 0.931 1_554 S
C619 C615 1.391 . S
C619 C618 1.371 . S
C619 H626 0.930 1_554 S
H620 C617 0.928 . S
H621 C618 0.931 1_556 S
H622 C598 0.930 . S
H623 C595 0.930 . S
H624 C604 0.930 . S
H625 C616 0.929 . S
H626 C619 0.930 1_556 S
C627 C628 1.351 . S
C627 N630 1.368 . S
C627 H632 0.931 . S
C628 C627 1.351 . S
C628 N629 1.373 . S
C628 H656 0.930 . S
N629 C628 1.373 . S
N629 C631 1.340 . S
N630 C627 1.368 . S
N630 C631 1.321 . S
N630 Co633 2.135 . S
C631 N629 1.340 . S
C631 N630 1.321 . S
C631 H655 0.930 . S
H632 C627 0.931 . S
Co633 N630 2.135 . S
Co633 N636 2.121 . S
Co633 O641 2.055 . S
Co633 O644 2.039 . S
Co633 N647 2.140 . S
C634 O635 1.227 . S
C634 O644 1.265 . S
O635 C634 1.227 . S
N636 Co633 2.121 . S
N636 C638 1.375 . S
N636 C639 1.313 . S
C637 C638 1.338 . S
C637 N640 1.377 . S
C637 H657 0.930 . S
C638 N636 1.375 . S
C638 C637 1.338 . S
C638 H642 0.931 . S
C639 N636 1.313 . S
C639 N640 1.344 . S
C639 H643 0.930 . S
N640 C637 1.377 . S
N640 C639 1.344 . S
O641 Co633 2.055 . S
O641 C645 1.253 . S
H642 C638 0.931 . S
H643 C639 0.930 . S
O644 Co633 2.039 . S
O644 C634 1.265 . S
C645 O641 1.253 . S
C645 O646 1.227 . S
O646 C645 1.227 . S
N647 Co633 2.140 . S
N647 C650 1.346 . S
N647 C651 1.345 . S
C648 C649 1.387 . S
C648 C652 1.391 . S
C649 C648 1.387 . S
C649 C650 1.369 . S
C649 H658 0.929 . S
C650 N647 1.346 . S
C650 C649 1.369 . S
C650 H653 0.928 . S
C651 N647 1.345 . S
C651 C652 1.371 . S
C651 H654 0.931 . S
C652 C648 1.391 . S
C652 C651 1.371 . S
C652 H659 0.930 . S
H653 C650 0.928 . S
H654 C651 0.931 . S
H655 C631 0.930 . S
H656 C628 0.930 . S
H657 C637 0.930 . S
H658 C649 0.929 . S
H659 C652 0.930 . S
C660 C661 1.351 . S
C660 N663 1.368 . S
C660 H665 0.931 . S
C661 C660 1.351 . S
C661 N662 1.373 . S
C661 H689 0.930 . S
N662 C661 1.373 . S
N662 C664 1.340 . S
N663 C660 1.368 . S
N663 C664 1.321 . S
N663 Co666 2.135 . S
C664 N662 1.340 . S
C664 N663 1.321 . S
C664 H688 0.930 . S
H665 C660 0.931 . S
Co666 N663 2.135 . S
Co666 N669 2.121 . S
Co666 O674 2.055 . S
Co666 O677 2.039 . S
Co666 N680 2.140 . S
C667 O668 1.227 . S
C667 O677 1.265 . S
O668 C667 1.227 . S
N669 Co666 2.121 . S
N669 C671 1.375 . S
N669 C672 1.313 . S
C670 C671 1.338 . S
C670 N673 1.377 . S
C670 H690 0.930 . S
C671 N669 1.375 . S
C671 C670 1.338 . S
C671 H675 0.931 . S
C672 N669 1.313 . S
C672 N673 1.344 . S
C672 H676 0.930 . S
N673 C670 1.377 . S
N673 C672 1.344 . S
O674 Co666 2.055 . S
O674 C678 1.253 . S
H675 C671 0.931 . S
H676 C672 0.930 . S
O677 Co666 2.039 . S
O677 C667 1.265 . S
C678 O674 1.253 . S
C678 O679 1.227 . S
O679 C678 1.227 . S
N680 Co666 2.140 . S
N680 C683 1.346 . S
N680 C684 1.345 . S
C681 C682 1.387 . S
C681 C685 1.391 . S
C682 C681 1.387 . S
C682 C683 1.369 . S
C682 H691 0.929 . S
C683 N680 1.346 . S
C683 C682 1.369 . S
C683 H686 0.928 . S
C684 N680 1.345 . S
C684 C685 1.371 . S
C684 H687 0.931 . S
C685 C681 1.391 . S
C685 C684 1.371 . S
C685 H692 0.930 . S
H686 C683 0.928 . S
H687 C684 0.931 . S
H688 C664 0.930 . S
H689 C661 0.930 . S
H690 C670 0.930 . S
H691 C682 0.929 . S
H692 C685 0.930 . S
C693 C694 1.351 . S
C693 N696 1.368 . S
C693 H698 0.931 . S
C694 C693 1.351 . S
C694 N695 1.373 . S
C694 H722 0.930 . S
N695 C694 1.373 . S
N695 C697 1.340 . S
N696 C693 1.368 . S
N696 C697 1.321 . S
N696 Co699 2.135 . S
C697 N695 1.340 . S
C697 N696 1.321 . S
C697 H721 0.930 . S
H698 C693 0.931 . S
Co699 N696 2.135 . S
Co699 N702 2.121 . S
Co699 O707 2.055 . S
Co699 O710 2.039 . S
Co699 N713 2.140 . S
C700 O701 1.227 . S
C700 O710 1.265 . S
O701 C700 1.227 . S
N702 Co699 2.121 . S
N702 C704 1.375 . S
N702 C705 1.313 . S
C703 C704 1.338 . S
C703 N706 1.377 . S
C703 H723 0.930 . S
C704 N702 1.375 . S
C704 C703 1.338 . S
C704 H708 0.931 . S
C705 N702 1.313 . S
C705 N706 1.344 . S
C705 H709 0.930 . S
N706 C703 1.377 . S
N706 C705 1.344 . S
O707 Co699 2.055 . S
O707 C711 1.253 . S
H708 C704 0.931 . S
H709 C705 0.930 . S
O710 Co699 2.039 . S
O710 C700 1.265 . S
C711 O707 1.253 . S
C711 O712 1.227 . S
O712 C711 1.227 . S
N713 Co699 2.140 . S
N713 C716 1.346 . S
N713 C717 1.345 . S
C714 C715 1.387 . S
C714 C718 1.391 . S
C715 C714 1.387 . S
C715 C716 1.369 . S
C715 H724 0.929 . S
C716 N713 1.346 . S
C716 C715 1.369 . S
C716 H719 0.928 . S
C717 N713 1.345 . S
C717 C718 1.371 . S
C717 H720 0.931 . S
C718 C714 1.391 . S
C718 C717 1.371 . S
C718 H725 0.930 . S
H719 C716 0.928 . S
H720 C717 0.931 . S
H721 C697 0.930 . S
H722 C694 0.930 . S
H723 C703 0.930 . S
H724 C715 0.929 . S
H725 C718 0.930 . S
C726 C727 1.351 . S
C726 N729 1.368 . S
C726 H731 0.931 . S
C727 C726 1.351 . S
C727 N728 1.373 . S
C727 H755 0.930 . S
N728 C727 1.373 . S
N728 C730 1.340 . S
N729 C726 1.368 . S
N729 C730 1.321 . S
N729 Co732 2.135 . S
C730 N728 1.340 . S
C730 N729 1.321 . S
C730 H754 0.930 . S
H731 C726 0.931 . S
Co732 N729 2.135 . S
Co732 N735 2.121 1_556 S
Co732 O740 2.055 . S
Co732 O743 2.039 . S
Co732 N746 2.140 . S
C733 O734 1.227 . S
C733 O743 1.265 . S
O734 C733 1.227 . S
N735 Co732 2.121 1_554 S
N735 C737 1.375 . S
N735 C738 1.313 . S
C736 C737 1.338 . S
C736 N739 1.377 . S
C736 H756 0.930 . S
C737 N735 1.375 . S
C737 C736 1.338 . S
C737 H741 0.931 . S
C738 N735 1.313 . S
C738 N739 1.344 . S
C738 H742 0.930 . S
N739 C736 1.377 . S
N739 C738 1.344 . S
O740 Co732 2.055 . S
O740 C744 1.253 . S
H741 C737 0.931 . S
H742 C738 0.930 . S
O743 Co732 2.039 . S
O743 C733 1.265 . S
C744 O740 1.253 . S
C744 O745 1.227 . S
O745 C744 1.227 . S
N746 Co732 2.140 . S
N746 C749 1.346 . S
N746 C750 1.345 . S
C747 C748 1.387 . S
C747 C751 1.391 . S
C748 C747 1.387 . S
C748 C749 1.369 . S
C748 H757 0.929 . S
C749 N746 1.346 . S
C749 C748 1.369 . S
C749 H752 0.928 . S
C750 N746 1.345 . S
C750 C751 1.371 . S
C750 H753 0.931 1_556 S
C751 C747 1.391 . S
C751 C750 1.371 . S
C751 H758 0.930 1_556 S
H752 C749 0.928 . S
H753 C750 0.931 1_554 S
H754 C730 0.930 . S
H755 C727 0.930 . S
H756 C736 0.930 . S
H757 C748 0.929 . S
H758 C751 0.930 1_554 S
C759 C760 1.351 1_554 S
C759 N762 1.368 . S
C759 H764 0.931 . S
C760 C759 1.351 1_556 S
C760 N761 1.373 . S
C760 H788 0.930 . S
N761 C760 1.373 . S
N761 C763 1.340 . S
N762 C759 1.368 . S
N762 C763 1.321 1_554 S
N762 Co765 2.135 . S
C763 N761 1.340 . S
C763 N762 1.321 1_556 S
C763 H787 0.930 . S
H764 C759 0.931 . S
Co765 N762 2.135 . S
Co765 N768 2.121 . S
Co765 O773 2.055 . S
Co765 O776 2.039 . S
Co765 N779 2.140 . S
C766 O767 1.227 . S
C766 O776 1.265 . S
O767 C766 1.227 . S
N768 Co765 2.121 . S
N768 C770 1.375 . S
N768 C771 1.313 . S
C769 C770 1.338 . S
C769 N772 1.377 . S
C769 H789 0.930 . S
C770 N768 1.375 . S
C770 C769 1.338 . S
C770 H774 0.931 . S
C771 N768 1.313 . S
C771 N772 1.344 . S
C771 H775 0.930 . S
N772 C769 1.377 . S
N772 C771 1.344 . S
O773 Co765 2.055 . S
O773 C777 1.253 . S
H774 C770 0.931 . S
H775 C771 0.930 . S
O776 Co765 2.039 . S
O776 C766 1.265 . S
C777 O773 1.253 . S
C777 O778 1.227 . S
O778 C777 1.227 . S
N779 Co765 2.140 . S
N779 C782 1.346 . S
N779 C783 1.345 . S
C780 C781 1.387 . S
C780 C784 1.391 . S
C781 C780 1.387 . S
C781 C782 1.369 . S
C781 H790 0.929 . S
C782 N779 1.346 . S
C782 C781 1.369 . S
C782 H785 0.928 . S
C783 N779 1.345 . S
C783 C784 1.371 . S
C783 H786 0.931 . S
C784 C780 1.391 . S
C784 C783 1.371 . S
C784 H791 0.930 . S
H785 C782 0.928 . S
H786 C783 0.931 . S
H787 C763 0.930 . S
H788 C760 0.930 . S
H789 C769 0.930 . S
H790 C781 0.929 . S
H791 C784 0.930 . S
C792 C793 1.351 . S
C792 N795 1.368 . S
C792 H797 0.931 . S
C793 C792 1.351 . S
C793 N794 1.373 . S
C793 H821 0.930 . S
N794 C793 1.373 . S
N794 C796 1.340 . S
N795 C792 1.368 . S
N795 C796 1.321 . S
N795 Co798 2.135 . S
C796 N794 1.340 . S
C796 N795 1.321 . S
C796 H820 0.930 . S
H797 C792 0.931 . S
Co798 N795 2.135 . S
Co798 N801 2.121 . S
Co798 O806 2.055 . S
Co798 O809 2.039 . S
Co798 N812 2.140 . S
C799 O800 1.227 . S
C799 O809 1.265 . S
O800 C799 1.227 . S
N801 Co798 2.121 . S
N801 C803 1.375 . S
N801 C804 1.313 . S
C802 C803 1.338 . S
C802 N805 1.377 . S
C802 H822 0.930 . S
C803 N801 1.375 . S
C803 C802 1.338 . S
C803 H807 0.931 . S
C804 N801 1.313 . S
C804 N805 1.344 . S
C804 H808 0.930 . S
N805 C802 1.377 . S
N805 C804 1.344 . S
O806 Co798 2.055 . S
O806 C810 1.253 . S
H807 C803 0.931 . S
H808 C804 0.930 . S
O809 Co798 2.039 . S
O809 C799 1.265 . S
C810 O806 1.253 . S
C810 O811 1.227 . S
O811 C810 1.227 . S
N812 Co798 2.140 . S
N812 C815 1.346 . S
N812 C816 1.345 . S
C813 C814 1.387 . S
C813 C817 1.391 . S
C814 C813 1.387 . S
C814 C815 1.369 . S
C814 H823 0.929 . S
C815 N812 1.346 . S
C815 C814 1.369 . S
C815 H818 0.928 . S
C816 N812 1.345 . S
C816 C817 1.371 . S
C816 H819 0.931 . S
C817 C813 1.391 . S
C817 C816 1.371 . S
C817 H824 0.930 . S
H818 C815 0.928 . S
H819 C816 0.931 . S
H820 C796 0.930 . S
H821 C793 0.930 . S
H822 C802 0.930 . S
H823 C814 0.929 . S
H824 C817 0.930 . S
C825 C826 1.351 1_554 S
C825 N828 1.368 . S
C825 H830 0.931 . S
C826 C825 1.351 1_556 S
C826 N827 1.373 . S
C826 H854 0.930 . S
N827 C826 1.373 . S
N827 C829 1.340 . S
N828 C825 1.368 . S
N828 C829 1.321 1_554 S
N828 Co831 2.135 . S
C829 N827 1.340 . S
C829 N828 1.321 1_556 S
C829 H853 0.930 . S
H830 C825 0.931 . S
Co831 N828 2.135 . S
Co831 N834 2.121 . S
Co831 O839 2.055 . S
Co831 O842 2.039 . S
Co831 N845 2.140 . S
C832 O833 1.227 . S
C832 O842 1.265 . S
O833 C832 1.227 . S
N834 Co831 2.121 . S
N834 C836 1.375 . S
N834 C837 1.313 . S
C835 C836 1.338 . S
C835 N838 1.377 . S
C835 H855 0.930 . S
C836 N834 1.375 . S
C836 C835 1.338 . S
C836 H840 0.931 . S
C837 N834 1.313 . S
C837 N838 1.344 . S
C837 H841 0.930 . S
N838 C835 1.377 . S
N838 C837 1.344 . S
O839 Co831 2.055 . S
O839 C843 1.253 . S
H840 C836 0.931 . S
H841 C837 0.930 . S
O842 Co831 2.039 . S
O842 C832 1.265 . S
C843 O839 1.253 . S
C843 O844 1.227 . S
O844 C843 1.227 . S
N845 Co831 2.140 . S
N845 C848 1.346 . S
N845 C849 1.345 . S
C846 C847 1.387 . S
C846 C850 1.391 . S
C847 C846 1.387 . S
C847 C848 1.369 . S
C847 H856 0.929 . S
C848 N845 1.346 . S
C848 C847 1.369 . S
C848 H851 0.928 . S
C849 N845 1.345 . S
C849 C850 1.371 . S
C849 H852 0.931 . S
C850 C846 1.391 . S
C850 C849 1.371 . S
C850 H857 0.930 . S
H851 C848 0.928 . S
H852 C849 0.931 . S
H853 C829 0.930 . S
H854 C826 0.930 . S
H855 C835 0.930 . S
H856 C847 0.929 . S
H857 C850 0.930 . S
C858 C859 1.351 . S
C858 N861 1.368 . S
C858 H863 0.931 . S
C859 C858 1.351 . S
C859 N860 1.373 . S
C859 H887 0.930 . S
N860 C859 1.373 . S
N860 C862 1.340 . S
N861 C858 1.368 . S
N861 C862 1.321 . S
N861 Co864 2.135 . S
C862 N860 1.340 . S
C862 N861 1.321 . S
C862 H886 0.930 . S
H863 C858 0.931 . S
Co864 N861 2.135 . S
Co864 N867 2.121 1_556 S
Co864 O872 2.055 . S
Co864 O875 2.039 . S
Co864 N878 2.140 . S
C865 O866 1.227 . S
C865 O875 1.265 . S
O866 C865 1.227 . S
N867 Co864 2.121 1_554 S
N867 C869 1.375 . S
N867 C870 1.313 . S
C868 C869 1.338 . S
C868 N871 1.377 . S
C868 H888 0.930 . S
C869 N867 1.375 . S
C869 C868 1.338 . S
C869 H873 0.931 . S
C870 N867 1.313 . S
C870 N871 1.344 . S
C870 H874 0.930 . S
N871 C868 1.377 . S
N871 C870 1.344 . S
O872 Co864 2.055 . S
O872 C876 1.253 . S
H873 C869 0.931 . S
H874 C870 0.930 . S
O875 Co864 2.039 . S
O875 C865 1.265 . S
C876 O872 1.253 . S
C876 O877 1.227 . S
O877 C876 1.227 . S
N878 Co864 2.140 . S
N878 C881 1.346 . S
N878 C882 1.345 . S
C879 C880 1.387 . S
C879 C883 1.391 . S
C880 C879 1.387 . S
C880 C881 1.369 . S
C880 H889 0.929 . S
C881 N878 1.346 . S
C881 C880 1.369 . S
C881 H884 0.928 . S
C882 N878 1.345 . S
C882 C883 1.371 . S
C882 H885 0.931 1_556 S
C883 C879 1.391 . S
C883 C882 1.371 . S
C883 H890 0.930 1_556 S
H884 C881 0.928 . S
H885 C882 0.931 1_554 S
H886 C862 0.930 . S
H887 C859 0.930 . S
H888 C868 0.930 . S
H889 C880 0.929 . S
H890 C883 0.930 1_554 S
C891 C892 1.351 . S
C891 N894 1.368 . S
C891 H896 0.931 . S
C892 C891 1.351 . S
C892 N893 1.373 . S
C892 H920 0.930 . S
N893 C892 1.373 . S
N893 C895 1.340 . S
N894 C891 1.368 . S
N894 C895 1.321 . S
N894 Co897 2.135 . S
C895 N893 1.340 . S
C895 N894 1.321 . S
C895 H919 0.930 . S
H896 C891 0.931 . S
Co897 N894 2.135 . S
Co897 N900 2.121 . S
Co897 O905 2.055 . S
Co897 O908 2.039 . S
Co897 N911 2.140 . S
C898 O899 1.227 . S
C898 O908 1.265 . S
O899 C898 1.227 . S
N900 Co897 2.121 . S
N900 C902 1.375 . S
N900 C903 1.313 . S
C901 C902 1.338 . S
C901 N904 1.377 . S
C901 H921 0.930 . S
C902 N900 1.375 . S
C902 C901 1.338 . S
C902 H906 0.931 . S
C903 N900 1.313 . S
C903 N904 1.344 . S
C903 H907 0.930 . S
N904 C901 1.377 . S
N904 C903 1.344 . S
O905 Co897 2.055 . S
O905 C909 1.253 . S
H906 C902 0.931 . S
H907 C903 0.930 . S
O908 Co897 2.039 . S
O908 C898 1.265 . S
C909 O905 1.253 . S
C909 O910 1.227 . S
O910 C909 1.227 . S
N911 Co897 2.140 . S
N911 C914 1.346 . S
N911 C915 1.345 . S
C912 C913 1.387 . S
C912 C916 1.391 . S
C913 C912 1.387 . S
C913 C914 1.369 . S
C913 H922 0.929 . S
C914 N911 1.346 . S
C914 C913 1.369 . S
C914 H917 0.928 . S
C915 N911 1.345 . S
C915 C916 1.371 . S
C915 H918 0.931 . S
C916 C912 1.391 . S
C916 C915 1.371 . S
C916 H923 0.930 . S
H917 C914 0.928 . S
H918 C915 0.931 . S
H919 C895 0.930 . S
H920 C892 0.930 . S
H921 C901 0.930 . S
H922 C913 0.929 . S
H923 C916 0.930 . S
C924 C925 1.351 . S
C924 N927 1.368 . S
C924 H929 0.931 . S
C925 C924 1.351 . S
C925 N926 1.373 . S
C925 H953 0.930 . S
N926 C925 1.373 . S
N926 C928 1.340 . S
N927 C924 1.368 . S
N927 C928 1.321 . S
N927 Co930 2.135 . S
C928 N926 1.340 . S
C928 N927 1.321 . S
C928 H952 0.930 . S
H929 C924 0.931 . S
Co930 N927 2.135 . S
Co930 N933 2.121 . S
Co930 O938 2.055 . S
Co930 O941 2.039 . S
Co930 N944 2.140 . S
C931 O932 1.227 . S
C931 O941 1.265 . S
O932 C931 1.227 . S
N933 Co930 2.121 . S
N933 C935 1.375 . S
N933 C936 1.313 . S
C934 C935 1.338 . S
C934 N937 1.377 . S
C934 H954 0.930 . S
C935 N933 1.375 . S
C935 C934 1.338 . S
C935 H939 0.931 . S
C936 N933 1.313 . S
C936 N937 1.344 . S
C936 H940 0.930 . S
N937 C934 1.377 . S
N937 C936 1.344 . S
O938 Co930 2.055 . S
O938 C942 1.253 . S
H939 C935 0.931 . S
H940 C936 0.930 . S
O941 Co930 2.039 . S
O941 C931 1.265 . S
C942 O938 1.253 . S
C942 O943 1.227 . S
O943 C942 1.227 . S
N944 Co930 2.140 . S
N944 C947 1.346 . S
N944 C948 1.345 . S
C945 C946 1.387 . S
C945 C949 1.391 . S
C946 C945 1.387 . S
C946 C947 1.369 . S
C946 H955 0.929 . S
C947 N944 1.346 . S
C947 C946 1.369 . S
C947 H950 0.928 . S
C948 N944 1.345 . S
C948 C949 1.371 . S
C948 H951 0.931 . S
C949 C945 1.391 . S
C949 C948 1.371 . S
C949 H956 0.930 . S
H950 C947 0.928 . S
H951 C948 0.931 . S
H952 C928 0.930 . S
H953 C925 0.930 . S
H954 C934 0.930 . S
H955 C946 0.929 . S
H956 C949 0.930 . S
C957 C958 1.351 . S
C957 N960 1.368 . S
C957 H962 0.931 . S
C958 C957 1.351 . S
C958 N959 1.373 . S
C958 H986 0.930 . S
N959 C958 1.373 . S
N959 C961 1.340 . S
N960 C957 1.368 . S
N960 C961 1.321 . S
N960 Co963 2.135 . S
C961 N959 1.340 . S
C961 N960 1.321 . S
C961 H985 0.930 . S
H962 C957 0.931 . S
Co963 N960 2.135 . S
Co963 N966 2.121 . S
Co963 O971 2.055 . S
Co963 O974 2.039 . S
Co963 N977 2.140 . S
C964 O965 1.227 . S
C964 O974 1.265 . S
O965 C964 1.227 . S
N966 Co963 2.121 . S
N966 C968 1.375 . S
N966 C969 1.313 . S
C967 C968 1.338 . S
C967 N970 1.377 . S
C967 H987 0.930 . S
C968 N966 1.375 . S
C968 C967 1.338 . S
C968 H972 0.931 . S
C969 N966 1.313 . S
C969 N970 1.344 . S
C969 H973 0.930 . S
N970 C967 1.377 . S
N970 C969 1.344 . S
O971 Co963 2.055 . S
O971 C975 1.253 . S
H972 C968 0.931 . S
H973 C969 0.930 . S
O974 Co963 2.039 . S
O974 C964 1.265 . S
C975 O971 1.253 . S
C975 O976 1.227 . S
O976 C975 1.227 . S
N977 Co963 2.140 . S
N977 C980 1.346 . S
N977 C981 1.345 . S
C978 C979 1.387 . S
C978 C982 1.391 . S
C979 C978 1.387 . S
C979 C980 1.369 . S
C979 H988 0.929 . S
C980 N977 1.346 . S
C980 C979 1.369 . S
C980 H983 0.928 . S
C981 N977 1.345 . S
C981 C982 1.371 . S
C981 H984 0.931 . S
C982 C978 1.391 . S
C982 C981 1.371 . S
C982 H989 0.930 . S
H983 C980 0.928 . S
H984 C981 0.931 . S
H985 C961 0.930 . S
H986 C958 0.930 . S
H987 C967 0.930 . S
H988 C979 0.929 . S
H989 C982 0.930 . S
C990 C991 1.351 . S
C990 N993 1.368 . S
C990 H995 0.931 . S
C991 C990 1.351 . S
C991 N992 1.373 . S
C991 H1019 0.930 . S
N992 C991 1.373 . S
N992 C994 1.340 . S
N993 C990 1.368 . S
N993 C994 1.321 . S
N993 Co996 2.135 . S
C994 N992 1.340 . S
C994 N993 1.321 . S
C994 H1018 0.930 . S
H995 C990 0.931 . S
Co996 N993 2.135 . S
Co996 N999 2.121 1_554 S
Co996 O1004 2.055 . S
Co996 O1007 2.039 . S
Co996 N1010 2.140 . S
C997 O998 1.227 . S
C997 O1007 1.265 . S
O998 C997 1.227 . S
N999 Co996 2.121 1_556 S
N999 C1001 1.375 . S
N999 C1002 1.313 . S
C1000 C1001 1.338 . S
C1000 N1003 1.377 . S
C1000 H1020 0.930 . S
C1001 N999 1.375 . S
C1001 C1000 1.338 . S
C1001 H1005 0.931 . S
C1002 N999 1.313 . S
C1002 N1003 1.344 . S
C1002 H1006 0.930 . S
N1003 C1000 1.377 . S
N1003 C1002 1.344 . S
O1004 Co996 2.055 . S
O1004 C1008 1.253 . S
H1005 C1001 0.931 . S
H1006 C1002 0.930 . S
O1007 Co996 2.039 . S
O1007 C997 1.265 . S
C1008 O1004 1.253 . S
C1008 O1009 1.227 . S
O1009 C1008 1.227 . S
N1010 Co996 2.140 . S
N1010 C1013 1.346 . S
N1010 C1014 1.345 . S
C1011 C1012 1.387 . S
C1011 C1015 1.391 . S
C1012 C1011 1.387 . S
C1012 C1013 1.369 . S
C1012 H1021 0.929 . S
C1013 N1010 1.346 . S
C1013 C1012 1.369 . S
C1013 H1016 0.928 . S
C1014 N1010 1.345 . S
C1014 C1015 1.371 . S
C1014 H1017 0.931 1_554 S
C1015 C1011 1.391 . S
C1015 C1014 1.371 . S
C1015 H1022 0.930 1_554 S
H1016 C1013 0.928 . S
H1017 C1014 0.931 1_556 S
H1018 C994 0.930 . S
H1019 C991 0.930 . S
H1020 C1000 0.930 . S
H1021 C1012 0.929 . S
H1022 C1015 0.930 1_556 S
C1023 C1024 1.351 1_556 S
C1023 N1026 1.368 . S
C1023 H1028 0.931 . S
C1024 C1023 1.351 1_554 S
C1024 N1025 1.373 . S
C1024 H1052 0.930 . S
N1025 C1024 1.373 . S
N1025 C1027 1.340 . S
N1026 C1023 1.368 . S
N1026 C1027 1.321 1_556 S
N1026 Co1029 2.135 . S
C1027 N1025 1.340 . S
C1027 N1026 1.321 1_554 S
C1027 H1051 0.930 . S
H1028 C1023 0.931 . S
Co1029 N1026 2.135 . S
Co1029 N1032 2.121 . S
Co1029 O1037 2.055 . S
Co1029 O1040 2.039 . S
Co1029 N1043 2.140 . S
C1030 O1031 1.227 . S
C1030 O1040 1.265 . S
O1031 C1030 1.227 . S
N1032 Co1029 2.121 . S
N1032 C1034 1.375 . S
N1032 C1035 1.313 . S
C1033 C1034 1.338 . S
C1033 N1036 1.377 . S
C1033 H1053 0.930 . S
C1034 N1032 1.375 . S
C1034 C1033 1.338 . S
C1034 H1038 0.931 . S
C1035 N1032 1.313 . S
C1035 N1036 1.344 . S
C1035 H1039 0.930 . S
N1036 C1033 1.377 . S
N1036 C1035 1.344 . S
O1037 Co1029 2.055 . S
O1037 C1041 1.253 . S
H1038 C1034 0.931 . S
H1039 C1035 0.930 . S
O1040 Co1029 2.039 . S
O1040 C1030 1.265 . S
C1041 O1037 1.253 . S
C1041 O1042 1.227 . S
O1042 C1041 1.227 . S
N1043 Co1029 2.140 . S
N1043 C1046 1.346 . S
N1043 C1047 1.345 . S
C1044 C1045 1.387 . S
C1044 C1048 1.391 . S
C1045 C1044 1.387 . S
C1045 C1046 1.369 . S
C1045 H1054 0.929 . S
C1046 N1043 1.346 . S
C1046 C1045 1.369 . S
C1046 H1049 0.928 . S
C1047 N1043 1.345 . S
C1047 C1048 1.371 . S
C1047 H1050 0.931 . S
C1048 C1044 1.391 . S
C1048 C1047 1.371 . S
C1048 H1055 0.930 . S
H1049 C1046 0.928 . S
H1050 C1047 0.931 . S
H1051 C1027 0.930 . S
H1052 C1024 0.930 . S
H1053 C1033 0.930 . S
H1054 C1045 0.929 . S
H1055 C1048 0.930 . S
H1056 C1064 0.950 . S
H1057 C1069 0.950 . S
H1058 C1066 0.950 . S
H1059 C1068 0.950 . S
H1060 C1070 0.950 . S
H1061 C1072 0.950 . S
H1062 C1074 0.950 . S
H1063 C1075 0.950 . S
C1064 H1056 0.950 . S
C1064 C1065 1.386 . S
C1064 C1066 1.391 . S
C1065 C1064 1.386 . S
C1065 C1069 1.393 . S
C1066 H1058 0.950 . S
C1066 C1064 1.391 . S
C1066 C1067 1.400 . S
C1067 C1066 1.400 . S
C1067 C1068 1.398 . S
C1067 C1073 1.491 . S
C1068 H1059 0.950 . S
C1068 C1067 1.398 . S
C1068 C1069 1.391 . S
C1069 H1057 0.950 . S
C1069 C1065 1.393 . S
C1069 C1068 1.391 . S
C1070 H1060 0.950 . S
C1070 C1071 1.386 . S
C1070 C1072 1.391 . S
C1071 C1070 1.386 . S
C1071 C1075 1.393 . S
C1072 H1061 0.950 . S
C1072 C1070 1.391 . S
C1072 C1073 1.400 . S
C1073 C1067 1.491 . S
C1073 C1072 1.400 . S
C1073 C1074 1.398 . S
C1074 H1062 0.950 . S
C1074 C1073 1.398 . S
C1074 C1075 1.391 . S
C1075 H1063 0.950 . S
C1075 C1071 1.393 . S
C1075 C1074 1.391 . S
H1076 C1084 0.950 . S
H1077 C1089 0.950 . S
H1078 C1086 0.950 . S
H1079 C1088 0.950 . S
H1080 C1090 0.950 . S
H1081 C1092 0.950 . S
H1082 C1094 0.950 . S
H1083 C1095 0.950 . S
C1084 H1076 0.950 . S
C1084 C1085 1.386 . S
C1084 C1086 1.391 . S
C1085 C1084 1.386 . S
C1085 C1089 1.393 . S
C1086 H1078 0.950 . S
C1086 C1084 1.391 . S
C1086 C1087 1.400 . S
C1087 C1086 1.400 . S
C1087 C1088 1.398 . S
C1087 C1093 1.491 1_455 S
C1088 H1079 0.950 . S
C1088 C1087 1.398 . S
C1088 C1089 1.391 . S
C1089 H1077 0.950 . S
C1089 C1085 1.393 . S
C1089 C1088 1.391 . S
C1090 H1080 0.950 . S
C1090 C1091 1.386 . S
C1090 C1092 1.391 . S
C1091 C1090 1.386 . S
C1091 C1095 1.393 . S
C1092 H1081 0.950 . S
C1092 C1090 1.391 . S
C1092 C1093 1.400 . S
C1093 C1087 1.491 1_655 S
C1093 C1092 1.400 . S
C1093 C1094 1.398 . S
C1094 H1082 0.950 . S
C1094 C1093 1.398 . S
C1094 C1095 1.391 . S
C1095 H1083 0.950 . S
C1095 C1091 1.393 . S
C1095 C1094 1.391 . S
H1096 C1104 0.950 . S
H1097 C1109 0.950 . S
H1098 C1106 0.950 . S
H1099 C1108 0.950 . S
H1100 C1110 0.950 . S
H1101 C1112 0.950 . S
H1102 C1114 0.950 . S
H1103 C1115 0.950 . S
C1104 H1096 0.950 . S
C1104 C1105 1.386 . S
C1104 C1106 1.391 . S
C1105 C1104 1.386 . S
C1105 C1109 1.393 . S
C1106 H1098 0.950 . S
C1106 C1104 1.391 . S
C1106 C1107 1.400 . S
C1107 C1106 1.400 . S
C1107 C1108 1.398 . S
C1107 C1113 1.491 . S
C1108 H1099 0.950 . S
C1108 C1107 1.398 . S
C1108 C1109 1.391 . S
C1109 H1097 0.950 . S
C1109 C1105 1.393 . S
C1109 C1108 1.391 . S
C1110 H1100 0.950 . S
C1110 C1111 1.386 . S
C1110 C1112 1.391 . S
C1111 C1110 1.386 . S
C1111 C1115 1.393 . S
C1112 H1101 0.950 . S
C1112 C1110 1.391 . S
C1112 C1113 1.400 . S
C1113 C1107 1.491 . S
C1113 C1112 1.400 . S
C1113 C1114 1.398 . S
C1114 H1102 0.950 . S
C1114 C1113 1.398 . S
C1114 C1115 1.391 . S
C1115 H1103 0.950 . S
C1115 C1111 1.393 . S
C1115 C1114 1.391 . S
H1116 C1124 0.950 . S
H1117 C1129 0.950 . S
H1118 C1126 0.950 . S
H1119 C1128 0.950 . S
H1120 C1130 0.950 . S
H1121 C1132 0.950 . S
H1122 C1134 0.950 . S
H1123 C1135 0.950 . S
C1124 H1116 0.950 . S
C1124 C1125 1.386 . S
C1124 C1126 1.391 . S
C1125 C1124 1.386 . S
C1125 C1129 1.393 . S
C1126 H1118 0.950 . S
C1126 C1124 1.391 . S
C1126 C1127 1.400 . S
C1127 C1126 1.400 . S
C1127 C1128 1.398 . S
C1127 C1133 1.491 . S
C1128 H1119 0.950 . S
C1128 C1127 1.398 . S
C1128 C1129 1.391 . S
C1129 H1117 0.950 . S
C1129 C1125 1.393 . S
C1129 C1128 1.391 . S
C1130 H1120 0.950 . S
C1130 C1131 1.386 . S
C1130 C1132 1.391 . S
C1131 C1130 1.386 . S
C1131 C1135 1.393 . S
C1132 H1121 0.950 . S
C1132 C1130 1.391 . S
C1132 C1133 1.400 . S
C1133 C1127 1.491 . S
C1133 C1132 1.400 . S
C1133 C1134 1.398 . S
C1134 H1122 0.950 . S
C1134 C1133 1.398 . S
C1134 C1135 1.391 . S
C1135 H1123 0.950 . S
C1135 C1131 1.393 . S
C1135 C1134 1.391 . S
H1136 C1144 0.950 . S
H1137 C1149 0.950 . S
H1138 C1146 0.950 . S
H1139 C1148 0.950 . S
H1140 C1150 0.950 . S
H1141 C1152 0.950 . S
H1142 C1154 0.950 . S
H1143 C1155 0.950 . S
C1144 H1136 0.950 . S
C1144 C1145 1.386 . S
C1144 C1146 1.391 . S
C1145 C1144 1.386 . S
C1145 C1149 1.393 . S
C1146 H1138 0.950 . S
C1146 C1144 1.391 . S
C1146 C1147 1.400 . S
C1147 C1146 1.400 . S
C1147 C1148 1.398 . S
C1147 C1153 1.491 . S
C1148 H1139 0.950 . S
C1148 C1147 1.398 . S
C1148 C1149 1.391 . S
C1149 H1137 0.950 . S
C1149 C1145 1.393 . S
C1149 C1148 1.391 . S
C1150 H1140 0.950 . S
C1150 C1151 1.386 . S
C1150 C1152 1.391 . S
C1151 C1150 1.386 . S
C1151 C1155 1.393 . S
C1152 H1141 0.950 . S
C1152 C1150 1.391 . S
C1152 C1153 1.400 . S
C1153 C1147 1.491 . S
C1153 C1152 1.400 . S
C1153 C1154 1.398 . S
C1154 H1142 0.950 . S
C1154 C1153 1.398 . S
C1154 C1155 1.391 . S
C1155 H1143 0.950 . S
C1155 C1151 1.393 . S
C1155 C1154 1.391 . S
H1156 C1164 0.950 . S
H1157 C1169 0.950 . S
H1158 C1166 0.950 . S
H1159 C1168 0.950 . S
H1160 C1170 0.950 . S
H1161 C1172 0.950 . S
H1162 C1174 0.950 . S
H1163 C1175 0.950 . S
C1164 H1156 0.950 . S
C1164 C1165 1.386 . S
C1164 C1166 1.391 . S
C1165 C1164 1.386 . S
C1165 C1169 1.393 . S
C1166 H1158 0.950 . S
C1166 C1164 1.391 . S
C1166 C1167 1.400 . S
C1167 C1166 1.400 . S
C1167 C1168 1.398 . S
C1167 C1173 1.491 . S
C1168 H1159 0.950 . S
C1168 C1167 1.398 . S
C1168 C1169 1.391 . S
C1169 H1157 0.950 . S
C1169 C1165 1.393 . S
C1169 C1168 1.391 . S
C1170 H1160 0.950 . S
C1170 C1171 1.386 . S
C1170 C1172 1.391 . S
C1171 C1170 1.386 . S
C1171 C1175 1.393 . S
C1172 H1161 0.950 . S
C1172 C1170 1.391 . S
C1172 C1173 1.400 . S
C1173 C1167 1.491 . S
C1173 C1172 1.400 . S
C1173 C1174 1.398 . S
C1174 H1162 0.950 . S
C1174 C1173 1.398 . S
C1174 C1175 1.391 . S
C1175 H1163 0.950 . S
C1175 C1171 1.393 . S
C1175 C1174 1.391 . S
H1176 C1184 0.950 . S
H1177 C1189 0.950 . S
H1178 C1186 0.950 . S
H1179 C1188 0.950 . S
H1180 C1190 0.950 . S
H1181 C1192 0.950 . S
H1182 C1194 0.950 . S
H1183 C1195 0.950 . S
C1184 H1176 0.950 . S
C1184 C1185 1.386 . S
C1184 C1186 1.391 . S
C1185 C1184 1.386 . S
C1185 C1189 1.393 . S
C1186 H1178 0.950 . S
C1186 C1184 1.391 . S
C1186 C1187 1.400 . S
C1187 C1186 1.400 . S
C1187 C1188 1.398 . S
C1187 C1193 1.491 . S
C1188 H1179 0.950 . S
C1188 C1187 1.398 . S
C1188 C1189 1.391 . S
C1189 H1177 0.950 . S
C1189 C1185 1.393 . S
C1189 C1188 1.391 . S
C1190 H1180 0.950 . S
C1190 C1191 1.386 . S
C1190 C1192 1.391 . S
C1191 C1190 1.386 . S
C1191 C1195 1.393 . S
C1192 H1181 0.950 . S
C1192 C1190 1.391 . S
C1192 C1193 1.400 . S
C1193 C1187 1.491 . S
C1193 C1192 1.400 . S
C1193 C1194 1.398 . S
C1194 H1182 0.950 . S
C1194 C1193 1.398 . S
C1194 C1195 1.391 . S
C1195 H1183 0.950 . S
C1195 C1191 1.393 . S
C1195 C1194 1.391 . S
H1196 C1204 0.950 . S
H1197 C1209 0.950 . S
H1198 C1206 0.950 . S
H1199 C1208 0.950 . S
H1200 C1210 0.950 . S
H1201 C1212 0.950 . S
H1202 C1214 0.950 . S
H1203 C1215 0.950 . S
C1204 H1196 0.950 . S
C1204 C1205 1.386 . S
C1204 C1206 1.391 . S
C1205 C1204 1.386 . S
C1205 C1209 1.393 . S
C1206 H1198 0.950 . S
C1206 C1204 1.391 . S
C1206 C1207 1.400 . S
C1207 C1206 1.400 . S
C1207 C1208 1.398 . S
C1207 C1213 1.491 1_655 S
C1208 H1199 0.950 . S
C1208 C1207 1.398 . S
C1208 C1209 1.391 . S
C1209 H1197 0.950 . S
C1209 C1205 1.393 . S
C1209 C1208 1.391 . S
C1210 H1200 0.950 . S
C1210 C1211 1.386 . S
C1210 C1212 1.391 . S
C1211 C1210 1.386 . S
C1211 C1215 1.393 . S
C1212 H1201 0.950 . S
C1212 C1210 1.391 . S
C1212 C1213 1.400 . S
C1213 C1207 1.491 1_455 S
C1213 C1212 1.400 . S
C1213 C1214 1.398 . S
C1214 H1202 0.950 . S
C1214 C1213 1.398 . S
C1214 C1215 1.391 . S
C1215 H1203 0.950 . S
C1215 C1211 1.393 . S
C1215 C1214 1.391 . S
H1216 C1224 0.950 . S
H1217 C1229 0.950 . S
H1218 C1226 0.950 . S
H1219 C1228 0.950 . S
H1220 C1230 0.950 . S
H1221 C1232 0.950 . S
H1222 C1234 0.950 . S
H1223 C1235 0.950 . S
C1224 H1216 0.950 . S
C1224 C1225 1.386 . S
C1224 C1226 1.391 . S
C1225 C1224 1.386 . S
C1225 C1229 1.393 . S
C1226 H1218 0.950 . S
C1226 C1224 1.391 . S
C1226 C1227 1.400 . S
C1227 C1226 1.400 . S
C1227 C1228 1.398 . S
C1227 C1233 1.491 . S
C1228 H1219 0.950 . S
C1228 C1227 1.398 . S
C1228 C1229 1.391 . S
C1229 H1217 0.950 . S
C1229 C1225 1.393 . S
C1229 C1228 1.391 . S
C1230 H1220 0.950 . S
C1230 C1231 1.386 . S
C1230 C1232 1.391 . S
C1231 C1230 1.386 . S
C1231 C1235 1.393 . S
C1232 H1221 0.950 . S
C1232 C1230 1.391 . S
C1232 C1233 1.400 . S
C1233 C1227 1.491 . S
C1233 C1232 1.400 . S
C1233 C1234 1.398 . S
C1234 H1222 0.950 . S
C1234 C1233 1.398 . S
C1234 C1235 1.391 . S
C1235 H1223 0.950 . S
C1235 C1231 1.393 . S
C1235 C1234 1.391 . S
H1236 C1244 0.950 . S
H1237 C1249 0.950 . S
H1238 C1246 0.950 . S
H1239 C1248 0.950 . S
H1240 C1250 0.950 . S
H1241 C1252 0.950 . S
H1242 C1254 0.950 . S
H1243 C1255 0.950 . S
C1244 H1236 0.950 . S
C1244 C1245 1.386 . S
C1244 C1246 1.391 . S
C1245 C1244 1.386 . S
C1245 C1249 1.393 . S
C1246 H1238 0.950 . S
C1246 C1244 1.391 . S
C1246 C1247 1.400 . S
C1247 C1246 1.400 . S
C1247 C1248 1.398 . S
C1247 C1253 1.491 . S
C1248 H1239 0.950 . S
C1248 C1247 1.398 . S
C1248 C1249 1.391 . S
C1249 H1237 0.950 . S
C1249 C1245 1.393 . S
C1249 C1248 1.391 . S
C1250 H1240 0.950 . S
C1250 C1251 1.386 . S
C1250 C1252 1.391 . S
C1251 C1250 1.386 . S
C1251 C1255 1.393 . S
C1252 H1241 0.950 . S
C1252 C1250 1.391 . S
C1252 C1253 1.400 . S
C1253 C1247 1.491 . S
C1253 C1252 1.400 . S
C1253 C1254 1.398 . S
C1254 H1242 0.950 . S
C1254 C1253 1.398 . S
C1254 C1255 1.391 . S
C1255 H1243 0.950 . S
C1255 C1251 1.393 . S
C1255 C1254 1.391 . S
H1256 C1264 0.950 . S
H1257 C1269 0.950 . S
H1258 C1266 0.950 . S
H1259 C1268 0.950 . S
H1260 C1270 0.950 . S
H1261 C1272 0.950 . S
H1262 C1274 0.950 . S
H1263 C1275 0.950 . S
C1264 H1256 0.950 . S
C1264 C1265 1.386 . S
C1264 C1266 1.391 . S
C1265 C1264 1.386 . S
C1265 C1269 1.393 . S
C1266 H1258 0.950 . S
C1266 C1264 1.391 . S
C1266 C1267 1.400 . S
C1267 C1266 1.400 . S
C1267 C1268 1.398 . S
C1267 C1273 1.491 . S
C1268 H1259 0.950 . S
C1268 C1267 1.398 . S
C1268 C1269 1.391 . S
C1269 H1257 0.950 . S
C1269 C1265 1.393 . S
C1269 C1268 1.391 . S
C1270 H1260 0.950 . S
C1270 C1271 1.386 . S
C1270 C1272 1.391 . S
C1271 C1270 1.386 . S
C1271 C1275 1.393 . S
C1272 H1261 0.950 . S
C1272 C1270 1.391 . S
C1272 C1273 1.400 . S
C1273 C1267 1.491 . S
C1273 C1272 1.400 . S
C1273 C1274 1.398 . S
C1274 H1262 0.950 . S
C1274 C1273 1.398 . S
C1274 C1275 1.391 . S
C1275 H1263 0.950 . S
C1275 C1271 1.393 . S
C1275 C1274 1.391 . S
H1276 C1284 0.950 . S
H1277 C1289 0.950 . S
H1278 C1286 0.950 . S
H1279 C1288 0.950 . S
H1280 C1290 0.950 . S
H1281 C1292 0.950 . S
H1282 C1294 0.950 . S
H1283 C1295 0.950 . S
C1284 H1276 0.950 . S
C1284 C1285 1.386 . S
C1284 C1286 1.391 . S
C1285 C1284 1.386 . S
C1285 C1289 1.393 . S
C1286 H1278 0.950 . S
C1286 C1284 1.391 . S
C1286 C1287 1.400 . S
C1287 C1286 1.400 . S
C1287 C1288 1.398 . S
C1287 C1293 1.491 . S
C1288 H1279 0.950 . S
C1288 C1287 1.398 . S
C1288 C1289 1.391 . S
C1289 H1277 0.950 . S
C1289 C1285 1.393 . S
C1289 C1288 1.391 . S
C1290 H1280 0.950 . S
C1290 C1291 1.386 . S
C1290 C1292 1.391 . S
C1291 C1290 1.386 . S
C1291 C1295 1.393 . S
C1292 H1281 0.950 . S
C1292 C1290 1.391 . S
C1292 C1293 1.400 . S
C1293 C1287 1.491 . S
C1293 C1292 1.400 . S
C1293 C1294 1.398 . S
C1294 H1282 0.950 . S
C1294 C1293 1.398 . S
C1294 C1295 1.391 . S
C1295 H1283 0.950 . S
C1295 C1291 1.393 . S
C1295 C1294 1.391 . S
H1296 C1304 0.950 . S
H1297 C1309 0.950 . S
H1298 C1306 0.950 . S
H1299 C1308 0.950 . S
H1300 C1310 0.950 . S
H1301 C1312 0.950 . S
H1302 C1314 0.950 . S
H1303 C1315 0.950 . S
C1304 H1296 0.950 . S
C1304 C1305 1.386 . S
C1304 C1306 1.391 . S
C1305 C1304 1.386 . S
C1305 C1309 1.393 . S
C1306 H1298 0.950 . S
C1306 C1304 1.391 . S
C1306 C1307 1.400 . S
C1307 C1306 1.400 . S
C1307 C1308 1.398 . S
C1307 C1313 1.491 . S
C1308 H1299 0.950 . S
C1308 C1307 1.398 . S
C1308 C1309 1.391 . S
C1309 H1297 0.950 . S
C1309 C1305 1.393 . S
C1309 C1308 1.391 . S
C1310 H1300 0.950 . S
C1310 C1311 1.386 . S
C1310 C1312 1.391 . S
C1311 C1310 1.386 . S
C1311 C1315 1.393 . S
C1312 H1301 0.950 . S
C1312 C1310 1.391 . S
C1312 C1313 1.400 . S
C1313 C1307 1.491 . S
C1313 C1312 1.400 . S
C1313 C1314 1.398 . S
C1314 H1302 0.950 . S
C1314 C1313 1.398 . S
C1314 C1315 1.391 . S
C1315 H1303 0.950 . S
C1315 C1311 1.393 . S
C1315 C1314 1.391 . S
H1316 C1324 0.950 . S
H1317 C1329 0.950 . S
H1318 C1326 0.950 . S
H1319 C1328 0.950 . S
H1320 C1330 0.950 . S
H1321 C1332 0.950 . S
H1322 C1334 0.950 . S
H1323 C1335 0.950 . S
C1324 H1316 0.950 . S
C1324 C1325 1.386 . S
C1324 C1326 1.391 . S
C1325 C1324 1.386 . S
C1325 C1329 1.393 . S
C1326 H1318 0.950 . S
C1326 C1324 1.391 . S
C1326 C1327 1.400 . S
C1327 C1326 1.400 . S
C1327 C1328 1.398 . S
C1327 C1333 1.491 1_455 S
C1328 H1319 0.950 . S
C1328 C1327 1.398 . S
C1328 C1329 1.391 . S
C1329 H1317 0.950 . S
C1329 C1325 1.393 . S
C1329 C1328 1.391 . S
C1330 H1320 0.950 . S
C1330 C1331 1.386 . S
C1330 C1332 1.391 . S
C1331 C1330 1.386 . S
C1331 C1335 1.393 . S
C1332 H1321 0.950 . S
C1332 C1330 1.391 . S
C1332 C1333 1.400 . S
C1333 C1327 1.491 1_655 S
C1333 C1332 1.400 . S
C1333 C1334 1.398 . S
C1334 H1322 0.950 . S
C1334 C1333 1.398 . S
C1334 C1335 1.391 . S
C1335 H1323 0.950 . S
C1335 C1331 1.393 . S
C1335 C1334 1.391 . S
H1336 C1344 0.950 . S
H1337 C1349 0.950 . S
H1338 C1346 0.950 . S
H1339 C1348 0.950 . S
H1340 C1350 0.950 . S
H1341 C1352 0.950 . S
H1342 C1354 0.950 . S
H1343 C1355 0.950 . S
C1344 H1336 0.950 . S
C1344 C1345 1.386 . S
C1344 C1346 1.391 . S
C1345 C1344 1.386 . S
C1345 C1349 1.393 . S
C1346 H1338 0.950 . S
C1346 C1344 1.391 . S
C1346 C1347 1.400 . S
C1347 C1346 1.400 . S
C1347 C1348 1.398 . S
C1347 C1353 1.491 1_455 S
C1348 H1339 0.950 . S
C1348 C1347 1.398 . S
C1348 C1349 1.391 . S
C1349 H1337 0.950 . S
C1349 C1345 1.393 . S
C1349 C1348 1.391 . S
C1350 H1340 0.950 . S
C1350 C1351 1.386 . S
C1350 C1352 1.391 . S
C1351 C1350 1.386 . S
C1351 C1355 1.393 . S
C1352 H1341 0.950 . S
C1352 C1350 1.391 . S
C1352 C1353 1.400 . S
C1353 C1347 1.491 1_655 S
C1353 C1352 1.400 . S
C1353 C1354 1.398 . S
C1354 H1342 0.950 . S
C1354 C1353 1.398 . S
C1354 C1355 1.391 . S
C1355 H1343 0.950 . S
C1355 C1351 1.393 . S
C1355 C1354 1.391 . S
H1356 C1364 0.950 . S
H1357 C1369 0.950 . S
H1358 C1366 0.950 . S
H1359 C1368 0.950 . S
H1360 C1370 0.950 . S
H1361 C1372 0.950 . S
H1362 C1374 0.950 . S
H1363 C1375 0.950 . S
C1364 H1356 0.950 . S
C1364 C1365 1.386 . S
C1364 C1366 1.391 . S
C1365 C1364 1.386 . S
C1365 C1369 1.393 . S
C1366 H1358 0.950 . S
C1366 C1364 1.391 . S
C1366 C1367 1.400 . S
C1367 C1366 1.400 . S
C1367 C1368 1.398 . S
C1367 C1373 1.491 . S
C1368 H1359 0.950 . S
C1368 C1367 1.398 . S
C1368 C1369 1.391 . S
C1369 H1357 0.950 . S
C1369 C1365 1.393 . S
C1369 C1368 1.391 . S
C1370 H1360 0.950 . S
C1370 C1371 1.386 . S
C1370 C1372 1.391 . S
C1371 C1370 1.386 . S
C1371 C1375 1.393 . S
C1372 H1361 0.950 . S
C1372 C1370 1.391 . S
C1372 C1373 1.400 . S
C1373 C1367 1.491 . S
C1373 C1372 1.400 . S
C1373 C1374 1.398 . S
C1374 H1362 0.950 . S
C1374 C1373 1.398 . S
C1374 C1375 1.391 . S
C1375 H1363 0.950 . S
C1375 C1371 1.393 . S
C1375 C1374 1.391 . S
H1376 C1384 0.950 . S
H1377 C1389 0.950 . S
H1378 C1386 0.950 . S
H1379 C1388 0.950 . S
H1380 C1390 0.950 . S
H1381 C1392 0.950 . S
H1382 C1394 0.950 . S
H1383 C1395 0.950 . S
C1384 H1376 0.950 . S
C1384 C1385 1.386 . S
C1384 C1386 1.391 . S
C1385 C1384 1.386 . S
C1385 C1389 1.393 . S
C1386 H1378 0.950 . S
C1386 C1384 1.391 . S
C1386 C1387 1.400 . S
C1387 C1386 1.400 . S
C1387 C1388 1.398 . S
C1387 C1393 1.491 . S
C1388 H1379 0.950 . S
C1388 C1387 1.398 . S
C1388 C1389 1.391 . S
C1389 H1377 0.950 . S
C1389 C1385 1.393 . S
C1389 C1388 1.391 . S
C1390 H1380 0.950 . S
C1390 C1391 1.386 . S
C1390 C1392 1.391 . S
C1391 C1390 1.386 . S
C1391 C1395 1.393 . S
C1392 H1381 0.950 . S
C1392 C1390 1.391 . S
C1392 C1393 1.400 . S
C1393 C1387 1.491 . S
C1393 C1392 1.400 . S
C1393 C1394 1.398 . S
C1394 H1382 0.950 . S
C1394 C1393 1.398 . S
C1394 C1395 1.391 . S
C1395 H1383 0.950 . S
C1395 C1391 1.393 . S
C1395 C1394 1.391 . S
H1396 C1404 0.950 . S
H1397 C1409 0.950 . S
H1398 C1406 0.950 . S
H1399 C1408 0.950 . S
H1400 C1410 0.950 1_554 S
H1401 C1412 0.950 . S
H1402 C1414 0.950 . S
H1403 C1415 0.950 . S
C1404 H1396 0.950 . S
C1404 C1405 1.386 . S
C1404 C1406 1.391 . S
C1405 C1404 1.386 . S
C1405 C1409 1.393 . S
C1406 H1398 0.950 . S
C1406 C1404 1.391 . S
C1406 C1407 1.400 . S
C1407 C1406 1.400 . S
C1407 C1408 1.398 . S
C1407 C1413 1.491 . S
C1408 H1399 0.950 . S
C1408 C1407 1.398 . S
C1408 C1409 1.391 . S
C1409 H1397 0.950 . S
C1409 C1405 1.393 . S
C1409 C1408 1.391 . S
C1410 H1400 0.950 1_556 S
C1410 C1411 1.386 1_556 S
C1410 C1412 1.391 . S
C1411 C1410 1.386 1_554 S
C1411 C1415 1.393 1_554 S
C1412 H1401 0.950 . S
C1412 C1410 1.391 . S
C1412 C1413 1.400 . S
C1413 C1407 1.491 . S
C1413 C1412 1.400 . S
C1413 C1414 1.398 . S
C1414 H1402 0.950 . S
C1414 C1413 1.398 . S
C1414 C1415 1.391 . S
C1415 H1403 0.950 . S
C1415 C1411 1.393 1_556 S
C1415 C1414 1.391 . S
H1416 C1424 0.950 . S
H1417 C1429 0.950 . S
H1418 C1426 0.950 1_554 S
H1419 C1428 0.950 . S
H1420 C1430 0.950 . S
H1421 C1432 0.950 . S
H1422 C1434 0.950 . S
H1423 C1435 0.950 . S
C1424 H1416 0.950 . S
C1424 C1425 1.386 . S
C1424 C1426 1.391 . S
C1425 C1424 1.386 . S
C1425 C1429 1.393 . S
C1426 H1418 0.950 1_556 S
C1426 C1424 1.391 . S
C1426 C1427 1.400 1_556 S
C1427 C1426 1.400 1_554 S
C1427 C1428 1.398 . S
C1427 C1433 1.491 . S
C1428 H1419 0.950 . S
C1428 C1427 1.398 . S
C1428 C1429 1.391 1_554 S
C1429 H1417 0.950 . S
C1429 C1425 1.393 . S
C1429 C1428 1.391 1_556 S
C1430 H1420 0.950 . S
C1430 C1431 1.386 . S
C1430 C1432 1.391 . S
C1431 C1430 1.386 . S
C1431 C1435 1.393 . S
C1432 H1421 0.950 . S
C1432 C1430 1.391 . S
C1432 C1433 1.400 . S
C1433 C1427 1.491 . S
C1433 C1432 1.400 . S
C1433 C1434 1.398 . S
C1434 H1422 0.950 . S
C1434 C1433 1.398 . S
C1434 C1435 1.391 . S
C1435 H1423 0.950 . S
C1435 C1431 1.393 . S
C1435 C1434 1.391 . S
H1436 C1444 0.950 . S
H1437 C1449 0.950 . S
H1438 C1446 0.950 . S
H1439 C1448 0.950 . S
H1440 C1450 0.950 . S
H1441 C1452 0.950 . S
H1442 C1454 0.950 . S
H1443 C1455 0.950 . S
C1444 H1436 0.950 . S
C1444 C1445 1.386 . S
C1444 C1446 1.391 . S
C1445 C1444 1.386 . S
C1445 C1449 1.393 . S
C1446 H1438 0.950 . S
C1446 C1444 1.391 . S
C1446 C1447 1.400 . S
C1447 C1446 1.400 . S
C1447 C1448 1.398 . S
C1447 C1453 1.491 . S
C1448 H1439 0.950 . S
C1448 C1447 1.398 . S
C1448 C1449 1.391 . S
C1449 H1437 0.950 . S
C1449 C1445 1.393 . S
C1449 C1448 1.391 . S
C1450 H1440 0.950 . S
C1450 C1451 1.386 . S
C1450 C1452 1.391 . S
C1451 C1450 1.386 . S
C1451 C1455 1.393 . S
C1452 H1441 0.950 . S
C1452 C1450 1.391 . S
C1452 C1453 1.400 . S
C1453 C1447 1.491 . S
C1453 C1452 1.400 . S
C1453 C1454 1.398 . S
C1454 H1442 0.950 . S
C1454 C1453 1.398 . S
C1454 C1455 1.391 . S
C1455 H1443 0.950 . S
C1455 C1451 1.393 . S
C1455 C1454 1.391 . S
H1456 C1464 0.950 . S
H1457 C1469 0.950 . S
H1458 C1466 0.950 . S
H1459 C1468 0.950 . S
H1460 C1470 0.950 . S
H1461 C1472 0.950 . S
H1462 C1474 0.950 . S
H1463 C1475 0.950 . S
C1464 H1456 0.950 . S
C1464 C1465 1.386 . S
C1464 C1466 1.391 . S
C1465 C1464 1.386 . S
C1465 C1469 1.393 . S
C1466 H1458 0.950 . S
C1466 C1464 1.391 . S
C1466 C1467 1.400 . S
C1467 C1466 1.400 . S
C1467 C1468 1.398 . S
C1467 C1473 1.491 . S
C1468 H1459 0.950 . S
C1468 C1467 1.398 . S
C1468 C1469 1.391 . S
C1469 H1457 0.950 . S
C1469 C1465 1.393 . S
C1469 C1468 1.391 . S
C1470 H1460 0.950 . S
C1470 C1471 1.386 . S
C1470 C1472 1.391 . S
C1471 C1470 1.386 . S
C1471 C1475 1.393 . S
C1472 H1461 0.950 . S
C1472 C1470 1.391 . S
C1472 C1473 1.400 . S
C1473 C1467 1.491 . S
C1473 C1472 1.400 . S
C1473 C1474 1.398 . S
C1474 H1462 0.950 . S
C1474 C1473 1.398 . S
C1474 C1475 1.391 . S
C1475 H1463 0.950 . S
C1475 C1471 1.393 . S
C1475 C1474 1.391 . S
H1476 C1484 0.950 . S
H1477 C1489 0.950 . S
H1478 C1486 0.950 . S
H1479 C1488 0.950 . S
H1480 C1490 0.950 . S
H1481 C1492 0.950 . S
H1482 C1494 0.950 . S
H1483 C1495 0.950 . S
C1484 H1476 0.950 . S
C1484 C1485 1.386 . S
C1484 C1486 1.391 . S
C1485 C1484 1.386 . S
C1485 C1489 1.393 . S
C1486 H1478 0.950 . S
C1486 C1484 1.391 . S
C1486 C1487 1.400 . S
C1487 C1486 1.400 . S
C1487 C1488 1.398 . S
C1487 C1493 1.491 . S
C1488 H1479 0.950 . S
C1488 C1487 1.398 . S
C1488 C1489 1.391 . S
C1489 H1477 0.950 . S
C1489 C1485 1.393 . S
C1489 C1488 1.391 . S
C1490 H1480 0.950 . S
C1490 C1491 1.386 . S
C1490 C1492 1.391 . S
C1491 C1490 1.386 . S
C1491 C1495 1.393 . S
C1492 H1481 0.950 . S
C1492 C1490 1.391 . S
C1492 C1493 1.400 . S
C1493 C1487 1.491 . S
C1493 C1492 1.400 . S
C1493 C1494 1.398 . S
C1494 H1482 0.950 . S
C1494 C1493 1.398 . S
C1494 C1495 1.391 . S
C1495 H1483 0.950 . S
C1495 C1491 1.393 . S
C1495 C1494 1.391 . S
H1496 C1504 0.950 . S
H1497 C1509 0.950 . S
H1498 C1506 0.950 . S
H1499 C1508 0.950 . S
H1500 C1510 0.950 . S
H1501 C1512 0.950 . S
H1502 C1514 0.950 1_556 S
H1503 C1515 0.950 . S
C1504 H1496 0.950 . S
C1504 C1505 1.386 . S
C1504 C1506 1.391 . S
C1505 C1504 1.386 . S
C1505 C1509 1.393 . S
C1506 H1498 0.950 . S
C1506 C1504 1.391 . S
C1506 C1507 1.400 . S
C1507 C1506 1.400 . S
C1507 C1508 1.398 . S
C1507 C1513 1.491 . S
C1508 H1499 0.950 . S
C1508 C1507 1.398 . S
C1508 C1509 1.391 . S
C1509 H1497 0.950 . S
C1509 C1505 1.393 . S
C1509 C1508 1.391 . S
C1510 H1500 0.950 . S
C1510 C1511 1.386 . S
C1510 C1512 1.391 1_554 S
C1511 C1510 1.386 . S
C1511 C1515 1.393 . S
C1512 H1501 0.950 . S
C1512 C1510 1.391 1_556 S
C1512 C1513 1.400 . S
C1513 C1507 1.491 . S
C1513 C1512 1.400 . S
C1513 C1514 1.398 1_556 S
C1514 H1502 0.950 1_554 S
C1514 C1513 1.398 1_554 S
C1514 C1515 1.391 . S
C1515 H1503 0.950 . S
C1515 C1511 1.393 . S
C1515 C1514 1.391 . S
H1516 C1524 0.950 . S
H1517 C1529 0.950 . S
H1518 C1526 0.950 . S
H1519 C1528 0.950 . S
H1520 C1530 0.950 1_556 S
H1521 C1532 0.950 . S
H1522 C1534 0.950 . S
H1523 C1535 0.950 1_556 S
C1524 H1516 0.950 . S
C1524 C1525 1.386 . S
C1524 C1526 1.391 . S
C1525 C1524 1.386 . S
C1525 C1529 1.393 . S
C1526 H1518 0.950 . S
C1526 C1524 1.391 . S
C1526 C1527 1.400 . S
C1527 C1526 1.400 . S
C1527 C1528 1.398 . S
C1527 C1533 1.491 . S
C1528 H1519 0.950 . S
C1528 C1527 1.398 . S
C1528 C1529 1.391 . S
C1529 H1517 0.950 . S
C1529 C1525 1.393 . S
C1529 C1528 1.391 . S
C1530 H1520 0.950 1_554 S
C1530 C1531 1.386 1_554 S
C1530 C1532 1.391 . S
C1531 C1530 1.386 1_556 S
C1531 C1535 1.393 1_556 S
C1532 H1521 0.950 . S
C1532 C1530 1.391 . S
C1532 C1533 1.400 . S
C1533 C1527 1.491 . S
C1533 C1532 1.400 . S
C1533 C1534 1.398 . S
C1534 H1522 0.950 . S
C1534 C1533 1.398 . S
C1534 C1535 1.391 . S
C1535 H1523 0.950 1_554 S
C1535 C1531 1.393 1_554 S
C1535 C1534 1.391 . S
H1536 C1544 0.950 . S
H1537 C1549 0.950 . S
H1538 C1546 0.950 . S
H1539 C1548 0.950 . S
H1540 C1550 0.950 . S
H1541 C1552 0.950 . S
H1542 C1554 0.950 . S
H1543 C1555 0.950 . S
C1544 H1536 0.950 . S
C1544 C1545 1.386 . S
C1544 C1546 1.391 . S
C1545 C1544 1.386 . S
C1545 C1549 1.393 . S
C1546 H1538 0.950 . S
C1546 C1544 1.391 . S
C1546 C1547 1.400 . S
C1547 C1546 1.400 . S
C1547 C1548 1.398 . S
C1547 C1553 1.491 . S
C1548 H1539 0.950 . S
C1548 C1547 1.398 . S
C1548 C1549 1.391 . S
C1549 H1537 0.950 . S
C1549 C1545 1.393 . S
C1549 C1548 1.391 . S
C1550 H1540 0.950 . S
C1550 C1551 1.386 . S
C1550 C1552 1.391 . S
C1551 C1550 1.386 . S
C1551 C1555 1.393 . S
C1552 H1541 0.950 . S
C1552 C1550 1.391 . S
C1552 C1553 1.400 . S
C1553 C1547 1.491 . S
C1553 C1552 1.400 . S
C1553 C1554 1.398 . S
C1554 H1542 0.950 . S
C1554 C1553 1.398 . S
C1554 C1555 1.391 . S
C1555 H1543 0.950 . S
C1555 C1551 1.393 . S
C1555 C1554 1.391 . S
H1556 C1564 0.950 . S
H1557 C1569 0.950 1_556 S
H1558 C1566 0.950 . S
H1559 C1568 0.950 . S
H1560 C1570 0.950 . S
H1561 C1572 0.950 . S
H1562 C1574 0.950 . S
H1563 C1575 0.950 . S
C1564 H1556 0.950 . S
C1564 C1565 1.386 1_554 S
C1564 C1566 1.391 . S
C1565 C1564 1.386 1_556 S
C1565 C1569 1.393 1_556 S
C1566 H1558 0.950 . S
C1566 C1564 1.391 . S
C1566 C1567 1.400 . S
C1567 C1566 1.400 . S
C1567 C1568 1.398 . S
C1567 C1573 1.491 . S
C1568 H1559 0.950 . S
C1568 C1567 1.398 . S
C1568 C1569 1.391 . S
C1569 H1557 0.950 1_554 S
C1569 C1565 1.393 1_554 S
C1569 C1568 1.391 . S
C1570 H1560 0.950 . S
C1570 C1571 1.386 . S
C1570 C1572 1.391 . S
C1571 C1570 1.386 . S
C1571 C1575 1.393 . S
C1572 H1561 0.950 . S
C1572 C1570 1.391 . S
C1572 C1573 1.400 . S
C1573 C1567 1.491 . S
C1573 C1572 1.400 . S
C1573 C1574 1.398 . S
C1574 H1562 0.950 . S
C1574 C1573 1.398 . S
C1574 C1575 1.391 . S
C1575 H1563 0.950 . S
C1575 C1571 1.393 . S
C1575 C1574 1.391 . S
H1576 C1584 0.950 . S
H1577 C1589 0.950 . S
H1578 C1586 0.945 1_556 S
H1579 C1588 0.950 . S
H1580 C1590 0.950 . S
H1581 C1592 0.950 . S
H1582 C1594 0.950 . S
H1583 C1595 0.950 . S
C1584 H1576 0.950 . S
C1584 C1585 1.386 . S
C1584 C1586 1.391 . S
C1585 C1584 1.386 . S
C1585 C1589 1.393 . S
C1586 H1578 0.945 1_554 S
C1586 C1584 1.391 . S
C1586 C1587 1.400 1_554 S
C1587 C1586 1.400 1_556 S
C1587 C1588 1.398 . S
C1587 C1593 1.491 . S
C1588 H1579 0.950 . S
C1588 C1587 1.398 . S
C1588 C1589 1.391 1_556 S
C1589 H1577 0.950 . S
C1589 C1585 1.393 . S
C1589 C1588 1.391 1_554 S
C1590 H1580 0.950 . S
C1590 C1591 1.386 . S
C1590 C1592 1.391 . S
C1591 C1590 1.386 . S
C1591 C1595 1.393 . S
C1592 H1581 0.950 . S
C1592 C1590 1.391 . S
C1592 C1593 1.400 . S
C1593 C1587 1.491 . S
C1593 C1592 1.400 . S
C1593 C1594 1.398 . S
C1594 H1582 0.950 . S
C1594 C1593 1.398 . S
C1594 C1595 1.391 . S
C1595 H1583 0.950 . S
C1595 C1591 1.393 . S
C1595 C1594 1.391 . S
H1596 C1604 0.950 . S
H1597 C1609 0.950 . S
H1598 C1606 0.950 . S
H1599 C1608 0.950 . S
H1600 C1610 0.950 . S
H1601 C1612 0.950 . S
H1602 C1614 0.950 . S
H1603 C1615 0.950 . S
C1604 H1596 0.950 . S
C1604 C1605 1.386 . S
C1604 C1606 1.391 . S
C1605 C1604 1.386 . S
C1605 C1609 1.393 . S
C1606 H1598 0.950 . S
C1606 C1604 1.391 . S
C1606 C1607 1.400 . S
C1607 C1606 1.400 . S
C1607 C1608 1.398 . S
C1607 C1613 1.491 . S
C1608 H1599 0.950 . S
C1608 C1607 1.398 . S
C1608 C1609 1.391 . S
C1609 H1597 0.950 . S
C1609 C1605 1.393 . S
C1609 C1608 1.391 . S
C1610 H1600 0.950 . S
C1610 C1611 1.386 . S
C1610 C1612 1.391 . S
C1611 C1610 1.386 . S
C1611 C1615 1.393 . S
C1612 H1601 0.950 . S
C1612 C1610 1.391 . S
C1612 C1613 1.400 . S
C1613 C1607 1.491 . S
C1613 C1612 1.400 . S
C1613 C1614 1.398 . S
C1614 H1602 0.950 . S
C1614 C1613 1.398 . S
C1614 C1615 1.391 . S
C1615 H1603 0.950 . S
C1615 C1611 1.393 . S
C1615 C1614 1.391 . S
H1616 C1624 0.950 . S
H1617 C1629 0.950 . S
H1618 C1626 0.950 . S
H1619 C1628 0.950 . S
H1620 C1630 0.950 . S
H1621 C1632 0.950 . S
H1622 C1634 0.950 . S
H1623 C1635 0.950 . S
C1624 H1616 0.950 . S
C1624 C1625 1.386 . S
C1624 C1626 1.391 . S
C1625 C1624 1.386 . S
C1625 C1629 1.393 . S
C1626 H1618 0.950 . S
C1626 C1624 1.391 . S
C1626 C1627 1.400 . S
C1627 C1626 1.400 . S
C1627 C1628 1.398 . S
C1627 C1633 1.491 . S
C1628 H1619 0.950 . S
C1628 C1627 1.398 . S
C1628 C1629 1.391 . S
C1629 H1617 0.950 . S
C1629 C1625 1.393 . S
C1629 C1628 1.391 . S
C1630 H1620 0.950 . S
C1630 C1631 1.386 . S
C1630 C1632 1.391 . S
C1631 C1630 1.386 . S
C1631 C1635 1.393 . S
C1632 H1621 0.950 . S
C1632 C1630 1.391 . S
C1632 C1633 1.400 . S
C1633 C1627 1.491 . S
C1633 C1632 1.400 . S
C1633 C1634 1.398 . S
C1634 H1622 0.950 . S
C1634 C1633 1.398 . S
C1634 C1635 1.391 . S
C1635 H1623 0.950 . S
C1635 C1631 1.393 . S
C1635 C1634 1.391 . S
H1636 C1644 0.950 . S
H1637 C1649 0.950 . S
H1638 C1646 0.950 . S
H1639 C1648 0.950 . S
H1640 C1650 0.950 . S
H1641 C1652 0.950 . S
H1642 C1654 0.950 . S
H1643 C1655 0.950 . S
C1644 H1636 0.950 . S
C1644 C1645 1.386 . S
C1644 C1646 1.391 . S
C1645 C1644 1.386 . S
C1645 C1649 1.393 . S
C1646 H1638 0.950 . S
C1646 C1644 1.391 . S
C1646 C1647 1.400 . S
C1647 C1646 1.400 . S
C1647 C1648 1.398 . S
C1647 C1653 1.491 . S
C1648 H1639 0.950 . S
C1648 C1647 1.398 . S
C1648 C1649 1.391 . S
C1649 H1637 0.950 . S
C1649 C1645 1.393 . S
C1649 C1648 1.391 . S
C1650 H1640 0.950 . S
C1650 C1651 1.386 . S
C1650 C1652 1.391 . S
C1651 C1650 1.386 . S
C1651 C1655 1.393 . S
C1652 H1641 0.950 . S
C1652 C1650 1.391 . S
C1652 C1653 1.400 . S
C1653 C1647 1.491 . S
C1653 C1652 1.400 . S
C1653 C1654 1.398 . S
C1654 H1642 0.950 . S
C1654 C1653 1.398 . S
C1654 C1655 1.391 . S
C1655 H1643 0.950 . S
C1655 C1651 1.393 . S
C1655 C1654 1.391 . S
H1656 C1664 0.950 . S
H1657 C1669 0.950 . S
H1658 C1666 0.950 1_554 S
H1659 C1668 0.950 . S
H1660 C1670 0.950 . S
H1661 C1672 0.950 . S
H1662 C1674 0.950 . S
H1663 C1675 0.950 . S
C1664 H1656 0.950 . S
C1664 C1665 1.386 . S
C1664 C1666 1.391 . S
C1665 C1664 1.386 . S
C1665 C1669 1.393 . S
C1666 H1658 0.950 1_556 S
C1666 C1664 1.391 . S
C1666 C1667 1.400 1_556 S
C1667 C1666 1.400 1_554 S
C1667 C1668 1.398 . S
C1667 C1673 1.491 . S
C1668 H1659 0.950 . S
C1668 C1667 1.398 . S
C1668 C1669 1.391 1_554 S
C1669 H1657 0.950 . S
C1669 C1665 1.393 . S
C1669 C1668 1.391 1_556 S
C1670 H1660 0.950 . S
C1670 C1671 1.386 . S
C1670 C1672 1.391 . S
C1671 C1670 1.386 . S
C1671 C1675 1.393 . S
C1672 H1661 0.950 . S
C1672 C1670 1.391 . S
C1672 C1673 1.400 . S
C1673 C1667 1.491 . S
C1673 C1672 1.400 . S
C1673 C1674 1.398 . S
C1674 H1662 0.950 . S
C1674 C1673 1.398 . S
C1674 C1675 1.391 . S
C1675 H1663 0.950 . S
C1675 C1671 1.393 . S
C1675 C1674 1.391 . S
H1676 C1684 0.950 1_554 S
H1677 C1689 0.950 1_554 S
H1678 C1686 0.950 . S
H1679 C1688 0.950 . S
H1680 C1690 0.950 . S
H1681 C1692 0.950 . S
H1682 C1694 0.950 . S
H1683 C1695 0.950 . S
C1684 H1676 0.950 1_556 S
C1684 C1685 1.386 1_556 S
C1684 C1686 1.391 . S
C1685 C1684 1.386 1_554 S
C1685 C1689 1.393 1_554 S
C1686 H1678 0.950 . S
C1686 C1684 1.391 . S
C1686 C1687 1.400 . S
C1687 C1686 1.400 . S
C1687 C1688 1.398 . S
C1687 C1693 1.491 . S
C1688 H1679 0.950 . S
C1688 C1687 1.398 . S
C1688 C1689 1.391 . S
C1689 H1677 0.950 1_556 S
C1689 C1685 1.393 1_556 S
C1689 C1688 1.391 . S
C1690 H1680 0.950 . S
C1690 C1691 1.386 . S
C1690 C1692 1.391 . S
C1691 C1690 1.386 . S
C1691 C1695 1.393 . S
C1692 H1681 0.950 . S
C1692 C1690 1.391 . S
C1692 C1693 1.400 . S
C1693 C1687 1.491 . S
C1693 C1692 1.400 . S
C1693 C1694 1.398 . S
C1694 H1682 0.950 . S
C1694 C1693 1.398 . S
C1694 C1695 1.391 . S
C1695 H1683 0.950 . S
C1695 C1691 1.393 . S
C1695 C1694 1.391 . S
H1696 C1704 0.950 . S
H1697 C1709 0.950 . S
H1698 C1706 0.950 . S
H1699 C1708 0.950 . S
H1700 C1710 0.950 . S
H1701 C1712 0.950 1_554 S
H1702 C1714 0.950 1_554 S
H1703 C1715 0.950 . S
C1704 H1696 0.950 . S
C1704 C1705 1.386 . S
C1704 C1706 1.391 . S
C1705 C1704 1.386 . S
C1705 C1709 1.393 . S
C1706 H1698 0.950 . S
C1706 C1704 1.391 . S
C1706 C1707 1.400 . S
C1707 C1706 1.400 . S
C1707 C1708 1.398 . S
C1707 C1713 1.491 . S
C1708 H1699 0.950 . S
C1708 C1707 1.398 . S
C1708 C1709 1.391 . S
C1709 H1697 0.950 . S
C1709 C1705 1.393 . S
C1709 C1708 1.391 . S
C1710 H1700 0.950 . S
C1710 C1711 1.386 . S
C1710 C1712 1.391 . S
C1711 C1710 1.386 . S
C1711 C1715 1.393 . S
C1712 H1701 0.950 1_556 S
C1712 C1710 1.391 . S
C1712 C1713 1.400 1_556 S
C1713 C1707 1.491 . S
C1713 C1712 1.400 1_554 S
C1713 C1714 1.398 1_554 S
C1714 H1702 0.950 1_556 S
C1714 C1713 1.398 1_556 S
C1714 C1715 1.391 . S
C1715 H1703 0.950 . S
C1715 C1711 1.393 . S
C1715 C1714 1.391 . S
H1716 C1724 0.950 . S
H1717 C1729 0.950 . S
H1718 C1726 0.950 . S
H1719 C1728 0.950 . S
H1720 C1730 0.950 . S
H1721 C1732 0.950 . S
H1722 C1734 0.950 . S
H1723 C1735 0.950 . S
C1724 H1716 0.950 . S
C1724 C1725 1.386 . S
C1724 C1726 1.391 . S
C1725 C1724 1.386 . S
C1725 C1729 1.393 . S
C1726 H1718 0.950 . S
C1726 C1724 1.391 . S
C1726 C1727 1.400 . S
C1727 C1726 1.400 . S
C1727 C1728 1.398 . S
C1727 C1733 1.491 . S
C1728 H1719 0.950 . S
C1728 C1727 1.398 . S
C1728 C1729 1.391 . S
C1729 H1717 0.950 . S
C1729 C1725 1.393 . S
C1729 C1728 1.391 . S
C1730 H1720 0.950 . S
C1730 C1731 1.386 . S
C1730 C1732 1.391 . S
C1731 C1730 1.386 . S
C1731 C1735 1.393 . S
C1732 H1721 0.950 . S
C1732 C1730 1.391 . S
C1732 C1733 1.400 . S
C1733 C1727 1.491 . S
C1733 C1732 1.400 . S
C1733 C1734 1.398 . S
C1734 H1722 0.950 . S
C1734 C1733 1.398 . S
C1734 C1735 1.391 . S
C1735 H1723 0.950 . S
C1735 C1731 1.393 . S
C1735 C1734 1.391 . S
H1736 C1744 0.950 . S
H1737 C1749 0.950 . S
H1738 C1746 0.950 . S
H1739 C1748 0.950 . S
H1740 C1750 0.950 . S
H1741 C1752 0.950 . S
H1742 C1754 0.950 . S
H1743 C1755 0.950 . S
C1744 H1736 0.950 . S
C1744 C1745 1.386 . S
C1744 C1746 1.391 . S
C1745 C1744 1.386 . S
C1745 C1749 1.393 . S
C1746 H1738 0.950 . S
C1746 C1744 1.391 . S
C1746 C1747 1.400 . S
C1747 C1746 1.400 . S
C1747 C1748 1.398 . S
C1747 C1753 1.491 . S
C1748 H1739 0.950 . S
C1748 C1747 1.398 . S
C1748 C1749 1.391 . S
C1749 H1737 0.950 . S
C1749 C1745 1.393 . S
C1749 C1748 1.391 . S
C1750 H1740 0.950 . S
C1750 C1751 1.386 . S
C1750 C1752 1.391 . S
C1751 C1750 1.386 . S
C1751 C1755 1.393 . S
C1752 H1741 0.950 . S
C1752 C1750 1.391 . S
C1752 C1753 1.400 . S
C1753 C1747 1.491 . S
C1753 C1752 1.400 . S
C1753 C1754 1.398 . S
C1754 H1742 0.950 . S
C1754 C1753 1.398 . S
C1754 C1755 1.391 . S
C1755 H1743 0.950 . S
C1755 C1751 1.393 . S
C1755 C1754 1.391 . S
H1756 C1764 0.950 1_554 S
H1757 C1769 0.950 1_554 S
H1758 C1766 0.950 . S
H1759 C1768 0.950 . S
H1760 C1770 0.950 . S
H1761 C1772 0.950 . S
H1762 C1774 0.950 . S
H1763 C1775 0.950 . S
C1764 H1756 0.950 1_556 S
C1764 C1765 1.386 1_556 S
C1764 C1766 1.391 . S
C1765 C1764 1.386 1_554 S
C1765 C1769 1.393 1_554 S
C1766 H1758 0.950 . S
C1766 C1764 1.391 . S
C1766 C1767 1.400 . S
C1767 C1766 1.400 . S
C1767 C1768 1.398 . S
C1767 C1773 1.491 . S
C1768 H1759 0.950 . S
C1768 C1767 1.398 . S
C1768 C1769 1.391 . S
C1769 H1757 0.950 1_556 S
C1769 C1765 1.393 1_556 S
C1769 C1768 1.391 . S
C1770 H1760 0.950 . S
C1770 C1771 1.386 . S
C1770 C1772 1.391 . S
C1771 C1770 1.386 . S
C1771 C1775 1.393 . S
C1772 H1761 0.950 . S
C1772 C1770 1.391 . S
C1772 C1773 1.400 . S
C1773 C1767 1.491 . S
C1773 C1772 1.400 . S
C1773 C1774 1.398 . S
C1774 H1762 0.950 . S
C1774 C1773 1.398 . S
C1774 C1775 1.391 . S
C1775 H1763 0.950 . S
C1775 C1771 1.393 . S
C1775 C1774 1.391 . S
H1776 C1784 0.950 . S
H1777 C1789 0.950 . S
H1778 C1786 0.950 . S
H1779 C1788 0.950 . S
H1780 C1790 0.950 . S
H1781 C1792 0.950 1_556 S
H1782 C1794 0.950 . S
H1783 C1795 0.950 . S
C1784 H1776 0.950 . S
C1784 C1785 1.386 . S
C1784 C1786 1.391 . S
C1785 C1784 1.386 . S
C1785 C1789 1.393 . S
C1786 H1778 0.950 . S
C1786 C1784 1.391 . S
C1786 C1787 1.400 . S
C1787 C1786 1.400 . S
C1787 C1788 1.398 . S
C1787 C1793 1.491 . S
C1788 H1779 0.950 . S
C1788 C1787 1.398 . S
C1788 C1789 1.391 . S
C1789 H1777 0.950 . S
C1789 C1785 1.393 . S
C1789 C1788 1.391 . S
C1790 H1780 0.950 . S
C1790 C1791 1.386 . S
C1790 C1792 1.391 . S
C1791 C1790 1.386 . S
C1791 C1795 1.393 . S
C1792 H1781 0.950 1_554 S
C1792 C1790 1.391 . S
C1792 C1793 1.400 1_554 S
C1793 C1787 1.491 . S
C1793 C1792 1.400 1_556 S
C1793 C1794 1.398 . S
C1794 H1782 0.950 . S
C1794 C1793 1.398 . S
C1794 C1795 1.391 1_556 S
C1795 H1783 0.950 . S
C1795 C1791 1.393 . S
C1795 C1794 1.391 1_554 S
H1796 C1804 0.950 1_556 S
H1797 C1809 0.950 1_556 S
H1798 C1806 0.950 . S
H1799 C1808 0.950 . S
H1800 C1810 0.950 . S
H1801 C1812 0.950 . S
H1802 C1814 0.950 . S
H1803 C1815 0.950 . S
C1804 H1796 0.950 1_554 S
C1804 C1805 1.386 1_554 S
C1804 C1806 1.391 . S
C1805 C1804 1.386 1_556 S
C1805 C1809 1.393 1_556 S
C1806 H1798 0.950 . S
C1806 C1804 1.391 . S
C1806 C1807 1.400 . S
C1807 C1806 1.400 . S
C1807 C1808 1.398 . S
C1807 C1813 1.491 . S
C1808 H1799 0.950 . S
C1808 C1807 1.398 . S
C1808 C1809 1.391 . S
C1809 H1797 0.950 1_554 S
C1809 C1805 1.393 1_554 S
C1809 C1808 1.391 . S
C1810 H1800 0.950 . S
C1810 C1811 1.386 . S
C1810 C1812 1.391 . S
C1811 C1810 1.386 . S
C1811 C1815 1.393 . S
C1812 H1801 0.950 . S
C1812 C1810 1.391 . S
C1812 C1813 1.400 . S
C1813 C1807 1.491 . S
C1813 C1812 1.400 . S
C1813 C1814 1.398 . S
C1814 H1802 0.950 . S
C1814 C1813 1.398 . S
C1814 C1815 1.391 . S
C1815 H1803 0.950 . S
C1815 C1811 1.393 . S
C1815 C1814 1.391 . S
H1816 C1824 0.950 . S
H1817 C1829 0.950 . S
H1818 C1826 0.950 . S
H1819 C1828 0.950 . S
H1820 C1830 0.950 . S
H1821 C1832 0.950 . S
H1822 C1834 0.950 . S
H1823 C1835 0.950 . S
C1824 H1816 0.950 . S
C1824 C1825 1.386 . S
C1824 C1826 1.391 . S
C1825 C1824 1.386 . S
C1825 C1829 1.393 . S
C1826 H1818 0.950 . S
C1826 C1824 1.391 . S
C1826 C1827 1.400 . S
C1827 C1826 1.400 . S
C1827 C1828 1.398 . S
C1827 C1833 1.491 . S
C1828 H1819 0.950 . S
C1828 C1827 1.398 . S
C1828 C1829 1.391 . S
C1829 H1817 0.950 . S
C1829 C1825 1.393 . S
C1829 C1828 1.391 . S
C1830 H1820 0.950 . S
C1830 C1831 1.386 . S
C1830 C1832 1.391 . S
C1831 C1830 1.386 . S
C1831 C1835 1.393 . S
C1832 H1821 0.950 . S
C1832 C1830 1.391 . S
C1832 C1833 1.400 . S
C1833 C1827 1.491 . S
C1833 C1832 1.400 . S
C1833 C1834 1.398 . S
C1834 H1822 0.950 . S
C1834 C1833 1.398 . S
C1834 C1835 1.391 . S
C1835 H1823 0.950 . S
C1835 C1831 1.393 . S
C1835 C1834 1.391 . S
H1836 C1844 0.950 . S
H1837 C1849 0.950 . S
H1838 C1846 0.950 . S
H1839 C1848 0.950 . S
H1840 C1850 0.950 . S
H1841 C1852 0.950 . S
H1842 C1854 0.950 . S
H1843 C1855 0.950 . S
C1844 H1836 0.950 . S
C1844 C1845 1.386 . S
C1844 C1846 1.391 . S
C1845 C1844 1.386 . S
C1845 C1849 1.393 . S
C1846 H1838 0.950 . S
C1846 C1844 1.391 . S
C1846 C1847 1.400 . S
C1847 C1846 1.400 . S
C1847 C1848 1.398 . S
C1847 C1853 1.491 . S
C1848 H1839 0.950 . S
C1848 C1847 1.398 . S
C1848 C1849 1.391 . S
C1849 H1837 0.950 . S
C1849 C1845 1.393 . S
C1849 C1848 1.391 . S
C1850 H1840 0.950 . S
C1850 C1851 1.386 . S
C1850 C1852 1.391 . S
C1851 C1850 1.386 . S
C1851 C1855 1.393 . S
C1852 H1841 0.950 . S
C1852 C1850 1.391 . S
C1852 C1853 1.400 . S
C1853 C1847 1.491 . S
C1853 C1852 1.400 . S
C1853 C1854 1.398 . S
C1854 H1842 0.950 . S
C1854 C1853 1.398 . S
C1854 C1855 1.391 . S
C1855 H1843 0.950 . S
C1855 C1851 1.393 . S
C1855 C1854 1.391 . S
H1856 C1864 0.950 . S
H1857 C1869 0.950 . S
H1858 C1866 0.950 . S
H1859 C1868 0.950 . S
H1860 C1870 0.950 . S
H1861 C1872 0.950 . S
H1862 C1874 0.950 1_556 S
H1863 C1875 0.950 . S
C1864 H1856 0.950 . S
C1864 C1865 1.386 . S
C1864 C1866 1.391 . S
C1865 C1864 1.386 . S
C1865 C1869 1.393 . S
C1866 H1858 0.950 . S
C1866 C1864 1.391 . S
C1866 C1867 1.400 . S
C1867 C1866 1.400 . S
C1867 C1868 1.398 . S
C1867 C1873 1.491 . S
C1868 H1859 0.950 . S
C1868 C1867 1.398 . S
C1868 C1869 1.391 . S
C1869 H1857 0.950 . S
C1869 C1865 1.393 . S
C1869 C1868 1.391 . S
C1870 H1860 0.950 . S
C1870 C1871 1.386 . S
C1870 C1872 1.391 1_554 S
C1871 C1870 1.386 . S
C1871 C1875 1.393 . S
C1872 H1861 0.950 . S
C1872 C1870 1.391 1_556 S
C1872 C1873 1.400 . S
C1873 C1867 1.491 . S
C1873 C1872 1.400 . S
C1873 C1874 1.398 1_556 S
C1874 H1862 0.950 1_554 S
C1874 C1873 1.398 1_554 S
C1874 C1875 1.391 . S
C1875 H1863 0.950 . S
C1875 C1871 1.393 . S
C1875 C1874 1.391 . S
H1876 C1884 0.950 . S
H1877 C1889 0.950 . S
H1878 C1886 0.950 . S
H1879 C1888 0.950 . S
H1880 C1890 0.950 . S
H1881 C1892 0.950 . S
H1882 C1894 0.950 . S
H1883 C1895 0.950 . S
C1884 H1876 0.950 . S
C1884 C1885 1.386 . S
C1884 C1886 1.391 . S
C1885 C1884 1.386 . S
C1885 C1889 1.393 . S
C1886 H1878 0.950 . S
C1886 C1884 1.391 . S
C1886 C1887 1.400 . S
C1887 C1886 1.400 . S
C1887 C1888 1.398 . S
C1887 C1893 1.491 . S
C1888 H1879 0.950 . S
C1888 C1887 1.398 . S
C1888 C1889 1.391 . S
C1889 H1877 0.950 . S
C1889 C1885 1.393 . S
C1889 C1888 1.391 . S
C1890 H1880 0.950 . S
C1890 C1891 1.386 . S
C1890 C1892 1.391 . S
C1891 C1890 1.386 . S
C1891 C1895 1.393 . S
C1892 H1881 0.950 . S
C1892 C1890 1.391 . S
C1892 C1893 1.400 . S
C1893 C1887 1.491 . S
C1893 C1892 1.400 . S
C1893 C1894 1.398 . S
C1894 H1882 0.950 . S
C1894 C1893 1.398 . S
C1894 C1895 1.391 . S
C1895 H1883 0.950 . S
C1895 C1891 1.393 . S
C1895 C1894 1.391 . S
H1896 C1904 0.950 . S
H1897 C1909 0.950 . S
H1898 C1906 0.950 . S
H1899 C1908 0.950 . S
H1900 C1910 0.950 . S
H1901 C1912 0.950 . S
H1902 C1914 0.950 . S
H1903 C1915 0.950 . S
C1904 H1896 0.950 . S
C1904 C1905 1.386 . S
C1904 C1906 1.391 . S
C1905 C1904 1.386 . S
C1905 C1909 1.393 . S
C1906 H1898 0.950 . S
C1906 C1904 1.391 . S
C1906 C1907 1.400 . S
C1907 C1906 1.400 . S
C1907 C1908 1.398 . S
C1907 C1913 1.491 . S
C1908 H1899 0.950 . S
C1908 C1907 1.398 . S
C1908 C1909 1.391 . S
C1909 H1897 0.950 . S
C1909 C1905 1.393 . S
C1909 C1908 1.391 . S
C1910 H1900 0.950 . S
C1910 C1911 1.386 . S
C1910 C1912 1.391 . S
C1911 C1910 1.386 . S
C1911 C1915 1.393 . S
C1912 H1901 0.950 . S
C1912 C1910 1.391 . S
C1912 C1913 1.400 . S
C1913 C1907 1.491 . S
C1913 C1912 1.400 . S
C1913 C1914 1.398 . S
C1914 H1902 0.950 . S
C1914 C1913 1.398 . S
C1914 C1915 1.391 . S
C1915 H1903 0.950 . S
C1915 C1911 1.393 . S
C1915 C1914 1.391 . S
H1916 C1924 0.950 1_556 S
H1917 C1929 0.950 1_556 S
H1918 C1926 0.950 . S
H1919 C1928 0.950 . S
H1920 C1930 0.950 . S
H1921 C1932 0.950 . S
H1922 C1934 0.950 . S
H1923 C1935 0.950 . S
C1924 H1916 0.950 1_554 S
C1924 C1925 1.386 1_554 S
C1924 C1926 1.391 . S
C1925 C1924 1.386 1_556 S
C1925 C1929 1.393 1_556 S
C1926 H1918 0.950 . S
C1926 C1924 1.391 . S
C1926 C1927 1.400 . S
C1927 C1926 1.400 . S
C1927 C1928 1.398 . S
C1927 C1933 1.491 . S
C1928 H1919 0.950 . S
C1928 C1927 1.398 . S
C1928 C1929 1.391 . S
C1929 H1917 0.950 1_554 S
C1929 C1925 1.393 1_554 S
C1929 C1928 1.391 . S
C1930 H1920 0.950 . S
C1930 C1931 1.386 . S
C1930 C1932 1.391 . S
C1931 C1930 1.386 . S
C1931 C1935 1.393 . S
C1932 H1921 0.950 . S
C1932 C1930 1.391 . S
C1932 C1933 1.400 . S
C1933 C1927 1.491 . S
C1933 C1932 1.400 . S
C1933 C1934 1.398 . S
C1934 H1922 0.950 . S
C1934 C1933 1.398 . S
C1934 C1935 1.391 . S
C1935 H1923 0.950 . S
C1935 C1931 1.393 . S
C1935 C1934 1.391 . S
H1936 C1944 0.950 . S
H1937 C1949 0.950 . S
H1938 C1946 0.950 . S
H1939 C1948 0.950 . S
H1940 C1950 0.950 . S
H1941 C1952 0.950 . S
H1942 C1954 0.950 1_554 S
H1943 C1955 0.950 . S
C1944 H1936 0.950 . S
C1944 C1945 1.386 . S
C1944 C1946 1.391 . S
C1945 C1944 1.386 . S
C1945 C1949 1.393 . S
C1946 H1938 0.950 . S
C1946 C1944 1.391 . S
C1946 C1947 1.400 . S
C1947 C1946 1.400 . S
C1947 C1948 1.398 . S
C1947 C1953 1.491 . S
C1948 H1939 0.950 . S
C1948 C1947 1.398 . S
C1948 C1949 1.391 . S
C1949 H1937 0.950 . S
C1949 C1945 1.393 . S
C1949 C1948 1.391 . S
C1950 H1940 0.950 . S
C1950 C1951 1.386 . S
C1950 C1952 1.391 1_556 S
C1951 C1950 1.386 . S
C1951 C1955 1.393 . S
C1952 H1941 0.950 . S
C1952 C1950 1.391 1_554 S
C1952 C1953 1.400 . S
C1953 C1947 1.491 . S
C1953 C1952 1.400 . S
C1953 C1954 1.398 1_554 S
C1954 H1942 0.950 1_556 S
C1954 C1953 1.398 1_556 S
C1954 C1955 1.391 . S
C1955 H1943 0.950 . S
C1955 C1951 1.393 . S
C1955 C1954 1.391 . S
H1956 C1964 0.950 1_554 S
H1957 C1969 0.950 . S
H1958 C1966 0.950 . S
H1959 C1968 0.950 . S
H1960 C1970 0.950 . S
H1961 C1972 0.950 . S
H1962 C1974 0.950 . S
H1963 C1975 0.950 . S
C1964 H1956 0.950 1_556 S
C1964 C1965 1.386 1_556 S
C1964 C1966 1.391 . S
C1965 C1964 1.386 1_554 S
C1965 C1969 1.393 1_554 S
C1966 H1958 0.950 . S
C1966 C1964 1.391 . S
C1966 C1967 1.400 . S
C1967 C1966 1.400 . S
C1967 C1968 1.398 . S
C1967 C1973 1.491 . S
C1968 H1959 0.950 . S
C1968 C1967 1.398 . S
C1968 C1969 1.391 . S
C1969 H1957 0.950 . S
C1969 C1965 1.393 1_556 S
C1969 C1968 1.391 . S
C1970 H1960 0.950 . S
C1970 C1971 1.386 . S
C1970 C1972 1.391 . S
C1971 C1970 1.386 . S
C1971 C1975 1.393 . S
C1972 H1961 0.950 . S
C1972 C1970 1.391 . S
C1972 C1973 1.400 . S
C1973 C1967 1.491 . S
C1973 C1972 1.400 . S
C1973 C1974 1.398 . S
C1974 H1962 0.950 . S
C1974 C1973 1.398 . S
C1974 C1975 1.391 . S
C1975 H1963 0.950 . S
C1975 C1971 1.393 . S
C1975 C1974 1.391 . S
H1976 C1984 0.950 . S
H1977 C1989 0.950 . S
H1978 C1986 0.950 . S
H1979 C1988 0.950 . S
H1980 C1990 0.950 . S
H1981 C1992 0.950 . S
H1982 C1994 0.950 . S
H1983 C1995 0.950 . S
C1984 H1976 0.950 . S
C1984 C1985 1.386 . S
C1984 C1986 1.391 . S
C1985 C1984 1.386 . S
C1985 C1989 1.393 . S
C1986 H1978 0.950 . S
C1986 C1984 1.391 . S
C1986 C1987 1.400 . S
C1987 C1986 1.400 . S
C1987 C1988 1.398 . S
C1987 C1993 1.491 . S
C1988 H1979 0.950 . S
C1988 C1987 1.398 . S
C1988 C1989 1.391 . S
C1989 H1977 0.950 . S
C1989 C1985 1.393 . S
C1989 C1988 1.391 . S
C1990 H1980 0.950 . S
C1990 C1991 1.386 . S
C1990 C1992 1.391 . S
C1991 C1990 1.386 . S
C1991 C1995 1.393 . S
C1992 H1981 0.950 . S
C1992 C1990 1.391 . S
C1992 C1993 1.400 . S
C1993 C1987 1.491 . S
C1993 C1992 1.400 . S
C1993 C1994 1.398 . S
C1994 H1982 0.950 . S
C1994 C1993 1.398 . S
C1994 C1995 1.391 . S
C1995 H1983 0.950 . S
C1995 C1991 1.393 . S
C1995 C1994 1.391 . S
H1996 C2004 0.950 . S
H1997 C2009 0.950 . S
H1998 C2006 0.950 . S
H1999 C2008 0.950 . S
H2000 C2010 0.950 . S
H2001 C2012 0.950 . S
H2002 C2014 0.950 . S
H2003 C2015 0.950 . S
C2004 H1996 0.950 . S
C2004 C2005 1.386 . S
C2004 C2006 1.391 . S
C2005 C2004 1.386 . S
C2005 C2009 1.393 . S
C2006 H1998 0.950 . S
C2006 C2004 1.391 . S
C2006 C2007 1.400 . S
C2007 C2006 1.400 . S
C2007 C2008 1.398 . S
C2007 C2013 1.491 . S
C2008 H1999 0.950 . S
C2008 C2007 1.398 . S
C2008 C2009 1.391 . S
C2009 H1997 0.950 . S
C2009 C2005 1.393 . S
C2009 C2008 1.391 . S
C2010 H2000 0.950 . S
C2010 C2011 1.386 . S
C2010 C2012 1.391 . S
C2011 C2010 1.386 . S
C2011 C2015 1.393 . S
C2012 H2001 0.950 . S
C2012 C2010 1.391 . S
C2012 C2013 1.400 . S
C2013 C2007 1.491 . S
C2013 C2012 1.400 . S
C2013 C2014 1.398 . S
C2014 H2002 0.950 . S
C2014 C2013 1.398 . S
C2014 C2015 1.391 . S
C2015 H2003 0.950 . S
C2015 C2011 1.393 . S
C2015 C2014 1.391 . S
H2016 C2024 0.950 . S
H2017 C2029 0.950 . S
H2018 C2026 0.950 . S
H2019 C2028 0.950 . S
H2020 C2030 0.950 . S
H2021 C2032 0.950 . S
H2022 C2034 0.950 . S
H2023 C2035 0.950 . S
C2024 H2016 0.950 . S
C2024 C2025 1.386 . S
C2024 C2026 1.391 . S
C2025 C2024 1.386 . S
C2025 C2029 1.393 . S
C2026 H2018 0.950 . S
C2026 C2024 1.391 . S
C2026 C2027 1.400 . S
C2027 C2026 1.400 . S
C2027 C2028 1.398 . S
C2027 C2033 1.491 . S
C2028 H2019 0.950 . S
C2028 C2027 1.398 . S
C2028 C2029 1.391 . S
C2029 H2017 0.950 . S
C2029 C2025 1.393 . S
C2029 C2028 1.391 . S
C2030 H2020 0.950 . S
C2030 C2031 1.386 . S
C2030 C2032 1.391 . S
C2031 C2030 1.386 . S
C2031 C2035 1.393 . S
C2032 H2021 0.950 . S
C2032 C2030 1.391 . S
C2032 C2033 1.400 . S
C2033 C2027 1.491 . S
C2033 C2032 1.400 . S
C2033 C2034 1.398 . S
C2034 H2022 0.950 . S
C2034 C2033 1.398 . S
C2034 C2035 1.391 . S
C2035 H2023 0.950 . S
C2035 C2031 1.393 . S
C2035 C2034 1.391 . S
H2036 C2044 0.950 . S
H2037 C2049 0.950 . S
H2038 C2046 0.950 . S
H2039 C2048 0.950 . S
H2040 C2050 0.950 . S
H2041 C2052 0.950 . S
H2042 C2054 0.950 . S
H2043 C2055 0.950 . S
C2044 H2036 0.950 . S
C2044 C2045 1.386 . S
C2044 C2046 1.391 . S
C2045 C2044 1.386 . S
C2045 C2049 1.393 . S
C2046 H2038 0.950 . S
C2046 C2044 1.391 . S
C2046 C2047 1.400 . S
C2047 C2046 1.400 . S
C2047 C2048 1.398 . S
C2047 C2053 1.491 1_545 S
C2048 H2039 0.950 . S
C2048 C2047 1.398 . S
C2048 C2049 1.391 . S
C2049 H2037 0.950 . S
C2049 C2045 1.393 . S
C2049 C2048 1.391 . S
C2050 H2040 0.950 . S
C2050 C2051 1.386 . S
C2050 C2052 1.391 . S
C2051 C2050 1.386 . S
C2051 C2055 1.393 . S
C2052 H2041 0.950 . S
C2052 C2050 1.391 . S
C2052 C2053 1.400 . S
C2053 C2047 1.491 1_565 S
C2053 C2052 1.400 . S
C2053 C2054 1.398 . S
C2054 H2042 0.950 . S
C2054 C2053 1.398 . S
C2054 C2055 1.391 . S
C2055 H2043 0.950 . S
C2055 C2051 1.393 . S
C2055 C2054 1.391 . S
H2056 C2064 0.950 . S
H2057 C2069 0.950 . S
H2058 C2066 0.950 . S
H2059 C2068 0.950 . S
H2060 C2070 0.950 . S
H2061 C2072 0.950 . S
H2062 C2074 0.950 . S
H2063 C2075 0.950 . S
C2064 H2056 0.950 . S
C2064 C2065 1.386 . S
C2064 C2066 1.391 . S
C2065 C2064 1.386 . S
C2065 C2069 1.393 . S
C2066 H2058 0.950 . S
C2066 C2064 1.391 . S
C2066 C2067 1.400 . S
C2067 C2066 1.400 . S
C2067 C2068 1.398 . S
C2067 C2073 1.491 . S
C2068 H2059 0.950 . S
C2068 C2067 1.398 . S
C2068 C2069 1.391 . S
C2069 H2057 0.950 . S
C2069 C2065 1.393 . S
C2069 C2068 1.391 . S
C2070 H2060 0.950 . S
C2070 C2071 1.386 . S
C2070 C2072 1.391 . S
C2071 C2070 1.386 . S
C2071 C2075 1.393 . S
C2072 H2061 0.950 . S
C2072 C2070 1.391 . S
C2072 C2073 1.400 . S
C2073 C2067 1.491 . S
C2073 C2072 1.400 . S
C2073 C2074 1.398 . S
C2074 H2062 0.950 . S
C2074 C2073 1.398 . S
C2074 C2075 1.391 . S
C2075 H2063 0.950 . S
C2075 C2071 1.393 . S
C2075 C2074 1.391 . S
H2076 C2084 0.950 . S
H2077 C2089 0.950 . S
H2078 C2086 0.950 . S
H2079 C2088 0.950 . S
H2080 C2090 0.950 . S
H2081 C2092 0.950 . S
H2082 C2094 0.950 . S
H2083 C2095 0.950 . S
C2084 H2076 0.950 . S
C2084 C2085 1.386 . S
C2084 C2086 1.391 . S
C2085 C2084 1.386 . S
C2085 C2089 1.393 . S
C2086 H2078 0.950 . S
C2086 C2084 1.391 . S
C2086 C2087 1.400 . S
C2087 C2086 1.400 . S
C2087 C2088 1.398 . S
C2087 C2093 1.491 1_564 S
C2088 H2079 0.950 . S
C2088 C2087 1.398 . S
C2088 C2089 1.391 . S
C2089 H2077 0.950 . S
C2089 C2085 1.393 . S
C2089 C2088 1.391 . S
C2090 H2080 0.950 . S
C2090 C2091 1.386 . S
C2090 C2092 1.391 . S
C2091 C2090 1.386 . S
C2091 C2095 1.393 . S
C2092 H2081 0.950 . S
C2092 C2090 1.391 . S
C2092 C2093 1.400 . S
C2093 C2087 1.491 1_546 S
C2093 C2092 1.400 . S
C2093 C2094 1.398 . S
C2094 H2082 0.950 . S
C2094 C2093 1.398 . S
C2094 C2095 1.391 . S
C2095 H2083 0.950 . S
C2095 C2091 1.393 . S
C2095 C2094 1.391 . S
H2096 C2104 0.950 . S
H2097 C2109 0.950 . S
H2098 C2106 0.950 . S
H2099 C2108 0.950 . S
H2100 C2110 0.950 . S
H2101 C2112 0.950 . S
H2102 C2114 0.950 . S
H2103 C2115 0.950 . S
C2104 H2096 0.950 . S
C2104 C2105 1.386 . S
C2104 C2106 1.391 . S
C2105 C2104 1.386 . S
C2105 C2109 1.393 . S
C2106 H2098 0.950 . S
C2106 C2104 1.391 . S
C2106 C2107 1.400 . S
C2107 C2106 1.400 . S
C2107 C2108 1.398 . S
C2107 C2113 1.491 . S
C2108 H2099 0.950 . S
C2108 C2107 1.398 . S
C2108 C2109 1.391 . S
C2109 H2097 0.950 . S
C2109 C2105 1.393 . S
C2109 C2108 1.391 . S
C2110 H2100 0.950 . S
C2110 C2111 1.386 . S
C2110 C2112 1.391 . S
C2111 C2110 1.386 . S
C2111 C2115 1.393 . S
C2112 H2101 0.950 . S
C2112 C2110 1.391 . S
C2112 C2113 1.400 . S
C2113 C2107 1.491 . S
C2113 C2112 1.400 . S
C2113 C2114 1.398 . S
C2114 H2102 0.950 . S
C2114 C2113 1.398 . S
C2114 C2115 1.391 . S
C2115 H2103 0.950 . S
C2115 C2111 1.393 . S
C2115 C2114 1.391 . S
H2116 C2124 0.950 . S
H2117 C2129 0.950 . S
H2118 C2126 0.950 . S
H2119 C2128 0.986 . S
H2120 C2130 0.950 . S
H2121 C2132 0.950 . S
H2122 C2134 0.986 . S
H2123 C2135 0.950 . S
C2124 H2116 0.950 . S
C2124 C2125 1.386 . S
C2124 C2126 1.391 . S
C2125 C2124 1.386 . S
C2125 C2129 1.393 . S
C2126 H2118 0.950 . S
C2126 C2124 1.391 . S
C2126 C2127 1.400 . S
C2127 C2126 1.400 . S
C2127 C2128 1.398 . S
C2127 C2133 1.491 1_545 S
C2128 H2119 0.986 . S
C2128 C2127 1.398 . S
C2128 C2129 1.391 . S
C2129 H2117 0.950 . S
C2129 C2125 1.393 . S
C2129 C2128 1.391 . S
C2130 H2120 0.950 . S
C2130 C2131 1.386 . S
C2130 C2132 1.391 . S
C2131 C2130 1.386 . S
C2131 C2135 1.393 . S
C2132 H2121 0.950 . S
C2132 C2130 1.391 . S
C2132 C2133 1.400 . S
C2133 C2127 1.491 1_565 S
C2133 C2132 1.400 . S
C2133 C2134 1.398 . S
C2134 H2122 0.986 . S
C2134 C2133 1.398 . S
C2134 C2135 1.391 . S
C2135 H2123 0.950 . S
C2135 C2131 1.393 . S
C2135 C2134 1.391 . S
H2136 C2144 0.950 . S
H2137 C2149 0.950 . S
H2138 C2146 0.950 . S
H2139 C2148 0.950 . S
H2140 C2150 0.950 . S
H2141 C2152 0.950 . S
H2142 C2154 0.950 . S
H2143 C2155 0.950 . S
C2144 H2136 0.950 . S
C2144 C2145 1.386 . S
C2144 C2146 1.391 . S
C2145 C2144 1.386 . S
C2145 C2149 1.393 . S
C2146 H2138 0.950 . S
C2146 C2144 1.391 . S
C2146 C2147 1.400 . S
C2147 C2146 1.400 . S
C2147 C2148 1.398 . S
C2147 C2153 1.491 . S
C2148 H2139 0.950 . S
C2148 C2147 1.398 . S
C2148 C2149 1.391 . S
C2149 H2137 0.950 . S
C2149 C2145 1.393 . S
C2149 C2148 1.391 . S
C2150 H2140 0.950 . S
C2150 C2151 1.386 . S
C2150 C2152 1.391 . S
C2151 C2150 1.386 . S
C2151 C2155 1.393 . S
C2152 H2141 0.950 . S
C2152 C2150 1.391 . S
C2152 C2153 1.400 . S
C2153 C2147 1.491 . S
C2153 C2152 1.400 . S
C2153 C2154 1.398 . S
C2154 H2142 0.950 . S
C2154 C2153 1.398 . S
C2154 C2155 1.391 . S
C2155 H2143 0.950 . S
C2155 C2151 1.393 . S
C2155 C2154 1.391 . S
H2156 C2164 0.950 . S
H2157 C2169 0.950 . S
H2158 C2166 0.950 . S
H2159 C2168 0.960 . S
H2160 C2170 0.950 . S
H2161 C2172 0.950 . S
H2162 C2174 0.960 . S
H2163 C2175 0.950 . S
C2164 H2156 0.950 . S
C2164 C2165 1.386 . S
C2164 C2166 1.391 1_556 S
C2165 C2164 1.386 . S
C2165 C2169 1.393 . S
C2166 H2158 0.950 . S
C2166 C2164 1.391 1_554 S
C2166 C2167 1.400 1_554 S
C2167 C2166 1.400 1_556 S
C2167 C2168 1.398 . S
C2167 C2173 1.491 1_546 S
C2168 H2159 0.960 . S
C2168 C2167 1.398 . S
C2168 C2169 1.391 . S
C2169 H2157 0.950 . S
C2169 C2165 1.393 . S
C2169 C2168 1.391 . S
C2170 H2160 0.950 . S
C2170 C2171 1.386 . S
C2170 C2172 1.391 1_554 S
C2171 C2170 1.386 . S
C2171 C2175 1.393 . S
C2172 H2161 0.950 . S
C2172 C2170 1.391 1_556 S
C2172 C2173 1.400 1_556 S
C2173 C2167 1.491 1_564 S
C2173 C2172 1.400 1_554 S
C2173 C2174 1.398 . S
C2174 H2162 0.960 . S
C2174 C2173 1.398 . S
C2174 C2175 1.391 . S
C2175 H2163 0.950 . S
C2175 C2171 1.393 . S
C2175 C2174 1.391 . S
H2176 C2184 0.950 . S
H2177 C2189 0.950 . S
H2178 C2186 0.950 . S
H2179 C2188 0.950 . S
H2180 C2190 0.950 . S
H2181 C2192 0.950 . S
H2182 C2194 0.950 . S
H2183 C2195 0.950 . S
C2184 H2176 0.950 . S
C2184 C2185 1.386 . S
C2184 C2186 1.391 . S
C2185 C2184 1.386 . S
C2185 C2189 1.393 . S
C2186 H2178 0.950 . S
C2186 C2184 1.391 . S
C2186 C2187 1.400 . S
C2187 C2186 1.400 . S
C2187 C2188 1.398 . S
C2187 C2193 1.491 . S
C2188 H2179 0.950 . S
C2188 C2187 1.398 . S
C2188 C2189 1.391 . S
C2189 H2177 0.950 . S
C2189 C2185 1.393 . S
C2189 C2188 1.391 . S
C2190 H2180 0.950 . S
C2190 C2191 1.386 . S
C2190 C2192 1.391 . S
C2191 C2190 1.386 . S
C2191 C2195 1.393 . S
C2192 H2181 0.950 . S
C2192 C2190 1.391 . S
C2192 C2193 1.400 . S
C2193 C2187 1.491 . S
C2193 C2192 1.400 . S
C2193 C2194 1.398 . S
C2194 H2182 0.950 . S
C2194 C2193 1.398 . S
C2194 C2195 1.391 . S
C2195 H2183 0.950 . S
C2195 C2191 1.393 . S
C2195 C2194 1.391 . S
H2196 C2204 0.950 . S
H2197 C2209 0.950 1_554 S
H2198 C2206 0.950 . S
H2199 C2208 0.950 . S
H2200 C2210 0.950 . S
H2201 C2212 0.950 . S
H2202 C2214 0.950 . S
H2203 C2215 0.950 1_556 S
C2204 H2196 0.950 . S
C2204 C2205 1.386 . S
C2204 C2206 1.391 . S
C2205 C2204 1.386 . S
C2205 C2209 1.393 . S
C2206 H2198 0.950 . S
C2206 C2204 1.391 . S
C2206 C2207 1.400 . S
C2207 C2206 1.400 . S
C2207 C2208 1.398 1_556 S
C2207 C2213 1.491 1_556 S
C2208 H2199 0.950 . S
C2208 C2207 1.398 1_554 S
C2208 C2209 1.391 1_554 S
C2209 H2197 0.950 1_556 S
C2209 C2205 1.393 . S
C2209 C2208 1.391 1_556 S
C2210 H2200 0.950 . S
C2210 C2211 1.386 . S
C2210 C2212 1.391 . S
C2211 C2210 1.386 . S
C2211 C2215 1.393 . S
C2212 H2201 0.950 . S
C2212 C2210 1.391 . S
C2212 C2213 1.400 . S
C2213 C2207 1.491 1_554 S
C2213 C2212 1.400 . S
C2213 C2214 1.398 1_554 S
C2214 H2202 0.950 . S
C2214 C2213 1.398 1_556 S
C2214 C2215 1.391 1_556 S
C2215 H2203 0.950 1_554 S
C2215 C2211 1.393 . S
C2215 C2214 1.391 1_554 S
H2216 C2224 0.950 . S
H2217 C2229 0.950 . S
H2218 C2226 0.950 . S
H2219 C2228 0.950 . S
H2220 C2230 0.950 . S
H2221 C2232 0.950 . S
H2222 C2234 0.950 . S
H2223 C2235 0.950 . S
C2224 H2216 0.950 . S
C2224 C2225 1.386 . S
C2224 C2226 1.391 . S
C2225 C2224 1.386 . S
C2225 C2229 1.393 . S
C2226 H2218 0.950 . S
C2226 C2224 1.391 . S
C2226 C2227 1.400 . S
C2227 C2226 1.400 . S
C2227 C2228 1.398 . S
C2227 C2233 1.491 . S
C2228 H2219 0.950 . S
C2228 C2227 1.398 . S
C2228 C2229 1.391 . S
C2229 H2217 0.950 . S
C2229 C2225 1.393 . S
C2229 C2228 1.391 . S
C2230 H2220 0.950 . S
C2230 C2231 1.386 . S
C2230 C2232 1.391 . S
C2231 C2230 1.386 . S
C2231 C2235 1.393 . S
C2232 H2221 0.950 . S
C2232 C2230 1.391 . S
C2232 C2233 1.400 . S
C2233 C2227 1.491 . S
C2233 C2232 1.400 . S
C2233 C2234 1.398 . S
C2234 H2222 0.950 . S
C2234 C2233 1.398 . S
C2234 C2235 1.391 . S
C2235 H2223 0.950 . S
C2235 C2231 1.393 . S
C2235 C2234 1.391 . S
H2236 C2244 0.950 . S
H2237 C2249 0.950 . S
H2238 C2246 0.950 . S
H2239 C2248 0.950 . S
H2240 C2250 0.950 . S
H2241 C2252 0.950 . S
H2242 C2254 0.950 . S
H2243 C2255 0.950 . S
C2244 H2236 0.950 . S
C2244 C2245 1.386 . S
C2244 C2246 1.391 . S
C2245 C2244 1.386 . S
C2245 C2249 1.393 . S
C2246 H2238 0.950 . S
C2246 C2244 1.391 . S
C2246 C2247 1.400 . S
C2247 C2246 1.400 . S
C2247 C2248 1.398 . S
C2247 C2253 1.491 . S
C2248 H2239 0.950 . S
C2248 C2247 1.398 . S
C2248 C2249 1.391 . S
C2249 H2237 0.950 . S
C2249 C2245 1.393 . S
C2249 C2248 1.391 . S
C2250 H2240 0.950 . S
C2250 C2251 1.386 . S
C2250 C2252 1.391 . S
C2251 C2250 1.386 . S
C2251 C2255 1.393 . S
C2252 H2241 0.950 . S
C2252 C2250 1.391 . S
C2252 C2253 1.400 . S
C2253 C2247 1.491 . S
C2253 C2252 1.400 . S
C2253 C2254 1.398 . S
C2254 H2242 0.950 . S
C2254 C2253 1.398 . S
C2254 C2255 1.391 . S
C2255 H2243 0.950 . S
C2255 C2251 1.393 . S
C2255 C2254 1.391 . S
H2256 C2264 0.950 . S
H2257 C2269 0.950 . S
H2258 C2266 0.950 . S
H2259 C2268 0.950 . S
H2260 C2270 0.950 . S
H2261 C2272 0.950 . S
H2262 C2274 0.950 . S
H2263 C2275 0.950 . S
C2264 H2256 0.950 . S
C2264 C2265 1.386 . S
C2264 C2266 1.391 . S
C2265 C2264 1.386 . S
C2265 C2269 1.393 . S
C2266 H2258 0.950 . S
C2266 C2264 1.391 . S
C2266 C2267 1.400 . S
C2267 C2266 1.400 . S
C2267 C2268 1.398 . S
C2267 C2273 1.491 . S
C2268 H2259 0.950 . S
C2268 C2267 1.398 . S
C2268 C2269 1.391 . S
C2269 H2257 0.950 . S
C2269 C2265 1.393 . S
C2269 C2268 1.391 . S
C2270 H2260 0.950 . S
C2270 C2271 1.386 . S
C2270 C2272 1.391 . S
C2271 C2270 1.386 . S
C2271 C2275 1.393 . S
C2272 H2261 0.950 . S
C2272 C2270 1.391 . S
C2272 C2273 1.400 . S
C2273 C2267 1.491 . S
C2273 C2272 1.400 . S
C2273 C2274 1.398 . S
C2274 H2262 0.950 . S
C2274 C2273 1.398 . S
C2274 C2275 1.391 . S
C2275 H2263 0.950 . S
C2275 C2271 1.393 . S
C2275 C2274 1.391 . S
H2276 C2284 0.950 . S
H2277 C2289 0.950 . S
H2278 C2286 0.950 . S
H2279 C2288 0.950 . S
H2280 C2290 0.950 . S
H2281 C2292 0.950 . S
H2282 C2294 0.950 . S
H2283 C2295 0.950 . S
C2284 H2276 0.950 . S
C2284 C2285 1.386 . S
C2284 C2286 1.391 . S
C2285 C2284 1.386 . S
C2285 C2289 1.393 . S
C2286 H2278 0.950 . S
C2286 C2284 1.391 . S
C2286 C2287 1.400 . S
C2287 C2286 1.400 . S
C2287 C2288 1.398 . S
C2287 C2293 1.491 1_556 S
C2288 H2279 0.950 . S
C2288 C2287 1.398 . S
C2288 C2289 1.391 . S
C2289 H2277 0.950 . S
C2289 C2285 1.393 . S
C2289 C2288 1.391 . S
C2290 H2280 0.950 . S
C2290 C2291 1.386 . S
C2290 C2292 1.391 . S
C2291 C2290 1.386 . S
C2291 C2295 1.393 . S
C2292 H2281 0.950 . S
C2292 C2290 1.391 . S
C2292 C2293 1.400 . S
C2293 C2287 1.491 1_554 S
C2293 C2292 1.400 . S
C2293 C2294 1.398 . S
C2294 H2282 0.950 . S
C2294 C2293 1.398 . S
C2294 C2295 1.391 . S
C2295 H2283 0.950 . S
C2295 C2291 1.393 . S
C2295 C2294 1.391 . S
H2296 C2304 0.950 . S
H2297 C2309 0.950 . S
H2298 C2306 0.950 . S
H2299 C2308 0.950 . S
H2300 C2310 0.950 . S
H2301 C2312 0.950 . S
H2302 C2314 0.950 . S
H2303 C2315 0.950 . S
C2304 H2296 0.950 . S
C2304 C2305 1.386 . S
C2304 C2306 1.391 . S
C2305 C2304 1.386 . S
C2305 C2309 1.393 . S
C2306 H2298 0.950 . S
C2306 C2304 1.391 . S
C2306 C2307 1.400 . S
C2307 C2306 1.400 . S
C2307 C2308 1.398 . S
C2307 C2313 1.491 . S
C2308 H2299 0.950 . S
C2308 C2307 1.398 . S
C2308 C2309 1.391 . S
C2309 H2297 0.950 . S
C2309 C2305 1.393 . S
C2309 C2308 1.391 . S
C2310 H2300 0.950 . S
C2310 C2311 1.386 . S
C2310 C2312 1.391 . S
C2311 C2310 1.386 . S
C2311 C2315 1.393 . S
C2312 H2301 0.950 . S
C2312 C2310 1.391 . S
C2312 C2313 1.400 . S
C2313 C2307 1.491 . S
C2313 C2312 1.400 . S
C2313 C2314 1.398 . S
C2314 H2302 0.950 . S
C2314 C2313 1.398 . S
C2314 C2315 1.391 . S
C2315 H2303 0.950 . S
C2315 C2311 1.393 . S
C2315 C2314 1.391 . S
H2316 C2324 0.950 . S
H2317 C2329 0.950 . S
H2318 C2326 0.950 . S
H2319 C2328 0.950 . S
H2320 C2330 0.950 . S
H2321 C2332 0.950 . S
H2322 C2334 0.950 . S
H2323 C2335 0.950 . S
C2324 H2316 0.950 . S
C2324 C2325 1.386 . S
C2324 C2326 1.391 . S
C2325 C2324 1.386 . S
C2325 C2329 1.393 . S
C2326 H2318 0.950 . S
C2326 C2324 1.391 . S
C2326 C2327 1.400 . S
C2327 C2326 1.400 . S
C2327 C2328 1.398 . S
C2327 C2333 1.491 . S
C2328 H2319 0.950 . S
C2328 C2327 1.398 . S
C2328 C2329 1.391 . S
C2329 H2317 0.950 . S
C2329 C2325 1.393 . S
C2329 C2328 1.391 . S
C2330 H2320 0.950 . S
C2330 C2331 1.386 . S
C2330 C2332 1.391 . S
C2331 C2330 1.386 . S
C2331 C2335 1.393 . S
C2332 H2321 0.950 . S
C2332 C2330 1.391 . S
C2332 C2333 1.400 . S
C2333 C2327 1.491 . S
C2333 C2332 1.400 . S
C2333 C2334 1.398 . S
C2334 H2322 0.950 . S
C2334 C2333 1.398 . S
C2334 C2335 1.391 . S
C2335 H2323 0.950 . S
C2335 C2331 1.393 . S
C2335 C2334 1.391 . S
H2336 C2344 0.950 . S
H2337 C2349 0.950 . S
H2338 C2346 0.950 . S
H2339 C2348 0.950 . S
H2340 C2350 0.950 . S
H2341 C2352 0.950 . S
H2342 C2354 0.950 . S
H2343 C2355 0.950 . S
C2344 H2336 0.950 . S
C2344 C2345 1.386 . S
C2344 C2346 1.391 1_554 S
C2345 C2344 1.386 . S
C2345 C2349 1.393 1_554 S
C2346 H2338 0.950 . S
C2346 C2344 1.391 1_556 S
C2346 C2347 1.400 . S
C2347 C2346 1.400 . S
C2347 C2348 1.398 . S
C2347 C2353 1.491 . S
C2348 H2339 0.950 . S
C2348 C2347 1.398 . S
C2348 C2349 1.391 . S
C2349 H2337 0.950 . S
C2349 C2345 1.393 1_556 S
C2349 C2348 1.391 . S
C2350 H2340 0.950 . S
C2350 C2351 1.386 . S
C2350 C2352 1.391 . S
C2351 C2350 1.386 . S
C2351 C2355 1.393 . S
C2352 H2341 0.950 . S
C2352 C2350 1.391 . S
C2352 C2353 1.400 . S
C2353 C2347 1.491 . S
C2353 C2352 1.400 . S
C2353 C2354 1.398 . S
C2354 H2342 0.950 . S
C2354 C2353 1.398 . S
C2354 C2355 1.391 . S
C2355 H2343 0.950 . S
C2355 C2351 1.393 . S
C2355 C2354 1.391 . S
H2356 C2364 0.950 . S
H2357 C2369 0.950 . S
H2358 C2366 0.950 . S
H2359 C2368 0.950 . S
H2360 C2370 0.950 . S
H2361 C2372 0.950 . S
H2362 C2374 0.950 . S
H2363 C2375 0.950 . S
C2364 H2356 0.950 . S
C2364 C2365 1.383 1_556 S
C2364 C2366 1.391 1_556 S
C2365 C2364 1.383 1_554 S
C2365 C2369 1.403 . S
C2366 H2358 0.950 . S
C2366 C2364 1.391 1_554 S
C2366 C2367 1.400 . S
C2367 C2366 1.400 . S
C2367 C2368 1.398 . S
C2367 C2373 1.491 . S
C2368 H2359 0.950 . S
C2368 C2367 1.398 . S
C2368 C2369 1.391 . S
C2369 H2357 0.950 . S
C2369 C2365 1.403 . S
C2369 C2368 1.391 . S
C2370 H2360 0.950 . S
C2370 C2371 1.386 . S
C2370 C2372 1.391 . S
C2371 C2370 1.386 . S
C2371 C2375 1.393 . S
C2372 H2361 0.950 . S
C2372 C2370 1.391 . S
C2372 C2373 1.400 . S
C2373 C2367 1.491 . S
C2373 C2372 1.400 . S
C2373 C2374 1.398 . S
C2374 H2362 0.950 . S
C2374 C2373 1.398 . S
C2374 C2375 1.391 . S
C2375 H2363 0.950 . S
C2375 C2371 1.393 . S
C2375 C2374 1.391 . S
H2376 C2384 0.950 . S
H2377 C2389 0.950 . S
H2378 C2386 0.950 . S
H2379 C2388 0.950 . S
H2380 C2390 0.950 . S
H2381 C2392 0.950 . S
H2382 C2394 0.950 . S
H2383 C2395 0.950 . S
C2384 H2376 0.950 . S
C2384 C2385 1.386 . S
C2384 C2386 1.391 . S
C2385 C2384 1.386 . S
C2385 C2389 1.393 . S
C2386 H2378 0.950 . S
C2386 C2384 1.391 . S
C2386 C2387 1.400 . S
C2387 C2386 1.400 . S
C2387 C2388 1.398 . S
C2387 C2393 1.491 . S
C2388 H2379 0.950 . S
C2388 C2387 1.398 . S
C2388 C2389 1.391 . S
C2389 H2377 0.950 . S
C2389 C2385 1.393 . S
C2389 C2388 1.391 . S
C2390 H2380 0.950 . S
C2390 C2391 1.386 . S
C2390 C2392 1.391 . S
C2391 C2390 1.386 . S
C2391 C2395 1.393 . S
C2392 H2381 0.950 . S
C2392 C2390 1.391 . S
C2392 C2393 1.400 . S
C2393 C2387 1.491 . S
C2393 C2392 1.400 . S
C2393 C2394 1.398 . S
C2394 H2382 0.950 . S
C2394 C2393 1.398 . S
C2394 C2395 1.391 . S
C2395 H2383 0.950 . S
C2395 C2391 1.393 . S
C2395 C2394 1.391 . S
H2396 C2404 0.950 . S
H2397 C2409 0.950 . S
H2398 C2406 0.950 . S
H2399 C2408 0.950 . S
H2400 C2410 0.950 . S
H2401 C2412 0.950 . S
H2402 C2414 0.950 . S
H2403 C2415 0.950 . S
C2404 H2396 0.950 . S
C2404 C2405 1.386 . S
C2404 C2406 1.391 . S
C2405 C2404 1.386 . S
C2405 C2409 1.393 . S
C2406 H2398 0.950 . S
C2406 C2404 1.391 . S
C2406 C2407 1.400 . S
C2407 C2406 1.400 . S
C2407 C2408 1.398 . S
C2407 C2413 1.491 . S
C2408 H2399 0.950 . S
C2408 C2407 1.398 . S
C2408 C2409 1.391 . S
C2409 H2397 0.950 . S
C2409 C2405 1.393 . S
C2409 C2408 1.391 . S
C2410 H2400 0.950 . S
C2410 C2411 1.386 . S
C2410 C2412 1.391 . S
C2411 C2410 1.386 . S
C2411 C2415 1.393 . S
C2412 H2401 0.950 . S
C2412 C2410 1.391 . S
C2412 C2413 1.400 . S
C2413 C2407 1.491 . S
C2413 C2412 1.400 . S
C2413 C2414 1.398 . S
C2414 H2402 0.950 . S
C2414 C2413 1.398 . S
C2414 C2415 1.391 . S
C2415 H2403 0.950 . S
C2415 C2411 1.393 . S
C2415 C2414 1.391 . S
H2416 C2424 0.950 . S
H2417 C2429 0.949 1_556 S
H2418 C2426 0.950 . S
H2419 C2428 0.950 . S
H2420 C2430 0.950 . S
H2421 C2432 0.950 . S
H2422 C2434 0.950 . S
H2423 C2435 0.950 . S
C2424 H2416 0.950 . S
C2424 C2425 1.386 1_554 S
C2424 C2426 1.391 . S
C2425 C2424 1.386 1_556 S
C2425 C2429 1.393 1_556 S
C2426 H2418 0.950 . S
C2426 C2424 1.391 . S
C2426 C2427 1.400 . S
C2427 C2426 1.400 . S
C2427 C2428 1.398 . S
C2427 C2433 1.491 . S
C2428 H2419 0.950 . S
C2428 C2427 1.398 . S
C2428 C2429 1.391 . S
C2429 H2417 0.949 1_554 S
C2429 C2425 1.393 1_554 S
C2429 C2428 1.391 . S
C2430 H2420 0.950 . S
C2430 C2431 1.386 . S
C2430 C2432 1.391 . S
C2431 C2430 1.386 . S
C2431 C2435 1.393 . S
C2432 H2421 0.950 . S
C2432 C2430 1.391 . S
C2432 C2433 1.400 . S
C2433 C2427 1.491 . S
C2433 C2432 1.400 . S
C2433 C2434 1.398 . S
C2434 H2422 0.950 . S
C2434 C2433 1.398 . S
C2434 C2435 1.391 . S
C2435 H2423 0.950 . S
C2435 C2431 1.393 . S
C2435 C2434 1.391 . S
H2436 C2444 0.950 . S
H2437 C2449 0.950 . S
H2438 C2446 0.950 . S
H2439 C2448 0.950 . S
H2440 C2450 0.950 . S
H2441 C2452 0.950 . S
H2442 C2454 0.950 . S
H2443 C2455 0.950 . S
C2444 H2436 0.950 . S
C2444 C2445 1.386 1_556 S
C2444 C2446 1.391 . S
C2445 C2444 1.386 1_554 S
C2445 C2449 1.393 . S
C2446 H2438 0.950 . S
C2446 C2444 1.391 . S
C2446 C2447 1.400 . S
C2447 C2446 1.400 . S
C2447 C2448 1.398 . S
C2447 C2453 1.491 . S
C2448 H2439 0.950 . S
C2448 C2447 1.398 . S
C2448 C2449 1.391 1_556 S
C2449 H2437 0.950 . S
C2449 C2445 1.393 . S
C2449 C2448 1.391 1_554 S
C2450 H2440 0.950 . S
C2450 C2451 1.386 . S
C2450 C2452 1.391 . S
C2451 C2450 1.386 . S
C2451 C2455 1.393 . S
C2452 H2441 0.950 . S
C2452 C2450 1.391 . S
C2452 C2453 1.400 . S
C2453 C2447 1.491 . S
C2453 C2452 1.400 . S
C2453 C2454 1.398 . S
C2454 H2442 0.950 . S
C2454 C2453 1.398 . S
C2454 C2455 1.391 . S
C2455 H2443 0.950 . S
C2455 C2451 1.393 . S
C2455 C2454 1.391 . S
H2456 C2464 0.950 . S
H2457 C2469 0.950 . S
H2458 C2466 0.950 . S
H2459 C2468 0.950 . S
H2460 C2470 0.950 . S
H2461 C2472 0.950 . S
H2462 C2474 0.950 . S
H2463 C2475 0.950 . S
C2464 H2456 0.950 . S
C2464 C2465 1.386 . S
C2464 C2466 1.391 . S
C2465 C2464 1.386 . S
C2465 C2469 1.393 . S
C2466 H2458 0.950 . S
C2466 C2464 1.391 . S
C2466 C2467 1.400 . S
C2467 C2466 1.400 . S
C2467 C2468 1.398 . S
C2467 C2473 1.491 . S
C2468 H2459 0.950 . S
C2468 C2467 1.398 . S
C2468 C2469 1.391 . S
C2469 H2457 0.950 . S
C2469 C2465 1.393 . S
C2469 C2468 1.391 . S
C2470 H2460 0.950 . S
C2470 C2471 1.386 . S
C2470 C2472 1.391 . S
C2471 C2470 1.386 . S
C2471 C2475 1.393 . S
C2472 H2461 0.950 . S
C2472 C2470 1.391 . S
C2472 C2473 1.400 . S
C2473 C2467 1.491 . S
C2473 C2472 1.400 . S
C2473 C2474 1.398 . S
C2474 H2462 0.950 . S
C2474 C2473 1.398 . S
C2474 C2475 1.391 . S
C2475 H2463 0.950 . S
C2475 C2471 1.393 . S
C2475 C2474 1.391 . S
H2476 C2484 0.950 . S
H2477 C2489 0.950 . S
H2478 C2486 0.950 . S
H2479 C2488 0.950 . S
H2480 C2490 0.950 . S
H2481 C2492 0.950 . S
H2482 C2494 0.950 . S
H2483 C2495 0.950 . S
C2484 H2476 0.950 . S
C2484 C2485 1.386 . S
C2484 C2486 1.391 . S
C2485 C2484 1.386 . S
C2485 C2489 1.393 . S
C2486 H2478 0.950 . S
C2486 C2484 1.391 . S
C2486 C2487 1.400 . S
C2487 C2486 1.400 . S
C2487 C2488 1.398 . S
C2487 C2493 1.491 . S
C2488 H2479 0.950 . S
C2488 C2487 1.398 . S
C2488 C2489 1.391 . S
C2489 H2477 0.950 . S
C2489 C2485 1.393 . S
C2489 C2488 1.391 . S
C2490 H2480 0.950 . S
C2490 C2491 1.386 . S
C2490 C2492 1.391 . S
C2491 C2490 1.386 . S
C2491 C2495 1.393 . S
C2492 H2481 0.950 . S
C2492 C2490 1.391 . S
C2492 C2493 1.400 . S
C2493 C2487 1.491 . S
C2493 C2492 1.400 . S
C2493 C2494 1.398 . S
C2494 H2482 0.950 . S
C2494 C2493 1.398 . S
C2494 C2495 1.391 . S
C2495 H2483 0.950 . S
C2495 C2491 1.393 . S
C2495 C2494 1.391 . S
H2496 C2504 0.950 . S
H2497 C2509 0.950 . S
H2498 C2506 0.950 . S
H2499 C2508 0.950 . S
H2500 C2510 0.950 . S
H2501 C2512 0.950 . S
H2502 C2514 0.950 . S
H2503 C2515 0.950 . S
C2504 H2496 0.950 . S
C2504 C2505 1.386 . S
C2504 C2506 1.391 . S
C2505 C2504 1.386 . S
C2505 C2509 1.393 . S
C2506 H2498 0.950 . S
C2506 C2504 1.391 . S
C2506 C2507 1.400 . S
C2507 C2506 1.400 . S
C2507 C2508 1.398 . S
C2507 C2513 1.491 . S
C2508 H2499 0.950 . S
C2508 C2507 1.398 . S
C2508 C2509 1.391 . S
C2509 H2497 0.950 . S
C2509 C2505 1.393 . S
C2509 C2508 1.391 . S
C2510 H2500 0.950 . S
C2510 C2511 1.386 . S
C2510 C2512 1.391 . S
C2511 C2510 1.386 . S
C2511 C2515 1.393 . S
C2512 H2501 0.950 . S
C2512 C2510 1.391 . S
C2512 C2513 1.400 . S
C2513 C2507 1.491 . S
C2513 C2512 1.400 . S
C2513 C2514 1.398 . S
C2514 H2502 0.950 . S
C2514 C2513 1.398 . S
C2514 C2515 1.391 . S
C2515 H2503 0.950 . S
C2515 C2511 1.393 . S
C2515 C2514 1.391 . S
H2516 C2524 0.950 . S
H2517 C2529 0.950 . S
H2518 C2526 0.950 . S
H2519 C2528 0.950 . S
H2520 C2530 0.950 . S
H2521 C2532 0.950 . S
H2522 C2534 0.950 . S
H2523 C2535 0.950 . S
C2524 H2516 0.950 . S
C2524 C2525 1.386 . S
C2524 C2526 1.391 . S
C2525 C2524 1.386 . S
C2525 C2529 1.393 . S
C2526 H2518 0.950 . S
C2526 C2524 1.391 . S
C2526 C2527 1.400 . S
C2527 C2526 1.400 . S
C2527 C2528 1.398 . S
C2527 C2533 1.491 . S
C2528 H2519 0.950 . S
C2528 C2527 1.398 . S
C2528 C2529 1.391 . S
C2529 H2517 0.950 . S
C2529 C2525 1.393 . S
C2529 C2528 1.391 . S
C2530 H2520 0.950 . S
C2530 C2531 1.386 . S
C2530 C2532 1.391 . S
C2531 C2530 1.386 . S
C2531 C2535 1.393 . S
C2532 H2521 0.950 . S
C2532 C2530 1.391 . S
C2532 C2533 1.400 . S
C2533 C2527 1.491 . S
C2533 C2532 1.400 . S
C2533 C2534 1.398 . S
C2534 H2522 0.950 . S
C2534 C2533 1.398 . S
C2534 C2535 1.391 . S
C2535 H2523 0.950 . S
C2535 C2531 1.393 . S
C2535 C2534 1.391 . S
H2536 C2544 0.950 . S
H2537 C2549 0.950 . S
H2538 C2546 0.950 . S
H2539 C2548 0.950 . S
H2540 C2550 0.950 . S
H2541 C2552 0.950 . S
H2542 C2554 0.950 . S
H2543 C2555 0.950 . S
C2544 H2536 0.950 . S
C2544 C2545 1.386 . S
C2544 C2546 1.391 . S
C2545 C2544 1.386 . S
C2545 C2549 1.393 . S
C2546 H2538 0.950 . S
C2546 C2544 1.391 . S
C2546 C2547 1.400 . S
C2547 C2546 1.400 . S
C2547 C2548 1.398 . S
C2547 C2553 1.491 . S
C2548 H2539 0.950 . S
C2548 C2547 1.398 . S
C2548 C2549 1.391 . S
C2549 H2537 0.950 . S
C2549 C2545 1.393 . S
C2549 C2548 1.391 . S
C2550 H2540 0.950 . S
C2550 C2551 1.382 1_554 S
C2550 C2552 1.391 1_554 S
C2551 C2550 1.382 1_556 S
C2551 C2555 1.406 . S
C2552 H2541 0.950 . S
C2552 C2550 1.391 1_556 S
C2552 C2553 1.400 . S
C2553 C2547 1.491 . S
C2553 C2552 1.400 . S
C2553 C2554 1.398 . S
C2554 H2542 0.950 . S
C2554 C2553 1.398 . S
C2554 C2555 1.391 . S
C2555 H2543 0.950 . S
C2555 C2551 1.406 . S
C2555 C2554 1.391 . S
H2556 C2564 0.950 . S
H2557 C2569 0.950 . S
H2558 C2566 0.950 . S
H2559 C2568 0.950 . S
H2560 C2570 0.950 . S
H2561 C2572 0.950 . S
H2562 C2574 0.950 . S
H2563 C2575 0.950 . S
C2564 H2556 0.950 . S
C2564 C2565 1.386 . S
C2564 C2566 1.391 . S
C2565 C2564 1.386 . S
C2565 C2569 1.393 . S
C2566 H2558 0.950 . S
C2566 C2564 1.391 . S
C2566 C2567 1.400 . S
C2567 C2566 1.400 . S
C2567 C2568 1.398 . S
C2567 C2573 1.491 . S
C2568 H2559 0.950 . S
C2568 C2567 1.398 . S
C2568 C2569 1.391 . S
C2569 H2557 0.950 . S
C2569 C2565 1.393 . S
C2569 C2568 1.391 . S
C2570 H2560 0.950 . S
C2570 C2571 1.386 . S
C2570 C2572 1.391 1_556 S
C2571 C2570 1.386 . S
C2571 C2575 1.393 1_556 S
C2572 H2561 0.950 . S
C2572 C2570 1.391 1_554 S
C2572 C2573 1.400 . S
C2573 C2567 1.491 . S
C2573 C2572 1.400 . S
C2573 C2574 1.398 . S
C2574 H2562 0.950 . S
C2574 C2573 1.398 . S
C2574 C2575 1.391 . S
C2575 H2563 0.950 . S
C2575 C2571 1.393 1_554 S
C2575 C2574 1.391 . S
H2576 C2584 0.950 . S
H2577 C2589 0.950 . S
H2578 C2586 0.950 . S
H2579 C2588 0.950 . S
H2580 C2590 0.950 . S
H2581 C2592 0.950 . S
H2582 C2594 0.950 . S
H2583 C2595 0.950 . S
C2584 H2576 0.950 . S
C2584 C2585 1.386 . S
C2584 C2586 1.391 . S
C2585 C2584 1.386 . S
C2585 C2589 1.393 . S
C2586 H2578 0.950 . S
C2586 C2584 1.391 . S
C2586 C2587 1.400 . S
C2587 C2586 1.400 . S
C2587 C2588 1.398 . S
C2587 C2593 1.491 . S
C2588 H2579 0.950 . S
C2588 C2587 1.398 . S
C2588 C2589 1.391 . S
C2589 H2577 0.950 . S
C2589 C2585 1.393 . S
C2589 C2588 1.391 . S
C2590 H2580 0.950 . S
C2590 C2591 1.386 . S
C2590 C2592 1.391 . S
C2591 C2590 1.386 . S
C2591 C2595 1.393 . S
C2592 H2581 0.950 . S
C2592 C2590 1.391 . S
C2592 C2593 1.400 . S
C2593 C2587 1.491 . S
C2593 C2592 1.400 . S
C2593 C2594 1.398 . S
C2594 H2582 0.950 . S
C2594 C2593 1.398 . S
C2594 C2595 1.391 . S
C2595 H2583 0.950 . S
C2595 C2591 1.393 . S
C2595 C2594 1.391 . S
H2596 C2604 0.950 . S
H2597 C2609 0.950 . S
H2598 C2606 0.950 . S
H2599 C2608 0.950 . S
H2600 C2610 0.950 . S
H2601 C2612 0.950 . S
H2602 C2614 0.950 . S
H2603 C2615 0.950 . S
C2604 H2596 0.950 . S
C2604 C2605 1.386 . S
C2604 C2606 1.391 . S
C2605 C2604 1.386 . S
C2605 C2609 1.393 . S
C2606 H2598 0.950 . S
C2606 C2604 1.391 . S
C2606 C2607 1.400 . S
C2607 C2606 1.400 . S
C2607 C2608 1.398 . S
C2607 C2613 1.491 . S
C2608 H2599 0.950 . S
C2608 C2607 1.398 . S
C2608 C2609 1.391 . S
C2609 H2597 0.950 . S
C2609 C2605 1.393 . S
C2609 C2608 1.391 . S
C2610 H2600 0.950 . S
C2610 C2611 1.386 . S
C2610 C2612 1.391 . S
C2611 C2610 1.386 . S
C2611 C2615 1.393 . S
C2612 H2601 0.950 . S
C2612 C2610 1.391 . S
C2612 C2613 1.400 . S
C2613 C2607 1.491 . S
C2613 C2612 1.400 . S
C2613 C2614 1.398 . S
C2614 H2602 0.950 . S
C2614 C2613 1.398 . S
C2614 C2615 1.391 . S
C2615 H2603 0.950 . S
C2615 C2611 1.393 . S
C2615 C2614 1.391 . S
H2616 C2624 0.950 . S
H2617 C2629 0.950 . S
H2618 C2626 0.950 . S
H2619 C2628 0.950 . S
H2620 C2630 0.950 . S
H2621 C2632 0.950 1_556 S
H2622 C2634 0.950 . S
H2623 C2635 0.950 . S
C2624 H2616 0.950 . S
C2624 C2625 1.386 . S
C2624 C2626 1.391 . S
C2625 C2624 1.386 . S
C2625 C2629 1.393 . S
C2626 H2618 0.950 . S
C2626 C2624 1.391 . S
C2626 C2627 1.400 . S
C2627 C2626 1.400 . S
C2627 C2628 1.398 . S
C2627 C2633 1.491 . S
C2628 H2619 0.950 . S
C2628 C2627 1.398 . S
C2628 C2629 1.391 . S
C2629 H2617 0.950 . S
C2629 C2625 1.393 . S
C2629 C2628 1.391 . S
C2630 H2620 0.950 . S
C2630 C2631 1.387 . S
C2630 C2632 1.391 1_556 S
C2631 C2630 1.387 . S
C2631 C2635 1.390 1_556 S
C2632 H2621 0.950 1_554 S
C2632 C2630 1.391 1_554 S
C2632 C2633 1.400 . S
C2633 C2627 1.491 . S
C2633 C2632 1.400 . S
C2633 C2634 1.398 . S
C2634 H2622 0.950 . S
C2634 C2633 1.398 . S
C2634 C2635 1.391 . S
C2635 H2623 0.950 . S
C2635 C2631 1.390 1_554 S
C2635 C2634 1.391 . S
H2636 C2644 0.950 1_554 S
H2637 C2649 0.950 . S
H2638 C2646 0.950 . S
H2639 C2648 0.950 . S
H2640 C2650 0.950 . S
H2641 C2652 0.950 . S
H2642 C2654 0.950 . S
H2643 C2655 0.950 . S
C2644 H2636 0.950 1_556 S
C2644 C2645 1.386 . S
C2644 C2646 1.391 . S
C2645 C2644 1.386 . S
C2645 C2649 1.393 . S
C2646 H2638 0.950 . S
C2646 C2644 1.391 . S
C2646 C2647 1.400 . S
C2647 C2646 1.400 . S
C2647 C2648 1.398 . S
C2647 C2653 1.491 . S
C2648 H2639 0.950 . S
C2648 C2647 1.398 . S
C2648 C2649 1.391 . S
C2649 H2637 0.950 . S
C2649 C2645 1.393 . S
C2649 C2648 1.391 . S
C2650 H2640 0.950 . S
C2650 C2651 1.386 . S
C2650 C2652 1.391 . S
C2651 C2650 1.386 . S
C2651 C2655 1.393 . S
C2652 H2641 0.950 . S
C2652 C2650 1.391 . S
C2652 C2653 1.400 . S
C2653 C2647 1.491 . S
C2653 C2652 1.400 . S
C2653 C2654 1.398 . S
C2654 H2642 0.950 . S
C2654 C2653 1.398 . S
C2654 C2655 1.391 . S
C2655 H2643 0.950 . S
C2655 C2651 1.393 . S
C2655 C2654 1.391 . S
C1065 C1011 1.520 . S
C1071 C21 1.521 . S
C1085 C54 1.523 . S
C1091 C516 1.517 . S
C1105 C87 1.516 . S
C1111 C945 1.525 . S
C1125 C120 1.518 . S
C1131 C450 1.523 . S
C1145 C879 1.518 . S
C1151 C153 1.522 . S
C1165 C384 1.525 . S
C1171 C186 1.516 . S
C1185 C219 1.519 . S
C1191 C813 1.522 . S
C1205 C318 1.516 . S
C1211 C252 1.525 . S
C1225 C747 1.523 . S
C1231 C285 1.518 . S
C1245 C681 1.518 . S
C1251 C351 1.523 . S
C1265 C417 1.522 . S
C1271 C615 1.519 . S
C1285 C549 1.516 . S
C1291 C483 1.525 . S
C1305 C1044 1.518 . S
C1311 C582 1.523 . S
C1325 C978 1.519 . S
C1331 C648 1.522 . S
C1345 C912 1.517 . S
C1351 C714 1.524 . S
C1365 C846 1.515 . S
C1371 C780 1.525 . S
C1385 N2 1.101 . S
C1391 N13 1.102 . S
C1405 N35 1.104 . S
C1411 N46 1.104 . S
C1425 N68 1.105 . S
C1431 N79 1.105 . S
C1445 N101 1.096 . S
C1451 N112 1.097 . S
C1465 N134 1.095 . S
C1471 N145 1.096 . S
C1485 N167 1.104 . S
C1491 N178 1.104 . S
C1505 N211 1.104 . S
C1511 N200 1.104 . S
C1525 N233 1.106 . S
C1531 N244 1.106 . S
C1545 N266 1.099 . S
C1551 N277 1.099 . S
C1565 N310 1.098 . S
C1571 N299 1.097 . S
C1585 N332 1.096 . S
C1591 N343 1.097 . S
C1605 N365 1.095 . S
C1611 N376 1.096 . S
C1625 N398 1.098 . S
C1631 N409 1.099 . S
C1645 N442 1.106 . S
C1651 N431 1.106 . S
C1665 N464 1.095 . S
C1671 N475 1.096 . S
C1685 N508 1.099 . S
C1691 N497 1.097 . S
C1705 N541 1.098 . S
C1711 N530 1.096 . S
C1725 N563 1.104 . S
C1731 N574 1.105 . S
C1745 N607 1.097 . S
C1751 N596 1.095 . S
C1765 N640 1.097 . S
C1771 N629 1.096 . S
C1785 N673 1.099 . S
C1791 N662 1.098 . S
C1805 N706 1.104 . S
C1811 N695 1.104 . S
C1825 N739 1.102 . S
C1831 N728 1.102 . S
C1845 N772 1.106 . S
C1851 N761 1.106 . S
C1865 N805 1.101 . S
C1871 N794 1.101 . S
C1885 N838 1.097 . S
C1891 N827 1.096 . S
C1905 N860 1.098 . S
C1911 N871 1.098 . S
C1925 N904 1.099 . S
C1931 N893 1.098 . S
C1945 N937 1.096 . S
C1951 N926 1.095 . S
C1965 N970 1.105 . S
C1971 N959 1.104 . S
C1985 N992 1.096 . S
C1991 N1003 1.097 . S
C2005 N1025 1.101 . S
C2011 N1036 1.102 . S
C2025 C205 1.410 . S
C2031 C7 1.393 . S
C2045 C238 1.410 . S
C2051 C40 1.413 . S
C2065 C73 1.389 . S
C2071 C139 1.400 . S
C2085 C172 1.393 . S
C2091 C106 1.391 . S
C2105 C271 1.412 . S
C2111 C469 1.395 . S
C2125 C304 1.403 . S
C2131 C502 1.415 . S
C2145 C337 1.389 . S
C2151 C403 1.403 . S
C2165 C436 1.402 . S
C2171 C370 1.415 . S
C2185 C733 1.391 . S
C2191 C535 1.394 . S
C2205 C568 1.391 . S
C2211 C766 1.407 . S
C2225 C667 1.391 . S
C2231 C601 1.395 . S
C2245 C700 1.395 . S
C2251 C634 1.412 . S
C2265 C799 1.398 . S
C2271 C997 1.389 . S
C2285 C1030 1.414 . S
C2291 C832 1.409 . S
C2305 C865 1.415 . S
C2311 C931 1.403 . S
C2325 C964 1.397 . S
C2331 C898 1.390 . S
C2345 C18 1.237 . S
C2351 C249 1.237 . S
C2365 C150 1.215 1_554 S
C2371 C51 1.219 . S
C2385 C84 1.225 . S
C2391 C183 1.224 . S
C2405 C117 1.227 . S
C2411 C216 1.226 . S
C2425 C282 1.239 . S
C2431 C513 1.239 . S
C2445 C414 1.235 . S
C2451 C315 1.234 . S
C2465 C348 1.238 . S
C2471 C447 1.239 . S
C2485 C381 1.224 . S
C2491 C480 1.225 . S
C2505 C777 1.223 . S
C2511 C546 1.224 . S
C2525 C678 1.224 . S
C2531 C579 1.224 . S
C2545 C711 1.219 . S
C2551 C612 1.212 1_556 S
C2565 C645 1.232 . S
C2571 C744 1.231 . S
C2585 C810 1.231 . S
C2591 C1041 1.232 . S
C2605 C843 1.215 . S
C2611 C942 1.215 . S
C2625 C975 1.225 . S
C2631 C876 1.227 . S
C2645 C1008 1.214 1_556 S
C2651 C909 1.214 . S
