# Generated by pormake.
# Topology rkf, (6)-cn, num edge types: 1
# Building blocks:
#     Node 0, Type 0, BuildingBlock: GEDQOX_clean_sbu_0, # of connection points: 6
#     Node 1, Type 0, BuildingBlock: GEDQOX_clean_sbu_0, # of connection points: 6
#     Node 2, Type 0, BuildingBlock: GEDQOX_clean_sbu_0, # of connection points: 6
#     Node 3, Type 0, BuildingBlock: GEDQOX_clean_sbu_0, # of connection points: 6
#     Node 4, Type 0, BuildingBlock: GEDQOX_clean_sbu_0, # of connection points: 6
#     Node 5, Type 0, BuildingBlock: GEDQOX_clean_sbu_0, # of connection points: 6
#     Edge 6, Type (0, 0), BuildingBlock: FUNLAD_clean_linker_0, # of connection points: 2
#     Edge 7, Type (0, 0), BuildingBlock: FUNLAD_clean_linker_0, # of connection points: 2
#     Edge 8, Type (0, 0), BuildingBlock: FUNLAD_clean_linker_0, # of connection points: 2
#     Edge 9, Type (0, 0), BuildingBlock: FUNLAD_clean_linker_0, # of connection points: 2
#     Edge 10, Type (0, 0), BuildingBlock: FUNLAD_clean_linker_0, # of connection points: 2
#     Edge 11, Type (0, 0), BuildingBlock: FUNLAD_clean_linker_0, # of connection points: 2
#     Edge 12, Type (0, 0), BuildingBlock: FUNLAD_clean_linker_0, # of connection points: 2
#     Edge 13, Type (0, 0), BuildingBlock: FUNLAD_clean_linker_0, # of connection points: 2
#     Edge 14, Type (0, 0), BuildingBlock: FUNLAD_clean_linker_0, # of connection points: 2
#     Edge 15, Type (0, 0), BuildingBlock: FUNLAD_clean_linker_0, # of connection points: 2
#     Edge 16, Type (0, 0), BuildingBlock: FUNLAD_clean_linker_0, # of connection points: 2
#     Edge 17, Type (0, 0), BuildingBlock: FUNLAD_clean_linker_0, # of connection points: 2
#     Edge 18, Type (0, 0), BuildingBlock: FUNLAD_clean_linker_0, # of connection points: 2
#     Edge 19, Type (0, 0), BuildingBlock: FUNLAD_clean_linker_0, # of connection points: 2
#     Edge 20, Type (0, 0), BuildingBlock: FUNLAD_clean_linker_0, # of connection points: 2
#     Edge 21, Type (0, 0), BuildingBlock: FUNLAD_clean_linker_0, # of connection points: 2
#     Edge 22, Type (0, 0), BuildingBlock: FUNLAD_clean_linker_0, # of connection points: 2
#     Edge 23, Type (0, 0), BuildingBlock: FUNLAD_clean_linker_0, # of connection points: 2
# Relax obj value: 0.647
# Max RMSD: 0.283
# Mean RMSD: 0.264
data_MOF--net-rkf--node1-GEDQOX_clean_sbu_0--edge1-FUNLAD_clean_linker_0
_symmetry_space_group_name_H-M    P1
_symmetry_Int_Tables_number       1
_symmetry_cell_setting            triclinic
loop_
_symmetry_equiv_pos_as_xyz
'x, y, z'
_cell_length_a     27.062945
_cell_length_b     26.627097
_cell_length_c     50.168325
_cell_angle_alpha  89.941293
_cell_angle_beta   90.069521
_cell_angle_gamma 121.01316
loop_
_atom_site_label
_atom_site_type_symbol
_atom_site_fract_x
_atom_site_fract_y
_atom_site_fract_z
_atom_type_partial_charge
Nd0 Nd 0.1928 0.01989 1.13296 0.0
Nd1 Nd 0.28665 0.13378 1.14836 0.0
C2 C 0.13537 0.9051 1.12665 0.0
C3 C 0.15234 0.86714 1.11279 0.0
C4 C 0.19045 0.85293 1.12507 0.0
C5 C 0.21726 0.82934 1.11019 0.0
C6 C 0.20607 0.81887 1.08282 0.0
C7 C 0.16381 0.82776 1.07116 0.0
C8 C 0.13716 0.85158 1.08601 0.0
C9 C 0.16005 0.10243 1.13911 0.0
C10 C 0.24228 0.10749 1.0839 0.0
C11 C 0.37045 0.24462 0.15497 0.0
C12 C 0.3965 0.28597 0.17714 0.0
C13 C 0.36366 0.28163 0.19955 0.0
C14 C 0.39028 0.3166 0.22181 0.0
C15 C 0.45027 0.35612 0.22214 0.0
C16 C 0.48259 0.3621 0.19919 0.0
C17 C 0.45578 0.32728 0.17681 0.0
C18 C 0.31996 0.05201 1.14787 0.0
C19 C 0.20385 0.05025 0.19802 0.0
O20 O 0.16513 0.93133 1.14803 0.0
O21 O 0.12623 0.93997 1.11175 0.0
O22 O 0.13333 0.05801 1.123 0.0
O23 O 0.19384 0.09524 0.15331 0.0
O24 O 0.21593 0.05143 1.08983 0.0
O25 O 0.2695 0.14681 1.10311 0.0
O26 O 0.31773 0.22883 1.1486 0.0
O27 O 0.37888 0.20068 0.15506 0.0
O28 O 0.32662 0.08601 0.16768 0.0
O29 O 0.29066 0.05775 1.12936 0.0
O30 O 0.24277 0.10543 0.1911 0.0
O31 O 0.18222 0.00952 0.17922 0.0
H32 H 0.20243 0.8633 1.14583 0.0
H33 H 0.24892 0.8221 1.11981 0.0
H34 H 0.1544 0.82052 1.05005 0.0
H35 H 0.10752 0.86132 1.07605 0.0
H36 H 0.31788 0.2496 0.20026 0.0
H37 H 0.36431 0.31004 0.23935 0.0
H38 H 0.52879 0.39219 0.1989 0.0
H39 H 0.48168 0.33104 0.15962 0.0
Nd40 Nd 0.22651 0.1429 0.50197 0.0
Nd41 Nd 0.21768 0.24538 0.51148 0.0
C42 C 0.26579 0.07904 0.48206 0.0
C43 C 0.30018 0.09476 0.45728 0.0
C44 C 0.3607 0.12384 0.45927 0.0
C45 C 0.39537 0.16484 0.43995 0.0
C46 C 0.3697 0.17627 0.41836 0.0
C47 C 0.31014 0.1403 0.41417 0.0
C48 C 0.27561 0.09929 0.43335 0.0
C49 C 0.11911 0.11979 0.51826 0.0
C50 C 0.1742 0.18478 0.4518 0.0
C51 C 0.20896 0.33677 0.52464 0.0
C52 C 0.18862 0.36647 0.5422 0.0
C53 C 0.13303 0.33742 0.55315 0.0
C54 C 0.11356 0.36861 0.56777 0.0
C55 C 0.1497 0.42937 0.57187 0.0
C56 C 0.20574 0.45783 0.56115 0.0
C57 C 0.22478 0.42672 0.54638 0.0
C58 C 0.3239 0.27706 0.48914 0.0
C59 C 0.21588 0.16174 0.56436 0.0
O60 O 0.29157 0.11627 0.50153 0.0
O61 O 0.21164 0.06406 0.47965 0.0
O62 O 0.14054 0.08872 0.52679 0.0
O63 O 0.15227 0.15555 0.50156 0.0
O64 O 0.20047 0.15596 0.45861 0.0
O65 O 0.17144 0.2202 0.46968 0.0
O66 O 0.17118 0.29346 0.50993 0.0
O67 O 0.25115 0.33017 0.53279 0.0
O68 O 0.28903 0.29272 0.48037 0.0
O69 O 0.29918 0.23991 0.50792 0.0
O70 O 0.20285 0.20128 0.55547 0.0
O71 O 0.23418 0.13752 0.54716 0.0
H72 H 0.38088 0.12064 0.47734 0.0
H73 H 0.44141 0.19168 0.44333 0.0
H74 H 0.28972 0.14757 0.39722 0.0
H75 H 0.22927 0.07665 0.43078 0.0
H76 H 0.1046 0.29094 0.55023 0.0
H77 H 0.07012 0.34518 0.57564 0.0
H78 H 0.23548 0.5041 0.56449 0.0
H79 H 0.26784 0.44995 0.538 0.0
Nd80 Nd 0.12715 0.26134 0.79212 0.0
Nd81 Nd 0.00979 0.18441 0.80963 0.0
C82 C 0.21988 0.36013 0.77746 0.0
C83 C 0.22317 0.40966 0.76304 0.0
C84 C 0.1734 0.40173 0.7505 0.0
C85 C 0.17296 0.44895 0.73894 0.0
C86 C 0.22257 0.50515 0.73939 0.0
C87 C 0.27297 0.51309 0.75157 0.0
C88 C 0.27304 0.46557 0.76364 0.0
C89 C 0.10595 0.14933 0.79257 0.0
C90 C 0.03122 0.18822 0.74405 0.0
C91 C 0.89858 0.11889 0.82056 0.0
C92 C 0.86173 0.12605 0.83976 0.0
C93 C 0.81021 0.07748 0.84874 0.0
C94 C 0.77867 0.08394 0.86917 0.0
C95 C 0.79868 0.13906 0.88113 0.0
C96 C 0.84928 0.18786 0.87117 0.0
C97 C 0.88022 0.18142 0.85066 0.0
C98 C 0.05189 0.30338 0.81874 0.0
C99 C 0.10562 0.20297 0.85283 0.0
O100 O 0.19702 0.35186 0.80119 0.0
O101 O 0.19937 0.31136 0.76388 0.0
O102 O 0.15638 0.19503 0.79746 0.0
O103 O 0.0699 0.16464 0.78734 0.0
O104 O 0.0844 0.2325 0.74934 0.0
O105 O 0.99543 0.16094 0.76418 0.0
O106 O 0.93756 0.10973 0.83106 0.0
O107 O 0.91908 0.15719 0.80118 0.0
O108 O 0.02886 0.26341 0.83687 0.0
O109 O 0.05587 0.28049 0.79754 0.0
O110 O 0.05396 0.16446 0.84369 0.0
O111 O 0.13969 0.25029 0.83821 0.0
H112 H 0.13442 0.3589 0.74996 0.0
H113 H 0.13396 0.44113 0.72909 0.0
H114 H 0.31194 0.55589 0.75183 0.0
H115 H 0.31165 0.47246 0.77353 0.0
H116 H 0.79522 0.0344 0.84046 0.0
H117 H 0.73949 0.04553 0.87604 0.0
H118 H 0.8669 0.2308 0.88006 0.0
H119 H 0.91973 0.21955 0.84395 0.0
Nd120 Nd 0.86785 0.03381 0.1751 0.0
Nd121 Nd 0.79126 0.91541 0.18886 0.0
C122 C 0.90972 0.14495 0.16229 0.0
C123 C 0.88732 0.1694 1.14285 0.0
C124 C 0.83415 0.13189 1.13061 0.0
C125 C 0.81441 0.15215 1.11003 0.0
C126 C 0.84743 0.21057 1.10122 0.0
C127 C 0.89971 0.24879 1.11438 0.0
C128 C 0.91961 0.22822 1.13503 0.0
C129 C 0.92724 0.97518 0.18507 0.0
C130 C 0.83877 0.94175 1.12801 0.0
C131 C 0.7217 0.80638 0.2046 0.0
C132 C 0.70255 0.75757 0.22331 0.0
C133 C 0.71844 0.76676 0.25025 0.0
C134 C 0.69187 0.72012 0.26829 0.0
C135 C 0.64876 0.66405 0.2596 0.0
C136 C 0.63531 0.65467 0.23235 0.0
C137 C 0.66218 0.7011 0.21435 0.0
C138 C 0.73395 0.96687 0.16558 0.0
C139 C 0.86573 0.01242 0.23919 0.0
O140 O 0.87672 0.12002 0.18297 0.0
O141 O 0.92866 0.11301 0.15202 0.0
O142 O 0.93864 0.01203 0.16571 0.0
O143 O 0.88456 0.96974 0.19738 0.0
O144 O 0.84179 0.99186 1.13319 0.0
O145 O 0.82759 0.90502 1.14808 0.0
O146 O 0.76731 0.82195 0.18992 0.0
O147 O 0.71542 0.85008 0.21165 0.0
O148 O 0.72805 0.91769 0.15822 0.0
O149 O 0.77204 0.98894 0.18353 0.0
O150 O 0.82725 0.95672 0.23238 0.0
O151 O 0.88846 0.05221 0.22009 0.0
H152 H 0.80884 0.08615 1.13631 0.0
H153 H 0.77468 0.12095 1.10013 0.0
H154 H 0.92593 0.29416 1.10829 0.0
H155 H 0.96077 0.2577 1.14434 0.0
H156 H 0.74938 0.81025 0.25746 0.0
H157 H 0.70262 0.72867 0.28925 0.0
H158 H 0.60258 0.61189 0.22513 0.0
H159 H 0.64943 0.69342 0.19357 0.0
Nd160 Nd 0.82676 0.85856 0.46526 0.0
Nd161 Nd 0.91657 0.84266 0.47553 0.0
C162 C 0.71929 0.83494 0.45937 0.0
C163 C 0.66602 0.77911 0.454 0.0
C164 C 0.6116 0.77284 0.45691 0.0
C165 C 0.56185 0.72023 0.44951 0.0
C166 C 0.56619 0.67328 0.43944 0.0
C167 C 0.62088 0.6793 0.43793 0.0
C168 C 0.6701 0.73174 0.44492 0.0
C169 C 0.91788 0.97006 0.46741 0.0
C170 C 0.91594 0.87863 0.41603 0.0
C171 C 0.0051 0.83138 0.4887 0.0
C172 C 0.05416 0.86134 0.507 0.0
C173 C 0.08095 0.92183 0.51168 0.0
C174 C 0.11382 0.94603 0.53473 0.0
C175 C 0.11771 0.90958 0.55387 0.0
C176 C 0.09882 0.85115 0.54669 0.0
C177 C 0.06712 0.82728 0.52344 0.0
C178 C 0.81205 0.73693 0.46464 0.0
C179 C 0.87625 0.88774 0.52794 0.0
O180 O 0.74289 0.83886 0.48249 0.0
O181 O 0.75707 0.85392 0.44015 0.0
O182 O 0.87747 0.95165 0.4497 0.0
O183 O 0.91458 0.92731 0.48039 0.0
O184 O 0.85976 0.85207 0.42166 0.0
O185 O 0.95083 0.89047 0.43613 0.0
O186 O 0.00504 0.86093 0.46792 0.0
O187 O 0.95468 0.80224 0.50024 0.0
O188 O 0.85915 0.75445 0.45134 0.0
O189 O 0.82056 0.77677 0.48044 0.0
O190 O 0.91384 0.87417 0.51879 0.0
O191 O 0.83679 0.88506 0.51108 0.0
H192 H 0.60776 0.80911 0.46399 0.0
H193 H 0.52036 0.71702 0.45067 0.0
H194 H 0.62629 0.64502 0.42949 0.0
H195 H 0.71182 0.73637 0.44202 0.0
H196 H 0.07241 0.94935 0.49891 0.0
H197 H 0.13019 0.99166 0.53908 0.0
H198 H 0.10138 0.82126 0.56045 0.0
H199 H 0.04754 0.78069 0.51985 0.0
Nd200 Nd 0.9667 0.80146 0.83888 0.0
Nd201 Nd 0.07295 0.89081 0.85039 0.0
C202 C 0.88015 0.70348 0.81891 0.0
C203 C 0.85657 0.69043 0.79155 0.0
C204 C 0.88112 0.6712 0.77254 0.0
C205 C 0.87593 0.67934 0.74551 0.0
C206 C 0.84514 0.70592 0.73694 0.0
C207 C 0.81251 0.7156 0.7558 0.0
C208 C 0.81834 0.70811 0.78295 0.0
C209 C 0.95577 0.89748 0.84053 0.0
C210 C 0.05395 0.8877 0.7882 0.0
C211 C 0.17428 0.9722 0.86969 0.0
C212 C 0.22144 0.96707 0.88102 0.0
C213 C 0.2741 0.01691 0.88786 0.0
C214 C 0.31693 0.01089 0.90053 0.0
C215 C 0.3074 0.95487 0.90663 0.0
C216 C 0.25531 0.90521 0.89849 0.0
C217 C 0.21291 0.9113 0.88578 0.0
C218 C 0.06716 0.78246 0.84672 0.0
C219 C 0.98187 0.8461 0.89957 0.0
O220 O 0.93239 0.71302 0.82161 0.0
O221 O 0.87298 0.74131 0.83223 0.0
O222 O 0.92216 0.84877 0.85284 0.0
O223 O 0.99932 0.89737 0.83079 0.0
O224 O 0.00814 0.83577 0.79499 0.0
O225 O 0.08414 0.92354 0.80754 0.0
O226 O 0.12681 0.94761 0.88362 0.0
O227 O 0.16459 0.96009 0.8444 0.0
O228 O 0.10281 0.82874 0.83359 0.0
O229 O 0.03454 0.79335 0.86003 0.0
O230 O 0.02512 0.89306 0.88844 0.0
O231 O 0.95528 0.79751 0.88519 0.0
H232 H 0.90946 0.6557 0.77853 0.0
H233 H 0.9015 0.67063 0.73183 0.0
H234 H 0.78643 0.73378 0.74985 0.0
H235 H 0.79705 0.72129 0.79716 0.0
H236 H 0.28149 0.06031 0.88404 0.0
H237 H 0.35672 0.05004 0.90627 0.0
H238 H 0.24564 0.86138 0.90326 0.0
H239 H 0.17245 0.87231 0.88055 0.0
C240 C 0.02991 0.00527 0.18934 0.0
C241 C 0.97531 0.97947 0.201 0.0
C242 C 0.07694 0.04925 0.2033 0.0
C243 C 0.06829 0.06828 0.22801 0.0
C244 C 0.01803 0.03108 0.24217 0.0
C245 C 0.97233 0.98374 0.22893 0.0
C246 C 0.10059 0.13207 0.23327 0.0
C247 C 0.08148 0.16289 0.21976 0.0
C248 C 0.10061 0.17721 0.19154 0.0
C249 C 0.06186 0.1417 0.17145 0.0
C250 C 0.08178 0.1233 0.14987 0.0
C251 C 0.14059 0.14228 1.14833 0.0
H252 H 0.19049 0.23645 0.20063 0.0
C253 C 0.17941 0.19002 0.16426 0.0
C254 C 0.15961 0.20734 0.18593 0.0
H255 H 0.22498 0.207 0.16304 0.0
H256 H 0.03452 -0.00027 0.16828 0.0
H257 H 0.11709 0.07538 0.1929 0.0
H258 H 0.01183 0.04235 0.26208 0.0
H259 H 0.93158 0.95892 0.2392 0.0
H260 H 0.14689 0.15007 0.23328 0.0
H261 H 0.03618 0.14837 0.22259 0.0
H262 H 0.01609 0.11924 0.17521 0.0
H263 H 0.05075 0.08751 1.13751 0.0
C264 C 0.90269 0.05444 0.47654 0.0
C265 C 0.92783 0.02107 0.48356 0.0
C266 C 0.8929 0.08632 0.49607 0.0
C267 C 0.90568 0.0829 0.52291 0.0
C268 C 0.92918 0.04848 0.52949 0.0
C269 C 0.94562 0.02335 0.50994 0.0
C270 C 0.90065 0.11933 0.54411 0.0
C271 C 0.94516 0.15313 0.5608 0.0
C272 C 1.00315 0.16234 0.55557 0.0
C273 C 0.02695 0.18457 0.53052 0.0
C274 C 0.06311 0.16868 0.51872 0.0
C275 C 0.07859 0.13227 0.53205 0.0
H276 H 0.00503 0.11386 0.58969 0.0
C277 C 0.05999 0.1152 0.55837 0.0
C278 C 0.02335 0.13155 0.57039 0.0
H279 H 0.07186 0.08772 0.56912 0.0
H280 H 0.88808 0.05361 0.45635 0.0
H281 H 0.87463 0.1126 0.49035 0.0
H282 H 0.93615 0.04213 0.55002 0.0
H283 H 0.96666 -5e-05 0.51605 0.0
H284 H 0.86026 0.11831 0.54633 0.0
H285 H 0.93931 0.17634 0.5771 0.0
H286 H 0.01216 0.20852 0.51877 0.0
H287 H 0.07707 0.18319 0.49849 0.0
C288 C 0.94379 0.97757 0.82139 0.0
C289 C 0.92592 0.91816 0.82333 0.0
C290 C 0.92977 -0.00199 0.79854 0.0
C291 C 0.90091 0.95944 0.77714 0.0
C292 C 0.87439 0.89902 0.78138 0.0
C293 C 0.88687 0.8785 0.80442 0.0
C294 C 0.91849 0.98257 0.74972 0.0
C295 C 0.95638 0.97101 0.73789 0.0
C296 C 0.01694 0.00854 0.74665 0.0
C297 C 0.03214 -0.00124 0.77208 0.0
C298 C 0.0734 0.04565 0.78717 0.0
C299 C 0.1012 0.1017 0.77614 0.0
H300 H 0.04418 0.06895 0.71375 0.0
C301 C 0.09746 0.10772 0.74839 0.0
C302 C 0.05351 0.06153 0.73383 0.0
H303 H 0.12036 0.15073 0.73926 0.0
H304 H 0.97357 0.00873 0.83583 0.0
H305 H 0.95077 0.04489 0.79556 0.0
H306 H 0.85133 0.86848 0.76536 0.0
H307 H 0.87195 0.83224 0.80572 0.0
H308 H 0.92816 0.02732 0.74795 0.0
H309 H 0.9433 0.92506 0.73668 0.0
H310 H 0.00574 0.957 0.78175 0.0
H311 H 0.07634 0.03953 0.80835 0.0
C312 C 0.20179 0.08377 1.03639 0.0
C313 C 0.23596 0.1259 1.05591 0.0
C314 C 0.19192 0.10017 1.01094 0.0
C315 C 0.21582 0.15969 1.00381 0.0
C316 C 0.25086 0.20171 1.02319 0.0
C317 C 0.2605 0.18529 1.04867 0.0
C318 C 0.20638 0.18012 0.97668 0.0
C319 C 0.16569 0.14545 0.95824 0.0
C320 C 0.15344 0.16409 0.93133 0.0
C321 C 0.1037 0.12309 0.91722 0.0
C322 C 0.08918 0.1362 0.89225 0.0
C323 C 0.12389 0.19103 0.87976 0.0
H324 H 0.22779 0.2524 0.92864 0.0
C325 C 0.17427 0.2324 0.89358 0.0
C326 C 0.18874 0.21929 0.91896 0.0
H327 H 0.20245 0.27512 0.88487 0.0
H328 H 0.18177 0.03751 1.04085 0.0
H329 H 0.16564 0.06565 0.99698 0.0
H330 H 0.27053 0.24794 1.01873 0.0
H331 H 0.28681 0.21941 1.06286 0.0
H332 H 0.23332 0.22648 0.97227 0.0
H333 H 0.13732 0.09968 0.96333 0.0
H334 H 0.07526 0.08006 0.92563 0.0
H335 H 0.05022 0.10256 0.88264 0.0
C336 C 0.11672 0.20446 0.41697 0.0
C337 C 0.13997 0.1705 0.42577 0.0
C338 C 0.08205 0.18958 0.39375 0.0
C339 C 0.06759 0.13924 0.37845 0.0
C340 C 0.09089 0.10516 0.38715 0.0
C341 C 0.12649 0.12058 0.41023 0.0
C342 C 0.03122 0.12647 0.35306 0.0
C343 C 0.99696 0.07273 0.34141 0.0
C344 C 0.96006 0.05993 0.31615 0.0
C345 C 0.9154 0.00186 0.31052 0.0
C346 C 0.88301 0.98666 0.28651 0.0
C347 C 0.89371 0.02901 0.26685 0.0
H348 H 1.0035 0.14783 0.29972 0.0
C349 C 0.93716 0.08757 0.27283 0.0
C350 C 0.96959 0.10272 0.29686 0.0
H351 H 0.94778 0.12195 0.25841 0.0
H352 H 0.12529 0.24296 0.42811 0.0
H353 H 0.06585 0.21761 0.38785 0.0
H354 H 0.08262 0.0671 0.37586 0.0
H355 H 0.14283 0.09267 0.41609 0.0
H356 H 0.03099 0.16363 0.3443 0.0
H357 H 0.994 0.03508 0.35137 0.0
H358 H 0.90562 0.96754 0.32479 0.0
H359 H 0.85069 0.94114 0.28302 0.0
C360 C 0.95748 0.11486 0.71051 0.0
C361 C 0.01418 0.16131 0.71616 0.0
C362 C 0.94331 0.08276 0.68626 0.0
C363 C 0.98514 0.09647 0.66626 0.0
C364 C 0.04089 0.14521 0.67132 0.0
C365 C 0.05516 0.1768 0.69565 0.0
C366 C 0.97416 0.06024 0.64075 0.0
C367 C 0.92165 0.02101 0.62974 0.0
C368 C 0.91115 0.98557 0.60398 0.0
C369 C 0.95302 0.97668 0.5917 0.0
C370 C 0.94061 0.94256 0.56815 0.0
C371 C 0.88633 0.9173 0.55521 0.0
H372 H 0.8226 0.96391 0.60002 0.0
C373 C 0.84447 0.92603 0.56751 0.0
C374 C 0.85639 0.95866 0.59148 0.0
H375 H 0.80239 0.90819 0.55841 0.0
H376 H 0.92394 0.10194 0.72528 0.0
H377 H 0.89985 0.04612 0.6837 0.0
H378 H 0.07433 0.15864 0.65646 0.0
H379 H 0.09918 0.21209 0.69873 0.0
H380 H 0.01234 0.06795 0.63016 0.0
H381 H 0.88349 0.01558 0.63956 0.0
H382 H 0.99584 -0.0034 0.59999 0.0
H383 H 0.97477 0.93817 0.55942 0.0
C384 C 0.85187 0.87812 1.09331 0.0
C385 C 0.85285 0.93016 1.10017 0.0
C386 C 0.86848 0.87006 1.06753 0.0
C387 C 0.88706 0.91404 1.04771 0.0
C388 C 0.88755 0.96561 1.05471 0.0
C389 C 0.87065 0.9734 1.0802 0.0
C390 C 0.90863 0.91036 1.02008 0.0
C391 C 0.90105 0.86117 1.00773 0.0
C392 C 0.92244 0.85905 0.9798 0.0
C393 C 0.89869 0.80482 0.96633 0.0
C394 C 0.91751 0.80037 0.94059 0.0
C395 C 0.96159 0.84998 0.92732 0.0
H396 H 0.98764 0.95134 0.97594 0.0
C397 C 0.98589 0.90421 0.94087 0.0
C398 C 0.96674 0.90875 0.96651 0.0
H399 H 0.01999 0.94369 0.9316 0.0
H400 H 0.83894 0.84376 1.10801 0.0
H401 H 0.8679 0.82988 1.06348 0.0
H402 H 0.90158 0.00074 1.04032 0.0
H403 H 0.87257 0.01428 1.08435 0.0
H404 H 0.93058 0.95113 1.00897 0.0
H405 H 0.87611 0.81961 1.01804 0.0
H406 H 0.86488 0.76534 0.97573 0.0
H407 H 0.8975 0.75779 0.93112 0.0
C408 C 1.00347 0.93302 0.38569 0.0
C409 C 0.94285 0.89576 0.38821 0.0
C410 C 0.03149 0.94854 0.36064 0.0
C411 C 1.00038 0.9279 0.33662 0.0
C412 C 0.93979 0.89005 0.33904 0.0
C413 C 0.91146 0.87483 0.36424 0.0
C414 C 0.02953 0.94242 0.30912 0.0
C415 C 0.08411 0.98803 0.3034 0.0
C416 C 0.11458 0.00241 0.27624 0.0
C417 C 0.16351 0.05873 0.27157 0.0
C418 C 0.19353 0.07415 0.24687 0.0
C419 C 0.17648 0.03356 0.22578 0.0
H420 H 0.06189 0.91737 0.25774 0.0
C421 C 0.12865 0.97658 0.23079 0.0
C422 C 0.09818 0.96147 0.2553 0.0
H423 H 0.11337 0.9435 0.21535 0.0
H424 H 0.03009 0.95041 0.40333 0.0
H425 H 0.07796 0.97608 0.36036 0.0
H426 H 0.91387 0.87229 0.32121 0.0
H427 H 0.86513 0.84583 0.36491 0.0
H428 H 1.00379 0.91455 0.29275 0.0
H429 H 0.10816 0.0183 0.31939 0.0
H430 H 0.17826 0.0917 0.28705 0.0
H431 H 0.22951 0.1184 0.24419 0.0
C432 C 0.02935 0.89068 0.73862 0.0
C433 C 0.06998 0.9103 0.75951 0.0
C434 C 0.04273 0.92088 0.71382 0.0
C435 C 0.0977 0.97023 0.70815 0.0
C436 C 0.13933 0.98776 0.72856 0.0
C437 C 0.1256 0.95887 0.75367 0.0
C438 C 0.10814 0.00454 0.68196 0.0
C439 C 0.16032 0.03768 0.66946 0.0
C440 C 0.17191 0.07013 0.6427 0.0
C441 C 0.21659 0.07546 0.62627 0.0
C442 C 0.23105 0.10638 0.60183 0.0
C443 C 0.20302 0.13566 0.59266 0.0
H444 H 0.10946 0.09716 0.6459 0.0
C445 C 0.15928 0.13217 0.60951 0.0
C446 C 0.1434 0.09918 0.63381 0.0
H447 H 0.13628 0.15374 0.6037 0.0
H448 H 0.98584 0.8546 0.74203 0.0
H449 H 0.00889 0.90712 0.6993 0.0
H450 H 0.18193 0.02576 0.72574 0.0
H451 H 0.15849 0.97617 0.76899 0.0
H452 H 0.07036 -0.00011 0.67198 0.0
H453 H 0.19709 0.03814 0.67842 0.0
H454 H 0.24022 0.05452 0.63215 0.0
H455 H 0.26467 0.10699 0.5899 0.0
C456 C 0.39285 0.03161 0.16766 0.0
C457 C 0.361 0.03009 1.14507 0.0
C458 C 0.43745 0.01959 0.16585 0.0
C459 C 0.45218 0.00537 1.14128 0.0
C460 C 0.41837 0.00065 1.11882 0.0
C461 C 0.3736 0.01325 1.12061 0.0
C462 C 0.50119 -0.0063 1.13897 0.0
C463 C 0.54755 0.01743 0.15569 0.0
C464 C 0.59679 0.00591 0.15554 0.0
C465 C 0.64595 0.04184 0.17124 0.0
C466 C 0.69114 0.03052 0.17377 0.0
C467 C 0.68866 0.98253 0.1608 0.0
H468 H 0.55827 0.92947 1.12976 0.0
C469 C 0.64041 0.94741 1.14445 0.0
C470 C 0.59512 0.95881 1.14185 0.0
H471 H 0.63687 0.90998 1.13413 0.0
H472 H 0.38411 0.04346 0.18699 0.0
H473 H 0.4601 0.02132 0.18393 0.0
H474 H 0.42755 0.98862 1.09964 0.0
H475 H 0.35007 0.01136 1.10279 0.0
H476 H 0.49942 0.96623 1.12261 0.0
H477 H 0.55051 0.04843 0.17057 0.0
H478 H 0.64908 0.07852 0.1821 0.0
H479 H 0.72749 0.05868 0.18645 0.0
C480 C 0.40943 0.35608 0.46367 0.0
C481 C 0.3879 0.32022 0.48659 0.0
C482 C 0.46652 0.40434 0.46246 0.0
C483 C 0.50419 0.41931 0.4844 0.0
C484 C 0.48315 0.38234 0.50701 0.0
C485 C 0.42627 0.33335 0.50802 0.0
C486 C 0.56301 0.47541 0.48547 0.0
C487 C 0.59548 0.50618 0.46398 0.0
C488 C 0.65266 0.56404 0.46535 0.0
C489 C 0.69251 0.58119 0.44412 0.0
C490 C 0.74474 0.63609 0.44402 0.0
C491 C 0.75838 0.67648 0.46489 0.0
H492 H 0.63724 0.59421 0.50281 0.0
C493 C 0.71843 0.6595 0.48605 0.0
C494 C 0.6668 0.60432 0.48639 0.0
H495 H 0.72682 0.68937 0.50242 0.0
H496 H 0.38113 0.34822 0.44689 0.0
H497 H 0.47987 0.43147 0.44479 0.0
H498 H 0.51046 0.3923 0.52439 0.0
H499 H 0.41143 0.30778 0.52618 0.0
H500 H 0.58058 0.49151 0.5052 0.0
H501 H 0.58034 0.48785 0.44426 0.0
H502 H 0.68308 0.55197 0.42737 0.0
H503 H 0.7738 0.64746 0.42726 0.0
C504 C 0.05039 0.38399 0.84503 0.0
C505 C 0.05823 0.36268 0.82066 0.0
C506 C 0.05466 0.43906 0.84654 0.0
C507 C 0.06685 0.47447 0.82364 0.0
C508 C 0.07501 0.45299 0.79941 0.0
C509 C 0.07032 0.39796 0.79791 0.0
C510 C 0.07296 0.53425 0.82397 0.0
C511 C 0.0522 0.55424 0.84328 0.0
C512 C 0.05699 0.61346 0.84323 0.0
C513 C 0.02082 0.62259 0.86019 0.0
C514 C 0.02403 0.67702 0.86129 0.0
C515 C 0.06402 0.72455 0.84564 0.0
H516 H 0.12695 0.65727 0.81463 0.0
C517 C 0.10061 0.7159 0.82879 0.0
C518 C 0.09723 0.66127 0.82757 0.0
H519 H 0.13209 0.75153 0.8165 0.0
H520 H 0.0409 0.35808 0.86297 0.0
H521 H 0.04915 0.4538 0.86576 0.0
H522 H 0.08439 0.47864 0.78134 0.0
H523 H 0.0752 0.38257 0.77872 0.0
H524 H 0.0935 0.56182 0.80671 0.0
H525 H 0.02815 0.52506 0.85961 0.0
H526 H 0.98954 0.58722 0.87266 0.0
H527 H 0.99511 0.68188 0.87449 0.0
C528 C 0.45329 0.40424 0.26535 0.0
C529 C 0.47898 0.38368 0.24765 0.0
C530 C 0.46883 0.41244 0.2922 0.0
C531 C 0.51055 0.40026 0.30182 0.0
C532 C 0.54192 0.38817 0.2833 0.0
C533 C 0.52608 0.37958 0.25644 0.0
C534 C 0.51462 0.38787 0.33044 0.0
C535 C 0.47096 0.37296 0.3476 0.0
C536 C 0.45573 0.33049 0.3698 0.0
C537 C 0.40892 0.31953 0.38596 0.0
C538 C 0.38221 0.27009 0.40218 0.0
C539 C 0.40229 0.23094 0.40295 0.0
H540 H 0.51386 0.29925 0.35979 0.0
C541 C 0.45197 0.24402 0.38867 0.0
C542 C 0.47833 0.2932 0.37199 0.0
H543 H 0.46844 0.21459 0.3893 0.0
H544 H 0.41813 0.4097 0.25886 0.0
H545 H 0.44526 0.42473 0.30534 0.0
H546 H 0.57487 0.37942 0.28995 0.0
H547 H 0.54707 0.36415 0.24323 0.0
H548 H 0.54842 0.37924 0.33577 0.0
H549 H 0.43854 0.38394 0.34298 0.0
H550 H 0.39062 0.34735 0.38484 0.0
H551 H 0.34463 0.26143 0.4136 0.0
C552 C 0.09864 0.4373 0.61192 0.0
C553 C 0.13115 0.46271 0.58871 0.0
C554 C 0.09054 0.47159 0.63036 0.0
C555 C 0.11564 0.53209 0.62625 0.0
C556 C 0.14345 0.55657 0.60198 0.0
C557 C 0.15075 0.52203 0.58328 0.0
C558 C 0.12142 0.56889 0.64952 0.0
C559 C 0.17455 0.61198 0.6569 0.0
C560 C 0.19728 0.60767 0.6832 0.0
C561 C 0.25006 0.60938 0.68358 0.0
C562 C 0.26222 0.58175 0.70404 0.0
C563 C 0.22189 0.55268 0.72443 0.0
H564 H 0.12192 0.58753 0.70663 0.0
C565 C 0.17398 0.55974 0.72634 0.0
C566 C 0.16187 0.58743 0.7059 0.0
H567 H 0.14302 0.53895 0.74231 0.0
H568 H 0.08296 0.39194 0.6169 0.0
H569 H 0.06897 0.45168 0.64897 0.0
H570 H 0.16224 0.60293 0.59811 0.0
H571 H 0.1742 0.54255 0.56514 0.0
H572 H 0.08899 0.54644 0.66488 0.0
H573 H 0.20679 0.63383 0.6414 0.0
H574 H 0.27857 0.62549 0.66649 0.0
H575 H 0.29972 0.57739 0.70221 0.0
C576 C 0.75075 0.10156 0.92552 0.0
C577 C 0.7714 0.14521 0.90572 0.0
C578 C 0.73655 0.11219 0.95079 0.0
C579 C 0.7438 0.16695 0.95696 0.0
C580 C 0.75941 0.20874 0.93663 0.0
C581 C 0.77261 0.19774 0.91117 0.0
C582 C 0.7419 0.18121 0.98532 0.0
C583 C 0.78204 0.23312 0.99575 0.0
C584 C 0.79704 0.23893 1.02443 0.0
C585 C 0.85549 0.26862 1.03159 0.0
C586 C 0.87204 0.26308 1.05728 0.0
C587 C 0.83025 0.22851 1.07645 0.0
H588 H 0.70963 0.18747 1.0394 0.0
C589 C 0.77161 0.20447 1.07003 0.0
C590 C 0.7551 0.20928 1.0442 0.0
H591 H 0.7383 0.17921 1.08457 0.0
H592 H 0.74939 0.06069 0.92225 0.0
H593 H 0.72421 0.07914 0.96612 0.0
H594 H 0.76368 0.25075 0.94066 0.0
H595 H 0.7864 0.23158 0.89615 0.0
H596 H 0.71553 0.14473 0.9986 0.0
H597 H 0.81248 0.26762 0.98254 0.0
H598 H 0.88861 0.29214 1.01672 0.0
H599 H 0.91755 0.28217 1.06137 0.0
C600 C 0.55302 0.58862 0.27804 0.0
C601 C 0.6135 0.61776 0.27927 0.0
C602 C 0.51948 0.55332 0.29915 0.0
C603 C 0.54591 0.54612 0.32181 0.0
C604 C 0.60601 0.5707 0.32175 0.0
C605 C 0.63958 0.60674 0.30083 0.0
C606 C 0.51459 0.52151 0.34729 0.0
C607 C 0.46953 0.52684 0.35467 0.0
C608 C 0.46807 0.54725 0.382 0.0
C609 C 0.46241 0.59659 0.38431 0.0
C610 C 0.48736 0.63472 0.40584 0.0
C611 C 0.51742 0.62322 0.4254 0.0
H612 H 0.49014 0.49063 0.40336 0.0
C613 C 0.51205 0.56777 0.42582 0.0
C614 C 0.48758 0.52987 0.40414 0.0
H615 H 0.53301 0.55692 0.44125 0.0
H616 H 0.5317 0.59607 0.26154 0.0
H617 H 0.47321 0.53364 0.29798 0.0
H618 H 0.62759 0.56551 0.33881 0.0
H619 H 0.68608 0.62796 0.30205 0.0
H620 H 0.53879 0.51454 0.36265 0.0
H621 H 0.4462 0.5357 0.33962 0.0
H622 H 0.44631 0.61026 0.36775 0.0
H623 H 0.48985 0.67662 0.40509 0.0
C624 C 0.09293 0.95257 0.59193 0.0
C625 C 0.1219 0.92453 0.58272 0.0
C626 C 0.06555 0.93746 0.61661 0.0
C627 C 0.06691 0.8945 0.63217 0.0
C628 C 0.10695 0.87786 0.62591 0.0
C629 C 0.13528 0.89374 0.60137 0.0
C630 C 0.02145 0.85967 0.65194 0.0
C631 C 0.96757 0.85027 0.65003 0.0
C632 C 0.92199 0.80789 0.66783 0.0
C633 C 0.89687 0.82716 0.68639 0.0
C634 C 0.86597 0.79124 0.70783 0.0
C635 C 0.85816 0.73479 0.71036 0.0
H636 H 0.92618 0.73352 0.65361 0.0
C637 C 0.8756 0.71278 0.6892 0.0
C638 C 0.90847 0.74955 0.6684 0.0
H639 H 0.86822 0.66878 0.68982 0.0
H640 H 0.08398 0.97941 0.57895 0.0
H641 H 0.03906 0.95511 0.62234 0.0
H642 H 0.11114 0.84704 0.63841 0.0
H643 H 0.16064 0.87467 0.59558 0.0
H644 H 0.03028 0.83541 0.66675 0.0
H645 H 0.95639 0.87312 0.63556 0.0
H646 H 0.90612 0.87189 0.68586 0.0
H647 H 0.8534 0.81018 0.72356 0.0
C648 C 0.3529 0.89816 0.92245 0.0
C649 C 0.34668 0.94734 0.92476 0.0
C650 C 0.37368 0.88071 0.94389 0.0
C651 C 0.38887 0.91249 0.96787 0.0
C652 C 0.39103 0.96629 0.96859 0.0
C653 C 0.36967 0.98337 0.94734 0.0
C654 C 0.39033 0.88611 0.99372 0.0
C655 C 0.35065 0.82966 0.99915 0.0
C656 C 0.31745 0.81333 1.02448 0.0
C657 C 0.25781 0.77314 1.0231 0.0
C658 C 0.22136 0.77065 1.04339 0.0
C659 C 0.24404 0.80789 1.06556 0.0
H660 H 0.38673 0.87428 1.05054 0.0
C661 C 0.30429 0.84216 1.06862 0.0
C662 C 0.34077 0.84462 1.04831 0.0
H663 H 0.32329 0.87107 1.08558 0.0
H664 H 0.33764 0.87066 0.90488 0.0
H665 H 0.37372 0.84017 0.94234 0.0
H666 H 0.40325 0.99208 0.98672 0.0
H667 H 0.366 0.02169 0.94988 0.0
H668 H 0.41005 0.91679 1.0101 0.0
H669 H 0.3298 0.79966 0.98262 0.0
H670 H 0.23866 0.74768 1.00518 0.0
H671 H 0.17518 0.74273 1.04082 0.0
loop_
_geom_bond_atom_site_label_1
_geom_bond_atom_site_label_2
_geom_bond_distance
_geom_bond_site_symmetry_2
_ccdc_geom_bond_type
Nd0 C2 2.836 1_545 S
Nd0 O20 2.500 1_545 S
Nd0 O21 2.492 1_545 S
Nd0 O22 2.487 . S
Nd0 O23 2.682 1_556 S
Nd0 O24 2.410 . S
Nd0 O29 2.414 1_556 S
Nd0 O31 2.424 1_546 S
Nd1 C11 2.836 . S
Nd1 O23 2.414 . S
Nd1 O25 2.424 1_554 S
Nd1 O26 2.500 . S
Nd1 O27 2.492 . S
Nd1 O28 2.487 . S
Nd1 O29 2.682 . S
Nd1 O30 2.410 . S
C2 Nd0 2.836 1_565 S
C2 C3 1.498 . S
C2 O20 1.258 . S
C2 O21 1.239 . S
C3 C2 1.498 . S
C3 C4 1.366 . S
C3 C8 1.407 . S
C4 C3 1.366 . S
C4 C5 1.392 . S
C4 H32 0.930 . S
C5 C4 1.392 . S
C5 C6 1.398 . S
C5 H33 0.929 . S
C6 C5 1.398 . S
C6 C7 1.352 . S
C7 C6 1.352 . S
C7 C8 1.384 . S
C7 H34 0.930 . S
C8 C3 1.407 . S
C8 C7 1.384 . S
C8 H35 0.929 . S
C9 O22 1.241 1_554 S
C9 O23 1.273 . S
C10 O24 1.251 . S
C10 O25 1.268 . S
C11 Nd1 2.836 . S
C11 C12 1.498 . S
C11 O26 1.258 . S
C11 O27 1.239 . S
C12 C11 1.498 . S
C12 C13 1.366 . S
C12 C17 1.407 . S
C13 C12 1.366 . S
C13 C14 1.392 . S
C13 H36 0.930 . S
C14 C13 1.392 . S
C14 C15 1.398 . S
C14 H37 0.929 . S
C15 C14 1.398 . S
C15 C16 1.352 . S
C16 C15 1.352 . S
C16 C17 1.384 . S
C16 H38 0.930 . S
C17 C12 1.407 . S
C17 C16 1.384 . S
C17 H39 0.929 . S
C18 O28 1.241 . S
C18 O29 1.273 . S
C19 O30 1.251 . S
C19 O31 1.268 1_545 S
O20 Nd0 2.500 1_565 S
O20 C2 1.258 . S
O21 Nd0 2.492 1_565 S
O21 C2 1.239 . S
O22 Nd0 2.487 . S
O22 C9 1.241 1_556 S
O23 Nd0 2.682 1_554 S
O23 Nd1 2.414 . S
O23 C9 1.273 . S
O24 Nd0 2.410 . S
O24 C10 1.251 . S
O25 Nd1 2.424 1_556 S
O25 C10 1.268 . S
O26 Nd1 2.500 . S
O26 C11 1.258 . S
O27 Nd1 2.492 . S
O27 C11 1.239 . S
O28 Nd1 2.487 . S
O28 C18 1.241 . S
O29 Nd0 2.414 1_554 S
O29 Nd1 2.682 . S
O29 C18 1.273 . S
O30 Nd1 2.410 . S
O30 C19 1.251 . S
O31 Nd0 2.424 1_564 S
O31 C19 1.268 1_565 S
H32 C4 0.930 . S
H33 C5 0.929 . S
H34 C7 0.930 . S
H35 C8 0.929 . S
H36 C13 0.930 . S
H37 C14 0.929 . S
H38 C16 0.930 . S
H39 C17 0.929 . S
Nd40 C42 2.836 . S
Nd40 O60 2.500 . S
Nd40 O61 2.492 . S
Nd40 O62 2.487 . S
Nd40 O63 2.682 . S
Nd40 O64 2.410 . S
Nd40 O69 2.414 . S
Nd40 O71 2.424 . S
Nd41 C51 2.836 . S
Nd41 O63 2.414 . S
Nd41 O65 2.424 . S
Nd41 O66 2.500 . S
Nd41 O67 2.492 . S
Nd41 O68 2.487 . S
Nd41 O69 2.682 . S
Nd41 O70 2.410 . S
C42 Nd40 2.836 . S
C42 C43 1.498 . S
C42 O60 1.258 . S
C42 O61 1.239 . S
C43 C42 1.498 . S
C43 C44 1.366 . S
C43 C48 1.407 . S
C44 C43 1.366 . S
C44 C45 1.392 . S
C44 H72 0.930 . S
C45 C44 1.392 . S
C45 C46 1.398 . S
C45 H73 0.929 . S
C46 C45 1.398 . S
C46 C47 1.352 . S
C47 C46 1.352 . S
C47 C48 1.384 . S
C47 H74 0.930 . S
C48 C43 1.407 . S
C48 C47 1.384 . S
C48 H75 0.929 . S
C49 O62 1.241 . S
C49 O63 1.273 . S
C50 O64 1.251 . S
C50 O65 1.268 . S
C51 Nd41 2.836 . S
C51 C52 1.498 . S
C51 O66 1.258 . S
C51 O67 1.239 . S
C52 C51 1.498 . S
C52 C53 1.366 . S
C52 C57 1.407 . S
C53 C52 1.366 . S
C53 C54 1.392 . S
C53 H76 0.930 . S
C54 C53 1.392 . S
C54 C55 1.398 . S
C54 H77 0.929 . S
C55 C54 1.398 . S
C55 C56 1.352 . S
C56 C55 1.352 . S
C56 C57 1.384 . S
C56 H78 0.930 . S
C57 C52 1.407 . S
C57 C56 1.384 . S
C57 H79 0.929 . S
C58 O68 1.241 . S
C58 O69 1.273 . S
C59 O70 1.251 . S
C59 O71 1.268 . S
O60 Nd40 2.500 . S
O60 C42 1.258 . S
O61 Nd40 2.492 . S
O61 C42 1.239 . S
O62 Nd40 2.487 . S
O62 C49 1.241 . S
O63 Nd40 2.682 . S
O63 Nd41 2.414 . S
O63 C49 1.273 . S
O64 Nd40 2.410 . S
O64 C50 1.251 . S
O65 Nd41 2.424 . S
O65 C50 1.268 . S
O66 Nd41 2.500 . S
O66 C51 1.258 . S
O67 Nd41 2.492 . S
O67 C51 1.239 . S
O68 Nd41 2.487 . S
O68 C58 1.241 . S
O69 Nd40 2.414 . S
O69 Nd41 2.682 . S
O69 C58 1.273 . S
O70 Nd41 2.410 . S
O70 C59 1.251 . S
O71 Nd40 2.424 . S
O71 C59 1.268 . S
H72 C44 0.930 . S
H73 C45 0.929 . S
H74 C47 0.930 . S
H75 C48 0.929 . S
H76 C53 0.930 . S
H77 C54 0.929 . S
H78 C56 0.930 . S
H79 C57 0.929 . S
Nd80 C82 2.836 . S
Nd80 O100 2.500 . S
Nd80 O101 2.492 . S
Nd80 O102 2.487 . S
Nd80 O103 2.682 . S
Nd80 O104 2.410 . S
Nd80 O109 2.414 . S
Nd80 O111 2.424 . S
Nd81 C91 2.836 . S
Nd81 O103 2.414 1_655 S
Nd81 O105 2.424 . S
Nd81 O106 2.500 . S
Nd81 O107 2.492 . S
Nd81 O108 2.487 1_655 S
Nd81 O109 2.682 1_655 S
Nd81 O110 2.410 1_655 S
C82 Nd80 2.836 . S
C82 C83 1.498 . S
C82 O100 1.258 . S
C82 O101 1.239 . S
C83 C82 1.498 . S
C83 C84 1.366 . S
C83 C88 1.407 . S
C84 C83 1.366 . S
C84 C85 1.392 . S
C84 H112 0.930 . S
C85 C84 1.392 . S
C85 C86 1.398 . S
C85 H113 0.929 . S
C86 C85 1.398 . S
C86 C87 1.352 . S
C87 C86 1.352 . S
C87 C88 1.384 . S
C87 H114 0.930 . S
C88 C83 1.407 . S
C88 C87 1.384 . S
C88 H115 0.929 . S
C89 O102 1.241 . S
C89 O103 1.273 . S
C90 O104 1.251 . S
C90 O105 1.268 1_455 S
C91 Nd81 2.836 . S
C91 C92 1.498 . S
C91 O106 1.258 . S
C91 O107 1.239 . S
C92 C91 1.498 . S
C92 C93 1.366 . S
C92 C97 1.407 . S
C93 C92 1.366 . S
C93 C94 1.392 . S
C93 H116 0.930 . S
C94 C93 1.392 . S
C94 C95 1.398 . S
C94 H117 0.929 . S
C95 C94 1.398 . S
C95 C96 1.352 . S
C96 C95 1.352 . S
C96 C97 1.384 . S
C96 H118 0.930 . S
C97 C92 1.407 . S
C97 C96 1.384 . S
C97 H119 0.929 . S
C98 O108 1.241 . S
C98 O109 1.273 . S
C99 O110 1.251 . S
C99 O111 1.268 . S
O100 Nd80 2.500 . S
O100 C82 1.258 . S
O101 Nd80 2.492 . S
O101 C82 1.239 . S
O102 Nd80 2.487 . S
O102 C89 1.241 . S
O103 Nd80 2.682 . S
O103 Nd81 2.414 1_455 S
O103 C89 1.273 . S
O104 Nd80 2.410 . S
O104 C90 1.251 . S
O105 Nd81 2.424 . S
O105 C90 1.268 1_655 S
O106 Nd81 2.500 . S
O106 C91 1.258 . S
O107 Nd81 2.492 . S
O107 C91 1.239 . S
O108 Nd81 2.487 1_455 S
O108 C98 1.241 . S
O109 Nd80 2.414 . S
O109 Nd81 2.682 1_455 S
O109 C98 1.273 . S
O110 Nd81 2.410 1_455 S
O110 C99 1.251 . S
O111 Nd80 2.424 . S
O111 C99 1.268 . S
H112 C84 0.930 . S
H113 C85 0.929 . S
H114 C87 0.930 . S
H115 C88 0.929 . S
H116 C93 0.930 . S
H117 C94 0.929 . S
H118 C96 0.930 . S
H119 C97 0.929 . S
Nd120 C122 2.836 . S
Nd120 O140 2.500 . S
Nd120 O141 2.492 . S
Nd120 O142 2.487 . S
Nd120 O143 2.682 1_546 S
Nd120 O144 2.410 1_545 S
Nd120 O149 2.414 1_556 S
Nd120 O151 2.424 1_556 S
Nd121 C131 2.836 . S
Nd121 O143 2.414 . S
Nd121 O145 2.424 1_554 S
Nd121 O146 2.500 . S
Nd121 O147 2.492 . S
Nd121 O148 2.487 . S
Nd121 O149 2.682 1_565 S
Nd121 O150 2.410 1_565 S
C122 Nd120 2.836 . S
C122 C123 1.498 . S
C122 O140 1.258 . S
C122 O141 1.239 . S
C123 C122 1.498 . S
C123 C124 1.366 . S
C123 C128 1.407 . S
C124 C123 1.366 . S
C124 C125 1.392 . S
C124 H152 0.930 . S
C125 C124 1.392 . S
C125 C126 1.398 . S
C125 H153 0.929 . S
C126 C125 1.398 . S
C126 C127 1.352 . S
C127 C126 1.352 . S
C127 C128 1.384 . S
C127 H154 0.930 . S
C128 C123 1.407 . S
C128 C127 1.384 . S
C128 H155 0.929 . S
C129 O142 1.241 1_554 S
C129 O143 1.273 1_545 S
C130 O144 1.251 . S
C130 O145 1.268 . S
C131 Nd121 2.836 . S
C131 C132 1.498 . S
C131 O146 1.258 . S
C131 O147 1.239 . S
C132 C131 1.498 . S
C132 C133 1.366 . S
C132 C137 1.407 . S
C133 C132 1.366 . S
C133 C134 1.392 . S
C133 H156 0.930 . S
C134 C133 1.392 . S
C134 C135 1.398 . S
C134 H157 0.929 . S
C135 C134 1.398 . S
C135 C136 1.352 . S
C136 C135 1.352 . S
C136 C137 1.384 . S
C136 H158 0.930 . S
C137 C132 1.407 . S
C137 C136 1.384 . S
C137 H159 0.929 . S
C138 O148 1.241 . S
C138 O149 1.273 1_565 S
C139 O150 1.251 . S
C139 O151 1.268 . S
O140 Nd120 2.500 . S
O140 C122 1.258 . S
O141 Nd120 2.492 . S
O141 C122 1.239 . S
O142 Nd120 2.487 . S
O142 C129 1.241 1_556 S
O143 Nd120 2.682 1_564 S
O143 Nd121 2.414 . S
O143 C129 1.273 1_565 S
O144 Nd120 2.410 1_565 S
O144 C130 1.251 . S
O145 Nd121 2.424 1_556 S
O145 C130 1.268 . S
O146 Nd121 2.500 . S
O146 C131 1.258 . S
O147 Nd121 2.492 . S
O147 C131 1.239 . S
O148 Nd121 2.487 . S
O148 C138 1.241 . S
O149 Nd120 2.414 1_554 S
O149 Nd121 2.682 1_545 S
O149 C138 1.273 1_545 S
O150 Nd121 2.410 1_545 S
O150 C139 1.251 . S
O151 Nd120 2.424 1_554 S
O151 C139 1.268 . S
H152 C124 0.930 . S
H153 C125 0.929 . S
H154 C127 0.930 . S
H155 C128 0.929 . S
H156 C133 0.930 . S
H157 C134 0.929 . S
H158 C136 0.930 . S
H159 C137 0.929 . S
Nd160 C162 2.836 . S
Nd160 O180 2.500 . S
Nd160 O181 2.492 . S
Nd160 O182 2.487 . S
Nd160 O183 2.682 . S
Nd160 O184 2.410 . S
Nd160 O189 2.414 . S
Nd160 O191 2.424 . S
Nd161 C171 2.836 . S
Nd161 O183 2.414 . S
Nd161 O185 2.424 . S
Nd161 O186 2.500 . S
Nd161 O187 2.492 . S
Nd161 O188 2.487 . S
Nd161 O189 2.682 . S
Nd161 O190 2.410 . S
C162 Nd160 2.836 . S
C162 C163 1.498 . S
C162 O180 1.258 . S
C162 O181 1.239 . S
C163 C162 1.498 . S
C163 C164 1.366 . S
C163 C168 1.407 . S
C164 C163 1.366 . S
C164 C165 1.392 . S
C164 H192 0.930 . S
C165 C164 1.392 . S
C165 C166 1.398 . S
C165 H193 0.929 . S
C166 C165 1.398 . S
C166 C167 1.352 . S
C167 C166 1.352 . S
C167 C168 1.384 . S
C167 H194 0.930 . S
C168 C163 1.407 . S
C168 C167 1.384 . S
C168 H195 0.929 . S
C169 O182 1.241 . S
C169 O183 1.273 . S
C170 O184 1.251 . S
C170 O185 1.268 . S
C171 Nd161 2.836 . S
C171 C172 1.498 . S
C171 O186 1.258 . S
C171 O187 1.239 . S
C172 C171 1.498 . S
C172 C173 1.366 . S
C172 C177 1.407 . S
C173 C172 1.366 . S
C173 C174 1.392 . S
C173 H196 0.932 1_655 S
C174 C173 1.392 . S
C174 C175 1.398 . S
C174 H197 0.929 1_655 S
C175 C174 1.398 . S
C175 C176 1.352 . S
C176 C175 1.352 . S
C176 C177 1.384 . S
C176 H198 0.930 . S
C177 C172 1.407 . S
C177 C176 1.384 . S
C177 H199 0.929 . S
C178 O188 1.241 . S
C178 O189 1.273 . S
C179 O190 1.251 . S
C179 O191 1.268 . S
O180 Nd160 2.500 . S
O180 C162 1.258 . S
O181 Nd160 2.492 . S
O181 C162 1.239 . S
O182 Nd160 2.487 . S
O182 C169 1.241 . S
O183 Nd160 2.682 . S
O183 Nd161 2.414 . S
O183 C169 1.273 . S
O184 Nd160 2.410 . S
O184 C170 1.251 . S
O185 Nd161 2.424 . S
O185 C170 1.268 . S
O186 Nd161 2.500 . S
O186 C171 1.258 . S
O187 Nd161 2.492 . S
O187 C171 1.239 . S
O188 Nd161 2.487 . S
O188 C178 1.241 . S
O189 Nd160 2.414 . S
O189 Nd161 2.682 . S
O189 C178 1.273 . S
O190 Nd161 2.410 . S
O190 C179 1.251 . S
O191 Nd160 2.424 . S
O191 C179 1.268 . S
H192 C164 0.930 . S
H193 C165 0.929 . S
H194 C167 0.930 . S
H195 C168 0.929 . S
H196 C173 0.932 1_455 S
H197 C174 0.929 1_455 S
H198 C176 0.930 . S
H199 C177 0.929 . S
Nd200 C202 2.836 . S
Nd200 O220 2.500 . S
Nd200 O221 2.492 . S
Nd200 O222 2.487 . S
Nd200 O223 2.682 1_655 S
Nd200 O224 2.410 1_655 S
Nd200 O229 2.414 . S
Nd200 O231 2.424 . S
Nd201 C211 2.836 . S
Nd201 O223 2.414 . S
Nd201 O225 2.424 . S
Nd201 O226 2.500 . S
Nd201 O227 2.492 . S
Nd201 O228 2.487 . S
Nd201 O229 2.682 1_455 S
Nd201 O230 2.410 1_455 S
C202 Nd200 2.836 . S
C202 C203 1.498 . S
C202 O220 1.258 . S
C202 O221 1.239 . S
C203 C202 1.498 . S
C203 C204 1.366 . S
C203 C208 1.407 . S
C204 C203 1.366 . S
C204 C205 1.392 . S
C204 H232 0.930 . S
C205 C204 1.392 . S
C205 C206 1.398 . S
C205 H233 0.929 . S
C206 C205 1.398 . S
C206 C207 1.352 . S
C207 C206 1.352 . S
C207 C208 1.384 . S
C207 H234 0.930 . S
C208 C203 1.407 . S
C208 C207 1.384 . S
C208 H235 0.929 . S
C209 O222 1.241 . S
C209 O223 1.273 1_655 S
C210 O224 1.251 . S
C210 O225 1.268 . S
C211 Nd201 2.836 . S
C211 C212 1.498 . S
C211 O226 1.258 . S
C211 O227 1.239 . S
C212 C211 1.498 . S
C212 C213 1.366 . S
C212 C217 1.407 . S
C213 C212 1.366 . S
C213 C214 1.392 . S
C213 H236 0.930 . S
C214 C213 1.392 . S
C214 C215 1.398 . S
C214 H237 0.929 . S
C215 C214 1.398 . S
C215 C216 1.352 . S
C216 C215 1.352 . S
C216 C217 1.384 . S
C216 H238 0.930 . S
C217 C212 1.407 . S
C217 C216 1.384 . S
C217 H239 0.929 . S
C218 O228 1.241 . S
C218 O229 1.273 1_455 S
C219 O230 1.251 . S
C219 O231 1.268 . S
O220 Nd200 2.500 . S
O220 C202 1.258 . S
O221 Nd200 2.492 . S
O221 C202 1.239 . S
O222 Nd200 2.487 . S
O222 C209 1.241 . S
O223 Nd200 2.682 1_455 S
O223 Nd201 2.414 . S
O223 C209 1.273 1_455 S
O224 Nd200 2.410 1_455 S
O224 C210 1.251 . S
O225 Nd201 2.424 . S
O225 C210 1.268 . S
O226 Nd201 2.500 . S
O226 C211 1.258 . S
O227 Nd201 2.492 . S
O227 C211 1.239 . S
O228 Nd201 2.487 . S
O228 C218 1.241 . S
O229 Nd200 2.414 . S
O229 Nd201 2.682 1_655 S
O229 C218 1.273 1_655 S
O230 Nd201 2.410 1_655 S
O230 C219 1.251 . S
O231 Nd200 2.424 . S
O231 C219 1.268 . S
H232 C204 0.930 . S
H233 C205 0.929 . S
H234 C207 0.930 . S
H235 C208 0.929 . S
H236 C213 0.930 . S
H237 C214 0.929 . S
H238 C216 0.930 . S
H239 C217 0.929 . S
C240 C241 1.386 1_556 S
C240 C242 1.379 1_566 S
C240 H256 0.951 . S
C241 C240 1.386 1_554 S
C241 C245 1.383 . S
C242 C240 1.379 1_544 S
C242 C243 1.436 . S
C242 H257 0.921 1_554 S
C243 C242 1.436 . S
C243 C244 1.375 . S
C243 C246 1.481 1_655 S
C244 C243 1.375 . S
C244 C245 1.367 1_545 S
C244 H258 0.951 . S
C245 C241 1.383 . S
C245 C244 1.367 1_565 S
C245 H259 0.950 . S
C246 C243 1.481 1_455 S
C246 C247 1.297 . S
C246 H260 0.950 . S
C247 C246 1.297 . S
C247 C248 1.479 . S
C247 H261 0.950 1_554 S
C248 C247 1.479 . S
C248 C249 1.375 1_554 S
C248 C254 1.404 . S
C249 C248 1.375 1_556 S
C249 C250 1.369 . S
C249 H262 0.950 . S
C250 C249 1.369 . S
C250 C251 1.392 1_556 S
C250 H263 0.951 . S
C251 C250 1.392 1_554 S
C251 C253 1.384 . S
H252 C254 0.949 . S
C253 C251 1.384 . S
C253 C254 1.385 . S
C253 H255 0.950 . S
C254 C248 1.404 . S
C254 H252 0.949 . S
C254 C253 1.385 . S
H255 C253 0.950 . S
H256 C240 0.951 . S
H257 C242 0.921 1_556 S
H258 C244 0.951 . S
H259 C245 0.950 . S
H260 C246 0.950 . S
H261 C247 0.950 1_556 S
H262 C249 0.950 . S
H263 C250 0.951 . S
C264 C265 1.386 . S
C264 C266 1.383 . S
C264 H280 0.951 . S
C265 C264 1.386 . S
C265 C269 1.383 1_655 S
C266 C264 1.383 . S
C266 C267 1.402 1_655 S
C266 H281 0.951 . S
C267 C266 1.402 1_455 S
C267 C268 1.375 . S
C267 C270 1.481 1_565 S
C268 C267 1.375 . S
C268 C269 1.367 . S
C268 H282 0.951 . S
C269 C265 1.383 1_455 S
C269 C268 1.367 . S
C269 H283 0.950 . S
C270 C267 1.481 1_545 S
C270 C271 1.297 . S
C270 H284 0.950 . S
C271 C270 1.297 . S
C271 C272 1.479 . S
C271 H285 0.950 1_455 S
C272 C271 1.479 . S
C272 C273 1.375 . S
C272 C278 1.404 . S
C273 C272 1.375 . S
C273 C274 1.369 . S
C273 H286 0.950 1_455 S
C274 C273 1.369 . S
C274 C275 1.392 . S
C274 H287 0.951 . S
C275 C274 1.392 . S
C275 C277 1.384 . S
H276 C278 0.949 . S
C277 C275 1.384 . S
C277 C278 1.385 . S
C277 H279 0.950 . S
C278 C272 1.404 . S
C278 H276 0.949 . S
C278 C277 1.385 . S
H279 C277 0.950 . S
H280 C264 0.951 . S
H281 C266 0.951 . S
H282 C268 0.951 . S
H283 C269 0.950 . S
H284 C270 0.950 . S
H285 C271 0.950 1_655 S
H286 C273 0.950 1_655 S
H287 C274 0.951 . S
C288 C289 1.386 . S
C288 C290 1.383 1_655 S
C288 H304 0.941 1_655 S
C289 C288 1.386 . S
C289 C293 1.383 . S
C290 C288 1.383 1_455 S
C290 C291 1.402 . S
C290 H305 0.951 . S
C291 C290 1.402 . S
C291 C292 1.375 1_455 S
C291 C294 1.481 1_565 S
C292 C291 1.375 1_655 S
C292 C293 1.367 . S
C292 H306 0.951 . S
C293 C289 1.383 . S
C293 C292 1.367 . S
C293 H307 0.950 . S
C294 C291 1.481 1_545 S
C294 C295 1.297 . S
C294 H308 0.950 . S
C295 C294 1.297 . S
C295 C296 1.479 . S
C295 H309 0.950 . S
C296 C295 1.479 . S
C296 C297 1.375 . S
C296 C302 1.404 . S
C297 C296 1.375 . S
C297 C298 1.369 . S
C297 H310 0.950 . S
C298 C297 1.369 . S
C298 C299 1.392 . S
C298 H311 0.951 . S
C299 C298 1.392 . S
C299 C301 1.384 . S
H300 C302 0.949 . S
C301 C299 1.384 . S
C301 C302 1.385 . S
C301 H303 0.950 . S
C302 C296 1.404 . S
C302 H300 0.949 . S
C302 C301 1.385 . S
H303 C301 0.950 . S
H304 C288 0.941 1_455 S
H305 C290 0.951 . S
H306 C292 0.951 . S
H307 C293 0.950 . S
H308 C294 0.950 . S
H309 C295 0.950 . S
H310 C297 0.950 . S
H311 C298 0.951 . S
C312 C313 1.386 . S
C312 C314 1.383 . S
C312 H328 0.951 . S
C313 C312 1.386 . S
C313 C317 1.383 . S
C314 C312 1.383 . S
C314 C315 1.402 . S
C314 H329 0.951 . S
C315 C314 1.402 . S
C315 C316 1.375 . S
C315 C318 1.481 . S
C316 C315 1.375 . S
C316 C317 1.367 . S
C316 H330 0.951 . S
C317 C313 1.383 . S
C317 C316 1.367 . S
C317 H331 0.950 . S
C318 C315 1.481 . S
C318 C319 1.297 . S
C318 H332 0.950 . S
C319 C318 1.297 . S
C319 C320 1.479 . S
C319 H333 0.950 . S
C320 C319 1.479 . S
C320 C321 1.375 . S
C320 C326 1.404 . S
C321 C320 1.375 . S
C321 C322 1.369 . S
C321 H334 0.950 . S
C322 C321 1.369 . S
C322 C323 1.392 . S
C322 H335 0.951 . S
C323 C322 1.392 . S
C323 C325 1.384 . S
H324 C326 0.949 . S
C325 C323 1.384 . S
C325 C326 1.385 . S
C325 H327 0.950 . S
C326 C320 1.404 . S
C326 H324 0.949 . S
C326 C325 1.385 . S
H327 C325 0.950 . S
H328 C312 0.951 . S
H329 C314 0.951 . S
H330 C316 0.951 . S
H331 C317 0.950 . S
H332 C318 0.950 . S
H333 C319 0.950 . S
H334 C321 0.950 . S
H335 C322 0.951 . S
C336 C337 1.386 . S
C336 C338 1.383 . S
C336 H352 0.951 . S
C337 C336 1.386 . S
C337 C341 1.383 . S
C338 C336 1.383 . S
C338 C339 1.402 . S
C338 H353 0.951 . S
C339 C338 1.402 . S
C339 C340 1.375 . S
C339 C342 1.481 . S
C340 C339 1.375 . S
C340 C341 1.367 . S
C340 H354 0.951 . S
C341 C337 1.383 . S
C341 C340 1.367 . S
C341 H355 0.950 . S
C342 C339 1.481 . S
C342 C343 1.297 . S
C342 H356 0.950 . S
C343 C342 1.297 . S
C343 C344 1.479 1_455 S
C343 H357 0.950 1_455 S
C344 C343 1.479 1_655 S
C344 C345 1.375 . S
C344 C350 1.404 1_655 S
C345 C344 1.375 . S
C345 C346 1.369 . S
C345 H358 0.950 . S
C346 C345 1.369 . S
C346 C347 1.392 . S
C346 H359 0.951 . S
C347 C346 1.392 . S
C347 C349 1.384 . S
H348 C350 0.949 . S
C349 C347 1.384 . S
C349 C350 1.385 1_655 S
C349 H351 0.950 . S
C350 C344 1.404 1_455 S
C350 H348 0.949 . S
C350 C349 1.385 1_455 S
H351 C349 0.950 . S
H352 C336 0.951 . S
H353 C338 0.951 . S
H354 C340 0.951 . S
H355 C341 0.950 . S
H356 C342 0.950 . S
H357 C343 0.950 1_655 S
H358 C345 0.950 . S
H359 C346 0.951 . S
C360 C361 1.386 . S
C360 C362 1.383 . S
C360 H376 0.951 . S
C361 C360 1.386 . S
C361 C365 1.384 . S
C362 C360 1.383 . S
C362 C363 1.402 . S
C362 H377 0.951 . S
C363 C362 1.402 . S
C363 C364 1.375 . S
C363 C366 1.481 . S
C364 C363 1.375 . S
C364 C365 1.367 . S
C364 H378 0.951 1_655 S
C365 C361 1.384 . S
C365 C364 1.367 . S
C365 H379 0.948 1_655 S
C366 C363 1.481 . S
C366 C367 1.297 . S
C366 H380 0.950 . S
C367 C366 1.297 . S
C367 C368 1.479 . S
C367 H381 0.950 . S
C368 C367 1.479 . S
C368 C369 1.375 1_545 S
C368 C374 1.404 . S
C369 C368 1.375 1_565 S
C369 C370 1.369 . S
C369 H382 0.950 . S
C370 C369 1.369 . S
C370 C371 1.392 . S
C370 H383 0.951 . S
C371 C370 1.392 . S
C371 C373 1.384 1_565 S
H372 C374 0.949 . S
C373 C371 1.384 1_545 S
C373 C374 1.385 . S
C373 H375 0.950 . S
C374 C368 1.404 . S
C374 H372 0.949 . S
C374 C373 1.385 . S
H375 C373 0.950 . S
H376 C360 0.951 . S
H377 C362 0.951 . S
H378 C364 0.951 1_455 S
H379 C365 0.948 1_455 S
H380 C366 0.950 . S
H381 C367 0.950 . S
H382 C369 0.950 . S
H383 C370 0.951 . S
C384 C385 1.386 . S
C384 C386 1.383 . S
C384 H400 0.951 . S
C385 C384 1.386 . S
C385 C389 1.383 . S
C386 C384 1.383 . S
C386 C387 1.402 . S
C386 H401 0.951 . S
C387 C386 1.402 . S
C387 C388 1.375 . S
C387 C390 1.481 . S
C388 C387 1.375 . S
C388 C389 1.367 . S
C388 H402 0.951 . S
C389 C385 1.383 . S
C389 C388 1.367 . S
C389 H403 0.950 . S
C390 C387 1.481 . S
C390 C391 1.297 . S
C390 H404 0.950 . S
C391 C390 1.297 . S
C391 C392 1.479 . S
C391 H405 0.950 . S
C392 C391 1.479 . S
C392 C393 1.375 . S
C392 C398 1.404 . S
C393 C392 1.375 . S
C393 C394 1.369 . S
C393 H406 0.950 . S
C394 C393 1.369 . S
C394 C395 1.392 . S
C394 H407 0.951 . S
C395 C394 1.392 . S
C395 C397 1.384 . S
H396 C398 0.949 . S
C397 C395 1.384 . S
C397 C398 1.385 . S
C397 H399 0.950 . S
C398 C392 1.404 . S
C398 H396 0.949 . S
C398 C397 1.385 . S
H399 C397 0.950 . S
H400 C384 0.951 . S
H401 C386 0.951 . S
H402 C388 0.951 . S
H403 C389 0.950 . S
H404 C390 0.950 . S
H405 C391 0.950 . S
H406 C393 0.950 . S
H407 C394 0.951 . S
C408 C409 1.386 1_455 S
C408 C410 1.383 . S
C408 H424 0.951 . S
C409 C408 1.386 1_655 S
C409 C413 1.383 . S
C410 C408 1.383 . S
C410 C411 1.402 . S
C410 H425 0.951 . S
C411 C410 1.402 . S
C411 C412 1.375 1_455 S
C411 C414 1.481 . S
C412 C411 1.375 1_655 S
C412 C413 1.367 . S
C412 H426 0.951 . S
C413 C409 1.383 . S
C413 C412 1.367 . S
C413 H427 0.950 . S
C414 C411 1.481 . S
C414 C415 1.297 . S
C414 H428 0.964 . S
C415 C414 1.297 . S
C415 C416 1.479 . S
C415 H429 0.950 . S
C416 C415 1.479 . S
C416 C417 1.375 . S
C416 C422 1.404 . S
C417 C416 1.375 . S
C417 C418 1.369 . S
C417 H430 0.950 . S
C418 C417 1.369 . S
C418 C419 1.392 . S
C418 H431 0.951 . S
C419 C418 1.392 . S
C419 C421 1.384 . S
H420 C422 0.949 . S
C421 C419 1.384 . S
C421 C422 1.385 . S
C421 H423 0.950 . S
C422 C416 1.404 . S
C422 H420 0.949 . S
C422 C421 1.385 . S
H423 C421 0.950 . S
H424 C408 0.951 . S
H425 C410 0.951 . S
H426 C412 0.951 . S
H427 C413 0.950 . S
H428 C414 0.964 . S
H429 C415 0.950 . S
H430 C417 0.950 . S
H431 C418 0.951 . S
C432 C433 1.386 . S
C432 C434 1.383 . S
C432 H448 0.951 . S
C433 C432 1.386 . S
C433 C437 1.383 1_565 S
C434 C432 1.383 . S
C434 C435 1.402 1_565 S
C434 H449 0.951 . S
C435 C434 1.402 1_545 S
C435 C436 1.375 . S
C435 C438 1.481 . S
C436 C435 1.375 . S
C436 C437 1.367 . S
C436 H450 0.951 . S
C437 C433 1.383 1_545 S
C437 C436 1.367 . S
C437 H451 0.950 . S
C438 C435 1.481 . S
C438 C439 1.297 . S
C438 H452 0.950 . S
C439 C438 1.297 . S
C439 C440 1.479 . S
C439 H453 0.950 . S
C440 C439 1.479 . S
C440 C441 1.375 . S
C440 C446 1.404 . S
C441 C440 1.375 . S
C441 C442 1.369 . S
C441 H454 0.950 . S
C442 C441 1.369 . S
C442 C443 1.392 . S
C442 H455 0.951 . S
C443 C442 1.392 . S
C443 C445 1.384 . S
H444 C446 0.949 . S
C445 C443 1.384 . S
C445 C446 1.385 . S
C445 H447 0.950 . S
C446 C440 1.404 . S
C446 H444 0.949 . S
C446 C445 1.385 . S
H447 C445 0.950 . S
H448 C432 0.951 . S
H449 C434 0.951 . S
H450 C436 0.951 . S
H451 C437 0.950 . S
H452 C438 0.950 . S
H453 C439 0.950 . S
H454 C441 0.950 . S
H455 C442 0.951 . S
C456 C457 1.386 . S
C456 C458 1.383 . S
C456 H472 0.951 . S
C457 C456 1.386 . S
C457 C461 1.383 1_554 S
C458 C456 1.383 . S
C458 C459 1.402 1_554 S
C458 H473 0.951 . S
C459 C458 1.402 1_556 S
C459 C460 1.375 . S
C459 C462 1.481 . S
C460 C459 1.375 . S
C460 C461 1.367 . S
C460 H474 0.951 . S
C461 C457 1.383 1_556 S
C461 C460 1.367 . S
C461 H475 0.950 . S
C462 C459 1.481 . S
C462 C463 1.297 1_556 S
C462 H476 0.950 . S
C463 C462 1.297 1_554 S
C463 C464 1.478 . S
C463 H477 0.950 1_545 S
C464 C463 1.478 . S
C464 C465 1.376 1_545 S
C464 C470 1.404 1_554 S
C465 C464 1.376 1_565 S
C465 C466 1.369 . S
C465 H478 0.950 . S
C466 C465 1.369 . S
C466 C467 1.392 . S
C466 H479 0.951 . S
C467 C466 1.392 . S
C467 C469 1.384 1_564 S
H468 C470 0.949 . S
C469 C467 1.384 1_546 S
C469 C470 1.385 . S
C469 H471 0.950 . S
C470 C464 1.404 1_556 S
C470 H468 0.949 . S
C470 C469 1.385 . S
H471 C469 0.950 . S
H472 C456 0.951 . S
H473 C458 0.951 . S
H474 C460 0.951 . S
H475 C461 0.950 . S
H476 C462 0.950 . S
H477 C463 0.950 1_565 S
H478 C465 0.950 . S
H479 C466 0.951 . S
C480 C481 1.386 . S
C480 C482 1.383 . S
C480 H496 0.951 . S
C481 C480 1.386 . S
C481 C485 1.383 . S
C482 C480 1.383 . S
C482 C483 1.402 . S
C482 H497 0.951 . S
C483 C482 1.402 . S
C483 C484 1.375 . S
C483 C486 1.481 . S
C484 C483 1.375 . S
C484 C485 1.367 . S
C484 H498 0.951 . S
C485 C481 1.383 . S
C485 C484 1.367 . S
C485 H499 0.950 . S
C486 C483 1.481 . S
C486 C487 1.297 . S
C486 H500 0.950 . S
C487 C486 1.297 . S
C487 C488 1.479 . S
C487 H501 0.950 . S
C488 C487 1.479 . S
C488 C489 1.375 . S
C488 C494 1.404 . S
C489 C488 1.375 . S
C489 C490 1.369 . S
C489 H502 0.950 . S
C490 C489 1.369 . S
C490 C491 1.392 . S
C490 H503 0.951 . S
C491 C490 1.392 . S
C491 C493 1.384 . S
H492 C494 0.949 . S
C493 C491 1.384 . S
C493 C494 1.385 . S
C493 H495 0.950 . S
C494 C488 1.404 . S
C494 H492 0.949 . S
C494 C493 1.385 . S
H495 C493 0.950 . S
H496 C480 0.951 . S
H497 C482 0.951 . S
H498 C484 0.951 . S
H499 C485 0.950 . S
H500 C486 0.950 . S
H501 C487 0.950 . S
H502 C489 0.950 . S
H503 C490 0.951 . S
C504 C505 1.386 . S
C504 C506 1.383 . S
C504 H520 0.951 . S
C505 C504 1.386 . S
C505 C509 1.383 . S
C506 C504 1.383 . S
C506 C507 1.402 . S
C506 H521 0.951 . S
C507 C506 1.402 . S
C507 C508 1.375 . S
C507 C510 1.481 . S
C508 C507 1.375 . S
C508 C509 1.367 . S
C508 H522 0.951 . S
C509 C505 1.383 . S
C509 C508 1.367 . S
C509 H523 0.950 . S
C510 C507 1.481 . S
C510 C511 1.297 . S
C510 H524 0.950 . S
C511 C510 1.297 . S
C511 C512 1.479 . S
C511 H525 0.950 . S
C512 C511 1.479 . S
C512 C513 1.375 . S
C512 C518 1.404 . S
C513 C512 1.375 . S
C513 C514 1.369 . S
C513 H526 0.950 . S
C514 C513 1.369 . S
C514 C515 1.392 . S
C514 H527 0.951 . S
C515 C514 1.392 . S
C515 C517 1.384 1_455 S
H516 C518 0.949 . S
C517 C515 1.384 1_655 S
C517 C518 1.387 1_655 S
C517 H519 0.949 . S
C518 C512 1.404 . S
C518 H516 0.949 . S
C518 C517 1.387 1_455 S
H519 C517 0.949 . S
H520 C504 0.951 . S
H521 C506 0.951 . S
H522 C508 0.951 . S
H523 C509 0.950 . S
H524 C510 0.950 . S
H525 C511 0.950 . S
H526 C513 0.950 . S
H527 C514 0.951 . S
C528 C529 1.386 . S
C528 C530 1.383 . S
C528 H544 0.951 . S
C529 C528 1.386 . S
C529 C533 1.383 . S
C530 C528 1.383 . S
C530 C531 1.402 . S
C530 H545 0.951 . S
C531 C530 1.402 . S
C531 C532 1.375 . S
C531 C534 1.481 . S
C532 C531 1.375 . S
C532 C533 1.367 . S
C532 H546 0.951 . S
C533 C529 1.383 . S
C533 C532 1.367 . S
C533 H547 0.950 . S
C534 C531 1.481 . S
C534 C535 1.297 . S
C534 H548 0.950 . S
C535 C534 1.297 . S
C535 C536 1.479 . S
C535 H549 0.950 . S
C536 C535 1.479 . S
C536 C537 1.375 . S
C536 C542 1.404 . S
C537 C536 1.375 . S
C537 C538 1.369 . S
C537 H550 0.950 . S
C538 C537 1.369 . S
C538 C539 1.392 . S
C538 H551 0.951 . S
C539 C538 1.392 . S
C539 C541 1.384 . S
H540 C542 0.949 . S
C541 C539 1.384 . S
C541 C542 1.385 . S
C541 H543 0.950 . S
C542 C536 1.404 . S
C542 H540 0.949 . S
C542 C541 1.385 . S
H543 C541 0.950 . S
H544 C528 0.951 . S
H545 C530 0.951 . S
H546 C532 0.951 . S
H547 C533 0.950 . S
H548 C534 0.950 . S
H549 C535 0.950 . S
H550 C537 0.950 . S
H551 C538 0.951 . S
C552 C553 1.386 . S
C552 C554 1.383 . S
C552 H568 0.951 . S
C553 C552 1.386 . S
C553 C557 1.383 . S
C554 C552 1.383 . S
C554 C555 1.402 . S
C554 H569 0.951 . S
C555 C554 1.402 . S
C555 C556 1.375 . S
C555 C558 1.481 . S
C556 C555 1.375 . S
C556 C557 1.367 . S
C556 H570 0.951 . S
C557 C553 1.383 . S
C557 C556 1.367 . S
C557 H571 0.950 1_455 S
C558 C555 1.481 . S
C558 C559 1.297 . S
C558 H572 0.950 . S
C559 C558 1.297 . S
C559 C560 1.479 . S
C559 H573 0.950 . S
C560 C559 1.479 . S
C560 C561 1.375 . S
C560 C566 1.404 . S
C561 C560 1.375 . S
C561 C562 1.369 . S
C561 H574 0.950 . S
C562 C561 1.369 . S
C562 C563 1.392 . S
C562 H575 0.951 . S
C563 C562 1.392 . S
C563 C565 1.384 . S
H564 C566 0.949 . S
C565 C563 1.384 . S
C565 C566 1.385 . S
C565 H567 0.950 . S
C566 C560 1.404 . S
C566 H564 0.949 . S
C566 C565 1.385 . S
H567 C565 0.950 . S
H568 C552 0.951 . S
H569 C554 0.951 . S
H570 C556 0.951 . S
H571 C557 0.950 1_655 S
H572 C558 0.950 . S
H573 C559 0.950 . S
H574 C561 0.950 . S
H575 C562 0.951 . S
C576 C577 1.386 . S
C576 C578 1.383 . S
C576 H592 0.951 . S
C577 C576 1.386 . S
C577 C581 1.383 . S
C578 C576 1.383 . S
C578 C579 1.402 . S
C578 H593 0.951 . S
C579 C578 1.402 . S
C579 C580 1.375 . S
C579 C582 1.481 . S
C580 C579 1.375 . S
C580 C581 1.367 . S
C580 H594 0.951 . S
C581 C577 1.383 . S
C581 C580 1.367 . S
C581 H595 0.950 . S
C582 C579 1.481 . S
C582 C583 1.297 . S
C582 H596 0.950 . S
C583 C582 1.297 . S
C583 C584 1.479 . S
C583 H597 0.950 . S
C584 C583 1.479 . S
C584 C585 1.375 . S
C584 C590 1.404 . S
C585 C584 1.375 . S
C585 C586 1.369 . S
C585 H598 0.950 . S
C586 C585 1.369 . S
C586 C587 1.392 . S
C586 H599 0.951 . S
C587 C586 1.392 . S
C587 C589 1.384 . S
H588 C590 0.949 . S
C589 C587 1.384 . S
C589 C590 1.385 . S
C589 H591 0.950 . S
C590 C584 1.404 . S
C590 H588 0.949 . S
C590 C589 1.385 . S
H591 C589 0.950 . S
H592 C576 0.951 . S
H593 C578 0.951 . S
H594 C580 0.951 . S
H595 C581 0.950 . S
H596 C582 0.950 . S
H597 C583 0.950 . S
H598 C585 0.950 . S
H599 C586 0.951 . S
C600 C601 1.386 . S
C600 C602 1.383 . S
C600 H616 0.951 . S
C601 C600 1.386 . S
C601 C605 1.383 . S
C602 C600 1.383 . S
C602 C603 1.402 . S
C602 H617 0.951 . S
C603 C602 1.402 . S
C603 C604 1.375 . S
C603 C606 1.481 . S
C604 C603 1.375 . S
C604 C605 1.367 . S
C604 H618 0.951 . S
C605 C601 1.383 . S
C605 C604 1.367 . S
C605 H619 0.950 . S
C606 C603 1.481 . S
C606 C607 1.297 . S
C606 H620 0.950 . S
C607 C606 1.297 . S
C607 C608 1.479 . S
C607 H621 0.950 . S
C608 C607 1.479 . S
C608 C609 1.375 . S
C608 C614 1.404 . S
C609 C608 1.375 . S
C609 C610 1.369 . S
C609 H622 0.950 . S
C610 C609 1.369 . S
C610 C611 1.392 . S
C610 H623 0.951 . S
C611 C610 1.392 . S
C611 C613 1.384 . S
H612 C614 0.949 . S
C613 C611 1.384 . S
C613 C614 1.385 . S
C613 H615 0.950 . S
C614 C608 1.404 . S
C614 H612 0.949 . S
C614 C613 1.385 . S
H615 C613 0.950 . S
H616 C600 0.951 . S
H617 C602 0.951 . S
H618 C604 0.951 . S
H619 C605 0.950 . S
H620 C606 0.950 . S
H621 C607 0.950 . S
H622 C609 0.950 . S
H623 C610 0.951 . S
C624 C625 1.390 . S
C624 C626 1.379 1_455 S
C624 H640 0.950 . S
C625 C624 1.390 . S
C625 C629 1.383 1_455 S
C626 C624 1.379 1_655 S
C626 C627 1.402 . S
C626 H641 0.951 . S
C627 C626 1.402 . S
C627 C628 1.375 . S
C627 C630 1.481 . S
C628 C627 1.375 . S
C628 C629 1.367 . S
C628 H642 0.951 . S
C629 C625 1.383 1_655 S
C629 C628 1.367 . S
C629 H643 0.950 . S
C630 C627 1.481 . S
C630 C631 1.297 . S
C630 H644 0.950 . S
C631 C630 1.297 . S
C631 C632 1.479 . S
C631 H645 0.950 . S
C632 C631 1.479 . S
C632 C633 1.375 . S
C632 C638 1.404 . S
C633 C632 1.375 . S
C633 C634 1.369 . S
C633 H646 0.950 . S
C634 C633 1.369 . S
C634 C635 1.392 . S
C634 H647 0.951 . S
C635 C634 1.392 . S
C635 C637 1.384 . S
H636 C638 0.949 . S
C637 C635 1.384 . S
C637 C638 1.385 . S
C637 H639 0.950 . S
C638 C632 1.404 . S
C638 H636 0.949 . S
C638 C637 1.385 . S
H639 C637 0.950 . S
H640 C624 0.950 . S
H641 C626 0.951 . S
H642 C628 0.951 . S
H643 C629 0.950 . S
H644 C630 0.950 . S
H645 C631 0.950 . S
H646 C633 0.950 . S
H647 C634 0.951 . S
C648 C649 1.386 . S
C648 C650 1.383 . S
C648 H664 0.951 . S
C649 C648 1.386 . S
C649 C653 1.383 1_565 S
C650 C648 1.383 . S
C650 C651 1.402 . S
C650 H665 0.951 . S
C651 C650 1.402 . S
C651 C652 1.375 1_565 S
C651 C654 1.481 . S
C652 C651 1.375 1_545 S
C652 C653 1.367 . S
C652 H666 0.951 . S
C653 C649 1.383 1_545 S
C653 C652 1.367 . S
C653 H667 0.950 . S
C654 C651 1.481 . S
C654 C655 1.297 . S
C654 H668 0.950 . S
C655 C654 1.297 . S
C655 C656 1.479 . S
C655 H669 0.950 . S
C656 C655 1.479 . S
C656 C657 1.375 . S
C656 C662 1.404 . S
C657 C656 1.375 . S
C657 C658 1.369 . S
C657 H670 0.950 . S
C658 C657 1.369 . S
C658 C659 1.392 . S
C658 H671 0.951 . S
C659 C658 1.392 . S
C659 C661 1.384 . S
H660 C662 0.949 . S
C661 C659 1.384 . S
C661 C662 1.385 . S
C661 H663 0.950 . S
C662 C656 1.404 . S
C662 H660 0.949 . S
C662 C661 1.385 . S
H663 C661 0.950 . S
H664 C648 0.951 . S
H665 C650 0.951 . S
H666 C652 0.951 . S
H667 C653 0.950 . S
H668 C654 0.950 . S
H669 C655 0.950 . S
H670 C657 0.950 . S
H671 C658 0.951 . S
C241 C129 1.830 1_565 S
C251 C9 1.904 . S
C265 C169 2.398 . S
C275 C49 2.447 . S
C289 C209 1.982 . S
C299 C89 2.007 . S
C313 C10 4.448 . S
C323 C99 4.539 . S
C337 C50 4.531 . S
C347 C139 4.655 . S
C361 C90 4.716 1_655 S
C371 C179 4.827 . S
C385 C130 4.439 . S
C395 C219 4.537 . S
C409 C170 4.537 . S
C419 C19 4.658 1_565 S
C433 C210 4.701 . S
C443 C59 4.823 . S
C457 C18 1.199 . S
C467 C138 1.153 . S
C481 C58 1.314 . S
C491 C178 1.344 . S
C505 C98 1.156 . S
C515 C218 1.079 . S
C529 C15 1.516 . S
C539 C46 1.483 . S
C553 C55 1.303 . S
C563 C86 1.272 . S
C577 C95 1.487 . S
C587 C126 1.601 . S
C601 C135 1.568 . S
C611 C166 1.427 . S
C625 C175 1.238 1_455 S
C635 C206 1.350 . S
C649 C215 1.537 . S
C659 C6 1.599 . S
