# Generated by pormake.
# Topology atn, (4)-cn, num edge types: 1
# Building blocks:
#     Node 0, Type 0, BuildingBlock: NAHDIM_clean_sbu_0, # of connection points: 4
#     Node 1, Type 0, BuildingBlock: NAHDIM_clean_sbu_0, # of connection points: 4
#     Node 2, Type 0, BuildingBlock: NAHDIM_clean_sbu_0, # of connection points: 4
#     Node 3, Type 0, BuildingBlock: NAHDIM_clean_sbu_0, # of connection points: 4
#     Node 4, Type 0, BuildingBlock: NAHDIM_clean_sbu_0, # of connection points: 4
#     Node 5, Type 0, BuildingBlock: NAHDIM_clean_sbu_0, # of connection points: 4
#     Node 6, Type 0, BuildingBlock: NAHDIM_clean_sbu_0, # of connection points: 4
#     Node 7, Type 0, BuildingBlock: NAHDIM_clean_sbu_0, # of connection points: 4
#     Node 8, Type 0, BuildingBlock: NAHDIM_clean_sbu_0, # of connection points: 4
#     Node 9, Type 0, BuildingBlock: NAHDIM_clean_sbu_0, # of connection points: 4
#     Node 10, Type 0, BuildingBlock: NAHDIM_clean_sbu_0, # of connection points: 4
#     Node 11, Type 0, BuildingBlock: NAHDIM_clean_sbu_0, # of connection points: 4
#     Node 12, Type 0, BuildingBlock: NAHDIM_clean_sbu_0, # of connection points: 4
#     Node 13, Type 0, BuildingBlock: NAHDIM_clean_sbu_0, # of connection points: 4
#     Node 14, Type 0, BuildingBlock: NAHDIM_clean_sbu_0, # of connection points: 4
#     Node 15, Type 0, BuildingBlock: NAHDIM_clean_sbu_0, # of connection points: 4
#     Edge 16, Type (0, 0), BuildingBlock: EYOCIG_clean_linker_4, # of connection points: 2
#     Edge 17, Type (0, 0), BuildingBlock: EYOCIG_clean_linker_4, # of connection points: 2
#     Edge 18, Type (0, 0), BuildingBlock: EYOCIG_clean_linker_4, # of connection points: 2
#     Edge 19, Type (0, 0), BuildingBlock: EYOCIG_clean_linker_4, # of connection points: 2
#     Edge 20, Type (0, 0), BuildingBlock: EYOCIG_clean_linker_4, # of connection points: 2
#     Edge 21, Type (0, 0), BuildingBlock: EYOCIG_clean_linker_4, # of connection points: 2
#     Edge 22, Type (0, 0), BuildingBlock: EYOCIG_clean_linker_4, # of connection points: 2
#     Edge 23, Type (0, 0), BuildingBlock: EYOCIG_clean_linker_4, # of connection points: 2
#     Edge 24, Type (0, 0), BuildingBlock: EYOCIG_clean_linker_4, # of connection points: 2
#     Edge 25, Type (0, 0), BuildingBlock: EYOCIG_clean_linker_4, # of connection points: 2
#     Edge 26, Type (0, 0), BuildingBlock: EYOCIG_clean_linker_4, # of connection points: 2
#     Edge 27, Type (0, 0), BuildingBlock: EYOCIG_clean_linker_4, # of connection points: 2
#     Edge 28, Type (0, 0), BuildingBlock: EYOCIG_clean_linker_4, # of connection points: 2
#     Edge 29, Type (0, 0), BuildingBlock: EYOCIG_clean_linker_4, # of connection points: 2
#     Edge 30, Type (0, 0), BuildingBlock: EYOCIG_clean_linker_4, # of connection points: 2
#     Edge 31, Type (0, 0), BuildingBlock: EYOCIG_clean_linker_4, # of connection points: 2
#     Edge 32, Type (0, 0), BuildingBlock: EYOCIG_clean_linker_4, # of connection points: 2
#     Edge 33, Type (0, 0), BuildingBlock: EYOCIG_clean_linker_4, # of connection points: 2
#     Edge 34, Type (0, 0), BuildingBlock: EYOCIG_clean_linker_4, # of connection points: 2
#     Edge 35, Type (0, 0), BuildingBlock: EYOCIG_clean_linker_4, # of connection points: 2
#     Edge 36, Type (0, 0), BuildingBlock: EYOCIG_clean_linker_4, # of connection points: 2
#     Edge 37, Type (0, 0), BuildingBlock: EYOCIG_clean_linker_4, # of connection points: 2
#     Edge 38, Type (0, 0), BuildingBlock: EYOCIG_clean_linker_4, # of connection points: 2
#     Edge 39, Type (0, 0), BuildingBlock: EYOCIG_clean_linker_4, # of connection points: 2
#     Edge 40, Type (0, 0), BuildingBlock: EYOCIG_clean_linker_4, # of connection points: 2
#     Edge 41, Type (0, 0), BuildingBlock: EYOCIG_clean_linker_4, # of connection points: 2
#     Edge 42, Type (0, 0), BuildingBlock: EYOCIG_clean_linker_4, # of connection points: 2
#     Edge 43, Type (0, 0), BuildingBlock: EYOCIG_clean_linker_4, # of connection points: 2
#     Edge 44, Type (0, 0), BuildingBlock: EYOCIG_clean_linker_4, # of connection points: 2
#     Edge 45, Type (0, 0), BuildingBlock: EYOCIG_clean_linker_4, # of connection points: 2
#     Edge 46, Type (0, 0), BuildingBlock: EYOCIG_clean_linker_4, # of connection points: 2
#     Edge 47, Type (0, 0), BuildingBlock: EYOCIG_clean_linker_4, # of connection points: 2
# Relax obj value: 0.100
# Max RMSD: 0.111
# Mean RMSD: 0.111
data_MOF--net-atn--node1-NAHDIM_clean_sbu_0--edge1-EYOCIG_clean_linker_4
_symmetry_space_group_name_H-M    P1
_symmetry_Int_Tables_number       1
_symmetry_cell_setting            triclinic
loop_
_symmetry_equiv_pos_as_xyz
'x, y, z'
_cell_length_a     52.178689
_cell_length_b     52.180632
_cell_length_c     19.459874
_cell_angle_alpha  89.993946
_cell_angle_beta   90.005099
_cell_angle_gamma 89.961445
loop_
_atom_site_label
_atom_site_type_symbol
_atom_site_fract_x
_atom_site_fract_y
_atom_site_fract_z
_atom_type_partial_charge
C0 C 0.18792 0.41702 0.01721 0.0
O1 O 0.16492 0.40833 0.03118 0.0
O2 O 0.18017 0.35476 0.09524 0.0
Zn3 Zn 0.1975 0.36389 0.0053 0.0
O4 O 0.17408 0.35719 0.92419 0.0
C5 C 0.23297 0.32217 0.02679 0.0
O6 O 0.2147 0.31371 0.06706 0.0
O7 O 0.20601 0.40143 0.005 0.0
C8 C 0.17448 0.33561 0.89415 0.0
O9 O 0.18957 0.31736 0.91671 0.0
C10 C 0.16117 0.33963 0.09893 0.0
O11 O 0.15154 0.32949 0.04295 0.0
O12 O 0.23019 0.34322 0.99487 0.0
C13 C 0.54405 0.18776 0.01736 0.0
O14 O 0.55283 0.16487 0.03243 0.0
O15 O 0.6064 0.18061 0.09534 0.0
Zn16 Zn 0.59716 0.1975 0.00482 0.0
O17 O 0.60403 0.17379 0.92439 0.0
C18 C 0.63864 0.23331 0.02485 0.0
O19 O 0.64729 0.21524 0.06556 0.0
O20 O 0.55956 0.2058 0.00424 0.0
C21 C 0.62559 0.17425 0.89424 0.0
O22 O 0.6437 0.18957 0.91634 0.0
C23 C 0.6218 0.16181 0.09961 0.0
O24 O 0.63216 0.15216 0.04394 0.0
O25 O 0.61756 0.23028 0.99325 0.0
C26 C 0.77369 0.54404 0.01489 0.0
O27 O 0.79667 0.55283 0.02868 0.0
O28 O 0.78054 0.60605 0.09588 0.0
Zn29 Zn 0.76367 0.59717 0.00512 0.0
O30 O 0.78742 0.60432 0.92497 0.0
C31 C 0.72802 0.63878 0.02592 0.0
O32 O 0.74626 0.64738 0.06607 0.0
O33 O 0.75545 0.55956 0.00359 0.0
C34 C 0.78699 0.62594 0.89512 0.0
O35 O 0.77162 0.64402 0.91725 0.0
C36 C 0.79928 0.62147 0.10051 0.0
O37 O 0.80889 0.63204 0.04509 0.0
O38 O 0.73088 0.61768 0.99427 0.0
C39 C 0.41696 0.77381 0.0171 0.0
O40 O 0.40808 0.79674 0.0313 0.0
O41 O 0.3546 0.78086 0.09581 0.0
Zn42 Zn 0.36383 0.7637 0.00568 0.0
O43 O 0.35666 0.78705 0.92468 0.0
C44 C 0.32245 0.72789 0.02702 0.0
O45 O 0.31377 0.74616 0.067 0.0
O46 O 0.4015 0.75561 0.00494 0.0
C47 C 0.33502 0.78649 0.89498 0.0
O48 O 0.31695 0.77126 0.91784 0.0
C49 C 0.33925 0.79971 0.09973 0.0
O50 O 0.32897 0.80929 0.04386 0.0
O51 O 0.34354 0.73079 0.99533 0.0
C52 C 0.18793 0.54404 0.99344 0.0
O53 O 0.1648 0.55278 0.98109 0.0
O54 O 0.18077 0.6064 0.9128 0.0
Zn55 Zn 0.19778 0.59717 0.0032 0.0
O56 O 0.1741 0.60396 0.08376 0.0
C57 C 0.23344 0.63879 0.98318 0.0
O58 O 0.21528 0.64745 0.94279 0.0
O59 O 0.20619 0.5596 0.00376 0.0
C60 C 0.17456 0.62547 0.11412 0.0
O61 O 0.18987 0.64362 0.0922 0.0
C62 C 0.16201 0.62184 0.90872 0.0
O63 O 0.15247 0.63223 0.96449 0.0
O64 O 0.23051 0.61765 0.0146 0.0
C65 C 0.41701 0.18768 0.99346 0.0
O66 O 0.40829 0.16457 0.98102 0.0
O67 O 0.35472 0.18044 0.91311 0.0
Zn68 Zn 0.36389 0.19744 0.00347 0.0
O69 O 0.35725 0.17371 0.08393 0.0
C70 C 0.32217 0.23303 0.98325 0.0
O71 O 0.31367 0.21493 0.94249 0.0
O72 O 0.40143 0.20593 0.00394 0.0
C73 C 0.33573 0.17408 0.1143 0.0
O74 O 0.31751 0.18935 0.09248 0.0
C75 C 0.33935 0.16163 0.90904 0.0
O76 O 0.329 0.15206 0.9648 0.0
O77 O 0.34325 0.23011 0.01495 0.0
C78 C 0.77353 0.41693 0.99105 0.0
O79 O 0.79652 0.40799 0.97781 0.0
O80 O 0.78059 0.35458 0.91226 0.0
Zn81 Zn 0.76335 0.36387 0.00222 0.0
O82 O 0.78668 0.35689 0.08338 0.0
C83 C 0.72768 0.32239 0.98107 0.0
O84 O 0.74603 0.31369 0.94138 0.0
O85 O 0.75523 0.40153 0.00253 0.0
C86 C 0.78617 0.33529 0.11333 0.0
O87 O 0.771 0.31715 0.09065 0.0
C88 C 0.79964 0.33947 0.90853 0.0
O89 O 0.80941 0.32948 0.96453 0.0
O90 O 0.73048 0.34353 0.01255 0.0
C91 C 0.54407 0.77374 0.99279 0.0
O92 O 0.5529 0.79673 0.97929 0.0
O93 O 0.60631 0.78041 0.91198 0.0
Zn94 Zn 0.59721 0.76364 0.00276 0.0
O95 O 0.60425 0.78745 0.08286 0.0
C96 C 0.63882 0.72792 0.98293 0.0
O97 O 0.64751 0.74611 0.94276 0.0
O98 O 0.55957 0.75547 0.00393 0.0
C99 C 0.62584 0.78705 0.11287 0.0
O100 O 0.64396 0.77168 0.09094 0.0
C101 C 0.62175 0.79913 0.90743 0.0
O102 O 0.63221 0.80879 0.96294 0.0
O103 O 0.61765 0.73083 0.01422 0.0
C104 C 0.68806 0.91711 0.51715 0.0
O105 O 0.6651 0.9084 0.53155 0.0
O106 O 0.68073 0.85473 0.59528 0.0
Zn107 Zn 0.69768 0.86398 0.50487 0.0
O108 O 0.67399 0.85728 0.42432 0.0
C109 C 0.73329 0.82231 0.52473 0.0
O110 O 0.71512 0.81367 0.56505 0.0
O111 O 0.70612 0.90154 0.50453 0.0
C112 C 0.6744 0.83575 0.39404 0.0
O113 O 0.68966 0.81755 0.41605 0.0
C114 C 0.66199 0.83929 0.59941 0.0
O115 O 0.65242 0.82892 0.54366 0.0
O116 O 0.7304 0.84346 0.49337 0.0
C117 C 0.04407 0.68781 0.51481 0.0
O118 O 0.05275 0.66476 0.52835 0.0
O119 O 0.10621 0.68077 0.5961 0.0
Zn120 Zn 0.09723 0.69756 0.50524 0.0
O121 O 0.10428 0.67375 0.42518 0.0
C122 C 0.13861 0.73344 0.52604 0.0
O123 O 0.1471 0.71549 0.56734 0.0
O124 O 0.05967 0.70598 0.5038 0.0
C125 C 0.1259 0.67411 0.39537 0.0
O126 O 0.144 0.68944 0.41755 0.0
C127 C 0.12174 0.66209 0.60075 0.0
O128 O 0.13234 0.65252 0.54531 0.0
O129 O 0.11768 0.7303 0.49378 0.0
C130 C 0.27342 0.04419 0.5173 0.0
O131 O 0.29634 0.05302 0.5316 0.0
O132 O 0.28031 0.10638 0.5964 0.0
Zn133 Zn 0.26358 0.09724 0.50565 0.0
O134 O 0.28747 0.104 0.42557 0.0
C135 C 0.22809 0.13905 0.52484 0.0
O136 O 0.24633 0.14769 0.56498 0.0
O137 O 0.25525 0.05967 0.50496 0.0
C138 C 0.28725 0.12559 0.39554 0.0
O139 O 0.27205 0.14384 0.41749 0.0
C140 C 0.29937 0.12141 0.6009 0.0
O141 O 0.30943 0.13142 0.5453 0.0
O142 O 0.23089 0.11782 0.49379 0.0
C143 C 0.91702 0.2736 0.51722 0.0
O144 O 0.90815 0.2964 0.53279 0.0
O145 O 0.85482 0.28038 0.59565 0.0
Zn146 Zn 0.86393 0.26362 0.50488 0.0
O147 O 0.85668 0.28729 0.42458 0.0
C148 C 0.82263 0.22772 0.52547 0.0
O149 O 0.81402 0.2458 0.56618 0.0
O150 O 0.90157 0.25553 0.50375 0.0
C151 C 0.83492 0.28697 0.39546 0.0
O152 O 0.81683 0.27183 0.41855 0.0
C153 C 0.83974 0.29942 0.60031 0.0
O154 O 0.82964 0.30949 0.54482 0.0
O155 O 0.84365 0.23076 0.49361 0.0
C156 C 0.68804 0.04412 0.49296 0.0
O157 O 0.66495 0.05282 0.47982 0.0
O158 O 0.68079 0.10627 0.41206 0.0
Zn159 Zn 0.69778 0.09727 0.50262 0.0
O160 O 0.67409 0.10422 0.58302 0.0
C161 C 0.73352 0.13874 0.48133 0.0
O162 O 0.71547 0.14717 0.44024 0.0
O163 O 0.70623 0.05971 0.50377 0.0
C164 C 0.6744 0.12586 0.61278 0.0
O165 O 0.68958 0.14403 0.59036 0.0
C166 C 0.66199 0.12166 0.40771 0.0
O167 O 0.65238 0.13211 0.4633 0.0
O168 O 0.73049 0.11781 0.51365 0.0
C169 C 0.91708 0.68792 0.49042 0.0
O170 O 0.90837 0.66495 0.47616 0.0
O171 O 0.85482 0.68029 0.4125 0.0
Zn172 Zn 0.86396 0.69751 0.50257 0.0
O173 O 0.85721 0.67402 0.58351 0.0
C174 C 0.82231 0.73307 0.48131 0.0
O175 O 0.81378 0.71483 0.44106 0.0
O176 O 0.9015 0.70599 0.50293 0.0
C177 C 0.83568 0.67452 0.61379 0.0
O178 O 0.81751 0.68978 0.59158 0.0
C179 C 0.83935 0.66156 0.40863 0.0
O180 O 0.82888 0.65219 0.46447 0.0
O181 O 0.84337 0.73023 0.51317 0.0
C182 C 0.27342 0.9171 0.49332 0.0
O183 O 0.29639 0.9082 0.47973 0.0
O184 O 0.28012 0.85507 0.41236 0.0
Zn185 Zn 0.26323 0.86404 0.50304 0.0
O186 O 0.28683 0.85673 0.58344 0.0
C187 C 0.22741 0.8227 0.48193 0.0
O188 O 0.24559 0.81411 0.44153 0.0
O189 O 0.25512 0.90167 0.50451 0.0
C190 C 0.2863 0.83507 0.61304 0.0
O191 O 0.27096 0.81706 0.59043 0.0
C192 C 0.29894 0.83972 0.40779 0.0
O193 O 0.30864 0.82926 0.46327 0.0
O194 O 0.23036 0.84373 0.51382 0.0
C195 C 0.0441 0.27358 0.49329 0.0
O196 O 0.05286 0.2966 0.47975 0.0
O197 O 0.10594 0.28064 0.41176 0.0
Zn198 Zn 0.09723 0.26373 0.50255 0.0
O199 O 0.10434 0.28746 0.58276 0.0
C200 C 0.13896 0.22829 0.48132 0.0
O201 O 0.14742 0.24658 0.44109 0.0
O202 O 0.05966 0.25534 0.50428 0.0
C203 C 0.12602 0.28716 0.61231 0.0
O204 O 0.14416 0.27193 0.58983 0.0
C205 C 0.12103 0.29965 0.40707 0.0
O206 O 0.13133 0.30954 0.46249 0.0
O207 O 0.11789 0.23104 0.51318 0.0
C208 C 0.194 0.49401 0.00293 0.0
C209 C 0.1921 0.51697 0.99905 0.0
C210 C 0.194 0.46705 0.00805 0.0
C211 C 0.19208 0.44409 0.01171 0.0
C212 C 0.46704 0.19372 0.00287 0.0
C213 C 0.44408 0.19183 0.99904 0.0
C214 C 0.49399 0.19371 0.008 0.0
C215 C 0.51695 0.19181 0.01173 0.0
C216 C 0.76781 0.46703 0.99998 0.0
C217 C 0.7696 0.44405 0.99638 0.0
C218 C 0.76784 0.49399 0.00508 0.0
C219 C 0.76968 0.51695 0.00906 0.0
C220 C 0.494 0.76797 0.00256 0.0
C221 C 0.51697 0.76976 0.99858 0.0
C222 C 0.46704 0.768 0.00774 0.0
C223 C 0.44407 0.76984 0.01151 0.0
C224 C 0.69412 -0.0059 0.50278 0.0
C225 C 0.69221 0.01706 0.49879 0.0
C226 C 0.69411 0.96715 0.50796 0.0
C227 C 0.69218 0.94419 0.51162 0.0
C228 C 0.96711 0.69396 0.49956 0.0
C229 C 0.94415 0.69205 0.49592 0.0
C230 C -0.00594 0.69394 0.50476 0.0
C231 C 0.01701 0.692 0.50886 0.0
C232 C 0.26763 -0.00588 0.50805 0.0
C233 C 0.26945 0.01709 0.51175 0.0
C234 C 0.26765 0.96717 0.50294 0.0
C235 C 0.26947 0.9442 0.49902 0.0
C236 C -0.00594 0.26771 0.50304 0.0
C237 C 0.01702 0.26952 0.49909 0.0
C238 C 0.9671 0.26777 0.50808 0.0
C239 C 0.94413 0.26964 0.51171 0.0
C240 C 0.27306 0.29209 0.00909 0.0
C241 C 0.2552 0.30655 0.01535 0.0
C242 C 0.29211 0.27307 1.0019 0.0
C243 C 0.30659 0.25524 0.99529 0.0
C244 C 0.6875 0.29249 0.99877 0.0
C245 C 0.70538 0.30691 0.99255 0.0
C246 C 0.66849 0.27346 0.00598 0.0
C247 C 0.65408 0.25558 0.01267 0.0
C248 C 0.68782 0.66872 0.00822 0.0
C249 C 0.70571 0.65429 0.01441 0.0
C250 C 0.66875 0.68775 1.00125 0.0
C251 C 0.65429 0.70561 0.99483 0.0
C252 C 0.27357 0.66868 1.00189 0.0
C253 C 0.2557 0.65426 0.99525 0.0
C254 C 0.29258 0.6877 0.00912 0.0
C255 C 0.30699 0.70559 0.01541 0.0
C256 C 0.79236 0.77324 0.49899 0.0
C257 C 0.80678 0.75535 0.49275 0.0
C258 C 0.77337 0.79232 0.50612 0.0
C259 C 0.75554 0.80679 0.5127 0.0
C260 C 0.18731 0.79275 0.50018 0.0
C261 C 0.20516 0.8072 0.49377 0.0
C262 C 0.16837 0.77366 0.50744 0.0
C263 C 0.15403 0.75573 0.51403 0.0
C264 C 0.18807 0.16913 0.50611 0.0
C265 C 0.20587 0.15462 0.51276 0.0
C266 C 0.16906 0.1882 0.49896 0.0
C267 C 0.15459 0.20606 0.49272 0.0
C268 C 0.79273 0.18761 0.5068 0.0
C269 C 0.80716 0.20546 0.51338 0.0
C270 C 0.77367 0.16863 0.49953 0.0
C271 C 0.75577 0.15424 0.4931 0.0
C272 C 0.13477 0.31705 0.2851 0.0
C273 C 0.12843 0.30903 0.34065 0.0
C274 C 0.14333 0.32558 0.2202 0.0
C275 C 0.1515 0.33201 0.16487 0.0
C276 C 0.64447 0.13567 0.28605 0.0
C277 C 0.65254 0.12921 0.34146 0.0
C278 C 0.63587 0.14428 0.22121 0.0
C279 C 0.62939 0.15235 0.16582 0.0
C280 C 0.82526 0.64386 0.28727 0.0
C281 C 0.83173 0.65198 0.34261 0.0
C282 C 0.8167 0.6353 0.22239 0.0
C283 C 0.80867 0.62891 0.16689 0.0
C284 C 0.31642 0.82587 0.28596 0.0
C285 C 0.30836 0.83227 0.34144 0.0
C286 C 0.32504 0.81732 0.22111 0.0
C287 C 0.33156 0.80924 0.16577 0.0
C288 C 0.13572 0.64466 0.72254 0.0
C289 C 0.12924 0.65272 0.66712 0.0
C290 C 0.14437 0.63602 0.7873 0.0
C291 C 0.15249 0.62949 0.84261 0.0
C292 C 0.3167 0.13544 0.7227 0.0
C293 C 0.30872 0.12897 0.66721 0.0
C294 C 0.32526 0.14403 0.78756 0.0
C295 C 0.33174 0.15212 0.84293 0.0
C296 C 0.81731 0.32528 0.7872 0.0
C297 C 0.80923 0.33177 0.84256 0.0
C298 C 0.82586 0.31673 0.72227 0.0
C299 C 0.83226 0.30876 0.66672 0.0
C300 C 0.63581 0.81651 0.78567 0.0
C301 C 0.62931 0.80848 0.8411 0.0
C302 C 0.64443 0.82511 0.72088 0.0
C303 C 0.65251 0.83165 0.66554 0.0
C304 C 0.82469 0.64782 0.72473 0.0
C305 C 0.83126 0.65929 0.67398 0.0
C306 C 0.81397 0.63714 0.78479 0.0
C307 C 0.80236 0.63051 0.83526 0.0
C308 C 0.313 0.82369 0.72378 0.0
C309 C 0.3015 0.83037 0.67315 0.0
C310 C 0.3237 0.81302 0.78391 0.0
C311 C 0.33036 0.8016 0.83468 0.0
C312 C 0.1372 0.31402 0.72285 0.0
C313 C 0.13058 0.30245 0.67231 0.0
C314 C 0.14786 0.3247 0.78299 0.0
C315 C 0.15931 0.33122 0.83382 0.0
C316 C 0.6367 0.14751 0.78345 0.0
C317 C 0.63007 0.15899 0.83414 0.0
C318 C 0.64748 0.1369 0.72336 0.0
C319 C 0.65908 0.13035 0.67279 0.0
C320 C 0.82348 0.3136 0.28466 0.0
C321 C 0.83021 0.30213 0.33528 0.0
C322 C 0.81276 0.32422 0.22449 0.0
C323 C 0.8013 0.33077 0.17366 0.0
C324 C 0.63692 0.81407 0.2232 0.0
C325 C 0.63034 0.80245 0.17271 0.0
C326 C 0.64759 0.82481 0.28325 0.0
C327 C 0.65911 0.83137 0.33395 0.0
C328 C 0.13707 0.64716 0.28496 0.0
C329 C 0.13045 0.65876 0.33547 0.0
C330 C 0.14775 0.63643 0.2249 0.0
C331 C 0.15927 0.62987 0.1742 0.0
C332 C 0.31424 0.13646 0.28505 0.0
C333 C 0.30263 0.12993 0.33561 0.0
C334 C 0.32492 0.14715 0.22496 0.0
C335 C 0.33142 0.15873 0.17431 0.0
loop_
_geom_bond_atom_site_label_1
_geom_bond_atom_site_label_2
_geom_bond_distance
_geom_bond_site_symmetry_2
_ccdc_geom_bond_type
C0 O1 1.160 . S
C0 O7 1.185 1_554 S
O1 C0 1.160 . S
O2 Zn3 1.899 . S
O2 C10 1.284 . S
Zn3 O2 1.899 . S
Zn3 O4 2.032 1_554 S
Zn3 O7 2.086 1_554 S
Zn3 O12 1.977 1_554 S
O4 Zn3 2.032 1_556 S
O4 C8 1.278 . S
C5 O6 1.203 . S
C5 O12 1.267 1_554 S
O6 C5 1.203 . S
O7 C0 1.185 1_556 S
O7 Zn3 2.086 1_556 S
C8 O4 1.278 . S
C8 O9 1.211 . S
O9 C8 1.211 . S
C10 O2 1.284 . S
C10 O11 1.273 . S
O11 C10 1.273 . S
O12 Zn3 1.977 1_556 S
O12 C5 1.267 1_556 S
C13 O14 1.160 . S
C13 O20 1.185 1_554 S
O14 C13 1.160 . S
O15 Zn16 1.899 . S
O15 C23 1.284 . S
Zn16 O15 1.899 . S
Zn16 O17 2.032 1_554 S
Zn16 O20 2.086 1_554 S
Zn16 O25 1.977 1_554 S
O17 Zn16 2.032 1_556 S
O17 C21 1.278 . S
C18 O19 1.203 . S
C18 O25 1.267 1_554 S
O19 C18 1.203 . S
O20 C13 1.185 1_556 S
O20 Zn16 2.086 1_556 S
C21 O17 1.278 . S
C21 O22 1.211 . S
O22 C21 1.211 . S
C23 O15 1.284 . S
C23 O24 1.273 . S
O24 C23 1.273 . S
O25 Zn16 1.977 1_556 S
O25 C18 1.267 1_556 S
C26 O27 1.160 . S
C26 O33 1.185 1_554 S
O27 C26 1.160 . S
O28 Zn29 1.899 . S
O28 C36 1.284 . S
Zn29 O28 1.899 . S
Zn29 O30 2.032 1_554 S
Zn29 O33 2.086 1_554 S
Zn29 O38 1.977 1_554 S
O30 Zn29 2.032 1_556 S
O30 C34 1.278 . S
C31 O32 1.203 . S
C31 O38 1.267 1_554 S
O32 C31 1.203 . S
O33 C26 1.185 1_556 S
O33 Zn29 2.086 1_556 S
C34 O30 1.278 . S
C34 O35 1.211 . S
O35 C34 1.211 . S
C36 O28 1.284 . S
C36 O37 1.273 . S
O37 C36 1.273 . S
O38 Zn29 1.977 1_556 S
O38 C31 1.267 1_556 S
C39 O40 1.160 . S
C39 O46 1.185 1_554 S
O40 C39 1.160 . S
O41 Zn42 1.899 . S
O41 C49 1.284 . S
Zn42 O41 1.899 . S
Zn42 O43 2.032 1_554 S
Zn42 O46 2.086 1_554 S
Zn42 O51 1.977 1_554 S
O43 Zn42 2.032 1_556 S
O43 C47 1.278 . S
C44 O45 1.203 . S
C44 O51 1.267 1_554 S
O45 C44 1.203 . S
O46 C39 1.185 1_556 S
O46 Zn42 2.086 1_556 S
C47 O43 1.278 . S
C47 O48 1.211 . S
O48 C47 1.211 . S
C49 O41 1.284 . S
C49 O50 1.273 . S
O50 C49 1.273 . S
O51 Zn42 1.977 1_556 S
O51 C44 1.267 1_556 S
C52 O53 1.160 . S
C52 O59 1.185 1_556 S
O53 C52 1.160 . S
O54 Zn55 1.899 . S
O54 C62 1.284 . S
Zn55 O54 1.899 . S
Zn55 O56 2.032 1_556 S
Zn55 O59 2.086 1_556 S
Zn55 O64 1.977 1_556 S
O56 Zn55 2.032 1_554 S
O56 C60 1.278 . S
C57 O58 1.203 . S
C57 O64 1.267 1_556 S
O58 C57 1.203 . S
O59 C52 1.185 1_554 S
O59 Zn55 2.086 1_554 S
C60 O56 1.278 . S
C60 O61 1.211 . S
O61 C60 1.211 . S
C62 O54 1.284 . S
C62 O63 1.273 . S
O63 C62 1.273 . S
O64 Zn55 1.977 1_554 S
O64 C57 1.267 1_554 S
C65 O66 1.160 . S
C65 O72 1.185 1_556 S
O66 C65 1.160 . S
O67 Zn68 1.899 . S
O67 C75 1.284 . S
Zn68 O67 1.899 . S
Zn68 O69 2.032 1_556 S
Zn68 O72 2.086 1_556 S
Zn68 O77 1.977 1_556 S
O69 Zn68 2.032 1_554 S
O69 C73 1.278 . S
C70 O71 1.203 . S
C70 O77 1.267 1_556 S
O71 C70 1.203 . S
O72 C65 1.185 1_554 S
O72 Zn68 2.086 1_554 S
C73 O69 1.278 . S
C73 O74 1.211 . S
O74 C73 1.211 . S
C75 O67 1.284 . S
C75 O76 1.273 . S
O76 C75 1.273 . S
O77 Zn68 1.977 1_554 S
O77 C70 1.267 1_554 S
C78 O79 1.160 . S
C78 O85 1.185 1_556 S
O79 C78 1.160 . S
O80 Zn81 1.899 . S
O80 C88 1.284 . S
Zn81 O80 1.899 . S
Zn81 O82 2.032 1_556 S
Zn81 O85 2.086 1_556 S
Zn81 O90 1.977 1_556 S
O82 Zn81 2.032 1_554 S
O82 C86 1.278 . S
C83 O84 1.203 . S
C83 O90 1.267 1_556 S
O84 C83 1.203 . S
O85 C78 1.185 1_554 S
O85 Zn81 2.086 1_554 S
C86 O82 1.278 . S
C86 O87 1.211 . S
O87 C86 1.211 . S
C88 O80 1.284 . S
C88 O89 1.273 . S
O89 C88 1.273 . S
O90 Zn81 1.977 1_554 S
O90 C83 1.267 1_554 S
C91 O92 1.160 . S
C91 O98 1.185 1_556 S
O92 C91 1.160 . S
O93 Zn94 1.899 . S
O93 C101 1.284 . S
Zn94 O93 1.899 . S
Zn94 O95 2.032 1_556 S
Zn94 O98 2.086 1_556 S
Zn94 O103 1.977 1_556 S
O95 Zn94 2.032 1_554 S
O95 C99 1.278 . S
C96 O97 1.203 . S
C96 O103 1.267 1_556 S
O97 C96 1.203 . S
O98 C91 1.185 1_554 S
O98 Zn94 2.086 1_554 S
C99 O95 1.278 . S
C99 O100 1.211 . S
O100 C99 1.211 . S
C101 O93 1.284 . S
C101 O102 1.273 . S
O102 C101 1.273 . S
O103 Zn94 1.977 1_554 S
O103 C96 1.267 1_554 S
C104 O105 1.160 . S
C104 O111 1.185 . S
O105 C104 1.160 . S
O106 Zn107 1.899 . S
O106 C114 1.284 . S
Zn107 O106 1.899 . S
Zn107 O108 2.032 . S
Zn107 O111 2.086 . S
Zn107 O116 1.977 . S
O108 Zn107 2.032 . S
O108 C112 1.278 . S
C109 O110 1.203 . S
C109 O116 1.267 . S
O110 C109 1.203 . S
O111 C104 1.185 . S
O111 Zn107 2.086 . S
C112 O108 1.278 . S
C112 O113 1.211 . S
O113 C112 1.211 . S
C114 O106 1.284 . S
C114 O115 1.273 . S
O115 C114 1.273 . S
O116 Zn107 1.977 . S
O116 C109 1.267 . S
C117 O118 1.160 . S
C117 O124 1.185 . S
O118 C117 1.160 . S
O119 Zn120 1.899 . S
O119 C127 1.284 . S
Zn120 O119 1.899 . S
Zn120 O121 2.032 . S
Zn120 O124 2.086 . S
Zn120 O129 1.977 . S
O121 Zn120 2.032 . S
O121 C125 1.278 . S
C122 O123 1.203 . S
C122 O129 1.267 . S
O123 C122 1.203 . S
O124 C117 1.185 . S
O124 Zn120 2.086 . S
C125 O121 1.278 . S
C125 O126 1.211 . S
O126 C125 1.211 . S
C127 O119 1.284 . S
C127 O128 1.273 . S
O128 C127 1.273 . S
O129 Zn120 1.977 . S
O129 C122 1.267 . S
C130 O131 1.160 . S
C130 O137 1.185 . S
O131 C130 1.160 . S
O132 Zn133 1.899 . S
O132 C140 1.284 . S
Zn133 O132 1.899 . S
Zn133 O134 2.032 . S
Zn133 O137 2.086 . S
Zn133 O142 1.977 . S
O134 Zn133 2.032 . S
O134 C138 1.278 . S
C135 O136 1.203 . S
C135 O142 1.267 . S
O136 C135 1.203 . S
O137 C130 1.185 . S
O137 Zn133 2.086 . S
C138 O134 1.278 . S
C138 O139 1.211 . S
O139 C138 1.211 . S
C140 O132 1.284 . S
C140 O141 1.273 . S
O141 C140 1.273 . S
O142 Zn133 1.977 . S
O142 C135 1.267 . S
C143 O144 1.160 . S
C143 O150 1.185 . S
O144 C143 1.160 . S
O145 Zn146 1.899 . S
O145 C153 1.284 . S
Zn146 O145 1.899 . S
Zn146 O147 2.032 . S
Zn146 O150 2.086 . S
Zn146 O155 1.977 . S
O147 Zn146 2.032 . S
O147 C151 1.278 . S
C148 O149 1.203 . S
C148 O155 1.267 . S
O149 C148 1.203 . S
O150 C143 1.185 . S
O150 Zn146 2.086 . S
C151 O147 1.278 . S
C151 O152 1.211 . S
O152 C151 1.211 . S
C153 O145 1.284 . S
C153 O154 1.273 . S
O154 C153 1.273 . S
O155 Zn146 1.977 . S
O155 C148 1.267 . S
C156 O157 1.160 . S
C156 O163 1.185 . S
O157 C156 1.160 . S
O158 Zn159 1.899 . S
O158 C166 1.284 . S
Zn159 O158 1.899 . S
Zn159 O160 2.032 . S
Zn159 O163 2.086 . S
Zn159 O168 1.977 . S
O160 Zn159 2.032 . S
O160 C164 1.278 . S
C161 O162 1.203 . S
C161 O168 1.267 . S
O162 C161 1.203 . S
O163 C156 1.185 . S
O163 Zn159 2.086 . S
C164 O160 1.278 . S
C164 O165 1.211 . S
O165 C164 1.211 . S
C166 O158 1.284 . S
C166 O167 1.273 . S
O167 C166 1.273 . S
O168 Zn159 1.977 . S
O168 C161 1.267 . S
C169 O170 1.160 . S
C169 O176 1.185 . S
O170 C169 1.160 . S
O171 Zn172 1.899 . S
O171 C179 1.284 . S
Zn172 O171 1.899 . S
Zn172 O173 2.032 . S
Zn172 O176 2.086 . S
Zn172 O181 1.977 . S
O173 Zn172 2.032 . S
O173 C177 1.278 . S
C174 O175 1.203 . S
C174 O181 1.267 . S
O175 C174 1.203 . S
O176 C169 1.185 . S
O176 Zn172 2.086 . S
C177 O173 1.278 . S
C177 O178 1.211 . S
O178 C177 1.211 . S
C179 O171 1.284 . S
C179 O180 1.273 . S
O180 C179 1.273 . S
O181 Zn172 1.977 . S
O181 C174 1.267 . S
C182 O183 1.160 . S
C182 O189 1.185 . S
O183 C182 1.160 . S
O184 Zn185 1.899 . S
O184 C192 1.284 . S
Zn185 O184 1.899 . S
Zn185 O186 2.032 . S
Zn185 O189 2.086 . S
Zn185 O194 1.977 . S
O186 Zn185 2.032 . S
O186 C190 1.278 . S
C187 O188 1.203 . S
C187 O194 1.267 . S
O188 C187 1.203 . S
O189 C182 1.185 . S
O189 Zn185 2.086 . S
C190 O186 1.278 . S
C190 O191 1.211 . S
O191 C190 1.211 . S
C192 O184 1.284 . S
C192 O193 1.273 . S
O193 C192 1.273 . S
O194 Zn185 1.977 . S
O194 C187 1.267 . S
C195 O196 1.160 . S
C195 O202 1.185 . S
O196 C195 1.160 . S
O197 Zn198 1.899 . S
O197 C205 1.284 . S
Zn198 O197 1.899 . S
Zn198 O199 2.032 . S
Zn198 O202 2.086 . S
Zn198 O207 1.977 . S
O199 Zn198 2.032 . S
O199 C203 1.278 . S
C200 O201 1.203 . S
C200 O207 1.267 . S
O201 C200 1.203 . S
O202 C195 1.185 . S
O202 Zn198 2.086 . S
C203 O199 1.278 . S
C203 O204 1.211 . S
O204 C203 1.211 . S
C205 O197 1.284 . S
C205 O206 1.273 . S
O206 C205 1.273 . S
O207 Zn198 1.977 . S
O207 C200 1.267 . S
C208 C209 1.170 . S
C208 C210 1.380 . S
C209 C208 1.170 . S
C210 C208 1.380 . S
C210 C211 1.170 1_554 S
C211 C210 1.170 1_556 S
C212 C213 1.170 . S
C212 C214 1.380 . S
C213 C212 1.170 . S
C214 C212 1.380 . S
C214 C215 1.170 1_554 S
C215 C214 1.170 1_556 S
C216 C217 1.171 . S
C216 C218 1.380 1_554 S
C217 C216 1.171 . S
C218 C216 1.380 1_556 S
C218 C219 1.170 . S
C219 C218 1.170 . S
C220 C221 1.170 . S
C220 C222 1.380 . S
C221 C220 1.170 . S
C222 C220 1.380 . S
C222 C223 1.170 . S
C223 C222 1.170 . S
C224 C225 1.170 . S
C224 C226 1.380 1_545 S
C225 C224 1.170 . S
C226 C224 1.380 1_565 S
C226 C227 1.170 . S
C227 C226 1.170 . S
C228 C229 1.170 . S
C228 C230 1.380 1_655 S
C229 C228 1.170 . S
C230 C228 1.380 1_455 S
C230 C231 1.170 . S
C231 C230 1.170 . S
C232 C233 1.170 . S
C232 C234 1.380 1_545 S
C233 C232 1.170 . S
C234 C232 1.380 1_565 S
C234 C235 1.170 . S
C235 C234 1.170 . S
C236 C237 1.170 . S
C236 C238 1.380 1_455 S
C237 C236 1.170 . S
C238 C236 1.380 1_655 S
C238 C239 1.170 . S
C239 C238 1.170 . S
C240 C241 1.170 . S
C240 C242 1.380 . S
C241 C240 1.170 . S
C242 C240 1.380 . S
C242 C243 1.170 . S
C243 C242 1.170 . S
C244 C245 1.170 . S
C244 C246 1.380 . S
C245 C244 1.170 . S
C246 C244 1.380 . S
C246 C247 1.170 1_556 S
C247 C246 1.170 1_554 S
C248 C249 1.170 . S
C248 C250 1.380 . S
C249 C248 1.170 . S
C250 C248 1.380 . S
C250 C251 1.170 . S
C251 C250 1.170 . S
C252 C253 1.170 . S
C252 C254 1.380 . S
C253 C252 1.170 . S
C254 C252 1.380 . S
C254 C255 1.170 . S
C255 C254 1.170 . S
C256 C257 1.170 . S
C256 C258 1.380 . S
C257 C256 1.170 . S
C258 C256 1.380 . S
C258 C259 1.170 . S
C259 C258 1.170 . S
C260 C261 1.170 . S
C260 C262 1.380 . S
C261 C260 1.170 . S
C262 C260 1.380 . S
C262 C263 1.170 . S
C263 C262 1.170 . S
C264 C265 1.170 . S
C264 C266 1.380 . S
C265 C264 1.170 . S
C266 C264 1.380 . S
C266 C267 1.170 . S
C267 C266 1.170 . S
C268 C269 1.170 . S
C268 C270 1.380 . S
C269 C268 1.170 . S
C270 C268 1.380 . S
C270 C271 1.170 . S
C271 C270 1.170 . S
C272 C273 1.170 . S
C272 C274 1.380 . S
C273 C272 1.170 . S
C274 C272 1.380 . S
C274 C275 1.170 . S
C275 C274 1.170 . S
C276 C277 1.170 . S
C276 C278 1.380 . S
C277 C276 1.170 . S
C278 C276 1.380 . S
C278 C279 1.170 . S
C279 C278 1.170 . S
C280 C281 1.170 . S
C280 C282 1.380 . S
C281 C280 1.170 . S
C282 C280 1.380 . S
C282 C283 1.170 . S
C283 C282 1.170 . S
C284 C285 1.170 . S
C284 C286 1.380 . S
C285 C284 1.170 . S
C286 C284 1.380 . S
C286 C287 1.170 . S
C287 C286 1.170 . S
C288 C289 1.170 . S
C288 C290 1.380 . S
C289 C288 1.170 . S
C290 C288 1.380 . S
C290 C291 1.170 . S
C291 C290 1.170 . S
C292 C293 1.170 . S
C292 C294 1.380 . S
C293 C292 1.170 . S
C294 C292 1.380 . S
C294 C295 1.170 . S
C295 C294 1.170 . S
C296 C297 1.170 . S
C296 C298 1.380 . S
C297 C296 1.170 . S
C298 C296 1.380 . S
C298 C299 1.170 . S
C299 C298 1.170 . S
C300 C301 1.170 . S
C300 C302 1.380 . S
C301 C300 1.170 . S
C302 C300 1.380 . S
C302 C303 1.170 . S
C303 C302 1.170 . S
C304 C305 1.170 . S
C304 C306 1.380 . S
C305 C304 1.170 . S
C306 C304 1.380 . S
C306 C307 1.170 . S
C307 C306 1.170 . S
C308 C309 1.170 . S
C308 C310 1.380 . S
C309 C308 1.170 . S
C310 C308 1.380 . S
C310 C311 1.170 . S
C311 C310 1.170 . S
C312 C313 1.170 . S
C312 C314 1.380 . S
C313 C312 1.170 . S
C314 C312 1.380 . S
C314 C315 1.170 . S
C315 C314 1.170 . S
C316 C317 1.170 . S
C316 C318 1.380 . S
C317 C316 1.170 . S
C318 C316 1.380 . S
C318 C319 1.170 . S
C319 C318 1.170 . S
C320 C321 1.170 . S
C320 C322 1.380 . S
C321 C320 1.170 . S
C322 C320 1.380 . S
C322 C323 1.170 . S
C323 C322 1.170 . S
C324 C325 1.170 . S
C324 C326 1.380 . S
C325 C324 1.170 . S
C326 C324 1.380 . S
C326 C327 1.170 . S
C327 C326 1.170 . S
C328 C329 1.170 . S
C328 C330 1.380 . S
C329 C328 1.170 . S
C330 C328 1.380 . S
C330 C331 1.170 . S
C331 C330 1.170 . S
C332 C333 1.170 . S
C332 C334 1.380 . S
C333 C332 1.170 . S
C334 C332 1.380 . S
C334 C335 1.170 . S
C335 C334 1.170 . S
C209 C52 1.245 1_554 S
C211 C0 1.218 1_556 S
C213 C65 1.244 1_554 S
C215 C13 1.217 1_556 S
C217 C78 1.205 1_554 S
C219 C26 1.218 1_556 S
C221 C91 1.223 1_554 S
C223 C39 1.204 . S
C225 C156 1.247 . S
C227 C104 1.227 . S
C229 C169 1.224 . S
C231 C117 1.247 . S
C233 C130 1.204 . S
C235 C182 1.228 . S
C237 C195 1.227 . S
C239 C143 1.204 . S
C241 C5 1.323 . S
C243 C70 1.344 1_554 S
C245 C83 1.326 . S
C247 C18 1.345 . S
C249 C31 1.303 . S
C251 C96 1.320 1_554 S
C253 C57 1.338 1_554 S
C255 C44 1.315 . S
C257 C174 1.317 . S
C259 C109 1.340 . S
C261 C187 1.346 . S
C263 C122 1.342 . S
C265 C135 1.316 . S
C267 C200 1.302 . S
C269 C148 1.347 . S
C271 C161 1.333 . S
C273 C205 1.437 . S
C275 C10 1.428 . S
C277 C166 1.425 . S
C279 C23 1.438 . S
C281 C179 1.430 . S
C283 C36 1.433 . S
C285 C192 1.440 . S
C287 C49 1.423 . S
C289 C127 1.434 . S
C291 C62 1.428 . S
C293 C140 1.441 . S
C295 C75 1.423 . S
C297 C88 1.428 . S
C299 C153 1.436 . S
C301 C101 1.428 . S
C303 C114 1.434 . S
C305 C177 1.457 . S
C307 C34 1.468 . S
C309 C190 1.437 . S
C311 C47 1.446 . S
C313 C203 1.471 . S
C315 C8 1.460 . S
C317 C21 1.444 . S
C319 C164 1.456 . S
C321 C151 1.455 . S
C323 C86 1.443 . S
C325 C99 1.460 . S
C327 C112 1.448 . S
C329 C125 1.460 . S
C331 C60 1.448 . S
C333 C138 1.475 . S
C335 C73 1.468 . S
