# Generated by pormake.
# Topology zfc, (5)-cn, num edge types: 1
# Building blocks:
#     Node 0, Type 0, BuildingBlock: XOMCOT_clean_sbu_1, # of connection points: 5
#     Node 1, Type 0, BuildingBlock: XOMCOT_clean_sbu_1, # of connection points: 5
#     Node 2, Type 0, BuildingBlock: XOMCOT_clean_sbu_1, # of connection points: 5
#     Node 3, Type 0, BuildingBlock: XOMCOT_clean_sbu_1, # of connection points: 5
#     Node 4, Type 0, BuildingBlock: XOMCOT_clean_sbu_1, # of connection points: 5
#     Node 5, Type 0, BuildingBlock: XOMCOT_clean_sbu_1, # of connection points: 5
#     Node 6, Type 0, BuildingBlock: XOMCOT_clean_sbu_1, # of connection points: 5
#     Node 7, Type 0, BuildingBlock: XOMCOT_clean_sbu_1, # of connection points: 5
#     Node 8, Type 0, BuildingBlock: XOMCOT_clean_sbu_1, # of connection points: 5
#     Node 9, Type 0, BuildingBlock: XOMCOT_clean_sbu_1, # of connection points: 5
#     Node 10, Type 0, BuildingBlock: XOMCOT_clean_sbu_1, # of connection points: 5
#     Node 11, Type 0, BuildingBlock: XOMCOT_clean_sbu_1, # of connection points: 5
#     Node 12, Type 0, BuildingBlock: XOMCOT_clean_sbu_1, # of connection points: 5
#     Node 13, Type 0, BuildingBlock: XOMCOT_clean_sbu_1, # of connection points: 5
#     Node 14, Type 0, BuildingBlock: XOMCOT_clean_sbu_1, # of connection points: 5
#     Node 15, Type 0, BuildingBlock: XOMCOT_clean_sbu_1, # of connection points: 5
#     Edge 16, Type (0, 0), BuildingBlock: CIFDUS_clean_linker_0, # of connection points: 2
#     Edge 17, Type (0, 0), BuildingBlock: CIFDUS_clean_linker_0, # of connection points: 2
#     Edge 18, Type (0, 0), BuildingBlock: CIFDUS_clean_linker_0, # of connection points: 2
#     Edge 19, Type (0, 0), BuildingBlock: CIFDUS_clean_linker_0, # of connection points: 2
#     Edge 20, Type (0, 0), BuildingBlock: CIFDUS_clean_linker_0, # of connection points: 2
#     Edge 21, Type (0, 0), BuildingBlock: CIFDUS_clean_linker_0, # of connection points: 2
#     Edge 22, Type (0, 0), BuildingBlock: CIFDUS_clean_linker_0, # of connection points: 2
#     Edge 23, Type (0, 0), BuildingBlock: CIFDUS_clean_linker_0, # of connection points: 2
#     Edge 24, Type (0, 0), BuildingBlock: CIFDUS_clean_linker_0, # of connection points: 2
#     Edge 25, Type (0, 0), BuildingBlock: CIFDUS_clean_linker_0, # of connection points: 2
#     Edge 26, Type (0, 0), BuildingBlock: CIFDUS_clean_linker_0, # of connection points: 2
#     Edge 27, Type (0, 0), BuildingBlock: CIFDUS_clean_linker_0, # of connection points: 2
#     Edge 28, Type (0, 0), BuildingBlock: CIFDUS_clean_linker_0, # of connection points: 2
#     Edge 29, Type (0, 0), BuildingBlock: CIFDUS_clean_linker_0, # of connection points: 2
#     Edge 30, Type (0, 0), BuildingBlock: CIFDUS_clean_linker_0, # of connection points: 2
#     Edge 31, Type (0, 0), BuildingBlock: CIFDUS_clean_linker_0, # of connection points: 2
#     Edge 32, Type (0, 0), BuildingBlock: CIFDUS_clean_linker_0, # of connection points: 2
#     Edge 33, Type (0, 0), BuildingBlock: CIFDUS_clean_linker_0, # of connection points: 2
#     Edge 34, Type (0, 0), BuildingBlock: CIFDUS_clean_linker_0, # of connection points: 2
#     Edge 35, Type (0, 0), BuildingBlock: CIFDUS_clean_linker_0, # of connection points: 2
#     Edge 36, Type (0, 0), BuildingBlock: CIFDUS_clean_linker_0, # of connection points: 2
#     Edge 37, Type (0, 0), BuildingBlock: CIFDUS_clean_linker_0, # of connection points: 2
#     Edge 38, Type (0, 0), BuildingBlock: CIFDUS_clean_linker_0, # of connection points: 2
#     Edge 39, Type (0, 0), BuildingBlock: CIFDUS_clean_linker_0, # of connection points: 2
#     Edge 40, Type (0, 0), BuildingBlock: CIFDUS_clean_linker_0, # of connection points: 2
#     Edge 41, Type (0, 0), BuildingBlock: CIFDUS_clean_linker_0, # of connection points: 2
#     Edge 42, Type (0, 0), BuildingBlock: CIFDUS_clean_linker_0, # of connection points: 2
#     Edge 43, Type (0, 0), BuildingBlock: CIFDUS_clean_linker_0, # of connection points: 2
#     Edge 44, Type (0, 0), BuildingBlock: CIFDUS_clean_linker_0, # of connection points: 2
#     Edge 45, Type (0, 0), BuildingBlock: CIFDUS_clean_linker_0, # of connection points: 2
#     Edge 46, Type (0, 0), BuildingBlock: CIFDUS_clean_linker_0, # of connection points: 2
#     Edge 47, Type (0, 0), BuildingBlock: CIFDUS_clean_linker_0, # of connection points: 2
#     Edge 48, Type (0, 0), BuildingBlock: CIFDUS_clean_linker_0, # of connection points: 2
#     Edge 49, Type (0, 0), BuildingBlock: CIFDUS_clean_linker_0, # of connection points: 2
#     Edge 50, Type (0, 0), BuildingBlock: CIFDUS_clean_linker_0, # of connection points: 2
#     Edge 51, Type (0, 0), BuildingBlock: CIFDUS_clean_linker_0, # of connection points: 2
#     Edge 52, Type (0, 0), BuildingBlock: CIFDUS_clean_linker_0, # of connection points: 2
#     Edge 53, Type (0, 0), BuildingBlock: CIFDUS_clean_linker_0, # of connection points: 2
#     Edge 54, Type (0, 0), BuildingBlock: CIFDUS_clean_linker_0, # of connection points: 2
#     Edge 55, Type (0, 0), BuildingBlock: CIFDUS_clean_linker_0, # of connection points: 2
# Relax obj value: 0.152
# Max RMSD: 0.157
# Mean RMSD: 0.157
data_MOF--net-zfc--node1-XOMCOT_clean_sbu_1--edge1-CIFDUS_clean_linker_0
_symmetry_space_group_name_H-M    P1
_symmetry_Int_Tables_number       1
_symmetry_cell_setting            triclinic
loop_
_symmetry_equiv_pos_as_xyz
'x, y, z'
_cell_length_a     66.643793
_cell_length_b     66.690476
_cell_length_c     15.637869
_cell_angle_alpha  90.05838
_cell_angle_beta   90.096779
_cell_angle_gamma 90.084337
loop_
_atom_site_label
_atom_site_type_symbol
_atom_site_fract_x
_atom_site_fract_y
_atom_site_fract_z
_atom_type_partial_charge
C0 C 0.24577 0.09559 0.21087 0.0
C1 C 0.24584 0.09425 0.29879 0.0
N2 N 0.26502 0.09248 0.32553 0.0
N3 N 0.26485 0.09492 0.18253 0.0
C4 C 0.27608 0.09242 0.25345 0.0
H5 H 0.23271 0.09774 0.17098 0.0
Co6 Co 0.2753 0.09898 0.07406 0.0
C7 C 0.31111 0.12669 0.11168 0.0
O8 O 0.31335 0.13404 0.03443 0.0
N9 N 0.28606 0.1025 0.96446 0.0
C10 C 0.30576 0.09736 0.85171 0.0
C11 C 0.30502 0.09837 0.93955 0.0
C12 C 0.27561 0.10371 0.89068 0.0
N13 N 0.28712 0.10048 0.82132 0.0
O14 O 0.28965 0.07414 0.08435 0.0
H15 H 0.31718 0.09467 0.98261 0.0
H16 H 0.25958 0.1054 0.88745 0.0
O17 O 0.29736 0.11383 0.12702 0.0
C18 C 0.28255 0.0603 0.03678 0.0
O19 O 0.26741 0.06442 0.98588 0.0
N20 N 0.25954 0.12224 0.06276 0.0
C21 C 0.22999 0.1518 0.04647 0.0
C22 C 0.24826 0.15596 0.08812 0.0
C23 C 0.26283 0.14092 0.09607 0.0
C24 C 0.24176 0.11792 0.02387 0.0
C25 C 0.22707 0.13248 0.01316 0.0
H26 H 0.27622 0.14427 0.13191 0.0
H27 H 0.23881 0.10277 1.00244 0.0
H28 H 0.29223 0.09111 0.25201 0.0
H29 H 0.23282 0.09558 0.33964 0.0
H30 H 0.31863 0.09304 0.81387 0.0
H31 H 0.25102 0.17046 0.11704 0.0
H32 H 0.21341 0.12843 0.97976 0.0
C33 C 0.90163 0.25603 0.17545 0.0
C34 C 0.90288 0.25603 0.26341 0.0
N35 N 0.90544 0.27512 0.29005 0.0
N36 N 0.90317 0.27506 0.14731 0.0
C37 C 0.90597 0.28619 0.21816 0.0
H38 H 0.89905 0.2431 0.1352 0.0
Co39 Co 0.90036 0.28536 0.03859 0.0
C40 C 0.87308 0.32104 0.06441 0.0
O41 O 0.8651 0.31984 0.98772 0.0
N42 N 0.89819 0.296 0.92819 0.0
C43 C 0.90435 0.31574 0.81646 0.0
C44 C 0.90296 0.31488 0.90413 0.0
C45 C 0.89706 0.2857 0.8541 0.0
N46 N 0.90086 0.29724 0.78547 0.0
O47 O 0.92591 0.29849 0.05148 0.0
H48 H 0.90662 0.32693 0.94784 0.0
H49 H 0.89489 0.26975 0.84996 0.0
O50 O 0.88655 0.30856 0.08763 0.0
C51 C 0.9401 0.29184 1.00487 0.0
O52 O 0.93632 0.27743 0.94982 0.0
N53 N 0.87616 0.27084 0.02603 0.0
C54 C 0.84438 0.24348 0.00971 0.0
C55 C 0.84213 0.26124 0.05724 0.0
C56 C 0.85825 0.27462 0.06542 0.0
C57 C 0.87885 0.25322 0.98352 0.0
C58 C 0.86311 0.23973 0.97209 0.0
H59 H 0.85643 0.28733 0.10714 0.0
H60 H 0.89361 0.2493 0.96036 0.0
H61 H 0.90801 0.30227 0.21677 0.0
H62 H 0.90109 0.24308 0.30434 0.0
H63 H 0.90903 0.32858 0.77917 0.0
H64 H 0.82831 0.26445 0.09083 0.0
H65 H 0.86585 0.22631 0.93497 0.0
C66 C 0.74963 0.90099 0.19534 0.0
C67 C 0.74967 0.90246 0.28326 0.0
N68 N 0.7308 0.90641 0.3095 0.0
N69 N 0.73077 0.90376 0.1665 0.0
C70 C 0.71986 0.90761 0.23712 0.0
H71 H 0.76237 0.89725 0.15584 0.0
Co72 Co 0.71991 0.90065 0.05797 0.0
C73 C 0.68211 0.87572 0.0965 0.0
O74 O 0.67878 0.86888 0.019 0.0
N75 N 0.70881 0.8981 0.94825 0.0
C76 C 0.68956 0.90469 0.83525 0.0
C77 C 0.69018 0.90349 0.9231 0.0
C78 C 0.7192 0.89636 0.87463 0.0
N79 N 0.70798 0.90042 0.80507 0.0
O80 O 0.70728 0.92642 0.06948 0.0
H81 H 0.67827 0.90791 0.96604 0.0
H82 H 0.73509 0.89368 0.87179 0.0
O83 O 0.69694 0.8874 0.111 0.0
C84 C 0.7143 0.94013 0.02125 0.0
O85 O 0.72872 0.93567 0.96734 0.0
N86 N 0.73383 0.87616 0.0455 0.0
C87 C 0.75888 0.8433 0.01785 0.0
C88 C 0.74096 0.84109 0.06371 0.0
C89 C 0.72861 0.85776 0.07712 0.0
C90 C 0.75181 0.87865 1.00543 0.0
C91 C 0.76434 0.86239 0.98916 0.0
H92 H 0.71526 0.8557 0.11456 0.0
H93 H 0.75648 0.89351 0.98615 0.0
H94 H 0.70393 0.91061 0.23523 0.0
H95 H 0.76242 0.8997 0.32448 0.0
H96 H 0.677 0.90988 0.79734 0.0
H97 H 0.73654 0.8266 0.08875 0.0
H98 H 0.77841 0.86481 0.95612 0.0
C99 C 0.07778 0.75049 0.16624 0.0
C100 C 0.07688 0.75387 0.25315 0.0
N101 N 0.08891 0.74058 0.29333 0.0
N102 N 0.09028 0.7351 0.15051 0.0
C103 C 0.09688 0.72943 0.2292 0.0
H104 H 0.0695 0.75847 0.11748 0.0
Co105 Co 0.09499 0.72442 0.04031 0.0
C106 C 0.12053 0.68857 0.0768 0.0
O107 O 0.13133 0.69186 1.00796 0.0
N108 N 0.09903 0.71349 0.92734 0.0
C109 C 0.0962 0.69143 0.82047 0.0
C110 C 0.09495 0.6942 0.90732 0.0
C111 C 0.10206 0.72229 0.84961 0.0
N112 N 0.1006 0.70911 0.7835 0.0
O113 O 0.06854 0.71287 0.04099 0.0
H114 H 0.09031 0.68292 0.95284 0.0
H115 H 0.1044 0.73815 0.84064 0.0
O116 O 0.10586 0.7002 0.09415 0.0
C117 C 0.05631 0.72072 0.98794 0.0
O118 O 0.06256 0.73546 0.93905 0.0
N119 N 0.12013 0.73737 0.0389 0.0
C120 C 0.15382 0.76241 0.03662 0.0
C121 C 0.15314 0.74565 0.09061 0.0
C122 C 0.13604 0.73345 0.09166 0.0
C123 C 0.12023 0.75414 0.98926 0.0
C124 C 0.13705 0.7666 0.98554 0.0
H125 H 0.13547 0.72147 0.13771 0.0
H126 H 0.10683 0.75833 0.95476 0.0
H127 H 0.10744 0.71742 0.23942 0.0
H128 H 0.06755 0.76496 0.28416 0.0
H129 H 0.09293 0.67762 0.78681 0.0
H130 H 0.16556 0.74218 0.13277 0.0
H131 H 0.13659 0.77988 0.94578 0.0
C132 C 0.24591 0.90822 0.82701 0.0
C133 C 0.24267 0.90917 0.74006 0.0
N134 N 0.26055 0.90866 0.69962 0.0
N135 N 0.26574 0.90698 0.84251 0.0
C136 C 0.27428 0.90749 0.76366 0.0
H137 H 0.23447 0.90797 0.87596 0.0
Co138 Co 0.27708 0.90381 0.95257 0.0
C139 C 0.31247 0.87743 0.91965 0.0
O140 O 0.30889 0.86727 0.98998 0.0
N141 N 0.28854 0.90118 0.06559 0.0
C142 C 0.31106 0.9042 0.17098 0.0
C143 C 0.30803 0.90486 0.08399 0.0
C144 C 0.27993 0.89908 0.14421 0.0
N145 N 0.29335 0.90064 0.20928 0.0
O146 O 0.28866 0.93011 0.94398 0.0
H147 H 0.31933 0.90866 0.03714 0.0
H148 H 0.26406 0.89724 0.15468 0.0
O149 O 0.3011 0.89214 0.89961 0.0
C150 C 0.28227 0.94337 0.99594 0.0
O151 O 0.26866 0.9384 0.05279 0.0
N152 N 0.26417 0.87868 0.96059 0.0
C153 C 0.23884 0.84521 0.96517 0.0
C154 C 0.25513 0.84591 0.90861 0.0
C155 C 0.26742 0.86292 0.90626 0.0
C156 C 0.24784 0.87855 0.01288 0.0
C157 C 0.23529 0.86182 0.01787 0.0
H158 H 0.27876 0.86373 0.85729 0.0
H159 H 0.24374 0.892 0.04702 0.0
H160 H 0.29026 0.90717 0.7534 0.0
H161 H 0.22813 0.90964 0.70927 0.0
H162 H 0.32509 0.9071 0.20371 0.0
H163 H 0.25803 0.83366 0.86486 0.0
H164 H 0.22228 0.86235 0.05922 0.0
C165 C 0.09606 0.25637 0.82661 0.0
C166 C 0.09424 0.2564 0.73888 0.0
N167 N 0.0912 0.27546 0.7129 0.0
N168 N 0.09444 0.27534 0.85529 0.0
C169 C 0.09105 0.28648 0.78513 0.0
H170 H 0.09902 0.24345 0.86638 0.0
Co171 Co 0.09725 0.28544 0.96418 0.0
C172 C 0.12586 0.31978 0.94347 0.0
O173 O 0.13396 0.31621 0.0186 0.0
N174 N 0.09931 0.2959 0.07513 0.0
C175 C 0.09298 0.31578 0.18632 0.0
C176 C 0.09488 0.31488 0.09886 0.0
C177 C 0.0998 0.2856 0.14925 0.0
N178 N 0.09586 0.29721 0.21759 0.0
O179 O 0.07177 0.29866 0.9516 0.0
H180 H 0.09174 0.327 0.0549 0.0
H181 H 0.1016 0.26964 0.15347 0.0
O182 O 0.11133 0.30885 0.91691 0.0
C183 C 0.05751 0.29179 0.9973 0.0
O184 O 0.0612 0.27712 0.051 0.0
N185 N 0.12142 0.27081 0.97621 0.0
C186 C 0.15353 0.24397 0.99374 0.0
C187 C 0.15524 0.2611 0.94197 0.0
C188 C 0.13893 0.27416 0.93302 0.0
C189 C 0.11908 0.25352 0.02135 0.0
C190 C 0.13502 0.24036 0.03375 0.0
H191 H 0.14025 0.28627 0.88781 0.0
H192 H 0.10445 0.24951 0.04562 0.0
H193 H 0.08874 0.30251 0.78747 0.0
H194 H 0.09591 0.24349 0.69761 0.0
H195 H 0.0884 0.32874 0.22308 0.0
H196 H 0.16877 0.26404 0.90583 0.0
H197 H 0.13261 0.22732 0.07353 0.0
C198 C 0.75455 0.09118 0.81239 0.0
C199 C 0.75515 0.0895 0.72453 0.0
N200 N 0.73616 0.08802 0.6954 0.0
N201 N 0.73525 0.09112 0.83826 0.0
C202 C 0.72448 0.08869 0.76566 0.0
H203 H 0.76737 0.09297 0.85414 0.0
Co204 Co 0.72483 0.0957 0.94723 0.0
C205 C 0.68975 0.1237 0.90949 0.0
O206 O 0.68909 0.13208 0.98545 0.0
N207 N 0.71414 0.09983 0.05789 0.0
C208 C 0.69388 0.09727 0.17073 0.0
C209 C 0.69504 0.09641 0.08286 0.0
C210 C 0.7243 0.10232 0.13217 0.0
N211 N 0.71239 0.10093 0.20167 0.0
O212 O 0.71035 0.07084 0.93901 0.0
H213 H 0.68287 0.0925 0.04008 0.0
H214 H 0.74039 0.10343 0.13646 0.0
O215 O 0.70269 0.11012 0.89333 0.0
C216 C 0.71629 0.05706 0.98945 0.0
O217 O 0.73074 0.06101 0.04423 0.0
N218 N 0.74062 0.11909 0.95599 0.0
C219 C 0.76981 0.14918 0.96982 0.0
C220 C 0.75195 0.15252 0.92407 0.0
C221 C 0.73759 0.13721 0.91723 0.0
C222 C 0.75813 0.11545 0.99803 0.0
C223 C 0.77262 0.13033 1.0077 0.0
H224 H 0.72463 0.13984 0.87768 0.0
H225 H 0.76107 0.10061 0.02284 0.0
H226 H 0.70826 0.08832 0.76389 0.0
H227 H 0.76848 0.08969 0.68513 0.0
H228 H 0.68057 0.09471 0.20872 0.0
H229 H 0.74936 0.16655 0.89109 0.0
H230 H 0.78603 0.12688 0.04391 0.0
C231 C 0.90322 0.74954 0.86124 0.0
C232 C 0.90483 0.75018 0.77343 0.0
N233 N 0.90767 0.73133 0.74468 0.0
N234 N 0.90471 0.73034 0.88734 0.0
C235 C 0.90788 0.71971 0.81515 0.0
H236 H 0.90039 0.76216 0.90291 0.0
Co237 Co 0.90076 0.72003 0.99627 0.0
C238 C 0.87339 0.68507 0.96595 0.0
O239 O 0.86395 0.68849 0.03823 0.0
N240 N 0.89732 0.70937 0.10764 0.0
C241 C 0.90038 0.6889 0.21968 0.0
C242 C 0.90129 0.69032 0.13192 0.0
C243 C 0.89454 0.71924 0.18231 0.0
N244 N 0.89613 0.70718 0.25119 0.0
O245 O 0.9268 0.70772 0.9912 0.0
H246 H 0.90547 0.67837 0.0887 0.0
H247 H 0.89306 0.73525 0.18766 0.0
O248 O 0.88817 0.69623 0.94454 0.0
C249 C 0.93955 0.71586 0.04128 0.0
O250 O 0.93386 0.73089 0.08983 0.0
N251 N 0.87605 0.73384 1.00208 0.0
C252 C 0.84251 0.75845 0.01982 0.0
C253 C 0.84211 0.74213 0.96334 0.0
C254 C 0.8592 0.7301 0.95448 0.0
C255 C 0.87716 0.75085 0.05018 0.0
C256 C 0.86042 0.76298 0.06239 0.0
H257 H 0.85893 0.71832 0.90727 0.0
H258 H 0.89135 0.7553 0.07783 0.0
H259 H 0.90949 0.70358 0.81392 0.0
H260 H 0.90361 0.76341 0.73378 0.0
H261 H 0.90321 0.67558 0.25724 0.0
H262 H 0.82877 0.73877 0.9263 0.0
H263 H 0.86162 0.77614 0.10278 0.0
C264 C 0.76115 0.59574 0.67632 0.0
C265 C 0.76135 0.59396 0.76404 0.0
N266 N 0.78058 0.59218 0.79019 0.0
N267 N 0.7802 0.59538 0.6476 0.0
C268 C 0.79155 0.59269 0.71791 0.0
H269 H 0.74801 0.59782 0.63676 0.0
Co270 Co 0.79038 0.59906 0.53895 0.0
C271 C 0.82382 0.62915 0.56627 0.0
O272 O 0.82204 0.63698 0.48958 0.0
N273 N 0.80096 0.60212 0.42877 0.0
C274 C 0.821 0.59696 0.3172 0.0
C275 C 0.82009 0.59849 0.40485 0.0
C276 C 0.79061 0.60262 0.35462 0.0
N277 N 0.80232 0.59931 0.28597 0.0
O278 O 0.80533 0.57459 0.55179 0.0
H279 H 0.83232 0.5956 0.44867 0.0
H280 H 0.77457 0.60397 0.35062 0.0
O281 O 0.81238 0.61471 0.589 0.0
C282 C 0.79906 0.56005 0.50588 0.0
O283 O 0.78432 0.5632 0.45167 0.0
N284 N 0.77394 0.62188 0.52594 0.0
C285 C 0.74301 0.65006 0.51072 0.0
C286 C 0.7608 0.6548 0.55483 0.0
C287 C 0.77603 0.64039 0.56265 0.0
C288 C 0.75657 0.61697 0.48512 0.0
C289 C 0.74126 0.63089 0.47448 0.0
H290 H 0.78881 0.64395 0.60208 0.0
H291 H 0.75426 0.60176 0.46315 0.0
H292 H 0.8077 0.59145 0.71564 0.0
H293 H 0.74834 0.59481 0.80513 0.0
H294 H 0.8341 0.59291 0.28022 0.0
H295 H 0.76257 0.66914 0.58649 0.0
H296 H 0.72794 0.62637 0.43974 0.0
C297 C 0.40398 0.74358 0.72089 0.0
C298 C 0.40569 0.74339 0.80866 0.0
N299 N 0.41038 0.76209 0.83519 0.0
N300 N 0.40733 0.76236 0.69263 0.0
C301 C 0.41172 0.77309 0.76318 0.0
H302 H 0.39972 0.73104 0.68091 0.0
Co303 Co 0.40451 0.77278 0.5839 0.0
C304 C 0.38079 0.81081 0.61486 0.0
O305 O 0.37209 0.81054 0.53943 0.0
N306 N 0.4025 0.78335 0.47369 0.0
C307 C 0.41008 0.80244 0.36158 0.0
C308 C 0.40844 0.80185 0.44915 0.0
C309 C 0.40107 0.77292 0.4 0.0
N310 N 0.40563 0.7841 0.33098 0.0
O311 O 0.43131 0.78315 0.58982 0.0
H312 H 0.41288 0.81371 0.49249 0.0
H313 H 0.39818 0.75708 0.39673 0.0
O314 O 0.39353 0.79726 0.63465 0.0
C315 C 0.44288 0.77027 0.55552 0.0
O316 O 0.43491 0.75332 0.52896 0.0
N317 N 0.37881 0.7608 0.57625 0.0
C318 C 0.34412 0.73739 0.56437 0.0
C319 C 0.34433 0.75487 0.6142 0.0
C320 C 0.36193 0.76629 0.62008 0.0
C321 C 0.37906 0.74316 0.5322 0.0
C322 C 0.36181 0.73152 0.52342 0.0
H323 H 0.36201 0.77886 0.66321 0.0
H324 H 0.39304 0.73758 0.50674 0.0
H325 H 0.41534 0.78889 0.76156 0.0
H326 H 0.40262 0.7307 0.84964 0.0
H327 H 0.41563 0.81492 0.32425 0.0
H328 H 0.33113 0.75948 0.64935 0.0
H329 H 0.36254 0.71758 0.48794 0.0
C330 C 0.24827 0.40094 0.67521 0.0
C331 C 0.24831 0.40266 0.76295 0.0
N332 N 0.22935 0.40623 0.78908 0.0
N333 N 0.22932 0.40314 0.64659 0.0
C334 C 0.21831 0.40681 0.71687 0.0
H335 H 0.26109 0.39764 0.63545 0.0
Co336 Co 0.21906 0.40051 0.53774 0.0
C337 C 0.18305 0.3739 0.56035 0.0
O338 O 0.18553 0.36562 0.48482 0.0
N339 N 0.20849 0.3986 0.42702 0.0
C340 C 0.18904 0.40572 0.31529 0.0
C341 C 0.1898 0.40407 0.40285 0.0
C342 C 0.21878 0.39722 0.35308 0.0
N343 N 0.20742 0.40163 0.28438 0.0
O344 O 0.20691 0.42649 0.54911 0.0
H345 H 0.17789 0.40809 0.44648 0.0
H346 H 0.23462 0.39444 0.34925 0.0
O347 O 0.19515 0.38756 0.58588 0.0
C348 C 0.21475 0.44018 0.50314 0.0
O349 O 0.22955 0.43554 0.45142 0.0
N350 N 0.23273 0.37583 0.52652 0.0
C351 C 0.25916 0.34334 0.51347 0.0
C352 C 0.24133 0.34173 0.56078 0.0
C353 C 0.22847 0.35825 0.56774 0.0
C354 C 0.25042 0.37786 0.48391 0.0
C355 C 0.2635 0.36176 0.47434 0.0
H356 H 0.21583 0.35702 0.61017 0.0
H357 H 0.25482 0.3924 0.4599 0.0
H358 H 0.20235 0.40959 0.71465 0.0
H359 H 0.26119 0.40054 0.80409 0.0
H360 H 0.17639 0.411 0.27815 0.0
H361 H 0.23776 0.32814 0.59544 0.0
H362 H 0.27712 0.36395 0.43787 0.0
C363 C 0.59342 0.25654 0.67566 0.0
C364 C 0.59242 0.25982 0.76259 0.0
N365 N 0.59344 0.24202 0.80337 0.0
N366 N 0.59519 0.23675 0.66048 0.0
C367 C 0.59495 0.22828 0.73952 0.0
H368 H 0.59338 0.26794 0.62651 0.0
Co369 Co 0.59884 0.22544 0.55052 0.0
C370 C 0.62512 0.18996 0.58691 0.0
O371 O 0.63563 0.19323 0.51723 0.0
N372 N 0.60196 0.21405 0.43768 0.0
C373 C 0.5993 0.19162 0.33192 0.0
C374 C 0.59857 0.19454 0.41895 0.0
C375 C 0.60391 0.22277 0.3592 0.0
N376 N 0.60258 0.20941 0.29388 0.0
O377 O 0.57244 0.21393 0.55554 0.0
H378 H 0.59486 0.18316 0.46554 0.0
H379 H 0.60547 0.23869 0.34907 0.0
O380 O 0.61033 0.20143 0.60473 0.0
C381 C 0.56023 0.22259 0.50477 0.0
O382 O 0.56663 0.23788 0.45938 0.0
N383 N 0.62395 0.23837 0.5443 0.0
C384 C 0.65744 0.26365 0.53595 0.0
C385 C 0.65715 0.24722 0.59197 0.0
C386 C 0.64007 0.23501 0.59661 0.0
C387 C 0.6237 0.25478 0.49259 0.0
C388 C 0.64037 0.26732 0.48587 0.0
H389 H 0.63957 0.22359 0.64529 0.0
H390 H 0.61008 0.25875 0.45924 0.0
H391 H 0.59574 0.21236 0.75015 0.0
H392 H 0.59158 0.27436 0.79312 0.0
H393 H 0.59659 0.1776 0.29895 0.0
H394 H 0.66963 0.24435 0.63467 0.0
H395 H 0.63968 0.28002 0.44287 0.0
C396 C 0.75434 0.41134 0.35444 0.0
C397 C 0.75132 0.41256 0.26749 0.0
N398 N 0.76904 0.40991 0.22737 0.0
N399 N 0.77386 0.40775 0.37029 0.0
C400 C 0.78248 0.40713 0.29161 0.0
H401 H 0.74293 0.41275 0.40316 0.0
Co402 Co 0.78486 0.40424 0.48063 0.0
C403 C 0.81614 0.3728 0.45419 0.0
O404 O 0.81151 0.36429 0.52736 0.0
N405 N 0.7961 0.40123 0.59355 0.0
C406 C 0.81891 0.40195 0.69842 0.0
C407 C 0.81588 0.40292 0.61146 0.0
C408 C 0.7874 0.39995 0.67222 0.0
N409 N 0.80097 0.40016 0.73694 0.0
O410 O 0.80005 0.42848 0.46569 0.0
H411 H 0.82746 0.4053 0.56413 0.0
H412 H 0.77144 0.39942 0.68299 0.0
O413 O 0.8067 0.3885 0.43013 0.0
C414 C 0.79542 0.44313 0.51425 0.0
O415 O 0.78168 0.4405 0.57332 0.0
N416 N 0.76833 0.38155 0.495 0.0
C417 C 0.73769 0.35306 0.51064 0.0
C418 C 0.75426 0.34947 0.45749 0.0
C419 C 0.76921 0.36411 0.44902 0.0
C420 C 0.75201 0.38547 0.54448 0.0
C421 C 0.73678 0.37134 0.55475 0.0
H422 H 0.78075 0.36176 0.40186 0.0
H423 H 0.75029 0.40014 0.57294 0.0
H424 H 0.79836 0.40502 0.28169 0.0
H425 H 0.73698 0.41487 0.23649 0.0
H426 H 0.8332 0.40328 0.73098 0.0
H427 H 0.75513 0.33594 0.41934 0.0
H428 H 0.72414 0.37497 0.59529 0.0
C429 C 0.60048 0.74109 0.32522 0.0
C430 C 0.59875 0.74012 0.23752 0.0
N431 N 0.59361 0.75844 0.20866 0.0
N432 N 0.59677 0.76002 0.35108 0.0
C433 C 0.59223 0.77009 0.27885 0.0
H434 H 0.60464 0.72889 0.36706 0.0
Co435 Co 0.59879 0.77067 0.46074 0.0
C436 C 0.62135 0.80901 0.43051 0.0
O437 O 0.63158 0.80702 0.50192 0.0
N438 N 0.60016 0.78142 0.57188 0.0
C439 C 0.59466 0.80129 0.68421 0.0
C440 C 0.5942 0.79993 0.59632 0.0
C441 C 0.60356 0.77172 0.64633 0.0
N442 N 0.60062 0.78346 0.71535 0.0
O443 O 0.57147 0.77934 0.45412 0.0
H444 H 0.58909 0.8115 0.5531 0.0
H445 H 0.60673 0.75596 0.6513 0.0
O446 O 0.60816 0.79589 0.41051 0.0
C447 C 0.56036 0.76438 0.47186 0.0
O448 O 0.56897 0.74714 0.48933 0.0
N449 N 0.62501 0.7601 0.46871 0.0
C450 C 0.65997 0.73688 0.47917 0.0
C451 C 0.65942 0.75434 0.42879 0.0
C452 C 0.64168 0.7656 0.42338 0.0
C453 C 0.62511 0.74271 0.5141 0.0
C454 C 0.64247 0.73138 0.52301 0.0
H455 H 0.64119 0.77792 0.37891 0.0
H456 H 0.61127 0.73703 0.54048 0.0
H457 H 0.58859 0.78586 0.27742 0.0
H458 H 0.60131 0.72703 0.19806 0.0
H459 H 0.59051 0.81422 0.72207 0.0
H460 H 0.67222 0.75877 0.39069 0.0
H461 H 0.64187 0.71807 0.56246 0.0
C462 C 0.25344 0.59503 0.31175 0.0
C463 C 0.25646 0.59398 0.22469 0.0
N464 N 0.23849 0.59264 0.18512 0.0
N465 N 0.23362 0.59452 0.32825 0.0
C466 C 0.22491 0.59275 0.24984 0.0
H467 H 0.26499 0.59659 0.35995 0.0
Co468 Co 0.22196 0.59733 0.43813 0.0
C469 C 0.18579 0.62324 0.3991 0.0
O470 O 0.18612 0.63254 0.47318 0.0
N471 N 0.21009 0.59962 0.55045 0.0
C472 C 0.18748 0.59607 0.65479 0.0
C473 C 0.19061 0.59575 0.5678 0.0
C474 C 0.21858 0.60151 0.6296 0.0
N475 N 0.20511 0.59963 0.69415 0.0
O476 O 0.21019 0.57121 0.42601 0.0
H477 H 0.17942 0.59204 0.52016 0.0
H478 H 0.23442 0.60346 0.64076 0.0
O479 O 0.19862 0.60953 0.38292 0.0
C480 C 0.21642 0.55766 0.47689 0.0
O481 O 0.22985 0.5623 0.53525 0.0
N482 N 0.23496 0.62231 0.45004 0.0
C483 C 0.25982 0.65592 0.4643 0.0
C484 C 0.24365 0.65582 0.4069 0.0
C485 C 0.23151 0.63877 0.4 0.0
C486 C 0.25124 0.6219 0.50285 0.0
C487 C 0.26354 0.63868 0.51277 0.0
H488 H 0.22014 0.63859 0.35099 0.0
H489 H 0.25535 0.60807 0.53415 0.0
H490 H 0.20889 0.59145 0.24042 0.0
H491 H 0.27087 0.59478 0.1931 0.0
H492 H 0.17342 0.59295 0.68669 0.0
H493 H 0.24071 0.66862 0.36622 0.0
H494 H 0.27647 0.63782 0.55468 0.0
C495 C 0.42509 0.24686 0.36106 0.0
C496 C 0.42624 0.25008 0.2741 0.0
N497 N 0.41282 0.23808 0.23421 0.0
N498 N 0.41104 0.23286 0.37712 0.0
C499 C 0.40376 0.22786 0.29855 0.0
H500 H 0.43428 0.25393 0.40958 0.0
Co501 Co 0.40548 0.22249 0.48721 0.0
C502 C 0.37664 0.18913 0.4473 0.0
O503 O 0.36588 0.19295 0.51576 0.0
N504 N 0.40042 0.21177 0.59984 0.0
C505 C 0.40098 0.18945 0.70615 0.0
C506 C 0.40246 0.19215 0.61928 0.0
C507 C 0.3983 0.22074 0.67782 0.0
N508 N 0.39844 0.20745 0.74365 0.0
O509 O 0.43084 0.20881 0.48583 0.0
H510 H 0.40587 0.18051 0.57339 0.0
H511 H 0.39754 0.23675 0.68714 0.0
O512 O 0.39236 0.19954 0.43228 0.0
C513 C 0.44337 0.21625 0.53887 0.0
O514 O 0.43781 0.23137 0.58713 0.0
N515 N 0.38187 0.23773 0.49009 0.0
C516 C 0.35202 0.26711 0.49684 0.0
C517 C 0.34973 0.25013 0.44442 0.0
C518 C 0.36501 0.23574 0.44081 0.0
C519 C 0.38455 0.25442 0.53885 0.0
C520 C 0.3697 0.269 0.54491 0.0
H521 H 0.36356 0.22368 0.39531 0.0
H522 H 0.3987 0.25677 0.5712 0.0
H523 H 0.39199 0.21697 0.28854 0.0
H524 H 0.43668 0.2601 0.24282 0.0
H525 H 0.40281 0.17535 0.73942 0.0
H526 H 0.33668 0.24842 0.40368 0.0
H527 H 0.3723 0.28184 0.58587 0.0
H528 H 0.30833 0.1063 0.67741 0.0
H529 H 0.25029 0.08768 0.77027 0.0
H530 H 0.23845 0.08316 0.62444 0.0
H531 H 0.24445 0.08453 0.47028 0.0
H532 H 0.30274 0.10272 0.37771 0.0
H533 H 0.31463 0.10672 0.52299 0.0
C534 C 0.29315 0.10113 0.66568 0.0
C535 C 0.28021 0.09765 0.73483 0.0
C536 C 0.28645 0.09829 0.58146 0.0
C537 C 0.26049 0.09102 0.71851 0.0
C538 C 0.25372 0.08821 0.63494 0.0
C539 C 0.25971 0.08946 0.48161 0.0
C540 C 0.27247 0.09349 0.4122 0.0
C541 C 0.26654 0.0919 0.56589 0.0
C542 C 0.29241 0.09944 0.42889 0.0
C543 C 0.2993 0.10185 0.51247 0.0
H544 H 0.89486 0.31866 0.64253 0.0
H545 H 0.91316 0.26044 0.73373 0.0
H546 H 0.91658 0.24852 0.58749 0.0
H547 H 0.91405 0.25446 0.43355 0.0
H548 H 0.89611 0.31289 0.34258 0.0
H549 H 0.89349 0.32495 0.48824 0.0
C550 C 0.89976 0.30343 0.63026 0.0
C551 C 0.90343 0.29043 0.69893 0.0
C552 C 0.90191 0.29669 0.54589 0.0
C553 C 0.90969 0.27066 0.68217 0.0
C554 C 0.91185 0.26385 0.59845 0.0
C555 C 0.90947 0.26979 0.44543 0.0
C556 C 0.90512 0.28257 0.37658 0.0
C557 C 0.90785 0.27669 0.52981 0.0
C558 C 0.89966 0.30259 0.3936 0.0
C559 C 0.89804 0.30956 0.4773 0.0
H560 H 0.75201 0.91236 0.45468 0.0
H561 H 0.6922 0.90017 0.36094 0.0
H562 H 0.67996 0.89729 0.50601 0.0
H563 H 0.68628 0.89688 0.66051 0.0
H564 H 0.74585 0.90984 0.75447 0.0
H565 H 0.75806 0.91323 0.60899 0.0
C566 C 0.73632 0.90899 0.46572 0.0
C567 C 0.72325 0.90625 0.39603 0.0
C568 C 0.72927 0.90726 0.54989 0.0
C569 C 0.70281 0.90237 0.41234 0.0
C570 C 0.6957 0.90061 0.4958 0.0
C571 C 0.70188 0.9006 0.64919 0.0
C572 C 0.71509 0.90277 0.71865 0.0
C573 C 0.70883 0.90284 0.56507 0.0
C574 C 0.73535 0.90751 0.70263 0.0
C575 C 0.74237 0.90967 0.6192 0.0
H576 H 0.10225 0.70774 0.38029 0.0
H577 H 0.08208 0.76863 0.4166 0.0
H578 H 0.08462 0.76467 0.571 0.0
H579 H 0.09122 0.74347 0.69789 0.0
H580 H 0.11206 0.68291 0.66082 0.0
H581 H 0.11082 0.68733 0.50617 0.0
C582 C 0.09863 0.72028 0.4215 0.0
C583 C 0.09174 0.73842 0.38534 0.0
C584 C 0.10019 0.71796 0.51121 0.0
C585 C 0.08703 0.75433 0.44134 0.0
C586 C 0.08859 0.75213 0.53029 0.0
C587 C 0.09577 0.73134 0.65613 0.0
C588 C 0.10155 0.71279 0.69188 0.0
C589 C 0.09495 0.73395 0.56626 0.0
C590 C 0.10721 0.69723 0.63583 0.0
C591 C 0.10657 0.69976 0.54696 0.0
H592 H 0.26027 0.91329 0.29526 0.0
H593 H 0.31865 0.88688 0.33105 0.0
H594 H 0.31395 0.88721 0.486 0.0
H595 H 0.29327 0.89505 0.61254 0.0
H596 H 0.23524 0.92247 0.57643 0.0
H597 H 0.23973 0.92147 0.42211 0.0
C598 C 0.27187 0.90742 0.33689 0.0
C599 C 0.2898 0.90005 0.30093 0.0
C600 C 0.26915 0.90785 0.42665 0.0
C601 C 0.30477 0.8928 0.35654 0.0
C602 C 0.30208 0.89295 0.44543 0.0
C603 C 0.28165 0.90099 0.57126 0.0
C604 C 0.26385 0.90872 0.60751 0.0
C605 C 0.28438 0.90055 0.48149 0.0
C606 C 0.24897 0.91611 0.55161 0.0
C607 C 0.25155 0.91565 0.4627 0.0
H608 H 0.0832 0.25437 0.56935 0.0
H609 H 0.09789 0.31379 0.66012 0.0
H610 H 0.10008 0.32582 0.5145 0.0
H611 H 0.10002 0.31915 0.36072 0.0
H612 H 0.08439 0.26003 0.26949 0.0
H613 H 0.08099 0.24821 0.41554 0.0
C614 C 0.08699 0.26991 0.55757 0.0
C615 C 0.09076 0.28293 0.62642 0.0
C616 C 0.08836 0.27681 0.47318 0.0
C617 C 0.09503 0.30323 0.60926 0.0
C618 C 0.09638 0.3102 0.52555 0.0
C619 C 0.09566 0.30375 0.37274 0.0
C620 C 0.0929 0.29049 0.30405 0.0
C621 C 0.0934 0.29706 0.45704 0.0
C622 C 0.08727 0.27051 0.32087 0.0
C623 C 0.08509 0.26373 0.40458 0.0
H624 H 0.75376 0.1066 0.56235 0.0
H625 H 0.70308 0.06987 0.63159 0.0
H626 H 0.69075 0.07104 0.48426 0.0
H627 H 0.69465 0.0822 0.33536 0.0
H628 H 0.74495 0.11975 0.26755 0.0
H629 H 0.75727 0.11836 0.41429 0.0
C630 C 0.74016 0.09866 0.54491 0.0
C631 C 0.72943 0.08805 0.60771 0.0
C632 C 0.73307 0.09956 0.46031 0.0
C633 C 0.71156 0.07821 0.5845 0.0
C634 C 0.70453 0.07885 0.50027 0.0
C635 C 0.70816 0.09029 0.35272 0.0
C636 C 0.71888 0.10097 0.28992 0.0
C637 C 0.71513 0.08954 0.43762 0.0
C638 C 0.73653 0.11115 0.31393 0.0
C639 C 0.74357 0.11043 0.39805 0.0
H640 H 0.88804 0.74775 0.61167 0.0
H641 H 0.92741 0.6992 0.68132 0.0
H642 H 0.92675 0.68676 0.53416 0.0
H643 H 0.91547 0.69017 0.38495 0.0
H644 H 0.87546 0.73842 0.31691 0.0
H645 H 0.87609 0.75064 0.46384 0.0
C646 C 0.89668 0.73461 0.5944 0.0
C647 C 0.9079 0.72452 0.65719 0.0
C648 C 0.8961 0.72748 0.50992 0.0
C649 C 0.91861 0.70719 0.63421 0.0
C650 C 0.91826 0.7001 0.55007 0.0
C651 C 0.90668 0.70319 0.4024 0.0
C652 C 0.89556 0.71343 0.33955 0.0
C653 C 0.90704 0.71012 0.48734 0.0
C654 C 0.88444 0.73044 0.36347 0.0
C655 C 0.88472 0.73741 0.44764 0.0
H656 H 0.82406 0.60392 0.14248 0.0
H657 H 0.76539 0.58682 0.23399 0.0
H658 H 0.75368 0.58251 0.08813 0.0
H659 H 0.7598 0.58411 0.93442 0.0
H660 H 0.81878 0.60038 0.84306 0.0
H661 H 0.8307 0.60361 0.98854 0.0
C662 C 0.80878 0.59906 0.13059 0.0
C663 C 0.79561 0.59611 0.19941 0.0
C664 C 0.80215 0.59625 0.0463 0.0
C665 C 0.77579 0.58985 0.18263 0.0
C666 C 0.76908 0.58714 0.09898 0.0
C667 C 0.77523 0.58847 0.94592 0.0
C668 C 0.78811 0.59234 0.87681 0.0
C669 C 0.78208 0.59049 0.03029 0.0
C670 C 0.80829 0.59735 0.89392 0.0
C671 C 0.81521 0.59932 0.97765 0.0
H672 H 0.40266 0.8061 0.18772 0.0
H673 H 0.41429 0.74616 0.27906 0.0
H674 H 0.41734 0.73416 0.13291 0.0
H675 H 0.41632 0.74052 0.9789 0.0
H676 H 0.40548 0.80072 0.88827 0.0
H677 H 0.40321 0.81275 0.03391 0.0
C678 C 0.40605 0.79046 0.17571 0.0
C679 C 0.40792 0.77708 0.24446 0.0
C680 C 0.40809 0.78365 0.09139 0.0
C681 C 0.41221 0.75678 0.22763 0.0
C682 C 0.41417 0.74989 0.14389 0.0
C683 C 0.41338 0.75625 0.99079 0.0
C684 C 0.41077 0.7695 0.92187 0.0
C685 C 0.41199 0.76317 0.07524 0.0
C686 C 0.4075 0.78999 0.93912 0.0
C687 C 0.40611 0.79696 0.02287 0.0
H688 H 0.18535 0.39842 0.14112 0.0
H689 H 0.24518 0.41111 0.23279 0.0
H690 H 0.25713 0.41426 0.0868 0.0
H691 H 0.25081 0.41287 0.93301 0.0
H692 H 0.19073 0.40094 0.84179 0.0
H693 H 0.17867 0.39887 0.98729 0.0
C694 C 0.20095 0.40207 0.12919 0.0
C695 C 0.21434 0.40414 0.19796 0.0
C696 C 0.20773 0.40418 0.04495 0.0
C697 C 0.23457 0.40881 0.1813 0.0
C698 C 0.24144 0.41084 0.09766 0.0
C699 C 0.23511 0.4097 0.94462 0.0
C700 C 0.22191 0.40671 0.87562 0.0
C701 C 0.22818 0.40836 0.02896 0.0
C702 C 0.20144 0.40323 0.89268 0.0
C703 C 0.19444 0.40194 0.97636 0.0
H704 H 0.58923 0.24226 0.20802 0.0
H705 H 0.61682 0.18449 0.17198 0.0
H706 H 0.61629 0.18919 0.01704 0.0
H707 H 0.60788 0.20965 0.89059 0.0
H708 H 0.57929 0.26707 0.92672 0.0
H709 H 0.58053 0.26264 0.08109 0.0
C710 C 0.59532 0.23081 0.16634 0.0
C711 C 0.60308 0.21303 0.20224 0.0
C712 C 0.59476 0.23352 0.07653 0.0
C713 C 0.61061 0.19823 0.14655 0.0
C714 C 0.61034 0.20093 0.05766 0.0
C715 C 0.60173 0.22115 0.93185 0.0
C716 C 0.59359 0.23876 0.89557 0.0
C717 C 0.60232 0.21846 0.02164 0.0
C718 C 0.58595 0.25349 0.95152 0.0
C719 C 0.58656 0.25094 0.04047 0.0
H720 H 0.79995 0.39276 0.13956 0.0
H721 H 0.74576 0.42724 0.10522 0.0
H722 H 0.75023 0.42639 0.95099 0.0
H723 H 0.76969 0.41633 0.82374 0.0
H724 H 0.82442 0.38295 0.85727 0.0
H725 H 0.81962 0.383 0.01202 0.0
C726 C 0.78919 0.40026 0.09865 0.0
C727 C 0.77243 0.40993 0.13535 0.0
C728 C 0.79193 0.39991 1.00887 0.0
C729 C 0.75862 0.41935 0.08 0.0
C730 C 0.76121 0.41898 0.99116 0.0
C731 C 0.78046 0.40893 0.86493 0.0
C732 C 0.7974 0.39963 0.82846 0.0
C733 C 0.77776 0.40927 0.95463 0.0
C734 C 0.81135 0.39037 0.88332 0.0
C735 C 0.8086 0.39038 0.97215 0.0
H736 H 0.61454 0.74435 0.07492 0.0
H737 H 0.56959 0.78762 0.14619 0.0
H738 H 0.56815 0.79985 0.9989 0.0
H739 H 0.57948 0.79789 0.84932 0.0
H740 H 0.62502 0.75495 0.77995 0.0
H741 H 0.62625 0.74278 0.92672 0.0
C742 C 0.60425 0.75627 0.05794 0.0
C743 C 0.5921 0.76497 0.12117 0.0
C744 C 0.60363 0.7633 0.97348 0.0
C745 C 0.57916 0.78074 0.09865 0.0
C746 C 0.57831 0.78771 0.01448 0.0
C747 C 0.58983 0.78605 0.86652 0.0
C748 C 0.60203 0.77727 0.80345 0.0
C749 C 0.59053 0.77914 0.95136 0.0
C750 C 0.61522 0.76175 0.82682 0.0
C751 C 0.616 0.75482 0.91085 0.0
H752 H 0.20488 0.60422 0.09821 0.0
H753 H 0.26423 0.57994 0.06194 0.0
H754 H 0.25959 0.58071 0.90749 0.0
H755 H 0.23867 0.5881 0.7806 0.0
H756 H 0.17916 0.61184 0.81655 0.0
H757 H 0.18384 0.61135 0.9715 0.0
C758 C 0.21676 0.59893 0.05685 0.0
C759 C 0.23498 0.59217 0.09306 0.0
C760 C 0.21399 0.59935 0.96698 0.0
C761 C 0.25017 0.58555 0.03707 0.0
C762 C 0.2475 0.5859 0.94812 0.0
C763 C 0.2268 0.59334 0.8222 0.0
C764 C 0.20855 0.59999 0.78611 0.0
C765 C 0.22953 0.59287 0.91206 0.0
C766 C 0.19327 0.60644 0.8419 0.0
C767 C 0.19596 0.60621 0.93088 0.0
H768 H 0.39667 0.20641 0.1473 0.0
H769 H 0.42205 0.26535 0.11095 0.0
H770 H 0.41922 0.26152 0.9565 0.0
H771 H 0.41084 0.2409 0.82961 0.0
H772 H 0.38486 0.18229 0.8665 0.0
H773 H 0.38646 0.18666 0.02116 0.0
C774 C 0.40137 0.21856 0.10602 0.0
C775 C 0.40979 0.23609 0.14219 0.0
C776 C 0.39966 0.21631 0.01624 0.0
C777 C 0.41588 0.25151 0.08617 0.0
C778 C 0.41416 0.24938 0.9972 0.0
C779 C 0.40527 0.22919 0.87129 0.0
C780 C 0.39791 0.21117 0.83541 0.0
C781 C 0.40628 0.23177 0.96119 0.0
C782 C 0.39094 0.19616 0.89148 0.0
C783 C 0.39177 0.19868 0.98039 0.0
H784 H 0.34822 0.14413 0.11183 0.0
H785 H 0.29793 0.13046 0.27498 0.0
H786 H 0.31446 0.14697 0.39501 0.0
H787 H 0.34216 0.16721 0.45161 0.0
H788 H 0.39289 0.18069 0.2902 0.0
H789 H 0.37729 0.16248 0.17212 0.0
C790 C 0.34099 0.14469 0.17386 0.0
C791 C 0.32196 0.13589 0.18462 0.0
C792 C 0.35059 0.15434 0.24293 0.0
C793 C 0.31276 0.1367 0.26538 0.0
C794 C 0.32213 0.14632 0.33399 0.0
C795 C 0.34995 0.166 0.39099 0.0
C796 C 0.36853 0.17568 0.37969 0.0
C797 C 0.34093 0.15539 0.32331 0.0
C798 C 0.37843 0.17371 0.30065 0.0
C799 C 0.36951 0.16326 0.23286 0.0
H800 H 0.82504 0.38295 0.28935 0.0
H801 H 0.83825 0.33904 0.48393 0.0
H802 H 0.85804 0.31986 0.38164 0.0
H803 H 0.8698 0.31436 0.23455 0.0
H804 H 0.85509 0.35725 0.03819 0.0
H805 H 0.83784 0.37815 0.14398 0.0
C806 C 0.83234 0.3693 0.30977 0.0
C807 C 0.82993 0.36242 0.39425 0.0
C808 C 0.84346 0.35813 0.25014 0.0
C809 C 0.83971 0.3447 0.41934 0.0
C810 C 0.85108 0.33368 0.36081 0.0
C811 C 0.86316 0.32848 0.21527 0.0
C812 C 0.86391 0.33439 0.12898 0.0
C813 C 0.8528 0.3401 0.27575 0.0
C814 C 0.85471 0.35241 0.10429 0.0
C815 C 0.84481 0.36432 0.16458 0.0
H816 H 0.65414 0.83339 0.43625 0.0
H817 H 0.60374 0.81755 0.27616 0.0
H818 H 0.61755 0.83748 0.15955 0.0
H819 H 0.64537 0.85745 0.09899 0.0
H820 H 0.69589 0.87246 0.2596 0.0
H821 H 0.68048 0.85526 0.37977 0.0
C822 C 0.64598 0.8345 0.37638 0.0
C823 C 0.62807 0.82364 0.36485 0.0
C824 C 0.65408 0.84591 0.30921 0.0
C825 C 0.61773 0.82541 0.28665 0.0
C826 C 0.62562 0.83685 0.21971 0.0
C827 C 0.65287 0.8571 0.16056 0.0
C828 C 0.67164 0.86651 0.17037 0.0
C829 C 0.64404 0.8468 0.22954 0.0
C830 C 0.6812 0.86586 0.2506 0.0
C831 C 0.6725 0.85579 0.31935 0.0
H832 H 0.14984 0.64278 0.40746 0.0
H833 H 0.19552 0.6236 0.23062 0.0
H834 H 0.17824 0.64019 0.1137 0.0
H835 H 0.15192 0.66282 0.06369 0.0
H836 H 0.10561 0.68195 0.23811 0.0
H837 H 0.12127 0.66286 0.3533 0.0
C838 C 0.15582 0.64205 0.34307 0.0
C839 C 0.17385 0.63171 0.32778 0.0
C840 C 0.14581 0.65188 0.27568 0.0
C841 C 0.18143 0.63091 0.244 0.0
C842 C 0.17166 0.64066 0.17703 0.0
C843 C 0.14506 0.66264 0.12655 0.0
C844 C 0.1279 0.67428 0.14249 0.0
C845 C 0.15406 0.65151 0.1924 0.0
C846 C 0.11908 0.67354 0.2242 0.0
C847 C 0.12802 0.66257 0.2903 0.0
H848 H 0.36144 0.84667 0.60004 0.0
H849 H 0.37962 0.80222 0.78437 0.0
H850 H 0.36184 0.82 0.89696 0.0
H851 H 0.33834 0.84629 0.94031 0.0
H852 H 0.32019 0.89114 0.75737 0.0
H853 H 0.34054 0.87516 0.64754 0.0
C854 C 0.36173 0.84109 0.66515 0.0
C855 C 0.37207 0.82326 0.6839 0.0
C856 C 0.35116 0.85131 0.72974 0.0
C857 C 0.37228 0.81618 0.76856 0.0
C858 C 0.36185 0.82621 0.83291 0.0
C859 C 0.33898 0.85274 0.87675 0.0
C860 C 0.32725 0.86964 0.85687 0.0
C861 C 0.35088 0.84354 0.81388 0.0
C862 C 0.32861 0.87791 0.77433 0.0
C863 C 0.34034 0.86879 0.71127 0.0
H864 H 0.1208 0.32267 0.77107 0.0
H865 H 0.15454 0.3477 0.98125 0.0
H866 H 0.17432 0.36765 0.8815 0.0
H867 H 0.18356 0.37634 0.73393 0.0
H868 H 0.1506 0.35044 0.52348 0.0
H869 H 0.12895 0.33265 0.62378 0.0
C870 C 0.13217 0.3328 0.7952 0.0
C871 C 0.13609 0.33368 0.88363 0.0
C872 C 0.1437 0.34407 0.73729 0.0
C873 C 0.15116 0.34669 0.9136 0.0
C874 C 0.16251 0.35814 0.85652 0.0
C875 C 0.17135 0.36718 0.71007 0.0
C876 C 0.16864 0.36486 0.62131 0.0
C877 C 0.15911 0.35674 0.76816 0.0
C878 C 0.15303 0.35251 0.59144 0.0
C879 C 0.14061 0.34231 0.64882 0.0
H880 H 0.6538 0.14306 0.91588 0.0
H881 H 0.70053 0.12492 0.74171 0.0
H882 H 0.68389 0.14247 0.62503 0.0
H883 H 0.65751 0.16522 0.57474 0.0
H884 H 0.60968 0.18191 0.74602 0.0
H885 H 0.62523 0.16281 0.86089 0.0
C886 C 0.6602 0.14282 0.85216 0.0
C887 C 0.67839 0.13271 0.83772 0.0
C888 C 0.65046 0.15289 0.78482 0.0
C889 C 0.68644 0.13237 0.75461 0.0
C890 C 0.677 0.14255 0.68777 0.0
C891 C 0.65032 0.16453 0.63684 0.0
C892 C 0.63274 0.17563 0.65214 0.0
C893 C 0.65919 0.15316 0.70244 0.0
C894 C 0.62352 0.17414 0.73279 0.0
C895 C 0.63237 0.16308 0.79868 0.0
H896 H 0.82007 0.62773 0.73892 0.0
H897 H 0.85606 0.65371 0.53862 0.0
H898 H 0.87577 0.67211 0.64524 0.0
H899 H 0.88142 0.68218 0.79479 0.0
H900 H 0.8444 0.657 0.99399 0.0
H901 H 0.82644 0.63698 0.8883 0.0
C902 C 0.83249 0.63707 0.71865 0.0
C903 C 0.83671 0.63915 0.63096 0.0
C904 C 0.84352 0.64782 0.78015 0.0
C905 C 0.85251 0.65181 0.6057 0.0
C906 C 0.86379 0.66233 0.66666 0.0
C907 C 0.86973 0.67201 0.81549 0.0
C908 C 0.86437 0.67111 0.90258 0.0
C909 C 0.85927 0.66062 0.75406 0.0
C910 C 0.84891 0.65802 0.92762 0.0
C911 C 0.83862 0.64649 0.86713 0.0
H912 H 0.28862 0.0345 0.90703 0.0
H913 H 0.29047 0.03918 0.18175 0.0
H914 H 0.29275 0.00259 0.1935 0.0
H915 H 0.28899 0.96937 0.12528 0.0
H916 H 0.28856 0.96476 0.85033 0.0
H917 H 0.29125 0.00129 0.83842 0.0
C918 C 0.29008 0.02747 0.96928 0.0
C919 C 0.28921 0.03933 0.04351 0.0
C920 C 0.29139 0.00651 0.97527 0.0
C921 C 0.29123 0.03025 0.12391 0.0
C922 C 0.29232 0.00936 0.13055 0.0
C923 C 0.28994 0.9764 0.06286 0.0
C924 C 0.2883 0.96456 0.98871 0.0
C925 C 0.29163 0.99734 0.05672 0.0
C926 C 0.2898 0.97365 0.90812 0.0
C927 C 0.2912 0.99451 0.90139 0.0
H928 H 0.0297 0.29798 0.11948 0.0
H929 H 0.0385 0.29917 0.84658 0.0
H930 H 0.00217 0.30166 0.82439 0.0
H931 H 0.96795 0.29835 0.88305 0.0
H932 H 0.95916 0.29874 0.15601 0.0
H933 H 0.9955 0.30114 0.17834 0.0
C934 C 0.02362 0.2993 0.05532 0.0
C935 C 0.03658 0.29818 0.98463 0.0
C936 C 0.00279 0.30083 0.0433 0.0
C937 C 0.02872 0.30007 0.90177 0.0
C938 C 0.00798 0.30132 0.88915 0.0
C939 C 0.97403 0.29947 0.94729 0.0
C940 C 0.96107 0.29815 0.01791 0.0
C941 C 0.99487 0.30095 0.95939 0.0
C942 C 0.96894 0.2998 0.10088 0.0
C943 C 0.98969 0.30099 0.11356 0.0
H944 H 0.70816 0.96657 0.89375 0.0
H945 H 0.70743 0.96088 0.1682 0.0
H946 H 0.70542 0.99742 0.18288 0.0
H947 H 0.70919 0.03084 0.11706 0.0
H948 H 0.70855 0.03653 0.84255 0.0
H949 H 0.70538 1.00008 0.82792 0.0
C950 C 0.70704 0.97338 0.95662 0.0
C951 C 0.70817 0.96123 0.02989 0.0
C952 C 0.70582 0.99432 0.96431 0.0
C953 C 0.70653 0.97002 0.11108 0.0
C954 C 0.70555 0.99089 0.11939 0.0
C955 C 0.70782 0.02407 0.05417 0.0
C956 C 0.70932 0.03618 0.9809 0.0
C957 C 0.70597 0.00317 0.04648 0.0
C958 C 0.70736 0.02743 0.8997 0.0
C959 C 0.70574 0.00661 0.8914 0.0
H960 H 0.96455 0.71182 0.90621 0.0
H961 H 0.96208 0.70807 0.18084 0.0
H962 H 0.99869 0.70579 0.18821 0.0
H963 H 0.03148 0.71 0.11781 0.0
H964 H 0.03374 0.71798 0.84461 0.0
H965 H 0.99743 0.71328 0.83474 0.0
C966 C 0.97209 0.70987 0.9672 0.0
C967 C 0.9608 0.70992 0.04281 0.0
C968 C 0.99318 0.70966 0.97112 0.0
C969 C 0.97061 0.70794 0.12188 0.0
C970 C 0.99151 0.70676 0.12612 0.0
C971 C 0.02402 0.71019 0.05611 0.0
C972 C 0.03515 0.71434 0.9821 0.0
C973 C 0.003 0.70837 0.05141 0.0
C974 C 0.02537 0.7149 0.90248 0.0
C975 C 0.00462 0.71225 0.89681 0.0
H976 H 0.80403 0.47158 0.63179 0.0
H977 H 0.80263 0.46063 0.36013 0.0
H978 H 0.8065 0.49658 0.33276 0.0
H979 H 0.80467 0.53128 0.38709 0.0
H980 H 0.80716 0.54222 0.65857 0.0
H981 H 0.80888 0.50608 0.68547 0.0
C982 C 0.8051 0.47707 0.56666 0.0
C983 C 0.80281 0.46363 0.49797 0.0
C984 C 0.80735 0.49772 0.55162 0.0
C985 C 0.80441 0.47076 0.41387 0.0
C986 C 0.80645 0.49131 0.39829 0.0
C987 C 0.80616 0.5257 0.45196 0.0
C988 C 0.80558 0.53925 0.52089 0.0
C989 C 0.80712 0.50496 0.46671 0.0
C990 C 0.80767 0.53202 0.60465 0.0
C991 C 0.80845 0.51136 0.61998 0.0
H992 H 0.46834 0.74667 0.4686 0.0
H993 H 0.4662 0.80215 0.61025 0.0
H994 H 0.50249 0.80661 0.58924 0.0
H995 H 0.53535 0.79322 0.53743 0.0
H996 H 0.53613 0.73687 0.40187 0.0
H997 H 0.49978 0.73441 0.41251 0.0
C998 C 0.4757 0.75981 0.49498 0.0
C999 C 0.46459 0.77394 0.54177 0.0
C1000 C 0.49637 0.76214 0.48317 0.0
C1001 C 0.47444 0.79096 0.57445 0.0
C1002 C 0.49518 0.79351 0.56234 0.0
C1003 C 0.52741 0.78068 0.50895 0.0
C1004 C 0.5383 0.76525 0.46869 0.0
C1005 C 0.50638 0.77905 0.51757 0.0
C1006 C 0.528 0.74887 0.43317 0.0
C1007 C 0.50725 0.74742 0.43948 0.0
H1008 H 0.21026 0.46706 0.37615 0.0
H1009 H 0.20705 0.46068 0.64997 0.0
H1010 H 0.20524 0.49721 0.66606 0.0
H1011 H 0.20932 0.53082 0.60234 0.0
H1012 H 0.21085 0.53718 0.32816 0.0
H1013 H 0.20825 0.50073 0.31149 0.0
C1014 C 0.20869 0.47372 0.43912 0.0
C1015 C 0.209 0.46138 0.51191 0.0
C1016 C 0.20753 0.49464 0.4476 0.0
C1017 C 0.20677 0.46998 0.59321 0.0
C1018 C 0.2059 0.49083 0.60235 0.0
C1019 C 0.20864 0.52419 0.53901 0.0
C1020 C 0.21052 0.5365 0.46651 0.0
C1021 C 0.20698 0.5033 0.53012 0.0
C1022 C 0.2094 0.52792 0.38471 0.0
C1023 C 0.20806 0.5071 0.37527 0.0
H1024 H 0.53449 0.20985 0.62851 0.0
H1025 H 0.53891 0.22131 0.35805 0.0
H1026 H 0.50282 0.21625 0.34142 0.0
H1027 H 0.46941 0.21367 0.40716 0.0
H1028 H 0.46457 0.20633 0.6798 0.0
H1029 H 0.50113 0.20423 0.69251 0.0
C1030 C 0.52755 0.21072 0.56583 0.0
C1031 C 0.53922 0.216 0.49469 0.0
C1032 C 0.5066 0.20864 0.55735 0.0
C1033 C 0.53011 0.21739 0.41382 0.0
C1034 C 0.50948 0.21452 0.40425 0.0
C1035 C 0.47642 0.21091 0.46871 0.0
C1036 C 0.46448 0.2099 0.54231 0.0
C1037 C 0.49746 0.21084 0.47597 0.0
C1038 C 0.47361 0.20695 0.6223 0.0
C1039 C 0.49448 0.20591 0.62963 0.0
H1040 H 0.23335 0.19259 0.02435 0.0
H1041 H 0.18953 0.14538 0.05716 0.0
H1042 H 0.16253 0.16934 0.03888 0.0
H1043 H 0.15115 0.20326 0.01118 0.0
H1044 H 0.19423 0.25158 0.99509 0.0
H1045 H 0.22163 0.22751 1.00802 0.0
C1046 C 0.21792 0.18755 0.02864 0.0
C1047 C 0.21365 0.16702 0.04042 0.0
C1048 C 0.20225 0.20157 0.0204 0.0
C1049 C 0.19344 0.16089 0.04534 0.0
C1050 C 0.1779 0.17464 0.03567 0.0
C1051 C 0.16645 0.20876 0.01242 0.0
C1052 C 0.17042 0.22938 1.00248 0.0
C1053 C 0.18212 0.19497 0.02275 0.0
C1054 C 0.19056 0.23584 1.00132 0.0
C1055 C 0.2063 0.22207 0.00949 0.0
H1056 H 0.84755 0.20268 1.00336 0.0
H1057 H 0.80359 0.25022 1.00157 0.0
H1058 H 0.77669 0.22542 0.99128 0.0
H1059 H 0.76567 0.1901 0.98198 0.0
H1060 H 0.81046 0.1434 0.96774 0.0
H1061 H 0.83692 0.16815 0.98366 0.0
C1062 C 0.83217 0.20781 0.99885 0.0
C1063 C 0.82779 0.22845 1.00281 0.0
C1064 C 0.81681 0.19356 0.99023 0.0
C1065 C 0.80755 0.23449 0.99985 0.0
C1066 C 0.79211 0.2203 0.99322 0.0
C1067 C 0.78121 0.18532 0.98126 0.0
C1068 C 0.78589 0.16475 0.9752 0.0
C1069 C 0.79657 0.19976 0.98815 0.0
C1070 C 0.80621 0.15897 0.97499 0.0
C1071 C 0.82145 0.17316 0.98331 0.0
H1072 H 0.82201 0.77877 0.89783 0.0
H1073 H 0.82404 0.76771 0.16909 0.0
H1074 H 0.79686 0.79179 0.19199 0.0
H1075 H 0.77423 0.81778 0.1357 0.0
H1076 H 0.77405 0.83073 0.86579 0.0
H1077 H 0.79866 0.80413 0.84099 0.0
C1078 C 0.81622 0.78146 0.96161 0.0
C1079 C 0.82483 0.77151 0.0317 0.0
C1080 C 0.80105 0.79576 0.97444 0.0
C1081 C 0.81755 0.77528 0.11437 0.0
C1082 C 0.80207 0.78903 0.12742 0.0
C1083 C 0.77939 0.81452 0.07143 0.0
C1084 C 0.77238 0.82607 1.00259 0.0
C1085 C 0.79394 0.79961 0.05812 0.0
C1086 C 0.77936 0.822 0.91966 0.0
C1087 C 0.7934 0.80683 0.90552 0.0
H1088 H 0.17312 0.77855 0.9 0.0
H1089 H 0.17346 0.77756 0.17575 0.0
H1090 H 0.2005 0.80237 0.17809 0.0
H1091 H 0.22284 0.82568 0.10173 0.0
H1092 H 0.22246 0.82664 0.82594 0.0
H1093 H 0.19679 0.80045 0.82356 0.0
C1094 C 0.17918 0.78375 0.96053 0.0
C1095 C 0.17125 0.7763 0.03755 0.0
C1096 C 0.1947 0.79802 0.96138 0.0
C1097 C 0.17941 0.78294 0.11556 0.0
C1098 C 0.19479 0.79722 0.11696 0.0
C1099 C 0.21717 0.82008 0.04118 0.0
C1100 C 0.22451 0.82813 0.96418 0.0
C1101 C 0.20236 0.80506 0.04029 0.0
C1102 C 0.21721 0.82057 0.88611 0.0
C1103 C 0.20243 0.80569 0.8847 0.0
H1104 H 0.66076 0.69613 0.48753 0.0
H1105 H 0.70004 0.74758 0.47539 0.0
H1106 H 0.72926 0.72543 0.48228 0.0
H1107 H 0.74358 0.6912 0.49394 0.0
H1108 H 0.70319 0.64085 0.52184 0.0
H1109 H 0.67457 0.66297 0.50852 0.0
C1110 C 0.67563 0.70271 0.48834 0.0
C1111 C 0.67803 0.72363 0.48203 0.0
C1112 C 0.69227 0.69001 0.4951 0.0
C1113 C 0.69762 0.73156 0.47956 0.0
C1114 C 0.71437 0.71889 0.4842 0.0
C1115 C 0.72853 0.68509 0.49797 0.0
C1116 C 0.72571 0.66422 0.507 0.0
C1117 C 0.71188 0.69805 0.49247 0.0
C1118 C 0.706 0.65667 0.51199 0.0
C1119 C 0.68952 0.66936 0.50516 0.0
H1120 H 0.32661 0.7222 0.42186 0.0
H1121 H 0.32159 0.72323 0.6966 0.0
H1122 H 0.29424 0.69871 0.68995 0.0
H1123 H 0.27336 0.67525 0.60611 0.0
H1124 H 0.27801 0.67482 0.33114 0.0
H1125 H 0.3038 0.7009 0.33745 0.0
C1126 C 0.31937 0.71715 0.48009 0.0
C1127 C 0.32612 0.72437 0.55959 0.0
C1128 C 0.30368 0.70312 0.47567 0.0
C1129 C 0.31654 0.71794 0.63467 0.0
C1130 C 0.30101 0.70384 0.6309 0.0
C1131 C 0.27995 0.68102 0.5477 0.0
C1132 C 0.2739 0.67311 0.46834 0.0
C1133 C 0.2947 0.69607 0.55185 0.0
C1134 C 0.28235 0.6808 0.39291 0.0
C1135 C 0.29716 0.69562 0.39652 0.0
H1136 H 0.31099 0.26371 0.49469 0.0
H1137 H 0.35885 0.30745 0.50003 0.0
H1138 H 0.33449 0.33444 0.50866 0.0
H1139 H 0.29991 0.34577 0.51713 0.0
H1140 H 0.25148 0.30286 0.50175 0.0
H1141 H 0.27578 0.27544 0.4957 0.0
C1142 C 0.31607 0.27915 0.49688 0.0
C1143 C 0.33679 0.28343 0.49804 0.0
C1144 C 0.30191 0.29477 0.50059 0.0
C1145 C 0.34307 0.30358 0.50132 0.0
C1146 C 0.32913 0.3191 0.50563 0.0
C1147 C 0.29456 0.33048 0.51081 0.0
C1148 C 0.27381 0.32649 0.50928 0.0
C1149 C 0.30855 0.31487 0.5057 0.0
C1150 C 0.26732 0.30643 0.50388 0.0
C1151 C 0.28123 0.29073 0.49983 0.0
H1152 H 0.7393 0.31214 0.52263 0.0
H1153 H 0.69772 0.3616 0.50754 0.0
H1154 H 0.66953 0.33844 0.51622 0.0
H1155 H 0.65654 0.30434 0.52804 0.0
H1156 H 0.69756 0.25441 0.53893 0.0
H1157 H 0.72607 0.27756 0.53271 0.0
C1158 C 0.72406 0.31781 0.52074 0.0
C1159 C 0.72068 0.33862 0.51519 0.0
C1160 C 0.70781 0.30435 0.52526 0.0
C1161 C 0.70082 0.34572 0.51347 0.0
C1162 C 0.68465 0.33248 0.51786 0.0
C1163 C 0.6717 0.29845 0.52797 0.0
C1164 C 0.67487 0.27763 0.5332 0.0
C1165 C 0.68796 0.31179 0.52376 0.0
C1166 C 0.69467 0.27037 0.53543 0.0
C1167 C 0.71098 0.28359 0.53141 0.0
loop_
_geom_bond_atom_site_label_1
_geom_bond_atom_site_label_2
_geom_bond_distance
_geom_bond_site_symmetry_2
_ccdc_geom_bond_type
C0 C1 1.351 . S
C0 N3 1.368 . S
C0 H5 0.931 . S
C1 C0 1.351 . S
C1 N2 1.373 . S
C1 H29 0.930 . S
N2 C1 1.373 . S
N2 C4 1.340 . S
N3 C0 1.368 . S
N3 C4 1.321 . S
N3 Co6 2.135 . S
C4 N2 1.340 . S
C4 N3 1.321 . S
C4 H28 0.930 . S
H5 C0 0.931 . S
Co6 N3 2.135 . S
Co6 N9 2.121 1_554 S
Co6 O14 2.055 . S
Co6 O17 2.039 . S
Co6 N20 2.140 . S
C7 O8 1.227 . S
C7 O17 1.265 . S
O8 C7 1.227 . S
N9 Co6 2.121 1_556 S
N9 C11 1.375 . S
N9 C12 1.313 . S
C10 C11 1.338 . S
C10 N13 1.377 . S
C10 H30 0.930 . S
C11 N9 1.375 . S
C11 C10 1.338 . S
C11 H15 0.931 . S
C12 N9 1.313 . S
C12 N13 1.344 . S
C12 H16 0.930 . S
N13 C10 1.377 . S
N13 C12 1.344 . S
O14 Co6 2.055 . S
O14 C18 1.253 . S
H15 C11 0.931 . S
H16 C12 0.930 . S
O17 Co6 2.039 . S
O17 C7 1.265 . S
C18 O14 1.253 . S
C18 O19 1.227 . S
O19 C18 1.227 . S
N20 Co6 2.140 . S
N20 C23 1.346 . S
N20 C24 1.345 . S
C21 C22 1.387 . S
C21 C25 1.391 . S
C22 C21 1.387 . S
C22 C23 1.369 . S
C22 H31 0.929 . S
C23 N20 1.346 . S
C23 C22 1.369 . S
C23 H26 0.928 . S
C24 N20 1.345 . S
C24 C25 1.371 . S
C24 H27 0.931 1_554 S
C25 C21 1.391 . S
C25 C24 1.371 . S
C25 H32 0.930 1_554 S
H26 C23 0.928 . S
H27 C24 0.931 1_556 S
H28 C4 0.930 . S
H29 C1 0.930 . S
H30 C10 0.930 . S
H31 C22 0.929 . S
H32 C25 0.930 1_556 S
C33 C34 1.351 . S
C33 N36 1.368 . S
C33 H38 0.931 . S
C34 C33 1.351 . S
C34 N35 1.373 . S
C34 H62 0.930 . S
N35 C34 1.373 . S
N35 C37 1.340 . S
N36 C33 1.368 . S
N36 C37 1.321 . S
N36 Co39 2.135 . S
C37 N35 1.340 . S
C37 N36 1.321 . S
C37 H61 0.930 . S
H38 C33 0.931 . S
Co39 N36 2.135 . S
Co39 N42 2.121 1_554 S
Co39 O47 2.055 . S
Co39 O50 2.039 . S
Co39 N53 2.140 . S
C40 O41 1.227 . S
C40 O50 1.265 . S
O41 C40 1.227 . S
N42 Co39 2.121 1_556 S
N42 C44 1.375 . S
N42 C45 1.313 . S
C43 C44 1.338 . S
C43 N46 1.377 . S
C43 H63 0.930 . S
C44 N42 1.375 . S
C44 C43 1.338 . S
C44 H48 0.931 . S
C45 N42 1.313 . S
C45 N46 1.344 . S
C45 H49 0.930 . S
N46 C43 1.377 . S
N46 C45 1.344 . S
O47 Co39 2.055 . S
O47 C51 1.253 . S
H48 C44 0.931 . S
H49 C45 0.930 . S
O50 Co39 2.039 . S
O50 C40 1.265 . S
C51 O47 1.253 . S
C51 O52 1.227 . S
O52 C51 1.227 . S
N53 Co39 2.140 . S
N53 C56 1.346 . S
N53 C57 1.345 . S
C54 C55 1.387 . S
C54 C58 1.391 . S
C55 C54 1.387 . S
C55 C56 1.369 . S
C55 H64 0.929 . S
C56 N53 1.346 . S
C56 C55 1.369 . S
C56 H59 0.928 . S
C57 N53 1.345 . S
C57 C58 1.371 . S
C57 H60 0.931 1_554 S
C58 C54 1.391 . S
C58 C57 1.371 . S
C58 H65 0.930 1_554 S
H59 C56 0.928 . S
H60 C57 0.931 1_556 S
H61 C37 0.930 . S
H62 C34 0.930 . S
H63 C43 0.930 . S
H64 C55 0.929 . S
H65 C58 0.930 1_556 S
C66 C67 1.351 . S
C66 N69 1.368 . S
C66 H71 0.931 . S
C67 C66 1.351 . S
C67 N68 1.373 . S
C67 H95 0.930 . S
N68 C67 1.373 . S
N68 C70 1.340 . S
N69 C66 1.368 . S
N69 C70 1.321 . S
N69 Co72 2.135 . S
C70 N68 1.340 . S
C70 N69 1.321 . S
C70 H94 0.930 . S
H71 C66 0.931 . S
Co72 N69 2.135 . S
Co72 N75 2.121 1_554 S
Co72 O80 2.055 . S
Co72 O83 2.039 . S
Co72 N86 2.140 . S
C73 O74 1.227 . S
C73 O83 1.265 . S
O74 C73 1.227 . S
N75 Co72 2.121 1_556 S
N75 C77 1.375 . S
N75 C78 1.313 . S
C76 C77 1.338 . S
C76 N79 1.377 . S
C76 H96 0.930 . S
C77 N75 1.375 . S
C77 C76 1.338 . S
C77 H81 0.931 . S
C78 N75 1.313 . S
C78 N79 1.344 . S
C78 H82 0.930 . S
N79 C76 1.377 . S
N79 C78 1.344 . S
O80 Co72 2.055 . S
O80 C84 1.253 . S
H81 C77 0.931 . S
H82 C78 0.930 . S
O83 Co72 2.039 . S
O83 C73 1.265 . S
C84 O80 1.253 . S
C84 O85 1.227 . S
O85 C84 1.227 . S
N86 Co72 2.140 . S
N86 C89 1.346 . S
N86 C90 1.345 . S
C87 C88 1.387 . S
C87 C91 1.391 . S
C88 C87 1.387 . S
C88 C89 1.369 . S
C88 H97 0.929 . S
C89 N86 1.346 . S
C89 C88 1.369 . S
C89 H92 0.928 . S
C90 N86 1.345 . S
C90 C91 1.371 . S
C90 H93 0.931 1_554 S
C91 C87 1.391 . S
C91 C90 1.371 . S
C91 H98 0.930 1_554 S
H92 C89 0.928 . S
H93 C90 0.931 1_556 S
H94 C70 0.930 . S
H95 C67 0.930 . S
H96 C76 0.930 . S
H97 C88 0.929 . S
H98 C91 0.930 1_556 S
C99 C100 1.351 . S
C99 N102 1.368 . S
C99 H104 0.931 . S
C100 C99 1.351 . S
C100 N101 1.373 . S
C100 H128 0.930 . S
N101 C100 1.373 . S
N101 C103 1.340 . S
N102 C99 1.368 . S
N102 C103 1.321 . S
N102 Co105 2.135 . S
C103 N101 1.340 . S
C103 N102 1.321 . S
C103 H127 0.930 . S
H104 C99 0.931 . S
Co105 N102 2.135 . S
Co105 N108 2.121 1_554 S
Co105 O113 2.055 . S
Co105 O116 2.039 . S
Co105 N119 2.140 . S
C106 O107 1.227 . S
C106 O116 1.265 . S
O107 C106 1.227 . S
N108 Co105 2.121 1_556 S
N108 C110 1.375 . S
N108 C111 1.313 . S
C109 C110 1.338 . S
C109 N112 1.377 . S
C109 H129 0.930 . S
C110 N108 1.375 . S
C110 C109 1.338 . S
C110 H114 0.931 . S
C111 N108 1.313 . S
C111 N112 1.344 . S
C111 H115 0.930 . S
N112 C109 1.377 . S
N112 C111 1.344 . S
O113 Co105 2.055 . S
O113 C117 1.253 . S
H114 C110 0.931 . S
H115 C111 0.930 . S
O116 Co105 2.039 . S
O116 C106 1.265 . S
C117 O113 1.253 . S
C117 O118 1.227 . S
O118 C117 1.227 . S
N119 Co105 2.140 . S
N119 C122 1.346 . S
N119 C123 1.345 . S
C120 C121 1.387 . S
C120 C124 1.391 . S
C121 C120 1.387 . S
C121 C122 1.369 . S
C121 H130 0.929 . S
C122 N119 1.346 . S
C122 C121 1.369 . S
C122 H125 0.928 . S
C123 N119 1.345 . S
C123 C124 1.371 . S
C123 H126 0.931 1_554 S
C124 C120 1.391 . S
C124 C123 1.371 . S
C124 H131 0.930 1_554 S
H125 C122 0.928 . S
H126 C123 0.931 1_556 S
H127 C103 0.930 . S
H128 C100 0.930 . S
H129 C109 0.930 . S
H130 C121 0.929 . S
H131 C124 0.930 1_556 S
C132 C133 1.351 . S
C132 N135 1.368 . S
C132 H137 0.931 . S
C133 C132 1.351 . S
C133 N134 1.373 . S
C133 H161 0.930 . S
N134 C133 1.373 . S
N134 C136 1.340 . S
N135 C132 1.368 . S
N135 C136 1.321 . S
N135 Co138 2.135 . S
C136 N134 1.340 . S
C136 N135 1.321 . S
C136 H160 0.930 . S
H137 C132 0.931 . S
Co138 N135 2.135 . S
Co138 N141 2.121 1_556 S
Co138 O146 2.055 . S
Co138 O149 2.039 . S
Co138 N152 2.140 . S
C139 O140 1.227 . S
C139 O149 1.265 . S
O140 C139 1.227 . S
N141 Co138 2.121 1_554 S
N141 C143 1.375 . S
N141 C144 1.313 . S
C142 C143 1.338 . S
C142 N145 1.377 . S
C142 H162 0.930 . S
C143 N141 1.375 . S
C143 C142 1.338 . S
C143 H147 0.931 . S
C144 N141 1.313 . S
C144 N145 1.344 . S
C144 H148 0.930 . S
N145 C142 1.377 . S
N145 C144 1.344 . S
O146 Co138 2.055 . S
O146 C150 1.253 . S
H147 C143 0.931 . S
H148 C144 0.930 . S
O149 Co138 2.039 . S
O149 C139 1.265 . S
C150 O146 1.253 . S
C150 O151 1.227 . S
O151 C150 1.227 . S
N152 Co138 2.140 . S
N152 C155 1.346 . S
N152 C156 1.345 . S
C153 C154 1.387 . S
C153 C157 1.391 . S
C154 C153 1.387 . S
C154 C155 1.369 . S
C154 H163 0.929 . S
C155 N152 1.346 . S
C155 C154 1.369 . S
C155 H158 0.928 . S
C156 N152 1.345 . S
C156 C157 1.371 . S
C156 H159 0.931 1_556 S
C157 C153 1.391 . S
C157 C156 1.371 . S
C157 H164 0.930 1_556 S
H158 C155 0.928 . S
H159 C156 0.931 1_554 S
H160 C136 0.930 . S
H161 C133 0.930 . S
H162 C142 0.930 . S
H163 C154 0.929 . S
H164 C157 0.930 1_554 S
C165 C166 1.351 . S
C165 N168 1.368 . S
C165 H170 0.931 . S
C166 C165 1.351 . S
C166 N167 1.373 . S
C166 H194 0.930 . S
N167 C166 1.373 . S
N167 C169 1.340 . S
N168 C165 1.368 . S
N168 C169 1.321 . S
N168 Co171 2.135 . S
C169 N167 1.340 . S
C169 N168 1.321 . S
C169 H193 0.930 . S
H170 C165 0.931 . S
Co171 N168 2.135 . S
Co171 N174 2.121 1_556 S
Co171 O179 2.055 . S
Co171 O182 2.039 . S
Co171 N185 2.140 . S
C172 O173 1.227 . S
C172 O182 1.265 . S
O173 C172 1.227 . S
N174 Co171 2.121 1_554 S
N174 C176 1.375 . S
N174 C177 1.313 . S
C175 C176 1.338 . S
C175 N178 1.377 . S
C175 H195 0.930 . S
C176 N174 1.375 . S
C176 C175 1.338 . S
C176 H180 0.931 . S
C177 N174 1.313 . S
C177 N178 1.344 . S
C177 H181 0.930 . S
N178 C175 1.377 . S
N178 C177 1.344 . S
O179 Co171 2.055 . S
O179 C183 1.253 . S
H180 C176 0.931 . S
H181 C177 0.930 . S
O182 Co171 2.039 . S
O182 C172 1.265 . S
C183 O179 1.253 . S
C183 O184 1.227 . S
O184 C183 1.227 . S
N185 Co171 2.140 . S
N185 C188 1.346 . S
N185 C189 1.345 . S
C186 C187 1.387 . S
C186 C190 1.391 . S
C187 C186 1.387 . S
C187 C188 1.369 . S
C187 H196 0.929 . S
C188 N185 1.346 . S
C188 C187 1.369 . S
C188 H191 0.928 . S
C189 N185 1.345 . S
C189 C190 1.371 . S
C189 H192 0.931 1_556 S
C190 C186 1.391 . S
C190 C189 1.371 . S
C190 H197 0.930 1_556 S
H191 C188 0.928 . S
H192 C189 0.931 1_554 S
H193 C169 0.930 . S
H194 C166 0.930 . S
H195 C175 0.930 . S
H196 C187 0.929 . S
H197 C190 0.930 1_554 S
C198 C199 1.351 . S
C198 N201 1.368 . S
C198 H203 0.931 . S
C199 C198 1.351 . S
C199 N200 1.373 . S
C199 H227 0.930 . S
N200 C199 1.373 . S
N200 C202 1.340 . S
N201 C198 1.368 . S
N201 C202 1.321 . S
N201 Co204 2.135 . S
C202 N200 1.340 . S
C202 N201 1.321 . S
C202 H226 0.930 . S
H203 C198 0.931 . S
Co204 N201 2.135 . S
Co204 N207 2.121 1_556 S
Co204 O212 2.055 . S
Co204 O215 2.039 . S
Co204 N218 2.140 . S
C205 O206 1.227 . S
C205 O215 1.265 . S
O206 C205 1.227 . S
N207 Co204 2.121 1_554 S
N207 C209 1.375 . S
N207 C210 1.313 . S
C208 C209 1.338 . S
C208 N211 1.377 . S
C208 H228 0.930 . S
C209 N207 1.375 . S
C209 C208 1.338 . S
C209 H213 0.931 . S
C210 N207 1.313 . S
C210 N211 1.344 . S
C210 H214 0.930 . S
N211 C208 1.377 . S
N211 C210 1.344 . S
O212 Co204 2.055 . S
O212 C216 1.253 . S
H213 C209 0.931 . S
H214 C210 0.930 . S
O215 Co204 2.039 . S
O215 C205 1.265 . S
C216 O212 1.253 . S
C216 O217 1.227 . S
O217 C216 1.227 . S
N218 Co204 2.140 . S
N218 C221 1.346 . S
N218 C222 1.345 . S
C219 C220 1.387 . S
C219 C223 1.391 . S
C220 C219 1.387 . S
C220 C221 1.369 . S
C220 H229 0.929 . S
C221 N218 1.346 . S
C221 C220 1.369 . S
C221 H224 0.928 . S
C222 N218 1.345 . S
C222 C223 1.371 . S
C222 H225 0.931 1_556 S
C223 C219 1.391 . S
C223 C222 1.371 . S
C223 H230 0.930 1_556 S
H224 C221 0.928 . S
H225 C222 0.931 1_554 S
H226 C202 0.930 . S
H227 C199 0.930 . S
H228 C208 0.930 . S
H229 C220 0.929 . S
H230 C223 0.930 1_554 S
C231 C232 1.351 . S
C231 N234 1.368 . S
C231 H236 0.931 . S
C232 C231 1.351 . S
C232 N233 1.373 . S
C232 H260 0.930 . S
N233 C232 1.373 . S
N233 C235 1.340 . S
N234 C231 1.368 . S
N234 C235 1.321 . S
N234 Co237 2.135 . S
C235 N233 1.340 . S
C235 N234 1.321 . S
C235 H259 0.930 . S
H236 C231 0.931 . S
Co237 N234 2.135 . S
Co237 N240 2.121 1_556 S
Co237 O245 2.055 . S
Co237 O248 2.039 . S
Co237 N251 2.140 . S
C238 O239 1.227 . S
C238 O248 1.265 . S
O239 C238 1.227 . S
N240 Co237 2.121 1_554 S
N240 C242 1.375 . S
N240 C243 1.313 . S
C241 C242 1.338 . S
C241 N244 1.377 . S
C241 H261 0.930 . S
C242 N240 1.375 . S
C242 C241 1.338 . S
C242 H246 0.931 . S
C243 N240 1.313 . S
C243 N244 1.344 . S
C243 H247 0.930 . S
N244 C241 1.377 . S
N244 C243 1.344 . S
O245 Co237 2.055 . S
O245 C249 1.253 . S
H246 C242 0.931 . S
H247 C243 0.930 . S
O248 Co237 2.039 . S
O248 C238 1.265 . S
C249 O245 1.253 . S
C249 O250 1.227 . S
O250 C249 1.227 . S
N251 Co237 2.140 . S
N251 C254 1.346 . S
N251 C255 1.345 . S
C252 C253 1.387 . S
C252 C256 1.391 . S
C253 C252 1.387 . S
C253 C254 1.369 . S
C253 H262 0.929 . S
C254 N251 1.346 . S
C254 C253 1.369 . S
C254 H257 0.928 . S
C255 N251 1.345 . S
C255 C256 1.371 . S
C255 H258 0.931 1_556 S
C256 C252 1.391 . S
C256 C255 1.371 . S
C256 H263 0.930 1_556 S
H257 C254 0.928 . S
H258 C255 0.931 1_554 S
H259 C235 0.930 . S
H260 C232 0.930 . S
H261 C241 0.930 . S
H262 C253 0.929 . S
H263 C256 0.930 1_554 S
C264 C265 1.351 . S
C264 N267 1.368 . S
C264 H269 0.931 . S
C265 C264 1.351 . S
C265 N266 1.373 . S
C265 H293 0.930 . S
N266 C265 1.373 . S
N266 C268 1.340 . S
N267 C264 1.368 . S
N267 C268 1.321 . S
N267 Co270 2.135 . S
C268 N266 1.340 . S
C268 N267 1.321 . S
C268 H292 0.930 . S
H269 C264 0.931 . S
Co270 N267 2.135 . S
Co270 N273 2.121 . S
Co270 O278 2.055 . S
Co270 O281 2.039 . S
Co270 N284 2.140 . S
C271 O272 1.227 . S
C271 O281 1.265 . S
O272 C271 1.227 . S
N273 Co270 2.121 . S
N273 C275 1.375 . S
N273 C276 1.313 . S
C274 C275 1.338 . S
C274 N277 1.377 . S
C274 H294 0.930 . S
C275 N273 1.375 . S
C275 C274 1.338 . S
C275 H279 0.931 . S
C276 N273 1.313 . S
C276 N277 1.344 . S
C276 H280 0.930 . S
N277 C274 1.377 . S
N277 C276 1.344 . S
O278 Co270 2.055 . S
O278 C282 1.253 . S
H279 C275 0.931 . S
H280 C276 0.930 . S
O281 Co270 2.039 . S
O281 C271 1.265 . S
C282 O278 1.253 . S
C282 O283 1.227 . S
O283 C282 1.227 . S
N284 Co270 2.140 . S
N284 C287 1.346 . S
N284 C288 1.345 . S
C285 C286 1.387 . S
C285 C289 1.391 . S
C286 C285 1.387 . S
C286 C287 1.369 . S
C286 H295 0.929 . S
C287 N284 1.346 . S
C287 C286 1.369 . S
C287 H290 0.928 . S
C288 N284 1.345 . S
C288 C289 1.371 . S
C288 H291 0.931 . S
C289 C285 1.391 . S
C289 C288 1.371 . S
C289 H296 0.930 . S
H290 C287 0.928 . S
H291 C288 0.931 . S
H292 C268 0.930 . S
H293 C265 0.930 . S
H294 C274 0.930 . S
H295 C286 0.929 . S
H296 C289 0.930 . S
C297 C298 1.351 . S
C297 N300 1.368 . S
C297 H302 0.931 . S
C298 C297 1.351 . S
C298 N299 1.373 . S
C298 H326 0.930 . S
N299 C298 1.373 . S
N299 C301 1.340 . S
N300 C297 1.368 . S
N300 C301 1.321 . S
N300 Co303 2.135 . S
C301 N299 1.340 . S
C301 N300 1.321 . S
C301 H325 0.930 . S
H302 C297 0.931 . S
Co303 N300 2.135 . S
Co303 N306 2.121 . S
Co303 O311 2.055 . S
Co303 O314 2.039 . S
Co303 N317 2.140 . S
C304 O305 1.227 . S
C304 O314 1.265 . S
O305 C304 1.227 . S
N306 Co303 2.121 . S
N306 C308 1.375 . S
N306 C309 1.313 . S
C307 C308 1.338 . S
C307 N310 1.377 . S
C307 H327 0.930 . S
C308 N306 1.375 . S
C308 C307 1.338 . S
C308 H312 0.931 . S
C309 N306 1.313 . S
C309 N310 1.344 . S
C309 H313 0.930 . S
N310 C307 1.377 . S
N310 C309 1.344 . S
O311 Co303 2.055 . S
O311 C315 1.253 . S
H312 C308 0.931 . S
H313 C309 0.930 . S
O314 Co303 2.039 . S
O314 C304 1.265 . S
C315 O311 1.253 . S
C315 O316 1.227 . S
O316 C315 1.227 . S
N317 Co303 2.140 . S
N317 C320 1.346 . S
N317 C321 1.345 . S
C318 C319 1.387 . S
C318 C322 1.391 . S
C319 C318 1.387 . S
C319 C320 1.369 . S
C319 H328 0.929 . S
C320 N317 1.346 . S
C320 C319 1.369 . S
C320 H323 0.928 . S
C321 N317 1.345 . S
C321 C322 1.371 . S
C321 H324 0.931 . S
C322 C318 1.391 . S
C322 C321 1.371 . S
C322 H329 0.930 . S
H323 C320 0.928 . S
H324 C321 0.931 . S
H325 C301 0.930 . S
H326 C298 0.930 . S
H327 C307 0.930 . S
H328 C319 0.929 . S
H329 C322 0.930 . S
C330 C331 1.351 . S
C330 N333 1.368 . S
C330 H335 0.931 . S
C331 C330 1.351 . S
C331 N332 1.373 . S
C331 H359 0.930 . S
N332 C331 1.373 . S
N332 C334 1.340 . S
N333 C330 1.368 . S
N333 C334 1.321 . S
N333 Co336 2.135 . S
C334 N332 1.340 . S
C334 N333 1.321 . S
C334 H358 0.930 . S
H335 C330 0.931 . S
Co336 N333 2.135 . S
Co336 N339 2.121 . S
Co336 O344 2.055 . S
Co336 O347 2.039 . S
Co336 N350 2.140 . S
C337 O338 1.227 . S
C337 O347 1.265 . S
O338 C337 1.227 . S
N339 Co336 2.121 . S
N339 C341 1.375 . S
N339 C342 1.313 . S
C340 C341 1.338 . S
C340 N343 1.377 . S
C340 H360 0.930 . S
C341 N339 1.375 . S
C341 C340 1.338 . S
C341 H345 0.931 . S
C342 N339 1.313 . S
C342 N343 1.344 . S
C342 H346 0.930 . S
N343 C340 1.377 . S
N343 C342 1.344 . S
O344 Co336 2.055 . S
O344 C348 1.253 . S
H345 C341 0.931 . S
H346 C342 0.930 . S
O347 Co336 2.039 . S
O347 C337 1.265 . S
C348 O344 1.253 . S
C348 O349 1.227 . S
O349 C348 1.227 . S
N350 Co336 2.140 . S
N350 C353 1.346 . S
N350 C354 1.345 . S
C351 C352 1.387 . S
C351 C355 1.391 . S
C352 C351 1.387 . S
C352 C353 1.369 . S
C352 H361 0.929 . S
C353 N350 1.346 . S
C353 C352 1.369 . S
C353 H356 0.928 . S
C354 N350 1.345 . S
C354 C355 1.371 . S
C354 H357 0.931 . S
C355 C351 1.391 . S
C355 C354 1.371 . S
C355 H362 0.930 . S
H356 C353 0.928 . S
H357 C354 0.931 . S
H358 C334 0.930 . S
H359 C331 0.930 . S
H360 C340 0.930 . S
H361 C352 0.929 . S
H362 C355 0.930 . S
C363 C364 1.351 . S
C363 N366 1.368 . S
C363 H368 0.931 . S
C364 C363 1.351 . S
C364 N365 1.373 . S
C364 H392 0.930 . S
N365 C364 1.373 . S
N365 C367 1.340 . S
N366 C363 1.368 . S
N366 C367 1.321 . S
N366 Co369 2.135 . S
C367 N365 1.340 . S
C367 N366 1.321 . S
C367 H391 0.930 . S
H368 C363 0.931 . S
Co369 N366 2.135 . S
Co369 N372 2.121 . S
Co369 O377 2.055 . S
Co369 O380 2.039 . S
Co369 N383 2.140 . S
C370 O371 1.227 . S
C370 O380 1.265 . S
O371 C370 1.227 . S
N372 Co369 2.121 . S
N372 C374 1.375 . S
N372 C375 1.313 . S
C373 C374 1.338 . S
C373 N376 1.377 . S
C373 H393 0.930 . S
C374 N372 1.375 . S
C374 C373 1.338 . S
C374 H378 0.931 . S
C375 N372 1.313 . S
C375 N376 1.344 . S
C375 H379 0.930 . S
N376 C373 1.377 . S
N376 C375 1.344 . S
O377 Co369 2.055 . S
O377 C381 1.253 . S
H378 C374 0.931 . S
H379 C375 0.930 . S
O380 Co369 2.039 . S
O380 C370 1.265 . S
C381 O377 1.253 . S
C381 O382 1.227 . S
O382 C381 1.227 . S
N383 Co369 2.140 . S
N383 C386 1.346 . S
N383 C387 1.345 . S
C384 C385 1.387 . S
C384 C388 1.391 . S
C385 C384 1.387 . S
C385 C386 1.369 . S
C385 H394 0.929 . S
C386 N383 1.346 . S
C386 C385 1.369 . S
C386 H389 0.928 . S
C387 N383 1.345 . S
C387 C388 1.371 . S
C387 H390 0.931 . S
C388 C384 1.391 . S
C388 C387 1.371 . S
C388 H395 0.930 . S
H389 C386 0.928 . S
H390 C387 0.931 . S
H391 C367 0.930 . S
H392 C364 0.930 . S
H393 C373 0.930 . S
H394 C385 0.929 . S
H395 C388 0.930 . S
C396 C397 1.351 . S
C396 N399 1.368 . S
C396 H401 0.931 . S
C397 C396 1.351 . S
C397 N398 1.373 . S
C397 H425 0.930 . S
N398 C397 1.373 . S
N398 C400 1.340 . S
N399 C396 1.368 . S
N399 C400 1.321 . S
N399 Co402 2.135 . S
C400 N398 1.340 . S
C400 N399 1.321 . S
C400 H424 0.930 . S
H401 C396 0.931 . S
Co402 N399 2.135 . S
Co402 N405 2.121 . S
Co402 O410 2.055 . S
Co402 O413 2.039 . S
Co402 N416 2.140 . S
C403 O404 1.227 . S
C403 O413 1.265 . S
O404 C403 1.227 . S
N405 Co402 2.121 . S
N405 C407 1.375 . S
N405 C408 1.313 . S
C406 C407 1.338 . S
C406 N409 1.377 . S
C406 H426 0.930 . S
C407 N405 1.375 . S
C407 C406 1.338 . S
C407 H411 0.931 . S
C408 N405 1.313 . S
C408 N409 1.344 . S
C408 H412 0.930 . S
N409 C406 1.377 . S
N409 C408 1.344 . S
O410 Co402 2.055 . S
O410 C414 1.253 . S
H411 C407 0.931 . S
H412 C408 0.930 . S
O413 Co402 2.039 . S
O413 C403 1.265 . S
C414 O410 1.253 . S
C414 O415 1.227 . S
O415 C414 1.227 . S
N416 Co402 2.140 . S
N416 C419 1.346 . S
N416 C420 1.345 . S
C417 C418 1.387 . S
C417 C421 1.391 . S
C418 C417 1.387 . S
C418 C419 1.369 . S
C418 H427 0.929 . S
C419 N416 1.346 . S
C419 C418 1.369 . S
C419 H422 0.928 . S
C420 N416 1.345 . S
C420 C421 1.371 . S
C420 H423 0.931 . S
C421 C417 1.391 . S
C421 C420 1.371 . S
C421 H428 0.930 . S
H422 C419 0.928 . S
H423 C420 0.931 . S
H424 C400 0.930 . S
H425 C397 0.930 . S
H426 C406 0.930 . S
H427 C418 0.929 . S
H428 C421 0.930 . S
C429 C430 1.351 . S
C429 N432 1.368 . S
C429 H434 0.931 . S
C430 C429 1.351 . S
C430 N431 1.373 . S
C430 H458 0.930 . S
N431 C430 1.373 . S
N431 C433 1.340 . S
N432 C429 1.368 . S
N432 C433 1.321 . S
N432 Co435 2.135 . S
C433 N431 1.340 . S
C433 N432 1.321 . S
C433 H457 0.930 . S
H434 C429 0.931 . S
Co435 N432 2.135 . S
Co435 N438 2.121 . S
Co435 O443 2.055 . S
Co435 O446 2.039 . S
Co435 N449 2.140 . S
C436 O437 1.227 . S
C436 O446 1.265 . S
O437 C436 1.227 . S
N438 Co435 2.121 . S
N438 C440 1.375 . S
N438 C441 1.313 . S
C439 C440 1.338 . S
C439 N442 1.377 . S
C439 H459 0.930 . S
C440 N438 1.375 . S
C440 C439 1.338 . S
C440 H444 0.931 . S
C441 N438 1.313 . S
C441 N442 1.344 . S
C441 H445 0.930 . S
N442 C439 1.377 . S
N442 C441 1.344 . S
O443 Co435 2.055 . S
O443 C447 1.253 . S
H444 C440 0.931 . S
H445 C441 0.930 . S
O446 Co435 2.039 . S
O446 C436 1.265 . S
C447 O443 1.253 . S
C447 O448 1.227 . S
O448 C447 1.227 . S
N449 Co435 2.140 . S
N449 C452 1.346 . S
N449 C453 1.345 . S
C450 C451 1.387 . S
C450 C454 1.391 . S
C451 C450 1.387 . S
C451 C452 1.369 . S
C451 H460 0.929 . S
C452 N449 1.346 . S
C452 C451 1.369 . S
C452 H455 0.928 . S
C453 N449 1.345 . S
C453 C454 1.371 . S
C453 H456 0.931 . S
C454 C450 1.391 . S
C454 C453 1.371 . S
C454 H461 0.930 . S
H455 C452 0.928 . S
H456 C453 0.931 . S
H457 C433 0.930 . S
H458 C430 0.930 . S
H459 C439 0.930 . S
H460 C451 0.929 . S
H461 C454 0.930 . S
C462 C463 1.351 . S
C462 N465 1.368 . S
C462 H467 0.931 . S
C463 C462 1.351 . S
C463 N464 1.373 . S
C463 H491 0.930 . S
N464 C463 1.373 . S
N464 C466 1.340 . S
N465 C462 1.368 . S
N465 C466 1.321 . S
N465 Co468 2.135 . S
C466 N464 1.340 . S
C466 N465 1.321 . S
C466 H490 0.930 . S
H467 C462 0.931 . S
Co468 N465 2.135 . S
Co468 N471 2.121 . S
Co468 O476 2.055 . S
Co468 O479 2.039 . S
Co468 N482 2.140 . S
C469 O470 1.227 . S
C469 O479 1.265 . S
O470 C469 1.227 . S
N471 Co468 2.121 . S
N471 C473 1.375 . S
N471 C474 1.313 . S
C472 C473 1.338 . S
C472 N475 1.377 . S
C472 H492 0.930 . S
C473 N471 1.375 . S
C473 C472 1.338 . S
C473 H477 0.931 . S
C474 N471 1.313 . S
C474 N475 1.344 . S
C474 H478 0.930 . S
N475 C472 1.377 . S
N475 C474 1.344 . S
O476 Co468 2.055 . S
O476 C480 1.253 . S
H477 C473 0.931 . S
H478 C474 0.930 . S
O479 Co468 2.039 . S
O479 C469 1.265 . S
C480 O476 1.253 . S
C480 O481 1.227 . S
O481 C480 1.227 . S
N482 Co468 2.140 . S
N482 C485 1.346 . S
N482 C486 1.345 . S
C483 C484 1.387 . S
C483 C487 1.391 . S
C484 C483 1.387 . S
C484 C485 1.369 . S
C484 H493 0.929 . S
C485 N482 1.346 . S
C485 C484 1.369 . S
C485 H488 0.928 . S
C486 N482 1.345 . S
C486 C487 1.371 . S
C486 H489 0.931 . S
C487 C483 1.391 . S
C487 C486 1.371 . S
C487 H494 0.930 . S
H488 C485 0.928 . S
H489 C486 0.931 . S
H490 C466 0.930 . S
H491 C463 0.930 . S
H492 C472 0.930 . S
H493 C484 0.929 . S
H494 C487 0.930 . S
C495 C496 1.351 . S
C495 N498 1.368 . S
C495 H500 0.931 . S
C496 C495 1.351 . S
C496 N497 1.373 . S
C496 H524 0.930 . S
N497 C496 1.373 . S
N497 C499 1.340 . S
N498 C495 1.368 . S
N498 C499 1.321 . S
N498 Co501 2.135 . S
C499 N497 1.340 . S
C499 N498 1.321 . S
C499 H523 0.930 . S
H500 C495 0.931 . S
Co501 N498 2.135 . S
Co501 N504 2.121 . S
Co501 O509 2.055 . S
Co501 O512 2.039 . S
Co501 N515 2.140 . S
C502 O503 1.227 . S
C502 O512 1.265 . S
O503 C502 1.227 . S
N504 Co501 2.121 . S
N504 C506 1.375 . S
N504 C507 1.313 . S
C505 C506 1.338 . S
C505 N508 1.377 . S
C505 H525 0.930 . S
C506 N504 1.375 . S
C506 C505 1.338 . S
C506 H510 0.931 . S
C507 N504 1.313 . S
C507 N508 1.344 . S
C507 H511 0.930 . S
N508 C505 1.377 . S
N508 C507 1.344 . S
O509 Co501 2.055 . S
O509 C513 1.253 . S
H510 C506 0.931 . S
H511 C507 0.930 . S
O512 Co501 2.039 . S
O512 C502 1.265 . S
C513 O509 1.253 . S
C513 O514 1.227 . S
O514 C513 1.227 . S
N515 Co501 2.140 . S
N515 C518 1.346 . S
N515 C519 1.345 . S
C516 C517 1.387 . S
C516 C520 1.391 . S
C517 C516 1.387 . S
C517 C518 1.369 . S
C517 H526 0.929 . S
C518 N515 1.346 . S
C518 C517 1.369 . S
C518 H521 0.928 . S
C519 N515 1.345 . S
C519 C520 1.371 . S
C519 H522 0.931 . S
C520 C516 1.391 . S
C520 C519 1.371 . S
C520 H527 0.930 . S
H521 C518 0.928 . S
H522 C519 0.931 . S
H523 C499 0.930 . S
H524 C496 0.930 . S
H525 C505 0.930 . S
H526 C517 0.929 . S
H527 C520 0.930 . S
H528 C534 0.930 . S
H529 C537 0.930 . S
H530 C538 0.930 . S
H531 C539 0.930 . S
H532 C542 0.930 . S
H533 C543 0.930 . S
C534 H528 0.930 . S
C534 C535 1.355 . S
C534 C536 1.415 . S
C535 C534 1.355 . S
C535 C537 1.419 . S
C536 C534 1.415 . S
C536 C541 1.425 . S
C536 C543 1.409 . S
C537 H529 0.930 . S
C537 C535 1.419 . S
C537 C538 1.362 . S
C538 H530 0.930 . S
C538 C537 1.362 . S
C538 C541 1.409 . S
C539 H531 0.930 . S
C539 C540 1.355 . S
C539 C541 1.415 . S
C540 C539 1.355 . S
C540 C542 1.419 . S
C541 C536 1.425 . S
C541 C538 1.409 . S
C541 C539 1.415 . S
C542 H532 0.930 . S
C542 C540 1.419 . S
C542 C543 1.362 . S
C543 H533 0.930 . S
C543 C536 1.409 . S
C543 C542 1.362 . S
H544 C550 0.930 . S
H545 C553 0.930 . S
H546 C554 0.930 . S
H547 C555 0.930 . S
H548 C558 0.930 . S
H549 C559 0.930 . S
C550 H544 0.930 . S
C550 C551 1.355 . S
C550 C552 1.415 . S
C551 C550 1.355 . S
C551 C553 1.419 . S
C552 C550 1.415 . S
C552 C557 1.425 . S
C552 C559 1.409 . S
C553 H545 0.930 . S
C553 C551 1.419 . S
C553 C554 1.362 . S
C554 H546 0.930 . S
C554 C553 1.362 . S
C554 C557 1.409 . S
C555 H547 0.930 . S
C555 C556 1.355 . S
C555 C557 1.415 . S
C556 C555 1.355 . S
C556 C558 1.419 . S
C557 C552 1.425 . S
C557 C554 1.409 . S
C557 C555 1.415 . S
C558 H548 0.930 . S
C558 C556 1.419 . S
C558 C559 1.362 . S
C559 H549 0.930 . S
C559 C552 1.409 . S
C559 C558 1.362 . S
H560 C566 0.930 . S
H561 C569 0.930 . S
H562 C570 0.930 . S
H563 C571 0.930 . S
H564 C574 0.930 . S
H565 C575 0.930 . S
C566 H560 0.930 . S
C566 C567 1.355 . S
C566 C568 1.415 . S
C567 C566 1.355 . S
C567 C569 1.419 . S
C568 C566 1.415 . S
C568 C573 1.425 . S
C568 C575 1.409 . S
C569 H561 0.930 . S
C569 C567 1.419 . S
C569 C570 1.362 . S
C570 H562 0.930 . S
C570 C569 1.362 . S
C570 C573 1.409 . S
C571 H563 0.930 . S
C571 C572 1.355 . S
C571 C573 1.415 . S
C572 C571 1.355 . S
C572 C574 1.419 . S
C573 C568 1.425 . S
C573 C570 1.409 . S
C573 C571 1.415 . S
C574 H564 0.930 . S
C574 C572 1.419 . S
C574 C575 1.362 . S
C575 H565 0.930 . S
C575 C568 1.409 . S
C575 C574 1.362 . S
H576 C582 0.930 . S
H577 C585 0.930 . S
H578 C586 0.930 . S
H579 C587 0.930 . S
H580 C590 0.930 . S
H581 C591 0.930 . S
C582 H576 0.930 . S
C582 C583 1.355 . S
C582 C584 1.415 . S
C583 C582 1.355 . S
C583 C585 1.419 . S
C584 C582 1.415 . S
C584 C589 1.425 . S
C584 C591 1.409 . S
C585 H577 0.930 . S
C585 C583 1.419 . S
C585 C586 1.362 . S
C586 H578 0.930 . S
C586 C585 1.362 . S
C586 C589 1.409 . S
C587 H579 0.930 . S
C587 C588 1.355 . S
C587 C589 1.415 . S
C588 C587 1.355 . S
C588 C590 1.419 . S
C589 C584 1.425 . S
C589 C586 1.409 . S
C589 C587 1.415 . S
C590 H580 0.930 . S
C590 C588 1.419 . S
C590 C591 1.362 . S
C591 H581 0.930 . S
C591 C584 1.409 . S
C591 C590 1.362 . S
H592 C598 0.930 . S
H593 C601 0.930 . S
H594 C602 0.930 . S
H595 C603 0.930 . S
H596 C606 0.930 . S
H597 C607 0.930 . S
C598 H592 0.930 . S
C598 C599 1.355 . S
C598 C600 1.415 . S
C599 C598 1.355 . S
C599 C601 1.419 . S
C600 C598 1.415 . S
C600 C605 1.425 . S
C600 C607 1.409 . S
C601 H593 0.930 . S
C601 C599 1.419 . S
C601 C602 1.362 . S
C602 H594 0.930 . S
C602 C601 1.362 . S
C602 C605 1.409 . S
C603 H595 0.930 . S
C603 C604 1.355 . S
C603 C605 1.415 . S
C604 C603 1.355 . S
C604 C606 1.419 . S
C605 C600 1.425 . S
C605 C602 1.409 . S
C605 C603 1.415 . S
C606 H596 0.930 . S
C606 C604 1.419 . S
C606 C607 1.362 . S
C607 H597 0.930 . S
C607 C600 1.409 . S
C607 C606 1.362 . S
H608 C614 0.930 . S
H609 C617 0.930 . S
H610 C618 0.930 . S
H611 C619 0.930 . S
H612 C622 0.930 . S
H613 C623 0.930 . S
C614 H608 0.930 . S
C614 C615 1.355 . S
C614 C616 1.415 . S
C615 C614 1.355 . S
C615 C617 1.419 . S
C616 C614 1.415 . S
C616 C621 1.425 . S
C616 C623 1.409 . S
C617 H609 0.930 . S
C617 C615 1.419 . S
C617 C618 1.362 . S
C618 H610 0.930 . S
C618 C617 1.362 . S
C618 C621 1.409 . S
C619 H611 0.930 . S
C619 C620 1.355 . S
C619 C621 1.415 . S
C620 C619 1.355 . S
C620 C622 1.419 . S
C621 C616 1.425 . S
C621 C618 1.409 . S
C621 C619 1.415 . S
C622 H612 0.930 . S
C622 C620 1.419 . S
C622 C623 1.362 . S
C623 H613 0.930 . S
C623 C616 1.409 . S
C623 C622 1.362 . S
H624 C630 0.930 . S
H625 C633 0.930 . S
H626 C634 0.930 . S
H627 C635 0.930 . S
H628 C638 0.930 . S
H629 C639 0.930 . S
C630 H624 0.930 . S
C630 C631 1.355 . S
C630 C632 1.415 . S
C631 C630 1.355 . S
C631 C633 1.419 . S
C632 C630 1.415 . S
C632 C637 1.425 . S
C632 C639 1.409 . S
C633 H625 0.930 . S
C633 C631 1.419 . S
C633 C634 1.362 . S
C634 H626 0.930 . S
C634 C633 1.362 . S
C634 C637 1.409 . S
C635 H627 0.930 . S
C635 C636 1.355 . S
C635 C637 1.415 . S
C636 C635 1.355 . S
C636 C638 1.419 . S
C637 C632 1.425 . S
C637 C634 1.409 . S
C637 C635 1.415 . S
C638 H628 0.930 . S
C638 C636 1.419 . S
C638 C639 1.362 . S
C639 H629 0.930 . S
C639 C632 1.409 . S
C639 C638 1.362 . S
H640 C646 0.930 . S
H641 C649 0.930 . S
H642 C650 0.930 . S
H643 C651 0.930 . S
H644 C654 0.930 . S
H645 C655 0.930 . S
C646 H640 0.930 . S
C646 C647 1.355 . S
C646 C648 1.415 . S
C647 C646 1.355 . S
C647 C649 1.419 . S
C648 C646 1.415 . S
C648 C653 1.425 . S
C648 C655 1.409 . S
C649 H641 0.930 . S
C649 C647 1.419 . S
C649 C650 1.362 . S
C650 H642 0.930 . S
C650 C649 1.362 . S
C650 C653 1.409 . S
C651 H643 0.930 . S
C651 C652 1.355 . S
C651 C653 1.415 . S
C652 C651 1.355 . S
C652 C654 1.419 . S
C653 C648 1.425 . S
C653 C650 1.409 . S
C653 C651 1.415 . S
C654 H644 0.930 . S
C654 C652 1.419 . S
C654 C655 1.362 . S
C655 H645 0.930 . S
C655 C648 1.409 . S
C655 C654 1.362 . S
H656 C662 0.930 . S
H657 C665 0.930 . S
H658 C666 0.930 . S
H659 C667 0.930 . S
H660 C670 0.930 . S
H661 C671 0.930 . S
C662 H656 0.930 . S
C662 C663 1.355 . S
C662 C664 1.415 . S
C663 C662 1.355 . S
C663 C665 1.419 . S
C664 C662 1.415 . S
C664 C669 1.425 . S
C664 C671 1.409 . S
C665 H657 0.930 . S
C665 C663 1.419 . S
C665 C666 1.362 . S
C666 H658 0.930 . S
C666 C665 1.362 . S
C666 C669 1.409 . S
C667 H659 0.930 . S
C667 C668 1.355 . S
C667 C669 1.415 1_556 S
C668 C667 1.355 . S
C668 C670 1.419 . S
C669 C664 1.425 . S
C669 C666 1.409 . S
C669 C667 1.415 1_554 S
C670 H660 0.930 . S
C670 C668 1.419 . S
C670 C671 1.362 1_556 S
C671 H661 0.930 . S
C671 C664 1.409 . S
C671 C670 1.362 1_554 S
H672 C678 0.930 . S
H673 C681 0.930 . S
H674 C682 0.930 . S
H675 C683 0.930 . S
H676 C686 0.930 . S
H677 C687 0.930 . S
C678 H672 0.930 . S
C678 C679 1.355 . S
C678 C680 1.415 . S
C679 C678 1.355 . S
C679 C681 1.419 . S
C680 C678 1.415 . S
C680 C685 1.425 . S
C680 C687 1.409 . S
C681 H673 0.930 . S
C681 C679 1.419 . S
C681 C682 1.362 . S
C682 H674 0.930 . S
C682 C681 1.362 . S
C682 C685 1.409 . S
C683 H675 0.930 . S
C683 C684 1.355 . S
C683 C685 1.415 1_556 S
C684 C683 1.355 . S
C684 C686 1.419 . S
C685 C680 1.425 . S
C685 C682 1.409 . S
C685 C683 1.415 1_554 S
C686 H676 0.930 . S
C686 C684 1.419 . S
C686 C687 1.362 1_556 S
C687 H677 0.930 . S
C687 C680 1.409 . S
C687 C686 1.362 1_554 S
H688 C694 0.930 . S
H689 C697 0.930 . S
H690 C698 0.930 . S
H691 C699 0.930 . S
H692 C702 0.930 . S
H693 C703 0.930 . S
C694 H688 0.930 . S
C694 C695 1.355 . S
C694 C696 1.415 . S
C695 C694 1.355 . S
C695 C697 1.419 . S
C696 C694 1.415 . S
C696 C701 1.425 . S
C696 C703 1.409 . S
C697 H689 0.930 . S
C697 C695 1.419 . S
C697 C698 1.362 . S
C698 H690 0.930 . S
C698 C697 1.362 . S
C698 C701 1.409 . S
C699 H691 0.930 . S
C699 C700 1.355 . S
C699 C701 1.415 1_556 S
C700 C699 1.355 . S
C700 C702 1.419 . S
C701 C696 1.425 . S
C701 C698 1.409 . S
C701 C699 1.415 1_554 S
C702 H692 0.930 . S
C702 C700 1.419 . S
C702 C703 1.362 1_556 S
C703 H693 0.930 . S
C703 C696 1.409 . S
C703 C702 1.362 1_554 S
H704 C710 0.930 . S
H705 C713 0.930 . S
H706 C714 0.930 . S
H707 C715 0.930 . S
H708 C718 0.930 . S
H709 C719 0.930 . S
C710 H704 0.930 . S
C710 C711 1.355 . S
C710 C712 1.415 . S
C711 C710 1.355 . S
C711 C713 1.419 . S
C712 C710 1.415 . S
C712 C717 1.425 . S
C712 C719 1.409 . S
C713 H705 0.930 . S
C713 C711 1.419 . S
C713 C714 1.362 . S
C714 H706 0.930 . S
C714 C713 1.362 . S
C714 C717 1.409 . S
C715 H707 0.930 . S
C715 C716 1.355 . S
C715 C717 1.415 1_556 S
C716 C715 1.355 . S
C716 C718 1.419 . S
C717 C712 1.425 . S
C717 C714 1.409 . S
C717 C715 1.415 1_554 S
C718 H708 0.930 . S
C718 C716 1.419 . S
C718 C719 1.362 1_556 S
C719 H709 0.930 . S
C719 C712 1.409 . S
C719 C718 1.362 1_554 S
H720 C726 0.930 . S
H721 C729 0.930 . S
H722 C730 0.930 . S
H723 C731 0.930 . S
H724 C734 0.930 . S
H725 C735 0.930 . S
C726 H720 0.930 . S
C726 C727 1.355 . S
C726 C728 1.415 1_554 S
C727 C726 1.355 . S
C727 C729 1.419 . S
C728 C726 1.415 1_556 S
C728 C733 1.425 . S
C728 C735 1.409 . S
C729 H721 0.930 . S
C729 C727 1.419 . S
C729 C730 1.362 1_554 S
C730 H722 0.930 . S
C730 C729 1.362 1_556 S
C730 C733 1.409 . S
C731 H723 0.930 . S
C731 C732 1.355 . S
C731 C733 1.415 . S
C732 C731 1.355 . S
C732 C734 1.419 . S
C733 C728 1.425 . S
C733 C730 1.409 . S
C733 C731 1.415 . S
C734 H724 0.930 . S
C734 C732 1.419 . S
C734 C735 1.362 . S
C735 H725 0.930 . S
C735 C728 1.409 . S
C735 C734 1.362 . S
H736 C742 0.930 1_554 S
H737 C745 0.930 . S
H738 C746 0.930 . S
H739 C747 0.930 . S
H740 C750 0.930 . S
H741 C751 0.930 . S
C742 H736 0.930 1_556 S
C742 C743 1.355 1_556 S
C742 C744 1.415 . S
C743 C742 1.355 1_554 S
C743 C745 1.419 . S
C744 C742 1.415 . S
C744 C749 1.425 . S
C744 C751 1.409 . S
C745 H737 0.930 . S
C745 C743 1.419 . S
C745 C746 1.362 1_554 S
C746 H738 0.930 . S
C746 C745 1.362 1_556 S
C746 C749 1.409 . S
C747 H739 0.930 . S
C747 C748 1.355 . S
C747 C749 1.415 . S
C748 C747 1.355 . S
C748 C750 1.419 . S
C749 C744 1.425 . S
C749 C746 1.409 . S
C749 C747 1.415 . S
C750 H740 0.930 . S
C750 C748 1.419 . S
C750 C751 1.362 . S
C751 H741 0.930 . S
C751 C744 1.409 . S
C751 C750 1.362 . S
H752 C758 0.930 . S
H753 C761 0.930 . S
H754 C762 0.930 . S
H755 C763 0.930 . S
H756 C766 0.930 . S
H757 C767 0.930 . S
C758 H752 0.930 . S
C758 C759 1.355 . S
C758 C760 1.415 1_554 S
C759 C758 1.355 . S
C759 C761 1.419 . S
C760 C758 1.415 1_556 S
C760 C765 1.425 . S
C760 C767 1.409 . S
C761 H753 0.930 . S
C761 C759 1.419 . S
C761 C762 1.362 1_554 S
C762 H754 0.930 . S
C762 C761 1.362 1_556 S
C762 C765 1.409 . S
C763 H755 0.930 . S
C763 C764 1.355 . S
C763 C765 1.415 . S
C764 C763 1.355 . S
C764 C766 1.419 . S
C765 C760 1.425 . S
C765 C762 1.409 . S
C765 C763 1.415 . S
C766 H756 0.930 . S
C766 C764 1.419 . S
C766 C767 1.362 . S
C767 H757 0.930 . S
C767 C760 1.409 . S
C767 C766 1.362 . S
H768 C774 0.930 . S
H769 C777 0.930 . S
H770 C778 0.930 . S
H771 C779 0.930 . S
H772 C782 0.930 . S
H773 C783 0.930 . S
C774 H768 0.930 . S
C774 C775 1.355 . S
C774 C776 1.415 1_554 S
C775 C774 1.355 . S
C775 C777 1.419 . S
C776 C774 1.415 1_556 S
C776 C781 1.425 . S
C776 C783 1.409 . S
C777 H769 0.930 . S
C777 C775 1.419 . S
C777 C778 1.362 1_554 S
C778 H770 0.930 . S
C778 C777 1.362 1_556 S
C778 C781 1.409 . S
C779 H771 0.930 . S
C779 C780 1.355 . S
C779 C781 1.415 . S
C780 C779 1.355 . S
C780 C782 1.419 . S
C781 C776 1.425 . S
C781 C778 1.409 . S
C781 C779 1.415 . S
C782 H772 0.930 . S
C782 C780 1.419 . S
C782 C783 1.362 . S
C783 H773 0.930 . S
C783 C776 1.409 . S
C783 C782 1.362 . S
H784 C790 0.930 . S
H785 C793 0.930 . S
H786 C794 0.930 . S
H787 C795 0.930 . S
H788 C798 0.930 . S
H789 C799 0.930 . S
C790 H784 0.930 . S
C790 C791 1.355 . S
C790 C792 1.415 . S
C791 C790 1.355 . S
C791 C793 1.419 . S
C792 C790 1.415 . S
C792 C797 1.425 . S
C792 C799 1.409 . S
C793 H785 0.930 . S
C793 C791 1.419 . S
C793 C794 1.362 . S
C794 H786 0.930 . S
C794 C793 1.362 . S
C794 C797 1.409 . S
C795 H787 0.930 . S
C795 C796 1.355 . S
C795 C797 1.415 . S
C796 C795 1.355 . S
C796 C798 1.419 . S
C797 C792 1.425 . S
C797 C794 1.409 . S
C797 C795 1.415 . S
C798 H788 0.930 . S
C798 C796 1.419 . S
C798 C799 1.362 . S
C799 H789 0.930 . S
C799 C792 1.409 . S
C799 C798 1.362 . S
H800 C806 0.930 . S
H801 C809 0.930 . S
H802 C810 0.930 . S
H803 C811 0.930 . S
H804 C814 0.930 . S
H805 C815 0.930 . S
C806 H800 0.930 . S
C806 C807 1.355 . S
C806 C808 1.415 . S
C807 C806 1.355 . S
C807 C809 1.419 . S
C808 C806 1.415 . S
C808 C813 1.425 . S
C808 C815 1.409 . S
C809 H801 0.930 . S
C809 C807 1.419 . S
C809 C810 1.362 . S
C810 H802 0.930 . S
C810 C809 1.362 . S
C810 C813 1.409 . S
C811 H803 0.930 . S
C811 C812 1.355 . S
C811 C813 1.415 . S
C812 C811 1.355 . S
C812 C814 1.419 . S
C813 C808 1.425 . S
C813 C810 1.409 . S
C813 C811 1.415 . S
C814 H804 0.930 . S
C814 C812 1.419 . S
C814 C815 1.362 . S
C815 H805 0.930 . S
C815 C808 1.409 . S
C815 C814 1.362 . S
H816 C822 0.930 . S
H817 C825 0.930 . S
H818 C826 0.930 . S
H819 C827 0.930 . S
H820 C830 0.930 . S
H821 C831 0.930 . S
C822 H816 0.930 . S
C822 C823 1.355 . S
C822 C824 1.415 . S
C823 C822 1.355 . S
C823 C825 1.419 . S
C824 C822 1.415 . S
C824 C829 1.425 . S
C824 C831 1.409 . S
C825 H817 0.930 . S
C825 C823 1.419 . S
C825 C826 1.362 . S
C826 H818 0.930 . S
C826 C825 1.362 . S
C826 C829 1.409 . S
C827 H819 0.930 . S
C827 C828 1.355 . S
C827 C829 1.415 . S
C828 C827 1.355 . S
C828 C830 1.419 . S
C829 C824 1.425 . S
C829 C826 1.409 . S
C829 C827 1.415 . S
C830 H820 0.930 . S
C830 C828 1.419 . S
C830 C831 1.362 . S
C831 H821 0.930 . S
C831 C824 1.409 . S
C831 C830 1.362 . S
H832 C838 0.930 . S
H833 C841 0.930 . S
H834 C842 0.930 . S
H835 C843 0.930 . S
H836 C846 0.930 . S
H837 C847 0.930 . S
C838 H832 0.930 . S
C838 C839 1.355 . S
C838 C840 1.415 . S
C839 C838 1.355 . S
C839 C841 1.419 . S
C840 C838 1.415 . S
C840 C845 1.425 . S
C840 C847 1.409 . S
C841 H833 0.930 . S
C841 C839 1.419 . S
C841 C842 1.362 . S
C842 H834 0.930 . S
C842 C841 1.362 . S
C842 C845 1.409 . S
C843 H835 0.930 . S
C843 C844 1.355 . S
C843 C845 1.415 . S
C844 C843 1.355 . S
C844 C846 1.419 . S
C845 C840 1.425 . S
C845 C842 1.409 . S
C845 C843 1.415 . S
C846 H836 0.930 . S
C846 C844 1.419 . S
C846 C847 1.362 . S
C847 H837 0.930 . S
C847 C840 1.409 . S
C847 C846 1.362 . S
H848 C854 0.930 . S
H849 C857 0.930 . S
H850 C858 0.930 . S
H851 C859 0.930 . S
H852 C862 0.930 . S
H853 C863 0.930 . S
C854 H848 0.930 . S
C854 C855 1.355 . S
C854 C856 1.415 . S
C855 C854 1.355 . S
C855 C857 1.419 . S
C856 C854 1.415 . S
C856 C861 1.425 . S
C856 C863 1.409 . S
C857 H849 0.930 . S
C857 C855 1.419 . S
C857 C858 1.362 . S
C858 H850 0.930 . S
C858 C857 1.362 . S
C858 C861 1.409 . S
C859 H851 0.930 . S
C859 C860 1.355 . S
C859 C861 1.415 . S
C860 C859 1.355 . S
C860 C862 1.419 . S
C861 C856 1.425 . S
C861 C858 1.409 . S
C861 C859 1.415 . S
C862 H852 0.930 . S
C862 C860 1.419 . S
C862 C863 1.362 . S
C863 H853 0.930 . S
C863 C856 1.409 . S
C863 C862 1.362 . S
H864 C870 0.930 . S
H865 C873 0.930 . S
H866 C874 0.930 . S
H867 C875 0.930 . S
H868 C878 0.930 . S
H869 C879 0.930 . S
C870 H864 0.930 . S
C870 C871 1.355 . S
C870 C872 1.415 . S
C871 C870 1.355 . S
C871 C873 1.419 . S
C872 C870 1.415 . S
C872 C877 1.425 . S
C872 C879 1.409 . S
C873 H865 0.930 . S
C873 C871 1.419 . S
C873 C874 1.362 . S
C874 H866 0.930 . S
C874 C873 1.362 . S
C874 C877 1.409 . S
C875 H867 0.930 . S
C875 C876 1.355 . S
C875 C877 1.415 . S
C876 C875 1.355 . S
C876 C878 1.419 . S
C877 C872 1.425 . S
C877 C874 1.409 . S
C877 C875 1.415 . S
C878 H868 0.930 . S
C878 C876 1.419 . S
C878 C879 1.362 . S
C879 H869 0.930 . S
C879 C872 1.409 . S
C879 C878 1.362 . S
H880 C886 0.930 . S
H881 C889 0.930 . S
H882 C890 0.930 . S
H883 C891 0.930 . S
H884 C894 0.930 . S
H885 C895 0.930 . S
C886 H880 0.930 . S
C886 C887 1.355 . S
C886 C888 1.415 . S
C887 C886 1.355 . S
C887 C889 1.419 . S
C888 C886 1.415 . S
C888 C893 1.425 . S
C888 C895 1.409 . S
C889 H881 0.930 . S
C889 C887 1.419 . S
C889 C890 1.362 . S
C890 H882 0.930 . S
C890 C889 1.362 . S
C890 C893 1.409 . S
C891 H883 0.930 . S
C891 C892 1.355 . S
C891 C893 1.415 . S
C892 C891 1.355 . S
C892 C894 1.419 . S
C893 C888 1.425 . S
C893 C890 1.409 . S
C893 C891 1.415 . S
C894 H884 0.930 . S
C894 C892 1.419 . S
C894 C895 1.362 . S
C895 H885 0.930 . S
C895 C888 1.409 . S
C895 C894 1.362 . S
H896 C902 0.930 . S
H897 C905 0.930 . S
H898 C906 0.930 . S
H899 C907 0.930 . S
H900 C910 0.930 . S
H901 C911 0.930 . S
C902 H896 0.930 . S
C902 C903 1.355 . S
C902 C904 1.415 . S
C903 C902 1.355 . S
C903 C905 1.419 . S
C904 C902 1.415 . S
C904 C909 1.425 . S
C904 C911 1.409 . S
C905 H897 0.930 . S
C905 C903 1.419 . S
C905 C906 1.362 . S
C906 H898 0.930 . S
C906 C905 1.362 . S
C906 C909 1.409 . S
C907 H899 0.930 . S
C907 C908 1.355 . S
C907 C909 1.415 . S
C908 C907 1.355 . S
C908 C910 1.419 . S
C909 C904 1.425 . S
C909 C906 1.409 . S
C909 C907 1.415 . S
C910 H900 0.930 . S
C910 C908 1.419 . S
C910 C911 1.362 . S
C911 H901 0.930 . S
C911 C904 1.409 . S
C911 C910 1.362 . S
H912 C918 0.930 . S
H913 C921 0.930 . S
H914 C922 0.930 1_565 S
H915 C923 0.930 . S
H916 C926 0.930 . S
H917 C927 0.930 1_545 S
C918 H912 0.930 . S
C918 C919 1.355 1_556 S
C918 C920 1.415 . S
C919 C918 1.355 1_554 S
C919 C921 1.419 . S
C920 C918 1.415 . S
C920 C925 1.425 1_546 S
C920 C927 1.409 1_545 S
C921 H913 0.930 . S
C921 C919 1.419 . S
C921 C922 1.362 . S
C922 H914 0.930 1_545 S
C922 C921 1.362 . S
C922 C925 1.409 1_545 S
C923 H915 0.930 . S
C923 C924 1.355 1_554 S
C923 C925 1.415 . S
C924 C923 1.355 1_556 S
C924 C926 1.419 . S
C925 C920 1.425 1_564 S
C925 C922 1.409 1_565 S
C925 C923 1.415 . S
C926 H916 0.930 . S
C926 C924 1.419 . S
C926 C927 1.362 . S
C927 H917 0.930 1_565 S
C927 C920 1.409 1_565 S
C927 C926 1.362 . S
H928 C934 0.930 . S
H929 C937 0.930 . S
H930 C938 0.930 1_655 S
H931 C939 0.930 . S
H932 C942 0.930 . S
H933 C943 0.930 1_455 S
C934 H928 0.930 . S
C934 C935 1.355 1_554 S
C934 C936 1.415 . S
C935 C934 1.355 1_556 S
C935 C937 1.419 . S
C936 C934 1.415 . S
C936 C941 1.425 1_454 S
C936 C943 1.409 1_455 S
C937 H929 0.930 . S
C937 C935 1.419 . S
C937 C938 1.362 . S
C938 H930 0.930 1_455 S
C938 C937 1.362 . S
C938 C941 1.409 1_455 S
C939 H931 0.930 . S
C939 C940 1.355 1_556 S
C939 C941 1.415 . S
C940 C939 1.355 1_554 S
C940 C942 1.419 . S
C941 C936 1.425 1_656 S
C941 C938 1.409 1_655 S
C941 C939 1.415 . S
C942 H932 0.930 . S
C942 C940 1.419 . S
C942 C943 1.362 . S
C943 H933 0.930 1_655 S
C943 C936 1.409 1_655 S
C943 C942 1.362 . S
H944 C950 0.930 1_556 S
H945 C953 0.930 . S
H946 C954 0.957 . S
H947 C955 0.930 1_554 S
H948 C958 0.930 . S
H949 C959 0.957 . S
C950 H944 0.930 1_554 S
C950 C951 1.355 . S
C950 C952 1.415 1_554 S
C951 C950 1.355 . S
C951 C953 1.419 . S
C952 C950 1.415 1_556 S
C952 C957 1.425 1_566 S
C952 C959 1.409 1_565 S
C953 H945 0.930 . S
C953 C951 1.419 . S
C953 C954 1.362 . S
C954 H946 0.957 . S
C954 C953 1.362 . S
C954 C957 1.409 1_565 S
C955 H947 0.930 1_556 S
C955 C956 1.355 . S
C955 C957 1.415 1_556 S
C956 C955 1.355 . S
C956 C958 1.419 . S
C957 C952 1.425 1_544 S
C957 C954 1.409 1_545 S
C957 C955 1.415 1_554 S
C958 H948 0.930 . S
C958 C956 1.419 . S
C958 C959 1.362 . S
C959 H949 0.957 . S
C959 C952 1.409 1_545 S
C959 C958 1.362 . S
H960 C966 0.930 . S
H961 C969 0.930 . S
H962 C970 0.930 . S
H963 C971 0.930 . S
H964 C974 0.930 . S
H965 C975 0.930 . S
C966 H960 0.930 . S
C966 C967 1.355 . S
C966 C968 1.467 . S
C967 C966 1.355 . S
C967 C969 1.419 1_556 S
C968 C966 1.467 . S
C968 C973 1.420 1_656 S
C968 C975 1.362 1_655 S
C969 H961 0.930 . S
C969 C967 1.419 1_554 S
C969 C970 1.362 . S
C970 H962 0.930 . S
C970 C969 1.362 . S
C970 C973 1.362 1_655 S
C971 H963 0.930 . S
C971 C972 1.355 . S
C971 C973 1.467 . S
C972 C971 1.355 . S
C972 C974 1.419 1_554 S
C973 C968 1.420 1_454 S
C973 C970 1.362 1_455 S
C973 C971 1.467 . S
C974 H964 0.930 . S
C974 C972 1.419 1_556 S
C974 C975 1.362 . S
C975 H965 0.930 . S
C975 C968 1.362 1_455 S
C975 C974 1.362 . S
H976 C982 0.930 . S
H977 C985 0.930 . S
H978 C986 0.930 . S
H979 C987 0.930 . S
H980 C990 0.930 . S
H981 C991 0.930 . S
C982 H976 0.930 . S
C982 C983 1.355 . S
C982 C984 1.415 . S
C983 C982 1.355 . S
C983 C985 1.419 . S
C984 C982 1.415 . S
C984 C989 1.425 . S
C984 C991 1.409 . S
C985 H977 0.930 . S
C985 C983 1.419 . S
C985 C986 1.362 . S
C986 H978 0.930 . S
C986 C985 1.362 . S
C986 C989 1.409 . S
C987 H979 0.930 . S
C987 C988 1.355 . S
C987 C989 1.415 . S
C988 C987 1.355 . S
C988 C990 1.419 . S
C989 C984 1.425 . S
C989 C986 1.409 . S
C989 C987 1.415 . S
C990 H980 0.930 . S
C990 C988 1.419 . S
C990 C991 1.362 . S
C991 H981 0.930 . S
C991 C984 1.409 . S
C991 C990 1.362 . S
H992 C998 0.930 . S
H993 C1001 0.930 . S
H994 C1002 0.930 . S
H995 C1003 0.930 . S
H996 C1006 0.930 . S
H997 C1007 0.930 . S
C998 H992 0.930 . S
C998 C999 1.355 . S
C998 C1000 1.415 . S
C999 C998 1.355 . S
C999 C1001 1.419 . S
C1000 C998 1.415 . S
C1000 C1005 1.425 . S
C1000 C1007 1.409 . S
C1001 H993 0.930 . S
C1001 C999 1.419 . S
C1001 C1002 1.362 . S
C1002 H994 0.930 . S
C1002 C1001 1.362 . S
C1002 C1005 1.409 . S
C1003 H995 0.930 . S
C1003 C1004 1.355 . S
C1003 C1005 1.415 . S
C1004 C1003 1.355 . S
C1004 C1006 1.419 . S
C1005 C1000 1.425 . S
C1005 C1002 1.409 . S
C1005 C1003 1.415 . S
C1006 H996 0.930 . S
C1006 C1004 1.419 . S
C1006 C1007 1.362 . S
C1007 H997 0.930 . S
C1007 C1000 1.409 . S
C1007 C1006 1.362 . S
H1008 C1014 0.930 . S
H1009 C1017 0.930 . S
H1010 C1018 0.930 . S
H1011 C1019 0.930 . S
H1012 C1022 0.930 . S
H1013 C1023 0.930 . S
C1014 H1008 0.930 . S
C1014 C1015 1.355 . S
C1014 C1016 1.415 . S
C1015 C1014 1.355 . S
C1015 C1017 1.419 . S
C1016 C1014 1.415 . S
C1016 C1021 1.425 . S
C1016 C1023 1.409 . S
C1017 H1009 0.930 . S
C1017 C1015 1.419 . S
C1017 C1018 1.362 . S
C1018 H1010 0.930 . S
C1018 C1017 1.362 . S
C1018 C1021 1.409 . S
C1019 H1011 0.930 . S
C1019 C1020 1.355 . S
C1019 C1021 1.415 . S
C1020 C1019 1.355 . S
C1020 C1022 1.419 . S
C1021 C1016 1.425 . S
C1021 C1018 1.409 . S
C1021 C1019 1.415 . S
C1022 H1012 0.930 . S
C1022 C1020 1.419 . S
C1022 C1023 1.362 . S
C1023 H1013 0.930 . S
C1023 C1016 1.409 . S
C1023 C1022 1.362 . S
H1024 C1030 0.930 . S
H1025 C1033 0.930 . S
H1026 C1034 0.930 . S
H1027 C1035 0.930 . S
H1028 C1038 0.930 . S
H1029 C1039 0.930 . S
C1030 H1024 0.930 . S
C1030 C1031 1.355 . S
C1030 C1032 1.415 . S
C1031 C1030 1.355 . S
C1031 C1033 1.419 . S
C1032 C1030 1.415 . S
C1032 C1037 1.425 . S
C1032 C1039 1.409 . S
C1033 H1025 0.930 . S
C1033 C1031 1.419 . S
C1033 C1034 1.362 . S
C1034 H1026 0.930 . S
C1034 C1033 1.362 . S
C1034 C1037 1.409 . S
C1035 H1027 0.930 . S
C1035 C1036 1.355 . S
C1035 C1037 1.415 . S
C1036 C1035 1.355 . S
C1036 C1038 1.419 . S
C1037 C1032 1.425 . S
C1037 C1034 1.409 . S
C1037 C1035 1.415 . S
C1038 H1028 0.930 . S
C1038 C1036 1.419 . S
C1038 C1039 1.362 . S
C1039 H1029 0.930 . S
C1039 C1032 1.409 . S
C1039 C1038 1.362 . S
H1040 C1046 0.930 . S
H1041 C1049 0.930 . S
H1042 C1050 0.930 . S
H1043 C1051 0.930 . S
H1044 C1054 0.930 . S
H1045 C1055 0.930 . S
C1046 H1040 0.930 . S
C1046 C1047 1.355 . S
C1046 C1048 1.415 . S
C1047 C1046 1.355 . S
C1047 C1049 1.419 1_554 S
C1048 C1046 1.415 . S
C1048 C1053 1.425 1_554 S
C1048 C1055 1.409 . S
C1049 H1041 0.930 . S
C1049 C1047 1.419 1_556 S
C1049 C1050 1.362 . S
C1050 H1042 0.930 . S
C1050 C1049 1.362 . S
C1050 C1053 1.409 . S
C1051 H1043 0.930 . S
C1051 C1052 1.355 . S
C1051 C1053 1.415 . S
C1052 C1051 1.355 . S
C1052 C1054 1.419 1_556 S
C1053 C1048 1.425 1_556 S
C1053 C1050 1.409 . S
C1053 C1051 1.415 . S
C1054 H1044 0.930 . S
C1054 C1052 1.419 1_554 S
C1054 C1055 1.362 . S
C1055 H1045 0.930 . S
C1055 C1048 1.409 . S
C1055 C1054 1.362 . S
H1056 C1062 0.930 . S
H1057 C1065 0.930 . S
H1058 C1066 0.930 1_556 S
H1059 C1067 0.930 . S
H1060 C1070 0.930 . S
H1061 C1071 0.930 1_554 S
C1062 H1056 0.930 . S
C1062 C1063 1.355 . S
C1062 C1064 1.415 . S
C1063 C1062 1.355 . S
C1063 C1065 1.419 . S
C1064 C1062 1.415 . S
C1064 C1069 1.425 1_554 S
C1064 C1071 1.409 1_554 S
C1065 H1057 0.930 . S
C1065 C1063 1.419 . S
C1065 C1066 1.362 . S
C1066 H1058 0.930 1_554 S
C1066 C1065 1.362 . S
C1066 C1069 1.409 1_554 S
C1067 H1059 0.930 . S
C1067 C1068 1.355 . S
C1067 C1069 1.415 . S
C1068 C1067 1.355 . S
C1068 C1070 1.419 . S
C1069 C1064 1.425 1_556 S
C1069 C1066 1.409 1_556 S
C1069 C1067 1.415 . S
C1070 H1060 0.930 . S
C1070 C1068 1.419 . S
C1070 C1071 1.362 . S
C1071 H1061 0.930 1_556 S
C1071 C1064 1.409 1_556 S
C1071 C1070 1.362 . S
H1072 C1078 0.930 . S
H1073 C1081 0.930 . S
H1074 C1082 0.930 . S
H1075 C1083 0.930 . S
H1076 C1086 0.930 . S
H1077 C1087 0.930 . S
C1078 H1072 0.930 . S
C1078 C1079 1.355 . S
C1078 C1080 1.415 . S
C1079 C1078 1.355 . S
C1079 C1081 1.419 1_556 S
C1080 C1078 1.415 . S
C1080 C1085 1.425 1_556 S
C1080 C1087 1.409 . S
C1081 H1073 0.930 . S
C1081 C1079 1.419 1_554 S
C1081 C1082 1.362 . S
C1082 H1074 0.930 . S
C1082 C1081 1.362 . S
C1082 C1085 1.409 . S
C1083 H1075 0.930 . S
C1083 C1084 1.355 . S
C1083 C1085 1.415 . S
C1084 C1083 1.355 . S
C1084 C1086 1.419 1_554 S
C1085 C1080 1.425 1_554 S
C1085 C1082 1.409 . S
C1085 C1083 1.415 . S
C1086 H1076 0.930 . S
C1086 C1084 1.419 1_556 S
C1086 C1087 1.362 . S
C1087 H1077 0.930 . S
C1087 C1080 1.409 . S
C1087 C1086 1.362 . S
H1088 C1094 0.930 . S
H1089 C1097 0.930 . S
H1090 C1098 0.930 . S
H1091 C1099 0.930 . S
H1092 C1102 0.930 . S
H1093 C1103 0.930 . S
C1094 H1088 0.930 . S
C1094 C1095 1.355 1_556 S
C1094 C1096 1.415 . S
C1095 C1094 1.355 1_554 S
C1095 C1097 1.419 . S
C1096 C1094 1.415 . S
C1096 C1101 1.425 1_556 S
C1096 C1103 1.409 . S
C1097 H1089 0.930 . S
C1097 C1095 1.419 . S
C1097 C1098 1.362 . S
C1098 H1090 0.930 . S
C1098 C1097 1.362 . S
C1098 C1101 1.409 . S
C1099 H1091 0.930 . S
C1099 C1100 1.355 1_554 S
C1099 C1101 1.415 . S
C1100 C1099 1.355 1_556 S
C1100 C1102 1.419 . S
C1101 C1096 1.425 1_554 S
C1101 C1098 1.409 . S
C1101 C1099 1.415 . S
C1102 H1092 0.930 . S
C1102 C1100 1.419 . S
C1102 C1103 1.362 . S
C1103 H1093 0.930 . S
C1103 C1096 1.409 . S
C1103 C1102 1.362 . S
H1104 C1110 0.930 . S
H1105 C1113 0.930 . S
H1106 C1114 0.930 . S
H1107 C1115 0.930 . S
H1108 C1118 0.930 . S
H1109 C1119 0.930 . S
C1110 H1104 0.930 . S
C1110 C1111 1.355 . S
C1110 C1112 1.415 . S
C1111 C1110 1.355 . S
C1111 C1113 1.419 . S
C1112 C1110 1.415 . S
C1112 C1117 1.425 . S
C1112 C1119 1.409 . S
C1113 H1105 0.930 . S
C1113 C1111 1.419 . S
C1113 C1114 1.362 . S
C1114 H1106 0.930 . S
C1114 C1113 1.362 . S
C1114 C1117 1.409 . S
C1115 H1107 0.930 . S
C1115 C1116 1.355 . S
C1115 C1117 1.415 . S
C1116 C1115 1.355 . S
C1116 C1118 1.419 . S
C1117 C1112 1.425 . S
C1117 C1114 1.409 . S
C1117 C1115 1.415 . S
C1118 H1108 0.930 . S
C1118 C1116 1.419 . S
C1118 C1119 1.362 . S
C1119 H1109 0.930 . S
C1119 C1112 1.409 . S
C1119 C1118 1.362 . S
H1120 C1126 0.930 . S
H1121 C1129 0.930 . S
H1122 C1130 0.930 . S
H1123 C1131 0.930 . S
H1124 C1134 0.930 . S
H1125 C1135 0.930 . S
C1126 H1120 0.930 . S
C1126 C1127 1.355 . S
C1126 C1128 1.415 . S
C1127 C1126 1.355 . S
C1127 C1129 1.419 . S
C1128 C1126 1.415 . S
C1128 C1133 1.425 . S
C1128 C1135 1.409 . S
C1129 H1121 0.930 . S
C1129 C1127 1.419 . S
C1129 C1130 1.362 . S
C1130 H1122 0.930 . S
C1130 C1129 1.362 . S
C1130 C1133 1.409 . S
C1131 H1123 0.930 . S
C1131 C1132 1.355 . S
C1131 C1133 1.415 . S
C1132 C1131 1.355 . S
C1132 C1134 1.419 . S
C1133 C1128 1.425 . S
C1133 C1130 1.409 . S
C1133 C1131 1.415 . S
C1134 H1124 0.930 . S
C1134 C1132 1.419 . S
C1134 C1135 1.362 . S
C1135 H1125 0.930 . S
C1135 C1128 1.409 . S
C1135 C1134 1.362 . S
H1136 C1142 0.930 . S
H1137 C1145 0.930 . S
H1138 C1146 0.930 . S
H1139 C1147 0.930 . S
H1140 C1150 0.930 . S
H1141 C1151 0.930 . S
C1142 H1136 0.930 . S
C1142 C1143 1.355 . S
C1142 C1144 1.415 . S
C1143 C1142 1.355 . S
C1143 C1145 1.419 . S
C1144 C1142 1.415 . S
C1144 C1149 1.425 . S
C1144 C1151 1.409 . S
C1145 H1137 0.930 . S
C1145 C1143 1.419 . S
C1145 C1146 1.362 . S
C1146 H1138 0.930 . S
C1146 C1145 1.362 . S
C1146 C1149 1.409 . S
C1147 H1139 0.930 . S
C1147 C1148 1.355 . S
C1147 C1149 1.415 . S
C1148 C1147 1.355 . S
C1148 C1150 1.419 . S
C1149 C1144 1.425 . S
C1149 C1146 1.409 . S
C1149 C1147 1.415 . S
C1150 H1140 0.930 . S
C1150 C1148 1.419 . S
C1150 C1151 1.362 . S
C1151 H1141 0.930 . S
C1151 C1144 1.409 . S
C1151 C1150 1.362 . S
H1152 C1158 0.930 . S
H1153 C1161 0.930 . S
H1154 C1162 0.930 . S
H1155 C1163 0.930 . S
H1156 C1166 0.930 . S
H1157 C1167 0.930 . S
C1158 H1152 0.930 . S
C1158 C1159 1.355 . S
C1158 C1160 1.415 . S
C1159 C1158 1.355 . S
C1159 C1161 1.419 . S
C1160 C1158 1.415 . S
C1160 C1165 1.425 . S
C1160 C1167 1.409 . S
C1161 H1153 0.930 . S
C1161 C1159 1.419 . S
C1161 C1162 1.362 . S
C1162 H1154 0.930 . S
C1162 C1161 1.362 . S
C1162 C1165 1.409 . S
C1163 H1155 0.930 . S
C1163 C1164 1.355 . S
C1163 C1165 1.415 . S
C1164 C1163 1.355 . S
C1164 C1166 1.419 . S
C1165 C1160 1.425 . S
C1165 C1162 1.409 . S
C1165 C1163 1.415 . S
C1166 H1156 0.930 . S
C1166 C1164 1.419 . S
C1166 C1167 1.362 . S
C1167 H1157 0.930 . S
C1167 C1160 1.409 . S
C1167 C1166 1.362 . S
C535 N13 1.312 . S
C540 N2 1.311 . S
C551 N46 1.357 . S
C556 N35 1.356 . S
C567 N68 1.346 . S
C572 N79 1.347 . S
C583 N101 1.307 . S
C588 N112 1.310 . S
C599 N145 1.304 . S
C604 N134 1.301 . S
C615 N167 1.351 . S
C620 N178 1.352 . S
C631 N200 1.295 . S
C636 N211 1.298 . S
C647 N233 1.301 . S
C652 N244 1.303 . S
C663 N277 1.334 . S
C668 N266 1.333 . S
C679 N310 1.353 . S
C684 N299 1.352 . S
C695 N343 1.345 . S
C700 N332 1.344 . S
C711 N376 1.322 . S
C716 N365 1.320 . S
C727 N398 1.297 . S
C732 N409 1.300 . S
C743 N431 1.324 . S
C748 N442 1.325 . S
C759 N464 1.330 . S
C764 N475 1.333 . S
C775 N497 1.317 . S
C780 N508 1.319 . S
C791 C7 1.400 . S
C796 C502 1.418 . S
C807 C403 1.449 . S
C812 C40 1.470 . S
C823 C436 1.453 . S
C828 C73 1.408 . S
C839 C469 1.400 . S
C844 C106 1.418 . S
C855 C304 1.405 . S
C860 C139 1.410 . S
C871 C172 1.412 . S
C876 C337 1.457 . S
C887 C205 1.423 . S
C892 C370 1.399 . S
C903 C271 1.469 . S
C908 C238 1.453 . S
C919 C18 1.200 . S
C924 C150 1.200 . S
C935 C183 1.199 . S
C940 C51 1.200 . S
C951 C84 1.197 . S
C956 C216 1.199 . S
C967 C249 1.181 . S
C972 C117 1.181 . S
C983 C414 1.195 . S
C988 C282 1.193 . S
C999 C315 1.190 . S
C1004 C447 1.192 . S
C1015 C348 1.197 . S
C1020 C480 1.198 . S
C1031 C381 1.184 . S
C1036 C513 1.183 . S
C1047 C21 1.550 . S
C1052 C186 1.525 . S
C1063 C54 1.524 . S
C1068 C219 1.548 . S
C1079 C252 1.528 . S
C1084 C87 1.526 . S
C1095 C120 1.548 . S
C1100 C153 1.562 . S
C1111 C450 1.524 . S
C1116 C285 1.548 . S
C1127 C318 1.559 . S
C1132 C483 1.557 . S
C1143 C516 1.544 . S
C1148 C351 1.523 . S
C1159 C417 1.546 . S
C1164 C384 1.523 . S
