# Generated by pormake.
# Topology rkf, (6)-cn, num edge types: 1
# Building blocks:
#     Node 0, Type 0, BuildingBlock: BETDAH_clean_sbu_0, # of connection points: 6
#     Node 1, Type 0, BuildingBlock: BETDAH_clean_sbu_0, # of connection points: 6
#     Node 2, Type 0, BuildingBlock: BETDAH_clean_sbu_0, # of connection points: 6
#     Node 3, Type 0, BuildingBlock: BETDAH_clean_sbu_0, # of connection points: 6
#     Node 4, Type 0, BuildingBlock: BETDAH_clean_sbu_0, # of connection points: 6
#     Node 5, Type 0, BuildingBlock: BETDAH_clean_sbu_0, # of connection points: 6
#     Edge 6, Type (0, 0), BuildingBlock: EZIPEK_clean_linker_0, # of connection points: 2
#     Edge 7, Type (0, 0), BuildingBlock: EZIPEK_clean_linker_0, # of connection points: 2
#     Edge 8, Type (0, 0), BuildingBlock: EZIPEK_clean_linker_0, # of connection points: 2
#     Edge 9, Type (0, 0), BuildingBlock: EZIPEK_clean_linker_0, # of connection points: 2
#     Edge 10, Type (0, 0), BuildingBlock: EZIPEK_clean_linker_0, # of connection points: 2
#     Edge 11, Type (0, 0), BuildingBlock: EZIPEK_clean_linker_0, # of connection points: 2
#     Edge 12, Type (0, 0), BuildingBlock: EZIPEK_clean_linker_0, # of connection points: 2
#     Edge 13, Type (0, 0), BuildingBlock: EZIPEK_clean_linker_0, # of connection points: 2
#     Edge 14, Type (0, 0), BuildingBlock: EZIPEK_clean_linker_0, # of connection points: 2
#     Edge 15, Type (0, 0), BuildingBlock: EZIPEK_clean_linker_0, # of connection points: 2
#     Edge 16, Type (0, 0), BuildingBlock: EZIPEK_clean_linker_0, # of connection points: 2
#     Edge 17, Type (0, 0), BuildingBlock: EZIPEK_clean_linker_0, # of connection points: 2
#     Edge 18, Type (0, 0), BuildingBlock: EZIPEK_clean_linker_0, # of connection points: 2
#     Edge 19, Type (0, 0), BuildingBlock: EZIPEK_clean_linker_0, # of connection points: 2
#     Edge 20, Type (0, 0), BuildingBlock: EZIPEK_clean_linker_0, # of connection points: 2
#     Edge 21, Type (0, 0), BuildingBlock: EZIPEK_clean_linker_0, # of connection points: 2
#     Edge 22, Type (0, 0), BuildingBlock: EZIPEK_clean_linker_0, # of connection points: 2
#     Edge 23, Type (0, 0), BuildingBlock: EZIPEK_clean_linker_0, # of connection points: 2
# Relax obj value: 1.037
# Max RMSD: 0.248
# Mean RMSD: 0.248
data_MOF--net-rkf--node1-BETDAH_clean_sbu_0--edge1-EZIPEK_clean_linker_0
_symmetry_space_group_name_H-M    P1
_symmetry_Int_Tables_number       1
_symmetry_cell_setting            triclinic
loop_
_symmetry_equiv_pos_as_xyz
'x, y, z'
_cell_length_a     19.905384
_cell_length_b     19.919623
_cell_length_c     32.832161
_cell_angle_alpha  89.866247
_cell_angle_beta   90.391585
_cell_angle_gamma 122.40799
loop_
_atom_site_label
_atom_site_type_symbol
_atom_site_fract_x
_atom_site_fract_y
_atom_site_fract_z
_atom_type_partial_charge
Ho0 Ho 0.30663 0.02072 1.21685 0.0
Ho1 Ho 0.35933 0.18813 1.18543 0.0
C2 C 0.34326 0.16234 0.28588 0.0
C3 C 0.32242 0.91304 0.25063 0.0
C4 C 0.32576 0.89168 0.29303 0.0
C5 C 0.37554 0.86465 0.30435 0.0
C6 C 0.37843 0.84426 0.34495 0.0
C7 C 0.33049 0.84966 0.37424 0.0
C8 C 0.28415 0.88064 0.36296 0.0
C9 C 0.28187 0.90161 0.32283 0.0
C10 C 0.19272 0.05059 1.20699 0.0
C11 C 0.27514 0.02993 1.12051 0.0
C12 C 0.37802 0.31319 1.15014 0.0
C13 C 0.35502 0.37197 1.15302 0.0
C14 C 0.37377 0.42189 1.18718 0.0
C15 C 0.36063 0.4844 1.18608 0.0
C16 C 0.32955 0.49779 1.15069 0.0
C17 C 0.30679 0.4449 1.11774 0.0
C18 C 0.31964 0.38292 1.11884 0.0
C19 C 0.47224 0.15521 1.19077 0.0
O20 O 0.32998 0.08979 0.27835 0.0
O21 O 0.35186 0.20946 0.25453 0.0
O22 O 0.25368 0.89984 0.23777 0.0
O23 O 0.38274 -0.0176 0.23946 0.0
O24 O 0.179 -0.02122 1.20472 0.0
O25 O 0.26129 0.0979 0.22031 0.0
O26 O 0.29456 0.10446 1.12908 0.0
O27 O 0.28527 -0.01153 1.14914 0.0
O28 O 0.32235 0.24078 1.13963 0.0
O29 O 0.42665 0.3155 1.17785 0.0
O30 O 0.48677 0.22563 1.19701 0.0
O31 O 0.40236 0.1095 1.17885 0.0
H32 H 0.41159 0.85883 0.28179 0.0
H33 H 0.41618 0.82248 0.35324 0.0
H34 H 0.24856 0.88769 0.38518 0.0
H35 H 0.24513 0.92487 0.31506 0.0
H36 H 0.40067 0.41421 1.21412 0.0
H37 H 0.37719 0.5237 1.21208 0.0
H38 H 0.28147 0.4533 1.09036 0.0
H39 H 0.3046 0.34522 1.09223 0.0
Ho40 Ho 0.38125 0.32082 0.55129 0.0
Ho41 Ho 0.22121 0.30117 0.52794 0.0
C42 C 0.26613 0.33368 0.62468 0.0
C43 C 0.52635 0.38603 0.57671 0.0
C44 C 0.56422 0.40009 0.61728 0.0
C45 C 0.60071 0.47552 0.63578 0.0
C46 C 0.62325 0.48517 0.67689 0.0
C47 C 0.60914 0.41951 0.69995 0.0
C48 C 0.58035 0.34633 0.68017 0.0
C49 C 0.55843 0.33676 0.6393 0.0
C50 C 0.25422 0.17382 0.5579 0.0
C51 C 0.31868 0.26267 0.45775 0.0
C52 C 0.07948 0.25441 0.50301 0.0
C53 C 0.01612 0.26866 0.51167 0.0
C54 C -0.05526 0.22474 0.49007 0.0
C55 C 0.89091 0.24897 0.48952 0.0
C56 C 0.90742 0.31811 0.5106 0.0
C57 C -0.02466 0.35664 0.53595 0.0
C58 C 0.02978 0.33248 0.53619 0.0
C59 C 0.35109 0.44932 0.52605 0.0
O60 O 0.33616 0.34294 0.61365 0.0
O61 O 0.21007 0.31394 0.5964 0.0
O62 O 0.48244 0.31184 0.56461 0.0
O63 O 0.49319 0.42633 0.56862 0.0
O64 O 0.32395 0.18697 0.54924 0.0
O65 O 0.25898 0.23762 0.56572 0.0
O66 O 0.24981 0.25155 0.47096 0.0
O67 O 0.38202 0.2969 0.48266 0.0
O68 O 0.09393 0.21577 0.53036 0.0
O69 O 0.1441 0.31492 0.48751 0.0
O70 O 0.28187 0.43418 0.5375 0.0
O71 O 0.34564 0.38674 0.51413 0.0
H72 H 0.60778 0.52596 0.61913 0.0
H73 H 0.64723 0.54252 0.69108 0.0
H74 H 0.56872 0.29445 0.69713 0.0
H75 H 0.53231 0.27828 0.62584 0.0
H76 H 0.9332 0.17507 0.47112 0.0
H77 H 0.83961 0.21689 0.46962 0.0
H78 H -0.01113 0.40767 0.55399 0.0
H79 H 0.08459 0.36642 0.55353 0.0
Ho80 Ho 0.14573 0.38583 0.89312 0.0
Ho81 Ho -0.00271 0.24262 0.85756 0.0
C82 C 0.0066 0.26401 0.95867 0.0
C83 C 0.24894 0.5307 0.91402 0.0
C84 C 0.27439 0.5709 0.95404 0.0
C85 C 0.25193 0.62387 0.96638 0.0
C86 C 0.26588 0.65269 1.00649 0.0
C87 C 0.30171 0.62811 1.03469 0.0
C88 C 0.32905 0.5799 1.02138 0.0
C89 C 0.31567 0.55167 0.98162 0.0
C90 C 0.13877 0.25121 0.90468 0.0
C91 C 0.14741 0.33182 0.79563 0.0
C92 C 0.87566 0.10429 0.83871 0.0
C93 C 0.79029 0.06757 0.82993 0.0
C94 C 0.76521 0.04904 0.78935 0.0
C95 C 0.68585 0.01484 0.77914 0.0
C96 C 0.62866 -0.00397 0.80923 0.0
C97 C 0.65285 0.01434 0.85008 0.0
C98 C 0.73362 0.05006 0.86046 0.0
C99 C 0.00187 0.38178 0.85462 0.0
O100 O 0.07646 0.33318 0.95363 0.0
O101 O -0.03239 0.22148 0.92578 0.0
O102 O 0.26762 0.47816 0.9061 0.0
O103 O 0.17597 0.50634 0.90297 0.0
O104 O 0.17567 0.3107 0.92992 0.0
O105 O 0.11675 0.26967 0.87263 0.0
O106 O 0.07995 0.26422 0.80432 0.0
O107 O 0.17979 0.38996 0.82396 0.0
O108 O 0.90067 0.12553 0.87615 0.0
O109 O 0.9238 0.15653 0.81205 0.0
O110 O -0.03526 0.32561 0.82788 0.0
O111 O 0.02545 0.35638 0.88251 0.0
H112 H 0.22089 0.64046 0.94547 0.0
H113 H 0.24613 0.69147 1.01578 0.0
H114 H 0.35801 0.56106 1.04237 0.0
H115 H 0.33481 0.51196 0.97319 0.0
H116 H 0.80725 0.06142 0.76523 0.0
H117 H 0.66907 0.00322 0.74734 0.0
H118 H 0.60968 0.00106 0.87367 0.0
H119 H 0.75152 0.06372 0.8921 0.0
Ho120 Ho 0.83888 0.14749 0.22305 0.0
Ho121 Ho 0.76918 -0.02078 1.19258 0.0
C122 C 0.79042 0.00221 0.29133 0.0
C123 C 0.84498 0.26877 0.25545 0.0
C124 C 0.83764 0.29158 0.29686 0.0
C125 C 0.80857 0.34134 0.30297 0.0
C126 C 0.8012 0.36298 0.34248 0.0
C127 C 0.82306 0.33494 0.37603 0.0
C128 C 0.85052 0.28395 0.36981 0.0
C129 C 0.8575 0.26215 0.33055 0.0
C130 C -0.05648 0.10537 1.21468 0.0
C131 C 0.86752 0.13195 1.12709 0.0
C132 C 0.71994 0.84211 1.16006 0.0
C133 C 0.73316 0.77663 1.16256 0.0
C134 C 0.75413 0.7553 1.1992 0.0
C135 C 0.76849 0.6936 1.19959 0.0
C136 C 0.76243 0.65348 1.16332 0.0
C137 C 0.73796 0.67321 1.12737 0.0
C138 C 0.72376 0.73422 1.12699 0.0
C139 C 0.66884 0.02924 1.19937 0.0
O140 O 0.80158 0.07398 0.28387 0.0
O141 O 0.78683 0.95819 0.25978 0.0
O142 O 0.90822 0.26617 0.24815 0.0
O143 O 0.7799 0.20781 0.24026 0.0
O144 O -0.03885 0.17787 1.20915 0.0
O145 O 0.8744 0.06145 0.2278 0.0
O146 O 0.84074 0.05579 1.13623 0.0
O147 O 0.86363 0.17796 1.15522 0.0
O148 O 0.77737 0.90899 1.14463 0.0
O149 O 0.68659 0.85235 1.19145 0.0
O150 O 0.64898 0.95816 1.20837 0.0
O151 O 0.73739 0.0674 1.1854 0.0
H152 H 0.79206 0.36371 0.2772 0.0
H153 H 0.77986 0.4023 0.34687 0.0
H154 H 0.86772 0.26188 0.39543 0.0
H155 H 0.87903 0.22289 0.32652 0.0
H156 H 0.76071 0.78709 0.22716 0.0
H157 H 0.78557 0.67835 0.22782 0.0
H158 H 0.73146 0.64239 1.09908 0.0
H159 H 0.70644 0.74906 1.09865 0.0
Ho160 Ho 0.7733 0.87891 0.55764 0.0
Ho161 Ho 0.83546 0.77999 0.527 0.0
C162 C 0.85397 0.81587 0.62506 0.0
C163 C 0.6738 0.91296 0.58543 0.0
C164 C 0.61952 0.89496 0.61963 0.0
C165 C 0.54588 0.88694 0.61242 0.0
C166 C 0.49605 0.87676 0.64491 0.0
C167 C 0.52027 0.87633 0.68509 0.0
C168 C 0.59071 0.87682 0.6916 0.0
C169 C 0.64005 0.88641 0.65924 0.0
C170 C 0.92903 0.96144 0.53976 0.0
C171 C 0.79864 0.88521 0.46001 0.0
C172 C 0.91072 0.72138 0.49423 0.0
C173 C -0.00764 0.73793 0.49457 0.0
C174 C 0.04139 0.77785 0.46126 0.0
C175 C 0.11722 0.79137 0.45939 0.0
C176 C 0.14604 0.76488 0.49051 0.0
C177 C 0.09813 0.72584 0.52437 0.0
C178 C 0.02136 0.71225 0.52638 0.0
C179 C 0.67767 0.69789 0.54271 0.0
O180 O 0.80128 0.83758 0.61896 0.0
O181 O 0.88381 0.80051 0.59267 0.0
O182 O 0.75062 0.95646 0.5928 0.0
O183 O 0.65372 0.85362 0.56077 0.0
O184 O 0.88429 -0.00931 0.53607 0.0
O185 O 0.89045 0.89454 0.5563 0.0
O186 O 0.82691 0.8384 0.46696 0.0
O187 O 0.77149 0.90734 0.49059 0.0
O188 O 0.9016 0.77506 0.47679 0.0
O189 O 0.86871 0.69269 0.52737 0.0
O190 O 0.72231 0.66981 0.54801 0.0
O191 O 0.71812 0.76462 0.52611 0.0
H192 H 0.52784 0.89059 0.5817 0.0
H193 H 0.43991 0.8712 0.63853 0.0
H194 H 0.60982 0.87354 0.72209 0.0
H195 H 0.69531 0.8897 0.66535 0.0
H196 H 0.02066 0.7976 0.43612 0.0
H197 H 0.15279 0.82072 0.43283 0.0
H198 H 0.11931 0.70462 0.54857 0.0
H199 H -0.01546 0.68072 0.55237 0.0
Ho200 Ho -0.01545 0.78118 0.88887 0.0
Ho201 Ho 0.14744 0.8658 0.85381 0.0
C202 C 0.13903 0.88195 0.95362 0.0
C203 C 0.86572 0.66587 0.9269 0.0
C204 C 0.85548 0.63464 0.96871 0.0
C205 C 0.8456 0.55998 0.97564 0.0
C206 C 0.83901 0.5313 1.01537 0.0
C207 C 0.84104 0.57652 1.04854 0.0
C208 C 0.8527 0.65172 1.04147 0.0
C209 C 0.85969 0.68043 1.0021 0.0
C210 C 0.04584 0.9363 0.87835 0.0
C211 C -0.01004 0.81577 0.79198 0.0
C212 C 0.28013 0.95523 0.81568 0.0
C213 C 0.34247 0.03984 0.81264 0.0
C214 C 0.35963 0.09344 0.84477 0.0
C215 C 0.41707 0.17454 0.83975 0.0
C216 C 0.45699 0.20228 0.8025 0.0
C217 C 0.43972 0.14844 0.77071 0.0
C218 C 0.38311 0.06783 0.77579 0.0
C219 C 0.08191 0.70766 0.86533 0.0
O220 O 0.06195 0.82435 0.94872 0.0
O221 O 0.18297 0.91304 0.92003 0.0
O222 O 0.87516 0.7359 0.92226 0.0
O223 O 0.9141 0.65673 0.90432 0.0
O224 O -0.03037 0.8831 0.87564 0.0
O225 O 0.083 0.90455 0.88928 0.0
O226 O 0.06906 0.85336 0.7974 0.0
O227 O -0.05745 0.77913 0.82363 0.0
O228 O 0.21085 0.93495 0.80076 0.0
O229 O 0.27481 0.91963 0.85004 0.0
O230 O 0.15646 0.76062 0.87034 0.0
O231 O 0.04796 0.7412 0.85175 0.0
H232 H 0.84353 0.52412 0.95031 0.0
H233 H 0.83192 0.47403 1.02013 0.0
H234 H 0.85613 0.68853 1.06661 0.0
H235 H 0.86872 0.73869 0.99801 0.0
H236 H 0.32779 0.07285 0.87328 0.0
H237 H 0.42896 0.21571 0.86434 0.0
H238 H 0.46919 0.16918 0.7416 0.0
H239 H 0.36999 0.02737 0.75064 0.0
C240 C -0.00882 0.01632 1.1972 0.0
C241 C 0.00322 0.08476 1.2173 0.0
C242 C 0.14431 0.14086 0.22118 0.0
C243 C 0.13256 0.07122 1.20239 0.0
N244 N 0.05202 0.96219 1.15687 0.0
N245 N 0.08511 0.19626 0.26146 0.0
C246 C 0.05789 0.01417 1.18584 0.0
C247 C 0.07799 0.14226 0.23334 0.0
N248 N 0.91674 0.95124 1.19161 0.0
N249 N 0.2176 0.20885 0.22307 0.0
H250 H 0.03593 0.19548 0.27293 0.0
H251 H 0.1381 0.23475 0.27697 0.0
H252 H 0.26455 0.21482 1.20668 0.0
H253 H 0.22794 0.26273 0.23401 0.0
H254 H 0.90592 0.89763 1.18008 0.0
H255 H 0.86708 0.94692 1.20426 0.0
H256 H -0.00042 0.92329 1.14109 0.0
H257 H 0.10231 -0.03328 1.14444 0.0
C258 C 0.06648 0.00197 0.51962 0.0
C259 C 0.01522 0.01063 0.54611 0.0
C260 C 0.12655 0.09373 0.59153 0.0
C261 C 0.17836 0.09732 0.56145 0.0
N262 N 0.2002 0.03071 0.50759 0.0
N263 N -0.00537 0.06037 0.6091 0.0
C264 C 0.14918 0.04337 0.52875 0.0
C265 C 0.0446 0.05505 0.58278 0.0
N266 N 0.03654 0.95754 0.48496 0.0
N267 N 0.15709 0.12555 0.62893 0.0
H268 H 0.93299 0.0284 0.60562 0.0
H269 H 0.01448 0.09933 0.63375 0.0
H270 H 0.21695 0.14876 0.63556 0.0
H271 H 0.12308 0.12089 0.65399 0.0
H272 H 0.07104 0.95278 0.46292 0.0
H273 H -0.02327 0.92888 0.47692 0.0
H274 H 0.18243 -0.01233 0.48504 0.0
H275 H 0.26018 0.05881 0.51552 0.0
C276 C 0.05407 0.038 0.92637 0.0
C277 C 0.07823 0.01942 0.88952 0.0
C278 C 0.17469 0.16015 0.87779 0.0
C279 C 0.13725 0.17742 0.90815 0.0
N280 N 0.07513 0.14217 0.97335 0.0
N281 N 0.16925 0.06159 0.83304 0.0
C282 C 0.08684 0.11911 0.93637 0.0
C283 C 0.14226 0.08019 0.86656 0.0
N284 N 0.00029 -0.02129 0.95141 0.0
N285 N 0.24359 0.22066 0.86148 0.0
H286 H 0.14623 0.00324 0.82408 0.0
H287 H 0.21125 0.10349 0.81307 0.0
H288 H 0.26794 0.27991 0.86993 0.0
H289 H 0.28045 0.21091 0.84378 0.0
H290 H -0.02618 -0.01183 0.97608 0.0
H291 H -0.01932 0.91906 0.94724 0.0
H292 H 0.04497 0.10335 0.99729 0.0
H293 H 0.10271 0.20199 0.98129 0.0
C294 C 0.39204 0.63887 1.12999 0.0
C295 C 0.32411 0.56866 1.14505 0.0
C296 C 0.23756 0.591 1.10223 0.0
C297 C 0.30557 0.64404 1.0791 0.0
N298 N 0.44341 0.74626 1.08013 0.0
N299 N 0.18505 0.49807 1.1593 0.0
C300 C 0.38156 0.67933 1.09728 0.0
C301 C 0.24754 0.55358 1.13661 0.0
N302 N 0.46579 0.66108 1.14409 0.0
N303 N 0.16427 0.57187 1.08897 0.0
H304 H 0.19406 0.47036 1.18393 0.0
H305 H 0.1265 0.48235 1.15524 0.0
H306 H 0.1575 0.60087 1.06433 0.0
H307 H 0.11105 0.52991 1.10273 0.0
H308 H 0.51873 0.7075 1.13201 0.0
H309 H 0.47341 0.63239 1.16861 0.0
H310 H 0.50114 0.77728 1.09179 0.0
H311 H 0.43406 0.77293 1.05512 0.0
C312 C 0.78308 0.30476 0.4863 0.0
C313 C 0.86305 0.35667 0.49858 0.0
C314 C 0.89205 0.42729 0.43441 0.0
C315 C 0.82199 0.36029 0.41819 0.0
N316 N 0.68929 0.24837 0.43053 0.0
N317 N -0.03673 0.49608 0.49622 0.0
C318 C 0.76256 0.30487 0.44503 0.0
C319 C 0.90754 0.42842 0.47668 0.0
N320 N 0.73005 0.24736 0.51188 0.0
N321 N -0.05432 0.48611 0.40929 0.0
H322 H -0.02963 0.49752 0.52776 0.0
H323 H -0.00606 0.55141 0.48199 0.0
H324 H 0.9342 0.48718 0.37832 0.0
H325 H 0.00181 0.53177 0.4191 0.0
H326 H 0.74465 0.24321 0.54202 0.0
H327 H 0.74465 0.24321 0.54202 0.0
H328 H 0.64518 0.20501 0.44934 0.0
H329 H 0.67334 0.24727 0.40004 0.0
C330 C 0.5016 0.87273 0.79286 0.0
C331 C 0.54472 0.95653 0.79558 0.0
C332 C 0.49489 0.96234 0.72858 0.0
C333 C 0.48048 0.88554 0.7211 0.0
N334 N 0.43547 0.75716 0.74931 0.0
N335 N 0.56 0.07808 0.77344 0.0
C336 C 0.46878 0.83658 0.75488 0.0
C337 C 0.52972 -0.0006 0.76654 0.0
N338 N 0.49953 0.8277 0.8245 0.0
N339 N 0.47904 0.00017 0.69903 0.0
H340 H 0.58557 0.10395 0.80157 0.0
H341 H 0.56205 0.11711 0.75165 0.0
H342 H 0.45066 -0.02796 0.67191 0.0
H343 H 0.48689 0.05579 0.70282 0.0
H344 H 0.52441 0.85183 0.85297 0.0
H345 H 0.52441 0.85183 0.85297 0.0
H346 H 0.42894 0.71927 0.7731 0.0
H347 H 0.41343 0.7308 0.72082 0.0
C348 C 0.72934 0.52152 1.14206 0.0
C349 C 0.78641 0.5948 1.16011 0.0
C350 C 0.88935 0.59807 1.11905 0.0
C351 C 0.8288 0.54765 1.09119 0.0
N352 N 0.69352 0.43951 1.0812 0.0
N353 N 0.9239 0.68632 1.17724 0.0
C354 C 0.74957 0.49957 1.10517 0.0
C355 C 0.8681 0.62554 1.15352 0.0
N356 N 0.6546 0.4798 1.15785 0.0
N357 N -0.03366 0.62491 1.10969 0.0
H358 H 0.90811 0.70508 1.20303 0.0
H359 H -0.01526 0.71734 1.17165 0.0
H360 H -0.01981 0.60592 1.08318 0.0
H361 H 0.0144 0.66039 1.12893 0.0
H362 H 0.60926 0.42463 1.147 0.0
H363 H 0.64085 0.49982 1.184 0.0
H364 H 0.63299 0.40668 1.08768 0.0
H365 H 0.70876 0.42261 1.05453 0.0
C366 C 0.29071 0.85278 0.48192 0.0
C367 C 0.22407 0.77424 0.48399 0.0
C368 C 0.26976 0.73792 0.42426 0.0
C369 C 0.32315 0.82035 0.41661 0.0
N370 N 0.40252 0.95282 0.44512 0.0
N371 N 0.17298 0.63712 0.4708 0.0
C372 C 0.34172 0.87565 0.44842 0.0
C373 C 0.22288 0.71479 0.46017 0.0
N374 N 0.30144 0.90877 0.5093 0.0
N375 N 0.25861 0.68324 0.39564 0.0
H376 H 0.13909 0.62158 0.49728 0.0
H377 H 0.1705 0.58977 0.45591 0.0
H378 H 0.29396 0.69861 0.36981 0.0
H379 H 0.21409 0.62319 0.39715 0.0
H380 H 0.26393 0.89546 0.53422 0.0
H381 H 0.26393 0.89546 0.53422 0.0
H382 H 0.44166 -0.02607 0.42053 0.0
H383 H 0.44166 -0.02607 0.42053 0.0
C384 C 0.59559 0.31799 0.79153 0.0
C385 C 0.51306 0.28804 0.79442 0.0
C386 C 0.53573 0.40772 0.76109 0.0
C387 C 0.60655 0.41919 0.74515 0.0
N388 N 0.71899 0.40843 0.75541 0.0
N389 N 0.40402 0.30672 0.78294 0.0
C390 C 0.64285 0.38397 0.7654 0.0
C391 C 0.48324 0.33501 0.7809 0.0
N392 N 0.62644 0.2805 0.8118 0.0
N393 N 0.51619 0.4626 0.75393 0.0
H394 H 0.36287 0.25003 0.7936 0.0
H395 H 0.37866 0.33645 0.77067 0.0
H396 H 0.5554 0.51622 0.73939 0.0
H397 H 0.46625 0.45877 0.76641 0.0
H398 H 0.68649 0.29998 0.81185 0.0
H399 H 0.59152 0.23202 0.83085 0.0
H400 H 0.74876 0.38195 0.76602 0.0
H401 H 0.75169 0.45645 0.73569 0.0
C402 C 0.55236 0.11157 1.15697 0.0
C403 C 0.53011 0.13201 1.19344 0.0
C404 C 0.59679 0.08208 0.2345 0.0
C405 C 0.61507 0.05767 1.19793 0.0
N406 N 0.60211 0.03712 1.12523 0.0
N407 N 0.52822 0.13828 0.2667 0.0
C408 C 0.59083 0.06926 1.15933 0.0
C409 C 0.55241 0.11871 0.23225 0.0
N410 N 0.53855 0.13487 1.12025 0.0
N411 N 0.62333 0.0714 0.27103 0.0
H412 H 0.49838 0.16818 0.26593 0.0
H413 H 0.53464 0.12275 0.29607 0.0
H414 H 0.65207 0.0406 0.27376 0.0
H415 H 0.61988 0.09511 0.29854 0.0
H416 H 0.56008 0.12867 1.09265 0.0
H417 H 0.51125 0.16714 1.11767 0.0
H418 H 0.5788 0.03658 1.09668 0.0
H419 H 0.62929 0.00458 1.126 0.0
C420 C 0.45872 0.56543 0.56695 0.0
C421 C 0.42821 0.52659 0.52882 0.0
C422 C 0.56041 0.60731 0.49852 0.0
C423 C 0.591 0.64514 0.53671 0.0
N424 N 0.56832 0.67518 0.60426 0.0
N425 N 0.44364 0.5265 0.45621 0.0
C426 C 0.53961 0.62928 0.56991 0.0
C427 C 0.47724 0.55292 0.4939 0.0
N428 N 0.41242 0.538 0.60089 0.0
N429 N 0.61105 0.62059 0.46719 0.0
H430 H 0.38244 0.48776 0.45195 0.0
H431 H 0.47483 0.54883 0.42912 0.0
H432 H 0.6723 0.66136 0.4689 0.0
H433 H 0.59318 0.58746 0.44037 0.0
H434 H 0.43423 0.55633 0.63036 0.0
H435 H 0.35258 0.49333 0.59985 0.0
H436 H 0.53223 0.67232 0.62789 0.0
H437 H 0.6278 0.72115 0.60763 0.0
C438 C 0.00106 0.49101 0.89282 0.0
C439 C 0.00978 0.46105 0.85523 0.0
C440 C 0.04721 0.588 0.82248 0.0
C441 C 0.05077 0.62124 0.86128 0.0
N442 N 0.03789 0.6067 0.9342 0.0
N443 N 0.04766 0.48433 0.7843 0.0
C444 C 0.02959 0.57333 0.89668 0.0
C445 C 0.03336 0.50995 0.81986 0.0
N446 N -0.03797 0.44002 0.92439 0.0
N447 N 0.05776 0.6312 0.78802 0.0
H448 H 0.03839 0.42815 0.78052 0.0
H449 H 0.07479 0.52097 0.7592 0.0
H450 H 0.07202 0.68975 0.78856 0.0
H451 H 0.04631 0.60709 0.7588 0.0
H452 H -0.05248 0.45704 0.95123 0.0
H453 H 0.93563 0.37867 0.92195 0.0
H454 H 0.03265 0.57723 0.96138 0.0
H455 H 0.05534 0.66588 0.93819 0.0
C456 C 0.26668 0.14265 0.35355 0.0
C457 C 0.33779 0.18743 0.33021 0.0
C458 C 0.39248 0.28604 0.38792 0.0
C459 C 0.32497 0.23667 0.41338 0.0
N460 N 0.20204 0.10881 0.41959 0.0
N461 N 0.47349 0.29792 0.32937 0.0
C462 C 0.26335 0.1627 0.39573 0.0
C463 C 0.40188 0.25798 0.34875 0.0
N464 N 0.19989 0.08234 0.33488 0.0
N465 N 0.44605 0.36253 0.39975 0.0
H466 H 0.48254 0.28014 0.30116 0.0
H467 H 0.5254 0.34396 0.34287 0.0
H468 H 0.43987 0.38725 0.42627 0.0
H469 H 0.49156 0.40428 0.38111 0.0
H470 H 0.14365 0.05376 0.34799 0.0
H471 H 0.19894 0.06605 0.30463 0.0
H472 H 0.1611 0.05059 0.41046 0.0
H473 H 0.19616 0.11939 0.44991 0.0
C474 C 0.24781 0.29294 0.70205 0.0
C475 C 0.24633 0.34138 0.67014 0.0
C476 C 0.19723 0.39641 0.72339 0.0
C477 C 0.18735 0.33944 0.75328 0.0
N478 N 0.19304 0.22334 0.76607 0.0
N479 N 0.2081 0.43404 0.65187 0.0
C480 C 0.20964 0.28493 0.74095 0.0
C481 C 0.21764 0.39142 0.68141 0.0
N482 N 0.28677 0.2546 0.69591 0.0
N483 N 0.18747 0.45642 0.7349 0.0
H484 H 0.22495 0.43598 0.62176 0.0
H485 H 0.17814 0.46305 0.65659 0.0
H486 H 0.17196 0.46168 0.76439 0.0
H487 H 0.20207 0.50492 0.71642 0.0
H488 H 0.29586 0.2238 0.7187 0.0
H489 H 0.31692 0.25965 0.66923 0.0
H490 H 0.19703 0.17559 0.75685 0.0
H491 H 0.1688 0.21638 0.79489 0.0
C492 C -0.00756 0.28059 1.03764 0.0
C493 C -0.02962 0.23062 1.0022 0.0
C494 C 0.87057 0.12024 1.04781 0.0
C495 C 0.90283 0.16666 1.08401 0.0
N496 N 0.01245 0.29057 1.11105 0.0
N497 N 0.89775 0.09143 0.98075 0.0
C498 C -0.03107 0.24663 1.07816 0.0
C499 C 0.91204 0.14733 1.00935 0.0
N500 N 0.03209 0.36116 1.03324 0.0
N501 N 0.79793 0.05075 1.04914 0.0
H502 H 0.93026 0.10341 0.95423 0.0
H503 H 0.86133 0.03057 0.98631 0.0
H504 H 0.76306 0.03091 1.07526 0.0
H505 H 0.76809 0.01847 1.02303 0.0
H506 H 0.04391 0.39935 1.05769 0.0
H507 H 0.04267 0.38902 1.00508 0.0
H508 H 0.06522 0.34594 1.1082 0.0
H509 H 0.00165 0.26795 1.14053 0.0
C510 C 0.85748 0.0202 0.36245 0.0
C511 C 0.79146 -0.02625 0.33537 0.0
C512 C 0.72978 0.87005 0.39029 0.0
C513 C 0.79719 0.91479 0.41648 0.0
N514 N 0.92744 0.03156 0.42626 0.0
N515 N 0.66627 0.85094 0.32367 0.0
C516 C 0.86126 -0.01015 0.40213 0.0
C517 C 0.72839 0.8976 0.34949 0.0
N518 N 0.91762 0.09378 0.35011 0.0
N519 N 0.66514 0.80189 0.40514 0.0
H520 H 0.65863 0.87105 0.29573 0.0
H521 H 0.6237 0.79129 0.32894 0.0
H522 H 0.66469 0.77936 0.43392 0.0
H523 H 0.61025 0.77001 0.39042 0.0
H524 H -0.03782 0.13584 0.36922 0.0
H525 H 0.92204 0.11477 0.32058 0.0
H526 H -0.01949 0.08199 0.41713 0.0
H527 H 0.93092 0.01322 0.45549 0.0
C528 C -0.03141 0.87255 0.67909 0.0
C529 C 0.88732 0.81656 0.66833 0.0
C530 C 0.87578 0.75278 0.73605 0.0
C531 C -0.0463 0.81585 0.74921 0.0
N532 N 0.06119 0.94987 0.73331 0.0
N533 N 0.76001 0.71073 0.69236 0.0
C534 C -0.00357 0.87945 0.72061 0.0
C535 C 0.83988 0.75973 0.69883 0.0
N536 N 0.02075 0.91998 0.64975 0.0
N537 N 0.83735 0.68278 0.75703 0.0
H538 H 0.73234 0.71074 0.66526 0.0
H539 H 0.72105 0.67571 0.71541 0.0
H540 H 0.86341 0.67053 0.78111 0.0
H541 H 0.78407 0.63294 0.747 0.0
H542 H 0.08194 0.95572 0.65492 0.0
H543 H 0.00406 0.91743 0.61946 0.0
H544 H 0.09034 5e-05 0.71475 0.0
H545 H 0.07835 0.96195 0.76369 0.0
C546 C 0.15512 0.87197 1.03252 0.0
C547 C 0.17388 0.91946 0.99657 0.0
C548 C 0.2669 0.03681 1.04077 0.0
C549 C 0.24034 -0.00874 1.07759 0.0
N550 N 0.14158 0.86336 1.10616 0.0
N551 N 0.23441 0.05407 0.97163 0.0
C552 C 0.17968 0.90826 1.07267 0.0
C553 C 0.22611 0.00376 1.00227 0.0
N554 N 0.11626 0.79128 1.02867 0.0
N555 N 0.33423 0.11119 1.04156 0.0
H556 H 0.20303 0.0345 0.94427 0.0
H557 H 0.2648 0.11555 0.9754 0.0
H558 H 0.36929 0.13583 1.06759 0.0
H559 H 0.36064 0.14408 1.01524 0.0
H560 H 0.10831 0.75391 1.05292 0.0
H561 H 0.09991 0.76241 1.00057 0.0
H562 H 0.09116 0.80607 1.10418 0.0
H563 H 0.15384 0.88564 1.1357 0.0
loop_
_geom_bond_atom_site_label_1
_geom_bond_atom_site_label_2
_geom_bond_distance
_geom_bond_site_symmetry_2
_ccdc_geom_bond_type
Ho0 C3 2.811 . S
Ho0 O20 2.322 . S
Ho0 O22 2.378 . S
Ho0 O23 2.524 . S
Ho0 O24 2.381 . S
Ho0 O25 2.669 . S
Ho0 O27 2.346 1_554 S
Ho0 O31 2.305 . S
Ho1 C12 2.811 . S
Ho1 O21 2.346 1_556 S
Ho1 O25 2.305 1_556 S
Ho1 O26 2.322 . S
Ho1 O28 2.378 . S
Ho1 O29 2.524 . S
Ho1 O30 2.381 . S
Ho1 O31 2.669 1_556 S
C2 O20 1.259 . S
C2 O21 1.268 . S
C3 Ho0 2.811 . S
C3 C4 1.488 . S
C3 O22 1.215 . S
C3 O23 1.289 . S
C4 C3 1.488 . S
C4 C5 1.348 . S
C4 C9 1.413 1_545 S
C5 C4 1.348 . S
C5 C6 1.442 . S
C5 H32 0.930 . S
C6 C5 1.442 . S
C6 C7 1.381 1_545 S
C6 H33 0.931 . S
C7 C6 1.381 1_565 S
C7 C8 1.321 . S
C8 C7 1.321 . S
C8 C9 1.403 . S
C8 H34 0.934 . S
C9 C4 1.413 1_565 S
C9 C8 1.403 . S
C9 H35 0.930 . S
C10 O24 1.275 . S
C10 O25 1.256 . S
C11 O26 1.259 . S
C11 O27 1.268 . S
C12 Ho1 2.811 . S
C12 C13 1.488 . S
C12 O28 1.215 . S
C12 O29 1.289 . S
C13 C12 1.488 . S
C13 C14 1.348 . S
C13 C18 1.413 . S
C14 C13 1.348 . S
C14 C15 1.442 . S
C14 H36 0.930 . S
C15 C14 1.442 . S
C15 C16 1.381 . S
C15 H37 0.931 . S
C16 C15 1.381 . S
C16 C17 1.321 . S
C17 C16 1.321 . S
C17 C18 1.403 . S
C17 H38 0.934 . S
C18 C13 1.413 . S
C18 C17 1.403 . S
C18 H39 0.930 . S
C19 O30 1.275 1_554 S
C19 O31 1.256 . S
O20 Ho0 2.322 . S
O20 C2 1.259 . S
O21 Ho1 2.346 1_554 S
O21 C2 1.268 . S
O22 Ho0 2.378 . S
O22 C3 1.215 . S
O23 Ho0 2.524 . S
O23 C3 1.289 . S
O24 Ho0 2.381 . S
O24 C10 1.275 . S
O25 Ho0 2.669 . S
O25 Ho1 2.305 1_554 S
O25 C10 1.256 . S
O26 Ho1 2.322 . S
O26 C11 1.259 . S
O27 Ho0 2.346 1_556 S
O27 C11 1.268 . S
O28 Ho1 2.378 . S
O28 C12 1.215 . S
O29 Ho1 2.524 . S
O29 C12 1.289 . S
O30 Ho1 2.381 . S
O30 C19 1.275 1_556 S
O31 Ho0 2.305 . S
O31 Ho1 2.669 1_554 S
O31 C19 1.256 . S
H32 C5 0.930 . S
H33 C6 0.931 . S
H34 C8 0.934 . S
H35 C9 0.930 . S
H36 C14 0.930 . S
H37 C15 0.931 . S
H38 C17 0.934 . S
H39 C18 0.930 . S
Ho40 C43 2.811 . S
Ho40 O60 2.322 . S
Ho40 O62 2.378 . S
Ho40 O63 2.524 . S
Ho40 O64 2.381 . S
Ho40 O65 2.669 . S
Ho40 O67 2.346 . S
Ho40 O71 2.305 . S
Ho41 C52 2.811 . S
Ho41 O61 2.346 . S
Ho41 O65 2.305 . S
Ho41 O66 2.322 . S
Ho41 O68 2.378 . S
Ho41 O69 2.524 . S
Ho41 O70 2.381 . S
Ho41 O71 2.669 . S
C42 O60 1.259 . S
C42 O61 1.268 . S
C43 Ho40 2.811 . S
C43 C44 1.488 . S
C43 O62 1.215 . S
C43 O63 1.289 . S
C44 C43 1.488 . S
C44 C45 1.348 . S
C44 C49 1.413 . S
C45 C44 1.348 . S
C45 C46 1.442 . S
C45 H72 0.930 . S
C46 C45 1.442 . S
C46 C47 1.381 . S
C46 H73 0.931 . S
C47 C46 1.381 . S
C47 C48 1.321 . S
C48 C47 1.321 . S
C48 C49 1.403 . S
C48 H74 0.934 . S
C49 C44 1.413 . S
C49 C48 1.403 . S
C49 H75 0.930 . S
C50 O64 1.275 . S
C50 O65 1.256 . S
C51 O66 1.259 . S
C51 O67 1.268 . S
C52 Ho41 2.811 . S
C52 C53 1.488 . S
C52 O68 1.215 . S
C52 O69 1.289 . S
C53 C52 1.488 . S
C53 C54 1.348 . S
C53 C58 1.413 . S
C54 C53 1.348 . S
C54 C55 1.442 . S
C54 H76 0.930 . S
C55 C54 1.442 . S
C55 C56 1.381 . S
C55 H77 0.931 . S
C56 C55 1.381 . S
C56 C57 1.321 . S
C57 C56 1.321 . S
C57 C58 1.403 . S
C57 H78 0.934 . S
C58 C53 1.413 . S
C58 C57 1.403 . S
C58 H79 0.930 . S
C59 O70 1.275 . S
C59 O71 1.256 . S
O60 Ho40 2.322 . S
O60 C42 1.259 . S
O61 Ho41 2.346 . S
O61 C42 1.268 . S
O62 Ho40 2.378 . S
O62 C43 1.215 . S
O63 Ho40 2.524 . S
O63 C43 1.289 . S
O64 Ho40 2.381 . S
O64 C50 1.275 . S
O65 Ho40 2.669 . S
O65 Ho41 2.305 . S
O65 C50 1.256 . S
O66 Ho41 2.322 . S
O66 C51 1.259 . S
O67 Ho40 2.346 . S
O67 C51 1.268 . S
O68 Ho41 2.378 . S
O68 C52 1.215 . S
O69 Ho41 2.524 . S
O69 C52 1.289 . S
O70 Ho41 2.381 . S
O70 C59 1.275 . S
O71 Ho40 2.305 . S
O71 Ho41 2.669 . S
O71 C59 1.256 . S
H72 C45 0.930 . S
H73 C46 0.931 . S
H74 C48 0.934 . S
H75 C49 0.930 . S
H76 C54 0.930 . S
H77 C55 0.931 . S
H78 C57 0.934 . S
H79 C58 0.930 . S
Ho80 C83 2.811 . S
Ho80 O100 2.322 . S
Ho80 O102 2.378 . S
Ho80 O103 2.524 . S
Ho80 O104 2.381 . S
Ho80 O105 2.669 . S
Ho80 O107 2.346 . S
Ho80 O111 2.305 . S
Ho81 C92 2.811 . S
Ho81 O101 2.346 . S
Ho81 O105 2.305 1_655 S
Ho81 O106 2.322 1_655 S
Ho81 O108 2.378 . S
Ho81 O109 2.524 . S
Ho81 O110 2.381 . S
Ho81 O111 2.669 1_655 S
C82 O100 1.259 1_655 S
C82 O101 1.268 . S
C83 Ho80 2.811 . S
C83 C84 1.488 . S
C83 O102 1.215 . S
C83 O103 1.289 . S
C84 C83 1.488 . S
C84 C85 1.348 . S
C84 C89 1.413 . S
C85 C84 1.348 . S
C85 C86 1.442 . S
C85 H112 0.930 . S
C86 C85 1.442 . S
C86 C87 1.381 . S
C86 H113 0.931 . S
C87 C86 1.381 . S
C87 C88 1.321 . S
C88 C87 1.321 . S
C88 C89 1.403 . S
C88 H114 0.934 . S
C89 C84 1.413 . S
C89 C88 1.403 . S
C89 H115 0.930 . S
C90 O104 1.275 . S
C90 O105 1.256 . S
C91 O106 1.259 . S
C91 O107 1.268 . S
C92 Ho81 2.811 . S
C92 C93 1.488 . S
C92 O108 1.215 . S
C92 O109 1.289 . S
C93 C92 1.488 . S
C93 C94 1.348 . S
C93 C98 1.413 . S
C94 C93 1.348 . S
C94 C95 1.442 . S
C94 H116 0.930 . S
C95 C94 1.442 . S
C95 C96 1.381 . S
C95 H117 0.931 . S
C96 C95 1.381 . S
C96 C97 1.321 . S
C97 C96 1.321 . S
C97 C98 1.403 . S
C97 H118 0.934 . S
C98 C93 1.413 . S
C98 C97 1.403 . S
C98 H119 0.930 . S
C99 O110 1.275 . S
C99 O111 1.256 1_655 S
O100 Ho80 2.322 . S
O100 C82 1.259 1_455 S
O101 Ho81 2.346 . S
O101 C82 1.268 . S
O102 Ho80 2.378 . S
O102 C83 1.215 . S
O103 Ho80 2.524 . S
O103 C83 1.289 . S
O104 Ho80 2.381 . S
O104 C90 1.275 . S
O105 Ho80 2.669 . S
O105 Ho81 2.305 1_455 S
O105 C90 1.256 . S
O106 Ho81 2.322 1_455 S
O106 C91 1.259 . S
O107 Ho80 2.346 . S
O107 C91 1.268 . S
O108 Ho81 2.378 . S
O108 C92 1.215 . S
O109 Ho81 2.524 . S
O109 C92 1.289 . S
O110 Ho81 2.381 . S
O110 C99 1.275 . S
O111 Ho80 2.305 . S
O111 Ho81 2.669 1_455 S
O111 C99 1.256 1_455 S
H112 C85 0.930 . S
H113 C86 0.931 . S
H114 C88 0.934 . S
H115 C89 0.930 . S
H116 C94 0.930 . S
H117 C95 0.931 . S
H118 C97 0.934 . S
H119 C98 0.930 . S
Ho120 C123 2.811 . S
Ho120 O140 2.322 1_545 S
Ho120 O142 2.378 . S
Ho120 O143 2.524 . S
Ho120 O144 2.381 . S
Ho120 O145 2.669 1_545 S
Ho120 O147 2.346 1_554 S
Ho120 O151 2.305 . S
Ho121 C132 2.811 . S
Ho121 O141 2.346 1_556 S
Ho121 O145 2.305 1_556 S
Ho121 O146 2.322 1_565 S
Ho121 O148 2.378 . S
Ho121 O149 2.524 . S
Ho121 O150 2.381 . S
Ho121 O151 2.669 1_566 S
C122 O140 1.259 . S
C122 O141 1.268 . S
C123 Ho120 2.811 . S
C123 C124 1.488 . S
C123 O142 1.215 . S
C123 O143 1.289 . S
C124 C123 1.488 . S
C124 C125 1.348 . S
C124 C129 1.413 . S
C125 C124 1.348 . S
C125 C126 1.442 . S
C125 H152 0.930 . S
C126 C125 1.442 . S
C126 C127 1.381 . S
C126 H153 0.931 . S
C127 C126 1.381 . S
C127 C128 1.321 . S
C128 C127 1.321 . S
C128 C129 1.403 . S
C128 H154 0.934 1_655 S
C129 C124 1.413 . S
C129 C128 1.403 . S
C129 H155 0.938 . S
C130 O144 1.275 . S
C130 O145 1.256 1_545 S
C131 O146 1.259 . S
C131 O147 1.268 . S
C132 Ho121 2.811 . S
C132 C133 1.488 . S
C132 O148 1.215 . S
C132 O149 1.289 . S
C133 C132 1.488 . S
C133 C134 1.348 . S
C133 C138 1.413 . S
C134 C133 1.348 . S
C134 C135 1.442 . S
C134 H156 0.930 . S
C135 C134 1.442 . S
C135 C136 1.381 . S
C135 H157 0.931 . S
C136 C135 1.381 . S
C136 C137 1.321 . S
C137 C136 1.321 . S
C137 C138 1.403 . S
C137 H158 0.934 . S
C138 C133 1.413 . S
C138 C137 1.403 . S
C138 H159 0.930 . S
C139 O150 1.275 1_554 S
C139 O151 1.256 1_565 S
O140 Ho120 2.322 1_565 S
O140 C122 1.259 . S
O141 Ho121 2.346 1_554 S
O141 C122 1.268 . S
O142 Ho120 2.378 . S
O142 C123 1.215 . S
O143 Ho120 2.524 . S
O143 C123 1.289 . S
O144 Ho120 2.381 . S
O144 C130 1.275 . S
O145 Ho120 2.669 1_565 S
O145 Ho121 2.305 1_554 S
O145 C130 1.256 1_565 S
O146 Ho121 2.322 1_545 S
O146 C131 1.259 . S
O147 Ho120 2.346 1_556 S
O147 C131 1.268 . S
O148 Ho121 2.378 . S
O148 C132 1.215 . S
O149 Ho121 2.524 . S
O149 C132 1.289 . S
O150 Ho121 2.381 . S
O150 C139 1.275 1_556 S
O151 Ho120 2.305 . S
O151 Ho121 2.669 1_544 S
O151 C139 1.256 1_545 S
H152 C125 0.930 . S
H153 C126 0.931 . S
H154 C128 0.934 1_455 S
H155 C129 0.938 . S
H156 C134 0.930 . S
H157 C135 0.931 . S
H158 C137 0.934 . S
H159 C138 0.930 . S
Ho160 C163 2.811 . S
Ho160 O180 2.322 . S
Ho160 O182 2.378 . S
Ho160 O183 2.524 . S
Ho160 O184 2.381 1_655 S
Ho160 O185 2.669 1_655 S
Ho160 O187 2.346 . S
Ho160 O191 2.305 . S
Ho161 C172 2.811 1_655 S
Ho161 O181 2.346 . S
Ho161 O185 2.305 1_655 S
Ho161 O186 2.322 . S
Ho161 O188 2.378 . S
Ho161 O189 2.524 1_655 S
Ho161 O190 2.381 . S
Ho161 O191 2.669 . S
C162 O180 1.259 . S
C162 O181 1.268 . S
C163 Ho160 2.811 . S
C163 C164 1.488 . S
C163 O182 1.215 . S
C163 O183 1.289 . S
C164 C163 1.488 . S
C164 C165 1.348 . S
C164 C169 1.413 . S
C165 C164 1.348 . S
C165 C166 1.442 . S
C165 H192 0.930 . S
C166 C165 1.442 . S
C166 C167 1.381 . S
C166 H193 0.931 . S
C167 C166 1.381 . S
C167 C168 1.321 . S
C168 C167 1.321 . S
C168 C169 1.403 . S
C168 H194 0.934 1_565 S
C169 C164 1.413 . S
C169 C168 1.403 . S
C169 H195 0.930 . S
C170 O184 1.275 . S
C170 O185 1.256 . S
C171 O186 1.259 . S
C171 O187 1.268 . S
C172 Ho161 2.811 1_455 S
C172 C173 1.488 . S
C172 O188 1.215 1_455 S
C172 O189 1.289 . S
C173 C172 1.488 . S
C173 C174 1.348 . S
C173 C178 1.413 . S
C174 C173 1.348 . S
C174 C175 1.442 . S
C174 H196 0.930 . S
C175 C174 1.442 . S
C175 C176 1.381 . S
C175 H197 0.931 . S
C176 C175 1.381 . S
C176 C177 1.321 . S
C177 C176 1.321 . S
C177 C178 1.403 . S
C177 H198 0.934 . S
C178 C173 1.413 . S
C178 C177 1.403 . S
C178 H199 0.930 1_455 S
C179 O190 1.275 . S
C179 O191 1.256 . S
O180 Ho160 2.322 . S
O180 C162 1.259 . S
O181 Ho161 2.346 . S
O181 C162 1.268 . S
O182 Ho160 2.378 . S
O182 C163 1.215 . S
O183 Ho160 2.524 . S
O183 C163 1.289 . S
O184 Ho160 2.381 1_455 S
O184 C170 1.275 . S
O185 Ho160 2.669 1_455 S
O185 Ho161 2.305 1_455 S
O185 C170 1.256 . S
O186 Ho161 2.322 . S
O186 C171 1.259 . S
O187 Ho160 2.346 . S
O187 C171 1.268 . S
O188 Ho161 2.378 . S
O188 C172 1.215 1_655 S
O189 Ho161 2.524 1_455 S
O189 C172 1.289 . S
O190 Ho161 2.381 . S
O190 C179 1.275 . S
O191 Ho160 2.305 . S
O191 Ho161 2.669 . S
O191 C179 1.256 . S
H192 C165 0.930 . S
H193 C166 0.931 . S
H194 C168 0.934 1_545 S
H195 C169 0.930 . S
H196 C174 0.930 . S
H197 C175 0.931 . S
H198 C177 0.934 . S
H199 C178 0.930 1_655 S
Ho200 C203 2.811 . S
Ho200 O220 2.322 . S
Ho200 O222 2.378 . S
Ho200 O223 2.524 . S
Ho200 O224 2.381 . S
Ho200 O225 2.670 . S
Ho200 O227 2.346 . S
Ho200 O231 2.305 . S
Ho201 C212 2.811 1_565 S
Ho201 O221 2.346 . S
Ho201 O225 2.305 . S
Ho201 O226 2.322 . S
Ho201 O228 2.378 . S
Ho201 O229 2.524 1_565 S
Ho201 O230 2.381 . S
Ho201 O231 2.669 . S
C202 O220 1.259 . S
C202 O221 1.268 . S
C203 Ho200 2.811 . S
C203 C204 1.488 . S
C203 O222 1.215 . S
C203 O223 1.289 . S
C204 C203 1.488 . S
C204 C205 1.348 . S
C204 C209 1.413 . S
C205 C204 1.348 . S
C205 C206 1.442 . S
C205 H232 0.930 . S
C206 C205 1.442 . S
C206 C207 1.381 1_455 S
C206 H233 0.931 . S
C207 C206 1.381 1_655 S
C207 C208 1.321 . S
C208 C207 1.321 . S
C208 C209 1.403 1_655 S
C208 H234 0.934 . S
C209 C204 1.413 . S
C209 C208 1.403 1_455 S
C209 H235 0.930 1_455 S
C210 O224 1.275 1_545 S
C210 O225 1.256 1_545 S
C211 O226 1.259 . S
C211 O227 1.268 . S
C212 Ho201 2.811 1_545 S
C212 C213 1.488 . S
C212 O228 1.215 1_545 S
C212 O229 1.289 . S
C213 C212 1.488 . S
C213 C214 1.348 . S
C213 C218 1.413 . S
C214 C213 1.348 . S
C214 C215 1.442 . S
C214 H236 0.930 . S
C215 C214 1.442 . S
C215 C216 1.381 . S
C215 H237 0.931 . S
C216 C215 1.381 . S
C216 C217 1.321 . S
C217 C216 1.321 . S
C217 C218 1.403 . S
C217 H238 0.934 . S
C218 C213 1.413 . S
C218 C217 1.403 . S
C218 H239 0.930 1_545 S
C219 O230 1.275 . S
C219 O231 1.256 . S
O220 Ho200 2.322 . S
O220 C202 1.259 . S
O221 Ho201 2.346 . S
O221 C202 1.268 . S
O222 Ho200 2.378 . S
O222 C203 1.215 . S
O223 Ho200 2.524 . S
O223 C203 1.289 . S
O224 Ho200 2.381 . S
O224 C210 1.275 1_565 S
O225 Ho200 2.670 . S
O225 Ho201 2.305 . S
O225 C210 1.256 1_565 S
O226 Ho201 2.322 . S
O226 C211 1.259 . S
O227 Ho200 2.346 . S
O227 C211 1.268 . S
O228 Ho201 2.378 . S
O228 C212 1.215 1_565 S
O229 Ho201 2.524 1_545 S
O229 C212 1.289 . S
O230 Ho201 2.381 . S
O230 C219 1.275 . S
O231 Ho200 2.305 . S
O231 Ho201 2.669 . S
O231 C219 1.256 . S
H232 C205 0.930 . S
H233 C206 0.931 . S
H234 C208 0.934 . S
H235 C209 0.930 1_655 S
H236 C214 0.930 . S
H237 C215 0.931 . S
H238 C217 0.934 . S
H239 C218 0.930 1_565 S
C240 C241 1.363 1_556 S
C240 C246 1.379 . S
C240 N248 1.356 1_545 S
C241 C240 1.363 1_554 S
C241 C247 1.363 . S
C242 C243 1.363 . S
C242 C247 1.379 . S
C242 N249 1.356 . S
C243 C242 1.363 . S
C243 C246 1.363 1_554 S
N244 C246 1.356 . S
N244 H256 0.984 . S
N244 H257 0.985 . S
N245 C247 1.364 . S
N245 H250 0.979 1_455 S
N245 H251 0.982 . S
C246 C240 1.379 . S
C246 C243 1.363 1_556 S
C246 N244 1.356 . S
C247 C241 1.363 . S
C247 C242 1.379 . S
C247 N245 1.364 . S
N248 C240 1.356 1_565 S
N248 H254 0.984 . S
N248 H255 0.984 1_455 S
N249 C242 1.356 . S
N249 H252 0.984 . S
N249 H253 0.985 . S
H250 N245 0.979 1_655 S
H251 N245 0.982 . S
H252 N249 0.984 . S
H253 N249 0.985 . S
H254 N248 0.984 . S
H255 N248 0.984 1_655 S
H256 N244 0.984 . S
H257 N244 0.985 . S
C258 C259 1.363 . S
C258 C264 1.379 . S
C258 N266 1.356 . S
C259 C258 1.363 . S
C259 C265 1.363 . S
C260 C261 1.363 . S
C260 C265 1.379 . S
C260 N267 1.356 . S
C261 C260 1.363 . S
C261 C264 1.363 . S
N262 C264 1.356 . S
N262 H274 0.984 . S
N262 H275 0.985 . S
N263 C265 1.356 1_565 S
N263 H268 0.984 . S
N263 H269 0.985 1_455 S
C264 C258 1.379 . S
C264 C261 1.363 . S
C264 N262 1.356 . S
C265 C259 1.363 . S
C265 C260 1.379 . S
C265 N263 1.356 1_545 S
N266 C258 1.356 . S
N266 H272 0.984 . S
N266 H273 0.984 1_545 S
N267 C260 1.356 . S
N267 H270 0.984 . S
N267 H271 0.985 . S
H268 N263 0.984 . S
H269 N263 0.985 1_655 S
H270 N267 0.984 . S
H271 N267 0.985 . S
H272 N266 0.984 . S
H273 N266 0.984 1_565 S
H274 N262 0.984 . S
H275 N262 0.985 . S
C276 C277 1.363 . S
C276 C282 1.379 . S
C276 N284 1.356 . S
C277 C276 1.363 . S
C277 C283 1.363 . S
C278 C279 1.363 . S
C278 C283 1.379 . S
C278 N285 1.356 . S
C279 C278 1.363 . S
C279 C282 1.363 . S
N280 C282 1.356 1_655 S
N280 H292 0.984 . S
N280 H293 0.985 . S
N281 C283 1.356 . S
N281 H286 0.984 . S
N281 H287 0.985 . S
C282 C276 1.379 . S
C282 C279 1.363 . S
C282 N280 1.356 1_455 S
C283 C277 1.363 . S
C283 C278 1.379 . S
C283 N281 1.356 . S
N284 C276 1.356 . S
N284 H290 0.984 1_545 S
N284 H291 0.984 . S
N285 C278 1.356 . S
N285 H288 0.984 . S
N285 H289 0.985 . S
H286 N281 0.984 . S
H287 N281 0.985 . S
H288 N285 0.984 . S
H289 N285 0.985 . S
H290 N284 0.984 1_565 S
H291 N284 0.984 . S
H292 N280 0.984 . S
H293 N280 0.985 . S
C294 C295 1.363 . S
C294 C300 1.379 . S
C294 N302 1.356 . S
C295 C294 1.363 . S
C295 C301 1.363 . S
C296 C297 1.363 . S
C296 C301 1.379 . S
C296 N303 1.356 . S
C297 C296 1.363 . S
C297 C300 1.363 . S
N298 C300 1.356 . S
N298 H310 0.984 . S
N298 H311 0.985 . S
N299 C301 1.356 . S
N299 H304 0.984 . S
N299 H305 0.985 . S
C300 C294 1.379 . S
C300 C297 1.363 . S
C300 N298 1.356 . S
C301 C295 1.363 . S
C301 C296 1.379 . S
C301 N299 1.356 . S
N302 C294 1.356 . S
N302 H308 0.984 . S
N302 H309 0.984 . S
N303 C296 1.356 . S
N303 H306 0.984 . S
N303 H307 0.985 . S
H304 N299 0.984 . S
H305 N299 0.985 . S
H306 N303 0.984 . S
H307 N303 0.985 . S
H308 N302 0.984 . S
H309 N302 0.984 . S
H310 N298 0.984 . S
H311 N298 0.985 . S
C312 C313 1.363 . S
C312 C318 1.379 . S
C312 N320 1.356 . S
C313 C312 1.363 . S
C313 C319 1.363 . S
C314 C315 1.363 . S
C314 C319 1.379 1_655 S
C314 N321 1.356 . S
C315 C314 1.363 . S
C315 C318 1.363 1_655 S
N316 C318 1.356 1_655 S
N316 H328 0.984 . S
N316 H329 0.985 . S
N317 C319 1.356 . S
N317 H322 0.984 . S
N317 H323 0.985 . S
C318 C312 1.379 . S
C318 C315 1.363 1_455 S
C318 N316 1.356 1_455 S
C319 C313 1.363 . S
C319 C314 1.379 1_455 S
C319 N317 1.356 . S
N320 C312 1.356 . S
N320 H326 0.984 . S
N320 H327 0.984 . S
N321 C314 1.356 . S
N321 H324 0.984 . S
N321 H325 0.985 . S
H322 N317 0.984 . S
H323 N317 0.985 . S
H324 N321 0.984 . S
H325 N321 0.985 . S
H326 N320 0.984 . S
H327 N320 0.984 . S
H328 N316 0.984 . S
H329 N316 0.985 . S
C330 C331 1.363 . S
C330 C336 1.379 . S
C330 N338 1.356 . S
C331 C330 1.363 . S
C331 C337 1.363 . S
C332 C333 1.363 . S
C332 C337 1.379 1_565 S
C332 N339 1.356 . S
C333 C332 1.363 . S
C333 C336 1.363 1_565 S
N334 C336 1.356 1_565 S
N334 H346 0.984 1_565 S
N334 H347 0.985 . S
N335 C337 1.356 . S
N335 H340 0.984 . S
N335 H341 0.985 . S
C336 C330 1.379 . S
C336 C333 1.363 1_545 S
C336 N334 1.356 1_545 S
C337 C331 1.363 . S
C337 C332 1.379 1_545 S
C337 N335 1.356 . S
N338 C330 1.356 . S
N338 H344 0.984 . S
N338 H345 0.984 . S
N339 C332 1.356 . S
N339 H342 0.984 . S
N339 H343 0.985 . S
H340 N335 0.984 . S
H341 N335 0.985 . S
H342 N339 0.984 . S
H343 N339 0.985 . S
H344 N338 0.984 . S
H345 N338 0.984 . S
H346 N334 0.984 1_545 S
H347 N334 0.985 . S
C348 C349 1.363 . S
C348 C354 1.379 . S
C348 N356 1.356 . S
C349 C348 1.363 . S
C349 C355 1.363 . S
C350 C351 1.363 . S
C350 C355 1.379 . S
C350 N357 1.356 1_655 S
C351 C350 1.363 . S
C351 C354 1.363 . S
N352 C354 1.356 . S
N352 H364 0.984 . S
N352 H365 0.985 . S
N353 C355 1.356 . S
N353 H358 0.984 . S
N353 H359 0.985 . S
C354 C348 1.379 . S
C354 C351 1.363 . S
C354 N352 1.356 . S
C355 C349 1.363 . S
C355 C350 1.379 . S
C355 N353 1.356 . S
N356 C348 1.356 . S
N356 H362 0.984 . S
N356 H363 0.984 . S
N357 C350 1.356 1_455 S
N357 H360 0.984 . S
N357 H361 0.985 . S
H358 N353 0.984 . S
H359 N353 0.985 . S
H360 N357 0.984 . S
H361 N357 0.985 . S
H362 N356 0.984 . S
H363 N356 0.984 . S
H364 N352 0.984 . S
H365 N352 0.985 . S
C366 C367 1.363 . S
C366 C372 1.379 . S
C366 N374 1.356 . S
C367 C366 1.363 . S
C367 C373 1.363 . S
C368 C369 1.363 . S
C368 C373 1.379 . S
C368 N375 1.356 . S
C369 C368 1.363 . S
C369 C372 1.363 . S
N370 C372 1.356 . S
N370 H382 0.984 . S
N370 H383 0.984 1_565 S
N371 C373 1.356 . S
N371 H376 0.984 . S
N371 H377 0.985 . S
C372 C366 1.379 . S
C372 C369 1.363 . S
C372 N370 1.356 . S
C373 C367 1.363 . S
C373 C368 1.379 . S
C373 N371 1.356 . S
N374 C366 1.356 . S
N374 H380 0.984 . S
N374 H381 0.984 . S
N375 C368 1.356 . S
N375 H378 0.984 . S
N375 H379 0.985 . S
H376 N371 0.984 . S
H377 N371 0.985 . S
H378 N375 0.984 . S
H379 N375 0.985 . S
H380 N374 0.984 . S
H381 N374 0.984 . S
H382 N370 0.984 . S
H383 N370 0.984 1_545 S
C384 C385 1.363 . S
C384 C390 1.379 . S
C384 N392 1.356 . S
C385 C384 1.363 . S
C385 C391 1.363 . S
C386 C387 1.363 . S
C386 C391 1.379 . S
C386 N393 1.356 . S
C387 C386 1.363 . S
C387 C390 1.363 . S
N388 C390 1.356 . S
N388 H400 0.984 . S
N388 H401 0.985 . S
N389 C391 1.356 . S
N389 H394 0.984 . S
N389 H395 0.985 . S
C390 C384 1.379 . S
C390 C387 1.363 . S
C390 N388 1.356 . S
C391 C385 1.363 . S
C391 C386 1.379 . S
C391 N389 1.356 . S
N392 C384 1.356 . S
N392 H398 0.984 . S
N392 H399 0.984 . S
N393 C386 1.356 . S
N393 H396 0.984 . S
N393 H397 0.985 . S
H394 N389 0.984 . S
H395 N389 0.985 . S
H396 N393 0.984 . S
H397 N393 0.985 . S
H398 N392 0.984 . S
H399 N392 0.984 . S
H400 N388 0.984 . S
H401 N388 0.985 . S
C402 C403 1.363 1_556 S
C402 C408 1.379 . S
C402 N410 1.356 . S
C403 C402 1.363 1_554 S
C403 C409 1.363 . S
C404 C405 1.363 . S
C404 C409 1.379 . S
C404 N411 1.356 . S
C405 C404 1.363 . S
C405 C408 1.363 1_554 S
N406 C408 1.356 1_565 S
N406 H418 0.984 . S
N406 H419 0.985 . S
N407 C409 1.356 . S
N407 H412 0.984 . S
N407 H413 0.985 . S
C408 C402 1.379 . S
C408 C405 1.363 1_556 S
C408 N406 1.356 1_545 S
C409 C403 1.363 . S
C409 C404 1.379 . S
C409 N407 1.356 . S
N410 C402 1.356 . S
N410 H416 0.984 . S
N410 H417 0.984 . S
N411 C404 1.356 . S
N411 H414 0.984 1_545 S
N411 H415 0.985 . S
H412 N407 0.984 . S
H413 N407 0.985 . S
H414 N411 0.984 1_565 S
H415 N411 0.985 . S
H416 N410 0.984 . S
H417 N410 0.984 . S
H418 N406 0.984 . S
H419 N406 0.985 . S
C420 C421 1.363 . S
C420 C426 1.379 . S
C420 N428 1.356 . S
C421 C420 1.363 . S
C421 C427 1.363 . S
C422 C423 1.363 . S
C422 C427 1.379 . S
C422 N429 1.356 . S
C423 C422 1.363 . S
C423 C426 1.363 . S
N424 C426 1.356 . S
N424 H436 0.984 . S
N424 H437 0.985 . S
N425 C427 1.356 . S
N425 H430 0.984 . S
N425 H431 0.985 . S
C426 C420 1.379 . S
C426 C423 1.363 . S
C426 N424 1.356 . S
C427 C421 1.363 . S
C427 C422 1.379 . S
C427 N425 1.356 . S
N428 C420 1.356 . S
N428 H434 0.984 . S
N428 H435 0.984 . S
N429 C422 1.356 . S
N429 H432 0.984 . S
N429 H433 0.985 . S
H430 N425 0.984 . S
H431 N425 0.985 . S
H432 N429 0.984 . S
H433 N429 0.985 . S
H434 N428 0.984 . S
H435 N428 0.984 . S
H436 N424 0.984 . S
H437 N424 0.985 . S
C438 C439 1.363 . S
C438 C444 1.379 . S
C438 N446 1.356 1_455 S
C439 C438 1.363 . S
C439 C445 1.363 . S
C440 C441 1.363 . S
C440 C445 1.379 . S
C440 N447 1.356 . S
C441 C440 1.363 . S
C441 C444 1.363 . S
N442 C444 1.356 . S
N442 H454 0.984 . S
N442 H455 0.985 . S
N443 C445 1.356 . S
N443 H448 0.984 . S
N443 H449 0.985 . S
C444 C438 1.379 . S
C444 C441 1.363 . S
C444 N442 1.356 . S
C445 C439 1.363 . S
C445 C440 1.379 . S
C445 N443 1.356 . S
N446 C438 1.356 1_655 S
N446 H452 0.984 . S
N446 H453 0.984 . S
N447 C440 1.356 . S
N447 H450 0.984 . S
N447 H451 0.985 . S
H448 N443 0.984 . S
H449 N443 0.985 . S
H450 N447 0.984 . S
H451 N447 0.985 . S
H452 N446 0.984 . S
H453 N446 0.984 . S
H454 N442 0.984 . S
H455 N442 0.985 . S
C456 C457 1.363 . S
C456 C462 1.379 . S
C456 N464 1.356 . S
C457 C456 1.363 . S
C457 C463 1.363 . S
C458 C459 1.363 . S
C458 C463 1.379 . S
C458 N465 1.356 . S
C459 C458 1.363 . S
C459 C462 1.363 . S
N460 C462 1.356 . S
N460 H472 0.984 . S
N460 H473 0.985 . S
N461 C463 1.356 . S
N461 H466 0.984 . S
N461 H467 0.985 . S
C462 C456 1.379 . S
C462 C459 1.363 . S
C462 N460 1.356 . S
C463 C457 1.363 . S
C463 C458 1.379 . S
C463 N461 1.356 . S
N464 C456 1.356 . S
N464 H470 0.984 . S
N464 H471 0.984 . S
N465 C458 1.356 . S
N465 H468 0.984 . S
N465 H469 0.985 . S
H466 N461 0.984 . S
H467 N461 0.985 . S
H468 N465 0.984 . S
H469 N465 0.985 . S
H470 N464 0.984 . S
H471 N464 0.984 . S
H472 N460 0.984 . S
H473 N460 0.985 . S
C474 C475 1.363 . S
C474 C480 1.379 . S
C474 N482 1.356 . S
C475 C474 1.363 . S
C475 C481 1.363 . S
C476 C477 1.363 . S
C476 C481 1.379 . S
C476 N483 1.356 . S
C477 C476 1.363 . S
C477 C480 1.363 . S
N478 C480 1.356 . S
N478 H490 0.984 . S
N478 H491 0.985 . S
N479 C481 1.356 . S
N479 H484 0.984 . S
N479 H485 0.985 . S
C480 C474 1.379 . S
C480 C477 1.363 . S
C480 N478 1.356 . S
C481 C475 1.363 . S
C481 C476 1.379 . S
C481 N479 1.356 . S
N482 C474 1.356 . S
N482 H488 0.984 . S
N482 H489 0.984 . S
N483 C476 1.356 . S
N483 H486 0.984 . S
N483 H487 0.985 . S
H484 N479 0.984 . S
H485 N479 0.985 . S
H486 N483 0.984 . S
H487 N483 0.985 . S
H488 N482 0.984 . S
H489 N482 0.984 . S
H490 N478 0.984 . S
H491 N478 0.985 . S
C492 C493 1.363 . S
C492 C498 1.379 . S
C492 N500 1.356 1_655 S
C493 C492 1.363 . S
C493 C499 1.363 . S
C494 C495 1.363 . S
C494 C499 1.379 . S
C494 N501 1.356 . S
C495 C494 1.363 . S
C495 C498 1.363 . S
N496 C498 1.356 . S
N496 H508 0.984 1_655 S
N496 H509 0.985 . S
N497 C499 1.356 . S
N497 H502 0.984 . S
N497 H503 0.985 . S
C498 C492 1.379 . S
C498 C495 1.363 . S
C498 N496 1.356 . S
C499 C493 1.363 . S
C499 C494 1.379 . S
C499 N497 1.356 . S
N500 C492 1.356 1_455 S
N500 H506 0.984 . S
N500 H507 0.984 1_455 S
N501 C494 1.356 . S
N501 H504 0.984 . S
N501 H505 0.985 1_545 S
H502 N497 0.984 . S
H503 N497 0.985 . S
H504 N501 0.984 . S
H505 N501 0.985 1_565 S
H506 N500 0.984 . S
H507 N500 0.984 1_655 S
H508 N496 0.984 1_455 S
H509 N496 0.985 . S
C510 C511 1.363 . S
C510 C516 1.379 . S
C510 N518 1.356 1_565 S
C511 C510 1.363 . S
C511 C517 1.363 . S
C512 C513 1.363 . S
C512 C517 1.379 . S
C512 N519 1.356 . S
C513 C512 1.363 . S
C513 C516 1.363 . S
N514 C516 1.356 . S
N514 H526 0.984 1_565 S
N514 H527 0.985 . S
N515 C517 1.356 . S
N515 H520 0.984 . S
N515 H521 0.985 . S
C516 C510 1.379 . S
C516 C513 1.363 . S
C516 N514 1.356 . S
C517 C511 1.363 . S
C517 C512 1.379 . S
C517 N515 1.356 . S
N518 C510 1.356 1_545 S
N518 H524 0.984 . S
N518 H525 0.984 1_545 S
N519 C512 1.356 . S
N519 H522 0.984 . S
N519 H523 0.985 . S
H520 N515 0.984 . S
H521 N515 0.985 . S
H522 N519 0.984 . S
H523 N519 0.985 . S
H524 N518 0.984 . S
H525 N518 0.984 1_565 S
H526 N514 0.984 1_545 S
H527 N514 0.985 . S
C528 C529 1.363 . S
C528 C534 1.379 . S
C528 N536 1.356 . S
C529 C528 1.363 . S
C529 C535 1.363 1_455 S
C530 C531 1.363 . S
C530 C535 1.379 1_455 S
C530 N537 1.356 1_455 S
C531 C530 1.363 . S
C531 C534 1.363 . S
N532 C534 1.356 . S
N532 H544 0.984 1_565 S
N532 H545 0.985 . S
N533 C535 1.356 . S
N533 H538 0.984 . S
N533 H539 0.985 . S
C534 C528 1.379 . S
C534 C531 1.363 . S
C534 N532 1.356 . S
C535 C529 1.363 1_655 S
C535 C530 1.379 1_655 S
C535 N533 1.356 . S
N536 C528 1.356 . S
N536 H542 0.984 . S
N536 H543 0.984 . S
N537 C530 1.356 1_655 S
N537 H540 0.984 1_655 S
N537 H541 0.985 . S
H538 N533 0.984 . S
H539 N533 0.985 . S
H540 N537 0.984 1_455 S
H541 N537 0.985 . S
H542 N536 0.984 . S
H543 N536 0.984 . S
H544 N532 0.984 1_545 S
H545 N532 0.985 . S
C546 C547 1.363 1_565 S
C546 C552 1.379 1_565 S
C546 N554 1.356 . S
C547 C546 1.363 1_545 S
C547 C553 1.363 . S
C548 C549 1.363 . S
C548 C553 1.379 . S
C548 N555 1.356 . S
C549 C548 1.363 . S
C549 C552 1.363 . S
N550 C552 1.356 1_565 S
N550 H562 0.984 . S
N550 H563 0.985 1_565 S
N551 C553 1.356 . S
N551 H556 0.984 . S
N551 H557 0.985 . S
C552 C546 1.379 1_545 S
C552 C549 1.363 . S
C552 N550 1.356 1_545 S
C553 C547 1.363 . S
C553 C548 1.379 . S
C553 N551 1.356 . S
N554 C546 1.356 . S
N554 H560 0.984 . S
N554 H561 0.984 . S
N555 C548 1.356 . S
N555 H558 0.984 . S
N555 H559 0.985 . S
H556 N551 0.984 . S
H557 N551 0.985 . S
H558 N555 0.984 . S
H559 N555 0.985 . S
H560 N554 0.984 . S
H561 N554 0.984 . S
H562 N550 0.984 . S
H563 N550 0.985 1_545 S
C241 C130 1.272 1_455 S
C243 C10 1.273 . S
C259 C170 1.273 1_545 S
C261 C50 1.273 . S
C277 C210 1.273 . S
C279 C90 1.273 . S
C295 C16 1.166 . S
C297 C87 1.269 . S
C313 C56 1.167 . S
C315 C127 1.269 . S
C331 C96 1.167 . S
C333 C167 1.270 . S
C349 C136 1.166 . S
C351 C207 1.270 . S
C367 C176 1.167 . S
C369 C7 1.270 . S
C385 C216 1.168 . S
C387 C47 1.270 . S
C403 C19 1.637 . S
C405 C139 1.636 1_545 S
C421 C59 1.641 . S
C423 C179 1.641 . S
C439 C99 1.640 1_455 S
C441 C219 1.640 . S
C457 C2 4.240 . S
C459 C51 4.302 . S
C475 C42 4.240 . S
C477 C91 4.302 . S
C493 C82 4.240 . S
C495 C131 4.302 . S
C511 C122 4.240 . S
C513 C171 4.303 . S
C529 C162 4.240 1_455 S
C531 C211 4.302 . S
C547 C202 4.240 1_545 S
C549 C11 4.302 . S
