# Generated by pormake.
# Topology snk, (6)-cn, num edge types: 1
# Building blocks:
#     Node 0, Type 0, BuildingBlock: PAMTOO_clean_sbu_0, # of connection points: 6
#     Node 1, Type 0, BuildingBlock: PAMTOO_clean_sbu_0, # of connection points: 6
#     Node 2, Type 0, BuildingBlock: PAMTOO_clean_sbu_0, # of connection points: 6
#     Node 3, Type 0, BuildingBlock: PAMTOO_clean_sbu_0, # of connection points: 6
#     Node 4, Type 0, BuildingBlock: PAMTOO_clean_sbu_0, # of connection points: 6
#     Node 5, Type 0, BuildingBlock: PAMTOO_clean_sbu_0, # of connection points: 6
#     Node 6, Type 0, BuildingBlock: PAMTOO_clean_sbu_0, # of connection points: 6
#     Node 7, Type 0, BuildingBlock: PAMTOO_clean_sbu_0, # of connection points: 6
#     Edge 8, Type (0, 0), None
#     Edge 9, Type (0, 0), None
#     Edge 10, Type (0, 0), None
#     Edge 11, Type (0, 0), None
#     Edge 12, Type (0, 0), None
#     Edge 13, Type (0, 0), None
#     Edge 14, Type (0, 0), None
#     Edge 15, Type (0, 0), None
#     Edge 16, Type (0, 0), None
#     Edge 17, Type (0, 0), None
#     Edge 18, Type (0, 0), None
#     Edge 19, Type (0, 0), None
#     Edge 20, Type (0, 0), None
#     Edge 21, Type (0, 0), None
#     Edge 22, Type (0, 0), None
#     Edge 23, Type (0, 0), None
#     Edge 24, Type (0, 0), None
#     Edge 25, Type (0, 0), None
#     Edge 26, Type (0, 0), None
#     Edge 27, Type (0, 0), None
#     Edge 28, Type (0, 0), None
#     Edge 29, Type (0, 0), None
#     Edge 30, Type (0, 0), None
#     Edge 31, Type (0, 0), None
# Relax obj value: 0.227
# Max RMSD: 0.296
# Mean RMSD: 0.260
data_MOF--net-snk--node1-PAMTOO_clean_sbu_0--edge1-none
_symmetry_space_group_name_H-M    P1
_symmetry_Int_Tables_number       1
_symmetry_cell_setting            triclinic
loop_
_symmetry_equiv_pos_as_xyz
'x, y, z'
_cell_length_a     17.054334
_cell_length_b     15.879906
_cell_length_c     15.542458
_cell_angle_alpha  90.316424
_cell_angle_beta   90.664295
_cell_angle_gamma 89.673448
loop_
_atom_site_label
_atom_site_type_symbol
_atom_site_fract_x
_atom_site_fract_y
_atom_site_fract_z
_atom_type_partial_charge
Dy0 Dy -0.07775 0.00844 0.64832 0.0
Dy1 Dy -0.07874 0.86586 0.50617 0.0
C2 C 0.03324 0.84239 0.67028 0.0
O3 O 0.01568 0.05583 0.55957 0.0
O4 O -0.01736 -0.02476 0.44307 0.0
O5 O -0.0154 0.08395 0.74229 0.0
O6 O 0.85742 0.08289 0.74068 0.0
O7 O 0.81039 -0.0587 0.48978 0.0
O8 O 0.85869 0.06678 0.5357 0.0
O9 O 0.86597 0.80437 0.62205 0.0
O10 O 0.81621 0.92817 0.67139 0.0
O11 O 0.85292 0.79087 0.41617 0.0
O12 O -0.02022 0.78947 0.41093 0.0
C13 C 0.02087 0.03863 0.47682 0.0
O14 O -0.00726 0.90263 0.70588 0.0
O15 O 0.02384 0.82389 0.58827 0.0
C16 C -0.07713 0.04799 0.86946 0.0
C17 C -0.06498 -0.04569 1.02556 0.0
C18 C -0.07819 0.90791 0.93887 0.0
C19 C -0.08603 -0.0403 0.86745 0.0
C20 C -0.06311 0.09062 0.94642 0.0
C21 C -0.05844 0.04739 1.02387 0.0
C22 C -0.079 0.09327 0.78725 0.0
C23 C 0.80938 0.02351 0.48747 0.0
C24 C 0.81846 0.84584 0.67377 0.0
C25 C -0.08758 0.82303 0.28489 0.0
C26 C -0.07061 0.91515 0.12888 0.0
C27 C -0.08878 -0.03792 0.21396 0.0
C28 C 0.90081 0.911 0.28527 0.0
C29 C -0.07173 0.77979 0.20892 0.0
C30 C -0.0657 0.82198 0.13128 0.0
C31 C -0.08564 0.77933 0.36799 0.0
H32 H -0.06917 0.91745 0.99399 0.0
H33 H 0.89753 0.92897 0.80856 0.0
H34 H -0.05802 0.15828 0.94655 0.0
H35 H -0.05478 0.08148 0.08296 0.0
H36 H -0.07671 -0.04783 0.15983 0.0
H37 H 0.88236 -0.05793 0.34319 0.0
H38 H -0.06563 0.71251 0.20929 0.0
H39 H -0.05947 0.78686 1.07285 0.0
Dy40 Dy 0.22531 0.65506 0.75045 0.0
Dy41 Dy 0.1041 0.66863 0.89235 0.0
C42 C 0.08313 0.78833 0.72652 0.0
O43 O 0.27983 0.75928 0.83354 0.0
O44 O 0.19931 0.74527 0.94959 0.0
O45 O 0.2675 0.55243 0.67163 0.0
O46 O 0.30256 0.68141 0.64588 0.0
O47 O 0.18475 0.55733 0.91678 0.0
O48 O 0.29501 0.61125 0.86331 0.0
O49 O 0.02772 0.62992 0.78137 0.0
O50 O 0.13128 0.55636 0.73818 0.0
O51 O 0.04644 0.7295 0.99679 0.0
O52 O 0.03449 0.59397 0.97746 0.0
C53 C 0.26093 0.77751 0.91429 0.0
O54 O 0.14027 0.74592 0.69126 0.0
O55 O 0.06427 0.77676 0.80782 0.0
C56 C 0.24768 0.60168 0.53126 0.0
C57 C 0.17703 0.60545 0.36696 0.0
C58 C 0.15936 0.66745 0.42862 0.0
C59 C 0.19512 0.66618 0.50894 0.0
C60 C 0.25361 0.53176 0.47647 0.0
C61 C 0.22132 0.53476 0.39334 0.0
C62 C 0.29063 0.60598 0.614 0.0
C63 C 0.26104 0.56626 0.92138 0.0
C64 C 0.05783 0.57764 0.7262 0.0
C65 C 0.07741 0.64233 0.11481 0.0
C66 C 0.1497 0.61712 0.2766 0.0
C67 C 0.13597 0.54843 0.22114 0.0
C68 C 0.10305 0.56141 0.13963 0.0
C69 C 0.09986 0.71131 0.16577 0.0
C70 C 0.13629 0.69899 0.24499 0.0
C71 C 0.03444 0.65645 1.03282 0.0
H72 H 0.12043 0.71955 0.41433 0.0
H73 H 0.18462 0.7188 0.55098 0.0
H74 H 0.28451 0.47595 0.497 0.0
H75 H 0.23348 0.48301 0.34994 0.0
H76 H 0.14778 0.48445 0.24092 0.0
H77 H 0.09467 0.50727 0.09796 0.0
H78 H 0.08907 0.77528 0.14494 0.0
H79 H 0.15274 0.75438 0.28167 0.0
Dy80 Dy 0.39225 0.00455 1.00249 0.0
Dy81 Dy 0.39923 0.86901 0.14959 0.0
C82 C 0.31028 0.83165 0.97105 0.0
O83 O 0.29073 0.03522 0.09155 0.0
O84 O 0.34926 -0.01518 0.21107 0.0
O85 O 0.30851 0.06522 0.91831 0.0
O86 O 0.43315 0.08484 0.90008 0.0
O87 O 0.50505 -0.05158 0.17294 0.0
O88 O 0.46061 0.07012 0.10961 0.0
O89 O 0.47491 0.81119 1.04599 0.0
O90 O 0.50535 -0.0649 0.97848 0.0
O91 O 0.45352 0.79444 0.25043 0.0
O92 O 0.32681 0.79861 0.23655 0.0
C93 C 0.29638 0.03293 0.17603 0.0
O94 O 0.35874 0.88423 0.93756 0.0
O95 O 0.30339 0.82923 1.05541 0.0
C96 C 0.35588 0.04416 0.77717 0.0
C97 C 0.34907 -0.03831 0.61423 0.0
C98 C 0.28691 -0.04607 0.67237 0.0
C99 C 0.29015 -0.00493 0.75292 0.0
C100 C 0.4188 0.04729 0.7208 0.0
C101 C 0.4148 0.00769 0.64063 0.0
C102 C 0.36318 0.08423 0.86391 0.0
C103 C 0.50671 0.03048 0.16563 0.0
C104 C 0.51748 0.85418 0.99082 0.0
C105 C 0.37818 0.82904 0.37315 0.0
C106 C 0.35024 0.9192 0.52798 0.0
C107 C 0.38733 -0.04223 0.45826 0.0
C108 C 0.40299 0.9127 0.38297 0.0
C109 C 0.33659 0.79219 0.43985 0.0
C110 C 0.32266 0.83689 0.51657 0.0
C111 C 0.3861 0.78632 0.28889 0.0
H112 H 0.23537 0.91774 0.65527 0.0
H113 H 0.24113 -0.01173 0.79594 0.0
H114 H 0.47184 0.07946 0.73979 0.0
H115 H 0.46422 0.01031 0.59911 0.0
H116 H 0.40572 0.02258 0.46251 0.0
H117 H 0.43521 -0.05657 0.33273 0.0
H118 H 0.31603 0.72867 0.43194 0.0
H119 H 0.29154 0.80751 0.56773 0.0
Dy120 Dy 0.10024 0.21461 0.25658 0.0
Dy121 Dy 0.22616 0.20621 0.40441 0.0
C122 C 0.24777 0.089 0.23208 0.0
O123 O 0.05357 0.10694 0.33897 0.0
O124 O 0.1298 0.12996 0.45904 0.0
O125 O 0.02156 0.17293 0.15849 0.0
O126 O 0.04437 0.30621 0.17153 0.0
O127 O 0.14395 0.31646 0.42795 0.0
O128 O 0.03376 0.26253 0.36933 0.0
O129 O 0.29846 0.25247 0.29469 0.0
O130 O 0.19167 0.31556 0.23723 0.0
O131 O 0.29177 0.28276 0.49486 0.0
O132 O 0.29115 0.14602 0.50717 0.0
C133 C 0.0708 0.09261 0.42116 0.0
O134 O 0.18869 0.12906 0.19635 0.0
O135 O 0.2673 0.10131 0.31419 0.0
C136 C 0.05692 0.24594 1.0329 0.0
C137 C 0.13066 0.24568 0.87041 0.0
C138 C 0.13444 0.17472 0.92392 0.0
C139 C 0.099 0.17509 1.00394 0.0
C140 C 0.05544 0.31839 0.98157 0.0
C141 C 0.0915 0.31826 0.90071 0.0
C142 C 0.02193 0.24564 0.11977 0.0
C143 C 0.06744 0.30824 0.42867 0.0
C144 C 0.26745 0.3008 0.23552 0.0
C145 C 0.25434 0.22726 0.62964 0.0
C146 C 0.16869 0.2423 0.7844 0.0
C147 C 0.2059 0.31284 0.74916 0.0
C148 C 0.24672 0.30569 0.67159 0.0
C149 C 0.21225 0.15889 0.66178 0.0
C150 C 0.17022 0.16618 0.73775 0.0
C151 C 0.29725 0.21859 0.54718 0.0
H152 H 0.16554 0.11836 0.90462 0.0
H153 H 0.10437 0.11889 1.04274 0.0
H154 H 0.02716 0.37521 1.0045 0.0
H155 H 0.08776 0.37451 0.8618 0.0
H156 H 0.20515 0.37308 0.78211 0.0
H157 H 0.27296 0.36147 0.64499 0.0
H158 H 0.21062 0.09947 0.62761 0.0
H159 H 0.13912 0.1114 0.75998 0.0
Dy160 Dy 0.7253 0.15503 0.25045 0.0
Dy161 Dy 0.60409 0.16868 0.39236 0.0
C162 C 0.58314 0.28831 0.22649 0.0
O163 O 0.77979 0.2593 0.33352 0.0
O164 O 0.69934 0.24524 0.44961 0.0
O165 O 0.76746 0.05242 0.17159 0.0
O166 O 0.80262 0.18139 0.14595 0.0
O167 O 0.6847 0.05736 0.41685 0.0
O168 O 0.79497 0.11121 0.36333 0.0
O169 O 0.52771 0.12993 0.28139 0.0
O170 O 0.63127 0.05633 0.23818 0.0
O171 O 0.54643 0.22962 0.49676 0.0
O172 O 0.53442 0.09409 0.47749 0.0
C173 C 0.76094 0.2775 0.41429 0.0
O174 O 0.64023 0.24583 0.19123 0.0
O175 O 0.56434 0.27682 0.30782 0.0
C176 C 0.74775 0.10177 1.03124 0.0
C177 C 0.67711 0.10564 0.86693 0.0
C178 C 0.65951 0.16766 0.92859 0.0
C179 C 0.69526 0.16634 1.00891 0.0
C180 C 0.75364 0.03186 0.97643 0.0
C181 C 0.72135 0.0349 0.8933 0.0
C182 C 0.79066 0.10598 0.11401 0.0
C183 C 0.76099 0.06625 0.42142 0.0
C184 C 0.5578 0.07759 0.22626 0.0
C185 C 0.57735 0.14248 0.61483 0.0
C186 C 0.64972 0.11729 0.77658 0.0
C187 C 0.63593 0.04859 0.72116 0.0
C188 C 0.60297 0.06156 0.63967 0.0
C189 C 0.59985 0.21146 0.66575 0.0
C190 C 0.63631 0.19916 0.74495 0.0
C191 C 0.5344 0.15659 0.53283 0.0
H192 H 0.62063 0.21981 0.91431 0.0
H193 H 0.68481 0.21897 1.05096 0.0
H194 H 0.78449 -0.02397 0.99695 0.0
H195 H 0.73346 -0.01686 0.8499 0.0
H196 H 0.64773 -0.01539 0.74094 0.0
H197 H 0.59458 0.00741 0.59801 0.0
H198 H 0.58907 0.27543 0.6449 0.0
H199 H 0.6528 0.25455 0.7816 0.0
Dy200 Dy 0.60026 0.71456 0.75663 0.0
Dy201 Dy 0.72618 0.70622 0.90447 0.0
C202 C 0.74784 0.58906 0.73209 0.0
O203 O 0.55367 0.60683 0.83898 0.0
O204 O 0.62981 0.62998 0.95909 0.0
O205 O 0.52158 0.67277 0.65859 0.0
O206 O 0.54429 0.80608 0.67156 0.0
O207 O 0.64395 0.81645 0.92802 0.0
O208 O 0.53378 0.76248 0.86939 0.0
O209 O 0.79846 0.75255 0.79477 0.0
O210 O 0.69165 0.81555 0.73723 0.0
O211 O 0.79177 0.78274 0.99497 0.0
O212 O 0.79117 0.646 1.00721 0.0
C213 C 0.57086 0.59256 0.92119 0.0
O214 O 0.68875 0.62911 0.69637 0.0
O215 O 0.76734 0.60134 0.81422 0.0
C216 C 0.55687 0.74575 0.53297 0.0
C217 C 0.63064 0.74551 0.37049 0.0
C218 C 0.63441 0.67454 0.42399 0.0
C219 C 0.59895 0.6749 0.504 0.0
C220 C 0.5554 0.81821 0.48164 0.0
C221 C 0.59148 0.81808 0.40079 0.0
C222 C 0.52189 0.74547 0.61984 0.0
C223 C 0.56744 0.80822 0.92872 0.0
C224 C 0.76744 0.80086 0.73558 0.0
C225 C 0.75436 0.72718 0.12972 0.0
C226 C 0.6687 0.74215 0.2845 0.0
C227 C 0.70592 0.81271 0.24929 0.0
C228 C 0.74675 0.80558 0.17172 0.0
C229 C 0.71227 0.6588 0.16183 0.0
C230 C 0.67024 0.66605 0.23781 0.0
C231 C 0.79727 0.71855 1.04726 0.0
H232 H 0.6655 0.61818 0.40468 0.0
H233 H 0.60431 0.6187 0.5428 0.0
H234 H 0.52712 0.87503 0.50456 0.0
H235 H 0.58775 0.87434 0.36189 0.0
H236 H 0.70517 0.87293 0.28227 0.0
H237 H 0.77298 0.86138 0.14515 0.0
H238 H 0.71062 0.59939 0.12764 0.0
H239 H 0.63913 0.61127 0.26001 0.0
Dy240 Dy 0.42226 0.5084 0.14828 0.0
Dy241 Dy 0.42128 0.36582 1.00613 0.0
C242 C 0.53326 0.34237 0.17024 0.0
O243 O 0.51572 0.55577 1.05958 0.0
O244 O 0.48271 0.47518 0.94307 0.0
O245 O 0.48457 0.58394 0.24226 0.0
O246 O 0.35739 0.58285 0.24063 0.0
O247 O 0.31043 0.44129 0.98972 0.0
O248 O 0.35874 0.56676 1.03565 0.0
O249 O 0.36599 0.30432 0.12201 0.0
O250 O 0.31623 0.42812 0.17134 0.0
O251 O 0.35294 0.29084 0.91612 0.0
O252 O 0.4798 0.28944 0.91087 0.0
C253 C 0.52094 0.53857 0.97684 0.0
O254 O 0.49276 0.40261 0.20585 0.0
O255 O 0.52385 0.32385 0.08824 0.0
C256 C 0.42282 0.54799 0.36942 0.0
C257 C 0.43502 0.45433 0.52553 0.0
C258 C 0.42184 0.40791 0.43884 0.0
C259 C 0.41398 0.45969 0.36742 0.0
C260 C 0.4368 0.59064 0.44638 0.0
C261 C 0.4415 0.54741 0.52383 0.0
C262 C 0.42096 0.59325 0.28721 0.0
C263 C 0.30943 0.5235 0.98741 0.0
C264 C 0.31848 0.34578 0.17372 0.0
C265 C 0.41243 0.32302 0.78484 0.0
C266 C 0.4294 0.41516 0.62885 0.0
C267 C 0.41128 0.46209 0.71394 0.0
C268 C 0.40086 0.41099 0.78525 0.0
C269 C 0.42823 0.27978 0.70886 0.0
C270 C 0.43426 0.32199 0.63123 0.0
C271 C 0.41438 0.2793 0.86793 0.0
H272 H 0.43087 0.41747 0.49396 0.0
H273 H 0.39756 0.42895 0.30853 0.0
H274 H 0.44184 0.6583 0.4465 0.0
H275 H 0.44513 0.58152 0.58292 0.0
H276 H 0.42334 0.45218 0.65981 0.0
H277 H 0.38244 0.44207 0.84318 0.0
H278 H 0.43428 0.2125 0.70922 0.0
H279 H 0.44045 0.28688 0.57279 0.0
Dy280 Dy 0.89228 0.50458 0.50245 0.0
Dy281 Dy 0.89927 0.36905 0.64956 0.0
C282 C 0.81029 0.33166 0.47104 0.0
O283 O 0.79079 0.53531 0.59154 0.0
O284 O 0.84929 0.48485 0.71105 0.0
O285 O 0.80857 0.5653 0.41827 0.0
O286 O -0.06677 0.58485 0.40006 0.0
O287 O 0.0051 0.44845 0.67289 0.0
O288 O -0.03936 0.57015 0.60956 0.0
O289 O -0.02508 0.31122 0.54595 0.0
O290 O 0.00537 0.43512 0.47843 0.0
O291 O -0.0464 0.2945 0.75039 0.0
O292 O 0.82688 0.29863 0.73655 0.0
C293 C 0.79645 0.533 0.67602 0.0
O294 O 0.85872 0.38427 0.43753 0.0
O295 O 0.80343 0.32923 0.55539 0.0
C296 C 0.85597 0.54419 0.27715 0.0
C297 C 0.84916 0.46171 0.11421 0.0
C298 C 0.78701 0.45392 0.17238 0.0
C299 C 0.79025 0.49506 0.25291 0.0
C300 C -0.08112 0.54732 0.22077 0.0
C301 C -0.08513 0.50771 0.14061 0.0
C302 C 0.86327 0.58427 0.36388 0.0
C303 C 0.00675 0.53051 0.66558 0.0
C304 C 0.01749 0.35421 0.49079 0.0
C305 C 0.87828 0.32908 0.87314 0.0
C306 C 0.85032 0.41922 1.02797 0.0
C307 C 0.88733 0.45784 0.95822 0.0
C308 C 0.903 0.41278 0.88293 0.0
C309 C 0.83678 0.29218 0.93987 0.0
C310 C 0.82285 0.33687 1.01659 0.0
C311 C 0.88619 0.28636 0.78887 0.0
H312 H 0.73549 0.41769 0.15528 0.0
H313 H 0.74124 0.48823 0.29595 0.0
H314 H -0.02808 0.57949 0.23976 0.0
H315 H -0.03572 0.51034 0.09907 0.0
H316 H 0.90566 0.52267 0.96247 0.0
H317 H -0.06481 0.44353 0.83267 0.0
H318 H 0.8163 0.22863 0.93199 0.0
H319 H 0.79183 0.30745 1.0678 0.0
loop_
_geom_bond_atom_site_label_1
_geom_bond_atom_site_label_2
_geom_bond_distance
_geom_bond_site_symmetry_2
_ccdc_geom_bond_type
Dy0 O3 2.307 . S
Dy0 O5 2.395 . S
Dy0 O6 2.379 1_455 S
Dy0 O8 2.339 1_455 S
Dy0 O10 2.298 1_445 S
Dy0 O14 2.275 1_545 S
Dy0 C22 2.738 1_455 S
Dy1 O4 2.298 1_665 S
Dy1 O7 2.275 1_565 S
Dy1 O9 2.307 . S
Dy1 O11 2.395 . S
Dy1 O12 2.379 1_655 S
Dy1 O15 2.339 1_655 S
Dy1 C31 2.738 1_655 S
C2 O14 1.254 . S
C2 O15 1.257 . S
O3 Dy0 2.307 . S
O3 C13 1.266 . S
O4 Dy1 2.298 1_445 S
O4 C13 1.236 . S
O5 Dy0 2.395 . S
O5 C22 1.255 1_455 S
O6 Dy0 2.379 1_655 S
O6 C22 1.249 . S
O7 Dy1 2.275 1_545 S
O7 C23 1.254 . S
O8 Dy0 2.339 1_655 S
O8 C23 1.257 . S
O9 Dy1 2.307 . S
O9 C24 1.266 . S
O10 Dy0 2.298 1_665 S
O10 C24 1.236 . S
O11 Dy1 2.395 . S
O11 C31 1.255 1_655 S
O12 Dy1 2.379 1_455 S
O12 C31 1.249 . S
C13 O3 1.266 . S
C13 O4 1.236 . S
O14 Dy0 2.275 1_565 S
O14 C2 1.254 . S
O15 Dy1 2.339 1_455 S
O15 C2 1.257 . S
C16 C19 1.344 . S
C16 C20 1.328 . S
C16 C22 1.516 . S
C17 C18 1.304 . S
C17 C21 1.323 . S
C18 C17 1.304 . S
C18 C19 1.371 . S
C18 H32 0.930 1_655 S
C19 C16 1.344 . S
C19 C18 1.371 . S
C19 H33 0.931 1_655 S
C20 C16 1.328 . S
C20 C21 1.433 . S
C20 H34 0.931 . S
C21 C17 1.323 . S
C21 C20 1.433 . S
C21 H35 0.933 . S
C22 Dy0 2.738 1_655 S
C22 O5 1.255 1_655 S
C22 O6 1.249 . S
C22 C16 1.516 . S
C23 O7 1.254 . S
C23 O8 1.257 . S
C24 O9 1.266 . S
C24 O10 1.236 . S
C25 C28 1.344 . S
C25 C29 1.328 . S
C25 C31 1.516 . S
C26 C27 1.304 . S
C26 C30 1.323 . S
C27 C26 1.304 . S
C27 C28 1.371 . S
C27 H36 0.930 1_455 S
C28 C25 1.344 . S
C28 C27 1.371 . S
C28 H37 0.931 1_455 S
C29 C25 1.328 . S
C29 C30 1.433 . S
C29 H38 0.931 . S
C30 C26 1.323 . S
C30 C29 1.433 . S
C30 H39 0.933 . S
C31 Dy1 2.738 1_455 S
C31 O11 1.255 1_455 S
C31 O12 1.249 . S
C31 C25 1.516 . S
H32 C18 0.930 1_455 S
H33 C19 0.931 1_455 S
H34 C20 0.931 . S
H35 C21 0.933 . S
H36 C27 0.930 1_655 S
H37 C28 0.931 1_655 S
H38 C29 0.931 . S
H39 C30 0.933 . S
Dy40 O43 2.307 . S
Dy40 O45 2.395 . S
Dy40 O46 2.379 . S
Dy40 O48 2.339 . S
Dy40 O50 2.298 . S
Dy40 O54 2.275 . S
Dy40 C62 2.738 . S
Dy41 O44 2.298 . S
Dy41 O47 2.275 . S
Dy41 O49 2.307 . S
Dy41 O51 2.395 . S
Dy41 O52 2.379 . S
Dy41 O55 2.339 . S
Dy41 C71 2.738 . S
C42 O54 1.254 . S
C42 O55 1.257 . S
O43 Dy40 2.307 . S
O43 C53 1.266 . S
O44 Dy41 2.298 . S
O44 C53 1.236 . S
O45 Dy40 2.395 . S
O45 C62 1.255 . S
O46 Dy40 2.379 . S
O46 C62 1.249 . S
O47 Dy41 2.275 . S
O47 C63 1.254 . S
O48 Dy40 2.339 . S
O48 C63 1.257 . S
O49 Dy41 2.307 . S
O49 C64 1.266 . S
O50 Dy40 2.298 . S
O50 C64 1.236 . S
O51 Dy41 2.395 . S
O51 C71 1.255 . S
O52 Dy41 2.379 . S
O52 C71 1.249 . S
C53 O43 1.266 . S
C53 O44 1.236 . S
O54 Dy40 2.275 . S
O54 C42 1.254 . S
O55 Dy41 2.339 . S
O55 C42 1.257 . S
C56 C59 1.344 . S
C56 C60 1.328 . S
C56 C62 1.516 . S
C57 C58 1.304 . S
C57 C61 1.323 . S
C58 C57 1.304 . S
C58 C59 1.371 . S
C58 H72 0.930 . S
C59 C56 1.344 . S
C59 C58 1.371 . S
C59 H73 0.931 . S
C60 C56 1.328 . S
C60 C61 1.433 . S
C60 H74 0.931 . S
C61 C57 1.323 . S
C61 C60 1.433 . S
C61 H75 0.933 . S
C62 Dy40 2.738 . S
C62 O45 1.255 . S
C62 O46 1.249 . S
C62 C56 1.516 . S
C63 O47 1.254 . S
C63 O48 1.257 . S
C64 O49 1.266 . S
C64 O50 1.236 . S
C65 C68 1.344 . S
C65 C69 1.328 . S
C65 C71 1.516 1_554 S
C66 C67 1.304 . S
C66 C70 1.323 . S
C67 C66 1.304 . S
C67 C68 1.371 . S
C67 H76 0.930 . S
C68 C65 1.344 . S
C68 C67 1.371 . S
C68 H77 0.931 . S
C69 C65 1.328 . S
C69 C70 1.433 . S
C69 H78 0.931 . S
C70 C66 1.323 . S
C70 C69 1.433 . S
C70 H79 0.933 1_455 S
C71 Dy41 2.738 . S
C71 O51 1.255 . S
C71 O52 1.249 . S
C71 C65 1.516 1_556 S
H72 C58 0.930 . S
H73 C59 0.931 . S
H74 C60 0.931 . S
H75 C61 0.933 . S
H76 C67 0.930 . S
H77 C68 0.931 . S
H78 C69 0.931 . S
H79 C70 0.933 1_655 S
Dy80 O83 2.307 1_556 S
Dy80 O85 2.395 . S
Dy80 O86 2.379 . S
Dy80 O88 2.339 . S
Dy80 O90 2.298 1_545 S
Dy80 O94 2.275 1_545 S
Dy80 C102 2.738 . S
Dy81 O84 2.298 1_565 S
Dy81 O87 2.275 1_565 S
Dy81 O89 2.307 1_554 S
Dy81 O91 2.395 . S
Dy81 O92 2.379 . S
Dy81 O95 2.339 . S
Dy81 C111 2.738 . S
C82 O94 1.254 . S
C82 O95 1.257 1_556 S
O83 Dy80 2.307 1_554 S
O83 C93 1.266 . S
O84 Dy81 2.298 1_545 S
O84 C93 1.236 . S
O85 Dy80 2.395 . S
O85 C102 1.255 . S
O86 Dy80 2.379 . S
O86 C102 1.249 . S
O87 Dy81 2.275 1_545 S
O87 C103 1.254 . S
O88 Dy80 2.339 . S
O88 C103 1.257 1_556 S
O89 Dy81 2.307 1_556 S
O89 C104 1.266 . S
O90 Dy80 2.298 1_565 S
O90 C104 1.236 . S
O91 Dy81 2.395 . S
O91 C111 1.255 . S
O92 Dy81 2.379 . S
O92 C111 1.249 . S
C93 O83 1.266 . S
C93 O84 1.236 . S
O94 Dy80 2.275 1_565 S
O94 C82 1.254 . S
O95 Dy81 2.339 . S
O95 C82 1.257 1_554 S
C96 C99 1.344 . S
C96 C100 1.328 . S
C96 C102 1.516 . S
C97 C98 1.304 . S
C97 C101 1.323 . S
C98 C97 1.304 . S
C98 C99 1.371 . S
C98 H112 0.930 . S
C99 C96 1.344 . S
C99 C98 1.371 . S
C99 H113 0.931 . S
C100 C96 1.328 . S
C100 C101 1.433 . S
C100 H114 0.931 . S
C101 C97 1.323 . S
C101 C100 1.433 . S
C101 H115 0.933 . S
C102 Dy80 2.738 . S
C102 O85 1.255 . S
C102 O86 1.249 . S
C102 C96 1.516 . S
C103 O87 1.254 . S
C103 O88 1.257 1_554 S
C104 O89 1.266 . S
C104 O90 1.236 . S
C105 C108 1.344 . S
C105 C109 1.328 . S
C105 C111 1.516 . S
C106 C107 1.304 . S
C106 C110 1.323 . S
C107 C106 1.304 . S
C107 C108 1.371 . S
C107 H116 0.930 . S
C108 C105 1.344 . S
C108 C107 1.371 . S
C108 H117 0.931 . S
C109 C105 1.328 . S
C109 C110 1.433 . S
C109 H118 0.931 . S
C110 C106 1.323 . S
C110 C109 1.433 . S
C110 H119 0.933 . S
C111 Dy81 2.738 . S
C111 O91 1.255 . S
C111 O92 1.249 . S
C111 C105 1.516 . S
H112 C98 0.930 . S
H113 C99 0.931 . S
H114 C100 0.931 . S
H115 C101 0.933 . S
H116 C107 0.930 . S
H117 C108 0.931 . S
H118 C109 0.931 . S
H119 C110 0.933 . S
Dy120 O123 2.307 . S
Dy120 O125 2.395 . S
Dy120 O126 2.379 . S
Dy120 O128 2.339 . S
Dy120 O130 2.298 . S
Dy120 O134 2.275 . S
Dy120 C142 2.738 . S
Dy121 O124 2.298 . S
Dy121 O127 2.275 . S
Dy121 O129 2.307 . S
Dy121 O131 2.395 . S
Dy121 O132 2.379 . S
Dy121 O135 2.339 . S
Dy121 C151 2.738 . S
C122 O134 1.254 . S
C122 O135 1.257 . S
O123 Dy120 2.307 . S
O123 C133 1.266 . S
O124 Dy121 2.298 . S
O124 C133 1.236 . S
O125 Dy120 2.395 . S
O125 C142 1.255 . S
O126 Dy120 2.379 . S
O126 C142 1.249 . S
O127 Dy121 2.275 . S
O127 C143 1.254 . S
O128 Dy120 2.339 . S
O128 C143 1.257 . S
O129 Dy121 2.307 . S
O129 C144 1.266 . S
O130 Dy120 2.298 . S
O130 C144 1.236 . S
O131 Dy121 2.395 . S
O131 C151 1.255 . S
O132 Dy121 2.379 . S
O132 C151 1.249 . S
C133 O123 1.266 . S
C133 O124 1.236 . S
O134 Dy120 2.275 . S
O134 C122 1.254 . S
O135 Dy121 2.339 . S
O135 C122 1.257 . S
C136 C139 1.344 . S
C136 C140 1.328 . S
C136 C142 1.516 1_556 S
C137 C138 1.304 . S
C137 C141 1.323 . S
C138 C137 1.304 . S
C138 C139 1.371 . S
C138 H152 0.930 . S
C139 C136 1.344 . S
C139 C138 1.371 . S
C139 H153 0.931 . S
C140 C136 1.328 . S
C140 C141 1.433 . S
C140 H154 0.931 1_455 S
C141 C137 1.323 . S
C141 C140 1.433 . S
C141 H155 0.933 1_455 S
C142 Dy120 2.738 . S
C142 O125 1.255 . S
C142 O126 1.249 . S
C142 C136 1.516 1_554 S
C143 O127 1.254 . S
C143 O128 1.257 . S
C144 O129 1.266 . S
C144 O130 1.236 . S
C145 C148 1.344 . S
C145 C149 1.328 . S
C145 C151 1.516 . S
C146 C147 1.304 . S
C146 C150 1.323 . S
C147 C146 1.304 . S
C147 C148 1.371 . S
C147 H156 0.930 . S
C148 C145 1.344 . S
C148 C147 1.371 . S
C148 H157 0.931 . S
C149 C145 1.328 . S
C149 C150 1.433 . S
C149 H158 0.931 . S
C150 C146 1.323 . S
C150 C149 1.433 . S
C150 H159 0.933 . S
C151 Dy121 2.738 . S
C151 O131 1.255 . S
C151 O132 1.249 . S
C151 C145 1.516 . S
H152 C138 0.930 . S
H153 C139 0.931 . S
H154 C140 0.931 1_655 S
H155 C141 0.933 1_655 S
H156 C147 0.930 . S
H157 C148 0.931 . S
H158 C149 0.931 . S
H159 C150 0.933 . S
Dy160 O163 2.307 . S
Dy160 O165 2.395 . S
Dy160 O166 2.379 . S
Dy160 O168 2.339 . S
Dy160 O170 2.298 . S
Dy160 O174 2.275 . S
Dy160 C182 2.738 . S
Dy161 O164 2.298 . S
Dy161 O167 2.275 . S
Dy161 O169 2.307 . S
Dy161 O171 2.395 . S
Dy161 O172 2.379 . S
Dy161 O175 2.339 . S
Dy161 C191 2.738 . S
C162 O174 1.254 . S
C162 O175 1.257 . S
O163 Dy160 2.307 . S
O163 C173 1.266 . S
O164 Dy161 2.298 . S
O164 C173 1.236 . S
O165 Dy160 2.395 . S
O165 C182 1.255 . S
O166 Dy160 2.379 . S
O166 C182 1.249 . S
O167 Dy161 2.275 . S
O167 C183 1.254 . S
O168 Dy160 2.339 . S
O168 C183 1.257 . S
O169 Dy161 2.307 . S
O169 C184 1.266 . S
O170 Dy160 2.298 . S
O170 C184 1.236 . S
O171 Dy161 2.395 . S
O171 C191 1.255 . S
O172 Dy161 2.379 . S
O172 C191 1.249 . S
C173 O163 1.266 . S
C173 O164 1.236 . S
O174 Dy160 2.275 . S
O174 C162 1.254 . S
O175 Dy161 2.339 . S
O175 C162 1.257 . S
C176 C179 1.344 . S
C176 C180 1.328 . S
C176 C182 1.516 1_556 S
C177 C178 1.304 . S
C177 C181 1.323 . S
C178 C177 1.304 . S
C178 C179 1.371 . S
C178 H192 0.930 . S
C179 C176 1.344 . S
C179 C178 1.371 . S
C179 H193 0.931 . S
C180 C176 1.328 . S
C180 C181 1.433 . S
C180 H194 0.931 . S
C181 C177 1.323 . S
C181 C180 1.433 . S
C181 H195 0.933 1_655 S
C182 Dy160 2.738 . S
C182 O165 1.255 . S
C182 O166 1.249 . S
C182 C176 1.516 1_554 S
C183 O167 1.254 . S
C183 O168 1.257 . S
C184 O169 1.266 . S
C184 O170 1.236 . S
C185 C188 1.344 . S
C185 C189 1.328 . S
C185 C191 1.516 . S
C186 C187 1.304 . S
C186 C190 1.323 . S
C187 C186 1.304 . S
C187 C188 1.371 . S
C187 H196 0.930 . S
C188 C185 1.344 . S
C188 C187 1.371 . S
C188 H197 0.931 . S
C189 C185 1.328 . S
C189 C190 1.433 . S
C189 H198 0.931 . S
C190 C186 1.323 . S
C190 C189 1.433 . S
C190 H199 0.933 . S
C191 Dy161 2.738 . S
C191 O171 1.255 . S
C191 O172 1.249 . S
C191 C185 1.516 . S
H192 C178 0.930 . S
H193 C179 0.931 . S
H194 C180 0.931 . S
H195 C181 0.933 1_455 S
H196 C187 0.930 . S
H197 C188 0.931 . S
H198 C189 0.931 . S
H199 C190 0.933 . S
Dy200 O203 2.307 . S
Dy200 O205 2.395 . S
Dy200 O206 2.379 . S
Dy200 O208 2.339 . S
Dy200 O210 2.298 . S
Dy200 O214 2.275 . S
Dy200 C222 2.738 . S
Dy201 O204 2.298 . S
Dy201 O207 2.275 . S
Dy201 O209 2.307 . S
Dy201 O211 2.395 . S
Dy201 O212 2.379 . S
Dy201 O215 2.339 . S
Dy201 C231 2.738 . S
C202 O214 1.254 . S
C202 O215 1.257 . S
O203 Dy200 2.307 . S
O203 C213 1.266 . S
O204 Dy201 2.298 . S
O204 C213 1.236 . S
O205 Dy200 2.395 . S
O205 C222 1.255 . S
O206 Dy200 2.379 . S
O206 C222 1.249 . S
O207 Dy201 2.275 . S
O207 C223 1.254 . S
O208 Dy200 2.339 . S
O208 C223 1.257 . S
O209 Dy201 2.307 . S
O209 C224 1.266 . S
O210 Dy200 2.298 . S
O210 C224 1.236 . S
O211 Dy201 2.395 . S
O211 C231 1.255 . S
O212 Dy201 2.379 . S
O212 C231 1.249 . S
C213 O203 1.266 . S
C213 O204 1.236 . S
O214 Dy200 2.275 . S
O214 C202 1.254 . S
O215 Dy201 2.339 . S
O215 C202 1.257 . S
C216 C219 1.344 . S
C216 C220 1.328 . S
C216 C222 1.516 . S
C217 C218 1.304 . S
C217 C221 1.323 . S
C218 C217 1.304 . S
C218 C219 1.371 . S
C218 H232 0.930 . S
C219 C216 1.344 . S
C219 C218 1.371 . S
C219 H233 0.931 . S
C220 C216 1.328 . S
C220 C221 1.433 . S
C220 H234 0.931 . S
C221 C217 1.323 . S
C221 C220 1.433 . S
C221 H235 0.933 . S
C222 Dy200 2.738 . S
C222 O205 1.255 . S
C222 O206 1.249 . S
C222 C216 1.516 . S
C223 O207 1.254 . S
C223 O208 1.257 . S
C224 O209 1.266 . S
C224 O210 1.236 . S
C225 C228 1.344 . S
C225 C229 1.328 . S
C225 C231 1.516 1_554 S
C226 C227 1.304 . S
C226 C230 1.323 . S
C227 C226 1.304 . S
C227 C228 1.371 . S
C227 H236 0.930 . S
C228 C225 1.344 . S
C228 C227 1.371 . S
C228 H237 0.931 . S
C229 C225 1.328 . S
C229 C230 1.433 . S
C229 H238 0.931 1_655 S
C230 C226 1.323 . S
C230 C229 1.433 . S
C230 H239 0.933 1_655 S
C231 Dy201 2.738 . S
C231 O211 1.255 . S
C231 O212 1.249 . S
C231 C225 1.516 1_556 S
H232 C218 0.930 . S
H233 C219 0.931 . S
H234 C220 0.931 . S
H235 C221 0.933 . S
H236 C227 0.930 . S
H237 C228 0.931 . S
H238 C229 0.931 1_455 S
H239 C230 0.933 1_455 S
Dy240 O243 2.307 1_554 S
Dy240 O245 2.395 . S
Dy240 O246 2.379 . S
Dy240 O248 2.339 . S
Dy240 O250 2.298 . S
Dy240 O254 2.275 . S
Dy240 C262 2.738 . S
Dy241 O244 2.298 . S
Dy241 O247 2.275 . S
Dy241 O249 2.307 1_556 S
Dy241 O251 2.395 . S
Dy241 O252 2.379 . S
Dy241 O255 2.339 . S
Dy241 C271 2.738 . S
C242 O254 1.254 . S
C242 O255 1.257 1_554 S
O243 Dy240 2.307 1_556 S
O243 C253 1.266 . S
O244 Dy241 2.298 . S
O244 C253 1.236 . S
O245 Dy240 2.395 . S
O245 C262 1.255 . S
O246 Dy240 2.379 . S
O246 C262 1.249 . S
O247 Dy241 2.275 . S
O247 C263 1.254 . S
O248 Dy240 2.339 . S
O248 C263 1.257 1_554 S
O249 Dy241 2.307 1_554 S
O249 C264 1.266 . S
O250 Dy240 2.298 . S
O250 C264 1.236 . S
O251 Dy241 2.395 . S
O251 C271 1.255 . S
O252 Dy241 2.379 . S
O252 C271 1.249 . S
C253 O243 1.266 . S
C253 O244 1.236 . S
O254 Dy240 2.275 . S
O254 C242 1.254 . S
O255 Dy241 2.339 . S
O255 C242 1.257 1_556 S
C256 C259 1.344 . S
C256 C260 1.328 . S
C256 C262 1.516 . S
C257 C258 1.304 . S
C257 C261 1.323 . S
C258 C257 1.304 . S
C258 C259 1.371 . S
C258 H272 0.930 . S
C259 C256 1.344 . S
C259 C258 1.371 . S
C259 H273 0.931 . S
C260 C256 1.328 . S
C260 C261 1.433 . S
C260 H274 0.931 . S
C261 C257 1.323 . S
C261 C260 1.433 . S
C261 H275 0.933 . S
C262 Dy240 2.738 . S
C262 O245 1.255 . S
C262 O246 1.249 . S
C262 C256 1.516 . S
C263 O247 1.254 . S
C263 O248 1.257 1_556 S
C264 O249 1.266 . S
C264 O250 1.236 . S
C265 C268 1.344 . S
C265 C269 1.328 . S
C265 C271 1.516 . S
C266 C267 1.304 . S
C266 C270 1.323 . S
C267 C266 1.304 . S
C267 C268 1.371 . S
C267 H276 0.930 . S
C268 C265 1.344 . S
C268 C267 1.371 . S
C268 H277 0.931 . S
C269 C265 1.328 . S
C269 C270 1.433 . S
C269 H278 0.931 . S
C270 C266 1.323 . S
C270 C269 1.433 . S
C270 H279 0.933 . S
C271 Dy241 2.738 . S
C271 O251 1.255 . S
C271 O252 1.249 . S
C271 C265 1.516 . S
H272 C258 0.930 . S
H273 C259 0.931 . S
H274 C260 0.931 . S
H275 C261 0.933 . S
H276 C267 0.930 . S
H277 C268 0.931 . S
H278 C269 0.931 . S
H279 C270 0.933 . S
Dy280 O283 2.307 . S
Dy280 O285 2.395 . S
Dy280 O286 2.379 1_655 S
Dy280 O288 2.339 1_655 S
Dy280 O290 2.298 1_655 S
Dy280 O294 2.275 . S
Dy280 C302 2.738 1_655 S
Dy281 O284 2.298 1_455 S
Dy281 O287 2.275 . S
Dy281 O289 2.307 . S
Dy281 O291 2.395 . S
Dy281 O292 2.379 1_455 S
Dy281 O295 2.339 1_455 S
Dy281 C311 2.738 1_455 S
C282 O294 1.254 . S
C282 O295 1.257 . S
O283 Dy280 2.307 . S
O283 C293 1.266 . S
O284 Dy281 2.298 1_655 S
O284 C293 1.236 . S
O285 Dy280 2.395 . S
O285 C302 1.255 1_655 S
O286 Dy280 2.379 1_455 S
O286 C302 1.249 . S
O287 Dy281 2.275 . S
O287 C303 1.254 . S
O288 Dy280 2.339 1_455 S
O288 C303 1.257 . S
O289 Dy281 2.307 . S
O289 C304 1.266 . S
O290 Dy280 2.298 1_455 S
O290 C304 1.236 . S
O291 Dy281 2.395 . S
O291 C311 1.255 1_455 S
O292 Dy281 2.379 1_655 S
O292 C311 1.249 . S
C293 O283 1.266 . S
C293 O284 1.236 . S
O294 Dy280 2.275 . S
O294 C282 1.254 . S
O295 Dy281 2.339 1_655 S
O295 C282 1.257 . S
C296 C299 1.344 1_455 S
C296 C300 1.328 . S
C296 C302 1.516 . S
C297 C298 1.304 . S
C297 C301 1.323 . S
C298 C297 1.304 . S
C298 C299 1.371 1_455 S
C298 H312 0.930 1_455 S
C299 C296 1.344 1_655 S
C299 C298 1.371 1_655 S
C299 H313 0.931 . S
C300 C296 1.328 . S
C300 C301 1.433 . S
C300 H314 0.931 . S
C301 C297 1.323 . S
C301 C300 1.433 . S
C301 H315 0.933 . S
C302 Dy280 2.738 1_455 S
C302 O285 1.255 1_455 S
C302 O286 1.249 . S
C302 C296 1.516 . S
C303 O287 1.254 . S
C303 O288 1.257 . S
C304 O289 1.266 . S
C304 O290 1.236 . S
C305 C308 1.344 1_655 S
C305 C309 1.328 . S
C305 C311 1.516 . S
C306 C307 1.304 . S
C306 C310 1.323 . S
C307 C306 1.304 . S
C307 C308 1.371 1_655 S
C307 H316 0.930 1_655 S
C308 C305 1.344 1_455 S
C308 C307 1.371 1_455 S
C308 H317 0.931 . S
C309 C305 1.328 . S
C309 C310 1.433 . S
C309 H318 0.931 . S
C310 C306 1.323 . S
C310 C309 1.433 . S
C310 H319 0.933 . S
C311 Dy281 2.738 1_655 S
C311 O291 1.255 1_655 S
C311 O292 1.249 . S
C311 C305 1.516 . S
H312 C298 0.930 1_655 S
H313 C299 0.931 . S
H314 C300 0.931 . S
H315 C301 0.933 . S
H316 C307 0.930 1_455 S
H317 C308 0.931 . S
H318 C309 0.931 . S
H319 C310 0.933 . S
C13 C133 2.063 . S
C2 C42 2.524 . S
C53 C82 1.890 . S
C93 C122 2.576 . S
C24 C224 2.064 . S
C23 C183 2.524 . S
C184 C103 1.890 . S
C223 C104 2.576 . S
C253 C213 2.063 . S
C162 C242 2.524 . S
C282 C173 1.890 . S
C202 C293 2.576 . S
C144 C264 2.063 . S
C263 C63 2.524 . S
C64 C303 1.890 . S
C143 C304 2.576 . S
C17 C26 4.803 1_646 S
C57 C66 4.604 . S
C97 C106 4.704 1_545 S
C137 C146 5.572 . S
C177 C186 4.604 . S
C217 C226 5.572 . S
C266 C257 4.804 . S
C306 C297 4.704 1_656 S
