# Generated by pormake.
# Topology whk, (6)-cn, num edge types: 1
# Building blocks:
#     Node 0, Type 0, BuildingBlock: IZENUY_clean_sbu_0, # of connection points: 6
#     Node 1, Type 0, BuildingBlock: IZENUY_clean_sbu_0, # of connection points: 6
#     Node 2, Type 0, BuildingBlock: IZENUY_clean_sbu_0, # of connection points: 6
#     Node 3, Type 0, BuildingBlock: IZENUY_clean_sbu_0, # of connection points: 6
#     Node 4, Type 0, BuildingBlock: IZENUY_clean_sbu_0, # of connection points: 6
#     Node 5, Type 0, BuildingBlock: IZENUY_clean_sbu_0, # of connection points: 6
#     Node 6, Type 0, BuildingBlock: IZENUY_clean_sbu_0, # of connection points: 6
#     Node 7, Type 0, BuildingBlock: IZENUY_clean_sbu_0, # of connection points: 6
#     Node 8, Type 0, BuildingBlock: IZENUY_clean_sbu_0, # of connection points: 6
#     Node 9, Type 0, BuildingBlock: IZENUY_clean_sbu_0, # of connection points: 6
#     Node 10, Type 0, BuildingBlock: IZENUY_clean_sbu_0, # of connection points: 6
#     Node 11, Type 0, BuildingBlock: IZENUY_clean_sbu_0, # of connection points: 6
#     Node 12, Type 0, BuildingBlock: IZENUY_clean_sbu_0, # of connection points: 6
#     Node 13, Type 0, BuildingBlock: IZENUY_clean_sbu_0, # of connection points: 6
#     Node 14, Type 0, BuildingBlock: IZENUY_clean_sbu_0, # of connection points: 6
#     Node 15, Type 0, BuildingBlock: IZENUY_clean_sbu_0, # of connection points: 6
#     Edge 16, Type (0, 0), BuildingBlock: UVAHIK_clean_linker_0, # of connection points: 2
#     Edge 17, Type (0, 0), BuildingBlock: UVAHIK_clean_linker_0, # of connection points: 2
#     Edge 18, Type (0, 0), BuildingBlock: UVAHIK_clean_linker_0, # of connection points: 2
#     Edge 19, Type (0, 0), BuildingBlock: UVAHIK_clean_linker_0, # of connection points: 2
#     Edge 20, Type (0, 0), BuildingBlock: UVAHIK_clean_linker_0, # of connection points: 2
#     Edge 21, Type (0, 0), BuildingBlock: UVAHIK_clean_linker_0, # of connection points: 2
#     Edge 22, Type (0, 0), BuildingBlock: UVAHIK_clean_linker_0, # of connection points: 2
#     Edge 23, Type (0, 0), BuildingBlock: UVAHIK_clean_linker_0, # of connection points: 2
#     Edge 24, Type (0, 0), BuildingBlock: UVAHIK_clean_linker_0, # of connection points: 2
#     Edge 25, Type (0, 0), BuildingBlock: UVAHIK_clean_linker_0, # of connection points: 2
#     Edge 26, Type (0, 0), BuildingBlock: UVAHIK_clean_linker_0, # of connection points: 2
#     Edge 27, Type (0, 0), BuildingBlock: UVAHIK_clean_linker_0, # of connection points: 2
#     Edge 28, Type (0, 0), BuildingBlock: UVAHIK_clean_linker_0, # of connection points: 2
#     Edge 29, Type (0, 0), BuildingBlock: UVAHIK_clean_linker_0, # of connection points: 2
#     Edge 30, Type (0, 0), BuildingBlock: UVAHIK_clean_linker_0, # of connection points: 2
#     Edge 31, Type (0, 0), BuildingBlock: UVAHIK_clean_linker_0, # of connection points: 2
#     Edge 32, Type (0, 0), BuildingBlock: UVAHIK_clean_linker_0, # of connection points: 2
#     Edge 33, Type (0, 0), BuildingBlock: UVAHIK_clean_linker_0, # of connection points: 2
#     Edge 34, Type (0, 0), BuildingBlock: UVAHIK_clean_linker_0, # of connection points: 2
#     Edge 35, Type (0, 0), BuildingBlock: UVAHIK_clean_linker_0, # of connection points: 2
#     Edge 36, Type (0, 0), BuildingBlock: UVAHIK_clean_linker_0, # of connection points: 2
#     Edge 37, Type (0, 0), BuildingBlock: UVAHIK_clean_linker_0, # of connection points: 2
#     Edge 38, Type (0, 0), BuildingBlock: UVAHIK_clean_linker_0, # of connection points: 2
#     Edge 39, Type (0, 0), BuildingBlock: UVAHIK_clean_linker_0, # of connection points: 2
#     Edge 40, Type (0, 0), BuildingBlock: UVAHIK_clean_linker_0, # of connection points: 2
#     Edge 41, Type (0, 0), BuildingBlock: UVAHIK_clean_linker_0, # of connection points: 2
#     Edge 42, Type (0, 0), BuildingBlock: UVAHIK_clean_linker_0, # of connection points: 2
#     Edge 43, Type (0, 0), BuildingBlock: UVAHIK_clean_linker_0, # of connection points: 2
#     Edge 44, Type (0, 0), BuildingBlock: UVAHIK_clean_linker_0, # of connection points: 2
#     Edge 45, Type (0, 0), BuildingBlock: UVAHIK_clean_linker_0, # of connection points: 2
#     Edge 46, Type (0, 0), BuildingBlock: UVAHIK_clean_linker_0, # of connection points: 2
#     Edge 47, Type (0, 0), BuildingBlock: UVAHIK_clean_linker_0, # of connection points: 2
#     Edge 48, Type (0, 0), BuildingBlock: UVAHIK_clean_linker_0, # of connection points: 2
#     Edge 49, Type (0, 0), BuildingBlock: UVAHIK_clean_linker_0, # of connection points: 2
#     Edge 50, Type (0, 0), BuildingBlock: UVAHIK_clean_linker_0, # of connection points: 2
#     Edge 51, Type (0, 0), BuildingBlock: UVAHIK_clean_linker_0, # of connection points: 2
#     Edge 52, Type (0, 0), BuildingBlock: UVAHIK_clean_linker_0, # of connection points: 2
#     Edge 53, Type (0, 0), BuildingBlock: UVAHIK_clean_linker_0, # of connection points: 2
#     Edge 54, Type (0, 0), BuildingBlock: UVAHIK_clean_linker_0, # of connection points: 2
#     Edge 55, Type (0, 0), BuildingBlock: UVAHIK_clean_linker_0, # of connection points: 2
#     Edge 56, Type (0, 0), BuildingBlock: UVAHIK_clean_linker_0, # of connection points: 2
#     Edge 57, Type (0, 0), BuildingBlock: UVAHIK_clean_linker_0, # of connection points: 2
#     Edge 58, Type (0, 0), BuildingBlock: UVAHIK_clean_linker_0, # of connection points: 2
#     Edge 59, Type (0, 0), BuildingBlock: UVAHIK_clean_linker_0, # of connection points: 2
#     Edge 60, Type (0, 0), BuildingBlock: UVAHIK_clean_linker_0, # of connection points: 2
#     Edge 61, Type (0, 0), BuildingBlock: UVAHIK_clean_linker_0, # of connection points: 2
#     Edge 62, Type (0, 0), BuildingBlock: UVAHIK_clean_linker_0, # of connection points: 2
#     Edge 63, Type (0, 0), BuildingBlock: UVAHIK_clean_linker_0, # of connection points: 2
# Relax obj value: 0.295
# Max RMSD: 0.219
# Mean RMSD: 0.219
data_MOF--net-whk--node1-IZENUY_clean_sbu_0--edge1-UVAHIK_clean_linker_0
_symmetry_space_group_name_H-M    P1
_symmetry_Int_Tables_number       1
_symmetry_cell_setting            triclinic
loop_
_symmetry_equiv_pos_as_xyz
'x, y, z'
_cell_length_a     45.598917
_cell_length_b     45.632801
_cell_length_c     66.148844
_cell_angle_alpha  89.983679
_cell_angle_beta   89.940682
_cell_angle_gamma 90.014135
loop_
_atom_site_label
_atom_site_type_symbol
_atom_site_fract_x
_atom_site_fract_y
_atom_site_fract_z
_atom_type_partial_charge
Fe0 Fe 0.56558 0.15127 0.39996 0.0
Fe1 Fe 0.53175 0.19466 0.42691 0.0
O2 O 0.55613 0.18778 0.40666 0.0
Fe3 Fe 0.57185 0.21766 0.39344 0.0
O4 O 0.6078 0.20676 0.40157 0.0
O5 O 0.6037 0.16036 0.39285 0.0
O6 O 0.57975 0.14401 0.42495 0.0
C7 C 0.5672 0.14878 0.44158 0.0
C8 C 0.56423 0.17448 0.36233 0.0
O9 O 0.54344 0.16312 0.44229 0.0
C10 C 0.51608 0.2373 0.39714 0.0
O11 O 0.52911 0.13587 0.40598 0.0
O12 O 0.50298 0.17433 0.41477 0.0
O13 O 0.57587 0.19767 0.36927 0.0
O14 O 0.55271 0.15619 0.37423 0.0
C15 C 0.57087 0.23853 0.43384 0.0
O16 O 0.51594 0.22757 0.41514 0.0
O17 O 0.53633 0.23045 0.38496 0.0
C18 C 0.50449 0.14838 0.40846 0.0
O19 O 0.55891 0.21566 0.44053 0.0
O20 O 0.57158 0.24339 0.415 0.0
C21 C 0.61911 0.18207 0.39829 0.0
Fe22 Fe 0.31083 0.53232 0.42644 0.0
Fe23 Fe 0.28614 0.57139 0.39296 0.0
O24 O 0.31671 0.55711 0.4063 0.0
Fe25 Fe 0.35279 0.56826 0.39978 0.0
O26 O 0.3596 0.58207 0.4248 0.0
O27 O 0.342 0.54488 0.44192 0.0
O28 O 0.28887 0.55867 0.44008 0.0
C29 C 0.26557 0.56986 0.43345 0.0
C30 C 0.35822 0.5072 0.40791 0.0
O31 O 0.26037 0.5699 0.41461 0.0
C32 C 0.33008 0.56639 0.36205 0.0
O33 O 0.27847 0.51536 0.41466 0.0
O34 O 0.27522 0.53531 0.38441 0.0
O35 O 0.36964 0.53232 0.40535 0.0
O36 O 0.33231 0.5045 0.4142 0.0
C37 C 0.31944 0.62017 0.39882 0.0
O38 O 0.30605 0.57659 0.36874 0.0
O39 O 0.34855 0.5557 0.37408 0.0
C40 C 0.26894 0.51495 0.39662 0.0
O41 O 0.29509 0.6077 0.40116 0.0
O42 O 0.34209 0.60619 0.39331 0.0
C43 C 0.35606 0.56879 0.44125 0.0
Fe44 Fe 0.93559 0.28525 0.39236 0.0
Fe45 Fe 0.93831 0.35198 0.39791 0.0
O46 O 0.94891 0.31622 0.40558 0.0
Fe47 Fe 0.97223 0.31115 0.42665 0.0
O48 O 0.94517 0.28937 0.43988 0.0
O49 O 0.93541 0.26036 0.41438 0.0
O50 O 0.89866 0.29457 0.39911 0.0
C51 C 0.88642 0.31859 0.39519 0.0
C52 C 0.99186 0.26833 0.39815 0.0
O53 O 0.90105 0.34095 0.38994 0.0
C54 C 0.99856 0.35794 0.40816 0.0
O55 O 0.93224 0.3042 0.36775 0.0
O56 O 0.95313 0.34677 0.37275 0.0
O57 O 0.99021 0.2785 0.416 0.0
O58 O 0.97227 0.27406 0.38524 0.0
C59 C 0.93413 0.35635 0.43932 0.0
O60 O 0.97362 0.36921 0.40466 0.0
O61 O 1.00084 0.33232 0.41499 0.0
C62 C 0.94317 0.32773 0.36081 0.0
O63 O 0.9223 0.35949 0.42229 0.0
O64 O 0.95825 0.34281 0.44106 0.0
C65 C 0.93441 0.26594 0.43313 0.0
Fe66 Fe 0.19891 0.97285 0.42454 0.0
Fe67 Fe 0.21561 0.92909 0.39118 0.0
O68 O 0.18856 0.94663 0.40615 0.0
Fe69 Fe 0.15101 0.93736 0.40334 0.0
O70 O 0.14144 0.94335 0.42998 0.0
O71 O 0.18372 0.95047 0.44473 0.0
O72 O 0.2342 0.95602 0.43037 0.0
C73 C 0.24273 0.92986 0.4284 0.0
C74 C 0.14754 0.99676 0.40739 0.0
O75 O 0.23423 0.91458 0.41358 0.0
C76 C 0.17249 0.93609 0.36287 0.0
O77 O 0.21551 0.99634 0.40553 0.0
O78 O 0.23993 0.9611 0.39024 0.0
O79 O 0.14178 0.9748 0.39648 0.0
O80 O 0.16533 0.9946 0.42201 0.0
C81 C 0.17668 0.88354 0.40115 0.0
O82 O 0.19881 0.94159 0.36767 0.0
O83 O 0.15371 0.92943 0.37623 0.0
C84 C 0.23616 0.98808 0.3941 0.0
O85 O 0.19599 0.89432 0.38964 0.0
O86 O 0.15829 0.89946 0.41018 0.0
C87 C 0.15787 0.94076 0.44527 0.0
Fe88 Fe 0.03339 0.81158 0.10692 0.0
Fe89 Fe 0.07353 0.78666 0.13958 0.0
O90 O 0.05787 0.81731 0.12723 0.0
Fe91 Fe 0.06747 0.85338 0.13494 0.0
O92 O 0.08136 0.86237 0.11012 0.0
O93 O 0.04521 0.8438 0.0923 0.0
O94 O 0.06042 0.79121 0.09269 0.0
C95 C 0.07232 0.76796 0.09872 0.0
C96 C 0.00639 0.85711 0.12641 0.0
O97 O 0.07288 0.762 0.11741 0.0
C98 C 0.06647 0.828 0.17186 0.0
O99 O 0.01743 0.77814 0.11797 0.0
O100 O 0.03802 0.77366 0.14796 0.0
O101 O 0.03104 0.86921 0.12955 0.0
O102 O 0.00473 0.83146 0.11955 0.0
C103 C 0.12089 0.82227 0.13532 0.0
O104 O 0.07807 0.80528 0.16422 0.0
O105 O 0.05473 0.84687 0.16055 0.0
C106 C 0.01765 0.7675 0.13573 0.0
O107 O 0.10937 0.79785 0.13144 0.0
O108 O 0.10568 0.84372 0.14153 0.0
C109 C 0.0686 0.85867 0.09346 0.0
Fe110 Fe 0.69096 0.03209 0.10764 0.0
Fe111 Fe 0.7171 0.06971 0.14128 0.0
O112 O 0.68602 0.05558 0.1286 0.0
Fe113 Fe 0.65027 0.06574 0.13662 0.0
O114 O 0.642 0.08139 0.11226 0.0
O115 O 0.65878 0.04546 0.0935 0.0
O116 O 0.7119 0.05936 0.09405 0.0
C117 C 0.73554 0.0703 0.10027 0.0
C118 C 0.64484 0.00532 0.12656 0.0
O119 O 0.74165 0.06972 0.11896 0.0
C120 C 0.67548 0.06186 0.17343 0.0
O121 O 0.72417 0.01475 0.11808 0.0
O122 O 0.72904 0.03346 0.14862 0.0
O123 O 0.63336 0.03012 0.13019 0.0
O124 O 0.67047 0.00333 0.11965 0.0
C125 C 0.68285 0.11819 0.13853 0.0
O126 O 0.6986 0.07324 0.16611 0.0
O127 O 0.65636 0.05128 0.16179 0.0
C128 C 0.73486 0.01375 0.13582 0.0
O129 O 0.70693 0.10628 0.13423 0.0
O130 O 0.66098 0.10321 0.14433 0.0
C131 C 0.64511 0.06951 0.09524 0.0
Fe132 Fe 0.43692 0.64843 0.13445 0.0
Fe133 Fe 0.47068 0.68978 0.10605 0.0
O134 O 0.44706 0.68436 0.12692 0.0
Fe135 Fe 0.43289 0.71512 0.14 0.0
O136 O 0.39625 0.70508 0.13293 0.0
O137 O 0.39942 0.65881 0.14222 0.0
O138 O 0.42144 0.64063 0.10998 0.0
C139 C 0.43362 0.64388 0.09307 0.0
C140 C 0.44058 0.67261 0.17158 0.0
O141 O 0.45755 0.65785 0.09155 0.0
C142 C 0.48883 0.73322 0.13463 0.0
O143 O 0.47262 0.63179 0.12791 0.0
O144 O 0.49946 0.66919 0.11793 0.0
O145 O 0.42945 0.69609 0.16468 0.0
O146 O 0.45121 0.65394 0.15963 0.0
C147 C 0.4325 0.73438 0.09913 0.0
O148 O 0.48787 0.72284 0.11681 0.0
O149 O 0.46918 0.727 0.14741 0.0
C150 C 0.49745 0.64344 0.12458 0.0
O151 O 0.4434 0.71086 0.09268 0.0
O152 O 0.43285 0.74006 0.11789 0.0
C153 C 0.38442 0.68082 0.13681 0.0
Fe154 Fe 0.85405 0.43657 0.13654 0.0
Fe155 Fe 0.8132 0.47013 0.10767 0.0
O156 O 0.81826 0.44666 0.12863 0.0
Fe157 Fe 0.78728 0.43254 0.14151 0.0
O158 O 0.79741 0.39592 0.13444 0.0
O159 O 0.84339 0.39917 0.14439 0.0
O160 O 0.8622 0.42081 0.11221 0.0
C161 C 0.85898 0.43257 0.09516 0.0
C162 C 0.82906 0.44059 0.17342 0.0
O163 O 0.84519 0.45656 0.09337 0.0
C164 C 0.76955 0.48856 0.13607 0.0
O165 O 0.871 0.47206 0.12995 0.0
O166 O 0.83392 0.4989 0.11953 0.0
O167 O 0.80597 0.42906 0.16622 0.0
O168 O 0.84806 0.45119 0.16167 0.0
C169 C 0.76826 0.43224 0.10062 0.0
O170 O 0.78019 0.48759 0.11831 0.0
O171 O 0.77539 0.46883 0.14886 0.0
C172 C 0.85954 0.49687 0.12642 0.0
O173 O 0.7919 0.44299 0.0942 0.0
O174 O 0.76256 0.43256 0.11937 0.0
C175 C 0.82156 0.38411 0.13867 0.0
Fe176 Fe 0.43815 0.85295 0.63412 0.0
Fe177 Fe 0.47148 0.81007 0.60655 0.0
O178 O 0.44781 0.81657 0.62725 0.0
Fe179 Fe 0.43314 0.78643 0.64073 0.0
O180 O 0.39665 0.79679 0.63346 0.0
O181 O 0.40039 0.8434 0.64183 0.0
O182 O 0.42301 0.86003 0.60934 0.0
C183 C 0.43521 0.85558 0.59255 0.0
C184 C 0.44111 0.82977 0.67173 0.0
O185 O 0.45922 0.84175 0.59157 0.0
C186 C 0.48883 0.76722 0.63569 0.0
O187 O 0.47431 0.86868 0.62754 0.0
O188 O 0.50052 0.83042 0.61836 0.0
O189 O 0.42985 0.80626 0.66502 0.0
O190 O 0.45192 0.84822 0.65964 0.0
C191 C 0.43246 0.76603 0.60019 0.0
O192 O 0.48787 0.77704 0.61774 0.0
O193 O 0.4693 0.77414 0.6484 0.0
C194 C 0.49897 0.85633 0.62478 0.0
O195 O 0.44388 0.78909 0.59336 0.0
O196 O 0.43275 0.76091 0.61903 0.0
C197 C 0.38513 0.82133 0.63688 0.0
Fe198 Fe 0.65063 0.43599 0.63429 0.0
Fe199 Fe 0.69161 0.47269 0.60753 0.0
O200 O 0.68648 0.4476 0.62758 0.0
Fe201 Fe 0.71744 0.43381 0.64063 0.0
O202 O 0.70881 0.3973 0.63271 0.0
O203 O 0.66182 0.39818 0.64066 0.0
O204 O 0.64377 0.4222 0.60928 0.0
C205 C 0.64654 0.43597 0.59296 0.0
C206 C 0.67392 0.43823 0.67189 0.0
O207 O 0.65984 0.46033 0.5925 0.0
C208 C 0.7344 0.49028 0.63657 0.0
O209 O 0.63336 0.47184 0.62887 0.0
O210 O 0.67065 0.50014 0.62065 0.0
O211 O 0.69811 0.42859 0.66507 0.0
O212 O 0.65502 0.44848 0.65999 0.0
C213 C 0.73664 0.43529 0.59978 0.0
O214 O 0.72444 0.48955 0.61866 0.0
O215 O 0.72819 0.47014 0.64896 0.0
C216 C 0.64507 0.49702 0.62748 0.0
O217 O 0.71317 0.44654 0.59341 0.0
O218 O 0.74245 0.43538 0.61856 0.0
C219 C 0.68468 0.38448 0.63522 0.0
Fe220 Fe 0.06556 0.6511 0.63546 0.0
Fe221 Fe 0.03037 0.69151 0.60731 0.0
O222 O 0.05482 0.68681 0.62777 0.0
Fe223 Fe 0.06896 0.71791 0.64035 0.0
O224 O 0.10551 0.70806 0.63298 0.0
O225 O 0.10314 0.66203 0.6428 0.0
O226 O 0.08058 0.64336 0.61085 0.0
C227 C 0.06777 0.6461 0.59413 0.0
C228 C 0.06211 0.67606 0.67243 0.0
O229 O 0.04328 0.65919 0.59302 0.0
C230 C 0.01264 0.73544 0.63553 0.0
O231 O 0.02992 0.63393 0.6294 0.0
O232 O 0.00231 0.67119 0.62036 0.0
O233 O 0.073 0.69941 0.66512 0.0
O234 O 0.05171 0.65679 0.66083 0.0
C235 C 0.06852 0.73594 0.59926 0.0
O236 O 0.01337 0.72474 0.61781 0.0
O237 O 0.03271 0.72979 0.64809 0.0
C238 C 0.00492 0.6458 0.62754 0.0
O239 O 0.05691 0.71256 0.59306 0.0
O240 O 0.06851 0.74211 0.61795 0.0
C241 C 0.11777 0.68411 0.63703 0.0
Fe242 Fe 0.80488 0.03065 0.60852 0.0
Fe243 Fe 0.7885 0.07473 0.64177 0.0
O244 O 0.8154 0.05709 0.62671 0.0
Fe245 Fe 0.85296 0.06648 0.62926 0.0
O246 O 0.86229 0.06023 0.60262 0.0
O247 O 0.8199 0.05273 0.5881 0.0
O248 O 0.76955 0.04746 0.60274 0.0
C249 C 0.76091 0.0736 0.60472 0.0
C250 C 0.85652 0.007 0.62555 0.0
O251 O 0.7696 0.08902 0.61941 0.0
C252 C 0.83197 0.06798 0.66983 0.0
O253 O 0.78844 0.00738 0.62772 0.0
O254 O 0.76418 0.04274 0.64297 0.0
O255 O 0.86239 0.02914 0.63626 0.0
O256 O 0.83848 0.00889 0.61105 0.0
C257 C 0.82718 0.12027 0.63136 0.0
O258 O 0.80559 0.06245 0.66523 0.0
O259 O 0.85055 0.07465 0.65634 0.0
C260 C 0.76787 0.01575 0.63918 0.0
O261 O 0.80809 0.10953 0.64306 0.0
O262 O 0.84548 0.10431 0.62228 0.0
C263 C 0.84576 0.06238 0.58736 0.0
Fe264 Fe 0.93626 0.14925 0.89713 0.0
Fe265 Fe 0.9704 0.18936 0.9261 0.0
O266 O 0.94645 0.18486 0.90536 0.0
Fe267 Fe 0.93216 0.21615 0.89312 0.0
O268 O 0.89564 0.20571 0.90022 0.0
O269 O 0.89862 0.15995 0.88981 0.0
O270 O 0.92102 0.14058 0.92157 0.0
C271 C 0.93345 0.1432 0.93843 0.0
C272 C 0.93958 0.17532 0.86051 0.0
O273 O 0.95778 0.15647 0.93984 0.0
C274 C 0.98808 0.23428 0.89857 0.0
O275 O 0.97211 0.13245 0.90316 0.0
O276 O 0.99899 0.16982 0.9131 0.0
O277 O 0.92842 0.1983 0.86813 0.0
O278 O 0.95024 0.15586 0.87186 0.0
C279 C 0.9319 0.23321 0.93441 0.0
O280 O 0.98708 0.22316 0.91616 0.0
O281 O 0.96843 0.22846 0.88572 0.0
C282 C 0.99692 0.14457 0.90559 0.0
O283 O 0.94319 0.20954 0.94032 0.0
O284 O 0.93228 0.23988 0.91579 0.0
C285 C 0.8837 0.18169 0.89583 0.0
Fe286 Fe 0.28686 0.93551 0.89198 0.0
Fe287 Fe 0.35374 0.93758 0.89728 0.0
O288 O 0.3181 0.9482 0.90518 0.0
Fe289 Fe 0.3133 0.97089 0.92657 0.0
O290 O 0.29205 0.94307 0.9395 0.0
O291 O 0.26212 0.93524 0.91421 0.0
O292 O 0.29589 0.89836 0.89827 0.0
C293 C 0.31983 0.886 0.89417 0.0
C294 C 0.26997 0.99135 0.89871 0.0
O295 O 0.34238 0.90053 0.88908 0.0
C296 C 0.35976 0.99771 0.90806 0.0
O297 O 0.30556 0.9324 0.86722 0.0
O298 O 0.34841 0.95277 0.87223 0.0
O299 O 0.28026 0.98894 0.91649 0.0
O300 O 0.27606 0.97249 0.88536 0.0
C301 C 0.35873 0.93284 0.93862 0.0
O302 O 0.37102 0.97284 0.90423 0.0
O303 O 0.33416 0.99986 0.91506 0.0
C304 C 0.32922 0.9431 0.86028 0.0
O305 O 0.3615 0.9211 0.92152 0.0
O306 O 0.34532 0.95697 0.94051 0.0
C307 C 0.26825 0.93301 0.93284 0.0
Fe308 Fe 0.53281 0.31318 0.92722 0.0
Fe309 Fe 0.57222 0.28825 0.89403 0.0
O310 O 0.55727 0.31881 0.90686 0.0
Fe311 Fe 0.56725 0.3549 0.89956 0.0
O312 O 0.58192 0.36259 0.92426 0.0
O313 O 0.54488 0.3455 0.94185 0.0
O314 O 0.55982 0.29259 0.94126 0.0
C315 C 0.57168 0.26939 0.935 0.0
C316 C 0.50642 0.35871 0.90748 0.0
O317 O 0.57204 0.26355 0.91624 0.0
C318 C 0.5648 0.33071 0.86235 0.0
O319 O 0.51662 0.27976 0.91638 0.0
O320 O 0.53634 0.27568 0.88611 0.0
O321 O 0.53119 0.37113 0.9057 0.0
O322 O 0.50435 0.3331 0.91436 0.0
C323 C 0.62018 0.3232 0.89776 0.0
O324 O 0.57597 0.30731 0.86937 0.0
O325 O 0.55377 0.34935 0.87417 0.0
C326 C 0.51635 0.2693 0.89859 0.0
O327 O 0.60853 0.29883 0.90157 0.0
O328 O 0.60503 0.345 0.8922 0.0
C329 C 0.56897 0.35934 0.9409 0.0
Fe330 Fe 0.21704 0.56925 0.89192 0.0
Fe331 Fe 0.15012 0.56578 0.89639 0.0
O332 O 0.18574 0.55537 0.90446 0.0
Fe333 Fe 0.19021 0.53153 0.92527 0.0
O334 O 0.21097 0.55855 0.93926 0.0
O335 O 0.24104 0.5691 0.91444 0.0
O336 O 0.20704 0.60597 0.89886 0.0
C337 C 0.18304 0.61799 0.89452 0.0
C338 C 0.23465 0.51321 0.89756 0.0
O339 O 0.16112 0.60314 0.88872 0.0
C340 C 0.14479 0.50536 0.9052 0.0
O341 O 0.19887 0.57286 0.86702 0.0
O342 O 0.15632 0.55137 0.87122 0.0
O343 O 0.22367 0.5144 0.91519 0.0
O344 O 0.22893 0.53282 0.88465 0.0
C345 C 0.14448 0.56905 0.93766 0.0
O346 O 0.13294 0.53026 0.90277 0.0
O347 O 0.17013 0.50306 0.91253 0.0
C348 C 0.17567 0.56177 0.85964 0.0
O349 O 0.14187 0.58137 0.92075 0.0
O350 O 0.15763 0.54467 0.93917 0.0
C351 C 0.23474 0.56946 0.93312 0.0
C352 C 0.59333 0.17944 0.33024 0.0
C353 C 0.5712 0.16508 0.34129 0.0
C354 C 0.6036 0.16789 0.31195 0.0
C355 C 0.6065 0.09762 0.28311 0.0
H356 H 0.63641 0.14775 0.2405 0.0
C357 C 0.64159 0.05604 0.20326 0.0
C358 C 0.66689 0.06863 0.19466 0.0
C359 C 0.63044 0.06633 0.22171 0.0
C360 C 0.62842 0.13343 0.25235 0.0
H361 H 0.54148 0.128 0.34108 0.0
H362 H 0.55854 0.10847 0.30881 0.0
H363 H 0.61378 0.16962 0.27024 0.0
H364 H 0.70095 0.10117 0.19933 0.0
H365 H 0.68146 0.11904 0.23139 0.0
H366 H 0.62068 0.06143 0.26482 0.0
C367 C 0.56868 0.1282 0.3146 0.0
C368 C 0.61542 0.14598 0.26948 0.0
C369 C 0.55861 0.13961 0.33303 0.0
C370 C 0.6815 0.09083 0.20547 0.0
C371 C 0.67015 0.10133 0.22377 0.0
C372 C 0.61921 0.08507 0.26585 0.0
C373 C 0.59183 0.14178 0.304 0.0
C374 C 0.60444 0.1283 0.28522 0.0
C375 C 0.64411 0.08968 0.23189 0.0
C376 C 0.63056 0.10283 0.25033 0.0
H377 H 0.60381 0.19892 0.33618 0.0
H378 H 0.62166 0.17888 0.30451 0.0
H379 H 0.59886 0.08318 0.29498 0.0
H380 H 0.62973 0.03896 0.19536 0.0
H381 H 0.61033 0.05689 0.22752 0.0
C382 C 0.4347 0.63326 0.19777 0.0
C383 C 0.43355 0.6632 0.1926 0.0
C384 C 0.42325 0.62328 0.21614 0.0
C385 C 0.40634 0.64221 0.26787 0.0
H386 H 0.34626 0.58203 0.26479 0.0
C387 C 0.36998 0.57231 0.33626 0.0
C388 C 0.33992 0.57363 0.34115 0.0
C389 C 0.38039 0.58337 0.3179 0.0
C390 C 0.36292 0.59889 0.26584 0.0
H391 H 0.4207 0.70622 0.20334 0.0
H392 H 0.40181 0.68873 0.23596 0.0
H393 H 0.36782 0.60188 0.23362 0.0
H394 H 0.29714 0.58648 0.32995 0.0
H395 H 0.3154 0.60475 0.29733 0.0
H396 H 0.40222 0.63844 0.30011 0.0
C397 C 0.41114 0.67308 0.22546 0.0
C398 C 0.37533 0.61013 0.24807 0.0
C399 C 0.42205 0.68307 0.20683 0.0
C400 C 0.32037 0.58503 0.32668 0.0
C401 C 0.3308 0.59556 0.30805 0.0
C402 C 0.39442 0.63047 0.28565 0.0
C403 C 0.41094 0.64298 0.23003 0.0
C404 C 0.39722 0.63184 0.24892 0.0
C405 C 0.36101 0.59548 0.30374 0.0
C406 C 0.37266 0.60864 0.28481 0.0
H407 H 0.44322 0.61722 0.18723 0.0
H408 H 0.42366 0.60001 0.21939 0.0
H409 H 0.4232 0.65887 0.26894 0.0
H410 H 0.3858 0.56382 0.34697 0.0
H411 H 0.40373 0.58276 0.31485 0.0
C412 C 0.91476 0.32188 0.32858 0.0
C413 C 0.93656 0.33662 0.33965 0.0
C414 C 0.9043 0.33338 0.31034 0.0
C415 C 0.89979 0.40409 0.28222 0.0
H416 H 0.87024 0.3544 0.23931 0.0
C417 C 0.86312 0.44659 0.20305 0.0
C418 C 0.83788 0.43378 0.19456 0.0
C419 C 0.87463 0.43618 0.22134 0.0
C420 C 0.87813 0.36858 0.25126 0.0
H421 H 0.9657 0.37416 0.33948 0.0
H422 H 0.94836 0.39357 0.30728 0.0
H423 H 0.89371 0.33226 0.26864 0.0
H424 H 0.80427 0.40077 0.19927 0.0
H425 H 0.8244 0.38268 0.23105 0.0
H426 H 0.88465 0.44042 0.26446 0.0
C427 C 0.93856 0.37362 0.31303 0.0
C428 C 0.89161 0.35588 0.26813 0.0
C429 C 0.94881 0.36228 0.3314 0.0
C430 C 0.82366 0.41128 0.20534 0.0
C431 C 0.83537 0.40065 0.22347 0.0
C432 C 0.8866 0.41679 0.26521 0.0
C433 C 0.91557 0.35979 0.30249 0.0
C434 C 0.90248 0.37341 0.28396 0.0
C435 C 0.86138 0.41249 0.23144 0.0
C436 C 0.87539 0.39918 0.24961 0.0
H437 H 0.90456 0.30224 0.33451 0.0
H438 H 0.88638 0.32216 0.3029 0.0
H439 H 0.90729 0.41839 0.2942 0.0
H440 H 0.87467 0.46391 0.19516 0.0
H441 H 0.89471 0.44575 0.22706 0.0
C442 C 0.18334 0.91675 0.32812 0.0
C443 C 0.16424 0.93129 0.34146 0.0
C444 C 0.17321 0.90672 0.30932 0.0
C445 C 0.11635 0.91567 0.27053 0.0
H446 H 0.12582 0.83239 0.26111 0.0
C447 C 0.05926 0.85955 0.20271 0.0
C448 C 0.07405 0.83652 0.19294 0.0
C449 C 0.06943 0.8706 0.2212 0.0
C450 C 0.12333 0.85578 0.26319 0.0
H451 H 0.12014 0.94807 0.34517 0.0
H452 H 0.10288 0.93172 0.31202 0.0
H453 H 0.14745 0.85473 0.29103 0.0
H454 H 0.11089 0.80668 0.19531 0.0
H455 H 0.12921 0.82646 0.22685 0.0
H456 H 0.09314 0.91722 0.24251 0.0
C457 C 0.12549 0.9277 0.31619 0.0
C458 C 0.13573 0.86854 0.28044 0.0
C459 C 0.13539 0.93709 0.33513 0.0
C460 C 0.0987 0.82421 0.20247 0.0
C461 C 0.10922 0.83561 0.22072 0.0
C462 C 0.10444 0.90305 0.25305 0.0
C463 C 0.14402 0.91165 0.30332 0.0
C464 C 0.13226 0.89859 0.28436 0.0
C465 C 0.09507 0.85934 0.23027 0.0
C466 C 0.10756 0.87282 0.24912 0.0
H467 H 0.20555 0.91158 0.3327 0.0
H468 H 0.188 0.89453 0.29964 0.0
H469 H 0.11342 0.93893 0.27313 0.0
H470 H 0.04015 0.86949 0.19582 0.0
H471 H 0.05731 0.88827 0.22822 0.0
C472 C 0.32336 0.9148 0.82795 0.0
C473 C 0.33802 0.93664 0.83904 0.0
C474 C 0.33474 0.9046 0.80957 0.0
C475 C 0.4051 0.90156 0.78056 0.0
H476 H 0.35488 0.87101 0.73829 0.0
C477 C 0.44651 0.86507 0.70083 0.0
C478 C 0.43418 0.83932 0.69276 0.0
C479 C 0.43616 0.87678 0.71912 0.0
C480 C 0.36922 0.87922 0.75004 0.0
H481 H 0.37533 0.96607 0.83876 0.0
H482 H 0.39447 0.94927 0.80633 0.0
H483 H 0.33302 0.89389 0.76794 0.0
H484 H 0.40195 0.80517 0.69817 0.0
H485 H 0.38397 0.82564 0.72987 0.0
H486 H 0.4413 0.88734 0.76224 0.0
C487 C 0.3747 0.9392 0.81216 0.0
C488 C 0.35668 0.89235 0.76712 0.0
C489 C 0.3635 0.94915 0.83068 0.0
C490 C 0.41212 0.82494 0.70389 0.0
C491 C 0.40154 0.83685 0.722 0.0
C492 C 0.41764 0.88875 0.76332 0.0
C493 C 0.36094 0.9162 0.80156 0.0
C494 C 0.37438 0.90352 0.78277 0.0
C495 C 0.41298 0.86324 0.72962 0.0
C496 C 0.39985 0.87717 0.74794 0.0
H497 H 0.30387 0.90437 0.83397 0.0
H498 H 0.32357 0.88666 0.80214 0.0
H499 H 0.41959 0.90931 0.79236 0.0
H500 H 0.46346 0.87678 0.69267 0.0
H501 H 0.44543 0.89715 0.72456 0.0
C502 C 0.57068 0.37 0.83613 0.0
C503 C 0.57205 0.3401 0.84136 0.0
C504 C 0.58223 0.38003 0.8178 0.0
C505 C 0.59954 0.36113 0.76618 0.0
H506 H 0.65894 0.42199 0.76928 0.0
C507 C 0.63451 0.43201 0.698 0.0
C508 C 0.6645 0.43087 0.69287 0.0
C509 C 0.62446 0.42072 0.71638 0.0
C510 C 0.64248 0.40494 0.76822 0.0
H511 H 0.58543 0.29716 0.83077 0.0
H512 H 0.60448 0.31471 0.7982 0.0
H513 H 0.63764 0.40184 0.80045 0.0
H514 H 0.70753 0.41816 0.7037 0.0
H515 H 0.68988 0.39951 0.73639 0.0
H516 H 0.60356 0.36503 0.73395 0.0
C517 C 0.59491 0.33031 0.80864 0.0
C518 C 0.63022 0.39352 0.78599 0.0
C519 C 0.58391 0.32028 0.82723 0.0
C520 C 0.68435 0.41947 0.70715 0.0
C521 C 0.67427 0.40872 0.72581 0.0
C522 C 0.6113 0.37304 0.74841 0.0
C523 C 0.59486 0.36038 0.80401 0.0
C524 C 0.60856 0.37159 0.78514 0.0
C525 C 0.64413 0.40857 0.73034 0.0
C526 C 0.6328 0.39512 0.74926 0.0
H527 H 0.56189 0.38601 0.84659 0.0
H528 H 0.58161 0.40328 0.8145 0.0
H529 H 0.58285 0.34431 0.76511 0.0
H530 H 0.61847 0.4405 0.68746 0.0
H531 H 0.60116 0.42117 0.71961 0.0
C532 C 0.05637 0.64237 0.70226 0.0
C533 C 0.06911 0.6675 0.6936 0.0
C534 C 0.06686 0.63106 0.72057 0.0
C535 C 0.11548 0.64797 0.76471 0.0
H536 H 0.12021 0.56329 0.76866 0.0
C537 C 0.1819 0.59119 0.82782 0.0
C538 C 0.16722 0.56884 0.83846 0.0
C539 C 0.17052 0.60213 0.80967 0.0
C540 C 0.1189 0.58696 0.76784 0.0
H541 H 0.10223 0.70103 0.69794 0.0
H542 H 0.12079 0.68115 0.72952 0.0
H543 H 0.0977 0.5857 0.73902 0.0
H544 H 0.12996 0.53932 0.8376 0.0
H545 H 0.11049 0.55802 0.80572 0.0
H546 H 0.13724 0.6491 0.7934 0.0
C547 C 0.10235 0.67033 0.72242 0.0
C548 C 0.10579 0.59988 0.75088 0.0
C549 C 0.09166 0.68181 0.70422 0.0
C550 C 0.14187 0.5565 0.82982 0.0
C551 C 0.13068 0.56724 0.81153 0.0
C552 C 0.12883 0.63504 0.78155 0.0
C553 C 0.09059 0.64437 0.73064 0.0
C554 C 0.10385 0.63061 0.74905 0.0
C555 C 0.14439 0.59077 0.80155 0.0
C556 C 0.13073 0.60438 0.78333 0.0
H557 H 0.03888 0.63084 0.69455 0.0
H558 H 0.05667 0.6115 0.72663 0.0
H559 H 0.11402 0.67163 0.7641 0.0
H560 H 0.20138 0.60136 0.83402 0.0
H561 H 0.18187 0.61996 0.80219 0.0
C562 C 0.8692 0.06579 0.69738 0.0
C563 C 0.84061 0.07275 0.69116 0.0
C564 C 0.87979 0.07521 0.71612 0.0
C565 C 0.85733 0.11117 0.76499 0.0
H566 H 0.93987 0.13169 0.76671 0.0
C567 C 0.90825 0.18024 0.82953 0.0
C568 C 0.93241 0.16726 0.83929 0.0
C569 C 0.89775 0.16901 0.81121 0.0
C570 C 0.91681 0.12595 0.76648 0.0
H571 H 0.80043 0.09459 0.69986 0.0
H572 H 0.81906 0.11206 0.73224 0.0
H573 H 0.91931 0.11046 0.73608 0.0
H574 H 0.9654 0.13326 0.83678 0.0
H575 H 0.94771 0.11441 0.80432 0.0
H576 H 0.85492 0.12798 0.79526 0.0
C577 C 0.83321 0.0985 0.72303 0.0
C578 C 0.90495 0.11347 0.74895 0.0
C579 C 0.8224 0.08844 0.70442 0.0
C580 C 0.94682 0.14383 0.82965 0.0
C581 C 0.93666 0.13299 0.8111 0.0
C582 C 0.86911 0.12419 0.78237 0.0
C583 C 0.86237 0.09264 0.72898 0.0
C584 C 0.87502 0.10569 0.74792 0.0
C585 C 0.91152 0.14494 0.80197 0.0
C586 C 0.899 0.13164 0.78333 0.0
H587 H 0.8837 0.05368 0.68744 0.0
H588 H 0.90196 0.06929 0.72027 0.0
H589 H 0.83438 0.10514 0.7651 0.0
H590 H 0.89646 0.19818 0.83652 0.0
H591 H 0.87852 0.17885 0.80441 0.0
C592 C 0.47628 0.10422 0.39625 0.0
C593 C 0.47666 0.13236 0.40492 0.0
C594 C 0.44958 0.08981 0.39279 0.0
C595 C 0.37297 0.08872 0.41037 0.0
H596 H 0.35678 0.04823 0.3601 0.0
C597 C 0.26001 0.03759 0.39672 0.0
C598 C 0.26029 0.00875 0.38927 0.0
C599 C 0.28532 0.05489 0.39582 0.0
C600 C 0.36102 0.0593 0.37427 0.0
H601 H 0.44914 0.16743 0.41656 0.0
H602 H 0.4031 0.14239 0.41059 0.0
H603 H 0.40413 0.07243 0.36489 0.0
H604 H 0.28674 0.97645 0.37345 0.0
H605 H 0.33071 0.0063 0.37223 0.0
H606 H 0.33039 0.07522 0.42005 0.0
C607 C 0.42332 0.13132 0.40662 0.0
C608 C 0.38817 0.07308 0.37702 0.0
C609 C 0.44981 0.14571 0.40996 0.0
C610 C 0.28573 0.99849 0.3795 0.0
C611 C 0.31103 0.0157 0.3787 0.0
C612 C 0.34598 0.07487 0.40769 0.0
C613 C 0.42284 0.10319 0.39808 0.0
C614 C 0.39439 0.08796 0.3951 0.0
C615 C 0.31146 0.04371 0.38751 0.0
C616 C 0.33961 0.05997 0.38962 0.0
H617 H 0.49653 0.09339 0.39209 0.0
H618 H 0.44986 0.06803 0.38628 0.0
H619 H 0.37728 0.09962 0.42461 0.0
H620 H 0.24074 0.04633 0.40416 0.0
H621 H 0.28467 0.07668 0.40229 0.0
C622 C 0.365 0.45336 0.41228 0.0
C623 C 0.37568 0.4802 0.40482 0.0
C624 C 0.3808 0.42758 0.40951 0.0
C625 C 0.43494 0.39106 0.37791 0.0
H626 H 0.44436 0.34118 0.42493 0.0
C627 C 0.50592 0.28481 0.3795 0.0
C628 C 0.49653 0.26214 0.39237 0.0
C629 C 0.49051 0.31132 0.37873 0.0
C630 C 0.44153 0.35456 0.41154 0.0
H631 H 0.4112 0.50083 0.38827 0.0
H632 H 0.43894 0.4552 0.38328 0.0
H633 H 0.4204 0.38842 0.42845 0.0
H634 H 0.4623 0.24829 0.413 0.0
H635 H 0.43482 0.29392 0.41106 0.0
H636 H 0.45575 0.3568 0.36093 0.0
C637 C 0.41825 0.45447 0.39133 0.0
C638 C 0.428 0.38175 0.41363 0.0
C639 C 0.40251 0.48053 0.3943 0.0
C640 C 0.47022 0.26553 0.40313 0.0
C641 C 0.45466 0.2918 0.40217 0.0
C642 C 0.44838 0.3636 0.37577 0.0
C643 C 0.4076 0.42782 0.39909 0.0
C644 C 0.4242 0.40012 0.39682 0.0
C645 C 0.46531 0.31548 0.39068 0.0
C646 C 0.45143 0.34486 0.39255 0.0
H647 H 0.3444 0.45218 0.42041 0.0
H648 H 0.37188 0.40731 0.41544 0.0
H649 H 0.43212 0.40478 0.36469 0.0
H650 H 0.52624 0.28287 0.37111 0.0
H651 H 0.49934 0.32908 0.36973 0.0
C652 C 0.02608 0.40127 0.39399 0.0
C653 C 0.02577 0.37517 0.4053 0.0
C654 C 0.0524 0.41658 0.39098 0.0
C655 C 0.12493 0.42673 0.41375 0.0
H656 H 0.15068 0.45183 0.3606 0.0
C657 C 0.24127 0.46885 0.40306 0.0
C658 C 0.24454 0.4948 0.3919 0.0
C659 C 0.21517 0.45297 0.40217 0.0
C660 C 0.14367 0.44517 0.37555 0.0
H661 H 0.05288 0.34477 0.42234 0.0
H662 H 0.09824 0.37147 0.41726 0.0
H663 H 0.1025 0.42864 0.36463 0.0
H664 H 0.22384 0.52341 0.36995 0.0
H665 H 0.17796 0.49594 0.36869 0.0
H666 H 0.1655 0.44339 0.42488 0.0
C667 C 0.07827 0.38018 0.41075 0.0
C668 C 0.1161 0.43199 0.37785 0.0
C669 C 0.05221 0.36483 0.41358 0.0
C670 C 0.222 0.50339 0.37867 0.0
C671 C 0.19567 0.48765 0.37797 0.0
C672 C 0.15226 0.43998 0.4115 0.0
C673 C 0.07869 0.40621 0.39947 0.0
C674 C 0.1067 0.42229 0.39695 0.0
C675 C 0.19156 0.46291 0.39034 0.0
C676 C 0.16222 0.44897 0.39235 0.0
H677 H 0.0061 0.40968 0.38731 0.0
H678 H 0.05216 0.43669 0.38227 0.0
H679 H 0.11802 0.41993 0.42871 0.0
H680 H 0.25841 0.46154 0.41321 0.0
H681 H 0.21308 0.43348 0.41142 0.0
C682 C 0.11123 0.02845 0.38873 0.0
C683 C 0.13208 0.02494 0.40421 0.0
C684 C 0.09699 0.05538 0.38602 0.0
C685 C 0.07819 0.1226 0.41403 0.0
H686 H 0.0664 0.15745 0.36117 0.0
C687 C 0.03641 0.23972 0.40754 0.0
C688 C 0.01293 0.24435 0.39419 0.0
C689 C 0.0529 0.21403 0.40652 0.0
C690 C 0.06939 0.14787 0.37601 0.0
H691 H 0.15477 0.04729 0.42862 0.0
H692 H 0.13019 0.09383 0.42383 0.0
H693 H 0.09012 0.10942 0.36396 0.0
H694 H 0.98973 0.22659 0.36831 0.0
H695 H 0.01844 0.18149 0.36669 0.0
H696 H 0.05745 0.16064 0.42616 0.0
C697 C 0.12442 0.07574 0.414 0.0
C698 C 0.08287 0.12037 0.3776 0.0
C699 C 0.1386 0.049 0.41669 0.0
C700 C 0.00768 0.22368 0.37883 0.0
C701 C 0.02414 0.19782 0.37789 0.0
C702 C 0.06479 0.14993 0.41245 0.0
C703 C 0.10328 0.07922 0.39877 0.0
C704 C 0.08769 0.10762 0.39667 0.0
C705 C 0.0462 0.19227 0.39222 0.0
C706 C 0.06053 0.16309 0.39347 0.0
H707 H 0.10583 0.01039 0.37878 0.0
H708 H 0.08068 0.05738 0.3742 0.0
H709 H 0.08096 0.11308 0.42891 0.0
H710 H 0.04128 0.2554 0.41936 0.0
H711 H 0.07029 0.21075 0.41743 0.0
C712 C 0.97788 0.89985 0.14047 0.0
C713 C 0.97874 0.87359 0.12936 0.0
C714 C 0.9513 0.91483 0.14313 0.0
C715 C 0.87986 0.92465 0.11918 0.0
H716 H 0.85154 0.94903 0.17184 0.0
C717 C 0.76337 0.96864 0.12756 0.0
C718 C 0.7596 0.9936 0.13968 0.0
C719 C 0.78938 0.95257 0.12843 0.0
C720 C 0.85926 0.94264 0.157 0.0
H721 H 0.95233 0.84249 0.1124 0.0
H722 H 0.90651 0.86872 0.11682 0.0
H723 H 0.89974 0.92574 0.16882 0.0
H724 H 0.77948 0.02036 0.16306 0.0
H725 H 0.82516 0.99279 0.1642 0.0
H726 H 0.84011 0.94191 0.10713 0.0
C727 C 0.92626 0.87773 0.12347 0.0
C728 C 0.88685 0.92935 0.1553 0.0
C729 C 0.95256 0.86266 0.12103 0.0
C730 C 0.78167 1.00113 0.15358 0.0
C731 C 0.8079 0.98528 0.15424 0.0
C732 C 0.85255 0.93814 0.12082 0.0
C733 C 0.92533 0.90398 0.13447 0.0
C734 C 0.89719 0.91992 0.13638 0.0
C735 C 0.81244 0.96138 0.14119 0.0
C736 C 0.84167 0.94698 0.13977 0.0
H737 H 0.99765 0.90872 0.14717 0.0
H738 H 0.95111 0.93511 0.15164 0.0
H739 H 0.88752 0.91798 0.10436 0.0
H740 H 0.74661 0.96212 0.11687 0.0
H741 H 0.79174 0.93374 0.11861 0.0
C742 C 0.50112 0.77984 0.15277 0.0
C743 C 0.50873 0.75815 0.1386 0.0
C744 C 0.51655 0.80633 0.15348 0.0
C745 C 0.56196 0.85236 0.11982 0.0
H746 H 0.57595 0.89853 0.16808 0.0
C747 C 0.63781 0.95203 0.11985 0.0
C748 C 0.62772 0.97796 0.12901 0.0
C749 C 0.62242 0.92588 0.12207 0.0
C750 C 0.57185 0.88595 0.15449 0.0
H751 H 0.54 0.74612 0.11536 0.0
H752 H 0.56761 0.79171 0.11714 0.0
H753 H 0.55297 0.85017 0.171 0.0
H754 H 0.59365 0.99659 0.14793 0.0
H755 H 0.56666 0.95031 0.15199 0.0
H756 H 0.58129 0.88779 0.10337 0.0
C757 C 0.54903 0.78884 0.12716 0.0
C758 C 0.55876 0.85826 0.15613 0.0
C759 C 0.53341 0.76256 0.12627 0.0
C760 C 0.60186 0.97702 0.1406 0.0
C761 C 0.58656 0.95057 0.14303 0.0
C762 C 0.57521 0.87979 0.11821 0.0
C763 C 0.54009 0.81152 0.14019 0.0
C764 C 0.55396 0.84099 0.13881 0.0
C765 C 0.59665 0.92483 0.13364 0.0
C766 C 0.58056 0.89674 0.13552 0.0
H767 H 0.48211 0.77717 0.16243 0.0
H768 H 0.50899 0.82329 0.16367 0.0
H769 H 0.5578 0.84016 0.10608 0.0
H770 H 0.65764 0.95186 0.11082 0.0
H771 H 0.63088 0.90631 0.11485 0.0
C772 C 0.52559 0.60062 0.13879 0.0
C773 C 0.52482 0.62645 0.1272 0.0
C774 C 0.55207 0.58552 0.14155 0.0
C775 C 0.62379 0.57476 0.1178 0.0
H776 H 0.65165 0.55279 0.17106 0.0
C777 C 0.74081 0.53341 0.12766 0.0
C778 C 0.74471 0.50859 0.13991 0.0
C779 C 0.71455 0.54908 0.12825 0.0
C780 C 0.64405 0.55853 0.15607 0.0
H781 H 0.5512 0.65651 0.10931 0.0
H782 H 0.59686 0.63009 0.11391 0.0
H783 H 0.60324 0.57545 0.16735 0.0
H784 H 0.72485 0.48182 0.16333 0.0
H785 H 0.67876 0.50879 0.16404 0.0
H786 H 0.66398 0.55761 0.10633 0.0
C787 C 0.57713 0.6215 0.12088 0.0
C788 C 0.61634 0.57142 0.15397 0.0
C789 C 0.55093 0.63669 0.11833 0.0
C790 C 0.72256 0.50093 0.15374 0.0
C791 C 0.69609 0.51642 0.15415 0.0
C792 C 0.65125 0.56172 0.11986 0.0
C793 C 0.57802 0.5958 0.13249 0.0
C794 C 0.60618 0.58 0.13483 0.0
C795 C 0.69141 0.54004 0.14088 0.0
C796 C 0.66196 0.55382 0.13903 0.0
H797 H 0.50586 0.5923 0.1459 0.0
H798 H 0.55222 0.56567 0.15052 0.0
H799 H 0.61628 0.58076 0.10283 0.0
H800 H 0.75763 0.54003 0.11702 0.0
H801 H 0.71204 0.56773 0.11827 0.0
C802 C 0.00672 0.71998 0.15323 0.0
C803 C 0.99792 0.74259 0.14012 0.0
C804 C 0.99104 0.69362 0.15398 0.0
C805 C 0.94196 0.65023 0.12125 0.0
H806 H 0.93182 0.6011 0.1686 0.0
C807 C 0.866 0.55062 0.12104 0.0
C808 C 0.87665 0.52419 0.12916 0.0
C809 C 0.88149 0.57666 0.12353 0.0
C810 C 0.93481 0.61452 0.15524 0.0
H811 H 0.96444 0.75639 0.11894 0.0
H812 H 0.9365 0.71102 0.12083 0.0
H813 H 0.95563 0.64902 0.17193 0.0
H814 H 0.91181 0.5046 0.14659 0.0
H815 H 0.939 0.55062 0.15106 0.0
H816 H 0.92085 0.61608 0.10462 0.0
C817 C 0.95611 0.71308 0.12994 0.0
C818 C 0.94838 0.64195 0.15713 0.0
C819 C 0.97194 0.73921 0.129 0.0
C820 C 0.90314 0.52455 0.14004 0.0
C821 C 0.91857 0.55086 0.14272 0.0
C822 C 0.92828 0.62306 0.11941 0.0
C823 C 0.96611 0.68951 0.14179 0.0
C824 C 0.95181 0.66027 0.14017 0.0
C825 C 0.90795 0.5771 0.13433 0.0
C826 C 0.92428 0.60504 0.13639 0.0
H827 H 0.02676 0.72188 0.16191 0.0
H828 H 0.99942 0.67595 0.16325 0.0
H829 H 0.94503 0.66328 0.10773 0.0
H830 H 0.84565 0.55126 0.11262 0.0
H831 H 0.87258 0.59661 0.11711 0.0
C832 C 0.71831 0.00554 0.65389 0.0
C833 C 0.74367 0.99518 0.64406 0.0
C834 C 0.6929 0.98848 0.65465 0.0
C835 C 0.65753 0.92992 0.62536 0.0
H836 H 0.59949 0.932 0.66825 0.0
C837 C 0.5536 0.85929 0.62282 0.0
C838 C 0.52678 0.87247 0.62815 0.0
C839 C 0.58009 0.87369 0.62612 0.0
C840 C 0.61541 0.93147 0.65609 0.0
H841 H 0.76296 0.95756 0.62904 0.0
H842 H 0.71882 0.9275 0.63084 0.0
H843 H 0.64695 0.95596 0.67314 0.0
H844 H 0.50697 0.91116 0.64141 0.0
H845 H 0.55364 0.93655 0.64713 0.0
H846 H 0.62609 0.90555 0.60831 0.0
C847 C 0.71834 0.94924 0.63739 0.0
C848 C 0.64262 0.9451 0.6589 0.0
C849 C 0.74375 0.96638 0.63653 0.0
C850 C 0.5272 0.90047 0.63703 0.0
C851 C 0.55391 0.9149 0.64044 0.0
C852 C 0.63047 0.91624 0.62261 0.0
C853 C 0.69227 0.96055 0.64574 0.0
C854 C 0.66401 0.94452 0.64353 0.0
C855 C 0.58061 0.90167 0.6349 0.0
C856 C 0.60909 0.91685 0.63792 0.0
H857 H 0.71746 0.02754 0.65999 0.0
H858 H 0.67328 0.99797 0.66115 0.0
H859 H 0.6731 0.92967 0.61299 0.0
H860 H 0.55425 0.83768 0.61606 0.0
H861 H 0.60028 0.86272 0.62196 0.0
C862 C 0.64432 0.54819 0.64017 0.0
C863 C 0.62872 0.52369 0.63316 0.0
C864 C 0.62991 0.57441 0.64435 0.0
C865 C 0.55623 0.60876 0.65079 0.0
H866 H 0.59857 0.6783 0.63388 0.0
C867 C 0.53037 0.73478 0.62565 0.0
C868 C 0.50907 0.74262 0.64003 0.0
C869 C 0.54643 0.70898 0.62775 0.0
C870 C 0.58634 0.65914 0.63863 0.0
H871 H 0.58562 0.507 0.62571 0.0
H872 H 0.56032 0.55343 0.63217 0.0
H873 H 0.62198 0.63085 0.6314 0.0
H874 H 0.48912 0.73016 0.66856 0.0
H875 H 0.51781 0.68524 0.67249 0.0
H876 H 0.51992 0.63721 0.65686 0.0
C877 C 0.5837 0.55217 0.63489 0.0
C878 C 0.59996 0.63184 0.63749 0.0
C879 C 0.59815 0.52561 0.63107 0.0
C880 C 0.50534 0.72476 0.65719 0.0
C881 C 0.52154 0.69885 0.65932 0.0
C882 C 0.54246 0.63616 0.65175 0.0
C883 C 0.59954 0.57709 0.64121 0.0
C884 C 0.58506 0.60621 0.6434 0.0
C885 C 0.54184 0.69036 0.64439 0.0
C886 C 0.55724 0.66164 0.6454 0.0
H887 H 0.66785 0.54715 0.64232 0.0
H888 H 0.64275 0.59273 0.64979 0.0
H889 H 0.5442 0.58958 0.65572 0.0
H890 H 0.5339 0.748 0.61226 0.0
H891 H 0.56156 0.70306 0.6158 0.0
C892 C 0.97577 0.59933 0.6316 0.0
C893 C 0.97792 0.62992 0.63319 0.0
C894 C 0.94904 0.58523 0.63556 0.0
C895 C 0.86932 0.60204 0.63807 0.0
H896 H 0.86376 0.52247 0.65816 0.0
C897 C 0.77649 0.50732 0.65822 0.0
C898 C 0.75864 0.51091 0.64106 0.0
C899 C 0.80224 0.52378 0.6604 0.0
C900 C 0.86485 0.5449 0.65287 0.0
H901 H 0.95465 0.66953 0.64156 0.0
H902 H 0.90879 0.64506 0.64933 0.0
H903 H 0.91145 0.54658 0.65674 0.0
H904 H 0.75303 0.53584 0.61338 0.0
H905 H 0.79773 0.56386 0.61696 0.0
H906 H 0.82281 0.60074 0.63463 0.0
C907 C 0.92706 0.63189 0.64414 0.0
C908 C 0.8923 0.55857 0.65174 0.0
C909 C 0.95344 0.64595 0.63979 0.0
C910 C 0.76626 0.5324 0.62676 0.0
C911 C 0.79193 0.54868 0.62889 0.0
C912 C 0.84195 0.58855 0.63943 0.0
C913 C 0.92418 0.60145 0.64156 0.0
C914 C 0.89495 0.58719 0.64403 0.0
C915 C 0.81061 0.54417 0.6455 0.0
C916 C 0.83937 0.5596 0.64643 0.0
H917 H 0.99436 0.58648 0.62656 0.0
H918 H 0.94766 0.56179 0.63324 0.0
H919 H 0.87035 0.62391 0.63176 0.0
H920 H 0.77124 0.491 0.66955 0.0
H921 H 0.81587 0.52012 0.67356 0.0
C922 C 0.86523 0.9545 0.61677 0.0
C923 C 0.87212 0.9789 0.62883 0.0
C924 C 0.87957 0.92785 0.61956 0.0
C925 C 0.92283 0.88436 0.65581 0.0
H926 H 0.94602 0.84255 0.60734 0.0
C927 C 0.99807 0.78093 0.65444 0.0
C928 C 0.99193 0.75972 0.6396 0.0
C929 C 0.98175 0.8069 0.65535 0.0
C930 C 0.93932 0.8537 0.62105 0.0
H931 H 0.89921 0.99414 0.65365 0.0
H932 H 0.92464 0.94735 0.65838 0.0
H933 H 0.92226 0.88994 0.60439 0.0
H934 H 0.96221 0.74788 0.61536 0.0
H935 H 0.93349 0.79272 0.61722 0.0
H936 H 0.94024 0.84788 0.67243 0.0
C937 C 0.90792 0.94899 0.64682 0.0
C938 C 0.92576 0.88094 0.61934 0.0
C939 C 0.8935 0.97582 0.64401 0.0
C940 C 0.96778 0.76398 0.62677 0.0
C941 C 0.95143 0.78977 0.62775 0.0
C942 C 0.9365 0.85696 0.65752 0.0
C943 C 0.90126 0.92479 0.63447 0.0
C944 C 0.91702 0.89647 0.63666 0.0
C945 C 0.95894 0.81202 0.64149 0.0
C946 C 0.94456 0.84118 0.64012 0.0
H947 H 0.84865 0.95588 0.60509 0.0
H948 H 0.87349 0.9095 0.61006 0.0
H949 H 0.9162 0.89574 0.66943 0.0
H950 H 0.01657 0.77832 0.66454 0.0
H951 H 0.98807 0.82361 0.66611 0.0
C952 C 0.02635 0.09832 0.90116 0.0
C953 C 0.02437 0.12901 0.90055 0.0
C954 C 0.0534 0.08444 0.89799 0.0
C955 C 0.13303 0.10092 0.9004 0.0
H956 H 0.14111 0.02428 0.87582 0.0
C957 C 0.22872 0.0109 0.87737 0.0
C958 C 0.24535 0.01196 0.89526 0.0
C959 C 0.20275 0.02705 0.87563 0.0
C960 C 0.13932 0.0459 0.88245 0.0
H961 H 0.04851 0.1691 0.89473 0.0
H962 H 0.09506 0.14506 0.8885 0.0
H963 H 0.09318 0.04804 0.87652 0.0
H964 H 0.2484 0.03205 0.92493 0.0
H965 H 0.20326 0.05967 0.92203 0.0
H966 H 0.17911 0.09918 0.90599 0.0
C967 C 0.07625 0.13161 0.89224 0.0
C968 C 0.11173 0.05933 0.88312 0.0
C969 C 0.04949 0.14542 0.89572 0.0
C970 C 0.23619 0.03065 0.91093 0.0
C971 C 0.21027 0.04666 0.90922 0.0
C972 C 0.16055 0.08765 0.89958 0.0
C973 C 0.07881 0.10102 0.89387 0.0
C974 C 0.10819 0.08691 0.89229 0.0
C975 C 0.19288 0.04463 0.89173 0.0
C976 C 0.16402 0.0598 0.89087 0.0
H977 H 0.00729 0.08517 0.90483 0.0
H978 H 0.05457 0.06084 0.89949 0.0
H979 H 0.1312 0.12195 0.90787 0.0
H980 H 0.23517 0.99679 0.86497 0.0
H981 H 0.19015 0.0254 0.86181 0.0
C982 C 0.40306 0.02558 0.89408 0.0
C983 C 0.37707 0.02496 0.90554 0.0
C984 C 0.41848 0.05193 0.89147 0.0
C985 C 0.42931 0.12355 0.91547 0.0
H986 H 0.45371 0.15107 0.86259 0.0
C987 C 0.47123 0.24039 0.90607 0.0
C988 C 0.49665 0.2443 0.89439 0.0
C989 C 0.45565 0.21411 0.90524 0.0
C990 C 0.44729 0.14356 0.87748 0.0
H991 H 0.34701 0.05154 0.92328 0.0
H992 H 0.37391 0.09692 0.9189 0.0
H993 H 0.43042 0.1029 0.86597 0.0
H994 H 0.52466 0.22439 0.87171 0.0
H995 H 0.49774 0.1782 0.87053 0.0
H996 H 0.44632 0.16362 0.92718 0.0
C997 C 0.38244 0.07718 0.91196 0.0
C998 C 0.43403 0.11598 0.8794 0.0
C999 C 0.36696 0.05111 0.91438 0.0
C1000 C 0.50507 0.22208 0.88084 0.0
C1001 C 0.48963 0.19557 0.88018 0.0
C1002 C 0.44267 0.15088 0.9136 0.0
C1003 C 0.40835 0.07792 0.90052 0.0
C1004 C 0.42455 0.10594 0.8984 0.0
C1005 C 0.46534 0.19092 0.89291 0.0
C1006 C 0.45143 0.16149 0.89456 0.0
H1007 H 0.4113 0.00584 0.88698 0.0
H1008 H 0.43849 0.05192 0.88262 0.0
H1009 H 0.42269 0.11614 0.93035 0.0
H1010 H 0.46402 0.25726 0.91648 0.0
H1011 H 0.4365 0.21162 0.91479 0.0
C1012 C 0.45431 0.35802 0.89655 0.0
C1013 C 0.47908 0.37431 0.90227 0.0
C1014 C 0.42774 0.37191 0.89254 0.0
C1015 C 0.39294 0.44473 0.88367 0.0
H1016 H 0.32393 0.40389 0.90325 0.0
C1017 C 0.26723 0.47253 0.90901 0.0
C1018 C 0.25922 0.49263 0.89389 0.0
C1019 C 0.29301 0.45631 0.90735 0.0
C1020 C 0.34294 0.4157 0.89776 0.0
H1021 H 0.49577 0.41803 0.9077 0.0
H1022 H 0.44882 0.44244 0.90152 0.0
H1023 H 0.37157 0.38084 0.90609 0.0
H1024 H 0.2713 0.51012 0.86453 0.0
H1025 H 0.31611 0.48111 0.86139 0.0
H1026 H 0.36423 0.48035 0.87648 0.0
C1027 C 0.45011 0.4189 0.89967 0.0
C1028 C 0.37034 0.40227 0.89912 0.0
C1029 C 0.47698 0.40496 0.90334 0.0
C1030 C 0.27685 0.49491 0.8765 0.0
C1031 C 0.3027 0.47851 0.87479 0.0
C1032 C 0.36547 0.45833 0.88252 0.0
C1033 C 0.42502 0.40245 0.89453 0.0
C1034 C 0.39577 0.41665 0.89223 0.0
C1035 C 0.31141 0.4595 0.89042 0.0
C1036 C 0.34018 0.44411 0.88979 0.0
H1037 H 0.45543 0.33438 0.89519 0.0
H1038 H 0.40924 0.35855 0.88803 0.0
H1039 H 0.41194 0.45632 0.87797 0.0
H1040 H 0.2542 0.47013 0.92262 0.0
H1041 H 0.2991 0.4422 0.91982 0.0
C1042 C 0.1448 0.45296 0.89502 0.0
C1043 C 0.12882 0.47814 0.90025 0.0
C1044 C 0.13056 0.42647 0.89142 0.0
C1045 C 0.05731 0.39223 0.88298 0.0
H1046 H 0.09717 0.32367 0.90403 0.0
C1047 C 0.02826 0.26749 0.91007 0.0
C1048 C 0.00848 0.25901 0.89488 0.0
C1049 C 0.04448 0.29325 0.90823 0.0
C1050 C 0.08562 0.34256 0.89814 0.0
H1051 H 0.08526 0.49564 0.90519 0.0
H1052 H 0.0602 0.44884 0.89973 0.0
H1053 H 0.12074 0.3711 0.90608 0.0
H1054 H 0.99148 0.27029 0.86525 0.0
H1055 H 0.02049 0.31504 0.86179 0.0
H1056 H 0.02143 0.36364 0.87613 0.0
C1057 C 0.08379 0.44973 0.89795 0.0
C1058 C 0.09936 0.36983 0.89904 0.0
C1059 C 0.0981 0.47652 0.9012 0.0
C1060 C 0.00644 0.27621 0.87728 0.0
C1061 C 0.02285 0.30203 0.87539 0.0
C1062 C 0.0434 0.36489 0.88227 0.0
C1063 C 0.09994 0.42424 0.89335 0.0
C1064 C 0.08536 0.3951 0.89159 0.0
C1065 C 0.04163 0.31115 0.89104 0.0
C1066 C 0.05727 0.33977 0.89007 0.0
H1067 H 0.16849 0.4537 0.89376 0.0
H1068 H 0.1437 0.40763 0.8873 0.0
H1069 H 0.04601 0.41111 0.87686 0.0
H1070 H 0.03045 0.25483 0.92384 0.0
H1071 H 0.05839 0.29968 0.92072 0.0
C1072 C 0.66727 0.18913 0.41383 0.0
C1073 C 0.65093 0.18138 0.39676 0.0
C1074 C 0.69562 0.19992 0.41162 0.0
C1075 C 0.73329 0.24554 0.37558 0.0
H1076 H 0.79689 0.23968 0.41417 0.0
C1077 C 0.84291 0.31081 0.37408 0.0
C1078 C 0.8547 0.31762 0.39307 0.0
C1079 C 0.81614 0.29604 0.3728 0.0
C1080 C 0.7791 0.24174 0.40342 0.0
H1081 H 0.65143 0.17637 0.36425 0.0
H1082 H 0.70146 0.19525 0.36027 0.0
H1083 H 0.75823 0.20284 0.41429 0.0
H1084 H 0.84711 0.31766 0.42533 0.0
H1085 H 0.79976 0.29293 0.42312 0.0
H1086 H 0.75412 0.28477 0.36492 0.0
C1087 C 0.69241 0.19295 0.37533 0.0
C1088 C 0.75721 0.22049 0.40335 0.0
C1089 C 0.66406 0.1818 0.3776 0.0
C1090 C 0.83805 0.31289 0.41054 0.0
C1091 C 0.8113 0.29831 0.40928 0.0
C1092 C 0.75532 0.26681 0.3756 0.0
C1093 C 0.70776 0.20353 0.39224 0.0
C1094 C 0.73374 0.22254 0.38975 0.0
C1095 C 0.80118 0.28801 0.39053 0.0
C1096 C 0.77797 0.26548 0.38989 0.0
H1097 H 0.65715 0.18937 0.42867 0.0
H1098 H 0.7068 0.20808 0.42492 0.0
H1099 H 0.71518 0.24793 0.36512 0.0
H1100 H 0.85587 0.31378 0.36049 0.0
H1101 H 0.80874 0.2884 0.35816 0.0
C1102 C 0.31162 0.66785 0.38272 0.0
C1103 C 0.31918 0.65199 0.40006 0.0
C1104 C 0.29713 0.69461 0.38462 0.0
C1105 C 0.2714 0.75229 0.41915 0.0
H1106 H 0.19898 0.7441 0.38885 0.0
C1107 C 0.18388 0.84107 0.42375 0.0
C1108 C 0.17766 0.85194 0.4044 0.0
C1109 C 0.19666 0.81339 0.42587 0.0
C1110 C 0.21904 0.74667 0.39743 0.0
H1111 H 0.3207 0.65235 0.43274 0.0
H1112 H 0.29605 0.69963 0.4361 0.0
H1113 H 0.23698 0.70686 0.38579 0.0
H1114 H 0.17652 0.842 0.37246 0.0
H1115 H 0.19804 0.79367 0.37606 0.0
H1116 H 0.25381 0.79262 0.43031 0.0
C1117 C 0.30117 0.69154 0.42111 0.0
C1118 C 0.2409 0.72556 0.39551 0.0
C1119 C 0.3155 0.66469 0.4192 0.0
C1120 C 0.18097 0.83375 0.38752 0.0
C1121 C 0.19337 0.8061 0.38963 0.0
C1122 C 0.24959 0.77363 0.42093 0.0
C1123 C 0.29014 0.70564 0.40387 0.0
C1124 C 0.26749 0.7285 0.40601 0.0
C1125 C 0.20297 0.79639 0.40867 0.0
C1126 C 0.22342 0.77129 0.40976 0.0
H1127 H 0.31379 0.65804 0.36787 0.0
H1128 H 0.28916 0.70541 0.3711 0.0
H1129 H 0.29161 0.75479 0.42757 0.0
H1130 H 0.18179 0.85506 0.43691 0.0
H1131 H 0.20348 0.8062 0.44075 0.0
C1132 C 0.33595 0.6869 0.1216 0.0
C1133 C 0.35267 0.68098 0.13884 0.0
C1134 C 0.30805 0.69889 0.12355 0.0
C1135 C 0.27328 0.7504 0.15713 0.0
H1136 H 0.20812 0.74168 0.12007 0.0
C1137 C 0.16511 0.81805 0.15622 0.0
C1138 C 0.15269 0.82223 0.13706 0.0
C1139 C 0.19185 0.80336 0.15805 0.0
C1140 C 0.22637 0.74455 0.13036 0.0
H1141 H 0.35324 0.68041 0.17153 0.0
H1142 H 0.30399 0.70132 0.17506 0.0
H1143 H 0.24555 0.70371 0.12166 0.0
H1144 H 0.15945 0.81825 0.10483 0.0
H1145 H 0.20677 0.79378 0.10791 0.0
H1146 H 0.25409 0.79152 0.16563 0.0
C1147 C 0.31239 0.69671 0.16007 0.0
C1148 C 0.24755 0.72266 0.13142 0.0
C1149 C 0.34028 0.68439 0.15808 0.0
C1150 C 0.16893 0.81542 0.11972 0.0
C1151 C 0.19568 0.801 0.12152 0.0
C1152 C 0.25196 0.77231 0.15613 0.0
C1153 C 0.29677 0.70551 0.1428 0.0
C1154 C 0.27156 0.72567 0.14447 0.0
C1155 C 0.20619 0.79293 0.14067 0.0
C1156 C 0.22877 0.7699 0.14233 0.0
H1157 H 0.34554 0.68487 0.10666 0.0
H1158 H 0.29665 0.70562 0.10996 0.0
H1159 H 0.29184 0.75351 0.16712 0.0
H1160 H 0.15255 0.82277 0.16975 0.0
H1161 H 0.1996 0.79751 0.17299 0.0
C1162 C 0.8147 0.33556 0.12371 0.0
C1163 C 0.82136 0.35238 0.14077 0.0
C1164 C 0.80343 0.30742 0.12598 0.0
C1165 C 0.75498 0.27093 0.16091 0.0
H1166 H 0.76348 0.20653 0.12318 0.0
C1167 C 0.68908 0.1614 0.16022 0.0
C1168 C 0.68362 0.14986 0.14095 0.0
C1169 C 0.70385 0.18808 0.16217 0.0
C1170 C 0.76071 0.22453 0.1337 0.0
H1171 H 0.82384 0.35298 0.17342 0.0
H1172 H 0.8041 0.30333 0.17751 0.0
H1173 H 0.80054 0.24493 0.12407 0.0
H1174 H 0.68578 0.15793 0.10878 0.0
H1175 H 0.7105 0.2051 0.11213 0.0
H1176 H 0.71482 0.25049 0.17031 0.0
C1177 C 0.80762 0.31183 0.16241 0.0
C1178 C 0.78207 0.24628 0.13434 0.0
C1179 C 0.81925 0.33996 0.1601 0.0
C1180 C 0.68955 0.16677 0.12377 0.0
C1181 C 0.70409 0.19342 0.1257 0.0
C1182 C 0.73361 0.249 0.16033 0.0
C1183 C 0.79825 0.29597 0.14538 0.0
C1184 C 0.77904 0.27009 0.14757 0.0
C1185 C 0.71317 0.2032 0.14482 0.0
C1186 C 0.73591 0.22611 0.14629 0.0
H1187 H 0.81576 0.34513 0.10872 0.0
H1188 H 0.79621 0.29586 0.11258 0.0
H1189 H 0.75187 0.28928 0.17107 0.0
H1190 H 0.68515 0.14826 0.17361 0.0
H1191 H 0.71052 0.19526 0.17708 0.0
C1192 C 0.16153 0.69041 0.65821 0.0
C1193 C 0.14952 0.68516 0.63905 0.0
C1194 C 0.18826 0.70517 0.65993 0.0
C1195 C 0.22492 0.76195 0.63122 0.0
H1196 H 0.28959 0.75251 0.66859 0.0
C1197 C 0.33665 0.81523 0.62162 0.0
C1198 C 0.35335 0.82168 0.63878 0.0
C1199 C 0.30838 0.80415 0.62373 0.0
C1200 C 0.27128 0.75579 0.65842 0.0
H1201 H 0.15676 0.68784 0.6068 0.0
H1202 H 0.20404 0.71249 0.60972 0.0
H1203 H 0.25047 0.71586 0.6678 0.0
H1204 H 0.35362 0.82394 0.67144 0.0
H1205 H 0.30374 0.8046 0.67524 0.0
H1206 H 0.24576 0.80156 0.6216 0.0
C1207 C 0.19268 0.70595 0.6234 0.0
C1208 C 0.24914 0.73464 0.65783 0.0
C1209 C 0.16597 0.69142 0.6217 0.0
C1210 C 0.34069 0.81956 0.65804 0.0
C1211 C 0.31243 0.80814 0.66019 0.0
C1212 C 0.24692 0.78308 0.63186 0.0
C1213 C 0.203 0.71472 0.64246 0.0
C1214 C 0.22622 0.73717 0.64383 0.0
C1215 C 0.29668 0.79895 0.64307 0.0
C1216 C 0.27068 0.77986 0.64511 0.0
H1217 H 0.14875 0.68624 0.67174 0.0
H1218 H 0.19583 0.7116 0.6748 0.0
H1219 H 0.20693 0.76493 0.62073 0.0
H1220 H 0.34641 0.81625 0.60669 0.0
H1221 H 0.2969 0.79707 0.61026 0.0
C1222 C 0.82342 0.17011 0.64499 0.0
C1223 C 0.82614 0.15186 0.62808 0.0
C1224 C 0.81104 0.1978 0.64303 0.0
C1225 C 0.75408 0.23066 0.6125 0.0
H1226 H 0.76834 0.29748 0.6473 0.0
C1227 C 0.68853 0.33985 0.61492 0.0
C1228 C 0.68539 0.35265 0.63407 0.0
C1229 C 0.70295 0.31305 0.61287 0.0
C1230 C 0.76396 0.27878 0.63767 0.0
H1231 H 0.82085 0.14866 0.59566 0.0
H1232 H 0.79923 0.19759 0.59209 0.0
H1233 H 0.80587 0.25984 0.64383 0.0
H1234 H 0.69203 0.3469 0.66617 0.0
H1235 H 0.71679 0.29963 0.6627 0.0
H1236 H 0.71206 0.24987 0.60639 0.0
C1237 C 0.80651 0.19042 0.60687 0.0
C1238 C 0.78555 0.25743 0.63553 0.0
C1239 C 0.81926 0.16269 0.60883 0.0
C1240 C 0.69375 0.337 0.65133 0.0
C1241 C 0.70832 0.3103 0.64929 0.0
C1242 C 0.73254 0.25223 0.61452 0.0
C1243 C 0.80087 0.20751 0.62414 0.0
C1244 C 0.78058 0.23279 0.62331 0.0
C1245 C 0.71463 0.29911 0.62996 0.0
C1246 C 0.73705 0.27606 0.62753 0.0
H1247 H 0.82835 0.1619 0.65999 0.0
H1248 H 0.80689 0.2103 0.65666 0.0
H1249 H 0.7494 0.21168 0.60322 0.0
H1250 H 0.68275 0.35204 0.60143 0.0
H1251 H 0.70754 0.30486 0.59782 0.0
C1252 C 0.84014 0.18824 0.87456 0.0
C1253 C 0.85197 0.18242 0.8937 0.0
C1254 C 0.81362 0.20336 0.87293 0.0
C1255 C 0.7787 0.2603 0.90218 0.0
H1256 H 0.71364 0.2539 0.86483 0.0
C1257 C 0.66865 0.31601 0.91279 0.0
C1258 C 0.65195 0.32329 0.89579 0.0
C1259 C 0.69669 0.30454 0.91042 0.0
C1260 C 0.7321 0.25633 0.87499 0.0
H1261 H 0.84442 0.18409 0.92594 0.0
H1262 H 0.79747 0.20937 0.92315 0.0
H1263 H 0.75149 0.21592 0.86517 0.0
H1264 H 0.65156 0.32681 0.86318 0.0
H1265 H 0.70105 0.30671 0.85892 0.0
H1266 H 0.75929 0.30037 0.91223 0.0
C1267 C 0.80885 0.20304 0.90944 0.0
C1268 C 0.75348 0.23442 0.87533 0.0
C1269 C 0.83537 0.18817 0.91105 0.0
C1270 C 0.66449 0.32175 0.87647 0.0
C1271 C 0.69252 0.30991 0.87405 0.0
C1272 C 0.75748 0.28218 0.90178 0.0
C1273 C 0.79891 0.21262 0.89047 0.0
C1274 C 0.77647 0.23584 0.88935 0.0
C1275 C 0.70816 0.29978 0.89097 0.0
C1276 C 0.73358 0.28005 0.88855 0.0
H1277 H 0.85301 0.18437 0.86103 0.0
H1278 H 0.8063 0.21038 0.85812 0.0
H1279 H 0.7968 0.26241 0.91267 0.0
H1280 H 0.65898 0.31663 0.92777 0.0
H1281 H 0.7081 0.29675 0.92374 0.0
C1282 C 0.31304 0.83743 0.90894 0.0
C1283 C 0.31861 0.85436 0.89172 0.0
C1284 C 0.29864 0.81068 0.90712 0.0
C1285 C 0.26942 0.75475 0.8726 0.0
H1286 H 0.20334 0.75711 0.90966 0.0
C1287 C 0.18501 0.66242 0.8733 0.0
C1288 C 0.18346 0.64975 0.89257 0.0
C1289 C 0.1964 0.69066 0.87102 0.0
C1290 C 0.22158 0.75624 0.89917 0.0
H1291 H 0.31636 0.85606 0.85908 0.0
H1292 H 0.29123 0.80888 0.85579 0.0
H1293 H 0.23963 0.79625 0.91029 0.0
H1294 H 0.18989 0.6566 0.92459 0.0
H1295 H 0.209 0.70606 0.92081 0.0
H1296 H 0.2517 0.71422 0.86188 0.0
C1297 C 0.29812 0.8161 0.87065 0.0
C1298 C 0.2425 0.77842 0.89966 0.0
C1299 C 0.31272 0.84288 0.87249 0.0
C1300 C 0.19054 0.66636 0.90965 0.0
C1301 C 0.20154 0.6946 0.90742 0.0
C1302 C 0.24848 0.7324 0.87217 0.0
C1303 C 0.28932 0.80081 0.88807 0.0
C1304 C 0.267 0.77747 0.88677 0.0
C1305 C 0.20605 0.70639 0.88804 0.0
C1306 C 0.22475 0.73262 0.88579 0.0
H1307 H 0.3171 0.84624 0.9239 0.0
H1308 H 0.29263 0.7989 0.92074 0.0
H1309 H 0.28799 0.75372 0.8624 0.0
H1310 H 0.18011 0.64956 0.85995 0.0
H1311 H 0.19944 0.69941 0.85594 0.0
C1312 C 0.60489 0.11881 0.45964 0.0
C1313 C 0.58205 0.13943 0.46048 0.0
C1314 C 0.62245 0.11345 0.47652 0.0
C1315 C 0.62923 0.12403 0.53209 0.0
H1316 H 0.71184 0.11393 0.51996 0.0
C1317 C 0.72185 0.10954 0.59326 0.0
C1318 C 0.73989 0.08511 0.58952 0.0
C1319 C 0.70174 0.11909 0.57853 0.0
C1320 C 0.68884 0.11672 0.52361 0.0
H1321 H 0.55908 0.16983 0.48009 0.0
H1322 H 0.59 0.16062 0.50963 0.0
H1323 H 0.67753 0.12376 0.49269 0.0
H1324 H 0.75143 0.05216 0.56719 0.0
H1325 H 0.71705 0.06891 0.54181 0.0
H1326 H 0.64099 0.11686 0.56319 0.0
C1327 C 0.59411 0.14836 0.49591 0.0
C1328 C 0.66909 0.12214 0.50795 0.0
C1329 C 0.57632 0.15358 0.47898 0.0
C1330 C 0.73775 0.07089 0.57071 0.0
C1331 C 0.71815 0.08062 0.55604 0.0
C1332 C 0.64916 0.11874 0.54786 0.0
C1333 C 0.61793 0.1288 0.49471 0.0
C1334 C 0.6389 0.12512 0.51187 0.0
C1335 C 0.69986 0.10475 0.55972 0.0
C1336 C 0.67908 0.11433 0.54369 0.0
H1337 H 0.60981 0.10736 0.4457 0.0
H1338 H 0.64002 0.09761 0.47517 0.0
H1339 H 0.60616 0.12622 0.53568 0.0
H1340 H 0.72301 0.12096 0.60758 0.0
H1341 H 0.68794 0.13785 0.58173 0.0
C1342 C 0.41024 0.71668 0.59254 0.0
C1343 C 0.42303 0.743 0.58576 0.0
C1344 C 0.40341 0.69428 0.57882 0.0
C1345 C 0.42583 0.66607 0.52938 0.0
H1346 H 0.34933 0.62918 0.52671 0.0
C1347 C 0.38638 0.6069 0.4584 0.0
C1348 C 0.36781 0.58239 0.45992 0.0
C1349 C 0.39479 0.62241 0.47558 0.0
C1350 C 0.37101 0.63879 0.52751 0.0
H1351 H 0.43777 0.76665 0.5591 0.0
H1352 H 0.42617 0.72762 0.53542 0.0
H1353 H 0.35978 0.66469 0.5535 0.0
H1354 H 0.34417 0.55451 0.4809 0.0
H1355 H 0.35932 0.58155 0.51116 0.0
H1356 H 0.43722 0.64054 0.50347 0.0
C1357 C 0.42165 0.72422 0.55133 0.0
C1358 C 0.37691 0.65921 0.5428 0.0
C1359 C 0.42813 0.74665 0.56493 0.0
C1360 C 0.35864 0.57318 0.47922 0.0
C1361 C 0.36708 0.58884 0.49652 0.0
C1362 C 0.42006 0.64554 0.51427 0.0
C1363 C 0.4096 0.69766 0.55814 0.0
C1364 C 0.40412 0.67364 0.54351 0.0
C1365 C 0.38497 0.61388 0.49485 0.0
C1366 C 0.39231 0.63227 0.51275 0.0
H1367 H 0.40592 0.71321 0.60847 0.0
H1368 H 0.39407 0.67403 0.58445 0.0
H1369 H 0.4472 0.67642 0.52982 0.0
H1370 H 0.39382 0.61473 0.44381 0.0
H1371 H 0.40814 0.64183 0.47361 0.0
C1372 C 0.92824 0.36099 0.47715 0.0
C1373 C 0.91829 0.3672 0.45747 0.0
C1374 C 0.91082 0.36785 0.49402 0.0
C1375 C 0.83336 0.37726 0.50722 0.0
H1376 H 0.86046 0.41696 0.55552 0.0
C1377 C 0.75243 0.42633 0.56407 0.0
C1378 C 0.75872 0.42505 0.58486 0.0
C1379 C 0.77318 0.41759 0.54979 0.0
C1380 C 0.85265 0.40542 0.54228 0.0
H1381 H 0.88278 0.3868 0.44025 0.0
H1382 H 0.85278 0.3986 0.46945 0.0
H1383 H 0.89527 0.40567 0.52835 0.0
H1384 H 0.79186 0.41317 0.60688 0.0
H1385 H 0.82813 0.39748 0.58182 0.0
H1386 H 0.79093 0.37675 0.52091 0.0
C1387 C 0.87381 0.38813 0.47187 0.0
C1388 C 0.87258 0.39906 0.52671 0.0
C1389 C 0.89117 0.38151 0.45513 0.0
C1390 C 0.78631 0.4145 0.591 0.0
C1391 C 0.80716 0.40568 0.57663 0.0
C1392 C 0.81357 0.38339 0.52275 0.0
C1393 C 0.88307 0.38077 0.49146 0.0
C1394 C 0.86294 0.38551 0.50883 0.0
C1395 C 0.80082 0.40713 0.55583 0.0
C1396 C 0.82276 0.39816 0.54029 0.0
H1397 H 0.94895 0.3499 0.47951 0.0
H1398 H 0.9185 0.36195 0.50896 0.0
H1399 H 0.82542 0.36618 0.49381 0.0
H1400 H 0.73147 0.43436 0.55873 0.0
H1401 H 0.76767 0.41956 0.53393 0.0
C1402 C 0.07054 0.75571 0.56396 0.0
C1403 C 0.07916 0.75772 0.5843 0.0
C1404 C 0.07979 0.77655 0.54985 0.0
C1405 C 0.11213 0.85156 0.54561 0.0
H1406 H 0.12396 0.82735 0.49001 0.0
C1407 C 0.16353 0.92358 0.48124 0.0
C1408 C 0.14735 0.92411 0.46313 0.0
C1409 C 0.15537 0.90487 0.49709 0.0
C1410 C 0.12061 0.83443 0.50548 0.0
H1411 H 0.1048 0.78294 0.60568 0.0
H1412 H 0.12195 0.81873 0.58091 0.0
H1413 H 0.11112 0.79096 0.5154 0.0
H1414 H 0.10959 0.90574 0.4477 0.0
H1415 H 0.0958 0.87289 0.47517 0.0
H1416 H 0.12266 0.89506 0.53546 0.0
C1417 C 0.10728 0.80154 0.57593 0.0
C1418 C 0.11306 0.81361 0.52006 0.0
C1419 C 0.0976 0.7809 0.59014 0.0
C1420 C 0.12245 0.90608 0.46146 0.0
C1421 C 0.11464 0.88708 0.47712 0.0
C1422 C 0.12021 0.87234 0.53102 0.0
C1423 C 0.09841 0.79973 0.55557 0.0
C1424 C 0.1082 0.82188 0.5403 0.0
C1425 C 0.13125 0.88595 0.49496 0.0
C1426 C 0.12407 0.86401 0.51077 0.0
H1427 H 0.05613 0.7383 0.55895 0.0
H1428 H 0.07185 0.77465 0.53449 0.0
H1429 H 0.10826 0.85895 0.56093 0.0
H1430 H 0.18291 0.93708 0.48298 0.0
H1431 H 0.16857 0.90433 0.51069 0.0
C1432 C 0.21577 0.92562 0.94327 0.0
C1433 C 0.24584 0.92289 0.9475 0.0
C1434 C 0.19477 0.91876 0.95803 0.0
C1435 C 0.18811 0.90852 1.01389 0.0
H1436 H 0.11092 0.87913 1.0002 0.0
C1437 C 0.10113 0.89471 0.07589 0.0
C1438 C 0.08273 0.87009 0.07491 0.0
C1439 C 0.11836 0.90276 0.0593 0.0
C1440 C 0.13245 0.88707 1.00437 0.0
H1441 H 0.27746 0.90934 0.97004 0.0
H1442 H 0.24109 0.89601 0.99533 0.0
H1443 H 0.14685 0.88722 0.97356 0.0
H1444 H 0.06735 0.835 0.05559 0.0
H1445 H 0.09818 0.84825 0.02689 0.0
H1446 H 0.17452 0.90687 0.0447 0.0
C1447 C 0.2335 0.90463 0.98102 0.0
C1448 C 0.15302 0.89213 0.98898 0.0
C1449 C 0.25444 0.91201 0.96644 0.0
C1450 C 0.08105 0.85433 0.0567 0.0
C1451 C 0.09879 0.862 0.04021 0.0
C1452 C 0.16778 0.90305 0.02924 0.0
C1453 C 0.20335 0.90854 0.97724 0.0
C1454 C 0.18121 0.9029 0.99352 0.0
C1455 C 0.11826 0.88594 0.04144 0.0
C1456 C 0.13957 0.89234 0.02476 0.0
H1457 H 0.20848 0.93415 0.92885 0.0
H1458 H 0.17188 0.92242 0.95453 0.0
H1459 H 0.20926 0.91738 0.01809 0.0
H1460 H 0.10275 0.90737 0.0897 0.0
H1461 H 0.13226 0.92188 0.06071 0.0
C1462 C 0.64169 0.07612 0.0574 0.0
C1463 C 0.63442 0.08542 0.07707 0.0
C1464 C 0.63531 0.09387 0.04063 0.0
C1465 C 0.62554 0.17151 0.0283 0.0
H1466 H 0.58904 0.14531 0.97858 0.0
C1467 C 0.57965 0.25347 0.97081 0.0
C1468 C 0.58181 0.2474 0.95002 0.0
C1469 C 0.58777 0.23256 0.98515 0.0
C1470 C 0.5997 0.1529 0.99223 0.0
H1471 H 0.61335 0.12006 0.09432 0.0
H1472 H 0.60239 0.15064 0.06527 0.0
H1473 H 0.59904 0.10995 1.0056 0.0
H1474 H 0.59473 0.21452 0.92807 0.0
H1475 H 0.60943 0.17807 0.95323 0.0
H1476 H 0.62653 0.21425 1.01516 0.0
C1477 C 0.61332 0.12987 0.0628 0.0
C1478 C 0.60532 0.13264 1.00772 0.0
C1479 C 0.61946 0.11217 0.07945 0.0
C1480 C 0.59274 0.21993 0.94395 0.0
C1481 C 0.60098 0.19895 0.95838 0.0
C1482 C 0.62018 0.19163 1.01284 0.0
C1483 C 0.62181 0.12132 0.04327 0.0
C1484 C 0.61771 0.1419 0.02608 0.0
C1485 C 0.59851 0.20499 0.97918 0.0
C1486 C 0.6066 0.18278 0.99477 0.0
H1487 H 0.65333 0.05572 0.05502 0.0
H1488 H 0.64208 0.08673 0.02573 0.0
H1489 H 0.63574 0.17919 0.0421 0.0
H1490 H 0.57128 0.27432 0.9761 0.0
H1491 H 0.58503 0.23789 1.00099 0.0
C1492 C 0.25219 0.57374 0.96893 0.0
C1493 C 0.25712 0.57848 0.94819 0.0
C1494 C 0.27398 0.58 0.98311 0.0
C1495 C 0.34047 0.62319 0.99234 0.0
H1496 H 0.35481 0.56458 0.03362 0.0
C1497 C 0.42781 0.63992 0.05524 0.0
C1498 C 0.41867 0.63215 0.07485 0.0
C1499 C 0.41118 0.63165 0.03833 0.0
C1500 C 0.35098 0.5813 0.0223 0.0
H1501 H 0.28863 0.59458 0.92623 0.0
H1502 H 0.32665 0.60588 0.95116 0.0
H1503 H 0.31903 0.55492 1.00714 0.0
H1504 H 0.38528 0.60886 0.09191 0.0
H1505 H 0.35649 0.59488 0.06276 0.0
H1506 H 0.37178 0.64999 1.00788 0.0
C1507 C 0.30588 0.59711 0.95633 0.0
C1508 C 0.33047 0.57573 1.00712 0.0
C1509 C 0.28412 0.59057 0.94207 0.0
C1510 C 0.39313 0.61517 0.07707 0.0
C1511 C 0.37662 0.60696 0.06026 0.0
C1512 C 0.36088 0.6289 1.00767 0.0
C1513 C 0.30119 0.59141 0.97697 0.0
C1514 C 0.32458 0.59679 0.99217 0.0
C1515 C 0.38514 0.61538 0.04067 0.0
C1516 C 0.36598 0.60823 0.02308 0.0
H1517 H 0.23165 0.56463 0.97425 0.0
H1518 H 0.26953 0.57584 0.99894 0.0
H1519 H 0.33632 0.63988 0.98105 0.0
H1520 H 0.44728 0.65312 0.05298 0.0
H1521 H 0.41857 0.63826 0.02345 0.0
C1522 C 0.86231 0.42568 0.05735 0.0
C1523 C 0.86973 0.4166 0.07704 0.0
C1524 C 0.86876 0.40782 0.04065 0.0
C1525 C 0.87923 0.33016 0.02861 0.0
H1526 H 0.91472 0.35655 0.97854 0.0
C1527 C 0.92431 0.2485 0.97041 0.0
C1528 C 0.92185 0.25485 0.94968 0.0
C1529 C 0.91637 0.26923 0.98494 0.0
C1530 C 0.90435 0.3489 0.9923 0.0
H1531 H 0.89116 0.38229 0.09437 0.0
H1532 H 0.90226 0.35155 0.06544 0.0
H1533 H 0.9048 0.39189 1.00556 0.0
H1534 H 0.90847 0.28795 0.92803 0.0
H1535 H 0.89404 0.32402 0.95347 0.0
H1536 H 0.8784 0.28738 1.01555 0.0
C1537 C 0.89114 0.3722 0.06291 0.0
C1538 C 0.89878 0.36915 1.00778 0.0
C1539 C 0.88492 0.39 0.07949 0.0
C1540 C 0.91074 0.28235 0.94386 0.0
C1541 C 0.90266 0.30312 0.95845 0.0
C1542 C 0.88453 0.31004 1.01314 0.0
C1543 C 0.8825 0.38051 0.04337 0.0
C1544 C 0.8867 0.35984 0.02625 0.0
C1545 C 0.90551 0.29686 0.9792 0.0
C1546 C 0.8977 0.31898 0.99492 0.0
H1547 H 0.85049 0.44595 0.05492 0.0
H1548 H 0.86186 0.41478 0.02574 0.0
H1549 H 0.86929 0.32244 0.04251 0.0
H1550 H 0.93284 0.22761 0.9755 0.0
H1551 H 0.91938 0.26374 1.00073 0.0
C1552 C 0.39595 0.8841 0.57488 0.0
C1553 C 0.41983 0.8647 0.57378 0.0
C1554 C 0.37837 0.8893 0.55797 0.0
C1555 C 0.37335 0.88084 0.50211 0.0
H1556 H 0.29012 0.88736 0.51334 0.0
C1557 C 0.28217 0.8944 0.43992 0.0
C1558 C 0.26331 0.91815 0.44379 0.0
C1559 C 0.30203 0.88485 0.45481 0.0
C1560 C 0.3133 0.88556 0.50994 0.0
H1561 H 0.44448 0.83626 0.55375 0.0
H1562 H 0.41354 0.84515 0.5242 0.0
H1563 H 0.32408 0.87776 0.54088 0.0
H1564 H 0.2499 0.94977 0.46652 0.0
H1565 H 0.28384 0.933 0.4922 0.0
H1566 H 0.36213 0.88874 0.471 0.0
C1567 C 0.40863 0.85662 0.53813 0.0
C1568 C 0.33285 0.88029 0.52576 0.0
C1569 C 0.42642 0.85156 0.55507 0.0
C1570 C 0.26427 0.9316 0.46291 0.0
C1571 C 0.2836 0.92185 0.47774 0.0
C1572 C 0.35365 0.88596 0.48618 0.0
C1573 C 0.38392 0.875 0.53951 0.0
C1574 C 0.36322 0.87859 0.52218 0.0
C1575 C 0.30281 0.89848 0.47391 0.0
C1576 C 0.32348 0.88906 0.49004 0.0
H1577 H 0.39032 0.89475 0.589 0.0
H1578 H 0.36005 0.90424 0.5595 0.0
H1579 H 0.39657 0.87969 0.49877 0.0
H1580 H 0.28191 0.88359 0.42535 0.0
H1581 H 0.31654 0.86669 0.45149 0.0
C1582 C 0.64391 0.43169 0.55498 0.0
C1583 C 0.6347 0.42249 0.57427 0.0
C1584 C 0.63553 0.41599 0.53767 0.0
C1585 C 0.5826 0.35923 0.51987 0.0
H1586 H 0.6431 0.33982 0.48085 0.0
C1587 C 0.57431 0.25811 0.46912 0.0
C1588 C 0.58003 0.26159 0.44836 0.0
C1589 C 0.58068 0.28055 0.48275 0.0
C1590 C 0.6259 0.34536 0.49149 0.0
H1591 H 0.60863 0.3902 0.59036 0.0
H1592 H 0.59436 0.36306 0.56056 0.0
H1593 H 0.65343 0.37543 0.5076 0.0
H1594 H 0.59804 0.29111 0.42581 0.0
H1595 H 0.60963 0.33028 0.44988 0.0
H1596 H 0.55549 0.32836 0.50429 0.0
C1597 C 0.60773 0.38248 0.5586 0.0
C1598 C 0.63174 0.36585 0.50676 0.0
C1599 C 0.61611 0.39801 0.57578 0.0
C1600 C 0.59325 0.28775 0.44168 0.0
C1601 C 0.59994 0.31016 0.45544 0.0
C1602 C 0.57689 0.33865 0.50478 0.0
C1603 C 0.61763 0.39094 0.53933 0.0
C1604 C 0.61037 0.37248 0.52144 0.0
C1605 C 0.5932 0.30694 0.47606 0.0
C1606 C 0.59867 0.33098 0.49072 0.0
H1607 H 0.65842 0.45033 0.55332 0.0
H1608 H 0.64336 0.42323 0.52304 0.0
H1609 H 0.56539 0.3643 0.53061 0.0
H1610 H 0.56434 0.23823 0.47487 0.0
H1611 H 0.57573 0.27724 0.49862 0.0
C1612 C 0.21556 0.59042 0.4418 0.0
C1613 C 0.2431 0.58001 0.44816 0.0
C1614 C 0.19439 0.59913 0.45602 0.0
C1615 C 0.18716 0.62126 0.50995 0.0
H1616 H 0.10561 0.59865 0.504 0.0
C1617 C 0.10981 0.62049 0.57755 0.0
C1618 C 0.08294 0.6354 0.57565 0.0
C1619 C 0.12691 0.61432 0.5606 0.0
C1620 C 0.12826 0.60536 0.50572 0.0
H1621 H 0.2699 0.57076 0.47453 0.0
H1622 H 0.23323 0.58534 0.49902 0.0
H1623 H 0.14066 0.58789 0.47682 0.0
H1624 H 0.05236 0.65412 0.55412 0.0
H1625 H 0.08235 0.64276 0.52426 0.0
H1626 H 0.17507 0.63791 0.53899 0.0
C1627 C 0.22796 0.58733 0.48312 0.0
C1628 C 0.14833 0.5993 0.49016 0.0
C1629 C 0.249 0.57872 0.469 0.0
C1630 C 0.07287 0.64253 0.55614 0.0
C1631 C 0.09004 0.6361 0.53905 0.0
C1632 C 0.16726 0.62705 0.52547 0.0
C1633 C 0.20038 0.59771 0.47688 0.0
C1634 C 0.17819 0.60661 0.4923 0.0
C1635 C 0.11764 0.6227 0.54122 0.0
C1636 C 0.13774 0.61863 0.52374 0.0
H1637 H 0.21028 0.59173 0.42587 0.0
H1638 H 0.17347 0.60723 0.45067 0.0
H1639 H 0.20976 0.62797 0.51192 0.0
H1640 H 0.11828 0.61445 0.59227 0.0
H1641 H 0.14782 0.60347 0.56272 0.0
C1642 C 0.88198 0.09512 0.57011 0.0
C1643 C 0.85644 0.07796 0.56907 0.0
C1644 C 0.89045 0.11273 0.55386 0.0
C1645 C 0.86067 0.14778 0.50732 0.0
H1646 H 0.94274 0.16611 0.49846 0.0
C1647 C 0.90571 0.22032 0.44121 0.0
C1648 C 0.92413 0.24328 0.44756 0.0
C1649 C 0.89676 0.19858 0.45487 0.0
C1650 C 0.91973 0.16117 0.50078 0.0
H1651 H 0.82023 0.06518 0.54977 0.0
H1652 H 0.83569 0.09496 0.52101 0.0
H1653 H 0.92926 0.12941 0.52355 0.0
H1654 H 0.94752 0.26138 0.47325 0.0
H1655 H 0.9325 0.22308 0.49683 0.0
H1656 H 0.8515 0.17935 0.48406 0.0
C1657 C 0.84878 0.09548 0.53464 0.0
C1658 C 0.91192 0.14026 0.51526 0.0
C1659 C 0.84006 0.07812 0.55107 0.0
C1660 C 0.9333 0.24405 0.46785 0.0
C1661 C 0.92485 0.22205 0.48134 0.0
C1662 C 0.86857 0.16836 0.49255 0.0
C1663 C 0.87388 0.11342 0.53591 0.0
C1664 C 0.88224 0.13368 0.51908 0.0
C1665 C 0.90658 0.19906 0.47499 0.0
C1666 C 0.89815 0.17564 0.48944 0.0
H1667 H 0.89493 0.09589 0.58382 0.0
H1668 H 0.90952 0.12661 0.55572 0.0
H1669 H 0.83759 0.14373 0.50993 0.0
H1670 H 0.89818 0.2192 0.4257 0.0
H1671 H 0.88267 0.18106 0.44961 0.0
C1672 C 0.92781 0.13936 0.97636 0.0
C1673 C 0.91788 0.13249 0.95677 0.0
C1674 C 0.91036 0.13306 0.99333 0.0
C1675 C 0.83283 0.12458 1.00661 0.0
H1676 H 0.85936 0.0865 0.05568 0.0
C1677 C 0.75101 0.07908 0.06444 0.0
C1678 C 0.75753 0.08042 0.08519 0.0
C1679 C 0.77183 0.08716 0.05 0.0
C1680 C 0.85169 0.09761 0.04222 0.0
H1681 H 0.88242 0.11222 0.93989 0.0
H1682 H 0.85237 0.10142 0.96926 0.0
H1683 H 0.89436 0.09638 0.02835 0.0
H1684 H 0.79115 0.09187 0.10698 0.0
H1685 H 0.82748 0.10654 0.08165 0.0
H1686 H 0.79039 0.12618 0.02024 0.0
C1687 C 0.87341 0.11196 0.97152 0.0
C1688 C 0.87175 0.10316 0.02656 0.0
C1689 C 0.8908 0.11801 0.95467 0.0
C1690 C 0.78539 0.09051 0.09112 0.0
C1691 C 0.8063 0.09873 0.07659 0.0
C1692 C 0.81294 0.11931 0.02224 0.0
C1693 C 0.88259 0.12006 0.99098 0.0
C1694 C 0.86233 0.11611 1.00841 0.0
C1695 C 0.79978 0.09708 0.05582 0.0
C1696 C 0.82188 0.10514 0.04009 0.0
H1697 H 0.94846 0.15065 0.97853 0.0
H1698 H 0.91799 0.13953 1.00817 0.0
H1699 H 0.82505 0.13521 0.99298 0.0
H1700 H 0.72985 0.07136 0.05924 0.0
H1701 H 0.76611 0.08502 0.03418 0.0
C1702 C 0.36428 0.9274 0.97635 0.0
C1703 C 0.37031 0.91734 0.95668 0.0
C1704 C 0.37255 0.91079 0.99326 0.0
C1705 C 0.42062 0.84872 1.00884 0.0
H1706 H 0.36414 0.83861 0.05218 0.0
C1707 C 0.42664 0.75152 0.0634 0.0
C1708 C 0.42351 0.75703 0.08422 0.0
C1709 C 0.42058 0.77329 0.0492 0.0
C1710 C 0.38027 0.84151 0.04031 0.0
H1711 H 0.39036 0.88213 0.93946 0.0
H1712 H 0.40443 0.85335 0.96866 0.0
H1713 H 0.35401 0.87343 0.02493 0.0
H1714 H 0.41045 0.78964 0.10632 0.0
H1715 H 0.39945 0.82774 0.0813 0.0
H1716 H 0.44645 0.81621 0.02387 0.0
C1717 C 0.39372 0.87421 0.97117 0.0
C1718 C 0.37454 0.86152 0.02472 0.0
C1719 C 0.38549 0.89073 0.95435 0.0
C1720 C 0.41317 0.78467 0.09042 0.0
C1721 C 0.40683 0.80647 0.07611 0.0
C1722 C 0.42623 0.82865 0.0243 0.0
C1723 C 0.38709 0.88381 0.99086 0.0
C1724 C 0.3944 0.86494 1.00857 0.0
C1725 C 0.411 0.80113 0.05536 0.0
C1726 C 0.40588 0.82438 0.04 0.0
H1727 H 0.35251 0.94773 0.97871 0.0
H1728 H 0.36737 0.919 1.0082 0.0
H1729 H 0.43675 0.85126 0.99694 0.0
H1730 H 0.43433 0.73047 0.05799 0.0
H1731 H 0.42346 0.76831 0.03331 0.0
C1732 C 0.71873 0.41087 0.09219 0.0
C1733 C 0.74541 0.42338 0.08582 0.0
C1734 C 0.69658 0.40444 0.07816 0.0
C1735 C 0.67003 0.42707 0.02815 0.0
H1736 H 0.63069 0.35181 0.0261 0.0
C1737 C 0.60815 0.38895 0.95762 0.0
C1738 C 0.58324 0.37096 0.95942 0.0
C1739 C 0.62435 0.39698 0.97461 0.0
C1740 C 0.64101 0.37316 0.02669 0.0
H1741 H 0.76988 0.43819 0.05954 0.0
H1742 H 0.73133 0.42725 0.0353 0.0
H1743 H 0.66633 0.36169 0.05289 0.0
H1744 H 0.55538 0.348 0.98077 0.0
H1745 H 0.58354 0.36254 1.01068 0.0
H1746 H 0.64497 0.43874 1.00209 0.0
C1747 C 0.72743 0.42261 0.05114 0.0
C1748 C 0.66153 0.37875 0.042 0.0
C1749 C 0.74962 0.42871 0.06506 0.0
C1750 C 0.57434 0.36203 0.97885 0.0
C1751 C 0.59067 0.37011 0.99596 0.0
C1752 C 0.6494 0.42164 1.01301 0.0
C1753 C 0.70054 0.41074 0.05753 0.0
C1754 C 0.67677 0.40551 0.04257 0.0
C1755 C 0.61614 0.38737 0.994 0.0
C1756 C 0.63515 0.39434 1.01173 0.0
H1757 H 0.71478 0.40641 0.10804 0.0
H1758 H 0.67608 0.39528 0.08352 0.0
H1759 H 0.68098 0.44814 0.02845 0.0
H1760 H 0.61579 0.39619 0.94293 0.0
H1761 H 0.64404 0.40985 0.97237 0.0
C1762 C 0.09338 0.71864 0.08947 0.0
C1763 C 0.08228 0.74611 0.08355 0.0
C1764 C 0.10145 0.69776 0.07493 0.0
C1765 C 0.11985 0.6907 0.02031 0.0
H1766 H 0.09902 0.60895 0.02765 0.0
C1767 C 0.11872 0.61145 0.95365 0.0
C1768 C 0.13377 0.58474 0.95591 0.0
C1769 C 0.11265 0.62906 0.97036 0.0
C1770 C 0.10521 0.63166 0.0255 0.0
H1771 H 0.0713 0.77315 0.05763 0.0
H1772 H 0.08478 0.73688 0.03254 0.0
H1773 H 0.08927 0.64422 0.05476 0.0
H1774 H 0.1529 0.55498 0.97781 0.0
H1775 H 0.14179 0.58584 1.00722 0.0
H1776 H 0.13509 0.67837 0.99094 0.0
C1777 C 0.08776 0.73148 0.04834 0.0
C1778 C 0.09973 0.65186 0.04104 0.0
C1779 C 0.07981 0.75229 0.0628 0.0
C1780 C 0.14117 0.57535 0.97553 0.0
C1781 C 0.13488 0.59302 0.99236 0.0
C1782 C 0.12507 0.67063 1.0048 0.0
C1783 C 0.09864 0.7039 0.05417 0.0
C1784 C 0.10653 0.68176 0.03848 0.0
C1785 C 0.12131 0.62046 0.98983 0.0
C1786 C 0.11736 0.641 1.00706 0.0
H1787 H 0.09563 0.71315 0.10532 0.0
H1788 H 0.11004 0.67688 0.07997 0.0
H1789 H 0.12612 0.71334 0.01797 0.0
H1790 H 0.11248 0.61939 0.93883 0.0
H1791 H 0.10164 0.64982 0.96797 0.0
loop_
_geom_bond_atom_site_label_1
_geom_bond_atom_site_label_2
_geom_bond_distance
_geom_bond_site_symmetry_2
_ccdc_geom_bond_type
Fe0 O2 1.918 . S
Fe0 O5 1.997 . S
Fe0 O6 2.002 . S
Fe0 O11 1.976 . S
Fe0 O14 1.996 . S
Fe1 O2 1.918 . S
Fe1 O9 1.997 . S
Fe1 O12 1.996 . S
Fe1 O16 1.976 . S
Fe1 O19 2.002 . S
O2 Fe0 1.918 . S
O2 Fe1 1.918 . S
O2 Fe3 1.918 . S
Fe3 O2 1.918 . S
Fe3 O4 2.002 . S
Fe3 O13 1.976 . S
Fe3 O17 1.996 . S
Fe3 O20 1.997 . S
O4 Fe3 2.002 . S
O4 C21 1.295 . S
O5 Fe0 1.997 . S
O5 C21 1.235 . S
O6 Fe0 2.002 . S
O6 C7 1.295 . S
C7 O6 1.295 . S
C7 O9 1.235 . S
C8 O13 1.287 . S
C8 O14 1.255 . S
O9 Fe1 1.997 . S
O9 C7 1.235 . S
C10 O16 1.287 . S
C10 O17 1.255 . S
O11 Fe0 1.976 . S
O11 C18 1.287 . S
O12 Fe1 1.996 . S
O12 C18 1.255 . S
O13 Fe3 1.976 . S
O13 C8 1.287 . S
O14 Fe0 1.996 . S
O14 C8 1.255 . S
C15 O19 1.295 . S
C15 O20 1.235 . S
O16 Fe1 1.976 . S
O16 C10 1.287 . S
O17 Fe3 1.996 . S
O17 C10 1.255 . S
C18 O11 1.287 . S
C18 O12 1.255 . S
O19 Fe1 2.002 . S
O19 C15 1.295 . S
O20 Fe3 1.997 . S
O20 C15 1.235 . S
C21 O4 1.295 . S
C21 O5 1.235 . S
Fe22 O24 1.918 . S
Fe22 O27 1.997 . S
Fe22 O28 2.002 . S
Fe22 O33 1.976 . S
Fe22 O36 1.996 . S
Fe23 O24 1.918 . S
Fe23 O31 1.997 . S
Fe23 O34 1.996 . S
Fe23 O38 1.976 . S
Fe23 O41 2.002 . S
O24 Fe22 1.918 . S
O24 Fe23 1.918 . S
O24 Fe25 1.918 . S
Fe25 O24 1.918 . S
Fe25 O26 2.002 . S
Fe25 O35 1.976 . S
Fe25 O39 1.996 . S
Fe25 O42 1.997 . S
O26 Fe25 2.002 . S
O26 C43 1.295 . S
O27 Fe22 1.997 . S
O27 C43 1.235 . S
O28 Fe22 2.002 . S
O28 C29 1.295 . S
C29 O28 1.295 . S
C29 O31 1.235 . S
C30 O35 1.287 . S
C30 O36 1.255 . S
O31 Fe23 1.997 . S
O31 C29 1.235 . S
C32 O38 1.287 . S
C32 O39 1.255 . S
O33 Fe22 1.976 . S
O33 C40 1.287 . S
O34 Fe23 1.996 . S
O34 C40 1.255 . S
O35 Fe25 1.976 . S
O35 C30 1.287 . S
O36 Fe22 1.996 . S
O36 C30 1.255 . S
C37 O41 1.295 . S
C37 O42 1.235 . S
O38 Fe23 1.976 . S
O38 C32 1.287 . S
O39 Fe25 1.996 . S
O39 C32 1.255 . S
C40 O33 1.287 . S
C40 O34 1.255 . S
O41 Fe23 2.002 . S
O41 C37 1.295 . S
O42 Fe25 1.997 . S
O42 C37 1.235 . S
C43 O26 1.295 . S
C43 O27 1.235 . S
Fe44 O46 1.918 . S
Fe44 O49 1.997 . S
Fe44 O50 2.002 . S
Fe44 O55 1.976 . S
Fe44 O58 1.996 . S
Fe45 O46 1.918 . S
Fe45 O53 1.997 . S
Fe45 O56 1.996 . S
Fe45 O60 1.976 . S
Fe45 O63 2.002 . S
O46 Fe44 1.918 . S
O46 Fe45 1.918 . S
O46 Fe47 1.918 . S
Fe47 O46 1.918 . S
Fe47 O48 2.002 . S
Fe47 O57 1.976 . S
Fe47 O61 1.996 . S
Fe47 O64 1.997 . S
O48 Fe47 2.002 . S
O48 C65 1.295 . S
O49 Fe44 1.997 . S
O49 C65 1.235 . S
O50 Fe44 2.002 . S
O50 C51 1.295 . S
C51 O50 1.295 . S
C51 O53 1.235 . S
C52 O57 1.287 . S
C52 O58 1.255 . S
O53 Fe45 1.997 . S
O53 C51 1.235 . S
C54 O60 1.287 . S
C54 O61 1.255 . S
O55 Fe44 1.976 . S
O55 C62 1.287 . S
O56 Fe45 1.996 . S
O56 C62 1.255 . S
O57 Fe47 1.976 . S
O57 C52 1.287 . S
O58 Fe44 1.996 . S
O58 C52 1.255 . S
C59 O63 1.295 . S
C59 O64 1.235 . S
O60 Fe45 1.976 . S
O60 C54 1.287 . S
O61 Fe47 1.996 . S
O61 C54 1.255 . S
C62 O55 1.287 . S
C62 O56 1.255 . S
O63 Fe45 2.002 . S
O63 C59 1.295 . S
O64 Fe47 1.997 . S
O64 C59 1.235 . S
C65 O48 1.295 . S
C65 O49 1.235 . S
Fe66 O68 1.918 . S
Fe66 O71 1.997 . S
Fe66 O72 2.002 . S
Fe66 O77 1.976 . S
Fe66 O80 1.996 . S
Fe67 O68 1.918 . S
Fe67 O75 1.997 . S
Fe67 O78 1.996 . S
Fe67 O82 1.976 . S
Fe67 O85 2.002 . S
O68 Fe66 1.918 . S
O68 Fe67 1.918 . S
O68 Fe69 1.918 . S
Fe69 O68 1.918 . S
Fe69 O70 2.002 . S
Fe69 O79 1.976 . S
Fe69 O83 1.996 . S
Fe69 O86 1.997 . S
O70 Fe69 2.002 . S
O70 C87 1.295 . S
O71 Fe66 1.997 . S
O71 C87 1.235 . S
O72 Fe66 2.002 . S
O72 C73 1.295 . S
C73 O72 1.295 . S
C73 O75 1.235 . S
C74 O79 1.287 . S
C74 O80 1.255 . S
O75 Fe67 1.997 . S
O75 C73 1.235 . S
C76 O82 1.287 . S
C76 O83 1.255 . S
O77 Fe66 1.976 . S
O77 C84 1.287 . S
O78 Fe67 1.996 . S
O78 C84 1.255 . S
O79 Fe69 1.976 . S
O79 C74 1.287 . S
O80 Fe66 1.996 . S
O80 C74 1.255 . S
C81 O85 1.295 . S
C81 O86 1.235 . S
O82 Fe67 1.976 . S
O82 C76 1.287 . S
O83 Fe69 1.996 . S
O83 C76 1.255 . S
C84 O77 1.287 . S
C84 O78 1.255 . S
O85 Fe67 2.002 . S
O85 C81 1.295 . S
O86 Fe69 1.997 . S
O86 C81 1.235 . S
C87 O70 1.295 . S
C87 O71 1.235 . S
Fe88 O90 1.918 . S
Fe88 O93 1.997 . S
Fe88 O94 2.002 . S
Fe88 O99 1.976 . S
Fe88 O102 1.996 . S
Fe89 O90 1.918 . S
Fe89 O97 1.997 . S
Fe89 O100 1.996 . S
Fe89 O104 1.976 . S
Fe89 O107 2.002 . S
O90 Fe88 1.918 . S
O90 Fe89 1.918 . S
O90 Fe91 1.918 . S
Fe91 O90 1.918 . S
Fe91 O92 2.002 . S
Fe91 O101 1.976 . S
Fe91 O105 1.996 . S
Fe91 O108 1.997 . S
O92 Fe91 2.002 . S
O92 C109 1.295 . S
O93 Fe88 1.997 . S
O93 C109 1.235 . S
O94 Fe88 2.002 . S
O94 C95 1.295 . S
C95 O94 1.295 . S
C95 O97 1.235 . S
C96 O101 1.287 . S
C96 O102 1.255 . S
O97 Fe89 1.997 . S
O97 C95 1.235 . S
C98 O104 1.287 . S
C98 O105 1.255 . S
O99 Fe88 1.976 . S
O99 C106 1.287 . S
O100 Fe89 1.996 . S
O100 C106 1.255 . S
O101 Fe91 1.976 . S
O101 C96 1.287 . S
O102 Fe88 1.996 . S
O102 C96 1.255 . S
C103 O107 1.295 . S
C103 O108 1.235 . S
O104 Fe89 1.976 . S
O104 C98 1.287 . S
O105 Fe91 1.996 . S
O105 C98 1.255 . S
C106 O99 1.287 . S
C106 O100 1.255 . S
O107 Fe89 2.002 . S
O107 C103 1.295 . S
O108 Fe91 1.997 . S
O108 C103 1.235 . S
C109 O92 1.295 . S
C109 O93 1.235 . S
Fe110 O112 1.918 . S
Fe110 O115 1.997 . S
Fe110 O116 2.002 . S
Fe110 O121 1.976 . S
Fe110 O124 1.996 . S
Fe111 O112 1.918 . S
Fe111 O119 1.997 . S
Fe111 O122 1.996 . S
Fe111 O126 1.976 . S
Fe111 O129 2.002 . S
O112 Fe110 1.918 . S
O112 Fe111 1.918 . S
O112 Fe113 1.918 . S
Fe113 O112 1.918 . S
Fe113 O114 2.002 . S
Fe113 O123 1.976 . S
Fe113 O127 1.996 . S
Fe113 O130 1.997 . S
O114 Fe113 2.002 . S
O114 C131 1.295 . S
O115 Fe110 1.997 . S
O115 C131 1.235 . S
O116 Fe110 2.002 . S
O116 C117 1.295 . S
C117 O116 1.295 . S
C117 O119 1.235 . S
C118 O123 1.287 . S
C118 O124 1.255 . S
O119 Fe111 1.997 . S
O119 C117 1.235 . S
C120 O126 1.287 . S
C120 O127 1.255 . S
O121 Fe110 1.976 . S
O121 C128 1.287 . S
O122 Fe111 1.996 . S
O122 C128 1.255 . S
O123 Fe113 1.976 . S
O123 C118 1.287 . S
O124 Fe110 1.996 . S
O124 C118 1.255 . S
C125 O129 1.295 . S
C125 O130 1.235 . S
O126 Fe111 1.976 . S
O126 C120 1.287 . S
O127 Fe113 1.996 . S
O127 C120 1.255 . S
C128 O121 1.287 . S
C128 O122 1.255 . S
O129 Fe111 2.002 . S
O129 C125 1.295 . S
O130 Fe113 1.997 . S
O130 C125 1.235 . S
C131 O114 1.295 . S
C131 O115 1.235 . S
Fe132 O134 1.918 . S
Fe132 O137 1.997 . S
Fe132 O138 2.002 . S
Fe132 O143 1.976 . S
Fe132 O146 1.996 . S
Fe133 O134 1.918 . S
Fe133 O141 1.997 . S
Fe133 O144 1.996 . S
Fe133 O148 1.976 . S
Fe133 O151 2.002 . S
O134 Fe132 1.918 . S
O134 Fe133 1.918 . S
O134 Fe135 1.918 . S
Fe135 O134 1.918 . S
Fe135 O136 2.002 . S
Fe135 O145 1.976 . S
Fe135 O149 1.996 . S
Fe135 O152 1.997 . S
O136 Fe135 2.002 . S
O136 C153 1.295 . S
O137 Fe132 1.997 . S
O137 C153 1.235 . S
O138 Fe132 2.002 . S
O138 C139 1.295 . S
C139 O138 1.295 . S
C139 O141 1.235 . S
C140 O145 1.287 . S
C140 O146 1.255 . S
O141 Fe133 1.997 . S
O141 C139 1.235 . S
C142 O148 1.287 . S
C142 O149 1.255 . S
O143 Fe132 1.976 . S
O143 C150 1.287 . S
O144 Fe133 1.996 . S
O144 C150 1.255 . S
O145 Fe135 1.976 . S
O145 C140 1.287 . S
O146 Fe132 1.996 . S
O146 C140 1.255 . S
C147 O151 1.295 . S
C147 O152 1.235 . S
O148 Fe133 1.976 . S
O148 C142 1.287 . S
O149 Fe135 1.996 . S
O149 C142 1.255 . S
C150 O143 1.287 . S
C150 O144 1.255 . S
O151 Fe133 2.002 . S
O151 C147 1.295 . S
O152 Fe135 1.997 . S
O152 C147 1.235 . S
C153 O136 1.295 . S
C153 O137 1.235 . S
Fe154 O156 1.918 . S
Fe154 O159 1.997 . S
Fe154 O160 2.002 . S
Fe154 O165 1.976 . S
Fe154 O168 1.996 . S
Fe155 O156 1.918 . S
Fe155 O163 1.997 . S
Fe155 O166 1.996 . S
Fe155 O170 1.976 . S
Fe155 O173 2.002 . S
O156 Fe154 1.918 . S
O156 Fe155 1.918 . S
O156 Fe157 1.918 . S
Fe157 O156 1.918 . S
Fe157 O158 2.002 . S
Fe157 O167 1.976 . S
Fe157 O171 1.996 . S
Fe157 O174 1.997 . S
O158 Fe157 2.002 . S
O158 C175 1.295 . S
O159 Fe154 1.997 . S
O159 C175 1.235 . S
O160 Fe154 2.002 . S
O160 C161 1.295 . S
C161 O160 1.295 . S
C161 O163 1.235 . S
C162 O167 1.287 . S
C162 O168 1.255 . S
O163 Fe155 1.997 . S
O163 C161 1.235 . S
C164 O170 1.287 . S
C164 O171 1.255 . S
O165 Fe154 1.976 . S
O165 C172 1.287 . S
O166 Fe155 1.996 . S
O166 C172 1.255 . S
O167 Fe157 1.976 . S
O167 C162 1.287 . S
O168 Fe154 1.996 . S
O168 C162 1.255 . S
C169 O173 1.295 . S
C169 O174 1.235 . S
O170 Fe155 1.976 . S
O170 C164 1.287 . S
O171 Fe157 1.996 . S
O171 C164 1.255 . S
C172 O165 1.287 . S
C172 O166 1.255 . S
O173 Fe155 2.002 . S
O173 C169 1.295 . S
O174 Fe157 1.997 . S
O174 C169 1.235 . S
C175 O158 1.295 . S
C175 O159 1.235 . S
Fe176 O178 1.918 . S
Fe176 O181 1.997 . S
Fe176 O182 2.002 . S
Fe176 O187 1.976 . S
Fe176 O190 1.996 . S
Fe177 O178 1.918 . S
Fe177 O185 1.997 . S
Fe177 O188 1.996 . S
Fe177 O192 1.976 . S
Fe177 O195 2.002 . S
O178 Fe176 1.918 . S
O178 Fe177 1.918 . S
O178 Fe179 1.918 . S
Fe179 O178 1.918 . S
Fe179 O180 2.002 . S
Fe179 O189 1.976 . S
Fe179 O193 1.996 . S
Fe179 O196 1.997 . S
O180 Fe179 2.002 . S
O180 C197 1.295 . S
O181 Fe176 1.997 . S
O181 C197 1.235 . S
O182 Fe176 2.002 . S
O182 C183 1.295 . S
C183 O182 1.295 . S
C183 O185 1.235 . S
C184 O189 1.287 . S
C184 O190 1.255 . S
O185 Fe177 1.997 . S
O185 C183 1.235 . S
C186 O192 1.287 . S
C186 O193 1.255 . S
O187 Fe176 1.976 . S
O187 C194 1.287 . S
O188 Fe177 1.996 . S
O188 C194 1.255 . S
O189 Fe179 1.976 . S
O189 C184 1.287 . S
O190 Fe176 1.996 . S
O190 C184 1.255 . S
C191 O195 1.295 . S
C191 O196 1.235 . S
O192 Fe177 1.976 . S
O192 C186 1.287 . S
O193 Fe179 1.996 . S
O193 C186 1.255 . S
C194 O187 1.287 . S
C194 O188 1.255 . S
O195 Fe177 2.002 . S
O195 C191 1.295 . S
O196 Fe179 1.997 . S
O196 C191 1.235 . S
C197 O180 1.295 . S
C197 O181 1.235 . S
Fe198 O200 1.918 . S
Fe198 O203 1.997 . S
Fe198 O204 2.002 . S
Fe198 O209 1.976 . S
Fe198 O212 1.996 . S
Fe199 O200 1.918 . S
Fe199 O207 1.997 . S
Fe199 O210 1.996 . S
Fe199 O214 1.976 . S
Fe199 O217 2.002 . S
O200 Fe198 1.918 . S
O200 Fe199 1.918 . S
O200 Fe201 1.918 . S
Fe201 O200 1.918 . S
Fe201 O202 2.002 . S
Fe201 O211 1.976 . S
Fe201 O215 1.996 . S
Fe201 O218 1.997 . S
O202 Fe201 2.002 . S
O202 C219 1.295 . S
O203 Fe198 1.997 . S
O203 C219 1.235 . S
O204 Fe198 2.002 . S
O204 C205 1.295 . S
C205 O204 1.295 . S
C205 O207 1.235 . S
C206 O211 1.287 . S
C206 O212 1.255 . S
O207 Fe199 1.997 . S
O207 C205 1.235 . S
C208 O214 1.287 . S
C208 O215 1.255 . S
O209 Fe198 1.976 . S
O209 C216 1.287 . S
O210 Fe199 1.996 . S
O210 C216 1.255 . S
O211 Fe201 1.976 . S
O211 C206 1.287 . S
O212 Fe198 1.996 . S
O212 C206 1.255 . S
C213 O217 1.295 . S
C213 O218 1.235 . S
O214 Fe199 1.976 . S
O214 C208 1.287 . S
O215 Fe201 1.996 . S
O215 C208 1.255 . S
C216 O209 1.287 . S
C216 O210 1.255 . S
O217 Fe199 2.002 . S
O217 C213 1.295 . S
O218 Fe201 1.997 . S
O218 C213 1.235 . S
C219 O202 1.295 . S
C219 O203 1.235 . S
Fe220 O222 1.918 . S
Fe220 O225 1.997 . S
Fe220 O226 2.002 . S
Fe220 O231 1.976 . S
Fe220 O234 1.996 . S
Fe221 O222 1.918 . S
Fe221 O229 1.997 . S
Fe221 O232 1.996 . S
Fe221 O236 1.976 . S
Fe221 O239 2.002 . S
O222 Fe220 1.918 . S
O222 Fe221 1.918 . S
O222 Fe223 1.918 . S
Fe223 O222 1.918 . S
Fe223 O224 2.002 . S
Fe223 O233 1.976 . S
Fe223 O237 1.996 . S
Fe223 O240 1.997 . S
O224 Fe223 2.002 . S
O224 C241 1.295 . S
O225 Fe220 1.997 . S
O225 C241 1.235 . S
O226 Fe220 2.002 . S
O226 C227 1.295 . S
C227 O226 1.295 . S
C227 O229 1.235 . S
C228 O233 1.287 . S
C228 O234 1.255 . S
O229 Fe221 1.997 . S
O229 C227 1.235 . S
C230 O236 1.287 . S
C230 O237 1.255 . S
O231 Fe220 1.976 . S
O231 C238 1.287 . S
O232 Fe221 1.996 . S
O232 C238 1.255 . S
O233 Fe223 1.976 . S
O233 C228 1.287 . S
O234 Fe220 1.996 . S
O234 C228 1.255 . S
C235 O239 1.295 . S
C235 O240 1.235 . S
O236 Fe221 1.976 . S
O236 C230 1.287 . S
O237 Fe223 1.996 . S
O237 C230 1.255 . S
C238 O231 1.287 . S
C238 O232 1.255 . S
O239 Fe221 2.002 . S
O239 C235 1.295 . S
O240 Fe223 1.997 . S
O240 C235 1.235 . S
C241 O224 1.295 . S
C241 O225 1.235 . S
Fe242 O244 1.918 . S
Fe242 O247 1.997 . S
Fe242 O248 2.002 . S
Fe242 O253 1.976 . S
Fe242 O256 1.996 . S
Fe243 O244 1.918 . S
Fe243 O251 1.997 . S
Fe243 O254 1.996 . S
Fe243 O258 1.976 . S
Fe243 O261 2.002 . S
O244 Fe242 1.918 . S
O244 Fe243 1.918 . S
O244 Fe245 1.918 . S
Fe245 O244 1.918 . S
Fe245 O246 2.002 . S
Fe245 O255 1.976 . S
Fe245 O259 1.996 . S
Fe245 O262 1.997 . S
O246 Fe245 2.002 . S
O246 C263 1.295 . S
O247 Fe242 1.997 . S
O247 C263 1.235 . S
O248 Fe242 2.002 . S
O248 C249 1.295 . S
C249 O248 1.295 . S
C249 O251 1.235 . S
C250 O255 1.287 . S
C250 O256 1.255 . S
O251 Fe243 1.997 . S
O251 C249 1.235 . S
C252 O258 1.287 . S
C252 O259 1.255 . S
O253 Fe242 1.976 . S
O253 C260 1.287 . S
O254 Fe243 1.996 . S
O254 C260 1.255 . S
O255 Fe245 1.976 . S
O255 C250 1.287 . S
O256 Fe242 1.996 . S
O256 C250 1.255 . S
C257 O261 1.295 . S
C257 O262 1.235 . S
O258 Fe243 1.976 . S
O258 C252 1.287 . S
O259 Fe245 1.996 . S
O259 C252 1.255 . S
C260 O253 1.287 . S
C260 O254 1.255 . S
O261 Fe243 2.002 . S
O261 C257 1.295 . S
O262 Fe245 1.997 . S
O262 C257 1.235 . S
C263 O246 1.295 . S
C263 O247 1.235 . S
Fe264 O266 1.918 . S
Fe264 O269 1.997 . S
Fe264 O270 2.002 . S
Fe264 O275 1.976 . S
Fe264 O278 1.996 . S
Fe265 O266 1.918 . S
Fe265 O273 1.997 . S
Fe265 O276 1.996 . S
Fe265 O280 1.976 . S
Fe265 O283 2.002 . S
O266 Fe264 1.918 . S
O266 Fe265 1.918 . S
O266 Fe267 1.918 . S
Fe267 O266 1.918 . S
Fe267 O268 2.002 . S
Fe267 O277 1.976 . S
Fe267 O281 1.996 . S
Fe267 O284 1.997 . S
O268 Fe267 2.002 . S
O268 C285 1.295 . S
O269 Fe264 1.997 . S
O269 C285 1.235 . S
O270 Fe264 2.002 . S
O270 C271 1.295 . S
C271 O270 1.295 . S
C271 O273 1.235 . S
C272 O277 1.287 . S
C272 O278 1.255 . S
O273 Fe265 1.997 . S
O273 C271 1.235 . S
C274 O280 1.287 . S
C274 O281 1.255 . S
O275 Fe264 1.976 . S
O275 C282 1.287 . S
O276 Fe265 1.996 . S
O276 C282 1.255 . S
O277 Fe267 1.976 . S
O277 C272 1.287 . S
O278 Fe264 1.996 . S
O278 C272 1.255 . S
C279 O283 1.295 . S
C279 O284 1.235 . S
O280 Fe265 1.976 . S
O280 C274 1.287 . S
O281 Fe267 1.996 . S
O281 C274 1.255 . S
C282 O275 1.287 . S
C282 O276 1.255 . S
O283 Fe265 2.002 . S
O283 C279 1.295 . S
O284 Fe267 1.997 . S
O284 C279 1.235 . S
C285 O268 1.295 . S
C285 O269 1.235 . S
Fe286 O288 1.918 . S
Fe286 O291 1.997 . S
Fe286 O292 2.002 . S
Fe286 O297 1.976 . S
Fe286 O300 1.996 . S
Fe287 O288 1.918 . S
Fe287 O295 1.997 . S
Fe287 O298 1.996 . S
Fe287 O302 1.976 . S
Fe287 O305 2.002 . S
O288 Fe286 1.918 . S
O288 Fe287 1.918 . S
O288 Fe289 1.918 . S
Fe289 O288 1.918 . S
Fe289 O290 2.002 . S
Fe289 O299 1.976 . S
Fe289 O303 1.996 . S
Fe289 O306 1.997 . S
O290 Fe289 2.002 . S
O290 C307 1.295 . S
O291 Fe286 1.997 . S
O291 C307 1.235 . S
O292 Fe286 2.002 . S
O292 C293 1.295 . S
C293 O292 1.295 . S
C293 O295 1.235 . S
C294 O299 1.287 . S
C294 O300 1.255 . S
O295 Fe287 1.997 . S
O295 C293 1.235 . S
C296 O302 1.287 . S
C296 O303 1.255 . S
O297 Fe286 1.976 . S
O297 C304 1.287 . S
O298 Fe287 1.996 . S
O298 C304 1.255 . S
O299 Fe289 1.976 . S
O299 C294 1.287 . S
O300 Fe286 1.996 . S
O300 C294 1.255 . S
C301 O305 1.295 . S
C301 O306 1.235 . S
O302 Fe287 1.976 . S
O302 C296 1.287 . S
O303 Fe289 1.996 . S
O303 C296 1.255 . S
C304 O297 1.287 . S
C304 O298 1.255 . S
O305 Fe287 2.002 . S
O305 C301 1.295 . S
O306 Fe289 1.997 . S
O306 C301 1.235 . S
C307 O290 1.295 . S
C307 O291 1.235 . S
Fe308 O310 1.918 . S
Fe308 O313 1.997 . S
Fe308 O314 2.002 . S
Fe308 O319 1.976 . S
Fe308 O322 1.996 . S
Fe309 O310 1.918 . S
Fe309 O317 1.997 . S
Fe309 O320 1.996 . S
Fe309 O324 1.976 . S
Fe309 O327 2.002 . S
O310 Fe308 1.918 . S
O310 Fe309 1.918 . S
O310 Fe311 1.918 . S
Fe311 O310 1.918 . S
Fe311 O312 2.002 . S
Fe311 O321 1.976 . S
Fe311 O325 1.996 . S
Fe311 O328 1.997 . S
O312 Fe311 2.002 . S
O312 C329 1.295 . S
O313 Fe308 1.997 . S
O313 C329 1.235 . S
O314 Fe308 2.002 . S
O314 C315 1.295 . S
C315 O314 1.295 . S
C315 O317 1.235 . S
C316 O321 1.287 . S
C316 O322 1.255 . S
O317 Fe309 1.997 . S
O317 C315 1.235 . S
C318 O324 1.287 . S
C318 O325 1.255 . S
O319 Fe308 1.976 . S
O319 C326 1.287 . S
O320 Fe309 1.996 . S
O320 C326 1.255 . S
O321 Fe311 1.976 . S
O321 C316 1.287 . S
O322 Fe308 1.996 . S
O322 C316 1.255 . S
C323 O327 1.295 . S
C323 O328 1.235 . S
O324 Fe309 1.976 . S
O324 C318 1.287 . S
O325 Fe311 1.996 . S
O325 C318 1.255 . S
C326 O319 1.287 . S
C326 O320 1.255 . S
O327 Fe309 2.002 . S
O327 C323 1.295 . S
O328 Fe311 1.997 . S
O328 C323 1.235 . S
C329 O312 1.295 . S
C329 O313 1.235 . S
Fe330 O332 1.918 . S
Fe330 O335 1.997 . S
Fe330 O336 2.002 . S
Fe330 O341 1.976 . S
Fe330 O344 1.996 . S
Fe331 O332 1.918 . S
Fe331 O339 1.997 . S
Fe331 O342 1.996 . S
Fe331 O346 1.976 . S
Fe331 O349 2.002 . S
O332 Fe330 1.918 . S
O332 Fe331 1.918 . S
O332 Fe333 1.918 . S
Fe333 O332 1.918 . S
Fe333 O334 2.002 . S
Fe333 O343 1.976 . S
Fe333 O347 1.996 . S
Fe333 O350 1.997 . S
O334 Fe333 2.002 . S
O334 C351 1.295 . S
O335 Fe330 1.997 . S
O335 C351 1.235 . S
O336 Fe330 2.002 . S
O336 C337 1.295 . S
C337 O336 1.295 . S
C337 O339 1.235 . S
C338 O343 1.287 . S
C338 O344 1.255 . S
O339 Fe331 1.997 . S
O339 C337 1.235 . S
C340 O346 1.287 . S
C340 O347 1.255 . S
O341 Fe330 1.976 . S
O341 C348 1.287 . S
O342 Fe331 1.996 . S
O342 C348 1.255 . S
O343 Fe333 1.976 . S
O343 C338 1.287 . S
O344 Fe330 1.996 . S
O344 C338 1.255 . S
C345 O349 1.295 . S
C345 O350 1.235 . S
O346 Fe331 1.976 . S
O346 C340 1.287 . S
O347 Fe333 1.996 . S
O347 C340 1.255 . S
C348 O341 1.287 . S
C348 O342 1.255 . S
O349 Fe331 2.002 . S
O349 C345 1.295 . S
O350 Fe333 1.997 . S
O350 C345 1.235 . S
C351 O334 1.295 . S
C351 O335 1.235 . S
C352 C353 1.349 . S
C352 C354 1.327 . S
C352 H377 0.950 . S
C353 C352 1.349 . S
C353 C369 1.349 . S
C354 C352 1.327 . S
C354 C373 1.429 . S
C354 H378 0.950 . S
C355 C372 1.574 . S
C355 C374 1.368 . S
C355 H379 0.949 . S
H356 C360 0.949 . S
C357 C358 1.349 . S
C357 C359 1.327 . S
C357 H380 0.950 . S
C358 C357 1.349 . S
C358 C370 1.349 . S
C359 C357 1.327 . S
C359 C375 1.429 . S
C359 H381 0.950 . S
C360 H356 0.949 . S
C360 C368 1.574 . S
C360 C376 1.368 . S
H361 C369 0.950 . S
H362 C367 0.950 . S
H363 C368 0.949 . S
H364 C370 0.950 . S
H365 C371 0.950 . S
H366 C372 0.949 . S
C367 H362 0.950 . S
C367 C369 1.327 . S
C367 C373 1.429 . S
C368 C360 1.574 . S
C368 H363 0.949 . S
C368 C374 1.368 . S
C369 C353 1.349 . S
C369 H361 0.950 . S
C369 C367 1.327 . S
C370 C358 1.349 . S
C370 H364 0.950 . S
C370 C371 1.327 . S
C371 H365 0.950 . S
C371 C370 1.327 . S
C371 C375 1.429 . S
C372 C355 1.574 . S
C372 H366 0.949 . S
C372 C376 1.368 . S
C373 C354 1.429 . S
C373 C367 1.429 . S
C373 C374 1.523 . S
C374 C355 1.368 . S
C374 C368 1.368 . S
C374 C373 1.523 . S
C375 C359 1.429 . S
C375 C371 1.429 . S
C375 C376 1.523 . S
C376 C360 1.368 . S
C376 C372 1.368 . S
C376 C375 1.523 . S
H377 C352 0.950 . S
H378 C354 0.950 . S
H379 C355 0.949 . S
H380 C357 0.950 . S
H381 C359 0.950 . S
C382 C383 1.349 . S
C382 C384 1.327 . S
C382 H407 0.950 . S
C383 C382 1.349 . S
C383 C399 1.349 . S
C384 C382 1.327 . S
C384 C403 1.429 . S
C384 H408 0.950 . S
C385 C402 1.574 . S
C385 C404 1.368 . S
C385 H409 0.949 . S
H386 C390 0.949 . S
C387 C388 1.349 . S
C387 C389 1.327 . S
C387 H410 0.950 . S
C388 C387 1.349 . S
C388 C400 1.349 . S
C389 C387 1.327 . S
C389 C405 1.429 . S
C389 H411 0.950 . S
C390 H386 0.949 . S
C390 C398 1.574 . S
C390 C406 1.368 . S
H391 C399 0.950 . S
H392 C397 0.950 . S
H393 C398 0.949 . S
H394 C400 0.950 . S
H395 C401 0.950 . S
H396 C402 0.949 . S
C397 H392 0.950 . S
C397 C399 1.327 . S
C397 C403 1.429 . S
C398 C390 1.574 . S
C398 H393 0.949 . S
C398 C404 1.368 . S
C399 C383 1.349 . S
C399 H391 0.950 . S
C399 C397 1.327 . S
C400 C388 1.349 . S
C400 H394 0.950 . S
C400 C401 1.327 . S
C401 H395 0.950 . S
C401 C400 1.327 . S
C401 C405 1.429 . S
C402 C385 1.574 . S
C402 H396 0.949 . S
C402 C406 1.368 . S
C403 C384 1.429 . S
C403 C397 1.429 . S
C403 C404 1.523 . S
C404 C385 1.368 . S
C404 C398 1.368 . S
C404 C403 1.523 . S
C405 C389 1.429 . S
C405 C401 1.429 . S
C405 C406 1.523 . S
C406 C390 1.368 . S
C406 C402 1.368 . S
C406 C405 1.523 . S
H407 C382 0.950 . S
H408 C384 0.950 . S
H409 C385 0.949 . S
H410 C387 0.950 . S
H411 C389 0.950 . S
C412 C413 1.349 . S
C412 C414 1.327 . S
C412 H437 0.950 . S
C413 C412 1.349 . S
C413 C429 1.349 . S
C414 C412 1.327 . S
C414 C433 1.429 . S
C414 H438 0.950 . S
C415 C432 1.574 . S
C415 C434 1.368 . S
C415 H439 0.949 . S
H416 C420 0.949 . S
C417 C418 1.349 . S
C417 C419 1.327 . S
C417 H440 0.950 . S
C418 C417 1.349 . S
C418 C430 1.349 . S
C419 C417 1.327 . S
C419 C435 1.429 . S
C419 H441 0.950 . S
C420 H416 0.949 . S
C420 C428 1.574 . S
C420 C436 1.368 . S
H421 C429 0.950 . S
H422 C427 0.950 . S
H423 C428 0.949 . S
H424 C430 0.950 . S
H425 C431 0.950 . S
H426 C432 0.949 . S
C427 H422 0.950 . S
C427 C429 1.327 . S
C427 C433 1.429 . S
C428 C420 1.574 . S
C428 H423 0.949 . S
C428 C434 1.368 . S
C429 C413 1.349 . S
C429 H421 0.950 . S
C429 C427 1.327 . S
C430 C418 1.349 . S
C430 H424 0.950 . S
C430 C431 1.327 . S
C431 H425 0.950 . S
C431 C430 1.327 . S
C431 C435 1.429 . S
C432 C415 1.574 . S
C432 H426 0.949 . S
C432 C436 1.368 . S
C433 C414 1.429 . S
C433 C427 1.429 . S
C433 C434 1.523 . S
C434 C415 1.368 . S
C434 C428 1.368 . S
C434 C433 1.523 . S
C435 C419 1.429 . S
C435 C431 1.429 . S
C435 C436 1.523 . S
C436 C420 1.368 . S
C436 C432 1.368 . S
C436 C435 1.523 . S
H437 C412 0.950 . S
H438 C414 0.950 . S
H439 C415 0.949 . S
H440 C417 0.950 . S
H441 C419 0.950 . S
C442 C443 1.349 . S
C442 C444 1.327 . S
C442 H467 0.950 . S
C443 C442 1.349 . S
C443 C459 1.349 . S
C444 C442 1.327 . S
C444 C463 1.429 . S
C444 H468 0.950 . S
C445 C462 1.574 . S
C445 C464 1.368 . S
C445 H469 0.949 . S
H446 C450 0.949 . S
C447 C448 1.349 . S
C447 C449 1.327 . S
C447 H470 0.950 . S
C448 C447 1.349 . S
C448 C460 1.349 . S
C449 C447 1.327 . S
C449 C465 1.429 . S
C449 H471 0.950 . S
C450 H446 0.949 . S
C450 C458 1.574 . S
C450 C466 1.368 . S
H451 C459 0.950 . S
H452 C457 0.950 . S
H453 C458 0.949 . S
H454 C460 0.950 . S
H455 C461 0.950 . S
H456 C462 0.949 . S
C457 H452 0.950 . S
C457 C459 1.327 . S
C457 C463 1.429 . S
C458 C450 1.574 . S
C458 H453 0.949 . S
C458 C464 1.368 . S
C459 C443 1.349 . S
C459 H451 0.950 . S
C459 C457 1.327 . S
C460 C448 1.349 . S
C460 H454 0.950 . S
C460 C461 1.327 . S
C461 H455 0.950 . S
C461 C460 1.327 . S
C461 C465 1.429 . S
C462 C445 1.574 . S
C462 H456 0.949 . S
C462 C466 1.368 . S
C463 C444 1.429 . S
C463 C457 1.429 . S
C463 C464 1.523 . S
C464 C445 1.368 . S
C464 C458 1.368 . S
C464 C463 1.523 . S
C465 C449 1.429 . S
C465 C461 1.429 . S
C465 C466 1.523 . S
C466 C450 1.368 . S
C466 C462 1.368 . S
C466 C465 1.523 . S
H467 C442 0.950 . S
H468 C444 0.950 . S
H469 C445 0.949 . S
H470 C447 0.950 . S
H471 C449 0.950 . S
C472 C473 1.349 . S
C472 C474 1.327 . S
C472 H497 0.950 . S
C473 C472 1.349 . S
C473 C489 1.349 . S
C474 C472 1.327 . S
C474 C493 1.429 . S
C474 H498 0.950 . S
C475 C492 1.574 . S
C475 C494 1.368 . S
C475 H499 0.949 . S
H476 C480 0.949 . S
C477 C478 1.349 . S
C477 C479 1.327 . S
C477 H500 0.950 . S
C478 C477 1.349 . S
C478 C490 1.349 . S
C479 C477 1.327 . S
C479 C495 1.429 . S
C479 H501 0.950 . S
C480 H476 0.949 . S
C480 C488 1.574 . S
C480 C496 1.368 . S
H481 C489 0.950 . S
H482 C487 0.950 . S
H483 C488 0.949 . S
H484 C490 0.950 . S
H485 C491 0.950 . S
H486 C492 0.949 . S
C487 H482 0.950 . S
C487 C489 1.327 . S
C487 C493 1.429 . S
C488 C480 1.574 . S
C488 H483 0.949 . S
C488 C494 1.368 . S
C489 C473 1.349 . S
C489 H481 0.950 . S
C489 C487 1.327 . S
C490 C478 1.349 . S
C490 H484 0.950 . S
C490 C491 1.327 . S
C491 H485 0.950 . S
C491 C490 1.327 . S
C491 C495 1.429 . S
C492 C475 1.574 . S
C492 H486 0.949 . S
C492 C496 1.368 . S
C493 C474 1.429 . S
C493 C487 1.429 . S
C493 C494 1.523 . S
C494 C475 1.368 . S
C494 C488 1.368 . S
C494 C493 1.523 . S
C495 C479 1.429 . S
C495 C491 1.429 . S
C495 C496 1.523 . S
C496 C480 1.368 . S
C496 C492 1.368 . S
C496 C495 1.523 . S
H497 C472 0.950 . S
H498 C474 0.950 . S
H499 C475 0.949 . S
H500 C477 0.950 . S
H501 C479 0.950 . S
C502 C503 1.349 . S
C502 C504 1.327 . S
C502 H527 0.950 . S
C503 C502 1.349 . S
C503 C519 1.349 . S
C504 C502 1.327 . S
C504 C523 1.429 . S
C504 H528 0.950 . S
C505 C522 1.574 . S
C505 C524 1.368 . S
C505 H529 0.949 . S
H506 C510 0.949 . S
C507 C508 1.349 . S
C507 C509 1.327 . S
C507 H530 0.950 . S
C508 C507 1.349 . S
C508 C520 1.349 . S
C509 C507 1.327 . S
C509 C525 1.429 . S
C509 H531 0.950 . S
C510 H506 0.949 . S
C510 C518 1.574 . S
C510 C526 1.368 . S
H511 C519 0.950 . S
H512 C517 0.950 . S
H513 C518 0.949 . S
H514 C520 0.950 . S
H515 C521 0.950 . S
H516 C522 0.949 . S
C517 H512 0.950 . S
C517 C519 1.327 . S
C517 C523 1.429 . S
C518 C510 1.574 . S
C518 H513 0.949 . S
C518 C524 1.368 . S
C519 C503 1.349 . S
C519 H511 0.950 . S
C519 C517 1.327 . S
C520 C508 1.349 . S
C520 H514 0.950 . S
C520 C521 1.327 . S
C521 H515 0.950 . S
C521 C520 1.327 . S
C521 C525 1.429 . S
C522 C505 1.574 . S
C522 H516 0.949 . S
C522 C526 1.368 . S
C523 C504 1.429 . S
C523 C517 1.429 . S
C523 C524 1.523 . S
C524 C505 1.368 . S
C524 C518 1.368 . S
C524 C523 1.523 . S
C525 C509 1.429 . S
C525 C521 1.429 . S
C525 C526 1.523 . S
C526 C510 1.368 . S
C526 C522 1.368 . S
C526 C525 1.523 . S
H527 C502 0.950 . S
H528 C504 0.950 . S
H529 C505 0.949 . S
H530 C507 0.950 . S
H531 C509 0.950 . S
C532 C533 1.349 . S
C532 C534 1.327 . S
C532 H557 0.950 . S
C533 C532 1.349 . S
C533 C549 1.349 . S
C534 C532 1.327 . S
C534 C553 1.429 . S
C534 H558 0.950 . S
C535 C552 1.574 . S
C535 C554 1.368 . S
C535 H559 0.949 . S
H536 C540 0.949 . S
C537 C538 1.349 . S
C537 C539 1.327 . S
C537 H560 0.950 . S
C538 C537 1.349 . S
C538 C550 1.349 . S
C539 C537 1.327 . S
C539 C555 1.429 . S
C539 H561 0.950 . S
C540 H536 0.949 . S
C540 C548 1.574 . S
C540 C556 1.368 . S
H541 C549 0.950 . S
H542 C547 0.950 . S
H543 C548 0.949 . S
H544 C550 0.950 . S
H545 C551 0.950 . S
H546 C552 0.949 . S
C547 H542 0.950 . S
C547 C549 1.327 . S
C547 C553 1.429 . S
C548 C540 1.574 . S
C548 H543 0.949 . S
C548 C554 1.368 . S
C549 C533 1.349 . S
C549 H541 0.950 . S
C549 C547 1.327 . S
C550 C538 1.349 . S
C550 H544 0.950 . S
C550 C551 1.327 . S
C551 H545 0.950 . S
C551 C550 1.327 . S
C551 C555 1.429 . S
C552 C535 1.574 . S
C552 H546 0.949 . S
C552 C556 1.368 . S
C553 C534 1.429 . S
C553 C547 1.429 . S
C553 C554 1.523 . S
C554 C535 1.368 . S
C554 C548 1.368 . S
C554 C553 1.523 . S
C555 C539 1.429 . S
C555 C551 1.429 . S
C555 C556 1.523 . S
C556 C540 1.368 . S
C556 C552 1.368 . S
C556 C555 1.523 . S
H557 C532 0.950 . S
H558 C534 0.950 . S
H559 C535 0.949 . S
H560 C537 0.950 . S
H561 C539 0.950 . S
C562 C563 1.349 . S
C562 C564 1.327 . S
C562 H587 0.950 . S
C563 C562 1.349 . S
C563 C579 1.349 . S
C564 C562 1.327 . S
C564 C583 1.429 . S
C564 H588 0.950 . S
C565 C582 1.574 . S
C565 C584 1.368 . S
C565 H589 0.949 . S
H566 C570 0.949 . S
C567 C568 1.349 . S
C567 C569 1.327 . S
C567 H590 0.950 . S
C568 C567 1.349 . S
C568 C580 1.349 . S
C569 C567 1.327 . S
C569 C585 1.429 . S
C569 H591 0.950 . S
C570 H566 0.949 . S
C570 C578 1.574 . S
C570 C586 1.368 . S
H571 C579 0.950 . S
H572 C577 0.950 . S
H573 C578 0.949 . S
H574 C580 0.950 . S
H575 C581 0.950 . S
H576 C582 0.949 . S
C577 H572 0.950 . S
C577 C579 1.327 . S
C577 C583 1.429 . S
C578 C570 1.574 . S
C578 H573 0.949 . S
C578 C584 1.368 . S
C579 C563 1.349 . S
C579 H571 0.950 . S
C579 C577 1.327 . S
C580 C568 1.349 . S
C580 H574 0.950 . S
C580 C581 1.327 . S
C581 H575 0.950 . S
C581 C580 1.327 . S
C581 C585 1.429 . S
C582 C565 1.574 . S
C582 H576 0.949 . S
C582 C586 1.368 . S
C583 C564 1.429 . S
C583 C577 1.429 . S
C583 C584 1.523 . S
C584 C565 1.368 . S
C584 C578 1.368 . S
C584 C583 1.523 . S
C585 C569 1.429 . S
C585 C581 1.429 . S
C585 C586 1.523 . S
C586 C570 1.368 . S
C586 C582 1.368 . S
C586 C585 1.523 . S
H587 C562 0.950 . S
H588 C564 0.950 . S
H589 C565 0.949 . S
H590 C567 0.950 . S
H591 C569 0.950 . S
C592 C593 1.349 . S
C592 C594 1.327 . S
C592 H617 0.950 . S
C593 C592 1.349 . S
C593 C609 1.349 . S
C594 C592 1.327 . S
C594 C613 1.429 . S
C594 H618 0.950 . S
C595 C612 1.574 . S
C595 C614 1.368 . S
C595 H619 0.949 . S
H596 C600 0.949 . S
C597 C598 1.349 . S
C597 C599 1.327 . S
C597 H620 0.950 . S
C598 C597 1.349 . S
C598 C610 1.349 . S
C599 C597 1.327 . S
C599 C615 1.429 . S
C599 H621 0.950 . S
C600 H596 0.949 . S
C600 C608 1.574 . S
C600 C616 1.368 . S
H601 C609 0.950 . S
H602 C607 0.950 . S
H603 C608 0.949 . S
H604 C610 0.950 1_565 S
H605 C611 0.950 . S
H606 C612 0.949 . S
C607 H602 0.950 . S
C607 C609 1.327 . S
C607 C613 1.429 . S
C608 C600 1.574 . S
C608 H603 0.949 . S
C608 C614 1.368 . S
C609 C593 1.349 . S
C609 H601 0.950 . S
C609 C607 1.327 . S
C610 C598 1.349 . S
C610 H604 0.950 1_545 S
C610 C611 1.327 . S
C611 H605 0.950 . S
C611 C610 1.327 . S
C611 C615 1.429 . S
C612 C595 1.574 . S
C612 H606 0.949 . S
C612 C616 1.368 . S
C613 C594 1.429 . S
C613 C607 1.429 . S
C613 C614 1.523 . S
C614 C595 1.368 . S
C614 C608 1.368 . S
C614 C613 1.523 . S
C615 C599 1.429 . S
C615 C611 1.429 . S
C615 C616 1.523 . S
C616 C600 1.368 . S
C616 C612 1.368 . S
C616 C615 1.523 . S
H617 C592 0.950 . S
H618 C594 0.950 . S
H619 C595 0.949 . S
H620 C597 0.950 . S
H621 C599 0.950 . S
C622 C623 1.349 . S
C622 C624 1.327 . S
C622 H647 0.950 . S
C623 C622 1.349 . S
C623 C639 1.349 . S
C624 C622 1.327 . S
C624 C643 1.429 . S
C624 H648 0.950 . S
C625 C642 1.574 . S
C625 C644 1.368 . S
C625 H649 0.949 . S
H626 C630 0.949 . S
C627 C628 1.349 . S
C627 C629 1.327 . S
C627 H650 0.950 . S
C628 C627 1.349 . S
C628 C640 1.349 . S
C629 C627 1.327 . S
C629 C645 1.429 . S
C629 H651 0.950 . S
C630 H626 0.949 . S
C630 C638 1.574 . S
C630 C646 1.368 . S
H631 C639 0.950 . S
H632 C637 0.950 . S
H633 C638 0.949 . S
H634 C640 0.950 . S
H635 C641 0.950 . S
H636 C642 0.949 . S
C637 H632 0.950 . S
C637 C639 1.327 . S
C637 C643 1.429 . S
C638 C630 1.574 . S
C638 H633 0.949 . S
C638 C644 1.368 . S
C639 C623 1.349 . S
C639 H631 0.950 . S
C639 C637 1.327 . S
C640 C628 1.349 . S
C640 H634 0.950 . S
C640 C641 1.327 . S
C641 H635 0.950 . S
C641 C640 1.327 . S
C641 C645 1.429 . S
C642 C625 1.574 . S
C642 H636 0.949 . S
C642 C646 1.368 . S
C643 C624 1.429 . S
C643 C637 1.429 . S
C643 C644 1.523 . S
C644 C625 1.368 . S
C644 C638 1.368 . S
C644 C643 1.523 . S
C645 C629 1.429 . S
C645 C641 1.429 . S
C645 C646 1.523 . S
C646 C630 1.368 . S
C646 C642 1.368 . S
C646 C645 1.523 . S
H647 C622 0.950 . S
H648 C624 0.950 . S
H649 C625 0.949 . S
H650 C627 0.950 . S
H651 C629 0.950 . S
C652 C653 1.349 . S
C652 C654 1.327 . S
C652 H677 0.950 1_455 S
C653 C652 1.349 . S
C653 C669 1.349 . S
C654 C652 1.327 . S
C654 C673 1.429 . S
C654 H678 0.950 . S
C655 C672 1.574 . S
C655 C674 1.368 . S
C655 H679 0.949 . S
H656 C660 0.949 . S
C657 C658 1.349 . S
C657 C659 1.327 . S
C657 H680 0.950 . S
C658 C657 1.349 . S
C658 C670 1.349 . S
C659 C657 1.327 . S
C659 C675 1.429 . S
C659 H681 0.950 . S
C660 H656 0.949 . S
C660 C668 1.574 . S
C660 C676 1.368 . S
H661 C669 0.950 . S
H662 C667 0.950 . S
H663 C668 0.949 . S
H664 C670 0.950 . S
H665 C671 0.950 . S
H666 C672 0.949 . S
C667 H662 0.950 . S
C667 C669 1.327 . S
C667 C673 1.429 . S
C668 C660 1.574 . S
C668 H663 0.949 . S
C668 C674 1.368 . S
C669 C653 1.349 . S
C669 H661 0.950 . S
C669 C667 1.327 . S
C670 C658 1.349 . S
C670 H664 0.950 . S
C670 C671 1.327 . S
C671 H665 0.950 . S
C671 C670 1.327 . S
C671 C675 1.429 . S
C672 C655 1.574 . S
C672 H666 0.949 . S
C672 C676 1.368 . S
C673 C654 1.429 . S
C673 C667 1.429 . S
C673 C674 1.523 . S
C674 C655 1.368 . S
C674 C668 1.368 . S
C674 C673 1.523 . S
C675 C659 1.429 . S
C675 C671 1.429 . S
C675 C676 1.523 . S
C676 C660 1.368 . S
C676 C672 1.368 . S
C676 C675 1.523 . S
H677 C652 0.950 1_655 S
H678 C654 0.950 . S
H679 C655 0.949 . S
H680 C657 0.950 . S
H681 C659 0.950 . S
C682 C683 1.349 . S
C682 C684 1.327 . S
C682 H707 0.950 1_545 S
C683 C682 1.349 . S
C683 C699 1.349 . S
C684 C682 1.327 . S
C684 C703 1.429 . S
C684 H708 0.950 . S
C685 C702 1.574 . S
C685 C704 1.368 . S
C685 H709 0.949 . S
H686 C690 0.949 . S
C687 C688 1.349 . S
C687 C689 1.327 . S
C687 H710 0.950 . S
C688 C687 1.349 . S
C688 C700 1.349 . S
C689 C687 1.327 . S
C689 C705 1.429 . S
C689 H711 0.950 . S
C690 H686 0.949 . S
C690 C698 1.574 . S
C690 C706 1.368 . S
H691 C699 0.950 . S
H692 C697 0.950 . S
H693 C698 0.949 . S
H694 C700 0.950 1_655 S
H695 C701 0.950 . S
H696 C702 0.949 . S
C697 H692 0.950 . S
C697 C699 1.327 . S
C697 C703 1.429 . S
C698 C690 1.574 . S
C698 H693 0.949 . S
C698 C704 1.368 . S
C699 C683 1.349 . S
C699 H691 0.950 . S
C699 C697 1.327 . S
C700 C688 1.349 . S
C700 H694 0.950 1_455 S
C700 C701 1.327 . S
C701 H695 0.950 . S
C701 C700 1.327 . S
C701 C705 1.429 . S
C702 C685 1.574 . S
C702 H696 0.949 . S
C702 C706 1.368 . S
C703 C684 1.429 . S
C703 C697 1.429 . S
C703 C704 1.523 . S
C704 C685 1.368 . S
C704 C698 1.368 . S
C704 C703 1.523 . S
C705 C689 1.429 . S
C705 C701 1.429 . S
C705 C706 1.523 . S
C706 C690 1.368 . S
C706 C702 1.368 . S
C706 C705 1.523 . S
H707 C682 0.950 1_565 S
H708 C684 0.950 . S
H709 C685 0.949 . S
H710 C687 0.950 . S
H711 C689 0.950 . S
C712 C713 1.349 . S
C712 C714 1.327 . S
C712 H737 0.950 1_655 S
C713 C712 1.349 . S
C713 C729 1.349 . S
C714 C712 1.327 . S
C714 C733 1.429 . S
C714 H738 0.950 . S
C715 C732 1.574 . S
C715 C734 1.368 . S
C715 H739 0.949 . S
H716 C720 0.949 . S
C717 C718 1.349 . S
C717 C719 1.327 . S
C717 H740 0.950 . S
C718 C717 1.349 . S
C718 C730 1.349 . S
C719 C717 1.327 . S
C719 C735 1.429 . S
C719 H741 0.950 . S
C720 H716 0.949 . S
C720 C728 1.574 . S
C720 C736 1.368 . S
H721 C729 0.950 . S
H722 C727 0.950 . S
H723 C728 0.949 . S
H724 C730 0.950 1_545 S
H725 C731 0.950 . S
H726 C732 0.949 . S
C727 H722 0.950 . S
C727 C729 1.327 . S
C727 C733 1.429 . S
C728 C720 1.574 . S
C728 H723 0.949 . S
C728 C734 1.368 . S
C729 C713 1.349 . S
C729 H721 0.950 . S
C729 C727 1.327 . S
C730 C718 1.349 . S
C730 H724 0.950 1_565 S
C730 C731 1.327 . S
C731 H725 0.950 . S
C731 C730 1.327 . S
C731 C735 1.429 . S
C732 C715 1.574 . S
C732 H726 0.949 . S
C732 C736 1.368 . S
C733 C714 1.429 . S
C733 C727 1.429 . S
C733 C734 1.523 . S
C734 C715 1.368 . S
C734 C728 1.368 . S
C734 C733 1.523 . S
C735 C719 1.429 . S
C735 C731 1.429 . S
C735 C736 1.523 . S
C736 C720 1.368 . S
C736 C732 1.368 . S
C736 C735 1.523 . S
H737 C712 0.950 1_455 S
H738 C714 0.950 . S
H739 C715 0.949 . S
H740 C717 0.950 . S
H741 C719 0.950 . S
C742 C743 1.349 . S
C742 C744 1.327 . S
C742 H767 0.950 . S
C743 C742 1.349 . S
C743 C759 1.349 . S
C744 C742 1.327 . S
C744 C763 1.429 . S
C744 H768 0.950 . S
C745 C762 1.574 . S
C745 C764 1.368 . S
C745 H769 0.949 . S
H746 C750 0.949 . S
C747 C748 1.349 . S
C747 C749 1.327 . S
C747 H770 0.950 1_565 S
C748 C747 1.349 . S
C748 C760 1.349 . S
C749 C747 1.327 . S
C749 C765 1.429 . S
C749 H771 0.950 . S
C750 H746 0.949 . S
C750 C758 1.574 . S
C750 C766 1.368 . S
H751 C759 0.950 . S
H752 C757 0.950 . S
H753 C758 0.949 . S
H754 C760 0.950 . S
H755 C761 0.950 . S
H756 C762 0.949 . S
C757 H752 0.950 . S
C757 C759 1.327 . S
C757 C763 1.429 . S
C758 C750 1.574 . S
C758 H753 0.949 . S
C758 C764 1.368 . S
C759 C743 1.349 . S
C759 H751 0.950 . S
C759 C757 1.327 . S
C760 C748 1.349 . S
C760 H754 0.950 . S
C760 C761 1.327 . S
C761 H755 0.950 . S
C761 C760 1.327 . S
C761 C765 1.429 . S
C762 C745 1.574 . S
C762 H756 0.949 . S
C762 C766 1.368 . S
C763 C744 1.429 . S
C763 C757 1.429 . S
C763 C764 1.523 . S
C764 C745 1.368 . S
C764 C758 1.368 . S
C764 C763 1.523 . S
C765 C749 1.429 . S
C765 C761 1.429 . S
C765 C766 1.523 . S
C766 C750 1.368 . S
C766 C762 1.368 . S
C766 C765 1.523 . S
H767 C742 0.950 . S
H768 C744 0.950 . S
H769 C745 0.949 . S
H770 C747 0.950 1_545 S
H771 C749 0.950 . S
C772 C773 1.349 . S
C772 C774 1.327 . S
C772 H797 0.950 . S
C773 C772 1.349 . S
C773 C789 1.349 . S
C774 C772 1.327 . S
C774 C793 1.429 . S
C774 H798 0.950 . S
C775 C792 1.574 . S
C775 C794 1.368 . S
C775 H799 0.949 . S
H776 C780 0.949 . S
C777 C778 1.349 . S
C777 C779 1.327 . S
C777 H800 0.950 . S
C778 C777 1.349 . S
C778 C790 1.349 . S
C779 C777 1.327 . S
C779 C795 1.429 . S
C779 H801 0.950 . S
C780 H776 0.949 . S
C780 C788 1.574 . S
C780 C796 1.368 . S
H781 C789 0.950 . S
H782 C787 0.950 . S
H783 C788 0.949 . S
H784 C790 0.950 . S
H785 C791 0.950 . S
H786 C792 0.949 . S
C787 H782 0.950 . S
C787 C789 1.327 . S
C787 C793 1.429 . S
C788 C780 1.574 . S
C788 H783 0.949 . S
C788 C794 1.368 . S
C789 C773 1.349 . S
C789 H781 0.950 . S
C789 C787 1.327 . S
C790 C778 1.349 . S
C790 H784 0.950 . S
C790 C791 1.327 . S
C791 H785 0.950 . S
C791 C790 1.327 . S
C791 C795 1.429 . S
C792 C775 1.574 . S
C792 H786 0.949 . S
C792 C796 1.368 . S
C793 C774 1.429 . S
C793 C787 1.429 . S
C793 C794 1.523 . S
C794 C775 1.368 . S
C794 C788 1.368 . S
C794 C793 1.523 . S
C795 C779 1.429 . S
C795 C791 1.429 . S
C795 C796 1.523 . S
C796 C780 1.368 . S
C796 C792 1.368 . S
C796 C795 1.523 . S
H797 C772 0.950 . S
H798 C774 0.950 . S
H799 C775 0.949 . S
H800 C777 0.950 . S
H801 C779 0.950 . S
C802 C803 1.349 . S
C802 C804 1.327 . S
C802 H827 0.950 . S
C803 C802 1.349 . S
C803 C819 1.349 . S
C804 C802 1.327 . S
C804 C823 1.429 . S
C804 H828 0.950 . S
C805 C822 1.574 . S
C805 C824 1.368 . S
C805 H829 0.949 . S
H806 C810 0.949 . S
C807 C808 1.349 . S
C807 C809 1.327 . S
C807 H830 0.950 . S
C808 C807 1.349 . S
C808 C820 1.349 . S
C809 C807 1.327 . S
C809 C825 1.429 . S
C809 H831 0.950 . S
C810 H806 0.949 . S
C810 C818 1.574 . S
C810 C826 1.368 . S
H811 C819 0.950 1_455 S
H812 C817 0.950 . S
H813 C818 0.949 . S
H814 C820 0.950 . S
H815 C821 0.950 . S
H816 C822 0.949 . S
C817 H812 0.950 . S
C817 C819 1.327 . S
C817 C823 1.429 . S
C818 C810 1.574 . S
C818 H813 0.949 . S
C818 C824 1.368 . S
C819 C803 1.349 . S
C819 H811 0.950 1_655 S
C819 C817 1.327 . S
C820 C808 1.349 . S
C820 H814 0.950 . S
C820 C821 1.327 . S
C821 H815 0.950 . S
C821 C820 1.327 . S
C821 C825 1.429 . S
C822 C805 1.574 . S
C822 H816 0.949 . S
C822 C826 1.368 . S
C823 C804 1.429 . S
C823 C817 1.429 . S
C823 C824 1.523 . S
C824 C805 1.368 . S
C824 C818 1.368 . S
C824 C823 1.523 . S
C825 C809 1.429 . S
C825 C821 1.429 . S
C825 C826 1.523 . S
C826 C810 1.368 . S
C826 C822 1.368 . S
C826 C825 1.523 . S
H827 C802 0.950 . S
H828 C804 0.950 . S
H829 C805 0.949 . S
H830 C807 0.950 . S
H831 C809 0.950 . S
C832 C833 1.349 . S
C832 C834 1.327 . S
C832 H857 0.950 1_565 S
C833 C832 1.349 . S
C833 C849 1.349 . S
C834 C832 1.327 . S
C834 C853 1.429 . S
C834 H858 0.950 . S
C835 C852 1.574 . S
C835 C854 1.368 . S
C835 H859 0.949 . S
H836 C840 0.949 . S
C837 C838 1.349 . S
C837 C839 1.327 . S
C837 H860 0.950 . S
C838 C837 1.349 . S
C838 C850 1.349 . S
C839 C837 1.327 . S
C839 C855 1.429 . S
C839 H861 0.950 . S
C840 H836 0.949 . S
C840 C848 1.574 . S
C840 C856 1.368 . S
H841 C849 0.950 . S
H842 C847 0.950 . S
H843 C848 0.949 . S
H844 C850 0.950 . S
H845 C851 0.950 . S
H846 C852 0.949 . S
C847 H842 0.950 . S
C847 C849 1.327 . S
C847 C853 1.429 . S
C848 C840 1.574 . S
C848 H843 0.949 . S
C848 C854 1.368 . S
C849 C833 1.349 . S
C849 H841 0.950 . S
C849 C847 1.327 . S
C850 C838 1.349 . S
C850 H844 0.950 . S
C850 C851 1.327 . S
C851 H845 0.950 . S
C851 C850 1.327 . S
C851 C855 1.429 . S
C852 C835 1.574 . S
C852 H846 0.949 . S
C852 C856 1.368 . S
C853 C834 1.429 . S
C853 C847 1.429 . S
C853 C854 1.523 . S
C854 C835 1.368 . S
C854 C848 1.368 . S
C854 C853 1.523 . S
C855 C839 1.429 . S
C855 C851 1.429 . S
C855 C856 1.523 . S
C856 C840 1.368 . S
C856 C852 1.368 . S
C856 C855 1.523 . S
H857 C832 0.950 1_545 S
H858 C834 0.950 . S
H859 C835 0.949 . S
H860 C837 0.950 . S
H861 C839 0.950 . S
C862 C863 1.349 . S
C862 C864 1.327 . S
C862 H887 0.950 . S
C863 C862 1.349 . S
C863 C879 1.349 . S
C864 C862 1.327 . S
C864 C883 1.429 . S
C864 H888 0.950 . S
C865 C882 1.574 . S
C865 C884 1.368 . S
C865 H889 0.949 . S
H866 C870 0.949 . S
C867 C868 1.349 . S
C867 C869 1.327 . S
C867 H890 0.950 . S
C868 C867 1.349 . S
C868 C880 1.349 . S
C869 C867 1.327 . S
C869 C885 1.429 . S
C869 H891 0.950 . S
C870 H866 0.949 . S
C870 C878 1.574 . S
C870 C886 1.368 . S
H871 C879 0.950 . S
H872 C877 0.950 . S
H873 C878 0.949 . S
H874 C880 0.950 . S
H875 C881 0.950 . S
H876 C882 0.949 . S
C877 H872 0.950 . S
C877 C879 1.327 . S
C877 C883 1.429 . S
C878 C870 1.574 . S
C878 H873 0.949 . S
C878 C884 1.368 . S
C879 C863 1.349 . S
C879 H871 0.950 . S
C879 C877 1.327 . S
C880 C868 1.349 . S
C880 H874 0.950 . S
C880 C881 1.327 . S
C881 H875 0.950 . S
C881 C880 1.327 . S
C881 C885 1.429 . S
C882 C865 1.574 . S
C882 H876 0.949 . S
C882 C886 1.368 . S
C883 C864 1.429 . S
C883 C877 1.429 . S
C883 C884 1.523 . S
C884 C865 1.368 . S
C884 C878 1.368 . S
C884 C883 1.523 . S
C885 C869 1.429 . S
C885 C881 1.429 . S
C885 C886 1.523 . S
C886 C870 1.368 . S
C886 C882 1.368 . S
C886 C885 1.523 . S
H887 C862 0.950 . S
H888 C864 0.950 . S
H889 C865 0.949 . S
H890 C867 0.950 . S
H891 C869 0.950 . S
C892 C893 1.349 . S
C892 C894 1.327 . S
C892 H917 0.950 1_655 S
C893 C892 1.349 . S
C893 C909 1.349 . S
C894 C892 1.327 . S
C894 C913 1.429 . S
C894 H918 0.950 . S
C895 C912 1.574 . S
C895 C914 1.368 . S
C895 H919 0.949 . S
H896 C900 0.949 . S
C897 C898 1.349 . S
C897 C899 1.327 . S
C897 H920 0.950 . S
C898 C897 1.349 . S
C898 C910 1.349 . S
C899 C897 1.327 . S
C899 C915 1.429 . S
C899 H921 0.950 . S
C900 H896 0.949 . S
C900 C908 1.574 . S
C900 C916 1.368 . S
H901 C909 0.950 . S
H902 C907 0.950 . S
H903 C908 0.949 . S
H904 C910 0.950 . S
H905 C911 0.950 . S
H906 C912 0.949 . S
C907 H902 0.950 . S
C907 C909 1.327 . S
C907 C913 1.429 . S
C908 C900 1.574 . S
C908 H903 0.949 . S
C908 C914 1.368 . S
C909 C893 1.349 . S
C909 H901 0.950 . S
C909 C907 1.327 . S
C910 C898 1.349 . S
C910 H904 0.950 . S
C910 C911 1.327 . S
C911 H905 0.950 . S
C911 C910 1.327 . S
C911 C915 1.429 . S
C912 C895 1.574 . S
C912 H906 0.949 . S
C912 C916 1.368 . S
C913 C894 1.429 . S
C913 C907 1.429 . S
C913 C914 1.523 . S
C914 C895 1.368 . S
C914 C908 1.368 . S
C914 C913 1.523 . S
C915 C899 1.429 . S
C915 C911 1.429 . S
C915 C916 1.523 . S
C916 C900 1.368 . S
C916 C912 1.368 . S
C916 C915 1.523 . S
H917 C892 0.950 1_455 S
H918 C894 0.950 . S
H919 C895 0.949 . S
H920 C897 0.950 . S
H921 C899 0.950 . S
C922 C923 1.349 . S
C922 C924 1.327 . S
C922 H947 0.950 1_565 S
C923 C922 1.349 . S
C923 C939 1.349 . S
C924 C922 1.327 . S
C924 C943 1.429 . S
C924 H948 0.950 . S
C925 C942 1.574 . S
C925 C944 1.368 . S
C925 H949 0.949 . S
H926 C930 0.949 . S
C927 C928 1.349 . S
C927 C929 1.327 . S
C927 H950 0.950 . S
C928 C927 1.349 . S
C928 C940 1.349 . S
C929 C927 1.327 . S
C929 C945 1.429 . S
C929 H951 0.950 . S
C930 H926 0.949 . S
C930 C938 1.574 . S
C930 C946 1.368 . S
H931 C939 0.950 . S
H932 C937 0.950 . S
H933 C938 0.949 . S
H934 C940 0.950 1_455 S
H935 C941 0.950 . S
H936 C942 0.949 . S
C937 H932 0.950 . S
C937 C939 1.327 . S
C937 C943 1.429 . S
C938 C930 1.574 . S
C938 H933 0.949 . S
C938 C944 1.368 . S
C939 C923 1.349 . S
C939 H931 0.950 . S
C939 C937 1.327 . S
C940 C928 1.349 . S
C940 H934 0.950 1_655 S
C940 C941 1.327 . S
C941 H935 0.950 . S
C941 C940 1.327 . S
C941 C945 1.429 . S
C942 C925 1.574 . S
C942 H936 0.949 . S
C942 C946 1.368 . S
C943 C924 1.429 . S
C943 C937 1.429 . S
C943 C944 1.523 . S
C944 C925 1.368 . S
C944 C938 1.368 . S
C944 C943 1.523 . S
C945 C929 1.429 . S
C945 C941 1.429 . S
C945 C946 1.523 . S
C946 C930 1.368 . S
C946 C942 1.368 . S
C946 C945 1.523 . S
H947 C922 0.950 1_545 S
H948 C924 0.950 . S
H949 C925 0.949 . S
H950 C927 0.950 . S
H951 C929 0.950 . S
C952 C953 1.349 . S
C952 C954 1.327 . S
C952 H977 0.950 1_455 S
C953 C952 1.349 . S
C953 C969 1.349 . S
C954 C952 1.327 . S
C954 C973 1.429 . S
C954 H978 0.950 . S
C955 C972 1.574 . S
C955 C974 1.368 . S
C955 H979 0.949 . S
H956 C960 0.949 . S
C957 C958 1.349 . S
C957 C959 1.327 . S
C957 H980 0.950 . S
C958 C957 1.349 . S
C958 C970 1.349 . S
C959 C957 1.327 . S
C959 C975 1.429 . S
C959 H981 0.950 . S
C960 H956 0.949 . S
C960 C968 1.574 . S
C960 C976 1.368 . S
H961 C969 0.950 . S
H962 C967 0.950 . S
H963 C968 0.949 . S
H964 C970 0.950 1_565 S
H965 C971 0.950 . S
H966 C972 0.949 . S
C967 H962 0.950 . S
C967 C969 1.327 . S
C967 C973 1.429 . S
C968 C960 1.574 . S
C968 H963 0.949 . S
C968 C974 1.368 . S
C969 C953 1.349 . S
C969 H961 0.950 . S
C969 C967 1.327 . S
C970 C958 1.349 . S
C970 H964 0.950 1_545 S
C970 C971 1.327 . S
C971 H965 0.950 . S
C971 C970 1.327 . S
C971 C975 1.429 . S
C972 C955 1.574 . S
C972 H966 0.949 . S
C972 C976 1.368 . S
C973 C954 1.429 . S
C973 C967 1.429 . S
C973 C974 1.523 . S
C974 C955 1.368 . S
C974 C968 1.368 . S
C974 C973 1.523 . S
C975 C959 1.429 . S
C975 C971 1.429 . S
C975 C976 1.523 . S
C976 C960 1.368 . S
C976 C972 1.368 . S
C976 C975 1.523 . S
H977 C952 0.950 1_655 S
H978 C954 0.950 . S
H979 C955 0.949 . S
H980 C957 0.950 . S
H981 C959 0.950 . S
C982 C983 1.349 . S
C982 C984 1.327 . S
C982 H1007 0.950 . S
C983 C982 1.349 . S
C983 C999 1.349 . S
C984 C982 1.327 . S
C984 C1003 1.429 . S
C984 H1008 0.950 . S
C985 C1002 1.574 . S
C985 C1004 1.368 . S
C985 H1009 0.949 . S
H986 C990 0.949 . S
C987 C988 1.349 . S
C987 C989 1.327 . S
C987 H1010 0.950 . S
C988 C987 1.349 . S
C988 C1000 1.349 . S
C989 C987 1.327 . S
C989 C1005 1.429 . S
C989 H1011 0.950 . S
C990 H986 0.949 . S
C990 C998 1.574 . S
C990 C1006 1.368 . S
H991 C999 0.950 1_565 S
H992 C997 0.950 . S
H993 C998 0.949 . S
H994 C1000 0.950 . S
H995 C1001 0.950 . S
H996 C1002 0.949 . S
C997 H992 0.950 . S
C997 C999 1.327 . S
C997 C1003 1.429 . S
C998 C990 1.574 . S
C998 H993 0.949 . S
C998 C1004 1.368 . S
C999 C983 1.349 . S
C999 H991 0.950 1_545 S
C999 C997 1.327 . S
C1000 C988 1.349 . S
C1000 H994 0.950 . S
C1000 C1001 1.327 . S
C1001 H995 0.950 . S
C1001 C1000 1.327 . S
C1001 C1005 1.429 . S
C1002 C985 1.574 . S
C1002 H996 0.949 . S
C1002 C1006 1.368 . S
C1003 C984 1.429 . S
C1003 C997 1.429 . S
C1003 C1004 1.523 . S
C1004 C985 1.368 . S
C1004 C998 1.368 . S
C1004 C1003 1.523 . S
C1005 C989 1.429 . S
C1005 C1001 1.429 . S
C1005 C1006 1.523 . S
C1006 C990 1.368 . S
C1006 C1002 1.368 . S
C1006 C1005 1.523 . S
H1007 C982 0.950 . S
H1008 C984 0.950 . S
H1009 C985 0.949 . S
H1010 C987 0.950 . S
H1011 C989 0.950 . S
C1012 C1013 1.349 . S
C1012 C1014 1.327 . S
C1012 H1037 0.950 . S
C1013 C1012 1.349 . S
C1013 C1029 1.349 . S
C1014 C1012 1.327 . S
C1014 C1033 1.429 . S
C1014 H1038 0.950 . S
C1015 C1032 1.574 . S
C1015 C1034 1.368 . S
C1015 H1039 0.949 . S
H1016 C1020 0.949 . S
C1017 C1018 1.349 . S
C1017 C1019 1.327 . S
C1017 H1040 0.950 . S
C1018 C1017 1.349 . S
C1018 C1030 1.349 . S
C1019 C1017 1.327 . S
C1019 C1035 1.429 . S
C1019 H1041 0.950 . S
C1020 H1016 0.949 . S
C1020 C1028 1.574 . S
C1020 C1036 1.368 . S
H1021 C1029 0.950 . S
H1022 C1027 0.950 . S
H1023 C1028 0.949 . S
H1024 C1030 0.950 . S
H1025 C1031 0.950 . S
H1026 C1032 0.949 . S
C1027 H1022 0.950 . S
C1027 C1029 1.327 . S
C1027 C1033 1.429 . S
C1028 C1020 1.574 . S
C1028 H1023 0.949 . S
C1028 C1034 1.368 . S
C1029 C1013 1.349 . S
C1029 H1021 0.950 . S
C1029 C1027 1.327 . S
C1030 C1018 1.349 . S
C1030 H1024 0.950 . S
C1030 C1031 1.327 . S
C1031 H1025 0.950 . S
C1031 C1030 1.327 . S
C1031 C1035 1.429 . S
C1032 C1015 1.574 . S
C1032 H1026 0.949 . S
C1032 C1036 1.368 . S
C1033 C1014 1.429 . S
C1033 C1027 1.429 . S
C1033 C1034 1.523 . S
C1034 C1015 1.368 . S
C1034 C1028 1.368 . S
C1034 C1033 1.523 . S
C1035 C1019 1.429 . S
C1035 C1031 1.429 . S
C1035 C1036 1.523 . S
C1036 C1020 1.368 . S
C1036 C1032 1.368 . S
C1036 C1035 1.523 . S
H1037 C1012 0.950 . S
H1038 C1014 0.950 . S
H1039 C1015 0.949 . S
H1040 C1017 0.950 . S
H1041 C1019 0.950 . S
C1042 C1043 1.349 . S
C1042 C1044 1.327 . S
C1042 H1067 0.950 . S
C1043 C1042 1.349 . S
C1043 C1059 1.349 . S
C1044 C1042 1.327 . S
C1044 C1063 1.429 . S
C1044 H1068 0.950 . S
C1045 C1062 1.574 . S
C1045 C1064 1.368 . S
C1045 H1069 0.949 . S
H1046 C1050 0.949 . S
C1047 C1048 1.349 . S
C1047 C1049 1.327 . S
C1047 H1070 0.950 1_455 S
C1048 C1047 1.349 . S
C1048 C1060 1.349 . S
C1049 C1047 1.327 . S
C1049 C1065 1.429 . S
C1049 H1071 0.950 . S
C1050 H1046 0.949 . S
C1050 C1058 1.574 . S
C1050 C1066 1.368 . S
H1051 C1059 0.950 . S
H1052 C1057 0.950 . S
H1053 C1058 0.949 . S
H1054 C1060 0.950 . S
H1055 C1061 0.950 . S
H1056 C1062 0.949 . S
C1057 H1052 0.950 . S
C1057 C1059 1.327 . S
C1057 C1063 1.429 . S
C1058 C1050 1.574 . S
C1058 H1053 0.949 . S
C1058 C1064 1.368 . S
C1059 C1043 1.349 . S
C1059 H1051 0.950 . S
C1059 C1057 1.327 . S
C1060 C1048 1.349 . S
C1060 H1054 0.950 . S
C1060 C1061 1.327 . S
C1061 H1055 0.950 . S
C1061 C1060 1.327 . S
C1061 C1065 1.429 . S
C1062 C1045 1.574 . S
C1062 H1056 0.949 . S
C1062 C1066 1.368 . S
C1063 C1044 1.429 . S
C1063 C1057 1.429 . S
C1063 C1064 1.523 . S
C1064 C1045 1.368 . S
C1064 C1058 1.368 . S
C1064 C1063 1.523 . S
C1065 C1049 1.429 . S
C1065 C1061 1.429 . S
C1065 C1066 1.523 . S
C1066 C1050 1.368 . S
C1066 C1062 1.368 . S
C1066 C1065 1.523 . S
H1067 C1042 0.950 . S
H1068 C1044 0.950 . S
H1069 C1045 0.949 . S
H1070 C1047 0.950 1_655 S
H1071 C1049 0.950 . S
C1072 C1073 1.349 . S
C1072 C1074 1.327 . S
C1072 H1097 0.950 . S
C1073 C1072 1.349 . S
C1073 C1089 1.349 . S
C1074 C1072 1.327 . S
C1074 C1093 1.429 . S
C1074 H1098 0.950 . S
C1075 C1092 1.574 . S
C1075 C1094 1.368 . S
C1075 H1099 0.949 . S
H1076 C1080 0.949 . S
C1077 C1078 1.349 . S
C1077 C1079 1.327 . S
C1077 H1100 0.950 . S
C1078 C1077 1.349 . S
C1078 C1090 1.349 . S
C1079 C1077 1.327 . S
C1079 C1095 1.429 . S
C1079 H1101 0.950 . S
C1080 H1076 0.949 . S
C1080 C1088 1.574 . S
C1080 C1096 1.368 . S
H1081 C1089 0.950 . S
H1082 C1087 0.950 . S
H1083 C1088 0.949 . S
H1084 C1090 0.950 . S
H1085 C1091 0.950 . S
H1086 C1092 0.949 . S
C1087 H1082 0.950 . S
C1087 C1089 1.327 . S
C1087 C1093 1.429 . S
C1088 C1080 1.574 . S
C1088 H1083 0.949 . S
C1088 C1094 1.368 . S
C1089 C1073 1.349 . S
C1089 H1081 0.950 . S
C1089 C1087 1.327 . S
C1090 C1078 1.349 . S
C1090 H1084 0.950 . S
C1090 C1091 1.327 . S
C1091 H1085 0.950 . S
C1091 C1090 1.327 . S
C1091 C1095 1.429 . S
C1092 C1075 1.574 . S
C1092 H1086 0.949 . S
C1092 C1096 1.368 . S
C1093 C1074 1.429 . S
C1093 C1087 1.429 . S
C1093 C1094 1.523 . S
C1094 C1075 1.368 . S
C1094 C1088 1.368 . S
C1094 C1093 1.523 . S
C1095 C1079 1.429 . S
C1095 C1091 1.429 . S
C1095 C1096 1.523 . S
C1096 C1080 1.368 . S
C1096 C1092 1.368 . S
C1096 C1095 1.523 . S
H1097 C1072 0.950 . S
H1098 C1074 0.950 . S
H1099 C1075 0.949 . S
H1100 C1077 0.950 . S
H1101 C1079 0.950 . S
C1102 C1103 1.349 . S
C1102 C1104 1.327 . S
C1102 H1127 0.950 . S
C1103 C1102 1.349 . S
C1103 C1119 1.349 . S
C1104 C1102 1.327 . S
C1104 C1123 1.429 . S
C1104 H1128 0.950 . S
C1105 C1122 1.574 . S
C1105 C1124 1.368 . S
C1105 H1129 0.949 . S
H1106 C1110 0.949 . S
C1107 C1108 1.349 . S
C1107 C1109 1.327 . S
C1107 H1130 0.950 . S
C1108 C1107 1.349 . S
C1108 C1120 1.349 . S
C1109 C1107 1.327 . S
C1109 C1125 1.429 . S
C1109 H1131 0.950 . S
C1110 H1106 0.949 . S
C1110 C1118 1.574 . S
C1110 C1126 1.368 . S
H1111 C1119 0.950 . S
H1112 C1117 0.950 . S
H1113 C1118 0.949 . S
H1114 C1120 0.950 . S
H1115 C1121 0.950 . S
H1116 C1122 0.949 . S
C1117 H1112 0.950 . S
C1117 C1119 1.327 . S
C1117 C1123 1.429 . S
C1118 C1110 1.574 . S
C1118 H1113 0.949 . S
C1118 C1124 1.368 . S
C1119 C1103 1.349 . S
C1119 H1111 0.950 . S
C1119 C1117 1.327 . S
C1120 C1108 1.349 . S
C1120 H1114 0.950 . S
C1120 C1121 1.327 . S
C1121 H1115 0.950 . S
C1121 C1120 1.327 . S
C1121 C1125 1.429 . S
C1122 C1105 1.574 . S
C1122 H1116 0.949 . S
C1122 C1126 1.368 . S
C1123 C1104 1.429 . S
C1123 C1117 1.429 . S
C1123 C1124 1.523 . S
C1124 C1105 1.368 . S
C1124 C1118 1.368 . S
C1124 C1123 1.523 . S
C1125 C1109 1.429 . S
C1125 C1121 1.429 . S
C1125 C1126 1.523 . S
C1126 C1110 1.368 . S
C1126 C1122 1.368 . S
C1126 C1125 1.523 . S
H1127 C1102 0.950 . S
H1128 C1104 0.950 . S
H1129 C1105 0.949 . S
H1130 C1107 0.950 . S
H1131 C1109 0.950 . S
C1132 C1133 1.349 . S
C1132 C1134 1.327 . S
C1132 H1157 0.950 . S
C1133 C1132 1.349 . S
C1133 C1149 1.349 . S
C1134 C1132 1.327 . S
C1134 C1153 1.429 . S
C1134 H1158 0.950 . S
C1135 C1152 1.574 . S
C1135 C1154 1.368 . S
C1135 H1159 0.949 . S
H1136 C1140 0.949 . S
C1137 C1138 1.349 . S
C1137 C1139 1.327 . S
C1137 H1160 0.950 . S
C1138 C1137 1.349 . S
C1138 C1150 1.349 . S
C1139 C1137 1.327 . S
C1139 C1155 1.429 . S
C1139 H1161 0.950 . S
C1140 H1136 0.949 . S
C1140 C1148 1.574 . S
C1140 C1156 1.368 . S
H1141 C1149 0.950 . S
H1142 C1147 0.950 . S
H1143 C1148 0.949 . S
H1144 C1150 0.950 . S
H1145 C1151 0.950 . S
H1146 C1152 0.949 . S
C1147 H1142 0.950 . S
C1147 C1149 1.327 . S
C1147 C1153 1.429 . S
C1148 C1140 1.574 . S
C1148 H1143 0.949 . S
C1148 C1154 1.368 . S
C1149 C1133 1.349 . S
C1149 H1141 0.950 . S
C1149 C1147 1.327 . S
C1150 C1138 1.349 . S
C1150 H1144 0.950 . S
C1150 C1151 1.327 . S
C1151 H1145 0.950 . S
C1151 C1150 1.327 . S
C1151 C1155 1.429 . S
C1152 C1135 1.574 . S
C1152 H1146 0.949 . S
C1152 C1156 1.368 . S
C1153 C1134 1.429 . S
C1153 C1147 1.429 . S
C1153 C1154 1.523 . S
C1154 C1135 1.368 . S
C1154 C1148 1.368 . S
C1154 C1153 1.523 . S
C1155 C1139 1.429 . S
C1155 C1151 1.429 . S
C1155 C1156 1.523 . S
C1156 C1140 1.368 . S
C1156 C1152 1.368 . S
C1156 C1155 1.523 . S
H1157 C1132 0.950 . S
H1158 C1134 0.950 . S
H1159 C1135 0.949 . S
H1160 C1137 0.950 . S
H1161 C1139 0.950 . S
C1162 C1163 1.349 . S
C1162 C1164 1.327 . S
C1162 H1187 0.950 . S
C1163 C1162 1.349 . S
C1163 C1179 1.349 . S
C1164 C1162 1.327 . S
C1164 C1183 1.429 . S
C1164 H1188 0.950 . S
C1165 C1182 1.574 . S
C1165 C1184 1.368 . S
C1165 H1189 0.949 . S
H1166 C1170 0.949 . S
C1167 C1168 1.349 . S
C1167 C1169 1.327 . S
C1167 H1190 0.950 . S
C1168 C1167 1.349 . S
C1168 C1180 1.349 . S
C1169 C1167 1.327 . S
C1169 C1185 1.429 . S
C1169 H1191 0.950 . S
C1170 H1166 0.949 . S
C1170 C1178 1.574 . S
C1170 C1186 1.368 . S
H1171 C1179 0.950 . S
H1172 C1177 0.950 . S
H1173 C1178 0.949 . S
H1174 C1180 0.950 . S
H1175 C1181 0.950 . S
H1176 C1182 0.949 . S
C1177 H1172 0.950 . S
C1177 C1179 1.327 . S
C1177 C1183 1.429 . S
C1178 C1170 1.574 . S
C1178 H1173 0.949 . S
C1178 C1184 1.368 . S
C1179 C1163 1.349 . S
C1179 H1171 0.950 . S
C1179 C1177 1.327 . S
C1180 C1168 1.349 . S
C1180 H1174 0.950 . S
C1180 C1181 1.327 . S
C1181 H1175 0.950 . S
C1181 C1180 1.327 . S
C1181 C1185 1.429 . S
C1182 C1165 1.574 . S
C1182 H1176 0.949 . S
C1182 C1186 1.368 . S
C1183 C1164 1.429 . S
C1183 C1177 1.429 . S
C1183 C1184 1.523 . S
C1184 C1165 1.368 . S
C1184 C1178 1.368 . S
C1184 C1183 1.523 . S
C1185 C1169 1.429 . S
C1185 C1181 1.429 . S
C1185 C1186 1.523 . S
C1186 C1170 1.368 . S
C1186 C1182 1.368 . S
C1186 C1185 1.523 . S
H1187 C1162 0.950 . S
H1188 C1164 0.950 . S
H1189 C1165 0.949 . S
H1190 C1167 0.950 . S
H1191 C1169 0.950 . S
C1192 C1193 1.349 . S
C1192 C1194 1.327 . S
C1192 H1217 0.950 . S
C1193 C1192 1.349 . S
C1193 C1209 1.349 . S
C1194 C1192 1.327 . S
C1194 C1213 1.429 . S
C1194 H1218 0.950 . S
C1195 C1212 1.574 . S
C1195 C1214 1.368 . S
C1195 H1219 0.949 . S
H1196 C1200 0.949 . S
C1197 C1198 1.349 . S
C1197 C1199 1.327 . S
C1197 H1220 0.950 . S
C1198 C1197 1.349 . S
C1198 C1210 1.349 . S
C1199 C1197 1.327 . S
C1199 C1215 1.429 . S
C1199 H1221 0.950 . S
C1200 H1196 0.949 . S
C1200 C1208 1.574 . S
C1200 C1216 1.368 . S
H1201 C1209 0.950 . S
H1202 C1207 0.950 . S
H1203 C1208 0.949 . S
H1204 C1210 0.950 . S
H1205 C1211 0.950 . S
H1206 C1212 0.949 . S
C1207 H1202 0.950 . S
C1207 C1209 1.327 . S
C1207 C1213 1.429 . S
C1208 C1200 1.574 . S
C1208 H1203 0.949 . S
C1208 C1214 1.368 . S
C1209 C1193 1.349 . S
C1209 H1201 0.950 . S
C1209 C1207 1.327 . S
C1210 C1198 1.349 . S
C1210 H1204 0.950 . S
C1210 C1211 1.327 . S
C1211 H1205 0.950 . S
C1211 C1210 1.327 . S
C1211 C1215 1.429 . S
C1212 C1195 1.574 . S
C1212 H1206 0.949 . S
C1212 C1216 1.368 . S
C1213 C1194 1.429 . S
C1213 C1207 1.429 . S
C1213 C1214 1.523 . S
C1214 C1195 1.368 . S
C1214 C1208 1.368 . S
C1214 C1213 1.523 . S
C1215 C1199 1.429 . S
C1215 C1211 1.429 . S
C1215 C1216 1.523 . S
C1216 C1200 1.368 . S
C1216 C1212 1.368 . S
C1216 C1215 1.523 . S
H1217 C1192 0.950 . S
H1218 C1194 0.950 . S
H1219 C1195 0.949 . S
H1220 C1197 0.950 . S
H1221 C1199 0.950 . S
C1222 C1223 1.349 . S
C1222 C1224 1.327 . S
C1222 H1247 0.950 . S
C1223 C1222 1.349 . S
C1223 C1239 1.349 . S
C1224 C1222 1.327 . S
C1224 C1243 1.429 . S
C1224 H1248 0.950 . S
C1225 C1242 1.574 . S
C1225 C1244 1.368 . S
C1225 H1249 0.949 . S
H1226 C1230 0.949 . S
C1227 C1228 1.349 . S
C1227 C1229 1.327 . S
C1227 H1250 0.950 . S
C1228 C1227 1.349 . S
C1228 C1240 1.349 . S
C1229 C1227 1.327 . S
C1229 C1245 1.429 . S
C1229 H1251 0.950 . S
C1230 H1226 0.949 . S
C1230 C1238 1.574 . S
C1230 C1246 1.368 . S
H1231 C1239 0.950 . S
H1232 C1237 0.950 . S
H1233 C1238 0.949 . S
H1234 C1240 0.950 . S
H1235 C1241 0.950 . S
H1236 C1242 0.949 . S
C1237 H1232 0.950 . S
C1237 C1239 1.327 . S
C1237 C1243 1.429 . S
C1238 C1230 1.574 . S
C1238 H1233 0.949 . S
C1238 C1244 1.368 . S
C1239 C1223 1.349 . S
C1239 H1231 0.950 . S
C1239 C1237 1.327 . S
C1240 C1228 1.349 . S
C1240 H1234 0.950 . S
C1240 C1241 1.327 . S
C1241 H1235 0.950 . S
C1241 C1240 1.327 . S
C1241 C1245 1.429 . S
C1242 C1225 1.574 . S
C1242 H1236 0.949 . S
C1242 C1246 1.368 . S
C1243 C1224 1.429 . S
C1243 C1237 1.429 . S
C1243 C1244 1.523 . S
C1244 C1225 1.368 . S
C1244 C1238 1.368 . S
C1244 C1243 1.523 . S
C1245 C1229 1.429 . S
C1245 C1241 1.429 . S
C1245 C1246 1.523 . S
C1246 C1230 1.368 . S
C1246 C1242 1.368 . S
C1246 C1245 1.523 . S
H1247 C1222 0.950 . S
H1248 C1224 0.950 . S
H1249 C1225 0.949 . S
H1250 C1227 0.950 . S
H1251 C1229 0.950 . S
C1252 C1253 1.349 . S
C1252 C1254 1.327 . S
C1252 H1277 0.950 . S
C1253 C1252 1.349 . S
C1253 C1269 1.349 . S
C1254 C1252 1.327 . S
C1254 C1273 1.429 . S
C1254 H1278 0.950 . S
C1255 C1272 1.574 . S
C1255 C1274 1.368 . S
C1255 H1279 0.949 . S
H1256 C1260 0.949 . S
C1257 C1258 1.349 . S
C1257 C1259 1.327 . S
C1257 H1280 0.950 . S
C1258 C1257 1.349 . S
C1258 C1270 1.349 . S
C1259 C1257 1.327 . S
C1259 C1275 1.429 . S
C1259 H1281 0.950 . S
C1260 H1256 0.949 . S
C1260 C1268 1.574 . S
C1260 C1276 1.368 . S
H1261 C1269 0.950 . S
H1262 C1267 0.950 . S
H1263 C1268 0.949 . S
H1264 C1270 0.950 . S
H1265 C1271 0.950 . S
H1266 C1272 0.949 . S
C1267 H1262 0.950 . S
C1267 C1269 1.327 . S
C1267 C1273 1.429 . S
C1268 C1260 1.574 . S
C1268 H1263 0.949 . S
C1268 C1274 1.368 . S
C1269 C1253 1.349 . S
C1269 H1261 0.950 . S
C1269 C1267 1.327 . S
C1270 C1258 1.349 . S
C1270 H1264 0.950 . S
C1270 C1271 1.327 . S
C1271 H1265 0.950 . S
C1271 C1270 1.327 . S
C1271 C1275 1.429 . S
C1272 C1255 1.574 . S
C1272 H1266 0.949 . S
C1272 C1276 1.368 . S
C1273 C1254 1.429 . S
C1273 C1267 1.429 . S
C1273 C1274 1.523 . S
C1274 C1255 1.368 . S
C1274 C1268 1.368 . S
C1274 C1273 1.523 . S
C1275 C1259 1.429 . S
C1275 C1271 1.429 . S
C1275 C1276 1.523 . S
C1276 C1260 1.368 . S
C1276 C1272 1.368 . S
C1276 C1275 1.523 . S
H1277 C1252 0.950 . S
H1278 C1254 0.950 . S
H1279 C1255 0.949 . S
H1280 C1257 0.950 . S
H1281 C1259 0.950 . S
C1282 C1283 1.349 . S
C1282 C1284 1.327 . S
C1282 H1307 0.950 . S
C1283 C1282 1.349 . S
C1283 C1299 1.349 . S
C1284 C1282 1.327 . S
C1284 C1303 1.429 . S
C1284 H1308 0.950 . S
C1285 C1302 1.574 . S
C1285 C1304 1.368 . S
C1285 H1309 0.949 . S
H1286 C1290 0.949 . S
C1287 C1288 1.349 . S
C1287 C1289 1.327 . S
C1287 H1310 0.950 . S
C1288 C1287 1.349 . S
C1288 C1300 1.349 . S
C1289 C1287 1.327 . S
C1289 C1305 1.429 . S
C1289 H1311 0.950 . S
C1290 H1286 0.949 . S
C1290 C1298 1.574 . S
C1290 C1306 1.368 . S
H1291 C1299 0.950 . S
H1292 C1297 0.950 . S
H1293 C1298 0.949 . S
H1294 C1300 0.950 . S
H1295 C1301 0.950 . S
H1296 C1302 0.949 . S
C1297 H1292 0.950 . S
C1297 C1299 1.327 . S
C1297 C1303 1.429 . S
C1298 C1290 1.574 . S
C1298 H1293 0.949 . S
C1298 C1304 1.368 . S
C1299 C1283 1.349 . S
C1299 H1291 0.950 . S
C1299 C1297 1.327 . S
C1300 C1288 1.349 . S
C1300 H1294 0.950 . S
C1300 C1301 1.327 . S
C1301 H1295 0.950 . S
C1301 C1300 1.327 . S
C1301 C1305 1.429 . S
C1302 C1285 1.574 . S
C1302 H1296 0.949 . S
C1302 C1306 1.368 . S
C1303 C1284 1.429 . S
C1303 C1297 1.429 . S
C1303 C1304 1.523 . S
C1304 C1285 1.368 . S
C1304 C1298 1.368 . S
C1304 C1303 1.523 . S
C1305 C1289 1.429 . S
C1305 C1301 1.429 . S
C1305 C1306 1.523 . S
C1306 C1290 1.368 . S
C1306 C1302 1.368 . S
C1306 C1305 1.523 . S
H1307 C1282 0.950 . S
H1308 C1284 0.950 . S
H1309 C1285 0.949 . S
H1310 C1287 0.950 . S
H1311 C1289 0.950 . S
C1312 C1313 1.349 . S
C1312 C1314 1.327 . S
C1312 H1337 0.950 . S
C1313 C1312 1.349 . S
C1313 C1329 1.349 . S
C1314 C1312 1.327 . S
C1314 C1333 1.429 . S
C1314 H1338 0.950 . S
C1315 C1332 1.574 . S
C1315 C1334 1.368 . S
C1315 H1339 0.949 . S
H1316 C1320 0.949 . S
C1317 C1318 1.349 . S
C1317 C1319 1.327 . S
C1317 H1340 0.950 . S
C1318 C1317 1.349 . S
C1318 C1330 1.349 . S
C1319 C1317 1.327 . S
C1319 C1335 1.429 . S
C1319 H1341 0.950 . S
C1320 H1316 0.949 . S
C1320 C1328 1.574 . S
C1320 C1336 1.368 . S
H1321 C1329 0.950 . S
H1322 C1327 0.950 . S
H1323 C1328 0.949 . S
H1324 C1330 0.950 . S
H1325 C1331 0.950 . S
H1326 C1332 0.949 . S
C1327 H1322 0.950 . S
C1327 C1329 1.327 . S
C1327 C1333 1.429 . S
C1328 C1320 1.574 . S
C1328 H1323 0.949 . S
C1328 C1334 1.368 . S
C1329 C1313 1.349 . S
C1329 H1321 0.950 . S
C1329 C1327 1.327 . S
C1330 C1318 1.349 . S
C1330 H1324 0.950 . S
C1330 C1331 1.327 . S
C1331 H1325 0.950 . S
C1331 C1330 1.327 . S
C1331 C1335 1.429 . S
C1332 C1315 1.574 . S
C1332 H1326 0.949 . S
C1332 C1336 1.368 . S
C1333 C1314 1.429 . S
C1333 C1327 1.429 . S
C1333 C1334 1.523 . S
C1334 C1315 1.368 . S
C1334 C1328 1.368 . S
C1334 C1333 1.523 . S
C1335 C1319 1.429 . S
C1335 C1331 1.429 . S
C1335 C1336 1.523 . S
C1336 C1320 1.368 . S
C1336 C1332 1.368 . S
C1336 C1335 1.523 . S
H1337 C1312 0.950 . S
H1338 C1314 0.950 . S
H1339 C1315 0.949 . S
H1340 C1317 0.950 . S
H1341 C1319 0.950 . S
C1342 C1343 1.349 . S
C1342 C1344 1.327 . S
C1342 H1367 0.950 . S
C1343 C1342 1.349 . S
C1343 C1359 1.349 . S
C1344 C1342 1.327 . S
C1344 C1363 1.429 . S
C1344 H1368 0.950 . S
C1345 C1362 1.574 . S
C1345 C1364 1.368 . S
C1345 H1369 0.949 . S
H1346 C1350 0.949 . S
C1347 C1348 1.349 . S
C1347 C1349 1.327 . S
C1347 H1370 0.950 . S
C1348 C1347 1.349 . S
C1348 C1360 1.349 . S
C1349 C1347 1.327 . S
C1349 C1365 1.429 . S
C1349 H1371 0.950 . S
C1350 H1346 0.949 . S
C1350 C1358 1.574 . S
C1350 C1366 1.368 . S
H1351 C1359 0.950 . S
H1352 C1357 0.950 . S
H1353 C1358 0.949 . S
H1354 C1360 0.950 . S
H1355 C1361 0.950 . S
H1356 C1362 0.949 . S
C1357 H1352 0.950 . S
C1357 C1359 1.327 . S
C1357 C1363 1.429 . S
C1358 C1350 1.574 . S
C1358 H1353 0.949 . S
C1358 C1364 1.368 . S
C1359 C1343 1.349 . S
C1359 H1351 0.950 . S
C1359 C1357 1.327 . S
C1360 C1348 1.349 . S
C1360 H1354 0.950 . S
C1360 C1361 1.327 . S
C1361 H1355 0.950 . S
C1361 C1360 1.327 . S
C1361 C1365 1.429 . S
C1362 C1345 1.574 . S
C1362 H1356 0.949 . S
C1362 C1366 1.368 . S
C1363 C1344 1.429 . S
C1363 C1357 1.429 . S
C1363 C1364 1.523 . S
C1364 C1345 1.368 . S
C1364 C1358 1.368 . S
C1364 C1363 1.523 . S
C1365 C1349 1.429 . S
C1365 C1361 1.429 . S
C1365 C1366 1.523 . S
C1366 C1350 1.368 . S
C1366 C1362 1.368 . S
C1366 C1365 1.523 . S
H1367 C1342 0.950 . S
H1368 C1344 0.950 . S
H1369 C1345 0.949 . S
H1370 C1347 0.950 . S
H1371 C1349 0.950 . S
C1372 C1373 1.349 . S
C1372 C1374 1.327 . S
C1372 H1397 0.950 . S
C1373 C1372 1.349 . S
C1373 C1389 1.349 . S
C1374 C1372 1.327 . S
C1374 C1393 1.429 . S
C1374 H1398 0.950 . S
C1375 C1392 1.574 . S
C1375 C1394 1.368 . S
C1375 H1399 0.949 . S
H1376 C1380 0.949 . S
C1377 C1378 1.349 . S
C1377 C1379 1.327 . S
C1377 H1400 0.950 . S
C1378 C1377 1.349 . S
C1378 C1390 1.349 . S
C1379 C1377 1.327 . S
C1379 C1395 1.429 . S
C1379 H1401 0.950 . S
C1380 H1376 0.949 . S
C1380 C1388 1.574 . S
C1380 C1396 1.368 . S
H1381 C1389 0.950 . S
H1382 C1387 0.950 . S
H1383 C1388 0.949 . S
H1384 C1390 0.950 . S
H1385 C1391 0.950 . S
H1386 C1392 0.949 . S
C1387 H1382 0.950 . S
C1387 C1389 1.327 . S
C1387 C1393 1.429 . S
C1388 C1380 1.574 . S
C1388 H1383 0.949 . S
C1388 C1394 1.368 . S
C1389 C1373 1.349 . S
C1389 H1381 0.950 . S
C1389 C1387 1.327 . S
C1390 C1378 1.349 . S
C1390 H1384 0.950 . S
C1390 C1391 1.327 . S
C1391 H1385 0.950 . S
C1391 C1390 1.327 . S
C1391 C1395 1.429 . S
C1392 C1375 1.574 . S
C1392 H1386 0.949 . S
C1392 C1396 1.368 . S
C1393 C1374 1.429 . S
C1393 C1387 1.429 . S
C1393 C1394 1.523 . S
C1394 C1375 1.368 . S
C1394 C1388 1.368 . S
C1394 C1393 1.523 . S
C1395 C1379 1.429 . S
C1395 C1391 1.429 . S
C1395 C1396 1.523 . S
C1396 C1380 1.368 . S
C1396 C1392 1.368 . S
C1396 C1395 1.523 . S
H1397 C1372 0.950 . S
H1398 C1374 0.950 . S
H1399 C1375 0.949 . S
H1400 C1377 0.950 . S
H1401 C1379 0.950 . S
C1402 C1403 1.349 . S
C1402 C1404 1.327 . S
C1402 H1427 0.950 . S
C1403 C1402 1.349 . S
C1403 C1419 1.349 . S
C1404 C1402 1.327 . S
C1404 C1423 1.429 . S
C1404 H1428 0.950 . S
C1405 C1422 1.574 . S
C1405 C1424 1.368 . S
C1405 H1429 0.949 . S
H1406 C1410 0.949 . S
C1407 C1408 1.349 . S
C1407 C1409 1.327 . S
C1407 H1430 0.950 . S
C1408 C1407 1.349 . S
C1408 C1420 1.349 . S
C1409 C1407 1.327 . S
C1409 C1425 1.429 . S
C1409 H1431 0.950 . S
C1410 H1406 0.949 . S
C1410 C1418 1.574 . S
C1410 C1426 1.368 . S
H1411 C1419 0.950 . S
H1412 C1417 0.950 . S
H1413 C1418 0.949 . S
H1414 C1420 0.950 . S
H1415 C1421 0.950 . S
H1416 C1422 0.949 . S
C1417 H1412 0.950 . S
C1417 C1419 1.327 . S
C1417 C1423 1.429 . S
C1418 C1410 1.574 . S
C1418 H1413 0.949 . S
C1418 C1424 1.368 . S
C1419 C1403 1.349 . S
C1419 H1411 0.950 . S
C1419 C1417 1.327 . S
C1420 C1408 1.349 . S
C1420 H1414 0.950 . S
C1420 C1421 1.327 . S
C1421 H1415 0.950 . S
C1421 C1420 1.327 . S
C1421 C1425 1.429 . S
C1422 C1405 1.574 . S
C1422 H1416 0.949 . S
C1422 C1426 1.368 . S
C1423 C1404 1.429 . S
C1423 C1417 1.429 . S
C1423 C1424 1.523 . S
C1424 C1405 1.368 . S
C1424 C1418 1.368 . S
C1424 C1423 1.523 . S
C1425 C1409 1.429 . S
C1425 C1421 1.429 . S
C1425 C1426 1.523 . S
C1426 C1410 1.368 . S
C1426 C1422 1.368 . S
C1426 C1425 1.523 . S
H1427 C1402 0.950 . S
H1428 C1404 0.950 . S
H1429 C1405 0.949 . S
H1430 C1407 0.950 . S
H1431 C1409 0.950 . S
C1432 C1433 1.349 . S
C1432 C1434 1.327 . S
C1432 H1457 0.950 . S
C1433 C1432 1.349 . S
C1433 C1449 1.349 . S
C1434 C1432 1.327 . S
C1434 C1453 1.429 . S
C1434 H1458 0.950 . S
C1435 C1452 1.574 1_556 S
C1435 C1454 1.368 . S
C1435 H1459 0.949 . S
H1436 C1440 0.949 . S
C1437 C1438 1.349 . S
C1437 C1439 1.327 . S
C1437 H1460 0.950 . S
C1438 C1437 1.349 . S
C1438 C1450 1.349 . S
C1439 C1437 1.327 . S
C1439 C1455 1.429 . S
C1439 H1461 0.950 . S
C1440 H1436 0.949 . S
C1440 C1448 1.574 . S
C1440 C1456 1.368 1_556 S
H1441 C1449 0.950 . S
H1442 C1447 0.950 . S
H1443 C1448 0.949 . S
H1444 C1450 0.950 . S
H1445 C1451 0.950 . S
H1446 C1452 0.949 . S
C1447 H1442 0.950 . S
C1447 C1449 1.327 . S
C1447 C1453 1.429 . S
C1448 C1440 1.574 . S
C1448 H1443 0.949 . S
C1448 C1454 1.368 . S
C1449 C1433 1.349 . S
C1449 H1441 0.950 . S
C1449 C1447 1.327 . S
C1450 C1438 1.349 . S
C1450 H1444 0.950 . S
C1450 C1451 1.327 . S
C1451 H1445 0.950 . S
C1451 C1450 1.327 . S
C1451 C1455 1.429 . S
C1452 C1435 1.574 1_554 S
C1452 H1446 0.949 . S
C1452 C1456 1.368 . S
C1453 C1434 1.429 . S
C1453 C1447 1.429 . S
C1453 C1454 1.523 . S
C1454 C1435 1.368 . S
C1454 C1448 1.368 . S
C1454 C1453 1.523 . S
C1455 C1439 1.429 . S
C1455 C1451 1.429 . S
C1455 C1456 1.523 . S
C1456 C1440 1.368 1_554 S
C1456 C1452 1.368 . S
C1456 C1455 1.523 . S
H1457 C1432 0.950 . S
H1458 C1434 0.950 . S
H1459 C1435 0.949 . S
H1460 C1437 0.950 . S
H1461 C1439 0.950 . S
C1462 C1463 1.349 . S
C1462 C1464 1.327 . S
C1462 H1487 0.950 . S
C1463 C1462 1.349 . S
C1463 C1479 1.349 . S
C1464 C1462 1.327 . S
C1464 C1483 1.429 . S
C1464 H1488 0.950 . S
C1465 C1482 1.574 1_554 S
C1465 C1484 1.368 . S
C1465 H1489 0.949 . S
H1466 C1470 0.949 . S
C1467 C1468 1.349 . S
C1467 C1469 1.327 . S
C1467 H1490 0.950 . S
C1468 C1467 1.349 . S
C1468 C1480 1.349 . S
C1469 C1467 1.327 . S
C1469 C1485 1.429 . S
C1469 H1491 0.950 . S
C1470 H1466 0.949 . S
C1470 C1478 1.539 1_556 S
C1470 C1486 1.368 . S
H1471 C1479 0.950 . S
H1472 C1477 0.950 . S
H1473 C1478 0.960 . S
H1474 C1480 0.950 . S
H1475 C1481 0.950 . S
H1476 C1482 0.949 . S
C1477 H1472 0.950 . S
C1477 C1479 1.327 . S
C1477 C1483 1.429 . S
C1478 C1470 1.539 1_554 S
C1478 H1473 0.960 . S
C1478 C1484 1.392 . S
C1479 C1463 1.349 . S
C1479 H1471 0.950 . S
C1479 C1477 1.327 . S
C1480 C1468 1.349 . S
C1480 H1474 0.950 . S
C1480 C1481 1.327 . S
C1481 H1475 0.950 . S
C1481 C1480 1.327 . S
C1481 C1485 1.429 . S
C1482 C1465 1.574 1_556 S
C1482 H1476 0.949 . S
C1482 C1486 1.368 . S
C1483 C1464 1.429 . S
C1483 C1477 1.429 . S
C1483 C1484 1.523 . S
C1484 C1465 1.368 . S
C1484 C1478 1.392 . S
C1484 C1483 1.523 . S
C1485 C1469 1.429 . S
C1485 C1481 1.429 . S
C1485 C1486 1.523 . S
C1486 C1470 1.368 . S
C1486 C1482 1.368 . S
C1486 C1485 1.523 . S
H1487 C1462 0.950 . S
H1488 C1464 0.950 . S
H1489 C1465 0.949 . S
H1490 C1467 0.950 . S
H1491 C1469 0.950 . S
C1492 C1493 1.349 . S
C1492 C1494 1.327 . S
C1492 H1517 0.950 . S
C1493 C1492 1.349 . S
C1493 C1509 1.349 . S
C1494 C1492 1.327 . S
C1494 C1513 1.429 . S
C1494 H1518 0.950 . S
C1495 C1512 1.574 . S
C1495 C1514 1.368 . S
C1495 H1519 0.949 . S
H1496 C1500 0.949 . S
C1497 C1498 1.349 . S
C1497 C1499 1.327 . S
C1497 H1520 0.950 . S
C1498 C1497 1.349 . S
C1498 C1510 1.349 . S
C1499 C1497 1.327 . S
C1499 C1515 1.429 . S
C1499 H1521 0.950 . S
C1500 H1496 0.949 . S
C1500 C1508 1.574 1_554 S
C1500 C1516 1.368 . S
H1501 C1509 0.950 . S
H1502 C1507 0.950 . S
H1503 C1508 0.949 . S
H1504 C1510 0.950 . S
H1505 C1511 0.950 . S
H1506 C1512 0.949 . S
C1507 H1502 0.950 . S
C1507 C1509 1.327 . S
C1507 C1513 1.429 . S
C1508 C1500 1.574 1_556 S
C1508 H1503 0.949 . S
C1508 C1514 1.368 . S
C1509 C1493 1.349 . S
C1509 H1501 0.950 . S
C1509 C1507 1.327 . S
C1510 C1498 1.349 . S
C1510 H1504 0.950 . S
C1510 C1511 1.327 . S
C1511 H1505 0.950 . S
C1511 C1510 1.327 . S
C1511 C1515 1.429 . S
C1512 C1495 1.574 . S
C1512 H1506 0.949 . S
C1512 C1516 1.368 1_556 S
C1513 C1494 1.429 . S
C1513 C1507 1.429 . S
C1513 C1514 1.523 . S
C1514 C1495 1.368 . S
C1514 C1508 1.368 . S
C1514 C1513 1.523 . S
C1515 C1499 1.429 . S
C1515 C1511 1.429 . S
C1515 C1516 1.523 . S
C1516 C1500 1.368 . S
C1516 C1512 1.368 1_554 S
C1516 C1515 1.523 . S
H1517 C1492 0.950 . S
H1518 C1494 0.950 . S
H1519 C1495 0.949 . S
H1520 C1497 0.950 . S
H1521 C1499 0.950 . S
C1522 C1523 1.349 . S
C1522 C1524 1.327 . S
C1522 H1547 0.950 . S
C1523 C1522 1.349 . S
C1523 C1539 1.349 . S
C1524 C1522 1.327 . S
C1524 C1543 1.429 . S
C1524 H1548 0.950 . S
C1525 C1542 1.574 1_554 S
C1525 C1544 1.368 . S
C1525 H1549 0.949 . S
H1526 C1530 0.949 . S
C1527 C1528 1.349 . S
C1527 C1529 1.327 . S
C1527 H1550 0.950 . S
C1528 C1527 1.349 . S
C1528 C1540 1.349 . S
C1529 C1527 1.327 . S
C1529 C1545 1.429 . S
C1529 H1551 0.950 . S
C1530 H1526 0.949 . S
C1530 C1538 1.574 . S
C1530 C1546 1.368 . S
H1531 C1539 0.950 . S
H1532 C1537 0.950 . S
H1533 C1538 0.949 . S
H1534 C1540 0.950 . S
H1535 C1541 0.950 . S
H1536 C1542 0.949 . S
C1537 H1532 0.950 . S
C1537 C1539 1.327 . S
C1537 C1543 1.429 . S
C1538 C1530 1.574 . S
C1538 H1533 0.949 . S
C1538 C1544 1.368 1_556 S
C1539 C1523 1.349 . S
C1539 H1531 0.950 . S
C1539 C1537 1.327 . S
C1540 C1528 1.349 . S
C1540 H1534 0.950 . S
C1540 C1541 1.327 . S
C1541 H1535 0.950 . S
C1541 C1540 1.327 . S
C1541 C1545 1.429 . S
C1542 C1525 1.574 1_556 S
C1542 H1536 0.949 . S
C1542 C1546 1.368 . S
C1543 C1524 1.429 . S
C1543 C1537 1.429 . S
C1543 C1544 1.523 . S
C1544 C1525 1.368 . S
C1544 C1538 1.368 1_554 S
C1544 C1543 1.523 . S
C1545 C1529 1.429 . S
C1545 C1541 1.429 . S
C1545 C1546 1.523 . S
C1546 C1530 1.368 . S
C1546 C1542 1.368 . S
C1546 C1545 1.523 . S
H1547 C1522 0.950 . S
H1548 C1524 0.950 . S
H1549 C1525 0.949 . S
H1550 C1527 0.950 . S
H1551 C1529 0.950 . S
C1552 C1553 1.349 . S
C1552 C1554 1.327 . S
C1552 H1577 0.950 . S
C1553 C1552 1.349 . S
C1553 C1569 1.349 . S
C1554 C1552 1.327 . S
C1554 C1573 1.429 . S
C1554 H1578 0.950 . S
C1555 C1572 1.574 . S
C1555 C1574 1.368 . S
C1555 H1579 0.949 . S
H1556 C1560 0.949 . S
C1557 C1558 1.349 . S
C1557 C1559 1.327 . S
C1557 H1580 0.950 . S
C1558 C1557 1.349 . S
C1558 C1570 1.349 . S
C1559 C1557 1.327 . S
C1559 C1575 1.429 . S
C1559 H1581 0.950 . S
C1560 H1556 0.949 . S
C1560 C1568 1.574 . S
C1560 C1576 1.368 . S
H1561 C1569 0.950 . S
H1562 C1567 0.950 . S
H1563 C1568 0.949 . S
H1564 C1570 0.950 . S
H1565 C1571 0.950 . S
H1566 C1572 0.949 . S
C1567 H1562 0.950 . S
C1567 C1569 1.327 . S
C1567 C1573 1.429 . S
C1568 C1560 1.574 . S
C1568 H1563 0.949 . S
C1568 C1574 1.368 . S
C1569 C1553 1.349 . S
C1569 H1561 0.950 . S
C1569 C1567 1.327 . S
C1570 C1558 1.349 . S
C1570 H1564 0.950 . S
C1570 C1571 1.327 . S
C1571 H1565 0.950 . S
C1571 C1570 1.327 . S
C1571 C1575 1.429 . S
C1572 C1555 1.574 . S
C1572 H1566 0.949 . S
C1572 C1576 1.368 . S
C1573 C1554 1.429 . S
C1573 C1567 1.429 . S
C1573 C1574 1.523 . S
C1574 C1555 1.368 . S
C1574 C1568 1.368 . S
C1574 C1573 1.523 . S
C1575 C1559 1.429 . S
C1575 C1571 1.429 . S
C1575 C1576 1.523 . S
C1576 C1560 1.368 . S
C1576 C1572 1.368 . S
C1576 C1575 1.523 . S
H1577 C1552 0.950 . S
H1578 C1554 0.950 . S
H1579 C1555 0.949 . S
H1580 C1557 0.950 . S
H1581 C1559 0.950 . S
C1582 C1583 1.349 . S
C1582 C1584 1.327 . S
C1582 H1607 0.950 . S
C1583 C1582 1.349 . S
C1583 C1599 1.349 . S
C1584 C1582 1.327 . S
C1584 C1603 1.429 . S
C1584 H1608 0.950 . S
C1585 C1602 1.574 . S
C1585 C1604 1.368 . S
C1585 H1609 0.949 . S
H1586 C1590 0.949 . S
C1587 C1588 1.349 . S
C1587 C1589 1.327 . S
C1587 H1610 0.950 . S
C1588 C1587 1.349 . S
C1588 C1600 1.349 . S
C1589 C1587 1.327 . S
C1589 C1605 1.429 . S
C1589 H1611 0.950 . S
C1590 H1586 0.949 . S
C1590 C1598 1.574 . S
C1590 C1606 1.368 . S
H1591 C1599 0.950 . S
H1592 C1597 0.950 . S
H1593 C1598 0.949 . S
H1594 C1600 0.950 . S
H1595 C1601 0.950 . S
H1596 C1602 0.949 . S
C1597 H1592 0.950 . S
C1597 C1599 1.327 . S
C1597 C1603 1.429 . S
C1598 C1590 1.574 . S
C1598 H1593 0.949 . S
C1598 C1604 1.368 . S
C1599 C1583 1.349 . S
C1599 H1591 0.950 . S
C1599 C1597 1.327 . S
C1600 C1588 1.349 . S
C1600 H1594 0.950 . S
C1600 C1601 1.327 . S
C1601 H1595 0.950 . S
C1601 C1600 1.327 . S
C1601 C1605 1.429 . S
C1602 C1585 1.574 . S
C1602 H1596 0.949 . S
C1602 C1606 1.368 . S
C1603 C1584 1.429 . S
C1603 C1597 1.429 . S
C1603 C1604 1.523 . S
C1604 C1585 1.368 . S
C1604 C1598 1.368 . S
C1604 C1603 1.523 . S
C1605 C1589 1.429 . S
C1605 C1601 1.429 . S
C1605 C1606 1.523 . S
C1606 C1590 1.368 . S
C1606 C1602 1.368 . S
C1606 C1605 1.523 . S
H1607 C1582 0.950 . S
H1608 C1584 0.950 . S
H1609 C1585 0.949 . S
H1610 C1587 0.950 . S
H1611 C1589 0.950 . S
C1612 C1613 1.349 . S
C1612 C1614 1.327 . S
C1612 H1637 0.950 . S
C1613 C1612 1.349 . S
C1613 C1629 1.349 . S
C1614 C1612 1.327 . S
C1614 C1633 1.429 . S
C1614 H1638 0.950 . S
C1615 C1632 1.574 . S
C1615 C1634 1.368 . S
C1615 H1639 0.949 . S
H1616 C1620 0.949 . S
C1617 C1618 1.349 . S
C1617 C1619 1.327 . S
C1617 H1640 0.950 . S
C1618 C1617 1.349 . S
C1618 C1630 1.349 . S
C1619 C1617 1.327 . S
C1619 C1635 1.429 . S
C1619 H1641 0.950 . S
C1620 H1616 0.949 . S
C1620 C1628 1.574 . S
C1620 C1636 1.368 . S
H1621 C1629 0.950 . S
H1622 C1627 0.950 . S
H1623 C1628 0.949 . S
H1624 C1630 0.950 . S
H1625 C1631 0.950 . S
H1626 C1632 0.949 . S
C1627 H1622 0.950 . S
C1627 C1629 1.327 . S
C1627 C1633 1.429 . S
C1628 C1620 1.574 . S
C1628 H1623 0.949 . S
C1628 C1634 1.368 . S
C1629 C1613 1.349 . S
C1629 H1621 0.950 . S
C1629 C1627 1.327 . S
C1630 C1618 1.349 . S
C1630 H1624 0.950 . S
C1630 C1631 1.327 . S
C1631 H1625 0.950 . S
C1631 C1630 1.327 . S
C1631 C1635 1.429 . S
C1632 C1615 1.574 . S
C1632 H1626 0.949 . S
C1632 C1636 1.368 . S
C1633 C1614 1.429 . S
C1633 C1627 1.429 . S
C1633 C1634 1.523 . S
C1634 C1615 1.368 . S
C1634 C1628 1.368 . S
C1634 C1633 1.523 . S
C1635 C1619 1.429 . S
C1635 C1631 1.429 . S
C1635 C1636 1.523 . S
C1636 C1620 1.368 . S
C1636 C1632 1.368 . S
C1636 C1635 1.523 . S
H1637 C1612 0.950 . S
H1638 C1614 0.950 . S
H1639 C1615 0.949 . S
H1640 C1617 0.950 . S
H1641 C1619 0.950 . S
C1642 C1643 1.349 . S
C1642 C1644 1.327 . S
C1642 H1667 0.950 . S
C1643 C1642 1.349 . S
C1643 C1659 1.349 . S
C1644 C1642 1.327 . S
C1644 C1663 1.429 . S
C1644 H1668 0.950 . S
C1645 C1662 1.574 . S
C1645 C1664 1.368 . S
C1645 H1669 0.949 . S
H1646 C1650 0.949 . S
C1647 C1648 1.349 . S
C1647 C1649 1.327 . S
C1647 H1670 0.950 . S
C1648 C1647 1.349 . S
C1648 C1660 1.349 . S
C1649 C1647 1.327 . S
C1649 C1665 1.429 . S
C1649 H1671 0.950 . S
C1650 H1646 0.949 . S
C1650 C1658 1.574 . S
C1650 C1666 1.368 . S
H1651 C1659 0.950 . S
H1652 C1657 0.950 . S
H1653 C1658 0.949 . S
H1654 C1660 0.950 . S
H1655 C1661 0.950 . S
H1656 C1662 0.949 . S
C1657 H1652 0.950 . S
C1657 C1659 1.327 . S
C1657 C1663 1.429 . S
C1658 C1650 1.574 . S
C1658 H1653 0.949 . S
C1658 C1664 1.368 . S
C1659 C1643 1.349 . S
C1659 H1651 0.950 . S
C1659 C1657 1.327 . S
C1660 C1648 1.349 . S
C1660 H1654 0.950 . S
C1660 C1661 1.327 . S
C1661 H1655 0.950 . S
C1661 C1660 1.327 . S
C1661 C1665 1.429 . S
C1662 C1645 1.574 . S
C1662 H1656 0.949 . S
C1662 C1666 1.368 . S
C1663 C1644 1.429 . S
C1663 C1657 1.429 . S
C1663 C1664 1.523 . S
C1664 C1645 1.368 . S
C1664 C1658 1.368 . S
C1664 C1663 1.523 . S
C1665 C1649 1.429 . S
C1665 C1661 1.429 . S
C1665 C1666 1.523 . S
C1666 C1650 1.368 . S
C1666 C1662 1.368 . S
C1666 C1665 1.523 . S
H1667 C1642 0.950 . S
H1668 C1644 0.950 . S
H1669 C1645 0.949 . S
H1670 C1647 0.950 . S
H1671 C1649 0.950 . S
C1672 C1673 1.349 . S
C1672 C1674 1.327 . S
C1672 H1697 0.950 . S
C1673 C1672 1.349 . S
C1673 C1689 1.349 . S
C1674 C1672 1.327 . S
C1674 C1693 1.429 . S
C1674 H1698 0.950 . S
C1675 C1692 1.574 1_556 S
C1675 C1694 1.368 . S
C1675 H1699 0.949 . S
H1676 C1680 0.949 . S
C1677 C1678 1.349 . S
C1677 C1679 1.327 . S
C1677 H1700 0.950 . S
C1678 C1677 1.349 . S
C1678 C1690 1.349 . S
C1679 C1677 1.327 . S
C1679 C1695 1.429 . S
C1679 H1701 0.950 . S
C1680 H1676 0.949 . S
C1680 C1688 1.574 1_554 S
C1680 C1696 1.368 . S
H1681 C1689 0.950 . S
H1682 C1687 0.950 . S
H1683 C1688 0.949 . S
H1684 C1690 0.950 . S
H1685 C1691 0.950 . S
H1686 C1692 0.949 . S
C1687 H1682 0.950 . S
C1687 C1689 1.327 . S
C1687 C1693 1.429 . S
C1688 C1680 1.574 1_556 S
C1688 H1683 0.949 . S
C1688 C1694 1.368 . S
C1689 C1673 1.349 . S
C1689 H1681 0.950 . S
C1689 C1687 1.327 . S
C1690 C1678 1.349 . S
C1690 H1684 0.950 . S
C1690 C1691 1.327 . S
C1691 H1685 0.950 . S
C1691 C1690 1.327 . S
C1691 C1695 1.429 . S
C1692 C1675 1.574 1_554 S
C1692 H1686 0.949 . S
C1692 C1696 1.368 . S
C1693 C1674 1.429 . S
C1693 C1687 1.429 . S
C1693 C1694 1.523 . S
C1694 C1675 1.368 . S
C1694 C1688 1.368 . S
C1694 C1693 1.523 . S
C1695 C1679 1.429 . S
C1695 C1691 1.429 . S
C1695 C1696 1.523 . S
C1696 C1680 1.368 . S
C1696 C1692 1.368 . S
C1696 C1695 1.523 . S
H1697 C1672 0.950 . S
H1698 C1674 0.950 . S
H1699 C1675 0.949 . S
H1700 C1677 0.950 . S
H1701 C1679 0.950 . S
C1702 C1703 1.349 . S
C1702 C1704 1.327 . S
C1702 H1727 0.950 . S
C1703 C1702 1.349 . S
C1703 C1719 1.349 . S
C1704 C1702 1.327 . S
C1704 C1723 1.429 . S
C1704 H1728 0.950 . S
C1705 C1722 1.574 1_556 S
C1705 C1724 1.368 . S
C1705 H1729 0.949 . S
H1706 C1710 0.949 . S
C1707 C1708 1.349 . S
C1707 C1709 1.327 . S
C1707 H1730 0.950 . S
C1708 C1707 1.349 . S
C1708 C1720 1.349 . S
C1709 C1707 1.327 . S
C1709 C1725 1.429 . S
C1709 H1731 0.950 . S
C1710 H1706 0.949 . S
C1710 C1718 1.574 . S
C1710 C1726 1.368 . S
H1711 C1719 0.950 . S
H1712 C1717 0.950 . S
H1713 C1718 0.949 . S
H1714 C1720 0.950 . S
H1715 C1721 0.950 . S
H1716 C1722 0.949 . S
C1717 H1712 0.950 . S
C1717 C1719 1.327 . S
C1717 C1723 1.429 . S
C1718 C1710 1.574 . S
C1718 H1713 0.949 . S
C1718 C1724 1.368 1_554 S
C1719 C1703 1.349 . S
C1719 H1711 0.950 . S
C1719 C1717 1.327 . S
C1720 C1708 1.349 . S
C1720 H1714 0.950 . S
C1720 C1721 1.327 . S
C1721 H1715 0.950 . S
C1721 C1720 1.327 . S
C1721 C1725 1.429 . S
C1722 C1705 1.574 1_554 S
C1722 H1716 0.949 . S
C1722 C1726 1.368 . S
C1723 C1704 1.429 . S
C1723 C1717 1.429 . S
C1723 C1724 1.523 . S
C1724 C1705 1.368 . S
C1724 C1718 1.368 1_556 S
C1724 C1723 1.523 . S
C1725 C1709 1.429 . S
C1725 C1721 1.429 . S
C1725 C1726 1.523 . S
C1726 C1710 1.368 . S
C1726 C1722 1.368 . S
C1726 C1725 1.523 . S
H1727 C1702 0.950 . S
H1728 C1704 0.950 . S
H1729 C1705 0.949 . S
H1730 C1707 0.950 . S
H1731 C1709 0.950 . S
C1732 C1733 1.349 . S
C1732 C1734 1.327 . S
C1732 H1757 0.950 . S
C1733 C1732 1.349 . S
C1733 C1749 1.349 . S
C1734 C1732 1.327 . S
C1734 C1753 1.429 . S
C1734 H1758 0.950 . S
C1735 C1752 1.574 1_554 S
C1735 C1754 1.368 . S
C1735 H1759 0.949 . S
H1736 C1740 0.949 . S
C1737 C1738 1.349 . S
C1737 C1739 1.327 . S
C1737 H1760 0.950 . S
C1738 C1737 1.349 . S
C1738 C1750 1.349 . S
C1739 C1737 1.327 . S
C1739 C1755 1.429 . S
C1739 H1761 0.950 . S
C1740 H1736 0.949 . S
C1740 C1748 1.574 . S
C1740 C1756 1.368 1_554 S
H1741 C1749 0.950 . S
H1742 C1747 0.950 . S
H1743 C1748 0.949 . S
H1744 C1750 0.950 . S
H1745 C1751 0.950 . S
H1746 C1752 0.949 . S
C1747 H1742 0.950 . S
C1747 C1749 1.327 . S
C1747 C1753 1.429 . S
C1748 C1740 1.574 . S
C1748 H1743 0.949 . S
C1748 C1754 1.368 . S
C1749 C1733 1.349 . S
C1749 H1741 0.950 . S
C1749 C1747 1.327 . S
C1750 C1738 1.349 . S
C1750 H1744 0.950 . S
C1750 C1751 1.327 . S
C1751 H1745 0.950 . S
C1751 C1750 1.327 . S
C1751 C1755 1.429 . S
C1752 C1735 1.574 1_556 S
C1752 H1746 0.949 . S
C1752 C1756 1.368 . S
C1753 C1734 1.429 . S
C1753 C1747 1.429 . S
C1753 C1754 1.523 . S
C1754 C1735 1.368 . S
C1754 C1748 1.368 . S
C1754 C1753 1.523 . S
C1755 C1739 1.429 . S
C1755 C1751 1.429 . S
C1755 C1756 1.523 . S
C1756 C1740 1.368 1_556 S
C1756 C1752 1.368 . S
C1756 C1755 1.523 . S
H1757 C1732 0.950 . S
H1758 C1734 0.950 . S
H1759 C1735 0.949 . S
H1760 C1737 0.950 . S
H1761 C1739 0.950 . S
C1762 C1763 1.349 . S
C1762 C1764 1.327 . S
C1762 H1787 0.950 . S
C1763 C1762 1.349 . S
C1763 C1779 1.349 . S
C1764 C1762 1.327 . S
C1764 C1783 1.429 . S
C1764 H1788 0.950 . S
C1765 C1782 1.574 1_554 S
C1765 C1784 1.368 . S
C1765 H1789 0.949 . S
H1766 C1770 0.949 . S
C1767 C1768 1.349 . S
C1767 C1769 1.327 . S
C1767 H1790 0.950 . S
C1768 C1767 1.349 . S
C1768 C1780 1.349 . S
C1769 C1767 1.327 . S
C1769 C1785 1.429 . S
C1769 H1791 0.950 . S
C1770 H1766 0.949 . S
C1770 C1778 1.574 1_556 S
C1770 C1786 1.368 . S
H1771 C1779 0.950 . S
H1772 C1777 0.950 . S
H1773 C1778 0.949 . S
H1774 C1780 0.950 . S
H1775 C1781 0.950 . S
H1776 C1782 0.949 . S
C1777 H1772 0.950 . S
C1777 C1779 1.327 . S
C1777 C1783 1.429 . S
C1778 C1770 1.574 1_554 S
C1778 H1773 0.949 . S
C1778 C1784 1.368 . S
C1779 C1763 1.349 . S
C1779 H1771 0.950 . S
C1779 C1777 1.327 . S
C1780 C1768 1.349 . S
C1780 H1774 0.950 . S
C1780 C1781 1.327 . S
C1781 H1775 0.950 . S
C1781 C1780 1.327 . S
C1781 C1785 1.429 . S
C1782 C1765 1.574 1_556 S
C1782 H1776 0.949 . S
C1782 C1786 1.368 . S
C1783 C1764 1.429 . S
C1783 C1777 1.429 . S
C1783 C1784 1.523 . S
C1784 C1765 1.368 . S
C1784 C1778 1.368 . S
C1784 C1783 1.523 . S
C1785 C1769 1.429 . S
C1785 C1781 1.429 . S
C1785 C1786 1.523 . S
C1786 C1770 1.368 . S
C1786 C1782 1.368 . S
C1786 C1785 1.523 . S
H1787 C1762 0.950 . S
H1788 C1764 0.950 . S
H1789 C1765 0.949 . S
H1790 C1767 0.950 . S
H1791 C1769 0.950 . S
C353 C8 2.305 . S
C358 C120 2.305 . S
C383 C140 2.305 . S
C388 C32 2.305 . S
C413 C62 2.305 . S
C418 C162 2.305 . S
C443 C76 2.305 . S
C448 C98 2.305 . S
C473 C304 2.305 . S
C478 C184 2.305 . S
C503 C318 2.305 . S
C508 C206 2.305 . S
C533 C228 2.305 . S
C538 C348 2.305 . S
C563 C252 2.305 . S
C568 C272 2.305 . S
C593 C18 1.539 . S
C598 C84 1.514 1_545 S
C623 C30 1.539 . S
C628 C10 1.514 . S
C653 C54 1.539 1_455 S
C658 C40 1.514 . S
C683 C74 1.539 1_545 S
C688 C52 1.514 1_455 S
C713 C96 1.539 1_655 S
C718 C128 1.514 1_565 S
C743 C142 1.514 . S
C748 C118 1.539 1_565 S
C773 C150 1.539 . S
C778 C164 1.514 . S
C803 C106 1.514 1_655 S
C808 C172 1.539 . S
C833 C260 1.514 1_565 S
C838 C194 1.539 . S
C863 C216 1.539 . S
C868 C186 1.514 . S
C893 C238 1.539 1_655 S
C898 C208 1.514 . S
C923 C250 1.539 1_565 S
C928 C230 1.514 1_655 S
C953 C282 1.539 1_455 S
C958 C294 1.514 1_545 S
C983 C296 1.539 1_545 S
C988 C326 1.514 . S
C1013 C316 1.539 . S
C1018 C338 1.514 . S
C1043 C340 1.539 . S
C1048 C274 1.514 1_455 S
C1073 C21 0.336 . S
C1078 C51 0.336 . S
C1103 C37 0.336 . S
C1108 C81 0.336 . S
C1133 C153 0.336 . S
C1138 C103 0.336 . S
C1163 C175 0.336 . S
C1168 C125 0.336 . S
C1193 C241 0.336 . S
C1198 C197 0.336 . S
C1223 C257 0.336 . S
C1228 C219 0.336 . S
C1253 C285 0.336 . S
C1258 C323 0.336 . S
C1283 C293 0.336 . S
C1288 C337 0.336 . S
C1313 C7 1.003 . S
C1318 C249 1.000 . S
C1343 C191 1.000 . S
C1348 C43 1.003 . S
C1373 C59 1.003 . S
C1378 C213 1.000 . S
C1403 C235 1.000 . S
C1408 C87 1.003 . S
C1433 C307 1.000 . S
C1438 C109 1.003 . S
C1463 C131 1.003 . S
C1468 C315 1.000 . S
C1493 C351 1.000 . S
C1498 C139 1.003 . S
C1523 C161 1.003 . S
C1528 C279 1.000 . S
C1553 C183 1.003 . S
C1558 C73 1.000 . S
C1583 C205 1.003 . S
C1588 C15 1.000 . S
C1613 C29 1.000 . S
C1618 C227 1.003 . S
C1643 C263 1.003 . S
C1648 C65 1.000 . S
C1673 C271 1.003 . S
C1678 C117 1.000 . S
C1703 C301 1.003 . S
C1708 C147 1.000 . S
C1733 C169 1.000 . S
C1738 C329 1.003 . S
C1763 C95 1.000 . S
C1768 C345 1.003 . S
