# Generated by pormake.
# Topology mdf, (4)-cn, num edge types: 1
# Building blocks:
#     Node 0, Type 0, BuildingBlock: AZAVOO_clean_sbu_0, # of connection points: 4
#     Node 1, Type 0, BuildingBlock: AZAVOO_clean_sbu_0, # of connection points: 4
#     Node 2, Type 0, BuildingBlock: AZAVOO_clean_sbu_0, # of connection points: 4
#     Node 3, Type 0, BuildingBlock: AZAVOO_clean_sbu_0, # of connection points: 4
#     Node 4, Type 0, BuildingBlock: AZAVOO_clean_sbu_0, # of connection points: 4
#     Node 5, Type 0, BuildingBlock: AZAVOO_clean_sbu_0, # of connection points: 4
#     Node 6, Type 0, BuildingBlock: AZAVOO_clean_sbu_0, # of connection points: 4
#     Node 7, Type 0, BuildingBlock: AZAVOO_clean_sbu_0, # of connection points: 4
#     Edge 8, Type (0, 0), BuildingBlock: UVAHIK_clean_linker_0, # of connection points: 2
#     Edge 9, Type (0, 0), BuildingBlock: UVAHIK_clean_linker_0, # of connection points: 2
#     Edge 10, Type (0, 0), BuildingBlock: UVAHIK_clean_linker_0, # of connection points: 2
#     Edge 11, Type (0, 0), BuildingBlock: UVAHIK_clean_linker_0, # of connection points: 2
#     Edge 12, Type (0, 0), BuildingBlock: UVAHIK_clean_linker_0, # of connection points: 2
#     Edge 13, Type (0, 0), BuildingBlock: UVAHIK_clean_linker_0, # of connection points: 2
#     Edge 14, Type (0, 0), BuildingBlock: UVAHIK_clean_linker_0, # of connection points: 2
#     Edge 15, Type (0, 0), BuildingBlock: UVAHIK_clean_linker_0, # of connection points: 2
#     Edge 16, Type (0, 0), BuildingBlock: UVAHIK_clean_linker_0, # of connection points: 2
#     Edge 17, Type (0, 0), BuildingBlock: UVAHIK_clean_linker_0, # of connection points: 2
#     Edge 18, Type (0, 0), BuildingBlock: UVAHIK_clean_linker_0, # of connection points: 2
#     Edge 19, Type (0, 0), BuildingBlock: UVAHIK_clean_linker_0, # of connection points: 2
#     Edge 20, Type (0, 0), BuildingBlock: UVAHIK_clean_linker_0, # of connection points: 2
#     Edge 21, Type (0, 0), BuildingBlock: UVAHIK_clean_linker_0, # of connection points: 2
#     Edge 22, Type (0, 0), BuildingBlock: UVAHIK_clean_linker_0, # of connection points: 2
#     Edge 23, Type (0, 0), BuildingBlock: UVAHIK_clean_linker_0, # of connection points: 2
# Relax obj value: 0.039
# Max RMSD: 0.047
# Mean RMSD: 0.047
data_MOF--net-mdf--node1-AZAVOO_clean_sbu_0--edge1-UVAHIK_clean_linker_0
_symmetry_space_group_name_H-M    P1
_symmetry_Int_Tables_number       1
_symmetry_cell_setting            triclinic
loop_
_symmetry_equiv_pos_as_xyz
'x, y, z'
_cell_length_a     44.216593
_cell_length_b     44.10522
_cell_length_c     20.409433
_cell_angle_alpha  89.98599
_cell_angle_beta   89.997143
_cell_angle_gamma 94.785857
loop_
_atom_site_label
_atom_site_type_symbol
_atom_site_fract_x
_atom_site_fract_y
_atom_site_fract_z
_atom_type_partial_charge
Mg0 Mg 0.26627 0.55787 0.38822 0.0
O1 O 0.22741 0.52392 0.3527 0.0
O2 O 0.24637 0.49569 0.27392 0.0
Mg3 Mg 0.29683 0.50987 0.26261 0.0
C4 C 0.2243 0.503 0.30933 0.0
C5 C 0.2156 0.57252 0.48299 0.0
O6 O 0.21542 0.54286 0.48957 0.0
O7 O 0.26277 0.58518 0.29457 0.0
O8 O 0.28381 0.55559 0.22161 0.0
O9 O 0.27883 0.52563 0.4647 0.0
O10 O 0.29746 0.52675 0.36413 0.0
C11 C 0.27157 0.57993 0.23646 0.0
C12 C 0.29549 0.51387 0.42093 0.0
O13 O 0.23326 0.58592 0.44108 0.0
Mg14 Mg 0.43659 0.72757 0.60758 0.0
O15 O 0.46889 0.76785 0.64287 0.0
O16 O 0.4957 0.75065 0.72607 0.0
Mg17 Mg 0.48249 0.70008 0.74031 0.0
C18 C 0.48875 0.77204 0.68818 0.0
C19 C 0.39566 0.74578 0.50023 0.0
O20 O 0.39628 0.71617 0.49412 0.0
O21 O 0.40704 0.73187 0.69768 0.0
O22 O 0.43568 0.71268 0.77508 0.0
O23 O 0.47067 0.71475 0.53594 0.0
O24 O 0.46764 0.69728 0.63748 0.0
C25 C 0.41137 0.72407 0.75691 0.0
C26 C 0.48169 0.69878 0.58199 0.0
O27 O 0.40961 0.75901 0.54801 0.0
Mg28 Mg 0.22553 0.93818 0.90175 0.0
O29 O 0.26268 0.97168 0.85752 0.0
O30 O 0.23994 -0.0002 0.7838 0.0
Mg31 Mg 0.18897 0.98679 0.78621 0.0
C32 C 0.26363 0.99229 0.81338 0.0
C33 C 0.28042 0.92205 0.983 0.0
O34 O 0.28131 0.95162 0.99175 0.0
O35 O 0.22345 0.91108 0.80707 0.0
O36 O 0.19886 0.94096 0.74071 0.0
O37 O 0.21763 0.97041 0.98191 0.0
O38 O 0.19374 0.96972 0.88674 0.0
C39 C 0.21157 0.91647 0.75179 0.0
C40 C 0.1988 0.9824 0.94309 0.0
O41 O 0.26067 0.90936 0.94449 0.0
Mg42 Mg 0.05209 0.76347 0.10364 0.0
O43 O 0.01944 0.7235 0.13936 0.0
O44 O 0.99102 0.74192 0.21845 0.0
Mg45 Mg 0.00327 0.79286 0.22895 0.0
C46 C -0.00116 0.71995 0.18331 0.0
C47 C 0.09795 0.74436 0.00675 0.0
O48 O 0.09903 0.77411 0.00116 0.0
O49 O 0.07977 0.76119 0.19717 0.0
O50 O 0.04943 0.78153 0.26966 0.0
O51 O 0.01938 0.77495 0.02724 0.0
O52 O 0.02021 0.79382 0.12762 0.0
C53 C 0.07418 0.77007 0.25507 0.0
C54 C 0.00738 0.79154 0.07085 0.0
O55 O 0.08084 0.73142 0.05021 0.0
Mg56 Mg 0.76604 0.05066 0.89059 0.0
O57 O 0.72614 0.02024 0.84686 0.0
O58 O 0.74508 0.99468 0.76353 0.0
Mg59 Mg 0.79585 0.00727 0.75594 0.0
C60 C 0.72292 0.00141 0.79925 0.0
C61 C 0.74091 0.07956 0.00976 0.0
O62 O 0.76489 0.06666 0.03036 0.0
O63 O 0.76501 0.08269 0.80361 0.0
O64 O 0.78369 0.0548 0.7238 0.0
O65 O 0.77577 0.01388 0.95873 0.0
O66 O 0.7964 0.01963 0.86042 0.0
C67 C 0.77285 0.07904 0.74421 0.0
C68 C 0.79296 0.00393 0.91367 0.0
O69 O 0.73398 0.07771 0.94937 0.0
Mg70 Mg 0.94337 0.22635 0.11205 0.0
O71 O 0.97303 0.26702 0.15484 0.0
O72 O -0.00363 0.24959 0.24297 0.0
Mg73 Mg 0.98372 0.19882 0.25393 0.0
C74 C 0.99069 0.27111 0.20423 0.0
C75 C 0.91909 0.25215 0.9868 0.0
O76 O 0.93477 0.22989 0.96688 0.0
O77 O 0.90958 0.22884 0.19563 0.0
O78 O 0.93543 0.21062 0.27907 0.0
O79 O 0.98144 0.21499 0.04885 0.0
O80 O 0.97357 0.19643 0.14847 0.0
C81 C 0.91169 0.22129 0.25571 0.0
C82 C 0.99031 0.19866 0.09666 0.0
O83 O 0.91759 0.25757 0.04785 0.0
Mg84 Mg 0.72363 0.44139 0.4011 0.0
O85 O 0.76358 0.47185 0.35746 0.0
O86 O 0.74419 0.49873 0.27672 0.0
Mg87 Mg 0.69314 0.48746 0.27178 0.0
C88 C 0.76659 0.49117 0.31072 0.0
C89 C 0.747 0.40783 0.51479 0.0
O90 O 0.7215 0.4182 0.53437 0.0
O91 O 0.72298 0.4107 0.31159 0.0
O92 O 0.70355 0.44006 0.23538 0.0
O93 O 0.71515 0.4771 0.47302 0.0
O94 O 0.69364 0.47344 0.37526 0.0
C95 C 0.71421 0.41531 0.25319 0.0
C96 C 0.6977 0.48809 0.42973 0.0
O97 O 0.75567 0.41295 0.45616 0.0
Mg98 Mg 0.54718 0.266 0.60253 0.0
O99 O 0.51733 0.22458 0.64113 0.0
O100 O 0.49034 0.2411 0.72475 0.0
Mg101 Mg 0.50141 0.29211 0.73714 0.0
C102 C 0.49799 0.21986 0.68732 0.0
C103 C 0.57834 0.2443 0.48309 0.0
O104 O 0.56593 0.269 0.46484 0.0
O105 O 0.57836 0.26461 0.69085 0.0
O106 O 0.54939 0.28209 0.76992 0.0
O107 O 0.51091 0.27604 0.5335 0.0
O108 O 0.51512 0.29511 0.63352 0.0
C109 C 0.57421 0.27224 0.75026 0.0
C110 C 0.50014 0.2923 0.57931 0.0
O111 O 0.57551 0.23565 0.54235 0.0
C112 C 0.39345 0.72345 0.87273 0.0
C113 C 0.38695 0.72626 0.80579 0.0
C114 C 0.37011 0.72039 0.91866 0.0
C115 C 0.2929 0.68645 0.92606 0.0
H116 H 0.30652 0.70328 0.11059 0.0
C117 C 0.27479 0.5961 0.11932 0.0
C118 C 0.26918 0.60327 0.185 0.0
C119 C 0.27679 0.61874 0.07157 0.0
C120 C 0.30161 0.69886 0.05932 0.0
H121 H 0.35097 0.73075 0.73505 0.0
H122 H 0.30995 0.72519 0.81572 0.0
H123 H 0.33444 0.73446 0.02896 0.0
H124 H 0.25892 0.63952 0.25121 0.0
H125 H 0.26259 0.67928 0.16736 0.0
H126 H 0.26094 0.6501 0.95649 0.0
C127 C 0.33319 0.7251 0.83243 0.0
C128 C 0.31791 0.71658 0.01247 0.0
C129 C 0.35668 0.72835 0.78629 0.0
C130 C 0.26355 0.6333 0.20109 0.0
C131 C 0.26569 0.65609 0.15313 0.0
C132 C 0.27639 0.66893 0.97289 0.0
C133 C 0.33961 0.71998 0.89884 0.0
C134 C 0.31532 0.70913 0.9456 0.0
C135 C 0.27326 0.64919 0.0882 0.0
C136 C 0.2822 0.67357 0.04003 0.0
H137 H 0.41655 0.72218 0.88952 0.0
H138 H 0.376 0.71613 0.96914 0.0
H139 H 0.29012 0.68016 0.875 0.0
H140 H 0.27889 0.57315 0.10502 0.0
H141 H 0.28309 0.61256 0.02237 0.0
C142 C 0.36777 0.74859 0.3943 0.0
C143 C 0.38232 0.76355 0.44789 0.0
C144 C 0.35778 0.7652 0.3415 0.0
C145 C 0.37211 0.83902 0.25907 0.0
H146 H 0.29415 0.81761 0.1771 0.0
C147 C 0.31607 0.9169 0.07656 0.0
C148 C 0.29835 0.90329 0.02571 0.0
C149 C 0.3291 0.89898 0.12344 0.0
C150 C 0.31623 0.82355 0.19869 0.0
H151 H 0.39693 0.80769 0.48915 0.0
H152 H 0.37917 0.83672 0.39707 0.0
H153 H 0.30965 0.78841 0.27078 0.0
H154 H 0.28222 0.86023 0.98134 0.0
H155 H 0.30541 0.82896 0.06264 0.0
H156 H 0.3786 0.8743 0.18717 0.0
C157 C 0.37594 0.81211 0.39556 0.0
C158 C 0.32503 0.8069 0.25254 0.0
C159 C 0.38586 0.7955 0.44851 0.0
C160 C 0.2955 0.87141 0.02033 0.0
C161 C 0.3086 0.85349 0.06713 0.0
C162 C 0.36334 0.85565 0.20509 0.0
C163 C 0.36218 0.7971 0.34114 0.0
C164 C 0.35295 0.81461 0.28359 0.0
C165 C 0.32478 0.86709 0.12025 0.0
C166 C 0.3352 0.84823 0.1746 0.0
H167 H 0.3647 0.72399 0.39231 0.0
H168 H 0.34743 0.75299 0.30007 0.0
H169 H 0.39402 0.84512 0.28129 0.0
H170 H 0.31877 0.94141 0.08201 0.0
H171 H 0.34129 0.91017 0.16394 0.0
C172 C 0.12838 0.76796 0.29043 0.0
C173 C 0.09757 0.76907 0.30659 0.0
C174 C 0.15073 0.77237 0.33887 0.0
C175 C 0.1621 0.78157 0.51969 0.0
H176 H 0.21799 0.84988 0.4687 0.0
C177 C 0.21738 0.86322 0.71267 0.0
C178 C 0.21156 0.89346 0.69907 0.0
C179 C 0.21408 0.841 0.66361 0.0
C180 C 0.20285 0.83054 0.48367 0.0
H181 H 0.06589 0.77267 0.3868 0.0
H182 H 0.10452 0.78058 0.47051 0.0
H183 H 0.19068 0.81959 0.38473 0.0
H184 H 0.19975 0.92447 0.62241 0.0
H185 H 0.19379 0.886 0.53767 0.0
H186 H 0.1722 0.79433 0.61883 0.0
C187 C 0.11167 0.77627 0.42086 0.0
C188 C 0.18742 0.81292 0.43549 0.0
C189 C 0.08944 0.77211 0.37261 0.0
C190 C 0.20411 0.90135 0.63475 0.0
C191 C 0.20107 0.87929 0.58584 0.0
C192 C 0.17745 0.79928 0.56791 0.0
C193 C 0.14261 0.77762 0.40428 0.0
C194 C 0.16552 0.7894 0.45315 0.0
C195 C 0.20529 0.84874 0.59997 0.0
C196 C 0.19658 0.82504 0.55033 0.0
H197 H 0.13533 0.76545 0.23996 0.0
H198 H 0.17439 0.77304 0.32471 0.0
H199 H 0.14582 0.76316 0.53472 0.0
H200 H 0.2233 0.85645 0.76173 0.0
H201 H 0.21759 0.81766 0.67585 0.0
C202 C 0.13009 0.74085 0.90685 0.0
C203 C 0.11307 0.72623 0.95762 0.0
C204 C 0.14151 0.724 0.85602 0.0
C205 C 0.127 0.65081 0.77129 0.0
H206 H 0.20635 0.67154 0.69503 0.0
C207 C 0.18213 0.57567 0.58102 0.0
C208 C 0.19925 0.5904 0.53052 0.0
C209 C 0.17007 0.5925 0.63115 0.0
C210 C 0.18396 0.66575 0.71525 0.0
H211 H 0.09583 0.68235 0.99649 0.0
H212 H 0.11616 0.65287 0.90802 0.0
H213 H 0.19035 0.69975 0.78985 0.0
H214 H 0.21571 0.63441 0.491 0.0
H215 H 0.19435 0.66378 0.57823 0.0
H216 H 0.12068 0.61673 0.69675 0.0
C217 C 0.12016 0.67743 0.907 0.0
C218 C 0.17485 0.68184 0.76967 0.0
C219 C 0.10874 0.6943 0.95791 0.0
C220 C 0.20279 0.62236 0.52944 0.0
C221 C 0.19077 0.63918 0.57964 0.0
C222 C 0.13613 0.6347 0.71689 0.0
C223 C 0.13618 0.69216 0.85491 0.0
C224 C 0.14627 0.67454 0.79828 0.0
C225 C 0.17489 0.62439 0.63178 0.0
C226 C 0.1647 0.64202 0.68827 0.0
H227 H 0.13385 0.76543 0.90519 0.0
H228 H 0.15357 0.73603 0.81637 0.0
H229 H 0.10461 0.64502 0.79152 0.0
H230 H 0.17893 0.55108 0.58321 0.0
H231 H 0.15806 0.58045 0.67084 0.0
C232 C 0.7866 0.1321 0.70748 0.0
C233 C 0.77044 0.10385 0.69716 0.0
C234 C 0.78931 0.15359 0.65702 0.0
C235 C 0.78691 0.15344 0.47583 0.0
H236 H 0.81719 0.23756 0.50233 0.0
C237 C 0.85566 0.21634 0.27574 0.0
C238 C 0.88533 0.22275 0.29949 0.0
C239 C 0.83142 0.21124 0.31954 0.0
C240 C 0.80821 0.21427 0.49395 0.0
H241 H 0.74186 0.07667 0.62979 0.0
H242 H 0.74455 0.1149 0.54321 0.0
H243 H 0.79032 0.20964 0.59111 0.0
H244 H 0.91257 0.23217 0.38652 0.0
H245 H 0.87031 0.2238 0.46271 0.0
H246 H 0.80544 0.15791 0.37939 0.0
C247 C 0.75661 0.12014 0.5885 0.0
C248 C 0.79313 0.1981 0.54497 0.0
C249 C 0.75478 0.0983 0.63818 0.0
C250 C 0.88994 0.22693 0.36705 0.0
C251 C 0.86569 0.22245 0.41061 0.0
C252 C 0.80135 0.16976 0.42462 0.0
C253 C 0.77527 0.14743 0.59582 0.0
C254 C 0.78381 0.16693 0.53778 0.0
C255 C 0.83647 0.21316 0.38748 0.0
C256 C 0.81353 0.1998 0.43428 0.0
H257 H 0.79893 0.13669 0.75276 0.0
H258 H 0.80417 0.17402 0.66489 0.0
H259 H 0.78054 0.12951 0.46782 0.0
H260 H 0.85152 0.21304 0.22381 0.0
H261 H 0.80907 0.20409 0.3006 0.0
C262 C 0.90932 0.26711 0.8714 0.0
C263 C 0.90302 0.26986 0.93849 0.0
C264 C 0.89359 0.28286 0.82497 0.0
C265 C 0.84524 0.347 0.8061 0.0
H266 H 0.82152 0.30578 0.64382 0.0
C267 C 0.75798 0.39105 0.62835 0.0
C268 C 0.76554 0.39174 0.56145 0.0
C269 C 0.77566 0.37661 0.67334 0.0
C270 C 0.82828 0.31766 0.68862 0.0
H271 H 0.87546 0.29144 0.00973 0.0
H272 H 0.84736 0.31843 0.92849 0.0
H273 H 0.85037 0.27987 0.72533 0.0
H274 H 0.79738 0.37752 0.48906 0.0
H275 H 0.8282 0.35185 0.56807 0.0
H276 H 0.82241 0.3845 0.76971 0.0
C277 C 0.86491 0.30455 0.91177 0.0
C278 C 0.84486 0.30289 0.7353 0.0
C279 C 0.88089 0.28898 0.95835 0.0
C280 C 0.79101 0.37737 0.54032 0.0
C281 C 0.80856 0.36262 0.5854 0.0
C282 C 0.82842 0.36164 0.75966 0.0
C283 C 0.87097 0.30152 0.84448 0.0
C284 C 0.85352 0.31737 0.79466 0.0
C285 C 0.80113 0.36231 0.65237 0.0
C286 C 0.81973 0.34708 0.70058 0.0
H287 H 0.92647 0.25277 0.85455 0.0
H288 H 0.8993 0.28049 0.77373 0.0
H289 H 0.85199 0.35903 0.85069 0.0
H290 H 0.7385 0.4019 0.64625 0.0
H291 H 0.76921 0.37638 0.72457 0.0
C292 C 0.69851 0.36298 0.21441 0.0
C293 C 0.71512 0.39102 0.20437 0.0
C294 C 0.69436 0.34213 0.16296 0.0
C295 C 0.69442 0.34369 0.98133 0.0
H296 H 0.66445 0.25929 0.00546 0.0
C297 C 0.62961 0.27903 0.77657 0.0
C298 C 0.59951 0.27218 0.79734 0.0
C299 C 0.65273 0.28516 0.82264 0.0
C300 C 0.67329 0.28269 0.99783 0.0
H301 H 0.74291 0.41846 0.13602 0.0
H302 H 0.7378 0.38128 0.04753 0.0
H303 H 0.69138 0.28669 0.09488 0.0
H304 H 0.57043 0.26331 0.88185 0.0
H305 H 0.61088 0.27337 0.96212 0.0
H306 H 0.67595 0.33968 0.88471 0.0
C307 C 0.72644 0.37576 0.09351 0.0
C308 C 0.6884 0.29856 0.0492 0.0
C309 C 0.7297 0.39698 0.14428 0.0
C310 C 0.59341 0.26882 0.86459 0.0
C311 C 0.61659 0.27429 0.91049 0.0
C312 C 0.68 0.32764 0.92974 0.0
C313 C 0.70742 0.3487 0.10093 0.0
C314 C 0.69786 0.32974 0.04272 0.0
C315 C 0.64618 0.28379 0.88999 0.0
C316 C 0.66812 0.29744 0.93843 0.0
H317 H 0.68696 0.3581 0.26052 0.0
H318 H 0.67927 0.32188 0.17098 0.0
H319 H 0.70077 0.36766 0.97397 0.0
H320 H 0.63492 0.28179 0.72498 0.0
H321 H 0.6754 0.2925 0.80576 0.0
C322 C 0.70068 0.11472 0.03494 0.0
C323 C 0.72257 0.0957 0.05669 0.0
C324 C 0.68405 0.13042 0.08013 0.0
C325 C 0.65859 0.12896 0.2511 0.0
H326 H 0.65338 0.21565 0.22859 0.0
C327 C 0.61214 0.20337 0.45422 0.0
C328 C 0.59449 0.22679 0.43458 0.0
C329 C 0.62737 0.18709 0.40761 0.0
C330 C 0.65421 0.19137 0.23519 0.0
H331 H 0.74389 0.0778 0.14268 0.0
H332 H 0.7147 0.10494 0.2212 0.0
H333 H 0.67949 0.1873 0.14654 0.0
H334 H 0.57852 0.2512 0.35075 0.0
H335 H 0.60428 0.22238 0.26971 0.0
H336 H 0.63301 0.13278 0.33915 0.0
C337 C 0.7104 0.10772 0.16937 0.0
C338 C 0.6692 0.17519 0.18818 0.0
C339 C 0.72722 0.09235 0.12434 0.0
C340 C 0.59217 0.23346 0.36755 0.0
C341 C 0.60711 0.21703 0.32102 0.0
C342 C 0.64332 0.14507 0.29779 0.0
C343 C 0.68878 0.12702 0.14775 0.0
C344 C 0.67169 0.14389 0.19594 0.0
C345 C 0.625 0.19373 0.34041 0.0
C346 C 0.64108 0.1765 0.29059 0.0
H347 H 0.69663 0.11774 0.98309 0.0
H348 H 0.66736 0.14506 0.06229 0.0
H349 H 0.65995 0.10475 0.25784 0.0
H350 H 0.61445 0.19782 0.50558 0.0
H351 H 0.64132 0.16959 0.42435 0.0
C352 C 0.31558 0.47828 0.50194 0.0
C353 C 0.31146 0.48665 0.43633 0.0
C354 C 0.33224 0.45374 0.51749 0.0
C355 C 0.38999 0.40734 0.44591 0.0
H356 H 0.37313 0.35772 0.60076 0.0
C357 C 0.45876 0.30671 0.50561 0.0
C358 C 0.47256 0.30824 0.56771 0.0
C359 C 0.43544 0.32495 0.49074 0.0
C360 C 0.37802 0.37145 0.55742 0.0
H361 H 0.32049 0.47501 0.33549 0.0
H362 H 0.34845 0.43148 0.36221 0.0
H363 H 0.33866 0.39593 0.57021 0.0
H364 H 0.47145 0.32875 0.66417 0.0
H365 H 0.4302 0.36047 0.63817 0.0
H366 H 0.4291 0.38256 0.43283 0.0
C367 C 0.33972 0.44447 0.40195 0.0
C368 C 0.35843 0.39343 0.54 0.0
C369 C 0.32349 0.46936 0.38647 0.0
C370 C 0.4613 0.32708 0.61591 0.0
C371 C 0.43767 0.34516 0.60113 0.0
C372 C 0.40923 0.3851 0.46275 0.0
C373 C 0.3448 0.43667 0.46771 0.0
C374 C 0.36436 0.41189 0.48435 0.0
C375 C 0.4252 0.34488 0.5378 0.0
C376 C 0.40358 0.36715 0.5189 0.0
H377 H 0.3067 0.49127 0.54155 0.0
H378 H 0.33604 0.44882 0.56866 0.0
H379 H 0.39579 0.42151 0.40369 0.0
H380 H 0.46676 0.29229 0.46746 0.0
H381 H 0.42592 0.3241 0.44178 0.0
C382 C 0.68438 0.98025 0.71923 0.0
C383 C 0.69268 0.98645 0.7845 0.0
C384 C 0.65711 0.96344 0.70462 0.0
C385 C 0.58498 0.92811 0.77922 0.0
H386 H 0.59128 0.8704 0.63746 0.0
C387 C 0.51705 0.81111 0.75819 0.0
C388 C 0.50496 0.80241 0.6967 0.0
C389 C 0.5347 0.83862 0.76562 0.0
C390 C 0.58897 0.88673 0.67642 0.0
H391 H 0.67873 0.981 0.88572 0.0
H392 H 0.6318 0.95008 0.86084 0.0
H393 H 0.63258 0.90905 0.65692 0.0
H394 H 0.50094 0.81605 0.59523 0.0
H395 H 0.53283 0.86391 0.60791 0.0
H396 H 0.54205 0.90383 0.80108 0.0
C397 C 0.64573 0.95898 0.82048 0.0
C398 C 0.61261 0.90907 0.6876 0.0
C399 C 0.67273 0.97654 0.83496 0.0
C400 C 0.50998 0.82223 0.64317 0.0
C401 C 0.5282 0.84951 0.65035 0.0
C402 C 0.56155 0.90531 0.76872 0.0
C403 C 0.63787 0.95163 0.75508 0.0
C404 C 0.6112 0.92983 0.73975 0.0
C405 C 0.54105 0.85768 0.71146 0.0
C406 C 0.56358 0.88421 0.71777 0.0
H407 H 0.69922 0.98813 0.67937 0.0
H408 H 0.65149 0.95917 0.65365 0.0
H409 H 0.58272 0.944 0.81896 0.0
H410 H 0.51333 0.79638 0.80042 0.0
H411 H 0.54458 0.84429 0.81309 0.0
C412 C 0.03262 0.1815 0.0293 0.0
C413 C 0.01815 0.18257 0.0904 0.0
C414 C 0.05703 0.16385 0.02055 0.0
C415 C 0.09025 0.09739 0.09274 0.0
H416 H 0.15192 0.11678 0.96057 0.0
C417 C 0.18347 0.0178 0.03007 0.0
C418 C 0.18366 0.00946 0.96357 0.0
C419 C 0.16734 0.04194 0.05085 0.0
C420 C 0.13488 0.1112 0.99777 0.0
H421 H 0.01891 0.16714 0.19118 0.0
H422 H 0.06234 0.13721 0.17669 0.0
H423 H 0.11728 0.15476 0.9908 0.0
H424 H 0.16799 0.02061 0.86653 0.0
H425 H 0.14037 0.06325 0.90276 0.0
H426 H 0.10817 0.05386 0.0997 0.0
C427 C 0.05425 0.14932 0.13491 0.0
C428 C 0.11492 0.13282 0.01491 0.0
C429 C 0.02947 0.16668 0.14343 0.0
C430 C 0.16828 0.02641 0.91799 0.0
C431 C 0.1526 0.05091 0.93865 0.0
C432 C 0.11056 0.076 0.07638 0.0
C433 C 0.06791 0.14714 0.07294 0.0
C434 C 0.09179 0.12589 0.06132 0.0
C435 C 0.15159 0.05854 0.00537 0.0
C436 C 0.13254 0.08248 0.02767 0.0
H437 H 0.02439 0.19338 0.9873 0.0
H438 H 0.06647 0.16239 0.97182 0.0
H439 H 0.07252 0.09096 0.12787 0.0
H440 H 0.19507 0.00514 0.06643 0.0
H441 H 0.16692 0.04749 0.10254 0.0
C442 C 0.97066 0.68179 0.25565 0.0
C443 C 0.98297 0.68957 0.19382 0.0
C444 C 0.95337 0.65421 0.26494 0.0
C445 C 0.9 0.60398 0.17902 0.0
H446 H 0.9068 0.54916 0.32588 0.0
C447 C 0.80494 0.51096 0.22905 0.0
C448 C 0.79687 0.50568 0.29476 0.0
C449 C 0.83219 0.52752 0.21308 0.0
C450 C 0.90438 0.56437 0.28493 0.0
H451 H 0.98774 0.67422 0.09375 0.0
H452 H 0.95639 0.62619 0.10959 0.0
H453 H 0.94709 0.5894 0.30519 0.0
H454 H 0.81111 0.5125 0.39543 0.0
H455 H 0.85796 0.54309 0.36813 0.0
H456 H 0.85656 0.58102 0.16105 0.0
C457 C 0.96062 0.64139 0.15089 0.0
C458 C 0.92761 0.58719 0.27283 0.0
C459 C 0.97851 0.66876 0.1419 0.0
C460 C 0.81698 0.51625 0.34436 0.0
C461 C 0.84393 0.53361 0.32848 0.0
C462 C 0.87654 0.58164 0.19179 0.0
C463 C 0.94758 0.63412 0.2123 0.0
C464 C 0.92537 0.60743 0.2203 0.0
C465 C 0.85157 0.54008 0.26255 0.0
C466 C 0.87812 0.56177 0.24554 0.0
H467 H 0.97396 0.6973 0.29667 0.0
H468 H 0.94332 0.64923 0.31257 0.0
H469 H 0.89754 0.61965 0.13882 0.0
H470 H 0.78994 0.50257 0.1899 0.0
H471 H 0.83764 0.53106 0.16179 0.0
C472 C 0.2987 0.01685 0.73006 0.0
C473 C 0.29308 0.00815 0.79531 0.0
C474 C 0.32569 0.03361 0.71292 0.0
C475 C 0.40175 0.06378 0.77849 0.0
H476 H 0.39302 0.12573 0.64651 0.0
C477 C 0.4721 0.17985 0.75879 0.0
C478 C 0.48261 0.18917 0.6964 0.0
C479 C 0.45425 0.15248 0.76666 0.0
C480 C 0.39595 0.10821 0.68265 0.0
H481 H 0.31134 0.00934 0.89372 0.0
H482 H 0.3577 0.04031 0.86499 0.0
H483 H 0.3509 0.08835 0.66862 0.0
H484 H 0.48382 0.17672 0.59377 0.0
H485 H 0.4515 0.12916 0.60735 0.0
H486 H 0.44627 0.08573 0.79545 0.0
C487 C 0.34194 0.03334 0.82622 0.0
C488 C 0.37183 0.08658 0.69531 0.0
C489 C 0.31524 0.01578 0.84299 0.0
C490 C 0.47606 0.17001 0.6424 0.0
C491 C 0.45758 0.14291 0.65008 0.0
C492 C 0.42568 0.08592 0.76675 0.0
C493 C 0.34732 0.04294 0.76103 0.0
C494 C 0.37418 0.06425 0.74401 0.0
C495 C 0.4461 0.13426 0.71211 0.0
C496 C 0.42279 0.10848 0.71921 0.0
H497 H 0.28214 0.01073 0.69217 0.0
H498 H 0.3293 0.0396 0.66193 0.0
H499 H 0.40477 0.04664 0.81533 0.0
H500 H 0.477 0.19413 0.80129 0.0
H501 H 0.44544 0.14638 0.81486 0.0
C502 C 0.82794 0.96522 0.87694 0.0
C503 C 0.80879 0.97618 0.92484 0.0
C504 C 0.84537 0.94098 0.89118 0.0
C505 C 0.88287 0.90925 0.02933 0.0
H506 H 0.89204 0.83919 0.91868 0.0
C507 C 0.96288 0.81952 0.10474 0.0
C508 C 0.98034 0.80763 0.05505 0.0
C509 C 0.93862 0.83653 0.08903 0.0
C510 C 0.89 0.85879 0.9498 0.0
H511 H 0.79182 0.96943 0.02411 0.0
H512 H 0.82253 0.92759 0.04892 0.0
H513 H 0.85574 0.87568 0.88835 0.0
H514 H 0.98577 0.80368 0.94987 0.0
H515 H 0.94442 0.83437 0.92239 0.0
H516 H 0.91787 0.89362 0.0892 0.0
C517 C 0.82408 0.93775 0.00056 0.0
C518 C 0.86912 0.87955 0.93248 0.0
C519 C 0.80647 0.96166 0.98617 0.0
C520 C 0.97262 0.81245 0.98933 0.0
C521 C 0.94873 0.82991 0.97356 0.0
C522 C 0.90402 0.88884 0.0461 0.0
C523 C 0.84414 0.92762 0.95373 0.0
C524 C 0.86542 0.90494 0.97216 0.0
C525 C 0.93167 0.84256 0.02322 0.0
C526 C 0.90795 0.86335 0.00656 0.0
H527 H 0.83023 0.97593 0.82927 0.0
H528 H 0.86082 0.93362 0.85438 0.0
H529 H 0.88076 0.92894 0.06021 0.0
H530 H 0.968 0.81592 0.1558 0.0
H531 H 0.92555 0.84523 0.12864 0.0
C532 C 0.0177 0.31974 0.16484 0.0
C533 C 0.00604 0.30147 0.21671 0.0
C534 C 0.03603 0.34649 0.17764 0.0
C535 C 0.08455 0.38109 0.31114 0.0
H536 H 0.09535 0.44852 0.18915 0.0
C537 C 0.1733 0.48294 0.35165 0.0
C538 C 0.19432 0.4862 0.29996 0.0
C539 C 0.14606 0.46479 0.34389 0.0
C540 C 0.09234 0.42991 0.22381 0.0
H541 H 0.00206 0.2978 0.32219 0.0
H542 H 0.03234 0.34524 0.34472 0.0
H543 H 0.05396 0.40901 0.1723 0.0
H544 H 0.20265 0.47448 0.19869 0.0
H545 H 0.1548 0.44335 0.18489 0.0
H546 H 0.12288 0.40223 0.36263 0.0
C547 C 0.02883 0.33841 0.29417 0.0
C548 C 0.06883 0.40712 0.21398 0.0
C549 C 0.01124 0.31133 0.28137 0.0
C550 C 0.18699 0.47217 0.23955 0.0
C551 C 0.15953 0.45459 0.23142 0.0
C552 C 0.1076 0.40414 0.32159 0.0
C553 C 0.04243 0.35582 0.24261 0.0
C554 C 0.06505 0.382 0.25668 0.0
C555 C 0.13912 0.45024 0.28387 0.0
C556 C 0.11212 0.42837 0.27727 0.0
H557 H 0.01409 0.31249 0.11453 0.0
H558 H 0.04628 0.35897 0.13651 0.0
H559 H 0.083 0.36192 0.34443 0.0
H560 H 0.17839 0.49349 0.39875 0.0
H561 H 0.13061 0.46171 0.385 0.0
C562 C 0.52444 0.66961 0.62195 0.0
C563 C 0.5092 0.68275 0.57023 0.0
C564 C 0.54934 0.65293 0.60941 0.0
C565 C 0.60372 0.6344 0.47747 0.0
H566 H 0.60822 0.56079 0.57959 0.0
C567 C 0.66441 0.52886 0.39655 0.0
C568 C 0.68221 0.51573 0.44414 0.0
C569 C 0.64738 0.55309 0.413 0.0
C570 C 0.60746 0.58147 0.55119 0.0
H571 H 0.50837 0.68915 0.46486 0.0
H572 H 0.55073 0.65915 0.44273 0.0
H573 H 0.57069 0.59589 0.60764 0.0
H574 H 0.69699 0.51842 0.54561 0.0
H575 H 0.66683 0.56025 0.57429 0.0
H576 H 0.63963 0.61874 0.41897 0.0
C577 C 0.54425 0.66237 0.49324 0.0
C578 C 0.58606 0.60173 0.56744 0.0
C579 C 0.51972 0.67942 0.50591 0.0
C580 C 0.68346 0.52797 0.50779 0.0
C581 C 0.66616 0.55185 0.52438 0.0
C582 C 0.62481 0.61382 0.46059 0.0
C583 C 0.5592 0.64859 0.54473 0.0
C584 C 0.58368 0.62834 0.53043 0.0
C585 C 0.64757 0.56426 0.47747 0.0
C586 C 0.62668 0.58709 0.49707 0.0
H587 H 0.51703 0.67191 0.67207 0.0
H588 H 0.56064 0.64319 0.65046 0.0
H589 H 0.60299 0.65493 0.44862 0.0
H590 H 0.66293 0.51994 0.34717 0.0
H591 H 0.63304 0.56221 0.37609 0.0
loop_
_geom_bond_atom_site_label_1
_geom_bond_atom_site_label_2
_geom_bond_distance
_geom_bond_site_symmetry_2
_ccdc_geom_bond_type
Mg0 O1 2.028 . S
Mg0 O7 1.986 . S
Mg0 O9 2.114 . S
Mg0 O10 2.251 . S
Mg0 O13 2.010 . S
O1 Mg0 2.028 . S
O1 C4 1.250 . S
O2 Mg3 2.028 . S
O2 C4 1.248 . S
Mg3 O2 2.028 . S
Mg3 O8 2.032 . S
Mg3 O10 2.079 . S
C4 O1 1.250 . S
C4 O2 1.248 . S
C5 O6 1.264 . S
C5 O13 1.249 . S
O6 C5 1.264 . S
O7 Mg0 1.986 . S
O7 C11 1.246 . S
O8 Mg3 2.032 . S
O8 C11 1.259 . S
O9 Mg0 2.114 . S
O9 C12 1.252 . S
O10 Mg0 2.251 . S
O10 Mg3 2.079 . S
O10 C12 1.273 . S
C11 O7 1.246 . S
C11 O8 1.259 . S
C12 O9 1.252 . S
C12 O10 1.273 . S
O13 Mg0 2.010 . S
O13 C5 1.249 . S
Mg14 O15 2.028 . S
Mg14 O21 1.986 . S
Mg14 O23 2.114 . S
Mg14 O24 2.251 . S
Mg14 O27 2.010 . S
O15 Mg14 2.028 . S
O15 C18 1.250 . S
O16 Mg17 2.028 . S
O16 C18 1.248 . S
Mg17 O16 2.028 . S
Mg17 O22 2.032 . S
Mg17 O24 2.079 . S
C18 O15 1.250 . S
C18 O16 1.248 . S
C19 O20 1.264 . S
C19 O27 1.249 . S
O20 C19 1.264 . S
O21 Mg14 1.986 . S
O21 C25 1.246 . S
O22 Mg17 2.032 . S
O22 C25 1.259 . S
O23 Mg14 2.114 . S
O23 C26 1.252 . S
O24 Mg14 2.251 . S
O24 Mg17 2.079 . S
O24 C26 1.273 . S
C25 O21 1.246 . S
C25 O22 1.259 . S
C26 O23 1.252 . S
C26 O24 1.273 . S
O27 Mg14 2.010 . S
O27 C19 1.249 . S
Mg28 O29 2.028 . S
Mg28 O35 1.986 . S
Mg28 O37 2.114 . S
Mg28 O38 2.251 . S
Mg28 O41 2.010 . S
O29 Mg28 2.028 . S
O29 C32 1.250 . S
O30 Mg31 2.028 1_545 S
O30 C32 1.248 1_545 S
Mg31 O30 2.028 1_565 S
Mg31 O36 2.032 . S
Mg31 O38 2.079 . S
C32 O29 1.250 . S
C32 O30 1.248 1_565 S
C33 O34 1.264 . S
C33 O41 1.249 1_554 S
O34 C33 1.264 . S
O35 Mg28 1.986 . S
O35 C39 1.246 . S
O36 Mg31 2.032 . S
O36 C39 1.259 . S
O37 Mg28 2.114 . S
O37 C40 1.252 . S
O38 Mg28 2.251 . S
O38 Mg31 2.079 . S
O38 C40 1.273 . S
C39 O35 1.246 . S
C39 O36 1.259 . S
C40 O37 1.252 . S
C40 O38 1.273 . S
O41 Mg28 2.010 . S
O41 C33 1.249 1_556 S
Mg42 O43 2.028 . S
Mg42 O49 1.986 . S
Mg42 O51 2.114 . S
Mg42 O52 2.251 . S
Mg42 O55 2.010 . S
O43 Mg42 2.028 . S
O43 C46 1.250 . S
O44 Mg45 2.028 1_655 S
O44 C46 1.248 1_655 S
Mg45 O44 2.028 1_455 S
Mg45 O50 2.032 . S
Mg45 O52 2.079 . S
C46 O43 1.250 . S
C46 O44 1.248 1_455 S
C47 O48 1.264 . S
C47 O55 1.249 1_556 S
O48 C47 1.264 . S
O49 Mg42 1.986 . S
O49 C53 1.246 . S
O50 Mg45 2.032 . S
O50 C53 1.259 . S
O51 Mg42 2.114 . S
O51 C54 1.252 . S
O52 Mg42 2.251 . S
O52 Mg45 2.079 . S
O52 C54 1.273 . S
C53 O49 1.246 . S
C53 O50 1.259 . S
C54 O51 1.252 . S
C54 O52 1.273 . S
O55 Mg42 2.010 . S
O55 C47 1.249 1_554 S
Mg56 O57 2.028 . S
Mg56 O63 1.986 . S
Mg56 O65 2.114 . S
Mg56 O66 2.251 . S
Mg56 O69 2.010 . S
O57 Mg56 2.028 . S
O57 C60 1.250 . S
O58 Mg59 2.028 1_565 S
O58 C60 1.248 1_565 S
Mg59 O58 2.028 1_545 S
Mg59 O64 2.032 . S
Mg59 O66 2.079 . S
C60 O57 1.250 . S
C60 O58 1.248 1_545 S
C61 O62 1.264 . S
C61 O69 1.249 1_554 S
O62 C61 1.264 . S
O63 Mg56 1.986 . S
O63 C67 1.246 . S
O64 Mg59 2.032 . S
O64 C67 1.259 . S
O65 Mg56 2.114 . S
O65 C68 1.252 . S
O66 Mg56 2.251 . S
O66 Mg59 2.079 . S
O66 C68 1.273 . S
C67 O63 1.246 . S
C67 O64 1.259 . S
C68 O65 1.252 . S
C68 O66 1.273 . S
O69 Mg56 2.010 . S
O69 C61 1.249 1_556 S
Mg70 O71 2.028 . S
Mg70 O77 1.986 . S
Mg70 O79 2.114 . S
Mg70 O80 2.251 . S
Mg70 O83 2.010 . S
O71 Mg70 2.028 . S
O71 C74 1.250 . S
O72 Mg73 2.028 1_455 S
O72 C74 1.248 1_455 S
Mg73 O72 2.028 1_655 S
Mg73 O78 2.032 . S
Mg73 O80 2.079 . S
C74 O71 1.250 . S
C74 O72 1.248 1_655 S
C75 O76 1.264 . S
C75 O83 1.249 1_556 S
O76 C75 1.264 . S
O77 Mg70 1.986 . S
O77 C81 1.246 . S
O78 Mg73 2.032 . S
O78 C81 1.259 . S
O79 Mg70 2.114 . S
O79 C82 1.252 . S
O80 Mg70 2.251 . S
O80 Mg73 2.079 . S
O80 C82 1.273 . S
C81 O77 1.246 . S
C81 O78 1.259 . S
C82 O79 1.252 . S
C82 O80 1.273 . S
O83 Mg70 2.010 . S
O83 C75 1.249 1_554 S
Mg84 O85 2.028 . S
Mg84 O91 1.986 . S
Mg84 O93 2.114 . S
Mg84 O94 2.251 . S
Mg84 O97 2.010 . S
O85 Mg84 2.028 . S
O85 C88 1.250 . S
O86 Mg87 2.028 . S
O86 C88 1.248 . S
Mg87 O86 2.028 . S
Mg87 O92 2.032 . S
Mg87 O94 2.079 . S
C88 O85 1.250 . S
C88 O86 1.248 . S
C89 O90 1.264 . S
C89 O97 1.249 . S
O90 C89 1.264 . S
O91 Mg84 1.986 . S
O91 C95 1.246 . S
O92 Mg87 2.032 . S
O92 C95 1.259 . S
O93 Mg84 2.114 . S
O93 C96 1.252 . S
O94 Mg84 2.251 . S
O94 Mg87 2.079 . S
O94 C96 1.273 . S
C95 O91 1.246 . S
C95 O92 1.259 . S
C96 O93 1.252 . S
C96 O94 1.273 . S
O97 Mg84 2.010 . S
O97 C89 1.249 . S
Mg98 O99 2.028 . S
Mg98 O105 1.986 . S
Mg98 O107 2.114 . S
Mg98 O108 2.251 . S
Mg98 O111 2.010 . S
O99 Mg98 2.028 . S
O99 C102 1.250 . S
O100 Mg101 2.028 . S
O100 C102 1.248 . S
Mg101 O100 2.028 . S
Mg101 O106 2.032 . S
Mg101 O108 2.079 . S
C102 O99 1.250 . S
C102 O100 1.248 . S
C103 O104 1.264 . S
C103 O111 1.249 . S
O104 C103 1.264 . S
O105 Mg98 1.986 . S
O105 C109 1.246 . S
O106 Mg101 2.032 . S
O106 C109 1.259 . S
O107 Mg98 2.114 . S
O107 C110 1.252 . S
O108 Mg98 2.251 . S
O108 Mg101 2.079 . S
O108 C110 1.273 . S
C109 O105 1.246 . S
C109 O106 1.259 . S
C110 O107 1.252 . S
C110 O108 1.273 . S
O111 Mg98 2.010 . S
O111 C103 1.249 . S
C112 C113 1.349 . S
C112 C114 1.327 . S
C112 H137 0.950 . S
C113 C112 1.349 . S
C113 C129 1.349 . S
C114 C112 1.327 . S
C114 C133 1.429 . S
C114 H138 0.950 . S
C115 C132 1.574 1_556 S
C115 C134 1.368 . S
C115 H139 0.949 . S
H116 C120 0.949 . S
C117 C118 1.349 . S
C117 C119 1.327 . S
C117 H140 0.950 . S
C118 C117 1.349 . S
C118 C130 1.349 . S
C119 C117 1.327 . S
C119 C135 1.429 . S
C119 H141 0.950 . S
C120 H116 0.949 . S
C120 C128 1.574 1_554 S
C120 C136 1.368 . S
H121 C129 0.950 . S
H122 C127 0.950 . S
H123 C128 0.949 . S
H124 C130 0.950 . S
H125 C131 0.950 . S
H126 C132 0.949 . S
C127 H122 0.950 . S
C127 C129 1.327 . S
C127 C133 1.429 . S
C128 C120 1.574 1_556 S
C128 H123 0.949 . S
C128 C134 1.368 . S
C129 C113 1.349 . S
C129 H121 0.950 . S
C129 C127 1.327 . S
C130 C118 1.349 . S
C130 H124 0.950 . S
C130 C131 1.327 . S
C131 H125 0.950 . S
C131 C130 1.327 . S
C131 C135 1.429 . S
C132 C115 1.574 1_554 S
C132 H126 0.949 . S
C132 C136 1.368 . S
C133 C114 1.429 . S
C133 C127 1.429 . S
C133 C134 1.523 . S
C134 C115 1.368 . S
C134 C128 1.368 . S
C134 C133 1.523 . S
C135 C119 1.429 . S
C135 C131 1.429 . S
C135 C136 1.523 . S
C136 C120 1.368 . S
C136 C132 1.368 . S
C136 C135 1.523 . S
H137 C112 0.950 . S
H138 C114 0.950 . S
H139 C115 0.949 . S
H140 C117 0.950 . S
H141 C119 0.950 . S
C142 C143 1.349 . S
C142 C144 1.327 . S
C142 H167 0.950 . S
C143 C142 1.349 . S
C143 C159 1.349 . S
C144 C142 1.327 . S
C144 C163 1.429 . S
C144 H168 0.950 . S
C145 C162 1.574 . S
C145 C164 1.368 . S
C145 H169 0.949 . S
H146 C150 0.949 . S
C147 C148 1.349 . S
C147 C149 1.327 . S
C147 H170 0.950 . S
C148 C147 1.349 . S
C148 C160 1.349 . S
C149 C147 1.327 . S
C149 C165 1.429 . S
C149 H171 0.950 . S
C150 H146 0.949 . S
C150 C158 1.574 . S
C150 C166 1.368 . S
H151 C159 0.950 . S
H152 C157 0.950 . S
H153 C158 0.949 . S
H154 C160 0.950 . S
H155 C161 0.950 . S
H156 C162 0.949 . S
C157 H152 0.950 . S
C157 C159 1.327 . S
C157 C163 1.429 . S
C158 C150 1.574 . S
C158 H153 0.949 . S
C158 C164 1.368 . S
C159 C143 1.349 . S
C159 H151 0.950 . S
C159 C157 1.327 . S
C160 C148 1.349 . S
C160 H154 0.950 . S
C160 C161 1.327 . S
C161 H155 0.950 . S
C161 C160 1.327 . S
C161 C165 1.429 . S
C162 C145 1.574 . S
C162 H156 0.949 . S
C162 C166 1.368 . S
C163 C144 1.429 . S
C163 C157 1.429 . S
C163 C164 1.523 . S
C164 C145 1.368 . S
C164 C158 1.368 . S
C164 C163 1.523 . S
C165 C149 1.429 . S
C165 C161 1.429 . S
C165 C166 1.523 . S
C166 C150 1.368 . S
C166 C162 1.368 . S
C166 C165 1.523 . S
H167 C142 0.950 . S
H168 C144 0.950 . S
H169 C145 0.949 . S
H170 C147 0.950 . S
H171 C149 0.950 . S
C172 C173 1.349 . S
C172 C174 1.327 . S
C172 H197 0.950 . S
C173 C172 1.349 . S
C173 C189 1.349 . S
C174 C172 1.327 . S
C174 C193 1.429 . S
C174 H198 0.950 . S
C175 C192 1.574 . S
C175 C194 1.368 . S
C175 H199 0.949 . S
H176 C180 0.949 . S
C177 C178 1.349 . S
C177 C179 1.327 . S
C177 H200 0.950 . S
C178 C177 1.349 . S
C178 C190 1.349 . S
C179 C177 1.327 . S
C179 C195 1.429 . S
C179 H201 0.950 . S
C180 H176 0.949 . S
C180 C188 1.574 . S
C180 C196 1.368 . S
H181 C189 0.950 . S
H182 C187 0.950 . S
H183 C188 0.949 . S
H184 C190 0.950 . S
H185 C191 0.950 . S
H186 C192 0.949 . S
C187 H182 0.950 . S
C187 C189 1.327 . S
C187 C193 1.429 . S
C188 C180 1.574 . S
C188 H183 0.949 . S
C188 C194 1.368 . S
C189 C173 1.349 . S
C189 H181 0.950 . S
C189 C187 1.327 . S
C190 C178 1.349 . S
C190 H184 0.950 . S
C190 C191 1.327 . S
C191 H185 0.950 . S
C191 C190 1.327 . S
C191 C195 1.429 . S
C192 C175 1.574 . S
C192 H186 0.949 . S
C192 C196 1.368 . S
C193 C174 1.429 . S
C193 C187 1.429 . S
C193 C194 1.523 . S
C194 C175 1.368 . S
C194 C188 1.368 . S
C194 C193 1.523 . S
C195 C179 1.429 . S
C195 C191 1.429 . S
C195 C196 1.523 . S
C196 C180 1.368 . S
C196 C192 1.368 . S
C196 C195 1.523 . S
H197 C172 0.950 . S
H198 C174 0.950 . S
H199 C175 0.949 . S
H200 C177 0.950 . S
H201 C179 0.950 . S
C202 C203 1.349 . S
C202 C204 1.327 . S
C202 H227 0.950 . S
C203 C202 1.349 . S
C203 C219 1.349 . S
C204 C202 1.327 . S
C204 C223 1.429 . S
C204 H228 0.950 . S
C205 C222 1.574 . S
C205 C224 1.368 . S
C205 H229 0.949 . S
H206 C210 0.949 . S
C207 C208 1.349 . S
C207 C209 1.327 . S
C207 H230 0.950 . S
C208 C207 1.349 . S
C208 C220 1.349 . S
C209 C207 1.327 . S
C209 C225 1.429 . S
C209 H231 0.950 . S
C210 H206 0.949 . S
C210 C218 1.574 . S
C210 C226 1.368 . S
H211 C219 0.950 . S
H212 C217 0.950 . S
H213 C218 0.949 . S
H214 C220 0.950 . S
H215 C221 0.950 . S
H216 C222 0.949 . S
C217 H212 0.950 . S
C217 C219 1.327 . S
C217 C223 1.429 . S
C218 C210 1.574 . S
C218 H213 0.949 . S
C218 C224 1.368 . S
C219 C203 1.349 . S
C219 H211 0.950 . S
C219 C217 1.327 . S
C220 C208 1.349 . S
C220 H214 0.950 . S
C220 C221 1.327 . S
C221 H215 0.950 . S
C221 C220 1.327 . S
C221 C225 1.429 . S
C222 C205 1.574 . S
C222 H216 0.949 . S
C222 C226 1.368 . S
C223 C204 1.429 . S
C223 C217 1.429 . S
C223 C224 1.523 . S
C224 C205 1.368 . S
C224 C218 1.368 . S
C224 C223 1.523 . S
C225 C209 1.429 . S
C225 C221 1.429 . S
C225 C226 1.523 . S
C226 C210 1.368 . S
C226 C222 1.368 . S
C226 C225 1.523 . S
H227 C202 0.950 . S
H228 C204 0.950 . S
H229 C205 0.949 . S
H230 C207 0.950 . S
H231 C209 0.950 . S
C232 C233 1.349 . S
C232 C234 1.327 . S
C232 H257 0.950 . S
C233 C232 1.349 . S
C233 C249 1.349 . S
C234 C232 1.327 . S
C234 C253 1.429 . S
C234 H258 0.950 . S
C235 C252 1.574 . S
C235 C254 1.368 . S
C235 H259 0.949 . S
H236 C240 0.949 . S
C237 C238 1.349 . S
C237 C239 1.327 . S
C237 H260 0.950 . S
C238 C237 1.349 . S
C238 C250 1.349 . S
C239 C237 1.327 . S
C239 C255 1.429 . S
C239 H261 0.950 . S
C240 H236 0.949 . S
C240 C248 1.574 . S
C240 C256 1.368 . S
H241 C249 0.950 . S
H242 C247 0.950 . S
H243 C248 0.949 . S
H244 C250 0.950 . S
H245 C251 0.950 . S
H246 C252 0.949 . S
C247 H242 0.950 . S
C247 C249 1.327 . S
C247 C253 1.429 . S
C248 C240 1.574 . S
C248 H243 0.949 . S
C248 C254 1.368 . S
C249 C233 1.349 . S
C249 H241 0.950 . S
C249 C247 1.327 . S
C250 C238 1.349 . S
C250 H244 0.950 . S
C250 C251 1.327 . S
C251 H245 0.950 . S
C251 C250 1.327 . S
C251 C255 1.429 . S
C252 C235 1.574 . S
C252 H246 0.949 . S
C252 C256 1.368 . S
C253 C234 1.429 . S
C253 C247 1.429 . S
C253 C254 1.523 . S
C254 C235 1.368 . S
C254 C248 1.368 . S
C254 C253 1.523 . S
C255 C239 1.429 . S
C255 C251 1.429 . S
C255 C256 1.523 . S
C256 C240 1.368 . S
C256 C252 1.368 . S
C256 C255 1.523 . S
H257 C232 0.950 . S
H258 C234 0.950 . S
H259 C235 0.949 . S
H260 C237 0.950 . S
H261 C239 0.950 . S
C262 C263 1.349 . S
C262 C264 1.327 . S
C262 H287 0.950 . S
C263 C262 1.349 . S
C263 C279 1.349 . S
C264 C262 1.327 . S
C264 C283 1.429 . S
C264 H288 0.950 . S
C265 C282 1.574 . S
C265 C284 1.368 . S
C265 H289 0.949 . S
H266 C270 0.949 . S
C267 C268 1.349 . S
C267 C269 1.327 . S
C267 H290 0.950 . S
C268 C267 1.349 . S
C268 C280 1.349 . S
C269 C267 1.327 . S
C269 C285 1.429 . S
C269 H291 0.950 . S
C270 H266 0.949 . S
C270 C278 1.574 . S
C270 C286 1.368 . S
H271 C279 0.950 1_554 S
H272 C277 0.950 . S
H273 C278 0.949 . S
H274 C280 0.950 . S
H275 C281 0.950 . S
H276 C282 0.949 . S
C277 H272 0.950 . S
C277 C279 1.327 . S
C277 C283 1.429 . S
C278 C270 1.574 . S
C278 H273 0.949 . S
C278 C284 1.368 . S
C279 C263 1.349 . S
C279 H271 0.950 1_556 S
C279 C277 1.327 . S
C280 C268 1.349 . S
C280 H274 0.950 . S
C280 C281 1.327 . S
C281 H275 0.950 . S
C281 C280 1.327 . S
C281 C285 1.429 . S
C282 C265 1.574 . S
C282 H276 0.949 . S
C282 C286 1.368 . S
C283 C264 1.429 . S
C283 C277 1.429 . S
C283 C284 1.523 . S
C284 C265 1.368 . S
C284 C278 1.368 . S
C284 C283 1.523 . S
C285 C269 1.429 . S
C285 C281 1.429 . S
C285 C286 1.523 . S
C286 C270 1.368 . S
C286 C282 1.368 . S
C286 C285 1.523 . S
H287 C262 0.950 . S
H288 C264 0.950 . S
H289 C265 0.949 . S
H290 C267 0.950 . S
H291 C269 0.950 . S
C292 C293 1.349 . S
C292 C294 1.327 . S
C292 H317 0.950 . S
C293 C292 1.349 . S
C293 C309 1.349 . S
C294 C292 1.327 . S
C294 C313 1.429 . S
C294 H318 0.950 . S
C295 C312 1.574 . S
C295 C314 1.368 1_556 S
C295 H319 0.949 . S
H296 C300 0.949 . S
C297 C298 1.349 . S
C297 C299 1.327 . S
C297 H320 0.950 . S
C298 C297 1.349 . S
C298 C310 1.349 . S
C299 C297 1.327 . S
C299 C315 1.429 . S
C299 H321 0.950 . S
C300 H296 0.949 . S
C300 C308 1.574 . S
C300 C316 1.368 1_554 S
H301 C309 0.950 . S
H302 C307 0.950 . S
H303 C308 0.949 . S
H304 C310 0.950 . S
H305 C311 0.950 . S
H306 C312 0.949 . S
C307 H302 0.950 . S
C307 C309 1.327 . S
C307 C313 1.429 . S
C308 C300 1.574 . S
C308 H303 0.949 . S
C308 C314 1.368 . S
C309 C293 1.349 . S
C309 H301 0.950 . S
C309 C307 1.327 . S
C310 C298 1.349 . S
C310 H304 0.950 . S
C310 C311 1.327 . S
C311 H305 0.950 . S
C311 C310 1.327 . S
C311 C315 1.429 . S
C312 C295 1.574 . S
C312 H306 0.949 . S
C312 C316 1.368 . S
C313 C294 1.429 . S
C313 C307 1.429 . S
C313 C314 1.523 . S
C314 C295 1.368 1_554 S
C314 C308 1.368 . S
C314 C313 1.523 . S
C315 C299 1.429 . S
C315 C311 1.429 . S
C315 C316 1.523 . S
C316 C300 1.368 1_556 S
C316 C312 1.368 . S
C316 C315 1.523 . S
H317 C292 0.950 . S
H318 C294 0.950 . S
H319 C295 0.949 . S
H320 C297 0.950 . S
H321 C299 0.950 . S
C322 C323 1.349 . S
C322 C324 1.327 . S
C322 H347 0.950 1_554 S
C323 C322 1.349 . S
C323 C339 1.349 . S
C324 C322 1.327 . S
C324 C343 1.429 . S
C324 H348 0.950 . S
C325 C342 1.574 . S
C325 C344 1.368 . S
C325 H349 0.949 . S
H326 C330 0.949 . S
C327 C328 1.349 . S
C327 C329 1.327 . S
C327 H350 0.950 . S
C328 C327 1.349 . S
C328 C340 1.349 . S
C329 C327 1.327 . S
C329 C345 1.429 . S
C329 H351 0.950 . S
C330 H326 0.949 . S
C330 C338 1.574 . S
C330 C346 1.368 . S
H331 C339 0.950 . S
H332 C337 0.950 . S
H333 C338 0.949 . S
H334 C340 0.950 . S
H335 C341 0.950 . S
H336 C342 0.949 . S
C337 H332 0.950 . S
C337 C339 1.327 . S
C337 C343 1.429 . S
C338 C330 1.574 . S
C338 H333 0.949 . S
C338 C344 1.368 . S
C339 C323 1.349 . S
C339 H331 0.950 . S
C339 C337 1.327 . S
C340 C328 1.349 . S
C340 H334 0.950 . S
C340 C341 1.327 . S
C341 H335 0.950 . S
C341 C340 1.327 . S
C341 C345 1.429 . S
C342 C325 1.574 . S
C342 H336 0.949 . S
C342 C346 1.368 . S
C343 C324 1.429 . S
C343 C337 1.429 . S
C343 C344 1.523 . S
C344 C325 1.368 . S
C344 C338 1.368 . S
C344 C343 1.523 . S
C345 C329 1.429 . S
C345 C341 1.429 . S
C345 C346 1.523 . S
C346 C330 1.368 . S
C346 C342 1.368 . S
C346 C345 1.523 . S
H347 C322 0.950 1_556 S
H348 C324 0.950 . S
H349 C325 0.949 . S
H350 C327 0.950 . S
H351 C329 0.950 . S
C352 C353 1.349 . S
C352 C354 1.327 . S
C352 H377 0.950 . S
C353 C352 1.349 . S
C353 C369 1.349 . S
C354 C352 1.327 . S
C354 C373 1.429 . S
C354 H378 0.950 . S
C355 C372 1.574 . S
C355 C374 1.368 . S
C355 H379 0.949 . S
H356 C360 0.949 . S
C357 C358 1.349 . S
C357 C359 1.327 . S
C357 H380 0.950 . S
C358 C357 1.349 . S
C358 C370 1.349 . S
C359 C357 1.327 . S
C359 C375 1.429 . S
C359 H381 0.950 . S
C360 H356 0.949 . S
C360 C368 1.574 . S
C360 C376 1.368 . S
H361 C369 0.950 . S
H362 C367 0.950 . S
H363 C368 0.949 . S
H364 C370 0.950 . S
H365 C371 0.950 . S
H366 C372 0.949 . S
C367 H362 0.950 . S
C367 C369 1.327 . S
C367 C373 1.429 . S
C368 C360 1.574 . S
C368 H363 0.949 . S
C368 C374 1.368 . S
C369 C353 1.349 . S
C369 H361 0.950 . S
C369 C367 1.327 . S
C370 C358 1.349 . S
C370 H364 0.950 . S
C370 C371 1.327 . S
C371 H365 0.950 . S
C371 C370 1.327 . S
C371 C375 1.429 . S
C372 C355 1.574 . S
C372 H366 0.949 . S
C372 C376 1.368 . S
C373 C354 1.429 . S
C373 C367 1.429 . S
C373 C374 1.523 . S
C374 C355 1.368 . S
C374 C368 1.368 . S
C374 C373 1.523 . S
C375 C359 1.429 . S
C375 C371 1.429 . S
C375 C376 1.523 . S
C376 C360 1.368 . S
C376 C372 1.368 . S
C376 C375 1.523 . S
H377 C352 0.950 . S
H378 C354 0.950 . S
H379 C355 0.949 . S
H380 C357 0.950 . S
H381 C359 0.950 . S
C382 C383 1.349 . S
C382 C384 1.327 . S
C382 H407 0.950 . S
C383 C382 1.349 . S
C383 C399 1.349 . S
C384 C382 1.327 . S
C384 C403 1.429 . S
C384 H408 0.950 . S
C385 C402 1.574 . S
C385 C404 1.368 . S
C385 H409 0.949 . S
H386 C390 0.949 . S
C387 C388 1.349 . S
C387 C389 1.327 . S
C387 H410 0.950 . S
C388 C387 1.349 . S
C388 C400 1.349 . S
C389 C387 1.327 . S
C389 C405 1.429 . S
C389 H411 0.950 . S
C390 H386 0.949 . S
C390 C398 1.574 . S
C390 C406 1.368 . S
H391 C399 0.950 . S
H392 C397 0.950 . S
H393 C398 0.949 . S
H394 C400 0.950 . S
H395 C401 0.950 . S
H396 C402 0.949 . S
C397 H392 0.950 . S
C397 C399 1.327 . S
C397 C403 1.429 . S
C398 C390 1.574 . S
C398 H393 0.949 . S
C398 C404 1.368 . S
C399 C383 1.349 . S
C399 H391 0.950 . S
C399 C397 1.327 . S
C400 C388 1.349 . S
C400 H394 0.950 . S
C400 C401 1.327 . S
C401 H395 0.950 . S
C401 C400 1.327 . S
C401 C405 1.429 . S
C402 C385 1.574 . S
C402 H396 0.949 . S
C402 C406 1.368 . S
C403 C384 1.429 . S
C403 C397 1.429 . S
C403 C404 1.523 . S
C404 C385 1.368 . S
C404 C398 1.368 . S
C404 C403 1.523 . S
C405 C389 1.429 . S
C405 C401 1.429 . S
C405 C406 1.523 . S
C406 C390 1.368 . S
C406 C402 1.368 . S
C406 C405 1.523 . S
H407 C382 0.950 . S
H408 C384 0.950 . S
H409 C385 0.949 . S
H410 C387 0.950 . S
H411 C389 0.950 . S
C412 C413 1.349 . S
C412 C414 1.327 1_554 S
C412 H437 0.950 1_554 S
C413 C412 1.349 . S
C413 C429 1.349 . S
C414 C412 1.327 1_556 S
C414 C433 1.429 1_556 S
C414 H438 0.950 . S
C415 C432 1.574 . S
C415 C434 1.368 . S
C415 H439 0.949 . S
H416 C420 0.949 . S
C417 C418 1.349 . S
C417 C419 1.327 1_556 S
C417 H440 0.950 1_546 S
C418 C417 1.349 . S
C418 C430 1.349 . S
C419 C417 1.327 1_554 S
C419 C435 1.429 1_554 S
C419 H441 0.950 . S
C420 H416 0.949 . S
C420 C428 1.574 . S
C420 C436 1.368 . S
H421 C429 0.950 1_655 S
H422 C427 0.950 . S
H423 C428 0.949 . S
H424 C430 0.950 . S
H425 C431 0.950 . S
H426 C432 0.949 . S
C427 H422 0.950 . S
C427 C429 1.327 . S
C427 C433 1.429 . S
C428 C420 1.574 . S
C428 H423 0.949 . S
C428 C434 1.368 1_556 S
C429 C413 1.349 . S
C429 H421 0.950 1_455 S
C429 C427 1.327 . S
C430 C418 1.349 . S
C430 H424 0.950 . S
C430 C431 1.327 . S
C431 H425 0.950 . S
C431 C430 1.327 . S
C431 C435 1.429 . S
C432 C415 1.574 . S
C432 H426 0.949 . S
C432 C436 1.368 1_554 S
C433 C414 1.429 1_554 S
C433 C427 1.429 . S
C433 C434 1.523 . S
C434 C415 1.368 . S
C434 C428 1.368 1_554 S
C434 C433 1.523 . S
C435 C419 1.429 1_556 S
C435 C431 1.429 . S
C435 C436 1.523 . S
C436 C420 1.368 . S
C436 C432 1.368 1_556 S
C436 C435 1.523 . S
H437 C412 0.950 1_556 S
H438 C414 0.950 . S
H439 C415 0.949 . S
H440 C417 0.950 1_564 S
H441 C419 0.950 . S
C442 C443 1.349 . S
C442 C444 1.327 . S
C442 H467 0.950 1_655 S
C443 C442 1.349 . S
C443 C459 1.349 . S
C444 C442 1.327 . S
C444 C463 1.429 . S
C444 H468 0.950 . S
C445 C462 1.574 . S
C445 C464 1.368 . S
C445 H469 0.949 . S
H446 C450 0.949 . S
C447 C448 1.349 . S
C447 C449 1.327 . S
C447 H470 0.950 . S
C448 C447 1.349 . S
C448 C460 1.349 . S
C449 C447 1.327 . S
C449 C465 1.429 . S
C449 H471 0.950 . S
C450 H446 0.949 . S
C450 C458 1.574 . S
C450 C466 1.368 . S
H451 C459 0.950 . S
H452 C457 0.950 . S
H453 C458 0.949 . S
H454 C460 0.950 . S
H455 C461 0.950 . S
H456 C462 0.949 . S
C457 H452 0.950 . S
C457 C459 1.327 . S
C457 C463 1.429 . S
C458 C450 1.574 . S
C458 H453 0.949 . S
C458 C464 1.368 . S
C459 C443 1.349 . S
C459 H451 0.950 . S
C459 C457 1.327 . S
C460 C448 1.349 . S
C460 H454 0.950 . S
C460 C461 1.327 . S
C461 H455 0.950 . S
C461 C460 1.327 . S
C461 C465 1.429 . S
C462 C445 1.574 . S
C462 H456 0.949 . S
C462 C466 1.368 . S
C463 C444 1.429 . S
C463 C457 1.429 . S
C463 C464 1.523 . S
C464 C445 1.368 . S
C464 C458 1.368 . S
C464 C463 1.523 . S
C465 C449 1.429 . S
C465 C461 1.429 . S
C465 C466 1.523 . S
C466 C450 1.368 . S
C466 C462 1.368 . S
C466 C465 1.523 . S
H467 C442 0.950 1_455 S
H468 C444 0.950 . S
H469 C445 0.949 . S
H470 C447 0.950 . S
H471 C449 0.950 . S
C472 C473 1.349 . S
C472 C474 1.327 . S
C472 H497 0.950 . S
C473 C472 1.349 . S
C473 C489 1.349 . S
C474 C472 1.327 . S
C474 C493 1.429 . S
C474 H498 0.950 . S
C475 C492 1.574 . S
C475 C494 1.368 . S
C475 H499 0.949 . S
H476 C480 0.949 . S
C477 C478 1.349 . S
C477 C479 1.327 . S
C477 H500 0.950 . S
C478 C477 1.349 . S
C478 C490 1.349 . S
C479 C477 1.327 . S
C479 C495 1.429 . S
C479 H501 0.950 . S
C480 H476 0.949 . S
C480 C488 1.574 . S
C480 C496 1.368 . S
H481 C489 0.950 . S
H482 C487 0.950 . S
H483 C488 0.949 . S
H484 C490 0.950 . S
H485 C491 0.950 . S
H486 C492 0.949 . S
C487 H482 0.950 . S
C487 C489 1.327 . S
C487 C493 1.429 . S
C488 C480 1.574 . S
C488 H483 0.949 . S
C488 C494 1.368 . S
C489 C473 1.349 . S
C489 H481 0.950 . S
C489 C487 1.327 . S
C490 C478 1.349 . S
C490 H484 0.950 . S
C490 C491 1.327 . S
C491 H485 0.950 . S
C491 C490 1.327 . S
C491 C495 1.429 . S
C492 C475 1.574 . S
C492 H486 0.949 . S
C492 C496 1.368 . S
C493 C474 1.429 . S
C493 C487 1.429 . S
C493 C494 1.523 . S
C494 C475 1.368 . S
C494 C488 1.368 . S
C494 C493 1.523 . S
C495 C479 1.429 . S
C495 C491 1.429 . S
C495 C496 1.523 . S
C496 C480 1.368 . S
C496 C492 1.368 . S
C496 C495 1.523 . S
H497 C472 0.950 . S
H498 C474 0.950 . S
H499 C475 0.949 . S
H500 C477 0.950 . S
H501 C479 0.950 . S
C502 C503 1.349 . S
C502 C504 1.327 . S
C502 H527 0.950 . S
C503 C502 1.349 . S
C503 C519 1.348 1_556 S
C504 C502 1.327 . S
C504 C523 1.429 . S
C504 H528 0.950 . S
C505 C522 1.574 . S
C505 C524 1.368 1_554 S
C505 H529 0.949 . S
H506 C510 0.949 . S
C507 C508 1.349 . S
C507 C509 1.327 . S
C507 H530 0.950 . S
C508 C507 1.349 . S
C508 C520 1.348 1_554 S
C509 C507 1.327 . S
C509 C525 1.429 . S
C509 H531 0.950 . S
C510 H506 0.949 . S
C510 C518 1.574 . S
C510 C526 1.368 1_556 S
H511 C519 0.951 . S
H512 C517 0.950 . S
H513 C518 0.949 . S
H514 C520 0.951 1_455 S
H515 C521 0.950 . S
H516 C522 0.949 . S
C517 H512 0.950 . S
C517 C519 1.327 . S
C517 C523 1.429 1_554 S
C518 C510 1.574 . S
C518 H513 0.949 . S
C518 C524 1.368 . S
C519 C503 1.348 1_554 S
C519 H511 0.951 . S
C519 C517 1.327 . S
C520 C508 1.348 1_556 S
C520 H514 0.951 1_655 S
C520 C521 1.327 . S
C521 H515 0.950 . S
C521 C520 1.327 . S
C521 C525 1.429 1_556 S
C522 C505 1.574 . S
C522 H516 0.949 . S
C522 C526 1.368 . S
C523 C504 1.429 . S
C523 C517 1.429 1_556 S
C523 C524 1.523 . S
C524 C505 1.368 1_556 S
C524 C518 1.368 . S
C524 C523 1.523 . S
C525 C509 1.429 . S
C525 C521 1.429 1_554 S
C525 C526 1.523 . S
C526 C510 1.368 1_554 S
C526 C522 1.368 . S
C526 C525 1.523 . S
H527 C502 0.950 . S
H528 C504 0.950 . S
H529 C505 0.949 . S
H530 C507 0.950 . S
H531 C509 0.950 . S
C532 C533 1.349 . S
C532 C534 1.327 . S
C532 H557 0.950 1_455 S
C533 C532 1.349 . S
C533 C549 1.349 . S
C534 C532 1.327 . S
C534 C553 1.429 . S
C534 H558 0.950 . S
C535 C552 1.574 . S
C535 C554 1.368 . S
C535 H559 0.949 . S
H536 C540 0.949 . S
C537 C538 1.349 . S
C537 C539 1.327 . S
C537 H560 0.950 . S
C538 C537 1.349 . S
C538 C550 1.349 . S
C539 C537 1.327 . S
C539 C555 1.429 . S
C539 H561 0.950 . S
C540 H536 0.949 . S
C540 C548 1.574 . S
C540 C556 1.368 . S
H541 C549 0.950 . S
H542 C547 0.950 . S
H543 C548 0.949 . S
H544 C550 0.950 . S
H545 C551 0.950 . S
H546 C552 0.949 . S
C547 H542 0.950 . S
C547 C549 1.327 . S
C547 C553 1.429 . S
C548 C540 1.574 . S
C548 H543 0.949 . S
C548 C554 1.368 . S
C549 C533 1.349 . S
C549 H541 0.950 . S
C549 C547 1.327 . S
C550 C538 1.349 . S
C550 H544 0.950 . S
C550 C551 1.327 . S
C551 H545 0.950 . S
C551 C550 1.327 . S
C551 C555 1.429 . S
C552 C535 1.574 . S
C552 H546 0.949 . S
C552 C556 1.368 . S
C553 C534 1.429 . S
C553 C547 1.429 . S
C553 C554 1.523 . S
C554 C535 1.368 . S
C554 C548 1.368 . S
C554 C553 1.523 . S
C555 C539 1.429 . S
C555 C551 1.429 . S
C555 C556 1.523 . S
C556 C540 1.368 . S
C556 C552 1.368 . S
C556 C555 1.523 . S
H557 C532 0.950 1_655 S
H558 C534 0.950 . S
H559 C535 0.949 . S
H560 C537 0.950 . S
H561 C539 0.950 . S
C562 C563 1.349 . S
C562 C564 1.327 . S
C562 H587 0.950 . S
C563 C562 1.349 . S
C563 C579 1.349 . S
C564 C562 1.327 . S
C564 C583 1.429 . S
C564 H588 0.950 . S
C565 C582 1.574 . S
C565 C584 1.368 . S
C565 H589 0.949 . S
H566 C570 0.949 . S
C567 C568 1.349 . S
C567 C569 1.327 . S
C567 H590 0.950 . S
C568 C567 1.349 . S
C568 C580 1.349 . S
C569 C567 1.327 . S
C569 C585 1.429 . S
C569 H591 0.950 . S
C570 H566 0.949 . S
C570 C578 1.574 . S
C570 C586 1.368 . S
H571 C579 0.950 . S
H572 C577 0.950 . S
H573 C578 0.949 . S
H574 C580 0.950 . S
H575 C581 0.950 . S
H576 C582 0.949 . S
C577 H572 0.950 . S
C577 C579 1.327 . S
C577 C583 1.429 . S
C578 C570 1.574 . S
C578 H573 0.949 . S
C578 C584 1.368 . S
C579 C563 1.349 . S
C579 H571 0.950 . S
C579 C577 1.327 . S
C580 C568 1.349 . S
C580 H574 0.950 . S
C580 C581 1.327 . S
C581 H575 0.950 . S
C581 C580 1.327 . S
C581 C585 1.429 . S
C582 C565 1.574 . S
C582 H576 0.949 . S
C582 C586 1.368 . S
C583 C564 1.429 . S
C583 C577 1.429 . S
C583 C584 1.523 . S
C584 C565 1.368 . S
C584 C578 1.368 . S
C584 C583 1.523 . S
C585 C569 1.429 . S
C585 C581 1.429 . S
C585 C586 1.523 . S
C586 C570 1.368 . S
C586 C582 1.368 . S
C586 C585 1.523 . S
H587 C562 0.950 . S
H588 C564 0.950 . S
H589 C565 0.949 . S
H590 C567 0.950 . S
H591 C569 0.950 . S
C113 C25 1.326 . S
C118 C11 1.326 . S
C143 C19 1.217 . S
C148 C33 1.217 . S
C173 C53 1.326 . S
C178 C39 1.326 . S
C203 C47 1.217 . S
C208 C5 1.217 . S
C233 C67 1.326 . S
C238 C81 1.326 . S
C263 C75 1.217 . S
C268 C89 1.217 . S
C293 C95 1.326 . S
C298 C109 1.326 . S
C323 C61 1.217 . S
C328 C103 1.217 . S
C353 C12 1.468 . S
C358 C110 1.468 . S
C383 C60 1.398 1_565 S
C388 C18 1.398 . S
C413 C82 1.468 1_455 S
C418 C40 1.468 1_545 S
C443 C46 1.398 1_655 S
C448 C88 1.398 . S
C473 C32 1.398 1_545 S
C478 C102 1.398 . S
C503 C68 1.468 1_565 S
C508 C54 1.468 1_655 S
C533 C74 1.398 1_455 S
C538 C4 1.398 . S
C563 C26 1.468 . S
C568 C96 1.468 . S
