# Generated by pormake.
# Topology bsn, (6)-cn, num edge types: 1
# Building blocks:
#     Node 0, Type 0, BuildingBlock: UKALOJ_clean_sbu_0, # of connection points: 6
#     Node 1, Type 0, BuildingBlock: UKALOJ_clean_sbu_0, # of connection points: 6
#     Node 2, Type 0, BuildingBlock: UKALOJ_clean_sbu_0, # of connection points: 6
#     Node 3, Type 0, BuildingBlock: UKALOJ_clean_sbu_0, # of connection points: 6
#     Edge 4, Type (0, 0), BuildingBlock: XIVTED_clean_linker_0, # of connection points: 2
#     Edge 5, Type (0, 0), BuildingBlock: XIVTED_clean_linker_0, # of connection points: 2
#     Edge 6, Type (0, 0), BuildingBlock: XIVTED_clean_linker_0, # of connection points: 2
#     Edge 7, Type (0, 0), BuildingBlock: XIVTED_clean_linker_0, # of connection points: 2
#     Edge 8, Type (0, 0), BuildingBlock: XIVTED_clean_linker_0, # of connection points: 2
#     Edge 9, Type (0, 0), BuildingBlock: XIVTED_clean_linker_0, # of connection points: 2
#     Edge 10, Type (0, 0), BuildingBlock: XIVTED_clean_linker_0, # of connection points: 2
#     Edge 11, Type (0, 0), BuildingBlock: XIVTED_clean_linker_0, # of connection points: 2
#     Edge 12, Type (0, 0), BuildingBlock: XIVTED_clean_linker_0, # of connection points: 2
#     Edge 13, Type (0, 0), BuildingBlock: XIVTED_clean_linker_0, # of connection points: 2
#     Edge 14, Type (0, 0), BuildingBlock: XIVTED_clean_linker_0, # of connection points: 2
#     Edge 15, Type (0, 0), BuildingBlock: XIVTED_clean_linker_0, # of connection points: 2
# Relax obj value: 0.178
# Max RMSD: 0.166
# Mean RMSD: 0.152
data_MOF--net-bsn--node1-UKALOJ_clean_sbu_0--edge1-XIVTED_clean_linker_0
_symmetry_space_group_name_H-M    P1
_symmetry_Int_Tables_number       1
_symmetry_cell_setting            triclinic
loop_
_symmetry_equiv_pos_as_xyz
'x, y, z'
_cell_length_a     31.195899
_cell_length_b     36.230996
_cell_length_c     15.531306
_cell_angle_alpha  89.100044
_cell_angle_beta   95.731106
_cell_angle_gamma 89.203211
loop_
_atom_site_label
_atom_site_type_symbol
_atom_site_fract_x
_atom_site_fract_y
_atom_site_fract_z
_atom_type_partial_charge
Zn0 Zn 0.04999 0.31544 0.31631 0.0
O1 O 0.98159 0.31335 0.31043 0.0
C2 C 0.05485 0.28907 0.49576 0.0
Zn3 Zn 0.0517 0.25346 0.31987 0.0
C4 C 0.96182 0.28276 0.31103 0.0
O5 O 0.98334 0.25249 0.31431 0.0
C6 C 0.1399 0.28608 0.32427 0.0
O7 O 0.04873 0.24944 0.18342 0.0
O8 O 0.04656 0.31008 0.18026 0.0
N9 N 0.05818 0.19706 0.33826 0.0
C10 C 0.03873 0.16641 0.30581 0.0
C11 C 0.09167 0.14863 0.39485 0.0
N12 N 0.09082 0.18571 0.39381 0.0
N13 N 0.05935 0.13559 0.34033 0.0
C14 C 0.03415 0.40148 0.33951 0.0
C15 C 0.06898 0.42235 0.2384 0.0
N16 N 0.04923 0.37206 0.29854 0.0
N17 N 0.07056 0.38529 0.23556 0.0
N18 N 0.04623 0.43336 0.30283 0.0
H19 H 0.98882 0.42273 0.42324 0.0
H20 H 0.03497 0.39867 0.47681 0.0
H21 H 0.99263 0.37275 0.41957 0.0
C22 C 1.01095 0.39876 0.41908 0.0
C23 C 1.00113 0.16689 0.23798 0.0
H24 H 0.9979 0.19397 0.20359 0.0
H25 H 0.97126 0.1621 0.26951 0.0
H26 H 1.00464 0.14448 0.19118 0.0
O27 O 0.11992 0.2558 0.32494 0.0
O28 O 0.1185 0.31624 0.32186 0.0
C29 C 0.04691 0.27971 0.14041 0.0
O30 O 0.05353 0.31935 0.45284 0.0
O31 O 0.05479 0.25871 0.45582 0.0
Zn32 Zn 0.99268 0.78528 0.33321 0.0
O33 O 0.99139 0.72575 0.33744 0.0
C34 C 0.0298 0.78621 0.51874 0.0
Zn35 Zn 0.06412 0.78314 0.34899 0.0
C36 C 0.02664 0.70736 0.34759 0.0
O37 O 0.06193 0.72467 0.35419 0.0
C38 C 0.03103 0.86095 0.33261 0.0
O39 O 0.06234 0.78192 0.21278 0.0
O40 O 0.99149 0.78373 0.19712 0.0
N41 N 0.12958 0.7795 0.36061 0.0
C42 C 0.15923 0.79419 0.41879 0.0
C43 C 0.19129 0.75329 0.35059 0.0
N44 N 0.14968 0.75441 0.31753 0.0
N45 N 0.19808 0.7782 0.41372 0.0
C46 C 0.90026 0.77436 0.38097 0.0
C47 C 0.86564 0.81714 0.30715 0.0
N48 N 0.9271 0.78876 0.32679 0.0
N49 N 0.9053 0.81496 0.28003 0.0
N50 N 0.86161 0.79187 0.37036 0.0
H51 H 0.94653 0.7364 0.45208 0.0
H52 H 0.89204 0.72161 0.44083 0.0
H53 H 0.90753 0.75748 0.515 0.0
C54 C 0.91285 0.74602 0.45102 0.0
C55 C 0.14966 0.82104 0.48714 0.0
H56 H 0.11791 0.8348 0.47222 0.0
H57 H 0.17481 0.84243 0.49365 0.0
H58 H 0.15049 0.80617 0.55028 0.0
O59 O 0.06568 0.84177 0.34237 0.0
O60 O 0.9951 0.8445 0.32725 0.0
C61 C 0.02712 0.78251 0.16377 0.0
O62 O 0.99487 0.78787 0.46959 0.0
O63 O 0.06512 0.78372 0.48529 0.0
Zn64 Zn 0.55796 0.82232 0.79304 0.0
O65 O 0.49016 0.82071 0.78566 0.0
C66 C 0.56584 0.7926 -0.02585 0.0
Zn67 Zn 0.56153 0.76104 0.79829 0.0
C68 C 0.47145 0.78979 0.7838 0.0
O69 O 0.494 0.76027 0.79067 0.0
C70 C 0.64756 0.79278 0.79347 0.0
O71 O 0.55751 0.76109 0.66111 0.0
O72 O 0.55383 0.82179 0.65671 0.0
N73 N 0.56463 0.70471 0.80388 0.0
C74 C 0.55046 0.68123 0.86254 0.0
C75 C 0.58849 0.64967 0.78299 0.0
N76 N 0.58799 0.68501 0.75398 0.0
N77 N 0.56537 0.64677 0.85141 0.0
C78 C 0.53659 0.90179 0.84318 0.0
C79 C 0.58545 0.93263 0.78958 0.0
N80 N 0.55743 0.87866 0.79385 0.0
N81 N 0.58749 0.89796 0.75982 0.0
N82 N 0.55399 0.93566 0.8426 0.0
H83 H 0.47192 0.88234 0.83812 0.0
H84 H 0.48393 0.91602 0.91907 0.0
H85 H 0.5049 0.86947 0.93543 0.0
C86 C 0.49738 0.89196 0.88709 0.0
C87 C 0.52116 0.69144 0.92972 0.0
H88 H 0.54062 0.6964 -0.00813 0.0
H89 H 0.49911 0.6684 0.9404 0.0
H90 H 0.50189 0.71661 0.91107 0.0
O91 O 0.62868 0.76223 0.8004 0.0
O92 O 0.62584 0.82268 0.79455 0.0
C93 C 0.55494 0.79125 0.61753 0.0
O94 O 0.56276 0.82239 0.92993 0.0
O95 O 0.56649 0.76213 0.93523 0.0
Zn96 Zn 0.55037 0.25549 0.30438 0.0
O97 O 0.5539 0.25594 0.44089 0.0
C98 C 0.46078 0.28688 0.29676 0.0
Zn99 Zn 0.5493 0.31688 0.30021 0.0
C100 C 0.55406 0.28649 0.48029 0.0
O101 O 0.55279 0.31668 0.43698 0.0
C102 C 0.54552 0.28576 0.12408 0.0
O103 O 0.61782 0.316 0.30735 0.0
O104 O 0.61879 0.25549 0.31007 0.0
N105 N 0.54777 0.37325 0.29509 0.0
C106 C 0.56232 0.39647 0.23634 0.0
C107 C 0.52501 0.42863 0.31607 0.0
N108 N 0.52486 0.39332 0.3451 0.0
N109 N 0.54809 0.43115 0.2475 0.0
C110 C 0.53454 0.17607 0.24278 0.0
C111 C 0.57935 0.14436 0.32719 0.0
N112 N 0.55201 0.19907 0.30358 0.0
N113 N 0.57955 0.17922 0.35657 0.0
N114 N 0.55156 0.14181 0.25545 0.0
H115 H 0.48021 0.21007 0.18983 0.0
H116 H 0.47912 0.16278 0.15532 0.0
H117 H 0.51518 0.19468 0.11252 0.0
C118 C 0.50019 0.18664 0.17154 0.0
C119 C 0.59132 0.38577 0.169 0.0
H120 H 0.6106 0.36068 0.18838 0.0
H121 H 0.61339 0.40866 0.15717 0.0
H122 H 0.57164 0.38042 0.10727 0.0
O123 O 0.5449 0.31613 0.16329 0.0
O124 O 0.54766 0.25589 0.16788 0.0
C125 C 0.63902 0.28571 0.3101 0.0
O126 O 0.48184 0.25648 0.30031 0.0
O127 O 0.48109 0.317 0.29475 0.0
H128 H 0.11077 0.47939 0.34718 0.0
H129 H 0.95793 0.65979 0.33146 0.0
H130 H 0.97255 0.47357 0.31107 0.0
H131 H 0.09682 0.66103 0.37178 0.0
H132 H 0.96108 0.59195 0.33293 0.0
H133 H 0.10502 0.54597 0.36771 0.0
C134 C 0.07914 0.49227 0.34532 0.0
C135 C 0.04212 0.4711 0.32876 0.0
C136 C 0.9908 0.60714 0.34186 0.0
C137 C 0.03492 0.5476 0.34961 0.0
C138 C 0.98904 0.64587 0.34089 0.0
C139 C 0.02718 0.66628 0.35093 0.0
C140 C 0.03097 0.58866 0.353 0.0
C141 C 0.06653 0.64666 0.36329 0.0
C142 C 0.07576 0.53028 0.35651 0.0
C143 C 1.00178 0.48898 0.3255 0.0
N144 N 0.06735 0.60915 0.36365 0.0
N145 N 0.9992 0.52631 0.33512 0.0
H146 H 0.69828 0.73348 0.76051 0.0
H147 H 0.83634 0.85201 0.45247 0.0
H148 H 0.69292 0.85261 0.745 0.0
H149 H 0.81764 0.73484 0.43148 0.0
H150 H 0.79156 0.85293 0.57346 0.0
H151 H 0.75393 0.73356 0.66098 0.0
C152 C 0.70963 0.75974 0.73822 0.0
C153 C 0.69021 0.79309 0.75984 0.0
C154 C 0.79723 0.827 0.54242 0.0
C155 C 0.75323 0.79324 0.64432 0.0
C156 C 0.82223 0.82658 0.47286 0.0
C157 C 0.83063 0.79326 0.43263 0.0
C158 C 0.78066 0.7938 0.57191 0.0
C159 C 0.81232 0.76092 0.46191 0.0
C160 C 0.74104 0.7597 0.68042 0.0
C161 C 0.70655 0.82621 0.7293 0.0
N162 N 0.78829 0.76194 0.5301 0.0
N163 N 0.73664 0.82543 0.67185 0.0
H164 H 0.52592 0.43291 0.07533 0.0
H165 H 0.58786 0.64493 0.02341 0.0
H166 H 0.57196 0.50038 0.28977 0.0
H167 H 0.54184 0.57747 0.80896 0.0
H168 H 0.58261 0.59235 0.12203 0.0
H169 H 0.53142 0.48541 -0.02335 0.0
C170 C 0.53777 0.45881 0.10121 0.0
C171 C 0.5497 0.46233 0.19006 0.0
C172 C 0.57344 0.58895 0.05355 0.0
C173 C 0.55509 0.52272 0.07837 0.0
C174 C 0.57612 0.619 -0.00248 0.0
C175 C 0.56411 0.6155 0.9087 0.0
C176 C 0.55895 0.55505 0.02029 0.0
C177 C 0.55092 0.58108 0.87736 0.0
C178 C 0.54056 0.48883 0.04513 0.0
C179 C 0.56296 0.49674 0.22136 0.0
N180 N 0.54843 0.55211 0.93327 0.0
N181 N 0.56556 0.52567 0.1654 0.0
H182 H 0.90875 0.22292 0.31115 0.0
H183 H 0.69221 0.34526 0.30742 0.0
H184 H 0.90614 0.34211 0.308 0.0
H185 H 0.69454 0.22608 0.31521 0.0
H186 H 0.77052 0.34455 0.30702 0.0
H187 H 0.83035 0.22342 0.31144 0.0
C188 C 0.89173 0.24921 0.31038 0.0
C189 C 0.91418 0.28253 0.30953 0.0
C190 C 0.75394 0.31854 0.30894 0.0
C191 C 0.82425 0.28328 0.31 0.0
C192 C 0.70917 0.31891 0.30928 0.0
C193 C 0.68666 0.28567 0.3115 0.0
C194 C 0.77657 0.28467 0.31072 0.0
C195 C 0.71047 0.2524 0.31356 0.0
C196 C 0.84692 0.24947 0.31062 0.0
C197 C 0.89029 0.31573 0.30857 0.0
N198 N 0.75406 0.25276 0.31307 0.0
N199 N 0.84672 0.31524 0.30888 0.0
H200 H 0.40618 0.34695 0.29427 0.0
H201 H 0.19485 0.22633 0.32797 0.0
H202 H 0.40705 0.22778 0.30319 0.0
H203 H 0.19329 0.34548 0.31663 0.0
H204 H 0.27261 0.22645 0.32012 0.0
H205 H 0.32833 0.34704 0.30209 0.0
C206 C 0.39002 0.32077 0.29757 0.0
C207 C 0.4133 0.28729 0.29813 0.0
C208 C 0.25532 0.25259 0.31948 0.0
C209 C 0.32398 0.28723 0.30752 0.0
C210 C 0.21085 0.25256 0.32413 0.0
C211 C 0.18739 0.28597 0.32297 0.0
C212 C 0.2767 0.28626 0.31356 0.0
C213 C 0.21 0.31906 0.31781 0.0
C214 C 0.34552 0.32086 0.30221 0.0
C215 C 0.39051 0.25426 0.30263 0.0
N216 N 0.25334 0.31836 0.31319 0.0
N217 N 0.34719 0.25508 0.30727 0.0
H218 H 0.42168 0.72838 0.7745 0.0
H219 H 0.2258 0.72259 0.52143 0.0
H220 H 0.41541 0.84628 0.72945 0.0
H221 H 0.25093 0.83511 0.45288 0.0
H222 H 0.28576 0.7236 0.63449 0.0
H223 H 0.35119 0.72302 0.69626 0.0
C224 C 0.40484 0.75334 0.75006 0.0
C225 C 0.42479 0.78775 0.75745 0.0
C226 C 0.27912 0.74804 0.59445 0.0
C227 C 0.34319 0.78204 0.66692 0.0
C228 C 0.24475 0.74733 0.52996 0.0
C229 C 0.23434 0.77858 0.47774 0.0
C230 C 0.30375 0.7802 0.60547 0.0
C231 C 0.25857 0.81044 0.49192 0.0
C232 C 0.36419 0.75032 0.70496 0.0
C233 C 0.4014 0.81913 0.72477 0.0
N234 N 0.29242 0.81038 0.55419 0.0
N235 N 0.36214 0.81543 0.67967 0.0
H236 H 0.55086 0.9293 0.01545 0.0
H237 H 0.56215 0.14662 0.08545 0.0
H238 H 0.55101 1.00873 0.80622 0.0
H239 H 0.5404 0.06938 0.28951 0.0
H240 H 0.55937 0.0963 -0.0171 0.0
H241 H 0.54787 0.97973 0.11744 0.0
C242 C 0.54923 0.95748 -0.00908 0.0
C243 C 0.54972 0.96507 0.90214 0.0
C244 C 0.55467 0.09026 0.04978 0.0
C245 C 0.5481 1.02285 0.01861 0.0
C246 C 0.55575 0.11905 0.10809 0.0
C247 C 0.54989 0.11213 0.19517 0.0
C248 C 0.54845 0.05409 0.07902 0.0
C249 C 0.54437 0.07567 0.22245 0.0
C250 C 0.54798 0.98622 0.04917 0.0
C251 C 0.5499 1.00194 0.87406 0.0
N252 N 0.54367 0.04789 0.16441 0.0
N253 N 0.54904 1.02954 0.93215 0.0
H254 H 0.96375 0.91166 0.31872 0.0
H255 H 0.12087 0.08508 0.31936 0.0
H256 H 0.10248 0.90386 0.33316 0.0
H257 H 0.98381 0.09762 0.3265 0.0
H258 H 0.11277 1.01839 0.31065 0.0
H259 H 0.96851 0.97922 0.31034 0.0
C260 C 0.99518 0.92408 0.31999 0.0
C261 C 0.0328 0.90192 0.32692 0.0
C262 C 0.08425 1.03556 0.31324 0.0
C263 C 0.03838 0.97923 0.31684 0.0
C264 C 0.0889 0.07368 0.31789 0.0
C265 C 0.05297 0.09694 0.32298 0.0
C266 C 0.04327 1.02015 0.31457 0.0
C267 C 1.01224 0.08075 0.32107 0.0
C268 C 0.99784 0.96266 0.31512 0.0
C269 C 0.07259 0.91964 0.32813 0.0
N270 N 1.00849 0.04326 0.31764 0.0
N271 N 0.07427 0.95707 0.3232 0.0
H272 H 0.05013 0.2208 0.03175 0.0
H273 H 0.05085 0.34796 0.60424 0.0
H274 H 0.04365 0.33994 0.03177 0.0
H275 H 0.05855 0.22886 0.60451 0.0
H276 H 0.04825 0.34564 0.76118 0.0
H277 H 0.05256 0.22312 0.87475 0.0
C278 C 0.04907 0.24742 -0.00121 0.0
C279 C 0.04672 0.2802 0.04508 0.0
C280 C 0.05059 0.32002 0.72685 0.0
C281 C 0.04967 0.28311 0.86552 0.0
C282 C 0.05217 0.32136 0.63726 0.0
C283 C 0.05493 0.28859 0.59107 0.0
C284 C 0.05174 0.28567 0.77056 0.0
C285 C 0.05641 0.25487 0.63733 0.0
C286 C 0.05054 0.24875 0.90916 0.0
C287 C 0.04548 0.31393 -0.00112 0.0
N288 N 0.05474 0.2543 0.72437 0.0
N289 N 0.04703 0.3145 0.91181 0.0
H290 H 0.95993 0.79511 0.61006 0.0
H291 H 0.09744 0.77755 0.07238 0.0
H292 H 0.09783 0.7777 0.64373 0.0
H293 H 0.95864 0.78753 0.03876 0.0
H294 H 0.09831 0.77877 0.91551 0.0
H295 H 0.95897 0.79384 0.76694 0.0
C296 C 0.99004 0.791 0.65041 0.0
C297 C 0.02904 0.78643 0.61364 0.0
C298 C 0.06765 0.78064 0.94239 0.0
C299 C 0.02816 0.78507 0.79346 0.0
C300 C 0.06711 0.77994 0.03203 0.0
C301 C 0.02788 0.78245 0.06882 0.0
C302 C 0.0287 0.78397 0.88897 0.0
C303 C 0.98962 0.78549 0.01325 0.0
C304 C 0.98945 0.7903 0.74005 0.0
C305 C 0.06706 0.78146 0.66921 0.0
N306 N 0.991 0.78623 0.92608 0.0
N307 N 0.06565 0.78089 0.75635 0.0
H308 H 0.55348 0.85216 0.07585 0.0
H309 H 0.56342 0.73159 0.51409 0.0
H310 H 0.58035 0.7349 0.09002 0.0
H311 H 0.54799 0.85026 0.5043 0.0
H312 H 0.56746 0.73208 0.35787 0.0
H313 H 0.55046 0.85204 0.23239 0.0
C314 C 0.55882 0.82637 0.11181 0.0
C315 C 0.56658 0.79335 0.06945 0.0
C316 C 0.56314 0.75801 0.38987 0.0
C317 C 0.56299 0.79302 0.24874 0.0
C318 C 0.56066 0.75774 0.47907 0.0
C319 C 0.55533 0.79094 0.52242 0.0
C320 C 0.56017 0.79171 0.34349 0.0
C321 C 0.55211 0.824 0.47362 0.0
C322 C 0.557 0.82632 0.20123 0.0
C323 C 0.57345 0.76085 0.11957 0.0
N324 N 0.55459 0.82354 0.38681 0.0
N325 N 0.57133 0.76147 0.20645 0.0
H326 H 0.54622 0.34632 0.58341 0.0
H327 H 0.5631 0.22714 0.02368 0.0
H328 H 0.56148 0.22764 0.59396 0.0
H329 H 0.52832 0.34296 0.0077 0.0
H330 H 0.56542 0.22712 0.86712 0.0
H331 H 0.5435 0.34615 0.74001 0.0
C332 C 0.54919 0.32023 0.61866 0.0
C333 C 0.55407 0.28692 0.57545 0.0
C334 C 0.55719 0.25253 0.89782 0.0
C335 C 0.55085 0.28656 0.75477 0.0
C336 C 0.55563 0.25252 -0.01276 0.0
C337 C 0.54552 0.28513 0.02898 0.0
C338 C 0.5488 0.28542 0.8497 0.0
C339 C 0.53674 0.31731 -0.02155 0.0
C340 C 0.54747 0.32015 0.70807 0.0
C341 C 0.55763 0.25396 0.62453 0.0
N342 N 0.53869 0.31666 0.89148 0.0
N343 N 0.55597 0.25462 0.71157 0.0
loop_
_geom_bond_atom_site_label_1
_geom_bond_atom_site_label_2
_geom_bond_distance
_geom_bond_site_symmetry_2
_ccdc_geom_bond_type
Zn0 O1 2.055 1_455 S
Zn0 O8 2.046 . S
Zn0 N16 2.036 . S
Zn0 O28 2.053 . S
Zn0 O30 2.066 . S
O1 Zn0 2.055 1_655 S
O1 C4 1.259 . S
C2 O30 1.256 . S
C2 O31 1.244 . S
Zn3 O5 2.046 1_455 S
Zn3 O7 2.055 . S
Zn3 N9 2.036 . S
Zn3 O27 2.066 . S
Zn3 O31 2.053 . S
C4 O1 1.259 . S
C4 O5 1.254 . S
O5 Zn3 2.046 1_655 S
O5 C4 1.254 . S
C6 O27 1.256 . S
C6 O28 1.244 . S
O7 Zn3 2.055 . S
O7 C29 1.259 . S
O8 Zn0 2.046 . S
O8 C29 1.254 . S
N9 Zn3 2.036 . S
N9 C10 1.298 . S
N9 N12 1.398 . S
C10 N9 1.298 . S
C10 N13 1.367 . S
C10 C23 1.481 . S
C11 N12 1.299 . S
C11 N13 1.379 . S
N12 N9 1.398 . S
N12 C11 1.299 . S
N13 C10 1.367 . S
N13 C11 1.379 . S
C14 N16 1.298 . S
C14 N18 1.367 . S
C14 C22 1.481 1_455 S
C15 N17 1.299 . S
C15 N18 1.379 . S
N16 Zn0 2.036 . S
N16 C14 1.298 . S
N16 N17 1.398 . S
N17 C15 1.299 . S
N17 N16 1.398 . S
N18 C14 1.367 . S
N18 C15 1.379 . S
H19 C22 0.980 . S
H20 C22 0.981 . S
H21 C22 0.981 . S
C22 C14 1.481 1_655 S
C22 H19 0.980 . S
C22 H20 0.981 . S
C22 H21 0.981 . S
C23 C10 1.481 . S
C23 H24 0.980 . S
C23 H25 0.981 . S
C23 H26 0.981 . S
H24 C23 0.980 . S
H25 C23 0.981 . S
H26 C23 0.981 . S
O27 Zn3 2.066 . S
O27 C6 1.256 . S
O28 Zn0 2.053 . S
O28 C6 1.244 . S
C29 O7 1.259 . S
C29 O8 1.254 . S
O30 Zn0 2.066 . S
O30 C2 1.256 . S
O31 C2 1.244 . S
O31 Zn3 2.053 . S
Zn32 O33 2.055 . S
Zn32 O40 2.046 . S
Zn32 N48 2.036 . S
Zn32 O60 2.053 . S
Zn32 O62 2.066 . S
O33 Zn32 2.055 . S
O33 C36 1.259 1_655 S
C34 O62 1.256 1_455 S
C34 O63 1.244 . S
Zn35 O37 2.046 . S
Zn35 O39 2.055 . S
Zn35 N41 2.036 . S
Zn35 O59 2.066 . S
Zn35 O63 2.053 . S
C36 O33 1.259 1_455 S
C36 O37 1.254 . S
O37 Zn35 2.046 . S
O37 C36 1.254 . S
C38 O59 1.256 . S
C38 O60 1.244 1_455 S
O39 Zn35 2.055 . S
O39 C61 1.259 . S
O40 Zn32 2.046 . S
O40 C61 1.254 1_655 S
N41 Zn35 2.036 . S
N41 C42 1.298 . S
N41 N44 1.398 . S
C42 N41 1.298 . S
C42 N45 1.367 . S
C42 C55 1.481 . S
C43 N44 1.299 . S
C43 N45 1.379 . S
N44 N41 1.398 . S
N44 C43 1.299 . S
N45 C42 1.367 . S
N45 C43 1.379 . S
C46 N48 1.298 . S
C46 N50 1.367 . S
C46 C54 1.481 . S
C47 N49 1.299 . S
C47 N50 1.379 . S
N48 Zn32 2.036 . S
N48 C46 1.298 . S
N48 N49 1.398 . S
N49 C47 1.299 . S
N49 N48 1.398 . S
N50 C46 1.367 . S
N50 C47 1.379 . S
H51 C54 0.980 . S
H52 C54 0.981 . S
H53 C54 0.981 . S
C54 C46 1.481 . S
C54 H51 0.980 . S
C54 H52 0.981 . S
C54 H53 0.981 . S
C55 C42 1.481 . S
C55 H56 0.980 . S
C55 H57 0.981 . S
C55 H58 0.981 . S
H56 C55 0.980 . S
H57 C55 0.981 . S
H58 C55 0.981 . S
O59 Zn35 2.066 . S
O59 C38 1.256 . S
O60 Zn32 2.053 . S
O60 C38 1.244 1_655 S
C61 O39 1.259 . S
C61 O40 1.254 1_455 S
O62 Zn32 2.066 . S
O62 C34 1.256 1_655 S
O63 C34 1.244 . S
O63 Zn35 2.053 . S
Zn64 O65 2.055 . S
Zn64 O72 2.046 . S
Zn64 N80 2.036 . S
Zn64 O92 2.053 . S
Zn64 O94 2.066 . S
O65 Zn64 2.055 . S
O65 C68 1.259 . S
C66 O94 1.256 1_554 S
C66 O95 1.244 1_554 S
Zn67 O69 2.046 . S
Zn67 O71 2.055 . S
Zn67 N73 2.036 . S
Zn67 O91 2.066 . S
Zn67 O95 2.053 . S
C68 O65 1.259 . S
C68 O69 1.254 . S
O69 Zn67 2.046 . S
O69 C68 1.254 . S
C70 O91 1.256 . S
C70 O92 1.244 . S
O71 Zn67 2.055 . S
O71 C93 1.259 . S
O72 Zn64 2.046 . S
O72 C93 1.254 . S
N73 Zn67 2.036 . S
N73 C74 1.298 . S
N73 N76 1.398 . S
C74 N73 1.298 . S
C74 N77 1.367 . S
C74 C87 1.481 . S
C75 N76 1.299 . S
C75 N77 1.379 . S
N76 N73 1.398 . S
N76 C75 1.299 . S
N77 C74 1.367 . S
N77 C75 1.379 . S
C78 N80 1.298 . S
C78 N82 1.367 . S
C78 C86 1.481 . S
C79 N81 1.299 . S
C79 N82 1.379 . S
N80 Zn64 2.036 . S
N80 C78 1.298 . S
N80 N81 1.398 . S
N81 C79 1.299 . S
N81 N80 1.398 . S
N82 C78 1.367 . S
N82 C79 1.379 . S
H83 C86 0.980 . S
H84 C86 0.981 . S
H85 C86 0.981 . S
C86 C78 1.481 . S
C86 H83 0.980 . S
C86 H84 0.981 . S
C86 H85 0.981 . S
C87 C74 1.481 . S
C87 H88 0.980 . S
C87 H89 0.981 . S
C87 H90 0.981 . S
H88 C87 0.980 . S
H89 C87 0.981 . S
H90 C87 0.981 . S
O91 Zn67 2.066 . S
O91 C70 1.256 . S
O92 Zn64 2.053 . S
O92 C70 1.244 . S
C93 O71 1.259 . S
C93 O72 1.254 . S
O94 Zn64 2.066 . S
O94 C66 1.256 1_556 S
O95 C66 1.244 1_556 S
O95 Zn67 2.053 . S
Zn96 O97 2.055 . S
Zn96 O104 2.046 . S
Zn96 N112 2.036 . S
Zn96 O124 2.053 . S
Zn96 O126 2.066 . S
O97 Zn96 2.055 . S
O97 C100 1.259 . S
C98 O126 1.256 . S
C98 O127 1.244 . S
Zn99 O101 2.046 . S
Zn99 O103 2.055 . S
Zn99 N105 2.036 . S
Zn99 O123 2.066 . S
Zn99 O127 2.053 . S
C100 O97 1.259 . S
C100 O101 1.254 . S
O101 Zn99 2.046 . S
O101 C100 1.254 . S
C102 O123 1.256 1_556 S
C102 O124 1.244 1_556 S
O103 Zn99 2.055 . S
O103 C125 1.259 . S
O104 Zn96 2.046 . S
O104 C125 1.254 . S
N105 Zn99 2.036 . S
N105 C106 1.298 . S
N105 N108 1.398 . S
C106 N105 1.298 . S
C106 N109 1.367 . S
C106 C119 1.481 . S
C107 N108 1.299 . S
C107 N109 1.379 . S
N108 N105 1.398 . S
N108 C107 1.299 . S
N109 C106 1.367 . S
N109 C107 1.379 . S
C110 N112 1.298 . S
C110 N114 1.367 . S
C110 C118 1.481 . S
C111 N113 1.299 . S
C111 N114 1.379 . S
N112 Zn96 2.036 . S
N112 C110 1.298 . S
N112 N113 1.398 . S
N113 C111 1.299 . S
N113 N112 1.398 . S
N114 C110 1.367 . S
N114 C111 1.379 . S
H115 C118 0.980 . S
H116 C118 0.981 . S
H117 C118 0.981 . S
C118 C110 1.481 . S
C118 H115 0.980 . S
C118 H116 0.981 . S
C118 H117 0.981 . S
C119 C106 1.481 . S
C119 H120 0.980 . S
C119 H121 0.981 . S
C119 H122 0.981 . S
H120 C119 0.980 . S
H121 C119 0.981 . S
H122 C119 0.981 . S
O123 Zn99 2.066 . S
O123 C102 1.256 1_554 S
O124 Zn96 2.053 . S
O124 C102 1.244 1_554 S
C125 O103 1.259 . S
C125 O104 1.254 . S
O126 Zn96 2.066 . S
O126 C98 1.256 . S
O127 C98 1.244 . S
O127 Zn99 2.053 . S
H128 C134 0.930 . S
H129 C138 0.930 . S
H130 C143 0.929 . S
H131 C141 0.929 . S
H132 C136 0.929 . S
H133 C142 0.929 . S
C134 H128 0.930 . S
C134 C135 1.367 . S
C134 C142 1.378 . S
C135 C134 1.367 . S
C135 C143 1.433 1_455 S
C136 H132 0.929 . S
C136 C138 1.378 . S
C136 C140 1.350 1_655 S
C137 C140 1.463 . S
C137 C142 1.350 . S
C137 N145 1.427 1_455 S
C138 H129 0.930 . S
C138 C136 1.378 . S
C138 C139 1.367 1_655 S
C139 C138 1.367 1_455 S
C139 C141 1.433 . S
C140 C136 1.350 1_455 S
C140 C137 1.463 . S
C140 N144 1.427 . S
C141 H131 0.929 . S
C141 C139 1.433 . S
C141 N144 1.384 . S
C142 H133 0.929 . S
C142 C134 1.378 . S
C142 C137 1.350 . S
C143 H130 0.929 . S
C143 C135 1.433 1_655 S
C143 N145 1.384 . S
N144 C140 1.427 . S
N144 C141 1.384 . S
N145 C137 1.427 1_655 S
N145 C143 1.384 . S
H146 C152 0.930 . S
H147 C156 0.930 . S
H148 C161 0.929 . S
H149 C159 0.929 . S
H150 C154 0.929 . S
H151 C160 0.929 . S
C152 H146 0.930 . S
C152 C153 1.367 . S
C152 C160 1.378 . S
C153 C152 1.367 . S
C153 C161 1.433 . S
C154 H150 0.929 . S
C154 C156 1.378 . S
C154 C158 1.350 . S
C155 C158 1.463 . S
C155 C160 1.350 . S
C155 N163 1.427 . S
C156 H147 0.930 . S
C156 C154 1.378 . S
C156 C157 1.367 . S
C157 C156 1.367 . S
C157 C159 1.433 . S
C158 C154 1.350 . S
C158 C155 1.463 . S
C158 N162 1.427 . S
C159 H149 0.929 . S
C159 C157 1.433 . S
C159 N162 1.384 . S
C160 H151 0.929 . S
C160 C152 1.378 . S
C160 C155 1.350 . S
C161 H148 0.929 . S
C161 C153 1.433 . S
C161 N163 1.384 . S
N162 C158 1.427 . S
N162 C159 1.384 . S
N163 C155 1.427 . S
N163 C161 1.384 . S
H164 C170 0.930 . S
H165 C174 0.930 . S
H166 C179 0.929 . S
H167 C177 0.929 . S
H168 C172 0.929 1_554 S
H169 C178 0.929 . S
C170 H164 0.930 . S
C170 C171 1.367 . S
C170 C178 1.378 1_554 S
C171 C170 1.367 . S
C171 C179 1.433 . S
C172 H168 0.929 1_556 S
C172 C174 1.378 . S
C172 C176 1.350 . S
C173 C176 1.463 1_554 S
C173 C178 1.350 1_554 S
C173 N181 1.427 . S
C174 H165 0.930 . S
C174 C172 1.378 . S
C174 C175 1.367 . S
C175 C174 1.367 . S
C175 C177 1.433 . S
C176 C172 1.350 . S
C176 C173 1.463 1_556 S
C176 N180 1.427 . S
C177 H167 0.929 . S
C177 C175 1.433 . S
C177 N180 1.384 . S
C178 H169 0.929 . S
C178 C170 1.378 1_556 S
C178 C173 1.350 1_556 S
C179 H166 0.929 . S
C179 C171 1.433 . S
C179 N181 1.384 . S
N180 C176 1.427 . S
N180 C177 1.384 . S
N181 C173 1.427 . S
N181 C179 1.384 . S
H182 C188 0.930 . S
H183 C192 0.930 . S
H184 C197 0.929 . S
H185 C195 0.929 . S
H186 C190 0.929 . S
H187 C196 0.929 . S
C188 H182 0.930 . S
C188 C189 1.367 . S
C188 C196 1.378 . S
C189 C188 1.367 . S
C189 C197 1.433 . S
C190 H186 0.929 . S
C190 C192 1.378 . S
C190 C194 1.350 . S
C191 C194 1.463 . S
C191 C196 1.350 . S
C191 N199 1.427 . S
C192 H183 0.930 . S
C192 C190 1.378 . S
C192 C193 1.367 . S
C193 C192 1.367 . S
C193 C195 1.433 . S
C194 C190 1.350 . S
C194 C191 1.463 . S
C194 N198 1.427 . S
C195 H185 0.929 . S
C195 C193 1.433 . S
C195 N198 1.384 . S
C196 H187 0.929 . S
C196 C188 1.378 . S
C196 C191 1.350 . S
C197 H184 0.929 . S
C197 C189 1.433 . S
C197 N199 1.384 . S
N198 C194 1.427 . S
N198 C195 1.384 . S
N199 C191 1.427 . S
N199 C197 1.384 . S
H200 C206 0.930 . S
H201 C210 0.930 . S
H202 C215 0.929 . S
H203 C213 0.929 . S
H204 C208 0.929 . S
H205 C214 0.929 . S
C206 H200 0.930 . S
C206 C207 1.367 . S
C206 C214 1.378 . S
C207 C206 1.367 . S
C207 C215 1.433 . S
C208 H204 0.929 . S
C208 C210 1.378 . S
C208 C212 1.350 . S
C209 C212 1.463 . S
C209 C214 1.350 . S
C209 N217 1.427 . S
C210 H201 0.930 . S
C210 C208 1.378 . S
C210 C211 1.367 . S
C211 C210 1.367 . S
C211 C213 1.433 . S
C212 C208 1.350 . S
C212 C209 1.463 . S
C212 N216 1.427 . S
C213 H203 0.929 . S
C213 C211 1.433 . S
C213 N216 1.384 . S
C214 H205 0.929 . S
C214 C206 1.378 . S
C214 C209 1.350 . S
C215 H202 0.929 . S
C215 C207 1.433 . S
C215 N217 1.384 . S
N216 C212 1.427 . S
N216 C213 1.384 . S
N217 C209 1.427 . S
N217 C215 1.384 . S
H218 C224 0.930 . S
H219 C228 0.930 . S
H220 C233 0.929 . S
H221 C231 0.929 . S
H222 C226 0.929 . S
H223 C232 0.929 . S
C224 H218 0.930 . S
C224 C225 1.367 . S
C224 C232 1.378 . S
C225 C224 1.367 . S
C225 C233 1.433 . S
C226 H222 0.929 . S
C226 C228 1.378 . S
C226 C230 1.350 . S
C227 C230 1.463 . S
C227 C232 1.350 . S
C227 N235 1.427 . S
C228 H219 0.930 . S
C228 C226 1.378 . S
C228 C229 1.367 . S
C229 C228 1.367 . S
C229 C231 1.433 . S
C230 C226 1.350 . S
C230 C227 1.463 . S
C230 N234 1.427 . S
C231 H221 0.929 . S
C231 C229 1.433 . S
C231 N234 1.384 . S
C232 H223 0.929 . S
C232 C224 1.378 . S
C232 C227 1.350 . S
C233 H220 0.929 . S
C233 C225 1.433 . S
C233 N235 1.384 . S
N234 C230 1.427 . S
N234 C231 1.384 . S
N235 C227 1.427 . S
N235 C233 1.384 . S
H236 C242 0.930 . S
H237 C246 0.930 . S
H238 C251 0.929 . S
H239 C249 0.929 . S
H240 C244 0.929 1_556 S
H241 C250 0.929 . S
C242 H236 0.930 . S
C242 C243 1.367 1_554 S
C242 C250 1.378 . S
C243 C242 1.367 1_556 S
C243 C251 1.433 . S
C244 H240 0.929 1_554 S
C244 C246 1.378 . S
C244 C248 1.350 . S
C245 C248 1.463 1_565 S
C245 C250 1.350 . S
C245 N253 1.427 1_554 S
C246 H237 0.930 . S
C246 C244 1.378 . S
C246 C247 1.367 . S
C247 C246 1.367 . S
C247 C249 1.433 . S
C248 C244 1.350 . S
C248 C245 1.463 1_545 S
C248 N252 1.427 . S
C249 H239 0.929 . S
C249 C247 1.433 . S
C249 N252 1.384 . S
C250 H241 0.929 . S
C250 C242 1.378 . S
C250 C245 1.350 . S
C251 H238 0.929 . S
C251 C243 1.433 . S
C251 N253 1.384 . S
N252 C248 1.427 . S
N252 C249 1.384 . S
N253 C245 1.427 1_556 S
N253 C251 1.384 . S
H254 C260 0.930 1_655 S
H255 C264 0.930 . S
H256 C269 0.929 . S
H257 C267 0.929 . S
H258 C262 0.929 . S
H259 C268 0.929 . S
C260 H254 0.930 1_455 S
C260 C261 1.367 . S
C260 C268 1.378 . S
C261 C260 1.367 . S
C261 C269 1.433 . S
C262 H258 0.929 . S
C262 C264 1.378 1_565 S
C262 C266 1.350 . S
C263 C266 1.463 . S
C263 C268 1.350 . S
C263 N271 1.427 . S
C264 H255 0.930 . S
C264 C262 1.378 1_545 S
C264 C265 1.367 . S
C265 C264 1.367 . S
C265 C267 1.433 . S
C266 C262 1.350 . S
C266 C263 1.463 . S
C266 N270 1.427 . S
C267 H257 0.929 . S
C267 C265 1.433 . S
C267 N270 1.384 1_545 S
C268 H259 0.929 . S
C268 C260 1.378 . S
C268 C263 1.350 . S
C269 H256 0.929 . S
C269 C261 1.433 . S
C269 N271 1.384 . S
N270 C266 1.427 . S
N270 C267 1.384 1_565 S
N271 C263 1.427 . S
N271 C269 1.384 . S
H272 C278 0.930 1_655 S
H273 C282 0.930 . S
H274 C287 0.929 . S
H275 C285 0.929 . S
H276 C280 0.929 . S
H277 C286 0.929 1_655 S
C278 H272 0.930 1_455 S
C278 C279 1.367 . S
C278 C286 1.378 1_554 S
C279 C278 1.367 . S
C279 C287 1.433 . S
C280 H276 0.929 . S
C280 C282 1.378 . S
C280 C284 1.350 . S
C281 C284 1.463 . S
C281 C286 1.350 . S
C281 N289 1.427 . S
C282 H273 0.930 . S
C282 C280 1.378 . S
C282 C283 1.367 . S
C283 C282 1.367 . S
C283 C285 1.433 1_455 S
C284 C280 1.350 . S
C284 C281 1.463 . S
C284 N288 1.428 1_455 S
C285 H275 0.929 . S
C285 C283 1.433 1_655 S
C285 N288 1.384 . S
C286 H277 0.929 1_455 S
C286 C278 1.378 1_556 S
C286 C281 1.350 . S
C287 H274 0.929 . S
C287 C279 1.433 . S
C287 N289 1.384 1_554 S
N288 C284 1.428 1_655 S
N288 C285 1.384 . S
N289 C281 1.427 . S
N289 C287 1.384 1_556 S
H290 C296 0.930 . S
H291 C300 0.930 . S
H292 C305 0.929 . S
H293 C303 0.929 . S
H294 C298 0.929 . S
H295 C304 0.929 1_554 S
C296 H290 0.930 . S
C296 C297 1.367 1_655 S
C296 C304 1.378 . S
C297 C296 1.367 1_455 S
C297 C305 1.433 . S
C298 H294 0.929 . S
C298 C300 1.378 . S
C298 C302 1.350 . S
C299 C302 1.463 . S
C299 C304 1.350 1_454 S
C299 N307 1.427 1_554 S
C300 H291 0.930 . S
C300 C298 1.378 . S
C300 C301 1.367 . S
C301 C300 1.367 . S
C301 C303 1.433 1_455 S
C302 C298 1.350 . S
C302 C299 1.463 . S
C302 N306 1.427 1_455 S
C303 H293 0.929 . S
C303 C301 1.433 1_655 S
C303 N306 1.384 . S
C304 H295 0.929 1_556 S
C304 C296 1.378 . S
C304 C299 1.350 1_656 S
C305 H292 0.929 . S
C305 C297 1.433 . S
C305 N307 1.384 . S
N306 C302 1.427 1_655 S
N306 C303 1.384 . S
N307 C299 1.427 1_556 S
N307 C305 1.384 . S
H308 C314 0.930 . S
H309 C318 0.930 . S
H310 C323 0.929 . S
H311 C321 0.929 . S
H312 C316 0.929 . S
H313 C322 0.929 . S
C314 H308 0.930 . S
C314 C315 1.367 . S
C314 C322 1.378 . S
C315 C314 1.367 . S
C315 C323 1.433 . S
C316 H312 0.929 . S
C316 C318 1.378 . S
C316 C320 1.350 . S
C317 C320 1.463 . S
C317 C322 1.350 . S
C317 N325 1.427 . S
C318 H309 0.930 . S
C318 C316 1.378 . S
C318 C319 1.367 . S
C319 C318 1.367 . S
C319 C321 1.433 . S
C320 C316 1.350 . S
C320 C317 1.463 . S
C320 N324 1.427 . S
C321 H311 0.929 . S
C321 C319 1.433 . S
C321 N324 1.384 . S
C322 H313 0.929 . S
C322 C314 1.378 . S
C322 C317 1.350 . S
C323 H310 0.929 . S
C323 C315 1.433 . S
C323 N325 1.384 . S
N324 C320 1.427 . S
N324 C321 1.384 . S
N325 C317 1.427 . S
N325 C323 1.384 . S
H326 C332 0.930 . S
H327 C336 0.930 . S
H328 C341 0.929 . S
H329 C339 0.929 . S
H330 C334 0.929 . S
H331 C340 0.929 . S
C332 H326 0.930 . S
C332 C333 1.367 . S
C332 C340 1.378 . S
C333 C332 1.367 . S
C333 C341 1.433 . S
C334 H330 0.929 . S
C334 C336 1.378 . S
C334 C338 1.350 . S
C335 C338 1.463 . S
C335 C340 1.350 . S
C335 N343 1.427 . S
C336 H327 0.930 . S
C336 C334 1.378 . S
C336 C337 1.367 . S
C337 C336 1.367 . S
C337 C339 1.433 . S
C338 C334 1.350 . S
C338 C335 1.463 . S
C338 N342 1.427 . S
C339 H329 0.929 . S
C339 C337 1.433 . S
C339 N342 1.384 . S
C340 H331 0.929 . S
C340 C332 1.378 . S
C340 C335 1.350 . S
C341 H328 0.929 . S
C341 C333 1.433 . S
C341 N343 1.384 . S
N342 C338 1.427 . S
N342 C339 1.384 . S
N343 C335 1.427 . S
N343 C341 1.384 . S
C135 N18 2.312 . S
C139 C36 2.270 . S
C153 C70 1.325 . S
C157 N50 1.335 . S
C171 N109 1.236 . S
C175 N77 1.103 . S
C189 C4 2.099 . S
C193 C125 2.098 . S
C207 C98 2.684 . S
C211 C6 2.683 . S
C225 C68 0.880 . S
C229 N45 0.872 . S
C243 N82 1.108 . S
C247 N114 1.004 . S
C261 C38 2.545 . S
C265 N13 2.382 . S
C279 C29 1.016 . S
C283 C2 1.020 . S
C297 C34 1.029 . S
C301 C61 1.026 . S
C315 C66 1.023 . S
C319 C93 1.021 . S
C333 C100 1.017 . S
C337 C102 1.020 . S
