# Generated by pormake.
# Topology zfs, (5)-cn, num edge types: 1
# Building blocks:
#     Node 0, Type 0, BuildingBlock: XOMCOT_clean_sbu_0, # of connection points: 5
#     Node 1, Type 0, BuildingBlock: XOMCOT_clean_sbu_0, # of connection points: 5
#     Node 2, Type 0, BuildingBlock: XOMCOT_clean_sbu_0, # of connection points: 5
#     Node 3, Type 0, BuildingBlock: XOMCOT_clean_sbu_0, # of connection points: 5
#     Node 4, Type 0, BuildingBlock: XOMCOT_clean_sbu_0, # of connection points: 5
#     Node 5, Type 0, BuildingBlock: XOMCOT_clean_sbu_0, # of connection points: 5
#     Node 6, Type 0, BuildingBlock: XOMCOT_clean_sbu_0, # of connection points: 5
#     Node 7, Type 0, BuildingBlock: XOMCOT_clean_sbu_0, # of connection points: 5
#     Edge 8, Type (0, 0), BuildingBlock: XIVTED_clean_linker_0, # of connection points: 2
#     Edge 9, Type (0, 0), BuildingBlock: XIVTED_clean_linker_0, # of connection points: 2
#     Edge 10, Type (0, 0), BuildingBlock: XIVTED_clean_linker_0, # of connection points: 2
#     Edge 11, Type (0, 0), BuildingBlock: XIVTED_clean_linker_0, # of connection points: 2
#     Edge 12, Type (0, 0), BuildingBlock: XIVTED_clean_linker_0, # of connection points: 2
#     Edge 13, Type (0, 0), BuildingBlock: XIVTED_clean_linker_0, # of connection points: 2
#     Edge 14, Type (0, 0), BuildingBlock: XIVTED_clean_linker_0, # of connection points: 2
#     Edge 15, Type (0, 0), BuildingBlock: XIVTED_clean_linker_0, # of connection points: 2
#     Edge 16, Type (0, 0), BuildingBlock: XIVTED_clean_linker_0, # of connection points: 2
#     Edge 17, Type (0, 0), BuildingBlock: XIVTED_clean_linker_0, # of connection points: 2
#     Edge 18, Type (0, 0), BuildingBlock: XIVTED_clean_linker_0, # of connection points: 2
#     Edge 19, Type (0, 0), BuildingBlock: XIVTED_clean_linker_0, # of connection points: 2
#     Edge 20, Type (0, 0), BuildingBlock: XIVTED_clean_linker_0, # of connection points: 2
#     Edge 21, Type (0, 0), BuildingBlock: XIVTED_clean_linker_0, # of connection points: 2
#     Edge 22, Type (0, 0), BuildingBlock: XIVTED_clean_linker_0, # of connection points: 2
#     Edge 23, Type (0, 0), BuildingBlock: XIVTED_clean_linker_0, # of connection points: 2
#     Edge 24, Type (0, 0), BuildingBlock: XIVTED_clean_linker_0, # of connection points: 2
#     Edge 25, Type (0, 0), BuildingBlock: XIVTED_clean_linker_0, # of connection points: 2
#     Edge 26, Type (0, 0), BuildingBlock: XIVTED_clean_linker_0, # of connection points: 2
#     Edge 27, Type (0, 0), BuildingBlock: XIVTED_clean_linker_0, # of connection points: 2
# Relax obj value: 0.133
# Max RMSD: 0.159
# Mean RMSD: 0.159
data_MOF--net-zfs--node1-XOMCOT_clean_sbu_0--edge1-XIVTED_clean_linker_0
_symmetry_space_group_name_H-M    P1
_symmetry_Int_Tables_number       1
_symmetry_cell_setting            triclinic
loop_
_symmetry_equiv_pos_as_xyz
'x, y, z'
_cell_length_a     34.227526
_cell_length_b     34.348451
_cell_length_c     41.036443
_cell_angle_alpha  90.180505
_cell_angle_beta   89.833133
_cell_angle_gamma 90.213326
loop_
_atom_site_label
_atom_site_type_symbol
_atom_site_fract_x
_atom_site_fract_y
_atom_site_fract_z
_atom_type_partial_charge
Co0 Co 0.042 0.24516 0.19427 0.0
C1 C 1.00675 0.25218 0.13049 0.0
C2 C 0.97941 0.20655 0.15797 0.0
C3 C 0.96871 0.20269 0.12574 0.0
N4 N 1.00372 0.23729 0.16068 0.0
N5 N 0.98645 0.23114 0.10849 0.0
H6 H 0.0278 0.27448 0.12403 0.0
H7 H 0.97364 0.18574 0.17714 0.0
C8 C 0.99615 0.2394 0.25706 0.0
O9 O 1.01399 0.27072 0.26803 0.0
N10 N 0.08124 0.25232 0.22765 0.0
C11 C 0.11034 0.2789 0.22875 0.0
C12 C 0.13309 0.27182 0.25553 0.0
C13 C 0.08777 0.22849 0.25311 0.0
N14 N 0.11877 0.24023 0.2709 0.0
C15 C 0.05063 0.32744 0.18495 0.0
C16 C 0.98192 0.35037 0.21453 0.0
C17 C 1.00918 0.379 0.20542 0.0
C18 C 0.04326 0.367 0.18934 0.0
C19 C 0.99045 0.31091 0.20931 0.0
N20 N 0.02606 0.29978 0.19735 0.0
H21 H 0.07669 0.31919 0.17191 0.0
H22 H 0.96842 0.28952 0.21522 0.0
H23 H 0.11625 0.301 0.21088 0.0
H24 H 0.07013 0.20309 0.25846 0.0
O25 O 0.0824 0.24977 0.16116 0.0
O26 O 0.06399 0.19453 0.18409 0.0
O27 O 1.00281 0.22694 0.22816 0.0
C28 C 0.08598 0.21217 0.16281 0.0
H29 H 0.95231 0.17866 0.1154 0.0
H30 H 0.15903 0.28792 0.26247 0.0
H31 H 0.95425 0.35836 0.22548 0.0
H32 H 0.06481 0.38789 0.181 0.0
Co33 Co 0.80068 0.04046 0.44579 0.0
C34 C 0.79345 1.00286 0.38205 0.0
C35 C 0.83847 0.97678 0.41049 0.0
C36 C 0.8431 0.96517 0.37857 0.0
N37 N 0.80721 1.00052 0.41275 0.0
N38 N 0.81497 0.98209 0.3607 0.0
H39 H 0.7724 0.02419 0.37436 0.0
H40 H 0.85953 0.97228 0.42969 0.0
C41 C 0.8111 0.9669 0.48472 0.0
O42 O 0.78756 0.94857 0.46456 0.0
N43 N 0.79487 0.08083 0.4778 0.0
C44 C 0.76905 0.1102 0.47669 0.0
C45 C 0.7747 0.13361 0.50347 0.0
C46 C 0.81594 0.08657 0.505 0.0
N47 N 0.80417 0.11872 0.52134 0.0
C48 C 0.71915 0.03751 0.42851 0.0
C49 C 0.69209 1.01009 0.48772 0.0
C50 C 0.665 0.01955 0.46357 0.0
C51 C 0.6789 0.03358 0.4337 0.0
C52 C 0.73201 1.01538 0.48182 0.0
N53 N 0.7454 0.02769 0.4521 0.0
H54 H 0.72886 0.05061 0.40612 0.0
H55 H 0.75177 1.01141 0.50192 0.0
H56 H 0.74789 0.1145 0.45753 0.0
H57 H 0.83929 0.06752 0.51251 0.0
O58 O 0.79666 0.07971 0.41179 0.0
O59 O 0.8519 0.06002 0.43427 0.0
O60 O 0.81808 1.00321 0.48099 0.0
C61 C 0.83462 0.08189 0.41296 0.0
H62 H 0.86761 0.94901 0.36883 0.0
H63 H 0.75875 0.15999 0.50882 0.0
H64 H 0.6824 1.00063 0.51158 0.0
H65 H 0.65878 0.0422 0.41474 0.0
Co66 Co 0.99876 0.7962 0.69581 0.0
C67 C 0.03725 0.78918 0.63224 0.0
C68 C 0.0643 0.8331 0.66151 0.0
C69 C 0.07668 0.83771 0.62978 0.0
N70 N 0.03951 0.80245 0.66317 0.0
N71 N 0.05925 0.81017 0.61142 0.0
H72 H 1.01508 0.76919 0.62386 0.0
H73 H 0.0691 0.85387 0.68094 0.0
C74 C 0.07095 0.80734 0.73618 0.0
O75 O 0.08884 0.78212 0.71723 0.0
N76 N 0.95768 0.79109 0.72744 0.0
C77 C 0.92948 0.76369 0.72785 0.0
C78 C 0.90584 0.77024 0.75446 0.0
C79 C 0.95087 0.81411 0.75337 0.0
N80 N 0.91937 0.80194 0.77044 0.0
C81 C 1.00896 0.71465 0.68008 0.0
C82 C 0.02541 0.69103 0.74286 0.0
C83 C 0.02232 0.66273 0.71832 0.0
C84 C 1.01433 0.67505 0.68651 0.0
C85 C 1.02011 0.73028 0.73535 0.0
N86 N 1.01274 0.74197 0.70412 0.0
H87 H 0.99952 0.72279 0.65614 0.0
H88 H 1.02015 0.75108 0.75512 0.0
H89 H 0.92641 0.74059 0.71006 0.0
H90 H 0.96889 0.83891 0.75974 0.0
O91 O 0.96042 0.7891 0.66142 0.0
O92 O 0.97797 0.8459 0.68255 0.0
O93 O 0.03513 0.81578 0.73109 0.0
C94 C 0.95698 0.82686 0.66141 0.0
H95 H 0.09374 0.86185 0.62046 0.0
H96 H 0.88038 0.75329 0.76121 0.0
H97 H 0.03107 0.68288 0.76787 0.0
H98 H 1.01026 0.65411 0.66701 0.0
Co99 Co 0.24334 0.99125 0.94972 0.0
C100 C 0.24789 0.0276 0.88554 0.0
C101 C 0.20658 0.05699 0.9158 0.0
C102 C 0.20071 0.06837 0.88396 0.0
N103 N 0.23647 0.03139 0.9169 0.0
N104 N 0.22644 0.04922 0.86507 0.0
H105 H 0.26713 1.00504 0.87683 0.0
H106 H 0.18677 0.06291 0.93575 0.0
C107 C 0.23288 0.06328 0.99057 0.0
O108 O 0.25824 0.08126 0.97174 0.0
N109 N 0.24925 0.95068 0.98132 0.0
C110 C 0.27573 0.92189 0.98043 0.0
C111 C 0.26948 0.89806 0.00678 0.0
C112 C 0.2272 0.94417 0.0079 0.0
N113 N 0.23895 0.9121 0.02413 0.0
C114 C 0.32442 1.00289 0.93248 0.0
C115 C 0.35018 1.01894 0.99487 0.0
C116 C 0.37779 1.01669 0.96961 0.0
C117 C 0.36426 1.00889 0.938 0.0
C118 C 0.31055 1.01304 0.98823 0.0
N119 N 0.29785 1.00579 0.9572 0.0
H120 H 0.31548 0.99405 0.90853 0.0
H121 H 0.29028 1.01255 0.00844 0.0
H122 H 0.2978 0.91834 0.96175 0.0
H123 H 0.20314 0.96266 0.01499 0.0
O124 O 0.24986 0.9526 0.91544 0.0
O125 O 0.19324 0.96998 0.93717 0.0
O126 O 0.22422 0.02761 0.98518 0.0
C127 C 0.21197 0.94895 0.91587 0.0
H128 H 0.17624 0.08507 0.87501 0.0
H129 H 0.28589 0.87205 0.01221 0.0
H130 H 0.35915 0.02355 0.01987 0.0
H131 H 0.38431 1.0066 0.91764 0.0
Co132 Co 0.0365 0.79393 0.29667 0.0
C133 C 0.99653 0.78653 0.35941 0.0
C134 C 0.97211 0.83225 0.33088 0.0
C135 C 0.95986 0.83685 0.36264 0.0
N136 N 0.99527 0.80057 0.32875 0.0
N137 N 0.97575 0.80827 0.38058 0.0
H138 H 1.01749 0.76527 0.3674 0.0
H139 H 0.96872 0.85368 0.31187 0.0
C140 C 0.96535 0.80817 0.25577 0.0
O141 O 0.94594 0.78351 0.27419 0.0
N142 N 0.07817 0.78824 0.2657 0.0
C143 C 0.10652 0.76129 0.26641 0.0
C144 C 0.13142 0.76786 0.24067 0.0
C145 C 0.08598 0.81087 0.23983 0.0
N146 N 0.11849 0.79907 0.22386 0.0
C147 C 0.02473 0.71188 0.31035 0.0
C148 C 1.0063 0.69096 0.24713 0.0
C149 C 1.00939 0.66155 0.27057 0.0
C150 C 1.01847 0.67254 0.30266 0.0
C151 C 1.01306 0.7297 0.25576 0.0
N152 N 0.02119 0.74014 0.28722 0.0
H153 H 0.0346 0.71909 0.33447 0.0
H154 H 1.01346 0.75107 0.23655 0.0
H155 H 0.10904 0.73868 0.28456 0.0
H156 H 0.0681 0.83539 0.23309 0.0
O157 O 0.074 0.78599 0.33168 0.0
O158 O 0.05822 0.84307 0.31068 0.0
O159 O 1.00151 0.8149 0.26121 0.0
C160 C 0.07841 0.82371 0.33191 0.0
H161 H 0.94427 0.86171 0.37234 0.0
H162 H 0.15732 0.7511 0.23527 0.0
H163 H 0.99957 0.68416 0.22198 0.0
H164 H 0.02258 0.65084 0.32141 0.0
Co165 Co 0.24492 0.04124 0.54125 0.0
C166 C 0.25142 1.00828 0.60645 0.0
C167 C 0.20701 0.97939 0.57893 0.0
C168 C 0.20187 0.97035 0.61134 0.0
N169 N 0.23827 1.00325 0.57575 0.0
N170 N 0.22936 0.98937 0.62859 0.0
H171 H 0.27304 0.02968 0.61322 0.0
H172 H 0.18605 0.97338 0.5599 0.0
C173 C 0.23149 0.96629 0.50437 0.0
O174 O 0.25549 0.94846 0.52427 0.0
N175 N 0.25067 0.07967 0.50782 0.0
C176 C 0.27916 0.10667 0.50573 0.0
C177 C 0.27153 0.13019 0.4795 0.0
C178 C 0.22602 0.08699 0.48316 0.0
N179 N 0.2381 0.11781 0.46543 0.0
C180 C 0.32661 0.03674 0.55712 0.0
C181 C 0.35161 1.00874 0.49739 0.0
C182 C 0.37951 0.01905 0.52075 0.0
C183 C 0.36663 0.03308 0.55096 0.0
C184 C 0.31187 1.01374 0.50425 0.0
N185 N 0.29954 0.02676 0.53412 0.0
H186 H 0.31775 0.05009 0.57967 0.0
H187 H 0.29138 1.0093 0.48467 0.0
H188 H 0.30345 0.10937 0.52239 0.0
H189 H 0.19924 0.0709 0.479 0.0
O190 O 0.25155 0.08195 0.57384 0.0
O191 O 0.19484 0.06298 0.5534 0.0
O192 O 0.22521 1.00278 0.50758 0.0
C193 C 0.21367 0.08526 0.57372 0.0
H194 H 0.17687 0.95541 0.62171 0.0
H195 H 0.28922 0.15453 0.47146 0.0
H196 H 0.36051 0.99908 0.47335 0.0
H197 H 0.38739 0.04221 0.56937 0.0
Co198 Co 1.00326 0.24207 0.79359 0.0
C199 C 0.04367 0.24989 0.85616 0.0
C200 C 0.07029 0.20645 0.82621 0.0
C201 C 0.08386 0.20225 0.85759 0.0
N202 N 0.04504 0.23657 0.8252 0.0
N203 N 0.06675 0.22954 0.87637 0.0
H204 H 0.0215 0.26937 0.86519 0.0
H205 H 0.07474 0.18574 0.80668 0.0
C206 C 0.07445 0.23251 0.75136 0.0
O207 O 0.09264 0.25805 0.76985 0.0
N208 N 0.96118 0.24645 0.76308 0.0
C209 C 0.93165 0.2721 0.76439 0.0
C210 C 0.90674 0.26451 0.73893 0.0
C211 C 0.95403 0.22356 0.73714 0.0
N212 N 0.92082 0.23395 0.72171 0.0
C213 C 1.01166 0.32347 0.80974 0.0
C214 C 0.02665 0.34884 0.7471 0.0
C215 C 0.023 0.37663 0.77205 0.0
C216 C 1.01584 0.36328 0.80379 0.0
C217 C 0.02261 0.3092 0.75419 0.0
N218 N 1.01597 0.29671 0.78536 0.0
H219 H 1.00277 0.31464 0.8337 0.0
H220 H 0.02285 0.28874 0.73417 0.0
H221 H 0.92831 0.29445 0.78281 0.0
H222 H 0.97286 0.19984 0.72999 0.0
O223 O 0.96585 0.24802 0.82892 0.0
O224 O 0.98364 0.19175 0.8071 0.0
O225 O 0.03886 0.22355 0.7573 0.0
C226 C 0.96287 0.21021 0.82875 0.0
H227 H 0.10157 0.17852 0.86649 0.0
H228 H 0.88001 0.28007 0.73404 0.0
H229 H 0.03076 0.35759 0.722 0.0
H230 H 1.01249 0.38343 0.82394 0.0
Co231 Co 0.79872 0.99846 0.04429 0.0
C232 C 0.79179 0.03784 0.10752 0.0
C233 C 0.83678 0.06338 0.07833 0.0
C234 C 0.84129 0.07612 0.10996 0.0
N235 N 0.8055 0.03933 0.07666 0.0
N236 N 0.81308 0.05964 0.12827 0.0
H237 H 0.77111 1.01635 0.11596 0.0
H238 H 0.85797 0.0674 0.05905 0.0
C239 C 0.81218 0.06959 0.00361 0.0
O240 O 0.7867 0.08791 0.02207 0.0
N241 N 0.79303 0.95719 0.01302 0.0
C242 C 0.76487 0.92974 0.01279 0.0
C243 C 0.77151 0.90511 0.98689 0.0
C244 C 0.81651 0.94904 0.98761 0.0
N245 N 0.80397 0.91732 0.97113 0.0
C246 C 0.71697 1.01045 0.059 0.0
C247 C 0.69448 0.02562 -0.00431 0.0
C248 C 0.6656 0.02281 0.01985 0.0
C249 C 0.67736 1.01563 0.05196 0.0
C250 C 0.73371 0.02047 0.00379 0.0
N251 N 0.74482 1.01354 0.03525 0.0
H252 H 0.72466 1.00152 0.08318 0.0
H253 H 0.75493 0.02006 0.98429 0.0
H254 H 0.74115 0.92788 0.03019 0.0
H255 H 0.84255 0.96558 0.98173 0.0
O256 O 0.79001 0.96095 0.07888 0.0
O257 O 0.84783 0.97669 0.05833 0.0
O258 O 0.81986 0.03377 0.00894 0.0
C259 C 0.82778 0.95654 0.07938 0.0
H260 H 0.86577 0.09275 0.1193 0.0
H261 H 0.75353 0.88047 0.97999 0.0
H262 H 0.68678 0.03074 0.97049 0.0
H263 H 0.65599 1.01186 0.07122 0.0
H264 H 0.97632 0.60074 0.30503 0.0
H265 H 0.02503 0.44234 0.16689 0.0
H266 H 0.03481 0.62649 0.2142 0.0
H267 H 0.97987 0.41153 0.26169 0.0
H268 H 0.02238 0.51087 0.18232 0.0
H269 H 0.97217 0.53217 0.28854 0.0
C270 C 0.9883 0.59209 0.28166 0.0
C271 C 1.00577 0.61971 0.26096 0.0
C272 C 1.01286 0.4892 0.19976 0.0
C273 C 1.00069 0.54125 0.24179 0.0
C274 C 1.01443 0.44997 0.19096 0.0
C275 C 1.00308 0.42098 0.21313 0.0
C276 C 0.99984 0.49981 0.23104 0.0
C277 C 0.98877 0.43284 0.24373 0.0
C278 C 0.98571 0.55294 0.27219 0.0
C279 C 1.02036 0.60666 0.23079 0.0
N280 N 0.98784 0.47131 0.25188 0.0
N281 N 1.01752 0.56853 0.22221 0.0
H282 H 0.62217 0.95743 0.48563 0.0
H283 H 0.43111 0.07947 0.52392 0.0
H284 H 0.61162 0.07792 0.45809 0.0
H285 H 0.42352 0.95777 0.49871 0.0
H286 H 0.50056 0.07908 0.50889 0.0
H287 H 0.55203 0.9563 0.49911 0.0
C288 C 0.605 0.98355 0.48236 0.0
C289 C 0.6225 1.01776 0.47058 0.0
C290 C 0.48369 0.05247 0.50668 0.0
C291 C 0.54293 1.01691 0.48654 0.0
C292 C 0.44423 0.05261 0.51544 0.0
C293 C 0.42174 1.01856 0.5126 0.0
C294 C 0.50099 1.01783 0.49568 0.0
C295 C 0.43997 0.9846 0.50117 0.0
C296 C 0.56512 0.98286 0.48994 0.0
C297 C 0.5991 0.05089 0.46681 0.0
N298 N 0.47869 0.98496 0.49339 0.0
N299 N 0.5606 0.04978 0.47509 0.0
H300 H 0.05953 0.60448 0.68427 0.0
H301 H 0.97907 0.4349 0.79976 0.0
H302 H 0.98966 0.62476 0.77031 0.0
H303 H 0.06875 0.41582 0.72724 0.0
H304 H 0.98057 0.50411 0.78738 0.0
H305 H 0.06086 0.53486 0.69737 0.0
C306 C 0.0445 0.59431 0.70591 0.0
C307 C 0.0246 0.62056 0.72629 0.0
C308 C 1.00007 0.48485 0.77425 0.0
C309 C 0.0259 0.54098 0.74136 0.0
C310 C 0.99947 0.44519 0.78148 0.0
C311 C 0.02409 0.4192 0.76476 0.0
C312 C 0.0252 0.49892 0.74986 0.0
C313 C 0.04896 0.43452 0.7406 0.0
C314 C 0.04542 0.55462 0.71344 0.0
C315 C 1.00585 0.60575 0.75413 0.0
N316 N 0.04883 0.47332 0.73384 0.0
N317 N 1.00682 0.56703 0.76074 0.0
H318 H 0.41511 0.06471 0.01375 0.0
H319 H 0.62929 0.98881 0.96763 0.0
H320 H 0.43819 0.97595 0.94151 0.0
H321 H 0.60568 0.05931 0.0526 0.0
H322 H 0.5598 0.98922 0.95459 0.0
H323 H 0.48507 0.06774 0.02569 0.0
C324 C 0.43476 0.04581 0.0004 0.0
C325 C 0.42048 0.02007 0.97648 0.0
C326 C 0.56976 1.00472 0.97605 0.0
C327 C 0.50082 0.02383 0.98982 0.0
C328 C 0.60954 1.00477 0.98338 0.0
C329 C 0.62343 0.0242 0.01121 0.0
C330 C 0.54347 0.02438 -0.00342 0.0
C331 C 0.59624 0.04372 0.03104 0.0
C332 C 0.47476 0.0477 0.00717 0.0
C333 C 0.44764 0.99678 0.9597 0.0
N334 N 0.55757 0.04337 0.02332 0.0
N335 N 0.48636 0.99924 0.96668 0.0
H336 H 0.19041 0.08172 0.42194 0.0
H337 H 0.15918 0.27628 0.3189 0.0
H338 H 0.24129 0.19314 0.44638 0.0
H339 H 0.11268 0.16456 0.28975 0.0
H340 H 0.18673 0.24635 0.36725 0.0
H341 H 0.15853 0.11165 0.375 0.0
C342 C 0.19469 0.11249 0.41754 0.0
C343 C 0.21872 0.13494 0.43798 0.0
C344 C 0.17049 0.22831 0.35032 0.0
C345 C 0.18263 0.16924 0.38437 0.0
C346 C 0.15494 0.24537 0.32258 0.0
C347 C 0.13392 0.22283 0.30005 0.0
C348 C 0.16507 0.18832 0.35569 0.0
C349 C 0.1285 0.18307 0.30654 0.0
C350 C 0.17666 0.12951 0.39068 0.0
C351 C 0.2236 0.17459 0.43097 0.0
N352 N 0.14416 0.167 0.33373 0.0
N353 N 0.20574 0.19044 0.40476 0.0
H354 H 0.77101 0.17249 0.56173 0.0
H355 H 0.94154 0.16519 0.69261 0.0
H356 H 0.87387 0.10105 0.54985 0.0
H357 H 0.86073 0.26126 0.68468 0.0
H358 H 0.91279 0.13633 0.64416 0.0
H359 H 0.79926 0.20014 0.61091 0.0
C360 C 0.79957 0.16264 0.56918 0.0
C361 C 0.82008 0.13445 0.55115 0.0
C362 C 0.90147 0.16377 0.65313 0.0
C363 C 0.85225 0.1657 0.60809 0.0
C364 C 0.91797 0.1805 0.68087 0.0
C365 C 0.90382 0.21607 0.69314 0.0
C366 C 0.87032 0.18241 0.63764 0.0
C367 C 0.87261 0.23376 0.67668 0.0
C368 C 0.8156 0.17841 0.59745 0.0
C369 C 0.85666 0.12238 0.56283 0.0
N370 N 0.8569 0.2167 0.64987 0.0
N371 N 0.87154 0.13807 0.59057 0.0
H372 H 0.79927 0.84191 0.95175 0.0
H373 H 0.92594 0.87716 0.79041 0.0
H374 H 0.84857 0.95331 0.92535 0.0
H375 H 0.8767 0.76591 0.81739 0.0
H376 H 0.89886 0.90546 0.84014 0.0
H377 H 0.82792 0.8135 0.90275 0.0
C378 C 0.81597 0.86045 0.93557 0.0
C379 C 0.82141 0.90009 0.94263 0.0
C380 C 0.894 0.87484 0.83517 0.0
C381 C 0.85466 0.86766 0.88659 0.0
C382 C 0.90964 0.8586 0.80685 0.0
C383 C 0.90357 0.81907 0.79966 0.0
C384 C 0.87213 0.85138 0.85649 0.0
C385 C 0.88166 0.7966 0.82167 0.0
C386 C 0.83253 0.84416 0.90767 0.0
C387 C 0.84397 0.92255 0.92107 0.0
N388 N 0.86675 0.81308 0.84908 0.0
N389 N 0.85969 0.90604 0.89396 0.0
H390 H 0.26985 0.85601 0.06329 0.0
H391 H 0.09993 0.86838 0.19514 0.0
H392 H 0.16936 0.93094 0.0529 0.0
H393 H 0.17729 0.76954 0.1861 0.0
H394 H 0.12938 0.89613 0.14658 0.0
H395 H 0.24049 0.82853 0.11204 0.0
C396 C 0.24162 0.8667 0.07093 0.0
C397 C 0.22217 0.89593 0.05346 0.0
C398 C 0.13977 0.86832 0.15532 0.0
C399 C 0.18873 0.86477 0.10995 0.0
C400 C 0.12288 0.85224 0.18314 0.0
C401 C 0.13587 0.81623 0.19515 0.0
C402 C 0.17017 0.8486 0.13948 0.0
C403 C 0.16632 0.79741 0.17832 0.0
C404 C 0.22494 0.85098 0.09897 0.0
C405 C 0.18587 0.90885 0.06539 0.0
N406 N 0.18246 0.81387 0.15143 0.0
N407 N 0.1704 0.89323 0.0929 0.0
H408 H 0.99936 0.29421 0.07086 0.0
H409 H 0.06279 0.16651 0.91603 0.0
H410 H 0.993 0.16886 0.06794 0.0
H411 H 0.05767 0.29187 0.91561 0.0
H412 H 0.04209 0.16674 0.97314 0.0
H413 H 0.02287 0.29409 0.01451 0.0
C414 C 1.00242 0.26672 0.05813 0.0
C415 C 0.99404 0.23157 0.074 0.0
C416 C 0.04587 0.19424 0.96067 0.0
C417 C 0.02157 0.231 0.00981 0.0
C418 C 0.05825 0.19412 0.92822 0.0
C419 C 0.06204 0.22928 0.91119 0.0
C420 C 0.0373 0.22978 0.97614 0.0
C421 C 0.05495 0.26419 0.92796 0.0
C422 C 1.01602 0.2666 0.02608 0.0
C423 C 0.99852 0.19667 0.0565 0.0
N424 N 0.04272 0.26358 0.95945 0.0
N425 N 1.01225 0.19726 0.0254 0.0
H426 H 0.75015 0.05122 0.1672 0.0
H427 H 0.87833 0.98822 0.32097 0.0
H428 H 0.87606 0.05352 0.16803 0.0
H429 H 0.75246 0.99304 0.32195 0.0
H430 H 0.87819 1.0097 0.26427 0.0
H431 H 0.75035 0.0302 0.22409 0.0
C432 C 0.7778 0.04788 0.17963 0.0
C433 C 0.81307 0.05424 0.163 0.0
C434 C 0.85056 1.00578 0.27679 0.0
C435 C 0.81373 0.02949 0.22779 0.0
C436 C 0.85062 0.99296 0.30902 0.0
C437 C 0.81528 0.98865 0.3261 0.0
C438 C 0.81493 1.01431 0.26153 0.0
C439 C 0.78029 0.99613 0.30961 0.0
C440 C 0.77797 0.03568 0.21198 0.0
C441 C 0.8482 0.04947 0.18007 0.0
N442 N 0.78098 1.00873 0.27829 0.0
N443 N 0.84765 0.03705 0.21148 0.0
H444 H 0.05424 0.87343 0.57208 0.0
H445 H 0.98354 0.7458 0.41949 0.0
H446 H 0.04828 0.74804 0.57225 0.0
H447 H 0.98547 0.87129 0.41993 0.0
H448 H 1.00698 0.7461 0.47572 0.0
H449 H 0.03175 0.87344 0.51556 0.0
C450 C 0.0491 0.84586 0.55995 0.0
C451 C 0.05321 0.81061 0.57677 0.0
C452 C 1.00192 0.77362 0.46367 0.0
C453 C 0.02639 0.81042 0.51252 0.0
C454 C 0.9883 0.77339 0.43171 0.0
C455 C 0.98239 0.80849 0.41515 0.0
C456 C 1.00995 0.80927 0.47917 0.0
C457 C 0.98907 0.84356 0.43195 0.0
C458 C 0.03571 0.84589 0.52785 0.0
C459 C 0.04532 0.77579 0.56009 0.0
N460 N 1.0028 0.84305 0.46298 0.0
N461 N 0.03207 0.77656 0.52897 0.0
H462 H 0.24008 0.06007 0.65666 0.0
H463 H 0.21851 0.97871 0.83726 0.0
H464 H 0.21205 0.94036 0.67807 0.0
H465 H 0.22444 0.10114 0.8156 0.0
H466 H 0.21628 0.96406 0.77911 0.0
H467 H 0.23551 0.07571 0.71451 0.0
C468 C 0.23346 0.03693 0.67365 0.0
C469 C 0.22726 0.9986 0.66273 0.0
C470 C 0.21791 0.99418 0.78691 0.0
C471 C 0.22127 1.01651 0.72898 0.0
C472 C 0.21936 1.00249 0.82005 0.0
C473 C 0.2223 0.04112 0.83095 0.0
C474 C 0.21975 0.02475 0.7644 0.0
C475 C 0.22243 0.07103 0.80791 0.0
C476 C 0.23039 0.046 0.70664 0.0
C477 C 0.21737 0.97011 0.68565 0.0
N478 N 0.22163 0.06221 0.77556 0.0
N479 N 0.21498 0.97957 0.71779 0.0
H480 H 0.13539 0.24178 0.11646 0.0
H481 H 0.18398 0.03383 0.0376 0.0
H482 H 0.09331 0.13309 0.15587 0.0
H483 H 0.23711 0.14123 0.00537 0.0
H484 H 0.15057 0.06961 0.08097 0.0
H485 H 0.173 0.20555 0.07576 0.0
C486 C 0.13431 0.21026 0.11674 0.0
C487 C 0.1112 0.19045 0.13968 0.0
C488 C 0.16964 0.08536 0.0645 0.0
C489 C 0.15396 0.14869 0.09285 0.0
C490 C 0.18872 0.06493 0.03964 0.0
C491 C 0.21339 0.08452 0.01766 0.0
C492 C 0.17498 0.1258 0.0674 0.0
C493 C 0.21842 0.12486 0.02169 0.0
C494 C 0.15577 0.18957 0.09344 0.0
C495 C 0.11081 0.14958 0.13874 0.0
N496 N 0.19927 0.14415 0.04594 0.0
N497 N 0.13168 0.13009 0.11563 0.0
H498 H 0.95008 0.26745 0.30651 0.0
H499 H 0.90448 0.0639 0.38543 0.0
H500 H 0.98223 0.16112 0.25728 0.0
H501 H 0.81621 0.15308 0.38713 0.0
H502 H 0.94193 0.10245 0.34583 0.0
H503 H 0.90843 0.22938 0.34374 0.0
C504 C 0.94829 0.23615 0.30352 0.0
C505 C 0.96951 0.21737 0.27876 0.0
C506 C 0.91439 0.11354 0.35493 0.0
C507 C 0.92293 0.17388 0.32156 0.0
C508 C 0.89319 0.09178 0.37763 0.0
C509 C 0.85737 0.10553 0.38959 0.0
C510 C 0.90022 0.14983 0.34485 0.0
C511 C 0.84373 0.14156 0.37841 0.0
C512 C 0.92447 0.21457 0.32463 0.0
C513 C 0.96614 0.17675 0.2759 0.0
N514 N 0.86546 0.16282 0.35694 0.0
N515 N 0.94375 0.15628 0.29734 0.0
H516 H 0.80967 0.88827 0.49715 0.0
H517 H 0.94744 0.90535 0.65444 0.0
H518 H 0.85601 0.99674 0.53412 0.0
H519 H 0.91172 0.79546 0.6127 0.0
H520 H 0.91035 0.93921 0.61252 0.0
H521 H 0.84312 0.85377 0.54108 0.0
C522 C 0.8267 0.90489 0.51455 0.0
C523 C 0.83003 0.94553 0.51182 0.0
C524 C 0.91045 0.90769 0.61254 0.0
C525 C 0.86845 0.90613 0.56223 0.0
C526 C 0.93157 0.8883 0.63657 0.0
C527 C 0.93266 0.84747 0.63715 0.0
C528 C 0.89013 0.88618 0.58879 0.0
C529 C 0.91161 0.82697 0.61324 0.0
C530 C 0.84588 0.88513 0.5396 0.0
C531 C 0.85263 0.96543 0.53511 0.0
N532 N 0.89127 0.84652 0.59002 0.0
N533 N 0.87093 0.94556 0.55924 0.0
H534 H 0.14895 0.80226 0.75114 0.0
H535 H 0.1331 0.94315 0.90681 0.0
H536 H 0.04156 0.85543 0.78369 0.0
H537 H 0.24274 0.90066 0.86899 0.0
H538 H 0.09879 0.90739 0.86401 0.0
H539 H 0.18344 0.83456 0.79593 0.0
C540 C 0.13256 0.82062 0.76773 0.0
C541 C 0.09225 0.82616 0.76353 0.0
C542 C 0.13034 0.90569 0.86511 0.0
C543 C 0.13163 0.86319 0.81499 0.0
C544 C 0.14997 0.92599 0.88967 0.0
C545 C 0.19088 0.92487 0.89154 0.0
C546 C 0.15169 0.88395 0.84216 0.0
C547 C 0.21117 0.90228 0.86851 0.0
C548 C 0.15232 0.8391 0.79329 0.0
C549 C 0.07264 0.85036 0.78583 0.0
N550 N 0.19138 0.8828 0.84474 0.0
N551 N 0.0925 0.86792 0.81053 0.0
H552 H 0.09042 0.90192 0.33793 0.0
H553 H 0.23018 0.88711 0.49389 0.0
H554 H 0.12258 0.79239 0.38129 0.0
H555 H 0.18613 0.99505 0.45519 0.0
H556 H 0.19455 0.85159 0.45135 0.0
H557 H 0.1289 0.93602 0.37901 0.0
C558 C 0.10575 0.88497 0.35602 0.0
C559 C 0.10327 0.84418 0.3561 0.0
C560 C 0.19277 0.88304 0.45217 0.0
C561 C 0.14752 0.88327 0.40355 0.0
C562 C 0.21318 0.90338 0.47641 0.0
C563 C 0.21115 0.94418 0.47823 0.0
C564 C 0.17029 0.90364 0.42943 0.0
C565 C 0.18853 0.96363 0.45491 0.0
C566 C 0.1277 0.90453 0.37958 0.0
C567 C 0.12375 0.82386 0.38027 0.0
N568 N 0.16907 0.94322 0.43157 0.0
N569 N 0.145 0.84361 0.40305 0.0
H570 H 0.13478 0.09251 0.58241 0.0
H571 H 0.15233 0.23745 0.73541 0.0
H572 H 0.24494 0.13421 0.61988 0.0
H573 H 0.0443 0.18372 0.70465 0.0
H574 H 0.18632 0.20393 0.69094 0.0
H575 H 0.10081 0.12997 0.62446 0.0
C576 C 0.15185 0.10983 0.5993 0.0
C577 C 0.1928 0.11026 0.59755 0.0
C578 C 0.15517 0.19955 0.69389 0.0
C579 C 0.154 0.15314 0.64604 0.0
C580 C 0.13569 0.21875 0.71926 0.0
C581 C 0.09536 0.21337 0.72391 0.0
C582 C 0.13418 0.17489 0.67282 0.0
C583 C 0.07542 0.18869 0.70216 0.0
C584 C 0.13241 0.13112 0.62343 0.0
C585 C 0.21334 0.13311 0.62025 0.0
N586 N 0.095 0.17042 0.67764 0.0
N587 N 0.19374 0.15355 0.64358 0.0
H588 H 0.95584 0.13145 0.83689 0.0
H589 H 0.80958 0.14753 0.98934 0.0
H590 H 0.91553 0.24079 0.87635 0.0
H591 H 0.8615 0.0397 0.95706 0.0
H592 H 0.8448 0.1818 0.94608 0.0
H593 H 0.91814 0.09708 0.87859 0.0
C594 C 0.93888 0.14825 0.85422 0.0
C595 C 0.93881 0.18909 0.85308 0.0
C596 C 0.84846 0.15064 0.94844 0.0
C597 C 0.89557 0.14984 0.90105 0.0
C598 C 0.82827 0.13099 0.97312 0.0
C599 C 0.83261 0.09063 0.97696 0.0
C600 C 0.87308 0.1298 0.92725 0.0
C601 C 0.85733 0.07083 0.95515 0.0
C602 C 0.91743 0.12858 0.87811 0.0
C603 C 0.9164 0.20929 0.87628 0.0
N604 N 0.87658 0.0906 0.93128 0.0
N605 N 0.89571 0.18948 0.89929 0.0
H606 H 0.99799 0.85497 0.20898 0.0
H607 H 0.79387 0.91154 0.12688 0.0
H608 H 0.88719 0.80785 0.2407 0.0
H609 H 0.90617 0.94623 0.08851 0.0
H610 H 0.82709 0.87402 0.16916 0.0
H611 H 0.96455 0.88936 0.16527 0.0
C612 C 0.96661 0.85178 0.20677 0.0
C613 C 0.94539 0.82846 0.22866 0.0
C614 C 0.84446 0.88966 0.15138 0.0
C615 C 0.90678 0.868 0.17851 0.0
C616 C 0.8255 0.91106 0.12721 0.0
C617 C 0.84727 0.93198 0.10405 0.0
C618 C 0.8855 0.88936 0.15255 0.0
C619 C 0.88819 0.93047 0.10578 0.0
C620 C 0.94752 0.87142 0.18172 0.0
C621 C 0.90477 0.82544 0.22442 0.0
N622 N 0.90594 0.90968 0.12964 0.0
N623 N 0.88679 0.84508 0.19995 0.0
loop_
_geom_bond_atom_site_label_1
_geom_bond_atom_site_label_2
_geom_bond_distance
_geom_bond_site_symmetry_2
_ccdc_geom_bond_type
Co0 N4 2.148 . S
Co0 N10 2.128 . S
Co0 N20 2.194 . S
Co0 O25 2.351 . S
Co0 O26 2.155 . S
Co0 O27 2.096 . S
C1 N4 1.301 . S
C1 N5 1.328 . S
C1 H6 0.930 . S
C2 C3 1.333 . S
C2 N4 1.317 1_655 S
C2 H7 0.930 . S
C3 C2 1.333 . S
C3 N5 1.350 1_655 S
C3 H29 0.931 . S
N4 Co0 2.148 . S
N4 C1 1.301 . S
N4 C2 1.317 1_455 S
N5 C1 1.328 . S
N5 C3 1.350 1_455 S
H6 C1 0.930 . S
H7 C2 0.930 . S
C8 O9 1.224 . S
C8 O27 1.247 . S
O9 C8 1.224 . S
N10 Co0 2.128 . S
N10 C11 1.355 . S
N10 C13 1.311 . S
C11 N10 1.355 . S
C11 C12 1.363 . S
C11 H23 0.929 . S
C12 C11 1.363 . S
C12 N14 1.375 . S
C12 H30 0.931 . S
C13 N10 1.311 . S
C13 N14 1.347 . S
C13 H24 0.929 . S
N14 C12 1.375 . S
N14 C13 1.347 . S
C15 C18 1.365 . S
C15 N20 1.328 . S
C15 H21 0.929 . S
C16 C17 1.362 . S
C16 C19 1.378 . S
C16 H31 0.929 . S
C17 C16 1.362 . S
C17 C18 1.366 . S
C18 C15 1.365 . S
C18 C17 1.366 . S
C18 H32 0.930 . S
C19 C16 1.378 . S
C19 N20 1.315 . S
C19 H22 0.930 . S
N20 Co0 2.194 . S
N20 C15 1.328 . S
N20 C19 1.315 . S
H21 C15 0.929 . S
H22 C19 0.930 . S
H23 C11 0.929 . S
H24 C13 0.929 . S
O25 Co0 2.351 . S
O25 C28 1.244 . S
O26 Co0 2.155 . S
O26 C28 1.240 . S
O27 Co0 2.096 . S
O27 C8 1.247 . S
C28 O25 1.244 . S
C28 O26 1.240 . S
H29 C3 0.931 . S
H30 C12 0.931 . S
H31 C16 0.929 . S
H32 C18 0.930 . S
Co33 N37 2.148 . S
Co33 N43 2.128 . S
Co33 N53 2.194 . S
Co33 O58 2.351 . S
Co33 O59 2.155 . S
Co33 O60 2.096 . S
C34 N37 1.301 . S
C34 N38 1.328 . S
C34 H39 0.930 . S
C35 C36 1.333 . S
C35 N37 1.317 1_565 S
C35 H40 0.930 . S
C36 C35 1.333 . S
C36 N38 1.350 1_565 S
C36 H62 0.931 . S
N37 Co33 2.148 . S
N37 C34 1.301 . S
N37 C35 1.317 1_545 S
N38 C34 1.328 . S
N38 C36 1.350 1_545 S
H39 C34 0.930 . S
H40 C35 0.930 . S
C41 O42 1.224 . S
C41 O60 1.247 . S
O42 C41 1.224 . S
N43 Co33 2.128 . S
N43 C44 1.355 . S
N43 C46 1.311 . S
C44 N43 1.355 . S
C44 C45 1.363 . S
C44 H56 0.929 . S
C45 C44 1.363 . S
C45 N47 1.375 . S
C45 H63 0.931 . S
C46 N43 1.311 . S
C46 N47 1.347 . S
C46 H57 0.929 . S
N47 C45 1.375 . S
N47 C46 1.347 . S
C48 C51 1.365 . S
C48 N53 1.328 . S
C48 H54 0.929 . S
C49 C50 1.362 . S
C49 C52 1.378 . S
C49 H64 0.929 . S
C50 C49 1.362 . S
C50 C51 1.366 . S
C51 C48 1.365 . S
C51 C50 1.366 . S
C51 H65 0.930 . S
C52 C49 1.378 . S
C52 N53 1.315 . S
C52 H55 0.930 . S
N53 Co33 2.194 . S
N53 C48 1.328 . S
N53 C52 1.315 . S
H54 C48 0.929 . S
H55 C52 0.930 . S
H56 C44 0.929 . S
H57 C46 0.929 . S
O58 Co33 2.351 . S
O58 C61 1.244 . S
O59 Co33 2.155 . S
O59 C61 1.240 . S
O60 Co33 2.096 . S
O60 C41 1.247 . S
C61 O58 1.244 . S
C61 O59 1.240 . S
H62 C36 0.931 . S
H63 C45 0.931 . S
H64 C49 0.929 . S
H65 C51 0.930 . S
Co66 N70 2.148 . S
Co66 N76 2.128 . S
Co66 N86 2.194 . S
Co66 O91 2.351 . S
Co66 O92 2.155 . S
Co66 O93 2.096 . S
C67 N70 1.301 . S
C67 N71 1.328 . S
C67 H72 0.930 . S
C68 C69 1.333 . S
C68 N70 1.317 1_455 S
C68 H73 0.930 . S
C69 C68 1.333 . S
C69 N71 1.350 1_455 S
C69 H95 0.931 . S
N70 Co66 2.148 . S
N70 C67 1.301 . S
N70 C68 1.317 1_655 S
N71 C67 1.328 . S
N71 C69 1.350 1_655 S
H72 C67 0.930 . S
H73 C68 0.930 . S
C74 O75 1.224 . S
C74 O93 1.247 . S
O75 C74 1.224 . S
N76 Co66 2.128 . S
N76 C77 1.355 . S
N76 C79 1.311 . S
C77 N76 1.355 . S
C77 C78 1.363 . S
C77 H89 0.929 . S
C78 C77 1.363 . S
C78 N80 1.375 . S
C78 H96 0.931 . S
C79 N76 1.311 . S
C79 N80 1.347 . S
C79 H90 0.929 . S
N80 C78 1.375 . S
N80 C79 1.347 . S
C81 C84 1.365 . S
C81 N86 1.328 . S
C81 H87 0.929 . S
C82 C83 1.362 . S
C82 C85 1.378 . S
C82 H97 0.929 . S
C83 C82 1.362 . S
C83 C84 1.366 . S
C84 C81 1.365 . S
C84 C83 1.366 . S
C84 H98 0.930 . S
C85 C82 1.378 . S
C85 N86 1.315 . S
C85 H88 0.930 . S
N86 Co66 2.194 . S
N86 C81 1.328 . S
N86 C85 1.315 . S
H87 C81 0.929 . S
H88 C85 0.930 . S
H89 C77 0.929 . S
H90 C79 0.929 . S
O91 Co66 2.351 . S
O91 C94 1.244 . S
O92 Co66 2.155 . S
O92 C94 1.240 . S
O93 Co66 2.096 . S
O93 C74 1.247 . S
C94 O91 1.244 . S
C94 O92 1.240 . S
H95 C69 0.931 . S
H96 C78 0.931 . S
H97 C82 0.929 . S
H98 C84 0.930 . S
Co99 N103 2.148 . S
Co99 N109 2.128 . S
Co99 N119 2.194 . S
Co99 O124 2.351 . S
Co99 O125 2.155 . S
Co99 O126 2.096 . S
C100 N103 1.301 . S
C100 N104 1.328 . S
C100 H105 0.930 . S
C101 C102 1.333 . S
C101 N103 1.317 1_545 S
C101 H106 0.930 . S
C102 C101 1.333 . S
C102 N104 1.350 1_545 S
C102 H128 0.931 . S
N103 Co99 2.148 . S
N103 C100 1.301 . S
N103 C101 1.317 1_565 S
N104 C100 1.328 . S
N104 C102 1.350 1_565 S
H105 C100 0.930 . S
H106 C101 0.930 . S
C107 O108 1.224 . S
C107 O126 1.247 . S
O108 C107 1.224 . S
N109 Co99 2.128 . S
N109 C110 1.355 . S
N109 C112 1.311 1_556 S
C110 N109 1.355 . S
C110 C111 1.363 1_556 S
C110 H122 0.929 . S
C111 C110 1.363 1_554 S
C111 N113 1.375 . S
C111 H129 0.931 . S
C112 N109 1.311 1_554 S
C112 N113 1.347 . S
C112 H123 0.929 . S
N113 C111 1.375 . S
N113 C112 1.347 . S
C114 C117 1.365 . S
C114 N119 1.328 . S
C114 H120 0.929 . S
C115 C116 1.362 . S
C115 C118 1.378 . S
C115 H130 0.929 . S
C116 C115 1.362 . S
C116 C117 1.366 . S
C117 C114 1.365 . S
C117 C116 1.366 . S
C117 H131 0.930 . S
C118 C115 1.378 . S
C118 N119 1.315 . S
C118 H121 0.930 . S
N119 Co99 2.194 . S
N119 C114 1.328 . S
N119 C118 1.315 . S
H120 C114 0.929 . S
H121 C118 0.930 . S
H122 C110 0.929 . S
H123 C112 0.929 . S
O124 Co99 2.351 . S
O124 C127 1.244 . S
O125 Co99 2.155 . S
O125 C127 1.240 . S
O126 Co99 2.096 . S
O126 C107 1.247 . S
C127 O124 1.244 . S
C127 O125 1.240 . S
H128 C102 0.931 . S
H129 C111 0.931 . S
H130 C115 0.929 . S
H131 C117 0.930 . S
Co132 N136 2.148 . S
Co132 N142 2.128 . S
Co132 N152 2.194 . S
Co132 O157 2.351 . S
Co132 O158 2.155 . S
Co132 O159 2.096 . S
C133 N136 1.301 . S
C133 N137 1.328 . S
C133 H138 0.930 . S
C134 C135 1.333 . S
C134 N136 1.317 1_655 S
C134 H139 0.930 . S
C135 C134 1.333 . S
C135 N137 1.350 1_655 S
C135 H161 0.931 . S
N136 Co132 2.148 . S
N136 C133 1.301 . S
N136 C134 1.317 1_455 S
N137 C133 1.328 . S
N137 C135 1.350 1_455 S
H138 C133 0.930 . S
H139 C134 0.930 . S
C140 O141 1.224 . S
C140 O159 1.247 . S
O141 C140 1.224 . S
N142 Co132 2.128 . S
N142 C143 1.355 . S
N142 C145 1.311 . S
C143 N142 1.355 . S
C143 C144 1.363 . S
C143 H155 0.929 . S
C144 C143 1.363 . S
C144 N146 1.375 . S
C144 H162 0.931 . S
C145 N142 1.311 . S
C145 N146 1.347 . S
C145 H156 0.929 . S
N146 C144 1.375 . S
N146 C145 1.347 . S
C147 C150 1.365 . S
C147 N152 1.328 . S
C147 H153 0.929 . S
C148 C149 1.362 . S
C148 C151 1.378 . S
C148 H163 0.929 . S
C149 C148 1.362 . S
C149 C150 1.366 . S
C150 C147 1.365 . S
C150 C149 1.366 . S
C150 H164 0.930 . S
C151 C148 1.378 . S
C151 N152 1.315 . S
C151 H154 0.930 . S
N152 Co132 2.194 . S
N152 C147 1.328 . S
N152 C151 1.315 . S
H153 C147 0.929 . S
H154 C151 0.930 . S
H155 C143 0.929 . S
H156 C145 0.929 . S
O157 Co132 2.351 . S
O157 C160 1.244 . S
O158 Co132 2.155 . S
O158 C160 1.240 . S
O159 Co132 2.096 . S
O159 C140 1.247 . S
C160 O157 1.244 . S
C160 O158 1.240 . S
H161 C135 0.931 . S
H162 C144 0.931 . S
H163 C148 0.929 . S
H164 C150 0.930 . S
Co165 N169 2.148 . S
Co165 N175 2.128 . S
Co165 N185 2.194 . S
Co165 O190 2.351 . S
Co165 O191 2.155 . S
Co165 O192 2.096 . S
C166 N169 1.301 . S
C166 N170 1.328 . S
C166 H171 0.930 . S
C167 C168 1.333 . S
C167 N169 1.317 1_565 S
C167 H172 0.930 . S
C168 C167 1.333 . S
C168 N170 1.350 1_565 S
C168 H194 0.931 . S
N169 Co165 2.148 . S
N169 C166 1.301 . S
N169 C167 1.317 1_545 S
N170 C166 1.328 . S
N170 C168 1.350 1_545 S
H171 C166 0.930 . S
H172 C167 0.930 . S
C173 O174 1.224 . S
C173 O192 1.247 . S
O174 C173 1.224 . S
N175 Co165 2.128 . S
N175 C176 1.355 . S
N175 C178 1.311 . S
C176 N175 1.355 . S
C176 C177 1.363 . S
C176 H188 0.929 . S
C177 C176 1.363 . S
C177 N179 1.375 . S
C177 H195 0.931 . S
C178 N175 1.311 . S
C178 N179 1.347 . S
C178 H189 0.929 . S
N179 C177 1.375 . S
N179 C178 1.347 . S
C180 C183 1.365 . S
C180 N185 1.328 . S
C180 H186 0.929 . S
C181 C182 1.362 . S
C181 C184 1.378 . S
C181 H196 0.929 . S
C182 C181 1.362 . S
C182 C183 1.366 . S
C183 C180 1.365 . S
C183 C182 1.366 . S
C183 H197 0.930 . S
C184 C181 1.378 . S
C184 N185 1.315 . S
C184 H187 0.930 . S
N185 Co165 2.194 . S
N185 C180 1.328 . S
N185 C184 1.315 . S
H186 C180 0.929 . S
H187 C184 0.930 . S
H188 C176 0.929 . S
H189 C178 0.929 . S
O190 Co165 2.351 . S
O190 C193 1.244 . S
O191 Co165 2.155 . S
O191 C193 1.240 . S
O192 Co165 2.096 . S
O192 C173 1.247 . S
C193 O190 1.244 . S
C193 O191 1.240 . S
H194 C168 0.931 . S
H195 C177 0.931 . S
H196 C181 0.929 . S
H197 C183 0.930 . S
Co198 N202 2.148 . S
Co198 N208 2.128 . S
Co198 N218 2.194 . S
Co198 O223 2.351 . S
Co198 O224 2.155 . S
Co198 O225 2.096 . S
C199 N202 1.301 . S
C199 N203 1.328 . S
C199 H204 0.930 . S
C200 C201 1.333 . S
C200 N202 1.317 1_455 S
C200 H205 0.930 . S
C201 C200 1.333 . S
C201 N203 1.350 1_455 S
C201 H227 0.931 . S
N202 Co198 2.148 . S
N202 C199 1.301 . S
N202 C200 1.317 1_655 S
N203 C199 1.328 . S
N203 C201 1.350 1_655 S
H204 C199 0.930 . S
H205 C200 0.930 . S
C206 O207 1.224 . S
C206 O225 1.247 . S
O207 C206 1.224 . S
N208 Co198 2.128 . S
N208 C209 1.355 . S
N208 C211 1.311 . S
C209 N208 1.355 . S
C209 C210 1.363 . S
C209 H221 0.929 . S
C210 C209 1.363 . S
C210 N212 1.375 . S
C210 H228 0.931 . S
C211 N208 1.311 . S
C211 N212 1.347 . S
C211 H222 0.929 . S
N212 C210 1.375 . S
N212 C211 1.347 . S
C213 C216 1.365 . S
C213 N218 1.328 . S
C213 H219 0.929 . S
C214 C215 1.362 . S
C214 C217 1.378 . S
C214 H229 0.929 . S
C215 C214 1.362 . S
C215 C216 1.366 . S
C216 C213 1.365 . S
C216 C215 1.366 . S
C216 H230 0.930 . S
C217 C214 1.378 . S
C217 N218 1.315 . S
C217 H220 0.930 . S
N218 Co198 2.194 . S
N218 C213 1.328 . S
N218 C217 1.315 . S
H219 C213 0.929 . S
H220 C217 0.930 . S
H221 C209 0.929 . S
H222 C211 0.929 . S
O223 Co198 2.351 . S
O223 C226 1.244 . S
O224 Co198 2.155 . S
O224 C226 1.240 . S
O225 Co198 2.096 . S
O225 C206 1.247 . S
C226 O223 1.244 . S
C226 O224 1.240 . S
H227 C201 0.931 . S
H228 C210 0.931 . S
H229 C214 0.929 . S
H230 C216 0.930 . S
Co231 N235 2.148 . S
Co231 N241 2.128 . S
Co231 N251 2.194 . S
Co231 O256 2.351 . S
Co231 O257 2.155 . S
Co231 O258 2.096 . S
C232 N235 1.301 . S
C232 N236 1.328 . S
C232 H237 0.930 . S
C233 C234 1.333 . S
C233 N235 1.317 1_545 S
C233 H238 0.930 . S
C234 C233 1.333 . S
C234 N236 1.350 1_545 S
C234 H260 0.931 . S
N235 Co231 2.148 . S
N235 C232 1.301 . S
N235 C233 1.317 1_565 S
N236 C232 1.328 . S
N236 C234 1.350 1_565 S
H237 C232 0.930 . S
H238 C233 0.930 . S
C239 O240 1.224 . S
C239 O258 1.247 . S
O240 C239 1.224 . S
N241 Co231 2.128 . S
N241 C242 1.355 . S
N241 C244 1.311 1_554 S
C242 N241 1.355 . S
C242 C243 1.363 1_554 S
C242 H254 0.929 . S
C243 C242 1.363 1_556 S
C243 N245 1.375 . S
C243 H261 0.931 . S
C244 N241 1.311 1_556 S
C244 N245 1.347 . S
C244 H255 0.929 . S
N245 C243 1.375 . S
N245 C244 1.347 . S
C246 C249 1.365 . S
C246 N251 1.328 . S
C246 H252 0.929 . S
C247 C248 1.362 . S
C247 C250 1.378 . S
C247 H262 0.929 . S
C248 C247 1.362 . S
C248 C249 1.366 . S
C249 C246 1.365 . S
C249 C248 1.366 . S
C249 H263 0.930 . S
C250 C247 1.378 . S
C250 N251 1.315 . S
C250 H253 0.930 . S
N251 Co231 2.194 . S
N251 C246 1.328 . S
N251 C250 1.315 . S
H252 C246 0.929 . S
H253 C250 0.930 . S
H254 C242 0.929 . S
H255 C244 0.929 . S
O256 Co231 2.351 . S
O256 C259 1.244 . S
O257 Co231 2.155 . S
O257 C259 1.240 . S
O258 Co231 2.096 . S
O258 C239 1.247 . S
C259 O256 1.244 . S
C259 O257 1.240 . S
H260 C234 0.931 . S
H261 C243 0.931 . S
H262 C247 0.929 . S
H263 C249 0.930 . S
H264 C270 0.930 . S
H265 C274 0.930 . S
H266 C279 0.929 . S
H267 C277 0.929 . S
H268 C272 0.929 . S
H269 C278 0.929 . S
C270 H264 0.930 . S
C270 C271 1.367 . S
C270 C278 1.378 . S
C271 C270 1.367 . S
C271 C279 1.433 . S
C272 H268 0.929 . S
C272 C274 1.378 . S
C272 C276 1.350 . S
C273 C276 1.463 . S
C273 C278 1.350 . S
C273 N281 1.427 . S
C274 H265 0.930 . S
C274 C272 1.378 . S
C274 C275 1.367 . S
C275 C274 1.367 . S
C275 C277 1.433 . S
C276 C272 1.350 . S
C276 C273 1.463 . S
C276 N280 1.427 . S
C277 H267 0.929 . S
C277 C275 1.433 . S
C277 N280 1.384 . S
C278 H269 0.929 . S
C278 C270 1.378 . S
C278 C273 1.350 . S
C279 H266 0.929 . S
C279 C271 1.433 . S
C279 N281 1.384 . S
N280 C276 1.427 . S
N280 C277 1.384 . S
N281 C273 1.427 . S
N281 C279 1.384 . S
H282 C288 0.930 . S
H283 C292 0.930 . S
H284 C297 0.929 . S
H285 C295 0.929 . S
H286 C290 0.929 . S
H287 C296 0.929 . S
C288 H282 0.930 . S
C288 C289 1.367 . S
C288 C296 1.378 . S
C289 C288 1.367 . S
C289 C297 1.433 . S
C290 H286 0.929 . S
C290 C292 1.378 . S
C290 C294 1.350 . S
C291 C294 1.463 . S
C291 C296 1.350 . S
C291 N299 1.427 . S
C292 H283 0.930 . S
C292 C290 1.378 . S
C292 C293 1.367 . S
C293 C292 1.367 . S
C293 C295 1.433 . S
C294 C290 1.350 . S
C294 C291 1.463 . S
C294 N298 1.427 . S
C295 H285 0.929 . S
C295 C293 1.433 . S
C295 N298 1.384 . S
C296 H287 0.929 . S
C296 C288 1.378 . S
C296 C291 1.350 . S
C297 H284 0.929 . S
C297 C289 1.433 . S
C297 N299 1.384 . S
N298 C294 1.427 . S
N298 C295 1.384 . S
N299 C291 1.427 . S
N299 C297 1.384 . S
H300 C306 0.930 . S
H301 C310 0.930 . S
H302 C315 0.929 . S
H303 C313 0.929 . S
H304 C308 0.929 . S
H305 C314 0.929 . S
C306 H300 0.930 . S
C306 C307 1.367 . S
C306 C314 1.378 . S
C307 C306 1.367 . S
C307 C315 1.433 . S
C308 H304 0.929 . S
C308 C310 1.378 . S
C308 C312 1.350 . S
C309 C312 1.463 . S
C309 C314 1.350 . S
C309 N317 1.427 . S
C310 H301 0.930 . S
C310 C308 1.378 . S
C310 C311 1.367 . S
C311 C310 1.367 . S
C311 C313 1.433 . S
C312 C308 1.350 . S
C312 C309 1.463 . S
C312 N316 1.427 . S
C313 H303 0.929 . S
C313 C311 1.433 . S
C313 N316 1.384 . S
C314 H305 0.929 . S
C314 C306 1.378 . S
C314 C309 1.350 . S
C315 H302 0.929 . S
C315 C307 1.433 . S
C315 N317 1.384 . S
N316 C312 1.427 . S
N316 C313 1.384 . S
N317 C309 1.427 . S
N317 C315 1.384 . S
H318 C324 0.930 1_554 S
H319 C328 0.930 1_556 S
H320 C333 0.929 . S
H321 C331 0.929 . S
H322 C326 0.929 . S
H323 C332 0.929 . S
C324 H318 0.930 1_556 S
C324 C325 1.367 . S
C324 C332 1.378 1_556 S
C325 C324 1.367 . S
C325 C333 1.433 . S
C326 H322 0.929 . S
C326 C328 1.378 1_556 S
C326 C330 1.350 1_556 S
C327 C330 1.463 1_556 S
C327 C332 1.350 1_556 S
C327 N335 1.427 . S
C328 H319 0.930 1_554 S
C328 C326 1.378 1_554 S
C328 C329 1.367 . S
C329 C328 1.367 . S
C329 C331 1.433 . S
C330 C326 1.350 1_554 S
C330 C327 1.463 1_554 S
C330 N334 1.427 . S
C331 H321 0.929 . S
C331 C329 1.433 . S
C331 N334 1.384 . S
C332 H323 0.929 . S
C332 C324 1.378 1_554 S
C332 C327 1.350 1_554 S
C333 H320 0.929 . S
C333 C325 1.433 . S
C333 N335 1.384 . S
N334 C330 1.427 . S
N334 C331 1.384 . S
N335 C327 1.427 . S
N335 C333 1.384 . S
H336 C342 0.930 . S
H337 C346 0.930 . S
H338 C351 0.929 . S
H339 C349 0.929 . S
H340 C344 0.929 . S
H341 C350 0.929 . S
C342 H336 0.930 . S
C342 C343 1.367 . S
C342 C350 1.378 . S
C343 C342 1.367 . S
C343 C351 1.433 . S
C344 H340 0.929 . S
C344 C346 1.378 . S
C344 C348 1.350 . S
C345 C348 1.463 . S
C345 C350 1.350 . S
C345 N353 1.427 . S
C346 H337 0.930 . S
C346 C344 1.378 . S
C346 C347 1.367 . S
C347 C346 1.367 . S
C347 C349 1.433 . S
C348 C344 1.350 . S
C348 C345 1.463 . S
C348 N352 1.427 . S
C349 H339 0.929 . S
C349 C347 1.433 . S
C349 N352 1.384 . S
C350 H341 0.929 . S
C350 C342 1.378 . S
C350 C345 1.350 . S
C351 H338 0.929 . S
C351 C343 1.433 . S
C351 N353 1.384 . S
N352 C348 1.427 . S
N352 C349 1.384 . S
N353 C345 1.427 . S
N353 C351 1.384 . S
H354 C360 0.930 . S
H355 C364 0.930 . S
H356 C369 0.929 . S
H357 C367 0.929 . S
H358 C362 0.929 . S
H359 C368 0.929 . S
C360 H354 0.930 . S
C360 C361 1.367 . S
C360 C368 1.378 . S
C361 C360 1.367 . S
C361 C369 1.433 . S
C362 H358 0.929 . S
C362 C364 1.378 . S
C362 C366 1.350 . S
C363 C366 1.463 . S
C363 C368 1.350 . S
C363 N371 1.427 . S
C364 H355 0.930 . S
C364 C362 1.378 . S
C364 C365 1.367 . S
C365 C364 1.367 . S
C365 C367 1.433 . S
C366 C362 1.350 . S
C366 C363 1.463 . S
C366 N370 1.427 . S
C367 H357 0.929 . S
C367 C365 1.433 . S
C367 N370 1.384 . S
C368 H359 0.929 . S
C368 C360 1.378 . S
C368 C363 1.350 . S
C369 H356 0.929 . S
C369 C361 1.433 . S
C369 N371 1.384 . S
N370 C366 1.427 . S
N370 C367 1.384 . S
N371 C363 1.427 . S
N371 C369 1.384 . S
H372 C378 0.930 . S
H373 C382 0.930 . S
H374 C387 0.929 . S
H375 C385 0.929 . S
H376 C380 0.929 . S
H377 C386 0.929 . S
C378 H372 0.930 . S
C378 C379 1.367 . S
C378 C386 1.378 . S
C379 C378 1.367 . S
C379 C387 1.433 . S
C380 H376 0.929 . S
C380 C382 1.378 . S
C380 C384 1.350 . S
C381 C384 1.463 . S
C381 C386 1.350 . S
C381 N389 1.427 . S
C382 H373 0.930 . S
C382 C380 1.378 . S
C382 C383 1.367 . S
C383 C382 1.367 . S
C383 C385 1.433 . S
C384 C380 1.350 . S
C384 C381 1.463 . S
C384 N388 1.427 . S
C385 H375 0.929 . S
C385 C383 1.433 . S
C385 N388 1.384 . S
C386 H377 0.929 . S
C386 C378 1.378 . S
C386 C381 1.350 . S
C387 H374 0.929 . S
C387 C379 1.433 . S
C387 N389 1.384 . S
N388 C384 1.427 . S
N388 C385 1.384 . S
N389 C381 1.427 . S
N389 C387 1.384 . S
H390 C396 0.930 . S
H391 C400 0.930 . S
H392 C405 0.929 . S
H393 C403 0.929 . S
H394 C398 0.929 . S
H395 C404 0.929 . S
C396 H390 0.930 . S
C396 C397 1.367 . S
C396 C404 1.378 . S
C397 C396 1.367 . S
C397 C405 1.433 . S
C398 H394 0.929 . S
C398 C400 1.378 . S
C398 C402 1.350 . S
C399 C402 1.463 . S
C399 C404 1.350 . S
C399 N407 1.427 . S
C400 H391 0.930 . S
C400 C398 1.378 . S
C400 C401 1.367 . S
C401 C400 1.367 . S
C401 C403 1.433 . S
C402 C398 1.350 . S
C402 C399 1.463 . S
C402 N406 1.427 . S
C403 H393 0.929 . S
C403 C401 1.433 . S
C403 N406 1.384 . S
C404 H395 0.929 . S
C404 C396 1.378 . S
C404 C399 1.350 . S
C405 H392 0.929 . S
C405 C397 1.433 . S
C405 N407 1.384 . S
N406 C402 1.427 . S
N406 C403 1.384 . S
N407 C399 1.427 . S
N407 C405 1.384 . S
H408 C414 0.930 . S
H409 C418 0.930 . S
H410 C423 0.929 . S
H411 C421 0.929 . S
H412 C416 0.929 . S
H413 C422 0.929 . S
C414 H408 0.930 . S
C414 C415 1.367 1_655 S
C414 C422 1.378 . S
C415 C414 1.367 1_455 S
C415 C423 1.433 . S
C416 H412 0.929 . S
C416 C418 1.378 . S
C416 C420 1.349 1_455 S
C417 C420 1.462 1_454 S
C417 C422 1.349 1_455 S
C417 N425 1.429 . S
C418 H409 0.930 . S
C418 C416 1.378 . S
C418 C419 1.367 1_455 S
C419 C418 1.367 1_655 S
C419 C421 1.433 . S
C420 C416 1.349 1_655 S
C420 C417 1.462 1_656 S
C420 N424 1.429 . S
C421 H411 0.929 . S
C421 C419 1.433 . S
C421 N424 1.384 . S
C422 H413 0.929 . S
C422 C414 1.378 . S
C422 C417 1.349 1_655 S
C423 H410 0.929 . S
C423 C415 1.433 . S
C423 N425 1.384 . S
N424 C420 1.429 . S
N424 C421 1.384 . S
N425 C417 1.429 . S
N425 C423 1.384 . S
H426 C432 0.930 . S
H427 C436 0.930 . S
H428 C441 0.929 . S
H429 C439 0.929 . S
H430 C434 0.929 . S
H431 C440 0.929 . S
C432 H426 0.930 . S
C432 C433 1.367 1_545 S
C432 C440 1.378 . S
C433 C432 1.367 1_565 S
C433 C441 1.433 . S
C434 H430 0.929 . S
C434 C436 1.378 . S
C434 C438 1.353 . S
C435 C438 1.462 1_545 S
C435 C440 1.353 . S
C435 N443 1.424 1_545 S
C436 H427 0.930 . S
C436 C434 1.378 . S
C436 C437 1.367 1_565 S
C437 C436 1.367 1_545 S
C437 C439 1.433 . S
C438 C434 1.353 . S
C438 C435 1.462 1_565 S
C438 N442 1.424 1_565 S
C439 H429 0.929 . S
C439 C437 1.433 . S
C439 N442 1.384 . S
C440 H431 0.929 . S
C440 C432 1.378 . S
C440 C435 1.353 . S
C441 H428 0.929 . S
C441 C433 1.433 . S
C441 N443 1.384 . S
N442 C438 1.424 1_545 S
N442 C439 1.384 . S
N443 C435 1.424 1_565 S
N443 C441 1.384 . S
H444 C450 0.930 . S
H445 C454 0.930 . S
H446 C459 0.929 . S
H447 C457 0.929 . S
H448 C452 0.929 . S
H449 C458 0.929 . S
C450 H444 0.930 . S
C450 C451 1.367 1_455 S
C450 C458 1.378 . S
C451 C450 1.367 1_655 S
C451 C459 1.433 . S
C452 H448 0.929 . S
C452 C454 1.378 . S
C452 C456 1.356 . S
C453 C456 1.462 1_455 S
C453 C458 1.356 . S
C453 N461 1.421 1_455 S
C454 H445 0.930 . S
C454 C452 1.378 . S
C454 C455 1.367 1_655 S
C455 C454 1.367 1_455 S
C455 C457 1.433 . S
C456 C452 1.356 . S
C456 C453 1.462 1_655 S
C456 N460 1.421 1_655 S
C457 H447 0.929 . S
C457 C455 1.433 . S
C457 N460 1.384 . S
C458 H449 0.929 . S
C458 C450 1.378 . S
C458 C453 1.356 . S
C459 H446 0.929 . S
C459 C451 1.433 . S
C459 N461 1.384 . S
N460 C456 1.421 1_455 S
N460 C457 1.384 . S
N461 C453 1.421 1_655 S
N461 C459 1.384 . S
H462 C468 0.930 . S
H463 C472 0.930 . S
H464 C477 0.929 . S
H465 C475 0.929 . S
H466 C470 0.929 . S
H467 C476 0.929 . S
C468 H462 0.930 . S
C468 C469 1.367 . S
C468 C476 1.378 . S
C469 C468 1.367 . S
C469 C477 1.433 1_545 S
C470 H466 0.929 . S
C470 C472 1.378 . S
C470 C474 1.350 . S
C471 C474 1.463 1_545 S
C471 C476 1.350 . S
C471 N479 1.427 1_545 S
C472 H463 0.930 . S
C472 C470 1.378 . S
C472 C473 1.367 . S
C473 C472 1.367 . S
C473 C475 1.433 1_565 S
C474 C470 1.350 . S
C474 C471 1.463 1_565 S
C474 N478 1.427 1_565 S
C475 H465 0.929 . S
C475 C473 1.433 1_545 S
C475 N478 1.384 . S
C476 H467 0.929 . S
C476 C468 1.378 . S
C476 C471 1.350 . S
C477 H464 0.929 . S
C477 C469 1.433 1_565 S
C477 N479 1.384 . S
N478 C474 1.427 1_545 S
N478 C475 1.384 . S
N479 C471 1.427 1_565 S
N479 C477 1.384 . S
H480 C486 0.930 . S
H481 C490 0.930 1_565 S
H482 C495 0.929 . S
H483 C493 0.929 1_556 S
H484 C488 0.929 . S
H485 C494 0.929 . S
C486 H480 0.930 . S
C486 C487 1.367 . S
C486 C494 1.378 . S
C487 C486 1.367 . S
C487 C495 1.433 . S
C488 H484 0.929 . S
C488 C490 1.378 . S
C488 C492 1.350 . S
C489 C492 1.463 . S
C489 C494 1.350 . S
C489 N497 1.427 . S
C490 H481 0.930 1_545 S
C490 C488 1.378 . S
C490 C491 1.367 . S
C491 C490 1.367 . S
C491 C493 1.433 . S
C492 C488 1.350 . S
C492 C489 1.463 . S
C492 N496 1.427 . S
C493 H483 0.929 1_554 S
C493 C491 1.433 . S
C493 N496 1.384 . S
C494 H485 0.929 . S
C494 C486 1.378 . S
C494 C489 1.350 . S
C495 H482 0.929 . S
C495 C487 1.433 . S
C495 N497 1.384 . S
N496 C492 1.427 . S
N496 C493 1.384 . S
N497 C489 1.427 . S
N497 C495 1.384 . S
H498 C504 0.930 . S
H499 C508 0.930 . S
H500 C513 0.929 . S
H501 C511 0.929 . S
H502 C506 0.929 . S
H503 C512 0.929 . S
C504 H498 0.930 . S
C504 C505 1.367 . S
C504 C512 1.378 . S
C505 C504 1.367 . S
C505 C513 1.433 . S
C506 H502 0.929 . S
C506 C508 1.378 . S
C506 C510 1.350 . S
C507 C510 1.463 . S
C507 C512 1.350 . S
C507 N515 1.427 . S
C508 H499 0.930 . S
C508 C506 1.378 . S
C508 C509 1.367 . S
C509 C508 1.367 . S
C509 C511 1.433 . S
C510 C506 1.350 . S
C510 C507 1.463 . S
C510 N514 1.427 . S
C511 H501 0.929 . S
C511 C509 1.433 . S
C511 N514 1.384 . S
C512 H503 0.929 . S
C512 C504 1.378 . S
C512 C507 1.350 . S
C513 H500 0.929 . S
C513 C505 1.433 . S
C513 N515 1.384 . S
N514 C510 1.427 . S
N514 C511 1.384 . S
N515 C507 1.427 . S
N515 C513 1.384 . S
H516 C522 0.930 . S
H517 C526 0.930 . S
H518 C531 0.929 . S
H519 C529 0.929 . S
H520 C524 0.929 . S
H521 C530 0.929 . S
C522 H516 0.930 . S
C522 C523 1.367 . S
C522 C530 1.378 . S
C523 C522 1.367 . S
C523 C531 1.433 . S
C524 H520 0.929 . S
C524 C526 1.378 . S
C524 C528 1.350 . S
C525 C528 1.463 . S
C525 C530 1.350 . S
C525 N533 1.427 . S
C526 H517 0.930 . S
C526 C524 1.378 . S
C526 C527 1.367 . S
C527 C526 1.367 . S
C527 C529 1.433 . S
C528 C524 1.350 . S
C528 C525 1.463 . S
C528 N532 1.427 . S
C529 H519 0.929 . S
C529 C527 1.433 . S
C529 N532 1.384 . S
C530 H521 0.929 . S
C530 C522 1.378 . S
C530 C525 1.350 . S
C531 H518 0.929 . S
C531 C523 1.433 . S
C531 N533 1.384 . S
N532 C528 1.427 . S
N532 C529 1.384 . S
N533 C525 1.427 . S
N533 C531 1.384 . S
H534 C540 0.930 . S
H535 C544 0.930 . S
H536 C549 0.929 1_655 S
H537 C547 0.929 . S
H538 C542 0.929 . S
H539 C548 0.929 . S
C540 H534 0.930 . S
C540 C541 1.367 . S
C540 C548 1.378 . S
C541 C540 1.367 . S
C541 C549 1.433 . S
C542 H538 0.929 . S
C542 C544 1.378 . S
C542 C546 1.350 . S
C543 C546 1.463 . S
C543 C548 1.350 . S
C543 N551 1.427 . S
C544 H535 0.930 . S
C544 C542 1.378 . S
C544 C545 1.367 . S
C545 C544 1.367 . S
C545 C547 1.433 . S
C546 C542 1.350 . S
C546 C543 1.463 . S
C546 N550 1.427 . S
C547 H537 0.929 . S
C547 C545 1.433 . S
C547 N550 1.384 . S
C548 H539 0.929 . S
C548 C540 1.378 . S
C548 C543 1.350 . S
C549 H536 0.929 1_455 S
C549 C541 1.433 . S
C549 N551 1.384 . S
N550 C546 1.427 . S
N550 C547 1.384 . S
N551 C543 1.427 . S
N551 C549 1.384 . S
H552 C558 0.930 . S
H553 C562 0.930 . S
H554 C567 0.929 . S
H555 C565 0.929 1_545 S
H556 C560 0.929 . S
H557 C566 0.929 . S
C558 H552 0.930 . S
C558 C559 1.367 . S
C558 C566 1.378 . S
C559 C558 1.367 . S
C559 C567 1.433 . S
C560 H556 0.929 . S
C560 C562 1.378 . S
C560 C564 1.350 . S
C561 C564 1.463 . S
C561 C566 1.350 . S
C561 N569 1.427 . S
C562 H553 0.930 . S
C562 C560 1.378 . S
C562 C563 1.367 . S
C563 C562 1.367 . S
C563 C565 1.433 . S
C564 C560 1.350 . S
C564 C561 1.463 . S
C564 N568 1.427 . S
C565 H555 0.929 1_565 S
C565 C563 1.433 . S
C565 N568 1.384 . S
C566 H557 0.929 . S
C566 C558 1.378 . S
C566 C561 1.350 . S
C567 H554 0.929 . S
C567 C559 1.433 . S
C567 N569 1.384 . S
N568 C564 1.427 . S
N568 C565 1.384 . S
N569 C561 1.427 . S
N569 C567 1.384 . S
H570 C576 0.930 . S
H571 C580 0.930 . S
H572 C585 0.929 . S
H573 C583 0.929 . S
H574 C578 0.929 . S
H575 C584 0.929 . S
C576 H570 0.930 . S
C576 C577 1.367 . S
C576 C584 1.378 . S
C577 C576 1.367 . S
C577 C585 1.433 . S
C578 H574 0.929 . S
C578 C580 1.378 . S
C578 C582 1.350 . S
C579 C582 1.463 . S
C579 C584 1.350 . S
C579 N587 1.427 . S
C580 H571 0.930 . S
C580 C578 1.378 . S
C580 C581 1.367 . S
C581 C580 1.367 . S
C581 C583 1.433 . S
C582 C578 1.350 . S
C582 C579 1.463 . S
C582 N586 1.427 . S
C583 H573 0.929 . S
C583 C581 1.433 . S
C583 N586 1.384 . S
C584 H575 0.929 . S
C584 C576 1.378 . S
C584 C579 1.350 . S
C585 H572 0.929 . S
C585 C577 1.433 . S
C585 N587 1.384 . S
N586 C582 1.427 . S
N586 C583 1.384 . S
N587 C579 1.427 . S
N587 C585 1.384 . S
H588 C594 0.930 . S
H589 C598 0.930 . S
H590 C603 0.929 . S
H591 C601 0.929 . S
H592 C596 0.929 . S
H593 C602 0.929 . S
C594 H588 0.930 . S
C594 C595 1.367 . S
C594 C602 1.378 . S
C595 C594 1.367 . S
C595 C603 1.433 . S
C596 H592 0.929 . S
C596 C598 1.378 . S
C596 C600 1.350 . S
C597 C600 1.463 . S
C597 C602 1.350 . S
C597 N605 1.427 . S
C598 H589 0.930 . S
C598 C596 1.378 . S
C598 C599 1.367 . S
C599 C598 1.367 . S
C599 C601 1.433 . S
C600 C596 1.350 . S
C600 C597 1.463 . S
C600 N604 1.427 . S
C601 H591 0.929 . S
C601 C599 1.433 . S
C601 N604 1.384 . S
C602 H593 0.929 . S
C602 C594 1.378 . S
C602 C597 1.350 . S
C603 H590 0.929 . S
C603 C595 1.433 . S
C603 N605 1.384 . S
N604 C600 1.427 . S
N604 C601 1.384 . S
N605 C597 1.427 . S
N605 C603 1.384 . S
H606 C612 0.930 . S
H607 C616 0.930 . S
H608 C621 0.929 . S
H609 C619 0.929 . S
H610 C614 0.929 . S
H611 C620 0.929 . S
C612 H606 0.930 . S
C612 C613 1.367 . S
C612 C620 1.378 . S
C613 C612 1.367 . S
C613 C621 1.433 . S
C614 H610 0.929 . S
C614 C616 1.378 . S
C614 C618 1.350 . S
C615 C618 1.463 . S
C615 C620 1.350 . S
C615 N623 1.427 . S
C616 H607 0.930 . S
C616 C614 1.378 . S
C616 C617 1.367 . S
C617 C616 1.367 . S
C617 C619 1.433 . S
C618 C614 1.350 . S
C618 C615 1.463 . S
C618 N622 1.427 . S
C619 H609 0.929 . S
C619 C617 1.433 . S
C619 N622 1.384 . S
C620 H611 0.929 . S
C620 C612 1.378 . S
C620 C615 1.350 . S
C621 H608 0.929 . S
C621 C613 1.433 . S
C621 N623 1.384 . S
N622 C618 1.427 . S
N622 C619 1.384 . S
N623 C615 1.427 . S
N623 C621 1.384 . S
C271 C149 1.413 . S
C275 C17 1.418 . S
C289 C50 1.411 . S
C293 C182 1.417 . S
C307 C83 1.414 . S
C311 C215 1.418 . S
C325 C116 1.410 . S
C329 C248 1.415 . S
C343 N179 0.775 . S
C347 N14 0.767 . S
C361 N47 0.758 . S
C365 N212 0.770 . S
C379 N245 0.750 . S
C383 N80 0.756 . S
C397 N113 0.755 . S
C401 N146 0.767 . S
C415 N5 1.137 . S
C419 N203 1.126 . S
C433 N236 1.136 . S
C437 N38 1.128 . S
C451 N71 1.129 . S
C455 N137 1.136 . S
C469 N170 1.127 . S
C473 N104 1.134 . S
C487 C28 1.928 . S
C491 C107 1.936 1_544 S
C505 C8 1.936 1_655 S
C509 C61 1.923 . S
C523 C41 1.935 1_565 S
C527 C94 1.924 . S
C541 C74 1.938 1_455 S
C545 C127 1.923 . S
C559 C160 1.923 . S
C563 C173 1.938 1_565 S
C577 C193 1.925 . S
C581 C206 1.935 1_455 S
C595 C226 1.923 . S
C599 C239 1.936 1_546 S
C613 C140 1.940 1_655 S
C617 C259 1.928 . S
