# Generated by pormake.
# Topology wkf, (6)-cn, num edge types: 1
# Building blocks:
#     Node 0, Type 0, BuildingBlock: HISSIN_clean_sbu_0, # of connection points: 6
#     Node 1, Type 0, BuildingBlock: HISSIN_clean_sbu_0, # of connection points: 6
#     Node 2, Type 0, BuildingBlock: HISSIN_clean_sbu_0, # of connection points: 6
#     Node 3, Type 0, BuildingBlock: HISSIN_clean_sbu_0, # of connection points: 6
#     Node 4, Type 0, BuildingBlock: HISSIN_clean_sbu_0, # of connection points: 6
#     Node 5, Type 0, BuildingBlock: HISSIN_clean_sbu_0, # of connection points: 6
#     Node 6, Type 0, BuildingBlock: HISSIN_clean_sbu_0, # of connection points: 6
#     Node 7, Type 0, BuildingBlock: HISSIN_clean_sbu_0, # of connection points: 6
#     Node 8, Type 0, BuildingBlock: HISSIN_clean_sbu_0, # of connection points: 6
#     Node 9, Type 0, BuildingBlock: HISSIN_clean_sbu_0, # of connection points: 6
#     Node 10, Type 0, BuildingBlock: HISSIN_clean_sbu_0, # of connection points: 6
#     Node 11, Type 0, BuildingBlock: HISSIN_clean_sbu_0, # of connection points: 6
#     Edge 12, Type (0, 0), BuildingBlock: CIFDUS_clean_linker_0, # of connection points: 2
#     Edge 13, Type (0, 0), BuildingBlock: CIFDUS_clean_linker_0, # of connection points: 2
#     Edge 14, Type (0, 0), BuildingBlock: CIFDUS_clean_linker_0, # of connection points: 2
#     Edge 15, Type (0, 0), BuildingBlock: CIFDUS_clean_linker_0, # of connection points: 2
#     Edge 16, Type (0, 0), BuildingBlock: CIFDUS_clean_linker_0, # of connection points: 2
#     Edge 17, Type (0, 0), BuildingBlock: CIFDUS_clean_linker_0, # of connection points: 2
#     Edge 18, Type (0, 0), BuildingBlock: CIFDUS_clean_linker_0, # of connection points: 2
#     Edge 19, Type (0, 0), BuildingBlock: CIFDUS_clean_linker_0, # of connection points: 2
#     Edge 20, Type (0, 0), BuildingBlock: CIFDUS_clean_linker_0, # of connection points: 2
#     Edge 21, Type (0, 0), BuildingBlock: CIFDUS_clean_linker_0, # of connection points: 2
#     Edge 22, Type (0, 0), BuildingBlock: CIFDUS_clean_linker_0, # of connection points: 2
#     Edge 23, Type (0, 0), BuildingBlock: CIFDUS_clean_linker_0, # of connection points: 2
#     Edge 24, Type (0, 0), BuildingBlock: CIFDUS_clean_linker_0, # of connection points: 2
#     Edge 25, Type (0, 0), BuildingBlock: CIFDUS_clean_linker_0, # of connection points: 2
#     Edge 26, Type (0, 0), BuildingBlock: CIFDUS_clean_linker_0, # of connection points: 2
#     Edge 27, Type (0, 0), BuildingBlock: CIFDUS_clean_linker_0, # of connection points: 2
#     Edge 28, Type (0, 0), BuildingBlock: CIFDUS_clean_linker_0, # of connection points: 2
#     Edge 29, Type (0, 0), BuildingBlock: CIFDUS_clean_linker_0, # of connection points: 2
#     Edge 30, Type (0, 0), BuildingBlock: CIFDUS_clean_linker_0, # of connection points: 2
#     Edge 31, Type (0, 0), BuildingBlock: CIFDUS_clean_linker_0, # of connection points: 2
#     Edge 32, Type (0, 0), BuildingBlock: CIFDUS_clean_linker_0, # of connection points: 2
#     Edge 33, Type (0, 0), BuildingBlock: CIFDUS_clean_linker_0, # of connection points: 2
#     Edge 34, Type (0, 0), BuildingBlock: CIFDUS_clean_linker_0, # of connection points: 2
#     Edge 35, Type (0, 0), BuildingBlock: CIFDUS_clean_linker_0, # of connection points: 2
#     Edge 36, Type (0, 0), BuildingBlock: CIFDUS_clean_linker_0, # of connection points: 2
#     Edge 37, Type (0, 0), BuildingBlock: CIFDUS_clean_linker_0, # of connection points: 2
#     Edge 38, Type (0, 0), BuildingBlock: CIFDUS_clean_linker_0, # of connection points: 2
#     Edge 39, Type (0, 0), BuildingBlock: CIFDUS_clean_linker_0, # of connection points: 2
#     Edge 40, Type (0, 0), BuildingBlock: CIFDUS_clean_linker_0, # of connection points: 2
#     Edge 41, Type (0, 0), BuildingBlock: CIFDUS_clean_linker_0, # of connection points: 2
#     Edge 42, Type (0, 0), BuildingBlock: CIFDUS_clean_linker_0, # of connection points: 2
#     Edge 43, Type (0, 0), BuildingBlock: CIFDUS_clean_linker_0, # of connection points: 2
#     Edge 44, Type (0, 0), BuildingBlock: CIFDUS_clean_linker_0, # of connection points: 2
#     Edge 45, Type (0, 0), BuildingBlock: CIFDUS_clean_linker_0, # of connection points: 2
#     Edge 46, Type (0, 0), BuildingBlock: CIFDUS_clean_linker_0, # of connection points: 2
#     Edge 47, Type (0, 0), BuildingBlock: CIFDUS_clean_linker_0, # of connection points: 2
# Relax obj value: 0.337
# Max RMSD: 0.277
# Mean RMSD: 0.268
data_MOF--net-wkf--node1-HISSIN_clean_sbu_0--edge1-CIFDUS_clean_linker_0
_symmetry_space_group_name_H-M    P1
_symmetry_Int_Tables_number       1
_symmetry_cell_setting            triclinic
loop_
_symmetry_equiv_pos_as_xyz
'x, y, z'
_cell_length_a     25.344769
_cell_length_b     25.119665
_cell_length_c     86.536246
_cell_angle_alpha  90.06314
_cell_angle_beta   89.960422
_cell_angle_gamma 119.43631
loop_
_atom_site_label
_atom_site_type_symbol
_atom_site_fract_x
_atom_site_fract_y
_atom_site_fract_z
_atom_type_partial_charge
Eu0 Eu 0.57161 0.98382 0.40616 0.0
Eu1 Eu 0.44563 0.94198 0.38878 0.0
C2 C 0.55943 0.08833 0.38727 0.0
C3 C 0.68197 0.9936 0.43645 0.0
C4 C 0.74035 1.00672 0.44059 0.0
C5 C 0.65534 0.98954 0.46352 0.0
C6 C 0.75703 1.01366 0.45611 0.0
C7 C 0.63881 0.98284 0.44795 0.0
C8 C 0.71544 1.00771 0.46773 0.0
C9 C 0.66763 0.9959 0.42021 0.0
O10 O 0.47871 0.87142 0.38515 0.0
O11 O 0.57454 0.94419 0.38315 0.0
C12 C 0.53431 0.88716 0.38099 0.0
O13 O 0.49836 0.90883 0.42115 0.0
O14 O 0.42209 0.94194 0.3646 0.0
O15 O 0.34981 0.90183 0.38163 0.0
O16 O 0.40609 0.88215 0.40979 0.0
C17 C 0.43837 0.87802 0.4212 0.0
O18 O 0.52647 1.01846 0.42235 0.0
O19 O 0.44005 0.99963 0.40884 0.0
O20 O 0.50352 1.04564 0.38377 0.0
O21 O 0.62612 0.94438 0.41434 0.0
O22 O 0.66019 1.04207 0.41639 0.0
O23 O 0.59585 0.07433 0.3949 0.0
C24 C 0.32331 0.87053 0.35464 0.0
C25 C 0.26041 0.83532 0.35696 0.0
C26 C 0.30685 0.83737 0.32748 0.0
C27 C 0.22139 0.80171 0.34478 0.0
C28 C 0.34592 0.87076 0.3397 0.0
C29 C 0.24383 0.80264 0.32978 0.0
C30 C 0.36356 0.91349 0.36696 0.0
C31 C 0.47672 1.02222 0.421 0.0
H32 H 0.77398 1.0149 0.4318 0.0
H33 H 0.62219 0.98419 0.47217 0.0
H34 H 0.80395 1.02861 0.45885 0.0
H35 H 0.5933 0.97232 0.44485 0.0
H36 H 0.241 0.835 0.36814 0.0
H37 H 0.32613 0.8387 0.31622 0.0
H38 H 0.17319 0.77614 0.34705 0.0
H39 H 0.3939 0.89799 0.33729 0.0
Eu40 Eu 0.62137 0.53709 0.57455 0.0
Eu41 Eu 0.5382 0.41339 0.55466 0.0
C42 C 0.5121 0.53001 0.55309 0.0
C43 C 0.70855 0.65166 0.60665 0.0
C44 C 0.66559 0.65672 0.61583 0.0
C45 C 0.78006 0.69049 0.628 0.0
C46 C 0.68061 0.68082 0.63072 0.0
C47 C 0.76518 0.66691 0.61302 0.0
C48 C 0.73881 0.70009 0.63681 0.0
C49 C 0.69635 0.63345 0.59028 0.0
O50 O 0.63819 0.44125 0.55023 0.0
O51 O 0.67729 0.54287 0.5535 0.0
C52 C 0.68481 0.49694 0.54926 0.0
O53 O 0.62376 0.46091 0.58842 0.0
O54 O 0.51094 0.38757 0.53078 0.0
O55 O 0.47881 0.3166 0.54822 0.0
O56 O 0.56403 0.37264 0.57446 0.0
C57 C 0.59822 0.40106 0.5865 0.0
O58 O 0.54579 0.48242 0.59085 0.0
O59 O 0.47454 0.41178 0.57416 0.0
O60 O 0.51364 0.48433 0.546 0.0
O61 O 0.7089 0.59143 0.58577 0.0
O62 O 0.64605 0.62641 0.58427 0.0
O63 O 0.54784 0.55662 0.56501 0.0
C64 C 0.48183 0.28758 0.52139 0.0
C65 C 0.48219 0.23318 0.52499 0.0
C66 C 0.47732 0.26172 0.49392 0.0
C67 C 0.48064 0.19384 0.51316 0.0
C68 C 0.47897 0.30093 0.5057 0.0
C69 C 0.47827 0.20752 0.49741 0.0
C70 C 0.47969 0.32904 0.5335 0.0
C71 C 0.49009 0.43975 0.58784 0.0
H72 H 0.62124 0.64462 0.61131 0.0
H73 H 0.82489 0.70393 0.63239 0.0
H74 H 0.64776 0.68818 0.63699 0.0
H75 H 0.79881 0.66265 0.60621 0.0
H76 H 0.4833 0.22077 0.53691 0.0
H77 H 0.47634 0.27457 0.48203 0.0
H78 H 0.48063 0.15221 0.5164 0.0
H79 H 0.47764 0.34194 0.5025 0.0
Eu80 Eu 0.12617 0.59714 0.73682 0.0
Eu81 Eu 0.17564 0.5149 0.72179 0.0
C82 C 1.03599 0.48139 0.71609 0.0
C83 C 1.04183 0.68741 0.73952 0.0
C84 C 0.99465 0.64712 0.72983 0.0
C85 C 0.9941 0.74988 0.74203 0.0
C86 C 0.9466 0.65764 0.72647 0.0
C87 C 1.04196 0.73935 0.74533 0.0
C88 C 0.94524 0.70858 0.7328 0.0
C89 C 0.09264 0.67754 0.74312 0.0
O90 O 0.22291 0.61011 0.70955 0.0
O91 O 0.2237 0.6609 0.73089 0.0
C92 C 0.24629 0.66211 0.71733 0.0
O93 O 0.18436 0.59263 0.75617 0.0
O94 O 0.16512 0.45987 0.70135 0.0
O95 O 0.236 0.47602 0.71774 0.0
O96 O 0.23592 0.55166 0.7431 0.0
C97 C 0.22599 0.57542 0.7557 0.0
O98 O 1.07352 0.51254 0.75072 0.0
O99 O 0.12245 0.45923 0.7434 0.0
O100 O 1.07304 0.45975 0.71843 0.0
O101 O 0.08182 0.63192 0.75228 0.0
O102 O 0.12601 0.68109 0.73127 0.0
O103 O 1.05642 0.54028 0.71824 0.0
C104 C 0.25054 0.45464 0.69117 0.0
C105 C 0.24214 0.47052 0.67609 0.0
C106 C 0.32568 0.43009 0.68071 0.0
C107 C 0.27512 0.46619 0.6635 0.0
C108 C 0.29269 0.43429 0.69325 0.0
C109 C 0.31752 0.44592 0.6656 0.0
C110 C 0.21126 0.4521 0.70442 0.0
C111 C 0.08377 0.46641 0.75248 0.0
H112 H 0.99464 0.60724 0.72506 0.0
H113 H 0.99402 0.78878 0.74741 0.0
H114 H 0.90975 0.62507 0.71932 0.0
H115 H 0.07855 0.7712 0.75268 0.0
H116 H 0.20955 0.48571 0.67395 0.0
H117 H 0.35707 0.41338 0.68286 0.0
H118 H 0.2679 0.47947 0.65213 0.0
H119 H 0.29937 0.42039 0.7046 0.0
Eu120 Eu 0.58157 0.11371 0.90557 0.0
Eu121 Eu 0.70877 0.15293 0.8888 0.0
C122 C 0.59225 1.00848 0.88678 0.0
C123 C 0.47531 0.10912 0.93602 0.0
C124 C 0.51856 0.11595 0.94711 0.0
C125 C 0.40518 0.09726 0.9564 0.0
C126 C 0.50429 0.11104 0.96281 0.0
C127 C 0.41959 0.10226 0.94071 0.0
C128 C 0.44635 0.09874 0.96757 0.0
C129 C 0.48691 0.10477 0.91965 0.0
O130 O 0.67768 0.22415 0.88378 0.0
O131 O 0.58049 0.15342 0.88246 0.0
C132 C 0.62216 0.20953 0.87981 0.0
O133 O 0.65488 0.18744 0.92079 0.0
O134 O 0.73507 0.14698 0.86524 0.0
O135 O 0.80542 0.19437 0.88239 0.0
O136 O 0.7474 0.21234 0.90988 0.0
C137 C 0.71481 0.2172 0.92108 0.0
O138 O 0.62269 0.07439 0.9216 0.0
O139 O 0.71159 0.09501 0.90908 0.0
O140 O 0.64973 1.04935 0.88434 0.0
O141 O 0.52848 0.15533 0.9134 0.0
O142 O 0.49273 1.05753 0.9159 0.0
O143 O 0.55512 1.02415 0.89342 0.0
C144 C 0.83079 0.22212 0.85552 0.0
C145 C 0.88522 0.22486 0.85083 0.0
C146 C 0.84182 0.29051 0.83423 0.0
C147 C 0.9176 0.25988 0.83794 0.0
C148 C 0.80962 0.25563 0.8471 0.0
C149 C 0.89632 0.29316 0.82937 0.0
C150 C 0.79331 0.17848 0.86785 0.0
C151 C 0.67263 0.07074 0.92073 0.0
H152 H 0.56205 0.12165 0.94359 0.0
H153 H 0.35982 0.08692 0.95963 0.0
H154 H 0.53691 0.11256 0.97113 0.0
H155 H 0.38599 0.09734 0.93225 0.0
H156 H 0.90219 0.19881 0.85698 0.0
H157 H 0.82307 0.31445 0.82787 0.0
H158 H 0.95951 0.26111 0.83476 0.0
H159 H 0.76734 0.25371 0.85026 0.0
Eu160 Eu 0.51698 0.55528 0.07404 0.0
Eu161 Eu 0.60266 0.67529 0.0543 0.0
C162 C 0.6305 0.55773 0.05556 0.0
C163 C 0.416 0.45244 0.10565 0.0
C164 C 0.44978 0.49646 0.11688 0.0
C165 C 0.3593 0.38014 0.12574 0.0
C166 C 0.43999 0.48136 0.13256 0.0
C167 C 0.36905 0.39535 0.11013 0.0
C168 C 0.39673 0.42188 0.13712 0.0
C169 C 0.43278 0.46373 0.08935 0.0
O170 O 0.501 0.6452 1.05013 0.0
O171 O 0.47361 0.54668 1.05086 0.0
C172 C 0.45933 0.5884 1.04735 0.0
O173 O 0.51678 0.63517 0.08699 0.0
O174 O 0.62575 0.69552 1.02991 0.0
O175 O 0.66277 0.76969 1.04667 0.0
O176 O 0.58274 0.72226 0.07354 0.0
C177 C 0.54627 0.69535 0.08528 0.0
O178 O 0.59482 0.60359 0.0902 0.0
O179 O 0.6647 0.68106 0.07462 0.0
O180 O 0.64294 0.61197 1.05024 0.0
O181 O 0.42453 0.50571 0.08276 0.0
O182 O 0.48486 0.46816 0.08578 0.0
O183 O 0.5824 0.52568 0.06431 0.0
C184 C 0.65666 0.79547 1.01991 0.0
C185 C 0.65233 0.84779 1.02349 0.0
C186 C 0.66504 0.82337 0.99254 0.0
C187 C 0.654 0.88719 1.01172 0.0
C188 C 0.66329 0.78405 1.00429 0.0
C189 C 0.66032 0.87559 0.99603 0.0
C190 C 0.65898 0.75448 1.03206 0.0
C191 C 0.64956 0.64937 0.08776 0.0
H192 H 0.48588 0.5412 0.11352 0.0
H193 H 0.32607 0.33367 0.12872 0.0
H194 H 0.46912 0.51468 0.14101 0.0
H195 H 0.34238 0.36117 0.10155 0.0
H196 H 0.64808 0.8586 1.03539 0.0
H197 H 0.66914 0.81219 0.98067 0.0
H198 H 0.65103 0.92728 1.01496 0.0
H199 H 0.66754 0.74456 1.00115 0.0
Eu200 Eu 1.02819 0.50289 0.23938 0.0
Eu201 Eu 0.97909 0.58048 0.22072 0.0
C202 C 0.12388 0.61769 0.21882 0.0
C203 C 0.0891 0.46455 0.27207 0.0
C204 C 0.15155 0.48966 0.27431 0.0
C205 C 0.08256 0.51058 0.29634 0.0
C206 C 0.17953 0.52685 0.28702 0.0
C207 C 1.0545 0.4738 0.28347 0.0
C208 C 0.14559 0.53926 0.29787 0.0
C209 C 1.06401 0.44303 0.25651 0.0
O210 O 0.91179 0.47705 0.21694 0.0
O211 O 0.98217 0.44727 0.21815 0.0
C212 C 0.92671 0.43413 0.21478 0.0
O213 O 0.94649 0.4913 0.25307 0.0
O214 O 0.977 0.60712 0.19693 0.0
O215 O 0.93409 0.63404 0.21458 0.0
O216 O 0.92202 0.56047 0.24232 0.0
C217 C 0.91605 0.52149 0.25328 0.0
O218 O 1.04884 0.57945 0.25561 0.0
O219 O 1.04212 0.64859 0.23939 0.0
O220 O 1.07556 0.61284 0.21173 0.0
O221 O 1.00673 0.42583 0.2547 0.0
O222 O 0.09714 0.47833 0.24527 0.0
O223 O 0.11717 0.5828 0.23078 0.0
C224 C 0.9023 0.63169 0.18774 0.0
C225 C 0.85582 0.64509 0.19118 0.0
C226 C 0.8757 0.62661 0.1603 0.0
C227 C 0.81961 0.64882 0.17936 0.0
C228 C 0.91165 0.62263 0.1721 0.0
C229 C 0.82914 0.63994 0.1637 0.0
C230 C 0.94612 0.63493 0.19984 0.0
C231 C 1.05821 0.63457 0.25277 0.0
H232 H 0.1793 0.48354 0.26573 0.0
H233 H 1.05538 0.51799 0.30483 0.0
H234 H 0.22809 0.54642 0.28831 0.0
H235 H 1.00614 0.45512 0.2821 0.0
H236 H 0.84809 0.65385 0.20299 0.0
H237 H 0.88418 0.6187 0.14848 0.0
H238 H 0.7848 0.65994 0.18251 0.0
H239 H 0.94775 0.61348 0.16889 0.0
Eu240 Eu 0.12827 0.56607 0.51317 0.0
Eu241 Eu 0.18501 0.70122 0.52662 0.0
C242 C 1.04189 0.60275 0.53338 0.0
C243 C 1.02475 0.39494 0.51073 0.0
C244 C 1.01909 0.34843 0.52072 0.0
C245 C 0.91773 0.33538 0.50474 0.0
C246 C 0.96335 0.29527 0.52252 0.0
C247 C 0.97324 0.38873 0.50309 0.0
C248 C 0.91237 0.28732 0.51419 0.0
C249 C 0.08437 0.4497 0.50868 0.0
O250 O 0.22914 0.65343 0.54011 0.0
O251 O 0.22432 0.59367 0.52024 0.0
C252 C 0.24982 0.62049 0.53319 0.0
O253 O 0.18664 0.62212 0.49298 0.0
O254 O 0.17653 0.75763 0.54449 0.0
O255 O 0.25498 0.7979 0.52955 0.0
O256 O 0.2413 0.71644 0.50486 0.0
C257 C 0.22972 0.68011 0.49275 0.0
O258 O 1.07531 0.59922 0.49961 0.0
O259 O 0.13286 0.70267 0.50478 0.0
O260 O 0.08467 0.66009 0.5322 0.0
O261 O 0.08999 0.48771 0.49762 0.0
O262 O 0.11136 0.47746 0.52147 0.0
O263 O 1.05385 0.55886 0.52968 0.0
C264 C 0.26618 0.84047 0.55513 0.0
C265 C 0.30873 0.90264 0.55344 0.0
C266 C 0.28922 0.84976 0.58281 0.0
C267 C 0.34122 0.93795 0.56621 0.0
C268 C 0.25678 0.81432 0.56998 0.0
C269 C 0.33205 0.91216 0.58111 0.0
C270 C 0.2285 0.80581 0.5416 0.0
C271 C 0.0894 0.65617 0.49692 0.0
H272 H 1.05813 0.35279 0.52693 0.0
H273 H 0.87991 0.3307 0.49791 0.0
H274 H 0.96068 0.25958 0.53003 0.0
H275 H 0.97602 0.42431 0.49551 0.0
H276 H 0.31623 0.92433 0.54223 0.0
H277 H 0.2814 0.82805 0.59402 0.0
H278 H 0.37314 0.98592 0.56442 0.0
H279 H 0.22398 0.76657 0.57173 0.0
Eu280 Eu 0.63223 0.10885 0.67382 0.0
Eu281 Eu 0.54709 0.14682 0.69357 0.0
C282 C 0.5189 1.00123 0.69292 0.0
C283 C 0.75475 0.0686 0.66451 0.0
C284 C 0.7496 1.04206 0.67909 0.0
C285 C 0.82284 1.03246 0.65638 0.0
C286 C 0.77895 1.00835 0.68205 0.0
C287 C 0.79359 0.06606 0.65346 0.0
C288 C 0.81336 1.00052 0.67041 0.0
C289 C 0.7148 0.09261 0.66008 0.0
O290 O 0.64855 0.21735 0.6978 0.0
O291 O 0.67753 0.14688 0.69668 0.0
C292 C 0.69101 0.20266 0.70019 0.0
O293 O 0.63526 0.18973 0.66077 0.0
O294 O 0.52423 0.14697 0.71782 0.0
O295 O 0.48619 0.18171 0.70065 0.0
O296 O 0.57026 0.21358 0.6741 0.0
C297 C 0.60665 0.22157 0.6624 0.0
O298 O 0.55492 0.08401 0.65768 0.0
O299 O 0.48507 0.09247 0.67326 0.0
O300 O 0.50589 1.0434 0.69775 0.0
O301 O 0.65714 1.05261 0.65988 0.0
O302 O 0.72592 0.1442 0.66643 0.0
O303 O 0.5676 1.01628 0.68449 0.0
C304 C 0.4914 0.21538 0.72701 0.0
C305 C 0.54626 0.26364 0.73248 0.0
C306 C 0.43728 0.24289 0.74599 0.0
C307 C 0.54659 0.30118 0.74459 0.0
C308 C 0.43702 0.20557 0.73385 0.0
C309 C 0.49208 0.29126 0.75159 0.0
C310 C 0.4896 0.17117 0.71532 0.0
C311 C 0.50054 0.07663 0.66007 0.0
H312 H 0.72001 1.04426 0.68781 0.0
H313 H 0.84827 1.02707 0.64703 0.0
H314 H 0.77129 0.98495 0.69302 0.0
H315 H 0.79813 0.08659 0.64218 0.0
H316 H 0.58889 0.27167 0.72758 0.0
H317 H 0.39443 0.23414 0.75089 0.0
H318 H 0.58982 0.33737 0.74866 0.0
H319 H 0.39411 0.16822 0.72995 0.0
Eu320 Eu 0.56729 0.60561 0.84189 0.0
Eu321 Eu 0.44012 0.51913 0.85885 0.0
C322 C 0.55655 0.49024 0.86079 0.0
C323 C 0.67024 0.6955 0.81015 0.0
C324 C 0.7262 0.73922 0.80424 0.0
C325 C 0.63577 0.6569 0.78425 0.0
C326 C 0.73777 0.74036 0.78845 0.0
C327 C 0.62434 0.65583 0.80005 0.0
C328 C 0.69349 0.69747 0.77837 0.0
C329 C 0.66104 0.68687 0.82683 0.0
O330 O 0.47157 0.62139 0.86408 0.0
O331 O 0.56968 0.64912 0.86467 0.0
C332 C 0.52741 0.66281 0.86762 0.0
O333 O 0.49333 0.60563 0.82674 0.0
O334 O 0.41462 0.4857 0.88244 0.0
O335 O 0.34404 0.46514 0.86545 0.0
O336 O 0.40093 0.54009 0.8379 0.0
C337 C 0.43339 0.57652 0.82658 0.0
O338 O 0.52639 0.52431 0.82629 0.0
O339 O 0.43608 0.45824 0.83841 0.0
O340 O 0.49886 0.47366 0.86298 0.0
O341 O 0.61948 0.69762 0.83251 0.0
O342 O 0.6566 0.63605 0.83202 0.0
O343 O 0.59384 0.54312 0.85439 0.0
C344 C 0.31774 0.46069 0.89258 0.0
C345 C 0.29095 0.49806 0.89224 0.0
C346 C 0.27454 0.42539 0.91832 0.0
C347 C 0.25671 0.49943 0.90491 0.0
C348 C 0.30862 0.42404 0.90568 0.0
C349 C 0.24857 0.46365 0.91825 0.0
C350 C 0.3564 0.45907 0.87982 0.0
C351 C 0.47571 0.47186 0.82696 0.0
H352 H 0.76198 0.7701 0.81193 0.0
H353 H 0.60078 0.62347 0.77681 0.0
H354 H 0.78311 0.77156 0.78438 0.0
H355 H 0.58081 0.62174 0.8045 0.0
H356 H 0.29701 0.52667 0.8823 0.0
H357 H 0.27024 0.3978 0.92834 0.0
H358 H 0.23683 0.5289 0.90425 0.0
H359 H 0.32881 0.39478 0.90624 0.0
Eu360 Eu 1.02278 0.54232 1.01084 0.0
Eu361 Eu 0.97204 0.41061 1.02604 0.0
C362 C 0.11124 0.51639 1.03216 0.0
C363 C 0.11779 0.71359 1.00665 0.0
C364 C 0.12384 0.76816 1.00087 0.0
C365 C 0.2191 0.76889 1.01744 0.0
C366 C 0.17774 0.82276 1.00304 0.0
C367 C 0.16514 0.71416 1.01517 0.0
C368 C 0.22644 0.82369 1.01114 0.0
C369 C 1.06172 0.65642 1.00391 0.0
O370 O 0.92565 0.45973 1.03837 0.0
O371 O 0.92619 0.51172 1.01722 0.0
C372 C 0.9033 0.48984 1.03073 0.0
O373 O 0.9636 0.48009 0.9916 0.0
O374 O 0.9859 0.36256 1.04532 0.0
O375 O 0.90728 0.31384 1.03071 0.0
O376 O 0.91288 0.38762 1.00451 0.0
C377 C 0.92226 0.42151 0.99202 0.0
O378 O 0.07734 0.50906 0.99803 0.0
O379 O 1.02291 0.40635 1.00414 0.0
O380 O 1.07474 0.45792 1.0297 0.0
O381 O 1.06539 0.61775 0.99446 0.0
O382 O 1.03041 0.63017 1.01631 0.0
O383 O 0.09026 0.55445 1.02996 0.0
C384 C 0.90024 0.27933 0.05715 0.0
C385 C 0.84088 0.26806 0.05971 0.0
C386 C 0.8953 0.22917 0.08183 0.0
C387 C 0.80933 0.23809 0.07322 0.0
C388 C 0.92675 0.25904 0.06832 0.0
C389 C 0.83621 0.21868 0.08461 0.0
C390 C 0.93572 0.31148 1.04307 0.0
C391 C 1.06432 0.4522 0.99566 0.0
H392 H 0.08744 0.76832 0.99434 0.0
H393 H 0.25559 0.76803 1.02374 0.0
H394 H 0.18214 0.86366 0.99767 0.0
H395 H 0.16071 0.67215 1.01979 0.0
H396 H 0.81889 0.28266 1.05134 0.0
H397 H 0.91802 0.21575 0.09028 0.0
H398 H 0.76359 0.23011 0.07471 0.0
H399 H 0.97238 0.26685 0.06665 0.0
Eu400 Eu 0.53734 0.99366 0.17692 0.0
Eu401 Eu 0.61837 0.94592 0.19337 0.0
C402 C 0.65147 0.08691 0.19769 0.0
C403 C 0.46839 0.09523 0.17184 0.0
C404 C 0.42981 0.10057 0.18264 0.0
C405 C 0.51383 0.20365 0.16644 0.0
C406 C 0.43302 0.15694 0.18528 0.0
C407 C 0.511 0.1475 0.16392 0.0
C408 C 0.47445 0.209 0.17703 0.0
C409 C 0.4654 1.03563 0.16954 0.0
O410 O 0.52525 0.90244 0.20609 0.0
O411 O 0.47153 0.89885 0.18505 0.0
C412 C 0.47262 0.878 0.19874 0.0
O413 O 0.53667 0.92634 0.15905 0.0
O414 O 0.67875 0.96189 0.21281 0.0
O415 O 0.65192 0.88174 0.19866 0.0
O416 O 0.57572 0.87746 0.17396 0.0
C417 C 0.55068 0.88252 0.16108 0.0
O418 O 0.62357 1.04637 0.16388 0.0
O419 O 0.6708 0.99128 0.17075 0.0
O420 O 0.6732 1.04956 0.19585 0.0
O421 O 0.5036 1.03316 0.15977 0.0
O422 O 0.45969 1.00498 0.1822 0.0
O423 O 0.59325 0.06595 0.19523 0.0
C424 C 0.67442 0.87599 0.22546 0.0
C425 C 0.70631 0.84366 0.22706 0.0
C426 C 0.64081 0.85053 0.2522 0.0
C427 C 0.70542 0.81491 0.2411 0.0
C428 C 0.64138 0.87874 0.23818 0.0
C429 C 0.67272 0.818 0.25393 0.0
C430 C 0.68062 0.91128 0.21109 0.0
C431 C 0.6668 1.03257 0.16189 0.0
H432 H 0.3969 0.06098 0.18902 0.0
H433 H 0.54532 0.2423 0.15957 0.0
H434 H 0.40228 0.15947 0.19357 0.0
H435 H 0.54173 0.14509 0.1556 0.0
H436 H 0.73263 0.84126 0.21749 0.0
H437 H 0.61596 0.85524 0.26179 0.0
H438 H 0.72992 0.78981 0.24182 0.0
H439 H 0.6168 0.90379 0.2374 0.0
Eu440 Eu 0.58944 0.51521 0.34137 0.0
Eu441 Eu 0.71971 0.5777 0.35857 0.0
C442 C 0.6156 0.61367 0.36739 0.0
C443 C 0.45415 0.51944 0.33029 0.0
C444 C 0.4422 0.53796 0.34463 0.0
C445 C 0.42424 0.58605 0.31738 0.0
C446 C 0.42073 0.57954 0.34532 0.0
C447 C 0.44538 0.54429 0.3167 0.0
C448 C 0.41113 0.60377 0.33169 0.0
C449 C 0.4847 0.48245 0.32953 0.0
O450 O 0.66502 0.47895 0.36865 0.0
O451 O 0.59382 0.43288 0.34965 0.0
C452 C 0.62283 0.42867 0.36171 0.0
O453 O 0.65065 0.50895 0.32313 0.0
O454 O 0.77784 0.64664 0.37551 0.0
O455 O 0.80676 0.58629 0.36567 0.0
O456 O 0.74202 0.54625 0.33607 0.0
C457 C 0.70811 0.52284 0.32361 0.0
O458 O 0.63617 0.61421 0.33503 0.0
O459 O 0.73456 0.63623 0.33676 0.0
O460 O 0.67373 0.63409 0.36513 0.0
O461 O 0.53412 0.50647 0.32125 0.0
O462 O 0.491 0.46003 0.34259 0.0
O463 O 0.57737 0.55719 0.36342 0.0
C464 C 0.84425 0.62712 0.39108 0.0
C465 C 0.84507 0.57459 0.39632 0.0
C466 C 0.89754 0.68 0.4147 0.0
C467 C 0.8717 0.5748 0.41058 0.0
C468 C 0.87098 0.67978 0.40043 0.0
C469 C 0.89824 0.62745 0.42006 0.0
C470 C 0.81868 0.62952 0.37572 0.0
C471 C 0.69246 0.64605 0.3305 0.0
H472 H 0.44969 0.52062 0.35537 0.0
H473 H 0.41568 0.60238 0.30661 0.0
H474 H 0.41023 0.59168 0.35646 0.0
H475 H 0.45538 0.53176 0.30553 0.0
H476 H 0.82546 0.53337 0.38938 0.0
H477 H 0.91671 0.72121 0.42164 0.0
H478 H 0.87209 0.53363 0.41408 0.0
H479 H 0.87147 0.72114 0.39666 0.0
H480 H 1.04725 0.61259 0.28342 0.0
H481 H 0.14461 0.75735 0.25061 0.0
H482 H 0.21101 0.82258 0.27149 0.0
H483 H 0.24542 0.83549 0.29905 0.0
H484 H 0.14649 0.68746 0.33109 0.0
H485 H 0.07706 0.62701 0.3106 0.0
C486 C 0.08239 0.65886 0.28081 0.0
C487 C 0.09053 0.68002 0.26538 0.0
C488 C 0.12081 0.69536 0.29278 0.0
C489 C 0.13642 0.74009 0.26233 0.0
C490 C 0.17496 0.77707 0.27428 0.0
C491 C 0.2088 0.78991 0.30155 0.0
C492 C 0.20159 0.76649 0.31679 0.0
C493 C 0.16842 0.75472 0.28954 0.0
C494 C 0.1531 0.70747 0.31969 0.0
C495 C 0.11334 0.67252 0.3079 0.0
H496 H 0.4171 0.17708 0.4694 0.0
H497 H 0.54301 0.14684 0.49652 0.0
H498 H 0.54966 0.08461 0.47587 0.0
H499 H 0.52406 1.04225 0.44988 0.0
H500 H 0.40058 0.07249 0.42183 0.0
H501 H 0.38859 0.13087 0.44308 0.0
C502 C 0.44616 0.15707 0.4708 0.0
C503 C 0.47945 0.16705 0.4847 0.0
C504 C 0.45033 0.12128 0.45868 0.0
C505 C 0.51606 0.13963 0.48622 0.0
C506 C 0.5203 0.10422 0.47432 0.0
C507 C 0.49434 0.06147 0.4483 0.0
C508 C 0.46372 1.05326 0.43408 0.0
C509 C 0.48815 0.09521 0.46047 0.0
C510 C 0.42472 0.07785 0.43255 0.0
C511 C 0.41815 0.11156 0.44471 0.0
H512 H 0.28361 0.40852 0.63517 0.0
H513 H 0.43728 0.47885 0.66604 0.0
H514 H 0.5006 0.4766 0.64526 0.0
H515 H 0.51484 0.4594 0.61832 0.0
H516 H 0.36524 0.3927 0.58637 0.0
H517 H 0.29798 0.38781 0.60755 0.0
C518 C 0.33098 0.42352 0.63734 0.0
C519 C 0.35512 0.44357 0.65237 0.0
C520 C 0.36799 0.42245 0.62514 0.0
C521 C 0.41669 0.4622 0.65484 0.0
C522 C 0.45328 0.46125 0.64288 0.0
C523 C 0.46738 0.44335 0.61589 0.0
C524 C 0.44544 0.42672 0.60064 0.0
C525 C 0.42962 0.44188 0.628 0.0
C526 C 0.38352 0.40537 0.59794 0.0
C527 C 0.34518 0.40319 0.61006 0.0
H528 H 1.02147 0.48479 0.77538 0.0
H529 H 1.07569 0.35496 0.76031 0.0
H530 H 1.02341 0.29003 0.78276 0.0
H531 H 0.96045 0.26995 0.80667 0.0
H532 H 0.91167 0.40478 0.82118 0.0
H533 H 0.96321 0.46721 0.79885 0.0
C534 C 1.02196 0.44215 0.77681 0.0
C535 C 1.05236 0.42484 0.76591 0.0
C536 C 0.99238 0.40561 0.78972 0.0
C537 C 1.05264 0.36962 0.76836 0.0
C538 C 1.02267 0.33247 0.78124 0.0
C539 C 0.96147 0.31321 0.80503 0.0
C540 C 0.93091 0.3317 0.81568 0.0
C541 C 0.99221 0.34997 0.79203 0.0
C542 C 0.93298 0.38805 0.81315 0.0
C543 C 0.963 0.42428 0.80038 0.0
H544 H 0.61675 1.04227 0.94864 0.0
H545 H 0.75156 1.02397 0.92228 0.0
H546 H 0.76078 0.96318 0.94329 0.0
H547 H 0.7275 0.91221 0.96897 0.0
H548 H 0.59048 0.93064 0.99435 0.0
H549 H 0.58563 0.99448 0.97392 0.0
C550 C 0.64833 1.02513 0.94737 0.0
C551 C 0.68308 1.03753 0.93371 0.0
C552 C 0.65298 0.99003 0.9594 0.0
C553 C 0.72425 1.01541 0.93258 0.0
C554 C 0.72928 0.98034 0.9446 0.0
C555 C 0.69637 0.92996 0.97002 0.0
C556 C 0.65953 0.91632 0.98338 0.0
C557 C 0.69333 0.96673 0.95802 0.0
C558 C 0.62018 0.94075 0.98448 0.0
C559 C 0.617 0.97709 0.97269 0.0
H560 H 0.86099 0.68861 0.13417 0.0
H561 H 0.70692 0.59639 0.16461 0.0
H562 H 0.6404 0.59666 0.14438 0.0
H563 H 0.62416 0.61811 0.11789 0.0
H564 H 0.77523 0.70756 0.08656 0.0
H565 H 0.84452 0.71398 0.10731 0.0
C566 C 0.81285 0.66843 0.13638 0.0
C567 C 0.78944 0.64254 0.15108 0.0
C568 C 0.77418 0.66841 0.12453 0.0
C569 C 0.72683 0.61745 0.15364 0.0
C570 C 0.68848 0.61725 0.142 0.0
C571 C 0.67233 0.63943 0.11551 0.0
C572 C 0.69418 0.66203 0.10053 0.0
C573 C 0.71149 0.64207 0.12739 0.0
C574 C 0.75695 0.69011 0.09792 0.0
C575 C 0.79653 0.69327 0.10978 0.0
H576 H 0.52826 0.08451 0.6298 0.0
H577 H 0.37539 1.00431 0.66077 0.0
H578 H 0.30892 0.94659 0.63906 0.0
H579 H 0.29615 0.91434 0.6113 0.0
H580 H 0.45248 0.99522 0.58128 0.0
H581 H 0.51537 1.05679 0.60259 0.0
C582 C 0.48025 1.05471 0.63187 0.0
C583 C 0.45703 1.04855 0.64698 0.0
C584 C 0.44291 1.02123 0.61945 0.0
C585 C 0.39453 1.01034 0.64929 0.0
C586 C 0.35666 0.97687 0.63687 0.0
C587 C 0.344 0.94533 0.60944 0.0
C588 C 0.36921 0.94991 0.59455 0.0
C589 C 0.3806 0.98101 0.62192 0.0
C590 C 0.43131 0.99103 0.59243 0.0
C591 C 0.46758 1.02621 0.60467 0.0
H592 H 0.42187 0.26047 0.77814 0.0
H593 H 0.56319 0.41505 0.75384 0.0
H594 H 0.56801 0.48286 0.77455 0.0
H595 H 0.53468 0.49901 0.79953 0.0
H596 H 0.39414 0.34729 0.8247 0.0
H597 H 0.38552 0.27803 0.8035 0.0
C598 C 0.45338 0.30906 0.77731 0.0
C599 C 0.49268 0.33215 0.76438 0.0
C600 C 0.45596 0.34844 0.78939 0.0
C601 C 0.53334 0.39538 0.76367 0.0
C602 C 0.53585 0.43446 0.7755 0.0
C603 C 0.50197 0.45076 0.80053 0.0
C604 C 0.46544 0.42856 0.8139 0.0
C605 C 0.49785 0.41148 0.78844 0.0
C606 C 0.42285 0.3659 0.81463 0.0
C607 C 0.41817 0.32624 0.80251 0.0
H608 H 0.14155 0.53716 0.97536 0.0
H609 H 1.05687 0.34399 0.98506 0.0
H610 H 0.10584 0.32999 0.96204 0.0
H611 H 0.17202 0.37338 0.93876 0.0
H612 H 0.25411 0.56723 0.92993 0.0
H613 H 0.20574 0.57953 0.95285 0.0
C614 C 0.13361 0.49168 0.97263 0.0
C615 C 0.09545 0.4417 0.98217 0.0
C616 C 0.16109 0.48398 0.95932 0.0
C617 C 0.08606 0.38344 0.9781 0.0
C618 C 0.11401 0.37545 0.96486 0.0
C619 C 0.17958 0.41839 0.94187 0.0
C620 C 0.21667 0.46925 0.93235 0.0
C621 C 0.15155 0.42547 0.95532 0.0
C622 C 0.22512 0.52695 0.93666 0.0
C623 C 0.19782 0.53422 0.94992 0.0
H624 H 0.67996 0.1313 0.14599 0.0
H625 H 0.74785 1.00401 0.14739 0.0
H626 H 0.80713 1.05056 0.12381 0.0
H627 H 0.83542 0.12488 0.10193 0.0
H628 H 0.76446 0.25002 0.10145 0.0
H629 H 0.70983 0.20573 0.12529 0.0
C630 C 0.70778 0.11343 0.14127 0.0
C631 C 0.70894 0.06369 0.14858 0.0
C632 C 0.7407 0.13965 0.12764 0.0
C633 C 0.74606 1.04226 0.14217 0.0
C634 C 0.77968 0.06871 0.12859 0.0
C635 C 0.80838 0.14282 0.10708 0.0
C636 C 0.80377 0.19059 0.09956 0.0
C637 C 0.77678 0.11707 0.12108 0.0
C638 C 0.76805 0.21259 0.10655 0.0
C639 C 0.73705 0.18758 0.12035 0.0
H640 H 0.61335 0.67574 0.3175 0.0
H641 H 0.79652 0.70886 0.31265 0.0
H642 H 0.80742 0.76592 0.28865 0.0
H643 H 0.76242 0.80275 0.26842 0.0
H644 H 0.57589 0.75997 0.27339 0.0
H645 H 0.5692 0.71033 0.29789 0.0
C646 C 0.65616 0.69566 0.31135 0.0
C647 C 0.70422 0.68794 0.31705 0.0
C648 C 0.66134 0.72653 0.29743 0.0
C649 C 0.75896 0.71444 0.30873 0.0
C650 C 0.76494 0.74664 0.2949 0.0
C651 C 0.72016 0.78227 0.27479 0.0
C652 C 0.66996 0.78629 0.26893 0.0
C653 C 0.71601 0.75226 0.28899 0.0
C654 C 0.61589 0.75949 0.27758 0.0
C655 C 0.61176 0.7305 0.29163 0.0
H656 H 0.98115 0.57425 0.48464 0.0
H657 H 0.12627 0.75937 0.47888 0.0
H658 H 0.07941 0.76787 0.45483 0.0
H659 H 1.00038 0.71942 0.43441 0.0
H660 H 0.85613 0.53387 0.44097 0.0
H661 H 0.90025 0.52875 0.46549 0.0
C662 C 1.00252 0.61685 0.47824 0.0
C663 C 1.05746 0.6661 0.48364 0.0
C664 C 0.97586 0.62097 0.46435 0.0
C665 C 0.08383 0.7209 0.47515 0.0
C666 C 1.05723 0.72551 0.46129 0.0
C667 C 0.97811 0.67805 0.44126 0.0
C668 C 0.92512 0.6267 0.43553 0.0
C669 C 1.0037 0.6754 0.45561 0.0
C670 C 0.89755 0.5736 0.4447 0.0
C671 C 0.92252 0.57075 0.45887 0.0
H672 H 0.67371 0.73952 0.3651 0.0
H673 H 0.50322 0.58593 0.3787 0.0
H674 H 0.46163 0.65433 0.38337 0.0
H675 H 0.47314 0.75935 0.38361 0.0
H676 H 0.64433 0.91172 0.36966 0.0
H677 H 0.68493 0.84306 0.36509 0.0
C678 C 0.62765 0.72085 0.36929 0.0
C679 C 0.59219 0.65697 0.37166 0.0
C680 C 0.60344 0.76072 0.37176 0.0
C681 C 0.5321 0.63445 0.37679 0.0
C682 C 0.50806 0.67381 0.37944 0.0
C683 C 0.51912 0.77756 0.37942 0.0
C684 C 0.55516 0.84151 0.37697 0.0
C685 C 0.54305 0.73723 0.37688 0.0
C686 C 0.61497 0.86333 0.37168 0.0
C687 C 0.63859 0.82385 0.36909 0.0
H688 H 0.79649 0.60206 0.55205 0.0
H689 H 0.7161 0.41467 0.53697 0.0
H690 H 0.8169 0.42861 0.53136 0.0
H691 H 0.93006 0.49454 0.53062 0.0
H692 H 1.00867 0.68152 0.54612 0.0
H693 H 0.90817 0.66684 0.55165 0.0
C694 C 0.80065 0.5642 0.5474 0.0
C695 C 0.74743 0.50732 0.54485 0.0
C696 C 0.8595 0.5723 0.54436 0.0
C697 C 0.75523 0.45912 0.53902 0.0
C698 C 0.81337 0.46704 0.53584 0.0
C699 C 0.92543 0.53197 0.53538 0.0
C700 C 0.97838 0.58927 0.53797 0.0
C701 C 0.86623 0.5234 0.53851 0.0
C702 C 0.96997 0.63688 0.54397 0.0
C703 C 0.91194 0.6286 0.54712 0.0
H704 H 0.40092 0.94797 0.70356 0.0
H705 H 0.53641 0.90102 0.68986 0.0
H706 H 0.465 0.79269 0.69477 0.0
H707 H 0.36268 0.70914 0.70384 0.0
H708 H 0.22916 0.75964 0.71707 0.0
H709 H 0.2997 0.86624 0.71133 0.0
C710 C 0.41532 0.91435 0.7017 0.0
C711 C 0.47517 0.9341 0.69648 0.0
C712 C 0.37337 0.85138 0.70434 0.0
C713 C 0.4914 0.88842 0.69396 0.0
C714 C 0.45015 0.82587 0.69674 0.0
C715 C 0.34856 0.74322 0.70513 0.0
C716 C 0.28936 0.72498 0.71077 0.0
C717 C 0.39065 0.80633 0.70196 0.0
C718 C 0.27349 0.77112 0.71267 0.0
C719 C 0.31428 0.83276 0.70946 0.0
H720 H 0.49069 0.36526 0.86474 0.0
H721 H 0.67419 0.51471 0.86539 0.0
H722 H 0.71149 0.44328 0.87091 0.0
H723 H 0.6922 0.33667 0.87578 0.0
H724 H 0.50787 0.18826 0.8738 0.0
H725 H 0.47187 0.26 0.86857 0.0
C726 C 0.53888 0.38254 0.8662 0.0
C727 C 0.57918 0.44612 0.86479 0.0
C728 C 0.56039 0.34073 0.86907 0.0
C729 C 0.64163 0.46653 0.86646 0.0
C730 C 0.66316 0.4254 0.86961 0.0
C731 C 0.64422 0.31988 0.87408 0.0
C732 C 0.60323 0.25615 0.87525 0.0
C733 C 0.62307 0.3621 0.87092 0.0
C734 C 0.54111 0.23633 0.87301 0.0
C735 C 0.52011 0.27765 0.87004 0.0
H736 H 0.17568 0.45391 1.03162 0.0
H737 H 0.19894 0.6327 1.04102 0.0
H738 H 0.3072 0.67193 1.04573 0.0
H739 H 0.39738 0.65568 1.04748 0.0
H740 H 0.37162 0.47586 1.0379 0.0
H741 H 0.26442 0.43807 1.033 0.0
C742 C 0.20407 0.50144 1.03482 0.0
C743 C 0.17774 0.53977 1.03601 0.0
C744 C 0.26711 0.52412 1.03742 0.0
C745 C 0.21672 0.60151 1.03999 0.0
C746 C 0.27921 0.62419 1.04269 0.0
C747 C 0.36857 0.60839 1.04415 0.0
C748 C 0.39405 0.56913 1.04304 0.0
C749 C 0.30535 0.58609 1.04141 0.0
C750 C 0.35462 0.50774 1.03887 0.0
C751 C 0.29264 0.48573 1.03608 0.0
H752 H 0.79941 0.37584 0.21273 0.0
H753 H 0.94979 0.34241 0.20689 0.0
H754 H 0.88007 0.23504 0.2017 0.0
H755 H 0.77637 0.14825 0.19912 0.0
H756 H 0.62421 0.1788 0.20435 0.0
H757 H 0.69363 0.28753 0.20944 0.0
C758 C 0.81709 0.34531 0.21017 0.0
C759 C 0.8809 0.36874 0.21023 0.0
C760 C 0.77591 0.28196 0.20719 0.0
C761 C 0.90173 0.32712 0.20698 0.0
C762 C 0.86153 0.265 0.20402 0.0
C763 C 0.75796 0.17834 0.20146 0.0
C764 C 0.69421 0.15392 0.20148 0.0
C765 C 0.79851 0.24153 0.20421 0.0
C766 C 0.67245 0.19505 0.20436 0.0
C767 C 0.7125 0.25779 0.20724 0.0
H768 H 0.30579 0.56313 0.5193 0.0
H769 H 0.31285 0.65953 0.56115 0.0
H770 H 0.39539 0.64356 0.57081 0.0
H771 H 0.46516 0.59885 0.56763 0.0
H772 H 0.45463 0.50321 0.52525 0.0
H773 H 0.37546 0.52259 0.51578 0.0
C774 C 0.3251 0.58096 0.53057 0.0
C775 C 0.30187 0.6125 0.53942 0.0
C776 C 0.37291 0.57173 0.53605 0.0
C777 C 0.32884 0.63506 0.55396 0.0
C778 C 0.37642 0.62584 0.55952 0.0
C779 C 0.4462 0.58293 0.55623 0.0
C780 C 0.4672 0.5494 0.54725 0.0
C781 C 0.399 0.59394 0.5507 0.0
C782 C 0.44051 0.5289 0.53258 0.0
C783 C 0.39463 0.53992 0.52709 0.0
H784 H 0.74936 0.33118 0.70145 0.0
H785 H 0.7819 0.17954 0.70817 0.0
H786 H 0.88862 0.25012 0.71307 0.0
H787 H 0.97499 0.35505 0.71526 0.0
H788 H 0.94511 0.50827 0.70876 0.0
H789 H 0.83725 0.43799 0.704 0.0
C790 C 0.77956 0.31345 0.70415 0.0
C791 C 0.75607 0.24904 0.70447 0.0
C792 C 0.8425 0.35508 0.70689 0.0
C793 C 0.79727 0.2281 0.70784 0.0
C794 C 0.859 0.26877 0.71062 0.0
C795 C 0.94525 0.37347 0.71269 0.0
C796 C 0.96962 0.43784 0.71229 0.0
C797 C 0.8825 0.33239 0.71008 0.0
C798 C 0.92891 0.45958 0.70911 0.0
C799 C 0.86665 0.41904 0.70641 0.0
H800 H 0.65816 0.94888 0.88285 0.0
H801 H 0.47461 0.91613 0.88218 0.0
H802 H 0.43741 0.80767 0.87666 0.0
H803 H 0.45686 0.72017 0.87175 0.0
H804 H 0.64135 0.75502 0.87382 0.0
H805 H 0.67708 0.86235 0.87907 0.0
C806 C 0.60997 0.9183 0.88138 0.0
C807 C 0.56964 0.94188 0.88277 0.0
C808 C 0.58852 0.85514 0.87853 0.0
C809 C 0.5072 0.90028 0.88111 0.0
C810 C 0.48572 0.83776 0.87797 0.0
C811 C 0.50481 0.75102 0.87349 0.0
C812 C 0.5459 0.72805 0.87231 0.0
C813 C 0.52586 0.81425 0.87666 0.0
C814 C 0.60798 0.76997 0.8746 0.0
C815 C 0.62887 0.8321 0.87758 0.0
H816 H 0.74726 0.62087 1.04425 0.0
H817 H 0.61468 0.44105 0.05964 0.0
H818 H 0.68658 0.404 0.05475 0.0
H819 H 0.78841 0.42189 1.04512 0.0
H820 H 0.91887 0.6036 1.03026 0.0
H821 H 0.84795 0.63974 1.03606 0.0
C822 C 0.73357 0.57338 1.0465 0.0
C823 C 0.6744 0.53403 1.05217 0.0
C824 C 0.77579 0.55237 1.04386 0.0
C825 C 0.65914 0.47285 0.05518 0.0
C826 C 0.70068 0.4515 1.05241 0.0
C827 C 0.8018 0.46964 1.04349 0.0
C828 C 0.86018 0.50987 1.03733 0.0
C829 C 0.75948 0.49072 1.0467 0.0
C830 C 0.87513 0.5713 1.03502 0.0
C831 C 0.83415 0.5922 1.03827 0.0
H832 H 0.36033 0.82552 0.18529 0.0
H833 H 0.44833 0.81495 0.22686 0.0
H834 H 0.35044 0.73321 0.23657 0.0
H835 H 0.23755 0.66427 0.23329 0.0
H836 H 0.15337 0.67938 0.19142 0.0
H837 H 0.2511 0.75856 0.18197 0.0
C838 C 0.35877 0.80567 0.19652 0.0
C839 C 0.41299 0.82746 0.20526 0.0
C840 C 0.3021 0.75862 0.20203 0.0
C841 C 0.40836 0.80007 0.21978 0.0
C842 C 0.35192 0.75293 0.22533 0.0
C843 C 0.24055 0.68445 0.22203 0.0
C844 C 0.18674 0.66455 0.21311 0.0
C845 C 0.29813 0.73159 0.21658 0.0
C846 C 0.19271 0.69265 0.19864 0.0
C847 C 0.24913 0.73844 0.19319 0.0
H848 H 0.68963 0.37985 0.37619 0.0
H849 H 0.51077 0.32976 0.35954 0.0
H850 H 0.47607 0.22298 0.36538 0.0
H851 H 0.49523 0.141 0.37462 0.0
H852 H 0.67336 0.18834 0.39118 0.0
H853 H 0.70849 0.29635 0.38597 0.0
C854 C 0.64287 0.34577 0.37404 0.0
C855 C 0.60319 0.36425 0.3674 0.0
C856 C 0.62268 0.28263 0.37726 0.0
C857 C 0.54292 0.31813 0.36457 0.0
C858 C 0.52274 0.25637 0.36789 0.0
C859 C 0.54191 0.17465 0.37704 0.0
C860 C 0.58126 0.15504 0.38324 0.0
C861 C 0.56215 0.23762 0.37407 0.0
C862 C 0.6415 0.20074 0.38635 0.0
C863 C 0.66182 0.26317 0.3834 0.0
H864 H 0.34406 0.77711 0.48876 0.0
H865 H 0.18861 0.64458 0.46327 0.0
H866 H 0.23792 0.69312 0.43892 0.0
H867 H 0.32489 0.77608 0.42467 0.0
H868 H 0.48231 0.90397 0.45044 0.0
H869 H 0.4331 0.8548 0.47456 0.0
C870 C 0.32113 0.75854 0.47787 0.0
C871 C 0.26258 0.70706 0.47794 0.0
C872 C 0.35028 0.78615 0.46383 0.0
C873 C 0.23386 0.68365 0.46364 0.0
C874 C 0.26197 0.71171 0.44967 0.0
C875 C 0.3485 0.79285 0.43556 0.0
C876 C 0.40757 0.84376 0.43561 0.0
C877 C 0.32012 0.76336 0.44958 0.0
C878 C 0.43733 0.86457 0.4499 0.0
C879 C 0.409 0.8366 0.4638 0.0
H880 H 0.60938 0.42277 0.61759 0.0
H881 H 0.60077 0.29414 0.58328 0.0
H882 H 0.60758 0.22992 0.60358 0.0
H883 H 0.61203 0.20798 0.63126 0.0
H884 H 0.61046 0.33147 0.66563 0.0
H885 H 0.61201 0.39992 0.64527 0.0
C886 C 0.60975 0.38105 0.61455 0.0
C887 C 0.60525 0.36371 0.59888 0.0
C888 C 0.61178 0.34326 0.62635 0.0
C889 C 0.60435 0.30872 0.59521 0.0
C890 C 0.60828 0.27195 0.60683 0.0
C891 C 0.61294 0.25035 0.63428 0.0
C892 C 0.61205 0.26503 0.64998 0.0
C893 C 0.61158 0.28847 0.62246 0.0
C894 C 0.61153 0.31928 0.65367 0.0
C895 C 0.61232 0.35841 0.64201 0.0
H896 H 0.32037 0.56632 0.82329 0.0
H897 H 0.47739 0.59499 0.79728 0.0
H898 H 0.42833 0.59698 0.77326 0.0
H899 H 0.33954 0.58848 0.75924 0.0
H900 H 0.18493 0.56668 0.78521 0.0
H901 H 0.23382 0.56432 0.80933 0.0
C902 C 0.3439 0.57332 0.81237 0.0
C903 C 0.40279 0.58072 0.81221 0.0
C904 C 0.31564 0.57562 0.79845 0.0
C905 C 0.43251 0.58996 0.79789 0.0
C906 C 0.40426 0.59076 0.78406 0.0
C907 C 0.31671 0.58354 0.77018 0.0
C908 C 0.25856 0.57787 0.77032 0.0
C909 C 0.34571 0.58342 0.78414 0.0
C910 C 0.22991 0.5718 0.78468 0.0
C911 C 0.25776 0.57012 0.79853 0.0
H912 H 0.828 0.31864 0.92442 0.0
H913 H 0.67023 0.19264 0.95033 0.0
H914 H 0.7193 0.24331 0.97438 0.0
H915 H 0.80837 0.3225 0.98845 0.0
H916 H 0.96358 0.45313 0.96254 0.0
H917 H 0.91467 0.40228 0.9384 0.0
C918 C 0.8043 0.30256 0.93533 0.0
C919 C 0.74525 0.25183 0.93546 0.0
C920 C 0.83253 0.3329 0.94925 0.0
C921 C 0.71528 0.23191 0.94975 0.0
C922 C 0.74353 0.26072 0.9636 0.0
C923 C 0.83131 0.34001 0.97751 0.0
C924 C 0.88965 0.39174 0.97739 0.0
C925 C 0.80228 0.31116 0.96354 0.0
C926 C 0.91846 0.41386 0.96304 0.0
C927 C 0.89059 0.38454 0.94919 0.0
H928 H 0.55574 0.90137 0.12976 0.0
H929 H 0.52427 0.76403 0.16391 0.0
H930 H 0.51521 0.69248 0.14356 0.0
H931 H 0.52191 0.67029 0.11605 0.0
H932 H 0.56132 0.8102 0.08202 0.0
H933 H 0.5613 0.87865 0.10214 0.0
C934 C 0.54601 0.85548 0.13272 0.0
C935 C 0.5403 0.83811 0.14839 0.0
C936 C 0.54263 0.81488 0.12091 0.0
C937 C 0.5289 0.77875 0.15199 0.0
C938 C 0.52373 0.73771 0.14033 0.0
C939 C 0.52961 0.71543 0.113 0.0
C940 C 0.54118 0.73474 0.09747 0.0
C941 C 0.53129 0.75542 0.12475 0.0
C942 C 0.55226 0.79397 0.09384 0.0
C943 C 0.55229 0.83327 0.10536 0.0
H944 H 0.80632 0.50576 0.32017 0.0
H945 H 0.67677 0.53306 0.29405 0.0
H946 H 0.72873 0.53559 0.27003 0.0
H947 H 0.81358 0.53307 0.25625 0.0
H948 H 0.93889 0.49945 0.28246 0.0
H949 H 0.88645 0.49624 0.30633 0.0
C950 C 0.78919 0.51177 0.30921 0.0
C951 C 0.73751 0.51905 0.30899 0.0
C952 C 0.8188 0.51216 0.29532 0.0
C953 C 0.71596 0.52662 0.29462 0.0
C954 C 0.74595 0.52846 0.28083 0.0
C955 C 0.82905 0.52462 0.26718 0.0
C956 C 0.88009 0.51617 0.26746 0.0
C957 C 0.79774 0.52168 0.281 0.0
C958 C 0.89932 0.50518 0.28178 0.0
C959 C 0.86951 0.50371 0.29552 0.0
H960 H 0.90629 0.17628 0.51341 0.0
H961 H 0.79363 0.26091 0.51245 0.0
H962 H 0.71139 0.16866 0.50099 0.0
H963 H 0.68532 0.07912 0.48491 0.0
H964 H 0.79908 0.99579 0.48537 0.0
H965 H 0.86633 0.07175 0.50403 0.0
C966 C 0.86297 0.1739 0.51138 0.0
C967 C 0.85705 0.22644 0.51314 0.0
C968 C 0.81644 0.12129 0.50449 0.0
C969 C 0.80016 0.22189 0.5106 0.0
C970 C 0.75308 0.16912 0.50406 0.0
C971 C 0.72309 0.07552 0.48961 0.0
C972 C 0.73871 1.0335 0.48327 0.0
C973 C 0.76257 0.12052 0.49991 0.0
C974 C 0.78741 1.02917 0.48969 0.0
C975 C 0.82602 0.07277 0.5003 0.0
H976 H 0.74184 0.88689 0.68207 0.0
H977 H 0.91464 0.99807 0.65994 0.0
H978 H 0.91342 0.9063 0.65021 0.0
H979 H 0.84855 0.80101 0.64163 0.0
H980 H 0.6747 0.69005 0.66335 0.0
H981 H 0.692 0.77558 0.67998 0.0
C982 C 0.78081 0.89128 0.67579 0.0
C983 C 0.82692 0.94936 0.6711 0.0
C984 C 0.77878 0.83846 0.6698 0.0
C985 C 0.87744 0.95382 0.66319 0.0
C986 C 0.8766 0.90134 0.65755 0.0
C987 C 0.81549 0.79423 0.65047 0.0
C988 C 0.75905 0.74007 0.65072 0.0
C989 C 0.8251 0.84401 0.65973 0.0
C990 C 0.71743 0.73222 0.66246 0.0
C991 C 0.72729 0.78114 0.67198 0.0
H992 H 0.76505 0.78248 0.75708 0.0
H993 H 0.66547 0.58801 0.7653 0.0
H994 H 0.72841 0.57231 0.74679 0.0
H995 H 0.82962 0.61676 0.7357 0.0
H996 H 0.93515 0.81183 0.72911 0.0
H997 H 0.8521 0.8243 0.73935 0.0
C998 C 0.75591 0.73653 0.75438 0.0
C999 C 0.71237 0.68691 0.76299 0.0
C1000 C 0.7946 0.72807 0.74434 0.0
C1001 C 0.69929 0.62731 0.75903 0.0
C1002 C 0.73591 0.61825 0.74855 0.0
C1003 C 0.83357 0.66176 0.73578 0.0
C1004 C 0.88936 0.71359 0.73232 0.0
C1005 C 0.78666 0.66875 0.74221 0.0
C1006 C 0.89327 0.77143 0.73228 0.0
C1007 C 0.84588 0.7786 0.73818 0.0
H1008 H 0.46429 1.01497 0.98252 0.0
H1009 H 0.3744 0.12209 0.98704 0.0
H1010 H 0.3041 1.04895 1.00581 0.0
H1011 H 0.25241 0.9421 1.01446 0.0
H1012 H 0.33643 0.83094 1.00654 0.0
H1013 H 0.42621 0.91897 0.99639 0.0
C1014 C 0.43125 1.02405 0.98815 0.0
C1015 C 0.42319 0.07272 0.98306 0.0
C1016 C 0.38906 0.98013 0.99818 0.0
C1017 C 0.38037 0.08397 0.99053 0.0
C1018 C 0.33995 1.04194 1.00117 0.0
C1019 C 0.29106 0.93762 1.01086 0.0
C1020 C 0.28674 0.87959 1.01069 0.0
C1021 C 0.34103 0.98755 1.00406 0.0
C1022 C 0.33798 0.87479 1.00662 0.0
C1023 C 0.38927 0.9251 1.00062 0.0
H1024 H 0.37339 0.22048 0.17909 0.0
H1025 H 0.56834 0.32714 0.17619 0.0
H1026 H 0.56067 0.41513 0.16728 0.0
H1027 H 0.49824 0.44808 0.15328 0.0
H1028 H 0.30333 0.34047 0.15554 0.0
H1029 H 0.31156 0.26743 0.17253 0.0
C1030 C 0.41443 0.26362 0.17721 0.0
C1031 C 0.47127 0.26643 0.17758 0.0
C1032 C 0.40964 0.31359 0.17178 0.0
C1033 C 0.52388 0.32312 0.17532 0.0
C1034 C 0.51954 0.3735 0.17025 0.0
C1035 C 0.45737 0.41047 0.15808 0.0
C1036 C 0.40021 0.39797 0.15254 0.0
C1037 C 0.46251 0.36751 0.16731 0.0
C1038 C 0.34793 0.34968 0.15918 0.0
C1039 C 0.35262 0.30765 0.1688 0.0
H1040 H 0.31048 0.57458 0.34831 0.0
H1041 H 0.43178 0.70589 0.31524 0.0
H1042 H 0.34844 0.7165 0.30452 0.0
H1043 H 0.24092 0.65397 0.29782 0.0
H1044 H 0.12142 0.50911 0.32823 0.0
H1045 H 0.20241 0.54014 0.34717 0.0
C1046 C 0.31944 0.60816 0.33935 0.0
C1047 C 0.37596 0.63653 0.33188 0.0
C1048 C 0.27044 0.61008 0.33248 0.0
C1049 C 0.38766 0.68151 0.32068 0.0
C1050 C 0.33984 0.68711 0.31445 0.0
C1051 C 0.23218 0.63148 0.30898 0.0
C1052 C 0.17713 0.57739 0.31139 0.0
C1053 C 0.28042 0.64619 0.31911 0.0
C1054 C 0.16442 0.54975 0.326 0.0
C1055 C 0.21109 0.56701 0.33673 0.0
loop_
_geom_bond_atom_site_label_1
_geom_bond_atom_site_label_2
_geom_bond_distance
_geom_bond_site_symmetry_2
_ccdc_geom_bond_type
Eu0 C9 2.828 . S
Eu0 O11 2.392 1_545 S
Eu0 O13 2.418 1_545 S
Eu0 O18 2.373 . S
Eu0 O21 2.488 . S
Eu0 O22 2.471 . S
Eu0 O23 2.349 . S
Eu1 O10 2.373 . S
Eu1 O14 2.488 . S
Eu1 O15 2.471 . S
Eu1 O16 2.349 . S
Eu1 O19 2.392 1_565 S
Eu1 O20 2.418 1_565 S
Eu1 C30 2.828 . S
C2 O20 1.244 . S
C2 O23 1.265 . S
C3 C4 1.379 . S
C3 C7 1.373 . S
C3 C9 1.505 . S
C4 C3 1.379 . S
C4 C6 1.369 . S
C4 H32 0.930 . S
C5 C7 1.383 . S
C5 C8 1.382 . S
C5 H33 0.930 . S
C6 C4 1.369 . S
C6 C8 1.392 . S
C6 H34 0.930 . S
C7 C3 1.373 . S
C7 C5 1.383 . S
C7 H35 0.931 . S
C8 C5 1.382 . S
C8 C6 1.392 . S
C9 Eu0 2.828 . S
C9 C3 1.505 . S
C9 O21 1.249 . S
C9 O22 1.244 . S
O10 Eu1 2.373 . S
O10 C12 1.258 . S
O11 Eu0 2.392 1_565 S
O11 C12 1.242 . S
C12 O10 1.258 . S
C12 O11 1.242 . S
O13 Eu0 2.418 1_565 S
O13 C17 1.244 . S
O14 Eu1 2.488 . S
O14 C30 1.249 . S
O15 Eu1 2.471 . S
O15 C30 1.244 . S
O16 Eu1 2.349 . S
O16 C17 1.265 . S
C17 O13 1.244 . S
C17 O16 1.265 . S
O18 Eu0 2.373 . S
O18 C31 1.258 . S
O19 Eu1 2.392 1_545 S
O19 C31 1.242 . S
O20 Eu1 2.418 1_545 S
O20 C2 1.244 . S
O21 Eu0 2.488 . S
O21 C9 1.249 . S
O22 Eu0 2.471 . S
O22 C9 1.244 . S
O23 Eu0 2.349 . S
O23 C2 1.265 . S
C24 C25 1.379 . S
C24 C28 1.373 . S
C24 C30 1.505 . S
C25 C24 1.379 . S
C25 C27 1.369 . S
C25 H36 0.930 . S
C26 C28 1.383 . S
C26 C29 1.382 . S
C26 H37 0.930 . S
C27 C25 1.369 . S
C27 C29 1.392 . S
C27 H38 0.930 . S
C28 C24 1.373 . S
C28 C26 1.383 . S
C28 H39 0.931 . S
C29 C26 1.382 . S
C29 C27 1.392 . S
C30 Eu1 2.828 . S
C30 O14 1.249 . S
C30 O15 1.244 . S
C30 C24 1.505 . S
C31 O18 1.258 . S
C31 O19 1.242 . S
H32 C4 0.930 . S
H33 C5 0.930 . S
H34 C6 0.930 . S
H35 C7 0.931 . S
H36 C25 0.930 . S
H37 C26 0.930 . S
H38 C27 0.930 . S
H39 C28 0.931 . S
Eu40 C49 2.828 . S
Eu40 O51 2.392 . S
Eu40 O53 2.418 . S
Eu40 O58 2.373 . S
Eu40 O61 2.488 . S
Eu40 O62 2.471 . S
Eu40 O63 2.349 . S
Eu41 O50 2.373 . S
Eu41 O54 2.488 . S
Eu41 O55 2.471 . S
Eu41 O56 2.349 . S
Eu41 O59 2.392 . S
Eu41 O60 2.418 . S
Eu41 C70 2.828 . S
C42 O60 1.244 . S
C42 O63 1.265 . S
C43 C44 1.379 . S
C43 C47 1.373 . S
C43 C49 1.505 . S
C44 C43 1.379 . S
C44 C46 1.369 . S
C44 H72 0.930 . S
C45 C47 1.383 . S
C45 C48 1.382 . S
C45 H73 0.930 . S
C46 C44 1.369 . S
C46 C48 1.392 . S
C46 H74 0.930 . S
C47 C43 1.373 . S
C47 C45 1.383 . S
C47 H75 0.931 . S
C48 C45 1.382 . S
C48 C46 1.392 . S
C49 Eu40 2.828 . S
C49 C43 1.505 . S
C49 O61 1.249 . S
C49 O62 1.244 . S
O50 Eu41 2.373 . S
O50 C52 1.258 . S
O51 Eu40 2.392 . S
O51 C52 1.242 . S
C52 O50 1.258 . S
C52 O51 1.242 . S
O53 Eu40 2.418 . S
O53 C57 1.244 . S
O54 Eu41 2.488 . S
O54 C70 1.249 . S
O55 Eu41 2.471 . S
O55 C70 1.244 . S
O56 Eu41 2.349 . S
O56 C57 1.265 . S
C57 O53 1.244 . S
C57 O56 1.265 . S
O58 Eu40 2.373 . S
O58 C71 1.258 . S
O59 Eu41 2.392 . S
O59 C71 1.242 . S
O60 Eu41 2.418 . S
O60 C42 1.244 . S
O61 Eu40 2.488 . S
O61 C49 1.249 . S
O62 Eu40 2.471 . S
O62 C49 1.244 . S
O63 Eu40 2.349 . S
O63 C42 1.265 . S
C64 C65 1.379 . S
C64 C68 1.373 . S
C64 C70 1.505 . S
C65 C64 1.379 . S
C65 C67 1.369 . S
C65 H76 0.930 . S
C66 C68 1.383 . S
C66 C69 1.382 . S
C66 H77 0.930 . S
C67 C65 1.369 . S
C67 C69 1.392 . S
C67 H78 0.930 . S
C68 C64 1.373 . S
C68 C66 1.383 . S
C68 H79 0.931 . S
C69 C66 1.382 . S
C69 C67 1.392 . S
C70 Eu41 2.828 . S
C70 O54 1.249 . S
C70 O55 1.244 . S
C70 C64 1.505 . S
C71 O58 1.258 . S
C71 O59 1.242 . S
H72 C44 0.930 . S
H73 C45 0.930 . S
H74 C46 0.930 . S
H75 C47 0.931 . S
H76 C65 0.930 . S
H77 C66 0.930 . S
H78 C67 0.930 . S
H79 C68 0.931 . S
Eu80 C89 2.828 . S
Eu80 O91 2.392 1_655 S
Eu80 O93 2.418 1_655 S
Eu80 O98 2.373 . S
Eu80 O101 2.488 . S
Eu80 O102 2.471 . S
Eu80 O103 2.349 . S
Eu81 O90 2.373 . S
Eu81 O94 2.488 . S
Eu81 O95 2.471 . S
Eu81 O96 2.349 . S
Eu81 O99 2.392 1_455 S
Eu81 O100 2.418 1_455 S
Eu81 C110 2.828 . S
C82 O100 1.244 . S
C82 O103 1.265 . S
C83 C84 1.379 . S
C83 C87 1.373 . S
C83 C89 1.505 . S
C84 C83 1.379 . S
C84 C86 1.369 . S
C84 H112 0.930 . S
C85 C87 1.383 . S
C85 C88 1.382 . S
C85 H113 0.930 . S
C86 C84 1.369 . S
C86 C88 1.392 . S
C86 H114 0.930 . S
C87 C83 1.373 . S
C87 C85 1.383 . S
C87 H115 0.931 . S
C88 C85 1.382 . S
C88 C86 1.392 . S
C89 Eu80 2.828 . S
C89 C83 1.505 . S
C89 O101 1.249 . S
C89 O102 1.244 . S
O90 Eu81 2.373 . S
O90 C92 1.258 . S
O91 Eu80 2.392 1_455 S
O91 C92 1.242 . S
C92 O90 1.258 . S
C92 O91 1.242 . S
O93 Eu80 2.418 1_455 S
O93 C97 1.244 . S
O94 Eu81 2.488 . S
O94 C110 1.249 . S
O95 Eu81 2.471 . S
O95 C110 1.244 . S
O96 Eu81 2.349 . S
O96 C97 1.265 . S
C97 O93 1.244 . S
C97 O96 1.265 . S
O98 Eu80 2.373 . S
O98 C111 1.258 . S
O99 Eu81 2.392 1_655 S
O99 C111 1.242 . S
O100 Eu81 2.418 1_655 S
O100 C82 1.244 . S
O101 Eu80 2.488 . S
O101 C89 1.249 . S
O102 Eu80 2.471 . S
O102 C89 1.244 . S
O103 Eu80 2.349 . S
O103 C82 1.265 . S
C104 C105 1.379 . S
C104 C108 1.373 . S
C104 C110 1.505 . S
C105 C104 1.379 . S
C105 C107 1.369 . S
C105 H116 0.930 . S
C106 C108 1.383 . S
C106 C109 1.382 . S
C106 H117 0.930 . S
C107 C105 1.369 . S
C107 C109 1.392 . S
C107 H118 0.930 . S
C108 C104 1.373 . S
C108 C106 1.383 . S
C108 H119 0.931 . S
C109 C106 1.382 . S
C109 C107 1.392 . S
C110 Eu81 2.828 . S
C110 O94 1.249 . S
C110 O95 1.244 . S
C110 C104 1.505 . S
C111 O98 1.258 . S
C111 O99 1.242 . S
H112 C84 0.930 . S
H113 C85 0.930 . S
H114 C86 0.930 . S
H115 C87 0.931 . S
H116 C105 0.930 . S
H117 C106 0.930 . S
H118 C107 0.930 . S
H119 C108 0.931 . S
Eu120 C129 2.828 . S
Eu120 O131 2.392 1_565 S
Eu120 O133 2.418 1_565 S
Eu120 O138 2.373 . S
Eu120 O141 2.488 . S
Eu120 O142 2.471 . S
Eu120 O143 2.349 . S
Eu121 O130 2.373 . S
Eu121 O134 2.488 . S
Eu121 O135 2.471 . S
Eu121 O136 2.349 . S
Eu121 O139 2.392 1_545 S
Eu121 O140 2.418 1_545 S
Eu121 C150 2.828 . S
C122 O140 1.244 . S
C122 O143 1.265 . S
C123 C124 1.379 . S
C123 C127 1.373 . S
C123 C129 1.505 . S
C124 C123 1.379 . S
C124 C126 1.369 . S
C124 H152 0.930 . S
C125 C127 1.383 . S
C125 C128 1.382 . S
C125 H153 0.930 . S
C126 C124 1.369 . S
C126 C128 1.392 . S
C126 H154 0.930 . S
C127 C123 1.373 . S
C127 C125 1.383 . S
C127 H155 0.931 . S
C128 C125 1.382 . S
C128 C126 1.392 . S
C129 Eu120 2.828 . S
C129 C123 1.505 . S
C129 O141 1.249 . S
C129 O142 1.244 . S
O130 Eu121 2.373 . S
O130 C132 1.258 . S
O131 Eu120 2.392 1_545 S
O131 C132 1.242 . S
C132 O130 1.258 . S
C132 O131 1.242 . S
O133 Eu120 2.418 1_545 S
O133 C137 1.244 . S
O134 Eu121 2.488 . S
O134 C150 1.249 . S
O135 Eu121 2.471 . S
O135 C150 1.244 . S
O136 Eu121 2.349 . S
O136 C137 1.265 . S
C137 O133 1.244 . S
C137 O136 1.265 . S
O138 Eu120 2.373 . S
O138 C151 1.258 . S
O139 Eu121 2.392 1_565 S
O139 C151 1.242 . S
O140 Eu121 2.418 1_565 S
O140 C122 1.244 . S
O141 Eu120 2.488 . S
O141 C129 1.249 . S
O142 Eu120 2.471 . S
O142 C129 1.244 . S
O143 Eu120 2.349 . S
O143 C122 1.265 . S
C144 C145 1.379 . S
C144 C148 1.373 . S
C144 C150 1.505 . S
C145 C144 1.379 . S
C145 C147 1.369 . S
C145 H156 0.930 . S
C146 C148 1.383 . S
C146 C149 1.382 . S
C146 H157 0.930 . S
C147 C145 1.369 . S
C147 C149 1.392 . S
C147 H158 0.930 . S
C148 C144 1.373 . S
C148 C146 1.383 . S
C148 H159 0.931 . S
C149 C146 1.382 . S
C149 C147 1.392 . S
C150 Eu121 2.828 . S
C150 O134 1.249 . S
C150 O135 1.244 . S
C150 C144 1.505 . S
C151 O138 1.258 . S
C151 O139 1.242 . S
H152 C124 0.930 . S
H153 C125 0.930 . S
H154 C126 0.930 . S
H155 C127 0.931 . S
H156 C145 0.930 . S
H157 C146 0.930 . S
H158 C147 0.930 . S
H159 C148 0.931 . S
Eu160 C169 2.828 . S
Eu160 O171 2.392 . S
Eu160 O173 2.418 . S
Eu160 O178 2.373 . S
Eu160 O181 2.488 . S
Eu160 O182 2.471 . S
Eu160 O183 2.349 . S
Eu161 O170 2.373 . S
Eu161 O174 2.488 1_554 S
Eu161 O175 2.471 . S
Eu161 O176 2.349 . S
Eu161 O179 2.392 . S
Eu161 O180 2.418 1_554 S
Eu161 C190 2.828 1_554 S
C162 O180 1.244 1_554 S
C162 O183 1.265 . S
C163 C164 1.379 . S
C163 C167 1.373 . S
C163 C169 1.505 . S
C164 C163 1.379 . S
C164 C166 1.369 . S
C164 H192 0.930 . S
C165 C167 1.383 . S
C165 C168 1.382 . S
C165 H193 0.930 . S
C166 C164 1.369 . S
C166 C168 1.392 . S
C166 H194 0.930 . S
C167 C163 1.373 . S
C167 C165 1.383 . S
C167 H195 0.931 . S
C168 C165 1.382 . S
C168 C166 1.392 . S
C169 Eu160 2.828 . S
C169 C163 1.505 . S
C169 O181 1.249 . S
C169 O182 1.244 . S
O170 Eu161 2.373 . S
O170 C172 1.258 . S
O171 Eu160 2.392 . S
O171 C172 1.242 . S
C172 O170 1.258 . S
C172 O171 1.242 . S
O173 Eu160 2.418 . S
O173 C177 1.244 . S
O174 Eu161 2.488 1_556 S
O174 C190 1.249 . S
O175 Eu161 2.471 . S
O175 C190 1.244 1_554 S
O176 Eu161 2.349 . S
O176 C177 1.265 . S
C177 O173 1.244 . S
C177 O176 1.265 . S
O178 Eu160 2.373 . S
O178 C191 1.258 . S
O179 Eu161 2.392 . S
O179 C191 1.242 . S
O180 Eu161 2.418 1_556 S
O180 C162 1.244 1_556 S
O181 Eu160 2.488 . S
O181 C169 1.249 . S
O182 Eu160 2.471 . S
O182 C169 1.244 . S
O183 Eu160 2.349 . S
O183 C162 1.265 . S
C184 C185 1.379 . S
C184 C188 1.373 . S
C184 C190 1.505 . S
C185 C184 1.379 . S
C185 C187 1.369 . S
C185 H196 0.930 . S
C186 C188 1.383 . S
C186 C189 1.382 . S
C186 H197 0.930 . S
C187 C185 1.369 . S
C187 C189 1.392 . S
C187 H198 0.930 . S
C188 C184 1.373 . S
C188 C186 1.383 . S
C188 H199 0.931 . S
C189 C186 1.382 . S
C189 C187 1.392 . S
C190 Eu161 2.828 1_556 S
C190 O174 1.249 . S
C190 O175 1.244 1_556 S
C190 C184 1.505 . S
C191 O178 1.258 . S
C191 O179 1.242 . S
H192 C164 0.930 . S
H193 C165 0.930 . S
H194 C166 0.930 . S
H195 C167 0.931 . S
H196 C185 0.930 . S
H197 C186 0.930 . S
H198 C187 0.930 . S
H199 C188 0.931 . S
Eu200 C209 2.828 . S
Eu200 O211 2.392 1_455 S
Eu200 O213 2.418 1_455 S
Eu200 O218 2.373 . S
Eu200 O221 2.488 . S
Eu200 O222 2.471 . S
Eu200 O223 2.349 . S
Eu201 O210 2.373 . S
Eu201 O214 2.488 . S
Eu201 O215 2.471 . S
Eu201 O216 2.349 . S
Eu201 O219 2.392 1_655 S
Eu201 O220 2.418 1_655 S
Eu201 C230 2.828 . S
C202 O220 1.244 . S
C202 O223 1.265 . S
C203 C204 1.379 . S
C203 C207 1.373 . S
C203 C209 1.505 . S
C204 C203 1.379 . S
C204 C206 1.369 . S
C204 H232 0.930 . S
C205 C207 1.383 . S
C205 C208 1.382 . S
C205 H233 0.930 . S
C206 C204 1.369 . S
C206 C208 1.392 . S
C206 H234 0.930 . S
C207 C203 1.373 . S
C207 C205 1.383 . S
C207 H235 0.931 . S
C208 C205 1.382 . S
C208 C206 1.392 . S
C209 Eu200 2.828 . S
C209 C203 1.505 . S
C209 O221 1.249 . S
C209 O222 1.244 . S
O210 Eu201 2.373 . S
O210 C212 1.258 . S
O211 Eu200 2.392 1_655 S
O211 C212 1.242 . S
C212 O210 1.258 . S
C212 O211 1.242 . S
O213 Eu200 2.418 1_655 S
O213 C217 1.244 . S
O214 Eu201 2.488 . S
O214 C230 1.249 . S
O215 Eu201 2.471 . S
O215 C230 1.244 . S
O216 Eu201 2.349 . S
O216 C217 1.265 . S
C217 O213 1.244 . S
C217 O216 1.265 . S
O218 Eu200 2.373 . S
O218 C231 1.258 . S
O219 Eu201 2.392 1_455 S
O219 C231 1.242 . S
O220 Eu201 2.418 1_455 S
O220 C202 1.244 . S
O221 Eu200 2.488 . S
O221 C209 1.249 . S
O222 Eu200 2.471 . S
O222 C209 1.244 . S
O223 Eu200 2.349 . S
O223 C202 1.265 . S
C224 C225 1.379 . S
C224 C228 1.373 . S
C224 C230 1.505 . S
C225 C224 1.379 . S
C225 C227 1.369 . S
C225 H236 0.930 . S
C226 C228 1.383 . S
C226 C229 1.382 . S
C226 H237 0.930 . S
C227 C225 1.369 . S
C227 C229 1.392 . S
C227 H238 0.930 . S
C228 C224 1.373 . S
C228 C226 1.383 . S
C228 H239 0.931 . S
C229 C226 1.382 . S
C229 C227 1.392 . S
C230 Eu201 2.828 . S
C230 O214 1.249 . S
C230 O215 1.244 . S
C230 C224 1.505 . S
C231 O218 1.258 . S
C231 O219 1.242 . S
H232 C204 0.930 . S
H233 C205 0.930 . S
H234 C206 0.930 . S
H235 C207 0.931 . S
H236 C225 0.930 . S
H237 C226 0.930 . S
H238 C227 0.930 . S
H239 C228 0.931 . S
Eu240 C249 2.828 . S
Eu240 O251 2.392 1_655 S
Eu240 O253 2.418 1_655 S
Eu240 O258 2.373 . S
Eu240 O261 2.488 . S
Eu240 O262 2.471 . S
Eu240 O263 2.349 . S
Eu241 O250 2.373 . S
Eu241 O254 2.488 . S
Eu241 O255 2.471 . S
Eu241 O256 2.349 . S
Eu241 O259 2.392 1_455 S
Eu241 O260 2.418 1_455 S
Eu241 C270 2.828 . S
C242 O260 1.244 . S
C242 O263 1.265 . S
C243 C244 1.379 . S
C243 C247 1.373 . S
C243 C249 1.505 . S
C244 C243 1.379 . S
C244 C246 1.369 . S
C244 H272 0.930 . S
C245 C247 1.383 . S
C245 C248 1.382 . S
C245 H273 0.930 . S
C246 C244 1.369 . S
C246 C248 1.392 . S
C246 H274 0.930 . S
C247 C243 1.373 . S
C247 C245 1.383 . S
C247 H275 0.931 . S
C248 C245 1.382 . S
C248 C246 1.392 . S
C249 Eu240 2.828 . S
C249 C243 1.505 . S
C249 O261 1.249 . S
C249 O262 1.244 . S
O250 Eu241 2.373 . S
O250 C252 1.258 . S
O251 Eu240 2.392 1_455 S
O251 C252 1.242 . S
C252 O250 1.258 . S
C252 O251 1.242 . S
O253 Eu240 2.418 1_455 S
O253 C257 1.244 . S
O254 Eu241 2.488 . S
O254 C270 1.249 . S
O255 Eu241 2.471 . S
O255 C270 1.244 . S
O256 Eu241 2.349 . S
O256 C257 1.265 . S
C257 O253 1.244 . S
C257 O256 1.265 . S
O258 Eu240 2.373 . S
O258 C271 1.258 . S
O259 Eu241 2.392 1_655 S
O259 C271 1.242 . S
O260 Eu241 2.418 1_655 S
O260 C242 1.244 . S
O261 Eu240 2.488 . S
O261 C249 1.249 . S
O262 Eu240 2.471 . S
O262 C249 1.244 . S
O263 Eu240 2.349 . S
O263 C242 1.265 . S
C264 C265 1.379 . S
C264 C268 1.373 . S
C264 C270 1.505 . S
C265 C264 1.379 . S
C265 C267 1.369 . S
C265 H276 0.930 . S
C266 C268 1.383 . S
C266 C269 1.382 . S
C266 H277 0.930 . S
C267 C265 1.369 . S
C267 C269 1.392 . S
C267 H278 0.930 . S
C268 C264 1.373 . S
C268 C266 1.383 . S
C268 H279 0.931 . S
C269 C266 1.382 . S
C269 C267 1.392 . S
C270 Eu241 2.828 . S
C270 O254 1.249 . S
C270 O255 1.244 . S
C270 C264 1.505 . S
C271 O258 1.258 . S
C271 O259 1.242 . S
H272 C244 0.930 . S
H273 C245 0.930 . S
H274 C246 0.930 . S
H275 C247 0.931 . S
H276 C265 0.930 . S
H277 C266 0.930 . S
H278 C267 0.930 . S
H279 C268 0.931 . S
Eu280 C289 2.828 . S
Eu280 O291 2.392 1_565 S
Eu280 O293 2.418 1_565 S
Eu280 O298 2.373 . S
Eu280 O301 2.488 . S
Eu280 O302 2.471 . S
Eu280 O303 2.349 . S
Eu281 O290 2.373 . S
Eu281 O294 2.488 . S
Eu281 O295 2.471 . S
Eu281 O296 2.349 . S
Eu281 O299 2.392 1_545 S
Eu281 O300 2.418 1_545 S
Eu281 C310 2.828 . S
C282 O300 1.244 . S
C282 O303 1.265 . S
C283 C284 1.379 . S
C283 C287 1.373 . S
C283 C289 1.505 . S
C284 C283 1.379 . S
C284 C286 1.369 . S
C284 H312 0.930 . S
C285 C287 1.383 . S
C285 C288 1.382 . S
C285 H313 0.930 . S
C286 C284 1.369 . S
C286 C288 1.392 . S
C286 H314 0.930 . S
C287 C283 1.373 . S
C287 C285 1.383 . S
C287 H315 0.931 . S
C288 C285 1.382 . S
C288 C286 1.392 . S
C289 Eu280 2.828 . S
C289 C283 1.505 . S
C289 O301 1.249 . S
C289 O302 1.244 . S
O290 Eu281 2.373 . S
O290 C292 1.258 . S
O291 Eu280 2.392 1_545 S
O291 C292 1.242 . S
C292 O290 1.258 . S
C292 O291 1.242 . S
O293 Eu280 2.418 1_545 S
O293 C297 1.244 . S
O294 Eu281 2.488 . S
O294 C310 1.249 . S
O295 Eu281 2.471 . S
O295 C310 1.244 . S
O296 Eu281 2.349 . S
O296 C297 1.265 . S
C297 O293 1.244 . S
C297 O296 1.265 . S
O298 Eu280 2.373 . S
O298 C311 1.258 . S
O299 Eu281 2.392 1_565 S
O299 C311 1.242 . S
O300 Eu281 2.418 1_565 S
O300 C282 1.244 . S
O301 Eu280 2.488 . S
O301 C289 1.249 . S
O302 Eu280 2.471 . S
O302 C289 1.244 . S
O303 Eu280 2.349 . S
O303 C282 1.265 . S
C304 C305 1.379 . S
C304 C308 1.373 . S
C304 C310 1.505 . S
C305 C304 1.379 . S
C305 C307 1.369 . S
C305 H316 0.930 . S
C306 C308 1.383 . S
C306 C309 1.382 . S
C306 H317 0.930 . S
C307 C305 1.369 . S
C307 C309 1.392 . S
C307 H318 0.930 . S
C308 C304 1.373 . S
C308 C306 1.383 . S
C308 H319 0.931 . S
C309 C306 1.382 . S
C309 C307 1.392 . S
C310 Eu281 2.828 . S
C310 O294 1.249 . S
C310 O295 1.244 . S
C310 C304 1.505 . S
C311 O298 1.258 . S
C311 O299 1.242 . S
H312 C284 0.930 . S
H313 C285 0.930 . S
H314 C286 0.930 . S
H315 C287 0.931 . S
H316 C305 0.930 . S
H317 C306 0.930 . S
H318 C307 0.930 . S
H319 C308 0.931 . S
Eu320 C329 2.828 . S
Eu320 O331 2.392 . S
Eu320 O333 2.418 . S
Eu320 O338 2.373 . S
Eu320 O341 2.488 . S
Eu320 O342 2.471 . S
Eu320 O343 2.349 . S
Eu321 O330 2.373 . S
Eu321 O334 2.488 . S
Eu321 O335 2.471 . S
Eu321 O336 2.349 . S
Eu321 O339 2.392 . S
Eu321 O340 2.418 . S
Eu321 C350 2.828 . S
C322 O340 1.244 . S
C322 O343 1.265 . S
C323 C324 1.379 . S
C323 C327 1.373 . S
C323 C329 1.505 . S
C324 C323 1.379 . S
C324 C326 1.369 . S
C324 H352 0.930 . S
C325 C327 1.383 . S
C325 C328 1.382 . S
C325 H353 0.930 . S
C326 C324 1.369 . S
C326 C328 1.392 . S
C326 H354 0.930 . S
C327 C323 1.373 . S
C327 C325 1.383 . S
C327 H355 0.931 . S
C328 C325 1.382 . S
C328 C326 1.392 . S
C329 Eu320 2.828 . S
C329 C323 1.505 . S
C329 O341 1.249 . S
C329 O342 1.244 . S
O330 Eu321 2.373 . S
O330 C332 1.258 . S
O331 Eu320 2.392 . S
O331 C332 1.242 . S
C332 O330 1.258 . S
C332 O331 1.242 . S
O333 Eu320 2.418 . S
O333 C337 1.244 . S
O334 Eu321 2.488 . S
O334 C350 1.249 . S
O335 Eu321 2.471 . S
O335 C350 1.244 . S
O336 Eu321 2.349 . S
O336 C337 1.265 . S
C337 O333 1.244 . S
C337 O336 1.265 . S
O338 Eu320 2.373 . S
O338 C351 1.258 . S
O339 Eu321 2.392 . S
O339 C351 1.242 . S
O340 Eu321 2.418 . S
O340 C322 1.244 . S
O341 Eu320 2.488 . S
O341 C329 1.249 . S
O342 Eu320 2.471 . S
O342 C329 1.244 . S
O343 Eu320 2.349 . S
O343 C322 1.265 . S
C344 C345 1.379 . S
C344 C348 1.373 . S
C344 C350 1.505 . S
C345 C344 1.379 . S
C345 C347 1.369 . S
C345 H356 0.930 . S
C346 C348 1.383 . S
C346 C349 1.382 . S
C346 H357 0.930 . S
C347 C345 1.369 . S
C347 C349 1.392 . S
C347 H358 0.930 . S
C348 C344 1.373 . S
C348 C346 1.383 . S
C348 H359 0.931 . S
C349 C346 1.382 . S
C349 C347 1.392 . S
C350 Eu321 2.828 . S
C350 O334 1.249 . S
C350 O335 1.244 . S
C350 C344 1.505 . S
C351 O338 1.258 . S
C351 O339 1.242 . S
H352 C324 0.930 . S
H353 C325 0.930 . S
H354 C326 0.930 . S
H355 C327 0.931 . S
H356 C345 0.930 . S
H357 C346 0.930 . S
H358 C347 0.930 . S
H359 C348 0.931 . S
Eu360 C369 2.828 . S
Eu360 O371 2.392 1_455 S
Eu360 O373 2.418 1_455 S
Eu360 O378 2.373 . S
Eu360 O381 2.488 . S
Eu360 O382 2.471 . S
Eu360 O383 2.349 . S
Eu361 O370 2.373 . S
Eu361 O374 2.476 1_556 S
Eu361 O375 2.471 . S
Eu361 O376 2.349 . S
Eu361 O379 2.392 1_655 S
Eu361 O380 2.418 1_655 S
Eu361 C390 2.828 . S
C362 O380 1.244 . S
C362 O383 1.265 . S
C363 C364 1.379 . S
C363 C367 1.373 . S
C363 C369 1.505 . S
C364 C363 1.379 . S
C364 C366 1.369 . S
C364 H392 0.930 . S
C365 C367 1.383 . S
C365 C368 1.382 . S
C365 H393 0.930 . S
C366 C364 1.369 . S
C366 C368 1.392 . S
C366 H394 0.930 . S
C367 C363 1.373 . S
C367 C365 1.383 . S
C367 H395 0.931 . S
C368 C365 1.382 . S
C368 C366 1.392 . S
C369 Eu360 2.828 . S
C369 C363 1.505 . S
C369 O381 1.249 . S
C369 O382 1.244 . S
O370 Eu361 2.373 . S
O370 C372 1.258 . S
O371 Eu360 2.392 1_655 S
O371 C372 1.242 . S
C372 O370 1.258 . S
C372 O371 1.242 . S
O373 Eu360 2.418 1_655 S
O373 C377 1.244 . S
O374 Eu361 2.476 1_554 S
O374 C390 1.246 1_554 S
O375 Eu361 2.471 . S
O375 C390 1.244 . S
O376 Eu361 2.349 . S
O376 C377 1.265 . S
C377 O373 1.244 . S
C377 O376 1.265 . S
O378 Eu360 2.373 . S
O378 C391 1.258 . S
O379 Eu361 2.392 1_455 S
O379 C391 1.242 . S
O380 Eu361 2.418 1_455 S
O380 C362 1.244 . S
O381 Eu360 2.488 . S
O381 C369 1.249 . S
O382 Eu360 2.471 . S
O382 C369 1.244 . S
O383 Eu360 2.349 . S
O383 C362 1.265 . S
C384 C385 1.379 . S
C384 C388 1.373 . S
C384 C390 1.505 1_554 S
C385 C384 1.379 . S
C385 C387 1.369 . S
C385 H396 0.930 1_554 S
C386 C388 1.383 . S
C386 C389 1.382 . S
C386 H397 0.930 . S
C387 C385 1.369 . S
C387 C389 1.392 . S
C387 H398 0.930 . S
C388 C384 1.373 . S
C388 C386 1.383 . S
C388 H399 0.931 . S
C389 C386 1.382 . S
C389 C387 1.392 . S
C390 Eu361 2.828 . S
C390 O374 1.246 1_556 S
C390 O375 1.244 . S
C390 C384 1.505 1_556 S
C391 O378 1.258 . S
C391 O379 1.242 . S
H392 C364 0.930 . S
H393 C365 0.930 . S
H394 C366 0.930 . S
H395 C367 0.931 . S
H396 C385 0.930 1_556 S
H397 C386 0.930 . S
H398 C387 0.930 . S
H399 C388 0.931 . S
Eu400 C409 2.828 . S
Eu400 O411 2.392 1_545 S
Eu400 O413 2.418 1_545 S
Eu400 O418 2.373 . S
Eu400 O421 2.488 . S
Eu400 O422 2.471 . S
Eu400 O423 2.349 . S
Eu401 O410 2.373 . S
Eu401 O414 2.488 . S
Eu401 O415 2.471 . S
Eu401 O416 2.349 . S
Eu401 O419 2.392 1_565 S
Eu401 O420 2.418 1_565 S
Eu401 C430 2.828 . S
C402 O420 1.244 . S
C402 O423 1.265 . S
C403 C404 1.379 . S
C403 C407 1.373 . S
C403 C409 1.505 . S
C404 C403 1.379 . S
C404 C406 1.369 . S
C404 H432 0.930 . S
C405 C407 1.383 . S
C405 C408 1.382 . S
C405 H433 0.930 . S
C406 C404 1.369 . S
C406 C408 1.392 . S
C406 H434 0.930 . S
C407 C403 1.373 . S
C407 C405 1.383 . S
C407 H435 0.931 . S
C408 C405 1.382 . S
C408 C406 1.392 . S
C409 Eu400 2.828 . S
C409 C403 1.505 . S
C409 O421 1.249 . S
C409 O422 1.244 . S
O410 Eu401 2.373 . S
O410 C412 1.258 . S
O411 Eu400 2.392 1_565 S
O411 C412 1.242 . S
C412 O410 1.258 . S
C412 O411 1.242 . S
O413 Eu400 2.418 1_565 S
O413 C417 1.244 . S
O414 Eu401 2.488 . S
O414 C430 1.249 . S
O415 Eu401 2.471 . S
O415 C430 1.244 . S
O416 Eu401 2.349 . S
O416 C417 1.265 . S
C417 O413 1.244 . S
C417 O416 1.265 . S
O418 Eu400 2.373 . S
O418 C431 1.258 . S
O419 Eu401 2.392 1_545 S
O419 C431 1.242 . S
O420 Eu401 2.418 1_545 S
O420 C402 1.244 . S
O421 Eu400 2.488 . S
O421 C409 1.249 . S
O422 Eu400 2.471 . S
O422 C409 1.244 . S
O423 Eu400 2.349 . S
O423 C402 1.265 . S
C424 C425 1.379 . S
C424 C428 1.373 . S
C424 C430 1.505 . S
C425 C424 1.379 . S
C425 C427 1.369 . S
C425 H436 0.930 . S
C426 C428 1.383 . S
C426 C429 1.382 . S
C426 H437 0.930 . S
C427 C425 1.369 . S
C427 C429 1.392 . S
C427 H438 0.930 . S
C428 C424 1.373 . S
C428 C426 1.383 . S
C428 H439 0.931 . S
C429 C426 1.382 . S
C429 C427 1.392 . S
C430 Eu401 2.828 . S
C430 O414 1.249 . S
C430 O415 1.244 . S
C430 C424 1.505 . S
C431 O418 1.258 . S
C431 O419 1.242 . S
H432 C404 0.930 . S
H433 C405 0.930 . S
H434 C406 0.930 . S
H435 C407 0.931 . S
H436 C425 0.930 . S
H437 C426 0.930 . S
H438 C427 0.930 . S
H439 C428 0.931 . S
Eu440 C449 2.828 . S
Eu440 O451 2.392 . S
Eu440 O453 2.418 . S
Eu440 O458 2.373 . S
Eu440 O461 2.488 . S
Eu440 O462 2.471 . S
Eu440 O463 2.349 . S
Eu441 O450 2.373 . S
Eu441 O454 2.488 . S
Eu441 O455 2.471 . S
Eu441 O456 2.349 . S
Eu441 O459 2.392 . S
Eu441 O460 2.418 . S
Eu441 C470 2.828 . S
C442 O460 1.244 . S
C442 O463 1.265 . S
C443 C444 1.379 . S
C443 C447 1.373 . S
C443 C449 1.505 . S
C444 C443 1.379 . S
C444 C446 1.369 . S
C444 H472 0.930 . S
C445 C447 1.383 . S
C445 C448 1.382 . S
C445 H473 0.930 . S
C446 C444 1.369 . S
C446 C448 1.392 . S
C446 H474 0.930 . S
C447 C443 1.373 . S
C447 C445 1.383 . S
C447 H475 0.931 . S
C448 C445 1.382 . S
C448 C446 1.392 . S
C449 Eu440 2.828 . S
C449 C443 1.505 . S
C449 O461 1.249 . S
C449 O462 1.244 . S
O450 Eu441 2.373 . S
O450 C452 1.258 . S
O451 Eu440 2.392 . S
O451 C452 1.242 . S
C452 O450 1.258 . S
C452 O451 1.242 . S
O453 Eu440 2.418 . S
O453 C457 1.244 . S
O454 Eu441 2.488 . S
O454 C470 1.249 . S
O455 Eu441 2.471 . S
O455 C470 1.244 . S
O456 Eu441 2.349 . S
O456 C457 1.265 . S
C457 O453 1.244 . S
C457 O456 1.265 . S
O458 Eu440 2.373 . S
O458 C471 1.258 . S
O459 Eu441 2.392 . S
O459 C471 1.242 . S
O460 Eu441 2.418 . S
O460 C442 1.244 . S
O461 Eu440 2.488 . S
O461 C449 1.249 . S
O462 Eu440 2.471 . S
O462 C449 1.244 . S
O463 Eu440 2.349 . S
O463 C442 1.265 . S
C464 C465 1.379 . S
C464 C468 1.373 . S
C464 C470 1.505 . S
C465 C464 1.379 . S
C465 C467 1.369 . S
C465 H476 0.930 . S
C466 C468 1.383 . S
C466 C469 1.382 . S
C466 H477 0.930 . S
C467 C465 1.369 . S
C467 C469 1.392 . S
C467 H478 0.930 . S
C468 C464 1.373 . S
C468 C466 1.383 . S
C468 H479 0.931 . S
C469 C466 1.382 . S
C469 C467 1.392 . S
C470 Eu441 2.828 . S
C470 O454 1.249 . S
C470 O455 1.244 . S
C470 C464 1.505 . S
C471 O458 1.258 . S
C471 O459 1.242 . S
H472 C444 0.930 . S
H473 C445 0.930 . S
H474 C446 0.930 . S
H475 C447 0.931 . S
H476 C465 0.930 . S
H477 C466 0.930 . S
H478 C467 0.930 . S
H479 C468 0.931 . S
H480 C486 0.930 . S
H481 C489 0.930 . S
H482 C490 0.930 . S
H483 C491 0.930 . S
H484 C494 0.930 . S
H485 C495 0.930 . S
C486 H480 0.930 . S
C486 C487 1.355 . S
C486 C488 1.415 . S
C487 C486 1.355 . S
C487 C489 1.419 . S
C488 C486 1.415 . S
C488 C493 1.425 . S
C488 C495 1.409 . S
C489 H481 0.930 . S
C489 C487 1.419 . S
C489 C490 1.362 . S
C490 H482 0.930 . S
C490 C489 1.362 . S
C490 C493 1.409 . S
C491 H483 0.930 . S
C491 C492 1.355 . S
C491 C493 1.415 . S
C492 C491 1.355 . S
C492 C494 1.419 . S
C493 C488 1.425 . S
C493 C490 1.409 . S
C493 C491 1.415 . S
C494 H484 0.930 . S
C494 C492 1.419 . S
C494 C495 1.362 . S
C495 H485 0.930 . S
C495 C488 1.409 . S
C495 C494 1.362 . S
H496 C502 0.930 . S
H497 C505 0.930 . S
H498 C506 0.930 . S
H499 C507 0.930 . S
H500 C510 0.930 . S
H501 C511 0.930 . S
C502 H496 0.930 . S
C502 C503 1.355 . S
C502 C504 1.415 . S
C503 C502 1.355 . S
C503 C505 1.419 . S
C504 C502 1.415 . S
C504 C509 1.425 . S
C504 C511 1.409 . S
C505 H497 0.930 . S
C505 C503 1.419 . S
C505 C506 1.362 . S
C506 H498 0.930 . S
C506 C505 1.362 . S
C506 C509 1.409 . S
C507 H499 0.930 . S
C507 C508 1.355 . S
C507 C509 1.415 . S
C508 C507 1.355 . S
C508 C510 1.419 . S
C509 C504 1.425 . S
C509 C506 1.409 . S
C509 C507 1.415 . S
C510 H500 0.930 . S
C510 C508 1.419 . S
C510 C511 1.362 . S
C511 H501 0.930 . S
C511 C504 1.409 . S
C511 C510 1.362 . S
H512 C518 0.930 . S
H513 C521 0.930 . S
H514 C522 0.930 . S
H515 C523 0.930 . S
H516 C526 0.930 . S
H517 C527 0.930 . S
C518 H512 0.930 . S
C518 C519 1.355 . S
C518 C520 1.415 . S
C519 C518 1.355 . S
C519 C521 1.419 . S
C520 C518 1.415 . S
C520 C525 1.425 . S
C520 C527 1.409 . S
C521 H513 0.930 . S
C521 C519 1.419 . S
C521 C522 1.362 . S
C522 H514 0.930 . S
C522 C521 1.362 . S
C522 C525 1.409 . S
C523 H515 0.930 . S
C523 C524 1.355 . S
C523 C525 1.415 . S
C524 C523 1.355 . S
C524 C526 1.419 . S
C525 C520 1.425 . S
C525 C522 1.409 . S
C525 C523 1.415 . S
C526 H516 0.930 . S
C526 C524 1.419 . S
C526 C527 1.362 . S
C527 H517 0.930 . S
C527 C520 1.409 . S
C527 C526 1.362 . S
H528 C534 0.930 . S
H529 C537 0.930 . S
H530 C538 0.930 . S
H531 C539 0.930 . S
H532 C542 0.930 . S
H533 C543 0.930 . S
C534 H528 0.930 . S
C534 C535 1.355 . S
C534 C536 1.415 . S
C535 C534 1.355 . S
C535 C537 1.419 . S
C536 C534 1.415 . S
C536 C541 1.425 . S
C536 C543 1.409 . S
C537 H529 0.930 . S
C537 C535 1.419 . S
C537 C538 1.362 . S
C538 H530 0.930 . S
C538 C537 1.362 . S
C538 C541 1.409 . S
C539 H531 0.930 . S
C539 C540 1.355 . S
C539 C541 1.415 . S
C540 C539 1.355 . S
C540 C542 1.419 . S
C541 C536 1.425 . S
C541 C538 1.409 . S
C541 C539 1.415 . S
C542 H532 0.930 . S
C542 C540 1.419 . S
C542 C543 1.362 . S
C543 H533 0.930 . S
C543 C536 1.409 . S
C543 C542 1.362 . S
H544 C550 0.930 . S
H545 C553 0.930 . S
H546 C554 0.930 . S
H547 C555 0.930 . S
H548 C558 0.930 . S
H549 C559 0.930 . S
C550 H544 0.930 . S
C550 C551 1.355 . S
C550 C552 1.415 . S
C551 C550 1.355 . S
C551 C553 1.419 . S
C552 C550 1.415 . S
C552 C557 1.425 . S
C552 C559 1.409 . S
C553 H545 0.930 . S
C553 C551 1.419 . S
C553 C554 1.362 . S
C554 H546 0.930 . S
C554 C553 1.362 . S
C554 C557 1.409 . S
C555 H547 0.930 . S
C555 C556 1.355 . S
C555 C557 1.415 . S
C556 C555 1.355 . S
C556 C558 1.419 . S
C557 C552 1.425 . S
C557 C554 1.409 . S
C557 C555 1.415 . S
C558 H548 0.930 . S
C558 C556 1.419 . S
C558 C559 1.362 . S
C559 H549 0.930 . S
C559 C552 1.409 . S
C559 C558 1.362 . S
H560 C566 0.930 . S
H561 C569 0.930 . S
H562 C570 0.930 . S
H563 C571 0.930 . S
H564 C574 0.930 . S
H565 C575 0.930 . S
C566 H560 0.930 . S
C566 C567 1.355 . S
C566 C568 1.415 . S
C567 C566 1.355 . S
C567 C569 1.419 . S
C568 C566 1.415 . S
C568 C573 1.425 . S
C568 C575 1.409 . S
C569 H561 0.930 . S
C569 C567 1.419 . S
C569 C570 1.362 . S
C570 H562 0.930 . S
C570 C569 1.362 . S
C570 C573 1.409 . S
C571 H563 0.930 . S
C571 C572 1.355 . S
C571 C573 1.415 . S
C572 C571 1.355 . S
C572 C574 1.419 . S
C573 C568 1.425 . S
C573 C570 1.409 . S
C573 C571 1.415 . S
C574 H564 0.930 . S
C574 C572 1.419 . S
C574 C575 1.362 . S
C575 H565 0.930 . S
C575 C568 1.409 . S
C575 C574 1.362 . S
H576 C582 0.930 . S
H577 C585 0.930 . S
H578 C586 0.930 . S
H579 C587 0.930 . S
H580 C590 0.930 . S
H581 C591 0.930 . S
C582 H576 0.930 . S
C582 C583 1.355 . S
C582 C584 1.415 . S
C583 C582 1.355 . S
C583 C585 1.419 . S
C584 C582 1.415 . S
C584 C589 1.425 . S
C584 C591 1.409 . S
C585 H577 0.930 . S
C585 C583 1.419 . S
C585 C586 1.362 . S
C586 H578 0.930 . S
C586 C585 1.362 . S
C586 C589 1.409 . S
C587 H579 0.930 . S
C587 C588 1.355 . S
C587 C589 1.415 . S
C588 C587 1.355 . S
C588 C590 1.419 . S
C589 C584 1.425 . S
C589 C586 1.409 . S
C589 C587 1.415 . S
C590 H580 0.930 . S
C590 C588 1.419 . S
C590 C591 1.362 . S
C591 H581 0.930 . S
C591 C584 1.409 . S
C591 C590 1.362 . S
H592 C598 0.930 . S
H593 C601 0.930 . S
H594 C602 0.930 . S
H595 C603 0.930 . S
H596 C606 0.930 . S
H597 C607 0.930 . S
C598 H592 0.930 . S
C598 C599 1.355 . S
C598 C600 1.415 . S
C599 C598 1.355 . S
C599 C601 1.419 . S
C600 C598 1.415 . S
C600 C605 1.425 . S
C600 C607 1.409 . S
C601 H593 0.930 . S
C601 C599 1.419 . S
C601 C602 1.362 . S
C602 H594 0.930 . S
C602 C601 1.362 . S
C602 C605 1.409 . S
C603 H595 0.930 . S
C603 C604 1.355 . S
C603 C605 1.415 . S
C604 C603 1.355 . S
C604 C606 1.419 . S
C605 C600 1.425 . S
C605 C602 1.409 . S
C605 C603 1.415 . S
C606 H596 0.930 . S
C606 C604 1.419 . S
C606 C607 1.362 . S
C607 H597 0.930 . S
C607 C600 1.409 . S
C607 C606 1.362 . S
H608 C614 0.930 . S
H609 C617 0.930 . S
H610 C618 0.930 . S
H611 C619 0.930 . S
H612 C622 0.930 . S
H613 C623 0.930 . S
C614 H608 0.930 . S
C614 C615 1.355 . S
C614 C616 1.415 . S
C615 C614 1.355 . S
C615 C617 1.419 . S
C616 C614 1.415 . S
C616 C621 1.425 . S
C616 C623 1.409 . S
C617 H609 0.930 . S
C617 C615 1.419 . S
C617 C618 1.362 . S
C618 H610 0.930 . S
C618 C617 1.362 . S
C618 C621 1.409 . S
C619 H611 0.930 . S
C619 C620 1.355 . S
C619 C621 1.415 . S
C620 C619 1.355 . S
C620 C622 1.419 . S
C621 C616 1.425 . S
C621 C618 1.409 . S
C621 C619 1.415 . S
C622 H612 0.930 . S
C622 C620 1.419 . S
C622 C623 1.362 . S
C623 H613 0.930 . S
C623 C616 1.409 . S
C623 C622 1.362 . S
H624 C630 0.930 . S
H625 C633 0.930 . S
H626 C634 0.930 . S
H627 C635 0.930 . S
H628 C638 0.930 . S
H629 C639 0.930 . S
C630 H624 0.930 . S
C630 C631 1.355 . S
C630 C632 1.415 . S
C631 C630 1.355 . S
C631 C633 1.419 . S
C632 C630 1.415 . S
C632 C637 1.425 . S
C632 C639 1.409 . S
C633 H625 0.930 . S
C633 C631 1.419 . S
C633 C634 1.362 . S
C634 H626 0.930 . S
C634 C633 1.362 . S
C634 C637 1.409 . S
C635 H627 0.930 . S
C635 C636 1.355 . S
C635 C637 1.415 . S
C636 C635 1.355 . S
C636 C638 1.419 . S
C637 C632 1.425 . S
C637 C634 1.409 . S
C637 C635 1.415 . S
C638 H628 0.930 . S
C638 C636 1.419 . S
C638 C639 1.362 . S
C639 H629 0.930 . S
C639 C632 1.409 . S
C639 C638 1.362 . S
H640 C646 0.930 . S
H641 C649 0.930 . S
H642 C650 0.930 . S
H643 C651 0.930 . S
H644 C654 0.930 . S
H645 C655 0.930 . S
C646 H640 0.930 . S
C646 C647 1.355 . S
C646 C648 1.415 . S
C647 C646 1.355 . S
C647 C649 1.419 . S
C648 C646 1.415 . S
C648 C653 1.425 . S
C648 C655 1.409 . S
C649 H641 0.930 . S
C649 C647 1.419 . S
C649 C650 1.362 . S
C650 H642 0.930 . S
C650 C649 1.362 . S
C650 C653 1.409 . S
C651 H643 0.930 . S
C651 C652 1.355 . S
C651 C653 1.415 . S
C652 C651 1.355 . S
C652 C654 1.419 . S
C653 C648 1.425 . S
C653 C650 1.409 . S
C653 C651 1.415 . S
C654 H644 0.930 . S
C654 C652 1.419 . S
C654 C655 1.362 . S
C655 H645 0.930 . S
C655 C648 1.409 . S
C655 C654 1.362 . S
H656 C662 0.930 . S
H657 C665 0.930 . S
H658 C666 0.930 . S
H659 C667 0.930 . S
H660 C670 0.930 . S
H661 C671 0.930 . S
C662 H656 0.930 . S
C662 C663 1.355 . S
C662 C664 1.415 . S
C663 C662 1.355 . S
C663 C665 1.419 . S
C664 C662 1.415 . S
C664 C669 1.425 . S
C664 C671 1.409 . S
C665 H657 0.930 . S
C665 C663 1.419 . S
C665 C666 1.362 . S
C666 H658 0.930 . S
C666 C665 1.362 . S
C666 C669 1.409 . S
C667 H659 0.930 . S
C667 C668 1.355 . S
C667 C669 1.415 . S
C668 C667 1.355 . S
C668 C670 1.419 . S
C669 C664 1.425 . S
C669 C666 1.409 . S
C669 C667 1.415 . S
C670 H660 0.930 . S
C670 C668 1.419 . S
C670 C671 1.362 . S
C671 H661 0.930 . S
C671 C664 1.409 . S
C671 C670 1.362 . S
H672 C678 0.930 . S
H673 C681 0.930 . S
H674 C682 0.930 . S
H675 C683 0.930 . S
H676 C686 0.930 . S
H677 C687 0.930 . S
C678 H672 0.930 . S
C678 C679 1.355 . S
C678 C680 1.415 . S
C679 C678 1.355 . S
C679 C681 1.419 . S
C680 C678 1.415 . S
C680 C685 1.425 . S
C680 C687 1.409 . S
C681 H673 0.930 . S
C681 C679 1.419 . S
C681 C682 1.362 . S
C682 H674 0.930 . S
C682 C681 1.362 . S
C682 C685 1.409 . S
C683 H675 0.930 . S
C683 C684 1.355 . S
C683 C685 1.415 . S
C684 C683 1.355 . S
C684 C686 1.419 . S
C685 C680 1.425 . S
C685 C682 1.409 . S
C685 C683 1.415 . S
C686 H676 0.930 . S
C686 C684 1.419 . S
C686 C687 1.362 . S
C687 H677 0.930 . S
C687 C680 1.409 . S
C687 C686 1.362 . S
H688 C694 0.930 . S
H689 C697 0.930 . S
H690 C698 0.930 . S
H691 C699 0.930 . S
H692 C702 0.930 . S
H693 C703 0.930 . S
C694 H688 0.930 . S
C694 C695 1.355 . S
C694 C696 1.415 . S
C695 C694 1.355 . S
C695 C697 1.419 . S
C696 C694 1.415 . S
C696 C701 1.425 . S
C696 C703 1.409 . S
C697 H689 0.930 . S
C697 C695 1.419 . S
C697 C698 1.362 . S
C698 H690 0.930 . S
C698 C697 1.362 . S
C698 C701 1.409 . S
C699 H691 0.930 . S
C699 C700 1.355 . S
C699 C701 1.415 . S
C700 C699 1.355 . S
C700 C702 1.419 . S
C701 C696 1.425 . S
C701 C698 1.409 . S
C701 C699 1.415 . S
C702 H692 0.930 . S
C702 C700 1.419 . S
C702 C703 1.362 . S
C703 H693 0.930 . S
C703 C696 1.409 . S
C703 C702 1.362 . S
H704 C710 0.930 . S
H705 C713 0.930 . S
H706 C714 0.930 . S
H707 C715 0.930 . S
H708 C718 0.930 . S
H709 C719 0.930 . S
C710 H704 0.930 . S
C710 C711 1.355 . S
C710 C712 1.415 . S
C711 C710 1.355 . S
C711 C713 1.419 . S
C712 C710 1.415 . S
C712 C717 1.425 . S
C712 C719 1.409 . S
C713 H705 0.930 . S
C713 C711 1.419 . S
C713 C714 1.362 . S
C714 H706 0.930 . S
C714 C713 1.362 . S
C714 C717 1.409 . S
C715 H707 0.930 . S
C715 C716 1.355 . S
C715 C717 1.415 . S
C716 C715 1.355 . S
C716 C718 1.419 . S
C717 C712 1.425 . S
C717 C714 1.409 . S
C717 C715 1.415 . S
C718 H708 0.930 . S
C718 C716 1.419 . S
C718 C719 1.362 . S
C719 H709 0.930 . S
C719 C712 1.409 . S
C719 C718 1.362 . S
H720 C726 0.930 . S
H721 C729 0.930 . S
H722 C730 0.930 . S
H723 C731 0.930 . S
H724 C734 0.930 . S
H725 C735 0.930 . S
C726 H720 0.930 . S
C726 C727 1.355 . S
C726 C728 1.415 . S
C727 C726 1.355 . S
C727 C729 1.419 . S
C728 C726 1.415 . S
C728 C733 1.425 . S
C728 C735 1.409 . S
C729 H721 0.930 . S
C729 C727 1.419 . S
C729 C730 1.362 . S
C730 H722 0.930 . S
C730 C729 1.362 . S
C730 C733 1.409 . S
C731 H723 0.930 . S
C731 C732 1.355 . S
C731 C733 1.415 . S
C732 C731 1.355 . S
C732 C734 1.419 . S
C733 C728 1.425 . S
C733 C730 1.409 . S
C733 C731 1.415 . S
C734 H724 0.930 . S
C734 C732 1.419 . S
C734 C735 1.362 . S
C735 H725 0.930 . S
C735 C728 1.409 . S
C735 C734 1.362 . S
H736 C742 0.939 . S
H737 C745 0.930 . S
H738 C746 0.930 . S
H739 C747 0.930 . S
H740 C750 0.930 . S
H741 C751 0.930 . S
C742 H736 0.939 . S
C742 C743 1.355 . S
C742 C744 1.415 . S
C743 C742 1.355 . S
C743 C745 1.419 . S
C744 C742 1.415 . S
C744 C749 1.425 . S
C744 C751 1.409 1_556 S
C745 H737 0.930 . S
C745 C743 1.419 . S
C745 C746 1.362 . S
C746 H738 0.930 . S
C746 C745 1.362 . S
C746 C749 1.409 . S
C747 H739 0.930 . S
C747 C748 1.355 . S
C747 C749 1.415 . S
C748 C747 1.355 . S
C748 C750 1.419 1_556 S
C749 C744 1.425 . S
C749 C746 1.409 . S
C749 C747 1.415 . S
C750 H740 0.930 . S
C750 C748 1.419 1_554 S
C750 C751 1.362 . S
C751 H741 0.930 . S
C751 C744 1.409 1_554 S
C751 C750 1.362 . S
H752 C758 0.930 . S
H753 C761 0.930 . S
H754 C762 0.930 . S
H755 C763 0.930 . S
H756 C766 0.930 . S
H757 C767 0.930 . S
C758 H752 0.930 . S
C758 C759 1.355 . S
C758 C760 1.415 . S
C759 C758 1.355 . S
C759 C761 1.419 . S
C760 C758 1.415 . S
C760 C765 1.425 . S
C760 C767 1.409 . S
C761 H753 0.930 . S
C761 C759 1.419 . S
C761 C762 1.362 . S
C762 H754 0.930 . S
C762 C761 1.362 . S
C762 C765 1.409 . S
C763 H755 0.930 . S
C763 C764 1.355 . S
C763 C765 1.415 . S
C764 C763 1.355 . S
C764 C766 1.419 . S
C765 C760 1.425 . S
C765 C762 1.409 . S
C765 C763 1.415 . S
C766 H756 0.930 . S
C766 C764 1.419 . S
C766 C767 1.362 . S
C767 H757 0.930 . S
C767 C760 1.409 . S
C767 C766 1.362 . S
H768 C774 0.930 . S
H769 C777 0.930 . S
H770 C778 0.930 . S
H771 C779 0.930 . S
H772 C782 0.930 . S
H773 C783 0.930 . S
C774 H768 0.930 . S
C774 C775 1.355 . S
C774 C776 1.415 . S
C775 C774 1.355 . S
C775 C777 1.419 . S
C776 C774 1.415 . S
C776 C781 1.425 . S
C776 C783 1.409 . S
C777 H769 0.930 . S
C777 C775 1.419 . S
C777 C778 1.362 . S
C778 H770 0.930 . S
C778 C777 1.362 . S
C778 C781 1.409 . S
C779 H771 0.930 . S
C779 C780 1.355 . S
C779 C781 1.415 . S
C780 C779 1.355 . S
C780 C782 1.419 . S
C781 C776 1.425 . S
C781 C778 1.409 . S
C781 C779 1.415 . S
C782 H772 0.930 . S
C782 C780 1.419 . S
C782 C783 1.362 . S
C783 H773 0.930 . S
C783 C776 1.409 . S
C783 C782 1.362 . S
H784 C790 0.930 . S
H785 C793 0.930 . S
H786 C794 0.930 . S
H787 C795 0.930 . S
H788 C798 0.930 . S
H789 C799 0.930 . S
C790 H784 0.930 . S
C790 C791 1.355 . S
C790 C792 1.415 . S
C791 C790 1.355 . S
C791 C793 1.419 . S
C792 C790 1.415 . S
C792 C797 1.425 . S
C792 C799 1.409 . S
C793 H785 0.930 . S
C793 C791 1.419 . S
C793 C794 1.362 . S
C794 H786 0.930 . S
C794 C793 1.362 . S
C794 C797 1.409 . S
C795 H787 0.930 . S
C795 C796 1.355 . S
C795 C797 1.415 . S
C796 C795 1.355 . S
C796 C798 1.419 . S
C797 C792 1.425 . S
C797 C794 1.409 . S
C797 C795 1.415 . S
C798 H788 0.930 . S
C798 C796 1.419 . S
C798 C799 1.362 . S
C799 H789 0.930 . S
C799 C792 1.409 . S
C799 C798 1.362 . S
H800 C806 0.930 . S
H801 C809 0.930 . S
H802 C810 0.930 . S
H803 C811 0.930 . S
H804 C814 0.930 . S
H805 C815 0.930 . S
C806 H800 0.930 . S
C806 C807 1.355 . S
C806 C808 1.415 . S
C807 C806 1.355 . S
C807 C809 1.419 . S
C808 C806 1.415 . S
C808 C813 1.425 . S
C808 C815 1.409 . S
C809 H801 0.930 . S
C809 C807 1.419 . S
C809 C810 1.362 . S
C810 H802 0.930 . S
C810 C809 1.362 . S
C810 C813 1.409 . S
C811 H803 0.930 . S
C811 C812 1.355 . S
C811 C813 1.415 . S
C812 C811 1.355 . S
C812 C814 1.419 . S
C813 C808 1.425 . S
C813 C810 1.409 . S
C813 C811 1.415 . S
C814 H804 0.930 . S
C814 C812 1.419 . S
C814 C815 1.362 . S
C815 H805 0.930 . S
C815 C808 1.409 . S
C815 C814 1.362 . S
H816 C822 0.930 . S
H817 C825 0.930 . S
H818 C826 0.930 . S
H819 C827 0.930 . S
H820 C830 0.930 . S
H821 C831 0.930 . S
C822 H816 0.930 . S
C822 C823 1.328 1_556 S
C822 C824 1.415 . S
C823 C822 1.328 1_554 S
C823 C825 1.448 . S
C824 C822 1.415 . S
C824 C829 1.425 1_556 S
C824 C831 1.409 . S
C825 H817 0.930 . S
C825 C823 1.448 . S
C825 C826 1.362 . S
C826 H818 0.930 . S
C826 C825 1.362 . S
C826 C829 1.409 . S
C827 H819 0.930 . S
C827 C828 1.355 1_554 S
C827 C829 1.415 . S
C828 C827 1.355 1_556 S
C828 C830 1.419 . S
C829 C824 1.425 1_554 S
C829 C826 1.409 . S
C829 C827 1.415 . S
C830 H820 0.930 . S
C830 C828 1.419 . S
C830 C831 1.362 . S
C831 H821 0.930 . S
C831 C824 1.409 . S
C831 C830 1.362 . S
H832 C838 0.930 . S
H833 C841 0.930 . S
H834 C842 0.930 . S
H835 C843 0.930 . S
H836 C846 0.930 . S
H837 C847 0.930 . S
C838 H832 0.930 . S
C838 C839 1.355 . S
C838 C840 1.415 . S
C839 C838 1.355 . S
C839 C841 1.419 . S
C840 C838 1.415 . S
C840 C845 1.425 . S
C840 C847 1.409 . S
C841 H833 0.930 . S
C841 C839 1.419 . S
C841 C842 1.362 . S
C842 H834 0.930 . S
C842 C841 1.362 . S
C842 C845 1.409 . S
C843 H835 0.930 . S
C843 C844 1.355 . S
C843 C845 1.415 . S
C844 C843 1.355 . S
C844 C846 1.419 . S
C845 C840 1.425 . S
C845 C842 1.409 . S
C845 C843 1.415 . S
C846 H836 0.930 . S
C846 C844 1.419 . S
C846 C847 1.362 . S
C847 H837 0.930 . S
C847 C840 1.409 . S
C847 C846 1.362 . S
H848 C854 0.930 . S
H849 C857 0.930 . S
H850 C858 0.930 . S
H851 C859 0.930 . S
H852 C862 0.930 . S
H853 C863 0.930 . S
C854 H848 0.930 . S
C854 C855 1.355 . S
C854 C856 1.415 . S
C855 C854 1.355 . S
C855 C857 1.419 . S
C856 C854 1.415 . S
C856 C861 1.425 . S
C856 C863 1.409 . S
C857 H849 0.930 . S
C857 C855 1.419 . S
C857 C858 1.362 . S
C858 H850 0.930 . S
C858 C857 1.362 . S
C858 C861 1.409 . S
C859 H851 0.930 . S
C859 C860 1.355 . S
C859 C861 1.415 . S
C860 C859 1.355 . S
C860 C862 1.419 . S
C861 C856 1.425 . S
C861 C858 1.409 . S
C861 C859 1.415 . S
C862 H852 0.930 . S
C862 C860 1.419 . S
C862 C863 1.362 . S
C863 H853 0.930 . S
C863 C856 1.409 . S
C863 C862 1.362 . S
H864 C870 0.930 . S
H865 C873 0.930 . S
H866 C874 0.930 . S
H867 C875 0.930 . S
H868 C878 0.930 . S
H869 C879 0.930 . S
C870 H864 0.930 . S
C870 C871 1.355 . S
C870 C872 1.415 . S
C871 C870 1.355 . S
C871 C873 1.419 . S
C872 C870 1.415 . S
C872 C877 1.425 . S
C872 C879 1.409 . S
C873 H865 0.930 . S
C873 C871 1.419 . S
C873 C874 1.362 . S
C874 H866 0.930 . S
C874 C873 1.362 . S
C874 C877 1.409 . S
C875 H867 0.930 . S
C875 C876 1.355 . S
C875 C877 1.415 . S
C876 C875 1.355 . S
C876 C878 1.419 . S
C877 C872 1.425 . S
C877 C874 1.409 . S
C877 C875 1.415 . S
C878 H868 0.930 . S
C878 C876 1.419 . S
C878 C879 1.362 . S
C879 H869 0.930 . S
C879 C872 1.409 . S
C879 C878 1.362 . S
H880 C886 0.930 . S
H881 C889 0.930 . S
H882 C890 0.930 . S
H883 C891 0.930 . S
H884 C894 0.930 . S
H885 C895 0.930 . S
C886 H880 0.930 . S
C886 C887 1.355 . S
C886 C888 1.415 . S
C887 C886 1.355 . S
C887 C889 1.419 . S
C888 C886 1.415 . S
C888 C893 1.425 . S
C888 C895 1.409 . S
C889 H881 0.930 . S
C889 C887 1.419 . S
C889 C890 1.362 . S
C890 H882 0.930 . S
C890 C889 1.362 . S
C890 C893 1.409 . S
C891 H883 0.930 . S
C891 C892 1.355 . S
C891 C893 1.415 . S
C892 C891 1.355 . S
C892 C894 1.419 . S
C893 C888 1.425 . S
C893 C890 1.409 . S
C893 C891 1.415 . S
C894 H884 0.930 . S
C894 C892 1.419 . S
C894 C895 1.362 . S
C895 H885 0.930 . S
C895 C888 1.409 . S
C895 C894 1.362 . S
H896 C902 0.930 . S
H897 C905 0.930 . S
H898 C906 0.930 . S
H899 C907 0.930 . S
H900 C910 0.930 . S
H901 C911 0.930 . S
C902 H896 0.930 . S
C902 C903 1.355 . S
C902 C904 1.415 . S
C903 C902 1.355 . S
C903 C905 1.419 . S
C904 C902 1.415 . S
C904 C909 1.425 . S
C904 C911 1.409 . S
C905 H897 0.930 . S
C905 C903 1.419 . S
C905 C906 1.362 . S
C906 H898 0.930 . S
C906 C905 1.362 . S
C906 C909 1.409 . S
C907 H899 0.930 . S
C907 C908 1.355 . S
C907 C909 1.415 . S
C908 C907 1.355 . S
C908 C910 1.419 . S
C909 C904 1.425 . S
C909 C906 1.409 . S
C909 C907 1.415 . S
C910 H900 0.930 . S
C910 C908 1.419 . S
C910 C911 1.362 . S
C911 H901 0.930 . S
C911 C904 1.409 . S
C911 C910 1.362 . S
H912 C918 0.930 . S
H913 C921 0.930 . S
H914 C922 0.930 . S
H915 C923 0.930 . S
H916 C926 0.930 . S
H917 C927 0.930 . S
C918 H912 0.930 . S
C918 C919 1.355 . S
C918 C920 1.415 . S
C919 C918 1.355 . S
C919 C921 1.419 . S
C920 C918 1.415 . S
C920 C925 1.425 . S
C920 C927 1.409 . S
C921 H913 0.930 . S
C921 C919 1.419 . S
C921 C922 1.362 . S
C922 H914 0.930 . S
C922 C921 1.362 . S
C922 C925 1.409 . S
C923 H915 0.930 . S
C923 C924 1.355 . S
C923 C925 1.415 . S
C924 C923 1.355 . S
C924 C926 1.419 . S
C925 C920 1.425 . S
C925 C922 1.409 . S
C925 C923 1.415 . S
C926 H916 0.930 . S
C926 C924 1.419 . S
C926 C927 1.362 . S
C927 H917 0.930 . S
C927 C920 1.409 . S
C927 C926 1.362 . S
H928 C934 0.930 . S
H929 C937 0.930 . S
H930 C938 0.930 . S
H931 C939 0.930 . S
H932 C942 0.930 . S
H933 C943 0.930 . S
C934 H928 0.930 . S
C934 C935 1.355 . S
C934 C936 1.415 . S
C935 C934 1.355 . S
C935 C937 1.419 . S
C936 C934 1.415 . S
C936 C941 1.425 . S
C936 C943 1.409 . S
C937 H929 0.930 . S
C937 C935 1.419 . S
C937 C938 1.362 . S
C938 H930 0.930 . S
C938 C937 1.362 . S
C938 C941 1.409 . S
C939 H931 0.930 . S
C939 C940 1.355 . S
C939 C941 1.415 . S
C940 C939 1.355 . S
C940 C942 1.419 . S
C941 C936 1.425 . S
C941 C938 1.409 . S
C941 C939 1.415 . S
C942 H932 0.930 . S
C942 C940 1.419 . S
C942 C943 1.362 . S
C943 H933 0.930 . S
C943 C936 1.409 . S
C943 C942 1.362 . S
H944 C950 0.930 . S
H945 C953 0.930 . S
H946 C954 0.930 . S
H947 C955 0.930 . S
H948 C958 0.930 . S
H949 C959 0.930 . S
C950 H944 0.930 . S
C950 C951 1.355 . S
C950 C952 1.415 . S
C951 C950 1.355 . S
C951 C953 1.419 . S
C952 C950 1.415 . S
C952 C957 1.425 . S
C952 C959 1.409 . S
C953 H945 0.930 . S
C953 C951 1.419 . S
C953 C954 1.362 . S
C954 H946 0.930 . S
C954 C953 1.362 . S
C954 C957 1.409 . S
C955 H947 0.930 . S
C955 C956 1.355 . S
C955 C957 1.415 . S
C956 C955 1.355 . S
C956 C958 1.419 . S
C957 C952 1.425 . S
C957 C954 1.409 . S
C957 C955 1.415 . S
C958 H948 0.930 . S
C958 C956 1.419 . S
C958 C959 1.362 . S
C959 H949 0.930 . S
C959 C952 1.409 . S
C959 C958 1.362 . S
H960 C966 0.930 . S
H961 C969 0.930 . S
H962 C970 0.930 . S
H963 C971 0.930 . S
H964 C974 0.930 . S
H965 C975 0.930 . S
C966 H960 0.930 . S
C966 C967 1.355 . S
C966 C968 1.415 . S
C967 C966 1.355 . S
C967 C969 1.419 . S
C968 C966 1.415 . S
C968 C973 1.425 . S
C968 C975 1.409 . S
C969 H961 0.930 . S
C969 C967 1.419 . S
C969 C970 1.362 . S
C970 H962 0.930 . S
C970 C969 1.362 . S
C970 C973 1.409 . S
C971 H963 0.930 . S
C971 C972 1.355 . S
C971 C973 1.415 . S
C972 C971 1.355 . S
C972 C974 1.419 . S
C973 C968 1.425 . S
C973 C970 1.409 . S
C973 C971 1.415 . S
C974 H964 0.930 . S
C974 C972 1.419 . S
C974 C975 1.362 . S
C975 H965 0.930 . S
C975 C968 1.409 . S
C975 C974 1.362 . S
H976 C982 0.930 . S
H977 C985 0.930 . S
H978 C986 0.930 . S
H979 C987 0.930 . S
H980 C990 0.930 . S
H981 C991 0.930 . S
C982 H976 0.930 . S
C982 C983 1.355 . S
C982 C984 1.415 . S
C983 C982 1.355 . S
C983 C985 1.419 . S
C984 C982 1.415 . S
C984 C989 1.425 . S
C984 C991 1.409 . S
C985 H977 0.930 . S
C985 C983 1.419 . S
C985 C986 1.362 . S
C986 H978 0.930 . S
C986 C985 1.362 . S
C986 C989 1.409 . S
C987 H979 0.930 . S
C987 C988 1.355 . S
C987 C989 1.415 . S
C988 C987 1.355 . S
C988 C990 1.419 . S
C989 C984 1.425 . S
C989 C986 1.409 . S
C989 C987 1.415 . S
C990 H980 0.930 . S
C990 C988 1.419 . S
C990 C991 1.362 . S
C991 H981 0.930 . S
C991 C984 1.409 . S
C991 C990 1.362 . S
H992 C998 0.930 . S
H993 C1001 0.930 . S
H994 C1002 0.930 . S
H995 C1003 0.930 . S
H996 C1006 0.930 . S
H997 C1007 0.930 . S
C998 H992 0.930 . S
C998 C999 1.355 . S
C998 C1000 1.415 . S
C999 C998 1.355 . S
C999 C1001 1.419 . S
C1000 C998 1.415 . S
C1000 C1005 1.425 . S
C1000 C1007 1.409 . S
C1001 H993 0.930 . S
C1001 C999 1.419 . S
C1001 C1002 1.362 . S
C1002 H994 0.930 . S
C1002 C1001 1.362 . S
C1002 C1005 1.409 . S
C1003 H995 0.930 . S
C1003 C1004 1.355 . S
C1003 C1005 1.415 . S
C1004 C1003 1.355 . S
C1004 C1006 1.419 . S
C1005 C1000 1.425 . S
C1005 C1002 1.409 . S
C1005 C1003 1.415 . S
C1006 H996 0.930 . S
C1006 C1004 1.419 . S
C1006 C1007 1.362 . S
C1007 H997 0.930 . S
C1007 C1000 1.409 . S
C1007 C1006 1.362 . S
H1008 C1014 0.930 . S
H1009 C1017 0.930 . S
H1010 C1018 0.930 . S
H1011 C1019 0.930 . S
H1012 C1022 0.930 . S
H1013 C1023 0.930 . S
C1014 H1008 0.930 . S
C1014 C1015 1.355 . S
C1014 C1016 1.415 . S
C1015 C1014 1.355 . S
C1015 C1017 1.419 . S
C1016 C1014 1.415 . S
C1016 C1021 1.425 . S
C1016 C1023 1.409 . S
C1017 H1009 0.930 . S
C1017 C1015 1.419 . S
C1017 C1018 1.362 . S
C1018 H1010 0.930 . S
C1018 C1017 1.362 . S
C1018 C1021 1.409 . S
C1019 H1011 0.930 . S
C1019 C1020 1.355 . S
C1019 C1021 1.415 . S
C1020 C1019 1.355 . S
C1020 C1022 1.419 . S
C1021 C1016 1.425 . S
C1021 C1018 1.409 . S
C1021 C1019 1.415 . S
C1022 H1012 0.930 . S
C1022 C1020 1.419 . S
C1022 C1023 1.362 . S
C1023 H1013 0.930 . S
C1023 C1016 1.409 . S
C1023 C1022 1.362 . S
H1024 C1030 0.930 . S
H1025 C1033 0.930 . S
H1026 C1034 0.930 . S
H1027 C1035 0.930 . S
H1028 C1038 0.930 . S
H1029 C1039 0.930 . S
C1030 H1024 0.930 . S
C1030 C1031 1.355 . S
C1030 C1032 1.415 . S
C1031 C1030 1.355 . S
C1031 C1033 1.419 . S
C1032 C1030 1.415 . S
C1032 C1037 1.425 . S
C1032 C1039 1.409 . S
C1033 H1025 0.930 . S
C1033 C1031 1.419 . S
C1033 C1034 1.362 . S
C1034 H1026 0.930 . S
C1034 C1033 1.362 . S
C1034 C1037 1.409 . S
C1035 H1027 0.930 . S
C1035 C1036 1.355 . S
C1035 C1037 1.415 . S
C1036 C1035 1.355 . S
C1036 C1038 1.419 . S
C1037 C1032 1.425 . S
C1037 C1034 1.409 . S
C1037 C1035 1.415 . S
C1038 H1028 0.930 . S
C1038 C1036 1.419 . S
C1038 C1039 1.362 . S
C1039 H1029 0.930 . S
C1039 C1032 1.409 . S
C1039 C1038 1.362 . S
H1040 C1046 0.930 . S
H1041 C1049 0.930 . S
H1042 C1050 0.930 . S
H1043 C1051 0.930 . S
H1044 C1054 0.930 . S
H1045 C1055 0.930 . S
C1046 H1040 0.930 . S
C1046 C1047 1.355 . S
C1046 C1048 1.415 . S
C1047 C1046 1.355 . S
C1047 C1049 1.419 . S
C1048 C1046 1.415 . S
C1048 C1053 1.425 . S
C1048 C1055 1.409 . S
C1049 H1041 0.930 . S
C1049 C1047 1.419 . S
C1049 C1050 1.362 . S
C1050 H1042 0.930 . S
C1050 C1049 1.362 . S
C1050 C1053 1.409 . S
C1051 H1043 0.930 . S
C1051 C1052 1.355 . S
C1051 C1053 1.415 . S
C1052 C1051 1.355 . S
C1052 C1054 1.419 . S
C1053 C1048 1.425 . S
C1053 C1050 1.409 . S
C1053 C1051 1.415 . S
C1054 H1044 0.930 . S
C1054 C1052 1.419 . S
C1054 C1055 1.362 . S
C1055 H1045 0.930 . S
C1055 C1048 1.409 . S
C1055 C1054 1.362 . S
C487 C231 1.906 . S
C492 C29 1.905 . S
C503 C69 2.108 . S
C508 C31 2.110 . S
C519 C109 2.022 . S
C524 C71 2.031 . S
C535 C111 1.864 . S
C540 C149 1.861 . S
C551 C151 2.125 . S
C556 C189 2.121 . S
C567 C229 2.070 . S
C572 C191 2.079 . S
C583 C311 1.897 . S
C588 C269 1.894 . S
C599 C309 2.038 . S
C604 C351 2.049 . S
C615 C391 2.122 . S
C620 C349 2.119 . S
C631 C431 1.861 . S
C636 C389 1.860 . S
C647 C471 2.030 . S
C652 C429 2.023 . S
C663 C271 2.111 . S
C668 C469 2.107 . S
C679 C442 3.457 . S
C684 C12 3.471 . S
C695 C52 2.687 . S
C700 C242 2.679 . S
C711 C282 3.025 . S
C716 C92 3.040 . S
C727 C322 3.458 . S
C732 C132 3.493 . S
C743 C362 2.681 . S
C748 C172 2.663 1_556 S
C759 C212 3.070 . S
C764 C402 3.053 . S
C775 C252 3.490 . S
C780 C42 3.460 . S
C791 C292 3.058 . S
C796 C82 3.049 . S
C807 C122 2.676 . S
C812 C332 2.658 . S
C823 C162 3.443 . S
C828 C372 3.462 . S
C839 C412 3.059 . S
C844 C202 3.008 . S
C855 C452 2.661 . S
C860 C2 2.675 . S
C871 C257 3.182 . S
C876 C17 3.183 . S
C887 C57 2.155 . S
C892 C297 2.172 . S
C903 C337 2.111 . S
C908 C97 2.132 . S
C919 C137 3.195 . S
C924 C377 3.199 . S
C935 C417 2.152 . S
C940 C177 2.136 . S
C951 C457 2.109 . S
C956 C217 2.129 . S
C967 C248 1.085 . S
C972 C8 1.084 . S
C983 C288 0.609 . S
C988 C48 0.655 . S
C999 C328 0.655 . S
C1004 C88 0.606 . S
C1015 C128 1.076 . S
C1020 C368 1.059 . S
C1031 C408 0.792 . S
C1036 C168 0.822 . S
C1047 C448 0.817 . S
C1052 C208 0.782 . S
