# Generated by pormake.
# Topology yfh, (5)-cn, num edge types: 1
# Building blocks:
#     Node 0, Type 0, BuildingBlock: BEQFEK_clean_sbu_0, # of connection points: 5
#     Node 1, Type 0, BuildingBlock: BEQFEK_clean_sbu_0, # of connection points: 5
#     Node 2, Type 0, BuildingBlock: BEQFEK_clean_sbu_0, # of connection points: 5
#     Node 3, Type 0, BuildingBlock: BEQFEK_clean_sbu_0, # of connection points: 5
#     Node 4, Type 0, BuildingBlock: BEQFEK_clean_sbu_0, # of connection points: 5
#     Node 5, Type 0, BuildingBlock: BEQFEK_clean_sbu_0, # of connection points: 5
#     Node 6, Type 0, BuildingBlock: BEQFEK_clean_sbu_0, # of connection points: 5
#     Node 7, Type 0, BuildingBlock: BEQFEK_clean_sbu_0, # of connection points: 5
#     Edge 8, Type (0, 0), BuildingBlock: MIFKUJ_clean_linker_0, # of connection points: 2
#     Edge 9, Type (0, 0), BuildingBlock: MIFKUJ_clean_linker_0, # of connection points: 2
#     Edge 10, Type (0, 0), BuildingBlock: MIFKUJ_clean_linker_0, # of connection points: 2
#     Edge 11, Type (0, 0), BuildingBlock: MIFKUJ_clean_linker_0, # of connection points: 2
#     Edge 12, Type (0, 0), BuildingBlock: MIFKUJ_clean_linker_0, # of connection points: 2
#     Edge 13, Type (0, 0), BuildingBlock: MIFKUJ_clean_linker_0, # of connection points: 2
#     Edge 14, Type (0, 0), BuildingBlock: MIFKUJ_clean_linker_0, # of connection points: 2
#     Edge 15, Type (0, 0), BuildingBlock: MIFKUJ_clean_linker_0, # of connection points: 2
#     Edge 16, Type (0, 0), BuildingBlock: MIFKUJ_clean_linker_0, # of connection points: 2
#     Edge 17, Type (0, 0), BuildingBlock: MIFKUJ_clean_linker_0, # of connection points: 2
#     Edge 18, Type (0, 0), BuildingBlock: MIFKUJ_clean_linker_0, # of connection points: 2
#     Edge 19, Type (0, 0), BuildingBlock: MIFKUJ_clean_linker_0, # of connection points: 2
#     Edge 20, Type (0, 0), BuildingBlock: MIFKUJ_clean_linker_0, # of connection points: 2
#     Edge 21, Type (0, 0), BuildingBlock: MIFKUJ_clean_linker_0, # of connection points: 2
#     Edge 22, Type (0, 0), BuildingBlock: MIFKUJ_clean_linker_0, # of connection points: 2
#     Edge 23, Type (0, 0), BuildingBlock: MIFKUJ_clean_linker_0, # of connection points: 2
#     Edge 24, Type (0, 0), BuildingBlock: MIFKUJ_clean_linker_0, # of connection points: 2
#     Edge 25, Type (0, 0), BuildingBlock: MIFKUJ_clean_linker_0, # of connection points: 2
#     Edge 26, Type (0, 0), BuildingBlock: MIFKUJ_clean_linker_0, # of connection points: 2
#     Edge 27, Type (0, 0), BuildingBlock: MIFKUJ_clean_linker_0, # of connection points: 2
# Relax obj value: 0.461
# Max RMSD: 0.265
# Mean RMSD: 0.265
data_MOF--net-yfh--node1-BEQFEK_clean_sbu_0--edge1-MIFKUJ_clean_linker_0
_symmetry_space_group_name_H-M    P1
_symmetry_Int_Tables_number       1
_symmetry_cell_setting            triclinic
loop_
_symmetry_equiv_pos_as_xyz
'x, y, z'
_cell_length_a     37.364922
_cell_length_b     37.397611
_cell_length_c     71.449284
_cell_angle_alpha  90.153977
_cell_angle_beta   90.015882
_cell_angle_gamma 89.914486
loop_
_atom_site_label
_atom_site_type_symbol
_atom_site_fract_x
_atom_site_fract_y
_atom_site_fract_z
_atom_type_partial_charge
Co0 Co 0.27253 0.09089 0.08521 0.0
Co1 Co 0.33239 0.09623 0.1155 0.0
C2 C 0.26965 0.1465 0.11465 0.0
O3 O 0.25666 0.13176 0.10015 0.0
O4 O 0.29865 0.13542 0.12196 0.0
C5 C 0.20244 0.08807 0.06825 0.0
O6 O 0.19143 0.10515 0.08327 0.0
C7 C 0.35833 0.08644 0.15333 0.0
C8 C 0.4171 0.08765 0.1499 0.0
C9 C 0.39024 0.08257 0.16298 0.0
N10 N 0.3659 0.0928 0.13531 0.0
N11 N 0.40106 0.09411 0.13336 0.0
C12 C 0.32109 0.08426 0.16102 0.0
H13 H 0.3035 0.10384 0.1539 0.0
H14 H 0.30998 0.05726 0.15834 0.0
H15 H 0.32086 0.08943 0.17633 0.0
C16 C 0.27201 0.01661 0.0973 0.0
N17 N 0.28193 0.05069 0.10012 0.0
N18 N 0.30875 0.05172 0.11205 0.0
C19 C 0.31756 0.01791 0.11677 0.0
C20 C 0.29425 0.99467 0.10772 0.0
C21 C 0.2467 0.00529 0.08212 0.0
H22 H 0.25746 0.01387 0.06839 0.0
H23 H 0.22049 0.01862 0.08428 0.0
H24 H 0.24257 0.97598 0.08171 0.0
O25 O 0.31624 0.10228 0.07089 0.0
O26 O 0.35889 0.10692 0.0924 0.0
H27 H 0.37375 0.02316 0.12225 0.0
H28 H 0.35616 0.97885 0.12674 0.0
C29 C 0.35045 0.00791 0.12757 0.0
H30 H 0.34662 0.0149 0.14249 0.0
H31 H 0.41409 0.09833 0.12064 0.0
O32 O 0.23526 0.07982 0.0666 0.0
C33 C 0.34877 0.10766 0.07539 0.0
Co34 Co 0.42158 0.80546 0.33594 0.0
Co35 Co 0.42173 0.86023 0.36888 0.0
C36 C 0.36637 0.80207 0.36519 0.0
O37 O 0.38134 0.78873 0.35085 0.0
O38 O 0.37833 0.83023 0.373 0.0
C39 C 0.42465 0.7375 0.31757 0.0
O40 O 0.41769 0.72494 0.33433 0.0
C41 C 0.4231 0.87688 0.40825 0.0
C42 C 0.43431 0.93485 0.40897 0.0
C43 C 0.42747 0.90562 0.42034 0.0
N44 N 0.42675 0.88864 0.39066 0.0
N45 N 0.43322 0.92335 0.39109 0.0
C46 C 0.41846 0.83823 0.4131 0.0
H47 H 0.42747 0.82098 0.40134 0.0
H48 H 0.43381 0.83142 0.42591 0.0
H49 H 0.3897 0.83281 0.41568 0.0
C50 C 0.49563 0.79483 0.34842 0.0
N51 N 0.46298 0.80923 0.35065 0.0
N52 N 0.46362 0.83221 0.36464 0.0
C53 C 0.49709 0.8333 0.37171 0.0
C54 C 0.51828 0.80931 0.36178 0.0
C55 C 0.50593 0.77142 0.33222 0.0
H56 H 0.49483 0.78258 0.31908 0.0
H57 H 0.49452 0.74437 0.33432 0.0
H58 H 0.53534 0.76901 0.33068 0.0
O59 O 0.41059 0.85211 0.32447 0.0
O60 O 0.41449 0.89234 0.34736 0.0
H61 H 0.50187 0.886 0.38314 0.0
H62 H 0.538 0.85605 0.38965 0.0
C63 C 0.50883 0.85812 0.38697 0.0
H64 H 0.49428 0.85148 0.40002 0.0
H65 H 0.4371 0.93907 0.37923 0.0
O66 O 0.42808 0.771 0.31533 0.0
C67 C 0.40954 0.88435 0.33024 0.0
Co68 Co 0.67823 0.90771 0.58724 0.0
Co69 Co 0.6277 0.92614 0.62062 0.0
C70 C 0.68199 0.86838 0.62364 0.0
O71 O 0.69342 0.87509 0.60726 0.0
O72 O 0.6557 0.88539 0.63067 0.0
C73 C 0.74634 0.90391 0.56861 0.0
O74 O 0.7599 0.91161 0.5851 0.0
C75 C 0.60514 0.94772 0.65812 0.0
C76 C 0.55354 0.97453 0.65232 0.0
C77 C 0.57733 0.96631 0.66654 0.0
N78 N 0.59806 0.94508 0.63975 0.0
N79 N 0.56693 0.96061 0.63641 0.0
C80 C 0.6399 0.93658 0.66681 0.0
H81 H 0.66126 0.93495 0.65607 0.0
H82 H 0.64809 0.95571 0.67792 0.0
H83 H 0.63663 0.9098 0.67322 0.0
C84 C 0.69328 0.98518 0.58976 0.0
N85 N 0.67707 0.95528 0.59583 0.0
N86 N 0.65767 0.96283 0.61069 0.0
C87 C 0.66189 -0.00224 0.61493 0.0
C88 C 0.68453 0.01305 0.60174 0.0
C89 C 0.71421 0.98772 0.57195 0.0
H90 H 0.70334 0.96892 0.56137 0.0
H91 H 0.74256 0.98073 0.57475 0.0
H92 H 0.71327 0.01526 0.56622 0.0
O93 O 0.63087 0.8939 0.57764 0.0
O94 O 0.59467 0.90862 0.60102 0.0
H95 H 0.61681 0.0183 0.62995 0.0
H96 H 0.65801 0.04212 0.63453 0.0
C97 C 0.64614 0.01547 0.63185 0.0
H98 H 0.65104 -0.00137 0.64428 0.0
H99 H 0.55547 0.96285 0.62313 0.0
O100 O 0.71262 0.90169 0.56666 0.0
C101 C 0.59964 0.89619 0.58464 0.0
Co102 Co 0.59881 0.21005 0.86159 0.0
Co103 Co 0.60519 0.13865 0.88401 0.0
C104 C 0.65555 0.20025 0.89002 0.0
O105 O 0.63919 0.21972 0.87823 0.0
O106 O 0.64609 0.16812 0.89314 0.0
C107 C 0.59922 0.28419 0.8498 0.0
O108 O 0.61457 0.29064 0.86601 0.0
C109 C 0.5987 0.09946 0.91838 0.0
C110 C 0.58751 0.04441 0.90884 0.0
C111 C 0.58937 0.06575 0.92473 0.0
N112 N 0.6019 0.09815 0.89973 0.0
N113 N 0.59627 0.06496 0.89409 0.0
C114 C 0.59872 0.13367 0.92932 0.0
H115 H 0.59678 0.15709 0.91989 0.0
H116 H 0.57616 0.13417 0.93937 0.0
H117 H 0.62397 0.13552 0.93744 0.0
C118 C 0.5256 0.20771 0.87574 0.0
N119 N 0.55925 0.19519 0.87549 0.0
N120 N 0.56072 0.16435 0.8843 0.0
C121 C 0.52738 0.15582 0.89004 0.0
C122 C 0.50426 0.18323 0.88497 0.0
C123 C 0.51353 0.23969 0.86485 0.0
H124 H 0.51752 0.23447 0.8497 0.0
H125 H 0.53019 0.26307 0.86875 0.0
H126 H 0.48495 0.24609 0.86738 0.0
O127 O 0.61083 0.17275 0.84302 0.0
O128 O 0.61455 0.12154 0.85845 0.0
H129 H 0.52941 0.09856 0.89046 0.0
H130 H 0.48764 0.11725 0.89891 0.0
C131 C 0.51711 0.12075 0.89853 0.0
H132 H 0.52724 0.11957 0.91308 0.0
H133 H 0.59586 0.05694 0.88008 0.0
O134 O 0.58869 0.25268 0.84612 0.0
C135 C 0.61585 0.1391 0.84326 0.0
Co136 Co 0.81881 0.41494 0.66474 0.0
Co137 Co 0.86373 0.42728 0.62854 0.0
C138 C 0.81511 0.36432 0.63269 0.0
O139 O 0.80432 0.37469 0.64867 0.0
O140 O 0.83869 0.38162 0.62367 0.0
C141 C 0.75374 0.40876 0.68527 0.0
O142 O 0.74 0.40244 0.66867 0.0
C143 C 0.87147 0.43895 0.58882 0.0
C144 C 0.92633 0.46037 0.58621 0.0
C145 C 0.89602 0.45174 0.576 0.0
N146 N 0.88637 0.44029 0.60587 0.0
N147 N 0.91932 0.45273 0.60426 0.0
C148 C 0.83488 0.4242 0.58509 0.0
H149 H 0.83624 0.39458 0.58564 0.0
H150 H 0.81605 0.4331 0.59618 0.0
H151 H 0.8246 0.43192 0.57112 0.0
C152 C 0.79688 0.48912 0.65702 0.0
N153 N 0.81405 0.45886 0.65218 0.0
N154 N 0.83183 0.46407 0.63654 0.0
C155 C 0.826 0.49789 0.63072 0.0
C156 C 0.80357 0.51479 0.64353 0.0
C157 C 0.77831 0.49468 0.67539 0.0
H158 H 0.79343 0.48125 0.68672 0.0
H159 H 0.75111 0.48291 0.67464 0.0
H160 H 0.77584 0.52346 0.67895 0.0
O161 O 0.86886 0.40924 0.67324 0.0
O162 O 0.90112 0.42063 0.64778 0.0
H163 H 0.87138 0.51276 0.61422 0.0
H164 H 0.83275 0.54143 0.61093 0.0
C165 C 0.84175 0.51358 0.61332 0.0
H166 H 0.83343 0.49738 0.60109 0.0
H167 H 0.93676 0.45654 0.61551 0.0
O168 O 0.78715 0.41443 0.68681 0.0
C169 C 0.89899 0.41305 0.66511 0.0
Co170 Co 0.09254 0.29309 0.89485 0.0
Co171 Co 0.10077 0.35828 0.8681 0.0
C172 C 0.15351 0.29827 0.86832 0.0
O173 O 0.13592 0.2824 0.88098 0.0
O174 O 0.14399 0.32873 0.86216 0.0
C175 C 0.09005 0.21927 0.9049 0.0
O176 O 0.10357 0.21425 0.88813 0.0
C177 C 0.10276 0.39227 0.83181 0.0
C178 C 0.08994 0.44866 0.83827 0.0
C179 C 0.09731 0.4254 0.82362 0.0
N180 N 0.099 0.39583 0.85037 0.0
N181 N 0.09188 0.42967 0.85423 0.0
C182 C 0.10719 0.35691 0.8222 0.0
H183 H 0.13554 0.35363 0.81791 0.0
H184 H 0.10006 0.33472 0.83177 0.0
H185 H 0.0902 0.35554 0.80947 0.0
C186 C 0.02229 0.28916 0.87743 0.0
N187 N 0.05539 0.30282 0.87819 0.0
N188 N 0.05766 0.33072 0.86707 0.0
C189 C 0.0254 0.33601 0.859 0.0
C190 C 0.00215 0.30951 0.86514 0.0
C191 C 0.00895 0.26123 0.89073 0.0
H192 H 0.01659 0.26865 0.90523 0.0
H193 H 0.02181 0.23527 0.88733 0.0
H194 H 0.97953 0.25791 0.89018 0.0
O195 O 0.09837 0.33392 0.91208 0.0
O196 O 0.10451 0.38052 0.89319 0.0
H197 H 0.02376 0.39258 0.8546 0.0
H198 H 0.98712 0.36839 0.84378 0.0
C199 C 0.01608 0.36765 0.84718 0.0
H200 H 0.03142 0.36631 0.83393 0.0
H201 H 0.08717 0.43955 0.86769 0.0
O202 O 0.08235 0.25078 0.91026 0.0
C203 C 0.10248 0.36735 0.90957 0.0
Co204 Co 0.22597 0.60319 0.13567 0.0
Co205 Co 0.15383 0.6042 0.11346 0.0
C206 C 0.21877 0.646 0.10135 0.0
O207 O 0.23804 0.63369 0.11447 0.0
O208 O 0.18586 0.63773 0.09982 0.0
C209 C 0.29578 0.61596 0.15087 0.0
O210 O 0.29641 0.6423 0.13876 0.0
C211 C 0.11478 0.5881 0.07987 0.0
C212 C 0.05852 0.58439 0.08915 0.0
C213 C 0.08059 0.58053 0.07369 0.0
N214 N 0.11319 0.59648 0.09808 0.0
N215 N 0.07943 0.59485 0.10355 0.0
C216 C 0.14902 0.58324 0.06928 0.0
H217 H 0.17176 0.57931 0.07905 0.0
H218 H 0.14714 0.56004 0.05961 0.0
H219 H 0.15411 0.60754 0.06081 0.0
C220 C 0.21616 0.52614 0.13216 0.0
N221 N 0.20708 0.55966 0.12749 0.0
N222 N 0.17593 0.5595 0.11893 0.0
C223 C 0.16366 0.52561 0.1183 0.0
C224 C 0.18873 0.50342 0.12677 0.0
C225 C 0.24995 0.51656 0.14226 0.0
H226 H 0.27253 0.53248 0.13664 0.0
H227 H 0.25631 0.48771 0.14072 0.0
H228 H 0.2469 0.52307 0.15734 0.0
O229 O 0.19037 0.62618 0.15243 0.0
O230 O 0.1386 0.62595 0.13714 0.0
H231 H 0.11946 0.48808 0.1166 0.0
H232 H 0.12435 0.51795 0.09694 0.0
C233 C 0.12653 0.51569 0.11238 0.0
H234 H 0.1071 0.53447 0.11879 0.0
H235 H 0.0709 0.59929 0.11728 0.0
O236 O 0.26878 0.5954 0.15136 0.0
C237 C 0.15697 0.63303 0.15169 0.0
Co238 Co 0.90366 0.6834 0.39179 0.0
Co239 Co 0.91795 0.62573 0.36117 0.0
C240 C 0.86455 0.68483 0.35588 0.0
O241 O 0.87323 0.69953 0.37126 0.0
O242 O 0.87799 0.65514 0.35068 0.0
C243 C 0.90176 0.75278 0.4098 0.0
O244 O 0.90587 0.76604 0.39293 0.0
C245 C 0.94002 0.60299 0.32424 0.0
C246 C 0.9615 0.54877 0.32931 0.0
C247 C 0.95755 0.57472 0.31565 0.0
N248 N 0.93404 0.59425 0.34215 0.0
N249 N 0.9461 0.56148 0.34502 0.0
C250 C 0.93418 0.6398 0.31654 0.0
H251 H 0.90888 0.64013 0.30841 0.0
H252 H 0.93214 0.6597 0.32802 0.0
H253 H 0.95635 0.64752 0.30705 0.0
C254 C 0.9818 0.69203 0.38915 0.0
N255 N 0.95087 0.67716 0.38353 0.0
N256 N 0.9572 0.65423 0.36992 0.0
C257 C 0.99266 0.65428 0.36623 0.0
C258 C 0.00929 0.67829 0.37831 0.0
C259 C 0.98528 0.7166 0.40564 0.0
H260 H 0.96714 0.70789 0.41701 0.0
H261 H 0.97771 0.74407 0.40136 0.0
H262 H 0.01309 0.71705 0.41108 0.0
O263 O 0.88545 0.63852 0.40241 0.0
O264 O 0.90006 0.59601 0.38202 0.0
H265 H 0.00551 0.60389 0.35361 0.0
H266 H 0.03918 0.63785 0.35 0.0
C267 C 0.01007 0.63274 0.35104 0.0
H268 H -0.00207 0.63984 0.33744 0.0
H269 H 0.94577 0.54867 0.358 0.0
O270 O 0.90069 0.71911 0.412 0.0
C271 C 0.88659 0.60579 0.39757 0.0
H272 H 0.21011 0.04016 0.03979 0.0
H273 H 0.17839 0.04062 0.00987 0.0
H274 H 0.10996 0.12532 0.03013 0.0
H275 H 0.14084 0.12422 0.06027 0.0
H276 H 0.07517 0.08302 0.00451 0.0
H277 H 0.1897 0.14492 0.01025 0.0
H278 H 0.2544 0.14726 0.01706 0.0
H279 H 0.2743 0.0688 0.97431 0.0
H280 H 0.20959 0.06564 0.96744 0.0
H281 H 0.05674 0.21911 0.93876 0.0
H282 H 0.06427 0.17555 0.96366 0.0
H283 H 0.12723 0.10883 0.92683 0.0
H284 H 0.12048 0.15295 0.90186 0.0
H285 H 0.16291 0.12439 0.95717 0.0
H286 H 0.04719 0.07823 0.94582 0.0
H287 H 0.98247 0.08026 0.93923 0.0
H288 H 0.96377 0.13228 0.99197 0.0
H289 H 0.02843 0.1311 -0.00122 0.0
C290 C 0.18763 0.05817 0.03803 0.0
C291 C 0.17843 0.08278 0.05214 0.0
C292 C 0.16947 0.0583 0.02097 0.0
C293 C 0.14245 0.08359 0.01766 0.0
C294 C 0.13085 0.10567 0.03239 0.0
C295 C 0.14864 0.10517 0.04958 0.0
C296 C 0.13085 0.09163 -0.00167 0.0
C297 C 0.09421 0.09189 0.99405 0.0
C298 C 0.15592 0.10237 0.9846 0.0
C299 C 0.19484 0.10469 0.98851 0.0
C300 C 0.20788 0.12803 0.00238 0.0
C301 C 0.24453 0.1295 0.00625 0.0
C302 C 0.26844 0.10809 -0.00383 0.0
C303 C 0.25574 0.08528 0.98214 0.0
C304 C 0.21909 0.08363 0.97826 0.0
C305 C 0.07153 0.19479 0.9358 0.0
C306 C 0.08847 0.18967 0.91846 0.0
C307 C 0.07546 0.16965 0.95001 0.0
C308 C 0.09612 0.13876 0.94709 0.0
C309 C 0.11104 0.13242 0.92934 0.0
C310 C 0.10713 0.15764 0.91509 0.0
C311 C 0.10694 0.11683 0.96336 0.0
C312 C 0.14366 0.1142 0.9672 0.0
C313 C 0.08185 0.10429 0.97666 0.0
C314 C 0.04277 0.10463 0.97279 0.0
C315 C 0.02932 0.09027 0.95598 0.0
C316 C 0.99262 0.09127 0.95221 0.0
C317 C 0.96902 0.10641 0.96517 0.0
C318 C 0.98207 0.12052 0.98195 0.0
C319 C 0.01876 0.11962 0.9858 0.0
H320 H 0.94062 0.1072 0.96221 0.0
H321 H 0.2968 0.10924 -0.0008 0.0
H322 H 0.34955 0.66331 0.1582 0.0
H323 H 0.3854 0.66692 0.18659 0.0
H324 H 0.33923 0.56813 0.20615 0.0
H325 H 0.30257 0.56472 0.17787 0.0
H326 H 0.32945 0.61906 0.23066 0.0
H327 H 0.43061 0.57546 0.19776 0.0
H328 H 0.47404 0.57048 0.17192 0.0
H329 H 0.50701 0.67905 0.18112 0.0
H330 H 0.46343 0.6849 0.20684 0.0
H331 H 0.41033 0.66571 0.31637 0.0
H332 H 0.40247 0.62873 0.28835 0.0
H333 H 0.43157 0.71839 0.25368 0.0
H334 H 0.44009 0.75522 0.28149 0.0
H335 H 0.45595 0.65596 0.23887 0.0
H336 H 0.34482 0.70301 0.26493 0.0
H337 H 0.29945 0.71084 0.28969 0.0
H338 H 0.28417 0.59715 0.29204 0.0
H339 H 0.32985 0.58866 0.26745 0.0
C340 C 0.34766 0.64184 0.1683 0.0
C341 C 0.32279 0.61406 0.16594 0.0
C342 C 0.36844 0.64378 0.1845 0.0
C343 C 0.36508 0.61773 0.19851 0.0
C344 C 0.34221 0.58853 0.19553 0.0
C345 C 0.32125 0.58667 0.17937 0.0
C346 C 0.38088 0.62421 0.21724 0.0
C347 C 0.35742 0.62599 0.23255 0.0
C348 C 0.41716 0.63401 0.21965 0.0
C349 C 0.4436 0.63064 0.20422 0.0
C350 C 0.44695 0.59836 0.19421 0.0
C351 C 0.47163 0.59537 0.17958 0.0
C352 C 0.49325 0.62444 0.17487 0.0
C353 C 0.49027 0.65654 0.18479 0.0
C354 C 0.46562 0.65969 0.19943 0.0
C355 C 0.41575 0.67732 0.3028 0.0
C356 C 0.42514 0.71356 0.30111 0.0
C357 C 0.41127 0.65616 0.28682 0.0
C358 C 0.4159 0.67102 0.26896 0.0
C359 C 0.42782 0.70641 0.26733 0.0
C360 C 0.43239 0.72751 0.28326 0.0
C361 C 0.40424 0.65165 0.25194 0.0
C362 C 0.42836 0.64769 0.23702 0.0
C363 C 0.36845 0.64007 0.24976 0.0
C364 C 0.34108 0.64517 0.26457 0.0
C365 C 0.33199 0.67968 0.27085 0.0
C366 C 0.3062 0.68424 0.28483 0.0
C367 C 0.28903 0.6545 0.29249 0.0
C368 C 0.29757 0.62015 0.28614 0.0
C369 C 0.32341 0.61545 0.27219 0.0
H370 H 0.26903 0.65808 0.3033 0.0
H371 H 0.51233 0.62207 0.16354 0.0
H372 H 0.88624 0.73282 0.44542 0.0
H373 H 0.8724 0.77114 0.47196 0.0
H374 H 0.8921 0.8646 0.43821 0.0
H375 H 0.90597 0.82608 0.41132 0.0
H376 H 0.9064 0.82034 0.49206 0.0
H377 H 0.83297 0.92654 0.4502 0.0
H378 H 0.79807 0.93502 0.42116 0.0
H379 H 0.76453 0.82529 0.42301 0.0
H380 H 0.79977 0.8161 0.45184 0.0
H381 H 0.81724 0.92149 0.56444 0.0
H382 H 0.8553 0.90973 0.53708 0.0
H383 H 0.76611 0.85903 0.50925 0.0
H384 H 0.72807 0.87181 0.53596 0.0
H385 H 0.79945 0.89795 0.48543 0.0
H386 H 0.83533 0.81183 0.53371 0.0
H387 H 0.86037 0.79517 0.56445 0.0
H388 H 0.95738 0.85145 0.55161 0.0
H389 H 0.93271 0.86869 0.52086 0.0
C390 C 0.8881 0.7615 0.44363 0.0
C391 C 0.89675 0.77643 0.42619 0.0
C392 C 0.88034 0.78341 0.45888 0.0
C393 C 0.88099 0.82072 0.45703 0.0
C394 C 0.89112 0.83584 0.43986 0.0
C395 C 0.89903 0.81382 0.42454 0.0
C396 C 0.86828 0.84309 0.47281 0.0
C397 C 0.88338 0.83785 0.49059 0.0
C398 C 0.83835 0.86593 0.47092 0.0
C399 C 0.81928 0.87058 0.45296 0.0
C400 C 0.81843 0.90419 0.44426 0.0
C401 C 0.79862 0.9091 0.42786 0.0
C402 C 0.77918 0.88069 0.42022 0.0
C403 C 0.77976 0.84722 0.42888 0.0
C404 C 0.79986 0.84207 0.44515 0.0
C405 C 0.80586 0.90799 0.55241 0.0
C406 C 0.76973 0.89749 0.55233 0.0
C407 C 0.8276 0.90128 0.53682 0.0
C408 C 0.81361 0.88337 0.52113 0.0
C409 C 0.77747 0.87322 0.52109 0.0
C410 C 0.75574 0.88038 0.53643 0.0
C411 C 0.83617 0.87349 0.50485 0.0
C412 C 0.82328 0.88155 0.48689 0.0
C413 C 0.86733 0.85222 0.50669 0.0
C414 C 0.88203 0.84193 0.52515 0.0
C415 C 0.8619 0.82084 0.53752 0.0
C416 C 0.87603 0.81126 0.55492 0.0
C417 C 0.9104 0.82236 0.56001 0.0
C418 C 0.93074 0.84296 0.54768 0.0
C419 C 0.9167 0.85264 0.53027 0.0
H420 H 0.9213 0.81491 0.57349 0.0
H421 H 0.76359 0.88462 0.40762 0.0
H422 H 0.68515 0.38403 0.6886 0.0
H423 H 0.65064 0.37731 0.71747 0.0
H424 H 0.73589 0.42738 0.74868 0.0
H425 H 0.77077 0.4335 0.72002 0.0
H426 H 0.72059 0.36323 0.76168 0.0
H427 H 0.65269 0.46671 0.74465 0.0
H428 H 0.61592 0.50446 0.72393 0.0
H429 H 0.53496 0.42318 0.72198 0.0
H430 H 0.57148 0.38468 0.74247 0.0
H431 H 0.63524 0.34788 0.84971 0.0
H432 H 0.65529 0.38039 0.82196 0.0
H433 H 0.59064 0.31219 0.78696 0.0
H434 H 0.5715 0.27859 0.81449 0.0
H435 H 0.59416 0.39118 0.77704 0.0
H436 H 0.66513 0.28435 0.78526 0.0
H437 H 0.7059 0.23923 0.79868 0.0
H438 H 0.78082 0.3217 0.81325 0.0
H439 H 0.74045 0.36729 0.79985 0.0
C440 C 0.69625 0.39416 0.70157 0.0
C441 C 0.73091 0.40868 0.70213 0.0
C442 C 0.67635 0.39062 0.71803 0.0
C443 C 0.69065 0.40198 0.73522 0.0
C444 C 0.72437 0.41843 0.73557 0.0
C445 C 0.74435 0.4217 0.71919 0.0
C446 C 0.67331 0.39172 0.75304 0.0
C447 C 0.69325 0.37032 0.76527 0.0
C448 C 0.63711 0.39952 0.75726 0.0
C449 C 0.61498 0.42269 0.745 0.0
C450 C 0.62718 0.45675 0.73969 0.0
C451 C 0.60635 0.47831 0.728 0.0
C452 C 0.57316 0.4662 0.72161 0.0
C453 C 0.56069 0.43252 0.72694 0.0
C454 C 0.58142 0.41084 0.73861 0.0
C455 C 0.62455 0.34032 0.83618 0.0
C456 C 0.60254 0.31006 0.83425 0.0
C457 C 0.63615 0.35886 0.82035 0.0
C458 C 0.62483 0.3482 0.80248 0.0
C459 C 0.5998 0.32057 0.80068 0.0
C460 C 0.58887 0.30147 0.81644 0.0
C461 C 0.64185 0.36332 0.78563 0.0
C462 C 0.6218 0.38518 0.7736 0.0
C463 C 0.67791 0.35556 0.7813 0.0
C464 C 0.69951 0.32925 0.79188 0.0
C465 C 0.68993 0.29292 0.7917 0.0
C466 C 0.71322 0.26722 0.79902 0.0
C467 C 0.7461 0.27757 0.80663 0.0
C468 C 0.75548 0.31371 0.80722 0.0
C469 C 0.73238 0.33948 0.7998 0.0
H470 H 0.76411 0.25763 0.81228 0.0
H471 H 0.55707 0.48293 0.71257 0.0
H472 H 0.52395 0.0366 0.92962 0.0
H473 H 0.48723 0.04088 0.95784 0.0
H474 H 0.57681 0.08461 0.98823 0.0
H475 H 0.61382 0.08053 0.95989 0.0
H476 H 0.52144 0.03058 0.00799 0.0
H477 H 0.53494 0.1485 0.97778 0.0
H478 H 0.53713 0.18713 0.94983 0.0
H479 H 0.43447 0.14797 0.93232 0.0
H480 H 0.43145 0.1095 0.96039 0.0
H481 H 0.42131 0.11434 0.07938 0.0
H482 H 0.46651 0.10661 0.05502 0.0
H483 H 0.38332 0.09663 0.01345 0.0
H484 H 0.33795 0.10496 0.03757 0.0
H485 H 0.43887 0.13374 0.00012 0.0
H486 H 0.42077 0.02307 0.03275 0.0
H487 H 0.41743 0.9841 0.06048 0.0
H488 H 0.52799 0.00506 0.07264 0.0
H489 H 0.53182 0.04464 0.04513 0.0
C490 C 0.53625 0.0457 0.94251 0.0
C491 C 0.57154 0.05848 0.94266 0.0
C492 C 0.51522 0.0483 0.95855 0.0
C493 C 0.52941 0.06329 0.97494 0.0
C494 C 0.56561 0.07289 0.97565 0.0
C495 C 0.58662 0.07059 0.95952 0.0
C496 C 0.50504 0.07382 0.99014 0.0
C497 C 0.50372 0.0534 0.0065 0.0
C498 C 0.48158 0.1031 0.98785 0.0
C499 C 0.48306 0.12612 0.97107 0.0
C500 C 0.51287 0.14814 0.96795 0.0
C501 C 0.51418 0.17008 0.95216 0.0
C502 C 0.486 0.16991 0.93933 0.0
C503 C 0.45626 0.14805 0.94231 0.0
C504 C 0.45463 0.12633 0.9582 0.0
C505 C 0.4126 0.11121 0.06501 0.0
C506 C 0.37599 0.10979 0.06046 0.0
C507 C 0.43848 0.10656 0.05114 0.0
C508 C 0.42816 0.10019 0.03255 0.0
C509 C 0.39178 0.10123 0.02776 0.0
C510 C 0.36589 0.10599 0.04159 0.0
C511 C 0.45505 0.09058 0.01823 0.0
C512 C 0.45673 0.11108 0.00186 0.0
C513 C 0.47862 0.06116 0.02055 0.0
C514 C 0.47647 0.03712 0.037 0.0
C515 C 0.44429 0.01958 0.04142 0.0
C516 C 0.44232 -0.00264 0.05708 0.0
C517 C 0.47246 0.99219 0.06834 0.0
C518 C 0.50466 0.00915 0.06392 0.0
C519 C 0.50675 0.03147 0.04829 0.0
H520 H 0.47088 0.97497 0.08047 0.0
H521 H 0.48731 0.18674 0.92709 0.0
H522 H 0.37103 0.88136 0.2982 0.0
H523 H 0.37237 0.92386 0.2724 0.0
H524 H 0.44163 0.99314 0.30442 0.0
H525 H 0.43915 0.95109 0.33074 0.0
H526 H 0.39597 0.03158 0.28247 0.0
H527 H 0.47865 0.93664 0.27381 0.0
H528 H 0.49915 0.87394 0.27344 0.0
H529 H 0.42436 0.84971 0.22959 0.0
H530 H 0.40297 0.91214 0.2299 0.0
H531 H 0.43722 0.10573 0.18964 0.0
H532 H 0.44684 0.07975 0.22094 0.0
H533 H 0.36538 0.00099 0.20956 0.0
H534 H 0.35591 0.02645 0.17863 0.0
H535 H 0.43218 0.97346 0.22284 0.0
H536 H 0.34486 0.06859 0.23606 0.0
H537 H 0.32636 0.13191 0.23695 0.0
H538 H 0.41595 0.15689 0.27227 0.0
H539 H 0.43525 0.09374 0.27137 0.0
C540 C 0.38594 0.90599 0.29988 0.0
C541 C 0.40537 0.91282 0.31629 0.0
C542 C 0.38681 0.93017 0.28514 0.0
C543 C 0.40802 0.96104 0.28633 0.0
C544 C 0.42541 0.96927 0.3032 0.0
C545 C 0.42394 0.9453 0.31818 0.0
C546 C 0.41391 0.98275 0.26936 0.0
C547 C 0.40457 0.0191 0.2695 0.0
C548 C 0.42572 0.96654 0.25253 0.0
C549 C 0.43911 0.9291 0.25193 0.0
C550 C 0.46647 0.91792 0.26413 0.0
C551 C 0.47824 0.88242 0.26394 0.0
C552 C 0.46304 0.85785 0.25151 0.0
C553 C 0.43612 0.86878 0.2392 0.0
C554 C 0.4242 0.90424 0.23936 0.0
C555 C 0.42126 0.08308 0.19401 0.0
C556 C 0.39525 0.06856 0.18201 0.0
C557 C 0.42672 0.06837 0.21178 0.0
C558 C 0.40663 0.03867 0.21747 0.0
C559 C 0.38096 0.02405 0.20539 0.0
C560 C 0.37528 0.03888 0.18783 0.0
C561 C 0.41241 0.02161 0.23578 0.0
C562 C 0.42435 0.98611 0.2359 0.0
C563 C 0.4036 0.0388 0.25281 0.0
C564 C 0.39173 0.07658 0.25346 0.0
C565 C 0.36078 0.08765 0.24388 0.0
C566 C 0.35012 0.12348 0.24441 0.0
C567 C 0.37004 0.14843 0.25461 0.0
C568 C 0.40059 0.13756 0.26435 0.0
C569 C 0.41139 0.10175 0.26384 0.0
H570 H 0.36174 0.17616 0.255 0.0
H571 H 0.47214 0.83036 0.25141 0.0
H572 H 0.38575 0.86689 0.44461 0.0
H573 H 0.39397 0.86108 0.47845 0.0
H574 H 0.47894 0.93901 0.47647 0.0
H575 H 0.47124 0.94445 0.44272 0.0
H576 H 0.45245 0.83626 0.49501 0.0
H577 H 0.48565 0.98449 0.5156 0.0
H578 H 0.46246 0.04482 0.50886 0.0
H579 H 0.36029 0.00045 0.49419 0.0
H580 H 0.38264 0.93987 0.50111 0.0
H581 H 0.60012 0.86384 0.55041 0.0
H582 H 0.55021 0.85754 0.52888 0.0
H583 H 0.47843 0.90106 0.57044 0.0
H584 H 0.52864 0.90803 0.59214 0.0
H585 H 0.47301 0.93677 0.53911 0.0
H586 H 0.46553 0.8154 0.55445 0.0
H587 H 0.48613 0.75445 0.56194 0.0
H588 H 0.53045 0.7436 0.50679 0.0
H589 H 0.51064 0.80466 0.49903 0.0
C590 C 0.40625 0.88267 0.4514 0.0
C591 C 0.42867 0.90528 0.44098 0.0
C592 C 0.41059 0.87963 0.47075 0.0
C593 C 0.43696 0.89966 0.47998 0.0
C594 C 0.458 0.92371 0.4697 0.0
C595 C 0.45372 0.92668 0.45039 0.0
C596 C 0.44578 0.89277 0.49983 0.0
C597 C 0.45642 0.85807 0.50482 0.0
C598 C 0.4496 0.92102 0.51285 0.0
C599 C 0.43589 0.95754 0.50885 0.0
C600 C 0.45814 0.98757 0.51108 0.0
C601 C 0.44516 0.02184 0.50719 0.0
C602 C 0.40993 0.02646 0.50109 0.0
C603 C 0.38759 0.99683 0.49888 0.0
C604 C 0.40043 0.96251 0.50276 0.0
C605 C 0.57365 0.87144 0.55516 0.0
C606 C 0.56845 0.8869 0.57289 0.0
C607 C 0.54499 0.86745 0.54288 0.0
C608 C 0.51051 0.87858 0.5481 0.0
C609 C 0.50482 0.89219 0.56618 0.0
C610 C 0.53355 0.89615 0.57853 0.0
C611 C 0.48226 0.88082 0.53364 0.0
C612 C 0.46792 0.91466 0.52964 0.0
C613 C 0.47458 0.85166 0.52166 0.0
C614 C 0.48653 0.81473 0.52616 0.0
C615 C 0.47983 0.80011 0.54394 0.0
C616 C 0.49136 0.76551 0.54823 0.0
C617 C 0.50957 0.74517 0.53485 0.0
C618 C 0.51627 0.75937 0.51713 0.0
C619 C 0.50481 0.79396 0.51276 0.0
H620 H 0.51849 0.71839 0.5382 0.0
H621 H 0.39995 0.05301 0.49807 0.0
H622 H 0.61209 0.16715 0.80809 0.0
H623 H 0.60685 0.13434 0.7787 0.0
H624 H 0.62108 0.03473 0.80804 0.0
H625 H 0.62617 0.06727 0.8377 0.0
H626 H 0.65753 0.04043 0.77192 0.0
H627 H 0.54102 0.0568 0.80029 0.0
H628 H 0.49341 0.0931 0.81489 0.0
H629 H 0.48528 0.15667 0.76512 0.0
H630 H 0.53329 0.12109 0.75032 0.0
H631 H 0.59282 0.93126 0.699 0.0
H632 H 0.59844 0.95767 0.73027 0.0
H633 H 0.56545 0.05999 0.70831 0.0
H634 H 0.55919 0.03349 0.67717 0.0
H635 H 0.53799 0.05034 0.74194 0.0
H636 H 0.65379 0.0389 0.71368 0.0
H637 H 0.70308 0.00659 0.6981 0.0
H638 H 0.71496 0.93882 0.74613 0.0
H639 H 0.66527 0.97036 0.76188 0.0
C640 C 0.61475 0.13831 0.80833 0.0
C641 C 0.61905 0.11976 0.82529 0.0
C642 C 0.61169 0.11965 0.79151 0.0
C643 C 0.61303 0.08222 0.79135 0.0
C644 C 0.61983 0.06367 0.80799 0.0
C645 C 0.62266 0.08231 0.82489 0.0
C646 C 0.60447 0.06252 0.77404 0.0
C647 C 0.63128 0.04204 0.76547 0.0
C648 C 0.57042 0.06555 0.76553 0.0
C649 C 0.54097 0.08646 0.77426 0.0
C650 C 0.52925 0.07867 0.7925 0.0
C651 C 0.50217 0.0991 0.80081 0.0
C652 C 0.48638 0.12723 0.79096 0.0
C653 C 0.49755 0.13489 0.77274 0.0
C654 C 0.52467 0.11458 0.76438 0.0
C655 C 0.58656 0.95931 0.70095 0.0
C656 C 0.57629 0.9806 0.68572 0.0
C657 C 0.58974 0.97434 0.71876 0.0
C658 C 0.58316 0.01096 0.72149 0.0
C659 C 0.57082 0.03172 0.70648 0.0
C660 C 0.56726 0.01659 0.68872 0.0
C661 C 0.5911 0.02819 0.73967 0.0
C662 C 0.56418 0.04834 0.74842 0.0
C663 C 0.62525 0.02533 0.74818 0.0
C664 C 0.65557 0.00674 0.73888 0.0
C665 C 0.66677 0.01696 0.72088 0.0
C666 C 0.69478 -0.00121 0.71201 0.0
C667 C 0.71208 0.97061 0.7211 0.0
C668 C 0.70148 0.96062 0.7391 0.0
C669 C 0.6734 0.97864 0.748 0.0
H670 H 0.73375 0.95656 0.71421 0.0
H671 H 0.46545 0.14305 0.79742 0.0
H672 H 0.13903 0.4027 0.79446 0.0
H673 H 0.12424 0.40605 0.7611 0.0
H674 H 0.02995 0.46792 0.77447 0.0
H675 H 0.04496 0.46501 0.80762 0.0
H676 H 0.06876 0.37567 0.74682 0.0
H677 H 0.00036 0.5159 0.73942 0.0
H678 H 0.0114 0.57803 0.74941 0.0
H679 H 0.12364 0.55554 0.75477 0.0
H680 H 0.11341 0.49338 0.74455 0.0
H681 H 0.90727 0.38228 0.69933 0.0
H682 H 0.95936 0.38573 0.71979 0.0
H683 H 0.01711 0.44385 0.6774 0.0
H684 H 0.96493 0.44035 0.65667 0.0
H685 H 0.01721 0.47777 0.71175 0.0
H686 H 0.04759 0.36427 0.68779 0.0
H687 H 0.03814 0.30217 0.67727 0.0
H688 H 0.00712 0.2721 0.73289 0.0
H689 H 0.01584 0.33412 0.74371 0.0
C690 C 0.1155 0.4175 0.79017 0.0
C691 C 0.09267 0.43297 0.80354 0.0
C692 C 0.10721 0.41958 0.77115 0.0
C693 C 0.07603 0.43727 0.76525 0.0
C694 C 0.05454 0.45474 0.77858 0.0
C695 C 0.063 0.4529 0.79756 0.0
C696 C 0.06278 0.43301 0.74583 0.0
C697 C 0.05808 0.39808 0.73899 0.0
C698 C 0.04964 0.46228 0.73534 0.0
C699 C 0.05608 0.49986 0.74124 0.0
C700 C 0.02746 0.52424 0.74257 0.0
C701 C 0.03356 0.55947 0.74832 0.0
C702 C 0.06819 0.57072 0.75274 0.0
C703 C 0.09681 0.54677 0.75139 0.0
C704 C 0.09087 0.51151 0.74564 0.0
C705 C 0.93122 0.3953 0.69422 0.0
C706 C 0.93196 0.4112 0.67644 0.0
C707 C 0.96104 0.39706 0.70588 0.0
C708 C 0.9921 0.41487 0.70003 0.0
C709 C 0.9934 0.42986 0.68209 0.0
C710 C 0.96363 0.42773 0.67028 0.0
C711 C 0.02147 0.42047 0.71356 0.0
C712 C 0.02905 0.45556 0.71929 0.0
C713 C 0.03761 0.39142 0.72293 0.0
C714 C 0.03232 0.35395 0.71656 0.0
C715 C 0.03854 0.34448 0.69777 0.0
C716 C 0.03334 0.30927 0.69175 0.0
C717 C 0.02203 0.28321 0.7044 0.0
C718 C 0.01592 0.29231 0.72311 0.0
C719 C 0.02106 0.32748 0.7292 0.0
H720 H 0.01802 0.25597 0.69971 0.0
H721 H 0.07285 0.598 0.7572 0.0
H722 H 0.11183 0.44003 0.9102 0.0
H723 H 0.10383 0.48029 0.93692 0.0
H724 H 0.08183 0.39003 0.97253 0.0
H725 H 0.08974 0.34956 0.94601 0.0
H726 H 0.03153 0.44478 0.97594 0.0
H727 H 0.16018 0.4301 0.97569 0.0
H728 H 0.22038 0.43183 0.96159 0.0
H729 H 0.20825 0.54409 0.95078 0.0
H730 H 0.14774 0.54292 0.9646 0.0
H731 H 0.05072 0.51572 0.06747 0.0
H732 H 0.0486 0.48365 0.03762 0.0
H733 H 0.08813 0.57758 0.00931 0.0
H734 H 0.09195 0.6089 0.03939 0.0
H735 H 0.12681 0.52471 9e-05 0.0
H736 H 0.00034 0.54168 0.0024 0.0
H737 H 0.93981 0.54088 0.01613 0.0
H738 H 0.94603 0.42686 0.02226 0.0
H739 H 0.0068 0.42701 0.00881 0.0
C740 C 0.10569 0.42868 0.92376 0.0
C741 C 0.10143 0.39156 0.92596 0.0
C742 C 0.10109 0.45174 0.93898 0.0
C743 C 0.09215 0.43806 0.95664 0.0
C744 C 0.08853 0.40105 0.95897 0.0
C745 C 0.09332 0.37798 0.94381 0.0
C746 C 0.08604 0.46228 0.97269 0.0
C747 C 0.05236 0.46213 0.98137 0.0
C748 C 0.11292 0.48563 0.97928 0.0
C749 C 0.14929 0.48633 0.97098 0.0
C750 C 0.17022 0.45508 0.97015 0.0
C751 C 0.20443 0.45598 0.96225 0.0
C752 C 0.21809 0.48803 0.95524 0.0
C753 C 0.19761 0.51927 0.95618 0.0
C754 C 0.16337 0.51851 0.96406 0.0
C755 C 0.05787 0.52972 0.05475 0.0
C756 C 0.07137 0.56462 0.05554 0.0
C757 C 0.05661 0.51147 0.03769 0.0
C758 C 0.06801 0.52825 0.02113 0.0
C759 C 0.07932 0.56403 0.02187 0.0
C760 C 0.08128 0.58198 0.03898 0.0
C761 C 0.07215 0.50731 0.00359 0.0
C762 C 0.1056 0.50789 0.9946 0.0
C763 C 0.04488 0.48462 -0.00336 0.0
C764 C 0.00827 0.48441 0.00471 0.0
C765 C 0.98892 0.51646 0.0068 0.0
C766 C 0.95453 0.51612 0.01451 0.0
C767 C 0.93911 0.48385 0.02009 0.0
C768 C 0.95801 0.45184 0.01794 0.0
C769 C 0.99241 0.45203 0.01024 0.0
H770 H 0.91249 0.48364 0.02606 0.0
H771 H 0.24458 0.48867 0.94913 0.0
H772 H 0.18513 0.63833 0.18688 0.0
H773 H 0.15145 0.63627 0.21606 0.0
H774 H 0.05271 0.64771 0.18543 0.0
H775 H 0.08604 0.64955 0.15605 0.0
H776 H 0.05544 0.68067 0.22382 0.0
H777 H 0.07738 0.56915 0.18948 0.0
H778 H 0.1179 0.52687 0.17346 0.0
H779 H 0.17898 0.51475 0.22397 0.0
H780 H 0.13918 0.55754 0.24018 0.0
H781 H 0.93164 0.59545 0.2818 0.0
H782 H 0.96687 0.60938 0.25385 0.0
H783 H 0.06262 0.57303 0.28183 0.0
H784 H 0.0273 0.5585 0.30964 0.0
H785 H 0.06397 0.55492 0.24571 0.0
H786 H 0.04246 0.66081 0.28127 0.0
H787 H 0.00558 0.70466 0.29844 0.0
H788 H 0.94839 0.72954 0.24797 0.0
H789 H 0.98461 0.68539 0.23054 0.0
C790 C 0.15635 0.64167 0.18633 0.0
C791 C 0.13816 0.64312 0.1691 0.0
C792 C 0.1372 0.64054 0.20305 0.0
C793 C 0.09971 0.64115 0.20275 0.0
C794 C 0.08169 0.64706 0.18584 0.0
C795 C 0.1008 0.64793 0.16907 0.0
C796 C 0.07947 0.62908 0.21924 0.0
C797 C 0.05698 0.65318 0.22857 0.0
C798 C 0.08233 0.59336 0.22556 0.0
C799 C 0.10553 0.56677 0.21598 0.0
C800 C 0.09958 0.55763 0.19713 0.0
C801 C 0.12241 0.53358 0.18802 0.0
C802 C 0.15104 0.51819 0.19768 0.0
C803 C 0.15682 0.52673 0.2165 0.0
C804 C 0.13414 0.55087 0.22566 0.0
C805 C 0.96009 0.58983 0.28177 0.0
C806 C 0.97696 0.57631 0.2978 0.0
C807 C 0.98018 0.59794 0.26591 0.0
C808 C 0.01745 0.59306 0.26599 0.0
C809 C 0.03392 0.57718 0.28155 0.0
C810 C 0.01375 0.56876 0.29736 0.0
C811 C 0.03944 0.6064 0.25032 0.0
C812 C 0.06236 0.58249 0.24109 0.0
C813 C 0.03738 0.64244 0.24431 0.0
C814 C 0.01604 0.66957 0.25463 0.0
C815 C 0.02189 0.67549 0.27385 0.0
C816 C 0.00113 0.70042 0.28363 0.0
C817 C 0.9746 0.71982 0.27431 0.0
C818 C 0.96891 0.71445 0.25517 0.0
C819 C 0.98958 0.68951 0.24533 0.0
H820 H 0.9585 0.73906 0.28191 0.0
H821 H 0.16869 0.49959 0.19061 0.0
H822 H 0.83303 0.61088 0.42302 0.0
H823 H 0.82639 0.57471 0.45121 0.0
H824 H 0.91205 0.50576 0.43259 0.0
H825 H 0.91772 0.54105 0.40391 0.0
H826 H 0.86454 0.46919 0.45409 0.0
H827 H 0.93119 0.57842 0.45802 0.0
H828 H 0.94145 0.64311 0.45414 0.0
H829 H 0.85409 0.666 0.49134 0.0
H830 H 0.84288 0.6014 0.49517 0.0
H831 H 0.93675 0.43208 0.54615 0.0
H832 H 0.92826 0.45003 0.51333 0.0
H833 H 0.8343 0.5102 0.52908 0.0
H834 H 0.84274 0.49239 0.56173 0.0
H835 H 0.8856 0.54878 0.50871 0.0
H836 H 0.82265 0.4365 0.50581 0.0
H837 H 0.81635 0.37133 0.50969 0.0
H838 H 0.90258 0.35366 0.47103 0.0
H839 H 0.90977 0.41879 0.46713 0.0
C840 C 0.84955 0.58725 0.42465 0.0
C841 C 0.87625 0.57897 0.41153 0.0
C842 C 0.84582 0.56669 0.44075 0.0
C843 C 0.8695 0.5383 0.44421 0.0
C844 C 0.89371 0.52775 0.43022 0.0
C845 C 0.89693 0.54791 0.41386 0.0
C846 C 0.8726 0.52349 0.4633 0.0
C847 C 0.86938 0.48649 0.46603 0.0
C848 C 0.87905 0.54617 0.47885 0.0
C849 C 0.88598 0.58507 0.47674 0.0
C850 C 0.91401 0.59725 0.46527 0.0
C851 C 0.92 0.63389 0.46308 0.0
C852 C 0.8984 0.65864 0.47246 0.0
C853 C 0.87077 0.64679 0.48406 0.0
C854 C 0.86459 0.61016 0.48625 0.0
C855 C 0.91407 0.44872 0.54245 0.0
C856 C 0.88995 0.46034 0.55622 0.0
C857 C 0.90916 0.45878 0.5238 0.0
C858 C 0.88041 0.48104 0.51885 0.0
C859 C 0.85639 0.49268 0.53265 0.0
C860 C 0.86108 0.48235 0.5512 0.0
C861 C 0.87683 0.4946 0.49957 0.0
C862 C 0.88043 0.53147 0.4968 0.0
C863 C 0.87138 0.4717 0.48405 0.0
C864 C 0.86698 0.43255 0.48632 0.0
C865 C 0.84049 0.41874 0.49826 0.0
C866 C 0.83671 0.3818 0.50044 0.0
C867 C 0.85911 0.35837 0.49065 0.0
C868 C 0.88528 0.37184 0.47862 0.0
C869 C 0.8892 0.40877 0.47641 0.0
H870 H 0.85614 0.32978 0.49235 0.0
H871 H 0.90314 0.687 0.4708 0.0
H872 H 0.18315 0.70294 0.08717 0.0
H873 H 0.20989 0.75911 0.07791 0.0
H874 H 0.31494 0.71072 0.07976 0.0
H875 H 0.28806 0.65483 0.09045 0.0
H876 H 0.31695 0.76257 0.10077 0.0
H877 H 0.2786 0.75569 0.03859 0.0
H878 H 0.23969 0.74334 0.01148 0.0
H879 H 0.16499 0.82282 0.03052 0.0
H880 H 0.20307 0.8353 0.0579 0.0
H881 H 0.35066 0.95817 0.09283 0.0
H882 H 0.35148 0.8947 0.08357 0.0
H883 H 0.24503 0.88196 0.10588 0.0
H884 H 0.24465 0.9448 0.11571 0.0
H885 H 0.26286 0.86095 0.06395 0.0
H886 H 0.29794 0.84877 0.13089 0.0
H887 H 0.33974 0.86077 0.15689 0.0
H888 H 0.42624 0.81629 0.12477 0.0
H889 H 0.38494 0.8045 0.09849 0.0
C890 C 0.2118 0.70386 0.0849 0.0
C891 C 0.23363 0.67487 0.08982 0.0
C892 C 0.22721 0.73607 0.07942 0.0
C893 C 0.26464 0.73943 0.07813 0.0
C894 C 0.28608 0.70898 0.08083 0.0
C895 C 0.27072 0.67704 0.08687 0.0
C896 C 0.28092 0.77563 0.07804 0.0
C897 C 0.30592 0.78375 0.09217 0.0
C898 C 0.26698 0.80364 0.06687 0.0
C899 C 0.24383 0.79644 0.05035 0.0
C900 C 0.25379 0.77043 0.03707 0.0
C901 C 0.23187 0.76341 0.02163 0.0
C902 C 0.1999 0.78229 0.01928 0.0
C903 C 0.1898 0.80827 0.03234 0.0
C904 C 0.21162 0.8154 0.0478 0.0
C905 C 0.32801 0.94136 0.09626 0.0
C906 C 0.29773 0.95584 0.10516 0.0
C907 C 0.32834 0.90547 0.09077 0.0
C908 C 0.29815 0.88413 0.09389 0.0
C909 C 0.2684 0.89833 0.10328 0.0
C910 C 0.26832 0.93391 0.10903 0.0
C911 C 0.29666 0.84701 0.08716 0.0
C912 C 0.2747 0.83915 0.0718 0.0
C913 C 0.31389 0.81917 0.09686 0.0
C914 C 0.33853 0.82626 0.11266 0.0
C915 C 0.32594 0.84193 0.12931 0.0
C916 C 0.34952 0.8486 0.14411 0.0
C917 C 0.38566 0.83943 0.14246 0.0
C918 C 0.39827 0.82347 0.12602 0.0
C919 C 0.3748 0.81679 0.11117 0.0
H920 H 0.40386 0.84459 0.15393 0.0
H921 H 0.18295 0.7768 0.00732 0.0
H922 H 0.85797 0.75343 0.34423 0.0
H923 H 0.80151 0.78355 0.33685 0.0
H924 H 0.74646 0.68228 0.33958 0.0
H925 H 0.8033 0.65196 0.34553 0.0
H926 H 0.71023 0.72676 0.31775 0.0
H927 H 0.76365 0.73416 0.38099 0.0
H928 H 0.81481 0.74985 0.40133 0.0
H929 H 0.81151 0.85788 0.38119 0.0
H930 H 0.76022 0.84285 0.36084 0.0
H931 H 0.55249 0.74678 0.36727 0.0
H932 H 0.61567 0.73416 0.36102 0.0
H933 H 0.63448 0.84626 0.35093 0.0
H934 H 0.57085 0.85889 0.35698 0.0
H935 H 0.69046 0.8083 0.37181 0.0
H936 H 0.62494 0.80167 0.31455 0.0
H937 H 0.57419 0.78378 0.29457 0.0
H938 H 0.60007 0.67314 0.30317 0.0
H939 H 0.65072 0.69036 0.32342 0.0
C940 C 0.83401 0.73754 0.3423 0.0
C941 C 0.8346 0.70058 0.34557 0.0
C942 C 0.80177 0.75472 0.33825 0.0
C943 C 0.76961 0.73534 0.33844 0.0
C944 C 0.7709 0.69785 0.33955 0.0
C945 C 0.80336 0.6805 0.34295 0.0
C946 C 0.73486 0.75386 0.34105 0.0
C947 C 0.70594 0.74472 0.32948 0.0
C948 C 0.7293 0.77781 0.35622 0.0
C949 C 0.75834 0.78738 0.36938 0.0
C950 C 0.77374 0.7613 0.38102 0.0
C951 C 0.80278 0.77004 0.39249 0.0
C952 C 0.81646 0.80479 0.39245 0.0
C953 C 0.80092 0.83096 0.38113 0.0
C954 C 0.77176 0.82242 0.36972 0.0
C955 C 0.5704 0.76878 0.36424 0.0
C956 C 0.55719 0.80372 0.36263 0.0
C957 C 0.60627 0.76157 0.36054 0.0
C958 C 0.62937 0.78924 0.3552 0.0
C959 C 0.61686 0.82462 0.35495 0.0
C960 C 0.58076 0.83182 0.35854 0.0
C961 C 0.66585 0.78038 0.3488 0.0
C962 C 0.69495 0.79119 0.35974 0.0
C963 C 0.67146 0.75787 0.33312 0.0
C964 C 0.64153 0.74732 0.32059 0.0
C965 C 0.61972 0.77352 0.31225 0.0
C966 C 0.591 0.7635 0.30085 0.0
C967 C 0.58388 0.72735 0.29762 0.0
C968 C 0.60561 0.70114 0.30569 0.0
C969 C 0.63438 0.71102 0.3171 0.0
H970 H 0.56155 0.71965 0.28884 0.0
H971 H 0.83886 0.81158 0.4013 0.0
H972 H 0.75312 0.03469 0.59641 0.0
H973 H 0.77598 0.0958 0.59622 0.0
H974 H 0.66929 0.136 0.60625 0.0
H975 H 0.64597 0.07484 0.60502 0.0
H976 H 0.70265 0.17937 0.58367 0.0
H977 H 0.73097 0.12367 0.6422 0.0
H978 H 0.75594 0.07713 0.66284 0.0
H979 H 0.8611 0.09701 0.64103 0.0
H980 H 0.83665 0.14336 0.62006 0.0
H981 H 0.75055 0.33371 0.63992 0.0
H982 H 0.72901 0.27548 0.62897 0.0
H983 H 0.82641 0.26034 0.59758 0.0
H984 H 0.84778 0.31915 0.60798 0.0
H985 H 0.80113 0.20521 0.62831 0.0
H986 H 0.7693 0.2666 0.57138 0.0
H987 H 0.74095 0.31477 0.55312 0.0
H988 H 0.63812 0.28609 0.57525 0.0
H989 H 0.66597 0.23809 0.5939 0.0
C990 C 0.73447 0.05662 0.5982 0.0
C991 C 0.69788 0.05015 0.60099 0.0
C992 C 0.74759 0.09149 0.59827 0.0
C993 C 0.72447 0.12041 0.60166 0.0
C994 C 0.68766 0.11406 0.60374 0.0
C995 C 0.67444 0.07917 0.60329 0.0
C996 C 0.73892 0.15701 0.60402 0.0
C997 C 0.72405 0.18502 0.5935 0.0
C998 C 0.7671 0.16436 0.61673 0.0
C999 C 0.78193 0.13671 0.62943 0.0
C1000 C 0.75938 0.11795 0.64172 0.0
C1001 C 0.77344 0.09162 0.65348 0.0
C1002 C 0.81007 0.08405 0.65321 0.0
C1003 C 0.83273 0.10287 0.6412 0.0
C1004 C 0.81879 0.12918 0.62938 0.0
C1005 C 0.76715 0.31819 0.63047 0.0
C1006 C 0.80089 0.33076 0.62486 0.0
C1007 C 0.75476 0.28512 0.62418 0.0
C1008 C 0.77616 0.26395 0.61247 0.0
C1009 C 0.80954 0.27661 0.60654 0.0
C1010 C 0.82163 0.3101 0.61247 0.0
C1011 C 0.76487 0.22724 0.60798 0.0
C1012 C 0.78015 0.19931 0.61826 0.0
C1013 C 0.73663 0.22017 0.59539 0.0
C1014 C 0.7198 0.24901 0.5842 0.0
C1015 C 0.74071 0.27082 0.57253 0.0
C1016 C 0.72471 0.29803 0.56206 0.0
C1017 C 0.68777 0.30355 0.56306 0.0
C1018 C 0.66674 0.28181 0.5745 0.0
C1019 C 0.68262 0.25458 0.58501 0.0
H1020 H 0.67543 0.32462 0.55494 0.0
H1021 H 0.82091 0.06366 0.66233 0.0
H1022 H 0.46179 0.14029 0.86402 0.0
H1023 H 0.39751 0.14865 0.85809 0.0
H1024 H 0.39522 0.23478 0.89837 0.0
H1025 H 0.45945 0.22697 0.90395 0.0
H1026 H 0.33255 0.18814 0.89845 0.0
H1027 H 0.4099 0.25777 0.85605 0.0
H1028 H 0.45841 0.2611 0.83268 0.0
H1029 H 0.40149 0.18828 0.79693 0.0
H1030 H 0.35267 0.18449 0.82015 0.0
H1031 H 0.21673 0.32988 0.85866 0.0
H1032 H 0.27478 0.29942 0.85628 0.0
H1033 H 0.22204 0.19723 0.86057 0.0
H1034 H 0.16435 0.22743 0.86342 0.0
H1035 H 0.31011 0.24301 0.83626 0.0
H1036 H 0.26415 0.15226 0.8949 0.0
H1037 H 0.21459 0.14778 0.91765 0.0
H1038 H 0.20882 0.26229 0.92106 0.0
H1039 H 0.25863 0.2674 0.89855 0.0
C1040 C 0.44712 0.16016 0.872 0.0
C1041 C 0.46501 0.18278 0.88458 0.0
C1042 C 0.41065 0.16498 0.86858 0.0
C1043 C 0.39187 0.19234 0.87779 0.0
C1044 C 0.40932 0.21334 0.89127 0.0
C1045 C 0.44582 0.20885 0.89449 0.0
C1046 C 0.35547 0.20238 0.87186 0.0
C1047 C 0.32747 0.19965 0.88478 0.0
C1048 C 0.34906 0.21743 0.85402 0.0
C1049 C 0.37783 0.22065 0.83986 0.0
C1050 C 0.4078 0.24242 0.84322 0.0
C1051 C 0.43533 0.24438 0.83002 0.0
C1052 C 0.4331 0.2248 0.81337 0.0
C1053 C 0.4032 0.20341 0.80984 0.0
C1054 C 0.37556 0.20141 0.82299 0.0
C1055 C 0.21752 0.30092 0.85844 0.0
C1056 C 0.18641 0.28093 0.86165 0.0
C1057 C 0.25059 0.28355 0.85703 0.0
C1058 C 0.25257 0.24617 0.85866 0.0
C1059 C 0.221 0.22611 0.85956 0.0
C1060 C 0.18815 0.2434 0.86126 0.0
C1061 C 0.28721 0.22903 0.86292 0.0
C1062 C 0.31492 0.23064 0.84974 0.0
C1063 C 0.29335 0.2128 0.88054 0.0
C1064 C 0.26489 0.21017 0.89495 0.0
C1065 C 0.25249 0.17645 0.90064 0.0
C1066 C 0.22432 0.17381 0.91346 0.0
C1067 C 0.20849 0.20473 0.92075 0.0
C1068 C 0.22105 0.23836 0.91538 0.0
C1069 C 0.24926 0.24115 0.90261 0.0
H1070 H 0.18654 0.20261 0.93057 0.0
H1071 H 0.4545 0.22624 0.8032 0.0
H1072 H 0.73586 0.53854 0.64893 0.0
H1073 H 0.71545 0.60047 0.65143 0.0
H1074 H 0.82305 0.63726 0.64087 0.0
H1075 H 0.84391 0.57514 0.63973 0.0
H1076 H 0.79452 0.67711 0.66662 0.0
H1077 H 0.7567 0.63623 0.60629 0.0
H1078 H 0.7272 0.59625 0.58355 0.0
H1079 H 0.62569 0.61574 0.60986 0.0
H1080 H 0.65468 0.65549 0.63292 0.0
H1081 H 0.74982 0.84261 0.62094 0.0
H1082 H 0.77116 0.78431 0.63166 0.0
H1083 H 0.66957 0.76517 0.6584 0.0
H1084 H 0.64828 0.824 0.64814 0.0
H1085 H 0.69194 0.71679 0.62775 0.0
H1086 H 0.73346 0.76584 0.68579 0.0
H1087 H 0.76637 0.80815 0.7059 0.0
H1088 H 0.86541 0.77642 0.68027 0.0
H1089 H 0.83303 0.73429 0.65977 0.0
C1090 C 0.7551 0.55993 0.6472 0.0
C1091 C 0.79128 0.55227 0.64383 0.0
C1092 C 0.74343 0.59525 0.64853 0.0
C1093 C 0.7676 0.62354 0.64599 0.0
C1094 C 0.8039 0.61587 0.64279 0.0
C1095 C 0.81569 0.58046 0.64184 0.0
C1096 C 0.75486 0.66106 0.64634 0.0
C1097 C 0.77228 0.68586 0.658 0.0
C1098 C 0.72546 0.67236 0.63532 0.0
C1099 C 0.70792 0.64852 0.62145 0.0
C1100 C 0.72813 0.63177 0.60731 0.0
C1101 C 0.71149 0.60919 0.59435 0.0
C1102 C 0.67461 0.60337 0.59529 0.0
C1103 C 0.65426 0.62022 0.60917 0.0
C1104 C 0.67078 0.64279 0.62218 0.0
C1105 C 0.73245 0.82644 0.62961 0.0
C1106 C 0.69731 0.83753 0.63358 0.0
C1107 C 0.74472 0.79329 0.63579 0.0
C1108 C 0.72185 0.77061 0.64575 0.0
C1109 C 0.68757 0.78255 0.6508 0.0
C1110 C 0.67552 0.81609 0.64496 0.0
C1111 C 0.73164 0.73268 0.64794 0.0
C1112 C 0.7138 0.70784 0.63659 0.0
C1113 C 0.76117 0.7217 0.65884 0.0
C1114 C 0.78074 0.74709 0.67112 0.0
C1115 C 0.76221 0.76812 0.6843 0.0
C1116 C 0.78079 0.79203 0.6958 0.0
C1117 C 0.81795 0.79503 0.69434 0.0
C1118 C 0.83662 0.77409 0.68138 0.0
C1119 C 0.81817 0.75015 0.66983 0.0
H1120 H 0.83228 0.81354 0.70326 0.0
H1121 H 0.66178 0.58588 0.58524 0.0
H1122 H 0.66989 0.26895 0.89969 0.0
H1123 H 0.72953 0.29489 0.90269 0.0
H1124 H 0.77616 0.18939 0.90046 0.0
H1125 H 0.71638 0.16318 0.89815 0.0
H1126 H 0.82135 0.23967 0.91825 0.0
H1127 H 0.75653 0.22261 0.86111 0.0
H1128 H 0.70059 0.22643 0.84292 0.0
H1129 H 0.70359 0.34102 0.84658 0.0
H1130 H 0.75889 0.33777 0.86543 0.0
H1131 H 0.96197 0.25511 0.85198 0.0
H1132 H 0.89921 0.24408 0.86006 0.0
H1133 H 0.89187 0.34926 0.88463 0.0
H1134 H 0.95506 0.35998 0.87705 0.0
H1135 H 0.82723 0.30442 0.85761 0.0
H1136 H 0.89974 0.31428 0.91642 0.0
H1137 H 0.95502 0.30041 0.93389 0.0
H1138 H 0.93976 0.1884 0.92327 0.0
H1139 H 0.88467 0.20174 0.90548 0.0
C1140 C 0.69278 0.25123 0.90073 0.0
C1141 C 0.68882 0.21421 0.89819 0.0
C1142 C 0.72678 0.26605 0.90255 0.0
C1143 C 0.75714 0.24406 0.90123 0.0
C1144 C 0.753 0.20677 0.9014 0.0
C1145 C 0.71884 0.19184 0.89997 0.0
C1146 C 0.7913 0.25953 0.89474 0.0
C1147 C 0.82258 0.25423 0.90516 0.0
C1148 C 0.79305 0.27755 0.87733 0.0
C1149 C 0.76151 0.27994 0.86483 0.0
C1150 C 0.74511 0.24861 0.85812 0.0
C1151 C 0.71337 0.25062 0.84788 0.0
C1152 C 0.6983 0.28389 0.84387 0.0
C1153 C 0.71502 0.31524 0.84997 0.0
C1154 C 0.74657 0.31334 0.86044 0.0
C1155 C 0.94644 0.27636 0.85839 0.0
C1156 C 0.96295 0.30834 0.8639 0.0
C1157 C 0.91086 0.26997 0.86311 0.0
C1158 C 0.89145 0.29572 0.87314 0.0
C1159 C 0.90674 0.32914 0.87694 0.0
C1160 C 0.94256 0.33537 0.87244 0.0
C1161 C 0.85695 0.28578 0.88148 0.0
C1162 C 0.82573 0.29121 0.87109 0.0
C1163 C 0.85553 0.26705 0.89864 0.0
C1164 C 0.88835 0.25904 0.9095 0.0
C1165 C 0.90836 0.28674 0.91768 0.0
C1166 C 0.93958 0.27897 0.92769 0.0
C1167 C 0.95089 0.24354 0.9297 0.0
C1168 C 0.93097 0.21582 0.92171 0.0
C1169 C 0.89975 0.22347 0.91168 0.0
H1170 H 0.97512 0.23758 0.9374 0.0
H1171 H 0.67424 0.28521 0.83555 0.0
H1172 H 0.17074 0.44911 0.10327 0.0
H1173 H 0.17175 0.38494 0.11017 0.0
H1174 H 0.20101 0.40785 0.16737 0.0
H1175 H 0.19866 0.47205 0.16069 0.0
H1176 H 0.24956 0.36359 0.14702 0.0
H1177 H 0.12617 0.3695 0.16231 0.0
H1178 H 0.06285 0.38621 0.15812 0.0
H1179 H 0.05797 0.3237 0.1077 0.0
H1180 H 0.12144 0.30705 0.1114 0.0
H1181 H 0.27986 0.17772 0.14898 0.0
H1182 H 0.25449 0.23435 0.16006 0.0
H1183 H 0.19488 0.24423 0.10855 0.0
H1184 H 0.21874 0.18729 0.09782 0.0
H1185 H 0.15702 0.27104 0.13568 0.0
H1186 H 0.28098 0.28125 0.115 0.0
H1187 H 0.34552 0.2673 0.11608 0.0
H1188 H 0.35007 0.30227 0.17333 0.0
H1189 H 0.28542 0.31604 0.17263 0.0
C1190 C 0.17643 0.44038 0.11741 0.0
C1191 C 0.1852 0.46523 0.13138 0.0
C1192 C 0.17692 0.40387 0.12135 0.0
C1193 C 0.1864 0.39187 0.13929 0.0
C1194 C 0.1936 0.41674 0.15348 0.0
C1195 C 0.19259 0.45323 0.1496 0.0
C1196 C 0.19355 0.35356 0.14229 0.0
C1197 C 0.22919 0.34323 0.1451 0.0
C1198 C 0.16697 0.32735 0.13939 0.0
C1199 C 0.12869 0.33715 0.13711 0.0
C1200 C 0.1117 0.35952 0.15025 0.0
C1201 C 0.07574 0.36895 0.14797 0.0
C1202 C 0.05641 0.35606 0.13264 0.0
C1203 C 0.07298 0.33366 0.11957 0.0
C1204 C 0.10894 0.32416 0.12177 0.0
C1205 C 0.26091 0.19176 0.14018 0.0
C1206 C 0.25175 0.17842 0.1224 0.0
C1207 C 0.24643 0.22406 0.14652 0.0
C1208 C 0.22336 0.24385 0.13497 0.0
C1209 C 0.21262 0.22945 0.11772 0.0
C1210 C 0.22651 0.19696 0.11153 0.0
C1211 C 0.21331 0.28113 0.13962 0.0
C1212 C 0.17719 0.2913 0.13823 0.0
C1213 C 0.23957 0.30744 0.14342 0.0
C1214 C 0.27836 0.29918 0.14385 0.0
C1215 C 0.29573 0.28571 0.12785 0.0
C1216 C 0.33231 0.27788 0.12839 0.0
C1217 C 0.35186 0.28377 0.14479 0.0
C1218 C 0.33488 0.29762 0.16066 0.0
C1219 C 0.29828 0.30543 0.16021 0.0
H1220 H 0.38018 0.2777 0.14518 0.0
H1221 H 0.02857 0.36339 0.13091 0.0
H1222 H 0.30949 0.83497 0.38177 0.0
H1223 H 0.25095 0.80875 0.38816 0.0
H1224 H 0.29054 0.7052 0.37089 0.0
H1225 H 0.34842 0.73186 0.36346 0.0
H1226 H 0.23246 0.7161 0.35423 0.0
H1227 H 0.26667 0.72738 0.41812 0.0
H1228 H 0.28972 0.75697 0.44653 0.0
H1229 H 0.20309 0.83244 0.44472 0.0
H1230 H 0.17978 0.80364 0.41613 0.0
H1231 H 0.06656 0.63315 0.38093 0.0
H1232 H 0.13012 0.6497 0.38226 0.0
H1233 H 0.10097 0.76131 0.38089 0.0
H1234 H 0.03767 0.74489 0.37871 0.0
H1235 H 0.15479 0.74003 0.40915 0.0
H1236 H 0.12515 0.72904 0.34308 0.0
H1237 H 0.10249 0.69651 0.31547 0.0
H1238 H 0.183 0.61577 0.32299 0.0
H1239 H 0.20565 0.64744 0.35092 0.0
C1240 C 0.30581 0.8065 0.37969 0.0
C1241 C 0.33325 0.78544 0.37202 0.0
C1242 C 0.27241 0.79145 0.38345 0.0
C1243 C 0.26632 0.75486 0.38014 0.0
C1244 C 0.29449 0.73349 0.37346 0.0
C1245 C 0.32754 0.7487 0.36926 0.0
C1246 C 0.2298 0.7397 0.38183 0.0
C1247 C 0.21588 0.72069 0.36646 0.0
C1248 C 0.20778 0.74611 0.39762 0.0
C1249 C 0.22162 0.76347 0.41488 0.0
C1250 C 0.25266 0.75044 0.42369 0.0
C1251 C 0.26576 0.76705 0.43985 0.0
C1252 C 0.24792 0.7966 0.44741 0.0
C1253 C 0.21689 0.80955 0.43885 0.0
C1254 C 0.2037 0.79306 0.42268 0.0
C1255 C 0.07387 0.66116 0.38068 0.0
C1256 C 0.04749 0.6878 0.37945 0.0
C1257 C 0.10998 0.67054 0.38163 0.0
C1258 C 0.11997 0.70667 0.38169 0.0
C1259 C 0.0936 0.7333 0.38098 0.0
C1260 C 0.0576 0.72392 0.3797 0.0
C1261 C 0.15799 0.71692 0.3816 0.0
C1262 C 0.17193 0.73503 0.39717 0.0
C1263 C 0.18026 0.70922 0.36615 0.0
C1264 C 0.16676 0.69034 0.34926 0.0
C1265 C 0.13776 0.70414 0.33899 0.0
C1266 C 0.12496 0.68588 0.32326 0.0
C1267 C 0.1412 0.65401 0.31752 0.0
C1268 C 0.17036 0.64039 0.32748 0.0
C1269 C 0.18318 0.65847 0.34327 0.0
H1270 H 0.13126 0.63994 0.30533 0.0
H1271 H 0.2581 0.80943 0.45991 0.0
loop_
_geom_bond_atom_site_label_1
_geom_bond_atom_site_label_2
_geom_bond_distance
_geom_bond_site_symmetry_2
_ccdc_geom_bond_type
Co0 O3 1.970 . S
Co0 N17 1.989 . S
Co0 O25 1.967 . S
Co0 O32 1.920 . S
Co1 O4 1.966 . S
Co1 N10 2.022 . S
Co1 N18 1.993 . S
Co1 O26 1.941 . S
C2 O3 1.258 . S
C2 O4 1.263 . S
O3 Co0 1.970 . S
O3 C2 1.258 . S
O4 Co1 1.966 . S
O4 C2 1.263 . S
C5 O6 1.235 . S
C5 O32 1.289 . S
O6 C5 1.235 . S
C7 C9 1.400 . S
C7 N10 1.351 . S
C7 C12 1.501 . S
C8 C9 1.387 . S
C8 N11 1.341 . S
C9 C7 1.400 . S
C9 C8 1.387 . S
N10 Co1 2.022 . S
N10 C7 1.351 . S
N10 N11 1.365 . S
N11 C8 1.341 . S
N11 N10 1.365 . S
N11 H31 0.862 . S
C12 C7 1.501 . S
C12 H13 0.961 . S
C12 H14 0.961 . S
C12 H15 0.960 . S
H13 C12 0.961 . S
H14 C12 0.961 . S
H15 C12 0.960 . S
C16 N17 1.342 . S
C16 C20 1.401 1_545 S
C16 C21 1.499 . S
N17 Co0 1.989 . S
N17 C16 1.342 . S
N17 N18 1.388 . S
N18 Co1 1.993 . S
N18 N17 1.388 . S
N18 C19 1.346 1_545 S
C19 N18 1.346 1_565 S
C19 C20 1.396 . S
C19 C29 1.510 . S
C20 C16 1.401 1_565 S
C20 C19 1.396 . S
C21 C16 1.499 . S
C21 H22 0.959 . S
C21 H23 0.960 1_545 S
C21 H24 0.961 1_545 S
H22 C21 0.959 . S
H23 C21 0.960 1_565 S
H24 C21 0.961 1_565 S
O25 Co0 1.967 . S
O25 C33 1.258 . S
O26 Co1 1.941 . S
O26 C33 1.266 . S
H27 C29 0.959 . S
H28 C29 0.961 . S
C29 C19 1.510 . S
C29 H27 0.959 . S
C29 H28 0.961 . S
C29 H30 0.960 . S
H30 C29 0.960 . S
H31 N11 0.862 . S
O32 Co0 1.920 . S
O32 C5 1.289 . S
C33 O25 1.258 . S
C33 O26 1.266 . S
Co34 O37 1.970 . S
Co34 N51 1.989 . S
Co34 O59 1.967 . S
Co34 O66 1.920 . S
Co35 O38 1.966 . S
Co35 N44 2.022 . S
Co35 N52 1.993 . S
Co35 O60 1.941 . S
C36 O37 1.258 . S
C36 O38 1.263 . S
O37 Co34 1.970 . S
O37 C36 1.258 . S
O38 Co35 1.966 . S
O38 C36 1.263 . S
C39 O40 1.235 . S
C39 O66 1.289 . S
O40 C39 1.235 . S
C41 C43 1.400 . S
C41 N44 1.351 . S
C41 C46 1.501 . S
C42 C43 1.387 . S
C42 N45 1.341 . S
C43 C41 1.400 . S
C43 C42 1.387 . S
N44 Co35 2.022 . S
N44 C41 1.351 . S
N44 N45 1.365 . S
N45 C42 1.341 . S
N45 N44 1.365 . S
N45 H65 0.862 . S
C46 C41 1.501 . S
C46 H47 0.961 . S
C46 H48 0.961 . S
C46 H49 0.960 . S
H47 C46 0.961 . S
H48 C46 0.961 . S
H49 C46 0.960 . S
C50 N51 1.342 . S
C50 C54 1.401 . S
C50 C55 1.499 . S
N51 Co34 1.989 . S
N51 C50 1.342 . S
N51 N52 1.388 . S
N52 Co35 1.993 . S
N52 N51 1.388 . S
N52 C53 1.346 . S
C53 N52 1.346 . S
C53 C54 1.396 . S
C53 C63 1.510 . S
C54 C50 1.401 . S
C54 C53 1.396 . S
C55 C50 1.499 . S
C55 H56 0.959 . S
C55 H57 0.960 . S
C55 H58 0.961 . S
H56 C55 0.959 . S
H57 C55 0.960 . S
H58 C55 0.961 . S
O59 Co34 1.967 . S
O59 C67 1.258 . S
O60 Co35 1.941 . S
O60 C67 1.266 . S
H61 C63 0.959 . S
H62 C63 0.961 . S
C63 C53 1.510 . S
C63 H61 0.959 . S
C63 H62 0.961 . S
C63 H64 0.960 . S
H64 C63 0.960 . S
H65 N45 0.862 . S
O66 Co34 1.920 . S
O66 C39 1.289 . S
C67 O59 1.258 . S
C67 O60 1.266 . S
Co68 O71 1.970 . S
Co68 N85 1.989 . S
Co68 O93 1.967 . S
Co68 O100 1.920 . S
Co69 O72 1.966 . S
Co69 N78 2.022 . S
Co69 N86 1.993 . S
Co69 O94 1.941 . S
C70 O71 1.258 . S
C70 O72 1.263 . S
O71 Co68 1.970 . S
O71 C70 1.258 . S
O72 Co69 1.966 . S
O72 C70 1.263 . S
C73 O74 1.235 . S
C73 O100 1.289 . S
O74 C73 1.235 . S
C75 C77 1.400 . S
C75 N78 1.351 . S
C75 C80 1.501 . S
C76 C77 1.387 1_545 S
C76 N79 1.341 1_545 S
C77 C75 1.400 . S
C77 C76 1.387 1_565 S
N78 Co69 2.022 . S
N78 C75 1.351 . S
N78 N79 1.365 . S
N79 C76 1.341 1_565 S
N79 N78 1.365 . S
N79 H99 0.862 1_565 S
C80 C75 1.501 . S
C80 H81 0.961 . S
C80 H82 0.961 . S
C80 H83 0.960 . S
H81 C80 0.961 . S
H82 C80 0.961 . S
H83 C80 0.960 . S
C84 N85 1.342 1_545 S
C84 C88 1.401 . S
C84 C89 1.499 . S
N85 Co68 1.989 . S
N85 C84 1.342 1_565 S
N85 N86 1.388 . S
N86 Co69 1.993 . S
N86 N85 1.388 . S
N86 C87 1.346 1_565 S
C87 N86 1.346 1_545 S
C87 C88 1.396 . S
C87 C97 1.510 . S
C88 C84 1.401 . S
C88 C87 1.396 . S
C89 C84 1.499 . S
C89 H90 0.959 1_545 S
C89 H91 0.960 . S
C89 H92 0.961 . S
H90 C89 0.959 1_565 S
H91 C89 0.960 . S
H92 C89 0.961 . S
O93 Co68 1.967 . S
O93 C101 1.258 . S
O94 Co69 1.941 . S
O94 C101 1.266 . S
H95 C97 0.959 . S
H96 C97 0.961 . S
C97 C87 1.510 . S
C97 H95 0.959 . S
C97 H96 0.961 . S
C97 H98 0.960 . S
H98 C97 0.960 . S
H99 N79 0.862 1_545 S
O100 Co68 1.920 . S
O100 C73 1.289 . S
C101 O93 1.258 . S
C101 O94 1.266 . S
Co102 O105 1.970 . S
Co102 N119 1.989 . S
Co102 O127 1.967 . S
Co102 O134 1.920 . S
Co103 O106 1.966 . S
Co103 N112 2.022 . S
Co103 N120 1.993 . S
Co103 O128 1.941 . S
C104 O105 1.258 . S
C104 O106 1.263 . S
O105 Co102 1.970 . S
O105 C104 1.258 . S
O106 Co103 1.966 . S
O106 C104 1.263 . S
C107 O108 1.235 . S
C107 O134 1.289 . S
O108 C107 1.235 . S
C109 C111 1.400 . S
C109 N112 1.351 . S
C109 C114 1.501 . S
C110 C111 1.387 . S
C110 N113 1.341 . S
C111 C109 1.400 . S
C111 C110 1.387 . S
N112 Co103 2.022 . S
N112 C109 1.351 . S
N112 N113 1.365 . S
N113 C110 1.341 . S
N113 N112 1.365 . S
N113 H133 0.862 . S
C114 C109 1.501 . S
C114 H115 0.961 . S
C114 H116 0.961 . S
C114 H117 0.960 . S
H115 C114 0.961 . S
H116 C114 0.961 . S
H117 C114 0.960 . S
C118 N119 1.342 . S
C118 C122 1.401 . S
C118 C123 1.499 . S
N119 Co102 1.989 . S
N119 C118 1.342 . S
N119 N120 1.388 . S
N120 Co103 1.993 . S
N120 N119 1.388 . S
N120 C121 1.346 . S
C121 N120 1.346 . S
C121 C122 1.396 . S
C121 C131 1.510 . S
C122 C118 1.401 . S
C122 C121 1.396 . S
C123 C118 1.499 . S
C123 H124 0.959 . S
C123 H125 0.960 . S
C123 H126 0.961 . S
H124 C123 0.959 . S
H125 C123 0.960 . S
H126 C123 0.961 . S
O127 Co102 1.967 . S
O127 C135 1.258 . S
O128 Co103 1.941 . S
O128 C135 1.266 . S
H129 C131 0.959 . S
H130 C131 0.961 . S
C131 C121 1.510 . S
C131 H129 0.959 . S
C131 H130 0.961 . S
C131 H132 0.960 . S
H132 C131 0.960 . S
H133 N113 0.862 . S
O134 Co102 1.920 . S
O134 C107 1.289 . S
C135 O127 1.258 . S
C135 O128 1.266 . S
Co136 O139 1.970 . S
Co136 N153 1.989 . S
Co136 O161 1.967 . S
Co136 O168 1.920 . S
Co137 O140 1.966 . S
Co137 N146 2.022 . S
Co137 N154 1.993 . S
Co137 O162 1.941 . S
C138 O139 1.258 . S
C138 O140 1.263 . S
O139 Co136 1.970 . S
O139 C138 1.258 . S
O140 Co137 1.966 . S
O140 C138 1.263 . S
C141 O142 1.235 . S
C141 O168 1.289 . S
O142 C141 1.235 . S
C143 C145 1.400 . S
C143 N146 1.351 . S
C143 C148 1.501 . S
C144 C145 1.387 . S
C144 N147 1.341 . S
C145 C143 1.400 . S
C145 C144 1.387 . S
N146 Co137 2.022 . S
N146 C143 1.351 . S
N146 N147 1.365 . S
N147 C144 1.341 . S
N147 N146 1.365 . S
N147 H167 0.862 . S
C148 C143 1.501 . S
C148 H149 0.961 . S
C148 H150 0.961 . S
C148 H151 0.960 . S
H149 C148 0.961 . S
H150 C148 0.961 . S
H151 C148 0.960 . S
C152 N153 1.342 . S
C152 C156 1.401 . S
C152 C157 1.499 . S
N153 Co136 1.989 . S
N153 C152 1.342 . S
N153 N154 1.388 . S
N154 Co137 1.993 . S
N154 N153 1.388 . S
N154 C155 1.346 . S
C155 N154 1.346 . S
C155 C156 1.396 . S
C155 C165 1.510 . S
C156 C152 1.401 . S
C156 C155 1.396 . S
C157 C152 1.499 . S
C157 H158 0.959 . S
C157 H159 0.960 . S
C157 H160 0.961 . S
H158 C157 0.959 . S
H159 C157 0.960 . S
H160 C157 0.961 . S
O161 Co136 1.967 . S
O161 C169 1.258 . S
O162 Co137 1.941 . S
O162 C169 1.266 . S
H163 C165 0.959 . S
H164 C165 0.961 . S
C165 C155 1.510 . S
C165 H163 0.959 . S
C165 H164 0.961 . S
C165 H166 0.960 . S
H166 C165 0.960 . S
H167 N147 0.862 . S
O168 Co136 1.920 . S
O168 C141 1.289 . S
C169 O161 1.258 . S
C169 O162 1.266 . S
Co170 O173 1.970 . S
Co170 N187 1.989 . S
Co170 O195 1.967 . S
Co170 O202 1.920 . S
Co171 O174 1.966 . S
Co171 N180 2.022 . S
Co171 N188 1.993 . S
Co171 O196 1.941 . S
C172 O173 1.258 . S
C172 O174 1.263 . S
O173 Co170 1.970 . S
O173 C172 1.258 . S
O174 Co171 1.966 . S
O174 C172 1.263 . S
C175 O176 1.235 . S
C175 O202 1.289 . S
O176 C175 1.235 . S
C177 C179 1.400 . S
C177 N180 1.351 . S
C177 C182 1.501 . S
C178 C179 1.387 . S
C178 N181 1.341 . S
C179 C177 1.400 . S
C179 C178 1.387 . S
N180 Co171 2.022 . S
N180 C177 1.351 . S
N180 N181 1.365 . S
N181 C178 1.341 . S
N181 N180 1.365 . S
N181 H201 0.862 . S
C182 C177 1.501 . S
C182 H183 0.961 . S
C182 H184 0.961 . S
C182 H185 0.960 . S
H183 C182 0.961 . S
H184 C182 0.961 . S
H185 C182 0.960 . S
C186 N187 1.342 . S
C186 C190 1.401 1_455 S
C186 C191 1.499 . S
N187 Co170 1.989 . S
N187 C186 1.342 . S
N187 N188 1.388 . S
N188 Co171 1.993 . S
N188 N187 1.388 . S
N188 C189 1.346 1_455 S
C189 N188 1.346 1_655 S
C189 C190 1.396 . S
C189 C199 1.510 . S
C190 C186 1.401 1_655 S
C190 C189 1.396 . S
C191 C186 1.499 . S
C191 H192 0.959 . S
C191 H193 0.960 1_455 S
C191 H194 0.961 1_455 S
H192 C191 0.959 . S
H193 C191 0.960 1_655 S
H194 C191 0.961 1_655 S
O195 Co170 1.967 . S
O195 C203 1.258 . S
O196 Co171 1.941 . S
O196 C203 1.266 . S
H197 C199 0.959 . S
H198 C199 0.961 . S
C199 C189 1.510 . S
C199 H197 0.959 . S
C199 H198 0.961 . S
C199 H200 0.960 . S
H200 C199 0.960 . S
H201 N181 0.862 . S
O202 Co170 1.920 . S
O202 C175 1.289 . S
C203 O195 1.258 . S
C203 O196 1.266 . S
Co204 O207 1.970 . S
Co204 N221 1.989 . S
Co204 O229 1.967 . S
Co204 O236 1.920 . S
Co205 O208 1.966 . S
Co205 N214 2.022 . S
Co205 N222 1.993 . S
Co205 O230 1.941 . S
C206 O207 1.258 . S
C206 O208 1.263 . S
O207 Co204 1.970 . S
O207 C206 1.258 . S
O208 Co205 1.966 . S
O208 C206 1.263 . S
C209 O210 1.235 . S
C209 O236 1.289 . S
O210 C209 1.235 . S
C211 C213 1.400 . S
C211 N214 1.351 . S
C211 C216 1.501 . S
C212 C213 1.387 . S
C212 N215 1.341 . S
C213 C211 1.400 . S
C213 C212 1.387 . S
N214 Co205 2.022 . S
N214 C211 1.351 . S
N214 N215 1.365 . S
N215 C212 1.341 . S
N215 N214 1.365 . S
N215 H235 0.862 . S
C216 C211 1.501 . S
C216 H217 0.961 . S
C216 H218 0.961 . S
C216 H219 0.960 . S
H217 C216 0.961 . S
H218 C216 0.961 . S
H219 C216 0.960 . S
C220 N221 1.342 . S
C220 C224 1.401 . S
C220 C225 1.499 . S
N221 Co204 1.989 . S
N221 C220 1.342 . S
N221 N222 1.388 . S
N222 Co205 1.993 . S
N222 N221 1.388 . S
N222 C223 1.346 . S
C223 N222 1.346 . S
C223 C224 1.396 . S
C223 C233 1.510 . S
C224 C220 1.401 . S
C224 C223 1.396 . S
C225 C220 1.499 . S
C225 H226 0.959 . S
C225 H227 0.960 . S
C225 H228 0.961 . S
H226 C225 0.959 . S
H227 C225 0.960 . S
H228 C225 0.961 . S
O229 Co204 1.967 . S
O229 C237 1.258 . S
O230 Co205 1.941 . S
O230 C237 1.266 . S
H231 C233 0.959 . S
H232 C233 0.961 . S
C233 C223 1.510 . S
C233 H231 0.959 . S
C233 H232 0.961 . S
C233 H234 0.960 . S
H234 C233 0.960 . S
H235 N215 0.862 . S
O236 Co204 1.920 . S
O236 C209 1.289 . S
C237 O229 1.258 . S
C237 O230 1.266 . S
Co238 O241 1.970 . S
Co238 N255 1.989 . S
Co238 O263 1.967 . S
Co238 O270 1.920 . S
Co239 O242 1.966 . S
Co239 N248 2.022 . S
Co239 N256 1.993 . S
Co239 O264 1.941 . S
C240 O241 1.258 . S
C240 O242 1.263 . S
O241 Co238 1.970 . S
O241 C240 1.258 . S
O242 Co239 1.966 . S
O242 C240 1.263 . S
C243 O244 1.235 . S
C243 O270 1.289 . S
O244 C243 1.235 . S
C245 C247 1.400 . S
C245 N248 1.351 . S
C245 C250 1.501 . S
C246 C247 1.387 1_455 S
C246 N249 1.341 1_455 S
C247 C245 1.400 . S
C247 C246 1.387 1_655 S
N248 Co239 2.022 . S
N248 C245 1.351 . S
N248 N249 1.365 . S
N249 C246 1.341 1_655 S
N249 N248 1.365 . S
N249 H269 0.862 1_655 S
C250 C245 1.501 . S
C250 H251 0.961 . S
C250 H252 0.961 . S
C250 H253 0.960 . S
H251 C250 0.961 . S
H252 C250 0.961 . S
H253 C250 0.960 . S
C254 N255 1.342 1_455 S
C254 C258 1.401 . S
C254 C259 1.499 . S
N255 Co238 1.989 . S
N255 C254 1.342 1_655 S
N255 N256 1.388 . S
N256 Co239 1.993 . S
N256 N255 1.388 . S
N256 C257 1.346 1_655 S
C257 N256 1.346 1_455 S
C257 C258 1.396 . S
C257 C267 1.510 . S
C258 C254 1.401 . S
C258 C257 1.396 . S
C259 C254 1.499 . S
C259 H260 0.959 1_455 S
C259 H261 0.960 . S
C259 H262 0.961 . S
H260 C259 0.959 1_655 S
H261 C259 0.960 . S
H262 C259 0.961 . S
O263 Co238 1.967 . S
O263 C271 1.258 . S
O264 Co239 1.941 . S
O264 C271 1.266 . S
H265 C267 0.959 . S
H266 C267 0.961 . S
C267 C257 1.510 . S
C267 H265 0.959 . S
C267 H266 0.961 . S
C267 H268 0.960 . S
H268 C267 0.960 . S
H269 N249 0.862 1_455 S
O270 Co238 1.920 . S
O270 C243 1.289 . S
C271 O263 1.258 . S
C271 O264 1.266 . S
H272 C290 0.951 . S
H273 C292 0.951 . S
H274 C294 0.950 . S
H275 C295 0.950 . S
H276 C297 0.950 . S
H277 C300 0.950 . S
H278 C301 0.950 . S
H279 C303 0.950 . S
H280 C304 0.950 . S
H281 C305 0.951 . S
H282 C307 0.951 . S
H283 C309 0.950 . S
H284 C310 0.950 . S
H285 C312 0.950 . S
H286 C315 0.950 . S
H287 C316 0.950 . S
H288 C318 0.950 . S
H289 C319 0.950 . S
C290 H272 0.951 . S
C290 C291 1.366 . S
C290 C292 1.388 . S
C291 C290 1.366 . S
C291 C295 1.385 . S
C292 H273 0.951 . S
C292 C290 1.388 . S
C292 C293 1.366 . S
C293 C292 1.366 . S
C293 C294 1.414 . S
C293 C296 1.499 . S
C294 H274 0.950 . S
C294 C293 1.414 . S
C294 C295 1.374 . S
C295 H275 0.950 . S
C295 C291 1.385 . S
C295 C294 1.374 . S
C296 C293 1.499 . S
C296 C297 1.373 . S
C296 C298 1.390 . S
C297 H276 0.950 . S
C297 C296 1.373 . S
C297 C313 1.376 1_554 S
C298 C296 1.390 . S
C298 C299 1.524 1_554 S
C298 C312 1.376 1_554 S
C299 C298 1.524 1_556 S
C299 C300 1.383 1_556 S
C299 C304 1.377 . S
C300 H277 0.950 . S
C300 C299 1.383 1_554 S
C300 C301 1.334 . S
C301 H278 0.950 . S
C301 C300 1.334 . S
C301 C302 1.287 . S
C302 C301 1.287 . S
C302 C303 1.524 1_554 S
C302 H321 0.913 . S
C303 H279 0.950 . S
C303 C302 1.524 1_556 S
C303 C304 1.415 . S
C304 H280 0.950 . S
C304 C299 1.377 . S
C304 C303 1.415 . S
C305 H281 0.951 . S
C305 C306 1.366 . S
C305 C307 1.388 . S
C306 C305 1.366 . S
C306 C310 1.385 . S
C307 H282 0.951 . S
C307 C305 1.388 . S
C307 C308 1.366 . S
C308 C307 1.366 . S
C308 C309 1.414 . S
C308 C311 1.499 . S
C309 H283 0.950 . S
C309 C308 1.414 . S
C309 C310 1.374 . S
C310 H284 0.950 . S
C310 C306 1.385 . S
C310 C309 1.374 . S
C311 C308 1.499 . S
C311 C312 1.373 . S
C311 C313 1.389 . S
C312 H285 0.950 . S
C312 C298 1.376 1_556 S
C312 C311 1.373 . S
C313 C297 1.376 1_556 S
C313 C311 1.389 . S
C313 C314 1.524 1_556 S
C314 C313 1.524 1_554 S
C314 C315 1.383 1_554 S
C314 C319 1.377 . S
C315 H286 0.950 . S
C315 C314 1.383 1_556 S
C315 C316 1.334 . S
C316 H287 0.950 . S
C316 C315 1.334 . S
C316 C317 1.287 . S
C317 C316 1.287 . S
C317 C318 1.524 1_556 S
C317 H320 1.002 1_455 S
C318 H288 0.950 . S
C318 C317 1.524 1_554 S
C318 C319 1.415 . S
C319 H289 0.950 . S
C319 C314 1.377 . S
C319 C318 1.415 . S
H320 C317 1.002 1_655 S
H321 C302 0.913 . S
H322 C340 0.951 . S
H323 C342 0.951 . S
H324 C344 0.950 . S
H325 C345 0.950 . S
H326 C347 0.950 . S
H327 C350 0.950 . S
H328 C351 0.950 . S
H329 C353 0.950 . S
H330 C354 0.950 . S
H331 C355 0.951 . S
H332 C357 0.951 . S
H333 C359 0.950 . S
H334 C360 0.950 . S
H335 C362 0.950 . S
H336 C365 0.950 . S
H337 C366 0.950 . S
H338 C368 0.950 . S
H339 C369 0.950 . S
C340 H322 0.951 . S
C340 C341 1.366 . S
C340 C342 1.388 . S
C341 C340 1.366 . S
C341 C345 1.385 . S
C342 H323 0.951 . S
C342 C340 1.388 . S
C342 C343 1.366 . S
C343 C342 1.366 . S
C343 C344 1.414 . S
C343 C346 1.499 . S
C344 H324 0.950 . S
C344 C343 1.414 . S
C344 C345 1.374 . S
C345 H325 0.950 . S
C345 C341 1.385 . S
C345 C344 1.374 . S
C346 C343 1.499 . S
C346 C347 1.373 . S
C346 C348 1.389 . S
C347 H326 0.950 . S
C347 C346 1.373 . S
C347 C363 1.377 . S
C348 C346 1.389 . S
C348 C349 1.524 . S
C348 C362 1.377 . S
C349 C348 1.524 . S
C349 C350 1.397 . S
C349 C354 1.363 . S
C350 H327 0.950 . S
C350 C349 1.397 . S
C350 C351 1.334 . S
C351 H328 0.950 . S
C351 C350 1.334 . S
C351 C352 1.287 . S
C352 C351 1.287 . S
C352 C353 1.524 . S
C352 H371 0.913 . S
C353 H329 0.950 . S
C353 C352 1.524 . S
C353 C354 1.415 . S
C354 H330 0.950 . S
C354 C349 1.363 . S
C354 C353 1.415 . S
C355 H331 0.951 . S
C355 C356 1.366 . S
C355 C357 1.388 . S
C356 C355 1.366 . S
C356 C360 1.385 . S
C357 H332 0.951 . S
C357 C355 1.388 . S
C357 C358 1.366 . S
C358 C357 1.366 . S
C358 C359 1.414 . S
C358 C361 1.499 . S
C359 H333 0.950 . S
C359 C358 1.414 . S
C359 C360 1.374 . S
C360 H334 0.950 . S
C360 C356 1.385 . S
C360 C359 1.374 . S
C361 C358 1.499 . S
C361 C362 1.373 . S
C361 C363 1.389 . S
C362 H335 0.950 . S
C362 C348 1.377 . S
C362 C361 1.373 . S
C363 C347 1.377 . S
C363 C361 1.389 . S
C363 C364 1.524 . S
C364 C363 1.524 . S
C364 C365 1.397 . S
C364 C369 1.363 . S
C365 H336 0.950 . S
C365 C364 1.397 . S
C365 C366 1.334 . S
C366 H337 0.950 . S
C366 C365 1.334 . S
C366 C367 1.287 . S
C367 C366 1.287 . S
C367 C368 1.524 . S
C367 H370 0.999 . S
C368 H338 0.950 . S
C368 C367 1.524 . S
C368 C369 1.415 . S
C369 H339 0.950 . S
C369 C364 1.363 . S
C369 C368 1.415 . S
H370 C367 0.999 . S
H371 C352 0.913 . S
H372 C390 0.951 . S
H373 C392 0.951 . S
H374 C394 0.950 . S
H375 C395 0.950 . S
H376 C397 0.950 . S
H377 C400 0.950 . S
H378 C401 0.950 . S
H379 C403 0.950 . S
H380 C404 0.950 . S
H381 C405 0.951 . S
H382 C407 0.951 . S
H383 C409 0.950 . S
H384 C410 0.950 . S
H385 C412 0.950 . S
H386 C415 0.950 . S
H387 C416 0.950 . S
H388 C418 0.950 . S
H389 C419 0.950 . S
C390 H372 0.951 . S
C390 C391 1.366 . S
C390 C392 1.388 . S
C391 C390 1.366 . S
C391 C395 1.385 . S
C392 H373 0.951 . S
C392 C390 1.388 . S
C392 C393 1.366 . S
C393 C392 1.366 . S
C393 C394 1.414 . S
C393 C396 1.499 . S
C394 H374 0.950 . S
C394 C393 1.414 . S
C394 C395 1.374 . S
C395 H375 0.950 . S
C395 C391 1.385 . S
C395 C394 1.374 . S
C396 C393 1.499 . S
C396 C397 1.373 . S
C396 C398 1.389 . S
C397 H376 0.950 . S
C397 C396 1.373 . S
C397 C413 1.377 . S
C398 C396 1.389 . S
C398 C399 1.524 . S
C398 C412 1.377 . S
C399 C398 1.524 . S
C399 C400 1.397 . S
C399 C404 1.363 . S
C400 H377 0.950 . S
C400 C399 1.397 . S
C400 C401 1.334 . S
C401 H378 0.950 . S
C401 C400 1.334 . S
C401 C402 1.287 . S
C402 C401 1.287 . S
C402 C403 1.524 . S
C402 H421 0.913 . S
C403 H379 0.950 . S
C403 C402 1.524 . S
C403 C404 1.415 . S
C404 H380 0.950 . S
C404 C399 1.363 . S
C404 C403 1.415 . S
C405 H381 0.951 . S
C405 C406 1.366 . S
C405 C407 1.388 . S
C406 C405 1.366 . S
C406 C410 1.385 . S
C407 H382 0.951 . S
C407 C405 1.388 . S
C407 C408 1.366 . S
C408 C407 1.366 . S
C408 C409 1.414 . S
C408 C411 1.499 . S
C409 H383 0.950 . S
C409 C408 1.414 . S
C409 C410 1.374 . S
C410 H384 0.950 . S
C410 C406 1.385 . S
C410 C409 1.374 . S
C411 C408 1.499 . S
C411 C412 1.373 . S
C411 C413 1.389 . S
C412 H385 0.950 . S
C412 C398 1.377 . S
C412 C411 1.373 . S
C413 C397 1.377 . S
C413 C411 1.389 . S
C413 C414 1.524 . S
C414 C413 1.524 . S
C414 C415 1.397 . S
C414 C419 1.363 . S
C415 H386 0.950 . S
C415 C414 1.397 . S
C415 C416 1.334 . S
C416 H387 0.950 . S
C416 C415 1.334 . S
C416 C417 1.287 . S
C417 C416 1.287 . S
C417 C418 1.524 . S
C417 H420 0.999 . S
C418 H388 0.950 . S
C418 C417 1.524 . S
C418 C419 1.415 . S
C419 H389 0.950 . S
C419 C414 1.363 . S
C419 C418 1.415 . S
H420 C417 0.999 . S
H421 C402 0.913 . S
H422 C440 0.951 . S
H423 C442 0.951 . S
H424 C444 0.950 . S
H425 C445 0.950 . S
H426 C447 0.950 . S
H427 C450 0.950 . S
H428 C451 0.950 . S
H429 C453 0.950 . S
H430 C454 0.950 . S
H431 C455 0.951 . S
H432 C457 0.951 . S
H433 C459 0.950 . S
H434 C460 0.950 . S
H435 C462 0.950 . S
H436 C465 0.950 . S
H437 C466 0.950 . S
H438 C468 0.950 . S
H439 C469 0.950 . S
C440 H422 0.951 . S
C440 C441 1.366 . S
C440 C442 1.388 . S
C441 C440 1.366 . S
C441 C445 1.385 . S
C442 H423 0.951 . S
C442 C440 1.388 . S
C442 C443 1.366 . S
C443 C442 1.366 . S
C443 C444 1.414 . S
C443 C446 1.499 . S
C444 H424 0.950 . S
C444 C443 1.414 . S
C444 C445 1.374 . S
C445 H425 0.950 . S
C445 C441 1.385 . S
C445 C444 1.374 . S
C446 C443 1.499 . S
C446 C447 1.373 . S
C446 C448 1.389 . S
C447 H426 0.950 . S
C447 C446 1.373 . S
C447 C463 1.377 . S
C448 C446 1.389 . S
C448 C449 1.524 . S
C448 C462 1.377 . S
C449 C448 1.524 . S
C449 C450 1.397 . S
C449 C454 1.363 . S
C450 H427 0.950 . S
C450 C449 1.397 . S
C450 C451 1.334 . S
C451 H428 0.950 . S
C451 C450 1.334 . S
C451 C452 1.287 . S
C452 C451 1.287 . S
C452 C453 1.524 . S
C452 H471 0.913 . S
C453 H429 0.950 . S
C453 C452 1.524 . S
C453 C454 1.415 . S
C454 H430 0.950 . S
C454 C449 1.363 . S
C454 C453 1.415 . S
C455 H431 0.951 . S
C455 C456 1.366 . S
C455 C457 1.388 . S
C456 C455 1.366 . S
C456 C460 1.385 . S
C457 H432 0.951 . S
C457 C455 1.388 . S
C457 C458 1.366 . S
C458 C457 1.366 . S
C458 C459 1.414 . S
C458 C461 1.499 . S
C459 H433 0.950 . S
C459 C458 1.414 . S
C459 C460 1.374 . S
C460 H434 0.950 . S
C460 C456 1.385 . S
C460 C459 1.374 . S
C461 C458 1.499 . S
C461 C462 1.373 . S
C461 C463 1.389 . S
C462 H435 0.950 . S
C462 C448 1.377 . S
C462 C461 1.373 . S
C463 C447 1.377 . S
C463 C461 1.389 . S
C463 C464 1.524 . S
C464 C463 1.524 . S
C464 C465 1.397 . S
C464 C469 1.363 . S
C465 H436 0.950 . S
C465 C464 1.397 . S
C465 C466 1.334 . S
C466 H437 0.950 . S
C466 C465 1.334 . S
C466 C467 1.287 . S
C467 C466 1.287 . S
C467 C468 1.524 . S
C467 H470 0.999 . S
C468 H438 0.950 . S
C468 C467 1.524 . S
C468 C469 1.415 . S
C469 H439 0.950 . S
C469 C464 1.363 . S
C469 C468 1.415 . S
H470 C467 0.999 . S
H471 C452 0.913 . S
H472 C490 0.951 . S
H473 C492 0.951 . S
H474 C494 0.950 . S
H475 C495 0.950 . S
H476 C497 0.950 1_556 S
H477 C500 0.950 . S
H478 C501 0.950 . S
H479 C503 0.950 . S
H480 C504 0.950 . S
H481 C505 0.951 . S
H482 C507 0.951 . S
H483 C509 0.950 . S
H484 C510 0.950 . S
H485 C512 0.950 . S
H486 C515 0.950 . S
H487 C516 0.950 . S
H488 C518 0.950 . S
H489 C519 0.950 . S
C490 H472 0.951 . S
C490 C491 1.366 . S
C490 C492 1.388 . S
C491 C490 1.366 . S
C491 C495 1.385 . S
C492 H473 0.951 . S
C492 C490 1.388 . S
C492 C493 1.366 . S
C493 C492 1.366 . S
C493 C494 1.414 . S
C493 C496 1.499 . S
C494 H474 0.950 . S
C494 C493 1.414 . S
C494 C495 1.374 . S
C495 H475 0.950 . S
C495 C491 1.385 . S
C495 C494 1.374 . S
C496 C493 1.499 . S
C496 C497 1.373 1_556 S
C496 C498 1.389 . S
C497 H476 0.950 1_554 S
C497 C496 1.373 1_554 S
C497 C513 1.377 . S
C498 C496 1.389 . S
C498 C499 1.524 . S
C498 C512 1.377 1_556 S
C499 C498 1.524 . S
C499 C500 1.397 . S
C499 C504 1.363 . S
C500 H477 0.950 . S
C500 C499 1.397 . S
C500 C501 1.334 . S
C501 H478 0.950 . S
C501 C500 1.334 . S
C501 C502 1.287 . S
C502 C501 1.287 . S
C502 C503 1.524 . S
C502 H521 0.913 . S
C503 H479 0.950 . S
C503 C502 1.524 . S
C503 C504 1.415 . S
C504 H480 0.950 . S
C504 C499 1.363 . S
C504 C503 1.415 . S
C505 H481 0.951 . S
C505 C506 1.366 . S
C505 C507 1.388 . S
C506 C505 1.366 . S
C506 C510 1.385 . S
C507 H482 0.951 . S
C507 C505 1.388 . S
C507 C508 1.366 . S
C508 C507 1.366 . S
C508 C509 1.414 . S
C508 C511 1.499 . S
C509 H483 0.950 . S
C509 C508 1.414 . S
C509 C510 1.374 . S
C510 H484 0.950 . S
C510 C506 1.385 . S
C510 C509 1.374 . S
C511 C508 1.499 . S
C511 C512 1.373 . S
C511 C513 1.389 . S
C512 H485 0.950 . S
C512 C498 1.377 1_554 S
C512 C511 1.373 . S
C513 C497 1.377 . S
C513 C511 1.389 . S
C513 C514 1.524 . S
C514 C513 1.524 . S
C514 C515 1.397 . S
C514 C519 1.363 . S
C515 H486 0.950 . S
C515 C514 1.397 . S
C515 C516 1.334 1_545 S
C516 H487 0.950 . S
C516 C515 1.334 1_565 S
C516 C517 1.287 . S
C517 C516 1.287 . S
C517 C518 1.524 . S
C517 H520 0.999 . S
C518 H488 0.950 . S
C518 C517 1.524 . S
C518 C519 1.415 1_565 S
C519 H489 0.950 . S
C519 C514 1.363 . S
C519 C518 1.415 1_545 S
H520 C517 0.999 . S
H521 C502 0.913 . S
H522 C540 0.951 . S
H523 C542 0.951 . S
H524 C544 0.950 . S
H525 C545 0.950 . S
H526 C547 0.950 . S
H527 C550 0.950 . S
H528 C551 0.950 . S
H529 C553 0.950 . S
H530 C554 0.950 . S
H531 C555 0.951 . S
H532 C557 0.951 . S
H533 C559 0.950 . S
H534 C560 0.950 . S
H535 C562 0.950 . S
H536 C565 0.950 . S
H537 C566 0.950 . S
H538 C568 0.950 . S
H539 C569 0.950 1_565 S
C540 H522 0.951 . S
C540 C541 1.366 . S
C540 C542 1.388 . S
C541 C540 1.366 . S
C541 C545 1.385 . S
C542 H523 0.951 . S
C542 C540 1.388 . S
C542 C543 1.366 . S
C543 C542 1.366 . S
C543 C544 1.414 . S
C543 C546 1.499 . S
C544 H524 0.950 . S
C544 C543 1.414 . S
C544 C545 1.374 . S
C545 H525 0.950 . S
C545 C541 1.385 . S
C545 C544 1.374 . S
C546 C543 1.499 . S
C546 C547 1.373 . S
C546 C548 1.389 . S
C547 H526 0.950 . S
C547 C546 1.373 . S
C547 C563 1.377 . S
C548 C546 1.389 . S
C548 C549 1.524 . S
C548 C562 1.377 . S
C549 C548 1.524 . S
C549 C550 1.397 . S
C549 C554 1.363 . S
C550 H527 0.950 . S
C550 C549 1.397 . S
C550 C551 1.334 . S
C551 H528 0.950 . S
C551 C550 1.334 . S
C551 C552 1.287 . S
C552 C551 1.287 . S
C552 C553 1.524 . S
C552 H571 0.913 . S
C553 H529 0.950 . S
C553 C552 1.524 . S
C553 C554 1.415 . S
C554 H530 0.950 . S
C554 C549 1.363 . S
C554 C553 1.415 . S
C555 H531 0.951 . S
C555 C556 1.366 . S
C555 C557 1.388 1_545 S
C556 C555 1.366 . S
C556 C560 1.385 . S
C557 H532 0.951 . S
C557 C555 1.388 1_565 S
C557 C558 1.366 . S
C558 C557 1.366 . S
C558 C559 1.414 1_565 S
C558 C561 1.499 . S
C559 H533 0.950 . S
C559 C558 1.414 1_545 S
C559 C560 1.374 . S
C560 H534 0.950 . S
C560 C556 1.385 . S
C560 C559 1.374 . S
C561 C558 1.499 . S
C561 C562 1.373 . S
C561 C563 1.389 . S
C562 H535 0.950 . S
C562 C548 1.377 . S
C562 C561 1.373 . S
C563 C547 1.377 . S
C563 C561 1.389 . S
C563 C564 1.524 1_565 S
C564 C563 1.524 1_545 S
C564 C565 1.397 . S
C564 C569 1.363 . S
C565 H536 0.950 . S
C565 C564 1.397 . S
C565 C566 1.334 . S
C566 H537 0.950 . S
C566 C565 1.334 . S
C566 C567 1.287 . S
C567 C566 1.287 . S
C567 C568 1.524 . S
C567 H570 0.999 . S
C568 H538 0.950 . S
C568 C567 1.524 . S
C568 C569 1.415 . S
C569 H539 0.950 1_545 S
C569 C564 1.363 . S
C569 C568 1.415 . S
H570 C567 0.999 . S
H571 C552 0.913 . S
H572 C590 0.951 . S
H573 C592 0.951 . S
H574 C594 0.950 . S
H575 C595 0.950 . S
H576 C597 0.950 . S
H577 C600 0.950 . S
H578 C601 0.950 . S
H579 C603 0.950 . S
H580 C604 0.950 . S
H581 C605 0.951 . S
H582 C607 0.951 . S
H583 C609 0.950 . S
H584 C610 0.950 . S
H585 C612 0.950 . S
H586 C615 0.950 . S
H587 C616 0.950 . S
H588 C618 0.950 . S
H589 C619 0.950 . S
C590 H572 0.951 . S
C590 C591 1.366 . S
C590 C592 1.388 . S
C591 C590 1.366 . S
C591 C595 1.385 . S
C592 H573 0.951 . S
C592 C590 1.388 . S
C592 C593 1.366 . S
C593 C592 1.366 . S
C593 C594 1.414 . S
C593 C596 1.499 . S
C594 H574 0.950 . S
C594 C593 1.414 . S
C594 C595 1.374 . S
C595 H575 0.950 . S
C595 C591 1.385 . S
C595 C594 1.374 . S
C596 C593 1.499 . S
C596 C597 1.373 . S
C596 C598 1.389 . S
C597 H576 0.950 . S
C597 C596 1.373 . S
C597 C613 1.377 . S
C598 C596 1.389 . S
C598 C599 1.524 . S
C598 C612 1.377 . S
C599 C598 1.524 . S
C599 C600 1.397 . S
C599 C604 1.363 . S
C600 H577 0.950 . S
C600 C599 1.397 . S
C600 C601 1.334 1_565 S
C601 H578 0.950 . S
C601 C600 1.334 1_545 S
C601 C602 1.287 . S
C602 C601 1.287 . S
C602 C603 1.524 . S
C602 H621 0.913 . S
C603 H579 0.950 . S
C603 C602 1.524 . S
C603 C604 1.415 1_545 S
C604 H580 0.950 . S
C604 C599 1.363 . S
C604 C603 1.415 1_565 S
C605 H581 0.951 . S
C605 C606 1.366 . S
C605 C607 1.388 . S
C606 C605 1.366 . S
C606 C610 1.385 . S
C607 H582 0.951 . S
C607 C605 1.388 . S
C607 C608 1.366 . S
C608 C607 1.366 . S
C608 C609 1.414 . S
C608 C611 1.499 . S
C609 H583 0.950 . S
C609 C608 1.414 . S
C609 C610 1.374 . S
C610 H584 0.950 . S
C610 C606 1.385 . S
C610 C609 1.374 . S
C611 C608 1.499 . S
C611 C612 1.373 . S
C611 C613 1.389 . S
C612 H585 0.950 . S
C612 C598 1.377 . S
C612 C611 1.373 . S
C613 C597 1.377 . S
C613 C611 1.389 . S
C613 C614 1.524 . S
C614 C613 1.524 . S
C614 C615 1.397 . S
C614 C619 1.363 . S
C615 H586 0.950 . S
C615 C614 1.397 . S
C615 C616 1.334 . S
C616 H587 0.950 . S
C616 C615 1.334 . S
C616 C617 1.287 . S
C617 C616 1.287 . S
C617 C618 1.524 . S
C617 H620 0.999 . S
C618 H588 0.950 . S
C618 C617 1.524 . S
C618 C619 1.415 . S
C619 H589 0.950 . S
C619 C614 1.363 . S
C619 C618 1.415 . S
H620 C617 0.999 . S
H621 C602 0.913 . S
H622 C640 0.951 . S
H623 C642 0.951 . S
H624 C644 0.950 . S
H625 C645 0.950 . S
H626 C647 0.950 . S
H627 C650 0.950 . S
H628 C651 0.950 . S
H629 C653 0.950 . S
H630 C654 0.950 . S
H631 C655 0.951 . S
H632 C657 0.951 . S
H633 C659 0.950 . S
H634 C660 0.950 . S
H635 C662 0.950 . S
H636 C665 0.950 . S
H637 C666 0.950 . S
H638 C668 0.950 . S
H639 C669 0.950 . S
C640 H622 0.951 . S
C640 C641 1.366 . S
C640 C642 1.388 . S
C641 C640 1.366 . S
C641 C645 1.385 . S
C642 H623 0.951 . S
C642 C640 1.388 . S
C642 C643 1.366 . S
C643 C642 1.366 . S
C643 C644 1.414 . S
C643 C646 1.499 . S
C644 H624 0.950 . S
C644 C643 1.414 . S
C644 C645 1.374 . S
C645 H625 0.950 . S
C645 C641 1.385 . S
C645 C644 1.374 . S
C646 C643 1.499 . S
C646 C647 1.373 . S
C646 C648 1.389 . S
C647 H626 0.950 . S
C647 C646 1.373 . S
C647 C663 1.377 . S
C648 C646 1.389 . S
C648 C649 1.524 . S
C648 C662 1.377 . S
C649 C648 1.524 . S
C649 C650 1.397 . S
C649 C654 1.363 . S
C650 H627 0.950 . S
C650 C649 1.397 . S
C650 C651 1.334 . S
C651 H628 0.950 . S
C651 C650 1.334 . S
C651 C652 1.287 . S
C652 C651 1.287 . S
C652 C653 1.524 . S
C652 H671 0.913 . S
C653 H629 0.950 . S
C653 C652 1.524 . S
C653 C654 1.415 . S
C654 H630 0.950 . S
C654 C649 1.363 . S
C654 C653 1.415 . S
C655 H631 0.951 . S
C655 C656 1.366 . S
C655 C657 1.388 . S
C656 C655 1.366 . S
C656 C660 1.385 1_565 S
C657 H632 0.951 . S
C657 C655 1.388 . S
C657 C658 1.366 1_565 S
C658 C657 1.366 1_545 S
C658 C659 1.414 . S
C658 C661 1.499 . S
C659 H633 0.950 . S
C659 C658 1.414 . S
C659 C660 1.374 . S
C660 H634 0.950 . S
C660 C656 1.385 1_545 S
C660 C659 1.374 . S
C661 C658 1.499 . S
C661 C662 1.373 . S
C661 C663 1.389 . S
C662 H635 0.950 . S
C662 C648 1.377 . S
C662 C661 1.373 . S
C663 C647 1.377 . S
C663 C661 1.389 . S
C663 C664 1.524 . S
C664 C663 1.524 . S
C664 C665 1.397 . S
C664 C669 1.363 1_545 S
C665 H636 0.950 . S
C665 C664 1.397 . S
C665 C666 1.334 . S
C666 H637 0.950 . S
C666 C665 1.334 . S
C666 C667 1.287 1_545 S
C667 C666 1.287 1_565 S
C667 C668 1.524 . S
C667 H670 0.999 . S
C668 H638 0.950 . S
C668 C667 1.524 . S
C668 C669 1.415 . S
C669 H639 0.950 . S
C669 C664 1.363 1_565 S
C669 C668 1.415 . S
H670 C667 0.999 . S
H671 C652 0.913 . S
H672 C690 0.951 . S
H673 C692 0.951 . S
H674 C694 0.950 . S
H675 C695 0.950 . S
H676 C697 0.950 1_455 S
H677 C700 0.950 . S
H678 C701 0.950 . S
H679 C703 0.950 . S
H680 C704 0.950 . S
H681 C705 0.951 . S
H682 C707 0.951 . S
H683 C709 0.950 . S
H684 C710 0.950 . S
H685 C712 0.950 . S
H686 C715 0.950 . S
H687 C716 0.950 . S
H688 C718 0.950 . S
H689 C719 0.950 . S
C690 H672 0.951 . S
C690 C691 1.366 . S
C690 C692 1.388 . S
C691 C690 1.366 . S
C691 C695 1.385 . S
C692 H673 0.951 . S
C692 C690 1.388 . S
C692 C693 1.366 1_455 S
C693 C692 1.366 1_655 S
C693 C694 1.414 . S
C693 C696 1.499 . S
C694 H674 0.950 . S
C694 C693 1.414 . S
C694 C695 1.374 1_655 S
C695 H675 0.950 . S
C695 C691 1.385 . S
C695 C694 1.374 1_455 S
C696 C693 1.499 . S
C696 C697 1.373 . S
C696 C698 1.389 . S
C697 H676 0.950 1_655 S
C697 C696 1.373 . S
C697 C713 1.377 . S
C698 C696 1.389 . S
C698 C699 1.524 . S
C698 C712 1.377 . S
C699 C698 1.524 . S
C699 C700 1.397 . S
C699 C704 1.363 . S
C700 H677 0.950 . S
C700 C699 1.397 . S
C700 C701 1.334 . S
C701 H678 0.950 . S
C701 C700 1.334 . S
C701 C702 1.287 . S
C702 C701 1.287 . S
C702 C703 1.524 . S
C702 H721 0.913 . S
C703 H679 0.950 . S
C703 C702 1.524 . S
C703 C704 1.415 . S
C704 H680 0.950 . S
C704 C699 1.363 . S
C704 C703 1.415 . S
C705 H681 0.951 . S
C705 C706 1.366 . S
C705 C707 1.388 . S
C706 C705 1.366 . S
C706 C710 1.385 . S
C707 H682 0.951 . S
C707 C705 1.388 . S
C707 C708 1.366 . S
C708 C707 1.366 . S
C708 C709 1.414 . S
C708 C711 1.499 . S
C709 H683 0.950 . S
C709 C708 1.414 . S
C709 C710 1.374 . S
C710 H684 0.950 . S
C710 C706 1.385 . S
C710 C709 1.374 . S
C711 C708 1.499 . S
C711 C712 1.373 . S
C711 C713 1.389 . S
C712 H685 0.950 . S
C712 C698 1.377 . S
C712 C711 1.373 . S
C713 C697 1.377 . S
C713 C711 1.389 . S
C713 C714 1.524 . S
C714 C713 1.524 . S
C714 C715 1.397 1_655 S
C714 C719 1.363 . S
C715 H686 0.950 . S
C715 C714 1.397 1_455 S
C715 C716 1.334 . S
C716 H687 0.950 . S
C716 C715 1.334 . S
C716 C717 1.287 . S
C717 C716 1.287 . S
C717 C718 1.524 . S
C717 H720 0.999 . S
C718 H688 0.950 . S
C718 C717 1.524 . S
C718 C719 1.415 1_455 S
C719 H689 0.950 . S
C719 C714 1.363 . S
C719 C718 1.415 1_655 S
H720 C717 0.999 . S
H721 C702 0.913 . S
H722 C740 0.951 . S
H723 C742 0.951 . S
H724 C744 0.950 . S
H725 C745 0.950 . S
H726 C747 0.950 . S
H727 C750 0.950 . S
H728 C751 0.950 . S
H729 C753 0.950 . S
H730 C754 0.950 . S
H731 C755 0.951 . S
H732 C757 0.951 . S
H733 C759 0.950 . S
H734 C760 0.950 . S
H735 C762 0.945 1_554 S
H736 C765 0.950 . S
H737 C766 0.950 . S
H738 C768 0.950 . S
H739 C769 0.950 . S
C740 H722 0.951 . S
C740 C741 1.366 . S
C740 C742 1.388 . S
C741 C740 1.366 . S
C741 C745 1.385 . S
C742 H723 0.951 . S
C742 C740 1.388 . S
C742 C743 1.366 . S
C743 C742 1.366 . S
C743 C744 1.414 . S
C743 C746 1.499 . S
C744 H724 0.950 . S
C744 C743 1.414 . S
C744 C745 1.374 . S
C745 H725 0.950 . S
C745 C741 1.385 . S
C745 C744 1.374 . S
C746 C743 1.499 . S
C746 C747 1.373 . S
C746 C748 1.389 . S
C747 H726 0.950 . S
C747 C746 1.373 . S
C747 C763 1.377 1_556 S
C748 C746 1.389 . S
C748 C749 1.524 . S
C748 C762 1.377 . S
C749 C748 1.524 . S
C749 C750 1.397 . S
C749 C754 1.363 . S
C750 H727 0.950 . S
C750 C749 1.397 . S
C750 C751 1.334 . S
C751 H728 0.950 . S
C751 C750 1.334 . S
C751 C752 1.287 . S
C752 C751 1.287 . S
C752 C753 1.524 . S
C752 H771 0.913 . S
C753 H729 0.950 . S
C753 C752 1.524 . S
C753 C754 1.415 . S
C754 H730 0.950 . S
C754 C749 1.363 . S
C754 C753 1.415 . S
C755 H731 0.951 . S
C755 C756 1.366 . S
C755 C757 1.388 . S
C756 C755 1.366 . S
C756 C760 1.385 . S
C757 H732 0.951 . S
C757 C755 1.388 . S
C757 C758 1.366 . S
C758 C757 1.366 . S
C758 C759 1.414 . S
C758 C761 1.499 . S
C759 H733 0.950 . S
C759 C758 1.414 . S
C759 C760 1.374 . S
C760 H734 0.950 . S
C760 C756 1.385 . S
C760 C759 1.374 . S
C761 C758 1.499 . S
C761 C762 1.373 1_554 S
C761 C763 1.389 . S
C762 H735 0.945 1_556 S
C762 C748 1.377 . S
C762 C761 1.373 1_556 S
C763 C747 1.377 1_554 S
C763 C761 1.389 . S
C763 C764 1.524 . S
C764 C763 1.524 . S
C764 C765 1.397 . S
C764 C769 1.363 . S
C765 H736 0.950 . S
C765 C764 1.397 . S
C765 C766 1.334 1_455 S
C766 H737 0.950 . S
C766 C765 1.334 1_655 S
C766 C767 1.287 . S
C767 C766 1.287 . S
C767 C768 1.524 . S
C767 H770 0.999 . S
C768 H738 0.950 . S
C768 C767 1.524 . S
C768 C769 1.415 1_655 S
C769 H739 0.950 . S
C769 C764 1.363 . S
C769 C768 1.415 1_455 S
H770 C767 0.999 . S
H771 C752 0.913 . S
H772 C790 0.951 . S
H773 C792 0.951 . S
H774 C794 0.950 . S
H775 C795 0.950 . S
H776 C797 0.950 . S
H777 C800 0.950 . S
H778 C801 0.950 . S
H779 C803 0.950 . S
H780 C804 0.950 . S
H781 C805 0.951 . S
H782 C807 0.951 . S
H783 C809 0.950 . S
H784 C810 0.950 . S
H785 C812 0.950 . S
H786 C815 0.950 . S
H787 C816 0.950 . S
H788 C818 0.950 . S
H789 C819 0.950 . S
C790 H772 0.951 . S
C790 C791 1.366 . S
C790 C792 1.388 . S
C791 C790 1.366 . S
C791 C795 1.385 . S
C792 H773 0.951 . S
C792 C790 1.388 . S
C792 C793 1.366 . S
C793 C792 1.366 . S
C793 C794 1.414 . S
C793 C796 1.499 . S
C794 H774 0.950 . S
C794 C793 1.414 . S
C794 C795 1.374 . S
C795 H775 0.950 . S
C795 C791 1.385 . S
C795 C794 1.374 . S
C796 C793 1.499 . S
C796 C797 1.373 . S
C796 C798 1.389 . S
C797 H776 0.950 . S
C797 C796 1.373 . S
C797 C813 1.377 . S
C798 C796 1.389 . S
C798 C799 1.524 . S
C798 C812 1.377 . S
C799 C798 1.524 . S
C799 C800 1.397 . S
C799 C804 1.363 . S
C800 H777 0.950 . S
C800 C799 1.397 . S
C800 C801 1.334 . S
C801 H778 0.950 . S
C801 C800 1.334 . S
C801 C802 1.287 . S
C802 C801 1.287 . S
C802 C803 1.524 . S
C802 H821 0.913 . S
C803 H779 0.950 . S
C803 C802 1.524 . S
C803 C804 1.415 . S
C804 H780 0.950 . S
C804 C799 1.363 . S
C804 C803 1.415 . S
C805 H781 0.951 . S
C805 C806 1.366 . S
C805 C807 1.388 . S
C806 C805 1.366 . S
C806 C810 1.385 1_655 S
C807 H782 0.951 . S
C807 C805 1.388 . S
C807 C808 1.366 1_655 S
C808 C807 1.366 1_455 S
C808 C809 1.414 . S
C808 C811 1.499 . S
C809 H783 0.950 . S
C809 C808 1.414 . S
C809 C810 1.374 . S
C810 H784 0.950 . S
C810 C806 1.385 1_455 S
C810 C809 1.374 . S
C811 C808 1.499 . S
C811 C812 1.373 . S
C811 C813 1.389 . S
C812 H785 0.950 . S
C812 C798 1.377 . S
C812 C811 1.373 . S
C813 C797 1.377 . S
C813 C811 1.389 . S
C813 C814 1.524 1_455 S
C814 C813 1.524 1_655 S
C814 C815 1.397 . S
C814 C819 1.363 . S
C815 H786 0.950 . S
C815 C814 1.397 . S
C815 C816 1.334 . S
C816 H787 0.950 . S
C816 C815 1.334 . S
C816 C817 1.287 . S
C817 C816 1.287 . S
C817 C818 1.524 . S
C817 H820 0.999 . S
C818 H788 0.950 . S
C818 C817 1.524 . S
C818 C819 1.415 . S
C819 H789 0.950 . S
C819 C814 1.363 . S
C819 C818 1.415 . S
H820 C817 0.999 . S
H821 C802 0.913 . S
H822 C840 0.951 . S
H823 C842 0.951 . S
H824 C844 0.950 . S
H825 C845 0.950 . S
H826 C847 0.950 . S
H827 C850 0.950 . S
H828 C851 0.950 . S
H829 C853 0.950 . S
H830 C854 0.950 . S
H831 C855 0.951 . S
H832 C857 0.951 . S
H833 C859 0.950 . S
H834 C860 0.950 . S
H835 C862 0.950 . S
H836 C865 0.950 . S
H837 C866 0.950 . S
H838 C868 0.950 . S
H839 C869 0.950 1_455 S
C840 H822 0.951 . S
C840 C841 1.366 . S
C840 C842 1.388 . S
C841 C840 1.366 . S
C841 C845 1.385 . S
C842 H823 0.951 . S
C842 C840 1.388 . S
C842 C843 1.366 . S
C843 C842 1.366 . S
C843 C844 1.414 . S
C843 C846 1.499 . S
C844 H824 0.950 . S
C844 C843 1.414 . S
C844 C845 1.374 . S
C845 H825 0.950 . S
C845 C841 1.385 . S
C845 C844 1.374 . S
C846 C843 1.499 . S
C846 C847 1.373 . S
C846 C848 1.389 . S
C847 H826 0.950 . S
C847 C846 1.373 . S
C847 C863 1.377 . S
C848 C846 1.389 . S
C848 C849 1.524 . S
C848 C862 1.377 . S
C849 C848 1.524 . S
C849 C850 1.397 . S
C849 C854 1.363 . S
C850 H827 0.950 . S
C850 C849 1.397 . S
C850 C851 1.334 . S
C851 H828 0.950 . S
C851 C850 1.334 . S
C851 C852 1.287 . S
C852 C851 1.287 . S
C852 C853 1.524 . S
C852 H871 0.913 . S
C853 H829 0.950 . S
C853 C852 1.524 . S
C853 C854 1.415 . S
C854 H830 0.950 . S
C854 C849 1.363 . S
C854 C853 1.415 . S
C855 H831 0.951 . S
C855 C856 1.366 . S
C855 C857 1.388 . S
C856 C855 1.366 . S
C856 C860 1.385 . S
C857 H832 0.951 . S
C857 C855 1.388 . S
C857 C858 1.366 . S
C858 C857 1.366 . S
C858 C859 1.414 . S
C858 C861 1.499 . S
C859 H833 0.950 . S
C859 C858 1.414 . S
C859 C860 1.374 . S
C860 H834 0.950 . S
C860 C856 1.385 . S
C860 C859 1.374 . S
C861 C858 1.499 . S
C861 C862 1.373 . S
C861 C863 1.389 . S
C862 H835 0.950 . S
C862 C848 1.377 . S
C862 C861 1.373 . S
C863 C847 1.377 . S
C863 C861 1.389 . S
C863 C864 1.524 . S
C864 C863 1.524 . S
C864 C865 1.397 . S
C864 C869 1.363 . S
C865 H836 0.950 . S
C865 C864 1.397 . S
C865 C866 1.334 . S
C866 H837 0.950 . S
C866 C865 1.334 . S
C866 C867 1.287 . S
C867 C866 1.287 . S
C867 C868 1.524 1_655 S
C867 H870 0.999 1_655 S
C868 H838 0.950 . S
C868 C867 1.524 1_455 S
C868 C869 1.415 1_455 S
C869 H839 0.950 1_655 S
C869 C864 1.363 . S
C869 C868 1.415 1_655 S
H870 C867 0.999 1_455 S
H871 C852 0.913 . S
H872 C890 0.951 . S
H873 C892 0.951 . S
H874 C894 0.950 . S
H875 C895 0.950 . S
H876 C897 0.950 . S
H877 C900 0.950 . S
H878 C901 0.950 . S
H879 C903 0.950 . S
H880 C904 0.950 . S
H881 C905 0.951 . S
H882 C907 0.951 . S
H883 C909 0.950 . S
H884 C910 0.950 . S
H885 C912 0.950 . S
H886 C915 0.950 . S
H887 C916 0.950 . S
H888 C918 0.950 . S
H889 C919 0.950 . S
C890 H872 0.951 . S
C890 C891 1.366 . S
C890 C892 1.388 . S
C891 C890 1.366 . S
C891 C895 1.385 . S
C892 H873 0.951 . S
C892 C890 1.388 . S
C892 C893 1.366 . S
C893 C892 1.366 . S
C893 C894 1.414 . S
C893 C896 1.499 . S
C894 H874 0.950 . S
C894 C893 1.414 . S
C894 C895 1.374 . S
C895 H875 0.950 . S
C895 C891 1.385 . S
C895 C894 1.374 . S
C896 C893 1.499 . S
C896 C897 1.373 . S
C896 C898 1.389 . S
C897 H876 0.950 . S
C897 C896 1.373 . S
C897 C913 1.377 . S
C898 C896 1.389 . S
C898 C899 1.524 . S
C898 C912 1.377 . S
C899 C898 1.524 . S
C899 C900 1.397 . S
C899 C904 1.363 . S
C900 H877 0.950 . S
C900 C899 1.397 . S
C900 C901 1.334 . S
C901 H878 0.950 . S
C901 C900 1.334 . S
C901 C902 1.287 . S
C902 C901 1.287 . S
C902 C903 1.524 . S
C902 H921 0.913 . S
C903 H879 0.950 . S
C903 C902 1.524 . S
C903 C904 1.415 . S
C904 H880 0.950 . S
C904 C899 1.363 . S
C904 C903 1.415 . S
C905 H881 0.951 . S
C905 C906 1.366 . S
C905 C907 1.388 . S
C906 C905 1.366 . S
C906 C910 1.385 . S
C907 H882 0.951 . S
C907 C905 1.388 . S
C907 C908 1.366 . S
C908 C907 1.366 . S
C908 C909 1.414 . S
C908 C911 1.499 . S
C909 H883 0.950 . S
C909 C908 1.414 . S
C909 C910 1.374 . S
C910 H884 0.950 . S
C910 C906 1.385 . S
C910 C909 1.374 . S
C911 C908 1.499 . S
C911 C912 1.373 . S
C911 C913 1.389 . S
C912 H885 0.950 . S
C912 C898 1.377 . S
C912 C911 1.373 . S
C913 C897 1.377 . S
C913 C911 1.389 . S
C913 C914 1.524 . S
C914 C913 1.524 . S
C914 C915 1.397 . S
C914 C919 1.363 . S
C915 H886 0.950 . S
C915 C914 1.397 . S
C915 C916 1.334 . S
C916 H887 0.950 . S
C916 C915 1.334 . S
C916 C917 1.287 . S
C917 C916 1.287 . S
C917 C918 1.524 . S
C917 H920 0.999 . S
C918 H888 0.950 . S
C918 C917 1.524 . S
C918 C919 1.415 . S
C919 H889 0.950 . S
C919 C914 1.363 . S
C919 C918 1.415 . S
H920 C917 0.999 . S
H921 C902 0.913 . S
H922 C940 0.951 . S
H923 C942 0.951 . S
H924 C944 0.950 . S
H925 C945 0.950 . S
H926 C947 0.950 . S
H927 C950 0.950 . S
H928 C951 0.950 . S
H929 C953 0.950 . S
H930 C954 0.950 . S
H931 C955 0.951 . S
H932 C957 0.951 . S
H933 C959 0.950 . S
H934 C960 0.950 . S
H935 C962 0.950 . S
H936 C965 0.950 . S
H937 C966 0.950 . S
H938 C968 0.950 . S
H939 C969 0.950 . S
C940 H922 0.951 . S
C940 C941 1.366 . S
C940 C942 1.388 . S
C941 C940 1.366 . S
C941 C945 1.385 . S
C942 H923 0.951 . S
C942 C940 1.388 . S
C942 C943 1.366 . S
C943 C942 1.366 . S
C943 C944 1.414 . S
C943 C946 1.499 . S
C944 H924 0.950 . S
C944 C943 1.414 . S
C944 C945 1.374 . S
C945 H925 0.950 . S
C945 C941 1.385 . S
C945 C944 1.374 . S
C946 C943 1.499 . S
C946 C947 1.373 . S
C946 C948 1.389 . S
C947 H926 0.950 . S
C947 C946 1.373 . S
C947 C963 1.377 . S
C948 C946 1.389 . S
C948 C949 1.524 . S
C948 C962 1.377 . S
C949 C948 1.524 . S
C949 C950 1.397 . S
C949 C954 1.363 . S
C950 H927 0.950 . S
C950 C949 1.397 . S
C950 C951 1.334 . S
C951 H928 0.950 . S
C951 C950 1.334 . S
C951 C952 1.287 . S
C952 C951 1.287 . S
C952 C953 1.524 . S
C952 H971 0.913 . S
C953 H929 0.950 . S
C953 C952 1.524 . S
C953 C954 1.415 . S
C954 H930 0.950 . S
C954 C949 1.363 . S
C954 C953 1.415 . S
C955 H931 0.951 . S
C955 C956 1.366 . S
C955 C957 1.388 . S
C956 C955 1.366 . S
C956 C960 1.385 . S
C957 H932 0.951 . S
C957 C955 1.388 . S
C957 C958 1.366 . S
C958 C957 1.366 . S
C958 C959 1.414 . S
C958 C961 1.499 . S
C959 H933 0.950 . S
C959 C958 1.414 . S
C959 C960 1.374 . S
C960 H934 0.950 . S
C960 C956 1.385 . S
C960 C959 1.374 . S
C961 C958 1.499 . S
C961 C962 1.373 . S
C961 C963 1.389 . S
C962 H935 0.950 . S
C962 C948 1.377 . S
C962 C961 1.373 . S
C963 C947 1.377 . S
C963 C961 1.389 . S
C963 C964 1.524 . S
C964 C963 1.524 . S
C964 C965 1.397 . S
C964 C969 1.363 . S
C965 H936 0.950 . S
C965 C964 1.397 . S
C965 C966 1.334 . S
C966 H937 0.950 . S
C966 C965 1.334 . S
C966 C967 1.287 . S
C967 C966 1.287 . S
C967 C968 1.524 . S
C967 H970 0.999 . S
C968 H938 0.950 . S
C968 C967 1.524 . S
C968 C969 1.415 . S
C969 H939 0.950 . S
C969 C964 1.363 . S
C969 C968 1.415 . S
H970 C967 0.999 . S
H971 C952 0.913 . S
H972 C990 0.951 . S
H973 C992 0.951 . S
H974 C994 0.950 . S
H975 C995 0.950 . S
H976 C997 0.950 . S
H977 C1000 0.950 . S
H978 C1001 0.950 . S
H979 C1003 0.950 . S
H980 C1004 0.950 . S
H981 C1005 0.951 . S
H982 C1007 0.951 . S
H983 C1009 0.950 . S
H984 C1010 0.950 . S
H985 C1012 0.950 . S
H986 C1015 0.950 . S
H987 C1016 0.950 . S
H988 C1018 0.950 . S
H989 C1019 0.950 . S
C990 H972 0.951 . S
C990 C991 1.366 . S
C990 C992 1.388 . S
C991 C990 1.366 . S
C991 C995 1.385 . S
C992 H973 0.951 . S
C992 C990 1.388 . S
C992 C993 1.366 . S
C993 C992 1.366 . S
C993 C994 1.414 . S
C993 C996 1.499 . S
C994 H974 0.950 . S
C994 C993 1.414 . S
C994 C995 1.374 . S
C995 H975 0.950 . S
C995 C991 1.385 . S
C995 C994 1.374 . S
C996 C993 1.499 . S
C996 C997 1.373 . S
C996 C998 1.389 . S
C997 H976 0.950 . S
C997 C996 1.373 . S
C997 C1013 1.377 . S
C998 C996 1.389 . S
C998 C999 1.524 . S
C998 C1012 1.377 . S
C999 C998 1.524 . S
C999 C1000 1.397 . S
C999 C1004 1.363 . S
C1000 H977 0.950 . S
C1000 C999 1.397 . S
C1000 C1001 1.334 . S
C1001 H978 0.950 . S
C1001 C1000 1.334 . S
C1001 C1002 1.287 . S
C1002 C1001 1.287 . S
C1002 C1003 1.524 . S
C1002 H1021 0.913 . S
C1003 H979 0.950 . S
C1003 C1002 1.524 . S
C1003 C1004 1.415 . S
C1004 H980 0.950 . S
C1004 C999 1.363 . S
C1004 C1003 1.415 . S
C1005 H981 0.951 . S
C1005 C1006 1.366 . S
C1005 C1007 1.388 . S
C1006 C1005 1.366 . S
C1006 C1010 1.385 . S
C1007 H982 0.951 . S
C1007 C1005 1.388 . S
C1007 C1008 1.366 . S
C1008 C1007 1.366 . S
C1008 C1009 1.414 . S
C1008 C1011 1.499 . S
C1009 H983 0.950 . S
C1009 C1008 1.414 . S
C1009 C1010 1.374 . S
C1010 H984 0.950 . S
C1010 C1006 1.385 . S
C1010 C1009 1.374 . S
C1011 C1008 1.499 . S
C1011 C1012 1.373 . S
C1011 C1013 1.389 . S
C1012 H985 0.950 . S
C1012 C998 1.377 . S
C1012 C1011 1.373 . S
C1013 C997 1.377 . S
C1013 C1011 1.389 . S
C1013 C1014 1.524 . S
C1014 C1013 1.524 . S
C1014 C1015 1.397 . S
C1014 C1019 1.363 . S
C1015 H986 0.950 . S
C1015 C1014 1.397 . S
C1015 C1016 1.334 . S
C1016 H987 0.950 . S
C1016 C1015 1.334 . S
C1016 C1017 1.287 . S
C1017 C1016 1.287 . S
C1017 C1018 1.524 . S
C1017 H1020 0.999 . S
C1018 H988 0.950 . S
C1018 C1017 1.524 . S
C1018 C1019 1.415 . S
C1019 H989 0.950 . S
C1019 C1014 1.363 . S
C1019 C1018 1.415 . S
H1020 C1017 0.999 . S
H1021 C1002 0.913 . S
H1022 C1040 0.951 . S
H1023 C1042 0.951 . S
H1024 C1044 0.950 . S
H1025 C1045 0.950 . S
H1026 C1047 0.950 . S
H1027 C1050 0.950 . S
H1028 C1051 0.950 . S
H1029 C1053 0.950 . S
H1030 C1054 0.950 . S
H1031 C1055 0.951 . S
H1032 C1057 0.951 . S
H1033 C1059 0.950 . S
H1034 C1060 0.950 . S
H1035 C1062 0.950 . S
H1036 C1065 0.950 . S
H1037 C1066 0.950 . S
H1038 C1068 0.950 . S
H1039 C1069 0.950 . S
C1040 H1022 0.951 . S
C1040 C1041 1.366 . S
C1040 C1042 1.388 . S
C1041 C1040 1.366 . S
C1041 C1045 1.385 . S
C1042 H1023 0.951 . S
C1042 C1040 1.388 . S
C1042 C1043 1.366 . S
C1043 C1042 1.366 . S
C1043 C1044 1.414 . S
C1043 C1046 1.499 . S
C1044 H1024 0.950 . S
C1044 C1043 1.414 . S
C1044 C1045 1.374 . S
C1045 H1025 0.950 . S
C1045 C1041 1.385 . S
C1045 C1044 1.374 . S
C1046 C1043 1.499 . S
C1046 C1047 1.373 . S
C1046 C1048 1.389 . S
C1047 H1026 0.950 . S
C1047 C1046 1.373 . S
C1047 C1063 1.377 . S
C1048 C1046 1.389 . S
C1048 C1049 1.524 . S
C1048 C1062 1.377 . S
C1049 C1048 1.524 . S
C1049 C1050 1.397 . S
C1049 C1054 1.363 . S
C1050 H1027 0.950 . S
C1050 C1049 1.397 . S
C1050 C1051 1.334 . S
C1051 H1028 0.950 . S
C1051 C1050 1.334 . S
C1051 C1052 1.287 . S
C1052 C1051 1.287 . S
C1052 C1053 1.524 . S
C1052 H1071 0.913 . S
C1053 H1029 0.950 . S
C1053 C1052 1.524 . S
C1053 C1054 1.415 . S
C1054 H1030 0.950 . S
C1054 C1049 1.363 . S
C1054 C1053 1.415 . S
C1055 H1031 0.951 . S
C1055 C1056 1.366 . S
C1055 C1057 1.388 . S
C1056 C1055 1.366 . S
C1056 C1060 1.385 . S
C1057 H1032 0.951 . S
C1057 C1055 1.388 . S
C1057 C1058 1.366 . S
C1058 C1057 1.366 . S
C1058 C1059 1.414 . S
C1058 C1061 1.499 . S
C1059 H1033 0.950 . S
C1059 C1058 1.414 . S
C1059 C1060 1.374 . S
C1060 H1034 0.950 . S
C1060 C1056 1.385 . S
C1060 C1059 1.374 . S
C1061 C1058 1.499 . S
C1061 C1062 1.373 . S
C1061 C1063 1.389 . S
C1062 H1035 0.950 . S
C1062 C1048 1.377 . S
C1062 C1061 1.373 . S
C1063 C1047 1.377 . S
C1063 C1061 1.389 . S
C1063 C1064 1.524 . S
C1064 C1063 1.524 . S
C1064 C1065 1.397 . S
C1064 C1069 1.363 . S
C1065 H1036 0.950 . S
C1065 C1064 1.397 . S
C1065 C1066 1.334 . S
C1066 H1037 0.950 . S
C1066 C1065 1.334 . S
C1066 C1067 1.287 . S
C1067 C1066 1.287 . S
C1067 C1068 1.524 . S
C1067 H1070 0.999 . S
C1068 H1038 0.950 . S
C1068 C1067 1.524 . S
C1068 C1069 1.415 . S
C1069 H1039 0.950 . S
C1069 C1064 1.363 . S
C1069 C1068 1.415 . S
H1070 C1067 0.999 . S
H1071 C1052 0.913 . S
H1072 C1090 0.951 . S
H1073 C1092 0.951 . S
H1074 C1094 0.950 . S
H1075 C1095 0.950 . S
H1076 C1097 0.950 . S
H1077 C1100 0.950 . S
H1078 C1101 0.950 . S
H1079 C1103 0.950 . S
H1080 C1104 0.950 . S
H1081 C1105 0.951 . S
H1082 C1107 0.951 . S
H1083 C1109 0.950 . S
H1084 C1110 0.950 . S
H1085 C1112 0.950 . S
H1086 C1115 0.950 . S
H1087 C1116 0.950 . S
H1088 C1118 0.950 . S
H1089 C1119 0.950 . S
C1090 H1072 0.951 . S
C1090 C1091 1.366 . S
C1090 C1092 1.388 . S
C1091 C1090 1.366 . S
C1091 C1095 1.385 . S
C1092 H1073 0.951 . S
C1092 C1090 1.388 . S
C1092 C1093 1.366 . S
C1093 C1092 1.366 . S
C1093 C1094 1.414 . S
C1093 C1096 1.499 . S
C1094 H1074 0.950 . S
C1094 C1093 1.414 . S
C1094 C1095 1.374 . S
C1095 H1075 0.950 . S
C1095 C1091 1.385 . S
C1095 C1094 1.374 . S
C1096 C1093 1.499 . S
C1096 C1097 1.373 . S
C1096 C1098 1.389 . S
C1097 H1076 0.950 . S
C1097 C1096 1.373 . S
C1097 C1113 1.377 . S
C1098 C1096 1.389 . S
C1098 C1099 1.524 . S
C1098 C1112 1.377 . S
C1099 C1098 1.524 . S
C1099 C1100 1.397 . S
C1099 C1104 1.363 . S
C1100 H1077 0.950 . S
C1100 C1099 1.397 . S
C1100 C1101 1.334 . S
C1101 H1078 0.950 . S
C1101 C1100 1.334 . S
C1101 C1102 1.287 . S
C1102 C1101 1.287 . S
C1102 C1103 1.524 . S
C1102 H1121 0.913 . S
C1103 H1079 0.950 . S
C1103 C1102 1.524 . S
C1103 C1104 1.415 . S
C1104 H1080 0.950 . S
C1104 C1099 1.363 . S
C1104 C1103 1.415 . S
C1105 H1081 0.951 . S
C1105 C1106 1.366 . S
C1105 C1107 1.388 . S
C1106 C1105 1.366 . S
C1106 C1110 1.385 . S
C1107 H1082 0.951 . S
C1107 C1105 1.388 . S
C1107 C1108 1.366 . S
C1108 C1107 1.366 . S
C1108 C1109 1.414 . S
C1108 C1111 1.499 . S
C1109 H1083 0.950 . S
C1109 C1108 1.414 . S
C1109 C1110 1.374 . S
C1110 H1084 0.950 . S
C1110 C1106 1.385 . S
C1110 C1109 1.374 . S
C1111 C1108 1.499 . S
C1111 C1112 1.373 . S
C1111 C1113 1.389 . S
C1112 H1085 0.950 . S
C1112 C1098 1.377 . S
C1112 C1111 1.373 . S
C1113 C1097 1.377 . S
C1113 C1111 1.389 . S
C1113 C1114 1.524 . S
C1114 C1113 1.524 . S
C1114 C1115 1.397 . S
C1114 C1119 1.363 . S
C1115 H1086 0.950 . S
C1115 C1114 1.397 . S
C1115 C1116 1.334 . S
C1116 H1087 0.950 . S
C1116 C1115 1.334 . S
C1116 C1117 1.287 . S
C1117 C1116 1.287 . S
C1117 C1118 1.524 . S
C1117 H1120 0.999 . S
C1118 H1088 0.950 . S
C1118 C1117 1.524 . S
C1118 C1119 1.415 . S
C1119 H1089 0.950 . S
C1119 C1114 1.363 . S
C1119 C1118 1.415 . S
H1120 C1117 0.999 . S
H1121 C1102 0.913 . S
H1122 C1140 0.951 . S
H1123 C1142 0.951 . S
H1124 C1144 0.950 . S
H1125 C1145 0.950 . S
H1126 C1147 0.950 . S
H1127 C1150 0.950 . S
H1128 C1151 0.950 . S
H1129 C1153 0.950 . S
H1130 C1154 0.950 . S
H1131 C1155 0.951 . S
H1132 C1157 0.951 . S
H1133 C1159 0.950 . S
H1134 C1160 0.950 . S
H1135 C1162 0.950 . S
H1136 C1165 0.950 . S
H1137 C1166 0.950 . S
H1138 C1168 0.950 . S
H1139 C1169 0.950 . S
C1140 H1122 0.951 . S
C1140 C1141 1.366 . S
C1140 C1142 1.388 . S
C1141 C1140 1.366 . S
C1141 C1145 1.385 . S
C1142 H1123 0.951 . S
C1142 C1140 1.388 . S
C1142 C1143 1.366 . S
C1143 C1142 1.366 . S
C1143 C1144 1.414 . S
C1143 C1146 1.499 . S
C1144 H1124 0.950 . S
C1144 C1143 1.414 . S
C1144 C1145 1.374 . S
C1145 H1125 0.950 . S
C1145 C1141 1.385 . S
C1145 C1144 1.374 . S
C1146 C1143 1.499 . S
C1146 C1147 1.373 . S
C1146 C1148 1.389 . S
C1147 H1126 0.950 . S
C1147 C1146 1.373 . S
C1147 C1163 1.377 . S
C1148 C1146 1.389 . S
C1148 C1149 1.524 . S
C1148 C1162 1.377 . S
C1149 C1148 1.524 . S
C1149 C1150 1.397 . S
C1149 C1154 1.363 . S
C1150 H1127 0.950 . S
C1150 C1149 1.397 . S
C1150 C1151 1.334 . S
C1151 H1128 0.950 . S
C1151 C1150 1.334 . S
C1151 C1152 1.287 . S
C1152 C1151 1.287 . S
C1152 C1153 1.524 . S
C1152 H1171 0.913 . S
C1153 H1129 0.950 . S
C1153 C1152 1.524 . S
C1153 C1154 1.415 . S
C1154 H1130 0.950 . S
C1154 C1149 1.363 . S
C1154 C1153 1.415 . S
C1155 H1131 0.951 . S
C1155 C1156 1.366 . S
C1155 C1157 1.388 . S
C1156 C1155 1.366 . S
C1156 C1160 1.385 . S
C1157 H1132 0.951 . S
C1157 C1155 1.388 . S
C1157 C1158 1.366 . S
C1158 C1157 1.366 . S
C1158 C1159 1.414 . S
C1158 C1161 1.499 . S
C1159 H1133 0.950 . S
C1159 C1158 1.414 . S
C1159 C1160 1.374 . S
C1160 H1134 0.950 . S
C1160 C1156 1.385 . S
C1160 C1159 1.374 . S
C1161 C1158 1.499 . S
C1161 C1162 1.373 . S
C1161 C1163 1.389 . S
C1162 H1135 0.950 . S
C1162 C1148 1.377 . S
C1162 C1161 1.373 . S
C1163 C1147 1.377 . S
C1163 C1161 1.389 . S
C1163 C1164 1.524 . S
C1164 C1163 1.524 . S
C1164 C1165 1.397 . S
C1164 C1169 1.363 . S
C1165 H1136 0.950 . S
C1165 C1164 1.397 . S
C1165 C1166 1.334 . S
C1166 H1137 0.950 . S
C1166 C1165 1.334 . S
C1166 C1167 1.287 . S
C1167 C1166 1.287 . S
C1167 C1168 1.524 . S
C1167 H1170 0.999 . S
C1168 H1138 0.950 . S
C1168 C1167 1.524 . S
C1168 C1169 1.415 . S
C1169 H1139 0.950 . S
C1169 C1164 1.363 . S
C1169 C1168 1.415 . S
H1170 C1167 0.999 . S
H1171 C1152 0.913 . S
H1172 C1190 0.951 . S
H1173 C1192 0.951 . S
H1174 C1194 0.950 . S
H1175 C1195 0.950 . S
H1176 C1197 0.950 . S
H1177 C1200 0.950 . S
H1178 C1201 0.950 . S
H1179 C1203 0.950 . S
H1180 C1204 0.950 . S
H1181 C1205 0.951 . S
H1182 C1207 0.951 . S
H1183 C1209 0.950 . S
H1184 C1210 0.950 . S
H1185 C1212 0.950 . S
H1186 C1215 0.950 . S
H1187 C1216 0.950 . S
H1188 C1218 0.950 . S
H1189 C1219 0.950 . S
C1190 H1172 0.951 . S
C1190 C1191 1.366 . S
C1190 C1192 1.388 . S
C1191 C1190 1.366 . S
C1191 C1195 1.385 . S
C1192 H1173 0.951 . S
C1192 C1190 1.388 . S
C1192 C1193 1.366 . S
C1193 C1192 1.366 . S
C1193 C1194 1.414 . S
C1193 C1196 1.499 . S
C1194 H1174 0.950 . S
C1194 C1193 1.414 . S
C1194 C1195 1.374 . S
C1195 H1175 0.950 . S
C1195 C1191 1.385 . S
C1195 C1194 1.374 . S
C1196 C1193 1.499 . S
C1196 C1197 1.373 . S
C1196 C1198 1.389 . S
C1197 H1176 0.950 . S
C1197 C1196 1.373 . S
C1197 C1213 1.377 . S
C1198 C1196 1.389 . S
C1198 C1199 1.524 . S
C1198 C1212 1.377 . S
C1199 C1198 1.524 . S
C1199 C1200 1.397 . S
C1199 C1204 1.363 . S
C1200 H1177 0.950 . S
C1200 C1199 1.397 . S
C1200 C1201 1.334 . S
C1201 H1178 0.950 . S
C1201 C1200 1.334 . S
C1201 C1202 1.287 . S
C1202 C1201 1.287 . S
C1202 C1203 1.524 . S
C1202 H1221 0.913 . S
C1203 H1179 0.950 . S
C1203 C1202 1.524 . S
C1203 C1204 1.415 . S
C1204 H1180 0.950 . S
C1204 C1199 1.363 . S
C1204 C1203 1.415 . S
C1205 H1181 0.951 . S
C1205 C1206 1.366 . S
C1205 C1207 1.388 . S
C1206 C1205 1.366 . S
C1206 C1210 1.385 . S
C1207 H1182 0.951 . S
C1207 C1205 1.388 . S
C1207 C1208 1.366 . S
C1208 C1207 1.366 . S
C1208 C1209 1.414 . S
C1208 C1211 1.499 . S
C1209 H1183 0.950 . S
C1209 C1208 1.414 . S
C1209 C1210 1.374 . S
C1210 H1184 0.950 . S
C1210 C1206 1.385 . S
C1210 C1209 1.374 . S
C1211 C1208 1.499 . S
C1211 C1212 1.373 . S
C1211 C1213 1.389 . S
C1212 H1185 0.950 . S
C1212 C1198 1.377 . S
C1212 C1211 1.373 . S
C1213 C1197 1.377 . S
C1213 C1211 1.389 . S
C1213 C1214 1.524 . S
C1214 C1213 1.524 . S
C1214 C1215 1.397 . S
C1214 C1219 1.363 . S
C1215 H1186 0.950 . S
C1215 C1214 1.397 . S
C1215 C1216 1.334 . S
C1216 H1187 0.950 . S
C1216 C1215 1.334 . S
C1216 C1217 1.287 . S
C1217 C1216 1.287 . S
C1217 C1218 1.524 . S
C1217 H1220 0.999 . S
C1218 H1188 0.950 . S
C1218 C1217 1.524 . S
C1218 C1219 1.415 . S
C1219 H1189 0.950 . S
C1219 C1214 1.363 . S
C1219 C1218 1.415 . S
H1220 C1217 0.999 . S
H1221 C1202 0.913 . S
H1222 C1240 0.951 . S
H1223 C1242 0.951 . S
H1224 C1244 0.950 . S
H1225 C1245 0.950 . S
H1226 C1247 0.950 . S
H1227 C1250 0.950 . S
H1228 C1251 0.950 . S
H1229 C1253 0.950 . S
H1230 C1254 0.950 . S
H1231 C1255 0.951 . S
H1232 C1257 0.951 . S
H1233 C1259 0.950 . S
H1234 C1260 0.950 . S
H1235 C1262 0.950 . S
H1236 C1265 0.950 . S
H1237 C1266 0.950 . S
H1238 C1268 0.950 . S
H1239 C1269 0.950 . S
C1240 H1222 0.951 . S
C1240 C1241 1.366 . S
C1240 C1242 1.388 . S
C1241 C1240 1.366 . S
C1241 C1245 1.385 . S
C1242 H1223 0.951 . S
C1242 C1240 1.388 . S
C1242 C1243 1.366 . S
C1243 C1242 1.366 . S
C1243 C1244 1.414 . S
C1243 C1246 1.499 . S
C1244 H1224 0.950 . S
C1244 C1243 1.414 . S
C1244 C1245 1.374 . S
C1245 H1225 0.950 . S
C1245 C1241 1.385 . S
C1245 C1244 1.374 . S
C1246 C1243 1.499 . S
C1246 C1247 1.373 . S
C1246 C1248 1.389 . S
C1247 H1226 0.950 . S
C1247 C1246 1.373 . S
C1247 C1263 1.377 . S
C1248 C1246 1.389 . S
C1248 C1249 1.524 . S
C1248 C1262 1.377 . S
C1249 C1248 1.524 . S
C1249 C1250 1.397 . S
C1249 C1254 1.363 . S
C1250 H1227 0.950 . S
C1250 C1249 1.397 . S
C1250 C1251 1.334 . S
C1251 H1228 0.950 . S
C1251 C1250 1.334 . S
C1251 C1252 1.287 . S
C1252 C1251 1.287 . S
C1252 C1253 1.524 . S
C1252 H1271 0.913 . S
C1253 H1229 0.950 . S
C1253 C1252 1.524 . S
C1253 C1254 1.415 . S
C1254 H1230 0.950 . S
C1254 C1249 1.363 . S
C1254 C1253 1.415 . S
C1255 H1231 0.951 . S
C1255 C1256 1.366 . S
C1255 C1257 1.388 . S
C1256 C1255 1.366 . S
C1256 C1260 1.385 . S
C1257 H1232 0.951 . S
C1257 C1255 1.388 . S
C1257 C1258 1.366 . S
C1258 C1257 1.366 . S
C1258 C1259 1.414 . S
C1258 C1261 1.499 . S
C1259 H1233 0.950 . S
C1259 C1258 1.414 . S
C1259 C1260 1.374 . S
C1260 H1234 0.950 . S
C1260 C1256 1.385 . S
C1260 C1259 1.374 . S
C1261 C1258 1.499 . S
C1261 C1262 1.373 . S
C1261 C1263 1.389 . S
C1262 H1235 0.950 . S
C1262 C1248 1.377 . S
C1262 C1261 1.373 . S
C1263 C1247 1.377 . S
C1263 C1261 1.389 . S
C1263 C1264 1.524 . S
C1264 C1263 1.524 . S
C1264 C1265 1.397 . S
C1264 C1269 1.363 . S
C1265 H1236 0.950 . S
C1265 C1264 1.397 . S
C1265 C1266 1.334 . S
C1266 H1237 0.950 . S
C1266 C1265 1.334 . S
C1266 C1267 1.287 . S
C1267 C1266 1.287 . S
C1267 C1268 1.524 . S
C1267 H1270 0.999 . S
C1268 H1238 0.950 . S
C1268 C1267 1.524 . S
C1268 C1269 1.415 . S
C1269 H1239 0.950 . S
C1269 C1264 1.363 . S
C1269 C1268 1.415 . S
H1270 C1267 0.999 . S
H1271 C1252 0.913 . S
C291 C5 0.573 . S
C306 C175 0.572 . S
C341 C209 0.573 . S
C356 C39 0.574 . S
C391 C243 0.574 . S
C406 C73 0.574 . S
C441 C141 0.572 . S
C456 C107 0.573 . S
C491 C111 0.665 . S
C506 C33 0.664 . S
C541 C67 0.665 . S
C556 C9 0.664 . S
C591 C43 0.665 . S
C606 C101 0.664 . S
C641 C135 0.665 . S
C656 C77 0.664 . S
C691 C179 0.666 . S
C706 C169 0.663 . S
C741 C203 0.664 . S
C756 C213 0.665 . S
C791 C237 0.665 . S
C806 C247 0.664 . S
C841 C271 0.665 . S
C856 C145 0.664 . S
C891 C206 1.087 . S
C906 C20 1.104 . S
C941 C240 1.087 . S
C956 C54 1.104 . S
C991 C88 1.104 . S
C1006 C138 1.087 . S
C1041 C122 1.104 . S
C1056 C172 1.088 . S
C1091 C156 1.104 . S
C1106 C70 1.086 . S
C1141 C104 1.088 . S
C1156 C190 1.104 . S
C1191 C224 1.105 . S
C1206 C2 1.087 . S
C1241 C36 1.086 . S
C1256 C258 1.104 . S
