# Generated by pormake.
# Topology dia-a, (4)-cn, num edge types: 1
# Building blocks:
#     Node 0, Type 0, BuildingBlock: NAHDIM_clean_sbu_0, # of connection points: 4
#     Node 1, Type 0, BuildingBlock: NAHDIM_clean_sbu_0, # of connection points: 4
#     Node 2, Type 0, BuildingBlock: NAHDIM_clean_sbu_0, # of connection points: 4
#     Node 3, Type 0, BuildingBlock: NAHDIM_clean_sbu_0, # of connection points: 4
#     Node 4, Type 0, BuildingBlock: NAHDIM_clean_sbu_0, # of connection points: 4
#     Node 5, Type 0, BuildingBlock: NAHDIM_clean_sbu_0, # of connection points: 4
#     Node 6, Type 0, BuildingBlock: NAHDIM_clean_sbu_0, # of connection points: 4
#     Node 7, Type 0, BuildingBlock: NAHDIM_clean_sbu_0, # of connection points: 4
#     Node 8, Type 0, BuildingBlock: NAHDIM_clean_sbu_0, # of connection points: 4
#     Node 9, Type 0, BuildingBlock: NAHDIM_clean_sbu_0, # of connection points: 4
#     Node 10, Type 0, BuildingBlock: NAHDIM_clean_sbu_0, # of connection points: 4
#     Node 11, Type 0, BuildingBlock: NAHDIM_clean_sbu_0, # of connection points: 4
#     Node 12, Type 0, BuildingBlock: NAHDIM_clean_sbu_0, # of connection points: 4
#     Node 13, Type 0, BuildingBlock: NAHDIM_clean_sbu_0, # of connection points: 4
#     Node 14, Type 0, BuildingBlock: NAHDIM_clean_sbu_0, # of connection points: 4
#     Node 15, Type 0, BuildingBlock: NAHDIM_clean_sbu_0, # of connection points: 4
#     Node 16, Type 0, BuildingBlock: NAHDIM_clean_sbu_0, # of connection points: 4
#     Node 17, Type 0, BuildingBlock: NAHDIM_clean_sbu_0, # of connection points: 4
#     Node 18, Type 0, BuildingBlock: NAHDIM_clean_sbu_0, # of connection points: 4
#     Node 19, Type 0, BuildingBlock: NAHDIM_clean_sbu_0, # of connection points: 4
#     Node 20, Type 0, BuildingBlock: NAHDIM_clean_sbu_0, # of connection points: 4
#     Node 21, Type 0, BuildingBlock: NAHDIM_clean_sbu_0, # of connection points: 4
#     Node 22, Type 0, BuildingBlock: NAHDIM_clean_sbu_0, # of connection points: 4
#     Node 23, Type 0, BuildingBlock: NAHDIM_clean_sbu_0, # of connection points: 4
#     Node 24, Type 0, BuildingBlock: NAHDIM_clean_sbu_0, # of connection points: 4
#     Node 25, Type 0, BuildingBlock: NAHDIM_clean_sbu_0, # of connection points: 4
#     Node 26, Type 0, BuildingBlock: NAHDIM_clean_sbu_0, # of connection points: 4
#     Node 27, Type 0, BuildingBlock: NAHDIM_clean_sbu_0, # of connection points: 4
#     Node 28, Type 0, BuildingBlock: NAHDIM_clean_sbu_0, # of connection points: 4
#     Node 29, Type 0, BuildingBlock: NAHDIM_clean_sbu_0, # of connection points: 4
#     Node 30, Type 0, BuildingBlock: NAHDIM_clean_sbu_0, # of connection points: 4
#     Node 31, Type 0, BuildingBlock: NAHDIM_clean_sbu_0, # of connection points: 4
#     Edge 32, Type (0, 0), BuildingBlock: KIFKEQ_clean_linker_1, # of connection points: 2
#     Edge 33, Type (0, 0), BuildingBlock: KIFKEQ_clean_linker_1, # of connection points: 2
#     Edge 34, Type (0, 0), BuildingBlock: KIFKEQ_clean_linker_1, # of connection points: 2
#     Edge 35, Type (0, 0), BuildingBlock: KIFKEQ_clean_linker_1, # of connection points: 2
#     Edge 36, Type (0, 0), BuildingBlock: KIFKEQ_clean_linker_1, # of connection points: 2
#     Edge 37, Type (0, 0), BuildingBlock: KIFKEQ_clean_linker_1, # of connection points: 2
#     Edge 38, Type (0, 0), BuildingBlock: KIFKEQ_clean_linker_1, # of connection points: 2
#     Edge 39, Type (0, 0), BuildingBlock: KIFKEQ_clean_linker_1, # of connection points: 2
#     Edge 40, Type (0, 0), BuildingBlock: KIFKEQ_clean_linker_1, # of connection points: 2
#     Edge 41, Type (0, 0), BuildingBlock: KIFKEQ_clean_linker_1, # of connection points: 2
#     Edge 42, Type (0, 0), BuildingBlock: KIFKEQ_clean_linker_1, # of connection points: 2
#     Edge 43, Type (0, 0), BuildingBlock: KIFKEQ_clean_linker_1, # of connection points: 2
#     Edge 44, Type (0, 0), BuildingBlock: KIFKEQ_clean_linker_1, # of connection points: 2
#     Edge 45, Type (0, 0), BuildingBlock: KIFKEQ_clean_linker_1, # of connection points: 2
#     Edge 46, Type (0, 0), BuildingBlock: KIFKEQ_clean_linker_1, # of connection points: 2
#     Edge 47, Type (0, 0), BuildingBlock: KIFKEQ_clean_linker_1, # of connection points: 2
#     Edge 48, Type (0, 0), BuildingBlock: KIFKEQ_clean_linker_1, # of connection points: 2
#     Edge 49, Type (0, 0), BuildingBlock: KIFKEQ_clean_linker_1, # of connection points: 2
#     Edge 50, Type (0, 0), BuildingBlock: KIFKEQ_clean_linker_1, # of connection points: 2
#     Edge 51, Type (0, 0), BuildingBlock: KIFKEQ_clean_linker_1, # of connection points: 2
#     Edge 52, Type (0, 0), BuildingBlock: KIFKEQ_clean_linker_1, # of connection points: 2
#     Edge 53, Type (0, 0), BuildingBlock: KIFKEQ_clean_linker_1, # of connection points: 2
#     Edge 54, Type (0, 0), BuildingBlock: KIFKEQ_clean_linker_1, # of connection points: 2
#     Edge 55, Type (0, 0), BuildingBlock: KIFKEQ_clean_linker_1, # of connection points: 2
#     Edge 56, Type (0, 0), BuildingBlock: KIFKEQ_clean_linker_1, # of connection points: 2
#     Edge 57, Type (0, 0), BuildingBlock: KIFKEQ_clean_linker_1, # of connection points: 2
#     Edge 58, Type (0, 0), BuildingBlock: KIFKEQ_clean_linker_1, # of connection points: 2
#     Edge 59, Type (0, 0), BuildingBlock: KIFKEQ_clean_linker_1, # of connection points: 2
#     Edge 60, Type (0, 0), BuildingBlock: KIFKEQ_clean_linker_1, # of connection points: 2
#     Edge 61, Type (0, 0), BuildingBlock: KIFKEQ_clean_linker_1, # of connection points: 2
#     Edge 62, Type (0, 0), BuildingBlock: KIFKEQ_clean_linker_1, # of connection points: 2
#     Edge 63, Type (0, 0), BuildingBlock: KIFKEQ_clean_linker_1, # of connection points: 2
#     Edge 64, Type (0, 0), BuildingBlock: KIFKEQ_clean_linker_1, # of connection points: 2
#     Edge 65, Type (0, 0), BuildingBlock: KIFKEQ_clean_linker_1, # of connection points: 2
#     Edge 66, Type (0, 0), BuildingBlock: KIFKEQ_clean_linker_1, # of connection points: 2
#     Edge 67, Type (0, 0), BuildingBlock: KIFKEQ_clean_linker_1, # of connection points: 2
#     Edge 68, Type (0, 0), BuildingBlock: KIFKEQ_clean_linker_1, # of connection points: 2
#     Edge 69, Type (0, 0), BuildingBlock: KIFKEQ_clean_linker_1, # of connection points: 2
#     Edge 70, Type (0, 0), BuildingBlock: KIFKEQ_clean_linker_1, # of connection points: 2
#     Edge 71, Type (0, 0), BuildingBlock: KIFKEQ_clean_linker_1, # of connection points: 2
#     Edge 72, Type (0, 0), BuildingBlock: KIFKEQ_clean_linker_1, # of connection points: 2
#     Edge 73, Type (0, 0), BuildingBlock: KIFKEQ_clean_linker_1, # of connection points: 2
#     Edge 74, Type (0, 0), BuildingBlock: KIFKEQ_clean_linker_1, # of connection points: 2
#     Edge 75, Type (0, 0), BuildingBlock: KIFKEQ_clean_linker_1, # of connection points: 2
#     Edge 76, Type (0, 0), BuildingBlock: KIFKEQ_clean_linker_1, # of connection points: 2
#     Edge 77, Type (0, 0), BuildingBlock: KIFKEQ_clean_linker_1, # of connection points: 2
#     Edge 78, Type (0, 0), BuildingBlock: KIFKEQ_clean_linker_1, # of connection points: 2
#     Edge 79, Type (0, 0), BuildingBlock: KIFKEQ_clean_linker_1, # of connection points: 2
#     Edge 80, Type (0, 0), BuildingBlock: KIFKEQ_clean_linker_1, # of connection points: 2
#     Edge 81, Type (0, 0), BuildingBlock: KIFKEQ_clean_linker_1, # of connection points: 2
#     Edge 82, Type (0, 0), BuildingBlock: KIFKEQ_clean_linker_1, # of connection points: 2
#     Edge 83, Type (0, 0), BuildingBlock: KIFKEQ_clean_linker_1, # of connection points: 2
#     Edge 84, Type (0, 0), BuildingBlock: KIFKEQ_clean_linker_1, # of connection points: 2
#     Edge 85, Type (0, 0), BuildingBlock: KIFKEQ_clean_linker_1, # of connection points: 2
#     Edge 86, Type (0, 0), BuildingBlock: KIFKEQ_clean_linker_1, # of connection points: 2
#     Edge 87, Type (0, 0), BuildingBlock: KIFKEQ_clean_linker_1, # of connection points: 2
#     Edge 88, Type (0, 0), BuildingBlock: KIFKEQ_clean_linker_1, # of connection points: 2
#     Edge 89, Type (0, 0), BuildingBlock: KIFKEQ_clean_linker_1, # of connection points: 2
#     Edge 90, Type (0, 0), BuildingBlock: KIFKEQ_clean_linker_1, # of connection points: 2
#     Edge 91, Type (0, 0), BuildingBlock: KIFKEQ_clean_linker_1, # of connection points: 2
#     Edge 92, Type (0, 0), BuildingBlock: KIFKEQ_clean_linker_1, # of connection points: 2
#     Edge 93, Type (0, 0), BuildingBlock: KIFKEQ_clean_linker_1, # of connection points: 2
#     Edge 94, Type (0, 0), BuildingBlock: KIFKEQ_clean_linker_1, # of connection points: 2
#     Edge 95, Type (0, 0), BuildingBlock: KIFKEQ_clean_linker_1, # of connection points: 2
# Relax obj value: 0.792
# Max RMSD: 0.299
# Mean RMSD: 0.283
data_MOF--net-dia-a--node1-NAHDIM_clean_sbu_0--edge1-KIFKEQ_clean_linker_1
_symmetry_space_group_name_H-M    P1
_symmetry_Int_Tables_number       1
_symmetry_cell_setting            triclinic
loop_
_symmetry_equiv_pos_as_xyz
'x, y, z'
_cell_length_a     70.425494
_cell_length_b     65.104177
_cell_length_c     50.323957
_cell_angle_alpha  94.856466
_cell_angle_beta   93.624058
_cell_angle_gamma 88.911198
loop_
_atom_site_label
_atom_site_type_symbol
_atom_site_fract_x
_atom_site_fract_y
_atom_site_fract_z
_atom_type_partial_charge
C0 C 0.07944 0.01061 0.48024 0.0
O1 O 0.07436 0.02793 0.47 0.0
O2 O 0.10583 0.05925 0.48211 0.0
Zn3 Zn 0.11047 0.03496 0.50451 0.0
O4 O 0.10143 0.04435 0.54072 0.0
C5 C 0.15073 0.04049 0.50205 0.0
O6 O 0.14521 0.05229 0.48301 0.0
O7 O 0.09551 0.00948 0.49298 0.0
C8 C 0.11142 0.05653 0.55672 0.0
O9 O 0.12779 0.06278 0.54946 0.0
C10 C 0.09212 0.07158 0.48756 0.0
O11 O 0.07989 0.06643 0.50443 0.0
O12 O 0.13848 0.02939 0.51128 0.0
C13 C 0.91562 0.19262 0.82442 0.0
O14 O 0.91175 0.20152 0.84789 0.0
O15 O 0.86474 0.22219 0.81614 0.0
Zn16 Zn 0.89214 0.22594 0.80746 0.0
O17 O 0.90409 0.24387 0.83833 0.0
C18 C 0.87892 0.25212 0.76602 0.0
O19 O 0.86243 0.24976 0.77612 0.0
O20 O 0.90782 0.19967 0.8035 0.0
C21 C 0.89485 0.25974 0.84695 0.0
O22 O 0.87839 0.26419 0.83485 0.0
C23 C 0.86105 0.22119 0.84042 0.0
O24 O 0.87514 0.21815 0.85808 0.0
O25 O 0.89343 0.24247 0.77523 0.0
C26 C 0.61475 0.29413 0.0196 0.0
O27 O 0.60121 0.28269 0.0072 0.0
O28 O 0.60199 0.243 0.03745 0.0
Zn29 Zn 0.61427 0.26585 0.06191 0.0
O30 O 0.63875 0.25418 0.07758 0.0
C31 C 0.58351 0.26415 0.09699 0.0
O32 O 0.57592 0.25201 0.0771 0.0
O33 O 0.62118 0.29013 0.04277 0.0
C34 C 0.63907 0.2356 0.08356 0.0
O35 O 0.6236 0.22458 0.079 0.0
C36 C 0.61106 0.23321 0.01921 0.0
O37 O 0.62785 0.23981 0.01406 0.0
O38 O 0.59887 0.27331 0.09377 0.0
C39 C 0.87347 0.99261 0.24226 0.0
O40 O 0.88046 0.98863 0.26614 0.0
O41 O 0.89484 0.94781 0.26601 0.0
Zn42 Zn 0.8724 0.94979 0.2395 0.0
O43 O 0.84993 0.9479 0.26163 0.0
C44 C 0.8871 0.9149 0.20752 0.0
O45 O 0.9035 0.92369 0.21461 0.0
O46 O 0.87011 0.97758 0.22484 0.0
C47 C 0.83325 0.94308 0.25243 0.0
O48 O 0.82991 0.93906 0.22655 0.0
C49 C 0.89663 0.93085 0.27676 0.0
O50 O 0.88494 0.91579 0.26862 0.0
O51 O 0.87186 0.92475 0.21284 0.0
C52 C 0.04163 0.12887 0.79625 0.0
O53 O 0.04472 0.11429 0.77729 0.0
O54 O 0.10304 0.14353 0.80188 0.0
Zn55 Zn 0.07742 0.14441 0.78136 0.0
O56 O 0.07823 0.12229 0.75103 0.0
C57 C 0.08919 0.17834 0.75382 0.0
O58 O 0.10608 0.17018 0.75903 0.0
O59 O 0.05437 0.14228 0.80281 0.0
C60 C 0.06806 0.12353 0.72944 0.0
O61 O 0.05536 0.1385 0.72789 0.0
C62 C 0.11148 0.12608 0.80186 0.0
O63 O 0.1018 0.10948 0.79344 0.0
O64 O 0.07476 0.17066 0.76298 0.0
C65 C 0.71386 0.35372 0.92078 0.0
O66 O 0.71699 0.34541 0.89672 0.0
O67 O 0.77176 0.38 0.94426 0.0
Zn68 Zn 0.75296 0.36362 0.91945 0.0
O69 O 0.76357 0.33454 0.91266 0.0
C70 C 0.75681 0.39408 0.88084 0.0
O71 O 0.76213 0.40645 0.90187 0.0
O72 O 0.72733 0.36296 0.93463 0.0
C73 C 0.76244 0.32562 0.88911 0.0
O74 O 0.75344 0.33498 0.86981 0.0
C75 C 0.77773 0.37508 0.96727 0.0
O76 O 0.77079 0.35874 0.97663 0.0
O77 O 0.75125 0.37608 0.88413 0.0
C78 C 0.77631 0.1011 0.23118 0.0
O79 O 0.76254 0.0957 0.24549 0.0
O80 O 0.73769 0.09541 0.17105 0.0
Zn81 Zn 0.74504 0.11758 0.19999 0.0
O82 O 0.72636 0.11741 0.22905 0.0
C83 C 0.73598 0.16107 0.19137 0.0
O84 O 0.73457 0.16398 0.21731 0.0
O85 O 0.77229 0.11187 0.21166 0.0
C86 C 0.72729 0.12693 0.25222 0.0
O87 O 0.74232 0.13798 0.2602 0.0
C88 C 0.72604 0.08107 0.17316 0.0
O89 O 0.71858 0.07948 0.19616 0.0
O90 O 0.74142 0.14358 0.18123 0.0
C91 C 0.97027 0.92717 0.52669 0.0
O92 O 0.95394 0.93709 0.52389 0.0
O93 O 0.92258 0.89783 0.53037 0.0
Zn94 Zn 0.94598 0.89483 0.50891 0.0
O95 O 0.94036 0.90837 0.47486 0.0
C96 C 0.93803 0.8513 0.50008 0.0
O97 O 0.92529 0.85565 0.51774 0.0
O98 O 0.97024 0.9076 0.52489 0.0
C99 C 0.95223 0.90507 0.45692 0.0
O100 O 0.9675 0.89378 0.4619 0.0
C101 C 0.91051 0.91231 0.52694 0.0
O102 O 0.91507 0.92754 0.51315 0.0
O103 O 0.94974 0.86508 0.49581 0.0
C104 C 0.56977 0.02599 0.98492 0.0
O105 O 0.56749 0.04458 0.97686 0.0
O106 O 0.60264 0.06995 0.99569 0.0
Zn107 Zn 0.60328 0.04343 0.01422 0.0
O108 O 0.59543 0.05157 0.05133 0.0
C109 C 0.64426 0.04255 0.01494 0.0
O110 O 0.64149 0.05834 0.00047 0.0
O111 O 0.58478 0.02169 0.99881 0.0
C112 C 0.60636 0.06339 0.06644 0.0
O113 O 0.62202 0.0698 0.05715 0.0
C114 C 0.58932 0.08298 0.00042 0.0
O115 O 0.5755 0.07797 0.0149 0.0
O116 O 0.62996 0.03228 0.02005 0.0
C117 C 0.9109 0.69923 0.28388 0.0
O118 O 0.89629 0.6931 0.29598 0.0
O119 O 0.8666 0.73315 0.29569 0.0
Zn120 Zn 0.89287 0.74086 0.28614 0.0
O121 O 0.90469 0.75559 0.31975 0.0
C122 C 0.8765 0.7724 0.25418 0.0
O123 O 0.86145 0.76908 0.26729 0.0
O124 O 0.91102 0.7175 0.27674 0.0
C125 C 0.89503 0.76896 0.33319 0.0
O126 O 0.8778 0.77384 0.32405 0.0
C127 C 0.86488 0.728 0.31924 0.0
O128 O 0.88028 0.72254 0.33319 0.0
O129 O 0.89142 0.76146 0.25803 0.0
C130 C 0.12109 0.2819 0.50821 0.0
O131 O 0.11727 0.26625 0.49058 0.0
O132 O 0.10775 0.22956 0.51929 0.0
Zn133 Zn 0.11787 0.25172 0.54702 0.0
O134 O 0.14384 0.24281 0.56131 0.0
C135 C 0.09006 0.24048 0.58297 0.0
O136 O 0.08519 0.22671 0.56323 0.0
O137 O 0.12089 0.27934 0.53293 0.0
C138 C 0.14654 0.22429 0.56699 0.0
O139 O 0.13254 0.21115 0.56243 0.0
C140 C 0.11898 0.21942 0.50407 0.0
O141 O 0.13681 0.22508 0.50444 0.0
O142 O 0.10245 0.25376 0.57949 0.0
C143 C 0.87465 0.46477 0.69435 0.0
O144 O 0.88889 0.46314 0.71224 0.0
O145 O 0.88077 0.4298 0.7432 0.0
Zn146 Zn 0.86577 0.42407 0.70805 0.0
O147 O 0.83916 0.4206 0.71914 0.0
C148 C 0.8895 0.38832 0.69841 0.0
O149 O 0.90173 0.39966 0.71374 0.0
O150 O 0.86484 0.44889 0.68674 0.0
C151 C 0.83487 0.404 0.72874 0.0
O152 O 0.84733 0.38872 0.72865 0.0
C153 C 0.87329 0.4418 0.76101 0.0
O154 O 0.85719 0.45133 0.75491 0.0
O155 O 0.87402 0.39667 0.6901 0.0
C156 C 0.52787 0.15178 0.28153 0.0
O157 O 0.53135 0.15057 0.2561 0.0
O158 O 0.59022 0.16148 0.30754 0.0
Zn159 Zn 0.56623 0.16272 0.28352 0.0
O160 O 0.57122 0.14385 0.25097 0.0
C161 C 0.57815 0.19954 0.26289 0.0
O162 O 0.59495 0.19128 0.26847 0.0
O163 O 0.54144 0.15621 0.29888 0.0
C164 C 0.56795 0.12477 0.24569 0.0
O165 O 0.55964 0.11449 0.26298 0.0
C166 C 0.59727 0.14397 0.31238 0.0
O167 O 0.58652 0.12765 0.30742 0.0
O168 O 0.56342 0.19062 0.26925 0.0
C169 C 0.72482 0.86801 0.45964 0.0
O170 O 0.73678 0.87988 0.47467 0.0
O171 O 0.77436 0.87632 0.45279 0.0
Zn172 Zn 0.75625 0.86185 0.42483 0.0
O173 O 0.76693 0.83357 0.41361 0.0
C174 C 0.75695 0.89713 0.39381 0.0
O175 O 0.75687 0.90751 0.41736 0.0
O176 O 0.72998 0.8593 0.43765 0.0
C177 C 0.78489 0.83088 0.41445 0.0
O178 O 0.79592 0.84632 0.42339 0.0
C179 C 0.78035 0.86927 0.47464 0.0
O180 O 0.7737 0.85174 0.48103 0.0
O181 O 0.7557 0.87762 0.39227 0.0
C182 C 0.29172 0.10296 0.71806 0.0
O183 O 0.28236 0.10433 0.73991 0.0
O184 O 0.24461 0.10146 0.66413 0.0
Zn185 Zn 0.25715 0.12059 0.6934 0.0
O186 O 0.24226 0.11866 0.72632 0.0
C187 C 0.2432 0.16259 0.6859 0.0
O188 O 0.23415 0.16067 0.70753 0.0
O189 O 0.28416 0.11017 0.69717 0.0
C190 C 0.24294 0.13047 0.74782 0.0
O191 O 0.25499 0.14577 0.75095 0.0
C192 C 0.22931 0.10753 0.65228 0.0
O193 O 0.22157 0.12519 0.66078 0.0
O194 O 0.25495 0.14854 0.6783 0.0
C195 C 0.96573 0.44232 0.00566 0.0
O196 O 0.95032 0.45304 -0.00047 0.0
O197 O 0.91787 0.41273 0.01945 0.0
Zn198 Zn 0.93954 0.40986 0.99484 0.0
O199 O 0.9309 0.42214 0.9608 0.0
C200 C 0.93412 0.36574 0.99212 0.0
O201 O 0.92314 0.37046 0.01194 0.0
O202 O 0.96432 0.42308 0.00762 0.0
C203 C 0.91504 0.4168 0.9491 0.0
O204 O 0.90439 0.40388 0.96003 0.0
C205 C 0.90579 0.42745 0.01829 0.0
O206 O 0.91 0.44359 0.00592 0.0
O207 O 0.94357 0.37987 0.98332 0.0
C208 C 0.08941 0.51115 0.98245 0.0
O209 O 0.0877 0.53054 0.97713 0.0
O210 O 0.12067 0.55436 0.99822 0.0
Zn211 Zn 0.12354 0.52572 0.01111 0.0
O212 O 0.11752 0.52913 0.04956 0.0
C213 C 0.16353 0.52591 0.0016 0.0
O214 O 0.15813 0.53804 0.98286 0.0
O215 O 0.10478 0.50508 0.99405 0.0
C216 C 0.10114 0.53489 0.05665 0.0
O217 O 0.08765 0.53838 0.03828 0.0
C218 C 0.1307 0.56783 0.01219 0.0
O219 O 0.1418 0.56203 0.03225 0.0
O220 O 0.15093 0.51621 0.01227 0.0
C221 C 0.46758 0.43899 0.4832 0.0
O222 O 0.45226 0.44444 0.46912 0.0
O223 O 0.42247 0.40748 0.50799 0.0
Zn224 Zn 0.44499 0.40376 0.48495 0.0
O225 O 0.43502 0.41029 0.44829 0.0
C226 C 0.44432 0.3596 0.4892 0.0
O227 O 0.43117 0.36437 0.50616 0.0
O228 O 0.46749 0.42237 0.4948 0.0
C229 C 0.42599 0.39773 0.43166 0.0
O230 O 0.42277 0.37903 0.43812 0.0
C231 C 0.4108 0.4221 0.50339 0.0
O232 O 0.41578 0.43617 0.48806 0.0
O233 O 0.45321 0.37401 0.4801 0.0
C234 C 0.11942 0.78096 0.01529 0.0
O235 O 0.10957 0.76588 0.00241 0.0
O236 O 0.11509 0.72906 0.03702 0.0
Zn237 Zn 0.12233 0.75491 0.06018 0.0
O238 O 0.14854 0.74881 0.07632 0.0
C239 C 0.08894 0.75074 0.08958 0.0
O240 O 0.08218 0.74155 0.06677 0.0
O241 O 0.12483 0.77968 0.03966 0.0
C242 C 0.15057 0.73981 0.09778 0.0
O243 O 0.13538 0.73525 0.10984 0.0
C244 C 0.12744 0.72067 0.02208 0.0
O245 O 0.14333 0.73047 0.01987 0.0
O246 O 0.10502 0.75937 0.09051 0.0
C247 C 0.03893 0.62989 0.28495 0.0
O248 O 0.04116 0.61414 0.26727 0.0
O249 O 0.10235 0.64035 0.29354 0.0
Zn250 Zn 0.07697 0.63787 0.27224 0.0
O251 O 0.07748 0.61155 0.24829 0.0
C252 C 0.07194 0.67877 0.25095 0.0
O253 O 0.06987 0.6864 0.27563 0.0
O254 O 0.05318 0.64113 0.29252 0.0
C255 C 0.09171 0.61005 0.23389 0.0
O256 O 0.10446 0.62468 0.23686 0.0
C257 C 0.11143 0.62386 0.2984 0.0
O258 O 0.10232 0.60631 0.2952 0.0
O259 O 0.07527 0.65961 0.24617 0.0
C260 C 0.21562 0.84993 0.92332 0.0
O261 O 0.22164 0.84035 0.90131 0.0
O262 O 0.27018 0.88185 0.95168 0.0
Zn263 Zn 0.25337 0.86386 0.9257 0.0
O264 O 0.26494 0.83522 0.92071 0.0
C265 C 0.24971 0.89304 0.88401 0.0
O266 O 0.24553 0.90707 0.90316 0.0
O267 O 0.22689 0.86188 0.9377 0.0
C268 C 0.28281 0.83238 0.92415 0.0
O269 O 0.29361 0.84814 0.93253 0.0
C270 C 0.27419 0.87761 0.97562 0.0
O271 O 0.26607 0.86174 0.9845 0.0
O272 O 0.25292 0.87456 0.8895 0.0
C273 C 0.36689 0.97544 0.70974 0.0
O274 O 0.37839 0.97095 0.73007 0.0
O275 O 0.37221 0.93297 0.74699 0.0
Zn276 Zn 0.35414 0.9345 0.71468 0.0
O277 O 0.32877 0.93524 0.73084 0.0
C278 C 0.37315 0.89908 0.69135 0.0
O279 O 0.38815 0.91 0.69997 0.0
O280 O 0.3565 0.9613 0.69778 0.0
C281 C 0.31527 0.92268 0.72499 0.0
O282 O 0.31677 0.90842 0.70512 0.0
C283 C 0.37135 0.91687 0.75947 0.0
O284 O 0.3599 0.90199 0.74976 0.0
O285 O 0.35688 0.90788 0.69149 0.0
C286 C 0.45616 0.93641 0.99795 0.0
O287 O 0.44009 0.94046 0.98463 0.0
O288 O 0.41387 0.90146 0.02112 0.0
Zn289 Zn 0.43702 0.89886 -0.00079 0.0
O290 O 0.42822 0.90187 0.96071 0.0
C291 C 0.43679 0.8553 0.00383 0.0
O292 O 0.42308 0.86021 0.01982 0.0
O293 O 0.45795 0.91949 0.00886 0.0
C294 C 0.41327 0.91122 0.95249 0.0
O295 O 0.40201 0.92031 0.96981 0.0
C296 C 0.40464 0.91761 0.02881 0.0
O297 O 0.41163 0.93577 0.02577 0.0
O298 O 0.44689 0.86963 0.99676 0.0
C299 C 0.29543 0.60011 0.21092 0.0
O300 O 0.28447 0.5989 0.23088 0.0
O301 O 0.25148 0.60173 0.1538 0.0
Zn302 Zn 0.26228 0.61951 0.18562 0.0
O303 O 0.24584 0.61651 0.21697 0.0
C304 C 0.25954 0.65314 0.15157 0.0
O305 O 0.26389 0.63867 0.13306 0.0
O306 O 0.28933 0.60967 0.19106 0.0
C307 C 0.2396 0.63257 0.23006 0.0
O308 O 0.24546 0.65073 0.22478 0.0
C309 C 0.24381 0.58441 0.15535 0.0
O310 O 0.2422 0.57758 0.17892 0.0
O311 O 0.25991 0.64879 0.17574 0.0
C312 C 0.40749 0.69322 0.80152 0.0
O313 O 0.39397 0.68888 0.81688 0.0
O314 O 0.36448 0.7288 0.8135 0.0
Zn315 Zn 0.39036 0.73508 0.80107 0.0
O316 O 0.40382 0.75098 0.83261 0.0
C317 C 0.3727 0.76414 0.76619 0.0
O318 O 0.35798 0.76147 0.78025 0.0
O319 O 0.40734 0.71065 0.79184 0.0
C320 C 0.39479 0.7653 0.84537 0.0
O321 O 0.3775 0.77024 0.83651 0.0
C322 C 0.36339 0.7253 0.83785 0.0
O323 O 0.3791 0.72066 0.85171 0.0
O324 O 0.38795 0.75393 0.77089 0.0
C325 C 0.58801 0.51837 0.47742 0.0
O326 O 0.58696 0.53732 0.4703 0.0
O327 O 0.61657 0.56318 0.49974 0.0
Zn328 Zn 0.61709 0.53541 0.51503 0.0
O329 O 0.60621 0.54009 0.55107 0.0
C330 C 0.65785 0.53712 0.51574 0.0
O331 O 0.65414 0.55013 0.49747 0.0
O332 O 0.60135 0.5135 0.49398 0.0
C333 C 0.58934 0.53599 0.55635 0.0
O334 O 0.57744 0.52804 0.53724 0.0
C335 C 0.60291 0.57602 0.50297 0.0
O336 O 0.58762 0.57031 0.5139 0.0
O337 O 0.64426 0.52696 0.52341 0.0
C338 C 0.63168 0.78489 0.53697 0.0
O339 O 0.62483 0.76841 0.52305 0.0
O340 O 0.6241 0.7341 0.55619 0.0
Zn341 Zn 0.63506 0.75796 0.58007 0.0
O342 O 0.66209 0.74974 0.59092 0.0
C343 C 0.6026 0.75602 0.61177 0.0
O344 O 0.59359 0.75229 0.58823 0.0
O345 O 0.63581 0.78426 0.56183 0.0
C346 C 0.66861 0.75116 0.61514 0.0
O347 O 0.65774 0.75897 0.63384 0.0
C348 C 0.63346 0.72398 0.53854 0.0
O349 O 0.65052 0.73016 0.53397 0.0
O350 O 0.62011 0.76058 0.61295 0.0
C351 C 0.78914 0.58692 0.71473 0.0
O352 O 0.7721 0.58162 0.72067 0.0
O353 O 0.75345 0.60293 0.66857 0.0
Zn354 Zn 0.7663 0.61958 0.70009 0.0
O355 O 0.74881 0.62005 0.73074 0.0
C356 C 0.76859 0.6516 0.66485 0.0
O357 O 0.77079 0.63569 0.64739 0.0
O358 O 0.79126 0.60484 0.70722 0.0
C359 C 0.73511 0.63308 0.73043 0.0
O360 O 0.73394 0.64602 0.71172 0.0
C361 C 0.74036 0.59009 0.67056 0.0
O362 O 0.73427 0.58754 0.69418 0.0
O363 O 0.76873 0.64859 0.68949 0.0
C364 C 0.53486 0.62318 0.7973 0.0
O365 O 0.53684 0.60456 0.78545 0.0
O366 O 0.59687 0.63168 0.79329 0.0
Zn367 Zn 0.57064 0.63099 0.77444 0.0
O368 O 0.56788 0.60527 0.74956 0.0
C369 C 0.5719 0.67289 0.75838 0.0
O370 O 0.57472 0.67811 0.7841 0.0
O371 O 0.54839 0.63586 0.79744 0.0
C372 C 0.5554 0.60491 0.73016 0.0
O373 O 0.54338 0.62052 0.72858 0.0
C374 C 0.60744 0.61561 0.79259 0.0
O375 O 0.59993 0.59781 0.78377 0.0
O376 O 0.56982 0.65402 0.75024 0.0
C377 C 0.21986 0.37472 0.46197 0.0
O378 O 0.23434 0.37725 0.47964 0.0
O379 O 0.26761 0.39225 0.45231 0.0
Zn380 Zn 0.24806 0.38075 0.42384 0.0
O381 O 0.25824 0.35383 0.40728 0.0
C382 C 0.25636 0.41388 0.39135 0.0
O383 O 0.26766 0.42025 0.41206 0.0
O384 O 0.22243 0.37621 0.43747 0.0
C385 C 0.254 0.33562 0.41189 0.0
O386 O 0.24177 0.33284 0.42987 0.0
C387 C 0.27836 0.38008 0.46512 0.0
O388 O 0.27542 0.36016 0.46137 0.0
O389 O 0.24573 0.39856 0.39306 0.0
C390 C 0.3695 0.47243 0.19497 0.0
O391 O 0.38258 0.46692 0.21285 0.0
O392 O 0.37176 0.4309 0.23509 0.0
Zn393 Zn 0.35361 0.4331 0.20303 0.0
O394 O 0.328 0.43543 0.2186 0.0
C395 C 0.37168 0.39686 0.18106 0.0
O396 O 0.38685 0.40769 0.18905 0.0
O397 O 0.35721 0.45931 0.18531 0.0
C398 C 0.32042 0.41956 0.22619 0.0
O399 O 0.32855 0.40145 0.22107 0.0
C400 C 0.36896 0.44147 0.25691 0.0
O401 O 0.35514 0.45532 0.25757 0.0
O402 O 0.35552 0.40593 0.18093 0.0
C403 C 0.39875 0.20214 0.31347 0.0
O404 O 0.39341 0.20647 0.33788 0.0
O405 O 0.35198 0.23948 0.31083 0.0
Zn406 Zn 0.37998 0.24091 0.30506 0.0
O407 O 0.39239 0.25352 0.33953 0.0
C408 C 0.37292 0.26137 0.25581 0.0
O409 O 0.35934 0.24778 0.25072 0.0
O410 O 0.39322 0.21386 0.29545 0.0
C411 C 0.41019 0.2535 0.34549 0.0
O412 O 0.42181 0.24484 0.32827 0.0
C413 C 0.34677 0.23631 0.33387 0.0
O414 O 0.35962 0.23051 0.35189 0.0
O415 O 0.38353 0.26084 0.27717 0.0
H416 H 0.00568 0.91076 0.51761 0.0
H417 H 0.97507 0.96868 0.52934 0.0
H418 H 0.03309 0.92906 0.50438 0.0
H419 H 0.00244 0.98685 0.51644 0.0
H420 H 0.0424 0.01029 0.46067 0.0
H421 H 0.01708 0.98888 0.4734 0.0
H422 H 0.05801 0.9546 0.52031 0.0
H423 H 0.08348 0.97583 0.5073 0.0
C424 C 0.00494 0.92741 0.51796 0.0
C425 C 0.98812 0.93826 0.52429 0.0
C426 C 0.02061 0.93787 0.51027 0.0
C427 C 0.01972 0.95932 0.50875 0.0
C428 C 0.00334 0.97024 0.51669 0.0
C429 C 0.98774 0.95984 0.52438 0.0
C430 C 0.04609 0.99795 0.47328 0.0
C431 C 0.06493 0.99496 0.48324 0.0
C432 C 0.03155 0.98582 0.4808 0.0
C433 C 0.03552 0.97042 0.4984 0.0
C434 C 0.05451 0.96642 0.50683 0.0
C435 C 0.06909 0.97859 0.49933 0.0
H436 H 0.92919 0.17277 0.77914 0.0
H437 H 0.93779 0.17782 0.86524 0.0
H438 H 0.95852 0.1525 0.77582 0.0
H439 H 0.96705 0.15744 0.86184 0.0
H440 H 0.03043 0.15637 0.83651 0.0
H441 H 0.99799 0.16697 0.84562 0.0
H442 H 0.97633 0.1203 0.78586 0.0
H443 H 0.00884 0.10969 0.7766 0.0
C444 C 0.93709 0.16918 0.79737 0.0
C445 C 0.9313 0.1772 0.82242 0.0
C446 C 0.95386 0.15746 0.79547 0.0
C447 C 0.9652 0.15357 0.81859 0.0
C448 C 0.95874 0.16044 0.84369 0.0
C449 C 0.94193 0.17206 0.8456 0.0
C450 C 0.01877 0.14805 0.82572 0.0
C451 C 0.02223 0.13237 0.8056 0.0
C452 C 0.00015 0.15405 0.83104 0.0
C453 C 0.98461 0.14459 0.81625 0.0
C454 C 0.98804 0.12802 0.79733 0.0
C455 C 0.00668 0.12189 0.79217 0.0
H456 H 0.6863 0.32629 0.90249 0.0
H457 H 0.70042 0.37325 0.96619 0.0
H458 H 0.659 0.31673 0.92565 0.0
H459 H 0.67253 0.36433 0.9889 0.0
H460 H 0.64496 0.31768 0.03869 0.0
H461 H 0.66579 0.33637 0.01323 0.0
H462 H 0.62857 0.32352 0.94232 0.0
H463 H 0.60797 0.30393 0.96782 0.0
C464 C 0.68329 0.33493 0.92115 0.0
C465 C 0.6957 0.35026 0.93277 0.0
C466 C 0.6675 0.32956 0.93436 0.0
C467 C 0.66363 0.33958 0.95936 0.0
C468 C 0.67532 0.35595 0.97 0.0
C469 C 0.69126 0.36113 0.95695 0.0
C470 C 0.64099 0.3191 0.01777 0.0
C471 C 0.62499 0.30895 0.00517 0.0
C472 C 0.6529 0.33003 0.00314 0.0
C473 C 0.64903 0.33128 0.97556 0.0
C474 C 0.6322 0.32248 0.96339 0.0
C475 C 0.62032 0.31137 0.97805 0.0
H476 H 0.80413 0.09789 0.19542 0.0
H477 H 0.79121 0.08162 0.27373 0.0
H478 H 0.83255 0.07579 0.19706 0.0
H479 H 0.81959 0.05969 0.27535 0.0
H480 H 0.87474 0.02668 0.2778 0.0
H481 H 0.85532 0.05791 0.27537 0.0
H482 H 0.83441 0.03677 0.19543 0.0
H483 H 0.85381 0.00547 0.19775 0.0
C484 C 0.80761 0.09003 0.21326 0.0
C485 C 0.79532 0.09129 0.23435 0.0
C486 C 0.82383 0.07732 0.21411 0.0
C487 C 0.8282 0.06594 0.23623 0.0
C488 C 0.81667 0.06841 0.25812 0.0
C489 C 0.80035 0.08089 0.25713 0.0
C490 C 0.86637 0.02889 0.25942 0.0
C491 C 0.86552 0.01339 0.23815 0.0
C492 C 0.85523 0.04677 0.25811 0.0
C493 C 0.84316 0.04961 0.2354 0.0
C494 C 0.84363 0.03503 0.21318 0.0
C495 C 0.85469 0.01705 0.21455 0.0
H496 H 0.57022 0.98504 0.99354 0.0
H497 H 0.53252 0.03513 0.97286 0.0
H498 H 0.54284 0.96302 0.99596 0.0
H499 H 0.50524 0.01365 0.97659 0.0
H500 H 0.45981 0.96572 0.96343 0.0
H501 H 0.48755 0.9859 0.95765 0.0
H502 H 0.51765 0.9581 0.02344 0.0
H503 H 0.48999 0.93694 0.02822 0.0
C504 C 0.55608 0.99129 0.98935 0.0
C505 C 0.55353 0.0118 0.98296 0.0
C506 C 0.54037 0.97876 0.99106 0.0
C507 C 0.52175 0.98657 0.98677 0.0
C508 C 0.51931 0.00694 0.97966 0.0
C509 C 0.535 0.01933 0.97754 0.0
C510 C 0.47229 0.96398 0.97682 0.0
C511 C 0.47268 0.9498 0.9964 0.0
C512 C 0.48824 0.97564 0.97354 0.0
C513 C 0.50491 0.97374 0.99008 0.0
C514 C 0.5052 0.95973 0.00998 0.0
C515 C 0.48929 0.94776 0.01297 0.0
H516 H 0.94501 0.71013 0.26697 0.0
H517 H 0.91709 0.66002 0.2993 0.0
H518 H 0.97523 0.6917 0.27091 0.0
H519 H 0.94764 0.64144 0.30304 0.0
H520 H 0.00527 0.61011 0.2717 0.0
H521 H 0.9733 0.62538 0.27236 0.0
H522 H 0.99663 0.68192 0.31086 0.0
H523 H 0.02854 0.66681 0.31028 0.0
C524 C 0.94524 0.69508 0.27467 0.0
C525 C 0.92861 0.68662 0.28299 0.0
C526 C 0.96263 0.68461 0.27716 0.0
C527 C 0.96381 0.66535 0.28777 0.0
C528 C 0.9471 0.65635 0.29495 0.0
C529 C 0.92964 0.66696 0.29273 0.0
C530 C 0.00354 0.62565 0.28085 0.0
C531 C 0.01949 0.63734 0.29062 0.0
C532 C 0.98523 0.63435 0.28123 0.0
C533 C 0.98258 0.65493 0.29118 0.0
C534 C 0.99835 0.66612 0.30261 0.0
C535 C 0.01661 0.6574 0.30247 0.0
H536 H 0.18687 0.36904 0.43074 0.0
H537 H 0.2114 0.3631 0.51069 0.0
H538 H 0.15839 0.35157 0.44156 0.0
H539 H 0.18325 0.34518 0.52124 0.0
H540 H 0.13206 0.2889 0.45871 0.0
H541 H 0.15255 0.31618 0.44786 0.0
H542 H 0.14982 0.34515 0.52807 0.0
H543 H 0.12972 0.31744 0.53918 0.0
C544 C 0.18609 0.36425 0.45074 0.0
C545 C 0.20151 0.36718 0.46975 0.0
C546 C 0.16979 0.35417 0.45689 0.0
C547 C 0.16861 0.34674 0.48214 0.0
C548 C 0.18355 0.35087 0.50166 0.0
C549 C 0.1998 0.36103 0.49556 0.0
C550 C 0.13545 0.30132 0.47387 0.0
C551 C 0.12959 0.30077 0.49996 0.0
C552 C 0.14715 0.31708 0.4676 0.0
C553 C 0.15311 0.33269 0.48725 0.0
C554 C 0.14585 0.33309 0.51267 0.0
C555 C 0.13424 0.31727 0.51898 0.0
H556 H 0.78625 0.54612 0.7209 0.0
H557 H 0.82622 0.59149 0.70189 0.0
H558 H 0.80938 0.51889 0.71108 0.0
H559 H 0.84969 0.56381 0.69239 0.0
H560 H 0.88691 0.50251 0.71667 0.0
H561 H 0.86796 0.5344 0.71975 0.0
H562 H 0.82428 0.50544 0.66614 0.0
H563 H 0.84307 0.47365 0.66283 0.0
C564 C 0.80005 0.55035 0.7149 0.0
C565 C 0.80433 0.571 0.71203 0.0
C566 C 0.81323 0.53469 0.70904 0.0
C567 C 0.83113 0.53926 0.70046 0.0
C568 C 0.83589 0.55994 0.69874 0.0
C569 C 0.8225 0.57572 0.70427 0.0
C570 C 0.87355 0.50312 0.70484 0.0
C571 C 0.8663 0.48536 0.68998 0.0
C572 C 0.86273 0.5214 0.70664 0.0
C573 C 0.84453 0.52213 0.69367 0.0
C574 C 0.83816 0.50509 0.67671 0.0
C575 C 0.84898 0.48692 0.67475 0.0
H576 H 0.49722 0.13673 0.2509 0.0
H577 H 0.51343 0.16631 0.3289 0.0
H578 H 0.46378 0.14229 0.25944 0.0
H579 H 0.48 0.17244 0.33717 0.0
H580 H 0.41506 0.19158 0.26634 0.0
H581 H 0.44507 0.17342 0.26036 0.0
H582 H 0.44836 0.16053 0.34338 0.0
H583 H 0.41839 0.17921 0.34956 0.0
C584 C 0.49362 0.14414 0.27006 0.0
C585 C 0.50794 0.15141 0.28906 0.0
C586 C 0.47445 0.14739 0.2749 0.0
C587 C 0.46918 0.15816 0.29876 0.0
C588 C 0.48351 0.16398 0.31862 0.0
C589 C 0.50271 0.16056 0.31386 0.0
C590 C 0.42193 0.18449 0.28321 0.0
C591 C 0.41447 0.18716 0.30852 0.0
C592 C 0.43914 0.17393 0.27975 0.0
C593 C 0.44928 0.16571 0.3015 0.0
C594 C 0.44108 0.167 0.32635 0.0
C595 C 0.42383 0.17759 0.32982 0.0
H596 H 0.71624 0.86813 0.51158 0.0
H597 H 0.6927 0.85445 0.43088 0.0
H598 H 0.68914 0.85233 0.52866 0.0
H599 H 0.66476 0.83979 0.44791 0.0
H600 H 0.63996 0.78434 0.48487 0.0
H601 H 0.65868 0.80911 0.4651 0.0
H602 H 0.6576 0.84971 0.53771 0.0
H603 H 0.6398 0.82404 0.55805 0.0
C604 C 0.70492 0.86232 0.49753 0.0
C605 C 0.70671 0.86217 0.46992 0.0
C606 C 0.68922 0.85336 0.50732 0.0
C607 C 0.67473 0.84442 0.4897 0.0
C608 C 0.67585 0.84592 0.46209 0.0
C609 C 0.69179 0.85445 0.4523 0.0
C610 C 0.64334 0.79875 0.49642 0.0
C611 C 0.63874 0.80209 0.52317 0.0
C612 C 0.65404 0.81312 0.48499 0.0
C613 C 0.66006 0.83138 0.49991 0.0
C614 C 0.65378 0.83556 0.52586 0.0
C615 C 0.64342 0.82095 0.53748 0.0
H616 H 0.31047 0.0909 0.67322 0.0
H617 H 0.31129 0.08389 0.75794 0.0
H618 H 0.33396 0.06307 0.66807 0.0
H619 H 0.33471 0.05607 0.75269 0.0
H620 H 0.3805 0.00969 0.73953 0.0
H621 H 0.36718 0.04455 0.73988 0.0
H622 H 0.32936 0.02551 0.67172 0.0
H623 H 0.34264 0.99069 0.67127 0.0
C624 C 0.31597 0.08377 0.69086 0.0
C625 C 0.30876 0.08938 0.71596 0.0
C626 C 0.32938 0.06778 0.68784 0.0
C627 C 0.33601 0.05724 0.70989 0.0
C628 C 0.32997 0.06398 0.73533 0.0
C629 C 0.31645 0.07986 0.73832 0.0
C630 C 0.3697 0.01304 0.72415 0.0
C631 C 0.36237 0.9973 0.70566 0.0
C632 C 0.36203 0.03301 0.72447 0.0
C633 C 0.34704 0.03768 0.70611 0.0
C634 C 0.34095 0.02242 0.68608 0.0
C635 C 0.34852 0.00242 0.68589 0.0
H636 H 0.00015 0.42249 0.00177 0.0
H637 H 0.97393 0.48312 0.00666 0.0
H638 H 0.03038 0.43752 0.99337 0.0
H639 H 0.00429 0.49826 -0.00073 0.0
H640 H 0.0544 0.51842 0.95825 0.0
H641 H 0.02491 0.5008 0.96399 0.0
H642 H 0.05594 0.45816 0.0125 0.0
H643 H 0.08545 0.47524 0.0059 0.0
C644 C 0.00093 0.43908 0.00161 0.0
C645 C 0.98463 0.45162 0.00478 0.0
C646 C 0.01828 0.44771 0.99676 0.0
C647 C 0.01973 0.46909 0.99522 0.0
C648 C 0.00358 0.48168 -0.00044 0.0
C649 C 0.98621 0.47303 0.00414 0.0
C650 C 0.05496 0.50503 0.96969 0.0
C651 C 0.07225 0.49832 0.98173 0.0
C652 C 0.03803 0.49508 0.97328 0.0
C653 C 0.03797 0.47832 0.9892 0.0
C654 C 0.05543 0.47095 4e-05 0.0
C655 C 0.07238 0.48077 0.99623 0.0
H656 H 0.47519 0.46551 0.44665 0.0
H657 H 0.50033 0.43758 0.51563 0.0
H658 H 0.50483 0.48253 0.44147 0.0
H659 H 0.52994 0.45566 0.51141 0.0
H660 H 0.58568 0.47758 0.48608 0.0
H661 H 0.55681 0.45745 0.48591 0.0
H662 H 0.52351 0.50952 0.46027 0.0
H663 H 0.5523 0.52906 0.45914 0.0
C664 C 0.48699 0.4633 0.46105 0.0
C665 C 0.48538 0.45033 0.4817 0.0
C666 C 0.50404 0.47312 0.45809 0.0
C667 C 0.51985 0.47059 0.47605 0.0
C668 C 0.51819 0.4577 0.49689 0.0
C669 C 0.50117 0.44752 0.49955 0.0
C670 C 0.5722 0.4845 0.47981 0.0
C671 C 0.57127 0.50491 0.47264 0.0
C672 C 0.55561 0.47307 0.48007 0.0
C673 C 0.53773 0.48191 0.47347 0.0
C674 C 0.53698 0.50203 0.46517 0.0
C675 C 0.55356 0.51331 0.46453 0.0
H676 H 0.14366 0.81137 0.03535 0.0
H677 H 0.11436 0.78666 0.96186 0.0
H678 H 0.16305 0.83211 0.01043 0.0
H679 H 0.13331 0.80832 0.93674 0.0
H680 H 0.19277 0.81789 0.90481 0.0
H681 H 0.1652 0.80588 0.92515 0.0
H682 H 0.16825 0.85871 0.98339 0.0
H683 H 0.19654 0.87018 0.96365 0.0
C684 C 0.14096 0.8108 0.01387 0.0
C685 C 0.12775 0.79698 0.00055 0.0
C686 C 0.15202 0.82291 -0.0005 0.0
C687 C 0.15002 0.82169 0.97143 0.0
C688 C 0.13558 0.80926 0.95829 0.0
C689 C 0.1246 0.79695 0.9727 0.0
C690 C 0.18739 0.82713 0.92169 0.0
C691 C 0.19705 0.84476 0.93295 0.0
C692 C 0.17141 0.82033 0.93327 0.0
C693 C 0.16455 0.83116 0.95619 0.0
C694 C 0.17339 0.8497 0.96616 0.0
C695 C 0.18956 0.85634 0.9548 0.0
H696 H 0.3458 0.48965 0.1576 0.0
H697 H 0.38357 0.50527 0.22714 0.0
H698 H 0.33298 0.52475 0.16051 0.0
H699 H 0.37058 0.54035 0.2301 0.0
H700 H 0.31351 0.57838 0.2495 0.0
H701 H 0.337 0.55072 0.24286 0.0
H702 H 0.33913 0.56314 0.1602 0.0
H703 H 0.31574 0.59093 0.16677 0.0
C704 C 0.35176 0.50073 0.17302 0.0
C705 C 0.3655 0.49459 0.19234 0.0
C706 C 0.34447 0.52087 0.17464 0.0
C707 C 0.35064 0.53519 0.19575 0.0
C708 C 0.36546 0.52954 0.21379 0.0
C709 C 0.37295 0.50947 0.21196 0.0
C710 C 0.31935 0.57559 0.2301 0.0
C711 C 0.31253 0.58665 0.2086 0.0
C712 C 0.33289 0.55981 0.22632 0.0
C713 C 0.33974 0.55467 0.20092 0.0
C714 C 0.33395 0.56669 0.17991 0.0
C715 C 0.32059 0.58263 0.18375 0.0
H716 H 0.50115 0.60231 0.79237 0.0
H717 H 0.5252 0.66207 0.81689 0.0
H718 H 0.46913 0.61748 0.7941 0.0
H719 H 0.49334 0.67702 0.81848 0.0
H720 H 0.43936 0.70022 0.77586 0.0
H721 H 0.46955 0.68161 0.77844 0.0
H722 H 0.44538 0.63758 0.82571 0.0
H723 H 0.41487 0.65637 0.82337 0.0
C724 C 0.49964 0.61854 0.79871 0.0
C725 C 0.51575 0.63104 0.80409 0.0
C726 C 0.48131 0.62719 0.79967 0.0
C727 C 0.47885 0.64847 0.80584 0.0
C728 C 0.49489 0.66063 0.81311 0.0
C729 C 0.51314 0.65201 0.81237 0.0
C730 C 0.44031 0.68646 0.78659 0.0
C731 C 0.42472 0.67992 0.79966 0.0
C732 C 0.45768 0.6759 0.78823 0.0
C733 C 0.45986 0.65844 0.80275 0.0
C734 C 0.44405 0.65111 0.81455 0.0
C735 C 0.42662 0.66184 0.81314 0.0
H736 H 0.08288 0.20512 0.49228 0.0
H737 H 0.14205 0.18755 0.48718 0.0
H738 H 0.0737 0.16964 0.47889 0.0
H739 H 0.1331 0.15206 0.4754 0.0
H740 H 0.11534 0.08828 0.45343 0.0
H741 H 0.1195 0.12481 0.44823 0.0
H742 H 0.07429 0.13992 0.5012 0.0
H743 H 0.06956 0.10368 0.50511 0.0
C744 C 0.09391 0.19371 0.48795 0.0
C745 C 0.11318 0.19907 0.49111 0.0
C746 C 0.08867 0.17332 0.48048 0.0
C747 C 0.10263 0.15774 0.47658 0.0
C748 C 0.12186 0.1635 0.47793 0.0
C749 C 0.12705 0.18394 0.48489 0.0
C750 C 0.10598 0.09943 0.46336 0.0
C751 C 0.09231 0.09307 0.47999 0.0
C752 C 0.10846 0.12041 0.46058 0.0
C753 C 0.0975 0.13549 0.47468 0.0
C754 C 0.08293 0.12893 0.48975 0.0
C755 C 0.08028 0.108 0.4922 0.0
H756 H 0.86438 0.3597 0.67442 0.0
H757 H 0.91769 0.36527 0.72175 0.0
H758 H 0.86294 0.32352 0.68314 0.0
H759 H 0.91594 0.32944 0.73114 0.0
H760 H 0.91137 0.26318 0.7436 0.0
H761 H 0.91563 0.29322 0.71877 0.0
H762 H 0.85574 0.30812 0.72262 0.0
H763 H 0.85143 0.27792 0.74657 0.0
C764 C 0.87601 0.35312 0.68618 0.0
C765 C 0.89098 0.36552 0.69778 0.0
C766 C 0.8751 0.33239 0.69138 0.0
C767 C 0.88909 0.32363 0.70835 0.0
C768 C 0.90492 0.33556 0.71792 0.0
C769 C 0.90588 0.35623 0.71261 0.0
C770 C 0.89905 0.27265 0.73864 0.0
C771 C 0.8811 0.26828 0.74739 0.0
C772 C 0.90151 0.28994 0.72452 0.0
C773 C 0.88609 0.30328 0.71889 0.0
C774 C 0.86794 0.29814 0.72625 0.0
C775 C 0.86547 0.28084 0.74025 0.0
H776 H 0.62131 0.10338 0.9904 0.0
H777 H 0.56066 0.11135 0.99596 0.0
H778 H 0.62451 0.14037 0.98859 0.0
H779 H 0.56363 0.14827 0.99282 0.0
H780 H 0.62675 0.20765 0.9801 0.0
H781 H 0.61959 0.17143 0.96791 0.0
H782 H 0.57467 0.17538 0.02295 0.0
H783 H 0.5813 0.21153 0.03416 0.0
C784 C 0.60858 0.11298 0.99038 0.0
C785 C 0.59077 0.10453 0.9937 0.0
C786 C 0.61038 0.13425 0.98922 0.0
C787 C 0.59435 0.14748 0.99099 0.0
C788 C 0.57635 0.13869 0.99215 0.0
C789 C 0.57461 0.11749 0.99375 0.0
C790 C 0.61507 0.20086 0.98911 0.0
C791 C 0.60472 0.21245 0.00829 0.0
C792 C 0.61106 0.18003 0.98228 0.0
C793 C 0.5967 0.17029 0.99465 0.0
C794 C 0.58567 0.18228 0.01268 0.0
C795 C 0.58956 0.2031 0.01928 0.0
H796 H 0.90464 0.78348 0.22308 0.0
H797 H 0.8494 0.80258 0.24967 0.0
H798 H 0.907 0.81578 0.20223 0.0
H799 H 0.85204 0.835 0.22996 0.0
H800 H 0.91599 0.88688 0.21411 0.0
H801 H 0.91279 0.8503 0.21813 0.0
H802 H 0.85311 0.85447 0.19285 0.0
H803 H 0.8562 0.89144 0.19002 0.0
C804 C 0.89291 0.79447 0.22424 0.0
C805 C 0.87693 0.79054 0.23832 0.0
C806 C 0.89431 0.81305 0.2124 0.0
C807 C 0.87982 0.8282 0.21458 0.0
C808 C 0.8634 0.82369 0.22745 0.0
C809 C 0.86194 0.80508 0.23902 0.0
C810 C 0.90229 0.87994 0.20868 0.0
C811 C 0.88627 0.89218 0.20223 0.0
C812 C 0.90044 0.85883 0.21091 0.0
C813 C 0.88257 0.8494 0.2064 0.0
C814 C 0.86697 0.8613 0.19726 0.0
C815 C 0.86878 0.88248 0.19536 0.0
H816 H 0.22844 0.09654 0.76665 0.0
H817 H 0.22179 0.16256 0.7683 0.0
H818 H 0.19901 0.09451 0.7892 0.0
H819 H 0.19153 0.16066 0.78851 0.0
H820 H 0.13652 0.15539 0.82443 0.0
H821 H 0.17083 0.15569 0.82025 0.0
H822 H 0.16768 0.09528 0.77714 0.0
H823 H 0.13407 0.09451 0.78321 0.0
C824 C 0.22069 0.11064 0.77216 0.0
C825 C 0.22728 0.12967 0.76575 0.0
C826 C 0.20365 0.10952 0.78476 0.0
C827 C 0.19237 0.12734 0.79017 0.0
C828 C 0.19969 0.14654 0.78509 0.0
C829 C 0.21708 0.1477 0.77333 0.0
C830 C 0.14336 0.14198 0.81475 0.0
C831 C 0.13254 0.12501 0.804 0.0
C832 C 0.16304 0.14221 0.81203 0.0
C833 C 0.17227 0.12568 0.79787 0.0
C834 C 0.16146 0.10824 0.78855 0.0
C835 C 0.14196 0.10782 0.79187 0.0
H836 H 0.79577 0.36756 0.01552 0.0
H837 H 0.79644 0.40793 0.9517 0.0
H838 H 0.8248 0.38344 0.03629 0.0
H839 H 0.82555 0.42326 0.97187 0.0
H840 H 0.87511 0.45353 0.0128 0.0
H841 H 0.84177 0.44378 0.00739 0.0
H842 H 0.85748 0.38189 0.02596 0.0
H843 H 0.89058 0.3918 0.03233 0.0
C844 C 0.80197 0.37997 0.00607 0.0
C845 C 0.79389 0.3863 0.98177 0.0
C846 C 0.81865 0.38901 0.01793 0.0
C847 C 0.82763 0.40457 0.00572 0.0
C848 C 0.81895 0.41157 0.98214 0.0
C849 C 0.80229 0.4026 0.97037 0.0
C850 C 0.87138 0.43802 0.01654 0.0
C851 C 0.88559 0.42334 0.02243 0.0
C852 C 0.85226 0.43237 0.01319 0.0
C853 C 0.84695 0.4119 0.01552 0.0
C854 C 0.86097 0.39779 0.02401 0.0
C855 C 0.88005 0.40348 0.02756 0.0
H856 H 0.71996 0.15291 0.29637 0.0
H857 H 0.69643 0.10203 0.24478 0.0
H858 H 0.69031 0.1562 0.31936 0.0
H859 H 0.66695 0.10543 0.26743 0.0
H860 H 0.61767 0.10809 0.31654 0.0
H861 H 0.65129 0.10257 0.30897 0.0
H862 H 0.65796 0.16809 0.30564 0.0
H863 H 0.62446 0.17368 0.31362 0.0
C864 C 0.70861 0.14221 0.29023 0.0
C865 C 0.71049 0.12732 0.26858 0.0
C866 C 0.69161 0.14416 0.30332 0.0
C867 C 0.67624 0.13111 0.29522 0.0
C868 C 0.67855 0.11557 0.27447 0.0
C869 C 0.69543 0.11373 0.26129 0.0
C870 C 0.6264 0.12139 0.31497 0.0
C871 C 0.61826 0.14129 0.31517 0.0
C872 C 0.64566 0.1182 0.31045 0.0
C873 C 0.65721 0.13483 0.30612 0.0
C874 C 0.64949 0.15493 0.30891 0.0
C875 C 0.63022 0.15813 0.31342 0.0
H876 H 0.88128 0.94044 0.52498 0.0
H877 H 0.89374 0.87678 0.53835 0.0
H878 H 0.8474 0.93299 0.5205 0.0
H879 H 0.86011 0.86909 0.5326 0.0
H880 H 0.79821 0.8578 0.52129 0.0
H881 H 0.82787 0.87125 0.54323 0.0
H882 H 0.82938 0.91596 0.48458 0.0
H883 H 0.79963 0.90311 0.46351 0.0
C884 C 0.87677 0.92494 0.52749 0.0
C885 C 0.89023 0.90912 0.53143 0.0
C886 C 0.85734 0.92061 0.52469 0.0
C887 C 0.85099 0.90031 0.52539 0.0
C888 C 0.86437 0.88493 0.53194 0.0
C889 C 0.88377 0.88932 0.53513 0.0
C890 C 0.80471 0.87078 0.51347 0.0
C891 C 0.79667 0.87919 0.49043 0.0
C892 C 0.82177 0.87844 0.52597 0.0
C893 C 0.8312 0.89459 0.5156 0.0
C894 C 0.8225 0.90372 0.49348 0.0
C895 C 0.80544 0.89619 0.48115 0.0
H896 H 0.56278 0.08443 0.22611 0.0
H897 H 0.58605 0.14203 0.20711 0.0
H898 H 0.57266 0.06798 0.18352 0.0
H899 H 0.59555 0.12577 0.16481 0.0
H900 H 0.62755 0.08695 0.10414 0.0
H901 H 0.61869 0.10017 0.14839 0.0
H902 H 0.56474 0.06933 0.13483 0.0
H903 H 0.57374 0.05574 0.09058 0.0
C904 C 0.56995 0.09357 0.21289 0.0
C905 C 0.57365 0.11451 0.22003 0.0
C906 C 0.57554 0.08418 0.1885 0.0
C907 C 0.585 0.09556 0.17093 0.0
C908 C 0.58861 0.11649 0.17811 0.0
C909 C 0.58302 0.12584 0.20233 0.0
C910 C 0.61383 0.08289 0.1106 0.0
C911 C 0.60127 0.07047 0.09377 0.0
C912 C 0.60874 0.09052 0.13593 0.0
C913 C 0.59094 0.08594 0.14497 0.0
C914 C 0.57859 0.07299 0.12847 0.0
C915 C 0.58371 0.06533 0.10308 0.0
H916 H 0.83231 0.74629 0.29891 0.0
H917 H 0.85949 0.72713 0.37239 0.0
H918 H 0.80974 0.76737 0.32452 0.0
H919 H 0.83691 0.74821 0.39784 0.0
H920 H 0.82115 0.81717 0.42388 0.0
H921 H 0.83668 0.78711 0.40227 0.0
H922 H 0.78387 0.77031 0.35818 0.0
H923 H 0.76818 0.80056 0.38005 0.0
C924 C 0.83309 0.746 0.32044 0.0
C925 C 0.84797 0.73535 0.3336 0.0
C926 C 0.82012 0.75807 0.33512 0.0
C927 C 0.82183 0.75973 0.36319 0.0
C928 C 0.83548 0.74747 0.37622 0.0
C929 C 0.84835 0.7353 0.36158 0.0
C930 C 0.81275 0.80692 0.4099 0.0
C931 C 0.79348 0.8113 0.40355 0.0
C932 C 0.82161 0.78958 0.39768 0.0
C933 C 0.81146 0.77632 0.3786 0.0
C934 C 0.79202 0.7803 0.3728 0.0
C935 C 0.78305 0.79755 0.38537 0.0
H936 H 0.24591 0.15954 0.63178 0.0
H937 H 0.22206 0.19752 0.6964 0.0
H938 H 0.22578 0.17737 0.59955 0.0
H939 H 0.20213 0.21548 0.66403 0.0
H940 H 0.17285 0.24872 0.59605 0.0
H941 H 0.20086 0.23739 0.62268 0.0
H942 H 0.189 0.17414 0.5947 0.0
H943 H 0.16094 0.18534 0.56852 0.0
C944 C 0.23691 0.17219 0.6391 0.0
C945 C 0.2354 0.17699 0.66667 0.0
C946 C 0.22531 0.18228 0.62061 0.0
C947 C 0.21228 0.1976 0.62935 0.0
C948 C 0.21211 0.20377 0.65676 0.0
C949 C 0.22349 0.19345 0.67529 0.0
C950 C 0.17644 0.23243 0.59527 0.0
C951 C 0.16466 0.21787 0.5804 0.0
C952 C 0.19241 0.22599 0.61052 0.0
C953 C 0.19709 0.20493 0.61063 0.0
C954 C 0.18584 0.1905 0.5947 0.0
C955 C 0.1697 0.19689 0.5799 0.0
H956 H 0.85634 0.45842 0.80528 0.0
H957 H 0.90746 0.4266 0.78017 0.0
H958 H 0.86697 0.45544 0.8519 0.0
H959 H 0.91805 0.42373 0.82689 0.0
H960 H 0.9369 0.4356 0.91555 0.0
H961 H 0.92766 0.44508 0.87051 0.0
H962 H 0.87074 0.42376 0.87821 0.0
H963 H 0.87992 0.41419 0.92312 0.0
C964 C 0.86999 0.45111 0.80969 0.0
C965 C 0.88101 0.44259 0.78905 0.0
C966 C 0.876 0.44932 0.83638 0.0
C967 C 0.89324 0.43923 0.84293 0.0
C968 C 0.90474 0.43169 0.82236 0.0
C969 C 0.89864 0.43327 0.79564 0.0
C970 C 0.92236 0.43313 0.90772 0.0
C971 C 0.90914 0.42404 0.92278 0.0
C972 C 0.91713 0.43849 0.88194 0.0
C973 C 0.89852 0.43514 0.87093 0.0
C974 C 0.88514 0.42669 0.88633 0.0
C975 C 0.89043 0.42109 0.91195 0.0
H976 H 0.21846 0.55294 0.15125 0.0
H977 H 0.25208 0.58897 0.10393 0.0
H978 H 0.2037 0.53565 0.11067 0.0
H979 H 0.23804 0.57096 0.0632 0.0
H980 H 0.18582 0.55979 0.00288 0.0
H981 H 0.20885 0.57132 0.0385 0.0
H982 H 0.20558 0.51269 0.07233 0.0
H983 H 0.18167 0.50155 0.03716 0.0
C984 C 0.22297 0.55687 0.13215 0.0
C985 C 0.23622 0.57251 0.13078 0.0
C986 C 0.21465 0.54679 0.10879 0.0
C987 C 0.21959 0.5519 0.08348 0.0
C988 C 0.23358 0.56687 0.08225 0.0
C989 C 0.24168 0.57717 0.10561 0.0
C990 C 0.19046 0.54907 0.01738 0.0
C991 C 0.1817 0.52986 0.01743 0.0
C992 C 0.20374 0.55571 0.03795 0.0
C993 C 0.2088 0.54315 0.05879 0.0
C994 C 0.20157 0.52304 0.05712 0.0
C995 C 0.18805 0.51652 0.03676 0.0
H996 H 0.55509 0.24071 0.11256 0.0
H997 H 0.59842 0.28402 0.14361 0.0
H998 H 0.55109 0.23115 0.15744 0.0
H999 H 0.59408 0.27474 0.18873 0.0
H1000 H 0.60668 0.22113 0.24446 0.0
H1001 H 0.60428 0.24314 0.20779 0.0
H1002 H 0.54303 0.23828 0.20353 0.0
H1003 H 0.54546 0.21582 0.24008 0.0
C1004 C 0.56333 0.2487 0.12905 0.0
C1005 C 0.5774 0.26275 0.1244 0.0
C1006 C 0.56096 0.24329 0.15489 0.0
C1007 C 0.57255 0.25189 0.17664 0.0
C1008 C 0.58523 0.26751 0.1723 0.0
C1009 C 0.58764 0.2729 0.14644 0.0
C1010 C 0.59266 0.2251 0.23615 0.0
C1011 C 0.5763 0.21639 0.24486 0.0
C1012 C 0.59125 0.2379 0.2152 0.0
C1013 C 0.57345 0.2423 0.20249 0.0
C1014 C 0.55697 0.23492 0.21263 0.0
C1015 C 0.55837 0.22212 0.23366 0.0
H1016 H 0.83507 0.95319 0.30614 0.0
H1017 H 0.79761 0.9271 0.24114 0.0
H1018 H 0.81225 0.94539 0.33788 0.0
H1019 H 0.77449 0.91954 0.27312 0.0
H1020 H 0.75968 0.87974 0.34285 0.0
H1021 H 0.77455 0.89439 0.30663 0.0
H1022 H 0.78087 0.95233 0.35472 0.0
H1023 H 0.76629 0.93752 0.39131 0.0
C1024 C 0.82181 0.94608 0.29857 0.0
C1025 C 0.81827 0.94051 0.27114 0.0
C1026 C 0.80861 0.94179 0.31679 0.0
C1027 C 0.79155 0.9318 0.30804 0.0
C1028 C 0.78759 0.92708 0.28048 0.0
C1029 C 0.80081 0.93145 0.26217 0.0
C1030 C 0.76387 0.89574 0.34555 0.0
C1031 C 0.76214 0.90734 0.37017 0.0
C1032 C 0.77229 0.90419 0.32467 0.0
C1033 C 0.77914 0.92444 0.32794 0.0
C1034 C 0.77604 0.93655 0.3518 0.0
C1035 C 0.7676 0.92809 0.37271 0.0
H1036 H 0.1652 0.0216 0.5457 0.0
H1037 H 0.1761 0.07084 0.49643 0.0
H1038 H 0.18808 0.03628 0.58016 0.0
H1039 H 0.19898 0.0854 0.53093 0.0
H1040 H 0.20339 0.12128 0.6154 0.0
H1041 H 0.18932 0.10228 0.57556 0.0
H1042 H 0.22218 0.04813 0.59425 0.0
H1043 H 0.23652 0.0673 0.63441 0.0
C1044 C 0.17292 0.03515 0.54181 0.0
C1045 C 0.16848 0.04532 0.51857 0.0
C1046 C 0.18606 0.04353 0.56156 0.0
C1047 C 0.19494 0.06221 0.55841 0.0
C1048 C 0.19203 0.07116 0.53402 0.0
C1049 C 0.179 0.06273 0.5142 0.0
C1050 C 0.20769 0.10534 0.61105 0.0
C1051 C 0.22096 0.09573 0.62813 0.0
C1052 C 0.1998 0.09454 0.58803 0.0
C1053 C 0.20483 0.07381 0.58167 0.0
C1054 C 0.21813 0.06413 0.59868 0.0
C1055 C 0.22628 0.07508 0.62161 0.0
H1056 H 0.42393 0.3258 0.49844 0.0
H1057 H 0.46559 0.3463 0.44735 0.0
H1058 H 0.41849 0.29514 0.46779 0.0
H1059 H 0.45973 0.31612 0.41645 0.0
H1060 H 0.44746 0.25892 0.36369 0.0
H1061 H 0.45942 0.27956 0.40389 0.0
H1062 H 0.40161 0.2931 0.42462 0.0
H1063 H 0.38977 0.27223 0.38511 0.0
C1064 C 0.43226 0.32355 0.48104 0.0
C1065 C 0.44486 0.33874 0.47503 0.0
C1066 C 0.42904 0.30604 0.46336 0.0
C1067 C 0.43831 0.30344 0.43932 0.0
C1068 C 0.45234 0.31758 0.43476 0.0
C1069 C 0.45563 0.33501 0.45248 0.0
C1070 C 0.43734 0.26607 0.37708 0.0
C1071 C 0.41766 0.26419 0.37101 0.0
C1072 C 0.44419 0.27791 0.40008 0.0
C1073 C 0.43149 0.28805 0.41746 0.0
C1074 C 0.41184 0.28528 0.41197 0.0
C1075 C 0.40502 0.27348 0.38907 0.0
H1076 H 0.06894 0.66654 0.19789 0.0
H1077 H 0.07145 0.72111 0.25317 0.0
H1078 H 0.0684 0.68785 0.1606 0.0
H1079 H 0.0708 0.74264 0.21542 0.0
H1080 H 0.10204 0.76317 0.14067 0.0
H1081 H 0.09391 0.74845 0.18128 0.0
H1082 H 0.04932 0.71337 0.13658 0.0
H1083 H 0.05761 0.72783 0.09578 0.0
C1084 C 0.0692 0.68313 0.2021 0.0
C1085 C 0.07042 0.69213 0.22852 0.0
C1086 C 0.06866 0.69538 0.18066 0.0
C1087 C 0.06943 0.71695 0.18505 0.0
C1088 C 0.07022 0.72605 0.21146 0.0
C1089 C 0.07058 0.71374 0.23303 0.0
C1090 C 0.09015 0.75275 0.13958 0.0
C1091 C 0.08076 0.74631 0.11485 0.0
C1092 C 0.08545 0.74438 0.16293 0.0
C1093 C 0.07124 0.72943 0.162 0.0
C1094 C 0.06061 0.72454 0.13777 0.0
C1095 C 0.0653 0.73292 0.11442 0.0
H1096 H 0.93097 0.26061 0.8705 0.0
H1097 H 0.87478 0.28756 0.87774 0.0
H1098 H 0.94274 0.28273 0.90967 0.0
H1099 H 0.88651 0.30947 0.9167 0.0
H1100 H 0.90809 0.3359 0.9968 0.0
H1101 H 0.90001 0.30703 0.96423 0.0
H1102 H 0.94693 0.32165 0.91825 0.0
H1103 H 0.9551 0.35054 0.95078 0.0
C1104 C 0.92114 0.27114 0.88055 0.0
C1105 C 0.90201 0.27252 0.87095 0.0
C1106 C 0.92787 0.28376 0.9029 0.0
C1107 C 0.9155 0.29768 0.91627 0.0
C1108 C 0.89629 0.29866 0.90702 0.0
C1109 C 0.88964 0.28628 0.88453 0.0
C1110 C 0.917 0.33267 0.98013 0.0
C1111 C 0.93205 0.34571 0.97613 0.0
C1112 C 0.91229 0.3162 0.96142 0.0
C1113 C 0.92267 0.31235 0.93855 0.0
C1114 C 0.93871 0.32427 0.93573 0.0
C1115 C 0.94333 0.34085 0.95432 0.0
H1116 H 0.22788 0.59883 0.25361 0.0
H1117 H 0.21511 0.66326 0.24601 0.0
H1118 H 0.19947 0.59616 0.27841 0.0
H1119 H 0.18626 0.66043 0.26892 0.0
H1120 H 0.13437 0.59214 0.28099 0.0
H1121 H 0.16722 0.59401 0.27022 0.0
H1122 H 0.16942 0.65696 0.30553 0.0
H1123 H 0.13587 0.65538 0.31448 0.0
C1124 C 0.21904 0.61244 0.25735 0.0
C1125 C 0.22369 0.6312 0.24771 0.0
C1126 C 0.20262 0.61091 0.2714 0.0
C1127 C 0.19023 0.628 0.27556 0.0
C1128 C 0.19543 0.64695 0.26673 0.0
C1129 C 0.21201 0.64856 0.25328 0.0
C1130 C 0.14197 0.60624 0.28704 0.0
C1131 C 0.13245 0.62369 0.29836 0.0
C1132 C 0.16098 0.60733 0.28091 0.0
C1133 C 0.17114 0.62578 0.28648 0.0
C1134 C 0.162 0.64267 0.30005 0.0
C1135 C 0.14281 0.64173 0.30555 0.0
H1136 H 0.29467 0.91005 0.96234 0.0
H1137 H 0.29027 0.86873 0.02443 0.0
H1138 H 0.32444 0.92295 0.98384 0.0
H1139 H 0.32001 0.88199 0.04631 0.0
H1140 H 0.38642 0.88296 0.03949 0.0
H1141 H 0.35247 0.8768 0.03361 0.0
H1142 H 0.34226 0.94106 0.02138 0.0
H1143 H 0.37644 0.94717 0.02676 0.0
C1144 C 0.29982 0.90406 0.98094 0.0
C1145 C 0.29024 0.8881 0.9914 0.0
C1146 C 0.31686 0.9116 0.99344 0.0
C1147 C 0.32473 0.90339 0.01672 0.0
C1148 C 0.31446 0.88845 0.0282 0.0
C1149 C 0.29737 0.8809 0.0157 0.0
C1150 C 0.37692 0.89593 0.0363 0.0
C1151 C 0.38418 0.91547 0.03309 0.0
C1152 C 0.35738 0.89241 0.03306 0.0
C1153 C 0.34464 0.90837 0.02654 0.0
C1154 C 0.35175 0.92836 0.02588 0.0
C1155 C 0.37133 0.9319 0.02921 0.0
H1156 H 0.10171 0.58883 0.98672 0.0
H1157 H 0.15781 0.5964 0.02585 0.0
H1158 H 0.09956 0.62614 0.98245 0.0
H1159 H 0.15573 0.6333 0.02143 0.0
H1160 H 0.1536 0.69667 0.99564 0.0
H1161 H 0.15363 0.65927 0.98696 0.0
H1162 H 0.09775 0.6573 0.0172 0.0
H1163 H 0.09762 0.69479 0.02592 0.0
C1164 C 0.11367 0.59841 0.99398 0.0
C1165 C 0.12988 0.58978 0.00676 0.0
C1166 C 0.11241 0.61971 0.99164 0.0
C1167 C 0.1275 0.6326 0.00154 0.0
C1168 C 0.14397 0.62376 0.01331 0.0
C1169 C 0.14509 0.60263 0.01603 0.0
C1170 C 0.14112 0.68836 -7e-05 0.0
C1171 C 0.12573 0.69871 0.01188 0.0
C1172 C 0.14119 0.66692 0.99501 0.0
C1173 C 0.12581 0.65537 0.00174 0.0
C1174 C 0.10977 0.66581 0.01173 0.0
C1175 C 0.10975 0.68729 0.01683 0.0
H1176 H 0.40402 0.87524 0.70492 0.0
H1177 H 0.34463 0.87132 0.67792 0.0
H1178 H 0.40362 0.83991 0.71672 0.0
H1179 H 0.3444 0.83556 0.68882 0.0
H1180 H 0.34384 0.79156 0.7565 0.0
H1181 H 0.34439 0.82135 0.73074 0.0
H1182 H 0.40073 0.8037 0.70697 0.0
H1183 H 0.4004 0.7741 0.73366 0.0
C1184 C 0.39102 0.86662 0.70061 0.0
C1185 C 0.37425 0.87628 0.69095 0.0
C1186 C 0.3908 0.84624 0.70733 0.0
C1187 C 0.37386 0.83494 0.70429 0.0
C1188 C 0.35758 0.84397 0.69212 0.0
C1189 C 0.35775 0.86443 0.68561 0.0
C1190 C 0.35627 0.79383 0.7455 0.0
C1191 C 0.37218 0.78057 0.74745 0.0
C1192 C 0.35652 0.81088 0.73046 0.0
C1193 C 0.37265 0.81506 0.71677 0.0
C1194 C 0.38819 0.80116 0.71757 0.0
C1195 C 0.38797 0.78413 0.73279 0.0
H1196 H 0.37617 0.78904 0.88277 0.0
H1197 H 0.43163 0.76333 0.86617 0.0
H1198 H 0.38928 0.80552 0.92491 0.0
H1199 H 0.4448 0.77987 0.90871 0.0
H1200 H 0.45901 0.84238 0.96269 0.0
H1201 H 0.45049 0.81647 0.92639 0.0
H1202 H 0.40353 0.79779 0.96954 0.0
H1203 H 0.41186 0.82386 0.0058 0.0
C1204 C 0.39117 0.78687 0.88815 0.0
C1205 C 0.40292 0.77508 0.87102 0.0
C1206 C 0.39864 0.79608 0.9125 0.0
C1207 C 0.41805 0.79382 0.92023 0.0
C1208 C 0.42979 0.78186 0.90324 0.0
C1209 C 0.42226 0.77244 0.87892 0.0
C1210 C 0.44724 0.83232 0.96488 0.0
C1211 C 0.43579 0.8356 0.98682 0.0
C1212 C 0.44238 0.81743 0.94405 0.0
C1213 C 0.42603 0.80552 0.94484 0.0
C1214 C 0.41593 0.80714 0.96815 0.0
C1215 C 0.42081 0.82199 0.98901 0.0
H1216 H 0.06539 0.21246 0.59833 0.0
H1217 H 0.10313 0.26148 0.62978 0.0
H1218 H 0.06249 0.20234 0.64335 0.0
H1219 H 0.10007 0.25139 0.67487 0.0
H1220 H 0.11672 0.19998 0.73314 0.0
H1221 H 0.11331 0.22002 0.69439 0.0
H1222 H 0.05255 0.21098 0.68959 0.0
H1223 H 0.05595 0.19076 0.72837 0.0
C1224 C 0.07266 0.22143 0.61489 0.0
C1225 C 0.08476 0.23753 0.61039 0.0
C1226 C 0.07092 0.21569 0.64075 0.0
C1227 C 0.08127 0.2259 0.66261 0.0
C1228 C 0.09215 0.24305 0.65834 0.0
C1229 C 0.09382 0.24887 0.63251 0.0
C1230 C 0.10258 0.20262 0.72419 0.0
C1231 C 0.08665 0.19358 0.73364 0.0
C1232 C 0.10061 0.21424 0.70207 0.0
C1233 C 0.08266 0.21697 0.68884 0.0
C1234 C 0.06657 0.20896 0.69925 0.0
C1235 C 0.06853 0.19747 0.72154 0.0
H1236 H 0.26655 0.79983 0.89335 0.0
H1237 H 0.3192 0.81962 0.9357 0.0
H1238 H 0.28264 0.7687 0.87475 0.0
H1239 H 0.33518 0.7887 0.91718 0.0
H1240 H 0.35934 0.72819 0.89167 0.0
H1241 H 0.33685 0.75032 0.91588 0.0
H1242 H 0.30772 0.7639 0.84119 0.0
H1243 H 0.33014 0.7417 0.81686 0.0
C1244 C 0.28144 0.79736 0.89909 0.0
C1245 C 0.29166 0.81226 0.91582 0.0
C1246 C 0.29065 0.77959 0.88836 0.0
C1247 C 0.31015 0.77625 0.8945 0.0
C1248 C 0.32008 0.79066 0.91233 0.0
C1249 C 0.31095 0.80849 0.92279 0.0
C1250 C 0.34781 0.73537 0.88038 0.0
C1251 C 0.34678 0.73347 0.85227 0.0
C1252 C 0.335 0.74815 0.89429 0.0
C1253 C 0.32077 0.75914 0.88042 0.0
C1254 C 0.31853 0.75561 0.85246 0.0
C1255 C 0.33143 0.7429 0.8385 0.0
H1256 H 0.96915 0.89202 0.4111 0.0
H1257 H 0.92556 0.93351 0.44181 0.0
H1258 H 0.95954 0.90028 0.36569 0.0
H1259 H 0.91613 0.94186 0.39638 0.0
H1260 H 0.91138 0.96167 0.31182 0.0
H1261 H 0.92843 0.95774 0.35509 0.0
H1262 H 0.92805 0.89158 0.33846 0.0
H1263 H 0.91087 0.89545 0.2955 0.0
C1264 C 0.95775 0.90317 0.40822 0.0
C1265 C 0.94796 0.91197 0.42997 0.0
C1266 C 0.95226 0.90785 0.38224 0.0
C1267 C 0.9371 0.92166 0.37761 0.0
C1268 C 0.92798 0.9313 0.39946 0.0
C1269 C 0.93328 0.9264 0.42541 0.0
C1270 C 0.91532 0.94633 0.31719 0.0
C1271 C 0.9097 0.92884 0.30046 0.0
C1272 C 0.92496 0.9441 0.34196 0.0
C1273 C 0.92944 0.92437 0.35008 0.0
C1274 C 0.92487 0.90697 0.33258 0.0
C1275 C 0.91497 0.90917 0.30808 0.0
H1276 H 0.58028 0.57225 0.72544 0.0
H1277 H 0.53388 0.60238 0.68291 0.0
H1278 H 0.58672 0.55094 0.68473 0.0
H1279 H 0.54057 0.58134 0.64216 0.0
H1280 H 0.55313 0.53518 0.57323 0.0
H1281 H 0.54256 0.54706 0.61737 0.0
H1282 H 0.60063 0.56118 0.64456 0.0
H1283 H 0.61119 0.54916 0.60087 0.0
C1284 C 0.57122 0.57407 0.70756 0.0
C1285 C 0.55679 0.58927 0.70727 0.0
C1286 C 0.57498 0.56192 0.68422 0.0
C1287 C 0.56437 0.56472 0.66016 0.0
C1288 C 0.54896 0.57876 0.6604 0.0
C1289 C 0.54519 0.5909 0.68375 0.0
C1290 C 0.56365 0.54057 0.58877 0.0
C1291 C 0.58297 0.54142 0.5835 0.0
C1292 C 0.55758 0.54741 0.61399 0.0
C1293 C 0.57075 0.55504 0.63443 0.0
C1294 C 0.59015 0.5551 0.62939 0.0
C1295 C 0.59618 0.5484 0.60422 0.0
H1296 H 0.7724 0.30971 0.8402 0.0
H1297 H 0.77657 0.2977 0.92345 0.0
H1298 H 0.7931 0.28047 0.82976 0.0
H1299 H 0.7965 0.2674 0.91284 0.0
H1300 H 0.85417 0.23838 0.8901 0.0
H1301 H 0.82749 0.26025 0.90251 0.0
H1302 H 0.79954 0.24558 0.82432 0.0
H1303 H 0.82707 0.22465 0.81138 0.0
C1304 C 0.77738 0.30047 0.85622 0.0
C1305 C 0.77303 0.30617 0.88271 0.0
C1306 C 0.78917 0.28347 0.85019 0.0
C1307 C 0.79668 0.27143 0.87042 0.0
C1308 C 0.7914 0.27651 0.89677 0.0
C1309 C 0.77987 0.29382 0.90288 0.0
C1310 C 0.84214 0.2394 0.87572 0.0
C1311 C 0.84283 0.22996 0.84963 0.0
C1312 C 0.8267 0.25197 0.8829 0.0
C1313 C 0.81134 0.2551 0.86433 0.0
C1314 C 0.81132 0.24411 0.83895 0.0
C1315 C 0.827 0.23188 0.83157 0.0
H1316 H 0.12559 0.52808 0.09937 0.0
H1317 H 0.06988 0.5532 0.07857 0.0
H1318 H 0.12261 0.541 0.1458 0.0
H1319 H 0.06711 0.5665 0.1249 0.0
H1320 H 0.06391 0.58351 0.21263 0.0
H1321 H 0.06523 0.55994 0.17221 0.0
H1322 H 0.12382 0.57637 0.16564 0.0
H1323 H 0.1226 0.59949 0.20594 0.0
C1324 C 0.1126 0.53613 0.10476 0.0
C1325 C 0.0981 0.53996 0.08523 0.0
C1326 C 0.11092 0.54354 0.13134 0.0
C1327 C 0.09474 0.55499 0.13892 0.0
C1328 C 0.07969 0.5576 0.11973 0.0
C1329 C 0.08135 0.55011 0.09313 0.0
C1330 C 0.07717 0.58171 0.20282 0.0
C1331 C 0.09309 0.59351 0.21219 0.0
C1332 C 0.07789 0.56832 0.17964 0.0
C1333 C 0.09458 0.56641 0.16566 0.0
C1334 C 0.1108 0.57731 0.17606 0.0
C1335 C 0.11005 0.59072 0.19905 0.0
H1336 H 0.57587 0.60665 0.50183 0.0
H1337 H 0.63613 0.59519 0.49585 0.0
H1338 H 0.58115 0.64363 0.50324 0.0
H1339 H 0.64156 0.63201 0.49851 0.0
H1340 H 0.64818 0.6995 0.49764 0.0
H1341 H 0.63876 0.66456 0.48146 0.0
H1342 H 0.59373 0.66809 0.53631 0.0
H1343 H 0.6026 0.70311 0.55149 0.0
C1344 C 0.59022 0.61202 0.5005 0.0
C1345 C 0.6056 0.59801 0.49907 0.0
C1346 C 0.59328 0.63324 0.5015 0.0
C1347 C 0.61183 0.64092 0.5015 0.0
C1348 C 0.62705 0.62677 0.49832 0.0
C1349 C 0.62395 0.60557 0.49694 0.0
C1350 C 0.63605 0.69291 0.50585 0.0
C1351 C 0.62628 0.70399 0.52606 0.0
C1352 C 0.63071 0.67282 0.49669 0.0
C1353 C 0.61561 0.66331 0.50776 0.0
C1354 C 0.60526 0.67489 0.52699 0.0
C1355 C 0.61045 0.695 0.5359 0.0
H1356 H 0.7056 0.66028 0.73631 0.0
H1357 H 0.72858 0.60355 0.76462 0.0
H1358 H 0.67699 0.65626 0.75954 0.0
H1359 H 0.69989 0.59974 0.78867 0.0
H1360 H 0.62808 0.65048 0.80728 0.0
H1361 H 0.66157 0.65554 0.80042 0.0
H1362 H 0.66756 0.59087 0.77453 0.0
H1363 H 0.63436 0.58571 0.78218 0.0
C1364 C 0.70472 0.64714 0.74799 0.0
C1365 C 0.71928 0.6321 0.74831 0.0
C1366 C 0.68832 0.64492 0.76159 0.0
C1367 C 0.68603 0.62761 0.77594 0.0
C1368 C 0.70109 0.61313 0.77753 0.0
C1369 C 0.71757 0.61537 0.76388 0.0
C1370 C 0.63667 0.63723 0.80083 0.0
C1371 C 0.62842 0.61776 0.79478 0.0
C1372 C 0.65586 0.64016 0.79671 0.0
C1373 C 0.66719 0.62372 0.78633 0.0
C1374 C 0.65934 0.6039 0.78261 0.0
C1375 C 0.6402 0.60095 0.78688 0.0
H1376 H 0.24908 0.66382 0.10126 0.0
H1377 H 0.24666 0.68519 0.18469 0.0
H1378 H 0.22543 0.68974 0.08951 0.0
H1379 H 0.22325 0.71142 0.17281 0.0
H1380 H 0.15982 0.7221 0.14408 0.0
H1381 H 0.19001 0.70634 0.15773 0.0
H1382 H 0.21475 0.72561 0.08761 0.0
H1383 H 0.18429 0.74118 0.07363 0.0
C1384 C 0.24397 0.67446 0.11703 0.0
C1385 C 0.24944 0.67212 0.14396 0.0
C1386 C 0.23043 0.68941 0.11027 0.0
C1387 C 0.22217 0.70237 0.1303 0.0
C1388 C 0.22905 0.70135 0.15699 0.0
C1389 C 0.24255 0.68638 0.16377 0.0
C1390 C 0.17175 0.72325 0.13173 0.0
C1391 C 0.16959 0.73268 0.10762 0.0
C1392 C 0.18915 0.71438 0.1397 0.0
C1393 C 0.2048 0.71469 0.12373 0.0
C1394 C 0.2029 0.72496 0.10021 0.0
C1395 C 0.18547 0.73393 0.09227 0.0
H1396 H 0.6186 0.75826 0.66286 0.0
H1397 H 0.56725 0.74022 0.61573 0.0
H1398 H 0.60763 0.74138 0.70024 0.0
H1399 H 0.55611 0.72365 0.65343 0.0
H1400 H 0.56375 0.66737 0.70462 0.0
H1401 H 0.56759 0.69181 0.67157 0.0
H1402 H 0.58468 0.73843 0.73432 0.0
H1403 H 0.58111 0.71373 0.76761 0.0
C1404 C 0.60473 0.75119 0.66069 0.0
C1405 C 0.59397 0.75023 0.63611 0.0
C1406 C 0.59838 0.74159 0.68223 0.0
C1407 C 0.58114 0.73087 0.67965 0.0
C1408 C 0.56965 0.73144 0.65583 0.0
C1409 C 0.57599 0.74105 0.63428 0.0
C1410 C 0.56813 0.68289 0.71146 0.0
C1411 C 0.57235 0.68853 0.73874 0.0
C1412 C 0.57014 0.69699 0.69249 0.0
C1413 C 0.57645 0.71708 0.7003 0.0
C1414 C 0.57995 0.723 0.72767 0.0
C1415 C 0.57785 0.70888 0.74673 0.0
H1416 H 0.81103 0.43592 0.74422 0.0
H1417 H 0.82036 0.37047 0.74879 0.0
H1418 H 0.78658 0.43562 0.7765 0.0
H1419 H 0.79618 0.37024 0.78113 0.0
H1420 H 0.74879 0.37127 0.83347 0.0
H1421 H 0.76271 0.37506 0.79108 0.0
H1422 H 0.7896 0.43127 0.82477 0.0
H1423 H 0.77548 0.42769 0.86701 0.0
C1424 C 0.80758 0.42139 0.75164 0.0
C1425 C 0.81778 0.40324 0.7442 0.0
C1426 C 0.79365 0.42126 0.77023 0.0
C1427 C 0.78954 0.40296 0.78152 0.0
C1428 C 0.79884 0.38457 0.77263 0.0
C1429 C 0.81282 0.38472 0.75422 0.0
C1430 C 0.75728 0.38472 0.83165 0.0
C1431 C 0.76136 0.39897 0.85379 0.0
C1432 C 0.7653 0.38684 0.80737 0.0
C1433 C 0.77752 0.40324 0.80473 0.0
C1434 C 0.78018 0.41848 0.82611 0.0
C1435 C 0.77215 0.41638 0.85041 0.0
H1436 H 0.95941 0.83995 0.45759 0.0
H1437 H 0.91009 0.82245 0.497 0.0
H1438 H 0.95002 0.81659 0.41888 0.0
H1439 H 0.90088 0.79887 0.45832 0.0
H1440 H 0.87577 0.79221 0.37049 0.0
H1441 H 0.88815 0.80757 0.41371 0.0
H1442 H 0.94363 0.78105 0.39928 0.0
H1443 H 0.93127 0.76578 0.35571 0.0
C1444 C 0.94688 0.83068 0.45835 0.0
C1445 C 0.9353 0.83337 0.48019 0.0
C1446 C 0.94152 0.81724 0.43615 0.0
C1447 C 0.9245 0.80623 0.43537 0.0
C1448 C 0.91386 0.80752 0.45817 0.0
C1449 C 0.91923 0.82092 0.48041 0.0
C1450 C 0.89061 0.78962 0.3765 0.0
C1451 C 0.9026 0.77797 0.35957 0.0
C1452 C 0.89764 0.79821 0.40143 0.0
C1453 C 0.91685 0.79541 0.40996 0.0
C1454 C 0.92879 0.78352 0.39318 0.0
C1455 C 0.92171 0.7748 0.36826 0.0
H1456 H 0.39462 0.39419 0.53285 0.0
H1457 H 0.38085 0.4452 0.48515 0.0
H1458 H 0.36091 0.38621 0.53249 0.0
H1459 H 0.34754 0.43666 0.4835 0.0
H1460 H 0.28737 0.42011 0.48173 0.0
H1461 H 0.31806 0.43296 0.50059 0.0
H1462 H 0.33972 0.37031 0.50012 0.0
H1463 H 0.30891 0.35761 0.48278 0.0
C1464 C 0.38438 0.40393 0.52269 0.0
C1465 C 0.39047 0.42011 0.50865 0.0
C1466 C 0.36504 0.39924 0.52224 0.0
C1467 C 0.3514 0.41044 0.50741 0.0
C1468 C 0.35745 0.42769 0.4953 0.0
C1469 C 0.3767 0.43254 0.49609 0.0
C1470 C 0.2986 0.40911 0.48625 0.0
C1471 C 0.29578 0.38786 0.48041 0.0
C1472 C 0.31626 0.41646 0.49691 0.0
C1473 C 0.33161 0.40275 0.50153 0.0
C1474 C 0.32832 0.38143 0.49722 0.0
C1475 C 0.3106 0.37409 0.48699 0.0
H1476 H 0.40354 0.37228 0.18374 0.0
H1477 H 0.34214 0.36987 0.17921 0.0
H1478 H 0.4053 0.33675 0.1956 0.0
H1479 H 0.3439 0.33465 0.19184 0.0
H1480 H 0.35134 0.26872 0.21019 0.0
H1481 H 0.35231 0.29873 0.18432 0.0
H1482 H 0.39913 0.32278 0.23673 0.0
H1483 H 0.39846 0.29271 0.26202 0.0
C1484 C 0.39041 0.36405 0.18469 0.0
C1485 C 0.3727 0.37408 0.181 0.0
C1486 C 0.39142 0.34371 0.19173 0.0
C1487 C 0.37476 0.33298 0.19534 0.0
C1488 C 0.35705 0.34239 0.18923 0.0
C1489 C 0.35603 0.36268 0.18203 0.0
C1490 C 0.36202 0.28027 0.21592 0.0
C1491 C 0.37471 0.27839 0.23834 0.0
C1492 C 0.36253 0.29752 0.20114 0.0
C1493 C 0.37575 0.31326 0.20844 0.0
C1494 C 0.38894 0.31088 0.2302 0.0
C1495 C 0.38845 0.29366 0.24491 0.0
H1496 H 0.33287 0.23684 0.38342 0.0
H1497 H 0.31853 0.25455 0.30367 0.0
H1498 H 0.30656 0.2579 0.40004 0.0
H1499 H 0.29196 0.27532 0.32029 0.0
H1500 H 0.27568 0.33624 0.36911 0.0
H1501 H 0.29378 0.30806 0.34791 0.0
H1502 H 0.27228 0.26643 0.40098 0.0
H1503 H 0.25414 0.29492 0.4226 0.0
C1504 C 0.32377 0.24472 0.36927 0.0
C1505 C 0.32808 0.24437 0.34232 0.0
C1506 C 0.3086 0.25674 0.37881 0.0
C1507 C 0.29742 0.26862 0.36157 0.0
C1508 C 0.3006 0.26668 0.33416 0.0
C1509 C 0.31577 0.25467 0.32461 0.0
C1510 C 0.27462 0.32106 0.37615 0.0
C1511 C 0.26361 0.31788 0.39773 0.0
C1512 C 0.28485 0.30482 0.36376 0.0
C1513 C 0.28442 0.28496 0.37267 0.0
C1514 C 0.27296 0.28158 0.39375 0.0
C1515 C 0.26255 0.29788 0.40608 0.0
H1516 H 0.09751 0.09594 0.72382 0.0
H1517 H 0.04877 0.12118 0.68042 0.0
H1518 H 0.10728 0.07751 0.68261 0.0
H1519 H 0.05864 0.10269 0.6392 0.0
H1520 H 0.07562 0.05321 0.5739 0.0
H1521 H 0.06395 0.06683 0.61672 0.0
H1522 H 0.11979 0.09046 0.6413 0.0
H1523 H 0.13148 0.0769 0.59863 0.0
C1524 C 0.08871 0.09732 0.70559 0.0
C1525 C 0.07244 0.11017 0.70533 0.0
C1526 C 0.09439 0.08685 0.68199 0.0
C1527 C 0.08382 0.08885 0.65772 0.0
C1528 C 0.06701 0.10081 0.65767 0.0
C1529 C 0.0614 0.11145 0.68125 0.0
C1530 C 0.08543 0.0612 0.58853 0.0
C1531 C 0.10446 0.06404 0.5829 0.0
C1532 C 0.07872 0.06904 0.61295 0.0
C1533 C 0.09098 0.07963 0.63231 0.0
C1534 C 0.11008 0.08213 0.62686 0.0
C1535 C 0.11674 0.0745 0.60235 0.0
H1536 H 0.64797 0.19499 0.08559 0.0
H1537 H 0.66895 0.25592 0.11089 0.0
H1538 H 0.67521 0.17981 0.10942 0.0
H1539 H 0.69625 0.24058 0.13514 0.0
H1540 H 0.71923 0.19845 0.20541 0.0
H1541 H 0.69855 0.2188 0.17653 0.0
H1542 H 0.71161 0.17752 0.10824 0.0
H1543 H 0.73233 0.15722 0.13684 0.0
C1544 C 0.65849 0.20513 0.09609 0.0
C1545 C 0.65632 0.22662 0.09648 0.0
C1546 C 0.67416 0.19644 0.10955 0.0
C1547 C 0.68785 0.20905 0.124 0.0
C1548 C 0.68587 0.23056 0.12412 0.0
C1549 C 0.67032 0.23929 0.11021 0.0
C1550 C 0.7181 0.19402 0.18414 0.0
C1551 C 0.72716 0.176 0.17352 0.0
C1552 C 0.7063 0.20572 0.16761 0.0
C1553 C 0.70329 0.19949 0.14028 0.0
C1554 C 0.71351 0.18245 0.12934 0.0
C1555 C 0.72541 0.17088 0.14575 0.0
H1556 H 0.36756 0.46179 0.3065 0.0
H1557 H 0.39419 0.40968 0.2637 0.0
H1558 H 0.38254 0.45141 0.34839 0.0
H1559 H 0.40923 0.39943 0.30563 0.0
H1560 H 0.40944 0.37414 0.38922 0.0
H1561 H 0.39722 0.38554 0.34633 0.0
H1562 H 0.41455 0.44773 0.37199 0.0
H1563 H 0.42664 0.43645 0.41489 0.0
C1564 C 0.37678 0.44828 0.30598 0.0
C1565 C 0.37962 0.43652 0.28182 0.0
C1566 C 0.38541 0.44239 0.32996 0.0
C1567 C 0.39693 0.42454 0.33024 0.0
C1568 C 0.40021 0.4131 0.306 0.0
C1569 C 0.3917 0.41908 0.282 0.0
C1570 C 0.41067 0.39022 0.38568 0.0
C1571 C 0.41895 0.40439 0.40546 0.0
C1572 C 0.4038 0.39672 0.36108 0.0
C1573 C 0.40496 0.41752 0.35587 0.0
C1574 C 0.41333 0.43165 0.37557 0.0
C1575 C 0.42032 0.42514 0.40008 0.0
H1576 H 0.67049 0.51284 0.5552 0.0
H1577 H 0.68508 0.56645 0.51604 0.0
H1578 H 0.69441 0.52195 0.59119 0.0
H1579 H 0.70838 0.57594 0.55234 0.0
H1580 H 0.75206 0.58846 0.61958 0.0
H1581 H 0.73674 0.57087 0.57937 0.0
H1582 H 0.69362 0.54851 0.62675 0.0
H1583 H 0.70927 0.56544 0.66687 0.0
C1584 C 0.67909 0.52631 0.55396 0.0
C1585 C 0.6756 0.53915 0.53305 0.0
C1586 C 0.69268 0.53164 0.57471 0.0
C1587 C 0.70294 0.54999 0.57506 0.0
C1588 C 0.70077 0.56169 0.55279 0.0
C1589 C 0.68732 0.55626 0.53192 0.0
C1590 C 0.73942 0.57959 0.62141 0.0
C1591 C 0.73176 0.5785 0.64638 0.0
C1592 C 0.73062 0.56954 0.59835 0.0
C1593 C 0.71392 0.55829 0.59975 0.0
C1594 C 0.70665 0.5567 0.6249 0.0
C1595 C 0.71551 0.56661 0.64794 0.0
H1596 H 0.25889 0.86753 0.84087 0.0
H1597 H 0.24853 0.93169 0.8659 0.0
H1598 H 0.26976 0.87711 0.799 0.0
H1599 H 0.25891 0.94133 0.82329 0.0
H1600 H 0.31048 0.94754 0.77057 0.0
H1601 H 0.28959 0.94203 0.80567 0.0
H1602 H 0.2639 0.89089 0.7568 0.0
H1603 H 0.28541 0.89598 0.72184 0.0
C1604 C 0.25853 0.88369 0.8372 0.0
C1605 C 0.25317 0.89888 0.85696 0.0
C1606 C 0.2646 0.88919 0.81297 0.0
C1607 C 0.26537 0.91003 0.80779 0.0
C1608 C 0.25879 0.92516 0.82683 0.0
C1609 C 0.25276 0.91964 0.8512 0.0
C1610 C 0.30015 0.93534 0.76703 0.0
C1611 C 0.29989 0.92192 0.7436 0.0
C1612 C 0.28801 0.93228 0.78715 0.0
C1613 C 0.27522 0.91582 0.78427 0.0
C1614 C 0.27388 0.90345 0.7599 0.0
C1615 C 0.28613 0.90643 0.73979 0.0
H1616 H 0.74066 0.07773 0.12391 0.0
H1617 H 0.69489 0.05635 0.16728 0.0
H1618 H 0.72566 0.06214 0.08226 0.0
H1619 H 0.67958 0.04143 0.12569 0.0
H1620 H 0.65387 0.01382 0.05044 0.0
H1621 H 0.67821 0.01736 0.0871 0.0
H1622 H 0.69841 0.07228 0.05596 0.0
H1623 H 0.67461 0.06836 0.01904 0.0
C1624 C 0.72753 0.06945 0.1246 0.0
C1625 C 0.71879 0.06857 0.14884 0.0
C1626 C 0.7189 0.06058 0.1007 0.0
C1627 C 0.70126 0.05078 0.10048 0.0
C1628 C 0.69325 0.04865 0.12503 0.0
C1629 C 0.70197 0.05736 0.14895 0.0
C1630 C 0.66391 0.02627 0.05096 0.0
C1631 C 0.66202 0.04108 0.03213 0.0
C1632 C 0.67777 0.0284 0.07212 0.0
C1633 C 0.68997 0.04539 0.07491 0.0
C1634 C 0.68932 0.05895 0.05451 0.0
C1635 C 0.67555 0.05676 0.03329 0.0
H1636 H 0.42834 0.88747 0.91147 0.0
H1637 H 0.38848 0.93749 0.92827 0.0
H1638 H 0.42077 0.88904 0.86358 0.0
H1639 H 0.38108 0.9391 0.88043 0.0
H1640 H 0.38628 0.94872 0.79254 0.0
H1641 H 0.39839 0.94761 0.83901 0.0
H1642 H 0.39033 0.88177 0.8331 0.0
H1643 H 0.37809 0.88283 0.78673 0.0
C1644 C 0.41806 0.89886 0.90493 0.0
C1645 C 0.40894 0.91233 0.92358 0.0
C1646 C 0.41372 0.89971 0.87758 0.0
C1647 C 0.40044 0.91425 0.86841 0.0
C1648 C 0.39155 0.92791 0.88702 0.0
C1649 C 0.39567 0.92687 0.91437 0.0
C1650 C 0.38738 0.93397 0.80103 0.0
C1651 C 0.38111 0.91588 0.78612 0.0
C1652 C 0.39419 0.93337 0.82762 0.0
C1653 C 0.39513 0.91463 0.83959 0.0
C1654 C 0.3898 0.89639 0.82427 0.0
C1655 C 0.38274 0.89703 0.79781 0.0
H1656 H 0.6821 0.74114 0.66438 0.0
H1657 H 0.69732 0.73992 0.58246 0.0
H1658 H 0.71052 0.72125 0.67538 0.0
H1659 H 0.72646 0.72086 0.59371 0.0
H1660 H 0.75479 0.65893 0.61465 0.0
H1661 H 0.73399 0.68706 0.60244 0.0
H1662 H 0.7434 0.71721 0.68201 0.0
H1663 H 0.7635 0.68828 0.69463 0.0
C1664 C 0.6918 0.73707 0.64884 0.0
C1665 C 0.68732 0.74183 0.62247 0.0
C1666 C 0.70827 0.72577 0.6552 0.0
C1667 C 0.72085 0.71921 0.63542 0.0
C1668 C 0.71694 0.7252 0.60936 0.0
C1669 C 0.70027 0.73622 0.60291 0.0
C1670 C 0.75281 0.67177 0.6294 0.0
C1671 C 0.7605 0.67115 0.65578 0.0
C1672 C 0.74088 0.68806 0.62234 0.0
C1673 C 0.7366 0.70432 0.64138 0.0
C1674 C 0.74587 0.70467 0.66704 0.0
C1675 C 0.75758 0.68818 0.67422 0.0
H1676 H 0.30688 0.45517 0.2517 0.0
H1677 H 0.29949 0.38914 0.24352 0.0
H1678 H 0.28602 0.45809 0.28883 0.0
H1679 H 0.27884 0.39206 0.28063 0.0
H1680 H 0.2384 0.40049 0.34337 0.0
H1681 H 0.24892 0.40531 0.29914 0.0
H1682 H 0.29205 0.44718 0.33464 0.0
H1683 H 0.28146 0.44258 0.37881 0.0
C1684 C 0.30046 0.44134 0.25739 0.0
C1685 C 0.30502 0.42187 0.2449 0.0
C1686 C 0.28859 0.44303 0.27873 0.0
C1687 C 0.28091 0.42532 0.28779 0.0
C1688 C 0.28437 0.40604 0.27399 0.0
C1689 C 0.29633 0.40434 0.25282 0.0
C1690 C 0.24979 0.41116 0.34172 0.0
C1691 C 0.25938 0.42081 0.36468 0.0
C1692 C 0.25585 0.41385 0.31636 0.0
C1693 C 0.27152 0.42632 0.31345 0.0
C1694 C 0.27989 0.43751 0.33619 0.0
C1695 C 0.27387 0.43479 0.36157 0.0
loop_
_geom_bond_atom_site_label_1
_geom_bond_atom_site_label_2
_geom_bond_distance
_geom_bond_site_symmetry_2
_ccdc_geom_bond_type
C0 O1 1.160 . S
C0 O7 1.185 . S
O1 C0 1.160 . S
O2 Zn3 1.899 . S
O2 C10 1.284 . S
Zn3 O2 1.899 . S
Zn3 O4 2.032 . S
Zn3 O7 2.086 . S
Zn3 O12 1.977 . S
O4 Zn3 2.032 . S
O4 C8 1.278 . S
C5 O6 1.203 . S
C5 O12 1.267 . S
O6 C5 1.203 . S
O7 C0 1.185 . S
O7 Zn3 2.086 . S
C8 O4 1.278 . S
C8 O9 1.211 . S
O9 C8 1.211 . S
C10 O2 1.284 . S
C10 O11 1.273 . S
O11 C10 1.273 . S
O12 Zn3 1.977 . S
O12 C5 1.267 . S
C13 O14 1.160 . S
C13 O20 1.185 . S
O14 C13 1.160 . S
O15 Zn16 1.899 . S
O15 C23 1.284 . S
Zn16 O15 1.899 . S
Zn16 O17 2.032 . S
Zn16 O20 2.086 . S
Zn16 O25 1.977 . S
O17 Zn16 2.032 . S
O17 C21 1.278 . S
C18 O19 1.203 . S
C18 O25 1.267 . S
O19 C18 1.203 . S
O20 C13 1.185 . S
O20 Zn16 2.086 . S
C21 O17 1.278 . S
C21 O22 1.211 . S
O22 C21 1.211 . S
C23 O15 1.284 . S
C23 O24 1.273 . S
O24 C23 1.273 . S
O25 Zn16 1.977 . S
O25 C18 1.267 . S
C26 O27 1.158 1_554 S
C26 O33 1.185 . S
O27 C26 1.158 1_556 S
O28 Zn29 1.899 . S
O28 C36 1.284 . S
Zn29 O28 1.899 . S
Zn29 O30 2.032 . S
Zn29 O33 2.086 . S
Zn29 O38 1.977 . S
O30 Zn29 2.032 . S
O30 C34 1.278 . S
C31 O32 1.203 . S
C31 O38 1.267 . S
O32 C31 1.203 . S
O33 C26 1.185 . S
O33 Zn29 2.086 . S
C34 O30 1.278 . S
C34 O35 1.211 . S
O35 C34 1.211 . S
C36 O28 1.284 . S
C36 O37 1.273 . S
O37 C36 1.273 . S
O38 Zn29 1.977 . S
O38 C31 1.267 . S
C39 O40 1.160 . S
C39 O46 1.185 . S
O40 C39 1.160 . S
O41 Zn42 1.899 . S
O41 C49 1.284 . S
Zn42 O41 1.899 . S
Zn42 O43 2.032 . S
Zn42 O46 2.086 . S
Zn42 O51 1.977 . S
O43 Zn42 2.032 . S
O43 C47 1.278 . S
C44 O45 1.203 . S
C44 O51 1.267 . S
O45 C44 1.203 . S
O46 C39 1.185 . S
O46 Zn42 2.086 . S
C47 O43 1.278 . S
C47 O48 1.211 . S
O48 C47 1.211 . S
C49 O41 1.284 . S
C49 O50 1.273 . S
O50 C49 1.273 . S
O51 Zn42 1.977 . S
O51 C44 1.267 . S
C52 O53 1.160 . S
C52 O59 1.185 . S
O53 C52 1.160 . S
O54 Zn55 1.899 . S
O54 C62 1.284 . S
Zn55 O54 1.899 . S
Zn55 O56 2.032 . S
Zn55 O59 2.086 . S
Zn55 O64 1.977 . S
O56 Zn55 2.032 . S
O56 C60 1.278 . S
C57 O58 1.203 . S
C57 O64 1.267 . S
O58 C57 1.203 . S
O59 C52 1.185 . S
O59 Zn55 2.086 . S
C60 O56 1.278 . S
C60 O61 1.211 . S
O61 C60 1.211 . S
C62 O54 1.284 . S
C62 O63 1.273 . S
O63 C62 1.273 . S
O64 Zn55 1.977 . S
O64 C57 1.267 . S
C65 O66 1.160 . S
C65 O72 1.185 . S
O66 C65 1.160 . S
O67 Zn68 1.899 . S
O67 C75 1.284 . S
Zn68 O67 1.899 . S
Zn68 O69 2.032 . S
Zn68 O72 2.086 . S
Zn68 O77 1.977 . S
O69 Zn68 2.032 . S
O69 C73 1.278 . S
C70 O71 1.203 . S
C70 O77 1.267 . S
O71 C70 1.203 . S
O72 C65 1.185 . S
O72 Zn68 2.086 . S
C73 O69 1.278 . S
C73 O74 1.211 . S
O74 C73 1.211 . S
C75 O67 1.284 . S
C75 O76 1.273 . S
O76 C75 1.273 . S
O77 Zn68 1.977 . S
O77 C70 1.267 . S
C78 O79 1.160 . S
C78 O85 1.185 . S
O79 C78 1.160 . S
O80 Zn81 1.899 . S
O80 C88 1.284 . S
Zn81 O80 1.899 . S
Zn81 O82 2.032 . S
Zn81 O85 2.086 . S
Zn81 O90 1.977 . S
O82 Zn81 2.032 . S
O82 C86 1.278 . S
C83 O84 1.203 . S
C83 O90 1.267 . S
O84 C83 1.203 . S
O85 C78 1.185 . S
O85 Zn81 2.086 . S
C86 O82 1.278 . S
C86 O87 1.211 . S
O87 C86 1.211 . S
C88 O80 1.284 . S
C88 O89 1.273 . S
O89 C88 1.273 . S
O90 Zn81 1.977 . S
O90 C83 1.267 . S
C91 O92 1.160 . S
C91 O98 1.185 . S
O92 C91 1.160 . S
O93 Zn94 1.899 . S
O93 C101 1.284 . S
Zn94 O93 1.899 . S
Zn94 O95 2.032 . S
Zn94 O98 2.086 . S
Zn94 O103 1.977 . S
O95 Zn94 2.032 . S
O95 C99 1.278 . S
C96 O97 1.203 . S
C96 O103 1.267 . S
O97 C96 1.203 . S
O98 C91 1.185 . S
O98 Zn94 2.086 . S
C99 O95 1.278 . S
C99 O100 1.211 . S
O100 C99 1.211 . S
C101 O93 1.284 . S
C101 O102 1.273 . S
O102 C101 1.273 . S
O103 Zn94 1.977 . S
O103 C96 1.267 . S
C104 O105 1.160 . S
C104 O111 1.185 1_556 S
O105 C104 1.160 . S
O106 Zn107 1.899 1_556 S
O106 C114 1.284 . S
Zn107 O106 1.899 1_554 S
Zn107 O108 2.032 . S
Zn107 O111 2.086 . S
Zn107 O116 1.977 . S
O108 Zn107 2.032 . S
O108 C112 1.278 . S
C109 O110 1.203 . S
C109 O116 1.267 . S
O110 C109 1.203 . S
O111 C104 1.185 1_554 S
O111 Zn107 2.086 . S
C112 O108 1.278 . S
C112 O113 1.211 . S
O113 C112 1.211 . S
C114 O106 1.284 . S
C114 O115 1.273 1_556 S
O115 C114 1.273 1_554 S
O116 Zn107 1.977 . S
O116 C109 1.267 . S
C117 O118 1.160 . S
C117 O124 1.185 . S
O118 C117 1.160 . S
O119 Zn120 1.899 . S
O119 C127 1.284 . S
Zn120 O119 1.899 . S
Zn120 O121 2.032 . S
Zn120 O124 2.086 . S
Zn120 O129 1.977 . S
O121 Zn120 2.032 . S
O121 C125 1.278 . S
C122 O123 1.203 . S
C122 O129 1.267 . S
O123 C122 1.203 . S
O124 C117 1.185 . S
O124 Zn120 2.086 . S
C125 O121 1.278 . S
C125 O126 1.211 . S
O126 C125 1.211 . S
C127 O119 1.284 . S
C127 O128 1.273 . S
O128 C127 1.273 . S
O129 Zn120 1.977 . S
O129 C122 1.267 . S
C130 O131 1.160 . S
C130 O137 1.185 . S
O131 C130 1.160 . S
O132 Zn133 1.899 . S
O132 C140 1.284 . S
Zn133 O132 1.899 . S
Zn133 O134 2.032 . S
Zn133 O137 2.086 . S
Zn133 O142 1.977 . S
O134 Zn133 2.032 . S
O134 C138 1.278 . S
C135 O136 1.203 . S
C135 O142 1.267 . S
O136 C135 1.203 . S
O137 C130 1.185 . S
O137 Zn133 2.086 . S
C138 O134 1.278 . S
C138 O139 1.211 . S
O139 C138 1.211 . S
C140 O132 1.284 . S
C140 O141 1.273 . S
O141 C140 1.273 . S
O142 Zn133 1.977 . S
O142 C135 1.267 . S
C143 O144 1.160 . S
C143 O150 1.185 . S
O144 C143 1.160 . S
O145 Zn146 1.899 . S
O145 C153 1.284 . S
Zn146 O145 1.899 . S
Zn146 O147 2.032 . S
Zn146 O150 2.086 . S
Zn146 O155 1.977 . S
O147 Zn146 2.032 . S
O147 C151 1.278 . S
C148 O149 1.203 . S
C148 O155 1.267 . S
O149 C148 1.203 . S
O150 C143 1.185 . S
O150 Zn146 2.086 . S
C151 O147 1.278 . S
C151 O152 1.211 . S
O152 C151 1.211 . S
C153 O145 1.284 . S
C153 O154 1.273 . S
O154 C153 1.273 . S
O155 Zn146 1.977 . S
O155 C148 1.267 . S
C156 O157 1.160 . S
C156 O163 1.185 . S
O157 C156 1.160 . S
O158 Zn159 1.899 . S
O158 C166 1.284 . S
Zn159 O158 1.899 . S
Zn159 O160 2.032 . S
Zn159 O163 2.086 . S
Zn159 O168 1.977 . S
O160 Zn159 2.032 . S
O160 C164 1.278 . S
C161 O162 1.203 . S
C161 O168 1.267 . S
O162 C161 1.203 . S
O163 C156 1.185 . S
O163 Zn159 2.086 . S
C164 O160 1.278 . S
C164 O165 1.211 . S
O165 C164 1.211 . S
C166 O158 1.284 . S
C166 O167 1.273 . S
O167 C166 1.273 . S
O168 Zn159 1.977 . S
O168 C161 1.267 . S
C169 O170 1.160 . S
C169 O176 1.185 . S
O170 C169 1.160 . S
O171 Zn172 1.899 . S
O171 C179 1.284 . S
Zn172 O171 1.899 . S
Zn172 O173 2.032 . S
Zn172 O176 2.086 . S
Zn172 O181 1.977 . S
O173 Zn172 2.032 . S
O173 C177 1.278 . S
C174 O175 1.203 . S
C174 O181 1.267 . S
O175 C174 1.203 . S
O176 C169 1.185 . S
O176 Zn172 2.086 . S
C177 O173 1.278 . S
C177 O178 1.211 . S
O178 C177 1.211 . S
C179 O171 1.284 . S
C179 O180 1.273 . S
O180 C179 1.273 . S
O181 Zn172 1.977 . S
O181 C174 1.267 . S
C182 O183 1.160 . S
C182 O189 1.185 . S
O183 C182 1.160 . S
O184 Zn185 1.899 . S
O184 C192 1.284 . S
Zn185 O184 1.899 . S
Zn185 O186 2.032 . S
Zn185 O189 2.086 . S
Zn185 O194 1.977 . S
O186 Zn185 2.032 . S
O186 C190 1.278 . S
C187 O188 1.203 . S
C187 O194 1.267 . S
O188 C187 1.203 . S
O189 C182 1.185 . S
O189 Zn185 2.086 . S
C190 O186 1.278 . S
C190 O191 1.211 . S
O191 C190 1.211 . S
C192 O184 1.284 . S
C192 O193 1.273 . S
O193 C192 1.273 . S
O194 Zn185 1.977 . S
O194 C187 1.267 . S
C195 O196 1.160 . S
C195 O202 1.185 1_554 S
O196 C195 1.160 . S
O197 Zn198 1.899 1_554 S
O197 C205 1.284 . S
Zn198 O197 1.899 1_556 S
Zn198 O199 2.032 . S
Zn198 O202 2.086 . S
Zn198 O207 1.977 . S
O199 Zn198 2.032 . S
O199 C203 1.278 . S
C200 O201 1.203 . S
C200 O207 1.267 . S
O201 C200 1.203 . S
O202 C195 1.185 1_556 S
O202 Zn198 2.086 . S
C203 O199 1.278 . S
C203 O204 1.211 . S
O204 C203 1.211 . S
C205 O197 1.284 . S
C205 O206 1.273 1_554 S
O206 C205 1.273 1_556 S
O207 Zn198 1.977 . S
O207 C200 1.267 . S
C208 O209 1.160 . S
C208 O215 1.185 1_556 S
O209 C208 1.160 . S
O210 Zn211 1.899 1_556 S
O210 C218 1.284 . S
Zn211 O210 1.899 1_554 S
Zn211 O212 2.032 . S
Zn211 O215 2.086 . S
Zn211 O220 1.977 . S
O212 Zn211 2.032 . S
O212 C216 1.278 . S
C213 O214 1.203 . S
C213 O220 1.267 . S
O214 C213 1.203 . S
O215 C208 1.185 1_554 S
O215 Zn211 2.086 . S
C216 O212 1.278 . S
C216 O217 1.211 . S
O217 C216 1.211 . S
C218 O210 1.284 . S
C218 O219 1.273 1_556 S
O219 C218 1.273 1_554 S
O220 Zn211 1.977 . S
O220 C213 1.267 . S
C221 O222 1.160 . S
C221 O228 1.185 . S
O222 C221 1.160 . S
O223 Zn224 1.899 . S
O223 C231 1.284 . S
Zn224 O223 1.899 . S
Zn224 O225 2.032 . S
Zn224 O228 2.086 . S
Zn224 O233 1.977 . S
O225 Zn224 2.032 . S
O225 C229 1.278 . S
C226 O227 1.203 . S
C226 O233 1.267 . S
O227 C226 1.203 . S
O228 C221 1.185 . S
O228 Zn224 2.086 . S
C229 O225 1.278 . S
C229 O230 1.211 . S
O230 C229 1.211 . S
C231 O223 1.284 . S
C231 O232 1.273 . S
O232 C231 1.273 . S
O233 Zn224 1.977 . S
O233 C226 1.267 . S
C234 O235 1.157 1_554 S
C234 O241 1.185 . S
O235 C234 1.157 1_556 S
O236 Zn237 1.899 . S
O236 C244 1.284 . S
Zn237 O236 1.899 . S
Zn237 O238 2.032 . S
Zn237 O241 2.086 . S
Zn237 O246 1.977 . S
O238 Zn237 2.032 . S
O238 C242 1.278 . S
C239 O240 1.203 . S
C239 O246 1.267 . S
O240 C239 1.203 . S
O241 C234 1.185 . S
O241 Zn237 2.086 . S
C242 O238 1.278 . S
C242 O243 1.211 . S
O243 C242 1.211 . S
C244 O236 1.284 . S
C244 O245 1.273 . S
O245 C244 1.273 . S
O246 Zn237 1.977 . S
O246 C239 1.267 . S
C247 O248 1.160 . S
C247 O254 1.185 . S
O248 C247 1.160 . S
O249 Zn250 1.899 . S
O249 C257 1.284 . S
Zn250 O249 1.899 . S
Zn250 O251 2.032 . S
Zn250 O254 2.086 . S
Zn250 O259 1.977 . S
O251 Zn250 2.032 . S
O251 C255 1.278 . S
C252 O253 1.203 . S
C252 O259 1.267 . S
O253 C252 1.203 . S
O254 C247 1.185 . S
O254 Zn250 2.086 . S
C255 O251 1.278 . S
C255 O256 1.211 . S
O256 C255 1.211 . S
C257 O249 1.284 . S
C257 O258 1.273 . S
O258 C257 1.273 . S
O259 Zn250 1.977 . S
O259 C252 1.267 . S
C260 O261 1.160 . S
C260 O267 1.185 . S
O261 C260 1.160 . S
O262 Zn263 1.899 . S
O262 C270 1.284 . S
Zn263 O262 1.899 . S
Zn263 O264 2.032 . S
Zn263 O267 2.086 . S
Zn263 O272 1.977 . S
O264 Zn263 2.032 . S
O264 C268 1.278 . S
C265 O266 1.203 . S
C265 O272 1.267 . S
O266 C265 1.203 . S
O267 C260 1.185 . S
O267 Zn263 2.086 . S
C268 O264 1.278 . S
C268 O269 1.211 . S
O269 C268 1.211 . S
C270 O262 1.284 . S
C270 O271 1.273 . S
O271 C270 1.273 . S
O272 Zn263 1.977 . S
O272 C265 1.267 . S
C273 O274 1.160 . S
C273 O280 1.185 . S
O274 C273 1.160 . S
O275 Zn276 1.899 . S
O275 C283 1.284 . S
Zn276 O275 1.899 . S
Zn276 O277 2.032 . S
Zn276 O280 2.086 . S
Zn276 O285 1.977 . S
O277 Zn276 2.032 . S
O277 C281 1.278 . S
C278 O279 1.203 . S
C278 O285 1.267 . S
O279 C278 1.203 . S
O280 C273 1.185 . S
O280 Zn276 2.086 . S
C281 O277 1.278 . S
C281 O282 1.211 . S
O282 C281 1.211 . S
C283 O275 1.284 . S
C283 O284 1.273 . S
O284 C283 1.273 . S
O285 Zn276 1.977 . S
O285 C278 1.267 . S
C286 O287 1.160 . S
C286 O293 1.185 1_554 S
O287 C286 1.160 . S
O288 Zn289 1.899 1_554 S
O288 C296 1.284 . S
Zn289 O288 1.899 1_556 S
Zn289 O290 2.032 . S
Zn289 O293 2.086 . S
Zn289 O298 1.977 . S
O290 Zn289 2.032 . S
O290 C294 1.278 . S
C291 O292 1.203 . S
C291 O298 1.267 . S
O292 C291 1.203 . S
O293 C286 1.185 1_556 S
O293 Zn289 2.086 . S
C294 O290 1.278 . S
C294 O295 1.211 . S
O295 C294 1.211 . S
C296 O288 1.284 . S
C296 O297 1.273 1_554 S
O297 C296 1.273 1_556 S
O298 Zn289 1.977 . S
O298 C291 1.267 . S
C299 O300 1.160 . S
C299 O306 1.185 . S
O300 C299 1.160 . S
O301 Zn302 1.899 . S
O301 C309 1.284 . S
Zn302 O301 1.899 . S
Zn302 O303 2.032 . S
Zn302 O306 2.086 . S
Zn302 O311 1.977 . S
O303 Zn302 2.032 . S
O303 C307 1.278 . S
C304 O305 1.203 . S
C304 O311 1.267 . S
O305 C304 1.203 . S
O306 C299 1.185 . S
O306 Zn302 2.086 . S
C307 O303 1.278 . S
C307 O308 1.211 . S
O308 C307 1.211 . S
C309 O301 1.284 . S
C309 O310 1.273 . S
O310 C309 1.273 . S
O311 Zn302 1.977 . S
O311 C304 1.267 . S
C312 O313 1.160 . S
C312 O319 1.185 . S
O313 C312 1.160 . S
O314 Zn315 1.899 . S
O314 C322 1.284 . S
Zn315 O314 1.899 . S
Zn315 O316 2.032 . S
Zn315 O319 2.086 . S
Zn315 O324 1.977 . S
O316 Zn315 2.032 . S
O316 C320 1.278 . S
C317 O318 1.203 . S
C317 O324 1.267 . S
O318 C317 1.203 . S
O319 C312 1.185 . S
O319 Zn315 2.086 . S
C320 O316 1.278 . S
C320 O321 1.211 . S
O321 C320 1.211 . S
C322 O314 1.284 . S
C322 O323 1.273 . S
O323 C322 1.273 . S
O324 Zn315 1.977 . S
O324 C317 1.267 . S
C325 O326 1.160 . S
C325 O332 1.185 . S
O326 C325 1.160 . S
O327 Zn328 1.899 . S
O327 C335 1.284 . S
Zn328 O327 1.899 . S
Zn328 O329 2.032 . S
Zn328 O332 2.086 . S
Zn328 O337 1.977 . S
O329 Zn328 2.032 . S
O329 C333 1.278 . S
C330 O331 1.203 . S
C330 O337 1.267 . S
O331 C330 1.203 . S
O332 C325 1.185 . S
O332 Zn328 2.086 . S
C333 O329 1.278 . S
C333 O334 1.211 . S
O334 C333 1.211 . S
C335 O327 1.284 . S
C335 O336 1.273 . S
O336 C335 1.273 . S
O337 Zn328 1.977 . S
O337 C330 1.267 . S
C338 O339 1.160 . S
C338 O345 1.185 . S
O339 C338 1.160 . S
O340 Zn341 1.899 . S
O340 C348 1.284 . S
Zn341 O340 1.899 . S
Zn341 O342 2.032 . S
Zn341 O345 2.086 . S
Zn341 O350 1.977 . S
O342 Zn341 2.032 . S
O342 C346 1.278 . S
C343 O344 1.203 . S
C343 O350 1.267 . S
O344 C343 1.203 . S
O345 C338 1.185 . S
O345 Zn341 2.086 . S
C346 O342 1.278 . S
C346 O347 1.211 . S
O347 C346 1.211 . S
C348 O340 1.284 . S
C348 O349 1.273 . S
O349 C348 1.273 . S
O350 Zn341 1.977 . S
O350 C343 1.267 . S
C351 O352 1.160 . S
C351 O358 1.185 . S
O352 C351 1.160 . S
O353 Zn354 1.899 . S
O353 C361 1.284 . S
Zn354 O353 1.899 . S
Zn354 O355 2.032 . S
Zn354 O358 2.086 . S
Zn354 O363 1.977 . S
O355 Zn354 2.032 . S
O355 C359 1.278 . S
C356 O357 1.203 . S
C356 O363 1.267 . S
O357 C356 1.203 . S
O358 C351 1.185 . S
O358 Zn354 2.086 . S
C359 O355 1.278 . S
C359 O360 1.211 . S
O360 C359 1.211 . S
C361 O353 1.284 . S
C361 O362 1.273 . S
O362 C361 1.273 . S
O363 Zn354 1.977 . S
O363 C356 1.267 . S
C364 O365 1.160 . S
C364 O371 1.185 . S
O365 C364 1.160 . S
O366 Zn367 1.899 . S
O366 C374 1.284 . S
Zn367 O366 1.899 . S
Zn367 O368 2.032 . S
Zn367 O371 2.086 . S
Zn367 O376 1.977 . S
O368 Zn367 2.032 . S
O368 C372 1.278 . S
C369 O370 1.203 . S
C369 O376 1.267 . S
O370 C369 1.203 . S
O371 C364 1.185 . S
O371 Zn367 2.086 . S
C372 O368 1.278 . S
C372 O373 1.211 . S
O373 C372 1.211 . S
C374 O366 1.284 . S
C374 O375 1.273 . S
O375 C374 1.273 . S
O376 Zn367 1.977 . S
O376 C369 1.267 . S
C377 O378 1.160 . S
C377 O384 1.185 . S
O378 C377 1.160 . S
O379 Zn380 1.899 . S
O379 C387 1.284 . S
Zn380 O379 1.899 . S
Zn380 O381 2.032 . S
Zn380 O384 2.086 . S
Zn380 O389 1.977 . S
O381 Zn380 2.032 . S
O381 C385 1.278 . S
C382 O383 1.203 . S
C382 O389 1.267 . S
O383 C382 1.203 . S
O384 C377 1.185 . S
O384 Zn380 2.086 . S
C385 O381 1.278 . S
C385 O386 1.211 . S
O386 C385 1.211 . S
C387 O379 1.284 . S
C387 O388 1.273 . S
O388 C387 1.273 . S
O389 Zn380 1.977 . S
O389 C382 1.267 . S
C390 O391 1.160 . S
C390 O397 1.185 . S
O391 C390 1.160 . S
O392 Zn393 1.899 . S
O392 C400 1.284 . S
Zn393 O392 1.899 . S
Zn393 O394 2.032 . S
Zn393 O397 2.086 . S
Zn393 O402 1.977 . S
O394 Zn393 2.032 . S
O394 C398 1.278 . S
C395 O396 1.203 . S
C395 O402 1.267 . S
O396 C395 1.203 . S
O397 C390 1.185 . S
O397 Zn393 2.086 . S
C398 O394 1.278 . S
C398 O399 1.211 . S
O399 C398 1.211 . S
C400 O392 1.284 . S
C400 O401 1.273 . S
O401 C400 1.273 . S
O402 Zn393 1.977 . S
O402 C395 1.267 . S
C403 O404 1.160 . S
C403 O410 1.185 . S
O404 C403 1.160 . S
O405 Zn406 1.899 . S
O405 C413 1.284 . S
Zn406 O405 1.899 . S
Zn406 O407 2.032 . S
Zn406 O410 2.086 . S
Zn406 O415 1.977 . S
O407 Zn406 2.032 . S
O407 C411 1.278 . S
C408 O409 1.203 . S
C408 O415 1.267 . S
O409 C408 1.203 . S
O410 C403 1.185 . S
O410 Zn406 2.086 . S
C411 O407 1.278 . S
C411 O412 1.211 . S
O412 C411 1.211 . S
C413 O405 1.284 . S
C413 O414 1.273 . S
O414 C413 1.273 . S
O415 Zn406 1.977 . S
O415 C408 1.267 . S
H416 C424 0.950 . S
H417 C429 0.950 . S
H418 C426 0.950 . S
H419 C428 0.950 . S
H420 C430 0.950 . S
H421 C432 0.950 . S
H422 C434 0.950 . S
H423 C435 0.950 . S
C424 H416 0.950 . S
C424 C425 1.386 1_455 S
C424 C426 1.391 . S
C425 C424 1.386 1_655 S
C425 C429 1.393 . S
C426 H418 0.950 . S
C426 C424 1.391 . S
C426 C427 1.400 . S
C427 C426 1.400 . S
C427 C428 1.398 . S
C427 C433 1.491 . S
C428 H419 0.950 . S
C428 C427 1.398 . S
C428 C429 1.391 1_455 S
C429 H417 0.950 . S
C429 C425 1.393 . S
C429 C428 1.391 1_655 S
C430 H420 0.950 . S
C430 C431 1.386 . S
C430 C432 1.391 1_545 S
C431 C430 1.386 . S
C431 C435 1.393 1_545 S
C432 H421 0.950 . S
C432 C430 1.391 1_565 S
C432 C433 1.400 . S
C433 C427 1.491 . S
C433 C432 1.400 . S
C433 C434 1.398 . S
C434 H422 0.950 . S
C434 C433 1.398 . S
C434 C435 1.391 . S
C435 H423 0.950 . S
C435 C431 1.393 1_565 S
C435 C434 1.391 . S
H436 C444 0.950 . S
H437 C449 0.950 . S
H438 C446 0.950 . S
H439 C448 0.950 . S
H440 C450 0.950 . S
H441 C452 0.950 . S
H442 C454 0.950 . S
H443 C455 0.953 . S
C444 H436 0.950 . S
C444 C445 1.386 . S
C444 C446 1.391 . S
C445 C444 1.386 . S
C445 C449 1.393 . S
C446 H438 0.950 . S
C446 C444 1.391 . S
C446 C447 1.400 . S
C447 C446 1.400 . S
C447 C448 1.398 . S
C447 C453 1.491 . S
C448 H439 0.950 . S
C448 C447 1.398 . S
C448 C449 1.391 . S
C449 H437 0.950 . S
C449 C445 1.393 . S
C449 C448 1.391 . S
C450 H440 0.950 . S
C450 C451 1.386 . S
C450 C452 1.391 1_455 S
C451 C450 1.386 . S
C451 C455 1.393 1_455 S
C452 H441 0.950 . S
C452 C450 1.391 1_655 S
C452 C453 1.400 . S
C453 C447 1.491 . S
C453 C452 1.400 . S
C453 C454 1.398 . S
C454 H442 0.950 . S
C454 C453 1.398 . S
C454 C455 1.391 . S
C455 H443 0.953 . S
C455 C451 1.393 1_655 S
C455 C454 1.391 . S
H456 C464 0.950 . S
H457 C469 0.950 . S
H458 C466 0.950 . S
H459 C468 0.950 . S
H460 C470 0.950 . S
H461 C472 0.950 . S
H462 C474 0.950 . S
H463 C475 0.950 . S
C464 H456 0.950 . S
C464 C465 1.386 . S
C464 C466 1.391 . S
C465 C464 1.386 . S
C465 C469 1.393 1_556 S
C466 H458 0.950 . S
C466 C464 1.391 . S
C466 C467 1.400 . S
C467 C466 1.400 . S
C467 C468 1.398 1_556 S
C467 C473 1.491 . S
C468 H459 0.950 . S
C468 C467 1.398 1_554 S
C468 C469 1.391 . S
C469 H457 0.950 . S
C469 C465 1.393 1_554 S
C469 C468 1.391 . S
C470 H460 0.950 . S
C470 C471 1.386 . S
C470 C472 1.391 . S
C471 C470 1.386 . S
C471 C475 1.393 1_554 S
C472 H461 0.950 . S
C472 C470 1.391 . S
C472 C473 1.400 1_554 S
C473 C467 1.491 . S
C473 C472 1.400 1_556 S
C473 C474 1.398 . S
C474 H462 0.950 . S
C474 C473 1.398 . S
C474 C475 1.391 . S
C475 H463 0.950 . S
C475 C471 1.393 1_556 S
C475 C474 1.391 . S
H476 C484 0.950 . S
H477 C489 0.950 . S
H478 C486 0.950 . S
H479 C488 0.950 . S
H480 C490 0.950 . S
H481 C492 0.950 . S
H482 C494 0.950 . S
H483 C495 0.950 . S
C484 H476 0.950 . S
C484 C485 1.386 . S
C484 C486 1.391 . S
C485 C484 1.386 . S
C485 C489 1.393 . S
C486 H478 0.950 . S
C486 C484 1.391 . S
C486 C487 1.400 . S
C487 C486 1.400 . S
C487 C488 1.398 . S
C487 C493 1.491 . S
C488 H479 0.950 . S
C488 C487 1.398 . S
C488 C489 1.391 . S
C489 H477 0.950 . S
C489 C485 1.393 . S
C489 C488 1.391 . S
C490 H480 0.950 . S
C490 C491 1.386 . S
C490 C492 1.391 1_565 S
C491 C490 1.386 . S
C491 C495 1.393 1_565 S
C492 H481 0.950 . S
C492 C490 1.391 1_545 S
C492 C493 1.400 . S
C493 C487 1.491 . S
C493 C492 1.400 . S
C493 C494 1.398 . S
C494 H482 0.950 . S
C494 C493 1.398 . S
C494 C495 1.391 . S
C495 H483 0.950 . S
C495 C491 1.393 1_545 S
C495 C494 1.391 . S
H496 C504 0.950 . S
H497 C509 0.950 . S
H498 C506 0.950 . S
H499 C508 0.950 . S
H500 C510 0.950 . S
H501 C512 0.950 . S
H502 C514 0.950 . S
H503 C515 0.950 . S
C504 H496 0.950 . S
C504 C505 1.386 1_564 S
C504 C506 1.391 . S
C505 C504 1.386 1_546 S
C505 C509 1.393 . S
C506 H498 0.950 . S
C506 C504 1.391 . S
C506 C507 1.400 1_554 S
C507 C506 1.400 1_556 S
C507 C508 1.398 . S
C507 C513 1.493 . S
C508 H499 0.950 . S
C508 C507 1.398 . S
C508 C509 1.391 1_565 S
C509 H497 0.950 . S
C509 C505 1.393 . S
C509 C508 1.391 1_545 S
C510 H500 0.950 . S
C510 C511 1.386 1_556 S
C510 C512 1.391 . S
C511 C510 1.386 1_554 S
C511 C515 1.393 . S
C512 H501 0.950 . S
C512 C510 1.391 . S
C512 C513 1.403 . S
C513 C507 1.493 . S
C513 C512 1.403 . S
C513 C514 1.394 1_556 S
C514 H502 0.950 . S
C514 C513 1.394 1_554 S
C514 C515 1.391 . S
C515 H503 0.950 . S
C515 C511 1.393 . S
C515 C514 1.391 . S
H516 C524 0.950 . S
H517 C529 0.950 . S
H518 C526 0.950 . S
H519 C528 0.950 . S
H520 C530 0.944 1_455 S
H521 C532 0.950 . S
H522 C534 0.950 . S
H523 C535 0.950 . S
C524 H516 0.950 . S
C524 C525 1.386 . S
C524 C526 1.391 . S
C525 C524 1.386 . S
C525 C529 1.393 . S
C526 H518 0.950 . S
C526 C524 1.391 . S
C526 C527 1.400 . S
C527 C526 1.400 . S
C527 C528 1.398 . S
C527 C533 1.491 . S
C528 H519 0.950 . S
C528 C527 1.398 . S
C528 C529 1.391 . S
C529 H517 0.950 . S
C529 C525 1.393 . S
C529 C528 1.391 . S
C530 H520 0.944 1_655 S
C530 C531 1.353 1_655 S
C530 C532 1.432 . S
C531 C530 1.353 1_455 S
C531 C535 1.393 . S
C532 H521 0.950 . S
C532 C530 1.432 . S
C532 C533 1.400 . S
C533 C527 1.491 . S
C533 C532 1.400 . S
C533 C534 1.398 . S
C534 H522 0.950 . S
C534 C533 1.398 . S
C534 C535 1.391 1_655 S
C535 H523 0.950 . S
C535 C531 1.393 . S
C535 C534 1.391 1_455 S
H536 C544 0.950 . S
H537 C549 0.950 . S
H538 C546 0.950 . S
H539 C548 0.950 . S
H540 C550 0.950 . S
H541 C552 0.950 . S
H542 C554 0.950 . S
H543 C555 0.950 . S
C544 H536 0.950 . S
C544 C545 1.386 . S
C544 C546 1.391 . S
C545 C544 1.386 . S
C545 C549 1.393 . S
C546 H538 0.950 . S
C546 C544 1.391 . S
C546 C547 1.400 . S
C547 C546 1.400 . S
C547 C548 1.398 . S
C547 C553 1.491 . S
C548 H539 0.950 . S
C548 C547 1.398 . S
C548 C549 1.391 . S
C549 H537 0.950 . S
C549 C545 1.393 . S
C549 C548 1.391 . S
C550 H540 0.950 . S
C550 C551 1.386 . S
C550 C552 1.391 . S
C551 C550 1.386 . S
C551 C555 1.393 . S
C552 H541 0.950 . S
C552 C550 1.391 . S
C552 C553 1.400 . S
C553 C547 1.491 . S
C553 C552 1.400 . S
C553 C554 1.398 . S
C554 H542 0.950 . S
C554 C553 1.398 . S
C554 C555 1.391 . S
C555 H543 0.950 . S
C555 C551 1.393 . S
C555 C554 1.391 . S
H556 C564 0.950 . S
H557 C569 0.950 . S
H558 C566 0.950 . S
H559 C568 0.950 . S
H560 C570 0.950 . S
H561 C572 0.950 . S
H562 C574 0.950 . S
H563 C575 0.950 . S
C564 H556 0.950 . S
C564 C565 1.386 . S
C564 C566 1.391 . S
C565 C564 1.386 . S
C565 C569 1.393 . S
C566 H558 0.950 . S
C566 C564 1.391 . S
C566 C567 1.400 . S
C567 C566 1.400 . S
C567 C568 1.398 . S
C567 C573 1.491 . S
C568 H559 0.950 . S
C568 C567 1.398 . S
C568 C569 1.391 . S
C569 H557 0.950 . S
C569 C565 1.393 . S
C569 C568 1.391 . S
C570 H560 0.950 . S
C570 C571 1.386 . S
C570 C572 1.391 . S
C571 C570 1.386 . S
C571 C575 1.393 . S
C572 H561 0.950 . S
C572 C570 1.391 . S
C572 C573 1.400 . S
C573 C567 1.491 . S
C573 C572 1.400 . S
C573 C574 1.398 . S
C574 H562 0.950 . S
C574 C573 1.398 . S
C574 C575 1.391 . S
C575 H563 0.950 . S
C575 C571 1.393 . S
C575 C574 1.391 . S
H576 C584 0.950 . S
H577 C589 0.950 . S
H578 C586 0.950 . S
H579 C588 0.950 . S
H580 C590 0.950 . S
H581 C592 0.950 . S
H582 C594 0.950 . S
H583 C595 0.950 . S
C584 H576 0.950 . S
C584 C585 1.386 . S
C584 C586 1.391 . S
C585 C584 1.386 . S
C585 C589 1.393 . S
C586 H578 0.950 . S
C586 C584 1.391 . S
C586 C587 1.400 . S
C587 C586 1.400 . S
C587 C588 1.398 . S
C587 C593 1.491 . S
C588 H579 0.950 . S
C588 C587 1.398 . S
C588 C589 1.391 . S
C589 H577 0.950 . S
C589 C585 1.393 . S
C589 C588 1.391 . S
C590 H580 0.950 . S
C590 C591 1.386 . S
C590 C592 1.391 . S
C591 C590 1.386 . S
C591 C595 1.393 . S
C592 H581 0.950 . S
C592 C590 1.391 . S
C592 C593 1.400 . S
C593 C587 1.491 . S
C593 C592 1.400 . S
C593 C594 1.398 . S
C594 H582 0.950 . S
C594 C593 1.398 . S
C594 C595 1.391 . S
C595 H583 0.950 . S
C595 C591 1.393 . S
C595 C594 1.391 . S
H596 C604 0.950 . S
H597 C609 0.950 . S
H598 C606 0.950 . S
H599 C608 0.950 . S
H600 C610 0.950 . S
H601 C612 0.950 . S
H602 C614 0.950 . S
H603 C615 0.950 . S
C604 H596 0.950 . S
C604 C605 1.386 . S
C604 C606 1.391 . S
C605 C604 1.386 . S
C605 C609 1.393 . S
C606 H598 0.950 . S
C606 C604 1.391 . S
C606 C607 1.400 . S
C607 C606 1.400 . S
C607 C608 1.398 . S
C607 C613 1.491 . S
C608 H599 0.950 . S
C608 C607 1.398 . S
C608 C609 1.391 . S
C609 H597 0.950 . S
C609 C605 1.393 . S
C609 C608 1.391 . S
C610 H600 0.950 . S
C610 C611 1.386 . S
C610 C612 1.391 . S
C611 C610 1.386 . S
C611 C615 1.393 . S
C612 H601 0.950 . S
C612 C610 1.391 . S
C612 C613 1.400 . S
C613 C607 1.491 . S
C613 C612 1.400 . S
C613 C614 1.398 . S
C614 H602 0.950 . S
C614 C613 1.398 . S
C614 C615 1.391 . S
C615 H603 0.950 . S
C615 C611 1.393 . S
C615 C614 1.391 . S
H616 C624 0.950 . S
H617 C629 0.950 . S
H618 C626 0.950 . S
H619 C628 0.950 . S
H620 C630 0.950 . S
H621 C632 0.950 . S
H622 C634 0.950 . S
H623 C635 0.950 . S
C624 H616 0.950 . S
C624 C625 1.386 . S
C624 C626 1.391 . S
C625 C624 1.386 . S
C625 C629 1.393 . S
C626 H618 0.950 . S
C626 C624 1.391 . S
C626 C627 1.400 . S
C627 C626 1.400 . S
C627 C628 1.398 . S
C627 C633 1.491 . S
C628 H619 0.950 . S
C628 C627 1.398 . S
C628 C629 1.391 . S
C629 H617 0.950 . S
C629 C625 1.393 . S
C629 C628 1.391 . S
C630 H620 0.950 . S
C630 C631 1.386 . S
C630 C632 1.391 1_565 S
C631 C630 1.386 . S
C631 C635 1.393 1_565 S
C632 H621 0.950 . S
C632 C630 1.391 1_545 S
C632 C633 1.400 . S
C633 C627 1.491 . S
C633 C632 1.400 . S
C633 C634 1.398 . S
C634 H622 0.950 . S
C634 C633 1.398 . S
C634 C635 1.391 . S
C635 H623 0.950 . S
C635 C631 1.393 1_545 S
C635 C634 1.391 . S
H636 C644 0.950 . S
H637 C649 0.950 . S
H638 C646 0.950 . S
H639 C648 0.950 . S
H640 C650 0.950 . S
H641 C652 0.950 . S
H642 C654 0.950 . S
H643 C655 0.950 . S
C644 H636 0.950 . S
C644 C645 1.386 1_455 S
C644 C646 1.391 . S
C645 C644 1.386 1_655 S
C645 C649 1.393 1_554 S
C646 H638 0.950 . S
C646 C644 1.391 . S
C646 C647 1.396 1_554 S
C647 C646 1.396 1_556 S
C647 C648 1.402 . S
C647 C653 1.492 . S
C648 H639 0.950 . S
C648 C647 1.402 . S
C648 C649 1.391 1_455 S
C649 H637 0.950 . S
C649 C645 1.393 1_556 S
C649 C648 1.391 1_655 S
C650 H640 0.950 . S
C650 C651 1.386 . S
C650 C652 1.391 . S
C651 C650 1.386 . S
C651 C655 1.393 1_556 S
C652 H641 0.950 . S
C652 C650 1.391 . S
C652 C653 1.400 . S
C653 C647 1.492 . S
C653 C652 1.400 . S
C653 C654 1.398 1_556 S
C654 H642 0.950 . S
C654 C653 1.398 1_554 S
C654 C655 1.391 . S
C655 H643 0.950 . S
C655 C651 1.393 1_554 S
C655 C654 1.391 . S
H656 C664 0.950 . S
H657 C669 0.950 . S
H658 C666 0.950 . S
H659 C668 0.950 . S
H660 C670 0.950 . S
H661 C672 0.950 . S
H662 C674 0.950 . S
H663 C675 0.950 . S
C664 H656 0.950 . S
C664 C665 1.386 . S
C664 C666 1.391 . S
C665 C664 1.386 . S
C665 C669 1.393 . S
C666 H658 0.950 . S
C666 C664 1.391 . S
C666 C667 1.400 . S
C667 C666 1.400 . S
C667 C668 1.398 . S
C667 C673 1.491 . S
C668 H659 0.950 . S
C668 C667 1.398 . S
C668 C669 1.391 . S
C669 H657 0.950 . S
C669 C665 1.393 . S
C669 C668 1.391 . S
C670 H660 0.950 . S
C670 C671 1.386 . S
C670 C672 1.391 . S
C671 C670 1.386 . S
C671 C675 1.393 . S
C672 H661 0.950 . S
C672 C670 1.391 . S
C672 C673 1.400 . S
C673 C667 1.491 . S
C673 C672 1.400 . S
C673 C674 1.398 . S
C674 H662 0.950 . S
C674 C673 1.398 . S
C674 C675 1.391 . S
C675 H663 0.950 . S
C675 C671 1.393 . S
C675 C674 1.391 . S
H676 C684 0.950 . S
H677 C689 0.950 . S
H678 C686 0.950 . S
H679 C688 0.950 . S
H680 C690 0.950 . S
H681 C692 0.950 . S
H682 C694 0.950 . S
H683 C695 0.950 1_554 S
C684 H676 0.950 . S
C684 C685 1.386 . S
C684 C686 1.391 . S
C685 C684 1.386 . S
C685 C689 1.393 1_554 S
C686 H678 0.950 . S
C686 C684 1.391 . S
C686 C687 1.400 1_554 S
C687 C686 1.400 1_556 S
C687 C688 1.398 . S
C687 C693 1.491 . S
C688 H679 0.950 . S
C688 C687 1.398 . S
C688 C689 1.391 . S
C689 H677 0.950 . S
C689 C685 1.393 1_556 S
C689 C688 1.391 . S
C690 H680 0.950 . S
C690 C691 1.386 . S
C690 C692 1.391 . S
C691 C690 1.386 . S
C691 C695 1.393 . S
C692 H681 0.950 . S
C692 C690 1.391 . S
C692 C693 1.400 . S
C693 C687 1.491 . S
C693 C692 1.400 . S
C693 C694 1.398 1_556 S
C694 H682 0.950 . S
C694 C693 1.398 1_554 S
C694 C695 1.391 1_554 S
C695 H683 0.950 1_556 S
C695 C691 1.393 . S
C695 C694 1.391 1_556 S
H696 C704 0.950 . S
H697 C709 0.950 . S
H698 C706 0.950 . S
H699 C708 0.950 . S
H700 C710 0.950 . S
H701 C712 0.950 . S
H702 C714 0.950 . S
H703 C715 0.950 . S
C704 H696 0.950 . S
C704 C705 1.386 . S
C704 C706 1.391 . S
C705 C704 1.386 . S
C705 C709 1.393 . S
C706 H698 0.950 . S
C706 C704 1.391 . S
C706 C707 1.400 . S
C707 C706 1.400 . S
C707 C708 1.398 . S
C707 C713 1.491 . S
C708 H699 0.950 . S
C708 C707 1.398 . S
C708 C709 1.391 . S
C709 H697 0.950 . S
C709 C705 1.393 . S
C709 C708 1.391 . S
C710 H700 0.950 . S
C710 C711 1.386 . S
C710 C712 1.391 . S
C711 C710 1.386 . S
C711 C715 1.393 . S
C712 H701 0.950 . S
C712 C710 1.391 . S
C712 C713 1.400 . S
C713 C707 1.491 . S
C713 C712 1.400 . S
C713 C714 1.398 . S
C714 H702 0.950 . S
C714 C713 1.398 . S
C714 C715 1.391 . S
C715 H703 0.950 . S
C715 C711 1.393 . S
C715 C714 1.391 . S
H716 C724 0.950 . S
H717 C729 0.950 . S
H718 C726 0.950 . S
H719 C728 0.950 . S
H720 C730 0.950 . S
H721 C732 0.950 . S
H722 C734 0.950 . S
H723 C735 0.950 . S
C724 H716 0.950 . S
C724 C725 1.386 . S
C724 C726 1.391 . S
C725 C724 1.386 . S
C725 C729 1.393 . S
C726 H718 0.950 . S
C726 C724 1.391 . S
C726 C727 1.400 . S
C727 C726 1.400 . S
C727 C728 1.398 . S
C727 C733 1.491 . S
C728 H719 0.950 . S
C728 C727 1.398 . S
C728 C729 1.391 . S
C729 H717 0.950 . S
C729 C725 1.393 . S
C729 C728 1.391 . S
C730 H720 0.950 . S
C730 C731 1.386 . S
C730 C732 1.391 . S
C731 C730 1.386 . S
C731 C735 1.393 . S
C732 H721 0.950 . S
C732 C730 1.391 . S
C732 C733 1.400 . S
C733 C727 1.491 . S
C733 C732 1.400 . S
C733 C734 1.398 . S
C734 H722 0.950 . S
C734 C733 1.398 . S
C734 C735 1.391 . S
C735 H723 0.950 . S
C735 C731 1.393 . S
C735 C734 1.391 . S
H736 C744 0.950 . S
H737 C749 0.950 . S
H738 C746 0.950 . S
H739 C748 0.950 . S
H740 C750 0.950 . S
H741 C752 0.950 . S
H742 C754 0.950 . S
H743 C755 0.950 . S
C744 H736 0.950 . S
C744 C745 1.386 . S
C744 C746 1.391 . S
C745 C744 1.386 . S
C745 C749 1.393 . S
C746 H738 0.950 . S
C746 C744 1.391 . S
C746 C747 1.400 . S
C747 C746 1.400 . S
C747 C748 1.398 . S
C747 C753 1.491 . S
C748 H739 0.950 . S
C748 C747 1.398 . S
C748 C749 1.391 . S
C749 H737 0.950 . S
C749 C745 1.393 . S
C749 C748 1.391 . S
C750 H740 0.950 . S
C750 C751 1.386 . S
C750 C752 1.391 . S
C751 C750 1.386 . S
C751 C755 1.393 . S
C752 H741 0.950 . S
C752 C750 1.391 . S
C752 C753 1.400 . S
C753 C747 1.491 . S
C753 C752 1.400 . S
C753 C754 1.398 . S
C754 H742 0.950 . S
C754 C753 1.398 . S
C754 C755 1.391 . S
C755 H743 0.950 . S
C755 C751 1.393 . S
C755 C754 1.391 . S
H756 C764 0.950 . S
H757 C769 0.950 . S
H758 C766 0.950 . S
H759 C768 0.950 . S
H760 C770 0.950 . S
H761 C772 0.950 . S
H762 C774 0.950 . S
H763 C775 0.950 . S
C764 H756 0.950 . S
C764 C765 1.386 . S
C764 C766 1.391 . S
C765 C764 1.386 . S
C765 C769 1.393 . S
C766 H758 0.950 . S
C766 C764 1.391 . S
C766 C767 1.400 . S
C767 C766 1.400 . S
C767 C768 1.398 . S
C767 C773 1.491 . S
C768 H759 0.950 . S
C768 C767 1.398 . S
C768 C769 1.391 . S
C769 H757 0.950 . S
C769 C765 1.393 . S
C769 C768 1.391 . S
C770 H760 0.950 . S
C770 C771 1.386 . S
C770 C772 1.391 . S
C771 C770 1.386 . S
C771 C775 1.393 . S
C772 H761 0.950 . S
C772 C770 1.391 . S
C772 C773 1.400 . S
C773 C767 1.491 . S
C773 C772 1.400 . S
C773 C774 1.398 . S
C774 H762 0.950 . S
C774 C773 1.398 . S
C774 C775 1.391 . S
C775 H763 0.950 . S
C775 C771 1.393 . S
C775 C774 1.391 . S
H776 C784 0.950 . S
H777 C789 0.950 . S
H778 C786 0.950 . S
H779 C788 0.950 . S
H780 C790 0.950 . S
H781 C792 0.950 . S
H782 C794 0.950 . S
H783 C795 0.950 . S
C784 H776 0.950 . S
C784 C785 1.386 1_554 S
C784 C786 1.391 . S
C785 C784 1.386 1_556 S
C785 C789 1.393 . S
C786 H778 0.950 . S
C786 C784 1.391 . S
C786 C787 1.400 1_554 S
C787 C786 1.400 1_556 S
C787 C788 1.398 . S
C787 C793 1.491 . S
C788 H779 0.950 . S
C788 C787 1.398 . S
C788 C789 1.391 . S
C789 H777 0.950 . S
C789 C785 1.393 . S
C789 C788 1.391 . S
C790 H780 0.950 . S
C790 C791 1.386 1_556 S
C790 C792 1.391 . S
C791 C790 1.386 1_554 S
C791 C795 1.393 . S
C792 H781 0.950 . S
C792 C790 1.391 . S
C792 C793 1.400 . S
C793 C787 1.491 . S
C793 C792 1.400 . S
C793 C794 1.398 1_556 S
C794 H782 0.950 . S
C794 C793 1.398 1_554 S
C794 C795 1.391 . S
C795 H783 0.950 . S
C795 C791 1.393 . S
C795 C794 1.391 . S
H796 C804 0.950 . S
H797 C809 0.950 . S
H798 C806 0.950 . S
H799 C808 0.950 . S
H800 C810 0.950 . S
H801 C812 0.950 . S
H802 C814 0.950 . S
H803 C815 0.950 . S
C804 H796 0.950 . S
C804 C805 1.386 . S
C804 C806 1.391 . S
C805 C804 1.386 . S
C805 C809 1.393 . S
C806 H798 0.950 . S
C806 C804 1.391 . S
C806 C807 1.400 . S
C807 C806 1.400 . S
C807 C808 1.398 . S
C807 C813 1.491 . S
C808 H799 0.950 . S
C808 C807 1.398 . S
C808 C809 1.391 . S
C809 H797 0.950 . S
C809 C805 1.393 . S
C809 C808 1.391 . S
C810 H800 0.950 . S
C810 C811 1.386 . S
C810 C812 1.391 . S
C811 C810 1.386 . S
C811 C815 1.393 . S
C812 H801 0.950 . S
C812 C810 1.391 . S
C812 C813 1.400 . S
C813 C807 1.491 . S
C813 C812 1.400 . S
C813 C814 1.398 . S
C814 H802 0.950 . S
C814 C813 1.398 . S
C814 C815 1.391 . S
C815 H803 0.950 . S
C815 C811 1.393 . S
C815 C814 1.391 . S
H816 C824 0.950 . S
H817 C829 0.950 . S
H818 C826 0.950 . S
H819 C828 0.950 . S
H820 C830 0.950 . S
H821 C832 0.950 . S
H822 C834 0.950 . S
H823 C835 0.950 . S
C824 H816 0.950 . S
C824 C825 1.386 . S
C824 C826 1.391 . S
C825 C824 1.386 . S
C825 C829 1.393 . S
C826 H818 0.950 . S
C826 C824 1.391 . S
C826 C827 1.400 . S
C827 C826 1.400 . S
C827 C828 1.398 . S
C827 C833 1.491 . S
C828 H819 0.950 . S
C828 C827 1.398 . S
C828 C829 1.391 . S
C829 H817 0.950 . S
C829 C825 1.393 . S
C829 C828 1.391 . S
C830 H820 0.950 . S
C830 C831 1.386 . S
C830 C832 1.391 . S
C831 C830 1.386 . S
C831 C835 1.393 . S
C832 H821 0.950 . S
C832 C830 1.391 . S
C832 C833 1.400 . S
C833 C827 1.491 . S
C833 C832 1.400 . S
C833 C834 1.398 . S
C834 H822 0.950 . S
C834 C833 1.398 . S
C834 C835 1.391 . S
C835 H823 0.950 . S
C835 C831 1.393 . S
C835 C834 1.391 . S
H836 C844 0.950 . S
H837 C849 0.950 . S
H838 C846 0.950 . S
H839 C848 0.947 1_554 S
H840 C850 0.950 . S
H841 C852 0.950 . S
H842 C854 0.950 . S
H843 C855 0.950 . S
C844 H836 0.950 . S
C844 C845 1.386 . S
C844 C846 1.391 . S
C845 C844 1.386 . S
C845 C849 1.393 . S
C846 H838 0.950 . S
C846 C844 1.391 . S
C846 C847 1.400 . S
C847 C846 1.400 . S
C847 C848 1.399 . S
C847 C853 1.491 1_556 S
C848 H839 0.947 1_556 S
C848 C847 1.399 . S
C848 C849 1.395 . S
C849 H837 0.950 . S
C849 C845 1.393 . S
C849 C848 1.395 . S
C850 H840 0.950 . S
C850 C851 1.386 . S
C850 C852 1.391 . S
C851 C850 1.386 . S
C851 C855 1.393 . S
C852 H841 0.950 . S
C852 C850 1.391 . S
C852 C853 1.400 . S
C853 C847 1.491 1_554 S
C853 C852 1.400 . S
C853 C854 1.398 . S
C854 H842 0.950 . S
C854 C853 1.398 . S
C854 C855 1.391 . S
C855 H843 0.950 . S
C855 C851 1.393 . S
C855 C854 1.391 . S
H856 C864 0.950 . S
H857 C869 0.950 . S
H858 C866 0.950 . S
H859 C868 0.950 . S
H860 C870 0.950 . S
H861 C872 0.950 . S
H862 C874 0.950 . S
H863 C875 0.950 . S
C864 H856 0.950 . S
C864 C865 1.386 . S
C864 C866 1.391 . S
C865 C864 1.386 . S
C865 C869 1.393 . S
C866 H858 0.950 . S
C866 C864 1.391 . S
C866 C867 1.400 . S
C867 C866 1.400 . S
C867 C868 1.398 . S
C867 C873 1.491 . S
C868 H859 0.950 . S
C868 C867 1.398 . S
C868 C869 1.391 . S
C869 H857 0.950 . S
C869 C865 1.393 . S
C869 C868 1.391 . S
C870 H860 0.950 . S
C870 C871 1.386 . S
C870 C872 1.391 . S
C871 C870 1.386 . S
C871 C875 1.393 . S
C872 H861 0.950 . S
C872 C870 1.391 . S
C872 C873 1.400 . S
C873 C867 1.491 . S
C873 C872 1.400 . S
C873 C874 1.398 . S
C874 H862 0.950 . S
C874 C873 1.398 . S
C874 C875 1.391 . S
C875 H863 0.950 . S
C875 C871 1.393 . S
C875 C874 1.391 . S
H876 C884 0.950 . S
H877 C889 0.950 . S
H878 C886 0.950 . S
H879 C888 0.950 . S
H880 C890 0.950 . S
H881 C892 0.950 . S
H882 C894 0.950 . S
H883 C895 0.950 . S
C884 H876 0.950 . S
C884 C885 1.386 . S
C884 C886 1.391 . S
C885 C884 1.386 . S
C885 C889 1.393 . S
C886 H878 0.950 . S
C886 C884 1.391 . S
C886 C887 1.400 . S
C887 C886 1.400 . S
C887 C888 1.398 . S
C887 C893 1.491 . S
C888 H879 0.950 . S
C888 C887 1.398 . S
C888 C889 1.391 . S
C889 H877 0.950 . S
C889 C885 1.393 . S
C889 C888 1.391 . S
C890 H880 0.950 . S
C890 C891 1.386 . S
C890 C892 1.391 . S
C891 C890 1.386 . S
C891 C895 1.393 . S
C892 H881 0.950 . S
C892 C890 1.391 . S
C892 C893 1.400 . S
C893 C887 1.491 . S
C893 C892 1.400 . S
C893 C894 1.398 . S
C894 H882 0.950 . S
C894 C893 1.398 . S
C894 C895 1.391 . S
C895 H883 0.950 . S
C895 C891 1.393 . S
C895 C894 1.391 . S
H896 C904 0.950 . S
H897 C909 0.950 . S
H898 C906 0.950 . S
H899 C908 0.950 . S
H900 C910 0.950 . S
H901 C912 0.950 . S
H902 C914 0.950 . S
H903 C915 0.950 . S
C904 H896 0.950 . S
C904 C905 1.386 . S
C904 C906 1.391 . S
C905 C904 1.386 . S
C905 C909 1.393 . S
C906 H898 0.950 . S
C906 C904 1.391 . S
C906 C907 1.400 . S
C907 C906 1.400 . S
C907 C908 1.398 . S
C907 C913 1.491 . S
C908 H899 0.950 . S
C908 C907 1.398 . S
C908 C909 1.391 . S
C909 H897 0.950 . S
C909 C905 1.393 . S
C909 C908 1.391 . S
C910 H900 0.950 . S
C910 C911 1.386 . S
C910 C912 1.391 . S
C911 C910 1.386 . S
C911 C915 1.393 . S
C912 H901 0.950 . S
C912 C910 1.391 . S
C912 C913 1.400 . S
C913 C907 1.491 . S
C913 C912 1.400 . S
C913 C914 1.398 . S
C914 H902 0.950 . S
C914 C913 1.398 . S
C914 C915 1.391 . S
C915 H903 0.950 . S
C915 C911 1.393 . S
C915 C914 1.391 . S
H916 C924 0.950 . S
H917 C929 0.950 . S
H918 C926 0.950 . S
H919 C928 0.950 . S
H920 C930 0.950 . S
H921 C932 0.950 . S
H922 C934 0.950 . S
H923 C935 0.950 . S
C924 H916 0.950 . S
C924 C925 1.386 . S
C924 C926 1.391 . S
C925 C924 1.386 . S
C925 C929 1.393 . S
C926 H918 0.950 . S
C926 C924 1.391 . S
C926 C927 1.400 . S
C927 C926 1.400 . S
C927 C928 1.398 . S
C927 C933 1.491 . S
C928 H919 0.950 . S
C928 C927 1.398 . S
C928 C929 1.391 . S
C929 H917 0.950 . S
C929 C925 1.393 . S
C929 C928 1.391 . S
C930 H920 0.950 . S
C930 C931 1.386 . S
C930 C932 1.391 . S
C931 C930 1.386 . S
C931 C935 1.393 . S
C932 H921 0.950 . S
C932 C930 1.391 . S
C932 C933 1.400 . S
C933 C927 1.491 . S
C933 C932 1.400 . S
C933 C934 1.398 . S
C934 H922 0.950 . S
C934 C933 1.398 . S
C934 C935 1.391 . S
C935 H923 0.950 . S
C935 C931 1.393 . S
C935 C934 1.391 . S
H936 C944 0.950 . S
H937 C949 0.950 . S
H938 C946 0.950 . S
H939 C948 0.950 . S
H940 C950 0.950 . S
H941 C952 0.950 . S
H942 C954 0.950 . S
H943 C955 0.950 . S
C944 H936 0.950 . S
C944 C945 1.386 . S
C944 C946 1.391 . S
C945 C944 1.386 . S
C945 C949 1.393 . S
C946 H938 0.950 . S
C946 C944 1.391 . S
C946 C947 1.400 . S
C947 C946 1.400 . S
C947 C948 1.398 . S
C947 C953 1.491 . S
C948 H939 0.950 . S
C948 C947 1.398 . S
C948 C949 1.391 . S
C949 H937 0.950 . S
C949 C945 1.393 . S
C949 C948 1.391 . S
C950 H940 0.950 . S
C950 C951 1.386 . S
C950 C952 1.391 . S
C951 C950 1.386 . S
C951 C955 1.393 . S
C952 H941 0.950 . S
C952 C950 1.391 . S
C952 C953 1.400 . S
C953 C947 1.491 . S
C953 C952 1.400 . S
C953 C954 1.398 . S
C954 H942 0.950 . S
C954 C953 1.398 . S
C954 C955 1.391 . S
C955 H943 0.950 . S
C955 C951 1.393 . S
C955 C954 1.391 . S
H956 C964 0.950 . S
H957 C969 0.950 . S
H958 C966 0.950 . S
H959 C968 0.950 . S
H960 C970 0.950 . S
H961 C972 0.950 . S
H962 C974 0.950 . S
H963 C975 0.950 . S
C964 H956 0.950 . S
C964 C965 1.386 . S
C964 C966 1.391 . S
C965 C964 1.386 . S
C965 C969 1.393 . S
C966 H958 0.950 . S
C966 C964 1.391 . S
C966 C967 1.400 . S
C967 C966 1.400 . S
C967 C968 1.398 . S
C967 C973 1.491 . S
C968 H959 0.950 . S
C968 C967 1.398 . S
C968 C969 1.391 . S
C969 H957 0.950 . S
C969 C965 1.393 . S
C969 C968 1.391 . S
C970 H960 0.950 . S
C970 C971 1.386 . S
C970 C972 1.391 . S
C971 C970 1.386 . S
C971 C975 1.393 . S
C972 H961 0.950 . S
C972 C970 1.391 . S
C972 C973 1.400 . S
C973 C967 1.491 . S
C973 C972 1.400 . S
C973 C974 1.398 . S
C974 H962 0.950 . S
C974 C973 1.398 . S
C974 C975 1.391 . S
C975 H963 0.950 . S
C975 C971 1.393 . S
C975 C974 1.391 . S
H976 C984 0.950 . S
H977 C989 0.950 . S
H978 C986 0.950 . S
H979 C988 0.950 . S
H980 C990 0.950 . S
H981 C992 0.950 . S
H982 C994 0.950 . S
H983 C995 0.950 . S
C984 H976 0.950 . S
C984 C985 1.386 . S
C984 C986 1.391 . S
C985 C984 1.386 . S
C985 C989 1.393 . S
C986 H978 0.950 . S
C986 C984 1.391 . S
C986 C987 1.400 . S
C987 C986 1.400 . S
C987 C988 1.398 . S
C987 C993 1.491 . S
C988 H979 0.950 . S
C988 C987 1.398 . S
C988 C989 1.391 . S
C989 H977 0.950 . S
C989 C985 1.393 . S
C989 C988 1.391 . S
C990 H980 0.950 . S
C990 C991 1.386 . S
C990 C992 1.391 . S
C991 C990 1.386 . S
C991 C995 1.393 . S
C992 H981 0.950 . S
C992 C990 1.391 . S
C992 C993 1.400 . S
C993 C987 1.491 . S
C993 C992 1.400 . S
C993 C994 1.398 . S
C994 H982 0.950 . S
C994 C993 1.398 . S
C994 C995 1.391 . S
C995 H983 0.950 . S
C995 C991 1.393 . S
C995 C994 1.391 . S
H996 C1004 0.950 . S
H997 C1009 0.950 . S
H998 C1006 0.950 . S
H999 C1008 0.950 . S
H1000 C1010 0.950 . S
H1001 C1012 0.950 . S
H1002 C1014 0.950 . S
H1003 C1015 0.950 . S
C1004 H996 0.950 . S
C1004 C1005 1.386 . S
C1004 C1006 1.391 . S
C1005 C1004 1.386 . S
C1005 C1009 1.393 . S
C1006 H998 0.950 . S
C1006 C1004 1.391 . S
C1006 C1007 1.400 . S
C1007 C1006 1.400 . S
C1007 C1008 1.398 . S
C1007 C1013 1.491 . S
C1008 H999 0.950 . S
C1008 C1007 1.398 . S
C1008 C1009 1.391 . S
C1009 H997 0.950 . S
C1009 C1005 1.393 . S
C1009 C1008 1.391 . S
C1010 H1000 0.950 . S
C1010 C1011 1.386 . S
C1010 C1012 1.391 . S
C1011 C1010 1.386 . S
C1011 C1015 1.393 . S
C1012 H1001 0.950 . S
C1012 C1010 1.391 . S
C1012 C1013 1.400 . S
C1013 C1007 1.491 . S
C1013 C1012 1.400 . S
C1013 C1014 1.398 . S
C1014 H1002 0.950 . S
C1014 C1013 1.398 . S
C1014 C1015 1.391 . S
C1015 H1003 0.950 . S
C1015 C1011 1.393 . S
C1015 C1014 1.391 . S
H1016 C1024 0.950 . S
H1017 C1029 0.950 . S
H1018 C1026 0.950 . S
H1019 C1028 0.950 . S
H1020 C1030 0.950 . S
H1021 C1032 0.950 . S
H1022 C1034 0.950 . S
H1023 C1035 0.950 . S
C1024 H1016 0.950 . S
C1024 C1025 1.386 . S
C1024 C1026 1.391 . S
C1025 C1024 1.386 . S
C1025 C1029 1.393 . S
C1026 H1018 0.950 . S
C1026 C1024 1.391 . S
C1026 C1027 1.400 . S
C1027 C1026 1.400 . S
C1027 C1028 1.398 . S
C1027 C1033 1.491 . S
C1028 H1019 0.950 . S
C1028 C1027 1.398 . S
C1028 C1029 1.391 . S
C1029 H1017 0.950 . S
C1029 C1025 1.393 . S
C1029 C1028 1.391 . S
C1030 H1020 0.950 . S
C1030 C1031 1.386 . S
C1030 C1032 1.391 . S
C1031 C1030 1.386 . S
C1031 C1035 1.393 . S
C1032 H1021 0.950 . S
C1032 C1030 1.391 . S
C1032 C1033 1.400 . S
C1033 C1027 1.491 . S
C1033 C1032 1.400 . S
C1033 C1034 1.398 . S
C1034 H1022 0.950 . S
C1034 C1033 1.398 . S
C1034 C1035 1.391 . S
C1035 H1023 0.950 . S
C1035 C1031 1.393 . S
C1035 C1034 1.391 . S
H1036 C1044 0.950 . S
H1037 C1049 0.950 . S
H1038 C1046 0.950 . S
H1039 C1048 0.950 . S
H1040 C1050 0.950 . S
H1041 C1052 0.950 . S
H1042 C1054 0.950 . S
H1043 C1055 0.950 . S
C1044 H1036 0.950 . S
C1044 C1045 1.386 . S
C1044 C1046 1.391 . S
C1045 C1044 1.386 . S
C1045 C1049 1.393 . S
C1046 H1038 0.950 . S
C1046 C1044 1.391 . S
C1046 C1047 1.400 . S
C1047 C1046 1.400 . S
C1047 C1048 1.398 . S
C1047 C1053 1.491 . S
C1048 H1039 0.950 . S
C1048 C1047 1.398 . S
C1048 C1049 1.391 . S
C1049 H1037 0.950 . S
C1049 C1045 1.393 . S
C1049 C1048 1.391 . S
C1050 H1040 0.950 . S
C1050 C1051 1.386 . S
C1050 C1052 1.391 . S
C1051 C1050 1.386 . S
C1051 C1055 1.393 . S
C1052 H1041 0.950 . S
C1052 C1050 1.391 . S
C1052 C1053 1.400 . S
C1053 C1047 1.491 . S
C1053 C1052 1.400 . S
C1053 C1054 1.398 . S
C1054 H1042 0.950 . S
C1054 C1053 1.398 . S
C1054 C1055 1.391 . S
C1055 H1043 0.950 . S
C1055 C1051 1.393 . S
C1055 C1054 1.391 . S
H1056 C1064 0.950 . S
H1057 C1069 0.950 . S
H1058 C1066 0.950 . S
H1059 C1068 0.950 . S
H1060 C1070 0.950 . S
H1061 C1072 0.950 . S
H1062 C1074 0.950 . S
H1063 C1075 0.950 . S
C1064 H1056 0.950 . S
C1064 C1065 1.386 . S
C1064 C1066 1.391 . S
C1065 C1064 1.386 . S
C1065 C1069 1.393 . S
C1066 H1058 0.950 . S
C1066 C1064 1.391 . S
C1066 C1067 1.400 . S
C1067 C1066 1.400 . S
C1067 C1068 1.398 . S
C1067 C1073 1.491 . S
C1068 H1059 0.950 . S
C1068 C1067 1.398 . S
C1068 C1069 1.391 . S
C1069 H1057 0.950 . S
C1069 C1065 1.393 . S
C1069 C1068 1.391 . S
C1070 H1060 0.950 . S
C1070 C1071 1.386 . S
C1070 C1072 1.391 . S
C1071 C1070 1.386 . S
C1071 C1075 1.393 . S
C1072 H1061 0.950 . S
C1072 C1070 1.391 . S
C1072 C1073 1.400 . S
C1073 C1067 1.491 . S
C1073 C1072 1.400 . S
C1073 C1074 1.398 . S
C1074 H1062 0.950 . S
C1074 C1073 1.398 . S
C1074 C1075 1.391 . S
C1075 H1063 0.950 . S
C1075 C1071 1.393 . S
C1075 C1074 1.391 . S
H1076 C1084 0.950 . S
H1077 C1089 0.950 . S
H1078 C1086 0.950 . S
H1079 C1088 0.950 . S
H1080 C1090 0.950 . S
H1081 C1092 0.950 . S
H1082 C1094 0.950 . S
H1083 C1095 0.950 . S
C1084 H1076 0.950 . S
C1084 C1085 1.386 . S
C1084 C1086 1.391 . S
C1085 C1084 1.386 . S
C1085 C1089 1.393 . S
C1086 H1078 0.950 . S
C1086 C1084 1.391 . S
C1086 C1087 1.400 . S
C1087 C1086 1.400 . S
C1087 C1088 1.398 . S
C1087 C1093 1.491 . S
C1088 H1079 0.950 . S
C1088 C1087 1.398 . S
C1088 C1089 1.391 . S
C1089 H1077 0.950 . S
C1089 C1085 1.393 . S
C1089 C1088 1.391 . S
C1090 H1080 0.950 . S
C1090 C1091 1.386 . S
C1090 C1092 1.391 . S
C1091 C1090 1.386 . S
C1091 C1095 1.393 . S
C1092 H1081 0.950 . S
C1092 C1090 1.391 . S
C1092 C1093 1.400 . S
C1093 C1087 1.491 . S
C1093 C1092 1.400 . S
C1093 C1094 1.398 . S
C1094 H1082 0.950 . S
C1094 C1093 1.398 . S
C1094 C1095 1.391 . S
C1095 H1083 0.950 . S
C1095 C1091 1.393 . S
C1095 C1094 1.391 . S
H1096 C1104 0.950 . S
H1097 C1109 0.950 . S
H1098 C1106 0.950 . S
H1099 C1108 0.950 . S
H1100 C1110 0.950 . S
H1101 C1112 0.950 . S
H1102 C1114 0.950 . S
H1103 C1115 0.950 . S
C1104 H1096 0.950 . S
C1104 C1105 1.386 . S
C1104 C1106 1.391 . S
C1105 C1104 1.386 . S
C1105 C1109 1.393 . S
C1106 H1098 0.950 . S
C1106 C1104 1.391 . S
C1106 C1107 1.400 . S
C1107 C1106 1.400 . S
C1107 C1108 1.398 . S
C1107 C1113 1.491 . S
C1108 H1099 0.950 . S
C1108 C1107 1.398 . S
C1108 C1109 1.391 . S
C1109 H1097 0.950 . S
C1109 C1105 1.393 . S
C1109 C1108 1.391 . S
C1110 H1100 0.950 . S
C1110 C1111 1.386 . S
C1110 C1112 1.391 . S
C1111 C1110 1.386 . S
C1111 C1115 1.393 . S
C1112 H1101 0.950 . S
C1112 C1110 1.391 . S
C1112 C1113 1.400 . S
C1113 C1107 1.491 . S
C1113 C1112 1.400 . S
C1113 C1114 1.398 . S
C1114 H1102 0.950 . S
C1114 C1113 1.398 . S
C1114 C1115 1.391 . S
C1115 H1103 0.950 . S
C1115 C1111 1.393 . S
C1115 C1114 1.391 . S
H1116 C1124 0.950 . S
H1117 C1129 0.950 . S
H1118 C1126 0.950 . S
H1119 C1128 0.950 . S
H1120 C1130 0.950 . S
H1121 C1132 0.950 . S
H1122 C1134 0.950 . S
H1123 C1135 0.950 . S
C1124 H1116 0.950 . S
C1124 C1125 1.386 . S
C1124 C1126 1.391 . S
C1125 C1124 1.386 . S
C1125 C1129 1.393 . S
C1126 H1118 0.950 . S
C1126 C1124 1.391 . S
C1126 C1127 1.400 . S
C1127 C1126 1.400 . S
C1127 C1128 1.398 . S
C1127 C1133 1.491 . S
C1128 H1119 0.950 . S
C1128 C1127 1.398 . S
C1128 C1129 1.391 . S
C1129 H1117 0.950 . S
C1129 C1125 1.393 . S
C1129 C1128 1.391 . S
C1130 H1120 0.950 . S
C1130 C1131 1.386 . S
C1130 C1132 1.391 . S
C1131 C1130 1.386 . S
C1131 C1135 1.393 . S
C1132 H1121 0.950 . S
C1132 C1130 1.391 . S
C1132 C1133 1.400 . S
C1133 C1127 1.491 . S
C1133 C1132 1.400 . S
C1133 C1134 1.398 . S
C1134 H1122 0.950 . S
C1134 C1133 1.398 . S
C1134 C1135 1.391 . S
C1135 H1123 0.950 . S
C1135 C1131 1.393 . S
C1135 C1134 1.391 . S
H1136 C1144 0.950 . S
H1137 C1149 0.950 . S
H1138 C1146 0.950 . S
H1139 C1148 0.950 1_554 S
H1140 C1150 0.950 . S
H1141 C1152 0.950 . S
H1142 C1154 0.950 . S
H1143 C1155 0.950 . S
C1144 H1136 0.950 . S
C1144 C1145 1.386 . S
C1144 C1146 1.391 . S
C1145 C1144 1.386 . S
C1145 C1149 1.393 . S
C1146 H1138 0.950 . S
C1146 C1144 1.391 . S
C1146 C1147 1.405 . S
C1147 C1146 1.405 . S
C1147 C1148 1.397 . S
C1147 C1153 1.488 1_556 S
C1148 H1139 0.950 1_556 S
C1148 C1147 1.397 . S
C1148 C1149 1.391 . S
C1149 H1137 0.950 . S
C1149 C1145 1.393 . S
C1149 C1148 1.391 . S
C1150 H1140 0.950 . S
C1150 C1151 1.386 . S
C1150 C1152 1.391 . S
C1151 C1150 1.386 . S
C1151 C1155 1.393 . S
C1152 H1141 0.950 . S
C1152 C1150 1.391 . S
C1152 C1153 1.400 . S
C1153 C1147 1.488 1_554 S
C1153 C1152 1.400 . S
C1153 C1154 1.398 . S
C1154 H1142 0.950 . S
C1154 C1153 1.398 . S
C1154 C1155 1.391 . S
C1155 H1143 0.950 . S
C1155 C1151 1.393 . S
C1155 C1154 1.391 . S
H1156 C1164 0.950 . S
H1157 C1169 0.950 . S
H1158 C1166 0.950 . S
H1159 C1168 0.950 . S
H1160 C1170 0.950 . S
H1161 C1172 0.950 . S
H1162 C1174 0.950 . S
H1163 C1175 0.950 . S
C1164 H1156 0.950 . S
C1164 C1165 1.386 1_554 S
C1164 C1166 1.391 . S
C1165 C1164 1.386 1_556 S
C1165 C1169 1.393 . S
C1166 H1158 0.950 . S
C1166 C1164 1.391 . S
C1166 C1167 1.400 1_554 S
C1167 C1166 1.400 1_556 S
C1167 C1168 1.398 . S
C1167 C1173 1.491 . S
C1168 H1159 0.950 . S
C1168 C1167 1.398 . S
C1168 C1169 1.391 . S
C1169 H1157 0.950 . S
C1169 C1165 1.393 . S
C1169 C1168 1.391 . S
C1170 H1160 0.950 . S
C1170 C1171 1.386 1_556 S
C1170 C1172 1.391 . S
C1171 C1170 1.386 1_554 S
C1171 C1175 1.393 . S
C1172 H1161 0.950 . S
C1172 C1170 1.391 . S
C1172 C1173 1.400 . S
C1173 C1167 1.491 . S
C1173 C1172 1.400 . S
C1173 C1174 1.398 1_556 S
C1174 H1162 0.950 . S
C1174 C1173 1.398 1_554 S
C1174 C1175 1.391 . S
C1175 H1163 0.950 . S
C1175 C1171 1.393 . S
C1175 C1174 1.391 . S
H1176 C1184 0.950 . S
H1177 C1189 0.950 . S
H1178 C1186 0.950 . S
H1179 C1188 0.950 . S
H1180 C1190 0.950 . S
H1181 C1192 0.950 . S
H1182 C1194 0.950 . S
H1183 C1195 0.950 . S
C1184 H1176 0.950 . S
C1184 C1185 1.386 . S
C1184 C1186 1.391 . S
C1185 C1184 1.386 . S
C1185 C1189 1.393 . S
C1186 H1178 0.950 . S
C1186 C1184 1.391 . S
C1186 C1187 1.400 . S
C1187 C1186 1.400 . S
C1187 C1188 1.398 . S
C1187 C1193 1.491 . S
C1188 H1179 0.950 . S
C1188 C1187 1.398 . S
C1188 C1189 1.391 . S
C1189 H1177 0.950 . S
C1189 C1185 1.393 . S
C1189 C1188 1.391 . S
C1190 H1180 0.950 . S
C1190 C1191 1.386 . S
C1190 C1192 1.391 . S
C1191 C1190 1.386 . S
C1191 C1195 1.393 . S
C1192 H1181 0.950 . S
C1192 C1190 1.391 . S
C1192 C1193 1.400 . S
C1193 C1187 1.491 . S
C1193 C1192 1.400 . S
C1193 C1194 1.398 . S
C1194 H1182 0.950 . S
C1194 C1193 1.398 . S
C1194 C1195 1.391 . S
C1195 H1183 0.950 . S
C1195 C1191 1.393 . S
C1195 C1194 1.391 . S
H1196 C1204 0.950 . S
H1197 C1209 0.950 . S
H1198 C1206 0.950 . S
H1199 C1208 0.950 . S
H1200 C1210 0.950 . S
H1201 C1212 0.950 . S
H1202 C1214 0.950 . S
H1203 C1215 0.950 . S
C1204 H1196 0.950 . S
C1204 C1205 1.386 . S
C1204 C1206 1.391 . S
C1205 C1204 1.386 . S
C1205 C1209 1.393 . S
C1206 H1198 0.950 . S
C1206 C1204 1.391 . S
C1206 C1207 1.400 . S
C1207 C1206 1.400 . S
C1207 C1208 1.398 . S
C1207 C1213 1.491 . S
C1208 H1199 0.950 . S
C1208 C1207 1.398 . S
C1208 C1209 1.391 . S
C1209 H1197 0.950 . S
C1209 C1205 1.393 . S
C1209 C1208 1.391 . S
C1210 H1200 0.950 . S
C1210 C1211 1.386 . S
C1210 C1212 1.391 . S
C1211 C1210 1.386 . S
C1211 C1215 1.393 . S
C1212 H1201 0.950 . S
C1212 C1210 1.391 . S
C1212 C1213 1.400 . S
C1213 C1207 1.491 . S
C1213 C1212 1.400 . S
C1213 C1214 1.398 . S
C1214 H1202 0.950 . S
C1214 C1213 1.398 . S
C1214 C1215 1.391 . S
C1215 H1203 0.950 . S
C1215 C1211 1.393 . S
C1215 C1214 1.391 . S
H1216 C1224 0.950 . S
H1217 C1229 0.950 . S
H1218 C1226 0.950 . S
H1219 C1228 0.950 . S
H1220 C1230 0.950 . S
H1221 C1232 0.950 . S
H1222 C1234 0.950 . S
H1223 C1235 0.950 . S
C1224 H1216 0.950 . S
C1224 C1225 1.386 . S
C1224 C1226 1.391 . S
C1225 C1224 1.386 . S
C1225 C1229 1.393 . S
C1226 H1218 0.950 . S
C1226 C1224 1.391 . S
C1226 C1227 1.400 . S
C1227 C1226 1.400 . S
C1227 C1228 1.398 . S
C1227 C1233 1.491 . S
C1228 H1219 0.950 . S
C1228 C1227 1.398 . S
C1228 C1229 1.391 . S
C1229 H1217 0.950 . S
C1229 C1225 1.393 . S
C1229 C1228 1.391 . S
C1230 H1220 0.950 . S
C1230 C1231 1.386 . S
C1230 C1232 1.391 . S
C1231 C1230 1.386 . S
C1231 C1235 1.393 . S
C1232 H1221 0.950 . S
C1232 C1230 1.391 . S
C1232 C1233 1.400 . S
C1233 C1227 1.491 . S
C1233 C1232 1.400 . S
C1233 C1234 1.398 . S
C1234 H1222 0.950 . S
C1234 C1233 1.398 . S
C1234 C1235 1.391 . S
C1235 H1223 0.950 . S
C1235 C1231 1.393 . S
C1235 C1234 1.391 . S
H1236 C1244 0.950 . S
H1237 C1249 0.950 . S
H1238 C1246 0.950 . S
H1239 C1248 0.950 . S
H1240 C1250 0.950 . S
H1241 C1252 0.950 . S
H1242 C1254 0.950 . S
H1243 C1255 0.950 . S
C1244 H1236 0.950 . S
C1244 C1245 1.386 . S
C1244 C1246 1.391 . S
C1245 C1244 1.386 . S
C1245 C1249 1.393 . S
C1246 H1238 0.950 . S
C1246 C1244 1.391 . S
C1246 C1247 1.400 . S
C1247 C1246 1.400 . S
C1247 C1248 1.398 . S
C1247 C1253 1.491 . S
C1248 H1239 0.950 . S
C1248 C1247 1.398 . S
C1248 C1249 1.391 . S
C1249 H1237 0.950 . S
C1249 C1245 1.393 . S
C1249 C1248 1.391 . S
C1250 H1240 0.950 . S
C1250 C1251 1.386 . S
C1250 C1252 1.391 . S
C1251 C1250 1.386 . S
C1251 C1255 1.393 . S
C1252 H1241 0.950 . S
C1252 C1250 1.391 . S
C1252 C1253 1.400 . S
C1253 C1247 1.491 . S
C1253 C1252 1.400 . S
C1253 C1254 1.398 . S
C1254 H1242 0.950 . S
C1254 C1253 1.398 . S
C1254 C1255 1.391 . S
C1255 H1243 0.950 . S
C1255 C1251 1.393 . S
C1255 C1254 1.391 . S
H1256 C1264 0.950 . S
H1257 C1269 0.950 . S
H1258 C1266 0.950 . S
H1259 C1268 0.950 . S
H1260 C1270 0.950 . S
H1261 C1272 0.950 . S
H1262 C1274 0.950 . S
H1263 C1275 0.950 . S
C1264 H1256 0.950 . S
C1264 C1265 1.386 . S
C1264 C1266 1.391 . S
C1265 C1264 1.386 . S
C1265 C1269 1.393 . S
C1266 H1258 0.950 . S
C1266 C1264 1.391 . S
C1266 C1267 1.400 . S
C1267 C1266 1.400 . S
C1267 C1268 1.398 . S
C1267 C1273 1.491 . S
C1268 H1259 0.950 . S
C1268 C1267 1.398 . S
C1268 C1269 1.391 . S
C1269 H1257 0.950 . S
C1269 C1265 1.393 . S
C1269 C1268 1.391 . S
C1270 H1260 0.950 . S
C1270 C1271 1.386 . S
C1270 C1272 1.391 . S
C1271 C1270 1.386 . S
C1271 C1275 1.393 . S
C1272 H1261 0.950 . S
C1272 C1270 1.391 . S
C1272 C1273 1.400 . S
C1273 C1267 1.491 . S
C1273 C1272 1.400 . S
C1273 C1274 1.398 . S
C1274 H1262 0.950 . S
C1274 C1273 1.398 . S
C1274 C1275 1.391 . S
C1275 H1263 0.950 . S
C1275 C1271 1.393 . S
C1275 C1274 1.391 . S
H1276 C1284 0.950 . S
H1277 C1289 0.950 . S
H1278 C1286 0.950 . S
H1279 C1288 0.950 . S
H1280 C1290 0.950 . S
H1281 C1292 0.950 . S
H1282 C1294 0.950 . S
H1283 C1295 0.950 . S
C1284 H1276 0.950 . S
C1284 C1285 1.386 . S
C1284 C1286 1.391 . S
C1285 C1284 1.386 . S
C1285 C1289 1.393 . S
C1286 H1278 0.950 . S
C1286 C1284 1.391 . S
C1286 C1287 1.400 . S
C1287 C1286 1.400 . S
C1287 C1288 1.398 . S
C1287 C1293 1.491 . S
C1288 H1279 0.950 . S
C1288 C1287 1.398 . S
C1288 C1289 1.391 . S
C1289 H1277 0.950 . S
C1289 C1285 1.393 . S
C1289 C1288 1.391 . S
C1290 H1280 0.950 . S
C1290 C1291 1.386 . S
C1290 C1292 1.391 . S
C1291 C1290 1.386 . S
C1291 C1295 1.393 . S
C1292 H1281 0.950 . S
C1292 C1290 1.391 . S
C1292 C1293 1.400 . S
C1293 C1287 1.491 . S
C1293 C1292 1.400 . S
C1293 C1294 1.398 . S
C1294 H1282 0.950 . S
C1294 C1293 1.398 . S
C1294 C1295 1.391 . S
C1295 H1283 0.950 . S
C1295 C1291 1.393 . S
C1295 C1294 1.391 . S
H1296 C1304 0.950 . S
H1297 C1309 0.950 . S
H1298 C1306 0.950 . S
H1299 C1308 0.950 . S
H1300 C1310 0.950 . S
H1301 C1312 0.950 . S
H1302 C1314 0.950 . S
H1303 C1315 0.950 . S
C1304 H1296 0.950 . S
C1304 C1305 1.386 . S
C1304 C1306 1.391 . S
C1305 C1304 1.386 . S
C1305 C1309 1.393 . S
C1306 H1298 0.950 . S
C1306 C1304 1.391 . S
C1306 C1307 1.400 . S
C1307 C1306 1.400 . S
C1307 C1308 1.398 . S
C1307 C1313 1.491 . S
C1308 H1299 0.950 . S
C1308 C1307 1.398 . S
C1308 C1309 1.391 . S
C1309 H1297 0.950 . S
C1309 C1305 1.393 . S
C1309 C1308 1.391 . S
C1310 H1300 0.950 . S
C1310 C1311 1.386 . S
C1310 C1312 1.391 . S
C1311 C1310 1.386 . S
C1311 C1315 1.393 . S
C1312 H1301 0.950 . S
C1312 C1310 1.391 . S
C1312 C1313 1.400 . S
C1313 C1307 1.491 . S
C1313 C1312 1.400 . S
C1313 C1314 1.398 . S
C1314 H1302 0.950 . S
C1314 C1313 1.398 . S
C1314 C1315 1.391 . S
C1315 H1303 0.950 . S
C1315 C1311 1.393 . S
C1315 C1314 1.391 . S
H1316 C1324 0.950 . S
H1317 C1329 0.950 . S
H1318 C1326 0.950 . S
H1319 C1328 0.950 . S
H1320 C1330 0.950 . S
H1321 C1332 0.950 . S
H1322 C1334 0.950 . S
H1323 C1335 0.950 . S
C1324 H1316 0.950 . S
C1324 C1325 1.386 . S
C1324 C1326 1.391 . S
C1325 C1324 1.386 . S
C1325 C1329 1.393 . S
C1326 H1318 0.950 . S
C1326 C1324 1.391 . S
C1326 C1327 1.400 . S
C1327 C1326 1.400 . S
C1327 C1328 1.398 . S
C1327 C1333 1.491 . S
C1328 H1319 0.950 . S
C1328 C1327 1.398 . S
C1328 C1329 1.391 . S
C1329 H1317 0.950 . S
C1329 C1325 1.393 . S
C1329 C1328 1.391 . S
C1330 H1320 0.950 . S
C1330 C1331 1.386 . S
C1330 C1332 1.391 . S
C1331 C1330 1.386 . S
C1331 C1335 1.393 . S
C1332 H1321 0.950 . S
C1332 C1330 1.391 . S
C1332 C1333 1.400 . S
C1333 C1327 1.491 . S
C1333 C1332 1.400 . S
C1333 C1334 1.398 . S
C1334 H1322 0.950 . S
C1334 C1333 1.398 . S
C1334 C1335 1.391 . S
C1335 H1323 0.950 . S
C1335 C1331 1.393 . S
C1335 C1334 1.391 . S
H1336 C1344 0.950 . S
H1337 C1349 0.950 . S
H1338 C1346 0.950 . S
H1339 C1348 0.950 . S
H1340 C1350 0.950 . S
H1341 C1352 0.950 . S
H1342 C1354 0.950 . S
H1343 C1355 0.950 . S
C1344 H1336 0.950 . S
C1344 C1345 1.386 . S
C1344 C1346 1.391 . S
C1345 C1344 1.386 . S
C1345 C1349 1.393 . S
C1346 H1338 0.950 . S
C1346 C1344 1.391 . S
C1346 C1347 1.400 . S
C1347 C1346 1.400 . S
C1347 C1348 1.398 . S
C1347 C1353 1.491 . S
C1348 H1339 0.950 . S
C1348 C1347 1.398 . S
C1348 C1349 1.391 . S
C1349 H1337 0.950 . S
C1349 C1345 1.393 . S
C1349 C1348 1.391 . S
C1350 H1340 0.950 . S
C1350 C1351 1.386 . S
C1350 C1352 1.391 . S
C1351 C1350 1.386 . S
C1351 C1355 1.393 . S
C1352 H1341 0.950 . S
C1352 C1350 1.391 . S
C1352 C1353 1.400 . S
C1353 C1347 1.491 . S
C1353 C1352 1.400 . S
C1353 C1354 1.398 . S
C1354 H1342 0.950 . S
C1354 C1353 1.398 . S
C1354 C1355 1.391 . S
C1355 H1343 0.950 . S
C1355 C1351 1.393 . S
C1355 C1354 1.391 . S
H1356 C1364 0.950 . S
H1357 C1369 0.950 . S
H1358 C1366 0.950 . S
H1359 C1368 0.950 . S
H1360 C1370 0.950 . S
H1361 C1372 0.950 . S
H1362 C1374 0.950 . S
H1363 C1375 0.950 . S
C1364 H1356 0.950 . S
C1364 C1365 1.386 . S
C1364 C1366 1.391 . S
C1365 C1364 1.386 . S
C1365 C1369 1.393 . S
C1366 H1358 0.950 . S
C1366 C1364 1.391 . S
C1366 C1367 1.400 . S
C1367 C1366 1.400 . S
C1367 C1368 1.398 . S
C1367 C1373 1.491 . S
C1368 H1359 0.950 . S
C1368 C1367 1.398 . S
C1368 C1369 1.391 . S
C1369 H1357 0.950 . S
C1369 C1365 1.393 . S
C1369 C1368 1.391 . S
C1370 H1360 0.950 . S
C1370 C1371 1.386 . S
C1370 C1372 1.391 . S
C1371 C1370 1.386 . S
C1371 C1375 1.393 . S
C1372 H1361 0.950 . S
C1372 C1370 1.391 . S
C1372 C1373 1.400 . S
C1373 C1367 1.491 . S
C1373 C1372 1.400 . S
C1373 C1374 1.398 . S
C1374 H1362 0.950 . S
C1374 C1373 1.398 . S
C1374 C1375 1.391 . S
C1375 H1363 0.950 . S
C1375 C1371 1.393 . S
C1375 C1374 1.391 . S
H1376 C1384 0.950 . S
H1377 C1389 0.950 . S
H1378 C1386 0.950 . S
H1379 C1388 0.950 . S
H1380 C1390 0.950 . S
H1381 C1392 0.950 . S
H1382 C1394 0.950 . S
H1383 C1395 0.950 . S
C1384 H1376 0.950 . S
C1384 C1385 1.386 . S
C1384 C1386 1.391 . S
C1385 C1384 1.386 . S
C1385 C1389 1.393 . S
C1386 H1378 0.950 . S
C1386 C1384 1.391 . S
C1386 C1387 1.400 . S
C1387 C1386 1.400 . S
C1387 C1388 1.398 . S
C1387 C1393 1.491 . S
C1388 H1379 0.950 . S
C1388 C1387 1.398 . S
C1388 C1389 1.391 . S
C1389 H1377 0.950 . S
C1389 C1385 1.393 . S
C1389 C1388 1.391 . S
C1390 H1380 0.950 . S
C1390 C1391 1.386 . S
C1390 C1392 1.391 . S
C1391 C1390 1.386 . S
C1391 C1395 1.393 . S
C1392 H1381 0.950 . S
C1392 C1390 1.391 . S
C1392 C1393 1.400 . S
C1393 C1387 1.491 . S
C1393 C1392 1.400 . S
C1393 C1394 1.398 . S
C1394 H1382 0.950 . S
C1394 C1393 1.398 . S
C1394 C1395 1.391 . S
C1395 H1383 0.950 . S
C1395 C1391 1.393 . S
C1395 C1394 1.391 . S
H1396 C1404 0.950 . S
H1397 C1409 0.950 . S
H1398 C1406 0.950 . S
H1399 C1408 0.950 . S
H1400 C1410 0.950 . S
H1401 C1412 0.950 . S
H1402 C1414 0.950 . S
H1403 C1415 0.950 . S
C1404 H1396 0.950 . S
C1404 C1405 1.386 . S
C1404 C1406 1.391 . S
C1405 C1404 1.386 . S
C1405 C1409 1.393 . S
C1406 H1398 0.950 . S
C1406 C1404 1.391 . S
C1406 C1407 1.400 . S
C1407 C1406 1.400 . S
C1407 C1408 1.398 . S
C1407 C1413 1.491 . S
C1408 H1399 0.950 . S
C1408 C1407 1.398 . S
C1408 C1409 1.391 . S
C1409 H1397 0.950 . S
C1409 C1405 1.393 . S
C1409 C1408 1.391 . S
C1410 H1400 0.950 . S
C1410 C1411 1.386 . S
C1410 C1412 1.391 . S
C1411 C1410 1.386 . S
C1411 C1415 1.393 . S
C1412 H1401 0.950 . S
C1412 C1410 1.391 . S
C1412 C1413 1.400 . S
C1413 C1407 1.491 . S
C1413 C1412 1.400 . S
C1413 C1414 1.398 . S
C1414 H1402 0.950 . S
C1414 C1413 1.398 . S
C1414 C1415 1.391 . S
C1415 H1403 0.950 . S
C1415 C1411 1.393 . S
C1415 C1414 1.391 . S
H1416 C1424 0.950 . S
H1417 C1429 0.950 . S
H1418 C1426 0.950 . S
H1419 C1428 0.950 . S
H1420 C1430 0.950 . S
H1421 C1432 0.950 . S
H1422 C1434 0.950 . S
H1423 C1435 0.950 . S
C1424 H1416 0.950 . S
C1424 C1425 1.386 . S
C1424 C1426 1.391 . S
C1425 C1424 1.386 . S
C1425 C1429 1.393 . S
C1426 H1418 0.950 . S
C1426 C1424 1.391 . S
C1426 C1427 1.400 . S
C1427 C1426 1.400 . S
C1427 C1428 1.398 . S
C1427 C1433 1.491 . S
C1428 H1419 0.950 . S
C1428 C1427 1.398 . S
C1428 C1429 1.391 . S
C1429 H1417 0.950 . S
C1429 C1425 1.393 . S
C1429 C1428 1.391 . S
C1430 H1420 0.950 . S
C1430 C1431 1.386 . S
C1430 C1432 1.391 . S
C1431 C1430 1.386 . S
C1431 C1435 1.393 . S
C1432 H1421 0.950 . S
C1432 C1430 1.391 . S
C1432 C1433 1.400 . S
C1433 C1427 1.491 . S
C1433 C1432 1.400 . S
C1433 C1434 1.398 . S
C1434 H1422 0.950 . S
C1434 C1433 1.398 . S
C1434 C1435 1.391 . S
C1435 H1423 0.950 . S
C1435 C1431 1.393 . S
C1435 C1434 1.391 . S
H1436 C1444 0.950 . S
H1437 C1449 0.950 . S
H1438 C1446 0.950 . S
H1439 C1448 0.950 . S
H1440 C1450 0.950 . S
H1441 C1452 0.950 . S
H1442 C1454 0.950 . S
H1443 C1455 0.950 . S
C1444 H1436 0.950 . S
C1444 C1445 1.386 . S
C1444 C1446 1.391 . S
C1445 C1444 1.386 . S
C1445 C1449 1.393 . S
C1446 H1438 0.950 . S
C1446 C1444 1.391 . S
C1446 C1447 1.400 . S
C1447 C1446 1.400 . S
C1447 C1448 1.398 . S
C1447 C1453 1.491 . S
C1448 H1439 0.950 . S
C1448 C1447 1.398 . S
C1448 C1449 1.391 . S
C1449 H1437 0.950 . S
C1449 C1445 1.393 . S
C1449 C1448 1.391 . S
C1450 H1440 0.950 . S
C1450 C1451 1.386 . S
C1450 C1452 1.391 . S
C1451 C1450 1.386 . S
C1451 C1455 1.393 . S
C1452 H1441 0.950 . S
C1452 C1450 1.391 . S
C1452 C1453 1.400 . S
C1453 C1447 1.491 . S
C1453 C1452 1.400 . S
C1453 C1454 1.398 . S
C1454 H1442 0.950 . S
C1454 C1453 1.398 . S
C1454 C1455 1.391 . S
C1455 H1443 0.950 . S
C1455 C1451 1.393 . S
C1455 C1454 1.391 . S
H1456 C1464 0.950 . S
H1457 C1469 0.950 . S
H1458 C1466 0.950 . S
H1459 C1468 0.950 . S
H1460 C1470 0.950 . S
H1461 C1472 0.950 . S
H1462 C1474 0.950 . S
H1463 C1475 0.950 . S
C1464 H1456 0.950 . S
C1464 C1465 1.386 . S
C1464 C1466 1.391 . S
C1465 C1464 1.386 . S
C1465 C1469 1.393 . S
C1466 H1458 0.950 . S
C1466 C1464 1.391 . S
C1466 C1467 1.400 . S
C1467 C1466 1.400 . S
C1467 C1468 1.398 . S
C1467 C1473 1.491 . S
C1468 H1459 0.950 . S
C1468 C1467 1.398 . S
C1468 C1469 1.391 . S
C1469 H1457 0.950 . S
C1469 C1465 1.393 . S
C1469 C1468 1.391 . S
C1470 H1460 0.950 . S
C1470 C1471 1.386 . S
C1470 C1472 1.391 . S
C1471 C1470 1.386 . S
C1471 C1475 1.393 . S
C1472 H1461 0.950 . S
C1472 C1470 1.391 . S
C1472 C1473 1.400 . S
C1473 C1467 1.491 . S
C1473 C1472 1.400 . S
C1473 C1474 1.398 . S
C1474 H1462 0.950 . S
C1474 C1473 1.398 . S
C1474 C1475 1.391 . S
C1475 H1463 0.950 . S
C1475 C1471 1.393 . S
C1475 C1474 1.391 . S
H1476 C1484 0.950 . S
H1477 C1489 0.950 . S
H1478 C1486 0.950 . S
H1479 C1488 0.950 . S
H1480 C1490 0.950 . S
H1481 C1492 0.950 . S
H1482 C1494 0.950 . S
H1483 C1495 0.950 . S
C1484 H1476 0.950 . S
C1484 C1485 1.386 . S
C1484 C1486 1.391 . S
C1485 C1484 1.386 . S
C1485 C1489 1.393 . S
C1486 H1478 0.950 . S
C1486 C1484 1.391 . S
C1486 C1487 1.400 . S
C1487 C1486 1.400 . S
C1487 C1488 1.398 . S
C1487 C1493 1.491 . S
C1488 H1479 0.950 . S
C1488 C1487 1.398 . S
C1488 C1489 1.391 . S
C1489 H1477 0.950 . S
C1489 C1485 1.393 . S
C1489 C1488 1.391 . S
C1490 H1480 0.950 . S
C1490 C1491 1.386 . S
C1490 C1492 1.391 . S
C1491 C1490 1.386 . S
C1491 C1495 1.393 . S
C1492 H1481 0.950 . S
C1492 C1490 1.391 . S
C1492 C1493 1.400 . S
C1493 C1487 1.491 . S
C1493 C1492 1.400 . S
C1493 C1494 1.398 . S
C1494 H1482 0.950 . S
C1494 C1493 1.398 . S
C1494 C1495 1.391 . S
C1495 H1483 0.950 . S
C1495 C1491 1.393 . S
C1495 C1494 1.391 . S
H1496 C1504 0.950 . S
H1497 C1509 0.950 . S
H1498 C1506 0.950 . S
H1499 C1508 0.950 . S
H1500 C1510 0.950 . S
H1501 C1512 0.950 . S
H1502 C1514 0.950 . S
H1503 C1515 0.950 . S
C1504 H1496 0.950 . S
C1504 C1505 1.386 . S
C1504 C1506 1.391 . S
C1505 C1504 1.386 . S
C1505 C1509 1.393 . S
C1506 H1498 0.950 . S
C1506 C1504 1.391 . S
C1506 C1507 1.400 . S
C1507 C1506 1.400 . S
C1507 C1508 1.398 . S
C1507 C1513 1.491 . S
C1508 H1499 0.950 . S
C1508 C1507 1.398 . S
C1508 C1509 1.391 . S
C1509 H1497 0.950 . S
C1509 C1505 1.393 . S
C1509 C1508 1.391 . S
C1510 H1500 0.950 . S
C1510 C1511 1.386 . S
C1510 C1512 1.391 . S
C1511 C1510 1.386 . S
C1511 C1515 1.393 . S
C1512 H1501 0.950 . S
C1512 C1510 1.391 . S
C1512 C1513 1.400 . S
C1513 C1507 1.491 . S
C1513 C1512 1.400 . S
C1513 C1514 1.398 . S
C1514 H1502 0.950 . S
C1514 C1513 1.398 . S
C1514 C1515 1.391 . S
C1515 H1503 0.950 . S
C1515 C1511 1.393 . S
C1515 C1514 1.391 . S
H1516 C1524 0.950 . S
H1517 C1529 0.950 . S
H1518 C1526 0.950 . S
H1519 C1528 0.950 . S
H1520 C1530 0.950 . S
H1521 C1532 0.950 . S
H1522 C1534 0.950 . S
H1523 C1535 0.950 . S
C1524 H1516 0.950 . S
C1524 C1525 1.386 . S
C1524 C1526 1.391 . S
C1525 C1524 1.386 . S
C1525 C1529 1.393 . S
C1526 H1518 0.950 . S
C1526 C1524 1.391 . S
C1526 C1527 1.400 . S
C1527 C1526 1.400 . S
C1527 C1528 1.398 . S
C1527 C1533 1.491 . S
C1528 H1519 0.950 . S
C1528 C1527 1.398 . S
C1528 C1529 1.391 . S
C1529 H1517 0.950 . S
C1529 C1525 1.393 . S
C1529 C1528 1.391 . S
C1530 H1520 0.950 . S
C1530 C1531 1.386 . S
C1530 C1532 1.391 . S
C1531 C1530 1.386 . S
C1531 C1535 1.393 . S
C1532 H1521 0.950 . S
C1532 C1530 1.391 . S
C1532 C1533 1.400 . S
C1533 C1527 1.491 . S
C1533 C1532 1.400 . S
C1533 C1534 1.398 . S
C1534 H1522 0.950 . S
C1534 C1533 1.398 . S
C1534 C1535 1.391 . S
C1535 H1523 0.950 . S
C1535 C1531 1.393 . S
C1535 C1534 1.391 . S
H1536 C1544 0.950 . S
H1537 C1549 0.950 . S
H1538 C1546 0.950 . S
H1539 C1548 0.950 . S
H1540 C1550 0.950 . S
H1541 C1552 0.950 . S
H1542 C1554 0.950 . S
H1543 C1555 0.950 . S
C1544 H1536 0.950 . S
C1544 C1545 1.386 . S
C1544 C1546 1.391 . S
C1545 C1544 1.386 . S
C1545 C1549 1.393 . S
C1546 H1538 0.950 . S
C1546 C1544 1.391 . S
C1546 C1547 1.400 . S
C1547 C1546 1.400 . S
C1547 C1548 1.398 . S
C1547 C1553 1.491 . S
C1548 H1539 0.950 . S
C1548 C1547 1.398 . S
C1548 C1549 1.391 . S
C1549 H1537 0.950 . S
C1549 C1545 1.393 . S
C1549 C1548 1.391 . S
C1550 H1540 0.950 . S
C1550 C1551 1.386 . S
C1550 C1552 1.391 . S
C1551 C1550 1.386 . S
C1551 C1555 1.393 . S
C1552 H1541 0.950 . S
C1552 C1550 1.391 . S
C1552 C1553 1.400 . S
C1553 C1547 1.491 . S
C1553 C1552 1.400 . S
C1553 C1554 1.398 . S
C1554 H1542 0.950 . S
C1554 C1553 1.398 . S
C1554 C1555 1.391 . S
C1555 H1543 0.950 . S
C1555 C1551 1.393 . S
C1555 C1554 1.391 . S
H1556 C1564 0.950 . S
H1557 C1569 0.950 . S
H1558 C1566 0.950 . S
H1559 C1568 0.950 . S
H1560 C1570 0.950 . S
H1561 C1572 0.950 . S
H1562 C1574 0.950 . S
H1563 C1575 0.950 . S
C1564 H1556 0.950 . S
C1564 C1565 1.386 . S
C1564 C1566 1.391 . S
C1565 C1564 1.386 . S
C1565 C1569 1.393 . S
C1566 H1558 0.950 . S
C1566 C1564 1.391 . S
C1566 C1567 1.400 . S
C1567 C1566 1.400 . S
C1567 C1568 1.398 . S
C1567 C1573 1.491 . S
C1568 H1559 0.950 . S
C1568 C1567 1.398 . S
C1568 C1569 1.391 . S
C1569 H1557 0.950 . S
C1569 C1565 1.393 . S
C1569 C1568 1.391 . S
C1570 H1560 0.950 . S
C1570 C1571 1.386 . S
C1570 C1572 1.391 . S
C1571 C1570 1.386 . S
C1571 C1575 1.393 . S
C1572 H1561 0.950 . S
C1572 C1570 1.391 . S
C1572 C1573 1.400 . S
C1573 C1567 1.491 . S
C1573 C1572 1.400 . S
C1573 C1574 1.398 . S
C1574 H1562 0.950 . S
C1574 C1573 1.398 . S
C1574 C1575 1.391 . S
C1575 H1563 0.950 . S
C1575 C1571 1.393 . S
C1575 C1574 1.391 . S
H1576 C1584 0.950 . S
H1577 C1589 0.950 . S
H1578 C1586 0.950 . S
H1579 C1588 0.950 . S
H1580 C1590 0.950 . S
H1581 C1592 0.950 . S
H1582 C1594 0.950 . S
H1583 C1595 0.950 . S
C1584 H1576 0.950 . S
C1584 C1585 1.386 . S
C1584 C1586 1.391 . S
C1585 C1584 1.386 . S
C1585 C1589 1.393 . S
C1586 H1578 0.950 . S
C1586 C1584 1.391 . S
C1586 C1587 1.400 . S
C1587 C1586 1.400 . S
C1587 C1588 1.398 . S
C1587 C1593 1.491 . S
C1588 H1579 0.950 . S
C1588 C1587 1.398 . S
C1588 C1589 1.391 . S
C1589 H1577 0.950 . S
C1589 C1585 1.393 . S
C1589 C1588 1.391 . S
C1590 H1580 0.950 . S
C1590 C1591 1.386 . S
C1590 C1592 1.391 . S
C1591 C1590 1.386 . S
C1591 C1595 1.393 . S
C1592 H1581 0.950 . S
C1592 C1590 1.391 . S
C1592 C1593 1.400 . S
C1593 C1587 1.491 . S
C1593 C1592 1.400 . S
C1593 C1594 1.398 . S
C1594 H1582 0.950 . S
C1594 C1593 1.398 . S
C1594 C1595 1.391 . S
C1595 H1583 0.950 . S
C1595 C1591 1.393 . S
C1595 C1594 1.391 . S
H1596 C1604 0.950 . S
H1597 C1609 0.950 . S
H1598 C1606 0.950 . S
H1599 C1608 0.950 . S
H1600 C1610 0.950 . S
H1601 C1612 0.950 . S
H1602 C1614 0.950 . S
H1603 C1615 0.950 . S
C1604 H1596 0.950 . S
C1604 C1605 1.386 . S
C1604 C1606 1.391 . S
C1605 C1604 1.386 . S
C1605 C1609 1.393 . S
C1606 H1598 0.950 . S
C1606 C1604 1.391 . S
C1606 C1607 1.400 . S
C1607 C1606 1.400 . S
C1607 C1608 1.398 . S
C1607 C1613 1.491 . S
C1608 H1599 0.950 . S
C1608 C1607 1.398 . S
C1608 C1609 1.391 . S
C1609 H1597 0.950 . S
C1609 C1605 1.393 . S
C1609 C1608 1.391 . S
C1610 H1600 0.950 . S
C1610 C1611 1.386 . S
C1610 C1612 1.391 . S
C1611 C1610 1.386 . S
C1611 C1615 1.393 . S
C1612 H1601 0.950 . S
C1612 C1610 1.391 . S
C1612 C1613 1.400 . S
C1613 C1607 1.491 . S
C1613 C1612 1.400 . S
C1613 C1614 1.398 . S
C1614 H1602 0.950 . S
C1614 C1613 1.398 . S
C1614 C1615 1.391 . S
C1615 H1603 0.950 . S
C1615 C1611 1.393 . S
C1615 C1614 1.391 . S
H1616 C1624 0.950 . S
H1617 C1629 0.950 . S
H1618 C1626 0.950 . S
H1619 C1628 0.950 . S
H1620 C1630 0.950 . S
H1621 C1632 0.950 . S
H1622 C1634 0.950 . S
H1623 C1635 0.950 . S
C1624 H1616 0.950 . S
C1624 C1625 1.386 . S
C1624 C1626 1.391 . S
C1625 C1624 1.386 . S
C1625 C1629 1.393 . S
C1626 H1618 0.950 . S
C1626 C1624 1.391 . S
C1626 C1627 1.400 . S
C1627 C1626 1.400 . S
C1627 C1628 1.398 . S
C1627 C1633 1.491 . S
C1628 H1619 0.950 . S
C1628 C1627 1.398 . S
C1628 C1629 1.391 . S
C1629 H1617 0.950 . S
C1629 C1625 1.393 . S
C1629 C1628 1.391 . S
C1630 H1620 0.950 . S
C1630 C1631 1.386 . S
C1630 C1632 1.391 . S
C1631 C1630 1.386 . S
C1631 C1635 1.393 . S
C1632 H1621 0.950 . S
C1632 C1630 1.391 . S
C1632 C1633 1.400 . S
C1633 C1627 1.491 . S
C1633 C1632 1.400 . S
C1633 C1634 1.398 . S
C1634 H1622 0.950 . S
C1634 C1633 1.398 . S
C1634 C1635 1.391 . S
C1635 H1623 0.950 . S
C1635 C1631 1.393 . S
C1635 C1634 1.391 . S
H1636 C1644 0.950 . S
H1637 C1649 0.950 . S
H1638 C1646 0.950 . S
H1639 C1648 0.950 . S
H1640 C1650 0.950 . S
H1641 C1652 0.950 . S
H1642 C1654 0.950 . S
H1643 C1655 0.950 . S
C1644 H1636 0.950 . S
C1644 C1645 1.386 . S
C1644 C1646 1.391 . S
C1645 C1644 1.386 . S
C1645 C1649 1.393 . S
C1646 H1638 0.950 . S
C1646 C1644 1.391 . S
C1646 C1647 1.400 . S
C1647 C1646 1.400 . S
C1647 C1648 1.398 . S
C1647 C1653 1.491 . S
C1648 H1639 0.950 . S
C1648 C1647 1.398 . S
C1648 C1649 1.391 . S
C1649 H1637 0.950 . S
C1649 C1645 1.393 . S
C1649 C1648 1.391 . S
C1650 H1640 0.950 . S
C1650 C1651 1.386 . S
C1650 C1652 1.391 . S
C1651 C1650 1.386 . S
C1651 C1655 1.393 . S
C1652 H1641 0.950 . S
C1652 C1650 1.391 . S
C1652 C1653 1.400 . S
C1653 C1647 1.491 . S
C1653 C1652 1.400 . S
C1653 C1654 1.398 . S
C1654 H1642 0.950 . S
C1654 C1653 1.398 . S
C1654 C1655 1.391 . S
C1655 H1643 0.950 . S
C1655 C1651 1.393 . S
C1655 C1654 1.391 . S
H1656 C1664 0.950 . S
H1657 C1669 0.950 . S
H1658 C1666 0.950 . S
H1659 C1668 0.950 . S
H1660 C1670 0.950 . S
H1661 C1672 0.950 . S
H1662 C1674 0.950 . S
H1663 C1675 0.950 . S
C1664 H1656 0.950 . S
C1664 C1665 1.386 . S
C1664 C1666 1.391 . S
C1665 C1664 1.386 . S
C1665 C1669 1.393 . S
C1666 H1658 0.950 . S
C1666 C1664 1.391 . S
C1666 C1667 1.400 . S
C1667 C1666 1.400 . S
C1667 C1668 1.398 . S
C1667 C1673 1.491 . S
C1668 H1659 0.950 . S
C1668 C1667 1.398 . S
C1668 C1669 1.391 . S
C1669 H1657 0.950 . S
C1669 C1665 1.393 . S
C1669 C1668 1.391 . S
C1670 H1660 0.950 . S
C1670 C1671 1.386 . S
C1670 C1672 1.391 . S
C1671 C1670 1.386 . S
C1671 C1675 1.393 . S
C1672 H1661 0.950 . S
C1672 C1670 1.391 . S
C1672 C1673 1.400 . S
C1673 C1667 1.491 . S
C1673 C1672 1.400 . S
C1673 C1674 1.398 . S
C1674 H1662 0.950 . S
C1674 C1673 1.398 . S
C1674 C1675 1.391 . S
C1675 H1663 0.950 . S
C1675 C1671 1.393 . S
C1675 C1674 1.391 . S
H1676 C1684 0.950 . S
H1677 C1689 0.950 . S
H1678 C1686 0.950 . S
H1679 C1688 0.950 . S
H1680 C1690 0.950 . S
H1681 C1692 0.950 . S
H1682 C1694 0.950 . S
H1683 C1695 0.950 . S
C1684 H1676 0.950 . S
C1684 C1685 1.386 . S
C1684 C1686 1.391 . S
C1685 C1684 1.386 . S
C1685 C1689 1.393 . S
C1686 H1678 0.950 . S
C1686 C1684 1.391 . S
C1686 C1687 1.400 . S
C1687 C1686 1.400 . S
C1687 C1688 1.398 . S
C1687 C1693 1.491 . S
C1688 H1679 0.950 . S
C1688 C1687 1.398 . S
C1688 C1689 1.391 . S
C1689 H1677 0.950 . S
C1689 C1685 1.393 . S
C1689 C1688 1.391 . S
C1690 H1680 0.950 . S
C1690 C1691 1.386 . S
C1690 C1692 1.391 . S
C1691 C1690 1.386 . S
C1691 C1695 1.393 . S
C1692 H1681 0.950 . S
C1692 C1690 1.391 . S
C1692 C1693 1.400 . S
C1693 C1687 1.491 . S
C1693 C1692 1.400 . S
C1693 C1694 1.398 . S
C1694 H1682 0.950 . S
C1694 C1693 1.398 . S
C1694 C1695 1.391 . S
C1695 H1683 0.950 . S
C1695 C1691 1.393 . S
C1695 C1694 1.391 . S
C425 C91 1.466 . S
C431 C0 1.471 . S
C445 C13 1.577 . S
C451 C52 1.596 . S
C465 C65 1.301 . S
C471 C26 1.306 . S
C485 C78 1.356 . S
C491 C39 1.431 . S
C505 C104 1.458 . S
C511 C286 1.474 . S
C525 C117 1.565 . S
C531 C247 1.589 . S
C545 C377 1.305 . S
C551 C130 1.308 . S
C565 C351 1.317 . S
C571 C143 1.400 . S
C585 C156 1.589 . S
C591 C403 1.581 . S
C605 C169 1.314 . S
C611 C338 1.287 . S
C625 C182 1.356 . S
C631 C273 1.431 . S
C645 C195 1.476 . S
C651 C208 1.457 . S
C665 C221 1.484 . S
C671 C325 1.468 . S
C685 C234 1.292 . S
C691 C260 1.317 . S
C705 C390 1.430 . S
C711 C299 1.358 . S
C725 C364 1.590 . S
C731 C312 1.582 . S
C745 C140 0.595 . S
C751 C10 0.599 . S
C765 C148 0.774 . S
C771 C18 0.694 . S
C785 C114 0.641 . S
C791 C36 0.614 . S
C805 C122 0.705 . S
C811 C44 0.754 . S
C825 C190 0.700 . S
C831 C62 0.675 . S
C845 C75 0.602 . S
C851 C205 0.721 . S
C865 C86 0.635 . S
C871 C166 0.737 . S
C885 C101 0.674 . S
C891 C179 0.662 . S
C905 C164 0.712 . S
C911 C112 0.604 . S
C925 C127 0.788 . S
C931 C177 0.833 . S
C945 C187 0.715 . S
C951 C138 0.630 . S
C965 C153 0.686 . S
C971 C203 0.707 . S
C985 C309 0.793 . S
C991 C213 0.763 . S
C1005 C31 0.770 . S
C1011 C161 0.805 . S
C1025 C47 0.541 . S
C1031 C174 0.638 . S
C1045 C5 0.793 . S
C1051 C192 0.766 . S
C1065 C226 0.645 . S
C1071 C411 0.653 . S
C1085 C252 0.819 . S
C1091 C239 0.728 . S
C1105 C21 0.598 . S
C1111 C200 0.709 . S
C1125 C307 0.650 . S
C1131 C257 0.712 . S
C1145 C270 0.663 . S
C1151 C296 0.625 . S
C1165 C218 0.608 . S
C1171 C244 0.633 . S
C1185 C278 0.722 . S
C1191 C317 0.735 . S
C1205 C320 0.653 . S
C1211 C291 0.645 . S
C1225 C135 0.725 . S
C1231 C57 0.820 . S
C1245 C268 0.834 . S
C1251 C322 0.819 . S
C1265 C99 0.661 . S
C1271 C49 0.762 . S
C1285 C372 0.752 . S
C1291 C333 0.650 . S
C1305 C73 0.841 . S
C1311 C23 0.825 . S
C1325 C216 0.621 . S
C1331 C255 0.767 . S
C1345 C335 0.585 . S
C1351 C348 0.630 . S
C1365 C359 0.681 . S
C1371 C374 0.700 . S
C1385 C304 0.694 . S
C1391 C242 0.611 . S
C1405 C343 0.787 . S
C1411 C369 0.801 . S
C1425 C151 0.537 . S
C1431 C70 0.660 . S
C1445 C96 0.700 . S
C1451 C125 0.603 . S
C1465 C231 0.717 . S
C1471 C387 0.617 . S
C1485 C395 0.691 . S
C1491 C408 0.754 . S
C1505 C413 0.764 . S
C1511 C385 0.840 . S
C1525 C60 0.738 . S
C1531 C8 0.660 . S
C1545 C34 0.630 . S
C1551 C83 0.719 . S
C1565 C400 0.678 . S
C1571 C229 0.677 . S
C1585 C330 0.782 . S
C1591 C361 0.787 . S
C1605 C265 0.709 . S
C1611 C281 0.484 . S
C1625 C88 0.778 . S
C1631 C109 0.742 . S
C1645 C294 0.649 . S
C1651 C283 0.734 . S
C1665 C346 0.620 . S
C1671 C356 0.758 . S
C1685 C398 0.493 . S
C1691 C382 0.691 . S
