# Generated by pormake.
# Topology uoy, (4)-cn, num edge types: 1
# Building blocks:
#     Node 0, Type 0, BuildingBlock: GALJAG_clean_sbu_0, # of connection points: 4
#     Node 1, Type 0, BuildingBlock: GALJAG_clean_sbu_0, # of connection points: 4
#     Node 2, Type 0, BuildingBlock: GALJAG_clean_sbu_0, # of connection points: 4
#     Node 3, Type 0, BuildingBlock: GALJAG_clean_sbu_0, # of connection points: 4
#     Node 4, Type 0, BuildingBlock: GALJAG_clean_sbu_0, # of connection points: 4
#     Node 5, Type 0, BuildingBlock: GALJAG_clean_sbu_0, # of connection points: 4
#     Node 6, Type 0, BuildingBlock: GALJAG_clean_sbu_0, # of connection points: 4
#     Node 7, Type 0, BuildingBlock: GALJAG_clean_sbu_0, # of connection points: 4
#     Node 8, Type 0, BuildingBlock: GALJAG_clean_sbu_0, # of connection points: 4
#     Node 9, Type 0, BuildingBlock: GALJAG_clean_sbu_0, # of connection points: 4
#     Node 10, Type 0, BuildingBlock: GALJAG_clean_sbu_0, # of connection points: 4
#     Node 11, Type 0, BuildingBlock: GALJAG_clean_sbu_0, # of connection points: 4
#     Node 12, Type 0, BuildingBlock: GALJAG_clean_sbu_0, # of connection points: 4
#     Node 13, Type 0, BuildingBlock: GALJAG_clean_sbu_0, # of connection points: 4
#     Node 14, Type 0, BuildingBlock: GALJAG_clean_sbu_0, # of connection points: 4
#     Node 15, Type 0, BuildingBlock: GALJAG_clean_sbu_0, # of connection points: 4
#     Edge 16, Type (0, 0), BuildingBlock: UVAHIK_clean_linker_0, # of connection points: 2
#     Edge 17, Type (0, 0), BuildingBlock: UVAHIK_clean_linker_0, # of connection points: 2
#     Edge 18, Type (0, 0), BuildingBlock: UVAHIK_clean_linker_0, # of connection points: 2
#     Edge 19, Type (0, 0), BuildingBlock: UVAHIK_clean_linker_0, # of connection points: 2
#     Edge 20, Type (0, 0), BuildingBlock: UVAHIK_clean_linker_0, # of connection points: 2
#     Edge 21, Type (0, 0), BuildingBlock: UVAHIK_clean_linker_0, # of connection points: 2
#     Edge 22, Type (0, 0), BuildingBlock: UVAHIK_clean_linker_0, # of connection points: 2
#     Edge 23, Type (0, 0), BuildingBlock: UVAHIK_clean_linker_0, # of connection points: 2
#     Edge 24, Type (0, 0), BuildingBlock: UVAHIK_clean_linker_0, # of connection points: 2
#     Edge 25, Type (0, 0), BuildingBlock: UVAHIK_clean_linker_0, # of connection points: 2
#     Edge 26, Type (0, 0), BuildingBlock: UVAHIK_clean_linker_0, # of connection points: 2
#     Edge 27, Type (0, 0), BuildingBlock: UVAHIK_clean_linker_0, # of connection points: 2
#     Edge 28, Type (0, 0), BuildingBlock: UVAHIK_clean_linker_0, # of connection points: 2
#     Edge 29, Type (0, 0), BuildingBlock: UVAHIK_clean_linker_0, # of connection points: 2
#     Edge 30, Type (0, 0), BuildingBlock: UVAHIK_clean_linker_0, # of connection points: 2
#     Edge 31, Type (0, 0), BuildingBlock: UVAHIK_clean_linker_0, # of connection points: 2
#     Edge 32, Type (0, 0), BuildingBlock: UVAHIK_clean_linker_0, # of connection points: 2
#     Edge 33, Type (0, 0), BuildingBlock: UVAHIK_clean_linker_0, # of connection points: 2
#     Edge 34, Type (0, 0), BuildingBlock: UVAHIK_clean_linker_0, # of connection points: 2
#     Edge 35, Type (0, 0), BuildingBlock: UVAHIK_clean_linker_0, # of connection points: 2
#     Edge 36, Type (0, 0), BuildingBlock: UVAHIK_clean_linker_0, # of connection points: 2
#     Edge 37, Type (0, 0), BuildingBlock: UVAHIK_clean_linker_0, # of connection points: 2
#     Edge 38, Type (0, 0), BuildingBlock: UVAHIK_clean_linker_0, # of connection points: 2
#     Edge 39, Type (0, 0), BuildingBlock: UVAHIK_clean_linker_0, # of connection points: 2
#     Edge 40, Type (0, 0), BuildingBlock: UVAHIK_clean_linker_0, # of connection points: 2
#     Edge 41, Type (0, 0), BuildingBlock: UVAHIK_clean_linker_0, # of connection points: 2
#     Edge 42, Type (0, 0), BuildingBlock: UVAHIK_clean_linker_0, # of connection points: 2
#     Edge 43, Type (0, 0), BuildingBlock: UVAHIK_clean_linker_0, # of connection points: 2
#     Edge 44, Type (0, 0), BuildingBlock: UVAHIK_clean_linker_0, # of connection points: 2
#     Edge 45, Type (0, 0), BuildingBlock: UVAHIK_clean_linker_0, # of connection points: 2
#     Edge 46, Type (0, 0), BuildingBlock: UVAHIK_clean_linker_0, # of connection points: 2
#     Edge 47, Type (0, 0), BuildingBlock: UVAHIK_clean_linker_0, # of connection points: 2
# Relax obj value: 0.037
# Max RMSD: 0.056
# Mean RMSD: 0.056
data_MOF--net-uoy--node1-GALJAG_clean_sbu_0--edge1-UVAHIK_clean_linker_0
_symmetry_space_group_name_H-M    P1
_symmetry_Int_Tables_number       1
_symmetry_cell_setting            triclinic
loop_
_symmetry_equiv_pos_as_xyz
'x, y, z'
_cell_length_a     35.755744
_cell_length_b     35.752116
_cell_length_c     143.04656
_cell_angle_alpha  89.995667
_cell_angle_beta   90.013956
_cell_angle_gamma 89.995728
loop_
_atom_site_label
_atom_site_type_symbol
_atom_site_fract_x
_atom_site_fract_y
_atom_site_fract_z
_atom_type_partial_charge
In0 In 0.24805 0.11504 0.18253 0.0
O1 O 0.24184 0.16777 0.17361 0.0
O2 O 0.25154 0.11614 0.16666 0.0
C3 C 0.24885 0.14498 0.19985 0.0
C4 C 0.18041 0.08193 0.18201 0.0
C5 C 0.31582 0.08162 0.18245 0.0
O6 O 0.25802 0.16349 0.19269 0.0
O7 O 0.23902 0.11174 0.19825 0.0
O8 O 0.28573 0.0632 0.18201 0.0
O9 O 0.31157 0.11656 0.18292 0.0
C10 C 0.2462 0.15088 0.16594 0.0
O11 O 0.21052 0.0634 0.18214 0.0
O12 O 0.18456 0.117 0.18213 0.0
In13 In 0.87888 0.7473 0.43232 0.0
O14 O 0.93042 0.70959 0.4321 0.0
O15 O 0.87686 0.68371 0.43248 0.0
C16 C 0.91284 0.81488 0.43203 0.0
C17 C 0.8439 0.74411 0.41562 0.0
C18 C 0.84675 0.75032 0.44939 0.0
O19 O 0.93106 0.78464 0.43227 0.0
O20 O 0.87784 0.81089 0.43191 0.0
O21 O 0.82908 0.75784 0.44199 0.0
O22 O 0.88038 0.74091 0.44817 0.0
C23 C 0.9119 0.6795 0.43228 0.0
O24 O 0.82659 0.7412 0.42327 0.0
O25 O 0.87875 0.74858 0.4164 0.0
In26 In 0.24695 0.37899 0.68193 0.0
O27 O 0.24745 0.32487 0.6734 0.0
O28 O 0.25181 0.37658 0.66613 0.0
C29 C 0.24093 0.35315 0.69958 0.0
C30 C 0.31532 0.41063 0.6823 0.0
C31 C 0.17994 0.41288 0.68011 0.0
O32 O 0.24335 0.33142 0.69265 0.0
O33 O 0.24193 0.38747 0.69758 0.0
O34 O 0.21022 0.43097 0.68053 0.0
O35 O 0.18356 0.37783 0.68055 0.0
C36 C 0.25049 0.3414 0.66563 0.0
O37 O 0.28573 0.42952 0.68135 0.0
O38 O 0.31038 0.37583 0.68308 0.0
In39 In 0.61506 0.74858 0.93198 0.0
O40 O 0.56369 0.78637 0.93158 0.0
O41 O 0.61716 0.81207 0.93268 0.0
C42 C 0.58317 0.6806 0.93028 0.0
C43 C 0.65282 0.75205 0.91571 0.0
C44 C 0.64034 0.74396 0.94971 0.0
O45 O 0.56428 0.71045 0.93023 0.0
O46 O 0.61798 0.68516 0.93115 0.0
O47 O 0.6623 0.7458 0.9428 0.0
O48 O 0.60608 0.74483 0.94763 0.0
C49 C 0.58219 0.81635 0.93218 0.0
O50 O 0.66929 0.75093 0.92353 0.0
O51 O 0.61761 0.75153 0.91616 0.0
In52 In 0.24716 0.38014 0.06116 0.0
O53 O 0.2459 0.3254 0.06944 0.0
O54 O 0.2428 0.37664 0.07696 0.0
C55 C 0.2516 0.35583 0.04334 0.0
C56 C 0.17935 0.41299 0.06101 0.0
C57 C 0.3151 0.4121 0.06301 0.0
O58 O 0.24926 0.3335 0.05016 0.0
O59 O 0.2514 0.38996 0.04554 0.0
O60 O 0.28524 0.43097 0.06298 0.0
O61 O 0.31058 0.37728 0.06216 0.0
C62 C 0.24346 0.3414 0.0773 0.0
O63 O 0.2093 0.43143 0.06181 0.0
O64 O 0.18368 0.37808 0.06029 0.0
In65 In 0.61645 0.74784 0.31054 0.0
O66 O 0.56462 0.71051 0.31082 0.0
O67 O 0.61808 0.6843 0.31096 0.0
C68 C 0.58342 0.81589 0.31105 0.0
C69 C 0.65412 0.74519 0.32687 0.0
C70 C 0.64522 0.74852 0.29309 0.0
O71 O 0.56498 0.7859 0.31172 0.0
O72 O 0.61818 0.81143 0.31014 0.0
O73 O 0.66437 0.75698 0.3002 0.0
O74 O 0.61183 0.73953 0.2948 0.0
C75 C 0.583 0.6803 0.31099 0.0
O76 O 0.67029 0.74243 0.31906 0.0
O77 O 0.61914 0.7493 0.32643 0.0
In78 In 0.2466 0.11648 0.56022 0.0
O79 O 0.25345 0.16918 0.5691 0.0
O80 O 0.24241 0.11791 0.57609 0.0
C81 C 0.24654 0.14722 0.54299 0.0
C82 C 0.31384 0.08259 0.56088 0.0
C83 C 0.17875 0.08315 0.56026 0.0
O84 O 0.23631 0.1651 0.55015 0.0
O85 O 0.25704 0.11414 0.54454 0.0
O86 O 0.20879 0.06472 0.56082 0.0
O87 O 0.18308 0.11805 0.55967 0.0
C88 C 0.24841 0.15255 0.57678 0.0
O89 O 0.28359 0.06441 0.56037 0.0
O90 O 0.31004 0.11769 0.56106 0.0
In91 In 0.87858 0.74615 0.8105 0.0
O92 O 0.82496 0.74872 0.8192 0.0
O93 O 0.87713 0.74763 0.82634 0.0
C94 C 0.85203 0.74192 0.79288 0.0
C95 C 0.91078 0.81426 0.81041 0.0
C96 C 0.91177 0.67867 0.8119 0.0
O97 O 0.83059 0.74225 0.79989 0.0
O98 O 0.88637 0.74404 0.79479 0.0
O99 O 0.9301 0.70886 0.8119 0.0
O100 O 0.87681 0.68261 0.81122 0.0
C101 C 0.84197 0.74885 0.82694 0.0
O102 O 0.92958 0.7844 0.81079 0.0
O103 O 0.87582 0.8097 0.81006 0.0
In104 In 0.74728 0.61466 0.68171 0.0
O105 O 0.70993 0.56294 0.6814 0.0
O106 O 0.68376 0.61625 0.6823 0.0
C107 C 0.81552 0.58322 0.68009 0.0
C108 C 0.74368 0.65214 0.66539 0.0
C109 C 0.75109 0.64026 0.69942 0.0
O110 O 0.78579 0.56416 0.67997 0.0
O111 O 0.81073 0.61799 0.68097 0.0
O112 O 0.74883 0.6621 0.6925 0.0
O113 O 0.75108 0.60597 0.69737 0.0
C114 C 0.67978 0.58122 0.68189 0.0
O115 O 0.74527 0.66876 0.67317 0.0
O116 O 0.74386 0.61692 0.66588 0.0
In117 In 0.37953 0.24899 0.93213 0.0
O118 O 0.32589 0.24591 0.92343 0.0
O119 O 0.37807 0.24579 0.9163 0.0
C120 C 0.35303 0.25534 0.94971 0.0
C121 C 0.41171 0.18087 0.93259 0.0
C122 C 0.41288 0.31624 0.93037 0.0
O123 O 0.33155 0.25366 0.94271 0.0
O124 O 0.38739 0.25343 0.9478 0.0
O125 O 0.43119 0.28608 0.93077 0.0
O126 O 0.37785 0.31239 0.93082 0.0
C127 C 0.34291 0.24481 0.91569 0.0
O128 O 0.43044 0.21063 0.93178 0.0
O129 O 0.37682 0.18553 0.93319 0.0
In130 In 0.74834 0.8771 0.18267 0.0
O131 O 0.75599 0.8255 0.17347 0.0
O132 O 0.74629 0.87768 0.16677 0.0
C133 C 0.74451 0.84379 0.19959 0.0
C134 C 0.81604 0.91024 0.18263 0.0
C135 C 0.68099 0.91139 0.18243 0.0
O136 O 0.73609 0.827 0.19212 0.0
O137 O 0.75524 0.87709 0.19851 0.0
O138 O 0.71124 0.92941 0.18311 0.0
O139 O 0.68487 0.87644 0.18186 0.0
C140 C 0.75206 0.84307 0.16587 0.0
O141 O 0.78592 0.92872 0.18241 0.0
O142 O 0.81189 0.87519 0.18292 0.0
In143 In 0.11756 0.24758 0.4325 0.0
O144 O 0.06586 0.28511 0.43235 0.0
O145 O 0.11935 0.31116 0.43266 0.0
C146 C 0.08379 0.17989 0.43221 0.0
C147 C 0.1526 0.25108 0.41582 0.0
C148 C 0.14997 0.24479 0.44954 0.0
O149 O 0.0655 0.21008 0.43235 0.0
O150 O 0.11879 0.18396 0.43218 0.0
O151 O 0.16755 0.23732 0.44212 0.0
O152 O 0.11626 0.25398 0.44835 0.0
C153 C 0.08429 0.31526 0.4325 0.0
O154 O 0.16986 0.25388 0.42348 0.0
O155 O 0.11776 0.24648 0.41658 0.0
In156 In 0.74623 0.87865 0.5602 0.0
O157 O 0.7082 0.92979 0.5612 0.0
O158 O 0.68274 0.87616 0.56001 0.0
C159 C 0.8135 0.91312 0.56057 0.0
C160 C 0.74326 0.84216 0.57668 0.0
C161 C 0.74871 0.84868 0.54288 0.0
O162 O 0.78318 0.93111 0.56005 0.0
O163 O 0.80972 0.87811 0.56092 0.0
O164 O 0.75815 0.83052 0.55007 0.0
O165 O 0.73782 0.88161 0.54445 0.0
C166 C 0.67827 0.91107 0.56074 0.0
O167 O 0.74005 0.8255 0.56894 0.0
O168 O 0.74797 0.87703 0.57608 0.0
In169 In 0.11442 0.24637 0.81085 0.0
O170 O 0.06314 0.20856 0.8116 0.0
O171 O 0.11637 0.18292 0.80988 0.0
C172 C 0.08235 0.31429 0.81252 0.0
C173 C 0.15256 0.24248 0.82707 0.0
C174 C 0.13938 0.25119 0.7931 0.0
O175 O 0.06349 0.28444 0.81237 0.0
O176 O 0.11725 0.30978 0.81188 0.0
O177 O 0.16146 0.24948 0.79998 0.0
O178 O 0.10517 0.25013 0.7952 0.0
C179 C 0.08151 0.17861 0.81071 0.0
O180 O 0.16884 0.24357 0.81923 0.0
O181 O 0.11734 0.24331 0.82667 0.0
In182 In 0.74669 0.61594 0.06092 0.0
O183 O 0.74793 0.67061 0.06921 0.0
O184 O 0.75157 0.61939 0.07672 0.0
C185 C 0.74108 0.64132 0.04321 0.0
C186 C 0.81482 0.58369 0.06059 0.0
C187 C 0.67944 0.58264 0.0629 0.0
O188 O 0.74341 0.6632 0.05012 0.0
O189 O 0.7419 0.60705 0.04527 0.0
O190 O 0.70965 0.56438 0.06271 0.0
O191 O 0.68324 0.61758 0.06214 0.0
C192 C 0.75079 0.65463 0.07705 0.0
O193 O 0.78504 0.56498 0.06138 0.0
O194 O 0.81018 0.61857 0.05995 0.0
In195 In 0.37786 0.24809 0.31054 0.0
O196 O 0.32473 0.25495 0.31922 0.0
O197 O 0.37626 0.24853 0.32645 0.0
C198 C 0.3462 0.24312 0.29343 0.0
C199 C 0.41071 0.31599 0.31058 0.0
C200 C 0.41276 0.181 0.31133 0.0
O201 O 0.32875 0.23519 0.30083 0.0
O202 O 0.37941 0.25387 0.29466 0.0
O203 O 0.43045 0.21127 0.3103 0.0
O204 O 0.37782 0.18471 0.31198 0.0
C205 C 0.34132 0.2529 0.32699 0.0
O206 O 0.4292 0.28598 0.31122 0.0
O207 O 0.37578 0.31166 0.3099 0.0
C208 C 0.23801 0.34039 0.09469 0.0
C209 C 0.24197 0.3208 0.08624 0.0
C210 C 0.23722 0.32127 0.1032 0.0
C211 C 0.26592 0.23291 0.11422 0.0
H212 H 0.19606 0.26256 0.13359 0.0
C213 C 0.24903 0.14944 0.14849 0.0
C214 C 0.24502 0.17003 0.15679 0.0
C215 C 0.24789 0.16735 0.13982 0.0
C216 C 0.21602 0.25421 0.12829 0.0
H217 H 0.24794 0.2658 0.08004 0.0
H218 H 0.24643 0.23225 0.09493 0.0
H219 H 0.19499 0.29433 0.11851 0.0
H220 H 0.23676 0.22549 0.16255 0.0
H221 H 0.23523 0.25693 0.1474 0.0
H222 H 0.28718 0.19301 0.12402 0.0
C223 C 0.24426 0.26247 0.09497 0.0
C224 C 0.21536 0.27237 0.11965 0.0
C225 C 0.24492 0.28163 0.08645 0.0
C226 C 0.23983 0.2089 0.15626 0.0
C227 C 0.23873 0.22685 0.14758 0.0
C228 C 0.26663 0.21479 0.12288 0.0
C229 C 0.24046 0.28211 0.10344 0.0
C230 C 0.2404 0.26202 0.11253 0.0
C231 C 0.24277 0.20627 0.13926 0.0
C232 C 0.24176 0.22531 0.13002 0.0
H233 H 0.23574 0.3706 0.09475 0.0
H234 H 0.23475 0.33725 0.1096 0.0
H235 H 0.28594 0.22466 0.10893 0.0
H236 H 0.25293 0.1194 0.14868 0.0
H237 H 0.25058 0.15061 0.13355 0.0
C238 C 0.78582 0.74026 0.40591 0.0
C239 C 0.82495 0.74263 0.40645 0.0
C240 C 0.76793 0.73938 0.39722 0.0
C241 C 0.78262 0.763 0.3723 0.0
H242 H 0.69611 0.69934 0.36853 0.0
C243 C 0.71363 0.7421 0.33608 0.0
C244 C 0.67438 0.74368 0.33586 0.0
C245 C 0.73264 0.74101 0.34462 0.0
C246 C 0.72007 0.71747 0.3695 0.0
H247 H 0.87613 0.7455 0.39836 0.0
H248 H 0.84501 0.74332 0.3832 0.0
H249 H 0.72816 0.69897 0.38358 0.0
H250 H 0.62424 0.74516 0.34438 0.0
H251 H 0.65741 0.74324 0.35927 0.0
H252 H 0.77454 0.78133 0.35819 0.0
C253 C 0.82803 0.74281 0.38947 0.0
C254 C 0.7384 0.71733 0.37813 0.0
C255 C 0.84589 0.74384 0.39815 0.0
C256 C 0.65451 0.74392 0.34433 0.0
C257 C 0.67348 0.7426 0.35286 0.0
C258 C 0.76439 0.76299 0.36366 0.0
C259 C 0.78883 0.7407 0.38889 0.0
C260 C 0.76978 0.74024 0.37965 0.0
C261 C 0.71275 0.74122 0.3531 0.0
C262 C 0.73279 0.74039 0.36218 0.0
H263 H 0.76895 0.73941 0.41219 0.0
H264 H 0.73767 0.73828 0.39704 0.0
H265 H 0.80634 0.78142 0.37327 0.0
H266 H 0.72966 0.74184 0.32966 0.0
H267 H 0.7629 0.73962 0.34459 0.0
C268 C 0.24473 0.15166 0.59422 0.0
C269 C 0.24953 0.17192 0.58589 0.0
C270 C 0.24572 0.16984 0.60286 0.0
C271 C 0.23351 0.26238 0.6137 0.0
H272 H 0.28621 0.21761 0.6346 0.0
C273 C 0.25651 0.34158 0.64825 0.0
C274 C 0.25185 0.32144 0.6566 0.0
C275 C 0.25702 0.3231 0.63966 0.0
C276 C 0.27102 0.23027 0.62886 0.0
H277 H 0.25928 0.22702 0.58005 0.0
H278 H 0.26115 0.25882 0.59516 0.0
H279 H 0.28567 0.18594 0.61949 0.0
H280 H 0.24434 0.26616 0.66253 0.0
H281 H 0.24478 0.2338 0.64748 0.0
H282 H 0.21865 0.30657 0.62305 0.0
C283 C 0.25627 0.22892 0.595 0.0
C284 C 0.27074 0.21215 0.6202 0.0
C285 C 0.25538 0.21071 0.58636 0.0
C286 C 0.24805 0.28239 0.6562 0.0
C287 C 0.2485 0.26386 0.64759 0.0
C288 C 0.23372 0.28045 0.62235 0.0
C289 C 0.25143 0.20868 0.60335 0.0
C290 C 0.252 0.22802 0.61253 0.0
C291 C 0.2528 0.28405 0.63921 0.0
C292 C 0.25251 0.26464 0.63003 0.0
H293 H 0.24011 0.12172 0.59407 0.0
H294 H 0.24144 0.15354 0.60915 0.0
H295 H 0.21831 0.27502 0.60796 0.0
H296 H 0.25971 0.37171 0.64834 0.0
H297 H 0.26101 0.33942 0.63336 0.0
C298 C 0.84327 0.74993 0.84438 0.0
C299 C 0.82254 0.75021 0.83604 0.0
C300 C 0.82519 0.75099 0.85303 0.0
C301 C 0.736 0.77683 0.86422 0.0
H302 H 0.77129 0.71273 0.88425 0.0
C303 C 0.65277 0.75476 0.89828 0.0
C304 C 0.67292 0.75339 0.9067 0.0
C305 C 0.67146 0.75541 0.88972 0.0
C306 C 0.76139 0.73115 0.87877 0.0
H307 H 0.76666 0.7519 0.83018 0.0
H308 H 0.73495 0.75347 0.84531 0.0
H309 H 0.80274 0.71155 0.86913 0.0
H310 H 0.72841 0.75192 0.9128 0.0
H311 H 0.76119 0.75332 0.8978 0.0
H312 H 0.69457 0.79634 0.87385 0.0
C313 C 0.76522 0.75283 0.84516 0.0
C314 C 0.77939 0.73045 0.8701 0.0
C315 C 0.78335 0.75172 0.8365 0.0
C316 C 0.71217 0.75289 0.90641 0.0
C317 C 0.7309 0.75349 0.89783 0.0
C318 C 0.718 0.77754 0.87289 0.0
C319 C 0.78597 0.75238 0.85352 0.0
C320 C 0.76685 0.75323 0.86273 0.0
C321 C 0.71073 0.75468 0.88939 0.0
C322 C 0.73044 0.75462 0.88025 0.0
H323 H 0.87354 0.7489 0.84425 0.0
H324 H 0.84198 0.75113 0.85933 0.0
H325 H 0.72603 0.79515 0.85873 0.0
H326 H 0.62248 0.75508 0.89829 0.0
H327 H 0.6551 0.75581 0.88335 0.0
C328 C 0.73825 0.78347 0.58614 0.0
C329 C 0.74184 0.82255 0.58576 0.0
C330 C 0.73742 0.76502 0.59476 0.0
C331 C 0.71934 0.78022 0.61988 0.0
H332 H 0.77734 0.68944 0.62299 0.0
C333 C 0.74349 0.71127 0.65598 0.0
C334 C 0.74211 0.67204 0.65635 0.0
C335 C 0.74265 0.7298 0.64737 0.0
C336 C 0.76063 0.71451 0.62221 0.0
H337 H 0.74715 0.87302 0.59407 0.0
H338 H 0.74589 0.84083 0.60909 0.0
H339 H 0.77693 0.72115 0.60792 0.0
H340 H 0.73828 0.62146 0.64804 0.0
H341 H 0.73634 0.65372 0.63306 0.0
H342 H 0.70301 0.77355 0.63419 0.0
C343 C 0.74336 0.82444 0.60275 0.0
C344 C 0.7604 0.73267 0.61357 0.0
C345 C 0.74431 0.84285 0.59414 0.0
C346 C 0.73957 0.65173 0.64797 0.0
C347 C 0.73868 0.67021 0.63938 0.0
C348 C 0.71951 0.76201 0.62853 0.0
C349 C 0.74004 0.78531 0.60316 0.0
C350 C 0.73979 0.76575 0.61231 0.0
C351 C 0.7404 0.70945 0.63897 0.0
C352 C 0.74017 0.72894 0.62979 0.0
H353 H 0.73619 0.7671 0.57979 0.0
H354 H 0.73441 0.73488 0.59485 0.0
H355 H 0.70278 0.8054 0.6191 0.0
H356 H 0.74553 0.72764 0.66233 0.0
H357 H 0.74442 0.76004 0.64729 0.0
C358 C 0.28426 0.24183 0.90613 0.0
C359 C 0.32347 0.24283 0.9066 0.0
C360 C 0.26613 0.24041 0.89747 0.0
C361 C 0.28065 0.26156 0.87249 0.0
H362 H 0.1945 0.1973 0.86889 0.0
C363 C 0.21213 0.2405 0.83628 0.0
C364 C 0.17287 0.24073 0.83604 0.0
C365 C 0.23108 0.23944 0.84483 0.0
C366 C 0.21832 0.21565 0.86981 0.0
H367 H 0.3745 0.24277 0.8984 0.0
H368 H 0.34292 0.24002 0.88332 0.0
H369 H 0.22619 0.19817 0.88399 0.0
H370 H 0.12263 0.23986 0.84454 0.0
H371 H 0.15562 0.23838 0.85943 0.0
H372 H 0.27267 0.27921 0.85834 0.0
C373 C 0.32613 0.24081 0.88962 0.0
C374 C 0.23645 0.21615 0.87846 0.0
C375 C 0.34421 0.24217 0.89826 0.0
C376 C 0.15293 0.23962 0.8445 0.0
C377 C 0.17183 0.23853 0.85303 0.0
C378 C 0.26251 0.26107 0.86385 0.0
C379 C 0.28689 0.24003 0.88912 0.0
C380 C 0.26775 0.2392 0.87991 0.0
C381 C 0.21111 0.23854 0.8533 0.0
C382 C 0.23106 0.23821 0.86241 0.0
H383 H 0.26757 0.24236 0.91245 0.0
H384 H 0.23585 0.24024 0.89732 0.0
H385 H 0.30437 0.28003 0.87343 0.0
H386 H 0.22822 0.24123 0.82987 0.0
H387 H 0.26136 0.23904 0.84481 0.0
C388 C 0.75727 0.65578 0.09442 0.0
C389 C 0.75288 0.6753 0.08597 0.0
C390 C 0.75888 0.67503 0.1029 0.0
C391 C 0.73185 0.76375 0.11398 0.0
H392 H 0.80275 0.73348 0.13306 0.0
C393 C 0.75001 0.84582 0.14843 0.0
C394 C 0.75385 0.82468 0.15665 0.0
C395 C 0.75127 0.82846 0.13968 0.0
C396 C 0.78254 0.74203 0.12784 0.0
H397 H 0.74693 0.73026 0.07974 0.0
H398 H 0.74986 0.76401 0.09459 0.0
H399 H 0.80265 0.70184 0.11796 0.0
H400 H 0.7621 0.76885 0.16219 0.0
H401 H 0.76383 0.73841 0.14692 0.0
H402 H 0.71145 0.80367 0.12388 0.0
C403 C 0.75175 0.73377 0.09466 0.0
C404 C 0.78252 0.72393 0.11919 0.0
C405 C 0.75026 0.71449 0.08616 0.0
C406 C 0.75915 0.78586 0.15596 0.0
C407 C 0.76037 0.76848 0.14722 0.0
C408 C 0.73182 0.78181 0.12264 0.0
C409 C 0.75605 0.71422 0.10312 0.0
C410 C 0.75702 0.73443 0.11218 0.0
C411 C 0.75635 0.78958 0.13898 0.0
C412 C 0.75702 0.77101 0.12969 0.0
H413 H 0.7593 0.62555 0.0945 0.0
H414 H 0.7617 0.65913 0.10931 0.0
H415 H 0.71152 0.77213 0.10877 0.0
H416 H 0.74604 0.87583 0.14874 0.0
H417 H 0.74858 0.84558 0.13347 0.0
C418 C 0.15069 0.25202 0.39836 0.0
C419 C 0.17159 0.25292 0.40667 0.0
C420 C 0.16858 0.25351 0.38968 0.0
C421 C 0.25813 0.27983 0.37844 0.0
H422 H 0.22216 0.21656 0.35834 0.0
C423 C 0.34157 0.25482 0.34445 0.0
C424 C 0.32144 0.25496 0.33602 0.0
C425 C 0.32284 0.25608 0.35302 0.0
C426 C 0.23226 0.23471 0.36385 0.0
H427 H 0.22755 0.25608 0.41244 0.0
H428 H 0.2589 0.25801 0.3973 0.0
H429 H 0.19048 0.21562 0.37342 0.0
H430 H 0.26597 0.2568 0.32992 0.0
H431 H 0.23319 0.25895 0.34489 0.0
H432 H 0.30027 0.29847 0.36888 0.0
C433 C 0.22864 0.2568 0.39747 0.0
C434 C 0.2141 0.23421 0.37249 0.0
C435 C 0.21072 0.25545 0.40615 0.0
C436 C 0.28221 0.25659 0.33631 0.0
C437 C 0.26345 0.25763 0.34488 0.0
C438 C 0.2764 0.28018 0.36981 0.0
C439 C 0.20779 0.25578 0.38913 0.0
C440 C 0.22686 0.25671 0.3799 0.0
C441 C 0.28357 0.25729 0.35332 0.0
C442 C 0.26371 0.25756 0.36243 0.0
H443 H 0.12046 0.25026 0.39854 0.0
H444 H 0.15163 0.25324 0.38341 0.0
H445 H 0.26832 0.29797 0.38394 0.0
H446 H 0.37184 0.25356 0.34445 0.0
H447 H 0.33909 0.25538 0.35941 0.0
C448 C 0.27309 0.19187 0.21132 0.0
C449 C 0.25136 0.16009 0.20942 0.0
C450 C 0.27827 0.20396 0.22053 0.0
C451 C 0.27288 0.16814 0.24486 0.0
H452 H 0.28947 0.27228 0.2512 0.0
C453 C 0.29708 0.21732 0.28279 0.0
C454 C 0.3298 0.23848 0.28403 0.0
C455 C 0.28326 0.21044 0.27381 0.0
C456 C 0.28485 0.24311 0.24951 0.0
H457 H 0.21632 0.11718 0.21556 0.0
H458 H 0.22396 0.13907 0.23156 0.0
H459 H 0.27176 0.2555 0.23525 0.0
H460 H 0.37291 0.27027 0.27693 0.0
H461 H 0.34833 0.25875 0.26124 0.0
H462 H 0.28565 0.15595 0.25916 0.0
C463 C 0.23822 0.15398 0.22602 0.0
C464 C 0.27491 0.23341 0.24037 0.0
C465 C 0.23358 0.14156 0.21684 0.0
C466 C 0.34768 0.25377 0.27617 0.0
C467 C 0.33353 0.24737 0.26721 0.0
C468 C 0.28224 0.17791 0.25401 0.0
C469 C 0.26134 0.18483 0.22802 0.0
C470 C 0.2693 0.19571 0.23788 0.0
C471 C 0.30157 0.22511 0.26594 0.0
C472 C 0.2888 0.2154 0.25639 0.0
H473 H 0.28725 0.20658 0.20573 0.0
H474 H 0.29667 0.22749 0.22177 0.0
H475 H 0.26962 0.13877 0.24321 0.0
H476 H 0.28275 0.20519 0.28873 0.0
H477 H 0.25845 0.19334 0.27301 0.0
C478 C 0.84876 0.73977 0.46665 0.0
C479 C 0.83019 0.75426 0.45878 0.0
C480 C 0.83463 0.74591 0.47562 0.0
C481 C 0.78166 0.81432 0.48872 0.0
H482 H 0.77464 0.73753 0.50778 0.0
C483 C 0.73329 0.85111 0.52589 0.0
C484 C 0.75177 0.83345 0.53333 0.0
C485 C 0.73813 0.83843 0.51673 0.0
C486 C 0.77683 0.75941 0.50258 0.0
H487 H 0.78186 0.78573 0.4541 0.0
H488 H 0.75755 0.79713 0.46984 0.0
H489 H 0.79212 0.72041 0.49184 0.0
H490 H 0.78924 0.78831 0.53711 0.0
H491 H 0.79902 0.76703 0.52111 0.0
H492 H 0.76832 0.85366 0.49942 0.0
C493 C 0.78291 0.78087 0.46903 0.0
C494 C 0.78662 0.74951 0.49344 0.0
C495 C 0.79673 0.77423 0.46004 0.0
C496 C 0.77452 0.80233 0.53149 0.0
C497 C 0.77991 0.79001 0.52231 0.0
C498 C 0.77245 0.82432 0.49787 0.0
C499 C 0.80197 0.76713 0.4769 0.0
C500 C 0.78931 0.77693 0.48645 0.0
C501 C 0.76216 0.80823 0.51479 0.0
C502 C 0.7701 0.79705 0.50495 0.0
H503 H 0.87456 0.72419 0.46587 0.0
H504 H 0.85 0.73526 0.48158 0.0
H505 H 0.78411 0.8361 0.48349 0.0
H506 H 0.71525 0.87494 0.52713 0.0
H507 H 0.72324 0.85261 0.51118 0.0
C508 C 0.23359 0.30155 0.71135 0.0
C509 C 0.23552 0.33993 0.70927 0.0
C510 C 0.22599 0.28956 0.72047 0.0
C511 C 0.17919 0.32179 0.74174 0.0
H512 H 0.23136 0.24052 0.75411 0.0
C513 C 0.12568 0.26009 0.77616 0.0
C514 C 0.15211 0.25596 0.78335 0.0
C515 C 0.13715 0.26738 0.76702 0.0
C516 C 0.21667 0.26332 0.75073 0.0
H517 H 0.23227 0.39577 0.71515 0.0
H518 H 0.21902 0.37489 0.731 0.0
H519 H 0.25029 0.2597 0.73833 0.0
H520 H 0.21135 0.25485 0.78656 0.0
H521 H 0.2315 0.26765 0.77051 0.0
H522 H 0.14573 0.32574 0.75407 0.0
C523 C 0.22298 0.35407 0.72559 0.0
C524 C 0.22729 0.27409 0.7417 0.0
C525 C 0.23073 0.36601 0.71651 0.0
C526 C 0.19037 0.25799 0.78116 0.0
C527 C 0.20189 0.26513 0.77197 0.0
C528 C 0.16841 0.31087 0.75069 0.0
C529 C 0.21994 0.31578 0.72764 0.0
C530 C 0.20876 0.3036 0.73715 0.0
C531 C 0.17532 0.27059 0.76486 0.0
C532 C 0.18701 0.28157 0.7553 0.0
H533 H 0.23722 0.28084 0.7059 0.0
H534 H 0.22362 0.25987 0.72185 0.0
H535 H 0.16411 0.34435 0.73837 0.0
H536 H 0.09599 0.25845 0.77761 0.0
H537 H 0.11606 0.2709 0.76165 0.0
C538 C 0.73439 0.69275 0.03139 0.0
C539 C 0.73602 0.6544 0.0335 0.0
C540 C 0.72712 0.70467 0.02224 0.0
C541 C 0.68059 0.67248 0.00094 0.0
H542 H 0.73297 0.75377 0.98865 0.0
C543 C 0.62691 0.73504 0.96665 0.0
C544 C 0.65323 0.73915 0.95944 0.0
C545 C 0.63851 0.72756 0.97577 0.0
C546 C 0.71823 0.73096 0.992 0.0
H547 H 0.73264 0.59849 0.02767 0.0
H548 H 0.71996 0.61925 0.01177 0.0
H549 H 0.75184 0.73434 0.00441 0.0
H550 H 0.71242 0.74009 0.95617 0.0
H551 H 0.7328 0.72696 0.97219 0.0
H552 H 0.64711 0.6688 0.9886 0.0
C553 C 0.72389 0.64011 0.01717 0.0
C554 C 0.72882 0.72005 0.00103 0.0
C555 C 0.73131 0.62825 0.02627 0.0
C556 C 0.69152 0.73696 0.96159 0.0
C557 C 0.70318 0.72963 0.97076 0.0
C558 C 0.66984 0.68354 0.992 0.0
C559 C 0.72113 0.6784 0.01508 0.0
C560 C 0.71018 0.69055 0.00556 0.0
C561 C 0.67671 0.72413 0.97789 0.0
C562 C 0.68849 0.71288 0.98742 0.0
H563 H 0.73798 0.71352 0.03683 0.0
H564 H 0.72495 0.73436 0.02084 0.0
H565 H 0.66542 0.64994 0.0043 0.0
H566 H 0.5972 0.73682 0.96523 0.0
H567 H 0.61751 0.72404 0.98116 0.0
C568 C 0.26041 0.37011 0.02642 0.0
C569 C 0.25605 0.34344 0.03355 0.0
C570 C 0.26739 0.35892 0.01725 0.0
C571 C 0.26236 0.28002 0.00076 0.0
H572 H 0.34394 0.33212 0.98851 0.0
C573 C 0.30116 0.26343 0.96137 0.0
C574 C 0.33956 0.26093 0.95937 0.0
C575 C 0.289 0.27112 0.97048 0.0
C576 C 0.32121 0.31719 0.99185 0.0
H577 H 0.25419 0.28408 0.03661 0.0
H578 H 0.26651 0.26443 0.02049 0.0
H579 H 0.32542 0.35027 0.00424 0.0
H580 H 0.39525 0.26332 0.96537 0.0
H581 H 0.37408 0.27675 0.98118 0.0
H582 H 0.25851 0.24674 0.9883 0.0
C583 C 0.26438 0.29401 0.02203 0.0
C584 C 0.31035 0.32783 0.00082 0.0
C585 C 0.25753 0.30525 0.03125 0.0
C586 C 0.36547 0.26529 0.96667 0.0
C587 C 0.35337 0.27315 0.97573 0.0
C588 C 0.27307 0.26953 0.99171 0.0
C589 C 0.27009 0.3208 0.01498 0.0
C590 C 0.28088 0.30936 0.00538 0.0
C591 C 0.31507 0.2767 0.9777 0.0
C592 C 0.3028 0.28789 0.9872 0.0
H593 H 0.25917 0.39976 0.02796 0.0
H594 H 0.2711 0.38019 0.01193 0.0
H595 H 0.23943 0.26543 0.0041 0.0
H596 H 0.28056 0.26014 0.95588 0.0
H597 H 0.2593 0.27387 0.97181 0.0
C598 C 0.64065 0.73345 0.2761 0.0
C599 C 0.65997 0.75063 0.28348 0.0
C600 C 0.65308 0.73747 0.2669 0.0
C601 C 0.7338 0.77081 0.25249 0.0
H602 H 0.65679 0.78401 0.23368 0.0
C603 C 0.75598 0.84381 0.21681 0.0
C604 C 0.74009 0.82671 0.20891 0.0
C605 C 0.74944 0.82937 0.22574 0.0
C606 C 0.67862 0.77988 0.23883 0.0
H607 H 0.70781 0.78486 0.28709 0.0
H608 H 0.72876 0.79324 0.27102 0.0
H609 H 0.63904 0.76876 0.24963 0.0
H610 H 0.70568 0.78065 0.2041 0.0
H611 H 0.69356 0.75585 0.21977 0.0
H612 H 0.77316 0.78397 0.24165 0.0
C613 C 0.70459 0.77575 0.2723 0.0
C614 C 0.66851 0.77096 0.24799 0.0
C615 C 0.69247 0.77119 0.28153 0.0
C616 C 0.71829 0.79436 0.21008 0.0
C617 C 0.71125 0.78027 0.21902 0.0
C618 C 0.74385 0.78031 0.24334 0.0
C619 C 0.68477 0.75934 0.26485 0.0
C620 C 0.69593 0.76659 0.25497 0.0
C621 C 0.72642 0.79791 0.22694 0.0
C622 C 0.71631 0.78518 0.23645 0.0
H623 H 0.6157 0.71709 0.27742 0.0
H624 H 0.63759 0.72364 0.26139 0.0
H625 H 0.75576 0.76697 0.25761 0.0
H626 H 0.77297 0.86874 0.21611 0.0
H627 H 0.76122 0.84365 0.23173 0.0
C628 C 0.14825 0.25546 0.46679 0.0
C629 C 0.1668 0.24113 0.45891 0.0
C630 C 0.16273 0.24963 0.47574 0.0
C631 C 0.21689 0.18208 0.4888 0.0
H632 H 0.22275 0.259 0.50785 0.0
C633 C 0.26374 0.14547 0.52609 0.0
C634 C 0.24451 0.16282 0.53346 0.0
C635 C 0.2596 0.15833 0.51693 0.0
C636 C 0.22093 0.23709 0.50265 0.0
H637 H 0.21546 0.21031 0.45417 0.0
H638 H 0.24038 0.19946 0.46988 0.0
H639 H 0.20522 0.27586 0.49189 0.0
H640 H 0.20652 0.20771 0.5371 0.0
H641 H 0.19795 0.22928 0.52109 0.0
H642 H 0.23057 0.14293 0.49952 0.0
C643 C 0.21476 0.21535 0.46909 0.0
C644 C 0.2111 0.24684 0.4935 0.0
C645 C 0.20058 0.22166 0.46013 0.0
C646 C 0.22181 0.19391 0.53154 0.0
C647 C 0.21712 0.2064 0.52235 0.0
C648 C 0.22614 0.17222 0.49796 0.0
C649 C 0.19573 0.22891 0.47699 0.0
C650 C 0.20874 0.21936 0.48652 0.0
C651 C 0.23552 0.18841 0.5149 0.0
C652 C 0.22801 0.19953 0.50503 0.0
H653 H 0.12221 0.27066 0.46605 0.0
H654 H 0.14736 0.26012 0.48172 0.0
H655 H 0.21473 0.16026 0.48357 0.0
H656 H 0.28177 0.12167 0.52739 0.0
H657 H 0.27499 0.14433 0.51143 0.0
C658 C 0.76037 0.62718 0.71637 0.0
C659 C 0.75539 0.65335 0.70915 0.0
C660 C 0.7674 0.63904 0.72548 0.0
C661 C 0.76116 0.71821 0.74178 0.0
H662 H 0.84497 0.66894 0.75383 0.0
C663 C 0.80023 0.73387 0.78119 0.0
C664 C 0.83856 0.73741 0.78318 0.0
C665 C 0.78818 0.7268 0.77204 0.0
C666 C 0.82163 0.68311 0.75055 0.0
H667 H 0.75236 0.71247 0.70587 0.0
H668 H 0.76467 0.7333 0.72191 0.0
H669 H 0.82644 0.65014 0.73815 0.0
H670 H 0.89419 0.7378 0.77712 0.0
H671 H 0.8732 0.72539 0.76124 0.0
H672 H 0.75657 0.75125 0.75427 0.0
C673 C 0.76306 0.7036 0.72047 0.0
C674 C 0.81078 0.67209 0.74161 0.0
C675 C 0.7562 0.6917 0.7113 0.0
C676 C 0.86447 0.73495 0.77583 0.0
C677 C 0.85249 0.7277 0.76673 0.0
C678 C 0.77183 0.72904 0.75081 0.0
C679 C 0.76948 0.67733 0.72761 0.0
C680 C 0.78046 0.68947 0.73713 0.0
C681 C 0.81431 0.72289 0.76477 0.0
C682 C 0.80233 0.71168 0.75525 0.0
H683 H 0.75966 0.59743 0.71495 0.0
H684 H 0.7717 0.61818 0.73087 0.0
H685 H 0.73758 0.73196 0.73849 0.0
H686 H 0.77964 0.73573 0.78672 0.0
H687 H 0.75858 0.72304 0.77072 0.0
C688 C 0.11067 0.08628 0.18172 0.0
C689 C 0.14313 0.06415 0.18186 0.0
C690 C 0.07533 0.06965 0.18171 0.0
C691 C 0.02659 0.98099 0.1765 0.0
H692 H 0.94827 0.02336 0.19198 0.0
C693 C 0.88581 0.90599 0.18265 0.0
C694 C 0.8533 0.92806 0.18253 0.0
C695 C 0.92112 0.92269 0.18251 0.0
C696 C 0.96971 0.01145 0.18753 0.0
H697 H 0.16409 0.00726 0.18207 0.0
H698 H 0.10231 0.97815 0.18213 0.0
H699 H 0.01007 0.05214 0.19183 0.0
H700 H 0.83222 0.98489 0.18216 0.0
H701 H 0.89395 0.01411 0.18184 0.0
H702 H 0.98621 0.94024 0.17222 0.0
C703 C 0.10417 0.00837 0.18192 0.0
C704 C 0.00513 0.02793 0.18745 0.0
C705 C 0.13956 0.02503 0.18194 0.0
C706 C 0.8568 0.96718 0.18228 0.0
C707 C 0.89214 0.98389 0.18215 0.0
C708 C 0.99116 0.96449 0.17658 0.0
C709 C 0.07164 0.03051 0.18184 0.0
C710 C 0.03399 0.0129 0.18193 0.0
C711 C 0.92471 0.96183 0.18225 0.0
C712 C 0.96231 0.97952 0.18211 0.0
H713 H 0.11253 0.11652 0.18162 0.0
H714 H 0.05086 0.08749 0.1815 0.0
H715 H 0.04803 0.96906 0.17206 0.0
H716 H 0.884 0.87576 0.18287 0.0
H717 H 0.94564 0.90491 0.18272 0.0
C718 C 0.08839 0.38506 0.43252 0.0
C719 C 0.06639 0.35251 0.43247 0.0
C720 C 0.07163 0.42035 0.43249 0.0
C721 C 0.98321 0.46871 0.4268 0.0
H722 H 0.02421 0.54753 0.44236 0.0
C723 C 0.90763 0.6097 0.43232 0.0
C724 C 0.92971 0.6422 0.43226 0.0
C725 C 0.92433 0.57437 0.43232 0.0
C726 C 0.01268 0.52595 0.43789 0.0
H727 H 0.00958 0.33134 0.43239 0.0
H728 H 0.98023 0.39302 0.43244 0.0
H729 H 0.0531 0.48576 0.44246 0.0
H730 H 0.98656 0.66325 0.43212 0.0
H731 H 0.01578 0.60151 0.43205 0.0
H732 H 0.94275 0.50891 0.42225 0.0
C733 C 0.01047 0.39128 0.43238 0.0
C734 C 0.02923 0.49053 0.43795 0.0
C735 C 0.02726 0.35595 0.4324 0.0
C736 C 0.96883 0.63869 0.43219 0.0
C737 C 0.98555 0.60333 0.4322 0.0
C738 C 0.96664 0.50412 0.42675 0.0
C739 C 0.03247 0.4239 0.43243 0.0
C740 C 0.01471 0.4615 0.4324 0.0
C741 C 0.96348 0.57076 0.43226 0.0
C742 C 0.98119 0.53315 0.43229 0.0
H743 H 0.11864 0.3833 0.43254 0.0
H744 H 0.0894 0.44488 0.4324 0.0
H745 H 0.97168 0.44714 0.42233 0.0
H746 H 0.87739 0.61152 0.4324 0.0
H747 H 0.90655 0.54986 0.43248 0.0
C748 C 0.35687 0.46682 0.68178 0.0
C749 C 0.35284 0.42784 0.68238 0.0
C750 C 0.3924 0.48306 0.68177 0.0
C751 C 0.49099 0.46435 0.68805 0.0
H752 H 0.51086 0.54764 0.67141 0.0
C753 C 0.63943 0.52403 0.68209 0.0
C754 C 0.64266 0.56318 0.68196 0.0
C755 C 0.6042 0.50709 0.68215 0.0
C756 C 0.50563 0.52462 0.67616 0.0
H757 H 0.38272 0.37522 0.68343 0.0
H758 H 0.44478 0.40351 0.68327 0.0
H759 H 0.44907 0.51885 0.67151 0.0
H760 H 0.61167 0.61532 0.6818 0.0
H761 H 0.55021 0.58577 0.68191 0.0
H762 H 0.5477 0.47006 0.69265 0.0
C763 C 0.42052 0.42161 0.68295 0.0
C764 C 0.47022 0.50816 0.67623 0.0
C765 C 0.38498 0.40539 0.68299 0.0
C766 C 0.61005 0.58507 0.68188 0.0
C767 C 0.57486 0.56816 0.68189 0.0
C768 C 0.52646 0.48074 0.68796 0.0
C769 C 0.42465 0.46064 0.68232 0.0
C770 C 0.46243 0.47791 0.6822 0.0
C771 C 0.57154 0.52899 0.68203 0.0
C772 C 0.5341 0.51115 0.68203 0.0
H773 H 0.33258 0.48484 0.68134 0.0
H774 H 0.39458 0.51324 0.68141 0.0
H775 H 0.48577 0.44144 0.69283 0.0
H776 H 0.66411 0.50646 0.68215 0.0
H777 H 0.60251 0.47684 0.68216 0.0
C778 C 0.46823 0.1397 0.93236 0.0
C779 C 0.42917 0.14348 0.93273 0.0
C780 C 0.48469 0.10426 0.93238 0.0
C781 C 0.46588 0.00541 0.9384 0.0
H782 H 0.5505 0.98617 0.92214 0.0
C783 C 0.52531 0.8571 0.93224 0.0
C784 C 0.56443 0.85361 0.93228 0.0
C785 C 0.50862 0.89245 0.93235 0.0
C786 C 0.52712 0.99123 0.92678 0.0
H787 H 0.37667 0.11325 0.93341 0.0
H788 H 0.40535 0.05138 0.93333 0.0
H789 H 0.52173 0.04799 0.92225 0.0
H790 H 0.61679 0.88423 0.93244 0.0
H791 H 0.58764 0.94591 0.93264 0.0
H792 H 0.47118 0.9485 0.94287 0.0
C793 C 0.42332 0.07575 0.93316 0.0
C794 C 0.51066 0.02665 0.92686 0.0
C795 C 0.40688 0.11119 0.93315 0.0
C796 C 0.58655 0.88607 0.9324 0.0
C797 C 0.56987 0.92138 0.93246 0.0
C798 C 0.48227 0.96994 0.93829 0.0
C799 C 0.46242 0.07187 0.93276 0.0
C800 C 0.47989 0.03418 0.93268 0.0
C801 C 0.53073 0.92495 0.93243 0.0
C802 C 0.5131 0.9625 0.93249 0.0
H803 H 0.48611 0.16412 0.93206 0.0
H804 H 0.51491 0.10227 0.9322 0.0
H805 H 0.44258 0.01044 0.94306 0.0
H806 H 0.50757 0.83255 0.93214 0.0
H807 H 0.47838 0.89434 0.93223 0.0
C808 C 0.13859 0.46987 0.06119 0.0
C809 C 0.14209 0.43077 0.06091 0.0
C810 C 0.10326 0.4866 0.06106 0.0
C811 C 0.00449 0.4679 0.05487 0.0
H812 H 0.98491 0.55381 0.07068 0.0
C813 C 0.85601 0.52713 0.0607 0.0
C814 C 0.85222 0.56622 0.0605 0.0
C815 C 0.89146 0.51068 0.06065 0.0
C816 C 0.99007 0.53007 0.06615 0.0
H817 H 0.11147 0.37847 0.06034 0.0
H818 H 0.04985 0.40758 0.06027 0.0
H819 H 0.0467 0.52495 0.07081 0.0
H820 H 0.88246 0.61878 0.06007 0.0
H821 H 0.94436 0.59004 0.05998 0.0
H822 H 0.94771 0.47288 0.05028 0.0
C823 C 0.07433 0.4254 0.06043 0.0
C824 C 0.02548 0.51356 0.06622 0.0
C825 C 0.10964 0.4087 0.06052 0.0
C826 C 0.88452 0.58855 0.06025 0.0
C827 C 0.91996 0.57212 0.06025 0.0
C828 C 0.96905 0.48433 0.05483 0.0
C829 C 0.07071 0.46455 0.06068 0.0
C830 C 0.03312 0.48227 0.06058 0.0
C831 C 0.92381 0.53301 0.06045 0.0
C832 C 0.96146 0.51558 0.06048 0.0
H833 H 0.16314 0.48758 0.06146 0.0
H834 H 0.10149 0.51684 0.06115 0.0
H835 H 0.0096 0.44423 0.05032 0.0
H836 H 0.83158 0.50922 0.0609 0.0
H837 H 0.89355 0.48047 0.0609 0.0
C838 C 0.58696 0.61053 0.31145 0.0
C839 C 0.56501 0.64309 0.31111 0.0
C840 C 0.57016 0.57526 0.31145 0.0
C841 C 0.48063 0.52717 0.31621 0.0
H842 H 0.52472 0.44764 0.30143 0.0
C843 C 0.40636 0.38578 0.31015 0.0
C844 C 0.42843 0.35333 0.31064 0.0
C845 C 0.42298 0.42115 0.31023 0.0
C846 C 0.51229 0.46943 0.30567 0.0
H847 H 0.50827 0.66431 0.31051 0.0
H848 H 0.47887 0.60266 0.3104 0.0
H849 H 0.55359 0.5094 0.30151 0.0
H850 H 0.4852 0.33242 0.31163 0.0
H851 H 0.51428 0.39422 0.31184 0.0
H852 H 0.43926 0.48717 0.32034 0.0
C853 C 0.50907 0.60438 0.31079 0.0
C854 C 0.52884 0.50484 0.30572 0.0
C855 C 0.5259 0.63969 0.3108 0.0
C856 C 0.46748 0.35694 0.31122 0.0
C857 C 0.48413 0.39232 0.31129 0.0
C858 C 0.46405 0.49176 0.31614 0.0
C859 C 0.53102 0.57173 0.31109 0.0
C860 C 0.51324 0.53413 0.311 0.0
C861 C 0.46206 0.42484 0.3108 0.0
C862 C 0.47971 0.46248 0.31088 0.0
H863 H 0.61718 0.61226 0.31173 0.0
H864 H 0.58787 0.55073 0.31183 0.0
H865 H 0.46821 0.54894 0.32046 0.0
H866 H 0.37618 0.38389 0.30968 0.0
H867 H 0.40523 0.44561 0.30974 0.0
C868 C 0.63693 0.96746 0.5618 0.0
C869 C 0.64082 0.92851 0.56098 0.0
C870 C 0.60142 0.98383 0.56197 0.0
C871 C 0.50314 0.96606 0.55535 0.0
H872 H 0.48217 0.04739 0.5725 0.0
C873 C 0.35419 0.02532 0.5606 0.0
C874 C 0.35093 0.06441 0.56115 0.0
C875 C 0.38942 0.00833 0.56074 0.0
C876 C 0.48769 0.02494 0.56761 0.0
H877 H 0.61066 0.87611 0.55975 0.0
H878 H 0.54874 0.90461 0.56012 0.0
H879 H 0.54404 0.01868 0.57241 0.0
H880 H 0.38189 0.11636 0.56231 0.0
H881 H 0.44329 0.08676 0.5625 0.0
H882 H 0.44681 0.97237 0.55054 0.0
C883 C 0.57307 0.92259 0.56052 0.0
C884 C 0.52315 0.00851 0.56755 0.0
C885 C 0.60855 0.90624 0.56036 0.0
C886 C 0.38351 0.08615 0.5619 0.0
C887 C 0.41869 0.06918 0.56206 0.0
C888 C 0.46767 0.98248 0.55541 0.0
C889 C 0.56908 0.96157 0.56131 0.0
C890 C 0.53131 0.97893 0.56141 0.0
C891 C 0.42207 0.03008 0.56147 0.0
C892 C 0.45956 0.01217 0.56152 0.0
H893 H 0.66132 0.98533 0.56227 0.0
H894 H 0.59932 0.01398 0.56247 0.0
H895 H 0.50868 0.9437 0.55043 0.0
H896 H 0.32955 0.00785 0.56004 0.0
H897 H 0.39106 0.97811 0.56038 0.0
C898 C 0.02468 0.13787 0.81122 0.0
C899 C 0.06372 0.14138 0.81064 0.0
C900 C 0.00794 0.10256 0.81114 0.0
C901 C 0.02571 0.00418 0.80451 0.0
H902 H 0.94231 0.98367 0.82106 0.0
C903 C 0.96734 0.85539 0.81025 0.0
C904 C 0.92825 0.85164 0.8104 0.0
C905 C 0.9838 0.89083 0.81024 0.0
C906 C 0.96534 0.9891 0.81633 0.0
H907 H 0.11592 0.11078 0.80959 0.0
H908 H 0.0868 0.04916 0.8096 0.0
H909 H 0.97116 0.04548 0.82113 0.0
H910 H 0.87569 0.88192 0.81064 0.0
H911 H 0.90445 0.94381 0.8106 0.0
H912 H 0.02001 0.94768 0.79977 0.0
C913 C 0.06902 0.07365 0.80996 0.0
C914 C 0.98184 0.02451 0.81636 0.0
C915 C 0.08573 0.10894 0.81001 0.0
C916 C 0.90592 0.88396 0.81054 0.0
C917 C 0.92237 0.91939 0.81057 0.0
C918 C 0.00928 0.96874 0.80451 0.0
C919 C 0.02993 0.07003 0.81051 0.0
C920 C 0.01222 0.03246 0.81045 0.0
C921 C 0.96148 0.9232 0.81041 0.0
C922 C 0.97893 0.96083 0.81042 0.0
H923 H 0.00701 0.16242 0.81168 0.0
H924 H 0.97773 0.10076 0.81146 0.0
H925 H 0.04867 0.00956 0.79976 0.0
H926 H 0.98524 0.83095 0.81016 0.0
H927 H 0.01402 0.89289 0.81021 0.0
C928 C 0.61135 0.90755 0.18155 0.0
C929 C 0.64382 0.92945 0.18233 0.0
C930 C 0.57607 0.92427 0.18148 0.0
C931 C 0.52643 0.0105 0.18829 0.0
H932 H 0.45028 0.97381 0.17129 0.0
C933 C 0.38547 0.08625 0.18308 0.0
C934 C 0.35319 0.06399 0.18242 0.0
C935 C 0.42093 0.06989 0.18305 0.0
C936 C 0.4711 0.98409 0.17615 0.0
H937 H 0.66487 0.98606 0.18362 0.0
H938 H 0.60312 0.01543 0.18342 0.0
H939 H 0.51237 0.94562 0.17117 0.0
H940 H 0.33268 0.00715 0.18122 0.0
H941 H 0.39473 0.97845 0.18123 0.0
H942 H 0.48514 0.04898 0.19327 0.0
C943 C 0.60496 0.98524 0.18297 0.0
C944 C 0.5067 0.96797 0.17608 0.0
C945 C 0.64031 0.96847 0.18303 0.0
C946 C 0.35707 0.02501 0.18172 0.0
C947 C 0.3926 0.00861 0.18167 0.0
C948 C 0.49083 0.02664 0.18836 0.0
C949 C 0.57242 0.96331 0.18219 0.0
C950 C 0.53477 0.98093 0.18216 0.0
C951 C 0.42494 0.03088 0.18234 0.0
C952 C 0.46274 0.0136 0.18229 0.0
H953 H 0.61315 0.87737 0.18103 0.0
H954 H 0.5516 0.90653 0.181 0.0
H955 H 0.54723 0.02076 0.19316 0.0
H956 H 0.38338 0.1164 0.1836 0.0
H957 H 0.44525 0.08787 0.18344 0.0
C958 C 0.90868 0.88462 0.43177 0.0
C959 C 0.93077 0.85213 0.43195 0.0
C960 C 0.92531 0.91996 0.43174 0.0
C961 C 0.01318 0.9689 0.43758 0.0
H962 H 0.97228 0.04719 0.42183 0.0
C963 C 0.08812 0.11014 0.43216 0.0
C964 C 0.06595 0.14259 0.43213 0.0
C965 C 0.07155 0.07477 0.43213 0.0
C966 C 0.98377 0.02575 0.42634 0.0
H967 H 0.98762 0.83112 0.43221 0.0
H968 H 0.01679 0.89294 0.43207 0.0
H969 H 0.94391 0.98517 0.4217 0.0
H970 H 0.00906 0.16349 0.43205 0.0
H971 H 0.98001 0.10159 0.43205 0.0
H972 H 0.05307 0.00949 0.44221 0.0
C973 C 0.98656 0.89108 0.43206 0.0
C974 C 0.96753 0.9902 0.42627 0.0
C975 C 0.96988 0.85568 0.43209 0.0
C976 C 0.02685 0.13897 0.43205 0.0
C977 C 0.01024 0.10353 0.432 0.0
C978 C 0.02944 0.00445 0.43765 0.0
C979 C 0.96445 0.92364 0.43188 0.0
C980 C 0.98202 0.96134 0.43189 0.0
C981 C 0.03243 0.07102 0.43206 0.0
C982 C 0.01493 0.0333 0.43203 0.0
H983 H 0.87844 0.88279 0.43169 0.0
H984 H 0.90745 0.94442 0.43173 0.0
H985 H 0.02466 0.94749 0.4421 0.0
H986 H 0.11836 0.11203 0.43219 0.0
H987 H 0.08945 0.05033 0.43204 0.0
C988 C 0.11035 0.40949 0.67877 0.0
C989 C 0.14303 0.43116 0.67935 0.0
C990 C 0.0753 0.42663 0.67832 0.0
C991 C 0.02699 0.51442 0.68415 0.0
H992 H 0.94975 0.47585 0.66774 0.0
C993 C 0.88514 0.58896 0.6796 0.0
C994 C 0.85308 0.56626 0.67941 0.0
C995 C 0.92076 0.57301 0.67918 0.0
C996 C 0.97091 0.48672 0.67242 0.0
H997 H 0.16476 0.48774 0.67979 0.0
H998 H 0.10346 0.51775 0.67895 0.0
H999 H 0.01169 0.44721 0.66768 0.0
H1000 H 0.83309 0.50913 0.67855 0.0
H1001 H 0.89534 0.48118 0.67791 0.0
H1002 H 0.98619 0.5537 0.68897 0.0
C1003 C 0.10493 0.48749 0.67894 0.0
C1004 C 0.0064 0.47033 0.67238 0.0
C1005 C 0.14002 0.47033 0.67937 0.0
C1006 C 0.85731 0.52732 0.67869 0.0
C1007 C 0.89296 0.51135 0.67827 0.0
C1008 C 0.99151 0.53077 0.6842 0.0
C1009 C 0.07217 0.46581 0.67845 0.0
C1010 C 0.03479 0.48391 0.67828 0.0
C1011 C 0.9251 0.53401 0.67856 0.0
C1012 C 0.96301 0.51702 0.67836 0.0
H1013 H 0.1118 0.37923 0.67876 0.0
H1014 H 0.05059 0.40914 0.67806 0.0
H1015 H 0.04808 0.52515 0.68888 0.0
H1016 H 0.88275 0.61909 0.68011 0.0
H1017 H 0.94491 0.59128 0.67929 0.0
C1018 C 0.40909 0.38585 0.92912 0.0
C1019 C 0.43093 0.35325 0.92962 0.0
C1020 C 0.42606 0.42098 0.92866 0.0
C1021 C 0.51388 0.46947 0.93436 0.0
H1022 H 0.47474 0.54682 0.91805 0.0
C1023 C 0.58858 0.611 0.92967 0.0
C1024 C 0.56602 0.64315 0.92957 0.0
C1025 C 0.57248 0.57546 0.92925 0.0
C1026 C 0.48576 0.52562 0.92271 0.0
H1027 H 0.48762 0.33176 0.92992 0.0
H1028 H 0.51731 0.39318 0.92907 0.0
H1029 H 0.44607 0.48487 0.91803 0.0
H1030 H 0.50895 0.66342 0.92886 0.0
H1031 H 0.48071 0.60128 0.92823 0.0
H1032 H 0.55335 0.51021 0.9391 0.0
C1033 C 0.48706 0.39159 0.92913 0.0
C1034 C 0.46937 0.49014 0.92269 0.0
C1035 C 0.47007 0.35643 0.92957 0.0
C1036 C 0.52703 0.63911 0.92894 0.0
C1037 C 0.5109 0.60353 0.92852 0.0
C1038 C 0.53024 0.50493 0.93438 0.0
C1039 C 0.46523 0.42427 0.92871 0.0
C1040 C 0.48318 0.4617 0.92854 0.0
C1041 C 0.53344 0.5713 0.92873 0.0
C1042 C 0.51632 0.53345 0.92858 0.0
H1043 H 0.37884 0.38427 0.92917 0.0
H1044 H 0.40846 0.44563 0.92846 0.0
H1045 H 0.5248 0.44835 0.93905 0.0
H1046 H 0.61874 0.61324 0.93012 0.0
H1047 H 0.59065 0.55122 0.92929 0.0
C1048 C 0.60977 0.58642 0.06397 0.0
C1049 C 0.64243 0.5646 0.06372 0.0
C1050 C 0.57464 0.56945 0.06446 0.0
C1051 C 0.52655 0.48088 0.05929 0.0
H1052 H 0.44829 0.5219 0.07501 0.0
C1053 C 0.38467 0.40673 0.06391 0.0
C1054 C 0.35252 0.42931 0.06378 0.0
C1055 C 0.42019 0.42287 0.06436 0.0
C1056 C 0.46974 0.51033 0.07052 0.0
H1057 H 0.66401 0.50794 0.06394 0.0
H1058 H 0.6026 0.47824 0.06486 0.0
H1059 H 0.51021 0.55062 0.07503 0.0
H1060 H 0.33226 0.48643 0.06411 0.0
H1061 H 0.39436 0.51471 0.06479 0.0
H1062 H 0.48609 0.44085 0.0547 0.0
C1063 C 0.60415 0.50848 0.06456 0.0
C1064 C 0.50521 0.52676 0.07054 0.0
C1065 C 0.6393 0.52547 0.06409 0.0
C1066 C 0.35656 0.46834 0.06422 0.0
C1067 C 0.39212 0.4845 0.06467 0.0
C1068 C 0.49109 0.4645 0.05926 0.0
C1069 C 0.57141 0.53028 0.06471 0.0
C1070 C 0.53398 0.51228 0.0649 0.0
C1071 C 0.42436 0.46195 0.06468 0.0
C1072 C 0.46223 0.47908 0.06485 0.0
H1073 H 0.6113 0.61666 0.06368 0.0
H1074 H 0.54996 0.58702 0.06445 0.0
H1075 H 0.54792 0.46943 0.05475 0.0
H1076 H 0.38243 0.37654 0.06362 0.0
H1077 H 0.44441 0.40468 0.06451 0.0
C1078 C 0.40963 0.11149 0.31291 0.0
C1079 C 0.43114 0.14399 0.31166 0.0
C1080 C 0.42663 0.07633 0.3131 0.0
C1081 C 0.51193 0.02656 0.30567 0.0
H1082 H 0.47832 0.95142 0.32333 0.0
C1083 C 0.58824 0.88555 0.31034 0.0
C1084 C 0.56601 0.85338 0.31131 0.0
C1085 C 0.57207 0.9211 0.31053 0.0
C1086 C 0.48774 0.97196 0.31829 0.0
H1087 H 0.48737 0.16522 0.3097 0.0
H1088 H 0.51721 0.10371 0.31009 0.0
H1089 H 0.45008 0.01351 0.32352 0.0
H1090 H 0.5094 0.83318 0.31326 0.0
H1091 H 0.48101 0.89536 0.31353 0.0
H1092 H 0.54953 0.98499 0.30043 0.0
C1093 C 0.48711 0.10541 0.31082 0.0
C1094 C 0.47159 0.00756 0.3184 0.0
C1095 C 0.47007 0.14064 0.31065 0.0
C1096 C 0.52724 0.85748 0.3125 0.0
C1097 C 0.51104 0.89309 0.31272 0.0
C1098 C 0.5281 0.99097 0.30556 0.0
C1099 C 0.46556 0.07283 0.31203 0.0
C1100 C 0.48341 0.03526 0.31207 0.0
C1101 C 0.53327 0.92532 0.31171 0.0
C1102 C 0.51613 0.96321 0.31186 0.0
H1103 H 0.37954 0.11315 0.31369 0.0
H1104 H 0.40915 0.05181 0.31391 0.0
H1105 H 0.52128 0.04705 0.30061 0.0
H1106 H 0.61824 0.88331 0.30943 0.0
H1107 H 0.59005 0.94533 0.30986 0.0
C1108 C 0.88313 0.90941 0.56152 0.0
C1109 C 0.85062 0.93126 0.56074 0.0
C1110 C 0.91838 0.9262 0.56162 0.0
C1111 C 0.96788 0.01229 0.55473 0.0
H1112 H 0.04416 0.97603 0.57175 0.0
C1113 C 0.10911 0.08789 0.5596 0.0
C1114 C 0.14134 0.0656 0.56033 0.0
C1115 C 0.07361 0.07162 0.5597 0.0
C1116 C 0.02331 0.98619 0.56688 0.0
H1117 H 0.82948 0.98785 0.55947 0.0
H1118 H 0.89119 0.01731 0.55969 0.0
H1119 H 0.98204 0.94789 0.57196 0.0
H1120 H 0.16172 0.00879 0.56172 0.0
H1121 H 0.09962 0.98023 0.56183 0.0
H1122 H 0.00917 0.05053 0.54963 0.0
C1123 C 0.88939 0.98713 0.56014 0.0
C1124 C 0.98769 0.9701 0.56701 0.0
C1125 C 0.85406 0.9703 0.56007 0.0
C1126 C 0.13737 0.02667 0.56116 0.0
C1127 C 0.1018 0.01036 0.56128 0.0
C1128 C 0.00351 0.02837 0.5546 0.0
C1129 C 0.92196 0.96524 0.56092 0.0
C1130 C 0.95959 0.9829 0.56091 0.0
C1131 C 0.06951 0.03267 0.56054 0.0
C1132 C 0.03166 0.01548 0.56067 0.0
H1133 H 0.88139 0.87923 0.56203 0.0
H1134 H 0.94289 0.9085 0.5621 0.0
H1135 H 0.94704 0.02241 0.54985 0.0
H1136 H 0.11126 0.11802 0.55898 0.0
H1137 H 0.04933 0.08965 0.55925 0.0
C1138 C 0.90783 0.60895 0.81261 0.0
C1139 C 0.92972 0.64157 0.81254 0.0
C1140 C 0.92472 0.57377 0.81306 0.0
C1141 C 0.01357 0.52556 0.80823 0.0
H1142 H 0.97149 0.44742 0.82383 0.0
C1143 C 0.08756 0.38388 0.81339 0.0
C1144 C 0.06505 0.3517 0.81316 0.0
C1145 C 0.07134 0.41938 0.81372 0.0
C1146 C 0.98336 0.46883 0.81937 0.0
H1147 H 0.98639 0.66304 0.81298 0.0
H1148 H 0.01594 0.60154 0.81382 0.0
H1149 H 0.94274 0.50931 0.82367 0.0
H1150 H 0.00795 0.33135 0.81319 0.0
H1151 H 0.97953 0.39342 0.81365 0.0
H1152 H 0.05399 0.48508 0.80386 0.0
C1153 C 0.98573 0.60316 0.81343 0.0
C1154 C 0.9669 0.50429 0.81928 0.0
C1155 C 0.96882 0.63837 0.81299 0.0
C1156 C 0.02599 0.35568 0.81338 0.0
C1157 C 0.00974 0.39122 0.8137 0.0
C1158 C 0.02999 0.49011 0.80831 0.0
C1159 C 0.96386 0.57047 0.81344 0.0
C1160 C 0.98177 0.53301 0.8137 0.0
C1161 C 0.03224 0.42349 0.81381 0.0
C1162 C 0.01503 0.46131 0.81386 0.0
H1163 H 0.87761 0.61056 0.81225 0.0
H1164 H 0.90711 0.54912 0.81294 0.0
H1165 H 0.02534 0.54691 0.80374 0.0
H1166 H 0.11778 0.38167 0.81328 0.0
H1167 H 0.08947 0.44363 0.81394 0.0
loop_
_geom_bond_atom_site_label_1
_geom_bond_atom_site_label_2
_geom_bond_distance
_geom_bond_site_symmetry_2
_ccdc_geom_bond_type
In0 O1 2.294 . S
In0 O2 2.326 . S
In0 O6 2.266 . S
In0 O7 2.326 . S
In0 O8 2.266 . S
In0 O9 2.326 . S
In0 O11 2.294 . S
In0 O12 2.326 . S
O1 In0 2.294 . S
O1 C10 1.240 . S
O2 In0 2.326 . S
O2 C10 1.252 . S
C3 O6 1.252 . S
C3 O7 1.260 . S
C4 O11 1.240 . S
C4 O12 1.252 . S
C5 O8 1.252 . S
C5 O9 1.260 . S
O6 In0 2.266 . S
O6 C3 1.252 . S
O7 In0 2.326 . S
O7 C3 1.260 . S
O8 In0 2.266 . S
O8 C5 1.252 . S
O9 In0 2.326 . S
O9 C5 1.260 . S
C10 O1 1.240 . S
C10 O2 1.252 . S
O11 In0 2.294 . S
O11 C4 1.240 . S
O12 In0 2.326 . S
O12 C4 1.252 . S
In13 O14 2.294 . S
In13 O15 2.326 . S
In13 O19 2.266 . S
In13 O20 2.326 . S
In13 O21 2.266 . S
In13 O22 2.326 . S
In13 O24 2.294 . S
In13 O25 2.326 . S
O14 In13 2.294 . S
O14 C23 1.240 . S
O15 In13 2.326 . S
O15 C23 1.252 . S
C16 O19 1.252 . S
C16 O20 1.260 . S
C17 O24 1.240 . S
C17 O25 1.252 . S
C18 O21 1.252 . S
C18 O22 1.260 . S
O19 In13 2.266 . S
O19 C16 1.252 . S
O20 In13 2.326 . S
O20 C16 1.260 . S
O21 In13 2.266 . S
O21 C18 1.252 . S
O22 In13 2.326 . S
O22 C18 1.260 . S
C23 O14 1.240 . S
C23 O15 1.252 . S
O24 In13 2.294 . S
O24 C17 1.240 . S
O25 In13 2.326 . S
O25 C17 1.252 . S
In26 O27 2.294 . S
In26 O28 2.326 . S
In26 O32 2.266 . S
In26 O33 2.326 . S
In26 O34 2.266 . S
In26 O35 2.326 . S
In26 O37 2.294 . S
In26 O38 2.326 . S
O27 In26 2.294 . S
O27 C36 1.240 . S
O28 In26 2.326 . S
O28 C36 1.252 . S
C29 O32 1.252 . S
C29 O33 1.260 . S
C30 O37 1.240 . S
C30 O38 1.252 . S
C31 O34 1.252 . S
C31 O35 1.260 . S
O32 In26 2.266 . S
O32 C29 1.252 . S
O33 In26 2.326 . S
O33 C29 1.260 . S
O34 In26 2.266 . S
O34 C31 1.252 . S
O35 In26 2.326 . S
O35 C31 1.260 . S
C36 O27 1.240 . S
C36 O28 1.252 . S
O37 In26 2.294 . S
O37 C30 1.240 . S
O38 In26 2.326 . S
O38 C30 1.252 . S
In39 O40 2.294 . S
In39 O41 2.326 . S
In39 O45 2.266 . S
In39 O46 2.326 . S
In39 O47 2.266 . S
In39 O48 2.326 . S
In39 O50 2.294 . S
In39 O51 2.326 . S
O40 In39 2.294 . S
O40 C49 1.240 . S
O41 In39 2.326 . S
O41 C49 1.252 . S
C42 O45 1.252 . S
C42 O46 1.260 . S
C43 O50 1.240 . S
C43 O51 1.252 . S
C44 O47 1.252 . S
C44 O48 1.260 . S
O45 In39 2.266 . S
O45 C42 1.252 . S
O46 In39 2.326 . S
O46 C42 1.260 . S
O47 In39 2.266 . S
O47 C44 1.252 . S
O48 In39 2.326 . S
O48 C44 1.260 . S
C49 O40 1.240 . S
C49 O41 1.252 . S
O50 In39 2.294 . S
O50 C43 1.240 . S
O51 In39 2.326 . S
O51 C43 1.252 . S
In52 O53 2.294 . S
In52 O54 2.326 . S
In52 O58 2.266 . S
In52 O59 2.326 . S
In52 O60 2.266 . S
In52 O61 2.326 . S
In52 O63 2.294 . S
In52 O64 2.326 . S
O53 In52 2.294 . S
O53 C62 1.240 . S
O54 In52 2.326 . S
O54 C62 1.252 . S
C55 O58 1.252 . S
C55 O59 1.260 . S
C56 O63 1.240 . S
C56 O64 1.252 . S
C57 O60 1.252 . S
C57 O61 1.260 . S
O58 In52 2.266 . S
O58 C55 1.252 . S
O59 In52 2.326 . S
O59 C55 1.260 . S
O60 In52 2.266 . S
O60 C57 1.252 . S
O61 In52 2.326 . S
O61 C57 1.260 . S
C62 O53 1.240 . S
C62 O54 1.252 . S
O63 In52 2.294 . S
O63 C56 1.240 . S
O64 In52 2.326 . S
O64 C56 1.252 . S
In65 O66 2.294 . S
In65 O67 2.326 . S
In65 O71 2.266 . S
In65 O72 2.326 . S
In65 O73 2.266 . S
In65 O74 2.326 . S
In65 O76 2.294 . S
In65 O77 2.326 . S
O66 In65 2.294 . S
O66 C75 1.240 . S
O67 In65 2.326 . S
O67 C75 1.252 . S
C68 O71 1.252 . S
C68 O72 1.260 . S
C69 O76 1.240 . S
C69 O77 1.252 . S
C70 O73 1.252 . S
C70 O74 1.260 . S
O71 In65 2.266 . S
O71 C68 1.252 . S
O72 In65 2.326 . S
O72 C68 1.260 . S
O73 In65 2.266 . S
O73 C70 1.252 . S
O74 In65 2.326 . S
O74 C70 1.260 . S
C75 O66 1.240 . S
C75 O67 1.252 . S
O76 In65 2.294 . S
O76 C69 1.240 . S
O77 In65 2.326 . S
O77 C69 1.252 . S
In78 O79 2.294 . S
In78 O80 2.326 . S
In78 O84 2.266 . S
In78 O85 2.326 . S
In78 O86 2.266 . S
In78 O87 2.326 . S
In78 O89 2.294 . S
In78 O90 2.326 . S
O79 In78 2.294 . S
O79 C88 1.240 . S
O80 In78 2.326 . S
O80 C88 1.252 . S
C81 O84 1.252 . S
C81 O85 1.260 . S
C82 O89 1.240 . S
C82 O90 1.252 . S
C83 O86 1.252 . S
C83 O87 1.260 . S
O84 In78 2.266 . S
O84 C81 1.252 . S
O85 In78 2.326 . S
O85 C81 1.260 . S
O86 In78 2.266 . S
O86 C83 1.252 . S
O87 In78 2.326 . S
O87 C83 1.260 . S
C88 O79 1.240 . S
C88 O80 1.252 . S
O89 In78 2.294 . S
O89 C82 1.240 . S
O90 In78 2.326 . S
O90 C82 1.252 . S
In91 O92 2.294 . S
In91 O93 2.326 . S
In91 O97 2.266 . S
In91 O98 2.326 . S
In91 O99 2.266 . S
In91 O100 2.326 . S
In91 O102 2.294 . S
In91 O103 2.326 . S
O92 In91 2.294 . S
O92 C101 1.240 . S
O93 In91 2.326 . S
O93 C101 1.252 . S
C94 O97 1.252 . S
C94 O98 1.260 . S
C95 O102 1.240 . S
C95 O103 1.252 . S
C96 O99 1.252 . S
C96 O100 1.260 . S
O97 In91 2.266 . S
O97 C94 1.252 . S
O98 In91 2.326 . S
O98 C94 1.260 . S
O99 In91 2.266 . S
O99 C96 1.252 . S
O100 In91 2.326 . S
O100 C96 1.260 . S
C101 O92 1.240 . S
C101 O93 1.252 . S
O102 In91 2.294 . S
O102 C95 1.240 . S
O103 In91 2.326 . S
O103 C95 1.252 . S
In104 O105 2.294 . S
In104 O106 2.326 . S
In104 O110 2.266 . S
In104 O111 2.326 . S
In104 O112 2.266 . S
In104 O113 2.326 . S
In104 O115 2.294 . S
In104 O116 2.326 . S
O105 In104 2.294 . S
O105 C114 1.240 . S
O106 In104 2.326 . S
O106 C114 1.252 . S
C107 O110 1.252 . S
C107 O111 1.260 . S
C108 O115 1.240 . S
C108 O116 1.252 . S
C109 O112 1.252 . S
C109 O113 1.260 . S
O110 In104 2.266 . S
O110 C107 1.252 . S
O111 In104 2.326 . S
O111 C107 1.260 . S
O112 In104 2.266 . S
O112 C109 1.252 . S
O113 In104 2.326 . S
O113 C109 1.260 . S
C114 O105 1.240 . S
C114 O106 1.252 . S
O115 In104 2.294 . S
O115 C108 1.240 . S
O116 In104 2.326 . S
O116 C108 1.252 . S
In117 O118 2.294 . S
In117 O119 2.326 . S
In117 O123 2.266 . S
In117 O124 2.326 . S
In117 O125 2.266 . S
In117 O126 2.326 . S
In117 O128 2.294 . S
In117 O129 2.326 . S
O118 In117 2.294 . S
O118 C127 1.240 . S
O119 In117 2.326 . S
O119 C127 1.252 . S
C120 O123 1.252 . S
C120 O124 1.260 . S
C121 O128 1.240 . S
C121 O129 1.252 . S
C122 O125 1.252 . S
C122 O126 1.260 . S
O123 In117 2.266 . S
O123 C120 1.252 . S
O124 In117 2.326 . S
O124 C120 1.260 . S
O125 In117 2.266 . S
O125 C122 1.252 . S
O126 In117 2.326 . S
O126 C122 1.260 . S
C127 O118 1.240 . S
C127 O119 1.252 . S
O128 In117 2.294 . S
O128 C121 1.240 . S
O129 In117 2.326 . S
O129 C121 1.252 . S
In130 O131 2.294 . S
In130 O132 2.326 . S
In130 O136 2.266 . S
In130 O137 2.326 . S
In130 O138 2.266 . S
In130 O139 2.326 . S
In130 O141 2.294 . S
In130 O142 2.326 . S
O131 In130 2.294 . S
O131 C140 1.240 . S
O132 In130 2.326 . S
O132 C140 1.252 . S
C133 O136 1.252 . S
C133 O137 1.260 . S
C134 O141 1.240 . S
C134 O142 1.252 . S
C135 O138 1.252 . S
C135 O139 1.260 . S
O136 In130 2.266 . S
O136 C133 1.252 . S
O137 In130 2.326 . S
O137 C133 1.260 . S
O138 In130 2.266 . S
O138 C135 1.252 . S
O139 In130 2.326 . S
O139 C135 1.260 . S
C140 O131 1.240 . S
C140 O132 1.252 . S
O141 In130 2.294 . S
O141 C134 1.240 . S
O142 In130 2.326 . S
O142 C134 1.252 . S
In143 O144 2.294 . S
In143 O145 2.326 . S
In143 O149 2.266 . S
In143 O150 2.326 . S
In143 O151 2.266 . S
In143 O152 2.326 . S
In143 O154 2.294 . S
In143 O155 2.326 . S
O144 In143 2.294 . S
O144 C153 1.240 . S
O145 In143 2.326 . S
O145 C153 1.252 . S
C146 O149 1.252 . S
C146 O150 1.260 . S
C147 O154 1.240 . S
C147 O155 1.252 . S
C148 O151 1.252 . S
C148 O152 1.260 . S
O149 In143 2.266 . S
O149 C146 1.252 . S
O150 In143 2.326 . S
O150 C146 1.260 . S
O151 In143 2.266 . S
O151 C148 1.252 . S
O152 In143 2.326 . S
O152 C148 1.260 . S
C153 O144 1.240 . S
C153 O145 1.252 . S
O154 In143 2.294 . S
O154 C147 1.240 . S
O155 In143 2.326 . S
O155 C147 1.252 . S
In156 O157 2.294 . S
In156 O158 2.326 . S
In156 O162 2.266 . S
In156 O163 2.326 . S
In156 O164 2.266 . S
In156 O165 2.326 . S
In156 O167 2.294 . S
In156 O168 2.326 . S
O157 In156 2.294 . S
O157 C166 1.240 . S
O158 In156 2.326 . S
O158 C166 1.252 . S
C159 O162 1.252 . S
C159 O163 1.260 . S
C160 O167 1.240 . S
C160 O168 1.252 . S
C161 O164 1.252 . S
C161 O165 1.260 . S
O162 In156 2.266 . S
O162 C159 1.252 . S
O163 In156 2.326 . S
O163 C159 1.260 . S
O164 In156 2.266 . S
O164 C161 1.252 . S
O165 In156 2.326 . S
O165 C161 1.260 . S
C166 O157 1.240 . S
C166 O158 1.252 . S
O167 In156 2.294 . S
O167 C160 1.240 . S
O168 In156 2.326 . S
O168 C160 1.252 . S
In169 O170 2.294 . S
In169 O171 2.326 . S
In169 O175 2.266 . S
In169 O176 2.326 . S
In169 O177 2.266 . S
In169 O178 2.326 . S
In169 O180 2.294 . S
In169 O181 2.326 . S
O170 In169 2.294 . S
O170 C179 1.240 . S
O171 In169 2.326 . S
O171 C179 1.252 . S
C172 O175 1.252 . S
C172 O176 1.260 . S
C173 O180 1.240 . S
C173 O181 1.252 . S
C174 O177 1.252 . S
C174 O178 1.260 . S
O175 In169 2.266 . S
O175 C172 1.252 . S
O176 In169 2.326 . S
O176 C172 1.260 . S
O177 In169 2.266 . S
O177 C174 1.252 . S
O178 In169 2.326 . S
O178 C174 1.260 . S
C179 O170 1.240 . S
C179 O171 1.252 . S
O180 In169 2.294 . S
O180 C173 1.240 . S
O181 In169 2.326 . S
O181 C173 1.252 . S
In182 O183 2.294 . S
In182 O184 2.326 . S
In182 O188 2.266 . S
In182 O189 2.326 . S
In182 O190 2.266 . S
In182 O191 2.326 . S
In182 O193 2.294 . S
In182 O194 2.326 . S
O183 In182 2.294 . S
O183 C192 1.240 . S
O184 In182 2.326 . S
O184 C192 1.252 . S
C185 O188 1.252 . S
C185 O189 1.260 . S
C186 O193 1.240 . S
C186 O194 1.252 . S
C187 O190 1.252 . S
C187 O191 1.260 . S
O188 In182 2.266 . S
O188 C185 1.252 . S
O189 In182 2.326 . S
O189 C185 1.260 . S
O190 In182 2.266 . S
O190 C187 1.252 . S
O191 In182 2.326 . S
O191 C187 1.260 . S
C192 O183 1.240 . S
C192 O184 1.252 . S
O193 In182 2.294 . S
O193 C186 1.240 . S
O194 In182 2.326 . S
O194 C186 1.252 . S
In195 O196 2.294 . S
In195 O197 2.326 . S
In195 O201 2.266 . S
In195 O202 2.326 . S
In195 O203 2.266 . S
In195 O204 2.326 . S
In195 O206 2.294 . S
In195 O207 2.326 . S
O196 In195 2.294 . S
O196 C205 1.240 . S
O197 In195 2.326 . S
O197 C205 1.252 . S
C198 O201 1.252 . S
C198 O202 1.260 . S
C199 O206 1.240 . S
C199 O207 1.252 . S
C200 O203 1.252 . S
C200 O204 1.260 . S
O201 In195 2.266 . S
O201 C198 1.252 . S
O202 In195 2.326 . S
O202 C198 1.260 . S
O203 In195 2.266 . S
O203 C200 1.252 . S
O204 In195 2.326 . S
O204 C200 1.260 . S
C205 O196 1.240 . S
C205 O197 1.252 . S
O206 In195 2.294 . S
O206 C199 1.240 . S
O207 In195 2.326 . S
O207 C199 1.252 . S
C208 C209 1.349 . S
C208 C210 1.327 . S
C208 H233 0.950 . S
C209 C208 1.349 . S
C209 C225 1.349 . S
C210 C208 1.327 . S
C210 C229 1.429 . S
C210 H234 0.950 . S
C211 C228 1.574 . S
C211 C230 1.368 . S
C211 H235 0.949 . S
H212 C216 0.949 . S
C213 C214 1.349 . S
C213 C215 1.327 . S
C213 H236 0.950 . S
C214 C213 1.349 . S
C214 C226 1.349 . S
C215 C213 1.327 . S
C215 C231 1.429 . S
C215 H237 0.950 . S
C216 H212 0.949 . S
C216 C224 1.574 . S
C216 C232 1.368 . S
H217 C225 0.950 . S
H218 C223 0.950 . S
H219 C224 0.949 . S
H220 C226 0.950 . S
H221 C227 0.950 . S
H222 C228 0.949 . S
C223 H218 0.950 . S
C223 C225 1.327 . S
C223 C229 1.429 . S
C224 C216 1.574 . S
C224 H219 0.949 . S
C224 C230 1.368 . S
C225 C209 1.349 . S
C225 H217 0.950 . S
C225 C223 1.327 . S
C226 C214 1.349 . S
C226 H220 0.950 . S
C226 C227 1.327 . S
C227 H221 0.950 . S
C227 C226 1.327 . S
C227 C231 1.429 . S
C228 C211 1.574 . S
C228 H222 0.949 . S
C228 C232 1.368 . S
C229 C210 1.429 . S
C229 C223 1.429 . S
C229 C230 1.523 . S
C230 C211 1.368 . S
C230 C224 1.368 . S
C230 C229 1.523 . S
C231 C215 1.429 . S
C231 C227 1.429 . S
C231 C232 1.523 . S
C232 C216 1.368 . S
C232 C228 1.368 . S
C232 C231 1.523 . S
H233 C208 0.950 . S
H234 C210 0.950 . S
H235 C211 0.949 . S
H236 C213 0.950 . S
H237 C215 0.950 . S
C238 C239 1.349 . S
C238 C240 1.327 . S
C238 H263 0.950 . S
C239 C238 1.349 . S
C239 C255 1.349 . S
C240 C238 1.327 . S
C240 C259 1.429 . S
C240 H264 0.950 . S
C241 C258 1.574 . S
C241 C260 1.368 . S
C241 H265 0.949 . S
H242 C246 0.949 . S
C243 C244 1.349 . S
C243 C245 1.327 . S
C243 H266 0.950 . S
C244 C243 1.349 . S
C244 C256 1.349 . S
C245 C243 1.327 . S
C245 C261 1.429 . S
C245 H267 0.950 . S
C246 H242 0.949 . S
C246 C254 1.574 . S
C246 C262 1.368 . S
H247 C255 0.950 . S
H248 C253 0.950 . S
H249 C254 0.949 . S
H250 C256 0.950 . S
H251 C257 0.950 . S
H252 C258 0.949 . S
C253 H248 0.950 . S
C253 C255 1.327 . S
C253 C259 1.429 . S
C254 C246 1.574 . S
C254 H249 0.949 . S
C254 C260 1.368 . S
C255 C239 1.349 . S
C255 H247 0.950 . S
C255 C253 1.327 . S
C256 C244 1.349 . S
C256 H250 0.950 . S
C256 C257 1.327 . S
C257 H251 0.950 . S
C257 C256 1.327 . S
C257 C261 1.429 . S
C258 C241 1.574 . S
C258 H252 0.949 . S
C258 C262 1.368 . S
C259 C240 1.429 . S
C259 C253 1.429 . S
C259 C260 1.523 . S
C260 C241 1.368 . S
C260 C254 1.368 . S
C260 C259 1.523 . S
C261 C245 1.429 . S
C261 C257 1.429 . S
C261 C262 1.523 . S
C262 C246 1.368 . S
C262 C258 1.368 . S
C262 C261 1.523 . S
H263 C238 0.950 . S
H264 C240 0.950 . S
H265 C241 0.949 . S
H266 C243 0.950 . S
H267 C245 0.950 . S
C268 C269 1.349 . S
C268 C270 1.327 . S
C268 H293 0.950 . S
C269 C268 1.349 . S
C269 C285 1.349 . S
C270 C268 1.327 . S
C270 C289 1.429 . S
C270 H294 0.950 . S
C271 C288 1.574 . S
C271 C290 1.368 . S
C271 H295 0.949 . S
H272 C276 0.949 . S
C273 C274 1.349 . S
C273 C275 1.327 . S
C273 H296 0.950 . S
C274 C273 1.349 . S
C274 C286 1.349 . S
C275 C273 1.327 . S
C275 C291 1.429 . S
C275 H297 0.950 . S
C276 H272 0.949 . S
C276 C284 1.574 . S
C276 C292 1.368 . S
H277 C285 0.950 . S
H278 C283 0.950 . S
H279 C284 0.949 . S
H280 C286 0.950 . S
H281 C287 0.950 . S
H282 C288 0.949 . S
C283 H278 0.950 . S
C283 C285 1.327 . S
C283 C289 1.429 . S
C284 C276 1.574 . S
C284 H279 0.949 . S
C284 C290 1.368 . S
C285 C269 1.349 . S
C285 H277 0.950 . S
C285 C283 1.327 . S
C286 C274 1.349 . S
C286 H280 0.950 . S
C286 C287 1.327 . S
C287 H281 0.950 . S
C287 C286 1.327 . S
C287 C291 1.429 . S
C288 C271 1.574 . S
C288 H282 0.949 . S
C288 C292 1.368 . S
C289 C270 1.429 . S
C289 C283 1.429 . S
C289 C290 1.523 . S
C290 C271 1.368 . S
C290 C284 1.368 . S
C290 C289 1.523 . S
C291 C275 1.429 . S
C291 C287 1.429 . S
C291 C292 1.523 . S
C292 C276 1.368 . S
C292 C288 1.368 . S
C292 C291 1.523 . S
H293 C268 0.950 . S
H294 C270 0.950 . S
H295 C271 0.949 . S
H296 C273 0.950 . S
H297 C275 0.950 . S
C298 C299 1.349 . S
C298 C300 1.327 . S
C298 H323 0.950 . S
C299 C298 1.349 . S
C299 C315 1.349 . S
C300 C298 1.327 . S
C300 C319 1.429 . S
C300 H324 0.950 . S
C301 C318 1.574 . S
C301 C320 1.368 . S
C301 H325 0.949 . S
H302 C306 0.949 . S
C303 C304 1.349 . S
C303 C305 1.327 . S
C303 H326 0.950 . S
C304 C303 1.349 . S
C304 C316 1.349 . S
C305 C303 1.327 . S
C305 C321 1.429 . S
C305 H327 0.950 . S
C306 H302 0.949 . S
C306 C314 1.574 . S
C306 C322 1.368 . S
H307 C315 0.950 . S
H308 C313 0.950 . S
H309 C314 0.949 . S
H310 C316 0.950 . S
H311 C317 0.950 . S
H312 C318 0.949 . S
C313 H308 0.950 . S
C313 C315 1.327 . S
C313 C319 1.429 . S
C314 C306 1.574 . S
C314 H309 0.949 . S
C314 C320 1.368 . S
C315 C299 1.349 . S
C315 H307 0.950 . S
C315 C313 1.327 . S
C316 C304 1.349 . S
C316 H310 0.950 . S
C316 C317 1.327 . S
C317 H311 0.950 . S
C317 C316 1.327 . S
C317 C321 1.429 . S
C318 C301 1.574 . S
C318 H312 0.949 . S
C318 C322 1.368 . S
C319 C300 1.429 . S
C319 C313 1.429 . S
C319 C320 1.523 . S
C320 C301 1.368 . S
C320 C314 1.368 . S
C320 C319 1.523 . S
C321 C305 1.429 . S
C321 C317 1.429 . S
C321 C322 1.523 . S
C322 C306 1.368 . S
C322 C318 1.368 . S
C322 C321 1.523 . S
H323 C298 0.950 . S
H324 C300 0.950 . S
H325 C301 0.949 . S
H326 C303 0.950 . S
H327 C305 0.950 . S
C328 C329 1.349 . S
C328 C330 1.327 . S
C328 H353 0.950 . S
C329 C328 1.349 . S
C329 C345 1.349 . S
C330 C328 1.327 . S
C330 C349 1.429 . S
C330 H354 0.950 . S
C331 C348 1.574 . S
C331 C350 1.368 . S
C331 H355 0.949 . S
H332 C336 0.949 . S
C333 C334 1.349 . S
C333 C335 1.327 . S
C333 H356 0.950 . S
C334 C333 1.349 . S
C334 C346 1.349 . S
C335 C333 1.327 . S
C335 C351 1.429 . S
C335 H357 0.950 . S
C336 H332 0.949 . S
C336 C344 1.574 . S
C336 C352 1.368 . S
H337 C345 0.950 . S
H338 C343 0.950 . S
H339 C344 0.949 . S
H340 C346 0.950 . S
H341 C347 0.950 . S
H342 C348 0.949 . S
C343 H338 0.950 . S
C343 C345 1.327 . S
C343 C349 1.429 . S
C344 C336 1.574 . S
C344 H339 0.949 . S
C344 C350 1.368 . S
C345 C329 1.349 . S
C345 H337 0.950 . S
C345 C343 1.327 . S
C346 C334 1.349 . S
C346 H340 0.950 . S
C346 C347 1.327 . S
C347 H341 0.950 . S
C347 C346 1.327 . S
C347 C351 1.429 . S
C348 C331 1.574 . S
C348 H342 0.949 . S
C348 C352 1.368 . S
C349 C330 1.429 . S
C349 C343 1.429 . S
C349 C350 1.523 . S
C350 C331 1.368 . S
C350 C344 1.368 . S
C350 C349 1.523 . S
C351 C335 1.429 . S
C351 C347 1.429 . S
C351 C352 1.523 . S
C352 C336 1.368 . S
C352 C348 1.368 . S
C352 C351 1.523 . S
H353 C328 0.950 . S
H354 C330 0.950 . S
H355 C331 0.949 . S
H356 C333 0.950 . S
H357 C335 0.950 . S
C358 C359 1.349 . S
C358 C360 1.327 . S
C358 H383 0.950 . S
C359 C358 1.349 . S
C359 C375 1.349 . S
C360 C358 1.327 . S
C360 C379 1.429 . S
C360 H384 0.950 . S
C361 C378 1.574 . S
C361 C380 1.368 . S
C361 H385 0.949 . S
H362 C366 0.949 . S
C363 C364 1.349 . S
C363 C365 1.327 . S
C363 H386 0.950 . S
C364 C363 1.349 . S
C364 C376 1.349 . S
C365 C363 1.327 . S
C365 C381 1.429 . S
C365 H387 0.950 . S
C366 H362 0.949 . S
C366 C374 1.574 . S
C366 C382 1.368 . S
H367 C375 0.950 . S
H368 C373 0.950 . S
H369 C374 0.949 . S
H370 C376 0.950 . S
H371 C377 0.950 . S
H372 C378 0.949 . S
C373 H368 0.950 . S
C373 C375 1.327 . S
C373 C379 1.429 . S
C374 C366 1.574 . S
C374 H369 0.949 . S
C374 C380 1.368 . S
C375 C359 1.349 . S
C375 H367 0.950 . S
C375 C373 1.327 . S
C376 C364 1.349 . S
C376 H370 0.950 . S
C376 C377 1.327 . S
C377 H371 0.950 . S
C377 C376 1.327 . S
C377 C381 1.429 . S
C378 C361 1.574 . S
C378 H372 0.949 . S
C378 C382 1.368 . S
C379 C360 1.429 . S
C379 C373 1.429 . S
C379 C380 1.523 . S
C380 C361 1.368 . S
C380 C374 1.368 . S
C380 C379 1.523 . S
C381 C365 1.429 . S
C381 C377 1.429 . S
C381 C382 1.523 . S
C382 C366 1.368 . S
C382 C378 1.368 . S
C382 C381 1.523 . S
H383 C358 0.950 . S
H384 C360 0.950 . S
H385 C361 0.949 . S
H386 C363 0.950 . S
H387 C365 0.950 . S
C388 C389 1.349 . S
C388 C390 1.327 . S
C388 H413 0.950 . S
C389 C388 1.349 . S
C389 C405 1.349 . S
C390 C388 1.327 . S
C390 C409 1.429 . S
C390 H414 0.950 . S
C391 C408 1.574 . S
C391 C410 1.368 . S
C391 H415 0.949 . S
H392 C396 0.949 . S
C393 C394 1.349 . S
C393 C395 1.327 . S
C393 H416 0.950 . S
C394 C393 1.349 . S
C394 C406 1.349 . S
C395 C393 1.327 . S
C395 C411 1.429 . S
C395 H417 0.950 . S
C396 H392 0.949 . S
C396 C404 1.574 . S
C396 C412 1.368 . S
H397 C405 0.950 . S
H398 C403 0.950 . S
H399 C404 0.949 . S
H400 C406 0.950 . S
H401 C407 0.950 . S
H402 C408 0.949 . S
C403 H398 0.950 . S
C403 C405 1.327 . S
C403 C409 1.429 . S
C404 C396 1.574 . S
C404 H399 0.949 . S
C404 C410 1.368 . S
C405 C389 1.349 . S
C405 H397 0.950 . S
C405 C403 1.327 . S
C406 C394 1.349 . S
C406 H400 0.950 . S
C406 C407 1.327 . S
C407 H401 0.950 . S
C407 C406 1.327 . S
C407 C411 1.429 . S
C408 C391 1.574 . S
C408 H402 0.949 . S
C408 C412 1.368 . S
C409 C390 1.429 . S
C409 C403 1.429 . S
C409 C410 1.523 . S
C410 C391 1.368 . S
C410 C404 1.368 . S
C410 C409 1.523 . S
C411 C395 1.429 . S
C411 C407 1.429 . S
C411 C412 1.523 . S
C412 C396 1.368 . S
C412 C408 1.368 . S
C412 C411 1.523 . S
H413 C388 0.950 . S
H414 C390 0.950 . S
H415 C391 0.949 . S
H416 C393 0.950 . S
H417 C395 0.950 . S
C418 C419 1.349 . S
C418 C420 1.327 . S
C418 H443 0.950 . S
C419 C418 1.349 . S
C419 C435 1.349 . S
C420 C418 1.327 . S
C420 C439 1.429 . S
C420 H444 0.950 . S
C421 C438 1.574 . S
C421 C440 1.368 . S
C421 H445 0.949 . S
H422 C426 0.949 . S
C423 C424 1.349 . S
C423 C425 1.327 . S
C423 H446 0.950 . S
C424 C423 1.349 . S
C424 C436 1.349 . S
C425 C423 1.327 . S
C425 C441 1.429 . S
C425 H447 0.950 . S
C426 H422 0.949 . S
C426 C434 1.574 . S
C426 C442 1.368 . S
H427 C435 0.950 . S
H428 C433 0.950 . S
H429 C434 0.949 . S
H430 C436 0.950 . S
H431 C437 0.950 . S
H432 C438 0.949 . S
C433 H428 0.950 . S
C433 C435 1.327 . S
C433 C439 1.429 . S
C434 C426 1.574 . S
C434 H429 0.949 . S
C434 C440 1.368 . S
C435 C419 1.349 . S
C435 H427 0.950 . S
C435 C433 1.327 . S
C436 C424 1.349 . S
C436 H430 0.950 . S
C436 C437 1.327 . S
C437 H431 0.950 . S
C437 C436 1.327 . S
C437 C441 1.429 . S
C438 C421 1.574 . S
C438 H432 0.949 . S
C438 C442 1.368 . S
C439 C420 1.429 . S
C439 C433 1.429 . S
C439 C440 1.523 . S
C440 C421 1.368 . S
C440 C434 1.368 . S
C440 C439 1.523 . S
C441 C425 1.429 . S
C441 C437 1.429 . S
C441 C442 1.523 . S
C442 C426 1.368 . S
C442 C438 1.368 . S
C442 C441 1.523 . S
H443 C418 0.950 . S
H444 C420 0.950 . S
H445 C421 0.949 . S
H446 C423 0.950 . S
H447 C425 0.950 . S
C448 C449 1.349 . S
C448 C450 1.327 . S
C448 H473 0.950 . S
C449 C448 1.349 . S
C449 C465 1.349 . S
C450 C448 1.327 . S
C450 C469 1.429 . S
C450 H474 0.950 . S
C451 C468 1.574 . S
C451 C470 1.368 . S
C451 H475 0.949 . S
H452 C456 0.949 . S
C453 C454 1.349 . S
C453 C455 1.327 . S
C453 H476 0.950 . S
C454 C453 1.349 . S
C454 C466 1.349 . S
C455 C453 1.327 . S
C455 C471 1.429 . S
C455 H477 0.950 . S
C456 H452 0.949 . S
C456 C464 1.574 . S
C456 C472 1.368 . S
H457 C465 0.950 . S
H458 C463 0.950 . S
H459 C464 0.949 . S
H460 C466 0.950 . S
H461 C467 0.950 . S
H462 C468 0.949 . S
C463 H458 0.950 . S
C463 C465 1.327 . S
C463 C469 1.429 . S
C464 C456 1.574 . S
C464 H459 0.949 . S
C464 C470 1.368 . S
C465 C449 1.349 . S
C465 H457 0.950 . S
C465 C463 1.327 . S
C466 C454 1.349 . S
C466 H460 0.950 . S
C466 C467 1.327 . S
C467 H461 0.950 . S
C467 C466 1.327 . S
C467 C471 1.429 . S
C468 C451 1.574 . S
C468 H462 0.949 . S
C468 C472 1.368 . S
C469 C450 1.429 . S
C469 C463 1.429 . S
C469 C470 1.523 . S
C470 C451 1.368 . S
C470 C464 1.368 . S
C470 C469 1.523 . S
C471 C455 1.429 . S
C471 C467 1.429 . S
C471 C472 1.523 . S
C472 C456 1.368 . S
C472 C468 1.368 . S
C472 C471 1.523 . S
H473 C448 0.950 . S
H474 C450 0.950 . S
H475 C451 0.949 . S
H476 C453 0.950 . S
H477 C455 0.950 . S
C478 C479 1.349 . S
C478 C480 1.327 . S
C478 H503 0.950 . S
C479 C478 1.349 . S
C479 C495 1.349 . S
C480 C478 1.327 . S
C480 C499 1.429 . S
C480 H504 0.950 . S
C481 C498 1.574 . S
C481 C500 1.368 . S
C481 H505 0.949 . S
H482 C486 0.949 . S
C483 C484 1.349 . S
C483 C485 1.327 . S
C483 H506 0.950 . S
C484 C483 1.349 . S
C484 C496 1.349 . S
C485 C483 1.327 . S
C485 C501 1.429 . S
C485 H507 0.950 . S
C486 H482 0.949 . S
C486 C494 1.574 . S
C486 C502 1.368 . S
H487 C495 0.950 . S
H488 C493 0.950 . S
H489 C494 0.949 . S
H490 C496 0.950 . S
H491 C497 0.950 . S
H492 C498 0.949 . S
C493 H488 0.950 . S
C493 C495 1.327 . S
C493 C499 1.429 . S
C494 C486 1.574 . S
C494 H489 0.949 . S
C494 C500 1.368 . S
C495 C479 1.349 . S
C495 H487 0.950 . S
C495 C493 1.327 . S
C496 C484 1.349 . S
C496 H490 0.950 . S
C496 C497 1.327 . S
C497 H491 0.950 . S
C497 C496 1.327 . S
C497 C501 1.429 . S
C498 C481 1.574 . S
C498 H492 0.949 . S
C498 C502 1.368 . S
C499 C480 1.429 . S
C499 C493 1.429 . S
C499 C500 1.523 . S
C500 C481 1.368 . S
C500 C494 1.368 . S
C500 C499 1.523 . S
C501 C485 1.429 . S
C501 C497 1.429 . S
C501 C502 1.523 . S
C502 C486 1.368 . S
C502 C498 1.368 . S
C502 C501 1.523 . S
H503 C478 0.950 . S
H504 C480 0.950 . S
H505 C481 0.949 . S
H506 C483 0.950 . S
H507 C485 0.950 . S
C508 C509 1.349 . S
C508 C510 1.327 . S
C508 H533 0.950 . S
C509 C508 1.349 . S
C509 C525 1.349 . S
C510 C508 1.327 . S
C510 C529 1.429 . S
C510 H534 0.950 . S
C511 C528 1.574 . S
C511 C530 1.368 . S
C511 H535 0.949 . S
H512 C516 0.949 . S
C513 C514 1.349 . S
C513 C515 1.327 . S
C513 H536 0.950 . S
C514 C513 1.349 . S
C514 C526 1.349 . S
C515 C513 1.327 . S
C515 C531 1.429 . S
C515 H537 0.950 . S
C516 H512 0.949 . S
C516 C524 1.574 . S
C516 C532 1.368 . S
H517 C525 0.950 . S
H518 C523 0.950 . S
H519 C524 0.949 . S
H520 C526 0.950 . S
H521 C527 0.950 . S
H522 C528 0.949 . S
C523 H518 0.950 . S
C523 C525 1.327 . S
C523 C529 1.429 . S
C524 C516 1.574 . S
C524 H519 0.949 . S
C524 C530 1.368 . S
C525 C509 1.349 . S
C525 H517 0.950 . S
C525 C523 1.327 . S
C526 C514 1.349 . S
C526 H520 0.950 . S
C526 C527 1.327 . S
C527 H521 0.950 . S
C527 C526 1.327 . S
C527 C531 1.429 . S
C528 C511 1.574 . S
C528 H522 0.949 . S
C528 C532 1.368 . S
C529 C510 1.429 . S
C529 C523 1.429 . S
C529 C530 1.523 . S
C530 C511 1.368 . S
C530 C524 1.368 . S
C530 C529 1.523 . S
C531 C515 1.429 . S
C531 C527 1.429 . S
C531 C532 1.523 . S
C532 C516 1.368 . S
C532 C528 1.368 . S
C532 C531 1.523 . S
H533 C508 0.950 . S
H534 C510 0.950 . S
H535 C511 0.949 . S
H536 C513 0.950 . S
H537 C515 0.950 . S
C538 C539 1.349 . S
C538 C540 1.327 . S
C538 H563 0.950 . S
C539 C538 1.349 . S
C539 C555 1.349 . S
C540 C538 1.327 . S
C540 C559 1.429 . S
C540 H564 0.950 . S
C541 C558 1.574 1_554 S
C541 C560 1.368 . S
C541 H565 0.949 . S
H542 C546 0.949 . S
C543 C544 1.349 . S
C543 C545 1.327 . S
C543 H566 0.950 . S
C544 C543 1.349 . S
C544 C556 1.349 . S
C545 C543 1.327 . S
C545 C561 1.429 . S
C545 H567 0.950 . S
C546 H542 0.949 . S
C546 C554 1.574 1_556 S
C546 C562 1.368 . S
H547 C555 0.950 . S
H548 C553 0.950 . S
H549 C554 0.949 . S
H550 C556 0.950 . S
H551 C557 0.950 . S
H552 C558 0.949 . S
C553 H548 0.950 . S
C553 C555 1.327 . S
C553 C559 1.429 . S
C554 C546 1.574 1_554 S
C554 H549 0.949 . S
C554 C560 1.368 . S
C555 C539 1.349 . S
C555 H547 0.950 . S
C555 C553 1.327 . S
C556 C544 1.349 . S
C556 H550 0.950 . S
C556 C557 1.327 . S
C557 H551 0.950 . S
C557 C556 1.327 . S
C557 C561 1.429 . S
C558 C541 1.574 1_556 S
C558 H552 0.949 . S
C558 C562 1.368 . S
C559 C540 1.429 . S
C559 C553 1.429 . S
C559 C560 1.523 . S
C560 C541 1.368 . S
C560 C554 1.368 . S
C560 C559 1.523 . S
C561 C545 1.429 . S
C561 C557 1.429 . S
C561 C562 1.523 . S
C562 C546 1.368 . S
C562 C558 1.368 . S
C562 C561 1.523 . S
H563 C538 0.950 . S
H564 C540 0.950 . S
H565 C541 0.949 . S
H566 C543 0.950 . S
H567 C545 0.950 . S
C568 C569 1.349 . S
C568 C570 1.327 . S
C568 H593 0.950 . S
C569 C568 1.349 . S
C569 C585 1.349 . S
C570 C568 1.327 . S
C570 C589 1.429 . S
C570 H594 0.950 . S
C571 C588 1.574 1_554 S
C571 C590 1.368 . S
C571 H595 0.949 . S
H572 C576 0.949 . S
C573 C574 1.349 . S
C573 C575 1.327 . S
C573 H596 0.950 . S
C574 C573 1.349 . S
C574 C586 1.349 . S
C575 C573 1.327 . S
C575 C591 1.429 . S
C575 H597 0.950 . S
C576 H572 0.949 . S
C576 C584 1.574 1_556 S
C576 C592 1.368 . S
H577 C585 0.950 . S
H578 C583 0.950 . S
H579 C584 0.949 . S
H580 C586 0.950 . S
H581 C587 0.950 . S
H582 C588 0.949 . S
C583 H578 0.950 . S
C583 C585 1.327 . S
C583 C589 1.429 . S
C584 C576 1.574 1_554 S
C584 H579 0.949 . S
C584 C590 1.368 . S
C585 C569 1.349 . S
C585 H577 0.950 . S
C585 C583 1.327 . S
C586 C574 1.349 . S
C586 H580 0.950 . S
C586 C587 1.327 . S
C587 H581 0.950 . S
C587 C586 1.327 . S
C587 C591 1.429 . S
C588 C571 1.574 1_556 S
C588 H582 0.949 . S
C588 C592 1.368 . S
C589 C570 1.429 . S
C589 C583 1.429 . S
C589 C590 1.523 . S
C590 C571 1.368 . S
C590 C584 1.368 . S
C590 C589 1.523 . S
C591 C575 1.429 . S
C591 C587 1.429 . S
C591 C592 1.523 . S
C592 C576 1.368 . S
C592 C588 1.368 . S
C592 C591 1.523 . S
H593 C568 0.950 . S
H594 C570 0.950 . S
H595 C571 0.949 . S
H596 C573 0.950 . S
H597 C575 0.950 . S
C598 C599 1.349 . S
C598 C600 1.327 . S
C598 H623 0.950 . S
C599 C598 1.349 . S
C599 C615 1.349 . S
C600 C598 1.327 . S
C600 C619 1.429 . S
C600 H624 0.950 . S
C601 C618 1.574 . S
C601 C620 1.368 . S
C601 H625 0.949 . S
H602 C606 0.949 . S
C603 C604 1.349 . S
C603 C605 1.327 . S
C603 H626 0.950 . S
C604 C603 1.349 . S
C604 C616 1.349 . S
C605 C603 1.327 . S
C605 C621 1.429 . S
C605 H627 0.950 . S
C606 H602 0.949 . S
C606 C614 1.574 . S
C606 C622 1.368 . S
H607 C615 0.950 . S
H608 C613 0.950 . S
H609 C614 0.949 . S
H610 C616 0.950 . S
H611 C617 0.950 . S
H612 C618 0.949 . S
C613 H608 0.950 . S
C613 C615 1.327 . S
C613 C619 1.429 . S
C614 C606 1.574 . S
C614 H609 0.949 . S
C614 C620 1.368 . S
C615 C599 1.349 . S
C615 H607 0.950 . S
C615 C613 1.327 . S
C616 C604 1.349 . S
C616 H610 0.950 . S
C616 C617 1.327 . S
C617 H611 0.950 . S
C617 C616 1.327 . S
C617 C621 1.429 . S
C618 C601 1.574 . S
C618 H612 0.949 . S
C618 C622 1.368 . S
C619 C600 1.429 . S
C619 C613 1.429 . S
C619 C620 1.523 . S
C620 C601 1.368 . S
C620 C614 1.368 . S
C620 C619 1.523 . S
C621 C605 1.429 . S
C621 C617 1.429 . S
C621 C622 1.523 . S
C622 C606 1.368 . S
C622 C618 1.368 . S
C622 C621 1.523 . S
H623 C598 0.950 . S
H624 C600 0.950 . S
H625 C601 0.949 . S
H626 C603 0.950 . S
H627 C605 0.950 . S
C628 C629 1.349 . S
C628 C630 1.327 . S
C628 H653 0.950 . S
C629 C628 1.349 . S
C629 C645 1.349 . S
C630 C628 1.327 . S
C630 C649 1.429 . S
C630 H654 0.950 . S
C631 C648 1.574 . S
C631 C650 1.368 . S
C631 H655 0.949 . S
H632 C636 0.949 . S
C633 C634 1.349 . S
C633 C635 1.327 . S
C633 H656 0.950 . S
C634 C633 1.349 . S
C634 C646 1.349 . S
C635 C633 1.327 . S
C635 C651 1.429 . S
C635 H657 0.950 . S
C636 H632 0.949 . S
C636 C644 1.574 . S
C636 C652 1.368 . S
H637 C645 0.950 . S
H638 C643 0.950 . S
H639 C644 0.949 . S
H640 C646 0.950 . S
H641 C647 0.950 . S
H642 C648 0.949 . S
C643 H638 0.950 . S
C643 C645 1.327 . S
C643 C649 1.429 . S
C644 C636 1.574 . S
C644 H639 0.949 . S
C644 C650 1.368 . S
C645 C629 1.349 . S
C645 H637 0.950 . S
C645 C643 1.327 . S
C646 C634 1.349 . S
C646 H640 0.950 . S
C646 C647 1.327 . S
C647 H641 0.950 . S
C647 C646 1.327 . S
C647 C651 1.429 . S
C648 C631 1.574 . S
C648 H642 0.949 . S
C648 C652 1.368 . S
C649 C630 1.429 . S
C649 C643 1.429 . S
C649 C650 1.523 . S
C650 C631 1.368 . S
C650 C644 1.368 . S
C650 C649 1.523 . S
C651 C635 1.429 . S
C651 C647 1.429 . S
C651 C652 1.523 . S
C652 C636 1.368 . S
C652 C648 1.368 . S
C652 C651 1.523 . S
H653 C628 0.950 . S
H654 C630 0.950 . S
H655 C631 0.949 . S
H656 C633 0.950 . S
H657 C635 0.950 . S
C658 C659 1.349 . S
C658 C660 1.327 . S
C658 H683 0.950 . S
C659 C658 1.349 . S
C659 C675 1.349 . S
C660 C658 1.327 . S
C660 C679 1.429 . S
C660 H684 0.950 . S
C661 C678 1.574 . S
C661 C680 1.368 . S
C661 H685 0.949 . S
H662 C666 0.949 . S
C663 C664 1.349 . S
C663 C665 1.327 . S
C663 H686 0.950 . S
C664 C663 1.349 . S
C664 C676 1.349 . S
C665 C663 1.327 . S
C665 C681 1.429 . S
C665 H687 0.950 . S
C666 H662 0.949 . S
C666 C674 1.574 . S
C666 C682 1.368 . S
H667 C675 0.950 . S
H668 C673 0.950 . S
H669 C674 0.949 . S
H670 C676 0.950 . S
H671 C677 0.950 . S
H672 C678 0.949 . S
C673 H668 0.950 . S
C673 C675 1.327 . S
C673 C679 1.429 . S
C674 C666 1.574 . S
C674 H669 0.949 . S
C674 C680 1.368 . S
C675 C659 1.349 . S
C675 H667 0.950 . S
C675 C673 1.327 . S
C676 C664 1.349 . S
C676 H670 0.950 . S
C676 C677 1.327 . S
C677 H671 0.950 . S
C677 C676 1.327 . S
C677 C681 1.429 . S
C678 C661 1.574 . S
C678 H672 0.949 . S
C678 C682 1.368 . S
C679 C660 1.429 . S
C679 C673 1.429 . S
C679 C680 1.523 . S
C680 C661 1.368 . S
C680 C674 1.368 . S
C680 C679 1.523 . S
C681 C665 1.429 . S
C681 C677 1.429 . S
C681 C682 1.523 . S
C682 C666 1.368 . S
C682 C678 1.368 . S
C682 C681 1.523 . S
H683 C658 0.950 . S
H684 C660 0.950 . S
H685 C661 0.949 . S
H686 C663 0.950 . S
H687 C665 0.950 . S
C688 C689 1.349 . S
C688 C690 1.327 . S
C688 H713 0.950 . S
C689 C688 1.349 . S
C689 C705 1.349 . S
C690 C688 1.327 . S
C690 C709 1.429 . S
C690 H714 0.950 . S
C691 C708 1.574 1_455 S
C691 C710 1.368 1_565 S
C691 H715 0.949 . S
H692 C696 0.949 . S
C693 C694 1.349 . S
C693 C695 1.327 . S
C693 H716 0.950 . S
C694 C693 1.349 . S
C694 C706 1.349 . S
C695 C693 1.327 . S
C695 C711 1.429 . S
C695 H717 0.950 . S
C696 H692 0.949 . S
C696 C704 1.574 1_655 S
C696 C712 1.368 1_545 S
H697 C705 0.950 . S
H698 C703 0.950 . S
H699 C704 0.949 . S
H700 C706 0.950 . S
H701 C707 0.950 . S
H702 C708 0.949 . S
C703 H698 0.950 . S
C703 C705 1.327 . S
C703 C709 1.429 . S
C704 C696 1.574 1_455 S
C704 H699 0.949 . S
C704 C710 1.368 . S
C705 C689 1.349 . S
C705 H697 0.950 . S
C705 C703 1.327 . S
C706 C694 1.349 . S
C706 H700 0.950 . S
C706 C707 1.327 . S
C707 H701 0.950 . S
C707 C706 1.327 . S
C707 C711 1.429 . S
C708 C691 1.574 1_655 S
C708 H702 0.949 . S
C708 C712 1.368 . S
C709 C690 1.429 . S
C709 C703 1.429 . S
C709 C710 1.523 . S
C710 C691 1.368 1_545 S
C710 C704 1.368 . S
C710 C709 1.523 . S
C711 C695 1.429 . S
C711 C707 1.429 . S
C711 C712 1.523 . S
C712 C696 1.368 1_565 S
C712 C708 1.368 . S
C712 C711 1.523 . S
H713 C688 0.950 . S
H714 C690 0.950 . S
H715 C691 0.949 . S
H716 C693 0.950 . S
H717 C695 0.950 . S
C718 C719 1.349 . S
C718 C720 1.327 . S
C718 H743 0.950 . S
C719 C718 1.349 . S
C719 C735 1.349 . S
C720 C718 1.327 . S
C720 C739 1.429 . S
C720 H744 0.950 . S
C721 C738 1.574 . S
C721 C740 1.368 1_655 S
C721 H745 0.949 . S
H722 C726 0.949 . S
C723 C724 1.349 . S
C723 C725 1.327 . S
C723 H746 0.950 . S
C724 C723 1.349 . S
C724 C736 1.349 . S
C725 C723 1.327 . S
C725 C741 1.429 . S
C725 H747 0.950 . S
C726 H722 0.949 . S
C726 C734 1.574 . S
C726 C742 1.368 1_455 S
H727 C735 0.950 . S
H728 C733 0.950 . S
H729 C734 0.949 . S
H730 C736 0.950 . S
H731 C737 0.950 . S
H732 C738 0.949 . S
C733 H728 0.950 . S
C733 C735 1.327 . S
C733 C739 1.429 . S
C734 C726 1.574 . S
C734 H729 0.949 . S
C734 C740 1.368 . S
C735 C719 1.349 . S
C735 H727 0.950 . S
C735 C733 1.327 . S
C736 C724 1.349 . S
C736 H730 0.950 . S
C736 C737 1.327 . S
C737 H731 0.950 . S
C737 C736 1.327 . S
C737 C741 1.429 . S
C738 C721 1.574 . S
C738 H732 0.949 . S
C738 C742 1.368 . S
C739 C720 1.429 . S
C739 C733 1.429 . S
C739 C740 1.523 . S
C740 C721 1.368 1_455 S
C740 C734 1.368 . S
C740 C739 1.523 . S
C741 C725 1.429 . S
C741 C737 1.429 . S
C741 C742 1.523 . S
C742 C726 1.368 1_655 S
C742 C738 1.368 . S
C742 C741 1.523 . S
H743 C718 0.950 . S
H744 C720 0.950 . S
H745 C721 0.949 . S
H746 C723 0.950 . S
H747 C725 0.950 . S
C748 C749 1.349 . S
C748 C750 1.327 . S
C748 H773 0.950 . S
C749 C748 1.349 . S
C749 C765 1.349 . S
C750 C748 1.327 . S
C750 C769 1.429 . S
C750 H774 0.950 . S
C751 C768 1.574 . S
C751 C770 1.368 . S
C751 H775 0.949 . S
H752 C756 0.949 . S
C753 C754 1.349 . S
C753 C755 1.327 . S
C753 H776 0.950 . S
C754 C753 1.349 . S
C754 C766 1.349 . S
C755 C753 1.327 . S
C755 C771 1.429 . S
C755 H777 0.950 . S
C756 H752 0.949 . S
C756 C764 1.574 . S
C756 C772 1.368 . S
H757 C765 0.950 . S
H758 C763 0.950 . S
H759 C764 0.949 . S
H760 C766 0.950 . S
H761 C767 0.950 . S
H762 C768 0.949 . S
C763 H758 0.950 . S
C763 C765 1.327 . S
C763 C769 1.429 . S
C764 C756 1.574 . S
C764 H759 0.949 . S
C764 C770 1.368 . S
C765 C749 1.349 . S
C765 H757 0.950 . S
C765 C763 1.327 . S
C766 C754 1.349 . S
C766 H760 0.950 . S
C766 C767 1.327 . S
C767 H761 0.950 . S
C767 C766 1.327 . S
C767 C771 1.429 . S
C768 C751 1.574 . S
C768 H762 0.949 . S
C768 C772 1.368 . S
C769 C750 1.429 . S
C769 C763 1.429 . S
C769 C770 1.523 . S
C770 C751 1.368 . S
C770 C764 1.368 . S
C770 C769 1.523 . S
C771 C755 1.429 . S
C771 C767 1.429 . S
C771 C772 1.523 . S
C772 C756 1.368 . S
C772 C768 1.368 . S
C772 C771 1.523 . S
H773 C748 0.950 . S
H774 C750 0.950 . S
H775 C751 0.949 . S
H776 C753 0.950 . S
H777 C755 0.950 . S
C778 C779 1.349 . S
C778 C780 1.327 . S
C778 H803 0.950 . S
C779 C778 1.349 . S
C779 C795 1.349 . S
C780 C778 1.327 . S
C780 C799 1.429 . S
C780 H804 0.950 . S
C781 C798 1.574 1_545 S
C781 C800 1.368 . S
C781 H805 0.949 . S
H782 C786 0.949 . S
C783 C784 1.349 . S
C783 C785 1.327 . S
C783 H806 0.950 . S
C784 C783 1.349 . S
C784 C796 1.349 . S
C785 C783 1.327 . S
C785 C801 1.429 . S
C785 H807 0.950 . S
C786 H782 0.949 . S
C786 C794 1.574 1_565 S
C786 C802 1.368 . S
H787 C795 0.950 . S
H788 C793 0.950 . S
H789 C794 0.949 . S
H790 C796 0.950 . S
H791 C797 0.950 . S
H792 C798 0.949 . S
C793 H788 0.950 . S
C793 C795 1.327 . S
C793 C799 1.429 . S
C794 C786 1.574 1_545 S
C794 H789 0.949 . S
C794 C800 1.368 . S
C795 C779 1.349 . S
C795 H787 0.950 . S
C795 C793 1.327 . S
C796 C784 1.349 . S
C796 H790 0.950 . S
C796 C797 1.327 . S
C797 H791 0.950 . S
C797 C796 1.327 . S
C797 C801 1.429 . S
C798 C781 1.574 1_565 S
C798 H792 0.949 . S
C798 C802 1.368 . S
C799 C780 1.429 . S
C799 C793 1.429 . S
C799 C800 1.523 . S
C800 C781 1.368 . S
C800 C794 1.368 . S
C800 C799 1.523 . S
C801 C785 1.429 . S
C801 C797 1.429 . S
C801 C802 1.523 . S
C802 C786 1.368 . S
C802 C798 1.368 . S
C802 C801 1.523 . S
H803 C778 0.950 . S
H804 C780 0.950 . S
H805 C781 0.949 . S
H806 C783 0.950 . S
H807 C785 0.950 . S
C808 C809 1.349 . S
C808 C810 1.327 . S
C808 H833 0.950 . S
C809 C808 1.349 . S
C809 C825 1.349 . S
C810 C808 1.327 . S
C810 C829 1.429 . S
C810 H834 0.950 . S
C811 C828 1.574 1_455 S
C811 C830 1.368 . S
C811 H835 0.949 . S
H812 C816 0.949 . S
C813 C814 1.349 . S
C813 C815 1.327 . S
C813 H836 0.950 . S
C814 C813 1.349 . S
C814 C826 1.349 . S
C815 C813 1.327 . S
C815 C831 1.429 . S
C815 H837 0.950 . S
C816 H812 0.949 . S
C816 C824 1.574 1_655 S
C816 C832 1.368 . S
H817 C825 0.950 . S
H818 C823 0.950 . S
H819 C824 0.949 . S
H820 C826 0.950 . S
H821 C827 0.950 . S
H822 C828 0.949 . S
C823 H818 0.950 . S
C823 C825 1.327 . S
C823 C829 1.429 . S
C824 C816 1.574 1_455 S
C824 H819 0.949 . S
C824 C830 1.368 . S
C825 C809 1.349 . S
C825 H817 0.950 . S
C825 C823 1.327 . S
C826 C814 1.349 . S
C826 H820 0.950 . S
C826 C827 1.327 . S
C827 H821 0.950 . S
C827 C826 1.327 . S
C827 C831 1.429 . S
C828 C811 1.574 1_655 S
C828 H822 0.949 . S
C828 C832 1.368 . S
C829 C810 1.429 . S
C829 C823 1.429 . S
C829 C830 1.523 . S
C830 C811 1.368 . S
C830 C824 1.368 . S
C830 C829 1.523 . S
C831 C815 1.429 . S
C831 C827 1.429 . S
C831 C832 1.523 . S
C832 C816 1.368 . S
C832 C828 1.368 . S
C832 C831 1.523 . S
H833 C808 0.950 . S
H834 C810 0.950 . S
H835 C811 0.949 . S
H836 C813 0.950 . S
H837 C815 0.950 . S
C838 C839 1.349 . S
C838 C840 1.327 . S
C838 H863 0.950 . S
C839 C838 1.349 . S
C839 C855 1.349 . S
C840 C838 1.327 . S
C840 C859 1.429 . S
C840 H864 0.950 . S
C841 C858 1.574 . S
C841 C860 1.368 . S
C841 H865 0.949 . S
H842 C846 0.949 . S
C843 C844 1.349 . S
C843 C845 1.327 . S
C843 H866 0.950 . S
C844 C843 1.349 . S
C844 C856 1.349 . S
C845 C843 1.327 . S
C845 C861 1.429 . S
C845 H867 0.950 . S
C846 H842 0.949 . S
C846 C854 1.574 . S
C846 C862 1.368 . S
H847 C855 0.950 . S
H848 C853 0.950 . S
H849 C854 0.949 . S
H850 C856 0.950 . S
H851 C857 0.950 . S
H852 C858 0.949 . S
C853 H848 0.950 . S
C853 C855 1.327 . S
C853 C859 1.429 . S
C854 C846 1.574 . S
C854 H849 0.949 . S
C854 C860 1.368 . S
C855 C839 1.349 . S
C855 H847 0.950 . S
C855 C853 1.327 . S
C856 C844 1.349 . S
C856 H850 0.950 . S
C856 C857 1.327 . S
C857 H851 0.950 . S
C857 C856 1.327 . S
C857 C861 1.429 . S
C858 C841 1.574 . S
C858 H852 0.949 . S
C858 C862 1.368 . S
C859 C840 1.429 . S
C859 C853 1.429 . S
C859 C860 1.523 . S
C860 C841 1.368 . S
C860 C854 1.368 . S
C860 C859 1.523 . S
C861 C845 1.429 . S
C861 C857 1.429 . S
C861 C862 1.523 . S
C862 C846 1.368 . S
C862 C858 1.368 . S
C862 C861 1.523 . S
H863 C838 0.950 . S
H864 C840 0.950 . S
H865 C841 0.949 . S
H866 C843 0.950 . S
H867 C845 0.950 . S
C868 C869 1.349 . S
C868 C870 1.327 . S
C868 H893 0.950 . S
C869 C868 1.349 . S
C869 C885 1.349 . S
C870 C868 1.327 . S
C870 C889 1.429 . S
C870 H894 0.950 . S
C871 C888 1.574 . S
C871 C890 1.368 . S
C871 H895 0.949 . S
H872 C876 0.949 . S
C873 C874 1.349 . S
C873 C875 1.327 . S
C873 H896 0.950 . S
C874 C873 1.349 . S
C874 C886 1.349 . S
C875 C873 1.327 . S
C875 C891 1.429 . S
C875 H897 0.950 . S
C876 H872 0.949 . S
C876 C884 1.574 . S
C876 C892 1.368 . S
H877 C885 0.950 . S
H878 C883 0.950 . S
H879 C884 0.949 . S
H880 C886 0.950 . S
H881 C887 0.950 . S
H882 C888 0.949 . S
C883 H878 0.950 . S
C883 C885 1.327 . S
C883 C889 1.429 . S
C884 C876 1.574 . S
C884 H879 0.949 . S
C884 C890 1.368 1_545 S
C885 C869 1.349 . S
C885 H877 0.950 . S
C885 C883 1.327 . S
C886 C874 1.349 . S
C886 H880 0.950 . S
C886 C887 1.327 . S
C887 H881 0.950 . S
C887 C886 1.327 . S
C887 C891 1.429 . S
C888 C871 1.574 . S
C888 H882 0.949 . S
C888 C892 1.368 1_565 S
C889 C870 1.429 . S
C889 C883 1.429 . S
C889 C890 1.523 . S
C890 C871 1.368 . S
C890 C884 1.368 1_565 S
C890 C889 1.523 . S
C891 C875 1.429 . S
C891 C887 1.429 . S
C891 C892 1.523 . S
C892 C876 1.368 . S
C892 C888 1.368 1_545 S
C892 C891 1.523 . S
H893 C868 0.950 . S
H894 C870 0.950 . S
H895 C871 0.949 . S
H896 C873 0.950 . S
H897 C875 0.950 . S
C898 C899 1.349 . S
C898 C900 1.327 . S
C898 H923 0.950 . S
C899 C898 1.349 . S
C899 C915 1.349 . S
C900 C898 1.327 . S
C900 C919 1.429 . S
C900 H924 0.950 . S
C901 C918 1.574 1_545 S
C901 C920 1.368 . S
C901 H925 0.949 . S
H902 C906 0.949 . S
C903 C904 1.349 . S
C903 C905 1.327 . S
C903 H926 0.950 . S
C904 C903 1.349 . S
C904 C916 1.349 . S
C905 C903 1.327 . S
C905 C921 1.429 . S
C905 H927 0.950 . S
C906 H902 0.949 . S
C906 C914 1.574 1_565 S
C906 C922 1.368 . S
H907 C915 0.950 . S
H908 C913 0.950 . S
H909 C914 0.949 . S
H910 C916 0.950 . S
H911 C917 0.950 . S
H912 C918 0.949 . S
C913 H908 0.950 . S
C913 C915 1.327 . S
C913 C919 1.429 . S
C914 C906 1.574 1_545 S
C914 H909 0.949 . S
C914 C920 1.368 1_655 S
C915 C899 1.349 . S
C915 H907 0.950 . S
C915 C913 1.327 . S
C916 C904 1.349 . S
C916 H910 0.950 . S
C916 C917 1.327 . S
C917 H911 0.950 . S
C917 C916 1.327 . S
C917 C921 1.429 . S
C918 C901 1.574 1_565 S
C918 H912 0.949 . S
C918 C922 1.368 1_455 S
C919 C900 1.429 . S
C919 C913 1.429 . S
C919 C920 1.523 . S
C920 C901 1.368 . S
C920 C914 1.368 1_455 S
C920 C919 1.523 . S
C921 C905 1.429 . S
C921 C917 1.429 . S
C921 C922 1.523 . S
C922 C906 1.368 . S
C922 C918 1.368 1_655 S
C922 C921 1.523 . S
H923 C898 0.950 . S
H924 C900 0.950 . S
H925 C901 0.949 . S
H926 C903 0.950 . S
H927 C905 0.950 . S
C928 C929 1.349 . S
C928 C930 1.327 . S
C928 H953 0.950 . S
C929 C928 1.349 . S
C929 C945 1.349 . S
C930 C928 1.327 . S
C930 C949 1.429 . S
C930 H954 0.950 . S
C931 C948 1.574 . S
C931 C950 1.368 1_545 S
C931 H955 0.949 . S
H932 C936 0.949 . S
C933 C934 1.349 . S
C933 C935 1.327 . S
C933 H956 0.950 . S
C934 C933 1.349 . S
C934 C946 1.349 . S
C935 C933 1.327 . S
C935 C951 1.429 . S
C935 H957 0.950 . S
C936 H932 0.949 . S
C936 C944 1.574 . S
C936 C952 1.368 1_565 S
H937 C945 0.950 . S
H938 C943 0.950 . S
H939 C944 0.949 . S
H940 C946 0.950 . S
H941 C947 0.950 . S
H942 C948 0.949 . S
C943 H938 0.950 . S
C943 C945 1.327 . S
C943 C949 1.429 . S
C944 C936 1.574 . S
C944 H939 0.949 . S
C944 C950 1.368 . S
C945 C929 1.349 . S
C945 H937 0.950 . S
C945 C943 1.327 . S
C946 C934 1.349 . S
C946 H940 0.950 . S
C946 C947 1.327 . S
C947 H941 0.950 . S
C947 C946 1.327 . S
C947 C951 1.429 . S
C948 C931 1.574 . S
C948 H942 0.949 . S
C948 C952 1.368 . S
C949 C930 1.429 . S
C949 C943 1.429 . S
C949 C950 1.523 . S
C950 C931 1.368 1_565 S
C950 C944 1.368 . S
C950 C949 1.523 . S
C951 C935 1.429 . S
C951 C947 1.429 . S
C951 C952 1.523 . S
C952 C936 1.368 1_545 S
C952 C948 1.368 . S
C952 C951 1.523 . S
H953 C928 0.950 . S
H954 C930 0.950 . S
H955 C931 0.949 . S
H956 C933 0.950 . S
H957 C935 0.950 . S
C958 C959 1.349 . S
C958 C960 1.327 . S
C958 H983 0.950 . S
C959 C958 1.349 . S
C959 C975 1.349 . S
C960 C958 1.327 . S
C960 C979 1.429 . S
C960 H984 0.950 . S
C961 C978 1.574 1_565 S
C961 C980 1.368 1_455 S
C961 H985 0.949 . S
H962 C966 0.949 . S
C963 C964 1.349 . S
C963 C965 1.327 . S
C963 H986 0.950 . S
C964 C963 1.349 . S
C964 C976 1.349 . S
C965 C963 1.327 . S
C965 C981 1.429 . S
C965 H987 0.950 . S
C966 H962 0.949 . S
C966 C974 1.574 1_545 S
C966 C982 1.368 1_655 S
H967 C975 0.950 . S
H968 C973 0.950 . S
H969 C974 0.949 . S
H970 C976 0.950 . S
H971 C977 0.950 . S
H972 C978 0.949 . S
C973 H968 0.950 . S
C973 C975 1.327 . S
C973 C979 1.429 . S
C974 C966 1.574 1_565 S
C974 H969 0.949 . S
C974 C980 1.368 . S
C975 C959 1.349 . S
C975 H967 0.950 . S
C975 C973 1.327 . S
C976 C964 1.349 . S
C976 H970 0.950 . S
C976 C977 1.327 . S
C977 H971 0.950 . S
C977 C976 1.327 . S
C977 C981 1.429 . S
C978 C961 1.574 1_545 S
C978 H972 0.949 . S
C978 C982 1.368 . S
C979 C960 1.429 . S
C979 C973 1.429 . S
C979 C980 1.523 . S
C980 C961 1.368 1_655 S
C980 C974 1.368 . S
C980 C979 1.523 . S
C981 C965 1.429 . S
C981 C977 1.429 . S
C981 C982 1.523 . S
C982 C966 1.368 1_455 S
C982 C978 1.368 . S
C982 C981 1.523 . S
H983 C958 0.950 . S
H984 C960 0.950 . S
H985 C961 0.949 . S
H986 C963 0.950 . S
H987 C965 0.950 . S
C988 C989 1.349 . S
C988 C990 1.327 . S
C988 H1013 0.950 . S
C989 C988 1.349 . S
C989 C1005 1.349 . S
C990 C988 1.327 . S
C990 C1009 1.429 . S
C990 H1014 0.950 . S
C991 C1008 1.574 1_455 S
C991 C1010 1.368 . S
C991 H1015 0.949 . S
H992 C996 0.949 . S
C993 C994 1.349 . S
C993 C995 1.327 . S
C993 H1016 0.950 . S
C994 C993 1.349 . S
C994 C1006 1.349 . S
C995 C993 1.327 . S
C995 C1011 1.429 . S
C995 H1017 0.950 . S
C996 H992 0.949 . S
C996 C1004 1.574 1_655 S
C996 C1012 1.368 . S
H997 C1005 0.950 . S
H998 C1003 0.950 . S
H999 C1004 0.949 . S
H1000 C1006 0.950 . S
H1001 C1007 0.950 . S
H1002 C1008 0.949 . S
C1003 H998 0.950 . S
C1003 C1005 1.327 . S
C1003 C1009 1.429 . S
C1004 C996 1.574 1_455 S
C1004 H999 0.949 . S
C1004 C1010 1.368 . S
C1005 C989 1.349 . S
C1005 H997 0.950 . S
C1005 C1003 1.327 . S
C1006 C994 1.349 . S
C1006 H1000 0.950 . S
C1006 C1007 1.327 . S
C1007 H1001 0.950 . S
C1007 C1006 1.327 . S
C1007 C1011 1.429 . S
C1008 C991 1.574 1_655 S
C1008 H1002 0.949 . S
C1008 C1012 1.368 . S
C1009 C990 1.429 . S
C1009 C1003 1.429 . S
C1009 C1010 1.523 . S
C1010 C991 1.368 . S
C1010 C1004 1.368 . S
C1010 C1009 1.523 . S
C1011 C995 1.429 . S
C1011 C1007 1.429 . S
C1011 C1012 1.523 . S
C1012 C996 1.368 . S
C1012 C1008 1.368 . S
C1012 C1011 1.523 . S
H1013 C988 0.950 . S
H1014 C990 0.950 . S
H1015 C991 0.949 . S
H1016 C993 0.950 . S
H1017 C995 0.950 . S
C1018 C1019 1.349 . S
C1018 C1020 1.327 . S
C1018 H1043 0.950 . S
C1019 C1018 1.349 . S
C1019 C1035 1.349 . S
C1020 C1018 1.327 . S
C1020 C1039 1.429 . S
C1020 H1044 0.950 . S
C1021 C1038 1.574 . S
C1021 C1040 1.368 . S
C1021 H1045 0.949 . S
H1022 C1026 0.949 . S
C1023 C1024 1.349 . S
C1023 C1025 1.327 . S
C1023 H1046 0.950 . S
C1024 C1023 1.349 . S
C1024 C1036 1.349 . S
C1025 C1023 1.327 . S
C1025 C1041 1.429 . S
C1025 H1047 0.950 . S
C1026 H1022 0.949 . S
C1026 C1034 1.574 . S
C1026 C1042 1.368 . S
H1027 C1035 0.950 . S
H1028 C1033 0.950 . S
H1029 C1034 0.949 . S
H1030 C1036 0.950 . S
H1031 C1037 0.950 . S
H1032 C1038 0.949 . S
C1033 H1028 0.950 . S
C1033 C1035 1.327 . S
C1033 C1039 1.429 . S
C1034 C1026 1.574 . S
C1034 H1029 0.949 . S
C1034 C1040 1.368 . S
C1035 C1019 1.349 . S
C1035 H1027 0.950 . S
C1035 C1033 1.327 . S
C1036 C1024 1.349 . S
C1036 H1030 0.950 . S
C1036 C1037 1.327 . S
C1037 H1031 0.950 . S
C1037 C1036 1.327 . S
C1037 C1041 1.429 . S
C1038 C1021 1.574 . S
C1038 H1032 0.949 . S
C1038 C1042 1.368 . S
C1039 C1020 1.429 . S
C1039 C1033 1.429 . S
C1039 C1040 1.523 . S
C1040 C1021 1.368 . S
C1040 C1034 1.368 . S
C1040 C1039 1.523 . S
C1041 C1025 1.429 . S
C1041 C1037 1.429 . S
C1041 C1042 1.523 . S
C1042 C1026 1.368 . S
C1042 C1038 1.368 . S
C1042 C1041 1.523 . S
H1043 C1018 0.950 . S
H1044 C1020 0.950 . S
H1045 C1021 0.949 . S
H1046 C1023 0.950 . S
H1047 C1025 0.950 . S
C1048 C1049 1.349 . S
C1048 C1050 1.327 . S
C1048 H1073 0.950 . S
C1049 C1048 1.349 . S
C1049 C1065 1.349 . S
C1050 C1048 1.327 . S
C1050 C1069 1.429 . S
C1050 H1074 0.950 . S
C1051 C1068 1.574 . S
C1051 C1070 1.368 . S
C1051 H1075 0.949 . S
H1052 C1056 0.949 . S
C1053 C1054 1.349 . S
C1053 C1055 1.327 . S
C1053 H1076 0.950 . S
C1054 C1053 1.349 . S
C1054 C1066 1.349 . S
C1055 C1053 1.327 . S
C1055 C1071 1.429 . S
C1055 H1077 0.950 . S
C1056 H1052 0.949 . S
C1056 C1064 1.574 . S
C1056 C1072 1.368 . S
H1057 C1065 0.950 . S
H1058 C1063 0.950 . S
H1059 C1064 0.949 . S
H1060 C1066 0.950 . S
H1061 C1067 0.950 . S
H1062 C1068 0.949 . S
C1063 H1058 0.950 . S
C1063 C1065 1.327 . S
C1063 C1069 1.429 . S
C1064 C1056 1.574 . S
C1064 H1059 0.949 . S
C1064 C1070 1.368 . S
C1065 C1049 1.349 . S
C1065 H1057 0.950 . S
C1065 C1063 1.327 . S
C1066 C1054 1.349 . S
C1066 H1060 0.950 . S
C1066 C1067 1.327 . S
C1067 H1061 0.950 . S
C1067 C1066 1.327 . S
C1067 C1071 1.429 . S
C1068 C1051 1.574 . S
C1068 H1062 0.949 . S
C1068 C1072 1.368 . S
C1069 C1050 1.429 . S
C1069 C1063 1.429 . S
C1069 C1070 1.523 . S
C1070 C1051 1.368 . S
C1070 C1064 1.368 . S
C1070 C1069 1.523 . S
C1071 C1055 1.429 . S
C1071 C1067 1.429 . S
C1071 C1072 1.523 . S
C1072 C1056 1.368 . S
C1072 C1068 1.368 . S
C1072 C1071 1.523 . S
H1073 C1048 0.950 . S
H1074 C1050 0.950 . S
H1075 C1051 0.949 . S
H1076 C1053 0.950 . S
H1077 C1055 0.950 . S
C1078 C1079 1.349 . S
C1078 C1080 1.327 . S
C1078 H1103 0.950 . S
C1079 C1078 1.349 . S
C1079 C1095 1.349 . S
C1080 C1078 1.327 . S
C1080 C1099 1.429 . S
C1080 H1104 0.950 . S
C1081 C1098 1.574 1_545 S
C1081 C1100 1.368 . S
C1081 H1105 0.949 . S
H1082 C1086 0.949 . S
C1083 C1084 1.349 . S
C1083 C1085 1.327 . S
C1083 H1106 0.950 . S
C1084 C1083 1.349 . S
C1084 C1096 1.349 . S
C1085 C1083 1.327 . S
C1085 C1101 1.429 . S
C1085 H1107 0.950 . S
C1086 H1082 0.949 . S
C1086 C1094 1.574 1_565 S
C1086 C1102 1.368 . S
H1087 C1095 0.950 . S
H1088 C1093 0.950 . S
H1089 C1094 0.949 . S
H1090 C1096 0.950 . S
H1091 C1097 0.950 . S
H1092 C1098 0.949 . S
C1093 H1088 0.950 . S
C1093 C1095 1.327 . S
C1093 C1099 1.429 . S
C1094 C1086 1.574 1_545 S
C1094 H1089 0.949 . S
C1094 C1100 1.368 . S
C1095 C1079 1.349 . S
C1095 H1087 0.950 . S
C1095 C1093 1.327 . S
C1096 C1084 1.349 . S
C1096 H1090 0.950 . S
C1096 C1097 1.327 . S
C1097 H1091 0.950 . S
C1097 C1096 1.327 . S
C1097 C1101 1.429 . S
C1098 C1081 1.574 1_565 S
C1098 H1092 0.949 . S
C1098 C1102 1.368 . S
C1099 C1080 1.429 . S
C1099 C1093 1.429 . S
C1099 C1100 1.523 . S
C1100 C1081 1.368 . S
C1100 C1094 1.368 . S
C1100 C1099 1.523 . S
C1101 C1085 1.429 . S
C1101 C1097 1.429 . S
C1101 C1102 1.523 . S
C1102 C1086 1.368 . S
C1102 C1098 1.368 . S
C1102 C1101 1.523 . S
H1103 C1078 0.950 . S
H1104 C1080 0.950 . S
H1105 C1081 0.949 . S
H1106 C1083 0.950 . S
H1107 C1085 0.950 . S
C1108 C1109 1.349 . S
C1108 C1110 1.327 . S
C1108 H1133 0.950 . S
C1109 C1108 1.349 . S
C1109 C1125 1.349 . S
C1110 C1108 1.327 . S
C1110 C1129 1.429 . S
C1110 H1134 0.950 . S
C1111 C1128 1.574 1_655 S
C1111 C1130 1.368 1_545 S
C1111 H1135 0.949 . S
H1112 C1116 0.949 . S
C1113 C1114 1.349 . S
C1113 C1115 1.327 . S
C1113 H1136 0.950 . S
C1114 C1113 1.349 . S
C1114 C1126 1.349 . S
C1115 C1113 1.327 . S
C1115 C1131 1.429 . S
C1115 H1137 0.950 . S
C1116 H1112 0.949 . S
C1116 C1124 1.574 1_455 S
C1116 C1132 1.368 1_565 S
H1117 C1125 0.950 . S
H1118 C1123 0.950 . S
H1119 C1124 0.949 . S
H1120 C1126 0.950 . S
H1121 C1127 0.950 . S
H1122 C1128 0.949 . S
C1123 H1118 0.950 . S
C1123 C1125 1.327 . S
C1123 C1129 1.429 . S
C1124 C1116 1.574 1_655 S
C1124 H1119 0.949 . S
C1124 C1130 1.368 . S
C1125 C1109 1.349 . S
C1125 H1117 0.950 . S
C1125 C1123 1.327 . S
C1126 C1114 1.349 . S
C1126 H1120 0.950 . S
C1126 C1127 1.327 . S
C1127 H1121 0.950 . S
C1127 C1126 1.327 . S
C1127 C1131 1.429 . S
C1128 C1111 1.574 1_455 S
C1128 H1122 0.949 . S
C1128 C1132 1.368 . S
C1129 C1110 1.429 . S
C1129 C1123 1.429 . S
C1129 C1130 1.523 . S
C1130 C1111 1.368 1_565 S
C1130 C1124 1.368 . S
C1130 C1129 1.523 . S
C1131 C1115 1.429 . S
C1131 C1127 1.429 . S
C1131 C1132 1.523 . S
C1132 C1116 1.368 1_545 S
C1132 C1128 1.368 . S
C1132 C1131 1.523 . S
H1133 C1108 0.950 . S
H1134 C1110 0.950 . S
H1135 C1111 0.949 . S
H1136 C1113 0.950 . S
H1137 C1115 0.950 . S
C1138 C1139 1.349 . S
C1138 C1140 1.327 . S
C1138 H1163 0.950 . S
C1139 C1138 1.349 . S
C1139 C1155 1.349 . S
C1140 C1138 1.327 . S
C1140 C1159 1.429 . S
C1140 H1164 0.950 . S
C1141 C1158 1.574 . S
C1141 C1160 1.368 1_455 S
C1141 H1165 0.949 . S
H1142 C1146 0.949 . S
C1143 C1144 1.349 . S
C1143 C1145 1.327 . S
C1143 H1166 0.950 . S
C1144 C1143 1.349 . S
C1144 C1156 1.349 . S
C1145 C1143 1.327 . S
C1145 C1161 1.429 . S
C1145 H1167 0.950 . S
C1146 H1142 0.949 . S
C1146 C1154 1.574 . S
C1146 C1162 1.368 1_655 S
H1147 C1155 0.950 . S
H1148 C1153 0.950 . S
H1149 C1154 0.949 . S
H1150 C1156 0.950 . S
H1151 C1157 0.950 . S
H1152 C1158 0.949 . S
C1153 H1148 0.950 . S
C1153 C1155 1.327 . S
C1153 C1159 1.429 . S
C1154 C1146 1.574 . S
C1154 H1149 0.949 . S
C1154 C1160 1.368 . S
C1155 C1139 1.349 . S
C1155 H1147 0.950 . S
C1155 C1153 1.327 . S
C1156 C1144 1.349 . S
C1156 H1150 0.950 . S
C1156 C1157 1.327 . S
C1157 H1151 0.950 . S
C1157 C1156 1.327 . S
C1157 C1161 1.429 . S
C1158 C1141 1.574 . S
C1158 H1152 0.949 . S
C1158 C1162 1.368 . S
C1159 C1140 1.429 . S
C1159 C1153 1.429 . S
C1159 C1160 1.523 . S
C1160 C1141 1.368 1_655 S
C1160 C1154 1.368 . S
C1160 C1159 1.523 . S
C1161 C1145 1.429 . S
C1161 C1157 1.429 . S
C1161 C1162 1.523 . S
C1162 C1146 1.368 1_455 S
C1162 C1158 1.368 . S
C1162 C1161 1.523 . S
H1163 C1138 0.950 . S
H1164 C1140 0.950 . S
H1165 C1141 0.949 . S
H1166 C1143 0.950 . S
H1167 C1145 0.950 . S
C209 C62 1.576 . S
C214 C10 1.576 . S
C239 C17 1.576 . S
C244 C69 1.576 . S
C269 C88 1.576 . S
C274 C36 1.576 . S
C299 C101 1.576 . S
C304 C43 1.576 . S
C329 C160 1.576 . S
C334 C108 1.576 . S
C359 C127 1.576 . S
C364 C173 1.576 . S
C389 C192 1.576 . S
C394 C140 1.576 . S
C419 C147 1.576 . S
C424 C205 1.576 . S
C449 C3 1.546 . S
C454 C198 1.546 . S
C479 C18 1.546 . S
C484 C161 1.546 . S
C509 C29 1.546 . S
C514 C174 1.546 . S
C539 C185 1.546 . S
C544 C44 1.546 . S
C569 C55 1.546 . S
C574 C120 1.546 . S
C599 C70 1.546 . S
C604 C133 1.546 . S
C629 C148 1.546 . S
C634 C81 1.546 . S
C659 C109 1.546 . S
C664 C94 1.546 . S
C689 C4 1.588 . S
C694 C134 1.588 . S
C719 C153 1.588 . S
C724 C23 1.588 . S
C749 C30 1.588 . S
C754 C114 1.588 . S
C779 C121 1.588 . S
C784 C49 1.588 . S
C809 C56 1.588 . S
C814 C186 1.588 . S
C839 C75 1.588 . S
C844 C199 1.588 . S
C869 C166 1.588 . S
C874 C82 1.588 . S
C899 C179 1.588 . S
C904 C95 1.588 . S
C929 C135 1.432 . S
C934 C5 1.432 . S
C959 C16 1.432 . S
C964 C146 1.432 . S
C989 C31 1.432 . S
C994 C107 1.432 . S
C1019 C122 1.432 . S
C1024 C42 1.432 . S
C1049 C187 1.432 . S
C1054 C57 1.432 . S
C1079 C200 1.432 . S
C1084 C68 1.432 . S
C1109 C159 1.432 . S
C1114 C83 1.432 . S
C1139 C96 1.432 . S
C1144 C172 1.432 . S
