# Generated by pormake.
# Topology lcy-e, (6)-cn, num edge types: 1
# Building blocks:
#     Node 0, Type 0, BuildingBlock: KUMBUR_clean_sbu_0, # of connection points: 6
#     Node 1, Type 0, BuildingBlock: KUMBUR_clean_sbu_0, # of connection points: 6
#     Node 2, Type 0, BuildingBlock: KUMBUR_clean_sbu_0, # of connection points: 6
#     Node 3, Type 0, BuildingBlock: KUMBUR_clean_sbu_0, # of connection points: 6
#     Node 4, Type 0, BuildingBlock: KUMBUR_clean_sbu_0, # of connection points: 6
#     Node 5, Type 0, BuildingBlock: KUMBUR_clean_sbu_0, # of connection points: 6
#     Node 6, Type 0, BuildingBlock: KUMBUR_clean_sbu_0, # of connection points: 6
#     Node 7, Type 0, BuildingBlock: KUMBUR_clean_sbu_0, # of connection points: 6
#     Node 8, Type 0, BuildingBlock: KUMBUR_clean_sbu_0, # of connection points: 6
#     Node 9, Type 0, BuildingBlock: KUMBUR_clean_sbu_0, # of connection points: 6
#     Node 10, Type 0, BuildingBlock: KUMBUR_clean_sbu_0, # of connection points: 6
#     Node 11, Type 0, BuildingBlock: KUMBUR_clean_sbu_0, # of connection points: 6
#     Edge 12, Type (0, 0), BuildingBlock: ZUJKAS_clean_linker_0, # of connection points: 2
#     Edge 13, Type (0, 0), BuildingBlock: ZUJKAS_clean_linker_0, # of connection points: 2
#     Edge 14, Type (0, 0), BuildingBlock: ZUJKAS_clean_linker_0, # of connection points: 2
#     Edge 15, Type (0, 0), BuildingBlock: ZUJKAS_clean_linker_0, # of connection points: 2
#     Edge 16, Type (0, 0), BuildingBlock: ZUJKAS_clean_linker_0, # of connection points: 2
#     Edge 17, Type (0, 0), BuildingBlock: ZUJKAS_clean_linker_0, # of connection points: 2
#     Edge 18, Type (0, 0), BuildingBlock: ZUJKAS_clean_linker_0, # of connection points: 2
#     Edge 19, Type (0, 0), BuildingBlock: ZUJKAS_clean_linker_0, # of connection points: 2
#     Edge 20, Type (0, 0), BuildingBlock: ZUJKAS_clean_linker_0, # of connection points: 2
#     Edge 21, Type (0, 0), BuildingBlock: ZUJKAS_clean_linker_0, # of connection points: 2
#     Edge 22, Type (0, 0), BuildingBlock: ZUJKAS_clean_linker_0, # of connection points: 2
#     Edge 23, Type (0, 0), BuildingBlock: ZUJKAS_clean_linker_0, # of connection points: 2
#     Edge 24, Type (0, 0), BuildingBlock: ZUJKAS_clean_linker_0, # of connection points: 2
#     Edge 25, Type (0, 0), BuildingBlock: ZUJKAS_clean_linker_0, # of connection points: 2
#     Edge 26, Type (0, 0), BuildingBlock: ZUJKAS_clean_linker_0, # of connection points: 2
#     Edge 27, Type (0, 0), BuildingBlock: ZUJKAS_clean_linker_0, # of connection points: 2
#     Edge 28, Type (0, 0), BuildingBlock: ZUJKAS_clean_linker_0, # of connection points: 2
#     Edge 29, Type (0, 0), BuildingBlock: ZUJKAS_clean_linker_0, # of connection points: 2
#     Edge 30, Type (0, 0), BuildingBlock: ZUJKAS_clean_linker_0, # of connection points: 2
#     Edge 31, Type (0, 0), BuildingBlock: ZUJKAS_clean_linker_0, # of connection points: 2
#     Edge 32, Type (0, 0), BuildingBlock: ZUJKAS_clean_linker_0, # of connection points: 2
#     Edge 33, Type (0, 0), BuildingBlock: ZUJKAS_clean_linker_0, # of connection points: 2
#     Edge 34, Type (0, 0), BuildingBlock: ZUJKAS_clean_linker_0, # of connection points: 2
#     Edge 35, Type (0, 0), BuildingBlock: ZUJKAS_clean_linker_0, # of connection points: 2
#     Edge 36, Type (0, 0), BuildingBlock: ZUJKAS_clean_linker_0, # of connection points: 2
#     Edge 37, Type (0, 0), BuildingBlock: ZUJKAS_clean_linker_0, # of connection points: 2
#     Edge 38, Type (0, 0), BuildingBlock: ZUJKAS_clean_linker_0, # of connection points: 2
#     Edge 39, Type (0, 0), BuildingBlock: ZUJKAS_clean_linker_0, # of connection points: 2
#     Edge 40, Type (0, 0), BuildingBlock: ZUJKAS_clean_linker_0, # of connection points: 2
#     Edge 41, Type (0, 0), BuildingBlock: ZUJKAS_clean_linker_0, # of connection points: 2
#     Edge 42, Type (0, 0), BuildingBlock: ZUJKAS_clean_linker_0, # of connection points: 2
#     Edge 43, Type (0, 0), BuildingBlock: ZUJKAS_clean_linker_0, # of connection points: 2
#     Edge 44, Type (0, 0), BuildingBlock: ZUJKAS_clean_linker_0, # of connection points: 2
#     Edge 45, Type (0, 0), BuildingBlock: ZUJKAS_clean_linker_0, # of connection points: 2
#     Edge 46, Type (0, 0), BuildingBlock: ZUJKAS_clean_linker_0, # of connection points: 2
#     Edge 47, Type (0, 0), BuildingBlock: ZUJKAS_clean_linker_0, # of connection points: 2
# Relax obj value: 0.117
# Max RMSD: 0.280
# Mean RMSD: 0.279
data_MOF--net-lcy-e--node1-KUMBUR_clean_sbu_0--edge1-ZUJKAS_clean_linker_0
_symmetry_space_group_name_H-M    P1
_symmetry_Int_Tables_number       1
_symmetry_cell_setting            triclinic
loop_
_symmetry_equiv_pos_as_xyz
'x, y, z'
_cell_length_a     53.665763
_cell_length_b     53.665059
_cell_length_c     53.734698
_cell_angle_alpha  90.029077
_cell_angle_beta   89.992255
_cell_angle_gamma 90.407069
loop_
_atom_site_label
_atom_site_type_symbol
_atom_site_fract_x
_atom_site_fract_y
_atom_site_fract_z
_atom_type_partial_charge
Tb0 Tb 0.14688 0.21337 0.51965 0.0
C1 C 0.08456 0.23385 0.43912 0.0
C2 C 0.10045 0.22181 0.39878 0.0
C3 C 0.05628 0.21772 0.4074 0.0
C4 C 0.10444 0.2307 0.42325 0.0
C5 C 0.06012 0.22793 0.43111 0.0
C6 C 0.07645 0.21458 0.39126 0.0
C7 C 0.04457 0.24569 0.46909 0.0
N8 N 0.08889 0.24461 0.4616 0.0
C9 C 0.06901 0.25161 0.476 0.0
C10 C 0.0401 0.23347 0.44669 0.0
Tb11 Tb 0.12979 0.25486 0.47079 0.0
N12 N 0.12711 0.23912 0.43072 0.0
C13 C 0.14541 0.24266 0.41313 0.0
C14 C 0.1203 0.22221 0.38197 0.0
C15 C 0.14273 0.23331 0.38901 0.0
H16 H 0.07128 0.2626 0.49248 0.0
H17 H 0.15775 0.23527 0.3757 0.0
H18 H 0.0731 0.20752 0.37265 0.0
H19 H 0.02915 0.25105 0.48086 0.0
H20 H 0.16237 0.25253 0.41778 0.0
H21 H 0.16281 0.28481 0.58905 0.0
H22 H 0.118 0.21553 0.36307 0.0
H23 H 0.17836 0.1615 0.51019 0.0
H24 H 0.13763 0.25885 0.5608 0.0
H25 H 0.22091 0.14575 0.5179 0.0
H26 H 0.03769 0.21288 0.40107 0.0
H27 H 0.20801 0.27713 0.59337 0.0
H28 H 0.2448 0.24998 0.58334 0.0
H29 H 0.02111 0.2292 0.44122 0.0
H30 H 0.26081 0.21176 0.56379 0.0
N31 N 0.16822 0.23744 0.54797 0.0
C32 C 0.15726 0.25543 0.56216 0.0
C33 C 0.19703 0.26582 0.58071 0.0
C34 C 0.20779 0.24612 0.56756 0.0
C35 C 0.17152 0.27013 0.57839 0.0
C36 C 0.19264 0.23208 0.55125 0.0
H37 H 0.25181 0.1723 0.53978 0.0
N38 N 0.18566 0.19701 0.52636 0.0
C39 C 0.21584 0.16425 0.52402 0.0
C40 C 0.20171 0.21094 0.54009 0.0
C41 C 0.19178 0.17318 0.51975 0.0
C42 C 0.23327 0.17933 0.53628 0.0
C43 C 0.22608 0.20274 0.54513 0.0
O44 O 0.13545 0.17668 0.52898 0.0
O45 O 0.1208 0.22029 0.48941 0.0
O46 O 0.11254 0.26792 0.50609 0.0
O47 O 0.11208 0.23149 0.52928 0.0
O48 O 0.13728 0.18597 0.49099 0.0
O49 O 0.13295 0.20599 0.55564 0.0
O50 O 0.1094 0.28812 0.46688 0.0
O51 O 0.14891 0.25194 0.50632 0.0
O52 O 0.17708 0.21146 0.49235 0.0
O53 O 0.15947 0.2299 0.45718 0.0
O54 O 0.16731 0.269 0.47787 0.0
O55 O 0.14495 0.2844 0.44952 0.0
C56 C 0.12101 0.19899 0.47924 0.0
C57 C 0.14056 0.16536 0.57127 0.0
C58 C 0.13761 0.12746 0.59702 0.0
C59 C 0.12748 0.14355 0.57876 0.0
C60 C 0.16076 0.13383 0.6077 0.0
C61 C 0.1635 0.17106 0.58249 0.0
C62 C 0.1735 0.15539 0.6005 0.0
C63 C 0.10444 0.25441 0.52528 0.0
C64 C 0.13033 0.18217 0.55191 0.0
C65 C 0.24188 0.21752 0.55998 0.0
C66 C 0.23276 0.23926 0.57113 0.0
C67 C 0.16866 0.26423 0.50127 0.0
C68 C 0.11406 0.30449 0.4258 0.0
C69 C 0.12861 0.3176 0.40801 0.0
C70 C 0.11892 0.32302 0.38407 0.0
C71 C 0.09471 0.31452 0.37825 0.0
C72 C 0.08974 0.29704 0.41938 0.0
C73 C 0.0803 0.30184 0.39576 0.0
C74 C 0.17723 0.21702 0.4684 0.0
C75 C 0.12465 0.29728 0.45035 0.0
H76 H 0.10973 0.13901 0.57023 0.0
H77 H 0.16894 0.12228 0.62202 0.0
H78 H 0.17367 0.18776 0.57749 0.0
H79 H 0.1912 0.16005 0.60904 0.0
H80 H 0.14728 0.32363 0.4129 0.0
H81 H 0.08683 0.31745 0.35994 0.0
H82 H 0.07798 0.28714 0.43246 0.0
H83 H 0.0617 0.29556 0.39095 0.0
Tb84 Tb 1.01408 0.87561 0.74349 0.0
C85 C 0.07696 0.96117 0.78981 0.0
C86 C 0.11026 0.96965 0.76078 0.0
C87 C 0.09715 1.00188 0.78962 0.0
C88 C 0.09164 0.95364 0.77031 0.0
C89 C 0.07979 0.98522 0.80008 0.0
C90 C 0.1126 0.99399 0.77018 0.0
C91 C 0.05173 0.97291 0.83301 0.0
N92 N 0.06195 0.94388 0.80051 0.0
C93 C 0.05038 0.94904 0.82264 0.0
C94 C 0.06628 0.99122 0.8215 0.0
Tb95 Tb 0.06129 0.90479 0.7831 0.0
N96 N 0.08916 0.92983 0.76223 0.0
C97 C 0.10528 0.92071 0.74477 0.0
C98 C 0.12671 0.96033 0.74296 0.0
C99 C 0.12404 0.93583 0.73472 0.0
H100 H 0.03963 0.93478 0.83203 0.0
H101 H 0.13672 0.92843 0.72096 0.0
H102 H 0.12667 1.00663 0.76296 0.0
H103 H 0.0419 0.97703 0.8501 0.0
H104 H 0.10396 0.9017 0.73846 0.0
H105 H 0.93719 0.84386 0.80077 0.0
H106 H 0.14184 0.97172 0.73582 0.0
H107 H 0.04324 0.84784 0.69666 0.0
H108 H 0.96538 0.87491 0.78226 0.0
H109 H 0.04613 0.80567 0.67876 0.0
H110 H 0.09957 0.02047 0.79716 0.0
H111 H 0.94071 0.7994 0.78922 0.0
H112 H 0.96059 0.76683 0.76215 0.0
H113 H 0.06784 1.00952 0.82991 0.0
H114 H 0.98991 0.75649 0.72848 0.0
N115 N 0.98614 0.84835 0.76136 0.0
C116 C 0.96756 0.85562 0.77715 0.0
C117 C 0.95341 0.81296 0.78117 0.0
C118 C 0.97116 0.80588 0.76353 0.0
C119 C 0.95133 0.83803 0.78768 0.0
C120 C 0.98728 0.82428 0.75373 0.0
H121 H 0.02165 0.77094 0.69698 0.0
N122 N 0.0177 0.83715 0.72517 0.0
C123 C 0.03407 0.80901 0.69455 0.0
C124 C 1.00342 0.81852 0.7347 0.0
C125 C 0.03232 0.83294 0.70472 0.0
C126 C 0.02027 0.78945 0.70491 0.0
C127 C 1.00444 0.79413 0.72505 0.0
O128 O 1.00446 0.88368 0.7063 0.0
O129 O 0.04128 0.90553 0.74836 0.0
O130 O 0.0284 0.92985 0.78263 0.0
O131 O 0.99668 0.90337 0.76756 0.0
O132 O 0.03946 0.88978 0.71429 0.0
O133 O 0.97799 0.88874 0.73591 0.0
O134 O 0.07524 0.89838 0.81921 0.0
O135 O 0.03118 0.87834 0.77975 0.0
O136 O 0.04193 0.84774 0.75272 0.0
O137 O 0.07563 0.87432 0.75878 0.0
O138 O 0.03991 0.89065 0.81469 0.0
O139 O 0.09592 0.88688 0.78707 0.0
C140 C 0.04994 0.90742 0.72666 0.0
C141 C 0.96196 0.87847 0.69599 0.0
C142 C 0.93538 0.88089 0.65894 0.0
C143 C 0.95464 0.89077 0.67399 0.0
C144 C 0.92393 0.85834 0.66608 0.0
C145 C 0.95021 0.856 0.7026 0.0
C146 C 0.93137 0.84601 0.68768 0.0
C147 C 1.0045 0.92428 0.77825 0.0
C148 C 0.98163 0.88941 0.71193 0.0
C149 C 0.98929 0.77541 0.73549 0.0
C150 C 0.97266 0.78128 0.7547 0.0
C151 C 0.02536 0.87603 0.80255 0.0
C152 C 0.11932 0.89906 0.82228 0.0
C153 C 0.13817 0.88289 0.83073 0.0
C154 C 0.16079 0.89268 0.84011 0.0
C155 C 0.16424 0.91863 0.84104 0.0
C156 C 0.12312 0.92489 0.82401 0.0
C157 C 0.14544 0.93459 0.83319 0.0
C158 C 0.06618 0.85191 0.75368 0.0
C159 C 0.09608 0.88902 0.8112 0.0
H160 H 0.96357 0.90821 0.66889 0.0
H161 H 0.90932 0.85007 0.6548 0.0
H162 H 0.95544 0.84623 0.71935 0.0
H163 H 0.92243 0.82864 0.69292 0.0
H164 H 0.13543 0.86289 0.82968 0.0
H165 H 0.1814 0.92658 0.84825 0.0
H166 H 0.10885 0.93764 0.81835 0.0
H167 H 0.14816 0.95457 0.83428 0.0
Tb168 Tb 0.40543 0.75724 0.98106 0.0
C169 C 0.32119 0.81898 0.02832 0.0
C170 C 0.31092 0.84994 0.99751 0.0
C171 C 0.27921 0.83555 0.02652 0.0
C172 C 0.32805 0.83338 1.00834 0.0
C173 C 0.29692 0.82036 0.03821 0.0
C174 C 0.28623 0.8504 1.0062 0.0
C175 C 0.31064 0.79472 0.07241 0.0
N176 N 0.33917 0.80547 0.03956 0.0
C177 C 0.33458 0.79442 0.06208 0.0
C178 C 0.2916 0.80744 0.06021 0.0
Tb179 Tb 0.3778 0.80533 0.0212 0.0
N180 N 0.35211 0.83253 1.0008 0.0
C181 C 0.36073 0.84917 0.98351 0.0
C182 C 0.31941 0.86624 0.97905 0.0
C183 C 0.34451 0.86603 0.97221 0.0
H184 H 0.34923 0.78464 0.07169 0.0
H185 H 0.3514 0.87888 0.95825 0.0
H186 H 0.27269 0.86276 0.9979 0.0
H187 H 0.30696 0.78528 0.08983 0.0
H188 H 0.38007 0.84928 0.97799 0.0
H189 H 0.43172 0.67871 0.03824 0.0
H190 H 0.30691 0.87948 0.97049 0.0
H191 H 0.43557 0.7851 0.93475 0.0
H192 H 0.40264 0.70813 0.01918 0.0
H193 H 0.47814 0.78626 0.91759 0.0
H194 H 0.26036 0.83669 0.03364 0.0
H195 H 0.47659 0.6806 0.02779 0.0
H196 H 0.51079 0.69934 1.0016 0.0
H197 H 0.27317 0.80797 0.06842 0.0
H198 H 0.52338 0.72832 0.96827 0.0
N199 N 0.43075 0.72802 0.99912 0.0
C200 C 0.42214 0.70963 1.01458 0.0
C201 C 0.4639 0.69386 0.01953 0.0
C202 C 0.47232 0.71142 1.0022 0.0
C203 C 0.4386 0.6927 0.02542 0.0
C204 C 0.45502 0.7283 0.99212 0.0
H205 H 0.51121 0.76053 0.93648 0.0
N206 N 0.44439 0.75931 0.96353 0.0
C207 C 0.47389 0.77443 0.93335 0.0
C208 C 0.46206 0.74434 0.97339 0.0
C209 C 0.44972 0.77366 0.94312 0.0
C210 C 0.49252 0.75993 0.9441 0.0
C211 C 0.48665 0.74436 0.96418 0.0
O212 O 0.39667 0.7488 0.94361 0.0
O213 O 0.37728 0.78571 0.98608 0.0
O214 O 0.35134 0.77331 0.02025 0.0
O215 O 0.37657 0.74101 1.00488 0.0
O216 O 0.39337 0.78345 0.95205 0.0
O217 O 0.39024 0.72191 0.97239 0.0
O218 O 0.38603 0.81949 0.05697 0.0
O219 O 0.40254 0.7741 0.01748 0.0
O220 O 0.43405 0.78476 0.99045 0.0
O221 O 0.40855 0.819 0.99695 0.0
O222 O 0.39234 0.78423 0.05265 0.0
O223 O 0.39513 0.84065 0.02437 0.0
C224 C 0.37629 0.79456 0.96442 0.0
C225 C 0.39859 0.70631 0.93177 0.0
C226 C 0.39283 0.6784 0.89573 0.0
C227 C 0.38428 0.69806 0.91109 0.0
C228 C 0.41603 0.66765 0.90119 0.0
C229 C 0.42166 0.69519 0.9365 0.0
C230 C 0.4303 0.67606 0.92127 0.0
C231 C 0.35586 0.74936 1.01535 0.0
C232 C 0.38932 0.7262 0.94853 0.0
C233 C 0.50432 0.72846 0.97492 0.0
C234 C 0.49716 0.71201 0.99393 0.0
C235 C 0.40563 0.76882 0.04029 0.0
C236 C 0.38463 0.86359 0.06047 0.0
C237 C 0.40079 0.88219 0.07024 0.0
C238 C 0.391 0.90433 0.08069 0.0
C239 C 0.36498 0.90726 0.08145 0.0
C240 C 0.35882 0.86721 0.06174 0.0
C241 C 0.3491 0.88883 0.07214 0.0
C242 C 0.43066 0.8091 0.9921 0.0
C243 C 0.3945 0.84071 0.04859 0.0
H244 H 0.3664 0.70652 0.90732 0.0
H245 H 0.42331 0.65278 0.8897 0.0
H246 H 0.43298 0.70118 0.95206 0.0
H247 H 0.44815 0.66761 0.92511 0.0
H248 H 0.42078 0.87963 0.06934 0.0
H249 H 0.35682 0.92377 0.08961 0.0
H250 H 0.34609 0.8533 0.05476 0.0
H251 H 0.32912 0.89133 0.07299 0.0
Tb252 Tb 0.52451 0.15189 0.22617 0.0
C253 C 0.46789 0.06263 0.2682 0.0
C254 C 0.43925 0.05224 0.23486 0.0
C255 C 0.45422 0.01968 0.2623 0.0
C256 C 0.45405 0.06989 0.24774 0.0
C257 C 0.46747 0.03756 0.27615 0.0
C258 C 0.44007 0.02702 0.24173 0.0
C259 C 0.49008 0.05025 0.3129 0.0
N260 N 0.47995 0.08049 0.28156 0.0
C261 C 0.48968 0.07487 0.30445 0.0
C262 C 0.47936 0.03142 0.29846 0.0
Tb263 Tb 0.47942 0.11981 0.26482 0.0
N264 N 0.45351 0.0945 0.24174 0.0
C265 C 0.4363 0.10288 0.22492 0.0
C266 C 0.42326 0.0606 0.21617 0.0
C267 C 0.42137 0.08607 0.2116 0.0
H268 H 0.49802 0.08911 0.31595 0.0
H269 H 0.40844 0.09282 0.19774 0.0
H270 H 0.42908 0.01319 0.23185 0.0
H271 H 0.49857 0.04583 0.33061 0.0
H272 H 0.43418 0.12237 0.22094 0.0
H273 H 0.60036 0.18093 0.28613 0.0
H274 H 0.41165 0.04765 0.20581 0.0
H275 H 0.49602 0.1821 0.18068 0.0
H276 H 0.57312 0.15067 0.26493 0.0
H277 H 0.49213 0.22552 0.16606 0.0
H278 H 0.45395 1.0003 0.26795 0.0
H279 H 0.59533 0.22608 0.27854 0.0
H280 H 0.57437 0.2602 0.25438 0.0
H281 H 0.47946 0.01239 0.30519 0.0
H282 H 0.54512 0.27238 0.22129 0.0
N283 N 0.55165 0.17828 0.2463 0.0
C284 C 0.57044 0.17026 0.26145 0.0
C285 C 0.5831 0.21286 0.26929 0.0
C286 C 0.56512 0.22086 0.2523 0.0
C287 C 0.58606 0.1874 0.27354 0.0
C288 C 0.54965 0.20286 0.24086 0.0
H289 H 0.51468 0.25948 0.18786 0.0
N290 N 0.52005 0.19146 0.21086 0.0
C291 C 0.50374 0.22134 0.18196 0.0
C292 C 0.53342 0.2097 0.22227 0.0
C293 C 0.50605 0.19675 0.19025 0.0
C294 C 0.51644 0.24047 0.19436 0.0
C295 C 0.53184 0.23472 0.21455 0.0
O296 O 0.53342 0.14631 0.18836 0.0
O297 O 0.4988 0.12073 0.22975 0.0
O298 O 0.51336 0.09629 0.26593 0.0
O299 O 0.5431 0.12231 0.24668 0.0
O300 O 0.49953 0.13824 0.1964 0.0
O301 O 0.56128 0.14202 0.21673 0.0
O302 O 0.46375 0.14829 0.28696 0.0
O303 O 0.50807 0.1482 0.2631 0.0
O304 O 0.4945 0.17734 0.23563 0.0
O305 O 0.46268 0.14834 0.24019 0.0
O306 O 0.50399 0.12836 0.29582 0.0
O307 O 0.44553 0.11301 0.28369 0.0
C308 C 0.49015 0.1195 0.20803 0.0
C309 C 0.575 0.15449 0.17652 0.0
C310 C 0.60177 0.15418 0.13937 0.0
C311 C 0.58456 0.14212 0.15538 0.0
C312 C 0.60884 0.17892 0.14487 0.0
C313 C 0.58263 0.17899 0.18154 0.0
C314 C 0.5994 0.1911 0.16577 0.0
C315 C 0.53661 0.10179 0.25885 0.0
C316 C 0.55677 0.14181 0.19288 0.0
C317 C 0.54621 0.25298 0.22676 0.0
C318 C 0.56283 0.24606 0.24563 0.0
C319 C 0.51668 0.1458 0.28512 0.0
C320 C 0.4387 0.13539 0.32087 0.0
C321 C 0.4146 0.14247 0.32841 0.0
C322 C 0.40802 0.14273 0.35385 0.0
C323 C 0.42609 0.13601 0.37156 0.0
C324 C 0.45633 0.12882 0.33892 0.0
C325 C 0.45002 0.12918 0.36411 0.0
C326 C 0.47057 0.17149 0.23609 0.0
C327 C 0.44501 0.13477 0.29415 0.0
H328 H 0.57881 0.12309 0.15163 0.0
H329 H 0.62149 0.18908 0.13282 0.0
H330 H 0.57562 0.18879 0.19761 0.0
H331 H 0.60504 0.21011 0.1697 0.0
H332 H 0.4009 0.14739 0.31446 0.0
H333 H 0.42182 0.13634 0.39126 0.0
H334 H 0.47494 0.12345 0.33362 0.0
H335 H 0.46376 0.12416 0.37794 0.0
Tb336 Tb 0.63405 0.26057 0.54542 0.0
C337 C 0.71858 0.32462 0.5031 0.0
C338 C 0.72654 0.35477 0.53553 0.0
C339 C 0.76029 0.34175 0.50845 0.0
C340 C 0.71029 0.33827 0.52297 0.0
C341 C 0.74349 0.32673 0.495 0.0
C342 C 0.7518 0.35583 0.5287 0.0
C343 C 0.73229 0.30211 0.45903 0.0
N344 N 0.70151 0.31119 0.49022 0.0
C345 C 0.7077 0.30105 0.46765 0.0
C346 C 0.75039 0.31468 0.47298 0.0
Tb347 Tb 0.6618 0.30912 0.50617 0.0
N348 N 0.68575 0.33679 0.52872 0.0
C349 C 0.67587 0.35289 0.54578 0.0
C350 C 0.71669 0.37039 0.55381 0.0
C351 C 0.69118 0.36967 0.55871 0.0
H352 H 0.69375 0.29136 0.45675 0.0
H353 H 0.68326 0.38202 0.57249 0.0
H354 H 0.76468 0.36807 0.53838 0.0
H355 H 0.73721 0.29336 0.44157 0.0
H356 H 0.65625 0.35271 0.54997 0.0
H357 H 0.60215 0.18426 0.4874 0.0
H358 H 0.72844 0.3836 0.56364 0.0
H359 H 0.60665 0.28921 0.59284 0.0
H360 H 0.6332 0.21256 0.50574 0.0
H361 H 0.56478 0.29133 0.61151 0.0
H362 H 0.7796 0.34339 0.50274 0.0
H363 H 0.55792 0.1869 0.5 0.0
H364 H 0.52567 0.20582 0.52813 0.0
H365 H 0.76935 0.31578 0.46611 0.0
H366 H 0.51558 0.23455 0.5624 0.0
N367 N 0.60685 0.23248 0.5277 0.0
C368 C 0.61401 0.21433 0.51135 0.0
C369 C 0.57148 0.19962 0.50802 0.0
C370 C 0.56455 0.21693 0.52616 0.0
C371 C 0.59642 0.19804 0.50091 0.0
C372 C 0.58293 0.23313 0.53587 0.0
H373 H 0.53014 0.26632 0.59385 0.0
N374 N 0.5959 0.26349 0.5645 0.0
C375 C 0.56805 0.27935 0.59565 0.0
C376 C 0.57732 0.24894 0.55524 0.0
C377 C 0.59182 0.27802 0.58504 0.0
C378 C 0.54853 0.26523 0.58561 0.0
C379 C 0.55309 0.24954 0.56532 0.0
O380 O 0.64312 0.25072 0.58231 0.0
O381 O 0.66336 0.28837 0.54042 0.0
O382 O 0.68663 0.27595 0.50442 0.0
O383 O 0.66153 0.24375 0.52076 0.0
O384 O 0.64828 0.28579 0.57478 0.0
O385 O 0.64761 0.2245 0.55239 0.0
O386 O 0.65699 0.32418 0.47021 0.0
O387 O 0.6361 0.27839 0.50939 0.0
O388 O 0.60537 0.28758 0.53644 0.0
O389 O 0.63056 0.32236 0.53035 0.0
O390 O 0.64757 0.28801 0.47438 0.0
O391 O 0.64209 0.34275 0.50216 0.0
C392 C 0.66547 0.29674 0.56219 0.0
C393 C 0.63851 0.20815 0.5925 0.0
C394 C 0.64219 0.18088 0.629 0.0
C395 C 0.65183 0.20005 0.61365 0.0
C396 C 0.61885 0.17036 0.62301 0.0
C397 C 0.61536 0.19719 0.58701 0.0
C398 C 0.6056 0.17849 0.60222 0.0
C399 C 0.68172 0.25194 0.50907 0.0
C400 C 0.64892 0.22798 0.57639 0.0
C401 C 0.53438 0.23426 0.55505 0.0
C402 C 0.54011 0.21796 0.5355 0.0
C403 C 0.63338 0.27301 0.48652 0.0
C404 C 0.65497 0.36829 0.46876 0.0
C405 C 0.63854 0.38558 0.45771 0.0
C406 C 0.64738 0.40923 0.44994 0.0
C407 C 0.67277 0.41506 0.45307 0.0
C408 C 0.68021 0.37467 0.47138 0.0
C409 C 0.68902 0.39786 0.46358 0.0
C410 C 0.60853 0.31197 0.53545 0.0
C411 C 0.64573 0.34403 0.47826 0.0
H412 H 0.66981 0.20836 0.61786 0.0
H413 H 0.61064 0.15595 0.63457 0.0
H414 H 0.60484 0.20299 0.57094 0.0
H415 H 0.58767 0.17022 0.59787 0.0
H416 H 0.61898 0.38088 0.45565 0.0
H417 H 0.68014 0.43294 0.44711 0.0
H418 H 0.69315 0.36175 0.47951 0.0
H419 H 0.70855 0.40256 0.46576 0.0
Tb420 Tb 0.97419 0.4062 0.75896 0.0
C421 C 0.01897 0.32066 0.8205 0.0
C422 C 0.98729 0.31052 0.85081 0.0
C423 C 0.01581 0.27849 0.83672 0.0
C424 C 0.99895 0.3277 0.83465 0.0
C425 C 0.02823 0.29618 0.82187 0.0
C426 C 0.99539 0.28568 0.85125 0.0
C427 C 0.06334 0.30966 0.79709 0.0
N428 N 0.03093 0.3386 0.80734 0.0
C429 C 0.0536 0.33377 0.79675 0.0
C430 C 0.05039 0.29065 0.80938 0.0
Tb431 Tb 1.01364 0.37759 0.80711 0.0
N432 N 0.99219 0.35196 0.83399 0.0
C433 C 0.97497 0.36068 0.85057 0.0
C434 C 0.96859 0.31907 0.86671 0.0
C435 C 0.96269 0.34436 0.86687 0.0
H436 H 0.06376 0.34842 0.78729 0.0
H437 H 0.94862 0.35131 0.87947 0.0
H438 H 0.98657 0.27212 0.86339 0.0
H439 H 0.0809 0.3058 0.788 0.0
H440 H 0.97006 0.38012 0.85095 0.0
H441 H 0.03382 0.43818 0.68409 0.0
H442 H 0.95911 0.30649 0.87939 0.0
H443 H 0.92488 0.43283 0.78476 0.0
H444 H 0.01435 0.40707 0.7115 0.0
H445 H 0.90532 0.47417 0.78554 0.0
H446 H 0.02246 0.2595 0.83788 0.0
H447 H 0.02165 0.48245 0.68698 0.0
H448 H 0.99298 0.51458 0.70522 0.0
H449 H 0.05813 0.27207 0.80993 0.0
H450 H 0.95738 0.52429 0.7324 0.0
N451 N 0.99265 0.43351 0.73154 0.0
C452 C 1.00913 0.42632 0.71353 0.0
C453 C 1.01329 0.46889 0.69943 0.0
C454 C 0.99478 0.4758 0.71635 0.0
C455 C 0.02015 0.44393 0.6977 0.0
C456 C 0.98466 0.45741 0.73223 0.0
H457 H 0.92412 0.50915 0.76196 0.0
N458 N 0.95496 0.44418 0.76134 0.0
C459 C 0.92214 0.47129 0.77483 0.0
C460 C 0.9648 0.46289 0.74742 0.0
C461 C 0.93332 0.44781 0.77432 0.0
C462 C 0.93283 0.49101 0.76154 0.0
C463 C 0.95426 0.48687 0.74734 0.0
O464 O 0.93789 0.39384 0.74963 0.0
O465 O 0.97902 0.3774 0.78687 0.0
O466 O 1.01304 0.35206 0.77452 0.0
O467 O 0.99923 0.37882 0.74278 0.0
O468 O 0.94467 0.39248 0.78412 0.0
O469 O 0.9666 0.39458 0.7221 0.0
O470 O 0.04946 0.38436 0.82197 0.0
O471 O 1.01064 0.40323 0.77631 0.0
O472 O 0.98147 0.43423 0.78748 0.0
O473 O 0.98949 0.408 0.82107 0.0
O474 O 0.04558 0.39263 0.78695 0.0
O475 O 0.01675 0.39498 0.84219 0.0
C476 C 0.95723 0.37558 0.79529 0.0
C477 C 0.9248 0.40049 0.70825 0.0
C478 C 0.88632 0.39622 0.68352 0.0
C479 C 0.90459 0.38575 0.69936 0.0
C480 C 0.88885 0.42135 0.67653 0.0
C481 C 0.92678 0.42542 0.70066 0.0
C482 C 0.90896 0.43571 0.6849 0.0
C483 C 1.00886 0.35756 0.75065 0.0
C484 C 0.94305 0.39028 0.7263 0.0
C485 C 0.96502 0.50565 0.73255 0.0
C486 C 0.98531 0.50014 0.71711 0.0
C487 C 0.03371 0.4065 0.77166 0.0
C488 C 0.05158 0.3829 0.86608 0.0
C489 C 0.06064 0.39875 0.88516 0.0
C490 C 0.06992 0.38862 0.90764 0.0
C491 C 0.07018 0.36256 0.91047 0.0
C492 C 0.0523 0.35703 0.86956 0.0
C493 C 0.0615 0.34697 0.89157 0.0
C494 C 0.98383 0.43017 0.81166 0.0
C495 C 0.04092 0.39324 0.84286 0.0
H496 H 0.90278 0.3665 0.7052 0.0
H497 H 0.87526 0.42989 0.66437 0.0
H498 H 0.94203 0.43702 0.70703 0.0
H499 H 0.91066 0.455 0.67925 0.0
H500 H 0.06014 0.41877 0.88267 0.0
H501 H 0.07752 0.35414 0.92723 0.0
H502 H 0.04583 0.34453 0.85526 0.0
H503 H 0.06196 0.32695 0.89397 0.0
Tb504 Tb 0.89976 0.76864 0.06258 0.0
C505 C 0.8125 0.71214 1.01113 0.0
C506 C 0.80104 0.67928 0.03968 0.0
C507 C 0.77055 0.69475 1.01016 0.0
C508 C 0.81856 0.69669 0.03054 0.0
C509 C 0.78856 0.7111 1.00033 0.0
C510 C 0.77684 0.6787 0.02968 0.0
C511 C 0.8032 0.73956 0.9687 0.0
N512 N 0.83078 0.7267 1.00149 0.0
C513 C 0.8268 0.73936 0.97972 0.0
C514 C 0.78387 0.7256 0.97924 0.0
Tb515 Tb 0.86924 0.72483 0.02011 0.0
N516 N 0.84225 0.69751 0.03923 0.0
C517 C 0.84992 0.6804 0.05645 0.0
C518 C 0.8086 0.66241 0.05797 0.0
C519 C 0.83318 0.66294 0.06633 0.0
H520 H 0.84181 0.74959 0.97098 0.0
H521 H 0.83934 0.64978 0.08025 0.0
H522 H 0.76306 0.66555 0.03654 0.0
H523 H 0.80005 0.75015 0.95187 0.0
H524 H 0.86891 0.68024 0.06296 0.0
H525 H 0.93466 0.84674 1.00889 0.0
H526 H 0.79576 0.64864 0.06541 0.0
H527 H 0.9263 0.73619 0.10783 0.0
H528 H 0.9024 0.81923 0.02644 0.0
H529 H 0.96849 0.73022 0.12496 0.0
H530 H 0.75201 0.69373 1.00221 0.0
H531 H 0.97901 0.84032 0.01952 0.0
H532 H 1.01083 0.81741 0.04501 0.0
H533 H 0.76572 0.72537 0.97041 0.0
H534 H 0.02002 0.78599 0.07708 0.0
N535 N 0.92811 0.7962 0.04592 0.0
C536 C 0.92162 0.81588 0.03117 0.0
C537 C 0.96491 0.82796 0.02715 0.0
C538 C 0.97127 0.80899 0.04376 0.0
C539 C 0.9399 0.83168 0.02118 0.0
C540 C 0.95219 0.79338 0.05304 0.0
H541 H 1.00426 0.7536 0.10731 0.0
N542 N 0.93808 0.76234 0.08035 0.0
C543 C 0.96561 0.74314 0.10978 0.0
C544 C 0.95733 0.77605 0.0712 0.0
C545 C 0.9417 0.74664 0.10008 0.0
C546 C 0.98577 0.75633 0.09974 0.0
C547 C 0.98172 0.77331 0.08042 0.0
O548 O 0.89182 0.77627 0.10024 0.0
O549 O 0.8689 0.74308 0.05584 0.0
O550 O 0.84546 0.75848 0.02156 0.0
O551 O 0.87256 0.78821 0.03952 0.0
O552 O 0.88419 0.74228 0.09018 0.0
O553 O 0.88895 0.805 0.07256 0.0
O554 O 0.87991 0.71411 0.98399 0.0
O555 O 0.89725 0.75327 0.02551 0.0
O556 O 0.92641 0.74021 0.05185 0.0
O557 O 0.89874 0.70784 0.04386 0.0
O558 O 0.88399 0.74795 0.99013 0.0
O559 O 0.88157 0.68795 1.01409 0.0
C560 C 0.86631 0.73333 0.07697 0.0
C561 C 0.90023 0.81736 0.11356 0.0
C562 C 0.89974 0.8426 0.15174 0.0
C563 C 0.88777 0.82597 0.13505 0.0
C564 C 0.92448 0.84992 0.14669 0.0
C565 C 0.92473 0.82532 0.10899 0.0
C566 C 0.93678 0.84139 0.1255 0.0
C567 C 0.85187 0.78184 0.02751 0.0
C568 C 0.88777 0.79981 0.09625 0.0
C569 C 1.00108 0.78792 0.0704 0.0
C570 C 0.99586 0.80576 0.05209 0.0
C571 C 0.8993 0.76093 1.0032 0.0
C572 C 0.87306 0.67176 0.97385 0.0
C573 C 0.88714 0.65084 0.96661 0.0
C574 C 0.87744 0.63328 0.94936 0.0
C575 C 0.85335 0.63734 0.93968 0.0
C576 C 0.84895 0.67467 0.96431 0.0
C577 C 0.83922 0.65761 0.94737 0.0
C578 C 0.92143 0.71623 0.04944 0.0
C579 C 0.88407 0.69109 0.99022 0.0
H580 H 0.86874 0.82004 0.13852 0.0
H581 H 0.93452 0.86216 0.15927 0.0
H582 H 0.93461 0.81914 0.09268 0.0
H583 H 0.95577 0.84725 0.12187 0.0
H584 H 0.90557 0.64844 0.97441 0.0
H585 H 0.84538 0.62519 0.92568 0.0
H586 H 0.83775 0.69041 0.96947 0.0
H587 H 0.82075 0.66035 0.93979 0.0
Tb588 Tb 0.50353 0.64979 0.30627 0.0
C589 C 0.56328 0.56652 0.25505 0.0
C590 C 0.5944 0.55468 0.28511 0.0
C591 C 0.57927 0.52426 0.2551 0.0
C592 C 0.57791 0.57239 0.27515 0.0
C593 C 0.5643 0.54263 0.24417 0.0
C594 C 0.59439 0.53031 0.27554 0.0
C595 C 0.53916 0.5582 0.21042 0.0
N596 N 0.55013 0.58515 0.24452 0.0
C597 C 0.53926 0.5817 0.2217 0.0
C598 C 0.5514 0.53843 0.22193 0.0
Tb599 Tb 0.55051 0.62306 0.2644 0.0
N600 N 0.57752 0.5962 0.28351 0.0
C601 C 0.59473 0.60404 0.30064 0.0
C602 C 0.61118 0.56233 0.30351 0.0
C603 C 0.61158 0.58724 0.31104 0.0
H604 H 0.52989 0.59696 0.21261 0.0
H605 H 0.62489 0.59356 0.32483 0.0
H606 H 0.60666 0.51631 0.28318 0.0
H607 H 0.52981 0.55541 0.19278 0.0
H608 H 0.5953 0.62319 0.30672 0.0
H609 H 0.42535 0.68065 0.25086 0.0
H610 H 0.62437 0.54937 0.31143 0.0
H611 H 0.53253 0.67721 0.3536 0.0
H612 H 0.45407 0.65 0.26837 0.0
H613 H 0.53481 0.71892 0.37267 0.0
H614 H 0.58012 0.50569 0.24723 0.0
H615 H 0.42845 0.72494 0.26331 0.0
H616 H 0.44818 0.75743 0.2909 0.0
H617 H 0.55166 0.52033 0.21298 0.0
H618 H 0.47762 0.76777 0.32458 0.0
N619 N 0.47489 0.67665 0.2895 0.0
C620 C 0.45617 0.66923 0.27382 0.0
C621 C 0.44144 0.71156 0.27088 0.0
C622 C 0.45931 0.71874 0.28845 0.0
C623 C 0.4396 0.68659 0.26387 0.0
C624 C 0.47582 0.70058 0.29761 0.0
H625 H 0.50972 0.7534 0.35553 0.0
N626 N 0.50673 0.6879 0.32547 0.0
C627 C 0.52277 0.71566 0.35683 0.0
C628 C 0.4921 0.70636 0.31656 0.0
C629 C 0.52136 0.69199 0.34597 0.0
C630 C 0.50862 0.73509 0.34707 0.0
C631 C 0.49278 0.7305 0.32688 0.0
O632 O 0.49513 0.63988 0.34347 0.0
O633 O 0.53113 0.62082 0.29973 0.0
O634 O 0.5171 0.59805 0.26285 0.0
O635 O 0.48604 0.62261 0.28147 0.0
O636 O 0.52991 0.63609 0.3343 0.0
O637 O 0.46785 0.63536 0.31471 0.0
O638 O 0.56476 0.63207 0.22884 0.0
O639 O 0.51989 0.64822 0.26959 0.0
O640 O 0.53134 0.67836 0.29771 0.0
O641 O 0.56506 0.65262 0.28978 0.0
O642 O 0.52982 0.63986 0.23386 0.0
O643 O 0.58581 0.64054 0.26162 0.0
C644 C 0.54033 0.61908 0.32124 0.0
C645 C 0.45285 0.64352 0.35561 0.0
C646 C 0.42722 0.63982 0.39363 0.0
C647 C 0.4456 0.63018 0.37728 0.0
C648 C 0.41614 0.66274 0.38747 0.0
C649 C 0.44151 0.66637 0.3504 0.0
C650 C 0.42328 0.67583 0.36618 0.0
C651 C 0.49336 0.60285 0.26867 0.0
C652 C 0.4722 0.63368 0.33851 0.0
C653 C 0.47726 0.74903 0.31707 0.0
C654 C 0.46054 0.74316 0.29785 0.0
C655 C 0.51474 0.65281 0.24699 0.0
C656 C 0.60889 0.6309 0.22534 0.0
C657 C 0.62759 0.64729 0.2161 0.0
C658 C 0.64974 0.63773 0.2054 0.0
C659 C 0.65252 0.61172 0.20383 0.0
C660 C 0.61243 0.60513 0.22332 0.0
C661 C 0.63403 0.59565 0.21266 0.0
C662 C 0.5556 0.67471 0.29566 0.0
C663 C 0.58593 0.64044 0.23741 0.0
H664 H 0.45446 0.61262 0.38153 0.0
H665 H 0.4016 0.67054 0.39901 0.0
H666 H 0.44661 0.6769 0.33401 0.0
H667 H 0.41453 0.69341 0.36182 0.0
H668 H 0.62509 0.66725 0.2176 0.0
H669 H 0.66897 0.60372 0.19543 0.0
H670 H 0.59846 0.59224 0.22992 0.0
H671 H 0.63644 0.57569 0.2112 0.0
Tb672 Tb 0.21869 0.51079 0.15588 0.0
C673 C 0.26445 0.4515 0.06877 0.0
C674 C 0.234 0.41965 0.05902 0.0
C675 C 0.26306 0.43367 0.02719 0.0
C676 C 0.24456 0.43691 0.07583 0.0
C677 C 0.27435 0.44974 0.04452 0.0
C678 C 0.24309 0.41842 0.03452 0.0
C679 C 0.30843 0.47614 0.05776 0.0
N680 N 0.27586 0.46525 0.0866 0.0
C681 C 0.29833 0.47651 0.08175 0.0
C682 C 0.29621 0.46294 0.03894 0.0
Tb683 Tb 0.25855 0.46477 0.12568 0.0
N684 N 0.23716 0.43797 0.09991 0.0
C685 C 0.21966 0.42145 0.1086 0.0
C686 C 0.21539 0.40345 0.06762 0.0
C687 C 0.20824 0.40433 0.09255 0.0
H688 H 0.30818 0.48636 0.09629 0.0
H689 H 0.19411 0.39164 0.0995 0.0
H690 H 0.23522 0.4053 0.0213 0.0
H691 H 0.32582 0.48573 0.05391 0.0
H692 H 0.2141 0.42151 0.12786 0.0
H693 H 0.27675 0.58714 0.18814 0.0
H694 H 0.20681 0.38988 0.05533 0.0
H695 H 0.17213 0.48079 0.18369 0.0
H696 H 0.25737 0.55988 0.1568 0.0
H697 H 0.15497 0.47662 0.22603 0.0
H698 H 0.27032 0.43207 1.00844 0.0
H699 H 0.26619 0.58211 0.23267 0.0
H700 H 0.2398 0.56099 0.2653 0.0
H701 H 0.30437 0.46216 0.02051 0.0
H702 H 0.20628 0.53113 0.27562 0.0
N703 N 0.23686 0.53833 0.18325 0.0
C704 C 0.25262 0.55716 0.17612 0.0
C705 C 0.25772 0.56987 0.21898 0.0
C706 C 0.24015 0.55184 0.22599 0.0
C707 C 0.26366 0.57282 0.19387 0.0
C708 C 0.22983 0.53632 0.20742 0.0
H709 H 0.17421 0.49982 0.26101 0.0
N710 N 0.20099 0.50605 0.19446 0.0
C711 C 0.17085 0.48871 0.22272 0.0
C712 C 0.21097 0.51978 0.21322 0.0
C713 C 0.18056 0.49123 0.19869 0.0
C714 C 0.18177 0.50182 0.24241 0.0
C715 C 0.20189 0.51787 0.23774 0.0
O716 O 0.18141 0.51948 0.14737 0.0
O717 O 0.22375 0.48442 0.1257 0.0
O718 O 0.25789 0.4981 0.10111 0.0
O719 O 0.24227 0.52893 0.12803 0.0
O720 O 0.18969 0.48509 0.14167 0.0
O721 O 0.2102 0.54735 0.14439 0.0
O722 O 0.2948 0.45173 0.13312 0.0
O723 O 0.25497 0.49385 0.15298 0.0
O724 O 0.22861 0.4826 0.18311 0.0
O725 O 0.23465 0.44934 0.15622 0.0
O726 O 0.28987 0.48709 0.13927 0.0
O727 O 0.2629 0.42894 0.14121 0.0
C728 C 0.20216 0.47538 0.12377 0.0
C729 C 0.16927 0.56108 0.15399 0.0
C730 C 0.13232 0.5878 0.15101 0.0
C731 C 0.14911 0.57069 0.14014 0.0
C732 C 0.13605 0.59468 0.17606 0.0
C733 C 0.17254 0.56857 0.17876 0.0
C734 C 0.156 0.58522 0.18969 0.0
C735 C 0.25303 0.52177 0.10701 0.0
C736 C 0.18635 0.54278 0.14269 0.0
C737 C 0.21283 0.53244 0.25659 0.0
C738 C 0.23195 0.5494 0.25072 0.0
C739 C 0.27758 0.50078 0.15441 0.0
C740 C 0.29982 0.40806 0.12975 0.0
C741 C 0.31247 0.39083 0.14501 0.0
C742 C 0.32501 0.37032 0.13432 0.0
C743 C 0.32415 0.36714 0.10834 0.0
C744 C 0.29954 0.40435 0.10394 0.0
C745 C 0.31151 0.38402 0.09334 0.0
C746 C 0.22978 0.45847 0.17873 0.0
C747 C 0.28712 0.42993 0.14061 0.0
H748 H 0.14671 0.56504 0.12092 0.0
H749 H 0.12333 0.6072 0.18534 0.0
H750 H 0.1878 0.56149 0.1897 0.0
H751 H 0.15857 0.59073 0.20891 0.0
H752 H 0.31293 0.39363 0.16498 0.0
H753 H 0.33311 0.3514 0.09955 0.0
H754 H 0.29014 0.41716 0.0919 0.0
H755 H 0.31102 0.38135 0.07337 0.0
Tb756 Tb 0.72839 0.02041 0.8879 0.0
C757 C 0.76355 0.08907 0.95924 0.0
C758 C 0.73611 0.12462 0.95742 0.0
C759 C 0.75153 0.11058 0.99737 0.0
C760 C 0.749 0.10505 0.94547 0.0
C761 C 0.76539 0.09208 0.98536 0.0
C762 C 0.73709 0.12696 0.9834 0.0
C763 C 0.79759 0.06123 0.98564 0.0
N764 N 0.77725 0.07182 0.94695 0.0
C765 C 0.79559 0.0594 0.9598 0.0
C766 C 0.78201 0.07723 0.99858 0.0
Tb767 Tb 0.77098 0.06921 0.90415 0.0
N768 N 0.74836 0.10219 0.92034 0.0
C769 C 0.73686 0.12003 0.90618 0.0
C770 C 0.7232 0.14176 0.94289 0.0
C771 C 0.72381 0.13957 0.91715 0.0
H772 H 0.80933 0.04821 0.95039 0.0
H773 H 0.71465 0.1533 0.90565 0.0
H774 H 0.72726 0.14178 0.99285 0.0
H775 H 0.81163 0.05072 0.99548 0.0
H776 H 0.73806 0.12029 0.88633 0.0
H777 H 0.79758 0.94929 0.87282 0.0
H778 H 0.71347 0.15727 0.95127 0.0
H779 H 0.67674 0.03229 0.85653 0.0
H780 H 0.7736 0.97951 0.8974 0.0
H781 H 0.65915 0.0228 0.81499 0.0
H782 H 0.7526 0.11298 0.01737 0.0
H783 H 0.78766 0.94275 0.82831 0.0
H784 H 0.75925 0.95159 0.7921 0.0
H785 H 0.78391 0.07897 0.01858 0.0
H786 H 0.72121 0.97154 0.77631 0.0
N787 N 0.75119 0.99114 0.86703 0.0
C788 C 0.76926 0.97713 0.87804 0.0
C789 C 0.77724 0.95626 0.839 0.0
C790 C 0.75749 0.96935 0.8283 0.0
C791 C 0.78283 0.95983 0.86413 0.0
C792 C 0.74465 0.98681 0.84303 0.0
H793 H 0.68329 0.99759 0.785 0.0
N794 N 0.71077 0.01331 0.84969 0.0
C795 C 0.67737 0.01592 0.82005 0.0
C796 C 0.7235 0.99815 0.83407 0.0
C797 C 0.68734 0.02121 0.84355 0.0
C798 C 0.69109 1.00176 0.80313 0.0
C799 C 0.71425 0.99223 0.81024 0.0
O800 O 0.69164 1.01036 0.89829 0.0
O801 O 0.73566 0.05159 0.91261 0.0
O802 O 0.78331 0.03293 0.92001 0.0
O803 O 0.74565 0.01243 0.9238 0.0
O804 O 0.70104 0.0492 0.89697 0.0
O805 O 0.72188 0.98513 0.90378 0.0
O806 O 0.80929 0.07578 0.91073 0.0
O807 O 0.76709 0.03328 0.88561 0.0
O808 O 0.72846 0.04616 0.85635 0.0
O809 O 0.74741 0.08182 0.87274 0.0
O810 O 0.78603 0.06047 0.86746 0.0
O811 O 0.78789 0.10086 0.88824 0.0
C812 C 0.71437 0.0615 0.91275 0.0
C813 C 0.68228 0.96722 0.89561 0.0
C814 C 0.64691 0.93845 0.90067 0.0
C815 C 0.66095 0.95926 0.90891 0.0
C816 C 0.65412 0.92629 0.87866 0.0
C817 C 0.68909 0.95451 0.87385 0.0
C818 C 0.67498 0.93434 0.86535 0.0
C819 C 0.76904 0.01551 0.93053 0.0
C820 C 0.69787 0.98803 0.90507 0.0
C821 C 0.72781 0.97608 0.79483 0.0
C822 C 0.74946 0.96471 0.80383 0.0
C823 C 0.77969 0.03744 0.86598 0.0
C824 C 0.821 0.11892 0.91075 0.0
C825 C 0.831 0.13826 0.89588 0.0
C826 C 0.84107 0.16003 0.90688 0.0
C827 C 0.84123 0.16194 0.933 0.0
C828 C 0.8215 0.12141 0.93675 0.0
C829 C 0.83158 0.14275 0.94773 0.0
C830 C 0.73474 0.06999 0.85501 0.0
C831 C 0.8093 0.09691 0.89874 0.0
H832 H 0.65576 0.96873 0.92593 0.0
H833 H 0.64355 0.91049 0.87169 0.0
H834 H 0.70554 0.95987 0.86359 0.0
H835 H 0.6804 0.92473 0.84851 0.0
H836 H 0.83043 0.13658 0.87578 0.0
H837 H 0.84911 0.1782 0.94209 0.0
H838 H 0.81407 0.10697 0.94864 0.0
H839 H 0.83189 0.14447 0.9678 0.0
Tb840 Tb 0.76999 0.96931 0.4068 0.0
C841 C 0.85681 0.9912 0.34952 0.0
C842 C 0.89691 0.98848 0.36988 0.0
C843 C 0.89331 0.97845 0.32596 0.0
C844 C 0.87105 0.99301 0.37081 0.0
C845 C 0.86791 0.98446 0.32669 0.0
C846 C 0.9078 0.98045 0.34754 0.0
C847 C 0.82849 0.99203 0.30666 0.0
N848 N 0.83237 0.99735 0.35087 0.0
C849 C 0.81824 0.99814 0.32972 0.0
C850 C 0.85334 0.98476 0.30515 0.0
Tb851 Tb 0.81837 1.01108 0.38868 0.0
N852 N 0.85997 1.00137 0.39187 0.0
C853 C 0.87448 1.00856 0.41173 0.0
C854 C 0.9113 0.99348 0.39102 0.0
C855 C 0.90009 1.00402 0.41189 0.0
H856 H 0.7991 1.00377 0.33022 0.0
H857 H 0.91119 1.00896 0.42799 0.0
H858 H 0.92758 0.97663 0.34654 0.0
H859 H 0.81719 0.99317 0.29004 0.0
H860 H 0.86602 0.01724 0.4278 0.0
H861 H 0.69942 0.03758 0.42731 0.0
H862 H 0.93122 0.99032 0.39103 0.0
H863 H 0.78617 0.91847 0.43751 0.0
H864 H 0.72825 0.01426 0.4005 0.0
H865 H 0.78093 0.90116 0.4799 0.0
H866 H 0.90208 0.97296 0.30865 0.0
H867 H 0.69586 0.02711 0.47204 0.0
H868 H 0.70767 0.99871 0.50742 0.0
H869 H 0.86121 0.97996 0.28722 0.0
H870 H 0.72987 0.96134 0.52179 0.0
N871 N 0.74172 0.99132 0.42979 0.0
C872 C 0.72699 1.00948 0.41993 0.0
C873 C 0.70869 0.01689 0.46035 0.0
C874 C 0.72269 0.99723 0.46999 0.0
C875 C 0.71057 0.02277 0.4351 0.0
C876 C 0.73917 0.98464 0.45398 0.0
H877 H 0.75694 0.9245 0.5115 0.0
N878 N 0.76618 0.95166 0.44548 0.0
C879 C 0.77277 0.91892 0.47519 0.0
C880 C 0.75173 0.96389 0.46211 0.0
C881 C 0.77564 0.92872 0.45122 0.0
C882 C 0.75927 0.93219 0.493 0.0
C883 C 0.7481 0.95474 0.48641 0.0
O884 O 0.7608 0.93241 0.39612 0.0
O885 O 0.79926 0.97677 0.37977 0.0
O886 O 0.78424 0.02252 0.3681 0.0
O887 O 0.75701 0.98898 0.37409 0.0
O888 O 0.79808 0.9422 0.3953 0.0
O889 O 0.73388 0.96145 0.39344 0.0
O890 O 0.82155 0.04156 0.36427 0.0
O891 O 0.78283 1.00805 0.40754 0.0
O892 O 0.79738 0.97085 0.43685 0.0
O893 O 0.83307 0.98373 0.41584 0.0
O894 O 0.81107 0.02572 0.42581 0.0
O895 O 0.83534 0.04439 0.40154 0.0
C896 C 0.80944 0.95557 0.37894 0.0
C897 C 0.7184 0.92066 0.40082 0.0
C898 C 0.69001 0.88494 0.39532 0.0
C899 C 0.70955 0.90038 0.38641 0.0
C900 C 0.68003 0.88979 0.41903 0.0
C901 C 0.70791 0.92503 0.42431 0.0
C902 C 0.68899 0.90958 0.43339 0.0
C903 C 0.76331 1.01001 0.363 0.0
C904 C 0.73782 0.9377 0.3909 0.0
C905 C 0.73271 0.96789 0.50293 0.0
C906 C 0.72006 0.98915 0.49474 0.0
C907 C 0.78761 0.02083 0.4269 0.0
C908 C 0.86107 0.06129 0.36961 0.0
C909 C 0.88017 0.07034 0.38555 0.0
C910 C 0.90447 0.07495 0.37627 0.0
C911 C 0.90917 0.07083 0.35085 0.0
C912 C 0.86656 0.05767 0.34425 0.0
C913 C 0.89037 0.06237 0.33505 0.0
C914 C 0.82179 0.97369 0.43544 0.0
C915 C 0.83604 0.05396 0.37935 0.0
H916 H 0.71735 0.89706 0.36811 0.0
H917 H 0.66528 0.87814 0.42656 0.0
H918 H 0.71408 0.94056 0.43555 0.0
H919 H 0.68107 0.91312 0.45156 0.0
H920 H 0.87637 0.07312 0.40516 0.0
H921 H 0.92745 0.0745 0.34304 0.0
H922 H 0.85254 0.05078 0.33143 0.0
H923 H 0.89433 0.05933 0.31553 0.0
Tb924 Tb 0.30225 0.50274 0.65081 0.0
C925 C 0.25469 0.56628 0.56926 0.0
C926 C 0.28721 0.59576 0.5588 0.0
C927 C 0.25718 0.58307 0.52733 0.0
C928 C 0.27547 0.57967 0.57599 0.0
C929 C 0.24474 0.56832 0.54508 0.0
C930 C 0.27839 0.59684 0.53421 0.0
C931 C 0.20924 0.54419 0.55897 0.0
N932 N 0.24287 0.55313 0.58724 0.0
C933 C 0.2197 0.54319 0.58279 0.0
C934 C 0.22201 0.5565 0.53989 0.0
Tb935 Tb 0.26168 0.55129 0.62562 0.0
N936 N 0.28299 0.57833 0.6 0.0
C937 C 0.30107 0.59427 0.60856 0.0
C938 C 0.30681 0.61091 0.56713 0.0
C939 C 0.31348 0.61045 0.59223 0.0
H940 H 0.20971 0.53369 0.59751 0.0
H941 H 0.32824 0.6225 0.59902 0.0
H942 H 0.28728 0.6089 0.52064 0.0
H943 H 0.19129 0.5356 0.55538 0.0
H944 H 0.30658 0.59419 0.62784 0.0
H945 H 0.24491 0.42609 0.68354 0.0
H946 H 0.3164 0.62349 0.55453 0.0
H947 H 0.35085 0.53126 0.67682 0.0
H948 H 0.26227 0.45468 0.65235 0.0
H949 H 0.37129 0.53286 0.71786 0.0
H950 H 0.25002 0.58471 0.50855 0.0
H951 H 0.25952 0.42804 0.72715 0.0
H952 H 0.28924 0.44645 0.75849 0.0
H953 H 0.21373 0.55757 0.52153 0.0
H954 H 0.32409 0.47511 0.76772 0.0
N955 N 0.28551 0.47425 0.6781 0.0
C956 C 0.26868 0.45624 0.67129 0.0
C957 C 0.26706 0.44095 0.71355 0.0
C958 C 0.28567 0.45812 0.72004 0.0
C959 C 0.25881 0.43976 0.68895 0.0
C960 C 0.29471 0.47457 0.70162 0.0
H961 H 0.35503 0.50723 0.75259 0.0
N962 N 0.32283 0.5053 0.68818 0.0
C963 C 0.35525 0.52085 0.715 0.0
C964 C 0.31434 0.49041 0.70677 0.0
C965 C 0.34362 0.51983 0.69171 0.0
C966 C 0.34599 0.50639 0.73457 0.0
C967 C 0.32546 0.49069 0.73053 0.0
O968 O 0.33893 0.49378 0.63986 0.0
O969 O 0.29588 0.53062 0.62208 0.0
O970 O 0.25771 0.5179 0.60091 0.0
O971 O 0.27647 0.48588 0.62411 0.0
O972 O 0.33082 0.5285 0.63601 0.0
O973 O 0.30933 0.46687 0.63653 0.0
O974 O 0.2264 0.56699 0.63283 0.0
O975 O 0.26594 0.52001 0.65027 0.0
O976 O 0.29478 0.52973 0.68018 0.0
O977 O 0.28749 0.5645 0.65565 0.0
O978 O 0.23049 0.53108 0.64233 0.0
O979 O 0.25972 0.5853 0.64523 0.0
C980 C 0.3176 0.53918 0.61929 0.0
C981 C 0.35033 0.45138 0.64303 0.0
C982 C 0.38738 0.42521 0.63711 0.0
C983 C 0.37153 0.44453 0.6289 0.0
C984 C 0.38191 0.41335 0.65983 0.0
C985 C 0.34556 0.43919 0.66563 0.0
C986 C 0.36129 0.42038 0.67395 0.0
C987 C 0.26309 0.49393 0.60504 0.0
C988 C 0.3332 0.47095 0.63397 0.0
C989 C 0.31594 0.47507 0.74928 0.0
C990 C 0.29606 0.4588 0.74404 0.0
C991 C 0.24315 0.5154 0.65502 0.0
C992 C 0.22587 0.61122 0.63476 0.0
C993 C 0.21511 0.6284 0.65161 0.0
C994 C 0.20714 0.65209 0.64323 0.0
C995 C 0.20981 0.65802 0.61788 0.0
C996 C 0.22795 0.61776 0.60959 0.0
C997 C 0.21999 0.64095 0.60124 0.0
C998 C 0.29344 0.55413 0.67735 0.0
C999 C 0.23561 0.58689 0.64337 0.0
H1000 H 0.37534 0.45381 0.61139 0.0
H1001 H 0.39379 0.39869 0.66682 0.0
H1002 H 0.32957 0.44408 0.6768 0.0
H1003 H 0.35741 0.41111 0.69143 0.0
H1004 H 0.2134 0.62359 0.67113 0.0
H1005 H 0.2037 0.67587 0.61083 0.0
H1006 H 0.23578 0.60497 0.59633 0.0
H1007 H 0.22177 0.64574 0.58176 0.0
H1008 H 0.21717 0.27729 0.50966 0.0
H1009 H 0.23288 0.31649 0.52775 0.0
H1010 H 0.15742 0.3391 0.54282 0.0
H1011 H 0.14198 0.3 0.52546 0.0
H1012 H 0.22537 0.3626 0.51118 0.0
H1013 H 0.18886 0.3584 0.60736 0.0
H1014 H 0.18932 0.33148 0.58725 0.0
H1015 H 0.16475 0.35401 0.58466 0.0
C1016 C 0.20406 0.29031 0.51765 0.0
C1017 C 0.17838 0.28508 0.51688 0.0
C1018 C 0.213 0.31284 0.52779 0.0
C1019 C 0.19644 0.33086 0.53712 0.0
C1020 C 0.17077 0.32543 0.53656 0.0
H1021 H 0.21521 0.4871 0.58701 0.0
H1022 H 0.19799 0.44846 0.56874 0.0
C1023 C 0.16189 0.30291 0.52658 0.0
C1024 C 0.20574 0.35599 0.54555 0.0
H1025 H 0.20331 0.39824 0.59339 0.0
C1026 C 0.22062 0.37024 0.52924 0.0
C1027 C 0.19956 0.3663 0.56907 0.0
C1028 C 0.18497 0.35166 0.58818 0.0
C1029 C 0.22919 0.39433 0.53564 0.0
C1030 C 0.22285 0.40467 0.55902 0.0
C1031 C 0.2079 0.39055 0.57531 0.0
C1032 C 0.23326 0.42917 0.56768 0.0
C1033 C 0.24488 0.40869 0.51722 0.0
C1034 C 0.25881 0.43147 0.57275 0.0
C1035 C 0.26856 0.45336 0.5832 0.0
C1036 C 0.25313 0.47376 0.58869 0.0
C1037 C 0.2277 0.472 0.58252 0.0
C1038 C 0.2178 0.44978 0.57237 0.0
H1039 H 0.24336 0.40085 0.49814 0.0
H1040 H 0.23935 0.42859 0.51676 0.0
H1041 H 0.26472 0.40787 0.523 0.0
H1042 H 0.27113 0.41587 0.56958 0.0
H1043 H 0.28818 0.45398 0.58794 0.0
H1044 H 0.78878 0.02442 0.81769 0.0
H1045 H 0.82641 1.00402 0.80141 0.0
H1046 H 0.85395 0.99574 0.87632 0.0
H1047 H 0.81671 0.01576 0.89224 0.0
H1048 H 0.87393 0.02104 0.80598 0.0
H1049 H 0.86851 0.92763 0.84919 0.0
H1050 H 0.84204 0.94813 0.84762 0.0
H1051 H 0.86512 0.95211 0.87163 0.0
C1052 C 0.80253 0.01739 0.83062 0.0
C1053 C 0.79926 0.02065 0.85635 0.0
C1054 C 0.82411 1.00593 0.82134 0.0
C1055 C 0.84294 0.9978 0.83764 0.0
C1056 C 0.83947 1.00095 0.86334 0.0
H1057 H 0.99624 0.94467 0.82448 0.0
H1058 H 0.95765 0.96453 0.83885 0.0
C1059 C 0.81798 0.0123 0.87252 0.0
C1060 C 0.86716 0.98814 0.82798 0.0
H1061 H 0.9085 0.94018 0.83364 0.0
C1062 C 0.88134 1.00323 0.81184 0.0
C1063 C 0.87703 0.96496 0.83568 0.0
C1064 C 0.86228 0.94716 0.85178 0.0
C1065 C 0.9052 0.99606 0.8037 0.0
C1066 C 0.91521 0.97312 0.81177 0.0
C1067 C 0.901 0.95794 0.82775 0.0
C1068 C 0.93976 0.96387 0.80275 0.0
C1069 C 0.91976 0.01329 0.78686 0.0
C1070 C 0.94276 0.9573 0.77766 0.0
C1071 C 0.96474 0.94605 0.7695 0.0
C1072 C 0.98437 0.94131 0.78614 0.0
C1073 C 0.98183 0.94879 0.81107 0.0
C1074 C 0.95962 0.95982 0.81934 0.0
H1075 H 0.91214 0.03248 0.78698 0.0
H1076 H 0.93966 0.01409 0.79248 0.0
H1077 H 0.91885 1.00611 0.76751 0.0
H1078 H 0.92765 0.95986 0.76457 0.0
H1079 H 0.966 0.94008 0.75027 0.0
H1080 H 0.34092 0.7109 0.98675 0.0
H1081 H 0.31973 0.67287 1.00005 0.0
H1082 H 0.30994 0.70402 0.07338 0.0
H1083 H 0.33198 0.74206 0.06016 0.0
H1084 H 0.33063 0.65782 0.07487 0.0
H1085 H 0.24811 0.65448 1.01332 0.0
H1086 H 0.27649 0.65858 0.99614 0.0
H1087 H 0.26656 0.68242 0.01748 0.0
C1088 C 0.33363 0.70994 1.00553 0.0
C1089 C 0.33775 0.72966 0.02231 0.0
C1090 C 0.32141 0.68817 1.0131 0.0
C1091 C 0.31288 0.68558 0.03764 0.0
C1092 C 0.31614 0.70565 0.05426 0.0
H1093 H 0.22603 0.5624 0.09579 0.0
H1094 H 0.2409 0.60135 0.07752 0.0
C1095 C 0.3284 0.72758 0.04662 0.0
C1096 C 0.30275 0.66112 0.04627 0.0
H1097 H 0.25936 0.61608 0.03293 0.0
C1098 C 0.31491 0.64879 0.06583 0.0
C1099 C 0.2822 0.64928 0.03455 0.0
C1100 C 0.26743 0.66199 1.01438 0.0
C1101 C 0.30735 0.6249 0.07372 0.0
C1102 C 0.28741 0.61267 0.06134 0.0
C1103 C 0.27497 0.62518 0.04208 0.0
C1104 C 0.2779 0.58779 0.06947 0.0
C1105 C 0.32045 0.61325 0.09563 0.0
C1106 C 0.29336 0.56669 0.07006 0.0
C1107 C 0.2848 0.54421 0.08054 0.0
C1108 C 0.26062 0.54249 0.09042 0.0
C1109 C 0.24477 0.56315 0.0883 0.0
C1110 C 0.25327 0.58547 0.07789 0.0
H1111 H 0.33103 0.62729 0.10665 0.0
H1112 H 0.30694 0.60373 0.10813 0.0
H1113 H 0.33385 0.59917 0.08877 0.0
H1114 H 0.31231 0.56785 0.06322 0.0
H1115 H 0.2976 0.52886 0.08232 0.0
H1116 H 0.57999 0.09598 0.2342 0.0
H1117 H 0.61868 0.07925 0.25005 0.0
H1118 H 0.58115 0.05556 0.31708 0.0
H1119 H 0.5422 0.07381 0.30168 0.0
H1120 H 0.62324 0.07917 0.32822 0.0
H1121 H 0.64506 1.01089 0.2548 0.0
H1122 H 0.64026 0.04102 0.24143 0.0
H1123 H 0.61491 0.02531 0.2571 0.0
C1124 C 0.57974 0.0868 0.25216 0.0
C1125 C 0.55788 0.08614 0.26663 0.0
C1126 C 0.60196 0.07703 0.26114 0.0
C1127 C 0.60292 0.06573 0.28462 0.0
C1128 C 0.58088 0.06405 0.2988 0.0
H1129 H 0.72911 0.98357 0.33712 0.0
H1130 H 0.69135 0.99872 0.31785 0.0
C1131 C 0.5585 0.07415 0.28985 0.0
C1132 C 0.62737 0.05746 0.29477 0.0
H1133 H 0.67956 0.02458 0.2799 0.0
C1134 C 0.63545 0.06699 0.31779 0.0
C1135 C 0.64336 0.04148 0.28128 0.0
C1136 C 0.63531 0.0289 0.25743 0.0
C1137 C 0.65905 0.06118 0.32755 0.0
C1138 C 0.67549 0.04614 0.31347 0.0
C1139 C 0.66729 0.03653 0.29053 0.0
C1140 C 0.70008 0.03779 0.32328 0.0
C1141 C 0.66576 0.0706 0.35318 0.0
C1142 C 0.7184 0.05467 0.33192 0.0
C1143 C 0.74023 0.04592 0.34339 0.0
C1144 C 0.74408 0.02019 0.3461 0.0
C1145 C 0.72661 1.00354 0.33564 0.0
C1146 C 0.70491 0.01219 0.32454 0.0
H1147 H 0.64899 0.07625 0.36386 0.0
H1148 H 0.67578 0.05618 0.364 0.0
H1149 H 0.6781 0.08718 0.35141 0.0
H1150 H 0.71553 0.07455 0.33045 0.0
H1151 H 0.75334 0.0592 0.35124 0.0
H1152 H 0.70058 0.24433 0.46197 0.0
H1153 H 0.71934 0.20553 0.44634 0.0
H1154 H 0.71786 0.175 0.5205 0.0
H1155 H 0.699 0.21336 0.53599 0.0
H1156 H 0.76401 0.16602 0.49069 0.0
H1157 H 0.6757 0.13899 0.44317 0.0
H1158 H 0.68817 0.16964 0.43715 0.0
H1159 H 0.67665 0.16214 0.46757 0.0
C1160 C 0.70503 0.22965 0.475 0.0
C1161 C 0.69857 0.23199 0.50025 0.0
C1162 C 0.71542 0.20734 0.46603 0.0
C1163 C 0.71973 0.18718 0.48221 0.0
C1164 C 0.71466 0.19018 0.50763 0.0
H1165 H 0.77879 0.03541 0.47467 0.0
H1166 H 0.76079 0.07511 0.48843 0.0
C1167 C 0.70401 0.2122 0.51648 0.0
C1168 C 0.72833 0.16245 0.47285 0.0
H1169 H 0.70875 0.11047 0.44124 0.0
C1170 C 0.75199 0.15391 0.47978 0.0
C1171 C 0.71263 0.14659 0.45867 0.0
C1172 C 0.68678 0.15458 0.45123 0.0
C1173 C 0.7605 0.13013 0.47271 0.0
C1174 C 0.74456 0.11392 0.45903 0.0
C1175 C 0.72095 0.12264 0.4519 0.0
C1176 C 0.75241 0.08828 0.45127 0.0
C1177 C 0.78677 0.12293 0.47949 0.0
C1178 C 0.75219 0.08151 0.42599 0.0
C1179 C 0.7619 0.0586 0.41823 0.0
C1180 C 0.77183 0.04172 0.43558 0.0
C1181 C 0.77097 0.04791 0.46095 0.0
C1182 C 0.76103 0.07078 0.46875 0.0
H1183 H 0.79862 0.13958 0.48322 0.0
H1184 H 0.78639 0.11147 0.49667 0.0
H1185 H 0.79557 0.11188 0.46443 0.0
H1186 H 0.74557 0.09446 0.41206 0.0
H1187 H 0.76279 0.05466 0.39852 0.0
H1188 H 0.04255 0.45651 0.76644 0.0
H1189 H 0.07919 0.47446 0.74522 0.0
H1190 H 0.09569 0.40253 0.71382 0.0
H1191 H 0.05933 0.38476 0.73487 0.0
H1192 H 0.13541 0.42447 0.74294 0.0
H1193 H 0.09921 0.48966 0.67133 0.0
H1194 H 0.08577 0.49184 0.70195 0.0
H1195 H 0.08065 0.4643 0.68368 0.0
C1196 C 0.05323 0.44492 0.75389 0.0
C1197 C 0.04753 0.4194 0.75164 0.0
C1198 C 0.0744 0.45509 0.74202 0.0
C1199 C 0.09038 0.43983 0.72796 0.0
C1200 C 0.08376 0.41472 0.72452 0.0
H1201 H 0.21602 0.47845 0.63495 0.0
H1202 H 0.18014 0.45826 0.6545 0.0
C1203 C 0.06268 0.40465 0.73625 0.0
C1204 C 0.11514 0.44915 0.71882 0.0
H1205 H 0.14282 0.48903 0.67739 0.0
C1206 C 0.13702 0.43866 0.72866 0.0
C1207 C 0.11734 0.46754 0.70011 0.0
C1208 C 0.09457 0.47897 0.68843 0.0
C1209 C 0.1609 0.44607 0.72033 0.0
C1210 C 0.16311 0.4645 0.70164 0.0
C1211 C 0.14122 0.47497 0.6918 0.0
C1212 C 0.18778 0.47266 0.6913 0.0
C1213 C 0.18364 0.43376 0.73112 0.0
C1214 C 0.205 0.48645 0.70566 0.0
C1215 C 0.22595 0.49778 0.69443 0.0
C1216 C 0.23013 0.49531 0.66871 0.0
C1217 C 0.21385 0.47999 0.6549 0.0
C1218 C 0.19302 0.46878 0.66602 0.0
H1219 H 0.17876 0.41693 0.74217 0.0
H1220 H 0.19677 0.42839 0.71609 0.0
H1221 H 0.19348 0.44715 0.7435 0.0
H1222 H 0.20131 0.48996 0.72516 0.0
H1223 H 0.23752 0.51026 0.70537 0.0
H1224 H 0.74443 0.98674 0.96404 0.0
H1225 H 0.75832 0.94783 0.98262 0.0
H1226 H 0.83091 0.95834 0.94961 0.0
H1227 H 0.81732 0.99801 0.93181 0.0
H1228 H 0.77101 0.90762 0.95755 0.0
H1229 H 0.85035 0.93524 0.01776 0.0
H1230 H 0.82907 0.95769 1.00489 0.0
H1231 H 0.85387 0.94533 0.98612 0.0
C1232 C 0.7636 0.98115 0.96127 0.0
C1233 C 0.77971 0.99543 0.94623 0.0
C1234 C 0.77147 0.95875 0.97179 0.0
C1235 C 0.79565 0.94992 0.96751 0.0
C1236 C 0.81226 0.9648 0.95356 0.0
H1237 H 0.83588 0.7922 0.98024 0.0
H1238 H 0.82086 0.83237 0.96508 0.0
C1239 C 0.80446 0.98753 0.94329 0.0
C1240 C 0.8025 0.9244 0.97614 0.0
H1241 H 0.8447 0.89184 1.01064 0.0
C1242 C 0.78708 0.90422 0.96926 0.0
C1243 C 0.82336 0.91984 0.99156 0.0
C1244 C 0.83999 0.94069 1.00073 0.0
C1245 C 0.79183 0.87978 0.97738 0.0
C1246 C 0.81302 0.87512 0.9923 0.0
C1247 C 0.82848 0.89529 0.99914 0.0
C1248 C 0.81938 0.84966 1.0015 0.0
C1249 C 0.77366 0.85935 0.9704 0.0
C1250 C 0.82346 0.8457 0.02701 0.0
C1251 C 0.83215 0.82277 0.03562 0.0
C1252 C 0.8367 0.80309 0.01899 0.0
C1253 C 0.83158 0.80659 0.99361 0.0
C1254 C 0.82317 0.82972 0.98491 0.0
H1255 H 0.75506 0.86697 0.96562 0.0
H1256 H 0.78076 0.84935 0.9538 0.0
H1257 H 0.77135 0.8457 0.98576 0.0
H1258 H 0.82072 0.86068 0.04023 0.0
H1259 H 0.8364 0.82073 0.05523 0.0
H1260 H 0.45123 0.59092 0.29363 0.0
H1261 H 0.41261 0.57358 0.27686 0.0
H1262 H 0.44842 0.56224 0.20601 0.0
H1263 H 0.48727 0.58013 0.2227 0.0
H1264 H 0.38717 0.59525 0.23481 0.0
H1265 H 0.4099 0.49531 0.22034 0.0
H1266 H 0.42743 0.51506 0.24134 0.0
H1267 H 0.43193 0.51773 0.20836 0.0
C1268 C 0.45114 0.58425 0.2746 0.0
C1269 C 0.47254 0.58677 0.25958 0.0
C1270 C 0.42894 0.57442 0.26501 0.0
C1271 C 0.42749 0.5666 0.24017 0.0
C1272 C 0.44912 0.56788 0.22535 0.0
H1273 H 0.30525 0.54013 0.14069 0.0
H1274 H 0.3397 0.55841 0.16446 0.0
C1275 C 0.47148 0.57787 0.23498 0.0
C1276 C 0.40288 0.55877 0.22964 0.0
H1277 H 0.37074 0.50902 0.20556 0.0
C1278 C 0.38358 0.57637 0.22847 0.0
C1279 C 0.39805 0.53411 0.22159 0.0
C1280 C 0.41779 0.51431 0.22306 0.0
C1281 C 0.35987 0.57007 0.21899 0.0
C1282 C 0.35519 0.54553 0.21061 0.0
C1283 C 0.3743 0.52781 0.21217 0.0
C1284 C 0.33129 0.53834 0.19833 0.0
C1285 C 0.33989 0.58965 0.21785 0.0
C1286 C 0.31436 0.52181 0.2098 0.0
C1287 C 0.29411 0.51184 0.19636 0.0
C1288 C 0.29075 0.51808 0.1712 0.0
C1289 C 0.30696 0.53564 0.16028 0.0
C1290 C 0.32681 0.54589 0.17377 0.0
H1291 H 0.34503 0.6066 0.22863 0.0
H1292 H 0.33683 0.5951 0.19817 0.0
H1293 H 0.322 0.58207 0.22512 0.0
H1294 H 0.31757 0.51562 0.22871 0.0
H1295 H 0.28247 0.49767 0.20493 0.0
H1296 H 0.51511 0.19693 0.29119 0.0
H1297 H 0.53376 0.22019 0.32632 0.0
H1298 H 0.571 0.15351 0.35043 0.0
H1299 H 0.55259 0.13053 0.31569 0.0
H1300 H 0.53992 0.17728 0.38776 0.0
H1301 H 0.6073 0.2428 0.34312 0.0
H1302 H 0.5766 0.23998 0.32979 0.0
H1303 H 0.59753 0.21415 0.32828 0.0
C1304 C 0.5281 0.18763 0.30343 0.0
C1305 C 0.5329 0.16208 0.3004 0.0
C1306 C 0.53855 0.20081 0.32365 0.0
C1307 C 0.55372 0.18856 0.34117 0.0
C1308 C 0.55934 0.16338 0.33731 0.0
H1309 H 0.65173 0.23694 0.45758 0.0
H1310 H 0.62987 0.2157 0.42372 0.0
C1311 C 0.54902 0.15033 0.31727 0.0
C1312 C 0.56251 0.20103 0.3645 0.0
H1313 H 0.60425 0.24398 0.3868 0.0
C1314 C 0.55378 0.19207 0.38756 0.0
C1315 C 0.58077 0.22014 0.36428 0.0
C1316 C 0.59131 0.22989 0.34013 0.0
C1317 C 0.56306 0.20144 0.41031 0.0
C1318 C 0.58154 0.22035 0.41009 0.0
C1319 C 0.58999 0.22956 0.38702 0.0
C1320 C 0.59353 0.22987 0.4334 0.0
C1321 C 0.5538 0.1904 0.43444 0.0
C1322 C 0.58025 0.24406 0.45099 0.0
C1323 C 0.59281 0.256 0.47076 0.0
C1324 C 0.61877 0.25374 0.47331 0.0
C1325 C 0.63163 0.23839 0.45653 0.0
C1326 C 0.61919 0.22652 0.43693 0.0
H1327 H 0.54232 0.17336 0.4314 0.0
H1328 H 0.56974 0.18568 0.44671 0.0
H1329 H 0.54225 0.20432 0.44434 0.0
H1330 H 0.5605 0.24718 0.44856 0.0
H1331 H 0.58258 0.26846 0.48283 0.0
H1332 H 0.08004 0.22948 0.56185 0.0
H1333 H 0.06199 0.24633 0.59937 0.0
H1334 H 0.07473 0.32103 0.57235 0.0
H1335 H 0.09443 0.30403 0.53468 0.0
H1336 H 0.08966 0.31733 0.61895 0.0
H1337 H 0.99611 0.27471 0.61399 0.0
H1338 H 0.01925 0.25095 0.61184 0.0
H1339 H 0.01717 0.27439 0.58787 0.0
C1340 C 0.07874 0.24954 0.56352 0.0
C1341 C 0.08881 0.26541 0.54518 0.0
C1342 C 0.06813 0.25917 0.58506 0.0
C1343 C 0.06653 0.28496 0.58865 0.0
C1344 C 0.07564 0.30101 0.56995 0.0
H1345 H 0.98245 0.34803 0.7093 0.0
H1346 H 0.99729 0.32972 0.67084 0.0
C1347 C 0.08667 0.29131 0.54832 0.0
C1348 C 0.05694 0.29471 0.61274 0.0
H1349 H 1.00982 0.28726 0.65483 0.0
C1350 C 0.07203 0.31104 0.62667 0.0
C1351 C 0.03386 0.28668 0.62282 0.0
C1352 C 0.0156 0.27094 0.60818 0.0
C1353 C 0.06488 0.31924 0.65048 0.0
C1354 C 0.04247 0.31002 0.66113 0.0
C1355 C 0.02727 0.29393 0.64702 0.0
C1356 C 0.03306 0.31871 0.68573 0.0
C1357 C 0.08111 0.33823 0.66358 0.0
C1358 C 0.04768 0.31772 0.70749 0.0
C1359 C 0.03926 0.3287 0.72968 0.0
C1360 C 0.01594 0.34034 0.73044 0.0
C1361 C 1.00064 0.3394 0.70923 0.0
C1362 C 1.00911 0.32888 0.68716 0.0
H1363 H 0.09354 0.34824 0.65034 0.0
H1364 H 0.06967 0.35219 0.67358 0.0
H1365 H 0.09308 0.32861 0.67734 0.0
H1366 H 0.06592 0.30925 0.70713 0.0
H1367 H 0.05159 0.3294 0.74554 0.0
H1368 H 0.98803 0.89465 0.82964 0.0
H1369 H 0.96732 0.87389 0.8645 0.0
H1370 H 1.00099 0.80436 0.84337 0.0
H1371 H 0.02183 0.82531 0.80811 0.0
H1372 H 0.94807 0.80201 0.86306 0.0
H1373 H 1.01411 0.85356 0.92409 0.0
H1374 H 0.99742 0.87253 0.90224 0.0
H1375 H 0.01916 0.84983 0.89105 0.0
C1376 C 0.9901 0.87469 0.83172 0.0
C1377 C 1.00605 0.86148 0.81576 0.0
C1378 C 0.97856 0.86291 0.85191 0.0
C1379 C 0.983 0.83769 0.85694 0.0
C1380 C 0.99738 0.82389 0.83995 0.0
H1381 H 0.95021 0.75961 0.99846 0.0
H1382 H 0.97342 0.7788 0.96367 0.0
C1383 C 1.009 0.83576 0.81959 0.0
C1384 C 0.97426 0.82664 0.88096 0.0
H1385 H 0.98062 0.83233 0.94424 0.0
C1386 C 0.95535 0.80846 0.88078 0.0
C1387 C 0.98392 0.83484 0.90418 0.0
C1388 C 1.00493 0.85361 0.90555 0.0
C1389 C 0.94521 0.79904 0.90312 0.0
C1390 C 0.95409 0.80808 0.92633 0.0
C1391 C 0.97367 0.82553 0.92652 0.0
C1392 C 0.94223 0.80037 0.95031 0.0
C1393 C 0.9248 0.77961 0.90177 0.0
C1394 C 0.91761 0.80734 0.95533 0.0
C1395 C 0.90459 0.79672 0.97525 0.0
C1396 C 0.91592 0.77914 0.99091 0.0
C1397 C 0.94125 0.7737 0.98722 0.0
C1398 C 0.95437 0.78438 0.96711 0.0
H1399 H 0.92399 0.77055 0.88319 0.0
H1400 H 0.92753 0.76504 0.91617 0.0
H1401 H 0.90658 0.78861 0.9053 0.0
H1402 H 0.90792 0.81983 0.94287 0.0
H1403 H 0.88494 0.80077 0.97724 0.0
H1404 H 0.47606 0.63328 0.22204 0.0
H1405 H 0.45596 0.65278 0.1863 0.0
H1406 H 0.49116 0.72279 0.20478 0.0
H1407 H 0.51124 0.70316 0.24094 0.0
H1408 H 0.43975 0.72568 0.18334 0.0
H1409 H 0.50497 0.66856 0.12737 0.0
H1410 H 0.48631 0.65137 0.14931 0.0
H1411 H 0.50895 0.67356 0.16038 0.0
C1412 C 0.47842 0.65316 0.21931 0.0
C1413 C 0.49473 0.66683 0.2347 0.0
C1414 C 0.46728 0.6642 0.19857 0.0
C1415 C 0.47251 0.6891 0.19245 0.0
C1416 C 0.48694 0.70349 0.20904 0.0
H1417 H 0.45569 0.76357 0.04774 0.0
H1418 H 0.47384 0.74255 0.08416 0.0
C1419 C 0.4981 0.69239 0.22995 0.0
C1420 C 0.46502 0.69907 0.16761 0.0
H1421 H 0.47419 0.69088 0.10498 0.0
C1422 C 0.44734 0.71814 0.16624 0.0
C1423 C 0.47519 0.6895 0.1452 0.0
C1424 C 0.49508 0.66977 0.14549 0.0
C1425 C 0.43902 0.72732 0.14312 0.0
C1426 C 0.44848 0.71706 0.1207 0.0
C1427 C 0.46674 0.69855 0.12208 0.0
C1428 C 0.43919 0.72529 0.09583 0.0
C1429 C 0.42017 0.74804 0.14285 0.0
C1430 C 0.41419 0.72118 0.08929 0.0
C1431 C 0.40399 0.73284 0.06841 0.0
C1432 C 0.41862 0.74856 0.0533 0.0
C1433 C 0.44419 0.75091 0.05853 0.0
C1434 C 0.45445 0.7392 0.07957 0.0
H1435 H 0.41915 0.75774 0.16109 0.0
H1436 H 0.42475 0.76194 0.12821 0.0
H1437 H 0.40148 0.74012 0.13867 0.0
H1438 H 0.40211 0.71027 0.10129 0.0
H1439 H 0.3841 0.73127 0.06526 0.0
H1440 H 0.10136 0.35746 0.35089 0.0
H1441 H 0.12327 0.37772 0.31687 0.0
H1442 H 0.19191 0.34358 0.3402 0.0
H1443 H 0.16953 0.32163 0.37355 0.0
H1444 H 0.15773 0.41052 0.31485 0.0
H1445 H 0.19431 0.32627 0.26817 0.0
H1446 H 0.17206 0.32454 0.29326 0.0
H1447 H 0.20465 0.32936 0.29977 0.0
C1448 C 0.12104 0.35379 0.34866 0.0
C1449 C 0.13344 0.33735 0.36484 0.0
C1450 C 0.13368 0.36568 0.3292 0.0
C1451 C 0.15926 0.36186 0.32536 0.0
C1452 C 0.17204 0.34632 0.34212 0.0
H1453 H 0.23862 0.46644 0.2278 0.0
H1454 H 0.22385 0.44211 0.26324 0.0
C1455 C 0.15927 0.33408 0.36153 0.0
C1456 C 0.17215 0.37475 0.30412 0.0
H1457 H 0.2079 0.36527 0.25215 0.0
C1458 C 0.1687 0.40053 0.30118 0.0
C1459 C 0.18618 0.36184 0.28586 0.0
C1460 C 0.18934 0.33395 0.28672 0.0
C1461 C 0.17852 0.41363 0.2807 0.0
C1462 C 0.19332 0.40094 0.26292 0.0
C1463 C 0.19685 0.37516 0.26581 0.0
C1464 C 0.20483 0.41412 0.24109 0.0
C1465 C 0.17192 0.44078 0.27787 0.0
C1466 C 0.20072 0.40573 0.21656 0.0
C1467 C 0.20992 0.41932 0.19609 0.0
C1468 C 0.22318 0.4417 0.19978 0.0
C1469 C 0.22821 0.44941 0.22431 0.0
C1470 C 0.21951 0.43562 0.24465 0.0
H1471 H 0.15456 0.44542 0.2881 0.0
H1472 H 0.18714 0.45252 0.28564 0.0
H1473 H 0.1693 0.44573 0.25801 0.0
H1474 H 0.18967 0.3891 0.21319 0.0
H1475 H 0.20565 0.41296 0.17743 0.0
H1476 H 0.88751 0.8896 0.64425 0.0
H1477 H 0.8731 0.90817 0.60528 0.0
H1478 H 0.9492 0.92007 0.58236 0.0
H1479 H 0.96386 0.90141 0.6215 0.0
H1480 H 0.88781 0.95919 0.58419 0.0
H1481 H 0.9124 0.87762 0.52508 0.0
H1482 H 0.9073 0.8746 0.55819 0.0
H1483 H 0.93512 0.88939 0.54689 0.0
C1484 C 0.90122 0.89617 0.63094 0.0
C1485 C 0.92685 0.89386 0.63592 0.0
C1486 C 0.89294 0.90686 0.60871 0.0
C1487 C 0.91006 0.91527 0.59082 0.0
C1488 C 0.93568 0.91351 0.59586 0.0
H1489 H 0.87192 0.96259 0.43811 0.0
H1490 H 0.89577 0.95074 0.47524 0.0
C1491 C 0.94402 0.90301 0.61828 0.0
C1492 C 0.90081 0.92558 0.56686 0.0
H1493 H 0.89154 0.91069 0.50566 0.0
C1494 C 0.88881 0.94871 0.56695 0.0
C1495 C 0.90233 0.91199 0.54435 0.0
C1496 C 0.91487 0.88695 0.54339 0.0
C1497 C 0.87791 0.95844 0.54525 0.0
C1498 C 0.87831 0.94429 0.52295 0.0
C1499 C 0.8911 0.92152 0.52269 0.0
C1500 C 0.86421 0.95204 0.5003 0.0
C1501 C 0.86616 0.98387 0.54649 0.0
C1502 C 0.83849 0.95637 0.50182 0.0
C1503 C 0.825 0.96351 0.4808 0.0
C1504 C 0.83671 0.9661 0.4575 0.0
C1505 C 0.8624 0.9613 0.45581 0.0
C1506 C 0.87601 0.9543 0.47701 0.0
H1507 H 0.8748 0.99548 0.56133 0.0
H1508 H 0.8679 0.9939 0.52849 0.0
H1509 H 0.84607 0.98176 0.551 0.0
H1510 H 0.82872 0.95408 0.51931 0.0
H1511 H 0.80531 0.96718 0.48295 0.0
H1512 H 0.30483 0.60463 0.67875 0.0
H1513 H 0.31955 0.62909 0.71477 0.0
H1514 H 0.3132 0.56401 0.76128 0.0
H1515 H 0.29806 0.53982 0.72595 0.0
H1516 H 0.2961 0.63557 0.76634 0.0
H1517 H 0.3879 0.58848 0.76742 0.0
H1518 H 0.36812 0.58887 0.74021 0.0
H1519 H 0.36112 0.56822 0.76557 0.0
C1520 C 0.30636 0.59558 0.69669 0.0
C1521 C 0.30067 0.57002 0.69919 0.0
C1522 C 0.31481 0.60961 0.71729 0.0
C1523 C 0.31787 0.59835 0.74075 0.0
C1524 C 0.3114 0.57311 0.74338 0.0
H1525 H 0.38159 0.62984 0.88521 0.0
H1526 H 0.36225 0.61258 0.84779 0.0
C1527 C 0.30281 0.55922 0.723 0.0
C1528 C 0.32841 0.61244 0.76248 0.0
H1529 H 0.37832 0.61386 0.80207 0.0
C1530 C 0.31418 0.63104 0.77405 0.0
C1531 C 0.35193 0.60646 0.77269 0.0
C1532 C 0.36832 0.58706 0.7608 0.0
C1533 C 0.32242 0.64311 0.79602 0.0
C1534 C 0.34591 0.63694 0.80644 0.0
C1535 C 0.36031 0.61869 0.79438 0.0
C1536 C 0.35572 0.64823 0.83023 0.0
C1537 C 0.30534 0.66157 0.80838 0.0
C1538 C 0.35829 0.67422 0.83345 0.0
C1539 C 0.36911 0.68422 0.85523 0.0
C1540 C 0.37809 0.66846 0.8741 0.0
C1541 C 0.37502 0.64255 0.87104 0.0
C1542 C 0.36398 0.63263 0.84952 0.0
H1543 H 0.28567 0.65886 0.80244 0.0
H1544 H 0.30625 0.66002 0.82896 0.0
H1545 H 0.3111 0.68073 0.80304 0.0
H1546 H 0.35272 0.68682 0.81878 0.0
H1547 H 0.3715 0.70421 0.8568 0.0
H1548 H 0.57829 0.12236 0.10619 0.0
H1549 H 0.59535 0.10462 0.06771 0.0
H1550 H 0.66607 0.14002 0.0827 0.0
H1551 H 0.64952 0.15726 0.12128 0.0
H1552 H 0.64568 0.14912 0.0337 0.0
H1553 H 0.64827 0.04832 0.05742 0.0
H1554 H 0.61953 0.06442 0.0632 0.0
H1555 H 0.64677 0.07234 0.08093 0.0
C1556 C 0.59761 0.12599 0.10158 0.0
C1557 C 0.61239 0.1415 0.11688 0.0
C1558 C 0.60733 0.11586 0.0795 0.0
C1559 C 0.63203 0.12095 0.07228 0.0
C1560 C 0.64694 0.1359 0.08777 0.0
H1561 H 0.72531 0.05072 0.96125 0.0
H1562 H 0.70459 0.06598 0.99876 0.0
C1563 C 0.63734 0.14589 0.10982 0.0
C1564 C 0.64221 0.1119 0.04807 0.0
H1565 H 0.66064 0.05964 0.01687 0.0
C1566 C 0.64892 0.12954 0.02996 0.0
C1567 C 0.64646 0.08638 0.04321 0.0
C1568 C 0.64007 0.06667 0.0622 0.0
C1569 C 0.66002 0.1225 1.0073 0.0
C1570 C 0.66448 0.09691 1.00234 0.0
C1571 C 0.65743 0.07924 0.02046 0.0
C1572 C 0.67727 0.08807 0.97911 0.0
C1573 C 0.66726 0.14285 0.98933 0.0
C1574 C 0.66892 0.09505 0.95526 0.0
C1575 C 0.68137 0.08694 0.93376 0.0
C1576 C 0.70228 0.07144 0.93556 0.0
C1577 C 0.7099 0.06349 0.95928 0.0
C1578 C 0.69779 0.07197 0.98077 0.0
H1579 H 0.67093 0.16076 0.9991 0.0
H1580 H 0.68404 0.13787 0.97859 0.0
H1581 H 0.6517 0.1459 0.9761 0.0
H1582 H 0.65263 0.10663 0.95321 0.0
H1583 H 0.67458 0.09266 0.91568 0.0
H1584 H 0.66724 0.20798 0.66486 0.0
H1585 H 0.68724 0.19222 0.70282 0.0
H1586 H 0.66775 0.11707 0.68171 0.0
H1587 H 0.64831 0.13253 0.64373 0.0
H1588 H 0.66466 0.16468 0.74137 0.0
H1589 H 0.74142 0.1108 0.69915 0.0
H1590 H 0.72415 0.1339 0.68202 0.0
H1591 H 0.71149 0.10306 0.68628 0.0
C1592 C 0.66762 0.18807 0.6681 0.0
C1593 C 0.6561 0.17155 0.65122 0.0
C1594 C 0.67892 0.17909 0.6899 0.0
C1595 C 0.67928 0.1534 0.69506 0.0
C1596 C 0.66814 0.13691 0.67802 0.0
H1597 H 0.717 0.05067 0.81119 0.0
H1598 H 0.70434 0.07261 0.77374 0.0
C1599 C 0.65678 0.14583 0.65638 0.0
C1600 C 0.69009 0.14371 0.71873 0.0
H1601 H 0.73177 0.1016 0.74165 0.0
C1602 C 0.67958 0.15115 0.74148 0.0
C1603 C 0.70955 0.12602 0.71893 0.0
C1604 C 0.72249 0.11814 0.6953 0.0
C1605 C 0.68718 0.14058 0.76423 0.0
C1606 C 0.70616 0.12236 0.76435 0.0
C1607 C 0.71715 0.11546 0.74164 0.0
C1608 C 0.71402 0.10928 0.78757 0.0
C1609 C 0.67403 0.14822 0.78783 0.0
C1610 C 0.72418 0.12237 0.80788 0.0
C1611 C 0.73114 0.10977 0.82968 0.0
C1612 C 0.72799 0.08376 0.83176 0.0
C1613 C 0.71867 0.07072 0.81095 0.0
C1614 C 0.71171 0.08327 0.78925 0.0
H1615 H 0.65625 0.15794 0.78393 0.0
H1616 H 0.67002 0.13176 0.79973 0.0
H1617 H 0.68622 0.16115 0.7985 0.0
H1618 H 0.72692 0.14235 0.80683 0.0
H1619 H 0.73908 0.12051 0.84473 0.0
H1620 H 0.16006 0.44757 0.11794 0.0
H1621 H 0.13762 0.43782 0.07937 0.0
H1622 H 0.1921 0.47997 0.03759 0.0
H1623 H 0.21506 0.48868 0.076 0.0
H1624 H 0.11451 0.46598 0.04731 0.0
H1625 H 0.19072 0.41982 0.9953 0.0
H1626 H 0.1923 0.42631 0.02807 0.0
H1627 H 0.19845 0.45066 1.00585 0.0
C1628 C 0.16743 0.45437 0.10043 0.0
C1629 C 0.18966 0.46834 0.09998 0.0
C1630 C 0.15453 0.44891 0.07835 0.0
C1631 C 0.16325 0.45768 0.05521 0.0
C1632 C 0.18527 0.47213 0.05486 0.0
H1633 H 0.10299 0.42799 0.90486 0.0
H1634 H 0.12399 0.44928 0.93964 0.0
C1635 C 0.1984 0.47725 0.07693 0.0
C1636 C 0.1488 0.45219 0.03182 0.0
H1637 H 0.1533 0.42604 0.97381 0.0
C1638 C 0.1231 0.45727 0.03127 0.0
C1639 C 0.15978 0.44115 1.01048 0.0
C1640 C 0.18681 0.43398 1.00985 0.0
C1641 C 0.1082 0.45118 1.01048 0.0
C1642 C 0.11912 0.43938 0.98961 0.0
C1643 C 0.14489 0.43517 0.98971 0.0
C1644 C 0.10404 0.42921 0.96845 0.0
C1645 C 0.08088 0.45753 1.01109 0.0
C1646 C 0.08557 0.41109 0.97292 0.0
C1647 C 0.0736 0.39899 0.95313 0.0
C1648 C 0.07984 0.40454 0.92828 0.0
C1649 C 0.09757 0.42344 0.92374 0.0
C1650 C 0.10968 0.43551 0.94363 0.0
H1651 H 0.07725 0.47352 0.02369 0.0
H1652 H 0.07382 0.46215 0.99223 0.0
H1653 H 0.07019 0.44127 0.01823 0.0
H1654 H 0.08116 0.40544 0.99177 0.0
H1655 H 0.05995 0.38462 0.95731 0.0
H1656 H 0.8551 0.93657 0.36695 0.0
H1657 H 0.86738 0.9164 0.32785 0.0
H1658 H 0.79196 0.92315 0.30081 0.0
H1659 H 0.78056 0.94544 0.33882 0.0
H1660 H 0.8573 0.8766 0.30612 0.0
H1661 H 0.823 0.94872 0.24124 0.0
H1662 H 0.82202 0.95296 0.27431 0.0
H1663 H 0.79799 0.93525 0.25888 0.0
C1664 C 0.84139 0.93419 0.35233 0.0
C1665 C 0.81721 0.94347 0.3554 0.0
C1666 C 0.84829 0.92244 0.33002 0.0
C1667 C 0.83088 0.91879 0.31064 0.0
C1668 C 0.80623 0.92672 0.31459 0.0
H1669 H 0.86854 0.81807 0.18474 0.0
H1670 H 0.84997 0.83466 0.22308 0.0
C1671 C 0.79961 0.93928 0.33648 0.0
C1672 C 0.8385 0.90621 0.28677 0.0
H1673 H 0.83645 0.91099 0.22319 0.0
C1674 C 0.85278 0.8843 0.28805 0.0
C1675 C 0.83258 0.91584 0.26283 0.0
C1676 C 0.81823 0.93959 0.2592 0.0
C1677 C 0.86168 0.8723 0.26647 0.0
C1678 C 0.8557 0.88201 0.24273 0.0
C1679 C 0.84099 0.90347 0.24136 0.0
C1680 C 0.86605 0.87157 0.21911 0.0
C1681 C 0.87814 0.84981 0.26934 0.0
C1682 C 0.88044 0.88694 0.20351 0.0
C1683 C 0.89069 0.87765 0.18148 0.0
C1684 C 0.88692 0.85264 0.17436 0.0
C1685 C 0.87185 0.8374 0.18959 0.0
C1686 C 0.8615 0.84678 0.21172 0.0
H1687 H 0.88558 0.84813 0.28856 0.0
H1688 H 0.86712 0.83273 0.2652 0.0
H1689 H 0.89405 0.85065 0.25616 0.0
H1690 H 0.88405 0.90618 0.20855 0.0
H1691 H 0.90172 0.89014 0.17003 0.0
H1692 H 0.30123 0.53029 0.57143 0.0
H1693 H 0.32074 0.54398 0.53229 0.0
H1694 H 0.38026 0.5788 0.57379 0.0
H1695 H 0.36068 0.56535 0.61286 0.0
H1696 H 0.33183 0.59317 0.51651 0.0
H1697 H 0.41787 0.53696 0.5219 0.0
H1698 H 0.39072 0.53041 0.54074 0.0
H1699 H 0.41179 0.55515 0.54928 0.0
C1700 C 0.3184 0.541 0.57218 0.0
C1701 C 0.32907 0.54734 0.59528 0.0
C1702 C 0.32963 0.5487 0.54978 0.0
C1703 C 0.35216 0.5623 0.54993 0.0
C1704 C 0.36311 0.56807 0.57302 0.0
H1705 H 0.4166 0.66027 0.43922 0.0
H1706 H 0.39845 0.64013 0.4757 0.0
C1707 C 0.35182 0.5605 0.59538 0.0
C1708 C 0.36377 0.57122 0.52611 0.0
H1709 H 0.41722 0.56906 0.49118 0.0
C1710 C 0.35042 0.58774 0.51094 0.0
C1711 C 0.38799 0.56401 0.51851 0.0
C1712 C 0.4029 0.54547 0.5333 0.0
C1713 C 0.36083 0.59783 0.48901 0.0
C1714 C 0.38541 0.59139 0.48191 0.0
C1715 C 0.39849 0.57421 0.49661 0.0
C1716 C 0.39798 0.60312 0.45985 0.0
C1717 C 0.34538 0.61537 0.47356 0.0
C1718 C 0.40477 0.58897 0.43886 0.0
C1719 C 0.41511 0.60056 0.41764 0.0
C1720 C 0.41902 0.62656 0.41699 0.0
C1721 C 0.41331 0.64035 0.4386 0.0
C1722 C 0.40291 0.62883 0.45962 0.0
H1723 H 0.3252 0.61364 0.47794 0.0
H1724 H 0.35127 0.63484 0.47751 0.0
H1725 H 0.34812 0.61183 0.45339 0.0
H1726 H 0.40136 0.56906 0.43859 0.0
H1727 H 0.41917 0.58928 0.40145 0.0
H1728 H 0.20246 0.173 0.4706 0.0
H1729 H 0.24064 0.16169 0.44865 0.0
H1730 H 0.23892 0.23156 0.40908 0.0
H1731 H 0.20174 0.24362 0.43243 0.0
H1732 H 0.25065 0.15495 0.40014 0.0
H1733 H 0.3089 0.23309 0.43556 0.0
H1734 H 0.27861 0.22584 0.4483 0.0
H1735 H 0.28131 0.24303 0.41967 0.0
C1736 C 0.21047 0.18615 0.45762 0.0
C1737 C 0.19916 0.20931 0.4535 0.0
C1738 C 0.23216 0.17954 0.4448 0.0
C1739 C 0.24305 0.19594 0.42748 0.0
C1740 C 0.2313 0.21878 0.42272 0.0
H1741 H 0.3795 0.18197 0.33788 0.0
H1742 H 0.3386 0.19489 0.35366 0.0
C1743 C 0.2097 0.22547 0.43574 0.0
C1744 C 0.2666 0.18898 0.41449 0.0
H1745 H 0.32709 0.20726 0.4049 0.0
C1746 C 0.26734 0.16642 0.4012 0.0
C1747 C 0.28848 0.20391 0.4158 0.0
C1748 C 0.28945 0.22769 0.43078 0.0
C1749 C 0.28922 0.15841 0.38928 0.0
C1750 C 0.31108 0.17323 0.39078 0.0
C1751 C 0.31028 0.19598 0.40365 0.0
C1752 C 0.33529 0.16482 0.38028 0.0
C1753 C 0.28876 0.13417 0.37506 0.0
C1754 C 0.34704 0.14367 0.38999 0.0
C1755 C 0.37036 0.1363 0.38108 0.0
C1756 C 0.38252 0.14992 0.3622 0.0
C1757 C 0.37055 0.17092 0.35223 0.0
C1758 C 0.34725 0.17841 0.36132 0.0
H1759 H 0.26944 0.12832 0.37027 0.0
H1760 H 0.29981 0.1357 0.35764 0.0
H1761 H 0.29712 0.11935 0.3867 0.0
H1762 H 0.33836 0.13307 0.40484 0.0
H1763 H 0.37893 0.11993 0.38905 0.0
H1764 H 0.15795 0.08151 0.60423 0.0
H1765 H 0.13924 0.0452 0.6244 0.0
H1766 H 0.0693 0.08374 0.6301 0.0
H1767 H 0.08811 0.12049 0.60986 0.0
H1768 H 0.1202 0.04649 0.67265 0.0
H1769 H 0.04823 0.01303 0.60595 0.0
H1770 H 0.07359 0.03334 0.59672 0.0
H1771 H 0.04767 0.04565 0.61372 0.0
C1772 C 0.13848 0.08225 0.60949 0.0
C1773 C 0.12464 0.10411 0.60559 0.0
C1774 C 0.12777 0.06138 0.621 0.0
C1775 C 0.10281 0.06156 0.62884 0.0
C1776 C 0.08849 0.08291 0.62397 0.0
H1777 H 0.04355 0.9563 0.74157 0.0
H1778 H 0.0552 0.99435 0.71879 0.0
C1779 C 0.09927 0.10395 0.61236 0.0
C1780 C 0.09291 0.04023 0.644 0.0
H1781 H 0.05109 0.99161 0.64434 0.0
C1782 C 0.10488 0.03469 0.66654 0.0
C1783 C 0.07312 0.02456 0.63599 0.0
C1784 C 0.05992 0.0292 0.6117 0.0
C1785 C 0.09789 0.01398 0.68106 0.0
C1786 C 0.07826 0.99813 0.67311 0.0
C1787 C 0.06605 1.00375 0.65063 0.0
C1788 C 0.07117 0.97502 0.6873 0.0
C1789 C 0.11264 1.0082 0.70405 0.0
C1790 C 0.07615 0.95135 0.67735 0.0
C1791 C 0.06982 0.9296 0.69053 0.0
C1792 C 0.05834 0.93088 0.71405 0.0
C1793 C 0.05303 0.95458 0.72389 0.0
C1794 C 0.05953 0.97639 0.71075 0.0
H1795 H 0.12786 0.02192 0.7075 0.0
H1796 H 0.10014 1.00792 0.72046 0.0
H1797 H 0.12091 0.98949 0.70182 0.0
H1798 H 0.08504 0.94969 0.65933 0.0
H1799 H 0.0738 0.91166 0.68224 0.0
H1800 H 0.2082 0.89016 0.82276 0.0
H1801 H 0.24371 0.8694 0.84214 0.0
H1802 H 0.19516 0.83997 0.89919 0.0
H1803 H 0.15942 0.85997 0.87909 0.0
H1804 H 0.26158 0.88016 0.88581 0.0
H1805 H 0.23679 0.7799 0.88666 0.0
H1806 H 0.21996 0.80229 0.86825 0.0
H1807 H 0.21341 0.79886 0.90093 0.0
C1808 C 0.20505 0.87862 0.83902 0.0
C1809 C 0.18109 0.87646 0.84933 0.0
C1810 C 0.22536 0.86686 0.85018 0.0
C1811 C 0.22226 0.85289 0.87211 0.0
C1812 C 0.19809 0.85005 0.88198 0.0
H1813 H 0.32723 0.78773 0.97777 0.0
H1814 H 0.29018 0.80266 0.95582 0.0
C1815 C 0.17765 0.86153 0.87054 0.0
C1816 C 0.24463 0.84368 0.88577 0.0
H1817 H 0.27109 0.79225 0.91215 0.0
C1818 C 0.26368 0.86087 0.89141 0.0
C1819 C 0.24748 0.81855 0.89325 0.0
C1820 C 0.22844 0.79879 0.88676 0.0
C1821 C 0.28523 0.85387 0.90441 0.0
C1822 C 0.28808 0.82876 0.91207 0.0
C1823 C 0.26897 0.81153 0.90653 0.0
C1824 C 0.31072 0.8199 0.9256 0.0
C1825 C 0.30443 0.8738 0.90985 0.0
C1826 C 0.33473 0.82415 0.9159 0.0
C1827 C 0.3559 0.81629 0.92887 0.0
C1828 C 0.3536 0.80371 0.95167 0.0
C1829 C 0.32961 0.79828 0.96077 0.0
C1830 C 0.30841 0.80656 0.94804 0.0
H1831 H 0.29563 0.89236 0.91198 0.0
H1832 H 0.31516 0.86979 0.92691 0.0
H1833 H 0.31763 0.87501 0.89399 0.0
H1834 H 0.33714 0.83351 0.89822 0.0
H1835 H 0.37414 0.82004 0.92103 0.0
H1836 H 0.50298 0.07127 0.21925 0.0
H1837 H 0.49128 0.03315 0.19665 0.0
H1838 H 0.45064 0.07719 0.14343 0.0
H1839 H 0.46263 0.11525 0.1658 0.0
H1840 H 0.44574 0.01308 0.18751 0.0
H1841 H 0.49102 0.03416 0.0975 0.0
H1842 H 0.49755 0.05183 0.12536 0.0
H1843 H 0.47028 0.05841 0.10704 0.0
C1844 C 0.49155 0.07277 0.20272 0.0
C1845 C 0.48326 0.09619 0.19456 0.0
C1846 C 0.48495 0.05097 0.18973 0.0
C1847 C 0.4703 0.05215 0.16805 0.0
C1848 C 0.46238 0.07566 0.15973 0.0
H1849 H 0.38794 0.95421 0.07153 0.0
H1850 H 0.40961 0.9883 0.09282 0.0
C1851 C 0.46908 0.09743 0.17263 0.0
C1852 C 0.46245 0.02887 0.15468 0.0
H1853 H 0.46053 1.00129 0.0972 0.0
C1854 C 0.44925 1.01038 0.16784 0.0
C1855 C 0.4671 0.02513 0.12897 0.0
C1856 C 0.48249 0.04332 0.11395 0.0
C1857 C 0.43967 0.98896 0.15589 0.0
C1858 C 0.44366 0.98562 0.13003 0.0
C1859 C 0.4574 1.00378 0.11699 0.0
C1860 C 0.4322 0.9644 0.11588 0.0
C1861 C 0.42444 0.97059 0.17085 0.0
C1862 C 0.4382 0.93942 0.12106 0.0
C1863 C 0.42584 0.91975 0.10871 0.0
C1864 C 0.40715 0.92469 0.09106 0.0
C1865 C 0.40205 0.94972 0.08519 0.0
C1866 C 0.41447 0.96927 0.09734 0.0
H1867 H 0.41903 0.97824 0.18928 0.0
H1868 H 0.40728 0.96512 0.16061 0.0
H1869 H 0.43556 0.95353 0.17403 0.0
H1870 H 0.45212 0.93512 0.13496 0.0
H1871 H 0.43015 0.90072 0.11374 0.0
H1872 H 0.88522 0.35307 0.6556 0.0
H1873 H 0.84886 0.33413 0.63472 0.0
H1874 H 0.80104 0.38798 0.66984 0.0
H1875 H 0.83728 0.40738 0.68973 0.0
H1876 H 0.80602 0.3122 0.64756 0.0
H1877 H 0.78225 0.39972 0.59934 0.0
H1878 H 0.81089 0.39623 0.61646 0.0
H1879 H 0.7824 0.40398 0.63241 0.0
C1880 C 0.86688 0.36061 0.65907 0.0
C1881 C 0.86417 0.38183 0.6742 0.0
C1882 C 0.84606 0.34986 0.64703 0.0
C1883 C 0.82207 0.36003 0.64994 0.0
C1884 C 0.81929 0.38024 0.66637 0.0
H1885 H 0.67035 0.32534 0.60375 0.0
H1886 H 0.70883 0.33943 0.62437 0.0
C1887 C 0.84004 0.39117 0.67804 0.0
C1888 C 0.80002 0.34999 0.63563 0.0
H1889 H 0.7509 0.36786 0.59912 0.0
C1890 C 0.79417 0.32438 0.63675 0.0
C1891 C 0.78445 0.36564 0.62114 0.0
C1892 C 0.79047 0.39285 0.61702 0.0
C1893 C 0.77293 0.31434 0.62467 0.0
C1894 C 0.75695 0.33022 0.61109 0.0
C1895 C 0.76298 0.35566 0.60962 0.0
C1896 C 0.73363 0.32096 0.59868 0.0
C1897 C 0.76727 0.28689 0.627 0.0
C1898 C 0.7346 0.30588 0.57727 0.0
C1899 C 0.71257 0.29806 0.56528 0.0
C1900 C 0.68908 0.30532 0.57431 0.0
C1901 C 0.68816 0.3198 0.59611 0.0
C1902 C 0.71015 0.32784 0.60792 0.0
H1903 H 0.77949 0.27764 0.64083 0.0
H1904 H 0.74752 0.28396 0.63251 0.0
H1905 H 0.77001 0.27777 0.60867 0.0
H1906 H 0.75243 0.30042 0.56964 0.0
H1907 H 0.71392 0.28644 0.54886 0.0
H1908 H 0.98502 0.43047 0.86302 0.0
H1909 H 0.97328 0.46436 0.89093 0.0
H1910 H 0.95536 0.51019 0.82751 0.0
H1911 H 0.97009 0.4778 0.79991 0.0
H1912 H 0.97344 0.53836 0.85856 0.0
H1913 H 0.90629 0.48091 0.91224 0.0
H1914 H 0.9375 0.46977 0.91526 0.0
H1915 H 0.92219 0.46893 0.88536 0.0
C1916 C 0.97874 0.44783 0.85501 0.0
C1917 C 0.97762 0.45093 0.82901 0.0
C1918 C 0.97164 0.46716 0.87107 0.0
C1919 C 0.96231 0.4897 0.86156 0.0
C1920 C 0.96208 0.49302 0.83561 0.0
H1921 H 0.85991 0.58723 0.93435 0.0
H1922 H 0.88262 0.55397 0.91452 0.0
C1923 C 0.97011 0.47415 0.81966 0.0
C1924 C 0.95278 0.50996 0.87819 0.0
H1925 H 0.91286 0.52204 0.92623 0.0
C1926 C 0.96004 0.53472 0.87324 0.0
C1927 C 0.93518 0.50551 0.89742 0.0
C1928 C 0.92464 0.47989 0.90273 0.0
C1929 C 0.94955 0.55502 0.886 0.0
C1930 C 0.9324 0.55053 0.90563 0.0
C1931 C 0.926 0.5257 0.91132 0.0
C1932 C 0.91905 0.57109 0.9189 0.0
C1933 C 0.95597 0.58097 0.87711 0.0
C1934 C 0.93168 0.59197 0.92873 0.0
C1935 C 0.91842 0.61197 0.939 0.0
C1936 C 0.89219 0.61121 0.9406 0.0
C1937 C 0.87989 0.58935 0.93254 0.0
C1938 C 0.89302 0.56987 0.92151 0.0
H1939 H 0.96307 0.58088 0.85768 0.0
H1940 H 0.93953 0.59338 0.87786 0.0
H1941 H 0.97088 0.58892 0.88907 0.0
H1942 H 0.9518 0.59309 0.92808 0.0
H1943 H 0.92881 0.62824 0.945 0.0
H1944 H 0.86003 0.70381 0.11754 0.0
H1945 H 0.82125 0.69223 0.13874 0.0
H1946 H 0.7796 0.73565 0.08575 0.0
H1947 H 0.81835 0.74615 0.06387 0.0
H1948 H 0.78903 0.71783 0.16294 0.0
H1949 H 0.73702 0.67595 0.08395 0.0
H1950 H 0.76946 0.68421 0.08198 0.0
H1951 H 0.74604 0.70777 0.07869 0.0
C1952 C 0.84253 0.71053 0.1102 0.0
C1953 C 0.84227 0.72541 0.08869 0.0
C1954 C 0.82028 0.704 0.12241 0.0
C1955 C 0.79708 0.71258 0.1138 0.0
C1956 C 0.79689 0.72793 0.0925 0.0
H1957 H 0.64648 0.67821 0.17386 0.0
H1958 H 0.68101 0.70029 0.15299 0.0
C1959 C 0.81917 0.7341 0.08 0.0
C1960 C 0.77353 0.70604 0.12782 0.0
H1961 H 0.71539 0.6797 0.12184 0.0
C1962 C 0.773 0.70948 0.15381 0.0
C1963 C 0.75208 0.69555 0.11622 0.0
C1964 C 0.75111 0.69046 0.0887 0.0
C1965 C 0.75226 0.70229 0.16834 0.0
C1966 C 0.73133 0.69091 0.15681 0.0
C1967 C 0.73135 0.68838 0.13079 0.0
C1968 C 0.71021 0.67967 0.17141 0.0
C1969 C 0.75298 0.70708 0.196 0.0
C1970 C 0.71492 0.66088 0.18896 0.0
C1971 C 0.69528 0.64836 0.20088 0.0
C1972 C 0.67026 0.65408 0.19553 0.0
C1973 C 0.66548 0.6735 0.17863 0.0
C1974 C 0.68524 0.68601 0.16655 0.0
H1975 H 0.76546 0.72305 0.20056 0.0
H1976 H 0.73411 0.71098 0.20346 0.0
H1977 H 0.76038 0.69038 0.20557 0.0
H1978 H 0.73384 0.65514 0.19277 0.0
H1979 H 0.6997 0.63357 0.21382 0.0
H1980 H 0.6416 0.45739 0.46445 0.0
H1981 H 0.61987 0.49071 0.44258 0.0
H1982 H 0.59528 0.43811 0.38687 0.0
H1983 H 0.61654 0.40447 0.4093 0.0
H1984 H 0.63124 0.50697 0.39773 0.0
H1985 H 0.53221 0.47702 0.39647 0.0
H1986 H 0.55505 0.46259 0.41634 0.0
H1987 H 0.55317 0.45432 0.38395 0.0
C1988 C 0.63109 0.45283 0.44783 0.0
C1989 C 0.63075 0.4283 0.43862 0.0
C1990 C 0.6187 0.47192 0.43527 0.0
C1991 C 0.60573 0.46709 0.41304 0.0
C1992 C 0.60463 0.44238 0.40422 0.0
H1993 H 0.53403 0.56986 0.3074 0.0
H1994 H 0.55059 0.53282 0.32844 0.0
C1995 C 0.61684 0.42312 0.41702 0.0
C1996 C 0.59558 0.4884 0.39824 0.0
H1997 H 0.54284 0.51211 0.37166 0.0
C1998 C 0.61186 0.50807 0.39211 0.0
C1999 C 0.57035 0.48991 0.39064 0.0
C2000 C 0.5516 0.46996 0.39736 0.0
C2001 C 0.60381 0.52908 0.3788 0.0
C2002 C 0.57848 0.53085 0.3714 0.0
C2003 C 0.56224 0.51093 0.37714 0.0
C2004 C 0.56838 0.55338 0.35836 0.0
C2005 C 0.62293 0.54893 0.37284 0.0
C2006 C 0.57222 0.57738 0.36824 0.0
C2007 C 0.56343 0.59851 0.35581 0.0
C2008 C 0.55022 0.59626 0.33334 0.0
C2009 C 0.54505 0.57224 0.32413 0.0
C2010 C 0.55428 0.55104 0.33635 0.0
H2011 H 0.64174 0.54076 0.3704 0.0
H2012 H 0.61819 0.55933 0.35578 0.0
H2013 H 0.62402 0.56228 0.38859 0.0
H2014 H 0.58203 0.57986 0.38568 0.0
H2015 H 0.56699 0.61672 0.36381 0.0
H2016 H 0.37123 0.35162 0.12518 0.0
H2017 H 0.39225 0.31759 0.14654 0.0
H2018 H 0.332 0.31294 0.19942 0.0
H2019 H 0.31067 0.34723 0.17794 0.0
H2020 H 0.38029 0.30815 0.22113 0.0
H2021 H 0.36853 0.24482 0.1405 0.0
H2022 H 0.38316 0.27391 0.13246 0.0
H2023 H 0.35151 0.27357 0.14351 0.0
C2024 C 0.36242 0.34343 0.14139 0.0
C2025 C 0.33906 0.35192 0.14961 0.0
C2026 C 0.37446 0.32391 0.15356 0.0
C2027 C 0.36344 0.31224 0.1742 0.0
C2028 C 0.34075 0.32149 0.18336 0.0
H2029 H 0.4211 0.16691 0.22287 0.0
H2030 H 0.39264 0.20033 0.21058 0.0
C2031 C 0.32864 0.34117 0.17116 0.0
C2032 C 0.37555 0.29011 0.18565 0.0
H2033 H 0.3976 0.23215 0.17159 0.0
C2034 C 0.38385 0.29143 0.2104 0.0
C2035 C 0.37982 0.26805 0.17184 0.0
C2036 C 0.37008 0.26482 0.14569 0.0
C2037 C 0.39728 0.27177 0.22129 0.0
C2038 C 0.40288 0.25035 0.20693 0.0
C2039 C 0.39357 0.2486 0.18257 0.0
C2040 C 0.41943 0.23014 0.21625 0.0
C2041 C 0.40535 0.27419 0.24807 0.0
C2042 C 0.44396 0.23567 0.22358 0.0
C2043 C 0.46015 0.21666 0.23069 0.0
C2044 C 0.45243 0.19153 0.23029 0.0
C2045 C 0.42771 0.186 0.22338 0.0
C2046 C 0.41143 0.20511 0.21629 0.0
H2047 H 0.39307 0.28708 0.25852 0.0
H2048 H 0.40528 0.25582 0.25758 0.0
H2049 H 0.42457 0.28194 0.24873 0.0
H2050 H 0.45084 0.25468 0.22321 0.0
H2051 H 0.47893 0.22172 0.23618 0.0
H2052 H 0.96981 0.32718 0.78493 0.0
H2053 H 0.94892 0.2891 0.79956 0.0
H2054 H 0.89565 0.33369 0.83959 0.0
H2055 H 0.91621 0.37169 0.82449 0.0
H2056 H 0.94266 0.27155 0.84543 0.0
H2057 H 0.84945 0.28651 0.80476 0.0
H2058 H 0.87617 0.30514 0.79603 0.0
H2059 H 0.85891 0.31227 0.82387 0.0
C2060 C 0.95365 0.32879 0.79686 0.0
C2061 C 0.94496 0.35236 0.80411 0.0
C2062 C 0.94163 0.30703 0.80512 0.0
C2063 C 0.92043 0.30838 0.82046 0.0
C2064 C 0.91155 0.33201 0.82732 0.0
H2065 H 0.83337 0.21001 0.91284 0.0
H2066 H 0.85276 0.24452 0.89006 0.0
C2067 C 0.92344 0.35374 0.81889 0.0
C2068 C 0.90829 0.2852 0.83021 0.0
H2069 H 0.85194 0.25568 0.83701 0.0
C2070 C 0.92289 0.268 0.84335 0.0
C2071 C 0.88245 0.28029 0.82736 0.0
C2072 C 0.8659 0.2969 0.81201 0.0
C2073 C 0.91228 0.24673 0.85457 0.0
C2074 C 0.88634 0.2423 0.8524 0.0
C2075 C 0.8718 0.25914 0.83878 0.0
C2076 C 0.87381 0.22099 0.8652 0.0
C2077 C 0.92875 0.22961 0.86944 0.0
C2078 C 0.87875 0.19619 0.85847 0.0
C2079 C 0.86758 0.17633 0.87145 0.0
C2080 C 0.8514 0.1809 0.89154 0.0
C2081 C 0.84602 0.2058 0.89772 0.0
C2082 C 0.857 0.22557 0.88464 0.0
H2083 H 0.94741 0.23797 0.87302 0.0
H2084 H 0.91992 0.22493 0.88755 0.0
H2085 H 0.93137 0.21198 0.85899 0.0
H2086 H 0.89141 0.19219 0.84332 0.0
H2087 H 0.87219 0.15741 0.86626 0.0
H2088 H 0.11403 0.6354 0.15313 0.0
H2089 H 0.07684 0.65202 0.13323 0.0
H2090 H 0.06464 0.58193 0.09593 0.0
H2091 H 0.10164 0.5647 0.11643 0.0
H2092 H 0.05946 0.62816 0.06511 0.0
H2093 H 1.00379 0.62963 0.15217 0.0
H2094 H 0.03436 0.64334 0.15458 0.0
H2095 H 0.03117 0.61056 0.14851 0.0
C2096 C 0.1034 0.62331 0.14091 0.0
C2097 C 0.11079 0.59848 0.13681 0.0
C2098 C 0.08213 0.63294 0.12944 0.0
C2099 C 0.06767 0.61813 0.11341 0.0
C2100 C 0.07542 0.59367 0.10837 0.0
H2101 H 0.91822 0.6674 0.06535 0.0
H2102 H 0.95271 0.6406 0.07893 0.0
C2103 C 0.0967 0.5839 0.12001 0.0
C2104 C 0.04444 0.62839 0.10223 0.0
H2105 H 0.98748 0.65211 0.11772 0.0
C2106 C 0.0436 0.63313 0.07655 0.0
C2107 C 0.0236 0.63465 0.11708 0.0
C2108 C 0.02304 0.62913 0.1446 0.0
C2109 C 0.02296 0.64496 0.06556 0.0
C2110 C 1.00264 0.65235 0.08065 0.0
C2111 C 1.00303 0.64658 0.10613 0.0
C2112 C 0.9817 0.66762 0.07074 0.0
C2113 C 0.02317 0.64968 0.0379 0.0
C2114 C 0.98644 0.69167 0.06159 0.0
C2115 C 0.96687 0.70693 0.05393 0.0
C2116 C 0.94195 0.69863 0.0553 0.0
C2117 C 0.93718 0.67431 0.0639 0.0
C2118 C 0.95687 0.65903 0.07177 0.0
H2119 H 0.03616 0.63697 0.02811 0.0
H2120 H 1.00424 0.64735 0.02985 0.0
H2121 H 0.02947 0.66911 0.03439 0.0
H2122 H 1.00531 0.69895 0.061 0.0
H2123 H 0.9713 0.7255 0.04731 0.0
H2124 H 0.64098 0.87466 0.38631 0.0
H2125 H 0.62291 0.83832 0.36529 0.0
H2126 H 0.69655 0.81105 0.34945 0.0
H2127 H 0.71487 0.84766 0.37049 0.0
H2128 H 0.63389 0.81914 0.31261 0.0
H2129 H 0.65683 0.75392 0.3898 0.0
H2130 H 0.65447 0.78712 0.39481 0.0
H2131 H 0.68073 0.77477 0.37845 0.0
C2132 C 0.65337 0.86102 0.37824 0.0
C2133 C 0.67939 0.864 0.38022 0.0
C2134 C 0.643 0.84027 0.36617 0.0
C2135 C 0.65834 0.82182 0.35602 0.0
C2136 C 0.68435 0.82498 0.35732 0.0
H2137 H 0.60642 0.67414 0.3038 0.0
H2138 H 0.63342 0.70924 0.3159 0.0
C2139 C 0.69479 0.84597 0.36918 0.0
C2140 C 0.64681 0.79911 0.3447 0.0
H2141 H 0.63311 0.73792 0.35665 0.0
C2142 C 0.63391 0.80131 0.3221 0.0
C2143 C 0.64698 0.7758 0.35698 0.0
C2144 C 0.66037 0.77253 0.38142 0.0
C2145 C 0.6209 0.78096 0.31164 0.0
C2146 C 0.62 0.75789 0.32452 0.0
C2147 C 0.63362 0.75552 0.34675 0.0
C2148 C 0.60393 0.73657 0.31606 0.0
C2149 C 0.60839 0.78444 0.28674 0.0
C2150 C 0.5783 0.74 0.31217 0.0
C2151 C 0.56295 0.7201 0.30495 0.0
C2152 C 0.57259 0.69594 0.30201 0.0
C2153 C 0.59829 0.69243 0.30586 0.0
C2154 C 0.61375 0.71251 0.31289 0.0
H2155 H 0.61792 0.79913 0.27562 0.0
H2156 H 0.60815 0.76689 0.27579 0.0
H2157 H 0.58889 0.79048 0.28975 0.0
H2158 H 0.56998 0.75809 0.31508 0.0
H2159 H 0.54338 0.7237 0.30188 0.0
H2160 H 0.60741 0.36149 0.55019 0.0
H2161 H 0.57105 0.38492 0.56529 0.0
H2162 H 0.52389 0.32111 0.55151 0.0
H2163 H 0.55958 0.29799 0.53599 0.0
H2164 H 0.51801 0.39172 0.53934 0.0
H2165 H 0.51864 0.34056 0.62927 0.0
H2166 H 0.54611 0.34372 0.61003 0.0
H2167 H 0.52191 0.32215 0.60147 0.0
C2168 C 0.58924 0.35259 0.55006 0.0
C2169 C 0.58661 0.32764 0.54225 0.0
C2170 C 0.56847 0.36599 0.55874 0.0
C2171 C 0.54474 0.35469 0.55981 0.0
C2172 C 0.54199 0.33019 0.55111 0.0
H2173 H 0.39978 0.37761 0.62462 0.0
H2174 H 0.43789 0.36281 0.60483 0.0
C2175 C 0.56255 0.31693 0.54233 0.0
C2176 C 0.52287 0.36771 0.57094 0.0
H2177 H 0.48362 0.36567 0.62103 0.0
C2178 C 0.51059 0.38629 0.55732 0.0
C2179 C 0.51306 0.36044 0.59428 0.0
C2180 C 0.52561 0.34074 0.6098 0.0
C2181 C 0.48828 0.39714 0.56604 0.0
C2182 C 0.47826 0.38968 0.58937 0.0
C2183 C 0.49104 0.37148 0.60316 0.0
C2184 C 0.45411 0.39947 0.59954 0.0
C2185 C 0.47514 0.41564 0.54961 0.0
C2186 C 0.44997 0.42517 0.60296 0.0
C2187 C 0.42782 0.43374 0.61403 0.0
C2188 C 0.40952 0.41679 0.6224 0.0
C2189 C 0.41352 0.39119 0.61854 0.0
C2190 C 0.43541 0.38268 0.60724 0.0
H2191 H 0.48111 0.41398 0.52988 0.0
H2192 H 0.45461 0.4131 0.55052 0.0
H2193 H 0.47974 0.4348 0.55596 0.0
H2194 H 0.46419 0.43862 0.59783 0.0
H2195 H 0.42548 0.45355 0.61703 0.0
H2196 H 0.1671 0.64692 0.67494 0.0
H2197 H 0.14476 0.68039 0.69674 0.0
H2198 H 0.19974 0.73361 0.67147 0.0
H2199 H 0.22153 0.7005 0.64923 0.0
H2200 H 0.15537 0.71455 0.73292 0.0
H2201 H 0.1374 0.76461 0.64474 0.0
H2202 H 0.14977 0.73347 0.64542 0.0
H2203 H 0.16999 0.75997 0.65018 0.0
C2204 C 0.17458 0.6657 0.67441 0.0
C2205 C 0.19595 0.67109 0.66017 0.0
C2206 C 0.16175 0.68488 0.68676 0.0
C2207 C 0.17007 0.7098 0.68519 0.0
C2208 C 0.19236 0.7148 0.67234 0.0
H2209 H 0.11482 0.85424 0.73725 0.0
H2210 H 0.14065 0.81973 0.7222 0.0
C2211 C 0.20497 0.69578 0.65981 0.0
C2212 C 0.15523 0.73067 0.69624 0.0
H2213 H 0.12773 0.78633 0.682 0.0
C2214 C 0.14926 0.73017 0.72173 0.0
C2215 C 0.14702 0.75114 0.68174 0.0
C2216 C 0.15113 0.75227 0.65397 0.0
C2217 C 0.13589 0.74968 0.7331 0.0
C2218 C 0.12806 0.77026 0.71864 0.0
C2219 C 0.13395 0.77074 0.69319 0.0
C2220 C 0.11299 0.79108 0.72927 0.0
C2221 C 0.13058 0.74833 0.76062 0.0
C2222 C 0.08882 0.78657 0.7383 0.0
C2223 C 0.07403 0.80624 0.74683 0.0
C2224 C 0.08295 0.83101 0.74648 0.0
C2225 C 0.10736 0.83545 0.7379 0.0
C2226 C 0.12212 0.81573 0.7292 0.0
H2227 H 0.1428 0.7347 0.77015 0.0
H2228 H 0.13312 0.76687 0.7695 0.0
H2229 H 0.11094 0.74237 0.76348 0.0
H2230 H 0.08112 0.76786 0.73821 0.0
H2231 H 0.0554 0.80203 0.75341 0.0
H2232 H 0.43076 0.85978 0.98382 0.0
H2233 H 0.4663 0.88634 0.97241 0.0
H2234 H 0.51474 0.82263 0.97526 0.0
H2235 H 0.47974 0.79635 0.98776 0.0
H2236 H 0.53643 0.86249 0.99658 0.0
H2237 H 0.49826 0.89013 0.90463 0.0
H2238 H 0.47872 0.89778 0.9306 0.0
H2239 H 0.48444 0.86565 0.92314 0.0
C2240 C 0.44899 0.85144 0.98213 0.0
C2241 C 0.45221 0.82576 0.98625 0.0
C2242 C 0.4693 0.86664 0.97536 0.0
C2243 C 0.4932 0.85645 0.97235 0.0
C2244 C 0.49652 0.83098 0.97721 0.0
H2245 H 0.63749 0.89037 0.9141 0.0
H2246 H 0.60006 0.87323 0.93381 0.0
C2247 C 0.47635 0.81588 0.98417 0.0
C2248 C 0.51489 0.87203 0.96417 0.0
H2249 H 0.53707 0.90761 0.91604 0.0
C2250 C 0.53646 0.87245 0.97902 0.0
C2251 C 0.51506 0.88512 0.94125 0.0
C2252 C 0.49299 0.88454 0.92384 0.0
C2253 C 0.55819 0.88517 0.97144 0.0
C2254 C 0.5585 0.89776 0.94833 0.0
C2255 C 0.53675 0.89806 0.93382 0.0
C2256 C 0.58181 0.9088 0.93792 0.0
C2257 C 0.5808 0.88485 0.9881 0.0
C2258 C 0.58407 0.93456 0.93365 0.0
C2259 C 0.60565 0.94448 0.92247 0.0
C2260 C 0.62507 0.92871 0.91492 0.0
C2261 C 0.62281 0.90299 0.91958 0.0
C2262 C 0.60147 0.89318 0.93097 0.0
H2263 H 0.57583 0.87996 1.00758 0.0
H2264 H 0.59407 0.8707 0.98113 0.0
H2265 H 0.59043 0.90323 0.98801 0.0
H2266 H 0.56906 0.94694 0.93874 0.0
H2267 H 0.60677 0.96433 0.91894 0.0
H2268 H 0.95206 0.05752 0.37846 0.0
H2269 H 0.98808 0.07672 0.39888 0.0
H2270 H 0.94057 0.13293 0.43046 0.0
H2271 H 0.90428 0.1137 0.40992 0.0
H2272 H 1.00411 0.12495 0.38883 0.0
H2273 H 0.98518 0.11357 0.48968 0.0
H2274 H 0.96937 0.09531 0.46616 0.0
H2275 H 0.9602 0.12691 0.47196 0.0
C2276 C 0.94919 0.07378 0.39004 0.0
C2277 C 0.92529 0.0842 0.39237 0.0
C2278 C 0.96983 0.08473 0.40174 0.0
C2279 C 0.96716 0.10629 0.41628 0.0
C2280 C 0.94313 0.1161 0.41967 0.0
H2281 H 0.0726 0.20319 0.49411 0.0
H2282 H 0.03602 0.18141 0.47763 0.0
C2283 C 0.92236 0.10508 0.40792 0.0
C2284 C 0.98982 0.11956 0.4258 0.0
H2285 H 0.01949 0.13908 0.47865 0.0
C2286 C 1.00751 0.12808 0.40849 0.0
C2287 C 0.9943 0.12363 0.45141 0.0
C2288 C 0.97641 0.11422 0.47096 0.0
C2289 C 0.02919 0.14103 0.41587 0.0
C2290 C 0.03388 0.14519 0.44161 0.0
C2291 C 0.01615 0.13633 0.45894 0.0
C2292 C 0.05654 0.15902 0.45108 0.0
C2293 C 0.04627 0.15035 0.39557 0.0
C2294 C 0.0807 0.1538 0.44225 0.0
C2295 C 0.10147 0.16745 0.45072 0.0
C2296 C 0.09875 0.18616 0.46876 0.0
C2297 C 0.07502 0.1901 0.47898 0.0
C2298 C 0.05413 0.17713 0.4699 0.0
H2299 H 0.03571 0.15472 0.37835 0.0
H2300 H 0.05668 0.16722 0.40123 0.0
H2301 H 0.05982 0.13554 0.39087 0.0
H2302 H 0.08365 0.13904 0.42888 0.0
H2303 H 0.11976 0.16315 0.44341 0.0
loop_
_geom_bond_atom_site_label_1
_geom_bond_atom_site_label_2
_geom_bond_distance
_geom_bond_site_symmetry_2
_ccdc_geom_bond_type
Tb0 N31 2.660 . S
Tb0 N38 2.600 . S
Tb0 O44 2.546 . S
Tb0 O45 2.610 . S
Tb0 O47 2.320 . S
Tb0 O48 2.552 . S
Tb0 O49 2.413 . S
Tb0 O51 2.362 . S
Tb0 O52 2.421 . S
Tb0 C64 2.833 . S
C1 C4 1.432 . S
C1 C5 1.414 . S
C1 N8 1.359 . S
C2 C4 1.417 . S
C2 C6 1.432 . S
C2 C14 1.410 . S
C3 C5 1.444 . S
C3 C6 1.317 . S
C3 H26 0.929 . S
C4 C1 1.432 . S
C4 C2 1.417 . S
C4 N12 1.360 . S
C5 C1 1.414 . S
C5 C3 1.444 . S
C5 C10 1.385 . S
C6 C2 1.432 . S
C6 C3 1.317 . S
C6 H18 0.930 . S
C7 C9 1.392 . S
C7 C10 1.370 . S
C7 H19 0.931 . S
N8 C1 1.359 . S
N8 C9 1.327 . S
N8 Tb11 2.600 . S
C9 C7 1.392 . S
C9 N8 1.327 . S
C9 H16 0.930 . S
C10 C5 1.385 . S
C10 C7 1.370 . S
C10 H29 0.930 . S
Tb11 N8 2.600 . S
Tb11 N12 2.660 . S
Tb11 O45 2.362 . S
Tb11 O46 2.421 . S
Tb11 O50 2.546 . S
Tb11 O51 2.610 . S
Tb11 O53 2.320 . S
Tb11 O54 2.552 . S
Tb11 O55 2.413 . S
Tb11 C75 2.833 . S
N12 C4 1.360 . S
N12 Tb11 2.660 . S
N12 C13 1.305 . S
C13 N12 1.305 . S
C13 C15 1.407 . S
C13 H20 0.930 . S
C14 C2 1.410 . S
C14 C15 1.345 . S
C14 H22 0.930 . S
C15 C13 1.407 . S
C15 C14 1.345 . S
C15 H17 0.930 . S
H16 C9 0.930 . S
H17 C15 0.930 . S
H18 C6 0.930 . S
H19 C7 0.931 . S
H20 C13 0.930 . S
H21 C35 0.930 . S
H22 C14 0.930 . S
H23 C41 0.930 . S
H24 C32 0.930 . S
H25 C39 0.931 . S
H26 C3 0.929 . S
H27 C33 0.930 . S
H28 C66 0.930 . S
H29 C10 0.930 . S
H30 C65 0.929 . S
N31 Tb0 2.660 . S
N31 C32 1.305 . S
N31 C36 1.360 . S
C32 H24 0.930 . S
C32 N31 1.305 . S
C32 C35 1.407 . S
C33 H27 0.930 . S
C33 C34 1.410 . S
C33 C35 1.345 . S
C34 C33 1.410 . S
C34 C36 1.417 . S
C34 C66 1.432 . S
C35 H21 0.930 . S
C35 C32 1.407 . S
C35 C33 1.345 . S
C36 N31 1.360 . S
C36 C34 1.417 . S
C36 C40 1.432 . S
H37 C42 0.930 . S
N38 Tb0 2.600 . S
N38 C40 1.359 . S
N38 C41 1.327 . S
C39 H25 0.931 . S
C39 C41 1.392 . S
C39 C42 1.370 . S
C40 C36 1.432 . S
C40 N38 1.359 . S
C40 C43 1.414 . S
C41 H23 0.930 . S
C41 N38 1.327 . S
C41 C39 1.392 . S
C42 H37 0.930 . S
C42 C39 1.370 . S
C42 C43 1.385 . S
C43 C40 1.414 . S
C43 C42 1.385 . S
C43 C65 1.444 . S
O44 Tb0 2.546 . S
O44 C64 1.251 . S
O45 Tb0 2.610 . S
O45 Tb11 2.362 . S
O45 C56 1.283 . S
O46 Tb11 2.421 . S
O46 C63 1.262 . S
O47 Tb0 2.320 . S
O47 C63 1.260 . S
O48 Tb0 2.552 . S
O48 C56 1.243 . S
O49 Tb0 2.413 . S
O49 C64 1.256 . S
O50 Tb11 2.546 . S
O50 C75 1.251 . S
O51 Tb0 2.362 . S
O51 Tb11 2.610 . S
O51 C67 1.283 . S
O52 Tb0 2.421 . S
O52 C74 1.262 . S
O53 Tb11 2.320 . S
O53 C74 1.260 . S
O54 Tb11 2.552 . S
O54 C67 1.243 . S
O55 Tb11 2.413 . S
O55 C75 1.256 . S
C56 O45 1.283 . S
C56 O48 1.243 . S
C57 C59 1.382 . S
C57 C61 1.393 . S
C57 C64 1.500 . S
C58 C59 1.400 . S
C58 C60 1.384 . S
C59 C57 1.382 . S
C59 C58 1.400 . S
C59 H76 0.930 . S
C60 C58 1.384 . S
C60 C62 1.392 . S
C60 H77 0.931 . S
C61 C57 1.393 . S
C61 C62 1.401 . S
C61 H78 0.930 . S
C62 C60 1.392 . S
C62 C61 1.401 . S
C62 H79 0.930 . S
C63 O46 1.262 . S
C63 O47 1.260 . S
C64 Tb0 2.833 . S
C64 O44 1.251 . S
C64 O49 1.256 . S
C64 C57 1.500 . S
C65 H30 0.929 . S
C65 C43 1.444 . S
C65 C66 1.317 . S
C66 H28 0.930 . S
C66 C34 1.432 . S
C66 C65 1.317 . S
C67 O51 1.283 . S
C67 O54 1.243 . S
C68 C69 1.382 . S
C68 C72 1.393 . S
C68 C75 1.500 . S
C69 C68 1.382 . S
C69 C70 1.400 . S
C69 H80 0.930 . S
C70 C69 1.400 . S
C70 C71 1.384 . S
C71 C70 1.384 . S
C71 C73 1.392 . S
C71 H81 0.931 . S
C72 C68 1.393 . S
C72 C73 1.401 . S
C72 H82 0.930 . S
C73 C71 1.392 . S
C73 C72 1.401 . S
C73 H83 0.930 . S
C74 O52 1.262 . S
C74 O53 1.260 . S
C75 Tb11 2.833 . S
C75 O50 1.251 . S
C75 O55 1.256 . S
C75 C68 1.500 . S
H76 C59 0.930 . S
H77 C60 0.931 . S
H78 C61 0.930 . S
H79 C62 0.930 . S
H80 C69 0.930 . S
H81 C71 0.931 . S
H82 C72 0.930 . S
H83 C73 0.930 . S
Tb84 N115 2.660 . S
Tb84 N122 2.600 . S
Tb84 O128 2.546 . S
Tb84 O129 2.610 1_655 S
Tb84 O131 2.320 . S
Tb84 O132 2.552 1_655 S
Tb84 O133 2.413 . S
Tb84 O135 2.362 1_655 S
Tb84 O136 2.421 1_655 S
Tb84 C148 2.833 . S
C85 C88 1.432 . S
C85 C89 1.414 . S
C85 N92 1.359 . S
C86 C88 1.417 . S
C86 C90 1.432 . S
C86 C98 1.410 . S
C87 C89 1.444 . S
C87 C90 1.317 . S
C87 H110 0.929 . S
C88 C85 1.432 . S
C88 C86 1.417 . S
C88 N96 1.360 . S
C89 C85 1.414 . S
C89 C87 1.444 . S
C89 C94 1.385 . S
C90 C86 1.432 . S
C90 C87 1.317 . S
C90 H102 0.930 . S
C91 C93 1.392 . S
C91 C94 1.370 . S
C91 H103 0.931 . S
N92 C85 1.359 . S
N92 C93 1.327 . S
N92 Tb95 2.600 . S
C93 C91 1.392 . S
C93 N92 1.327 . S
C93 H100 0.930 . S
C94 C89 1.385 . S
C94 C91 1.370 . S
C94 H113 0.930 . S
Tb95 N92 2.600 . S
Tb95 N96 2.660 . S
Tb95 O129 2.362 . S
Tb95 O130 2.421 . S
Tb95 O134 2.546 . S
Tb95 O135 2.610 . S
Tb95 O137 2.320 . S
Tb95 O138 2.552 . S
Tb95 O139 2.413 . S
Tb95 C159 2.833 . S
N96 C88 1.360 . S
N96 Tb95 2.660 . S
N96 C97 1.305 . S
C97 N96 1.305 . S
C97 C99 1.407 . S
C97 H104 0.930 . S
C98 C86 1.410 . S
C98 C99 1.345 . S
C98 H106 0.930 . S
C99 C97 1.407 . S
C99 C98 1.345 . S
C99 H101 0.930 . S
H100 C93 0.930 . S
H101 C99 0.930 . S
H102 C90 0.930 . S
H103 C91 0.931 . S
H104 C97 0.930 . S
H105 C119 0.930 . S
H106 C98 0.930 . S
H107 C125 0.930 1_455 S
H108 C116 0.930 . S
H109 C123 0.931 . S
H110 C87 0.929 . S
H111 C117 0.930 . S
H112 C150 0.930 . S
H113 C94 0.930 . S
H114 C149 0.929 . S
N115 Tb84 2.660 . S
N115 C116 1.305 . S
N115 C120 1.360 . S
C116 H108 0.930 . S
C116 N115 1.305 . S
C116 C119 1.407 . S
C117 H111 0.930 . S
C117 C118 1.410 . S
C117 C119 1.345 . S
C118 C117 1.410 . S
C118 C120 1.417 . S
C118 C150 1.432 . S
C119 H105 0.930 . S
C119 C116 1.407 . S
C119 C117 1.345 . S
C120 N115 1.360 . S
C120 C118 1.417 . S
C120 C124 1.432 . S
H121 C126 0.930 . S
N122 Tb84 2.600 . S
N122 C124 1.359 . S
N122 C125 1.327 . S
C123 H109 0.931 . S
C123 C125 1.392 . S
C123 C126 1.370 . S
C124 C120 1.432 . S
C124 N122 1.359 . S
C124 C127 1.414 . S
C125 H107 0.930 1_655 S
C125 N122 1.327 . S
C125 C123 1.392 . S
C126 H121 0.930 . S
C126 C123 1.370 . S
C126 C127 1.385 . S
C127 C124 1.414 . S
C127 C126 1.385 . S
C127 C149 1.444 . S
O128 Tb84 2.546 . S
O128 C148 1.251 . S
O129 Tb84 2.610 1_455 S
O129 Tb95 2.362 . S
O129 C140 1.283 . S
O130 Tb95 2.421 . S
O130 C147 1.262 1_455 S
O131 Tb84 2.320 . S
O131 C147 1.260 . S
O132 Tb84 2.552 1_455 S
O132 C140 1.243 . S
O133 Tb84 2.413 . S
O133 C148 1.256 . S
O134 Tb95 2.546 . S
O134 C159 1.251 . S
O135 Tb84 2.362 1_455 S
O135 Tb95 2.610 . S
O135 C151 1.283 . S
O136 Tb84 2.421 1_455 S
O136 C158 1.262 . S
O137 Tb95 2.320 . S
O137 C158 1.260 . S
O138 Tb95 2.552 . S
O138 C151 1.243 . S
O139 Tb95 2.413 . S
O139 C159 1.256 . S
C140 O129 1.283 . S
C140 O132 1.243 . S
C141 C143 1.382 . S
C141 C145 1.393 . S
C141 C148 1.500 . S
C142 C143 1.400 . S
C142 C144 1.384 . S
C143 C141 1.382 . S
C143 C142 1.400 . S
C143 H160 0.930 . S
C144 C142 1.384 . S
C144 C146 1.392 . S
C144 H161 0.931 . S
C145 C141 1.393 . S
C145 C146 1.401 . S
C145 H162 0.930 . S
C146 C144 1.392 . S
C146 C145 1.401 . S
C146 H163 0.930 . S
C147 O130 1.262 1_655 S
C147 O131 1.260 . S
C148 Tb84 2.833 . S
C148 O128 1.251 . S
C148 O133 1.256 . S
C148 C141 1.500 . S
C149 H114 0.929 . S
C149 C127 1.444 . S
C149 C150 1.317 . S
C150 H112 0.930 . S
C150 C118 1.432 . S
C150 C149 1.317 . S
C151 O135 1.283 . S
C151 O138 1.243 . S
C152 C153 1.382 . S
C152 C156 1.393 . S
C152 C159 1.500 . S
C153 C152 1.382 . S
C153 C154 1.400 . S
C153 H164 0.930 . S
C154 C153 1.400 . S
C154 C155 1.384 . S
C155 C154 1.384 . S
C155 C157 1.392 . S
C155 H165 0.931 . S
C156 C152 1.393 . S
C156 C157 1.401 . S
C156 H166 0.930 . S
C157 C155 1.392 . S
C157 C156 1.401 . S
C157 H167 0.930 . S
C158 O136 1.262 . S
C158 O137 1.260 . S
C159 Tb95 2.833 . S
C159 O134 1.251 . S
C159 O139 1.256 . S
C159 C152 1.500 . S
H160 C143 0.930 . S
H161 C144 0.931 . S
H162 C145 0.930 . S
H163 C146 0.930 . S
H164 C153 0.930 . S
H165 C155 0.931 . S
H166 C156 0.930 . S
H167 C157 0.930 . S
Tb168 N199 2.660 . S
Tb168 N206 2.600 . S
Tb168 O212 2.546 . S
Tb168 O213 2.610 . S
Tb168 O215 2.320 . S
Tb168 O216 2.552 . S
Tb168 O217 2.413 . S
Tb168 O219 2.375 . S
Tb168 O220 2.421 . S
Tb168 C232 2.833 . S
C169 C172 1.432 1_554 S
C169 C173 1.414 . S
C169 N176 1.359 . S
C170 C172 1.417 . S
C170 C174 1.432 . S
C170 C182 1.410 . S
C171 C173 1.444 . S
C171 C174 1.317 1_554 S
C171 H194 0.929 . S
C172 C169 1.432 1_556 S
C172 C170 1.417 . S
C172 N180 1.360 . S
C173 C169 1.414 . S
C173 C171 1.444 . S
C173 C178 1.385 . S
C174 C170 1.432 . S
C174 C171 1.317 1_556 S
C174 H186 0.930 . S
C175 C177 1.392 . S
C175 C178 1.370 . S
C175 H187 0.931 . S
N176 C169 1.359 . S
N176 C177 1.327 . S
N176 Tb179 2.600 . S
C177 C175 1.392 . S
C177 N176 1.327 . S
C177 H184 0.930 . S
C178 C173 1.385 . S
C178 C175 1.370 . S
C178 H197 0.930 . S
Tb179 N176 2.600 . S
Tb179 N180 2.660 1_554 S
Tb179 O213 2.362 1_554 S
Tb179 O214 2.421 . S
Tb179 O218 2.546 . S
Tb179 O219 2.606 1_554 S
Tb179 O221 2.320 1_554 S
Tb179 O222 2.552 . S
Tb179 O223 2.413 . S
Tb179 C243 2.833 . S
N180 C172 1.360 . S
N180 Tb179 2.660 1_556 S
N180 C181 1.305 . S
C181 N180 1.305 . S
C181 C183 1.407 . S
C181 H188 0.930 . S
C182 C170 1.410 . S
C182 C183 1.345 . S
C182 H190 0.930 . S
C183 C181 1.407 . S
C183 C182 1.345 . S
C183 H185 0.930 . S
H184 C177 0.930 . S
H185 C183 0.930 . S
H186 C174 0.930 . S
H187 C175 0.931 . S
H188 C181 0.930 . S
H189 C203 0.930 . S
H190 C182 0.930 . S
H191 C209 0.930 . S
H192 C200 0.930 . S
H193 C207 0.931 . S
H194 C171 0.929 . S
H195 C201 0.930 . S
H196 C234 0.930 . S
H197 C178 0.930 . S
H198 C233 0.929 . S
N199 Tb168 2.660 . S
N199 C200 1.305 1_556 S
N199 C204 1.360 . S
C200 H192 0.930 . S
C200 N199 1.305 1_554 S
C200 C203 1.407 . S
C201 H195 0.930 . S
C201 C202 1.410 1_554 S
C201 C203 1.345 . S
C202 C201 1.410 1_556 S
C202 C204 1.417 . S
C202 C234 1.432 . S
C203 H189 0.930 . S
C203 C200 1.407 . S
C203 C201 1.345 . S
C204 N199 1.360 . S
C204 C202 1.417 . S
C204 C208 1.432 . S
H205 C210 0.930 . S
N206 Tb168 2.600 . S
N206 C208 1.359 . S
N206 C209 1.327 . S
C207 H193 0.931 . S
C207 C209 1.392 . S
C207 C210 1.370 . S
C208 C204 1.432 . S
C208 N206 1.359 . S
C208 C211 1.414 . S
C209 H191 0.930 . S
C209 N206 1.327 . S
C209 C207 1.392 . S
C210 H205 0.930 . S
C210 C207 1.370 . S
C210 C211 1.385 . S
C211 C208 1.414 . S
C211 C210 1.385 . S
C211 C233 1.444 . S
O212 Tb168 2.546 . S
O212 C232 1.251 . S
O213 Tb168 2.610 . S
O213 Tb179 2.362 1_556 S
O213 C224 1.283 . S
O214 Tb179 2.421 . S
O214 C231 1.280 . S
O215 Tb168 2.320 . S
O215 C231 1.242 1_556 S
O216 Tb168 2.552 . S
O216 C224 1.243 . S
O217 Tb168 2.413 . S
O217 C232 1.256 . S
O218 Tb179 2.546 . S
O218 C243 1.251 . S
O219 Tb168 2.375 . S
O219 Tb179 2.606 1_556 S
O219 C235 1.270 1_556 S
O220 Tb168 2.421 . S
O220 C242 1.262 . S
O221 Tb179 2.320 1_556 S
O221 C242 1.260 . S
O222 Tb179 2.552 . S
O222 C235 1.243 . S
O223 Tb179 2.413 . S
O223 C243 1.256 . S
C224 O213 1.283 . S
C224 O216 1.243 . S
C225 C227 1.382 . S
C225 C229 1.393 . S
C225 C232 1.500 . S
C226 C227 1.400 . S
C226 C228 1.384 . S
C227 C225 1.382 . S
C227 C226 1.400 . S
C227 H244 0.930 . S
C228 C226 1.384 . S
C228 C230 1.392 . S
C228 H245 0.931 . S
C229 C225 1.393 . S
C229 C230 1.401 . S
C229 H246 0.930 . S
C230 C228 1.392 . S
C230 C229 1.401 . S
C230 H247 0.930 . S
C231 O214 1.280 . S
C231 O215 1.242 1_554 S
C232 Tb168 2.833 . S
C232 O212 1.251 . S
C232 O217 1.256 . S
C232 C225 1.500 . S
C233 H198 0.929 . S
C233 C211 1.444 . S
C233 C234 1.317 . S
C234 H196 0.930 . S
C234 C202 1.432 . S
C234 C233 1.317 . S
C235 O219 1.270 1_554 S
C235 O222 1.243 . S
C236 C237 1.382 . S
C236 C240 1.393 . S
C236 C243 1.500 . S
C237 C236 1.382 . S
C237 C238 1.400 . S
C237 H248 0.930 . S
C238 C237 1.400 . S
C238 C239 1.384 . S
C239 C238 1.384 . S
C239 C241 1.392 . S
C239 H249 0.931 . S
C240 C236 1.393 . S
C240 C241 1.401 . S
C240 H250 0.930 . S
C241 C239 1.392 . S
C241 C240 1.401 . S
C241 H251 0.930 . S
C242 O220 1.262 . S
C242 O221 1.260 . S
C243 Tb179 2.833 . S
C243 O218 1.251 . S
C243 O223 1.256 . S
C243 C236 1.500 . S
H244 C227 0.930 . S
H245 C228 0.931 . S
H246 C229 0.930 . S
H247 C230 0.930 . S
H248 C237 0.930 . S
H249 C239 0.931 . S
H250 C240 0.930 . S
H251 C241 0.930 . S
Tb252 N283 2.660 . S
Tb252 N290 2.600 . S
Tb252 O296 2.546 . S
Tb252 O297 2.610 . S
Tb252 O299 2.320 . S
Tb252 O300 2.552 . S
Tb252 O301 2.413 . S
Tb252 O303 2.362 . S
Tb252 O304 2.421 . S
Tb252 C316 2.833 . S
C253 C256 1.432 . S
C253 C257 1.414 . S
C253 N260 1.359 . S
C254 C256 1.417 . S
C254 C258 1.432 . S
C254 C266 1.410 . S
C255 C257 1.444 . S
C255 C258 1.317 . S
C255 H278 0.929 . S
C256 C253 1.432 . S
C256 C254 1.417 . S
C256 N264 1.360 . S
C257 C253 1.414 . S
C257 C255 1.444 . S
C257 C262 1.385 . S
C258 C254 1.432 . S
C258 C255 1.317 . S
C258 H270 0.930 . S
C259 C261 1.392 . S
C259 C262 1.370 . S
C259 H271 0.931 . S
N260 C253 1.359 . S
N260 C261 1.327 . S
N260 Tb263 2.600 . S
C261 C259 1.392 . S
C261 N260 1.327 . S
C261 H268 0.930 . S
C262 C257 1.385 . S
C262 C259 1.370 . S
C262 H281 0.930 . S
Tb263 N260 2.600 . S
Tb263 N264 2.660 . S
Tb263 O297 2.362 . S
Tb263 O298 2.421 . S
Tb263 O302 2.546 . S
Tb263 O303 2.610 . S
Tb263 O305 2.320 . S
Tb263 O306 2.552 . S
Tb263 O307 2.413 . S
Tb263 C327 2.833 . S
N264 C256 1.360 . S
N264 Tb263 2.660 . S
N264 C265 1.305 . S
C265 N264 1.305 . S
C265 C267 1.407 . S
C265 H272 0.930 . S
C266 C254 1.410 . S
C266 C267 1.345 . S
C266 H274 0.930 . S
C267 C265 1.407 . S
C267 C266 1.345 . S
C267 H269 0.930 . S
H268 C261 0.930 . S
H269 C267 0.930 . S
H270 C258 0.930 . S
H271 C259 0.931 . S
H272 C265 0.930 . S
H273 C287 0.930 . S
H274 C266 0.930 . S
H275 C293 0.930 . S
H276 C284 0.930 . S
H277 C291 0.931 . S
H278 C255 0.929 . S
H279 C285 0.930 . S
H280 C318 0.930 . S
H281 C262 0.930 . S
H282 C317 0.929 . S
N283 Tb252 2.660 . S
N283 C284 1.305 . S
N283 C288 1.360 . S
C284 H276 0.930 . S
C284 N283 1.305 . S
C284 C287 1.407 . S
C285 H279 0.930 . S
C285 C286 1.410 . S
C285 C287 1.345 . S
C286 C285 1.410 . S
C286 C288 1.417 . S
C286 C318 1.432 . S
C287 H273 0.930 . S
C287 C284 1.407 . S
C287 C285 1.345 . S
C288 N283 1.360 . S
C288 C286 1.417 . S
C288 C292 1.432 . S
H289 C294 0.930 . S
N290 Tb252 2.600 . S
N290 C292 1.359 . S
N290 C293 1.327 . S
C291 H277 0.931 . S
C291 C293 1.392 . S
C291 C294 1.370 . S
C292 C288 1.432 . S
C292 N290 1.359 . S
C292 C295 1.414 . S
C293 H275 0.930 . S
C293 N290 1.327 . S
C293 C291 1.392 . S
C294 H289 0.930 . S
C294 C291 1.370 . S
C294 C295 1.385 . S
C295 C292 1.414 . S
C295 C294 1.385 . S
C295 C317 1.444 . S
O296 Tb252 2.546 . S
O296 C316 1.251 . S
O297 Tb252 2.610 . S
O297 Tb263 2.362 . S
O297 C308 1.283 . S
O298 Tb263 2.421 . S
O298 C315 1.262 . S
O299 Tb252 2.320 . S
O299 C315 1.260 . S
O300 Tb252 2.552 . S
O300 C308 1.243 . S
O301 Tb252 2.413 . S
O301 C316 1.256 . S
O302 Tb263 2.546 . S
O302 C327 1.251 . S
O303 Tb252 2.362 . S
O303 Tb263 2.610 . S
O303 C319 1.283 . S
O304 Tb252 2.421 . S
O304 C326 1.262 . S
O305 Tb263 2.320 . S
O305 C326 1.260 . S
O306 Tb263 2.552 . S
O306 C319 1.243 . S
O307 Tb263 2.413 . S
O307 C327 1.256 . S
C308 O297 1.283 . S
C308 O300 1.243 . S
C309 C311 1.382 . S
C309 C313 1.393 . S
C309 C316 1.500 . S
C310 C311 1.400 . S
C310 C312 1.384 . S
C311 C309 1.382 . S
C311 C310 1.400 . S
C311 H328 0.930 . S
C312 C310 1.384 . S
C312 C314 1.392 . S
C312 H329 0.931 . S
C313 C309 1.393 . S
C313 C314 1.401 . S
C313 H330 0.930 . S
C314 C312 1.392 . S
C314 C313 1.401 . S
C314 H331 0.930 . S
C315 O298 1.262 . S
C315 O299 1.260 . S
C316 Tb252 2.833 . S
C316 O296 1.251 . S
C316 O301 1.256 . S
C316 C309 1.500 . S
C317 H282 0.929 . S
C317 C295 1.444 . S
C317 C318 1.317 . S
C318 H280 0.930 . S
C318 C286 1.432 . S
C318 C317 1.317 . S
C319 O303 1.283 . S
C319 O306 1.243 . S
C320 C321 1.382 . S
C320 C324 1.393 . S
C320 C327 1.500 . S
C321 C320 1.382 . S
C321 C322 1.400 . S
C321 H332 0.930 . S
C322 C321 1.400 . S
C322 C323 1.384 . S
C323 C322 1.384 . S
C323 C325 1.392 . S
C323 H333 0.931 . S
C324 C320 1.393 . S
C324 C325 1.401 . S
C324 H334 0.930 . S
C325 C323 1.392 . S
C325 C324 1.401 . S
C325 H335 0.930 . S
C326 O304 1.262 . S
C326 O305 1.260 . S
C327 Tb263 2.833 . S
C327 O302 1.251 . S
C327 O307 1.256 . S
C327 C320 1.500 . S
H328 C311 0.930 . S
H329 C312 0.931 . S
H330 C313 0.930 . S
H331 C314 0.930 . S
H332 C321 0.930 . S
H333 C323 0.931 . S
H334 C324 0.930 . S
H335 C325 0.930 . S
Tb336 N367 2.660 . S
Tb336 N374 2.600 . S
Tb336 O380 2.546 . S
Tb336 O381 2.610 . S
Tb336 O383 2.320 . S
Tb336 O384 2.552 . S
Tb336 O385 2.413 . S
Tb336 O387 2.362 . S
Tb336 O388 2.421 . S
Tb336 C400 2.833 . S
C337 C340 1.432 . S
C337 C341 1.414 . S
C337 N344 1.359 . S
C338 C340 1.417 . S
C338 C342 1.432 . S
C338 C350 1.410 . S
C339 C341 1.444 . S
C339 C342 1.317 . S
C339 H362 0.929 . S
C340 C337 1.432 . S
C340 C338 1.417 . S
C340 N348 1.360 . S
C341 C337 1.414 . S
C341 C339 1.444 . S
C341 C346 1.385 . S
C342 C338 1.432 . S
C342 C339 1.317 . S
C342 H354 0.930 . S
C343 C345 1.392 . S
C343 C346 1.370 . S
C343 H355 0.931 . S
N344 C337 1.359 . S
N344 C345 1.327 . S
N344 Tb347 2.600 . S
C345 C343 1.392 . S
C345 N344 1.327 . S
C345 H352 0.930 . S
C346 C341 1.385 . S
C346 C343 1.370 . S
C346 H365 0.930 . S
Tb347 N344 2.600 . S
Tb347 N348 2.660 . S
Tb347 O381 2.362 . S
Tb347 O382 2.421 . S
Tb347 O386 2.546 . S
Tb347 O387 2.610 . S
Tb347 O389 2.320 . S
Tb347 O390 2.552 . S
Tb347 O391 2.413 . S
Tb347 C411 2.833 . S
N348 C340 1.360 . S
N348 Tb347 2.660 . S
N348 C349 1.305 . S
C349 N348 1.305 . S
C349 C351 1.407 . S
C349 H356 0.930 . S
C350 C338 1.410 . S
C350 C351 1.345 . S
C350 H358 0.930 . S
C351 C349 1.407 . S
C351 C350 1.345 . S
C351 H353 0.930 . S
H352 C345 0.930 . S
H353 C351 0.930 . S
H354 C342 0.930 . S
H355 C343 0.931 . S
H356 C349 0.930 . S
H357 C371 0.930 . S
H358 C350 0.930 . S
H359 C377 0.930 . S
H360 C368 0.930 . S
H361 C375 0.931 . S
H362 C339 0.929 . S
H363 C369 0.930 . S
H364 C402 0.930 . S
H365 C346 0.930 . S
H366 C401 0.929 . S
N367 Tb336 2.660 . S
N367 C368 1.305 . S
N367 C372 1.360 . S
C368 H360 0.930 . S
C368 N367 1.305 . S
C368 C371 1.407 . S
C369 H363 0.930 . S
C369 C370 1.410 . S
C369 C371 1.345 . S
C370 C369 1.410 . S
C370 C372 1.417 . S
C370 C402 1.432 . S
C371 H357 0.930 . S
C371 C368 1.407 . S
C371 C369 1.345 . S
C372 N367 1.360 . S
C372 C370 1.417 . S
C372 C376 1.432 . S
H373 C378 0.930 . S
N374 Tb336 2.600 . S
N374 C376 1.359 . S
N374 C377 1.327 . S
C375 H361 0.931 . S
C375 C377 1.392 . S
C375 C378 1.370 . S
C376 C372 1.432 . S
C376 N374 1.359 . S
C376 C379 1.414 . S
C377 H359 0.930 . S
C377 N374 1.327 . S
C377 C375 1.392 . S
C378 H373 0.930 . S
C378 C375 1.370 . S
C378 C379 1.385 . S
C379 C376 1.414 . S
C379 C378 1.385 . S
C379 C401 1.444 . S
O380 Tb336 2.546 . S
O380 C400 1.251 . S
O381 Tb336 2.610 . S
O381 Tb347 2.362 . S
O381 C392 1.283 . S
O382 Tb347 2.421 . S
O382 C399 1.262 . S
O383 Tb336 2.320 . S
O383 C399 1.260 . S
O384 Tb336 2.552 . S
O384 C392 1.243 . S
O385 Tb336 2.413 . S
O385 C400 1.256 . S
O386 Tb347 2.546 . S
O386 C411 1.251 . S
O387 Tb336 2.362 . S
O387 Tb347 2.610 . S
O387 C403 1.283 . S
O388 Tb336 2.421 . S
O388 C410 1.262 . S
O389 Tb347 2.320 . S
O389 C410 1.260 . S
O390 Tb347 2.552 . S
O390 C403 1.243 . S
O391 Tb347 2.413 . S
O391 C411 1.256 . S
C392 O381 1.283 . S
C392 O384 1.243 . S
C393 C395 1.382 . S
C393 C397 1.393 . S
C393 C400 1.500 . S
C394 C395 1.400 . S
C394 C396 1.384 . S
C395 C393 1.382 . S
C395 C394 1.400 . S
C395 H412 0.930 . S
C396 C394 1.384 . S
C396 C398 1.392 . S
C396 H413 0.931 . S
C397 C393 1.393 . S
C397 C398 1.401 . S
C397 H414 0.930 . S
C398 C396 1.392 . S
C398 C397 1.401 . S
C398 H415 0.930 . S
C399 O382 1.262 . S
C399 O383 1.260 . S
C400 Tb336 2.833 . S
C400 O380 1.251 . S
C400 O385 1.256 . S
C400 C393 1.500 . S
C401 H366 0.929 . S
C401 C379 1.444 . S
C401 C402 1.317 . S
C402 H364 0.930 . S
C402 C370 1.432 . S
C402 C401 1.317 . S
C403 O387 1.283 . S
C403 O390 1.243 . S
C404 C405 1.382 . S
C404 C408 1.393 . S
C404 C411 1.500 . S
C405 C404 1.382 . S
C405 C406 1.400 . S
C405 H416 0.930 . S
C406 C405 1.400 . S
C406 C407 1.384 . S
C407 C406 1.384 . S
C407 C409 1.392 . S
C407 H417 0.931 . S
C408 C404 1.393 . S
C408 C409 1.401 . S
C408 H418 0.930 . S
C409 C407 1.392 . S
C409 C408 1.401 . S
C409 H419 0.930 . S
C410 O388 1.262 . S
C410 O389 1.260 . S
C411 Tb347 2.833 . S
C411 O386 1.251 . S
C411 O391 1.256 . S
C411 C404 1.500 . S
H412 C395 0.930 . S
H413 C396 0.931 . S
H414 C397 0.930 . S
H415 C398 0.930 . S
H416 C405 0.930 . S
H417 C407 0.931 . S
H418 C408 0.930 . S
H419 C409 0.930 . S
Tb420 N451 2.660 . S
Tb420 N458 2.600 . S
Tb420 O464 2.546 . S
Tb420 O465 2.610 . S
Tb420 O467 2.320 . S
Tb420 O468 2.552 . S
Tb420 O469 2.413 . S
Tb420 O471 2.364 1_655 S
Tb420 O472 2.421 . S
Tb420 C484 2.833 . S
C421 C424 1.432 1_455 S
C421 C425 1.414 . S
C421 N428 1.359 . S
C422 C424 1.417 . S
C422 C426 1.432 . S
C422 C434 1.410 . S
C423 C425 1.444 . S
C423 C426 1.317 1_455 S
C423 H446 0.929 . S
C424 C421 1.432 1_655 S
C424 C422 1.417 . S
C424 N432 1.360 . S
C425 C421 1.414 . S
C425 C423 1.444 . S
C425 C430 1.385 . S
C426 C422 1.432 . S
C426 C423 1.317 1_655 S
C426 H438 0.930 . S
C427 C429 1.392 . S
C427 C430 1.370 . S
C427 H439 0.931 . S
N428 C421 1.359 . S
N428 C429 1.327 . S
N428 Tb431 2.600 . S
C429 C427 1.392 . S
C429 N428 1.327 . S
C429 H436 0.930 . S
C430 C425 1.385 . S
C430 C427 1.370 . S
C430 H449 0.930 . S
Tb431 N428 2.600 . S
Tb431 N432 2.660 1_455 S
Tb431 O465 2.362 1_455 S
Tb431 O466 2.421 . S
Tb431 O470 2.546 . S
Tb431 O471 2.609 . S
Tb431 O473 2.320 1_455 S
Tb431 O474 2.552 . S
Tb431 O475 2.413 . S
Tb431 C495 2.833 . S
N432 C424 1.360 . S
N432 Tb431 2.660 1_655 S
N432 C433 1.305 . S
C433 N432 1.305 . S
C433 C435 1.407 . S
C433 H440 0.930 . S
C434 C422 1.410 . S
C434 C435 1.345 . S
C434 H442 0.930 . S
C435 C433 1.407 . S
C435 C434 1.345 . S
C435 H437 0.930 . S
H436 C429 0.930 . S
H437 C435 0.930 . S
H438 C426 0.930 . S
H439 C427 0.931 . S
H440 C433 0.930 . S
H441 C455 0.930 . S
H442 C434 0.930 . S
H443 C461 0.930 . S
H444 C452 0.930 . S
H445 C459 0.931 . S
H446 C423 0.929 . S
H447 C453 0.930 . S
H448 C486 0.930 . S
H449 C430 0.930 . S
H450 C485 0.929 . S
N451 Tb420 2.660 . S
N451 C452 1.305 1_655 S
N451 C456 1.360 . S
C452 H444 0.930 . S
C452 N451 1.305 1_455 S
C452 C455 1.407 . S
C453 H447 0.930 . S
C453 C454 1.410 1_455 S
C453 C455 1.345 . S
C454 C453 1.410 1_655 S
C454 C456 1.417 . S
C454 C486 1.432 . S
C455 H441 0.930 . S
C455 C452 1.407 . S
C455 C453 1.345 . S
C456 N451 1.360 . S
C456 C454 1.417 . S
C456 C460 1.432 . S
H457 C462 0.930 . S
N458 Tb420 2.600 . S
N458 C460 1.359 . S
N458 C461 1.327 . S
C459 H445 0.931 . S
C459 C461 1.392 . S
C459 C462 1.370 . S
C460 C456 1.432 . S
C460 N458 1.359 . S
C460 C463 1.414 . S
C461 H443 0.930 . S
C461 N458 1.327 . S
C461 C459 1.392 . S
C462 H457 0.930 . S
C462 C459 1.370 . S
C462 C463 1.385 . S
C463 C460 1.414 . S
C463 C462 1.385 . S
C463 C485 1.444 . S
O464 Tb420 2.546 . S
O464 C484 1.251 . S
O465 Tb420 2.610 . S
O465 Tb431 2.362 1_655 S
O465 C476 1.283 . S
O466 Tb431 2.421 . S
O466 C483 1.290 . S
O467 Tb420 2.320 . S
O467 C483 1.233 1_655 S
O468 Tb420 2.552 . S
O468 C476 1.243 . S
O469 Tb420 2.413 . S
O469 C484 1.256 . S
O470 Tb431 2.546 . S
O470 C495 1.251 . S
O471 Tb420 2.364 1_455 S
O471 Tb431 2.609 . S
O471 C487 1.281 . S
O472 Tb420 2.421 . S
O472 C494 1.262 . S
O473 Tb431 2.320 1_655 S
O473 C494 1.260 . S
O474 Tb431 2.552 . S
O474 C487 1.243 . S
O475 Tb431 2.413 . S
O475 C495 1.256 . S
C476 O465 1.283 . S
C476 O468 1.243 . S
C477 C479 1.382 . S
C477 C481 1.393 . S
C477 C484 1.500 . S
C478 C479 1.400 . S
C478 C480 1.384 . S
C479 C477 1.382 . S
C479 C478 1.400 . S
C479 H496 0.930 . S
C480 C478 1.384 . S
C480 C482 1.392 . S
C480 H497 0.931 . S
C481 C477 1.393 . S
C481 C482 1.401 . S
C481 H498 0.930 . S
C482 C480 1.392 . S
C482 C481 1.401 . S
C482 H499 0.930 . S
C483 O466 1.290 . S
C483 O467 1.233 1_455 S
C484 Tb420 2.833 . S
C484 O464 1.251 . S
C484 O469 1.256 . S
C484 C477 1.500 . S
C485 H450 0.929 . S
C485 C463 1.444 . S
C485 C486 1.317 . S
C486 H448 0.930 . S
C486 C454 1.432 . S
C486 C485 1.317 . S
C487 O471 1.281 . S
C487 O474 1.243 . S
C488 C489 1.382 . S
C488 C492 1.393 . S
C488 C495 1.500 . S
C489 C488 1.382 . S
C489 C490 1.400 . S
C489 H500 0.930 . S
C490 C489 1.400 . S
C490 C491 1.384 . S
C491 C490 1.384 . S
C491 C493 1.392 . S
C491 H501 0.931 . S
C492 C488 1.393 . S
C492 C493 1.401 . S
C492 H502 0.930 . S
C493 C491 1.392 . S
C493 C492 1.401 . S
C493 H503 0.930 . S
C494 O472 1.262 . S
C494 O473 1.260 . S
C495 Tb431 2.833 . S
C495 O470 1.251 . S
C495 O475 1.256 . S
C495 C488 1.500 . S
H496 C479 0.930 . S
H497 C480 0.931 . S
H498 C481 0.930 . S
H499 C482 0.930 . S
H500 C489 0.930 . S
H501 C491 0.931 . S
H502 C492 0.930 . S
H503 C493 0.930 . S
Tb504 N535 2.660 . S
Tb504 N542 2.600 . S
Tb504 O548 2.546 . S
Tb504 O549 2.610 . S
Tb504 O551 2.320 . S
Tb504 O552 2.552 . S
Tb504 O553 2.413 . S
Tb504 O555 2.362 . S
Tb504 O556 2.421 . S
Tb504 C568 2.833 . S
C505 C508 1.432 1_556 S
C505 C509 1.414 . S
C505 N512 1.359 . S
C506 C508 1.417 . S
C506 C510 1.432 . S
C506 C518 1.410 . S
C507 C509 1.444 1_554 S
C507 C510 1.317 . S
C507 H530 0.929 1_554 S
C508 C505 1.432 1_554 S
C508 C506 1.417 . S
C508 N516 1.360 . S
C509 C505 1.414 . S
C509 C507 1.444 1_556 S
C509 C514 1.385 . S
C510 C506 1.432 . S
C510 C507 1.317 . S
C510 H522 0.930 . S
C511 C513 1.392 . S
C511 C514 1.370 . S
C511 H523 0.931 . S
N512 C505 1.359 . S
N512 C513 1.327 . S
N512 Tb515 2.600 . S
C513 C511 1.392 . S
C513 N512 1.327 . S
C513 H520 0.930 . S
C514 C509 1.385 . S
C514 C511 1.370 . S
C514 H533 0.930 . S
Tb515 N512 2.600 . S
Tb515 N516 2.660 1_556 S
Tb515 O549 2.362 1_556 S
Tb515 O550 2.421 . S
Tb515 O554 2.546 . S
Tb515 O555 2.610 1_556 S
Tb515 O557 2.320 1_556 S
Tb515 O558 2.552 . S
Tb515 O559 2.413 . S
Tb515 C579 2.833 . S
N516 C508 1.360 . S
N516 Tb515 2.660 1_554 S
N516 C517 1.305 . S
C517 N516 1.305 . S
C517 C519 1.407 . S
C517 H524 0.930 . S
C518 C506 1.410 . S
C518 C519 1.345 . S
C518 H526 0.930 . S
C519 C517 1.407 . S
C519 C518 1.345 . S
C519 H521 0.930 . S
H520 C513 0.930 . S
H521 C519 0.930 . S
H522 C510 0.930 . S
H523 C511 0.931 . S
H524 C517 0.930 . S
H525 C539 0.930 . S
H526 C518 0.930 . S
H527 C545 0.930 . S
H528 C536 0.930 . S
H529 C543 0.931 . S
H530 C507 0.929 1_556 S
H531 C537 0.930 . S
H532 C570 0.930 . S
H533 C514 0.930 . S
H534 C569 0.929 . S
N535 Tb504 2.660 . S
N535 C536 1.305 1_554 S
N535 C540 1.360 . S
C536 H528 0.930 . S
C536 N535 1.305 1_556 S
C536 C539 1.407 . S
C537 H531 0.930 . S
C537 C538 1.410 1_556 S
C537 C539 1.345 . S
C538 C537 1.410 1_554 S
C538 C540 1.417 . S
C538 C570 1.432 . S
C539 H525 0.930 . S
C539 C536 1.407 . S
C539 C537 1.345 . S
C540 N535 1.360 . S
C540 C538 1.417 . S
C540 C544 1.432 . S
H541 C546 0.930 . S
N542 Tb504 2.600 . S
N542 C544 1.359 . S
N542 C545 1.327 . S
C543 H529 0.931 . S
C543 C545 1.392 . S
C543 C546 1.370 . S
C544 C540 1.432 . S
C544 N542 1.359 . S
C544 C547 1.414 . S
C545 H527 0.930 . S
C545 N542 1.327 . S
C545 C543 1.392 . S
C546 H541 0.930 . S
C546 C543 1.370 . S
C546 C547 1.385 . S
C547 C544 1.414 . S
C547 C546 1.385 . S
C547 C569 1.444 . S
O548 Tb504 2.546 . S
O548 C568 1.251 . S
O549 Tb504 2.610 . S
O549 Tb515 2.362 1_554 S
O549 C560 1.283 . S
O550 Tb515 2.421 . S
O550 C567 1.262 1_556 S
O551 Tb504 2.320 . S
O551 C567 1.260 . S
O552 Tb504 2.552 . S
O552 C560 1.243 . S
O553 Tb504 2.413 . S
O553 C568 1.256 . S
O554 Tb515 2.546 . S
O554 C579 1.251 . S
O555 Tb504 2.362 . S
O555 Tb515 2.610 1_554 S
O555 C571 1.283 1_554 S
O556 Tb504 2.421 . S
O556 C578 1.262 . S
O557 Tb515 2.320 1_554 S
O557 C578 1.260 . S
O558 Tb515 2.552 . S
O558 C571 1.243 . S
O559 Tb515 2.413 . S
O559 C579 1.256 . S
C560 O549 1.283 . S
C560 O552 1.243 . S
C561 C563 1.382 . S
C561 C565 1.393 . S
C561 C568 1.500 . S
C562 C563 1.400 . S
C562 C564 1.384 . S
C563 C561 1.382 . S
C563 C562 1.400 . S
C563 H580 0.930 . S
C564 C562 1.384 . S
C564 C566 1.392 . S
C564 H581 0.931 . S
C565 C561 1.393 . S
C565 C566 1.401 . S
C565 H582 0.930 . S
C566 C564 1.392 . S
C566 C565 1.401 . S
C566 H583 0.930 . S
C567 O550 1.262 1_554 S
C567 O551 1.260 . S
C568 Tb504 2.833 . S
C568 O548 1.251 . S
C568 O553 1.256 . S
C568 C561 1.500 . S
C569 H534 0.929 . S
C569 C547 1.444 . S
C569 C570 1.317 . S
C570 H532 0.930 . S
C570 C538 1.432 . S
C570 C569 1.317 . S
C571 O555 1.283 1_556 S
C571 O558 1.243 . S
C572 C573 1.382 . S
C572 C576 1.393 . S
C572 C579 1.500 . S
C573 C572 1.382 . S
C573 C574 1.400 . S
C573 H584 0.930 . S
C574 C573 1.400 . S
C574 C575 1.384 . S
C575 C574 1.384 . S
C575 C577 1.392 . S
C575 H585 0.931 . S
C576 C572 1.393 . S
C576 C577 1.401 . S
C576 H586 0.930 . S
C577 C575 1.392 . S
C577 C576 1.401 . S
C577 H587 0.930 . S
C578 O556 1.262 . S
C578 O557 1.260 . S
C579 Tb515 2.833 . S
C579 O554 1.251 . S
C579 O559 1.256 . S
C579 C572 1.500 . S
H580 C563 0.930 . S
H581 C564 0.931 . S
H582 C565 0.930 . S
H583 C566 0.930 . S
H584 C573 0.930 . S
H585 C575 0.931 . S
H586 C576 0.930 . S
H587 C577 0.930 . S
Tb588 N619 2.660 . S
Tb588 N626 2.600 . S
Tb588 O632 2.546 . S
Tb588 O633 2.610 . S
Tb588 O635 2.320 . S
Tb588 O636 2.552 . S
Tb588 O637 2.413 . S
Tb588 O639 2.362 . S
Tb588 O640 2.421 . S
Tb588 C652 2.833 . S
C589 C592 1.432 . S
C589 C593 1.414 . S
C589 N596 1.359 . S
C590 C592 1.417 . S
C590 C594 1.432 . S
C590 C602 1.410 . S
C591 C593 1.444 . S
C591 C594 1.317 . S
C591 H614 0.929 . S
C592 C589 1.432 . S
C592 C590 1.417 . S
C592 N600 1.360 . S
C593 C589 1.414 . S
C593 C591 1.444 . S
C593 C598 1.385 . S
C594 C590 1.432 . S
C594 C591 1.317 . S
C594 H606 0.930 . S
C595 C597 1.392 . S
C595 C598 1.370 . S
C595 H607 0.931 . S
N596 C589 1.359 . S
N596 C597 1.327 . S
N596 Tb599 2.600 . S
C597 C595 1.392 . S
C597 N596 1.327 . S
C597 H604 0.930 . S
C598 C593 1.385 . S
C598 C595 1.370 . S
C598 H617 0.930 . S
Tb599 N596 2.600 . S
Tb599 N600 2.660 . S
Tb599 O633 2.362 . S
Tb599 O634 2.421 . S
Tb599 O638 2.546 . S
Tb599 O639 2.610 . S
Tb599 O641 2.320 . S
Tb599 O642 2.552 . S
Tb599 O643 2.413 . S
Tb599 C663 2.833 . S
N600 C592 1.360 . S
N600 Tb599 2.660 . S
N600 C601 1.305 . S
C601 N600 1.305 . S
C601 C603 1.407 . S
C601 H608 0.930 . S
C602 C590 1.410 . S
C602 C603 1.345 . S
C602 H610 0.930 . S
C603 C601 1.407 . S
C603 C602 1.345 . S
C603 H605 0.930 . S
H604 C597 0.930 . S
H605 C603 0.930 . S
H606 C594 0.930 . S
H607 C595 0.931 . S
H608 C601 0.930 . S
H609 C623 0.930 . S
H610 C602 0.930 . S
H611 C629 0.930 . S
H612 C620 0.930 . S
H613 C627 0.931 . S
H614 C591 0.929 . S
H615 C621 0.930 . S
H616 C654 0.930 . S
H617 C598 0.930 . S
H618 C653 0.929 . S
N619 Tb588 2.660 . S
N619 C620 1.305 . S
N619 C624 1.360 . S
C620 H612 0.930 . S
C620 N619 1.305 . S
C620 C623 1.407 . S
C621 H615 0.930 . S
C621 C622 1.410 . S
C621 C623 1.345 . S
C622 C621 1.410 . S
C622 C624 1.417 . S
C622 C654 1.432 . S
C623 H609 0.930 . S
C623 C620 1.407 . S
C623 C621 1.345 . S
C624 N619 1.360 . S
C624 C622 1.417 . S
C624 C628 1.432 . S
H625 C630 0.930 . S
N626 Tb588 2.600 . S
N626 C628 1.359 . S
N626 C629 1.327 . S
C627 H613 0.931 . S
C627 C629 1.392 . S
C627 C630 1.370 . S
C628 C624 1.432 . S
C628 N626 1.359 . S
C628 C631 1.414 . S
C629 H611 0.930 . S
C629 N626 1.327 . S
C629 C627 1.392 . S
C630 H625 0.930 . S
C630 C627 1.370 . S
C630 C631 1.385 . S
C631 C628 1.414 . S
C631 C630 1.385 . S
C631 C653 1.444 . S
O632 Tb588 2.546 . S
O632 C652 1.251 . S
O633 Tb588 2.610 . S
O633 Tb599 2.362 . S
O633 C644 1.283 . S
O634 Tb599 2.421 . S
O634 C651 1.262 . S
O635 Tb588 2.320 . S
O635 C651 1.260 . S
O636 Tb588 2.552 . S
O636 C644 1.243 . S
O637 Tb588 2.413 . S
O637 C652 1.256 . S
O638 Tb599 2.546 . S
O638 C663 1.251 . S
O639 Tb588 2.362 . S
O639 Tb599 2.610 . S
O639 C655 1.283 . S
O640 Tb588 2.421 . S
O640 C662 1.262 . S
O641 Tb599 2.320 . S
O641 C662 1.260 . S
O642 Tb599 2.552 . S
O642 C655 1.243 . S
O643 Tb599 2.413 . S
O643 C663 1.256 . S
C644 O633 1.283 . S
C644 O636 1.243 . S
C645 C647 1.382 . S
C645 C649 1.393 . S
C645 C652 1.500 . S
C646 C647 1.400 . S
C646 C648 1.384 . S
C647 C645 1.382 . S
C647 C646 1.400 . S
C647 H664 0.930 . S
C648 C646 1.384 . S
C648 C650 1.392 . S
C648 H665 0.931 . S
C649 C645 1.393 . S
C649 C650 1.401 . S
C649 H666 0.930 . S
C650 C648 1.392 . S
C650 C649 1.401 . S
C650 H667 0.930 . S
C651 O634 1.262 . S
C651 O635 1.260 . S
C652 Tb588 2.833 . S
C652 O632 1.251 . S
C652 O637 1.256 . S
C652 C645 1.500 . S
C653 H618 0.929 . S
C653 C631 1.444 . S
C653 C654 1.317 . S
C654 H616 0.930 . S
C654 C622 1.432 . S
C654 C653 1.317 . S
C655 O639 1.283 . S
C655 O642 1.243 . S
C656 C657 1.382 . S
C656 C660 1.393 . S
C656 C663 1.500 . S
C657 C656 1.382 . S
C657 C658 1.400 . S
C657 H668 0.930 . S
C658 C657 1.400 . S
C658 C659 1.384 . S
C659 C658 1.384 . S
C659 C661 1.392 . S
C659 H669 0.931 . S
C660 C656 1.393 . S
C660 C661 1.401 . S
C660 H670 0.930 . S
C661 C659 1.392 . S
C661 C660 1.401 . S
C661 H671 0.930 . S
C662 O640 1.262 . S
C662 O641 1.260 . S
C663 Tb599 2.833 . S
C663 O638 1.251 . S
C663 O643 1.256 . S
C663 C656 1.500 . S
H664 C647 0.930 . S
H665 C648 0.931 . S
H666 C649 0.930 . S
H667 C650 0.930 . S
H668 C657 0.930 . S
H669 C659 0.931 . S
H670 C660 0.930 . S
H671 C661 0.930 . S
Tb672 N703 2.660 . S
Tb672 N710 2.600 . S
Tb672 O716 2.546 . S
Tb672 O717 2.610 . S
Tb672 O719 2.320 . S
Tb672 O720 2.552 . S
Tb672 O721 2.413 . S
Tb672 O723 2.362 . S
Tb672 O724 2.421 . S
Tb672 C736 2.833 . S
C673 C676 1.432 . S
C673 C677 1.414 . S
C673 N680 1.359 . S
C674 C676 1.417 . S
C674 C678 1.432 . S
C674 C686 1.410 . S
C675 C677 1.444 . S
C675 C678 1.317 . S
C675 H698 0.929 . S
C676 C673 1.432 . S
C676 C674 1.417 . S
C676 N684 1.360 . S
C677 C673 1.414 . S
C677 C675 1.444 . S
C677 C682 1.385 . S
C678 C674 1.432 . S
C678 C675 1.317 . S
C678 H690 0.930 . S
C679 C681 1.392 . S
C679 C682 1.370 . S
C679 H691 0.931 . S
N680 C673 1.359 . S
N680 C681 1.327 . S
N680 Tb683 2.600 . S
C681 C679 1.392 . S
C681 N680 1.327 . S
C681 H688 0.930 . S
C682 C677 1.385 . S
C682 C679 1.370 . S
C682 H701 0.930 . S
Tb683 N680 2.600 . S
Tb683 N684 2.660 . S
Tb683 O717 2.362 . S
Tb683 O718 2.421 . S
Tb683 O722 2.546 . S
Tb683 O723 2.610 . S
Tb683 O725 2.320 . S
Tb683 O726 2.552 . S
Tb683 O727 2.413 . S
Tb683 C747 2.833 . S
N684 C676 1.360 . S
N684 Tb683 2.660 . S
N684 C685 1.305 . S
C685 N684 1.305 . S
C685 C687 1.407 . S
C685 H692 0.930 . S
C686 C674 1.410 . S
C686 C687 1.345 . S
C686 H694 0.930 . S
C687 C685 1.407 . S
C687 C686 1.345 . S
C687 H689 0.930 . S
H688 C681 0.930 . S
H689 C687 0.930 . S
H690 C678 0.930 . S
H691 C679 0.931 . S
H692 C685 0.930 . S
H693 C707 0.930 . S
H694 C686 0.930 . S
H695 C713 0.930 . S
H696 C704 0.930 . S
H697 C711 0.931 . S
H698 C675 0.929 . S
H699 C705 0.930 . S
H700 C738 0.930 . S
H701 C682 0.930 . S
H702 C737 0.929 . S
N703 Tb672 2.660 . S
N703 C704 1.305 . S
N703 C708 1.360 . S
C704 H696 0.930 . S
C704 N703 1.305 . S
C704 C707 1.407 . S
C705 H699 0.930 . S
C705 C706 1.410 . S
C705 C707 1.345 . S
C706 C705 1.410 . S
C706 C708 1.417 . S
C706 C738 1.432 . S
C707 H693 0.930 . S
C707 C704 1.407 . S
C707 C705 1.345 . S
C708 N703 1.360 . S
C708 C706 1.417 . S
C708 C712 1.432 . S
H709 C714 0.930 . S
N710 Tb672 2.600 . S
N710 C712 1.359 . S
N710 C713 1.327 . S
C711 H697 0.931 . S
C711 C713 1.392 . S
C711 C714 1.370 . S
C712 C708 1.432 . S
C712 N710 1.359 . S
C712 C715 1.414 . S
C713 H695 0.930 . S
C713 N710 1.327 . S
C713 C711 1.392 . S
C714 H709 0.930 . S
C714 C711 1.370 . S
C714 C715 1.385 . S
C715 C712 1.414 . S
C715 C714 1.385 . S
C715 C737 1.444 . S
O716 Tb672 2.546 . S
O716 C736 1.251 . S
O717 Tb672 2.610 . S
O717 Tb683 2.362 . S
O717 C728 1.283 . S
O718 Tb683 2.421 . S
O718 C735 1.262 . S
O719 Tb672 2.320 . S
O719 C735 1.260 . S
O720 Tb672 2.552 . S
O720 C728 1.243 . S
O721 Tb672 2.413 . S
O721 C736 1.256 . S
O722 Tb683 2.546 . S
O722 C747 1.251 . S
O723 Tb672 2.362 . S
O723 Tb683 2.610 . S
O723 C739 1.283 . S
O724 Tb672 2.421 . S
O724 C746 1.262 . S
O725 Tb683 2.320 . S
O725 C746 1.260 . S
O726 Tb683 2.552 . S
O726 C739 1.243 . S
O727 Tb683 2.413 . S
O727 C747 1.256 . S
C728 O717 1.283 . S
C728 O720 1.243 . S
C729 C731 1.382 . S
C729 C733 1.393 . S
C729 C736 1.500 . S
C730 C731 1.400 . S
C730 C732 1.384 . S
C731 C729 1.382 . S
C731 C730 1.400 . S
C731 H748 0.930 . S
C732 C730 1.384 . S
C732 C734 1.392 . S
C732 H749 0.931 . S
C733 C729 1.393 . S
C733 C734 1.401 . S
C733 H750 0.930 . S
C734 C732 1.392 . S
C734 C733 1.401 . S
C734 H751 0.930 . S
C735 O718 1.262 . S
C735 O719 1.260 . S
C736 Tb672 2.833 . S
C736 O716 1.251 . S
C736 O721 1.256 . S
C736 C729 1.500 . S
C737 H702 0.929 . S
C737 C715 1.444 . S
C737 C738 1.317 . S
C738 H700 0.930 . S
C738 C706 1.432 . S
C738 C737 1.317 . S
C739 O723 1.283 . S
C739 O726 1.243 . S
C740 C741 1.382 . S
C740 C744 1.393 . S
C740 C747 1.500 . S
C741 C740 1.382 . S
C741 C742 1.400 . S
C741 H752 0.930 . S
C742 C741 1.400 . S
C742 C743 1.384 . S
C743 C742 1.384 . S
C743 C745 1.392 . S
C743 H753 0.931 . S
C744 C740 1.393 . S
C744 C745 1.401 . S
C744 H754 0.930 . S
C745 C743 1.392 . S
C745 C744 1.401 . S
C745 H755 0.930 . S
C746 O724 1.262 . S
C746 O725 1.260 . S
C747 Tb683 2.833 . S
C747 O722 1.251 . S
C747 O727 1.256 . S
C747 C740 1.500 . S
H748 C731 0.930 . S
H749 C732 0.931 . S
H750 C733 0.930 . S
H751 C734 0.930 . S
H752 C741 0.930 . S
H753 C743 0.931 . S
H754 C744 0.930 . S
H755 C745 0.930 . S
Tb756 N787 2.660 . S
Tb756 N794 2.600 . S
Tb756 O800 2.546 . S
Tb756 O801 2.610 1_565 S
Tb756 O803 2.320 . S
Tb756 O804 2.552 1_565 S
Tb756 O805 2.413 . S
Tb756 O807 2.362 1_565 S
Tb756 O808 2.421 1_565 S
Tb756 C820 2.833 . S
C757 C760 1.432 . S
C757 C761 1.414 . S
C757 N764 1.359 . S
C758 C760 1.417 . S
C758 C762 1.432 . S
C758 C770 1.410 . S
C759 C761 1.444 . S
C759 C762 1.317 . S
C759 H782 0.929 . S
C760 C757 1.432 . S
C760 C758 1.417 . S
C760 N768 1.360 . S
C761 C757 1.414 . S
C761 C759 1.444 . S
C761 C766 1.385 . S
C762 C758 1.432 . S
C762 C759 1.317 . S
C762 H774 0.930 . S
C763 C765 1.392 . S
C763 C766 1.370 . S
C763 H775 0.931 . S
N764 C757 1.359 . S
N764 C765 1.327 . S
N764 Tb767 2.600 . S
C765 C763 1.392 . S
C765 N764 1.327 . S
C765 H772 0.930 . S
C766 C761 1.385 . S
C766 C763 1.370 . S
C766 H785 0.930 . S
Tb767 N764 2.600 . S
Tb767 N768 2.660 . S
Tb767 O801 2.362 . S
Tb767 O802 2.421 . S
Tb767 O806 2.546 . S
Tb767 O807 2.610 . S
Tb767 O809 2.320 . S
Tb767 O810 2.552 . S
Tb767 O811 2.413 . S
Tb767 C831 2.833 . S
N768 C760 1.360 . S
N768 Tb767 2.660 . S
N768 C769 1.305 . S
C769 N768 1.305 . S
C769 C771 1.407 . S
C769 H776 0.930 . S
C770 C758 1.410 . S
C770 C771 1.345 . S
C770 H778 0.930 . S
C771 C769 1.407 . S
C771 C770 1.345 . S
C771 H773 0.930 . S
H772 C765 0.930 . S
H773 C771 0.930 . S
H774 C762 0.930 . S
H775 C763 0.931 . S
H776 C769 0.930 . S
H777 C791 0.930 . S
H778 C770 0.930 . S
H779 C797 0.930 1_545 S
H780 C788 0.930 . S
H781 C795 0.931 . S
H782 C759 0.929 . S
H783 C789 0.930 . S
H784 C822 0.930 . S
H785 C766 0.930 . S
H786 C821 0.929 . S
N787 Tb756 2.660 . S
N787 C788 1.305 . S
N787 C792 1.360 . S
C788 H780 0.930 . S
C788 N787 1.305 . S
C788 C791 1.407 . S
C789 H783 0.930 . S
C789 C790 1.410 . S
C789 C791 1.345 . S
C790 C789 1.410 . S
C790 C792 1.417 . S
C790 C822 1.432 . S
C791 H777 0.930 . S
C791 C788 1.407 . S
C791 C789 1.345 . S
C792 N787 1.360 . S
C792 C790 1.417 . S
C792 C796 1.432 . S
H793 C798 0.930 . S
N794 Tb756 2.600 . S
N794 C796 1.359 . S
N794 C797 1.327 . S
C795 H781 0.931 . S
C795 C797 1.392 . S
C795 C798 1.370 . S
C796 C792 1.432 . S
C796 N794 1.359 . S
C796 C799 1.414 . S
C797 H779 0.930 1_565 S
C797 N794 1.327 . S
C797 C795 1.392 . S
C798 H793 0.930 . S
C798 C795 1.370 . S
C798 C799 1.385 . S
C799 C796 1.414 . S
C799 C798 1.385 . S
C799 C821 1.444 . S
O800 Tb756 2.546 . S
O800 C820 1.251 . S
O801 Tb756 2.610 1_545 S
O801 Tb767 2.362 . S
O801 C812 1.283 . S
O802 Tb767 2.421 . S
O802 C819 1.262 1_545 S
O803 Tb756 2.320 . S
O803 C819 1.260 . S
O804 Tb756 2.552 1_545 S
O804 C812 1.243 . S
O805 Tb756 2.413 . S
O805 C820 1.256 . S
O806 Tb767 2.546 . S
O806 C831 1.251 . S
O807 Tb756 2.362 1_545 S
O807 Tb767 2.610 . S
O807 C823 1.283 . S
O808 Tb756 2.421 1_545 S
O808 C830 1.262 . S
O809 Tb767 2.320 . S
O809 C830 1.260 . S
O810 Tb767 2.552 . S
O810 C823 1.243 . S
O811 Tb767 2.413 . S
O811 C831 1.256 . S
C812 O801 1.283 . S
C812 O804 1.243 . S
C813 C815 1.382 . S
C813 C817 1.393 . S
C813 C820 1.500 . S
C814 C815 1.400 . S
C814 C816 1.384 . S
C815 C813 1.382 . S
C815 C814 1.400 . S
C815 H832 0.930 . S
C816 C814 1.384 . S
C816 C818 1.392 . S
C816 H833 0.931 . S
C817 C813 1.393 . S
C817 C818 1.401 . S
C817 H834 0.930 . S
C818 C816 1.392 . S
C818 C817 1.401 . S
C818 H835 0.930 . S
C819 O802 1.262 1_565 S
C819 O803 1.260 . S
C820 Tb756 2.833 . S
C820 O800 1.251 . S
C820 O805 1.256 . S
C820 C813 1.500 . S
C821 H786 0.929 . S
C821 C799 1.444 . S
C821 C822 1.317 . S
C822 H784 0.930 . S
C822 C790 1.432 . S
C822 C821 1.317 . S
C823 O807 1.283 . S
C823 O810 1.243 . S
C824 C825 1.382 . S
C824 C828 1.393 . S
C824 C831 1.500 . S
C825 C824 1.382 . S
C825 C826 1.400 . S
C825 H836 0.930 . S
C826 C825 1.400 . S
C826 C827 1.384 . S
C827 C826 1.384 . S
C827 C829 1.392 . S
C827 H837 0.931 . S
C828 C824 1.393 . S
C828 C829 1.401 . S
C828 H838 0.930 . S
C829 C827 1.392 . S
C829 C828 1.401 . S
C829 H839 0.930 . S
C830 O808 1.262 . S
C830 O809 1.260 . S
C831 Tb767 2.833 . S
C831 O806 1.251 . S
C831 O811 1.256 . S
C831 C824 1.500 . S
H832 C815 0.930 . S
H833 C816 0.931 . S
H834 C817 0.930 . S
H835 C818 0.930 . S
H836 C825 0.930 . S
H837 C827 0.931 . S
H838 C828 0.930 . S
H839 C829 0.930 . S
Tb840 N871 2.660 . S
Tb840 N878 2.600 . S
Tb840 O884 2.546 . S
Tb840 O885 2.610 . S
Tb840 O887 2.320 . S
Tb840 O888 2.552 . S
Tb840 O889 2.413 . S
Tb840 O891 2.362 . S
Tb840 O892 2.421 . S
Tb840 C904 2.833 . S
C841 C844 1.432 1_545 S
C841 C845 1.414 . S
C841 N848 1.359 . S
C842 C844 1.417 . S
C842 C846 1.432 . S
C842 C854 1.410 . S
C843 C845 1.450 . S
C843 C846 1.308 1_545 S
C843 H866 0.932 . S
C844 C841 1.432 1_565 S
C844 C842 1.417 . S
C844 N852 1.360 . S
C845 C841 1.414 . S
C845 C843 1.450 . S
C845 C850 1.385 . S
C846 C842 1.432 . S
C846 C843 1.308 1_565 S
C846 H858 0.930 . S
C847 C849 1.392 . S
C847 C850 1.370 . S
C847 H859 0.931 . S
N848 C841 1.359 . S
N848 C849 1.327 . S
N848 Tb851 2.600 . S
C849 C847 1.392 . S
C849 N848 1.327 . S
C849 H856 0.930 . S
C850 C845 1.385 . S
C850 C847 1.370 . S
C850 H869 0.930 . S
Tb851 N848 2.600 . S
Tb851 N852 2.660 1_545 S
Tb851 O885 2.362 1_545 S
Tb851 O886 2.421 . S
Tb851 O890 2.546 . S
Tb851 O891 2.610 1_545 S
Tb851 O893 2.320 1_545 S
Tb851 O894 2.552 . S
Tb851 O895 2.413 . S
Tb851 C915 2.833 . S
N852 C844 1.360 . S
N852 Tb851 2.660 1_565 S
N852 C853 1.305 . S
C853 N852 1.305 . S
C853 C855 1.407 . S
C853 H860 0.930 . S
C854 C842 1.410 . S
C854 C855 1.345 . S
C854 H862 0.930 . S
C855 C853 1.407 . S
C855 C854 1.345 . S
C855 H857 0.930 . S
H856 C849 0.930 . S
H857 C855 0.930 . S
H858 C846 0.930 . S
H859 C847 0.931 . S
H860 C853 0.930 . S
H861 C875 0.930 . S
H862 C854 0.930 . S
H863 C881 0.930 . S
H864 C872 0.930 . S
H865 C879 0.931 . S
H866 C843 0.932 . S
H867 C873 0.930 . S
H868 C906 0.930 . S
H869 C850 0.930 . S
H870 C905 0.929 . S
N871 Tb840 2.660 . S
N871 C872 1.305 1_565 S
N871 C876 1.360 . S
C872 H864 0.930 . S
C872 N871 1.305 1_545 S
C872 C875 1.407 . S
C873 H867 0.930 . S
C873 C874 1.410 1_545 S
C873 C875 1.345 . S
C874 C873 1.410 1_565 S
C874 C876 1.417 . S
C874 C906 1.432 . S
C875 H861 0.930 . S
C875 C872 1.407 . S
C875 C873 1.345 . S
C876 N871 1.360 . S
C876 C874 1.417 . S
C876 C880 1.432 . S
H877 C882 0.930 . S
N878 Tb840 2.600 . S
N878 C880 1.359 . S
N878 C881 1.327 . S
C879 H865 0.931 . S
C879 C881 1.392 . S
C879 C882 1.370 . S
C880 C876 1.432 . S
C880 N878 1.359 . S
C880 C883 1.414 . S
C881 H863 0.930 . S
C881 N878 1.327 . S
C881 C879 1.392 . S
C882 H877 0.930 . S
C882 C879 1.370 . S
C882 C883 1.385 . S
C883 C880 1.414 . S
C883 C882 1.385 . S
C883 C905 1.444 . S
O884 Tb840 2.546 . S
O884 C904 1.251 . S
O885 Tb840 2.610 . S
O885 Tb851 2.362 1_565 S
O885 C896 1.283 . S
O886 Tb851 2.421 . S
O886 C903 1.262 1_545 S
O887 Tb840 2.320 . S
O887 C903 1.260 . S
O888 Tb840 2.552 . S
O888 C896 1.243 . S
O889 Tb840 2.413 . S
O889 C904 1.256 . S
O890 Tb851 2.546 . S
O890 C915 1.251 . S
O891 Tb840 2.362 . S
O891 Tb851 2.610 1_565 S
O891 C907 1.283 1_565 S
O892 Tb840 2.421 . S
O892 C914 1.262 . S
O893 Tb851 2.320 1_565 S
O893 C914 1.260 . S
O894 Tb851 2.552 . S
O894 C907 1.243 . S
O895 Tb851 2.413 . S
O895 C915 1.256 . S
C896 O885 1.283 . S
C896 O888 1.243 . S
C897 C899 1.382 . S
C897 C901 1.393 . S
C897 C904 1.500 . S
C898 C899 1.400 . S
C898 C900 1.384 . S
C899 C897 1.382 . S
C899 C898 1.400 . S
C899 H916 0.930 . S
C900 C898 1.384 . S
C900 C902 1.392 . S
C900 H917 0.931 . S
C901 C897 1.393 . S
C901 C902 1.401 . S
C901 H918 0.930 . S
C902 C900 1.392 . S
C902 C901 1.401 . S
C902 H919 0.930 . S
C903 O886 1.262 1_565 S
C903 O887 1.260 . S
C904 Tb840 2.833 . S
C904 O884 1.251 . S
C904 O889 1.256 . S
C904 C897 1.500 . S
C905 H870 0.929 . S
C905 C883 1.444 . S
C905 C906 1.317 . S
C906 H868 0.930 . S
C906 C874 1.432 . S
C906 C905 1.317 . S
C907 O891 1.283 1_545 S
C907 O894 1.243 . S
C908 C909 1.382 . S
C908 C912 1.393 . S
C908 C915 1.500 . S
C909 C908 1.382 . S
C909 C910 1.400 . S
C909 H920 0.930 . S
C910 C909 1.400 . S
C910 C911 1.384 . S
C911 C910 1.384 . S
C911 C913 1.392 . S
C911 H921 0.931 . S
C912 C908 1.393 . S
C912 C913 1.401 . S
C912 H922 0.930 . S
C913 C911 1.392 . S
C913 C912 1.401 . S
C913 H923 0.930 . S
C914 O892 1.262 . S
C914 O893 1.260 . S
C915 Tb851 2.833 . S
C915 O890 1.251 . S
C915 O895 1.256 . S
C915 C908 1.500 . S
H916 C899 0.930 . S
H917 C900 0.931 . S
H918 C901 0.930 . S
H919 C902 0.930 . S
H920 C909 0.930 . S
H921 C911 0.931 . S
H922 C912 0.930 . S
H923 C913 0.930 . S
Tb924 N955 2.660 . S
Tb924 N962 2.600 . S
Tb924 O968 2.546 . S
Tb924 O969 2.610 . S
Tb924 O971 2.320 . S
Tb924 O972 2.552 . S
Tb924 O973 2.413 . S
Tb924 O975 2.362 . S
Tb924 O976 2.421 . S
Tb924 C988 2.833 . S
C925 C928 1.432 . S
C925 C929 1.414 . S
C925 N932 1.359 . S
C926 C928 1.417 . S
C926 C930 1.432 . S
C926 C938 1.410 . S
C927 C929 1.444 . S
C927 C930 1.317 . S
C927 H950 0.929 . S
C928 C925 1.432 . S
C928 C926 1.417 . S
C928 N936 1.360 . S
C929 C925 1.414 . S
C929 C927 1.444 . S
C929 C934 1.385 . S
C930 C926 1.432 . S
C930 C927 1.317 . S
C930 H942 0.930 . S
C931 C933 1.392 . S
C931 C934 1.370 . S
C931 H943 0.931 . S
N932 C925 1.359 . S
N932 C933 1.327 . S
N932 Tb935 2.600 . S
C933 C931 1.392 . S
C933 N932 1.327 . S
C933 H940 0.930 . S
C934 C929 1.385 . S
C934 C931 1.370 . S
C934 H953 0.930 . S
Tb935 N932 2.600 . S
Tb935 N936 2.660 . S
Tb935 O969 2.362 . S
Tb935 O970 2.421 . S
Tb935 O974 2.546 . S
Tb935 O975 2.610 . S
Tb935 O977 2.320 . S
Tb935 O978 2.552 . S
Tb935 O979 2.413 . S
Tb935 C999 2.833 . S
N936 C928 1.360 . S
N936 Tb935 2.660 . S
N936 C937 1.305 . S
C937 N936 1.305 . S
C937 C939 1.407 . S
C937 H944 0.930 . S
C938 C926 1.410 . S
C938 C939 1.345 . S
C938 H946 0.930 . S
C939 C937 1.407 . S
C939 C938 1.345 . S
C939 H941 0.930 . S
H940 C933 0.930 . S
H941 C939 0.930 . S
H942 C930 0.930 . S
H943 C931 0.931 . S
H944 C937 0.930 . S
H945 C959 0.930 . S
H946 C938 0.930 . S
H947 C965 0.930 . S
H948 C956 0.930 . S
H949 C963 0.931 . S
H950 C927 0.929 . S
H951 C957 0.930 . S
H952 C990 0.930 . S
H953 C934 0.930 . S
H954 C989 0.929 . S
N955 Tb924 2.660 . S
N955 C956 1.305 . S
N955 C960 1.360 . S
C956 H948 0.930 . S
C956 N955 1.305 . S
C956 C959 1.407 . S
C957 H951 0.930 . S
C957 C958 1.410 . S
C957 C959 1.345 . S
C958 C957 1.410 . S
C958 C960 1.417 . S
C958 C990 1.432 . S
C959 H945 0.930 . S
C959 C956 1.407 . S
C959 C957 1.345 . S
C960 N955 1.360 . S
C960 C958 1.417 . S
C960 C964 1.432 . S
H961 C966 0.930 . S
N962 Tb924 2.600 . S
N962 C964 1.359 . S
N962 C965 1.327 . S
C963 H949 0.931 . S
C963 C965 1.392 . S
C963 C966 1.370 . S
C964 C960 1.432 . S
C964 N962 1.359 . S
C964 C967 1.414 . S
C965 H947 0.930 . S
C965 N962 1.327 . S
C965 C963 1.392 . S
C966 H961 0.930 . S
C966 C963 1.370 . S
C966 C967 1.385 . S
C967 C964 1.414 . S
C967 C966 1.385 . S
C967 C989 1.444 . S
O968 Tb924 2.546 . S
O968 C988 1.251 . S
O969 Tb924 2.610 . S
O969 Tb935 2.362 . S
O969 C980 1.283 . S
O970 Tb935 2.421 . S
O970 C987 1.262 . S
O971 Tb924 2.320 . S
O971 C987 1.260 . S
O972 Tb924 2.552 . S
O972 C980 1.243 . S
O973 Tb924 2.413 . S
O973 C988 1.256 . S
O974 Tb935 2.546 . S
O974 C999 1.251 . S
O975 Tb924 2.362 . S
O975 Tb935 2.610 . S
O975 C991 1.283 . S
O976 Tb924 2.421 . S
O976 C998 1.262 . S
O977 Tb935 2.320 . S
O977 C998 1.260 . S
O978 Tb935 2.552 . S
O978 C991 1.243 . S
O979 Tb935 2.413 . S
O979 C999 1.256 . S
C980 O969 1.283 . S
C980 O972 1.243 . S
C981 C983 1.382 . S
C981 C985 1.393 . S
C981 C988 1.500 . S
C982 C983 1.400 . S
C982 C984 1.384 . S
C983 C981 1.382 . S
C983 C982 1.400 . S
C983 H1000 0.930 . S
C984 C982 1.384 . S
C984 C986 1.392 . S
C984 H1001 0.931 . S
C985 C981 1.393 . S
C985 C986 1.401 . S
C985 H1002 0.930 . S
C986 C984 1.392 . S
C986 C985 1.401 . S
C986 H1003 0.930 . S
C987 O970 1.262 . S
C987 O971 1.260 . S
C988 Tb924 2.833 . S
C988 O968 1.251 . S
C988 O973 1.256 . S
C988 C981 1.500 . S
C989 H954 0.929 . S
C989 C967 1.444 . S
C989 C990 1.317 . S
C990 H952 0.930 . S
C990 C958 1.432 . S
C990 C989 1.317 . S
C991 O975 1.283 . S
C991 O978 1.243 . S
C992 C993 1.382 . S
C992 C996 1.393 . S
C992 C999 1.500 . S
C993 C992 1.382 . S
C993 C994 1.400 . S
C993 H1004 0.930 . S
C994 C993 1.400 . S
C994 C995 1.384 . S
C995 C994 1.384 . S
C995 C997 1.392 . S
C995 H1005 0.931 . S
C996 C992 1.393 . S
C996 C997 1.401 . S
C996 H1006 0.930 . S
C997 C995 1.392 . S
C997 C996 1.401 . S
C997 H1007 0.930 . S
C998 O976 1.262 . S
C998 O977 1.260 . S
C999 Tb935 2.833 . S
C999 O974 1.251 . S
C999 O979 1.256 . S
C999 C992 1.500 . S
H1000 C983 0.930 . S
H1001 C984 0.931 . S
H1002 C985 0.930 . S
H1003 C986 0.930 . S
H1004 C993 0.930 . S
H1005 C995 0.931 . S
H1006 C996 0.930 . S
H1007 C997 0.930 . S
H1008 C1016 0.929 . S
H1009 C1018 0.930 . S
H1010 C1020 0.930 . S
H1011 C1023 0.929 . S
H1012 C1026 0.930 . S
H1013 C1028 0.960 . S
H1014 C1028 0.960 . S
H1015 C1028 0.960 . S
C1016 H1008 0.929 . S
C1016 C1017 1.377 . S
C1016 C1018 1.384 . S
C1017 C1016 1.377 . S
C1017 C1023 1.390 . S
C1018 H1009 0.930 . S
C1018 C1016 1.384 . S
C1018 C1019 1.372 . S
C1019 C1018 1.372 . S
C1019 C1020 1.400 . S
C1019 C1024 1.490 . S
C1020 H1010 0.930 . S
C1020 C1019 1.400 . S
C1020 C1023 1.386 . S
H1021 C1037 0.930 . S
H1022 C1038 0.931 . S
C1023 H1011 0.929 . S
C1023 C1017 1.390 . S
C1023 C1020 1.386 . S
C1024 C1019 1.490 . S
C1024 C1026 1.395 . S
C1024 C1027 1.403 . S
H1025 C1031 0.930 . S
C1026 H1012 0.930 . S
C1026 C1024 1.395 . S
C1026 C1029 1.403 . S
C1027 C1024 1.403 . S
C1027 C1028 1.524 . S
C1027 C1031 1.400 . S
C1028 H1013 0.960 . S
C1028 H1014 0.960 . S
C1028 H1015 0.960 . S
C1028 C1027 1.524 . S
C1029 C1026 1.403 . S
C1029 C1030 1.392 . S
C1029 C1033 1.495 . S
C1030 C1029 1.392 . S
C1030 C1031 1.385 . S
C1030 C1032 1.478 . S
C1031 H1025 0.930 . S
C1031 C1027 1.400 . S
C1031 C1030 1.385 . S
C1032 C1030 1.478 . S
C1032 C1034 1.381 . S
C1032 C1038 1.383 . S
C1033 C1029 1.495 . S
C1033 H1039 0.959 . S
C1033 H1040 0.961 . S
C1033 H1041 0.960 . S
C1034 C1032 1.381 . S
C1034 C1035 1.394 . S
C1034 H1042 0.930 . S
C1035 C1034 1.394 . S
C1035 C1036 1.383 . S
C1035 H1043 0.929 . S
C1036 C1035 1.383 . S
C1036 C1037 1.377 . S
C1037 H1021 0.930 . S
C1037 C1036 1.377 . S
C1037 C1038 1.379 . S
C1038 H1022 0.931 . S
C1038 C1032 1.383 . S
C1038 C1037 1.379 . S
H1039 C1033 0.959 . S
H1040 C1033 0.961 . S
H1041 C1033 0.960 . S
H1042 C1034 0.930 . S
H1043 C1035 0.929 . S
H1044 C1052 0.929 . S
H1045 C1054 0.930 . S
H1046 C1056 0.930 . S
H1047 C1059 0.929 . S
H1048 C1062 0.930 . S
H1049 C1064 0.960 . S
H1050 C1064 0.960 . S
H1051 C1064 0.960 . S
C1052 H1044 0.929 . S
C1052 C1053 1.358 1_565 S
C1052 C1054 1.384 . S
C1053 C1052 1.358 1_545 S
C1053 C1059 1.393 . S
C1054 H1045 0.930 . S
C1054 C1052 1.384 . S
C1054 C1055 1.372 . S
C1055 C1054 1.372 . S
C1055 C1056 1.400 . S
C1055 C1060 1.490 . S
C1056 H1046 0.930 . S
C1056 C1055 1.400 . S
C1056 C1059 1.386 1_565 S
H1057 C1073 0.930 . S
H1058 C1074 0.931 . S
C1059 H1047 0.929 . S
C1059 C1053 1.393 . S
C1059 C1056 1.386 1_545 S
C1060 C1055 1.490 . S
C1060 C1062 1.395 . S
C1060 C1063 1.403 . S
H1061 C1067 0.930 . S
C1062 H1048 0.930 . S
C1062 C1060 1.395 . S
C1062 C1065 1.403 . S
C1063 C1060 1.403 . S
C1063 C1064 1.524 . S
C1063 C1067 1.400 . S
C1064 H1049 0.960 . S
C1064 H1050 0.960 . S
C1064 H1051 0.960 . S
C1064 C1063 1.524 . S
C1065 C1062 1.403 . S
C1065 C1066 1.392 . S
C1065 C1069 1.495 . S
C1066 C1065 1.392 . S
C1066 C1067 1.385 . S
C1066 C1068 1.478 . S
C1067 H1061 0.930 . S
C1067 C1063 1.400 . S
C1067 C1066 1.385 . S
C1068 C1066 1.478 . S
C1068 C1070 1.381 . S
C1068 C1074 1.383 . S
C1069 C1065 1.495 . S
C1069 H1075 0.959 . S
C1069 H1076 0.961 . S
C1069 H1077 0.960 . S
C1070 C1068 1.381 . S
C1070 C1071 1.394 . S
C1070 H1078 0.930 . S
C1071 C1070 1.394 . S
C1071 C1072 1.383 . S
C1071 H1079 0.929 . S
C1072 C1071 1.383 . S
C1072 C1073 1.377 . S
C1073 H1057 0.930 . S
C1073 C1072 1.377 . S
C1073 C1074 1.379 . S
C1074 H1058 0.931 . S
C1074 C1068 1.383 . S
C1074 C1073 1.379 . S
H1075 C1069 0.959 . S
H1076 C1069 0.961 . S
H1077 C1069 0.960 . S
H1078 C1070 0.930 . S
H1079 C1071 0.929 . S
H1080 C1088 0.929 . S
H1081 C1090 0.930 . S
H1082 C1092 0.930 . S
H1083 C1095 0.929 . S
H1084 C1098 0.930 . S
H1085 C1100 0.960 . S
H1086 C1100 0.960 . S
H1087 C1100 0.960 . S
C1088 H1080 0.929 . S
C1088 C1089 1.377 1_556 S
C1088 C1090 1.384 . S
C1089 C1088 1.377 1_554 S
C1089 C1095 1.390 . S
C1090 H1081 0.930 . S
C1090 C1088 1.384 . S
C1090 C1091 1.372 1_556 S
C1091 C1090 1.372 1_554 S
C1091 C1092 1.400 . S
C1091 C1096 1.490 . S
C1092 H1082 0.930 . S
C1092 C1091 1.400 . S
C1092 C1095 1.386 . S
H1093 C1109 0.930 . S
H1094 C1110 0.931 . S
C1095 H1083 0.929 . S
C1095 C1089 1.390 . S
C1095 C1092 1.386 . S
C1096 C1091 1.490 . S
C1096 C1098 1.395 . S
C1096 C1099 1.403 . S
H1097 C1103 0.930 . S
C1098 H1084 0.930 . S
C1098 C1096 1.395 . S
C1098 C1101 1.403 . S
C1099 C1096 1.403 . S
C1099 C1100 1.524 . S
C1099 C1103 1.400 . S
C1100 H1085 0.960 . S
C1100 H1086 0.960 . S
C1100 H1087 0.960 . S
C1100 C1099 1.524 . S
C1101 C1098 1.403 . S
C1101 C1102 1.392 . S
C1101 C1105 1.495 . S
C1102 C1101 1.392 . S
C1102 C1103 1.385 . S
C1102 C1104 1.478 . S
C1103 H1097 0.930 . S
C1103 C1099 1.400 . S
C1103 C1102 1.385 . S
C1104 C1102 1.478 . S
C1104 C1106 1.381 . S
C1104 C1110 1.383 . S
C1105 C1101 1.495 . S
C1105 H1111 0.959 . S
C1105 H1112 0.961 . S
C1105 H1113 0.960 . S
C1106 C1104 1.381 . S
C1106 C1107 1.394 . S
C1106 H1114 0.930 . S
C1107 C1106 1.394 . S
C1107 C1108 1.383 . S
C1107 H1115 0.929 . S
C1108 C1107 1.383 . S
C1108 C1109 1.377 . S
C1109 H1093 0.930 . S
C1109 C1108 1.377 . S
C1109 C1110 1.379 . S
C1110 H1094 0.931 . S
C1110 C1104 1.383 . S
C1110 C1109 1.379 . S
H1111 C1105 0.959 . S
H1112 C1105 0.961 . S
H1113 C1105 0.960 . S
H1114 C1106 0.930 . S
H1115 C1107 0.929 . S
H1116 C1124 0.929 . S
H1117 C1126 0.930 . S
H1118 C1128 0.930 . S
H1119 C1131 0.929 . S
H1120 C1134 0.930 . S
H1121 C1136 0.960 1_565 S
H1122 C1136 0.960 . S
H1123 C1136 0.960 . S
C1124 H1116 0.929 . S
C1124 C1125 1.377 . S
C1124 C1126 1.384 . S
C1125 C1124 1.377 . S
C1125 C1131 1.390 . S
C1126 H1117 0.930 . S
C1126 C1124 1.384 . S
C1126 C1127 1.372 . S
C1127 C1126 1.372 . S
C1127 C1128 1.400 . S
C1127 C1132 1.490 . S
C1128 H1118 0.930 . S
C1128 C1127 1.400 . S
C1128 C1131 1.386 . S
H1129 C1145 0.930 . S
H1130 C1146 0.931 1_565 S
C1131 H1119 0.929 . S
C1131 C1125 1.390 . S
C1131 C1128 1.386 . S
C1132 C1127 1.490 . S
C1132 C1134 1.395 . S
C1132 C1135 1.403 . S
H1133 C1139 0.930 . S
C1134 H1120 0.930 . S
C1134 C1132 1.395 . S
C1134 C1137 1.403 . S
C1135 C1132 1.403 . S
C1135 C1136 1.524 . S
C1135 C1139 1.400 . S
C1136 H1121 0.960 1_545 S
C1136 H1122 0.960 . S
C1136 H1123 0.960 . S
C1136 C1135 1.524 . S
C1137 C1134 1.403 . S
C1137 C1138 1.392 . S
C1137 C1141 1.495 . S
C1138 C1137 1.392 . S
C1138 C1139 1.385 . S
C1138 C1140 1.478 . S
C1139 H1133 0.930 . S
C1139 C1135 1.400 . S
C1139 C1138 1.385 . S
C1140 C1138 1.478 . S
C1140 C1142 1.381 . S
C1140 C1146 1.383 . S
C1141 C1137 1.495 . S
C1141 H1147 0.959 . S
C1141 H1148 0.961 . S
C1141 H1149 0.960 . S
C1142 C1140 1.381 . S
C1142 C1143 1.394 . S
C1142 H1150 0.930 . S
C1143 C1142 1.394 . S
C1143 C1144 1.383 . S
C1143 H1151 0.929 . S
C1144 C1143 1.383 . S
C1144 C1145 1.377 1_545 S
C1145 H1129 0.930 . S
C1145 C1144 1.377 1_565 S
C1145 C1146 1.379 1_565 S
C1146 H1130 0.931 1_545 S
C1146 C1140 1.383 . S
C1146 C1145 1.379 1_545 S
H1147 C1141 0.959 . S
H1148 C1141 0.961 . S
H1149 C1141 0.960 . S
H1150 C1142 0.930 . S
H1151 C1143 0.929 . S
H1152 C1160 0.929 . S
H1153 C1162 0.930 . S
H1154 C1164 0.930 . S
H1155 C1167 0.929 . S
H1156 C1170 0.930 . S
H1157 C1172 0.960 . S
H1158 C1172 0.960 . S
H1159 C1172 0.960 . S
C1160 H1152 0.929 . S
C1160 C1161 1.377 . S
C1160 C1162 1.384 . S
C1161 C1160 1.377 . S
C1161 C1167 1.390 . S
C1162 H1153 0.930 . S
C1162 C1160 1.384 . S
C1162 C1163 1.372 . S
C1163 C1162 1.372 . S
C1163 C1164 1.400 . S
C1163 C1168 1.490 . S
C1164 H1154 0.930 . S
C1164 C1163 1.400 . S
C1164 C1167 1.386 . S
H1165 C1181 0.930 . S
H1166 C1182 0.931 . S
C1167 H1155 0.929 . S
C1167 C1161 1.390 . S
C1167 C1164 1.386 . S
C1168 C1163 1.490 . S
C1168 C1170 1.395 . S
C1168 C1171 1.403 . S
H1169 C1175 0.930 . S
C1170 H1156 0.930 . S
C1170 C1168 1.395 . S
C1170 C1173 1.403 . S
C1171 C1168 1.403 . S
C1171 C1172 1.524 . S
C1171 C1175 1.400 . S
C1172 H1157 0.960 . S
C1172 H1158 0.960 . S
C1172 H1159 0.960 . S
C1172 C1171 1.524 . S
C1173 C1170 1.403 . S
C1173 C1174 1.392 . S
C1173 C1177 1.495 . S
C1174 C1173 1.392 . S
C1174 C1175 1.385 . S
C1174 C1176 1.478 . S
C1175 H1169 0.930 . S
C1175 C1171 1.400 . S
C1175 C1174 1.385 . S
C1176 C1174 1.478 . S
C1176 C1178 1.381 . S
C1176 C1182 1.383 . S
C1177 C1173 1.495 . S
C1177 H1183 0.959 . S
C1177 H1184 0.961 . S
C1177 H1185 0.960 . S
C1178 C1176 1.381 . S
C1178 C1179 1.394 . S
C1178 H1186 0.930 . S
C1179 C1178 1.394 . S
C1179 C1180 1.383 . S
C1179 H1187 0.929 . S
C1180 C1179 1.383 . S
C1180 C1181 1.377 . S
C1181 H1165 0.930 . S
C1181 C1180 1.377 . S
C1181 C1182 1.379 . S
C1182 H1166 0.931 . S
C1182 C1176 1.383 . S
C1182 C1181 1.379 . S
H1183 C1177 0.959 . S
H1184 C1177 0.961 . S
H1185 C1177 0.960 . S
H1186 C1178 0.930 . S
H1187 C1179 0.929 . S
H1188 C1196 0.929 . S
H1189 C1198 0.930 . S
H1190 C1200 0.930 . S
H1191 C1203 0.929 . S
H1192 C1206 0.930 . S
H1193 C1208 0.960 . S
H1194 C1208 0.960 . S
H1195 C1208 0.960 . S
C1196 H1188 0.929 . S
C1196 C1197 1.377 . S
C1196 C1198 1.384 . S
C1197 C1196 1.377 . S
C1197 C1203 1.390 . S
C1198 H1189 0.930 . S
C1198 C1196 1.384 . S
C1198 C1199 1.372 . S
C1199 C1198 1.372 . S
C1199 C1200 1.400 . S
C1199 C1204 1.490 . S
C1200 H1190 0.930 . S
C1200 C1199 1.400 . S
C1200 C1203 1.386 . S
H1201 C1217 0.930 . S
H1202 C1218 0.931 . S
C1203 H1191 0.929 . S
C1203 C1197 1.390 . S
C1203 C1200 1.386 . S
C1204 C1199 1.490 . S
C1204 C1206 1.395 . S
C1204 C1207 1.403 . S
H1205 C1211 0.930 . S
C1206 H1192 0.930 . S
C1206 C1204 1.395 . S
C1206 C1209 1.403 . S
C1207 C1204 1.403 . S
C1207 C1208 1.524 . S
C1207 C1211 1.400 . S
C1208 H1193 0.960 . S
C1208 H1194 0.960 . S
C1208 H1195 0.960 . S
C1208 C1207 1.524 . S
C1209 C1206 1.403 . S
C1209 C1210 1.392 . S
C1209 C1213 1.495 . S
C1210 C1209 1.392 . S
C1210 C1211 1.385 . S
C1210 C1212 1.478 . S
C1211 H1205 0.930 . S
C1211 C1207 1.400 . S
C1211 C1210 1.385 . S
C1212 C1210 1.478 . S
C1212 C1214 1.381 . S
C1212 C1218 1.383 . S
C1213 C1209 1.495 . S
C1213 H1219 0.959 . S
C1213 H1220 0.961 . S
C1213 H1221 0.960 . S
C1214 C1212 1.381 . S
C1214 C1215 1.394 . S
C1214 H1222 0.930 . S
C1215 C1214 1.394 . S
C1215 C1216 1.383 . S
C1215 H1223 0.929 . S
C1216 C1215 1.383 . S
C1216 C1217 1.377 . S
C1217 H1201 0.930 . S
C1217 C1216 1.377 . S
C1217 C1218 1.379 . S
C1218 H1202 0.931 . S
C1218 C1212 1.383 . S
C1218 C1217 1.379 . S
H1219 C1213 0.959 . S
H1220 C1213 0.961 . S
H1221 C1213 0.960 . S
H1222 C1214 0.930 . S
H1223 C1215 0.929 . S
H1224 C1232 0.929 . S
H1225 C1234 0.930 . S
H1226 C1236 0.930 . S
H1227 C1239 0.929 . S
H1228 C1242 0.930 . S
H1229 C1244 0.960 . S
H1230 C1244 0.960 . S
H1231 C1244 0.960 . S
C1232 H1224 0.929 . S
C1232 C1233 1.377 . S
C1232 C1234 1.384 . S
C1233 C1232 1.377 . S
C1233 C1239 1.390 . S
C1234 H1225 0.930 . S
C1234 C1232 1.384 . S
C1234 C1235 1.372 . S
C1235 C1234 1.372 . S
C1235 C1236 1.400 . S
C1235 C1240 1.490 . S
C1236 H1226 0.930 . S
C1236 C1235 1.400 . S
C1236 C1239 1.386 . S
H1237 C1253 0.930 . S
H1238 C1254 0.931 . S
C1239 H1227 0.929 . S
C1239 C1233 1.390 . S
C1239 C1236 1.386 . S
C1240 C1235 1.490 . S
C1240 C1242 1.395 . S
C1240 C1243 1.403 . S
H1241 C1247 0.930 . S
C1242 H1228 0.930 . S
C1242 C1240 1.395 . S
C1242 C1245 1.403 . S
C1243 C1240 1.403 . S
C1243 C1244 1.524 . S
C1243 C1247 1.400 . S
C1244 H1229 0.960 . S
C1244 H1230 0.960 . S
C1244 H1231 0.960 . S
C1244 C1243 1.524 . S
C1245 C1242 1.403 . S
C1245 C1246 1.392 . S
C1245 C1249 1.495 . S
C1246 C1245 1.392 . S
C1246 C1247 1.385 . S
C1246 C1248 1.478 . S
C1247 H1241 0.930 . S
C1247 C1243 1.400 . S
C1247 C1246 1.385 . S
C1248 C1246 1.478 . S
C1248 C1250 1.381 1_556 S
C1248 C1254 1.383 . S
C1249 C1245 1.495 . S
C1249 H1255 0.959 . S
C1249 H1256 0.961 . S
C1249 H1257 0.960 . S
C1250 C1248 1.381 1_554 S
C1250 C1251 1.394 . S
C1250 H1258 0.930 . S
C1251 C1250 1.394 . S
C1251 C1252 1.383 1_554 S
C1251 H1259 0.929 . S
C1252 C1251 1.383 1_556 S
C1252 C1253 1.377 . S
C1253 H1237 0.930 . S
C1253 C1252 1.377 . S
C1253 C1254 1.379 . S
C1254 H1238 0.931 . S
C1254 C1248 1.383 . S
C1254 C1253 1.379 . S
H1255 C1249 0.959 . S
H1256 C1249 0.961 . S
H1257 C1249 0.960 . S
H1258 C1250 0.930 . S
H1259 C1251 0.929 . S
H1260 C1268 0.929 . S
H1261 C1270 0.930 . S
H1262 C1272 0.930 . S
H1263 C1275 0.929 . S
H1264 C1278 0.930 . S
H1265 C1280 0.960 . S
H1266 C1280 0.960 . S
H1267 C1280 0.960 . S
C1268 H1260 0.929 . S
C1268 C1269 1.377 . S
C1268 C1270 1.384 . S
C1269 C1268 1.377 . S
C1269 C1275 1.390 . S
C1270 H1261 0.930 . S
C1270 C1268 1.384 . S
C1270 C1271 1.372 . S
C1271 C1270 1.372 . S
C1271 C1272 1.400 . S
C1271 C1276 1.490 . S
C1272 H1262 0.930 . S
C1272 C1271 1.400 . S
C1272 C1275 1.386 . S
H1273 C1289 0.930 . S
H1274 C1290 0.931 . S
C1275 H1263 0.929 . S
C1275 C1269 1.390 . S
C1275 C1272 1.386 . S
C1276 C1271 1.490 . S
C1276 C1278 1.395 . S
C1276 C1279 1.403 . S
H1277 C1283 0.930 . S
C1278 H1264 0.930 . S
C1278 C1276 1.395 . S
C1278 C1281 1.403 . S
C1279 C1276 1.403 . S
C1279 C1280 1.524 . S
C1279 C1283 1.400 . S
C1280 H1265 0.960 . S
C1280 H1266 0.960 . S
C1280 H1267 0.960 . S
C1280 C1279 1.524 . S
C1281 C1278 1.403 . S
C1281 C1282 1.392 . S
C1281 C1285 1.495 . S
C1282 C1281 1.392 . S
C1282 C1283 1.385 . S
C1282 C1284 1.478 . S
C1283 H1277 0.930 . S
C1283 C1279 1.400 . S
C1283 C1282 1.385 . S
C1284 C1282 1.478 . S
C1284 C1286 1.381 . S
C1284 C1290 1.383 . S
C1285 C1281 1.495 . S
C1285 H1291 0.959 . S
C1285 H1292 0.961 . S
C1285 H1293 0.960 . S
C1286 C1284 1.381 . S
C1286 C1287 1.394 . S
C1286 H1294 0.930 . S
C1287 C1286 1.394 . S
C1287 C1288 1.383 . S
C1287 H1295 0.929 . S
C1288 C1287 1.383 . S
C1288 C1289 1.377 . S
C1289 H1273 0.930 . S
C1289 C1288 1.377 . S
C1289 C1290 1.379 . S
C1290 H1274 0.931 . S
C1290 C1284 1.383 . S
C1290 C1289 1.379 . S
H1291 C1285 0.959 . S
H1292 C1285 0.961 . S
H1293 C1285 0.960 . S
H1294 C1286 0.930 . S
H1295 C1287 0.929 . S
H1296 C1304 0.929 . S
H1297 C1306 0.930 . S
H1298 C1308 0.930 . S
H1299 C1311 0.929 . S
H1300 C1314 0.930 . S
H1301 C1316 0.960 . S
H1302 C1316 0.960 . S
H1303 C1316 0.960 . S
C1304 H1296 0.929 . S
C1304 C1305 1.377 . S
C1304 C1306 1.384 . S
C1305 C1304 1.377 . S
C1305 C1311 1.390 . S
C1306 H1297 0.930 . S
C1306 C1304 1.384 . S
C1306 C1307 1.372 . S
C1307 C1306 1.372 . S
C1307 C1308 1.400 . S
C1307 C1312 1.490 . S
C1308 H1298 0.930 . S
C1308 C1307 1.400 . S
C1308 C1311 1.386 . S
H1309 C1325 0.930 . S
H1310 C1326 0.931 . S
C1311 H1299 0.929 . S
C1311 C1305 1.390 . S
C1311 C1308 1.386 . S
C1312 C1307 1.490 . S
C1312 C1314 1.395 . S
C1312 C1315 1.403 . S
H1313 C1319 0.930 . S
C1314 H1300 0.930 . S
C1314 C1312 1.395 . S
C1314 C1317 1.403 . S
C1315 C1312 1.403 . S
C1315 C1316 1.524 . S
C1315 C1319 1.400 . S
C1316 H1301 0.960 . S
C1316 H1302 0.960 . S
C1316 H1303 0.960 . S
C1316 C1315 1.524 . S
C1317 C1314 1.403 . S
C1317 C1318 1.392 . S
C1317 C1321 1.495 . S
C1318 C1317 1.392 . S
C1318 C1319 1.385 . S
C1318 C1320 1.478 . S
C1319 H1313 0.930 . S
C1319 C1315 1.400 . S
C1319 C1318 1.385 . S
C1320 C1318 1.478 . S
C1320 C1322 1.381 . S
C1320 C1326 1.383 . S
C1321 C1317 1.495 . S
C1321 H1327 0.959 . S
C1321 H1328 0.961 . S
C1321 H1329 0.960 . S
C1322 C1320 1.381 . S
C1322 C1323 1.394 . S
C1322 H1330 0.930 . S
C1323 C1322 1.394 . S
C1323 C1324 1.383 . S
C1323 H1331 0.929 . S
C1324 C1323 1.383 . S
C1324 C1325 1.377 . S
C1325 H1309 0.930 . S
C1325 C1324 1.377 . S
C1325 C1326 1.379 . S
C1326 H1310 0.931 . S
C1326 C1320 1.383 . S
C1326 C1325 1.379 . S
H1327 C1321 0.959 . S
H1328 C1321 0.961 . S
H1329 C1321 0.960 . S
H1330 C1322 0.930 . S
H1331 C1323 0.929 . S
H1332 C1340 0.929 . S
H1333 C1342 0.930 . S
H1334 C1344 0.930 . S
H1335 C1347 0.929 . S
H1336 C1350 0.930 . S
H1337 C1352 0.960 1_655 S
H1338 C1352 0.960 . S
H1339 C1352 0.960 . S
C1340 H1332 0.929 . S
C1340 C1341 1.377 . S
C1340 C1342 1.384 . S
C1341 C1340 1.377 . S
C1341 C1347 1.390 . S
C1342 H1333 0.930 . S
C1342 C1340 1.384 . S
C1342 C1343 1.372 . S
C1343 C1342 1.372 . S
C1343 C1344 1.400 . S
C1343 C1348 1.490 . S
C1344 H1334 0.930 . S
C1344 C1343 1.400 . S
C1344 C1347 1.386 . S
H1345 C1361 0.930 . S
H1346 C1362 0.931 . S
C1347 H1335 0.929 . S
C1347 C1341 1.390 . S
C1347 C1344 1.386 . S
C1348 C1343 1.490 . S
C1348 C1350 1.395 . S
C1348 C1351 1.403 . S
H1349 C1355 0.930 . S
C1350 H1336 0.930 . S
C1350 C1348 1.395 . S
C1350 C1353 1.403 . S
C1351 C1348 1.403 . S
C1351 C1352 1.524 . S
C1351 C1355 1.400 . S
C1352 H1337 0.960 1_455 S
C1352 H1338 0.960 . S
C1352 H1339 0.960 . S
C1352 C1351 1.524 . S
C1353 C1350 1.403 . S
C1353 C1354 1.392 . S
C1353 C1357 1.495 . S
C1354 C1353 1.392 . S
C1354 C1355 1.385 . S
C1354 C1356 1.478 . S
C1355 H1349 0.930 . S
C1355 C1351 1.400 . S
C1355 C1354 1.385 . S
C1356 C1354 1.478 . S
C1356 C1358 1.381 . S
C1356 C1362 1.383 . S
C1357 C1353 1.495 . S
C1357 H1363 0.959 . S
C1357 H1364 0.961 . S
C1357 H1365 0.960 . S
C1358 C1356 1.381 . S
C1358 C1359 1.394 . S
C1358 H1366 0.930 . S
C1359 C1358 1.394 . S
C1359 C1360 1.383 . S
C1359 H1367 0.929 . S
C1360 C1359 1.383 . S
C1360 C1361 1.377 . S
C1361 H1345 0.930 . S
C1361 C1360 1.377 . S
C1361 C1362 1.379 . S
C1362 H1346 0.931 . S
C1362 C1356 1.383 . S
C1362 C1361 1.379 . S
H1363 C1357 0.959 . S
H1364 C1357 0.961 . S
H1365 C1357 0.960 . S
H1366 C1358 0.930 . S
H1367 C1359 0.929 . S
H1368 C1376 0.929 . S
H1369 C1378 0.930 . S
H1370 C1380 0.913 1_455 S
H1371 C1383 0.929 . S
H1372 C1386 0.930 . S
H1373 C1388 0.960 . S
H1374 C1388 0.960 . S
H1375 C1388 0.960 . S
C1376 H1368 0.929 . S
C1376 C1377 1.409 . S
C1376 C1378 1.384 . S
C1377 C1376 1.409 . S
C1377 C1383 1.375 1_655 S
C1378 H1369 0.930 . S
C1378 C1376 1.384 . S
C1378 C1379 1.372 . S
C1379 C1378 1.372 . S
C1379 C1380 1.435 . S
C1379 C1384 1.490 . S
C1380 H1370 0.913 1_655 S
C1380 C1379 1.435 . S
C1380 C1383 1.369 1_655 S
H1381 C1397 0.930 . S
H1382 C1398 0.931 . S
C1383 H1371 0.929 . S
C1383 C1377 1.375 1_455 S
C1383 C1380 1.369 1_455 S
C1384 C1379 1.490 . S
C1384 C1386 1.395 . S
C1384 C1387 1.403 . S
H1385 C1391 0.930 . S
C1386 H1372 0.930 . S
C1386 C1384 1.395 . S
C1386 C1389 1.403 . S
C1387 C1384 1.403 . S
C1387 C1388 1.524 1_655 S
C1387 C1391 1.400 . S
C1388 H1373 0.960 . S
C1388 H1374 0.960 . S
C1388 H1375 0.960 . S
C1388 C1387 1.524 1_455 S
C1389 C1386 1.403 . S
C1389 C1390 1.392 . S
C1389 C1393 1.495 . S
C1390 C1389 1.392 . S
C1390 C1391 1.385 . S
C1390 C1392 1.478 . S
C1391 H1385 0.930 . S
C1391 C1387 1.400 . S
C1391 C1390 1.385 . S
C1392 C1390 1.478 . S
C1392 C1394 1.381 . S
C1392 C1398 1.383 . S
C1393 C1389 1.495 . S
C1393 H1399 0.959 . S
C1393 H1400 0.961 . S
C1393 H1401 0.960 . S
C1394 C1392 1.381 . S
C1394 C1395 1.394 . S
C1394 H1402 0.930 . S
C1395 C1394 1.394 . S
C1395 C1396 1.383 . S
C1395 H1403 0.929 . S
C1396 C1395 1.383 . S
C1396 C1397 1.377 . S
C1397 H1381 0.930 . S
C1397 C1396 1.377 . S
C1397 C1398 1.379 . S
C1398 H1382 0.931 . S
C1398 C1392 1.383 . S
C1398 C1397 1.379 . S
H1399 C1393 0.959 . S
H1400 C1393 0.961 . S
H1401 C1393 0.960 . S
H1402 C1394 0.930 . S
H1403 C1395 0.929 . S
H1404 C1412 0.929 . S
H1405 C1414 0.930 . S
H1406 C1416 0.930 . S
H1407 C1419 0.929 . S
H1408 C1422 0.930 . S
H1409 C1424 0.960 . S
H1410 C1424 0.960 . S
H1411 C1424 0.960 . S
C1412 H1404 0.929 . S
C1412 C1413 1.377 . S
C1412 C1414 1.384 . S
C1413 C1412 1.377 . S
C1413 C1419 1.390 . S
C1414 H1405 0.930 . S
C1414 C1412 1.384 . S
C1414 C1415 1.372 . S
C1415 C1414 1.372 . S
C1415 C1416 1.400 . S
C1415 C1420 1.490 . S
C1416 H1406 0.930 . S
C1416 C1415 1.400 . S
C1416 C1419 1.386 . S
H1417 C1433 0.930 . S
H1418 C1434 0.931 . S
C1419 H1407 0.929 . S
C1419 C1413 1.390 . S
C1419 C1416 1.386 . S
C1420 C1415 1.490 . S
C1420 C1422 1.395 . S
C1420 C1423 1.403 . S
H1421 C1427 0.930 . S
C1422 H1408 0.930 . S
C1422 C1420 1.395 . S
C1422 C1425 1.403 . S
C1423 C1420 1.403 . S
C1423 C1424 1.524 . S
C1423 C1427 1.400 . S
C1424 H1409 0.960 . S
C1424 H1410 0.960 . S
C1424 H1411 0.960 . S
C1424 C1423 1.524 . S
C1425 C1422 1.403 . S
C1425 C1426 1.392 . S
C1425 C1429 1.495 . S
C1426 C1425 1.392 . S
C1426 C1427 1.385 . S
C1426 C1428 1.478 . S
C1427 H1421 0.930 . S
C1427 C1423 1.400 . S
C1427 C1426 1.385 . S
C1428 C1426 1.478 . S
C1428 C1430 1.381 . S
C1428 C1434 1.383 . S
C1429 C1425 1.495 . S
C1429 H1435 0.959 . S
C1429 H1436 0.961 . S
C1429 H1437 0.960 . S
C1430 C1428 1.381 . S
C1430 C1431 1.394 . S
C1430 H1438 0.930 . S
C1431 C1430 1.394 . S
C1431 C1432 1.383 . S
C1431 H1439 0.929 . S
C1432 C1431 1.383 . S
C1432 C1433 1.377 . S
C1433 H1417 0.930 . S
C1433 C1432 1.377 . S
C1433 C1434 1.379 . S
C1434 H1418 0.931 . S
C1434 C1428 1.383 . S
C1434 C1433 1.379 . S
H1435 C1429 0.959 . S
H1436 C1429 0.961 . S
H1437 C1429 0.960 . S
H1438 C1430 0.930 . S
H1439 C1431 0.929 . S
H1440 C1448 0.929 . S
H1441 C1450 0.930 . S
H1442 C1452 0.930 . S
H1443 C1455 0.929 . S
H1444 C1458 0.930 . S
H1445 C1460 0.960 . S
H1446 C1460 0.960 . S
H1447 C1460 0.960 . S
C1448 H1440 0.929 . S
C1448 C1449 1.377 . S
C1448 C1450 1.384 . S
C1449 C1448 1.377 . S
C1449 C1455 1.390 . S
C1450 H1441 0.930 . S
C1450 C1448 1.384 . S
C1450 C1451 1.372 . S
C1451 C1450 1.372 . S
C1451 C1452 1.400 . S
C1451 C1456 1.490 . S
C1452 H1442 0.930 . S
C1452 C1451 1.400 . S
C1452 C1455 1.386 . S
H1453 C1469 0.930 . S
H1454 C1470 0.931 . S
C1455 H1443 0.929 . S
C1455 C1449 1.390 . S
C1455 C1452 1.386 . S
C1456 C1451 1.490 . S
C1456 C1458 1.395 . S
C1456 C1459 1.403 . S
H1457 C1463 0.930 . S
C1458 H1444 0.930 . S
C1458 C1456 1.395 . S
C1458 C1461 1.403 . S
C1459 C1456 1.403 . S
C1459 C1460 1.524 . S
C1459 C1463 1.400 . S
C1460 H1445 0.960 . S
C1460 H1446 0.960 . S
C1460 H1447 0.960 . S
C1460 C1459 1.524 . S
C1461 C1458 1.403 . S
C1461 C1462 1.392 . S
C1461 C1465 1.495 . S
C1462 C1461 1.392 . S
C1462 C1463 1.385 . S
C1462 C1464 1.478 . S
C1463 H1457 0.930 . S
C1463 C1459 1.400 . S
C1463 C1462 1.385 . S
C1464 C1462 1.478 . S
C1464 C1466 1.381 . S
C1464 C1470 1.383 . S
C1465 C1461 1.495 . S
C1465 H1471 0.959 . S
C1465 H1472 0.961 . S
C1465 H1473 0.960 . S
C1466 C1464 1.381 . S
C1466 C1467 1.394 . S
C1466 H1474 0.930 . S
C1467 C1466 1.394 . S
C1467 C1468 1.383 . S
C1467 H1475 0.929 . S
C1468 C1467 1.383 . S
C1468 C1469 1.377 . S
C1469 H1453 0.930 . S
C1469 C1468 1.377 . S
C1469 C1470 1.379 . S
C1470 H1454 0.931 . S
C1470 C1464 1.383 . S
C1470 C1469 1.379 . S
H1471 C1465 0.959 . S
H1472 C1465 0.961 . S
H1473 C1465 0.960 . S
H1474 C1466 0.930 . S
H1475 C1467 0.929 . S
H1476 C1484 0.929 . S
H1477 C1486 0.930 . S
H1478 C1488 0.930 . S
H1479 C1491 0.929 . S
H1480 C1494 0.930 . S
H1481 C1496 0.960 . S
H1482 C1496 0.960 . S
H1483 C1496 0.960 . S
C1484 H1476 0.929 . S
C1484 C1485 1.377 . S
C1484 C1486 1.384 . S
C1485 C1484 1.377 . S
C1485 C1491 1.390 . S
C1486 H1477 0.930 . S
C1486 C1484 1.384 . S
C1486 C1487 1.372 . S
C1487 C1486 1.372 . S
C1487 C1488 1.400 . S
C1487 C1492 1.490 . S
C1488 H1478 0.930 . S
C1488 C1487 1.400 . S
C1488 C1491 1.386 . S
H1489 C1505 0.930 . S
H1490 C1506 0.931 . S
C1491 H1479 0.929 . S
C1491 C1485 1.390 . S
C1491 C1488 1.386 . S
C1492 C1487 1.490 . S
C1492 C1494 1.395 . S
C1492 C1495 1.403 . S
H1493 C1499 0.930 . S
C1494 H1480 0.930 . S
C1494 C1492 1.395 . S
C1494 C1497 1.403 . S
C1495 C1492 1.403 . S
C1495 C1496 1.524 . S
C1495 C1499 1.400 . S
C1496 H1481 0.960 . S
C1496 H1482 0.960 . S
C1496 H1483 0.960 . S
C1496 C1495 1.524 . S
C1497 C1494 1.403 . S
C1497 C1498 1.392 . S
C1497 C1501 1.495 . S
C1498 C1497 1.392 . S
C1498 C1499 1.385 . S
C1498 C1500 1.478 . S
C1499 H1493 0.930 . S
C1499 C1495 1.400 . S
C1499 C1498 1.385 . S
C1500 C1498 1.478 . S
C1500 C1502 1.381 . S
C1500 C1506 1.383 . S
C1501 C1497 1.495 . S
C1501 H1507 0.959 . S
C1501 H1508 0.961 . S
C1501 H1509 0.960 . S
C1502 C1500 1.381 . S
C1502 C1503 1.394 . S
C1502 H1510 0.930 . S
C1503 C1502 1.394 . S
C1503 C1504 1.383 . S
C1503 H1511 0.929 . S
C1504 C1503 1.383 . S
C1504 C1505 1.377 . S
C1505 H1489 0.930 . S
C1505 C1504 1.377 . S
C1505 C1506 1.379 . S
C1506 H1490 0.931 . S
C1506 C1500 1.383 . S
C1506 C1505 1.379 . S
H1507 C1501 0.959 . S
H1508 C1501 0.961 . S
H1509 C1501 0.960 . S
H1510 C1502 0.930 . S
H1511 C1503 0.929 . S
H1512 C1520 0.929 . S
H1513 C1522 0.930 . S
H1514 C1524 0.930 . S
H1515 C1527 0.929 . S
H1516 C1530 0.930 . S
H1517 C1532 0.960 . S
H1518 C1532 0.960 . S
H1519 C1532 0.960 . S
C1520 H1512 0.929 . S
C1520 C1521 1.377 . S
C1520 C1522 1.384 . S
C1521 C1520 1.377 . S
C1521 C1527 1.390 . S
C1522 H1513 0.930 . S
C1522 C1520 1.384 . S
C1522 C1523 1.372 . S
C1523 C1522 1.372 . S
C1523 C1524 1.400 . S
C1523 C1528 1.490 . S
C1524 H1514 0.930 . S
C1524 C1523 1.400 . S
C1524 C1527 1.386 . S
H1525 C1541 0.930 . S
H1526 C1542 0.931 . S
C1527 H1515 0.929 . S
C1527 C1521 1.390 . S
C1527 C1524 1.386 . S
C1528 C1523 1.490 . S
C1528 C1530 1.395 . S
C1528 C1531 1.403 . S
H1529 C1535 0.930 . S
C1530 H1516 0.930 . S
C1530 C1528 1.395 . S
C1530 C1533 1.403 . S
C1531 C1528 1.403 . S
C1531 C1532 1.524 . S
C1531 C1535 1.400 . S
C1532 H1517 0.960 . S
C1532 H1518 0.960 . S
C1532 H1519 0.960 . S
C1532 C1531 1.524 . S
C1533 C1530 1.403 . S
C1533 C1534 1.392 . S
C1533 C1537 1.495 . S
C1534 C1533 1.392 . S
C1534 C1535 1.385 . S
C1534 C1536 1.478 . S
C1535 H1529 0.930 . S
C1535 C1531 1.400 . S
C1535 C1534 1.385 . S
C1536 C1534 1.478 . S
C1536 C1538 1.381 . S
C1536 C1542 1.383 . S
C1537 C1533 1.495 . S
C1537 H1543 0.959 . S
C1537 H1544 0.961 . S
C1537 H1545 0.960 . S
C1538 C1536 1.381 . S
C1538 C1539 1.394 . S
C1538 H1546 0.930 . S
C1539 C1538 1.394 . S
C1539 C1540 1.383 . S
C1539 H1547 0.929 . S
C1540 C1539 1.383 . S
C1540 C1541 1.377 . S
C1541 H1525 0.930 . S
C1541 C1540 1.377 . S
C1541 C1542 1.379 . S
C1542 H1526 0.931 . S
C1542 C1536 1.383 . S
C1542 C1541 1.379 . S
H1543 C1537 0.959 . S
H1544 C1537 0.961 . S
H1545 C1537 0.960 . S
H1546 C1538 0.930 . S
H1547 C1539 0.929 . S
H1548 C1556 0.929 . S
H1549 C1558 0.930 . S
H1550 C1560 0.930 . S
H1551 C1563 0.929 . S
H1552 C1566 0.930 . S
H1553 C1568 0.960 . S
H1554 C1568 0.960 . S
H1555 C1568 0.960 . S
C1556 H1548 0.929 . S
C1556 C1557 1.377 . S
C1556 C1558 1.384 . S
C1557 C1556 1.377 . S
C1557 C1563 1.390 . S
C1558 H1549 0.930 . S
C1558 C1556 1.384 . S
C1558 C1559 1.372 . S
C1559 C1558 1.372 . S
C1559 C1560 1.400 . S
C1559 C1564 1.490 . S
C1560 H1550 0.930 . S
C1560 C1559 1.400 . S
C1560 C1563 1.386 . S
H1561 C1577 0.930 . S
H1562 C1578 0.931 . S
C1563 H1551 0.929 . S
C1563 C1557 1.390 . S
C1563 C1560 1.386 . S
C1564 C1559 1.490 . S
C1564 C1566 1.395 . S
C1564 C1567 1.403 . S
H1565 C1571 0.930 . S
C1566 H1552 0.930 . S
C1566 C1564 1.395 . S
C1566 C1569 1.437 . S
C1567 C1564 1.403 . S
C1567 C1568 1.524 . S
C1567 C1571 1.400 . S
C1568 H1553 0.960 . S
C1568 H1554 0.960 . S
C1568 H1555 0.960 . S
C1568 C1567 1.524 . S
C1569 C1566 1.437 . S
C1569 C1570 1.390 1_554 S
C1569 C1573 1.465 1_554 S
C1570 C1569 1.390 1_556 S
C1570 C1571 1.365 1_556 S
C1570 C1572 1.499 . S
C1571 H1565 0.930 . S
C1571 C1567 1.400 . S
C1571 C1570 1.365 1_554 S
C1572 C1570 1.499 . S
C1572 C1574 1.381 . S
C1572 C1578 1.383 . S
C1573 C1569 1.465 1_556 S
C1573 H1579 0.959 . S
C1573 H1580 0.961 . S
C1573 H1581 0.960 . S
C1574 C1572 1.381 . S
C1574 C1575 1.394 . S
C1574 H1582 0.930 . S
C1575 C1574 1.394 . S
C1575 C1576 1.383 . S
C1575 H1583 0.929 . S
C1576 C1575 1.383 . S
C1576 C1577 1.377 . S
C1577 H1561 0.930 . S
C1577 C1576 1.377 . S
C1577 C1578 1.379 . S
C1578 H1562 0.931 . S
C1578 C1572 1.383 . S
C1578 C1577 1.379 . S
H1579 C1573 0.959 . S
H1580 C1573 0.961 . S
H1581 C1573 0.960 . S
H1582 C1574 0.930 . S
H1583 C1575 0.929 . S
H1584 C1592 0.929 . S
H1585 C1594 0.930 . S
H1586 C1596 0.930 . S
H1587 C1599 0.929 . S
H1588 C1602 0.930 . S
H1589 C1604 0.960 . S
H1590 C1604 0.960 . S
H1591 C1604 0.960 . S
C1592 H1584 0.929 . S
C1592 C1593 1.377 . S
C1592 C1594 1.384 . S
C1593 C1592 1.377 . S
C1593 C1599 1.390 . S
C1594 H1585 0.930 . S
C1594 C1592 1.384 . S
C1594 C1595 1.372 . S
C1595 C1594 1.372 . S
C1595 C1596 1.400 . S
C1595 C1600 1.490 . S
C1596 H1586 0.930 . S
C1596 C1595 1.400 . S
C1596 C1599 1.386 . S
H1597 C1613 0.930 . S
H1598 C1614 0.931 . S
C1599 H1587 0.929 . S
C1599 C1593 1.390 . S
C1599 C1596 1.386 . S
C1600 C1595 1.490 . S
C1600 C1602 1.395 . S
C1600 C1603 1.403 . S
H1601 C1607 0.930 . S
C1602 H1588 0.930 . S
C1602 C1600 1.395 . S
C1602 C1605 1.403 . S
C1603 C1600 1.403 . S
C1603 C1604 1.524 . S
C1603 C1607 1.400 . S
C1604 H1589 0.960 . S
C1604 H1590 0.960 . S
C1604 H1591 0.960 . S
C1604 C1603 1.524 . S
C1605 C1602 1.403 . S
C1605 C1606 1.392 . S
C1605 C1609 1.495 . S
C1606 C1605 1.392 . S
C1606 C1607 1.385 . S
C1606 C1608 1.478 . S
C1607 H1601 0.930 . S
C1607 C1603 1.400 . S
C1607 C1606 1.385 . S
C1608 C1606 1.478 . S
C1608 C1610 1.381 . S
C1608 C1614 1.383 . S
C1609 C1605 1.495 . S
C1609 H1615 0.959 . S
C1609 H1616 0.961 . S
C1609 H1617 0.960 . S
C1610 C1608 1.381 . S
C1610 C1611 1.394 . S
C1610 H1618 0.930 . S
C1611 C1610 1.394 . S
C1611 C1612 1.383 . S
C1611 H1619 0.929 . S
C1612 C1611 1.383 . S
C1612 C1613 1.377 . S
C1613 H1597 0.930 . S
C1613 C1612 1.377 . S
C1613 C1614 1.379 . S
C1614 H1598 0.931 . S
C1614 C1608 1.383 . S
C1614 C1613 1.379 . S
H1615 C1609 0.959 . S
H1616 C1609 0.961 . S
H1617 C1609 0.960 . S
H1618 C1610 0.930 . S
H1619 C1611 0.929 . S
H1620 C1628 0.929 . S
H1621 C1630 0.930 . S
H1622 C1632 0.930 . S
H1623 C1635 0.929 . S
H1624 C1638 0.930 1_554 S
H1625 C1640 0.960 . S
H1626 C1640 0.960 1_554 S
H1627 C1640 0.960 . S
C1628 H1620 0.929 . S
C1628 C1629 1.377 . S
C1628 C1630 1.384 . S
C1629 C1628 1.377 . S
C1629 C1635 1.390 . S
C1630 H1621 0.930 . S
C1630 C1628 1.384 . S
C1630 C1631 1.372 . S
C1631 C1630 1.372 . S
C1631 C1632 1.400 . S
C1631 C1636 1.490 1_554 S
C1632 H1622 0.930 . S
C1632 C1631 1.400 . S
C1632 C1635 1.386 . S
H1633 C1649 0.930 . S
H1634 C1650 0.931 . S
C1635 H1623 0.929 . S
C1635 C1629 1.390 . S
C1635 C1632 1.386 . S
C1636 C1631 1.490 1_556 S
C1636 C1638 1.395 . S
C1636 C1639 1.403 . S
H1637 C1643 0.930 . S
C1638 H1624 0.930 1_556 S
C1638 C1636 1.395 . S
C1638 C1641 1.403 . S
C1639 C1636 1.403 . S
C1639 C1640 1.524 . S
C1639 C1643 1.400 . S
C1640 H1625 0.960 . S
C1640 H1626 0.960 1_556 S
C1640 H1627 0.960 . S
C1640 C1639 1.524 . S
C1641 C1638 1.403 . S
C1641 C1642 1.392 . S
C1641 C1645 1.495 . S
C1642 C1641 1.392 . S
C1642 C1643 1.385 . S
C1642 C1644 1.478 . S
C1643 H1637 0.930 . S
C1643 C1639 1.400 . S
C1643 C1642 1.385 . S
C1644 C1642 1.478 . S
C1644 C1646 1.381 . S
C1644 C1650 1.383 . S
C1645 C1641 1.495 . S
C1645 H1651 0.959 . S
C1645 H1652 0.961 . S
C1645 H1653 0.960 . S
C1646 C1644 1.381 . S
C1646 C1647 1.394 . S
C1646 H1654 0.930 . S
C1647 C1646 1.394 . S
C1647 C1648 1.383 . S
C1647 H1655 0.929 . S
C1648 C1647 1.383 . S
C1648 C1649 1.377 . S
C1649 H1633 0.930 . S
C1649 C1648 1.377 . S
C1649 C1650 1.379 . S
C1650 H1634 0.931 . S
C1650 C1644 1.383 . S
C1650 C1649 1.379 . S
H1651 C1645 0.959 . S
H1652 C1645 0.961 . S
H1653 C1645 0.960 . S
H1654 C1646 0.930 . S
H1655 C1647 0.929 . S
H1656 C1664 0.929 . S
H1657 C1666 0.930 . S
H1658 C1668 0.930 . S
H1659 C1671 0.929 . S
H1660 C1674 0.930 . S
H1661 C1676 0.960 . S
H1662 C1676 0.960 . S
H1663 C1676 0.960 . S
C1664 H1656 0.929 . S
C1664 C1665 1.377 . S
C1664 C1666 1.384 . S
C1665 C1664 1.377 . S
C1665 C1671 1.390 . S
C1666 H1657 0.930 . S
C1666 C1664 1.384 . S
C1666 C1667 1.372 . S
C1667 C1666 1.372 . S
C1667 C1668 1.400 . S
C1667 C1672 1.490 . S
C1668 H1658 0.930 . S
C1668 C1667 1.400 . S
C1668 C1671 1.386 . S
H1669 C1685 0.930 . S
H1670 C1686 0.931 . S
C1671 H1659 0.929 . S
C1671 C1665 1.390 . S
C1671 C1668 1.386 . S
C1672 C1667 1.490 . S
C1672 C1674 1.395 . S
C1672 C1675 1.403 . S
H1673 C1679 0.930 . S
C1674 H1660 0.930 . S
C1674 C1672 1.395 . S
C1674 C1677 1.403 . S
C1675 C1672 1.403 . S
C1675 C1676 1.524 . S
C1675 C1679 1.400 . S
C1676 H1661 0.960 . S
C1676 H1662 0.960 . S
C1676 H1663 0.960 . S
C1676 C1675 1.524 . S
C1677 C1674 1.403 . S
C1677 C1678 1.392 . S
C1677 C1681 1.495 . S
C1678 C1677 1.392 . S
C1678 C1679 1.385 . S
C1678 C1680 1.478 . S
C1679 H1673 0.930 . S
C1679 C1675 1.400 . S
C1679 C1678 1.385 . S
C1680 C1678 1.478 . S
C1680 C1682 1.381 . S
C1680 C1686 1.383 . S
C1681 C1677 1.495 . S
C1681 H1687 0.959 . S
C1681 H1688 0.961 . S
C1681 H1689 0.960 . S
C1682 C1680 1.381 . S
C1682 C1683 1.394 . S
C1682 H1690 0.930 . S
C1683 C1682 1.394 . S
C1683 C1684 1.383 . S
C1683 H1691 0.929 . S
C1684 C1683 1.383 . S
C1684 C1685 1.377 . S
C1685 H1669 0.930 . S
C1685 C1684 1.377 . S
C1685 C1686 1.379 . S
C1686 H1670 0.931 . S
C1686 C1680 1.383 . S
C1686 C1685 1.379 . S
H1687 C1681 0.959 . S
H1688 C1681 0.961 . S
H1689 C1681 0.960 . S
H1690 C1682 0.930 . S
H1691 C1683 0.929 . S
H1692 C1700 0.929 . S
H1693 C1702 0.930 . S
H1694 C1704 0.930 . S
H1695 C1707 0.929 . S
H1696 C1710 0.930 . S
H1697 C1712 0.960 . S
H1698 C1712 0.960 . S
H1699 C1712 0.960 . S
C1700 H1692 0.929 . S
C1700 C1701 1.377 . S
C1700 C1702 1.384 . S
C1701 C1700 1.377 . S
C1701 C1707 1.390 . S
C1702 H1693 0.930 . S
C1702 C1700 1.384 . S
C1702 C1703 1.372 . S
C1703 C1702 1.372 . S
C1703 C1704 1.400 . S
C1703 C1708 1.490 . S
C1704 H1694 0.930 . S
C1704 C1703 1.400 . S
C1704 C1707 1.386 . S
H1705 C1721 0.930 . S
H1706 C1722 0.931 . S
C1707 H1695 0.929 . S
C1707 C1701 1.390 . S
C1707 C1704 1.386 . S
C1708 C1703 1.490 . S
C1708 C1710 1.395 . S
C1708 C1711 1.403 . S
H1709 C1715 0.930 . S
C1710 H1696 0.930 . S
C1710 C1708 1.395 . S
C1710 C1713 1.403 . S
C1711 C1708 1.403 . S
C1711 C1712 1.524 . S
C1711 C1715 1.400 . S
C1712 H1697 0.960 . S
C1712 H1698 0.960 . S
C1712 H1699 0.960 . S
C1712 C1711 1.524 . S
C1713 C1710 1.403 . S
C1713 C1714 1.392 . S
C1713 C1717 1.495 . S
C1714 C1713 1.392 . S
C1714 C1715 1.385 . S
C1714 C1716 1.478 . S
C1715 H1709 0.930 . S
C1715 C1711 1.400 . S
C1715 C1714 1.385 . S
C1716 C1714 1.478 . S
C1716 C1718 1.381 . S
C1716 C1722 1.383 . S
C1717 C1713 1.495 . S
C1717 H1723 0.959 . S
C1717 H1724 0.961 . S
C1717 H1725 0.960 . S
C1718 C1716 1.381 . S
C1718 C1719 1.394 . S
C1718 H1726 0.930 . S
C1719 C1718 1.394 . S
C1719 C1720 1.383 . S
C1719 H1727 0.929 . S
C1720 C1719 1.383 . S
C1720 C1721 1.377 . S
C1721 H1705 0.930 . S
C1721 C1720 1.377 . S
C1721 C1722 1.379 . S
C1722 H1706 0.931 . S
C1722 C1716 1.383 . S
C1722 C1721 1.379 . S
H1723 C1717 0.959 . S
H1724 C1717 0.961 . S
H1725 C1717 0.960 . S
H1726 C1718 0.930 . S
H1727 C1719 0.929 . S
H1728 C1736 0.929 . S
H1729 C1738 0.930 . S
H1730 C1740 0.930 . S
H1731 C1743 0.929 . S
H1732 C1746 0.930 . S
H1733 C1748 0.960 . S
H1734 C1748 0.960 . S
H1735 C1748 0.960 . S
C1736 H1728 0.929 . S
C1736 C1737 1.377 . S
C1736 C1738 1.384 . S
C1737 C1736 1.377 . S
C1737 C1743 1.390 . S
C1738 H1729 0.930 . S
C1738 C1736 1.384 . S
C1738 C1739 1.372 . S
C1739 C1738 1.372 . S
C1739 C1740 1.400 . S
C1739 C1744 1.490 . S
C1740 H1730 0.930 . S
C1740 C1739 1.400 . S
C1740 C1743 1.386 . S
H1741 C1757 0.930 . S
H1742 C1758 0.931 . S
C1743 H1731 0.929 . S
C1743 C1737 1.390 . S
C1743 C1740 1.386 . S
C1744 C1739 1.490 . S
C1744 C1746 1.395 . S
C1744 C1747 1.403 . S
H1745 C1751 0.930 . S
C1746 H1732 0.930 . S
C1746 C1744 1.395 . S
C1746 C1749 1.403 . S
C1747 C1744 1.403 . S
C1747 C1748 1.524 . S
C1747 C1751 1.400 . S
C1748 H1733 0.960 . S
C1748 H1734 0.960 . S
C1748 H1735 0.960 . S
C1748 C1747 1.524 . S
C1749 C1746 1.403 . S
C1749 C1750 1.392 . S
C1749 C1753 1.495 . S
C1750 C1749 1.392 . S
C1750 C1751 1.385 . S
C1750 C1752 1.478 . S
C1751 H1745 0.930 . S
C1751 C1747 1.400 . S
C1751 C1750 1.385 . S
C1752 C1750 1.478 . S
C1752 C1754 1.381 . S
C1752 C1758 1.383 . S
C1753 C1749 1.495 . S
C1753 H1759 0.959 . S
C1753 H1760 0.961 . S
C1753 H1761 0.960 . S
C1754 C1752 1.381 . S
C1754 C1755 1.394 . S
C1754 H1762 0.930 . S
C1755 C1754 1.394 . S
C1755 C1756 1.383 . S
C1755 H1763 0.929 . S
C1756 C1755 1.383 . S
C1756 C1757 1.377 . S
C1757 H1741 0.930 . S
C1757 C1756 1.377 . S
C1757 C1758 1.379 . S
C1758 H1742 0.931 . S
C1758 C1752 1.383 . S
C1758 C1757 1.379 . S
H1759 C1753 0.959 . S
H1760 C1753 0.961 . S
H1761 C1753 0.960 . S
H1762 C1754 0.930 . S
H1763 C1755 0.929 . S
H1764 C1772 0.929 . S
H1765 C1774 0.930 . S
H1766 C1776 0.930 . S
H1767 C1779 0.929 . S
H1768 C1782 0.930 . S
H1769 C1784 0.960 . S
H1770 C1784 0.960 . S
H1771 C1784 0.960 . S
C1772 H1764 0.929 . S
C1772 C1773 1.377 . S
C1772 C1774 1.384 . S
C1773 C1772 1.377 . S
C1773 C1779 1.390 . S
C1774 H1765 0.930 . S
C1774 C1772 1.384 . S
C1774 C1775 1.372 . S
C1775 C1774 1.372 . S
C1775 C1776 1.400 . S
C1775 C1780 1.490 . S
C1776 H1766 0.930 . S
C1776 C1775 1.400 . S
C1776 C1779 1.386 . S
H1777 C1793 0.930 . S
H1778 C1794 0.931 . S
C1779 H1767 0.929 . S
C1779 C1773 1.390 . S
C1779 C1776 1.386 . S
C1780 C1775 1.490 . S
C1780 C1782 1.395 . S
C1780 C1783 1.403 . S
H1781 C1787 0.928 . S
C1782 H1768 0.930 . S
C1782 C1780 1.395 . S
C1782 C1785 1.403 . S
C1783 C1780 1.403 . S
C1783 C1784 1.524 . S
C1783 C1787 1.400 . S
C1784 H1769 0.960 . S
C1784 H1770 0.960 . S
C1784 H1771 0.960 . S
C1784 C1783 1.524 . S
C1785 C1782 1.403 . S
C1785 C1786 1.394 1_545 S
C1785 C1789 1.495 . S
C1786 C1785 1.394 1_565 S
C1786 C1787 1.386 1_565 S
C1786 C1788 1.475 . S
C1787 H1781 0.928 . S
C1787 C1783 1.400 . S
C1787 C1786 1.386 1_545 S
C1788 C1786 1.475 . S
C1788 C1790 1.381 . S
C1788 C1794 1.383 . S
C1789 C1785 1.495 . S
C1789 H1795 0.959 . S
C1789 H1796 0.961 . S
C1789 H1797 0.960 1_545 S
C1790 C1788 1.381 . S
C1790 C1791 1.394 . S
C1790 H1798 0.930 . S
C1791 C1790 1.394 . S
C1791 C1792 1.383 . S
C1791 H1799 0.929 . S
C1792 C1791 1.383 . S
C1792 C1793 1.377 . S
C1793 H1777 0.930 . S
C1793 C1792 1.377 . S
C1793 C1794 1.379 . S
C1794 H1778 0.931 . S
C1794 C1788 1.383 . S
C1794 C1793 1.379 . S
H1795 C1789 0.959 . S
H1796 C1789 0.961 . S
H1797 C1789 0.960 1_565 S
H1798 C1790 0.930 . S
H1799 C1791 0.929 . S
H1800 C1808 0.929 . S
H1801 C1810 0.930 . S
H1802 C1812 0.930 . S
H1803 C1815 0.929 . S
H1804 C1818 0.930 . S
H1805 C1820 0.960 . S
H1806 C1820 0.960 . S
H1807 C1820 0.960 . S
C1808 H1800 0.929 . S
C1808 C1809 1.377 . S
C1808 C1810 1.384 . S
C1809 C1808 1.377 . S
C1809 C1815 1.390 . S
C1810 H1801 0.930 . S
C1810 C1808 1.384 . S
C1810 C1811 1.372 . S
C1811 C1810 1.372 . S
C1811 C1812 1.400 . S
C1811 C1816 1.490 . S
C1812 H1802 0.930 . S
C1812 C1811 1.400 . S
C1812 C1815 1.386 . S
H1813 C1829 0.930 . S
H1814 C1830 0.931 . S
C1815 H1803 0.929 . S
C1815 C1809 1.390 . S
C1815 C1812 1.386 . S
C1816 C1811 1.490 . S
C1816 C1818 1.395 . S
C1816 C1819 1.403 . S
H1817 C1823 0.930 . S
C1818 H1804 0.930 . S
C1818 C1816 1.395 . S
C1818 C1821 1.403 . S
C1819 C1816 1.403 . S
C1819 C1820 1.524 . S
C1819 C1823 1.400 . S
C1820 H1805 0.960 . S
C1820 H1806 0.960 . S
C1820 H1807 0.960 . S
C1820 C1819 1.524 . S
C1821 C1818 1.403 . S
C1821 C1822 1.392 . S
C1821 C1825 1.495 . S
C1822 C1821 1.392 . S
C1822 C1823 1.385 . S
C1822 C1824 1.478 . S
C1823 H1817 0.930 . S
C1823 C1819 1.400 . S
C1823 C1822 1.385 . S
C1824 C1822 1.478 . S
C1824 C1826 1.381 . S
C1824 C1830 1.383 . S
C1825 C1821 1.495 . S
C1825 H1831 0.959 . S
C1825 H1832 0.961 . S
C1825 H1833 0.960 . S
C1826 C1824 1.381 . S
C1826 C1827 1.394 . S
C1826 H1834 0.930 . S
C1827 C1826 1.394 . S
C1827 C1828 1.383 . S
C1827 H1835 0.929 . S
C1828 C1827 1.383 . S
C1828 C1829 1.377 . S
C1829 H1813 0.930 . S
C1829 C1828 1.377 . S
C1829 C1830 1.379 . S
C1830 H1814 0.931 . S
C1830 C1824 1.383 . S
C1830 C1829 1.379 . S
H1831 C1825 0.959 . S
H1832 C1825 0.961 . S
H1833 C1825 0.960 . S
H1834 C1826 0.930 . S
H1835 C1827 0.929 . S
H1836 C1844 0.929 . S
H1837 C1846 0.930 . S
H1838 C1848 0.930 . S
H1839 C1851 0.929 . S
H1840 C1854 0.930 . S
H1841 C1856 0.960 . S
H1842 C1856 0.960 . S
H1843 C1856 0.960 1_545 S
C1844 H1836 0.929 . S
C1844 C1845 1.377 . S
C1844 C1846 1.384 . S
C1845 C1844 1.377 . S
C1845 C1851 1.390 . S
C1846 H1837 0.930 . S
C1846 C1844 1.384 . S
C1846 C1847 1.372 . S
C1847 C1846 1.372 . S
C1847 C1848 1.400 . S
C1847 C1852 1.490 1_545 S
C1848 H1838 0.930 . S
C1848 C1847 1.400 . S
C1848 C1851 1.386 . S
H1849 C1865 0.930 . S
H1850 C1866 0.931 . S
C1851 H1839 0.929 . S
C1851 C1845 1.390 . S
C1851 C1848 1.386 . S
C1852 C1847 1.490 1_565 S
C1852 C1854 1.395 . S
C1852 C1855 1.403 . S
H1853 C1859 0.930 . S
C1854 H1840 0.930 . S
C1854 C1852 1.395 . S
C1854 C1857 1.403 . S
C1855 C1852 1.403 . S
C1855 C1856 1.524 . S
C1855 C1859 1.400 . S
C1856 H1841 0.960 . S
C1856 H1842 0.960 . S
C1856 H1843 0.960 1_565 S
C1856 C1855 1.524 . S
C1857 C1854 1.403 . S
C1857 C1858 1.392 . S
C1857 C1861 1.495 . S
C1858 C1857 1.392 . S
C1858 C1859 1.385 . S
C1858 C1860 1.478 . S
C1859 H1853 0.930 . S
C1859 C1855 1.400 . S
C1859 C1858 1.385 . S
C1860 C1858 1.478 . S
C1860 C1862 1.381 . S
C1860 C1866 1.383 . S
C1861 C1857 1.495 . S
C1861 H1867 0.959 . S
C1861 H1868 0.961 . S
C1861 H1869 0.960 . S
C1862 C1860 1.381 . S
C1862 C1863 1.394 . S
C1862 H1870 0.930 . S
C1863 C1862 1.394 . S
C1863 C1864 1.383 . S
C1863 H1871 0.929 . S
C1864 C1863 1.383 . S
C1864 C1865 1.377 . S
C1865 H1849 0.930 . S
C1865 C1864 1.377 . S
C1865 C1866 1.379 . S
C1866 H1850 0.931 . S
C1866 C1860 1.383 . S
C1866 C1865 1.379 . S
H1867 C1861 0.959 . S
H1868 C1861 0.961 . S
H1869 C1861 0.960 . S
H1870 C1862 0.930 . S
H1871 C1863 0.929 . S
H1872 C1880 0.929 . S
H1873 C1882 0.930 . S
H1874 C1884 0.930 . S
H1875 C1887 0.929 . S
H1876 C1890 0.930 . S
H1877 C1892 0.960 . S
H1878 C1892 0.960 . S
H1879 C1892 0.960 . S
C1880 H1872 0.929 . S
C1880 C1881 1.377 . S
C1880 C1882 1.384 . S
C1881 C1880 1.377 . S
C1881 C1887 1.390 . S
C1882 H1873 0.930 . S
C1882 C1880 1.384 . S
C1882 C1883 1.372 . S
C1883 C1882 1.372 . S
C1883 C1884 1.400 . S
C1883 C1888 1.490 . S
C1884 H1874 0.930 . S
C1884 C1883 1.400 . S
C1884 C1887 1.386 . S
H1885 C1901 0.930 . S
H1886 C1902 0.931 . S
C1887 H1875 0.929 . S
C1887 C1881 1.390 . S
C1887 C1884 1.386 . S
C1888 C1883 1.490 . S
C1888 C1890 1.395 . S
C1888 C1891 1.403 . S
H1889 C1895 0.930 . S
C1890 H1876 0.930 . S
C1890 C1888 1.395 . S
C1890 C1893 1.403 . S
C1891 C1888 1.403 . S
C1891 C1892 1.524 . S
C1891 C1895 1.400 . S
C1892 H1877 0.960 . S
C1892 H1878 0.960 . S
C1892 H1879 0.960 . S
C1892 C1891 1.524 . S
C1893 C1890 1.403 . S
C1893 C1894 1.392 . S
C1893 C1897 1.495 . S
C1894 C1893 1.392 . S
C1894 C1895 1.385 . S
C1894 C1896 1.478 . S
C1895 H1889 0.930 . S
C1895 C1891 1.400 . S
C1895 C1894 1.385 . S
C1896 C1894 1.478 . S
C1896 C1898 1.381 . S
C1896 C1902 1.383 . S
C1897 C1893 1.495 . S
C1897 H1903 0.959 . S
C1897 H1904 0.961 . S
C1897 H1905 0.960 . S
C1898 C1896 1.381 . S
C1898 C1899 1.394 . S
C1898 H1906 0.930 . S
C1899 C1898 1.394 . S
C1899 C1900 1.383 . S
C1899 H1907 0.929 . S
C1900 C1899 1.383 . S
C1900 C1901 1.377 . S
C1901 H1885 0.930 . S
C1901 C1900 1.377 . S
C1901 C1902 1.379 . S
C1902 H1886 0.931 . S
C1902 C1896 1.383 . S
C1902 C1901 1.379 . S
H1903 C1897 0.959 . S
H1904 C1897 0.961 . S
H1905 C1897 0.960 . S
H1906 C1898 0.930 . S
H1907 C1899 0.929 . S
H1908 C1916 0.900 1_455 S
H1909 C1918 0.930 . S
H1910 C1920 0.930 . S
H1911 C1923 0.929 . S
H1912 C1926 0.930 . S
H1913 C1928 0.960 . S
H1914 C1928 0.960 . S
H1915 C1928 0.960 . S
C1916 H1908 0.900 1_655 S
C1916 C1917 1.377 . S
C1916 C1918 1.384 . S
C1917 C1916 1.377 . S
C1917 C1923 1.390 . S
C1918 H1909 0.930 . S
C1918 C1916 1.384 . S
C1918 C1919 1.372 . S
C1919 C1918 1.372 . S
C1919 C1920 1.400 . S
C1919 C1924 1.490 . S
C1920 H1910 0.930 . S
C1920 C1919 1.400 . S
C1920 C1923 1.386 . S
H1921 C1937 0.930 . S
H1922 C1938 0.931 . S
C1923 H1911 0.929 . S
C1923 C1917 1.390 . S
C1923 C1920 1.386 . S
C1924 C1919 1.490 . S
C1924 C1926 1.395 . S
C1924 C1927 1.403 . S
H1925 C1931 0.930 . S
C1926 H1912 0.930 . S
C1926 C1924 1.395 . S
C1926 C1929 1.403 . S
C1927 C1924 1.403 . S
C1927 C1928 1.524 . S
C1927 C1931 1.400 . S
C1928 H1913 0.960 . S
C1928 H1914 0.960 . S
C1928 H1915 0.960 . S
C1928 C1927 1.524 . S
C1929 C1926 1.403 . S
C1929 C1930 1.392 . S
C1929 C1933 1.495 . S
C1930 C1929 1.392 . S
C1930 C1931 1.385 . S
C1930 C1932 1.478 . S
C1931 H1925 0.930 . S
C1931 C1927 1.400 . S
C1931 C1930 1.385 . S
C1932 C1930 1.478 . S
C1932 C1934 1.381 . S
C1932 C1938 1.383 . S
C1933 C1929 1.495 . S
C1933 H1939 0.959 . S
C1933 H1940 0.961 . S
C1933 H1941 0.960 . S
C1934 C1932 1.381 . S
C1934 C1935 1.394 . S
C1934 H1942 0.930 . S
C1935 C1934 1.394 . S
C1935 C1936 1.383 . S
C1935 H1943 0.929 . S
C1936 C1935 1.383 . S
C1936 C1937 1.377 . S
C1937 H1921 0.930 . S
C1937 C1936 1.377 . S
C1937 C1938 1.379 . S
C1938 H1922 0.931 . S
C1938 C1932 1.383 . S
C1938 C1937 1.379 . S
H1939 C1933 0.959 . S
H1940 C1933 0.961 . S
H1941 C1933 0.960 . S
H1942 C1934 0.930 . S
H1943 C1935 0.929 . S
H1944 C1952 0.929 . S
H1945 C1954 0.930 . S
H1946 C1956 0.930 . S
H1947 C1959 0.929 . S
H1948 C1962 0.930 . S
H1949 C1964 0.960 . S
H1950 C1964 0.960 . S
H1951 C1964 0.960 . S
C1952 H1944 0.929 . S
C1952 C1953 1.377 . S
C1952 C1954 1.384 . S
C1953 C1952 1.377 . S
C1953 C1959 1.390 . S
C1954 H1945 0.930 . S
C1954 C1952 1.384 . S
C1954 C1955 1.372 . S
C1955 C1954 1.372 . S
C1955 C1956 1.400 . S
C1955 C1960 1.490 . S
C1956 H1946 0.930 . S
C1956 C1955 1.400 . S
C1956 C1959 1.386 . S
H1957 C1973 0.930 . S
H1958 C1974 0.931 . S
C1959 H1947 0.929 . S
C1959 C1953 1.390 . S
C1959 C1956 1.386 . S
C1960 C1955 1.490 . S
C1960 C1962 1.395 . S
C1960 C1963 1.403 . S
H1961 C1967 0.930 . S
C1962 H1948 0.930 . S
C1962 C1960 1.395 . S
C1962 C1965 1.403 . S
C1963 C1960 1.403 . S
C1963 C1964 1.524 . S
C1963 C1967 1.400 . S
C1964 H1949 0.960 . S
C1964 H1950 0.960 . S
C1964 H1951 0.960 . S
C1964 C1963 1.524 . S
C1965 C1962 1.403 . S
C1965 C1966 1.392 . S
C1965 C1969 1.495 . S
C1966 C1965 1.392 . S
C1966 C1967 1.385 . S
C1966 C1968 1.478 . S
C1967 H1961 0.930 . S
C1967 C1963 1.400 . S
C1967 C1966 1.385 . S
C1968 C1966 1.478 . S
C1968 C1970 1.381 . S
C1968 C1974 1.383 . S
C1969 C1965 1.495 . S
C1969 H1975 0.959 . S
C1969 H1976 0.961 . S
C1969 H1977 0.960 . S
C1970 C1968 1.381 . S
C1970 C1971 1.394 . S
C1970 H1978 0.930 . S
C1971 C1970 1.394 . S
C1971 C1972 1.383 . S
C1971 H1979 0.929 . S
C1972 C1971 1.383 . S
C1972 C1973 1.377 . S
C1973 H1957 0.930 . S
C1973 C1972 1.377 . S
C1973 C1974 1.379 . S
C1974 H1958 0.931 . S
C1974 C1968 1.383 . S
C1974 C1973 1.379 . S
H1975 C1969 0.959 . S
H1976 C1969 0.961 . S
H1977 C1969 0.960 . S
H1978 C1970 0.930 . S
H1979 C1971 0.929 . S
H1980 C1988 0.929 . S
H1981 C1990 0.930 . S
H1982 C1992 0.930 . S
H1983 C1995 0.929 . S
H1984 C1998 0.930 . S
H1985 C2000 0.960 . S
H1986 C2000 0.960 . S
H1987 C2000 0.960 . S
C1988 H1980 0.929 . S
C1988 C1989 1.377 . S
C1988 C1990 1.384 . S
C1989 C1988 1.377 . S
C1989 C1995 1.390 . S
C1990 H1981 0.930 . S
C1990 C1988 1.384 . S
C1990 C1991 1.372 . S
C1991 C1990 1.372 . S
C1991 C1992 1.400 . S
C1991 C1996 1.490 . S
C1992 H1982 0.930 . S
C1992 C1991 1.400 . S
C1992 C1995 1.386 . S
H1993 C2009 0.930 . S
H1994 C2010 0.931 . S
C1995 H1983 0.929 . S
C1995 C1989 1.390 . S
C1995 C1992 1.386 . S
C1996 C1991 1.490 . S
C1996 C1998 1.395 . S
C1996 C1999 1.403 . S
H1997 C2003 0.930 . S
C1998 H1984 0.930 . S
C1998 C1996 1.395 . S
C1998 C2001 1.403 . S
C1999 C1996 1.403 . S
C1999 C2000 1.524 . S
C1999 C2003 1.400 . S
C2000 H1985 0.960 . S
C2000 H1986 0.960 . S
C2000 H1987 0.960 . S
C2000 C1999 1.524 . S
C2001 C1998 1.403 . S
C2001 C2002 1.392 . S
C2001 C2005 1.495 . S
C2002 C2001 1.392 . S
C2002 C2003 1.385 . S
C2002 C2004 1.478 . S
C2003 H1997 0.930 . S
C2003 C1999 1.400 . S
C2003 C2002 1.385 . S
C2004 C2002 1.478 . S
C2004 C2006 1.381 . S
C2004 C2010 1.383 . S
C2005 C2001 1.495 . S
C2005 H2011 0.959 . S
C2005 H2012 0.961 . S
C2005 H2013 0.960 . S
C2006 C2004 1.381 . S
C2006 C2007 1.394 . S
C2006 H2014 0.930 . S
C2007 C2006 1.394 . S
C2007 C2008 1.383 . S
C2007 H2015 0.929 . S
C2008 C2007 1.383 . S
C2008 C2009 1.377 . S
C2009 H1993 0.930 . S
C2009 C2008 1.377 . S
C2009 C2010 1.379 . S
C2010 H1994 0.931 . S
C2010 C2004 1.383 . S
C2010 C2009 1.379 . S
H2011 C2005 0.959 . S
H2012 C2005 0.961 . S
H2013 C2005 0.960 . S
H2014 C2006 0.930 . S
H2015 C2007 0.929 . S
H2016 C2024 0.929 . S
H2017 C2026 0.930 . S
H2018 C2028 0.930 . S
H2019 C2031 0.929 . S
H2020 C2034 0.930 . S
H2021 C2036 0.960 . S
H2022 C2036 0.960 . S
H2023 C2036 0.960 . S
C2024 H2016 0.929 . S
C2024 C2025 1.377 . S
C2024 C2026 1.384 . S
C2025 C2024 1.377 . S
C2025 C2031 1.390 . S
C2026 H2017 0.930 . S
C2026 C2024 1.384 . S
C2026 C2027 1.372 . S
C2027 C2026 1.372 . S
C2027 C2028 1.400 . S
C2027 C2032 1.490 . S
C2028 H2018 0.930 . S
C2028 C2027 1.400 . S
C2028 C2031 1.386 . S
H2029 C2045 0.930 . S
H2030 C2046 0.931 . S
C2031 H2019 0.929 . S
C2031 C2025 1.390 . S
C2031 C2028 1.386 . S
C2032 C2027 1.490 . S
C2032 C2034 1.395 . S
C2032 C2035 1.403 . S
H2033 C2039 0.930 . S
C2034 H2020 0.930 . S
C2034 C2032 1.395 . S
C2034 C2037 1.403 . S
C2035 C2032 1.403 . S
C2035 C2036 1.524 . S
C2035 C2039 1.400 . S
C2036 H2021 0.960 . S
C2036 H2022 0.960 . S
C2036 H2023 0.960 . S
C2036 C2035 1.524 . S
C2037 C2034 1.403 . S
C2037 C2038 1.392 . S
C2037 C2041 1.495 . S
C2038 C2037 1.392 . S
C2038 C2039 1.385 . S
C2038 C2040 1.478 . S
C2039 H2033 0.930 . S
C2039 C2035 1.400 . S
C2039 C2038 1.385 . S
C2040 C2038 1.478 . S
C2040 C2042 1.381 . S
C2040 C2046 1.383 . S
C2041 C2037 1.495 . S
C2041 H2047 0.959 . S
C2041 H2048 0.961 . S
C2041 H2049 0.960 . S
C2042 C2040 1.381 . S
C2042 C2043 1.394 . S
C2042 H2050 0.930 . S
C2043 C2042 1.394 . S
C2043 C2044 1.383 . S
C2043 H2051 0.929 . S
C2044 C2043 1.383 . S
C2044 C2045 1.377 . S
C2045 H2029 0.930 . S
C2045 C2044 1.377 . S
C2045 C2046 1.379 . S
C2046 H2030 0.931 . S
C2046 C2040 1.383 . S
C2046 C2045 1.379 . S
H2047 C2041 0.959 . S
H2048 C2041 0.961 . S
H2049 C2041 0.960 . S
H2050 C2042 0.930 . S
H2051 C2043 0.929 . S
H2052 C2060 0.929 . S
H2053 C2062 0.930 . S
H2054 C2064 0.930 . S
H2055 C2067 0.929 . S
H2056 C2070 0.930 . S
H2057 C2072 0.960 . S
H2058 C2072 0.960 . S
H2059 C2072 0.960 . S
C2060 H2052 0.929 . S
C2060 C2061 1.377 . S
C2060 C2062 1.384 . S
C2061 C2060 1.377 . S
C2061 C2067 1.390 . S
C2062 H2053 0.930 . S
C2062 C2060 1.384 . S
C2062 C2063 1.372 . S
C2063 C2062 1.372 . S
C2063 C2064 1.400 . S
C2063 C2068 1.490 . S
C2064 H2054 0.930 . S
C2064 C2063 1.400 . S
C2064 C2067 1.386 . S
H2065 C2081 0.930 . S
H2066 C2082 0.931 . S
C2067 H2055 0.929 . S
C2067 C2061 1.390 . S
C2067 C2064 1.386 . S
C2068 C2063 1.490 . S
C2068 C2070 1.395 . S
C2068 C2071 1.403 . S
H2069 C2075 0.930 . S
C2070 H2056 0.930 . S
C2070 C2068 1.395 . S
C2070 C2073 1.403 . S
C2071 C2068 1.403 . S
C2071 C2072 1.524 . S
C2071 C2075 1.400 . S
C2072 H2057 0.960 . S
C2072 H2058 0.960 . S
C2072 H2059 0.960 . S
C2072 C2071 1.524 . S
C2073 C2070 1.403 . S
C2073 C2074 1.392 . S
C2073 C2077 1.495 . S
C2074 C2073 1.392 . S
C2074 C2075 1.385 . S
C2074 C2076 1.478 . S
C2075 H2069 0.930 . S
C2075 C2071 1.400 . S
C2075 C2074 1.385 . S
C2076 C2074 1.478 . S
C2076 C2078 1.381 . S
C2076 C2082 1.383 . S
C2077 C2073 1.495 . S
C2077 H2083 0.959 . S
C2077 H2084 0.961 . S
C2077 H2085 0.960 . S
C2078 C2076 1.381 . S
C2078 C2079 1.394 . S
C2078 H2086 0.930 . S
C2079 C2078 1.394 . S
C2079 C2080 1.383 . S
C2079 H2087 0.929 . S
C2080 C2079 1.383 . S
C2080 C2081 1.377 . S
C2081 H2065 0.930 . S
C2081 C2080 1.377 . S
C2081 C2082 1.379 . S
C2082 H2066 0.931 . S
C2082 C2076 1.383 . S
C2082 C2081 1.379 . S
H2083 C2077 0.959 . S
H2084 C2077 0.961 . S
H2085 C2077 0.960 . S
H2086 C2078 0.930 . S
H2087 C2079 0.929 . S
H2088 C2096 0.929 . S
H2089 C2098 0.930 . S
H2090 C2100 0.930 . S
H2091 C2103 0.929 . S
H2092 C2106 0.930 . S
H2093 C2108 0.960 . S
H2094 C2108 0.960 . S
H2095 C2108 0.960 . S
C2096 H2088 0.929 . S
C2096 C2097 1.377 . S
C2096 C2098 1.384 . S
C2097 C2096 1.377 . S
C2097 C2103 1.390 . S
C2098 H2089 0.930 . S
C2098 C2096 1.384 . S
C2098 C2099 1.372 . S
C2099 C2098 1.372 . S
C2099 C2100 1.400 . S
C2099 C2104 1.490 . S
C2100 H2090 0.930 . S
C2100 C2099 1.400 . S
C2100 C2103 1.386 . S
H2101 C2117 0.930 . S
H2102 C2118 0.931 . S
C2103 H2091 0.929 . S
C2103 C2097 1.390 . S
C2103 C2100 1.386 . S
C2104 C2099 1.490 . S
C2104 C2106 1.395 . S
C2104 C2107 1.403 . S
H2105 C2111 0.930 1_655 S
C2106 H2092 0.930 . S
C2106 C2104 1.395 . S
C2106 C2109 1.403 . S
C2107 C2104 1.403 . S
C2107 C2108 1.524 . S
C2107 C2111 1.400 . S
C2108 H2093 0.960 . S
C2108 H2094 0.960 . S
C2108 H2095 0.960 . S
C2108 C2107 1.524 . S
C2109 C2106 1.403 . S
C2109 C2110 1.392 . S
C2109 C2113 1.495 . S
C2110 C2109 1.392 . S
C2110 C2111 1.385 . S
C2110 C2112 1.478 1_455 S
C2111 H2105 0.930 1_455 S
C2111 C2107 1.400 . S
C2111 C2110 1.385 . S
C2112 C2110 1.478 1_655 S
C2112 C2114 1.381 . S
C2112 C2118 1.383 . S
C2113 C2109 1.495 . S
C2113 H2119 0.959 . S
C2113 H2120 0.961 . S
C2113 H2121 0.960 . S
C2114 C2112 1.381 . S
C2114 C2115 1.394 . S
C2114 H2122 0.930 . S
C2115 C2114 1.394 . S
C2115 C2116 1.383 . S
C2115 H2123 0.929 . S
C2116 C2115 1.383 . S
C2116 C2117 1.377 . S
C2117 H2101 0.930 . S
C2117 C2116 1.377 . S
C2117 C2118 1.379 . S
C2118 H2102 0.931 . S
C2118 C2112 1.383 . S
C2118 C2117 1.379 . S
H2119 C2113 0.959 . S
H2120 C2113 0.961 . S
H2121 C2113 0.960 . S
H2122 C2114 0.930 . S
H2123 C2115 0.929 . S
H2124 C2132 0.929 . S
H2125 C2134 0.930 . S
H2126 C2136 0.930 . S
H2127 C2139 0.929 . S
H2128 C2142 0.930 . S
H2129 C2144 0.960 . S
H2130 C2144 0.960 . S
H2131 C2144 0.960 . S
C2132 H2124 0.929 . S
C2132 C2133 1.377 . S
C2132 C2134 1.384 . S
C2133 C2132 1.377 . S
C2133 C2139 1.390 . S
C2134 H2125 0.930 . S
C2134 C2132 1.384 . S
C2134 C2135 1.372 . S
C2135 C2134 1.372 . S
C2135 C2136 1.400 . S
C2135 C2140 1.490 . S
C2136 H2126 0.930 . S
C2136 C2135 1.400 . S
C2136 C2139 1.386 . S
H2137 C2153 0.930 . S
H2138 C2154 0.931 . S
C2139 H2127 0.929 . S
C2139 C2133 1.390 . S
C2139 C2136 1.386 . S
C2140 C2135 1.490 . S
C2140 C2142 1.395 . S
C2140 C2143 1.403 . S
H2141 C2147 0.930 . S
C2142 H2128 0.930 . S
C2142 C2140 1.395 . S
C2142 C2145 1.403 . S
C2143 C2140 1.403 . S
C2143 C2144 1.524 . S
C2143 C2147 1.400 . S
C2144 H2129 0.960 . S
C2144 H2130 0.960 . S
C2144 H2131 0.960 . S
C2144 C2143 1.524 . S
C2145 C2142 1.403 . S
C2145 C2146 1.392 . S
C2145 C2149 1.495 . S
C2146 C2145 1.392 . S
C2146 C2147 1.385 . S
C2146 C2148 1.478 . S
C2147 H2141 0.930 . S
C2147 C2143 1.400 . S
C2147 C2146 1.385 . S
C2148 C2146 1.478 . S
C2148 C2150 1.381 . S
C2148 C2154 1.383 . S
C2149 C2145 1.495 . S
C2149 H2155 0.959 . S
C2149 H2156 0.961 . S
C2149 H2157 0.960 . S
C2150 C2148 1.381 . S
C2150 C2151 1.394 . S
C2150 H2158 0.930 . S
C2151 C2150 1.394 . S
C2151 C2152 1.383 . S
C2151 H2159 0.929 . S
C2152 C2151 1.383 . S
C2152 C2153 1.377 . S
C2153 H2137 0.930 . S
C2153 C2152 1.377 . S
C2153 C2154 1.379 . S
C2154 H2138 0.931 . S
C2154 C2148 1.383 . S
C2154 C2153 1.379 . S
H2155 C2149 0.959 . S
H2156 C2149 0.961 . S
H2157 C2149 0.960 . S
H2158 C2150 0.930 . S
H2159 C2151 0.929 . S
H2160 C2168 0.929 . S
H2161 C2170 0.930 . S
H2162 C2172 0.930 . S
H2163 C2175 0.929 . S
H2164 C2178 0.930 . S
H2165 C2180 0.960 . S
H2166 C2180 0.960 . S
H2167 C2180 0.960 . S
C2168 H2160 0.929 . S
C2168 C2169 1.377 . S
C2168 C2170 1.384 . S
C2169 C2168 1.377 . S
C2169 C2175 1.390 . S
C2170 H2161 0.930 . S
C2170 C2168 1.384 . S
C2170 C2171 1.372 . S
C2171 C2170 1.372 . S
C2171 C2172 1.400 . S
C2171 C2176 1.490 . S
C2172 H2162 0.930 . S
C2172 C2171 1.400 . S
C2172 C2175 1.386 . S
H2173 C2189 0.930 . S
H2174 C2190 0.931 . S
C2175 H2163 0.929 . S
C2175 C2169 1.390 . S
C2175 C2172 1.386 . S
C2176 C2171 1.490 . S
C2176 C2178 1.395 . S
C2176 C2179 1.403 . S
H2177 C2183 0.930 . S
C2178 H2164 0.930 . S
C2178 C2176 1.395 . S
C2178 C2181 1.403 . S
C2179 C2176 1.403 . S
C2179 C2180 1.524 . S
C2179 C2183 1.400 . S
C2180 H2165 0.960 . S
C2180 H2166 0.960 . S
C2180 H2167 0.960 . S
C2180 C2179 1.524 . S
C2181 C2178 1.403 . S
C2181 C2182 1.392 . S
C2181 C2185 1.495 . S
C2182 C2181 1.392 . S
C2182 C2183 1.385 . S
C2182 C2184 1.478 . S
C2183 H2177 0.930 . S
C2183 C2179 1.400 . S
C2183 C2182 1.385 . S
C2184 C2182 1.478 . S
C2184 C2186 1.381 . S
C2184 C2190 1.383 . S
C2185 C2181 1.495 . S
C2185 H2191 0.959 . S
C2185 H2192 0.961 . S
C2185 H2193 0.960 . S
C2186 C2184 1.381 . S
C2186 C2187 1.394 . S
C2186 H2194 0.930 . S
C2187 C2186 1.394 . S
C2187 C2188 1.383 . S
C2187 H2195 0.929 . S
C2188 C2187 1.383 . S
C2188 C2189 1.377 . S
C2189 H2173 0.930 . S
C2189 C2188 1.377 . S
C2189 C2190 1.379 . S
C2190 H2174 0.931 . S
C2190 C2184 1.383 . S
C2190 C2189 1.379 . S
H2191 C2185 0.959 . S
H2192 C2185 0.961 . S
H2193 C2185 0.960 . S
H2194 C2186 0.930 . S
H2195 C2187 0.929 . S
H2196 C2204 0.929 . S
H2197 C2206 0.930 . S
H2198 C2208 0.930 . S
H2199 C2211 0.929 . S
H2200 C2214 0.930 . S
H2201 C2216 0.960 . S
H2202 C2216 0.960 . S
H2203 C2216 0.960 . S
C2204 H2196 0.929 . S
C2204 C2205 1.377 . S
C2204 C2206 1.384 . S
C2205 C2204 1.377 . S
C2205 C2211 1.390 . S
C2206 H2197 0.930 . S
C2206 C2204 1.384 . S
C2206 C2207 1.372 . S
C2207 C2206 1.372 . S
C2207 C2208 1.400 . S
C2207 C2212 1.490 . S
C2208 H2198 0.930 . S
C2208 C2207 1.400 . S
C2208 C2211 1.386 . S
H2209 C2225 0.930 . S
H2210 C2226 0.931 . S
C2211 H2199 0.929 . S
C2211 C2205 1.390 . S
C2211 C2208 1.386 . S
C2212 C2207 1.490 . S
C2212 C2214 1.395 . S
C2212 C2215 1.403 . S
H2213 C2219 0.930 . S
C2214 H2200 0.930 . S
C2214 C2212 1.395 . S
C2214 C2217 1.403 . S
C2215 C2212 1.403 . S
C2215 C2216 1.524 . S
C2215 C2219 1.400 . S
C2216 H2201 0.960 . S
C2216 H2202 0.960 . S
C2216 H2203 0.960 . S
C2216 C2215 1.524 . S
C2217 C2214 1.403 . S
C2217 C2218 1.392 . S
C2217 C2221 1.495 . S
C2218 C2217 1.392 . S
C2218 C2219 1.385 . S
C2218 C2220 1.478 . S
C2219 H2213 0.930 . S
C2219 C2215 1.400 . S
C2219 C2218 1.385 . S
C2220 C2218 1.478 . S
C2220 C2222 1.381 . S
C2220 C2226 1.383 . S
C2221 C2217 1.495 . S
C2221 H2227 0.959 . S
C2221 H2228 0.961 . S
C2221 H2229 0.960 . S
C2222 C2220 1.381 . S
C2222 C2223 1.394 . S
C2222 H2230 0.930 . S
C2223 C2222 1.394 . S
C2223 C2224 1.383 . S
C2223 H2231 0.929 . S
C2224 C2223 1.383 . S
C2224 C2225 1.377 . S
C2225 H2209 0.930 . S
C2225 C2224 1.377 . S
C2225 C2226 1.379 . S
C2226 H2210 0.931 . S
C2226 C2220 1.383 . S
C2226 C2225 1.379 . S
H2227 C2221 0.959 . S
H2228 C2221 0.961 . S
H2229 C2221 0.960 . S
H2230 C2222 0.930 . S
H2231 C2223 0.929 . S
H2232 C2240 0.896 1_554 S
H2233 C2242 0.930 . S
H2234 C2244 0.930 . S
H2235 C2247 0.929 . S
H2236 C2250 0.930 . S
H2237 C2252 0.960 . S
H2238 C2252 0.960 . S
H2239 C2252 0.960 . S
C2240 H2232 0.896 1_556 S
C2240 C2241 1.377 . S
C2240 C2242 1.384 . S
C2241 C2240 1.377 . S
C2241 C2247 1.390 . S
C2242 H2233 0.930 . S
C2242 C2240 1.384 . S
C2242 C2243 1.372 . S
C2243 C2242 1.372 . S
C2243 C2244 1.400 . S
C2243 C2248 1.490 . S
C2244 H2234 0.930 . S
C2244 C2243 1.400 . S
C2244 C2247 1.386 . S
H2245 C2261 0.930 . S
H2246 C2262 0.931 . S
C2247 H2235 0.929 . S
C2247 C2241 1.390 . S
C2247 C2244 1.386 . S
C2248 C2243 1.490 . S
C2248 C2250 1.395 . S
C2248 C2251 1.403 . S
H2249 C2255 0.930 . S
C2250 H2236 0.930 . S
C2250 C2248 1.395 . S
C2250 C2253 1.403 . S
C2251 C2248 1.403 . S
C2251 C2252 1.524 . S
C2251 C2255 1.400 . S
C2252 H2237 0.960 . S
C2252 H2238 0.960 . S
C2252 H2239 0.960 . S
C2252 C2251 1.524 . S
C2253 C2250 1.403 . S
C2253 C2254 1.392 . S
C2253 C2257 1.495 . S
C2254 C2253 1.392 . S
C2254 C2255 1.385 . S
C2254 C2256 1.478 . S
C2255 H2249 0.930 . S
C2255 C2251 1.400 . S
C2255 C2254 1.385 . S
C2256 C2254 1.478 . S
C2256 C2258 1.381 . S
C2256 C2262 1.383 . S
C2257 C2253 1.495 . S
C2257 H2263 0.959 . S
C2257 H2264 0.961 . S
C2257 H2265 0.960 . S
C2258 C2256 1.381 . S
C2258 C2259 1.394 . S
C2258 H2266 0.930 . S
C2259 C2258 1.394 . S
C2259 C2260 1.383 . S
C2259 H2267 0.929 . S
C2260 C2259 1.383 . S
C2260 C2261 1.377 . S
C2261 H2245 0.930 . S
C2261 C2260 1.377 . S
C2261 C2262 1.379 . S
C2262 H2246 0.931 . S
C2262 C2256 1.383 . S
C2262 C2261 1.379 . S
H2263 C2257 0.959 . S
H2264 C2257 0.961 . S
H2265 C2257 0.960 . S
H2266 C2258 0.930 . S
H2267 C2259 0.929 . S
H2268 C2276 0.929 . S
H2269 C2278 0.930 . S
H2270 C2280 0.930 . S
H2271 C2283 0.929 . S
H2272 C2286 0.930 . S
H2273 C2288 0.960 . S
H2274 C2288 0.960 . S
H2275 C2288 0.960 . S
C2276 H2268 0.929 . S
C2276 C2277 1.377 . S
C2276 C2278 1.384 . S
C2277 C2276 1.377 . S
C2277 C2283 1.390 . S
C2278 H2269 0.930 . S
C2278 C2276 1.384 . S
C2278 C2279 1.372 . S
C2279 C2278 1.372 . S
C2279 C2280 1.400 . S
C2279 C2284 1.490 . S
C2280 H2270 0.930 . S
C2280 C2279 1.400 . S
C2280 C2283 1.386 . S
H2281 C2297 0.930 . S
H2282 C2298 0.931 . S
C2283 H2271 0.929 . S
C2283 C2277 1.390 . S
C2283 C2280 1.386 . S
C2284 C2279 1.490 . S
C2284 C2286 1.395 . S
C2284 C2287 1.403 . S
H2285 C2291 0.930 . S
C2286 H2272 0.930 . S
C2286 C2284 1.395 . S
C2286 C2289 1.403 . S
C2287 C2284 1.403 . S
C2287 C2288 1.524 . S
C2287 C2291 1.400 . S
C2288 H2273 0.960 . S
C2288 H2274 0.960 . S
C2288 H2275 0.960 . S
C2288 C2287 1.524 . S
C2289 C2286 1.403 . S
C2289 C2290 1.391 1_655 S
C2289 C2293 1.495 1_655 S
C2290 C2289 1.391 1_455 S
C2290 C2291 1.381 1_455 S
C2290 C2292 1.483 . S
C2291 H2285 0.930 . S
C2291 C2287 1.400 . S
C2291 C2290 1.381 1_655 S
C2292 C2290 1.483 . S
C2292 C2294 1.381 . S
C2292 C2298 1.383 . S
C2293 C2289 1.495 1_455 S
C2293 H2299 0.959 . S
C2293 H2300 0.961 . S
C2293 H2301 0.960 . S
C2294 C2292 1.381 . S
C2294 C2295 1.394 . S
C2294 H2302 0.930 . S
C2295 C2294 1.394 . S
C2295 C2296 1.383 . S
C2295 H2303 0.929 . S
C2296 C2295 1.383 . S
C2296 C2297 1.377 . S
C2297 H2281 0.930 . S
C2297 C2296 1.377 . S
C2297 C2298 1.379 . S
C2298 H2282 0.931 . S
C2298 C2292 1.383 . S
C2298 C2297 1.379 . S
H2299 C2293 0.959 . S
H2300 C2293 0.961 . S
H2301 C2293 0.960 . S
H2302 C2294 0.930 . S
H2303 C2295 0.929 . S
C1017 C67 1.480 . S
C1036 C987 1.541 . S
C1053 C823 1.548 . S
C1072 C147 1.597 . S
C1089 C231 1.413 . S
C1108 C735 1.390 . S
C1125 C315 1.457 . S
C1144 C903 1.418 1_545 S
C1161 C399 1.562 . S
C1180 C907 1.508 . S
C1197 C487 1.580 . S
C1216 C991 1.609 . S
C1233 C819 1.464 . S
C1252 C567 1.488 1_556 S
C1269 C651 1.503 . S
C1288 C739 1.494 . S
C1305 C319 1.590 . S
C1324 C403 1.613 . S
C1341 C63 1.443 . S
C1360 C483 1.436 . S
C1377 C151 1.553 1_655 S
C1396 C571 1.542 . S
C1413 C655 1.618 . S
C1432 C235 1.593 . S
C1449 C70 1.612 . S
C1468 C746 1.755 . S
C1485 C142 1.406 . S
C1504 C914 1.607 . S
C1521 C998 1.670 . S
C1540 C226 1.495 . S
C1557 C310 1.591 . S
C1576 C812 1.794 . S
C1593 C394 1.414 . S
C1612 C830 1.607 . S
C1629 C728 1.848 . S
C1648 C490 1.728 . S
C1665 C896 1.792 . S
C1684 C562 1.530 . S
C1701 C980 1.756 . S
C1720 C646 1.558 . S
C1737 C74 1.770 . S
C1756 C322 1.610 . S
C1773 C58 1.552 . S
C1792 C140 1.781 . S
C1809 C154 1.720 . S
C1828 C224 1.854 . S
C1845 C308 1.749 . S
C1864 C238 1.571 . S
C1881 C478 1.540 . S
C1900 C392 1.755 . S
C1917 C494 1.627 . S
C1936 C574 1.515 . S
C1953 C560 1.737 . S
C1972 C658 1.590 . S
C1989 C406 1.583 . S
C2008 C644 1.713 . S
C2025 C742 1.557 . S
C2044 C326 1.697 . S
C2061 C476 1.767 . S
C2080 C826 1.623 . S
C2097 C730 1.459 . S
C2116 C578 1.675 . S
C2133 C898 1.395 . S
C2152 C662 1.596 . S
C2169 C410 1.576 . S
C2188 C982 1.411 . S
C2205 C994 1.456 . S
C2224 C158 1.602 . S
C2241 C242 1.573 . S
C2260 C814 1.399 . S
C2277 C910 1.606 . S
C2296 C56 1.742 . S
