# Generated by pormake.
# Topology wkf, (6)-cn, num edge types: 1
# Building blocks:
#     Node 0, Type 0, BuildingBlock: KUMBOL_clean_sbu_0, # of connection points: 6
#     Node 1, Type 0, BuildingBlock: KUMBOL_clean_sbu_0, # of connection points: 6
#     Node 2, Type 0, BuildingBlock: KUMBOL_clean_sbu_0, # of connection points: 6
#     Node 3, Type 0, BuildingBlock: KUMBOL_clean_sbu_0, # of connection points: 6
#     Node 4, Type 0, BuildingBlock: KUMBOL_clean_sbu_0, # of connection points: 6
#     Node 5, Type 0, BuildingBlock: KUMBOL_clean_sbu_0, # of connection points: 6
#     Node 6, Type 0, BuildingBlock: KUMBOL_clean_sbu_0, # of connection points: 6
#     Node 7, Type 0, BuildingBlock: KUMBOL_clean_sbu_0, # of connection points: 6
#     Node 8, Type 0, BuildingBlock: KUMBOL_clean_sbu_0, # of connection points: 6
#     Node 9, Type 0, BuildingBlock: KUMBOL_clean_sbu_0, # of connection points: 6
#     Node 10, Type 0, BuildingBlock: KUMBOL_clean_sbu_0, # of connection points: 6
#     Node 11, Type 0, BuildingBlock: KUMBOL_clean_sbu_0, # of connection points: 6
#     Edge 12, Type (0, 0), BuildingBlock: KIFKEQ_clean_linker_1, # of connection points: 2
#     Edge 13, Type (0, 0), BuildingBlock: KIFKEQ_clean_linker_1, # of connection points: 2
#     Edge 14, Type (0, 0), BuildingBlock: KIFKEQ_clean_linker_1, # of connection points: 2
#     Edge 15, Type (0, 0), BuildingBlock: KIFKEQ_clean_linker_1, # of connection points: 2
#     Edge 16, Type (0, 0), BuildingBlock: KIFKEQ_clean_linker_1, # of connection points: 2
#     Edge 17, Type (0, 0), BuildingBlock: KIFKEQ_clean_linker_1, # of connection points: 2
#     Edge 18, Type (0, 0), BuildingBlock: KIFKEQ_clean_linker_1, # of connection points: 2
#     Edge 19, Type (0, 0), BuildingBlock: KIFKEQ_clean_linker_1, # of connection points: 2
#     Edge 20, Type (0, 0), BuildingBlock: KIFKEQ_clean_linker_1, # of connection points: 2
#     Edge 21, Type (0, 0), BuildingBlock: KIFKEQ_clean_linker_1, # of connection points: 2
#     Edge 22, Type (0, 0), BuildingBlock: KIFKEQ_clean_linker_1, # of connection points: 2
#     Edge 23, Type (0, 0), BuildingBlock: KIFKEQ_clean_linker_1, # of connection points: 2
#     Edge 24, Type (0, 0), BuildingBlock: KIFKEQ_clean_linker_1, # of connection points: 2
#     Edge 25, Type (0, 0), BuildingBlock: KIFKEQ_clean_linker_1, # of connection points: 2
#     Edge 26, Type (0, 0), BuildingBlock: KIFKEQ_clean_linker_1, # of connection points: 2
#     Edge 27, Type (0, 0), BuildingBlock: KIFKEQ_clean_linker_1, # of connection points: 2
#     Edge 28, Type (0, 0), BuildingBlock: KIFKEQ_clean_linker_1, # of connection points: 2
#     Edge 29, Type (0, 0), BuildingBlock: KIFKEQ_clean_linker_1, # of connection points: 2
#     Edge 30, Type (0, 0), BuildingBlock: KIFKEQ_clean_linker_1, # of connection points: 2
#     Edge 31, Type (0, 0), BuildingBlock: KIFKEQ_clean_linker_1, # of connection points: 2
#     Edge 32, Type (0, 0), BuildingBlock: KIFKEQ_clean_linker_1, # of connection points: 2
#     Edge 33, Type (0, 0), BuildingBlock: KIFKEQ_clean_linker_1, # of connection points: 2
#     Edge 34, Type (0, 0), BuildingBlock: KIFKEQ_clean_linker_1, # of connection points: 2
#     Edge 35, Type (0, 0), BuildingBlock: KIFKEQ_clean_linker_1, # of connection points: 2
#     Edge 36, Type (0, 0), BuildingBlock: KIFKEQ_clean_linker_1, # of connection points: 2
#     Edge 37, Type (0, 0), BuildingBlock: KIFKEQ_clean_linker_1, # of connection points: 2
#     Edge 38, Type (0, 0), BuildingBlock: KIFKEQ_clean_linker_1, # of connection points: 2
#     Edge 39, Type (0, 0), BuildingBlock: KIFKEQ_clean_linker_1, # of connection points: 2
#     Edge 40, Type (0, 0), BuildingBlock: KIFKEQ_clean_linker_1, # of connection points: 2
#     Edge 41, Type (0, 0), BuildingBlock: KIFKEQ_clean_linker_1, # of connection points: 2
#     Edge 42, Type (0, 0), BuildingBlock: KIFKEQ_clean_linker_1, # of connection points: 2
#     Edge 43, Type (0, 0), BuildingBlock: KIFKEQ_clean_linker_1, # of connection points: 2
#     Edge 44, Type (0, 0), BuildingBlock: KIFKEQ_clean_linker_1, # of connection points: 2
#     Edge 45, Type (0, 0), BuildingBlock: KIFKEQ_clean_linker_1, # of connection points: 2
#     Edge 46, Type (0, 0), BuildingBlock: KIFKEQ_clean_linker_1, # of connection points: 2
#     Edge 47, Type (0, 0), BuildingBlock: KIFKEQ_clean_linker_1, # of connection points: 2
# Relax obj value: 0.166
# Max RMSD: 0.269
# Mean RMSD: 0.261
data_MOF--net-wkf--node1-KUMBOL_clean_sbu_0--edge1-KIFKEQ_clean_linker_1
_symmetry_space_group_name_H-M    P1
_symmetry_Int_Tables_number       1
_symmetry_cell_setting            triclinic
loop_
_symmetry_equiv_pos_as_xyz
'x, y, z'
_cell_length_a     30.435734
_cell_length_b     30.455981
_cell_length_c     82.26015
_cell_angle_alpha  89.920824
_cell_angle_beta   89.969758
_cell_angle_gamma 119.81325
loop_
_atom_site_label
_atom_site_type_symbol
_atom_site_fract_x
_atom_site_fract_y
_atom_site_fract_z
_atom_type_partial_charge
Gd0 Gd 0.452 0.97385 0.34057 0.0
Gd1 Gd 0.55111 1.00914 0.3678 0.0
C2 C 0.6843 1.0205 0.33826 0.0
C3 C 0.70348 0.96292 0.35296 0.0
C4 C 0.63229 0.9733 0.36117 0.0
C5 C 0.64387 1.00896 0.3491 0.0
C6 C 0.66134 0.94909 0.36302 0.0
C7 C 0.71495 0.99858 0.34059 0.0
C8 C 0.69089 0.05126 0.32483 0.0
C9 C 0.65575 0.06691 0.32188 0.0
N10 N 0.61227 1.02798 0.34685 0.0
C11 C 0.61603 0.05395 0.33284 0.0
H12 H 0.58786 0.06352 0.32952 0.0
C13 C 0.57513 0.92136 0.38148 0.0
N14 N 0.59012 0.95924 0.37022 0.0
C15 C 0.60258 0.89622 0.38371 0.0
C16 C 0.64609 0.91035 0.37452 0.0
H17 H 0.54257 0.91081 0.3891 0.0
H18 H 0.74638 1.00744 0.33249 0.0
H19 H 0.39672 1.04165 0.35015 0.0
H20 H 0.72121 0.06073 0.31619 0.0
H21 H 0.65858 0.08814 0.31099 0.0
H22 H 0.72638 0.94498 0.35428 0.0
H23 H 0.53176 0.95967 0.31499 0.0
H24 H 0.39477 0.12072 0.30718 0.0
H25 H 0.37206 0.09836 0.3361 0.0
H26 H 0.49144 0.08441 0.26894 0.0
H27 H 0.59037 0.86625 0.39264 0.0
H28 H 0.66718 0.89065 0.37623 0.0
H29 H 0.43865 0.11454 0.28206 0.0
H30 H 0.5635 0.98413 0.28711 0.0
N31 N 0.43395 1.03392 0.32944 0.0
C32 C 0.40569 0.09603 0.31326 0.0
C33 C 0.39309 0.08379 0.32964 0.0
C34 C 0.43302 0.07707 0.30501 0.0
C35 C 0.44641 1.04524 0.31348 0.0
C36 C 0.4073 0.05215 0.33759 0.0
N37 N 0.49107 0.99981 0.315 0.0
C38 C 0.47673 1.02851 0.30617 0.0
C39 C 0.53921 0.99695 0.29235 0.0
C40 C 0.52525 1.02667 0.28318 0.0
C41 C 0.52128 0.98336 0.30826 0.0
C42 C 0.49364 1.04285 0.29005 0.0
H43 H 0.53915 1.03697 0.27084 0.0
O44 O 0.40096 0.91808 0.32294 0.0
O45 O 0.51854 0.9615 0.34593 0.0
O46 O 0.57311 0.08846 0.35611 0.0
O47 O 0.50259 0.06407 0.33956 0.0
O48 O 0.4564 0.90088 0.33698 0.0
O49 O 0.37011 0.94117 0.34263 0.0
O50 O 0.54528 0.99411 0.39367 0.0
O51 O 0.47531 1.00438 0.36591 0.0
O52 O 0.41653 0.93584 0.36504 0.0
O53 O 0.48411 0.93247 0.3763 0.0
O54 O 0.53344 0.06867 0.3762 0.0
O55 O 0.61644 0.05156 0.38322 0.0
C56 C 0.50032 0.91413 0.34287 0.0
C57 C 0.47898 0.07325 0.28136 0.0
C58 C 0.44876 0.09029 0.28882 0.0
C59 C 0.36017 0.91481 0.32921 0.0
C60 C 0.32173 0.91443 0.31768 0.0
C61 C 0.30311 0.94787 0.32017 0.0
C62 C 0.30071 0.8786 0.30474 0.0
C63 C 0.26157 0.87661 0.29474 0.0
C64 C 0.26611 0.94713 0.31003 0.0
C65 C 0.24545 0.91189 0.29752 0.0
C66 C 0.54629 0.10088 0.34587 0.0
C67 C 0.4859 1.04636 0.37264 0.0
C68 C 0.59017 1.03233 0.39653 0.0
C69 C 0.59302 0.06854 0.409 0.0
C70 C 0.55412 0.05539 0.42047 0.0
C71 C 0.63503 0.11728 0.40931 0.0
C72 C 0.6398 0.15255 0.42114 0.0
C73 C 0.55761 0.09076 0.43197 0.0
C74 C 0.60032 0.13908 0.4324 0.0
C75 C 0.43453 0.91511 0.37549 0.0
H76 H 0.31629 0.97418 0.33018 0.0
H77 H 0.31338 0.85145 0.30286 0.0
H78 H 0.25256 0.97346 0.31212 0.0
H79 H 0.21605 0.91177 0.29006 0.0
H80 H 0.52094 1.018 0.42053 0.0
H81 H 0.6643 0.12784 0.40019 0.0
H82 H 0.5274 0.08048 0.4407 0.0
H83 H 0.60287 0.16528 0.44173 0.0
Gd84 Gd 0.52664 0.42223 0.50846 0.0
Gd85 Gd 0.59145 0.52783 0.53485 0.0
C86 C 0.7168 0.64204 0.50103 0.0
C87 C 0.79271 0.66014 0.51596 0.0
C88 C 0.70945 0.59956 0.5266 0.0
C89 C 0.68656 0.60812 0.51341 0.0
C90 C 0.7628 0.62546 0.528 0.0
C91 C 0.76976 0.66835 0.50249 0.0
C92 C 0.69316 0.64751 0.48727 0.0
C93 C 0.64089 0.61821 0.48579 0.0
N94 N 0.63513 0.58136 0.51223 0.0
C95 C 0.6126 0.58479 0.49825 0.0
H96 H 0.57315 0.56078 0.49598 0.0
C97 C 0.70107 0.55477 0.55092 0.0
N98 N 0.67976 0.56448 0.53774 0.0
C99 C 0.7536 0.57986 0.55292 0.0
C100 C 0.78466 0.61533 0.54139 0.0
H101 H 0.6779 0.5274 0.56 0.0
H102 H 0.79336 0.69456 0.49312 0.0
H103 H 0.40877 0.36234 0.52293 0.0
H104 H 0.71501 0.67296 0.4775 0.0
H105 H 0.62229 0.62051 0.47487 0.0
H106 H 0.83365 0.68027 0.51684 0.0
H107 H 0.60594 0.50388 0.47977 0.0
H108 H 0.30829 0.34063 0.48332 0.0
H109 H 0.32148 0.3273 0.51221 0.0
H110 H 0.42173 0.43524 0.43991 0.0
H111 H 0.77008 0.57163 0.56332 0.0
H112 H 0.82541 0.63438 0.54287 0.0
H113 H 0.34614 0.38043 0.45625 0.0
H114 H 0.59976 0.52737 0.45163 0.0
N115 N 0.44352 0.39604 0.50049 0.0
C116 C 0.34644 0.35616 0.48797 0.0
C117 C 0.35372 0.34889 0.50434 0.0
C118 C 0.38848 0.38432 0.4779 0.0
C119 C 0.43723 0.40353 0.48454 0.0
C120 C 0.40294 0.36922 0.51044 0.0
N121 N 0.52648 0.45518 0.48258 0.0
C122 C 0.48009 0.43474 0.47537 0.0
C123 C 0.56581 0.50124 0.45818 0.0
C124 C 0.5186 0.48058 0.45062 0.0
C125 C 0.56913 0.48783 0.47421 0.0
C126 C 0.47492 0.44708 0.45923 0.0
H127 H 0.51625 0.49112 0.4382 0.0
O128 O 0.53094 0.36867 0.49165 0.0
O129 O 0.60385 0.48332 0.51626 0.0
O130 O 0.53429 0.54711 0.52157 0.0
O131 O 0.48592 0.472 0.50712 0.0
O132 O 0.60556 0.44076 0.49817 0.0
O133 O 0.48419 0.34086 0.51302 0.0
O134 O 0.59812 0.52795 0.56102 0.0
O135 O 0.52192 0.45133 0.53324 0.0
O136 O 0.53614 0.39117 0.53299 0.0
O137 O 0.59992 0.46271 0.54576 0.0
O138 O 0.51381 0.50901 0.54319 0.0
O139 O 0.61491 0.5972 0.5483 0.0
C140 C 0.63542 0.4766 0.5078 0.0
C141 C 0.4264 0.42643 0.45234 0.0
C142 C 0.38331 0.39512 0.46164 0.0
C143 C 0.49736 0.32864 0.49936 0.0
C144 C 0.45689 0.28649 0.4894 0.0
C145 C 0.4059 0.26619 0.4939 0.0
C146 C 0.46841 0.26416 0.47594 0.0
C147 C 0.42909 0.22242 0.46731 0.0
C148 C 0.36737 0.22709 0.48508 0.0
C149 C 0.37867 0.20563 0.47195 0.0
C150 C 0.49375 0.51747 0.51219 0.0
C151 C 0.48994 0.46128 0.53993 0.0
C152 C 0.60716 0.57426 0.56236 0.0
C153 C 0.57528 0.58155 0.57428 0.0
C154 C 0.57473 0.56716 0.5905 0.0
C155 C 0.54537 0.6026 0.56965 0.0
C156 C 0.51886 0.61422 0.58133 0.0
C157 C 0.54584 0.57518 0.60201 0.0
C158 C 0.51883 0.59933 0.59759 0.0
C159 C 0.57151 0.4126 0.54452 0.0
H160 H 0.39537 0.27994 0.50444 0.0
H161 H 0.50756 0.27809 0.47257 0.0
H162 H 0.3283 0.21271 0.48862 0.0
H163 H 0.34743 0.17523 0.46545 0.0
H164 H 0.59685 0.54995 0.59426 0.0
H165 H 0.54401 0.61115 0.55695 0.0
H166 H 0.54581 0.56428 0.61455 0.0
H167 H 0.49993 0.6081 0.60711 0.0
Gd168 Gd 0.14953 0.49669 0.67425 0.0
Gd169 Gd 0.10853 0.5624 0.70022 0.0
C170 C 0.11737 0.68441 0.6652 0.0
C171 C 0.17556 0.76165 0.67933 0.0
C172 C 0.15347 0.67947 0.69086 0.0
C173 C 0.12168 0.65535 0.67789 0.0
C174 C 0.18071 0.7329 0.69173 0.0
C175 C 0.14401 0.73745 0.66608 0.0
C176 C 0.08745 0.65947 0.65175 0.0
C177 C 1.06413 0.60706 0.65089 0.0
N178 N 0.09692 0.60383 0.67728 0.0
C179 C 1.0699 0.57995 0.66362 0.0
H180 H 1.05413 0.54028 0.6618 0.0
C181 C 0.18991 0.67337 0.7155 0.0
N182 N 0.15906 0.65088 0.70241 0.0
C183 C 0.21719 0.72603 0.71695 0.0
C184 C 0.21272 0.75599 0.70499 0.0
H185 H 0.19417 0.65105 0.72489 0.0
H186 H 0.14096 0.76014 0.65647 0.0
H187 H 0.08846 0.37835 0.6884 0.0
H188 H 0.08334 0.68039 0.64176 0.0
H189 H 1.04246 0.58741 0.64023 0.0
H190 H 0.19623 0.80263 0.67979 0.0
H191 H 0.14859 0.57776 0.64577 0.0
H192 H 1.00845 0.28005 0.64858 0.0
H193 H 1.03388 0.2918 0.67754 0.0
H194 H 1.03245 0.39566 0.60531 0.0
H195 H 0.24183 0.74347 0.72727 0.0
H196 H 0.23426 0.79683 0.70606 0.0
H197 H 1.00925 0.31917 0.62151 0.0
H198 H 0.12013 0.57312 0.6176 0.0
N199 N 0.09176 0.41423 0.66596 0.0
C200 C 1.03213 0.3179 0.65329 0.0
C201 C 1.04604 0.32439 0.66969 0.0
C202 C 1.04797 0.36034 0.64324 0.0
C203 C 0.07865 0.4087 0.64995 0.0
C204 C 0.07632 0.37319 0.67586 0.0
N205 N 0.11767 0.49813 0.64827 0.0
C206 C 0.09142 0.45208 0.6409 0.0
C207 C 0.11191 0.5388 0.62401 0.0
C208 C 0.08522 0.49197 0.61628 0.0
C209 C 0.12808 0.54123 0.64007 0.0
C210 C 0.07425 0.4478 0.62476 0.0
H211 H 1.07263 0.4903 0.60386 0.0
O212 O 0.208 0.50021 0.6579 0.0
O213 O 0.16526 0.57424 0.68155 0.0
O214 O 1.03163 0.50294 0.68791 0.0
O215 O 1.0591 0.456 0.67288 0.0
O216 O 0.21056 0.57477 0.66388 0.0
O217 O 0.18627 0.45203 0.67901 0.0
O218 O 0.11547 0.5701 0.72636 0.0
O219 O 0.11675 0.49327 0.69908 0.0
O220 O 0.19109 0.50847 0.69879 0.0
O221 O 0.18292 0.57308 0.71089 0.0
O222 O 1.05104 0.48518 0.70908 0.0
O223 O 1.06305 0.58686 0.71355 0.0
C224 C 0.20422 0.60517 0.67321 0.0
C225 C 1.04567 0.39963 0.61774 0.0
C226 C 1.03253 0.35603 0.62695 0.0
C227 C 0.21279 0.46546 0.66557 0.0
C228 C 0.21429 0.4251 0.65547 0.0
C229 C 0.1825 0.37397 0.65952 0.0
C230 C 0.24896 0.43691 0.64225 0.0
C231 C 0.25129 0.39778 0.63343 0.0
C232 C 0.1832 0.33565 0.65054 0.0
C233 C 0.21694 0.34726 0.63767 0.0
C234 C 1.02112 0.46265 0.67844 0.0
C235 C 0.0753 0.46146 0.70596 0.0
C236 C 0.07776 0.57865 0.72763 0.0
C237 C 1.03818 0.54599 0.73935 0.0
C238 C 1.05179 0.53865 0.75498 0.0
C239 C 0.98686 0.52187 0.73505 0.0
C240 C 0.94878 0.49466 0.74664 0.0
C241 C 1.01449 0.50875 0.76625 0.0
C242 C 0.96334 0.48759 0.76226 0.0
C243 C 0.20508 0.54493 0.70997 0.0
H244 H 0.15724 0.36319 0.66982 0.0
H245 H 0.27483 0.47613 0.6392 0.0
H246 H 0.15779 0.29648 0.65374 0.0
H247 H 0.2162 0.31624 0.63102 0.0
H248 H 0.09126 0.55618 0.75849 0.0
H249 H 0.97663 0.52556 0.72274 0.0
H250 H 1.02525 0.5034 0.77832 0.0
H251 H 0.93562 0.46768 0.77168 0.0
Gd252 Gd 0.69924 0.13704 0.84158 0.0
Gd253 Gd 0.59425 0.09805 0.86817 0.0
C254 C 0.4755 0.10406 0.83495 0.0
C255 C 0.45364 0.15851 0.85029 0.0
C256 C 0.51734 0.13931 0.8605 0.0
C257 C 0.51019 0.1089 0.84723 0.0
C258 C 0.48931 0.16467 0.86216 0.0
C259 C 0.44679 0.1283 0.8367 0.0
C260 C 0.4719 0.07653 0.82099 0.0
C261 C 0.50398 0.05663 0.81917 0.0
N262 N 0.53934 0.08675 0.84579 0.0
C263 C 0.5381 0.06297 0.83154 0.0
H264 H 0.56437 1.05028 0.82905 0.0
C265 C 0.56219 0.17661 0.88465 0.0
N266 N 0.55326 0.14591 0.87147 0.0
C267 C 0.53509 0.2021 0.88689 0.0
C268 C 0.49845 0.19612 0.8756 0.0
H269 H 0.5908 0.18244 0.89347 0.0
H270 H 0.41991 0.12473 0.82743 0.0
H271 H 0.75847 0.07882 0.85652 0.0
H272 H 0.44594 0.0721 0.81129 0.0
H273 H 0.50332 1.03728 0.80806 0.0
H274 H 0.43179 0.17763 0.85138 0.0
H275 H 0.61919 0.13573 0.81238 0.0
H276 H 0.78059 0.99869 0.81741 0.0
H277 H 0.79339 1.02585 0.84621 0.0
H278 H 0.68794 1.01812 0.77347 0.0
H279 H 0.54276 0.22659 0.89729 0.0
H280 H 0.47781 0.21628 0.87727 0.0
H281 H 0.74171 0.99669 0.79019 0.0
H282 H 0.59677 0.10603 0.78425 0.0
N283 N 0.72528 0.07961 0.83395 0.0
C284 C 0.76511 1.02163 0.82189 0.0
C285 C 0.77208 1.03655 0.8382 0.0
C286 C 0.7374 1.03566 0.81163 0.0
C287 C 0.71825 0.06565 0.81803 0.0
C288 C 0.75178 0.06583 0.84407 0.0
N289 N 0.66736 0.10424 0.81562 0.0
C290 C 0.68768 0.07772 0.80864 0.0
C291 C 0.62244 0.09788 0.79098 0.0
C292 C 0.643 0.07076 0.78367 0.0
C293 C 0.63532 0.11469 0.807 0.0
C294 C 0.67586 0.06011 0.79252 0.0
H295 H 0.63286 0.0578 0.77126 0.0
O296 O 0.75397 0.19395 0.82479 0.0
O297 O 0.63845 0.15386 0.84938 0.0
O298 O 0.57385 1.02145 0.85487 0.0
O299 O 0.64882 1.04714 0.8403 0.0
O300 O 0.68044 0.19714 0.83106 0.0
O301 O 0.78022 0.17535 0.84661 0.0
O302 O 0.6001 0.10839 0.89418 0.0
O303 O 0.6706 0.10392 0.86654 0.0
O304 O 0.73012 0.17776 0.86592 0.0
O305 O 0.65878 0.17369 0.87771 0.0
O306 O 0.61181 1.03811 0.87615 0.0
O307 O 0.5284 0.05362 0.88338 0.0
C308 C 0.64466 0.19155 0.84074 0.0
C309 C 0.69637 1.03169 0.78587 0.0
C310 C 0.72707 1.01953 0.79539 0.0
C311 C 0.7934 0.20011 0.83285 0.0
C312 C 0.83591 0.20068 0.82336 0.0
C313 C 0.85633 0.17062 0.82861 0.0
C314 C 0.85853 0.23302 0.80963 0.0
C315 C 0.90068 0.23465 0.80144 0.0
C316 C 0.89591 0.17042 0.82022 0.0
C317 C 0.91769 0.20176 0.80681 0.0
C318 C 0.60318 1.0101 0.8454 0.0
C319 C 0.65974 0.06153 0.8731 0.0
C320 C 0.5549 0.0704 0.89677 0.0
C321 C 0.55208 1.03263 0.90864 0.0
C322 C 0.5878 1.0466 0.92123 0.0
C323 C 0.51371 0.98216 0.90739 0.0
C324 C 0.50857 0.94608 0.91903 0.0
C325 C 0.58462 1.01049 0.93238 0.0
C326 C 0.54496 0.96056 0.93143 0.0
C327 C 0.70881 0.19381 0.87683 0.0
H328 H 0.8423 0.14751 0.8394 0.0
H329 H 0.84452 0.25775 0.8057 0.0
H330 H 0.91041 0.14626 0.82432 0.0
H331 H 0.94848 0.20043 0.80065 0.0
H332 H 0.61825 0.08533 0.92244 0.0
H333 H 0.48727 0.97106 0.89737 0.0
H334 H 0.61237 1.0215 0.942 0.0
H335 H 0.54204 0.93392 0.94068 0.0
Gd336 Gd 0.61785 0.67628 0.00712 0.0
Gd337 Gd 0.55352 0.57432 0.03385 0.0
C338 C 0.43478 0.44144 1.00376 0.0
C339 C 0.35742 0.41956 0.01849 0.0
C340 C 0.4376 0.49156 0.02691 0.0
C341 C 0.46253 0.48141 0.01478 0.0
C342 C 0.38454 0.46148 0.02867 0.0
C343 C 0.38251 0.40955 1.00603 0.0
C344 C 0.45965 0.43667 0.99018 0.0
C345 C 0.50985 0.47322 0.98729 0.0
N346 N 0.51272 0.51425 0.0126 0.0
C347 C 0.53541 0.51244 0.99844 0.0
H348 H 0.57263 0.54175 0.99521 0.0
C349 C 0.44066 0.54782 0.04717 0.0
N350 N 0.46458 0.53366 0.03601 0.0
C351 C 0.38823 0.51927 0.04935 0.0
C352 C 0.36005 0.47563 0.04016 0.0
H353 H 0.46171 0.58068 0.05471 0.0
H354 H 0.3608 0.37839 0.9978 0.0
H355 H 0.7403 0.7302 0.01699 0.0
H356 H 0.43968 0.40674 0.98139 0.0
H357 H 0.52866 0.47186 0.97629 0.0
H358 H 0.31677 0.39583 0.01974 0.0
H359 H 0.52487 0.59827 0.98107 0.0
H360 H 0.82239 0.73417 0.97407 0.0
H361 H 0.82188 0.75519 1.0031 0.0
H362 H 0.69095 0.64079 0.93527 0.0
H363 H 0.36965 0.53077 0.05821 0.0
H364 H 0.31937 0.45374 0.0418 0.0
H365 H 0.77324 0.69217 0.94871 0.0
H366 H 0.51852 0.56844 0.95302 0.0
N367 N 0.69607 0.69448 0.99609 0.0
C368 C 0.78671 0.72314 0.98008 0.0
C369 C 0.78657 0.73477 0.99652 0.0
C370 C 0.74079 0.69663 0.97167 0.0
C371 C 0.69543 0.68305 0.98005 0.0
C372 C 0.7406 0.72037 1.00438 0.0
N373 N 0.60552 0.63909 0.98128 0.0
C374 C 0.64872 0.65362 0.97255 0.0
C375 C 0.55536 0.59235 0.95838 0.0
C376 C 0.59921 0.60673 0.9493 0.0
C377 C 0.55919 0.6093 0.97439 0.0
C378 C 0.64666 0.63766 0.95634 0.0
H379 H 0.59603 0.59356 0.93689 0.0
O380 O 0.61588 0.73026 0.98989 0.0
O381 O 0.53961 0.6099 0.01251 0.0
O382 O 0.61138 0.55355 0.02195 0.0
O383 O 0.65774 0.62553 1.00593 0.0
O384 O 0.54012 0.67079 1.00279 0.0
O385 O 0.66628 0.75765 0.01047 0.0
O386 O 0.54336 0.58036 0.05962 0.0
O387 O 0.62392 0.65039 0.03224 0.0
O388 O 0.61229 0.70954 0.03169 0.0
O389 O 0.54292 0.63999 0.04285 0.0
O390 O 0.63057 0.5919 0.04224 0.0
O391 O 0.53266 0.50974 0.04961 0.0
C392 C 0.50989 0.62728 0.00904 0.0
C393 C 0.69187 0.65251 0.94776 0.0
C394 C 0.73877 0.68191 0.9554 0.0
C395 C 0.65201 0.76995 0.99702 0.0
C396 C 0.69184 0.81062 0.98643 0.0
C397 C 0.74322 0.82813 0.98968 0.0
C398 C 0.67948 0.83484 0.97374 0.0
C399 C 0.71833 0.87586 0.96469 0.0
C400 C 0.78114 0.86667 0.98045 0.0
C401 C 0.76899 0.89018 0.96813 0.0
C402 C 0.65082 0.58128 0.01191 0.0
C403 C 0.65535 0.63964 0.03892 0.0
C404 C 0.5388 0.53642 0.06275 0.0
C405 C 0.57358 0.53673 0.0753 0.0
C406 C 0.58121 0.56397 0.08977 0.0
C407 C 0.59986 0.51043 0.07285 0.0
C408 C 0.62917 0.50621 0.08531 0.0
C409 C 0.61354 0.56352 0.10172 0.0
C410 C 0.63671 0.53415 0.09969 0.0
C411 C 0.57407 0.68966 0.04232 0.0
H412 H 0.75455 0.81277 0.99961 0.0
H413 H 0.64016 0.82302 0.97133 0.0
H414 H 0.82046 0.87906 0.98305 0.0
H415 H 0.7997 0.92018 0.9613 0.0
H416 H 0.56219 0.58555 0.09181 0.0
H417 H 0.59615 0.49183 0.06132 0.0
H418 H 0.61923 0.58458 0.11286 0.0
H419 H 0.65855 0.53179 0.10968 0.0
Gd420 Gd 0.99592 0.59256 0.17323 0.0
Gd421 Gd 1.03379 0.53113 0.20184 0.0
C422 C 1.02636 0.40608 0.16903 0.0
C423 C 0.96968 0.33017 0.18416 0.0
C424 C 0.99075 0.41321 0.19455 0.0
C425 C 1.02176 0.43607 0.18127 0.0
C426 C 0.96414 0.35994 0.19609 0.0
C427 C 1.0007 0.35319 0.17065 0.0
C428 C 1.05548 0.42998 0.15527 0.0
C429 C 0.07794 0.4823 0.15375 0.0
N430 N 1.04494 0.48728 0.17983 0.0
C431 C 1.07182 0.51032 0.16609 0.0
H432 H 0.08754 0.55001 0.16413 0.0
C433 C 0.95291 0.42151 0.21857 0.0
N434 N 0.98453 0.44283 0.20553 0.0
C435 C 0.92624 0.36902 0.2207 0.0
C436 C 0.93187 0.33806 0.20941 0.0
H437 H 0.948 0.44487 0.22743 0.0
H438 H 1.00392 0.32969 0.16138 0.0
H439 H 1.03886 0.70277 0.19217 0.0
H440 H 1.05982 0.40832 0.14559 0.0
H441 H 0.09936 0.50111 0.14293 0.0
H442 H 0.94949 0.28927 0.18513 0.0
H443 H 1.01848 0.53076 0.14201 0.0
H444 H 0.12255 0.82102 0.15766 0.0
H445 H 0.08904 0.7941 0.18553 0.0
H446 H 0.12436 0.731 0.11018 0.0
H447 H 0.90118 0.35248 0.23101 0.0
H448 H 0.91073 0.29735 0.21099 0.0
H449 H 0.13407 0.79699 0.1294 0.0
H450 H 1.05545 0.55171 0.11475 0.0
N451 N 1.04701 0.67921 0.1687 0.0
C452 C 0.10124 0.78106 0.16059 0.0
C453 C 0.08282 0.76605 0.17639 0.0
C454 C 0.09278 0.74441 0.14885 0.0
C455 C 1.06486 0.69296 0.15328 0.0
C456 C 1.05538 0.71452 0.18024 0.0
N457 N 1.03633 0.60626 0.14769 0.0
C458 C 1.05951 0.65537 0.14246 0.0
C459 C 1.05659 0.58115 0.1224 0.0
C460 C 0.07941 0.63093 0.11677 0.0
C461 C 1.03532 0.56941 0.13798 0.0
C462 C 0.08182 0.66891 0.1269 0.0
H463 H 0.09614 0.63982 0.10473 0.0
O464 O 0.94236 0.58876 0.1547 0.0
O465 O 0.97312 0.51571 0.18393 0.0
O466 O 0.11127 0.59303 0.19031 0.0
O467 O 0.08623 0.63585 0.17267 0.0
O468 O 0.95409 0.51393 0.16056 0.0
O469 O 0.94798 0.62584 0.17754 0.0
O470 O 1.03919 0.51179 0.2268 0.0
O471 O 1.0441 0.60665 0.19554 0.0
O472 O 0.94704 0.57844 0.19627 0.0
O473 O 0.95782 0.51892 0.21118 0.0
O474 O 1.03049 0.58579 0.21939 0.0
O475 O 0.10444 0.53899 0.21103 0.0
C476 C 0.95011 0.4844 0.17242 0.0
C477 C 0.10737 0.72002 0.12214 0.0
C478 C 0.11289 0.75765 0.13309 0.0
C479 C 0.92797 0.61584 0.16299 0.0
C480 C 0.92398 0.65694 0.1541 0.0
C481 C 0.95142 0.70693 0.15978 0.0
C482 C 0.89094 0.64673 0.14052 0.0
C483 C 0.88623 0.68641 0.13292 0.0
C484 C 0.94886 0.74604 0.15192 0.0
C485 C 0.91702 0.73608 0.13865 0.0
C486 C 0.12355 0.63114 0.17973 0.0
C487 C 1.04224 0.62316 0.20966 0.0
C488 C 0.08773 0.5297 0.22597 0.0
C489 C 0.11871 0.5681 0.23824 0.0
C490 C 0.09826 0.59076 0.24837 0.0
C491 C 0.16988 0.5827 0.23975 0.0
C492 C 0.20055 0.6189 0.25134 0.0
C493 C 0.12911 0.62836 0.25941 0.0
C494 C 0.18015 0.64257 0.26089 0.0
C495 C 0.93415 0.54517 0.20848 0.0
H496 H 0.97452 0.71612 0.17052 0.0
H497 H 0.86802 0.60819 0.13628 0.0
H498 H 0.97118 0.78441 0.15635 0.0
H499 H 0.91616 0.7677 0.13293 0.0
H500 H 1.05859 0.57973 0.24783 0.0
H501 H 0.18567 0.56501 0.23208 0.0
H502 H 0.11322 0.64599 0.26701 0.0
H503 H 0.20304 0.67046 0.26993 0.0
Gd504 Gd 0.1493 0.66959 0.50255 0.0
Gd505 Gd 0.1142 0.57045 0.47538 0.0
C506 C 0.10325 0.43756 0.50497 0.0
C507 C 0.16099 0.41856 0.4903 0.0
C508 C 0.15039 0.48957 0.48206 0.0
C509 C 0.11469 0.47792 0.49412 0.0
C510 C 0.17475 0.46066 0.48023 0.0
C511 C 0.12528 0.40702 0.50266 0.0
C512 C 1.07253 0.43098 0.51842 0.0
C513 C 1.05684 0.46607 0.52135 0.0
N514 N 0.09559 0.50944 0.49636 0.0
C515 C 1.06972 0.50573 0.51038 0.0
H516 H 1.06016 0.5339 0.5137 0.0
C517 C 0.20238 0.54684 0.46178 0.0
N518 N 0.16439 0.53172 0.47301 0.0
C519 C 0.22765 0.51953 0.45957 0.0
C520 C 0.21357 0.47602 0.46875 0.0
H521 H 0.21292 0.57941 0.45417 0.0
H522 H 0.1165 0.37564 0.51077 0.0
H523 H 0.08103 0.72441 0.49303 0.0
H524 H 1.06313 0.40071 0.52707 0.0
H525 H 1.03568 0.46327 0.53226 0.0
H526 H 0.17903 0.39576 0.489 0.0
H527 H 0.16429 0.59038 0.52819 0.0
H528 H 1.002 0.72605 0.53604 0.0
H529 H 1.02419 0.74882 0.50711 0.0
H530 H 1.03923 0.63003 0.57428 0.0
H531 H 0.2577 0.53184 0.45066 0.0
H532 H 0.23338 0.45505 0.46707 0.0
H533 H 1.00858 0.68239 0.56115 0.0
H534 H 0.14019 0.55878 0.55608 0.0
N535 N 0.08904 0.6873 0.51372 0.0
C536 C 1.02676 0.71527 0.52994 0.0
C537 C 1.0389 0.7279 0.51356 0.0
C538 C 1.04595 0.68811 0.53818 0.0
C539 C 0.07788 0.6749 0.5297 0.0
C540 C 1.07062 0.71383 0.50559 0.0
N541 N 0.12382 0.63075 0.52818 0.0
C542 C 0.09496 0.64486 0.53702 0.0
C543 C 0.12715 0.58289 0.55085 0.0
C544 C 0.09731 0.59666 0.56002 0.0
C545 C 0.14055 0.60076 0.53492 0.0
C546 C 0.0808 0.62801 0.55315 0.0
H547 H 0.08715 0.58281 0.57237 0.0
O548 O 0.20483 0.7214 0.52009 0.0
O549 O 0.16199 0.60332 0.49722 0.0
O550 O 1.03482 0.54829 0.48709 0.0
O551 O 1.05913 0.61878 0.50361 0.0
O552 O 0.22248 0.6655 0.50621 0.0
O553 O 0.18155 0.7512 0.50012 0.0
O554 O 0.12935 0.5762 0.44953 0.0
O555 O 0.11865 0.64599 0.47728 0.0
O556 O 0.18712 0.70496 0.47806 0.0
O557 O 0.19071 0.63758 0.4668 0.0
O558 O 1.05447 0.58791 0.46693 0.0
O559 O 1.07173 0.50515 0.45997 0.0
C560 C 0.20942 0.62169 0.5003 0.0
C561 C 1.05026 0.64245 0.56184 0.0
C562 C 1.03291 0.67242 0.55439 0.0
C563 C 0.20773 0.76176 0.5136 0.0
C564 C 0.20742 0.80027 0.52489 0.0
C565 C 0.17456 0.81932 0.52187 0.0
C566 C 0.24214 0.82096 0.53811 0.0
C567 C 0.24372 0.86026 0.54789 0.0
C568 C 0.1748 0.85645 0.53179 0.0
C569 C 0.20899 0.87681 0.5446 0.0
C570 C 1.02238 0.57505 0.49733 0.0
C571 C 0.07667 0.63537 0.47054 0.0
C572 C 0.09103 0.53139 0.44666 0.0
C573 C 1.05488 0.52869 0.43417 0.0
C574 C 1.06816 0.56764 0.42271 0.0
C575 C 1.00602 0.48684 0.43386 0.0
C576 C 0.97076 0.48227 0.42203 0.0
C577 C 1.03281 0.56433 0.41122 0.0
C578 C 0.98438 0.52178 0.41079 0.0
C579 C 0.20787 0.6871 0.46759 0.0
H580 H 0.1491 0.80636 0.51161 0.0
H581 H 0.26885 0.80794 0.5404 0.0
H582 H 0.14891 0.87033 0.52931 0.0
H583 H 0.2087 0.90626 0.5519 0.0
H584 H 0.10563 0.60071 0.42266 0.0
H585 H 0.99535 0.45755 0.44298 0.0
H586 H 1.0432 0.59457 0.40249 0.0
H587 H 0.9582 0.51938 0.40146 0.0
Gd588 Gd 0.53372 0.11678 0.66982 0.0
Gd589 Gd 0.59031 0.08311 0.63878 0.0
C590 C 0.71941 0.08402 0.66791 0.0
C591 C 0.79338 0.14323 0.65246 0.0
C592 C 0.7091 0.1244 0.644 0.0
C593 C 0.68786 0.09082 0.6568 0.0
C594 C 0.76217 0.15128 0.64176 0.0
C595 C 0.77205 0.10969 0.66551 0.0
C596 C 0.6974 0.05313 0.68149 0.0
C597 C 0.64555 1.0316 0.68408 0.0
N598 N 0.63688 0.0678 0.65909 0.0
C599 C 0.61599 1.03994 0.67287 0.0
H600 H 0.57708 1.0254 0.67581 0.0
C601 C 0.69798 0.16712 0.62177 0.0
N602 N 0.67821 0.13292 0.63424 0.0
C603 C 0.7502 0.19425 0.61901 0.0
C604 C 0.78248 0.18632 0.62905 0.0
H605 H 0.67362 0.17373 0.61383 0.0
H606 H 0.79669 0.10471 0.67389 0.0
H607 H 0.44662 0.12486 0.64713 0.0
H608 H 0.72031 1.04712 0.69032 0.0
H609 H 0.62834 1.00925 0.69489 0.0
H610 H 0.83415 0.1635 0.65092 0.0
H611 H 0.56036 0.06329 0.70124 0.0
H612 H 0.30231 1.03435 0.66997 0.0
H613 H 0.354 0.09107 0.64762 0.0
H614 H 0.34176 0.96691 0.71691 0.0
H615 H 0.7655 0.22138 0.60916 0.0
H616 H 0.82299 0.20775 0.62698 0.0
H617 H 0.29825 0.98877 0.69591 0.0
H618 H 0.51456 1.0078 0.72463 0.0
N619 N 0.44646 0.08535 0.66842 0.0
C620 C 0.34274 1.0484 0.66967 0.0
C621 C 0.37178 0.08036 0.65701 0.0
C622 C 0.36621 1.0352 0.68186 0.0
C623 C 0.41885 0.05431 0.68087 0.0
C624 C 0.42404 0.09898 0.65665 0.0
N625 N 0.49401 0.05836 0.69096 0.0
C626 C 0.44328 1.04121 0.69266 0.0
C627 C 0.49415 1.01667 0.71566 0.0
C628 C 0.44202 0.99767 0.71738 0.0
C629 C 0.51992 1.04766 0.70238 0.0
C630 C 0.4159 1.0098 0.70581 0.0
H631 H 0.42231 0.97368 0.72768 0.0
O632 O 0.56184 0.16475 0.69122 0.0
O633 O 0.60953 0.14404 0.6572 0.0
O634 O 0.53017 1.00363 0.64962 0.0
O635 O 0.49395 1.02651 0.67022 0.0
O636 O 0.61183 0.14127 0.68173 0.0
O637 O 0.50848 0.17151 0.67582 0.0
O638 O 0.60567 0.08278 0.61309 0.0
O639 O 0.51583 0.07095 0.64691 0.0
O640 O 0.54428 0.16986 0.64801 0.0
O641 O 0.60092 0.15992 0.63126 0.0
O642 O 0.53296 0.08812 0.62296 0.0
O643 O 0.58327 1.01539 0.62738 0.0
C644 C 0.64073 0.15775 0.66901 0.0
C645 C 0.36352 0.99123 0.70691 0.0
C646 C 0.33873 1.00368 0.69494 0.0
C647 C 0.53353 0.18551 0.68953 0.0
C648 C 0.5065 0.18717 0.70472 0.0
C649 C 0.48459 0.14455 0.71492 0.0
C650 C 0.50674 0.23172 0.71032 0.0
C651 C 0.48309 0.23115 0.72541 0.0
C652 C 0.45884 0.14301 0.72904 0.0
C653 C 0.45765 0.18572 0.73417 0.0
C654 C 0.49531 0.98995 0.66146 0.0
C655 C 0.49704 0.0745 0.6334 0.0
C656 C 0.58977 1.0346 0.61281 0.0
C657 C 0.5502 1.00453 0.60071 0.0
C658 C 0.52408 1.02461 0.59213 0.0
C659 C 0.53792 0.9545 0.59782 0.0
C660 C 0.50008 0.92448 0.58657 0.0
C661 C 0.48528 0.99435 0.58134 0.0
C662 C 0.47297 0.94428 0.57862 0.0
C663 C 0.57505 0.18326 0.63505 0.0
H664 H 0.48944 0.1129 0.71255 0.0
H665 H 0.52669 0.26658 0.70345 0.0
H666 H 0.44165 0.10909 0.73644 0.0
H667 H 0.4392 0.18412 0.74561 0.0
H668 H 0.5333 0.06351 0.59371 0.0
H669 H 0.55832 0.939 0.60423 0.0
H670 H 0.46501 1.00991 0.57495 0.0
H671 H 0.44367 0.92172 0.56991 0.0
Gd672 Gd 0.45299 0.51657 0.83825 0.0
Gd673 Gd 0.55006 0.57701 0.80966 0.0
C674 C 0.67523 0.70304 0.83965 0.0
C675 C 0.69067 0.77821 0.82471 0.0
C676 C 0.62437 0.69498 0.81596 0.0
C677 C 0.63647 0.67264 0.82857 0.0
C678 C 0.65076 0.74817 0.81412 0.0
C679 C 0.70292 0.7557 0.83743 0.0
C680 C 0.68359 0.67991 0.85306 0.0
C681 C 0.6526 0.62806 0.85548 0.0
N682 N 0.60778 0.6218 0.83075 0.0
C683 C 0.61455 0.59957 0.84424 0.0
H684 H 0.59006 0.56017 0.8468 0.0
C685 C 0.56944 0.68624 0.79434 0.0
N686 N 0.58459 0.66511 0.80622 0.0
C687 C 0.5942 0.73868 0.79217 0.0
C688 C 0.6352 0.76979 0.80204 0.0
H689 H 0.53924 0.66287 0.78608 0.0
H690 H 0.7329 0.7795 0.84579 0.0
H691 H 0.39224 0.39136 0.8338 0.0
H692 H 0.71273 0.70196 0.86188 0.0
H693 H 0.65759 0.61003 0.86611 0.0
H694 H 0.7114 0.81904 0.82344 0.0
H695 H 0.534 0.61877 0.86164 0.0
H696 H 0.40225 0.32523 0.8787 0.0
H697 H 0.36979 0.31534 0.8506 0.0
H698 H 0.51001 0.46914 0.91137 0.0
H699 H 0.58199 0.75503 0.78274 0.0
H700 H 0.65423 0.81045 0.80035 0.0
H701 H 0.45459 0.38284 0.90128 0.0
H702 H 0.57181 0.63423 0.88856 0.0
N703 N 0.43654 0.44294 0.85232 0.0
C704 C 0.41187 0.35853 0.87144 0.0
C705 C 0.39359 0.35276 0.85556 0.0
C706 C 0.44276 0.40716 0.87773 0.0
C707 C 0.45418 0.44934 0.8678 0.0
C708 C 0.40615 0.39562 0.84613 0.0
N709 N 0.49543 0.53824 0.86359 0.0
C710 C 0.48525 0.49826 0.87348 0.0
C711 C 0.5475 0.59577 0.88448 0.0
C712 C 0.53752 0.55528 0.89467 0.0
C713 C 0.52577 0.58659 0.86901 0.0
C714 C 0.50593 0.50582 0.88928 0.0
H715 H 0.55426 0.56262 0.90669 0.0
O716 O 0.3976 0.51168 0.85616 0.0
O717 O 0.5189 0.59449 0.83162 0.0
O718 O 0.56785 0.51637 0.82108 0.0
O719 O 0.49796 0.4708 0.83765 0.0
O720 O 0.45746 0.59398 0.84118 0.0
O721 O 0.37198 0.46876 0.8338 0.0
O722 O 0.5808 0.60411 0.78563 0.0
O723 O 0.48524 0.5009 0.8157 0.0
O724 O 0.41552 0.52592 0.81523 0.0
O725 O 0.48449 0.58698 0.80061 0.0
O726 O 0.491 0.52265 0.79221 0.0
O727 O 0.61065 0.56586 0.80018 0.0
C728 C 0.50017 0.62357 0.83437 0.0
C729 C 0.49451 0.46391 0.89921 0.0
C730 C 0.46291 0.41476 0.89348 0.0
C731 C 0.35853 0.47886 0.84786 0.0
C732 C 0.31535 0.43694 0.85709 0.0
C733 C 0.29468 0.38676 0.85174 0.0
C734 C 0.29177 0.44685 0.87055 0.0
C735 C 0.24848 0.40684 0.87842 0.0
C736 C 0.25391 0.34736 0.85981 0.0
C737 C 0.23125 0.3571 0.87297 0.0
C738 C 0.54128 0.47693 0.83111 0.0
C739 C 0.46709 0.48395 0.8016 0.0
C740 C 0.60796 0.58211 0.78575 0.0
C741 C 0.60008 0.54769 0.77205 0.0
C742 C 0.55661 0.52819 0.76216 0.0
C743 C 0.63617 0.5331 0.76905 0.0
C744 C 0.62952 0.49963 0.75632 0.0
C745 C 0.54893 0.49341 0.74989 0.0
C746 C 0.58514 0.47894 0.74698 0.0
C747 C 0.43485 0.56001 0.8033 0.0
H748 H 0.30955 0.37765 0.84113 0.0
H749 H 0.30595 0.48551 0.87448 0.0
H750 H 0.23918 0.30884 0.85566 0.0
H751 H 0.19967 0.32521 0.87887 0.0
H752 H 0.52836 0.53942 0.76391 0.0
H753 H 0.66989 0.54834 0.77655 0.0
H754 H 0.51509 0.47806 0.7425 0.0
H755 H 0.57931 0.45306 0.73712 0.0
Gd756 Gd 0.99427 0.42853 1.00353 0.0
Gd757 Gd 1.03349 0.5319 0.97622 0.0
C758 C 1.02959 0.65289 0.00881 0.0
C759 C 0.97382 0.67341 0.99363 0.0
C760 C 0.99262 0.60925 0.98364 0.0
C761 C 1.02398 0.61738 0.99675 0.0
C762 C 0.96696 0.63701 0.98197 0.0
C763 C 1.00505 0.68131 0.00704 0.0
C764 C 1.05822 0.65763 0.02261 0.0
C765 C 0.07845 0.62588 0.02451 0.0
N766 N 1.04638 0.58846 0.99824 0.0
C767 C 1.0713 0.5909 0.01237 0.0
H768 H 0.08429 0.56494 0.01497 0.0
C769 C 0.95376 0.56284 0.95988 0.0
N770 N 0.98541 0.5727 0.97287 0.0
C771 C 0.92794 0.58962 0.95764 0.0
C772 C 0.93454 0.6269 0.96873 0.0
H773 H 0.9474 0.53376 0.95121 0.0
H774 H 1.00919 0.70879 0.01615 0.0
H775 H 1.05083 0.36693 0.98918 0.0
H776 H 1.06326 0.68426 0.03215 0.0
H777 H 0.09866 0.62744 0.03551 0.0
H778 H 0.95449 0.69505 0.99253 0.0
H779 H 0.99791 0.51162 0.03189 0.0
H780 H 0.13143 0.34673 0.0286 0.0
H781 H 0.10336 0.33194 0.99989 0.0
H782 H 0.11503 0.44393 0.07162 0.0
H783 H 0.9027 0.58121 0.94739 0.0
H784 H 0.91412 0.64728 0.96706 0.0
H785 H 0.13487 0.38804 0.05545 0.0
H786 H 1.02879 0.53619 0.05984 0.0
N787 N 1.05121 0.4021 0.01144 0.0
C788 C 0.10869 0.36225 0.02395 0.0
C789 C 0.09326 0.35415 0.00768 0.0
C790 C 0.0955 0.39117 0.03393 0.0
C791 C 1.06578 0.41035 0.0273 0.0
C792 C 1.06422 0.37445 1.00158 0.0
N793 N 1.02848 0.46252 0.02916 0.0
C794 C 1.05467 0.44218 0.03637 0.0
C795 C 1.03629 0.50968 0.05337 0.0
C796 C 1.06315 0.48918 0.06091 0.0
C797 C 1.01884 0.49562 0.03745 0.0
C798 C 1.0729 0.45518 0.0524 0.0
H799 H 0.07659 0.50023 0.07324 0.0
O800 O 0.93705 0.37648 0.02075 0.0
O801 O 0.97816 0.48937 0.9953 0.0
O802 O 0.11046 0.55204 0.98925 0.0
O803 O 0.08454 0.47809 1.00441 0.0
O804 O 0.93484 0.44863 0.0138 0.0
O805 O 0.95524 0.34692 0.99963 0.0
O806 O 1.02175 0.52525 0.9503 0.0
O807 O 1.02639 0.4551 0.97835 0.0
O808 O 0.95215 0.39623 0.97941 0.0
O809 O 0.95721 0.46742 0.96716 0.0
O810 O 0.09217 0.5125 0.96827 0.0
O811 O 0.07867 0.59667 0.96064 0.0
C812 C 0.94054 0.48382 1.00385 0.0
C813 C 0.10099 0.43461 0.05928 0.0
C814 C 0.11224 0.40269 0.05008 0.0
C815 C 0.93042 0.33587 0.01339 0.0
C816 C 0.92905 0.29443 0.02372 0.0
C817 C 0.95856 0.27263 0.01925 0.0
C818 C 0.89629 0.27402 0.03749 0.0
C819 C 0.89343 0.23241 0.04635 0.0
C820 C 0.95725 0.2333 0.02826 0.0
C821 C 0.9251 0.21335 0.04161 0.0
C822 C 0.12181 0.52308 0.99892 0.0
C823 C 1.06832 0.46485 0.97169 0.0
C824 C 1.06045 0.56973 0.9474 0.0
C825 C 0.09703 0.57084 0.93535 0.0
C826 C 0.08302 0.53134 0.92407 0.0
C827 C 0.14654 0.61155 0.9351 0.0
C828 C 0.18166 0.61445 0.92345 0.0
C829 C 0.11828 0.53284 0.91288 0.0
C830 C 0.16734 0.57429 0.91247 0.0
C831 C 0.93627 0.41741 0.96837 0.0
H832 H 0.98225 0.28523 0.00855 0.0
H833 H 0.87205 0.28915 0.0409 0.0
H834 H 0.98067 0.21742 0.02468 0.0
H835 H 0.92454 0.18222 0.04819 0.0
H836 H 1.04494 0.49922 0.92392 0.0
H837 H 0.15768 0.64142 0.944 0.0
H838 H 0.10728 0.50218 0.90431 0.0
H839 H 0.19341 0.5755 0.90328 0.0
Gd840 Gd 0.61749 0.9716 0.17049 0.0
Gd841 Gd 0.55728 1.01092 0.14156 0.0
C842 C 0.428 0.99633 0.17365 0.0
C843 C 0.35387 0.93807 0.15813 0.0
C844 C 0.43843 0.96334 0.14804 0.0
C845 C 0.45957 0.9936 0.16157 0.0
C846 C 0.3853 0.93539 0.14615 0.0
C847 C 0.37517 0.96843 0.17185 0.0
C848 C 0.45041 1.02673 0.18727 0.0
C849 C 0.50298 0.05322 0.18866 0.0
N850 N 0.51081 1.01936 0.16314 0.0
C851 C 0.53268 1.04896 0.17647 0.0
H852 H 0.57289 0.06843 0.17818 0.0
C853 C 0.45019 0.93086 0.12334 0.0
N854 N 0.46967 0.96006 0.13694 0.0
C855 C 0.39787 0.9029 0.12088 0.0
C856 C 0.36524 0.90503 0.13236 0.0
H857 H 0.47492 0.92899 0.11429 0.0
H858 H 0.35044 0.96999 0.18103 0.0
H859 H 0.7396 1.03037 0.16048 0.0
H860 H 0.4275 1.02976 0.19681 0.0
H861 H 0.52073 0.07645 0.19924 0.0
H862 H 0.31303 0.91662 0.15692 0.0
H863 H 0.52847 0.97201 0.19619 0.0
H864 H 0.82565 0.10535 0.20302 0.0
H865 H 0.82259 0.08129 0.17414 0.0
H866 H 0.69818 0.08262 0.24171 0.0
H867 H 0.38276 0.87963 0.11015 0.0
H868 H 0.32468 0.88296 0.1305 0.0
H869 H 0.77885 0.10486 0.22828 0.0
H870 H 0.52543 0.99877 0.22396 0.0
N871 N 0.69717 1.02656 0.18145 0.0
C872 C 0.78935 0.083 0.19712 0.0
C873 C 0.78781 0.06976 0.18078 0.0
C874 C 0.74408 0.0682 0.20556 0.0
C875 C 0.69785 1.03919 0.19733 0.0
C876 C 0.74104 1.04122 0.17307 0.0
N877 N 0.60829 1.00071 0.19621 0.0
C878 C 0.6521 1.02656 0.20484 0.0
C879 C 0.56129 1.00657 0.21877 0.0
C880 C 0.60564 1.03205 0.22786 0.0
C881 C 0.56328 0.99116 0.20291 0.0
C882 C 0.65186 1.04281 0.22089 0.0
H883 H 0.60387 1.04398 0.24013 0.0
O884 O 0.61871 0.91699 0.18747 0.0
O885 O 0.54141 0.95681 0.16169 0.0
O886 O 0.61998 0.08758 0.15302 0.0
O887 O 0.66268 0.06202 0.17057 0.0
O888 O 0.53798 0.91132 0.17986 0.0
O889 O 0.66081 0.93382 0.16498 0.0
O890 O 0.54074 1.0215 0.11676 0.0
O891 O 0.63223 1.01923 0.14792 0.0
O892 O 0.60231 0.92306 0.14734 0.0
O893 O 0.54342 0.93466 0.1324 0.0
O894 O 0.61186 1.00677 0.12403 0.0
O895 O 0.56381 0.08242 0.13417 0.0
C896 C 0.50924 0.91762 0.16974 0.0
C897 C 0.69775 0.07017 0.22935 0.0
C898 C 0.74372 0.08279 0.22171 0.0
C899 C 0.65024 0.90943 0.17887 0.0
C900 C 0.69162 0.90631 0.18785 0.0
C901 C 0.74175 0.9341 0.18225 0.0
C902 C 0.68118 0.87323 0.20146 0.0
C903 C 0.72065 0.86857 0.2092 0.0
C904 C 0.7807 0.93133 0.19018 0.0
C905 C 0.77045 0.89928 0.20348 0.0
C906 C 0.65801 0.0995 0.16356 0.0
C907 C 0.64884 1.01721 0.13383 0.0
C908 C 0.55703 0.06945 0.11886 0.0
C909 C 0.5965 0.1045 0.1075 0.0
C910 C 0.62082 0.0881 0.09652 0.0
C911 C 0.61009 0.15553 0.10772 0.0
C912 C 0.64587 0.19004 0.09666 0.0
C913 C 0.65815 0.1226 0.086 0.0
C914 C 0.67062 0.17336 0.086 0.0
C915 C 0.56892 0.91039 0.13521 0.0
H916 H 0.75117 0.95781 0.17157 0.0
H917 H 0.6425 0.85018 0.20562 0.0
H918 H 0.81922 0.95378 0.18583 0.0
H919 H 0.80197 0.89844 0.20927 0.0
H920 H 0.61124 1.04882 0.09601 0.0
H921 H 0.59166 0.16813 0.11631 0.0
H922 H 0.67687 0.10978 0.07764 0.0
H923 H 0.69806 0.19894 0.07726 0.0
Gd924 Gd 0.69977 0.59677 0.33542 0.0
Gd925 Gd 0.59472 0.53239 0.30889 0.0
C926 C 0.47697 0.40832 0.34239 0.0
C927 C 0.45646 0.33206 0.32732 0.0
C928 C 0.51924 0.4147 0.31688 0.0
C929 C 0.51154 0.43802 0.33006 0.0
C930 C 0.49191 0.36142 0.31538 0.0
C931 C 0.44904 0.35546 0.34081 0.0
C932 C 0.47262 0.43233 0.35622 0.0
C933 C 0.5038 0.48429 0.35787 0.0
N934 N 0.53992 0.48927 0.33135 0.0
C935 C 0.53784 0.51196 0.34547 0.0
H936 H 0.56341 0.55098 0.34786 0.0
C937 C 0.56414 0.42208 0.29268 0.0
N938 N 0.55492 0.44386 0.30582 0.0
C939 C 0.53773 0.3696 0.2906 0.0
C940 C 0.50145 0.33907 0.30201 0.0
H941 H 0.59231 0.44478 0.28374 0.0
H942 H 0.42228 0.33227 0.35012 0.0
H943 H 0.75964 0.71421 0.32067 0.0
H944 H 0.44671 0.41089 0.36595 0.0
H945 H 0.50251 0.50307 0.36887 0.0
H946 H 0.43517 0.29117 0.32636 0.0
H947 H 0.61846 0.51821 0.36434 0.0
H948 H 0.78208 0.81557 0.36003 0.0
H949 H 0.79494 0.8017 0.33117 0.0
H950 H 0.68812 0.70326 0.40374 0.0
H951 H 0.54561 0.35275 0.28024 0.0
H952 H 0.48134 0.29836 0.30046 0.0
H953 H 0.74271 0.77841 0.38719 0.0
H954 H 0.59557 0.52509 0.39249 0.0
N955 N 0.72622 0.68003 0.3432 0.0
C956 C 0.76643 0.77733 0.35547 0.0
C957 C 0.77343 0.76967 0.33912 0.0
C958 C 0.73837 0.73557 0.36565 0.0
C959 C 0.71899 0.68669 0.35913 0.0
C960 C 0.75294 0.72034 0.33314 0.0
N961 N 0.66726 0.59755 0.36132 0.0
C962 C 0.68789 0.64408 0.36842 0.0
C963 C 0.62162 0.55885 0.38585 0.0
C964 C 0.64248 0.60621 0.39329 0.0
C965 C 0.63472 0.55514 0.36981 0.0
C966 C 0.67586 0.64964 0.38455 0.0
H967 H 0.63218 0.60887 0.40571 0.0
O968 O 0.75333 0.59243 0.35226 0.0
O969 O 0.63858 0.51974 0.32761 0.0
O970 O 0.57513 0.58946 0.32209 0.0
O971 O 0.65 0.63754 0.33671 0.0
O972 O 0.6806 0.51773 0.34581 0.0
O973 O 0.78116 0.63892 0.33084 0.0
O974 O 0.59909 0.52742 0.2828 0.0
O975 O 0.6715 0.60179 0.31047 0.0
O976 O 0.73075 0.58673 0.31102 0.0
O977 O 0.65906 0.52103 0.29903 0.0
O978 O 0.61349 0.61016 0.30087 0.0
O979 O 0.52793 0.51084 0.29415 0.0
C980 C 0.64483 0.48798 0.33613 0.0
C981 C 0.69669 0.6983 0.39132 0.0
C982 C 0.72788 0.74113 0.3819 0.0
C983 C 0.79339 0.62581 0.34451 0.0
C984 C 0.83568 0.66628 0.35442 0.0
C985 C 0.85592 0.71724 0.34991 0.0
C986 C 0.8582 0.65478 0.36783 0.0
C987 C 0.90007 0.69407 0.37641 0.0
C988 C 0.89517 0.75575 0.35869 0.0
C989 C 0.91682 0.74446 0.37177 0.0
C990 C 0.60462 0.62985 0.33155 0.0
C991 C 0.66141 0.63388 0.3039 0.0
C992 C 0.55351 0.51977 0.28056 0.0
C993 C 0.54981 0.55387 0.26863 0.0
C994 C 0.57062 0.55894 0.25306 0.0
C995 C 0.52621 0.58186 0.27266 0.0
C996 C 0.51812 0.61052 0.26083 0.0
C997 C 0.56639 0.59034 0.24157 0.0
C998 C 0.53954 0.61522 0.24526 0.0
C999 C 0.70916 0.54996 0.29997 0.0
H1000 H 0.84202 0.72774 0.3394 0.0
H1001 H 0.84431 0.61566 0.37119 0.0
H1002 H 0.90951 0.79479 0.35515 0.0
H1003 H 0.94731 0.77567 0.37825 0.0
H1004 H 0.59003 0.5385 0.2498 0.0
H1005 H 0.51286 0.57998 0.28497 0.0
H1006 H 0.58235 0.59393 0.22955 0.0
H1007 H 0.53389 0.63613 0.23564 0.0
H1008 H 1.02519 0.69172 0.22544 0.0
H1009 H 0.1441 0.66107 0.21255 0.0
H1010 H 0.08117 0.75432 0.24521 0.0
H1011 H 0.2002 0.7228 0.23219 0.0
H1012 H 0.29941 0.85767 0.26656 0.0
H1013 H 0.2506 0.80418 0.24356 0.0
H1014 H 0.11245 0.75388 0.27092 0.0
H1015 H 0.16105 0.80822 0.29336 0.0
C1016 C 1.06415 0.70011 0.22622 0.0
C1017 C 0.08065 0.67295 0.21664 0.0
C1018 C 0.09615 0.73521 0.23792 0.0
C1019 C 0.14558 0.74358 0.24073 0.0
C1020 C 0.16305 0.71857 0.23041 0.0
C1021 C 0.13097 0.68357 0.21872 0.0
C1022 C 0.2587 0.83442 0.2677 0.0
C1023 C 0.23425 0.83721 0.28186 0.0
C1024 C 0.23045 0.80384 0.25444 0.0
C1025 C 0.17691 0.77516 0.25499 0.0
C1026 C 0.15313 0.77644 0.26956 0.0
C1027 C 0.18118 0.80707 0.28265 0.0
H1028 H 0.38229 0.11994 0.4625 0.0
H1029 H 0.49536 0.26024 0.44097 0.0
H1030 H 0.38522 0.07356 0.43898 0.0
H1031 H 0.50037 0.21324 0.4175 0.0
H1032 H 0.47154 0.12667 0.37055 0.0
H1033 H 0.45873 0.16923 0.39366 0.0
H1034 H 0.42778 1.04142 0.42416 0.0
H1035 H 0.43907 0.99873 0.4008 0.0
C1036 C 0.40831 0.14107 0.45277 0.0
C1037 C 0.43808 0.19433 0.4537 0.0
C1038 C 0.41029 0.11411 0.43921 0.0
C1039 C 0.4425 0.13909 0.42596 0.0
C1040 C 0.47398 0.19228 0.42715 0.0
C1041 C 0.47184 0.21943 0.4408 0.0
C1042 C 0.45903 0.10645 0.38199 0.0
C1043 C 0.45436 0.05827 0.38357 0.0
C1044 C 0.45329 0.13164 0.39547 0.0
C1045 C 0.44318 0.10975 0.41112 0.0
C1046 C 0.43502 0.0599 0.41244 0.0
C1047 C 0.4405 1.03463 0.39889 0.0
H1048 H 0.30664 0.35033 0.62853 0.0
H1049 H 0.28138 0.46579 0.60761 0.0
H1050 H 0.35788 0.35505 0.60525 0.0
H1051 H 0.3349 0.47225 0.58437 0.0
H1052 H 0.39476 0.44528 0.53749 0.0
H1053 H 0.33774 0.43041 0.56031 0.0
H1054 H 0.43488 0.40102 0.59125 0.0
H1055 H 0.49085 0.41476 0.56818 0.0
C1056 C 0.31233 0.3772 0.61899 0.0
C1057 C 0.289 0.40725 0.62 0.0
C1058 C 0.3423 0.38016 0.60558 0.0
C1059 C 0.35052 0.41353 0.59259 0.0
C1060 C 0.32875 0.44509 0.59385 0.0
C1061 C 0.29858 0.44207 0.60736 0.0
C1062 C 0.40235 0.4328 0.54895 0.0
C1063 C 0.44646 0.42924 0.55075 0.0
C1064 C 0.37038 0.42578 0.56225 0.0
C1065 C 0.3817 0.41544 0.57793 0.0
C1066 C 0.42413 0.40847 0.57947 0.0
C1067 C 0.456 0.41534 0.5661 0.0
H1068 H 0.1228 0.4658 0.73441 0.0
H1069 H 0.998 0.36556 0.704 0.0
H1070 H 0.08047 0.41254 0.75794 0.0
H1071 H 0.95585 0.31104 0.72733 0.0
H1072 H 0.86288 0.26024 0.77449 0.0
H1073 H 0.91017 0.31069 0.75079 0.0
H1074 H 1.04999 0.33789 0.77304 0.0
H1075 H 1.00327 0.28998 0.79676 0.0
C1076 C 0.08785 0.43051 0.73253 0.0
C1077 C 1.06487 0.41909 0.71712 0.0
C1078 C 1.06277 0.40021 0.74616 0.0
C1079 C 1.01381 0.35743 0.74481 0.0
C1080 C 0.99275 0.34406 0.7291 0.0
C1081 C 1.01775 0.37452 0.71554 0.0
C1082 C 0.90376 0.27772 0.77442 0.0
C1083 C 0.92887 0.27031 0.78759 0.0
C1084 C 0.93105 0.30609 0.76067 0.0
C1085 C 0.98435 0.3281 0.75967 0.0
C1086 C 1.00932 0.32203 0.77315 0.0
C1087 C 0.9822 0.29395 0.78681 0.0
H1088 H 0.70423 0.10575 0.90189 0.0
H1089 H 0.67537 0.98217 0.87016 0.0
H1090 H 0.716 0.06099 0.92468 0.0
H1091 H 0.68811 0.93753 0.89268 0.0
H1092 H 0.64983 0.84138 0.93903 0.0
H1093 H 0.6441 0.89102 0.91642 0.0
H1094 H 0.76177 1.02797 0.9383 0.0
H1095 H 0.76609 0.9788 0.96093 0.0
C1096 C 0.70358 0.07043 0.89953 0.0
C1097 C 0.6908 1.04864 0.88395 0.0
C1098 C 0.7093 1.04399 0.91273 0.0
C1099 C 0.70216 0.99471 0.91079 0.0
C1100 C 0.69283 0.97465 0.89493 0.0
C1101 C 0.68703 1.00104 0.8818 0.0
C1102 C 0.67377 0.88215 0.93915 0.0
C1103 C 0.70864 0.9057 0.95186 0.0
C1104 C 0.67116 0.91078 0.92601 0.0
C1105 C 0.70315 0.96397 0.92519 0.0
C1106 C 0.73638 0.98745 0.9383 0.0
C1107 C 0.73904 0.95895 0.95133 0.0
H1108 H 0.82609 0.72923 0.12972 0.0
H1109 H 0.86257 0.62636 0.10519 0.0
H1110 H 0.77705 0.72895 0.10651 0.0
H1111 H 0.81057 0.62368 0.08199 0.0
H1112 H 0.75179 0.65918 0.0363 0.0
H1113 H 0.80671 0.66916 0.05928 0.0
H1114 H 0.70392 0.68688 0.09124 0.0
H1115 H 0.65064 0.67885 0.06807 0.0
C1116 C 0.82332 0.706 0.11938 0.0
C1117 C 0.84937 0.67845 0.11938 0.0
C1118 C 0.79449 0.7055 0.10599 0.0
C1119 C 0.78984 0.67691 0.09201 0.0
C1120 C 0.81402 0.64739 0.09225 0.0
C1121 C 0.8433 0.64813 0.10572 0.0
C1122 C 0.7427 0.66843 0.04809 0.0
C1123 C 0.69784 0.67049 0.05013 0.0
C1124 C 0.77337 0.67242 0.06145 0.0
C1125 C 0.75987 0.67796 0.07742 0.0
C1126 C 0.71657 0.68333 0.07927 0.0
C1127 C 0.68621 0.67979 0.06585 0.0
H1128 H 0.42679 0.09181 0.61882 0.0
H1129 H 0.45951 0.9731 0.62969 0.0
H1130 H 0.36314 1.03685 0.5992 0.0
H1131 H 0.3971 0.9182 0.61017 0.0
H1132 H 0.26317 0.82075 0.57559 0.0
H1133 H 0.31583 0.86795 0.59892 0.0
H1134 H 0.36329 1.00818 0.57312 0.0
H1135 H 0.30977 0.96115 0.55035 0.0
C1136 C 0.41852 0.053 0.61775 0.0
C1137 C 0.44659 1.03624 0.62678 0.0
C1138 C 0.38286 1.02164 0.60608 0.0
C1139 C 0.37491 0.9727 0.6027 0.0
C1140 C 0.40082 0.9549 0.61244 0.0
C1141 C 0.43627 0.9863 0.62412 0.0
C1142 C 0.28551 0.86162 0.57488 0.0
C1143 C 0.2821 0.88707 0.56107 0.0
C1144 C 0.31562 0.88892 0.58832 0.0
C1145 C 0.34331 0.94249 0.5883 0.0
C1146 C 0.3414 0.96738 0.57408 0.0
C1147 C 0.3112 0.94025 0.56081 0.0
H1148 H 0.54783 0.28245 0.74963 0.0
H1149 H 0.42553 0.27763 0.72204 0.0
H1150 H 0.53954 0.33562 0.76978 0.0
H1151 H 0.41896 0.33467 0.74166 0.0
H1152 H 0.38689 0.40431 0.78607 0.0
H1153 H 0.39211 0.34562 0.76679 0.0
H1154 H 0.55067 0.40925 0.77851 0.0
H1155 H 0.54434 0.46518 0.79727 0.0
C1156 C 0.52073 0.29506 0.74747 0.0
C1157 C 0.48848 0.27695 0.73392 0.0
C1158 C 0.51552 0.32561 0.75917 0.0
C1159 C 0.47823 0.34013 0.75771 0.0
C1160 C 0.44749 0.32391 0.74363 0.0
C1161 C 0.45211 0.29225 0.73204 0.0
C1162 C 0.42203 0.4036 0.78509 0.0
C1163 C 0.46431 0.43758 0.79431 0.0
C1164 C 0.4256 0.37081 0.77365 0.0
C1165 C 0.47202 0.37183 0.77079 0.0
C1166 C 0.51358 0.40496 0.78043 0.0
C1167 C 0.50975 0.43702 0.79179 0.0
H1168 H 1.0217 0.41802 0.94344 0.0
H1169 H 0.14741 0.44864 0.97446 0.0
H1170 H 1.06511 0.40549 0.92048 0.0
H1171 H 0.19064 0.43473 0.95178 0.0
H1172 H 0.28466 0.47171 0.90504 0.0
H1173 H 0.23633 0.47658 0.92814 0.0
H1174 H 0.09769 0.3623 0.90605 0.0
H1175 H 0.14541 0.35951 0.88284 0.0
C1176 C 1.05722 0.41884 0.94562 0.0
C1177 C 0.08009 0.43263 0.96103 0.0
C1178 C 0.0829 0.41262 0.9323 0.0
C1179 C 0.13243 0.42005 0.93395 0.0
C1180 C 0.15339 0.42993 0.94971 0.0
C1181 C 0.12779 0.43635 0.96295 0.0
C1182 C 0.24383 0.44823 0.905 0.0
C1183 C 0.21946 0.41477 0.89201 0.0
C1184 C 0.21589 0.45032 0.91844 0.0
C1185 C 0.16257 0.41912 0.91935 0.0
C1186 C 0.13832 0.38711 0.90604 0.0
C1187 C 0.16609 0.38515 0.89267 0.0
H1188 H 0.7159 0.99829 0.11778 0.0
H1189 H 0.68963 0.11931 0.13149 0.0
H1190 H 0.77769 0.0535 0.09757 0.0
H1191 H 0.75081 0.1747 0.11162 0.0
H1192 H 0.88063 0.27144 0.07535 0.0
H1193 H 0.83087 0.22365 0.09916 0.0
H1194 H 0.77424 0.08463 0.07201 0.0
H1195 H 0.82461 0.13212 0.0487 0.0
C1196 C 0.72527 1.03754 0.11714 0.0
C1197 C 0.69932 0.05478 0.12702 0.0
C1198 C 0.75986 0.06911 0.10519 0.0
C1199 C 0.76908 0.1189 0.10251 0.0
C1200 C 0.74584 0.13722 0.11325 0.0
C1201 C 0.71122 0.10552 0.12512 0.0
C1202 C 0.85688 0.23075 0.07445 0.0
C1203 C 0.85679 0.20575 0.06006 0.0
C1204 C 0.82845 0.20309 0.08817 0.0
C1205 C 0.79906 0.14959 0.08788 0.0
C1206 C 0.79751 0.12527 0.07315 0.0
C1207 C 0.82593 0.15272 0.05959 0.0
H1208 H 0.70272 0.62944 0.27498 0.0
H1209 H 0.68069 0.73031 0.30606 0.0
H1210 H 0.71506 0.68435 0.25174 0.0
H1211 H 0.69455 0.78648 0.28305 0.0
H1212 H 0.65757 0.84403 0.23627 0.0
H1213 H 0.65181 0.79118 0.2596 0.0
H1214 H 0.76097 0.75932 0.23699 0.0
H1215 H 0.76468 0.80962 0.2136 0.0
C1216 C 0.7038 0.66509 0.27707 0.0
C1217 C 0.69277 0.67631 0.29261 0.0
C1218 C 0.70989 0.69641 0.2636 0.0
C1219 C 0.70511 0.7401 0.26523 0.0
C1220 C 0.69749 0.75292 0.28104 0.0
C1221 C 0.69111 0.72142 0.29444 0.0
C1222 C 0.67971 0.82511 0.23617 0.0
C1223 C 0.71202 0.83198 0.22297 0.0
C1224 C 0.67711 0.79526 0.24973 0.0
C1225 C 0.7066 0.77111 0.25054 0.0
C1226 C 0.73746 0.77675 0.23705 0.0
C1227 C 0.73996 0.80632 0.22357 0.0
H1228 H 0.12407 0.68259 0.44243 0.0
H1229 H 0.99636 0.64978 0.47286 0.0
H1230 H 0.08128 0.6945 0.4192 0.0
H1231 H 0.9537 0.66326 0.44988 0.0
H1232 H 0.8624 0.62741 0.40264 0.0
H1233 H 0.90954 0.62197 0.42601 0.0
H1234 H 1.04917 0.73766 0.40463 0.0
H1235 H 1.00265 0.74102 0.3812 0.0
C1236 C 0.0882 0.6812 0.44441 0.0
C1237 C 1.06463 0.66706 0.45973 0.0
C1238 C 1.06289 0.68706 0.43094 0.0
C1239 C 1.01307 0.67902 0.43235 0.0
C1240 C 0.99127 0.66863 0.44802 0.0
C1241 C 1.0165 0.66249 0.46141 0.0
C1242 C 0.90322 0.65097 0.40281 0.0
C1243 C 0.92828 0.68501 0.38997 0.0
C1244 C 0.93045 0.64858 0.4164 0.0
C1245 C 0.98367 0.68006 0.41759 0.0
C1246 C 1.0086 0.71258 0.4044 0.0
C1247 C 0.98156 0.71482 0.39089 0.0
H1248 H 0.50992 0.62574 0.32918 0.0
H1249 H 0.66529 0.73235 0.34 0.0
H1250 H 0.48814 0.69291 0.33267 0.0
H1251 H 0.6441 0.79978 0.34304 0.0
H1252 H 0.59185 0.92227 0.33044 0.0
H1253 H 0.61746 0.85726 0.32894 0.0
H1254 H 0.4773 0.75014 0.35177 0.0
H1255 H 0.45374 0.816 0.35418 0.0
C1256 C 0.53984 0.66328 0.33239 0.0
C1257 C 0.58983 0.6718 0.33445 0.0
C1258 C 0.52717 0.70258 0.33444 0.0
C1259 C 0.56386 0.75356 0.33822 0.0
C1260 C 0.61394 0.76211 0.34008 0.0
C1261 C 0.62629 0.72254 0.33845 0.0
C1262 C 0.56756 0.88587 0.33599 0.0
C1263 C 0.5217 0.87687 0.34345 0.0
C1264 C 0.58187 0.84744 0.3348 0.0
C1265 C 0.55001 0.79668 0.34021 0.0
C1266 C 0.50372 0.78766 0.34731 0.0
C1267 C 0.4902 0.8263 0.34888 0.0
H1268 H 0.70294 0.51637 0.4821 0.0
H1269 H 0.70221 0.48049 0.53256 0.0
H1270 H 0.79205 0.53846 0.47994 0.0
H1271 H 0.79257 0.50547 0.53077 0.0
H1272 H 0.97364 0.59305 0.52368 0.0
H1273 H 0.88514 0.57315 0.5268 0.0
H1274 H 0.85082 0.50415 0.47948 0.0
H1275 H 0.93889 0.52312 0.47658 0.0
C1276 C 0.72197 0.51472 0.49301 0.0
C1277 C 0.69417 0.49918 0.5078 0.0
C1278 C 0.77388 0.52705 0.49171 0.0
C1279 C 0.80202 0.52469 0.50514 0.0
C1280 C 0.77427 0.50925 0.52001 0.0
C1281 C 0.72178 0.49572 0.52119 0.0
C1282 C 0.94753 0.57342 0.51389 0.0
C1283 C 0.96545 0.55988 0.49986 0.0
C1284 C 0.89574 0.56158 0.51573 0.0
C1285 C 0.85853 0.53665 0.50345 0.0
C1286 C 0.87671 0.52351 0.48937 0.0
C1287 C 0.9281 0.53417 0.48773 0.0
H1288 H 0.46488 0.90442 0.64122 0.0
H1289 H 0.42861 0.9419 0.68774 0.0
H1290 H 0.39494 0.81721 0.64429 0.0
H1291 H 0.35958 0.85447 0.6911 0.0
H1292 H 0.26592 0.67285 0.69791 0.0
H1293 H 0.33236 0.76245 0.69573 0.0
H1294 H 0.30208 0.75937 0.64455 0.0
H1295 H 0.23403 0.67112 0.64707 0.0
C1296 C 0.44239 0.89475 0.65222 0.0
C1297 C 0.45373 0.9329 0.66407 0.0
C1298 C 0.4013 0.84368 0.65399 0.0
C1299 C 0.36948 0.82652 0.66799 0.0
C1300 C 0.38189 0.86426 0.68006 0.0
C1301 C 0.42213 0.9156 0.67807 0.0
C1302 C 0.27116 0.69178 0.68635 0.0
C1303 C 0.24069 0.66375 0.67296 0.0
C1304 C 0.31079 0.74379 0.68495 0.0
C1305 C 0.32437 0.77054 0.66987 0.0
C1306 C 0.2944 0.74198 0.65647 0.0
C1307 C 0.25418 0.69058 0.65797 0.0
H1308 H 0.51261 0.40119 0.85518 0.0
H1309 H 0.60593 0.45516 0.81243 0.0
H1310 H 0.53401 0.33356 0.85815 0.0
H1311 H 0.62544 0.38636 0.81493 0.0
H1312 H 0.61174 0.22461 0.81457 0.0
H1313 H 0.58866 0.29106 0.81262 0.0
H1314 H 0.6063 0.31287 0.86434 0.0
H1315 H 0.63341 0.24894 0.86595 0.0
C1316 C 0.5375 0.39897 0.84627 0.0
C1317 C 0.55668 0.43516 0.83345 0.0
C1318 C 0.55015 0.35955 0.84803 0.0
C1319 C 0.5817 0.35261 0.83679 0.0
C1320 C 0.60073 0.38871 0.82393 0.0
C1321 C 0.58937 0.42903 0.82248 0.0
C1322 C 0.60985 0.24259 0.82569 0.0
C1323 C 0.62164 0.22742 0.84064 0.0
C1324 C 0.59686 0.28176 0.82453 0.0
C1325 C 0.59449 0.30864 0.83829 0.0
C1326 C 0.60613 0.29343 0.85332 0.0
C1327 C 0.6206 0.25511 0.85438 0.0
H1328 H 0.21178 0.61744 0.99583 0.0
H1329 H 0.16406 0.46283 0.00786 0.0
H1330 H 0.30071 0.63923 0.99912 0.0
H1331 H 0.25267 0.48403 0.01072 0.0
H1332 H 0.42646 0.53505 0.99751 0.0
H1333 H 0.33592 0.50945 0.99637 0.0
H1334 H 0.36942 0.65123 0.01802 0.0
H1335 H 0.45882 0.67481 0.02012 0.0
C1336 C 0.21965 0.58771 0.99926 0.0
C1337 C 0.17851 0.53793 1.00171 0.0
C1338 C 0.27159 0.60038 1.0012 0.0
C1339 C 0.28613 0.56388 1.00525 0.0
C1340 C 0.24493 0.51402 0.00752 0.0
C1341 C 0.19305 0.50169 1.00601 0.0
C1342 C 0.41449 0.55969 1.00292 0.0
C1343 C 0.45147 0.60602 0.00997 0.0
C1344 C 0.36179 0.5454 1.00191 0.0
C1345 C 0.34305 0.57771 0.00709 0.0
C1346 C 0.38042 0.62445 0.01378 0.0
C1347 C 0.43256 0.63798 0.01516 0.0
H1348 H 0.88381 0.42035 0.19738 0.0
H1349 H 0.91806 0.41601 0.14698 0.0
H1350 H 0.81783 0.33019 0.19612 0.0
H1351 H 0.84972 0.32755 0.14533 0.0
H1352 H 0.68116 0.1855 0.14465 0.0
H1353 H 0.75035 0.27325 0.14708 0.0
H1354 H 0.80068 0.23472 0.19088 0.0
H1355 H 0.73286 0.14597 0.18796 0.0
C1356 C 0.87874 0.40023 0.1861 0.0
C1357 C 0.90959 0.4267 0.17254 0.0
C1358 C 0.83959 0.34792 0.18526 0.0
C1359 C 0.827 0.31945 0.17058 0.0
C1360 C 0.85698 0.34651 0.15696 0.0
C1361 C 0.89699 0.39807 0.15795 0.0
C1362 C 0.7068 0.19498 0.15483 0.0
C1363 C 0.69997 0.15628 0.16597 0.0
C1364 C 0.74728 0.24629 0.15624 0.0
C1365 C 0.78274 0.26316 0.16922 0.0
C1366 C 0.77509 0.22487 0.18065 0.0
C1367 C 0.73557 0.17305 0.17893 0.0
H1368 H 0.20117 0.5302 0.51278 0.0
H1369 H 0.30783 0.66846 0.48921 0.0
H1370 H 0.26623 0.50464 0.51439 0.0
H1371 H 0.37375 0.64497 0.49177 0.0
H1372 H 0.4978 0.61206 0.51468 0.0
H1373 H 0.43065 0.63388 0.51107 0.0
H1374 H 0.324 0.47825 0.5003 0.0
H1375 H 0.3914 0.45703 0.50346 0.0
C1376 C 0.23767 0.55454 0.50728 0.0
C1377 C 0.24677 0.60042 0.49983 0.0
C1378 C 0.27613 0.54026 0.50856 0.0
C1379 C 0.327 0.57217 0.50323 0.0
C1380 C 0.33613 0.6185 0.49615 0.0
C1381 C 0.29746 0.63199 0.4945 0.0
C1382 C 0.46032 0.58223 0.51136 0.0
C1383 C 0.45184 0.53231 0.50922 0.0
C1384 C 0.42103 0.59492 0.50924 0.0
C1385 C 0.37013 0.55833 0.50531 0.0
C1386 C 0.36161 0.50834 0.50337 0.0
C1387 C 0.40117 0.49597 0.50507 0.0
H1388 H 0.70144 0.2314 0.64534 0.0
H1389 H 0.71041 0.18947 0.69455 0.0
H1390 H 0.79014 0.3003 0.6468 0.0
H1391 H 0.7976 0.26065 0.69649 0.0
H1392 H 0.93784 0.42974 0.69942 0.0
H1393 H 0.85083 0.35847 0.69706 0.0
H1394 H 0.88591 0.3235 0.64985 0.0
H1395 H 0.9737 0.39378 0.65252 0.0
C1396 C 0.72221 0.23572 0.65642 0.0
C1397 C 0.69729 0.20189 0.66955 0.0
C1398 C 0.7738 0.27646 0.65738 0.0
C1399 C 0.80331 0.28776 0.67181 0.0
C1400 C 0.77781 0.25472 0.68507 0.0
C1401 C 0.72691 0.21306 0.68392 0.0
C1402 C 0.92746 0.40736 0.68841 0.0
C1403 C 0.96478 0.41945 0.67616 0.0
C1404 C 0.87673 0.36546 0.68708 0.0
C1405 C 0.8591 0.3335 0.67319 0.0
C1406 C 0.8962 0.34619 0.66079 0.0
C1407 C 0.9475 0.38715 0.66235 0.0
H1408 H 0.50769 0.92054 0.84667 0.0
H1409 H 0.66419 0.96785 0.83793 0.0
H1410 H 0.48593 0.83161 0.84311 0.0
H1411 H 0.64301 0.8794 0.83501 0.0
H1412 H 0.58604 0.7047 0.84964 0.0
H1413 H 0.61115 0.79493 0.85108 0.0
H1414 H 0.48117 0.7656 0.82247 0.0
H1415 H 0.45839 0.67634 0.82012 0.0
C1416 C 0.53784 0.91259 0.84394 0.0
C1417 C 0.5882 0.95355 0.84248 0.0
C1418 C 0.5252 0.86075 0.84187 0.0
C1419 C 0.56229 0.84629 0.83874 0.0
C1420 C 0.61263 0.88725 0.83746 0.0
C1421 C 0.62497 0.93901 0.83903 0.0
C1422 C 0.56414 0.71755 0.84286 0.0
C1423 C 0.52171 0.68195 0.83374 0.0
C1424 C 0.57809 0.77 0.84399 0.0
C1425 C 0.54879 0.78967 0.83688 0.0
C1426 C 0.50553 0.75366 0.82819 0.0
C1427 C 0.49257 0.70173 0.82667 0.0
H1428 H 0.68059 0.52778 0.03266 0.0
H1429 H 0.72036 0.60207 0.98616 0.0
H1430 H 0.75005 0.50914 0.03028 0.0
H1431 H 0.78946 0.58249 0.98355 0.0
H1432 H 0.88049 0.48971 0.97844 0.0
H1433 H 0.81517 0.51503 0.9796 0.0
H1434 H 0.84272 0.54374 0.03081 0.0
H1435 H 0.90988 0.52161 0.02928 0.0
C1436 C 0.70356 0.53989 0.02175 0.0
C1437 C 0.69308 0.56668 0.00962 0.0
C1438 C 0.74448 0.52942 0.02042 0.0
C1439 C 0.77722 0.54387 0.00667 0.0
C1440 C 0.76615 0.56991 0.99438 0.0
C1441 C 0.72594 0.58156 0.99592 0.0
C1442 C 0.87504 0.50431 0.98977 0.0
C1443 C 0.9044 0.50649 1.00348 0.0
C1444 C 0.83601 0.5179 0.99058 0.0
C1445 C 0.82198 0.53211 1.00536 0.0
C1446 C 0.85085 0.53329 0.01909 0.0
C1447 C 0.8905 0.52092 0.01817 0.0
H1448 H 0.44304 0.85697 0.14445 0.0
H1449 H 0.44155 0.88815 0.19523 0.0
H1450 H 0.35252 0.79193 0.14599 0.0
H1451 H 0.35266 0.82116 0.19711 0.0
H1452 H 0.21015 0.65435 0.19828 0.0
H1453 H 0.29787 0.72348 0.19542 0.0
H1454 H 0.2577 0.77324 0.15181 0.0
H1455 H 0.16909 0.70541 0.15512 0.0
C1456 C 0.42334 0.85183 0.15585 0.0
C1457 C 0.45064 0.88172 0.16942 0.0
C1458 C 0.37086 0.81311 0.15686 0.0
C1459 C 0.34314 0.79987 0.17173 0.0
C1460 C 0.37098 0.82899 0.18534 0.0
C1461 C 0.42272 0.86846 0.1842 0.0
C1462 C 0.21931 0.67981 0.18803 0.0
C1463 C 0.18028 0.6728 0.17706 0.0
C1464 C 0.27057 0.72028 0.18639 0.0
C1465 C 0.28693 0.75558 0.17333 0.0
C1466 C 0.24826 0.74777 0.16207 0.0
C1467 C 0.19653 0.70822 0.16402 0.0
H1468 H 0.60825 0.42088 0.36198 0.0
H1469 H 0.63749 0.42065 0.31099 0.0
H1470 H 0.58607 0.33183 0.36394 0.0
H1471 H 0.61227 0.33028 0.31261 0.0
H1472 H 0.52667 0.14965 0.31985 0.0
H1473 H 0.54643 0.23809 0.31691 0.0
H1474 H 0.61868 0.27243 0.36375 0.0
H1475 H 0.59968 0.18441 0.36648 0.0
C1476 C 0.60837 0.40165 0.35093 0.0
C1477 C 0.62207 0.42922 0.33608 0.0
C1478 C 0.59598 0.34973 0.3521 0.0
C1479 C 0.59644 0.32129 0.33848 0.0
C1480 C 0.60996 0.34878 0.32354 0.0
C1481 C 0.62353 0.40129 0.32247 0.0
C1482 C 0.54694 0.17574 0.32958 0.0
C1483 C 0.56134 0.1578 0.34342 0.0
C1484 C 0.55873 0.22752 0.32784 0.0
C1485 C 0.58453 0.26476 0.34004 0.0
C1486 C 0.59858 0.24656 0.35392 0.0
C1487 C 0.58791 0.19517 0.35547 0.0
H1488 H 0.22792 0.78255 0.45866 0.0
H1489 H 0.2676 0.66887 0.44655 0.0
H1490 H 0.28157 0.83592 0.43651 0.0
H1491 H 0.32116 0.72215 0.42436 0.0
H1492 H 0.45297 0.85494 0.39625 0.0
H1493 H 0.39995 0.80098 0.41841 0.0
H1494 H 0.28596 0.8408 0.40672 0.0
H1495 H 0.33909 0.89488 0.38459 0.0
C1496 C 0.24829 0.76893 0.45137 0.0
C1497 C 0.24315 0.72109 0.45453 0.0
C1498 C 0.27885 0.79949 0.4385 0.0
C1499 C 0.30591 0.78363 0.42845 0.0
C1500 C 0.30142 0.73612 0.43182 0.0
C1501 C 0.27035 0.70529 0.44456 0.0
C1502 C 0.41656 0.85216 0.39834 0.0
C1503 C 0.40062 0.87956 0.3885 0.0
C1504 C 0.38587 0.82085 0.41106 0.0
C1505 C 0.33839 0.81631 0.41455 0.0
C1506 C 0.32238 0.84355 0.40464 0.0
C1507 C 0.3528 0.87436 0.39178 0.0
H1508 H 0.53671 0.31022 0.54434 0.0
H1509 H 0.60896 0.44096 0.57557 0.0
H1510 H 0.53706 0.25689 0.56658 0.0
H1511 H 0.60844 0.38733 0.59791 0.0
H1512 H 0.54547 0.25617 0.63799 0.0
H1513 H 0.54493 0.31264 0.61656 0.0
H1514 H 0.60372 0.24771 0.58229 0.0
H1515 H 0.60509 0.19267 0.60337 0.0
C1516 C 0.55276 0.3277 0.55592 0.0
C1517 C 0.57328 0.38017 0.558 0.0
C1518 C 0.55297 0.29705 0.56872 0.0
C1519 C 0.57272 0.31763 0.58413 0.0
C1520 C 0.59259 0.37 0.58629 0.0
C1521 C 0.59333 0.40087 0.57338 0.0
C1522 C 0.55864 0.25429 0.62592 0.0
C1523 C 0.57577 0.21991 0.62261 0.0
C1524 C 0.55842 0.28672 0.61362 0.0
C1525 C 0.57408 0.28469 0.5976 0.0
C1526 C 0.59097 0.25023 0.59437 0.0
C1527 C 0.59216 0.21881 0.60663 0.0
H1528 H 0.45956 0.59119 0.77168 0.0
H1529 H 0.3322 0.52795 0.80463 0.0
H1530 H 0.40449 0.58701 0.74954 0.0
H1531 H 0.27693 0.52479 0.7823 0.0
H1532 H 0.21187 0.58343 0.74064 0.0
H1533 H 0.26541 0.58663 0.76328 0.0
H1534 H 0.33048 0.51785 0.73315 0.0
H1535 H 0.27595 0.51353 0.7105 0.0
C1536 C 0.41989 0.57698 0.77433 0.0
C1537 C 0.40067 0.56029 0.79013 0.0
C1538 C 0.38812 0.57413 0.76149 0.0
C1539 C 0.33609 0.55542 0.76402 0.0
C1540 C 0.31684 0.53963 0.77988 0.0
C1541 C 0.34854 0.54142 0.79271 0.0
C1542 C 0.2377 0.56912 0.73874 0.0
C1543 C 0.23965 0.54852 0.72358 0.0
C1544 C 0.26816 0.57059 0.75184 0.0
C1545 C 0.30243 0.55253 0.75013 0.0
C1546 C 0.30481 0.5324 0.73492 0.0
C1547 C 0.27346 0.52986 0.72192 0.0
H1548 H 0.81064 0.26306 0.87611 0.0
H1549 H 0.68038 0.20306 0.90779 0.0
H1550 H 0.86396 0.31731 0.89823 0.0
H1551 H 0.73396 0.25628 0.92997 0.0
H1552 H 0.86568 0.31569 0.96926 0.0
H1553 H 0.80983 0.26294 0.94728 0.0
H1554 H 0.87181 0.39293 0.91554 0.0
H1555 H 0.92648 0.4458 0.93751 0.0
C1556 C 0.7933 0.26152 0.88776 0.0
C1557 C 0.74102 0.22884 0.89005 0.0
C1558 C 0.82388 0.29269 0.90045 0.0
C1559 C 0.80336 0.29116 0.91594 0.0
C1560 C 0.75113 0.25829 0.91826 0.0
C1561 C 0.72032 0.22804 0.90546 0.0
C1562 C 0.86709 0.33312 0.95764 0.0
C1563 C 0.90049 0.38521 0.95528 0.0
C1564 C 0.83498 0.30288 0.94504 0.0
C1565 C 0.83632 0.3236 0.92959 0.0
C1566 C 0.86988 0.3756 0.92722 0.0
C1567 C 0.90103 0.40603 0.93991 0.0
H1568 H 0.54064 0.90668 0.10342 0.0
H1569 H 0.59505 0.83524 0.1369 0.0
H1570 H 0.5426 0.8543 0.0814 0.0
H1571 H 0.59584 0.78156 0.11468 0.0
H1572 H 0.53129 0.65889 0.07261 0.0
H1573 H 0.53072 0.71067 0.09521 0.0
H1574 H 0.61129 0.84472 0.0657 0.0
H1575 H 0.61311 0.79298 0.04312 0.0
C1576 C 0.55238 0.87929 0.10621 0.0
C1577 C 0.56725 0.87513 0.12213 0.0
C1578 C 0.55396 0.8495 0.09345 0.0
C1579 C 0.56949 0.81367 0.09617 0.0
C1580 C 0.58347 0.80861 0.11213 0.0
C1581 C 0.58303 0.8394 0.12488 0.0
C1582 C 0.54881 0.69938 0.07084 0.0
C1583 C 0.57198 0.72156 0.05588 0.0
C1584 C 0.54881 0.72916 0.08392 0.0
C1585 C 0.57095 0.78198 0.08236 0.0
C1586 C 0.59365 0.80415 0.06734 0.0
C1587 C 0.59472 0.77447 0.05438 0.0
H1588 H 0.67967 0.51089 0.26923 0.0
H1589 H 0.81133 0.58307 0.30014 0.0
H1590 H 0.73231 0.50962 0.24693 0.0
H1591 H 0.86377 0.58074 0.27789 0.0
H1592 H 0.92587 0.51206 0.23989 0.0
H1593 H 0.87187 0.51294 0.26162 0.0
H1594 H 0.80632 0.57433 0.22853 0.0
H1595 H 0.86148 0.57451 0.20664 0.0
C1596 C 0.71975 0.52604 0.27137 0.0
C1597 C 0.74105 0.54679 0.28662 0.0
C1598 C 0.75003 0.52569 0.25849 0.0
C1599 C 0.80238 0.54507 0.26055 0.0
C1600 C 0.82358 0.5652 0.27586 0.0
C1601 C 0.79349 0.56659 0.28864 0.0
C1602 C 0.89974 0.52542 0.2371 0.0
C1603 C 0.89805 0.54293 0.22135 0.0
C1604 C 0.86899 0.5263 0.24968 0.0
C1605 C 0.83471 0.54381 0.24691 0.0
C1606 C 0.83209 0.56036 0.23109 0.0
C1607 C 0.86377 0.56052 0.21853 0.0
H1608 H 0.95112 0.38638 0.42817 0.0
H1609 H 0.87735 0.47094 0.4143 0.0
H1610 H 0.87069 0.31043 0.42984 0.0
H1611 H 0.79601 0.39226 0.41384 0.0
H1612 H 0.65167 0.24609 0.42889 0.0
H1613 H 0.73067 0.32714 0.42937 0.0
H1614 H 0.81184 0.25182 0.41337 0.0
H1615 H 0.73557 0.17166 0.41502 0.0
C1616 C 0.91765 0.38886 0.4254 0.0
C1617 C 0.92086 0.43521 0.4214 0.0
C1618 C 0.87123 0.34469 0.42598 0.0
C1619 C 0.82658 0.34474 0.42172 0.0
C1620 C 0.82955 0.39086 0.41737 0.0
C1621 C 0.87628 0.43582 0.41733 0.0
C1622 C 0.68672 0.24695 0.42587 0.0
C1623 C 0.68705 0.20228 0.42179 0.0
C1624 C 0.73186 0.29352 0.42584 0.0
C1625 C 0.77789 0.29622 0.42149 0.0
C1626 C 0.77766 0.25148 0.41722 0.0
C1627 C 0.73331 0.20522 0.41779 0.0
H1628 H 0.57251 0.90223 0.57863 0.0
H1629 H 0.41074 0.83391 0.58493 0.0
H1630 H 0.56346 0.82001 0.57359 0.0
H1631 H 0.40112 0.7501 0.57938 0.0
H1632 H 0.43958 0.62058 0.59572 0.0
H1633 H 0.42493 0.69209 0.59375 0.0
H1634 H 0.53113 0.75259 0.55393 0.0
H1635 H 0.55043 0.68579 0.55695 0.0
C1636 C 0.53484 0.86939 0.57878 0.0
C1637 C 0.49241 0.87415 0.58233 0.0
C1638 C 0.52947 0.82226 0.57564 0.0
C1639 C 0.48143 0.77856 0.57586 0.0
C1640 C 0.43855 0.78322 0.57909 0.0
C1641 C 0.44399 0.83093 0.58219 0.0
C1642 C 0.45995 0.64907 0.58654 0.0
C1643 C 0.49794 0.64792 0.57703 0.0
C1644 C 0.45062 0.68953 0.5852 0.0
C1645 C 0.47822 0.72872 0.57404 0.0
C1646 C 0.51044 0.72362 0.56299 0.0
C1647 C 0.52094 0.68438 0.56463 0.0
H1648 H 0.72755 0.57005 0.75261 0.0
H1649 H 0.62533 0.40873 0.75035 0.0
H1650 H 0.79835 0.55746 0.74683 0.0
H1651 H 0.69727 0.39582 0.74403 0.0
H1652 H 0.8602 0.41541 0.7594 0.0
H1653 H 0.77666 0.40824 0.75889 0.0
H1654 H 0.83099 0.5306 0.72418 0.0
H1655 H 0.91452 0.5418 0.72586 0.0
C1656 C 0.72032 0.53178 0.7508 0.0
C1657 C 0.67122 0.49034 0.75207 0.0
C1658 C 0.76077 0.52455 0.74725 0.0
C1659 C 0.7532 0.47566 0.74473 0.0
C1660 C 0.70398 0.43388 0.74586 0.0
C1661 C 0.66303 0.44124 0.74939 0.0
C1662 C 0.85443 0.4408 0.75163 0.0
C1663 C 0.89519 0.4803 0.74313 0.0
C1664 C 0.80622 0.43593 0.75112 0.0
C1665 C 0.79794 0.46985 0.74183 0.0
C1666 C 0.83676 0.50476 0.73175 0.0
C1667 C 0.88491 0.51059 0.73259 0.0
H1668 H 0.41321 0.92166 0.90967 0.0
H1669 H 0.49976 0.85432 0.92788 0.0
H1670 H 0.33879 0.83998 0.90865 0.0
H1671 H 0.42217 0.77199 0.92884 0.0
H1672 H 0.27448 0.62379 0.91602 0.0
H1673 H 0.35591 0.7023 0.91388 0.0
H1674 H 0.2828 0.7873 0.92791 0.0
H1675 H 0.20221 0.71109 0.92819 0.0
C1676 C 0.41671 0.88942 0.91337 0.0
C1677 C 0.46305 0.8949 0.91869 0.0
C1678 C 0.37334 0.84238 0.91316 0.0
C1679 C 0.37411 0.79952 0.91904 0.0
C1680 C 0.42036 0.80434 0.92419 0.0
C1681 C 0.46461 0.85165 0.92391 0.0
C1682 C 0.27592 0.65948 0.91833 0.0
C1683 C 0.23177 0.66101 0.92236 0.0
C1684 C 0.32263 0.7043 0.91735 0.0
C1685 C 0.32582 0.75116 0.92054 0.0
C1686 C 0.28176 0.75217 0.92492 0.0
C1687 C 0.23538 0.70802 0.92545 0.0
H1688 H 0.73363 0.28091 0.09101 0.0
H1689 H 0.57224 0.21505 0.0985 0.0
H1690 H 0.74028 0.36397 0.08645 0.0
H1691 H 0.57955 0.29685 0.095 0.0
H1692 H 0.71198 0.50552 0.09937 0.0
H1693 H 0.72455 0.43224 0.10174 0.0
H1694 H 0.59773 0.3476 0.06973 0.0
H1695 H 0.58152 0.41663 0.06866 0.0
C1696 C 0.69987 0.28419 0.09184 0.0
C1697 C 0.65243 0.2414 0.09514 0.0
C1698 C 0.70381 0.33161 0.08938 0.0
C1699 C 0.6603 0.3364 0.09012 0.0
C1700 C 0.61357 0.29401 0.09404 0.0
C1701 C 0.60955 0.24714 0.09632 0.0
C1702 C 0.68677 0.47128 0.09284 0.0
C1703 C 0.6451 0.4673 0.08408 0.0
C1704 C 0.6946 0.42973 0.094 0.0
C1705 C 0.66131 0.38414 0.0862 0.0
C1706 C 0.6233 0.38208 0.07613 0.0
C1707 C 0.61463 0.42253 0.07532 0.0
H1708 H 0.51339 0.69132 0.24682 0.0
H1709 H 0.4376 0.57044 0.28212 0.0
H1710 H 0.43943 0.70272 0.24661 0.0
H1711 H 0.36815 0.58616 0.28305 0.0
H1712 H 0.28926 0.70922 0.25568 0.0
H1713 H 0.37365 0.72018 0.26143 0.0
H1714 H 0.30991 0.55791 0.25958 0.0
H1715 H 0.22703 0.54709 0.25444 0.0
C1716 C 0.48204 0.66806 0.25481 0.0
C1717 C 0.48139 0.62857 0.264 0.0
C1718 C 0.44013 0.67542 0.2549 0.0
C1719 C 0.39766 0.6442 0.26446 0.0
C1720 C 0.40004 0.60988 0.27526 0.0
C1721 C 0.44078 0.60144 0.27484 0.0
C1722 C 0.29368 0.67614 0.25664 0.0
C1723 C 0.25187 0.62733 0.25452 0.0
C1724 C 0.34172 0.68242 0.25985 0.0
C1725 C 0.34798 0.63987 0.26121 0.0
C1726 C 0.30605 0.59138 0.25898 0.0
C1727 C 0.25864 0.58518 0.25577 0.0
loop_
_geom_bond_atom_site_label_1
_geom_bond_atom_site_label_2
_geom_bond_distance
_geom_bond_site_symmetry_2
_ccdc_geom_bond_type
Gd0 N31 2.661 . S
Gd0 N37 2.601 1_565 S
Gd0 O44 2.545 . S
Gd0 O45 2.606 . S
Gd0 O47 2.429 1_565 S
Gd0 O48 2.545 . S
Gd0 O49 2.412 . S
Gd0 O51 2.362 1_565 S
Gd0 O52 2.324 . S
Gd0 C59 2.828 . S
Gd1 N10 2.661 . S
Gd1 N14 2.601 1_545 S
Gd1 O45 2.362 1_545 S
Gd1 O46 2.324 . S
Gd1 O50 2.545 . S
Gd1 O51 2.606 . S
Gd1 O53 2.429 1_545 S
Gd1 O54 2.545 . S
Gd1 O55 2.412 . S
Gd1 C68 2.828 . S
C2 C5 1.417 . S
C2 C7 1.431 . S
C2 C8 1.420 . S
C3 C6 1.437 . S
C3 C7 1.317 . S
C3 H22 0.929 . S
C4 C5 1.426 . S
C4 C6 1.413 . S
C4 N14 1.359 . S
C5 C2 1.417 . S
C5 C4 1.426 . S
C5 N10 1.350 1_565 S
C6 C3 1.437 . S
C6 C4 1.413 . S
C6 C16 1.391 . S
C7 C2 1.431 . S
C7 C3 1.317 . S
C7 H18 0.930 . S
C8 C2 1.420 . S
C8 C9 1.337 1_565 S
C8 H20 0.940 . S
C9 C8 1.337 1_545 S
C9 C11 1.402 . S
C9 H21 0.930 . S
N10 Gd1 2.661 . S
N10 C5 1.350 1_545 S
N10 C11 1.307 . S
C11 C9 1.402 . S
C11 N10 1.307 . S
C11 H12 0.930 . S
H12 C11 0.930 . S
C13 N14 1.334 . S
C13 C15 1.394 . S
C13 H17 0.930 . S
N14 Gd1 2.601 1_565 S
N14 C4 1.359 . S
N14 C13 1.334 . S
C15 C13 1.394 . S
C15 C16 1.359 . S
C15 H27 0.930 . S
C16 C6 1.391 . S
C16 C15 1.359 . S
C16 H28 0.929 . S
H17 C13 0.930 . S
H18 C7 0.930 . S
H19 C36 0.930 . S
H20 C8 0.940 . S
H21 C9 0.930 . S
H22 C3 0.929 . S
H23 C41 0.930 . S
H24 C32 0.943 . S
H25 C33 0.930 . S
H26 C57 0.929 . S
H27 C15 0.930 . S
H28 C16 0.929 . S
H29 C58 0.930 . S
H30 C39 0.930 . S
N31 Gd0 2.661 . S
N31 C35 1.350 1_565 S
N31 C36 1.307 . S
C32 H24 0.943 . S
C32 C33 1.331 1_545 S
C32 C34 1.423 . S
C33 H25 0.930 . S
C33 C32 1.331 1_565 S
C33 C36 1.402 . S
C34 C32 1.423 . S
C34 C35 1.417 . S
C34 C58 1.431 . S
C35 N31 1.350 1_545 S
C35 C34 1.417 . S
C35 C38 1.426 . S
C36 H19 0.930 . S
C36 N31 1.307 . S
C36 C33 1.402 . S
N37 Gd0 2.601 1_545 S
N37 C38 1.359 . S
N37 C41 1.334 . S
C38 C35 1.426 . S
C38 N37 1.359 . S
C38 C42 1.413 . S
C39 H30 0.930 . S
C39 C40 1.359 . S
C39 C41 1.394 . S
C40 C39 1.359 . S
C40 C42 1.391 . S
C40 H43 0.929 . S
C41 H23 0.930 . S
C41 N37 1.334 . S
C41 C39 1.394 . S
C42 C38 1.413 . S
C42 C40 1.391 . S
C42 C57 1.437 . S
H43 C40 0.929 . S
O44 Gd0 2.545 . S
O44 C59 1.258 . S
O45 Gd0 2.606 . S
O45 Gd1 2.362 1_565 S
O45 C56 1.284 . S
O46 Gd1 2.324 . S
O46 C66 1.254 . S
O47 Gd0 2.429 1_545 S
O47 C66 1.268 . S
O48 Gd0 2.545 . S
O48 C56 1.250 . S
O49 Gd0 2.412 . S
O49 C59 1.252 . S
O50 Gd1 2.545 . S
O50 C68 1.258 . S
O51 Gd0 2.362 1_545 S
O51 Gd1 2.606 . S
O51 C67 1.284 . S
O52 Gd0 2.324 . S
O52 C75 1.254 . S
O53 Gd1 2.429 1_565 S
O53 C75 1.268 . S
O54 Gd1 2.545 . S
O54 C67 1.250 . S
O55 Gd1 2.412 . S
O55 C68 1.252 . S
C56 O45 1.284 . S
C56 O48 1.250 . S
C57 H26 0.929 . S
C57 C42 1.437 . S
C57 C58 1.317 . S
C58 H29 0.930 . S
C58 C34 1.431 . S
C58 C57 1.317 . S
C59 Gd0 2.828 . S
C59 O44 1.258 . S
C59 O49 1.252 . S
C59 C60 1.497 . S
C60 C59 1.497 . S
C60 C61 1.395 . S
C60 C62 1.380 . S
C61 C60 1.395 . S
C61 C64 1.398 . S
C61 H76 0.930 . S
C62 C60 1.380 . S
C62 C63 1.391 . S
C62 H77 0.930 . S
C63 C62 1.391 . S
C63 C65 1.387 . S
C64 C61 1.398 . S
C64 C65 1.380 . S
C64 H78 0.930 . S
C65 C63 1.387 . S
C65 C64 1.380 . S
C65 H79 0.930 . S
C66 O46 1.254 . S
C66 O47 1.268 . S
C67 O51 1.284 . S
C67 O54 1.250 . S
C68 Gd1 2.828 . S
C68 O50 1.258 . S
C68 O55 1.252 . S
C68 C69 1.497 . S
C69 C68 1.497 . S
C69 C70 1.395 . S
C69 C71 1.380 . S
C70 C69 1.395 . S
C70 C73 1.398 . S
C70 H80 0.930 . S
C71 C69 1.380 . S
C71 C72 1.391 . S
C71 H81 0.930 . S
C72 C71 1.391 . S
C72 C74 1.387 . S
C73 C70 1.398 . S
C73 C74 1.380 . S
C73 H82 0.930 . S
C74 C72 1.387 . S
C74 C73 1.380 . S
C74 H83 0.930 . S
C75 O52 1.254 . S
C75 O53 1.268 . S
H76 C61 0.930 . S
H77 C62 0.930 . S
H78 C64 0.930 . S
H79 C65 0.930 . S
H80 C70 0.930 . S
H81 C71 0.930 . S
H82 C73 0.930 . S
H83 C74 0.930 . S
Gd84 N115 2.661 . S
Gd84 N121 2.601 . S
Gd84 O128 2.545 . S
Gd84 O129 2.606 . S
Gd84 O131 2.429 . S
Gd84 O132 2.545 . S
Gd84 O133 2.412 . S
Gd84 O135 2.362 . S
Gd84 O136 2.324 . S
Gd84 C143 2.828 . S
Gd85 N94 2.661 . S
Gd85 N98 2.601 . S
Gd85 O129 2.362 . S
Gd85 O130 2.324 . S
Gd85 O134 2.545 . S
Gd85 O135 2.606 . S
Gd85 O137 2.429 . S
Gd85 O138 2.545 . S
Gd85 O139 2.412 . S
Gd85 C152 2.828 . S
C86 C89 1.417 . S
C86 C91 1.431 . S
C86 C92 1.412 . S
C87 C90 1.437 . S
C87 C91 1.317 . S
C87 H106 0.929 . S
C88 C89 1.426 . S
C88 C90 1.413 . S
C88 N98 1.359 . S
C89 C86 1.417 . S
C89 C88 1.426 . S
C89 N94 1.350 . S
C90 C87 1.437 . S
C90 C88 1.413 . S
C90 C100 1.391 . S
C91 C86 1.431 . S
C91 C87 1.317 . S
C91 H102 0.930 . S
C92 C86 1.412 . S
C92 C93 1.355 . S
C92 H104 0.930 . S
C93 C92 1.355 . S
C93 C95 1.402 . S
C93 H105 0.930 . S
N94 Gd85 2.661 . S
N94 C89 1.350 . S
N94 C95 1.307 . S
C95 C93 1.402 . S
C95 N94 1.307 . S
C95 H96 0.930 . S
H96 C95 0.930 . S
C97 N98 1.334 . S
C97 C99 1.394 . S
C97 H101 0.930 . S
N98 Gd85 2.601 . S
N98 C88 1.359 . S
N98 C97 1.334 . S
C99 C97 1.394 . S
C99 C100 1.359 . S
C99 H111 0.930 . S
C100 C90 1.391 . S
C100 C99 1.359 . S
C100 H112 0.929 . S
H101 C97 0.930 . S
H102 C91 0.930 . S
H103 C120 0.930 . S
H104 C92 0.930 . S
H105 C93 0.930 . S
H106 C87 0.929 . S
H107 C125 0.930 . S
H108 C116 0.930 . S
H109 C117 0.930 . S
H110 C141 0.929 . S
H111 C99 0.930 . S
H112 C100 0.929 . S
H113 C142 0.930 . S
H114 C123 0.930 . S
N115 Gd84 2.661 . S
N115 C119 1.350 . S
N115 C120 1.307 . S
C116 H108 0.930 . S
C116 C117 1.355 . S
C116 C118 1.412 . S
C117 H109 0.930 . S
C117 C116 1.355 . S
C117 C120 1.402 . S
C118 C116 1.412 . S
C118 C119 1.417 . S
C118 C142 1.431 . S
C119 N115 1.350 . S
C119 C118 1.417 . S
C119 C122 1.426 . S
C120 H103 0.930 . S
C120 N115 1.307 . S
C120 C117 1.402 . S
N121 Gd84 2.601 . S
N121 C122 1.359 . S
N121 C125 1.334 . S
C122 C119 1.426 . S
C122 N121 1.359 . S
C122 C126 1.413 . S
C123 H114 0.930 . S
C123 C124 1.359 . S
C123 C125 1.394 . S
C124 C123 1.359 . S
C124 C126 1.391 . S
C124 H127 0.929 . S
C125 H107 0.930 . S
C125 N121 1.334 . S
C125 C123 1.394 . S
C126 C122 1.413 . S
C126 C124 1.391 . S
C126 C141 1.437 . S
H127 C124 0.929 . S
O128 Gd84 2.545 . S
O128 C143 1.258 . S
O129 Gd84 2.606 . S
O129 Gd85 2.362 . S
O129 C140 1.284 . S
O130 Gd85 2.324 . S
O130 C150 1.254 . S
O131 Gd84 2.429 . S
O131 C150 1.268 . S
O132 Gd84 2.545 . S
O132 C140 1.250 . S
O133 Gd84 2.412 . S
O133 C143 1.252 . S
O134 Gd85 2.545 . S
O134 C152 1.258 . S
O135 Gd84 2.362 . S
O135 Gd85 2.606 . S
O135 C151 1.284 . S
O136 Gd84 2.324 . S
O136 C159 1.254 . S
O137 Gd85 2.429 . S
O137 C159 1.268 . S
O138 Gd85 2.545 . S
O138 C151 1.250 . S
O139 Gd85 2.412 . S
O139 C152 1.252 . S
C140 O129 1.284 . S
C140 O132 1.250 . S
C141 H110 0.929 . S
C141 C126 1.437 . S
C141 C142 1.317 . S
C142 H113 0.930 . S
C142 C118 1.431 . S
C142 C141 1.317 . S
C143 Gd84 2.828 . S
C143 O128 1.258 . S
C143 O133 1.252 . S
C143 C144 1.497 . S
C144 C143 1.497 . S
C144 C145 1.395 . S
C144 C146 1.380 . S
C145 C144 1.395 . S
C145 C148 1.398 . S
C145 H160 0.930 . S
C146 C144 1.380 . S
C146 C147 1.391 . S
C146 H161 0.930 . S
C147 C146 1.391 . S
C147 C149 1.387 . S
C148 C145 1.398 . S
C148 C149 1.380 . S
C148 H162 0.930 . S
C149 C147 1.387 . S
C149 C148 1.380 . S
C149 H163 0.930 . S
C150 O130 1.254 . S
C150 O131 1.268 . S
C151 O135 1.284 . S
C151 O138 1.250 . S
C152 Gd85 2.828 . S
C152 O134 1.258 . S
C152 O139 1.252 . S
C152 C153 1.497 . S
C153 C152 1.497 . S
C153 C154 1.395 . S
C153 C155 1.380 . S
C154 C153 1.395 . S
C154 C157 1.398 . S
C154 H164 0.930 . S
C155 C153 1.380 . S
C155 C156 1.391 . S
C155 H165 0.930 . S
C156 C155 1.391 . S
C156 C158 1.387 . S
C157 C154 1.398 . S
C157 C158 1.380 . S
C157 H166 0.930 . S
C158 C156 1.387 . S
C158 C157 1.380 . S
C158 H167 0.930 . S
C159 O136 1.254 . S
C159 O137 1.268 . S
H160 C145 0.930 . S
H161 C146 0.930 . S
H162 C148 0.930 . S
H163 C149 0.930 . S
H164 C154 0.930 . S
H165 C155 0.930 . S
H166 C157 0.930 . S
H167 C158 0.930 . S
Gd168 N199 2.661 . S
Gd168 N205 2.601 1_455 S
Gd168 O212 2.545 . S
Gd168 O213 2.606 . S
Gd168 O215 2.429 1_455 S
Gd168 O216 2.545 . S
Gd168 O217 2.412 . S
Gd168 O219 2.362 1_455 S
Gd168 O220 2.324 . S
Gd168 C227 2.828 . S
Gd169 N178 2.661 . S
Gd169 N182 2.601 1_655 S
Gd169 O213 2.362 1_655 S
Gd169 O214 2.324 . S
Gd169 O218 2.545 . S
Gd169 O219 2.606 . S
Gd169 O221 2.429 1_655 S
Gd169 O222 2.545 . S
Gd169 O223 2.412 . S
Gd169 C236 2.828 . S
C170 C173 1.417 . S
C170 C175 1.431 . S
C170 C176 1.412 1_455 S
C171 C174 1.437 . S
C171 C175 1.317 . S
C171 H190 0.929 . S
C172 C173 1.426 . S
C172 C174 1.413 . S
C172 N182 1.359 . S
C173 C170 1.417 . S
C173 C172 1.426 . S
C173 N178 1.350 1_455 S
C174 C171 1.437 . S
C174 C172 1.413 . S
C174 C184 1.391 . S
C175 C170 1.431 . S
C175 C171 1.317 . S
C175 H186 0.930 . S
C176 C170 1.412 1_655 S
C176 C177 1.355 . S
C176 H188 0.924 . S
C177 C176 1.355 . S
C177 C179 1.402 . S
C177 H189 0.930 . S
N178 Gd169 2.661 . S
N178 C173 1.350 1_655 S
N178 C179 1.307 . S
C179 C177 1.402 . S
C179 N178 1.307 . S
C179 H180 0.930 . S
H180 C179 0.930 . S
C181 N182 1.334 . S
C181 C183 1.394 . S
C181 H185 0.930 . S
N182 Gd169 2.601 1_455 S
N182 C172 1.359 . S
N182 C181 1.334 . S
C183 C181 1.394 . S
C183 C184 1.359 . S
C183 H195 0.930 . S
C184 C174 1.391 . S
C184 C183 1.359 . S
C184 H196 0.929 . S
H185 C181 0.930 . S
H186 C175 0.930 . S
H187 C204 0.930 . S
H188 C176 0.924 . S
H189 C177 0.930 . S
H190 C171 0.929 . S
H191 C209 0.930 . S
H192 C200 0.926 . S
H193 C201 0.930 . S
H194 C225 0.929 . S
H195 C183 0.930 . S
H196 C184 0.929 . S
H197 C226 0.930 . S
H198 C207 0.930 . S
N199 Gd168 2.661 . S
N199 C203 1.350 1_455 S
N199 C204 1.307 . S
C200 H192 0.926 . S
C200 C201 1.355 . S
C200 C202 1.412 1_455 S
C201 H193 0.930 . S
C201 C200 1.355 . S
C201 C204 1.402 . S
C202 C200 1.412 1_655 S
C202 C203 1.417 . S
C202 C226 1.431 . S
C203 N199 1.350 1_655 S
C203 C202 1.417 . S
C203 C206 1.426 . S
C204 H187 0.930 . S
C204 N199 1.307 . S
C204 C201 1.402 . S
N205 Gd168 2.601 1_655 S
N205 C206 1.359 . S
N205 C209 1.334 . S
C206 C203 1.426 . S
C206 N205 1.359 . S
C206 C210 1.413 . S
C207 H198 0.930 . S
C207 C208 1.359 . S
C207 C209 1.394 . S
C208 C207 1.359 . S
C208 C210 1.391 . S
C208 H211 0.929 . S
C209 H191 0.930 . S
C209 N205 1.334 . S
C209 C207 1.394 . S
C210 C206 1.413 . S
C210 C208 1.391 . S
C210 C225 1.437 . S
H211 C208 0.929 . S
O212 Gd168 2.545 . S
O212 C227 1.258 . S
O213 Gd168 2.606 . S
O213 Gd169 2.362 1_455 S
O213 C224 1.284 . S
O214 Gd169 2.324 . S
O214 C234 1.254 . S
O215 Gd168 2.429 1_655 S
O215 C234 1.268 . S
O216 Gd168 2.545 . S
O216 C224 1.250 . S
O217 Gd168 2.412 . S
O217 C227 1.252 . S
O218 Gd169 2.545 . S
O218 C236 1.258 . S
O219 Gd168 2.362 1_655 S
O219 Gd169 2.606 . S
O219 C235 1.284 . S
O220 Gd168 2.324 . S
O220 C243 1.254 . S
O221 Gd169 2.429 1_455 S
O221 C243 1.268 . S
O222 Gd169 2.545 . S
O222 C235 1.250 . S
O223 Gd169 2.412 . S
O223 C236 1.252 . S
C224 O213 1.284 . S
C224 O216 1.250 . S
C225 H194 0.929 . S
C225 C210 1.437 . S
C225 C226 1.317 . S
C226 H197 0.930 . S
C226 C202 1.431 . S
C226 C225 1.317 . S
C227 Gd168 2.828 . S
C227 O212 1.258 . S
C227 O217 1.252 . S
C227 C228 1.497 . S
C228 C227 1.497 . S
C228 C229 1.395 . S
C228 C230 1.380 . S
C229 C228 1.395 . S
C229 C232 1.398 . S
C229 H244 0.930 . S
C230 C228 1.380 . S
C230 C231 1.391 . S
C230 H245 0.930 . S
C231 C230 1.391 . S
C231 C233 1.387 . S
C232 C229 1.398 . S
C232 C233 1.380 . S
C232 H246 0.930 . S
C233 C231 1.387 . S
C233 C232 1.380 . S
C233 H247 0.930 . S
C234 O214 1.254 . S
C234 O215 1.268 . S
C235 O219 1.284 . S
C235 O222 1.250 . S
C236 Gd169 2.828 . S
C236 O218 1.258 . S
C236 O223 1.252 . S
C236 C237 1.497 . S
C237 C236 1.497 . S
C237 C238 1.395 . S
C237 C239 1.380 . S
C238 C237 1.395 . S
C238 C241 1.398 . S
C238 H248 0.930 . S
C239 C237 1.380 . S
C239 C240 1.391 . S
C239 H249 0.930 . S
C240 C239 1.391 . S
C240 C242 1.387 . S
C241 C238 1.398 . S
C241 C242 1.380 . S
C241 H250 0.930 . S
C242 C240 1.387 . S
C242 C241 1.380 . S
C242 H251 0.930 . S
C243 O220 1.254 . S
C243 O221 1.268 . S
H244 C229 0.930 . S
H245 C230 0.930 . S
H246 C232 0.930 . S
H247 C233 0.930 . S
H248 C238 0.930 . S
H249 C239 0.930 . S
H250 C241 0.930 . S
H251 C242 0.930 . S
Gd252 N283 2.661 . S
Gd252 N289 2.601 1_545 S
Gd252 O296 2.545 . S
Gd252 O297 2.606 . S
Gd252 O299 2.429 1_545 S
Gd252 O300 2.545 . S
Gd252 O301 2.412 . S
Gd252 O303 2.362 1_545 S
Gd252 O304 2.324 . S
Gd252 C311 2.828 . S
Gd253 N262 2.661 . S
Gd253 N266 2.601 1_565 S
Gd253 O297 2.362 1_565 S
Gd253 O298 2.324 . S
Gd253 O302 2.545 . S
Gd253 O303 2.606 . S
Gd253 O305 2.429 1_565 S
Gd253 O306 2.545 . S
Gd253 O307 2.412 . S
Gd253 C320 2.828 . S
C254 C257 1.417 . S
C254 C259 1.431 . S
C254 C260 1.420 . S
C255 C258 1.437 . S
C255 C259 1.317 . S
C255 H274 0.929 . S
C256 C257 1.426 . S
C256 C258 1.413 . S
C256 N266 1.359 . S
C257 C254 1.417 . S
C257 C256 1.426 . S
C257 N262 1.350 1_545 S
C258 C255 1.437 . S
C258 C256 1.413 . S
C258 C268 1.391 . S
C259 C254 1.431 . S
C259 C255 1.317 . S
C259 H270 0.930 . S
C260 C254 1.420 . S
C260 C261 1.337 1_545 S
C260 H272 0.940 . S
C261 C260 1.337 1_565 S
C261 C263 1.402 . S
C261 H273 0.930 . S
N262 Gd253 2.661 . S
N262 C257 1.350 1_565 S
N262 C263 1.307 . S
C263 C261 1.402 . S
C263 N262 1.307 . S
C263 H264 0.930 . S
H264 C263 0.930 . S
C265 N266 1.334 . S
C265 C267 1.394 . S
C265 H269 0.930 . S
N266 Gd253 2.601 1_545 S
N266 C256 1.359 . S
N266 C265 1.334 . S
C267 C265 1.394 . S
C267 C268 1.359 . S
C267 H279 0.930 . S
C268 C258 1.391 . S
C268 C267 1.359 . S
C268 H280 0.929 . S
H269 C265 0.930 . S
H270 C259 0.930 . S
H271 C288 0.930 . S
H272 C260 0.940 . S
H273 C261 0.930 . S
H274 C255 0.929 . S
H275 C293 0.930 . S
H276 C284 0.943 . S
H277 C285 0.930 . S
H278 C309 0.929 . S
H279 C267 0.930 . S
H280 C268 0.929 . S
H281 C310 0.930 . S
H282 C291 0.930 . S
N283 Gd252 2.661 . S
N283 C287 1.350 1_545 S
N283 C288 1.307 . S
C284 H276 0.943 . S
C284 C285 1.331 1_565 S
C284 C286 1.423 . S
C285 H277 0.930 . S
C285 C284 1.331 1_545 S
C285 C288 1.402 . S
C286 C284 1.423 . S
C286 C287 1.417 . S
C286 C310 1.431 . S
C287 N283 1.350 1_565 S
C287 C286 1.417 . S
C287 C290 1.426 . S
C288 H271 0.930 . S
C288 N283 1.307 . S
C288 C285 1.402 . S
N289 Gd252 2.601 1_565 S
N289 C290 1.359 . S
N289 C293 1.334 . S
C290 C287 1.426 . S
C290 N289 1.359 . S
C290 C294 1.413 . S
C291 H282 0.930 . S
C291 C292 1.359 . S
C291 C293 1.394 . S
C292 C291 1.359 . S
C292 C294 1.391 . S
C292 H295 0.929 . S
C293 H275 0.930 . S
C293 N289 1.334 . S
C293 C291 1.394 . S
C294 C290 1.413 . S
C294 C292 1.391 . S
C294 C309 1.437 . S
H295 C292 0.929 . S
O296 Gd252 2.545 . S
O296 C311 1.258 . S
O297 Gd252 2.606 . S
O297 Gd253 2.362 1_545 S
O297 C308 1.284 . S
O298 Gd253 2.324 . S
O298 C318 1.254 . S
O299 Gd252 2.429 1_565 S
O299 C318 1.268 . S
O300 Gd252 2.545 . S
O300 C308 1.250 . S
O301 Gd252 2.412 . S
O301 C311 1.252 . S
O302 Gd253 2.545 . S
O302 C320 1.258 . S
O303 Gd252 2.362 1_565 S
O303 Gd253 2.606 . S
O303 C319 1.284 . S
O304 Gd252 2.324 . S
O304 C327 1.254 . S
O305 Gd253 2.429 1_545 S
O305 C327 1.268 . S
O306 Gd253 2.545 . S
O306 C319 1.250 . S
O307 Gd253 2.412 . S
O307 C320 1.252 . S
C308 O297 1.284 . S
C308 O300 1.250 . S
C309 H278 0.929 . S
C309 C294 1.437 . S
C309 C310 1.317 . S
C310 H281 0.930 . S
C310 C286 1.431 . S
C310 C309 1.317 . S
C311 Gd252 2.828 . S
C311 O296 1.258 . S
C311 O301 1.252 . S
C311 C312 1.497 . S
C312 C311 1.497 . S
C312 C313 1.395 . S
C312 C314 1.380 . S
C313 C312 1.395 . S
C313 C316 1.398 . S
C313 H328 0.930 . S
C314 C312 1.380 . S
C314 C315 1.391 . S
C314 H329 0.930 . S
C315 C314 1.391 . S
C315 C317 1.387 . S
C316 C313 1.398 . S
C316 C317 1.380 . S
C316 H330 0.930 . S
C317 C315 1.387 . S
C317 C316 1.380 . S
C317 H331 0.930 . S
C318 O298 1.254 . S
C318 O299 1.268 . S
C319 O303 1.284 . S
C319 O306 1.250 . S
C320 Gd253 2.828 . S
C320 O302 1.258 . S
C320 O307 1.252 . S
C320 C321 1.497 . S
C321 C320 1.497 . S
C321 C322 1.395 . S
C321 C323 1.380 . S
C322 C321 1.395 . S
C322 C325 1.398 . S
C322 H332 0.930 . S
C323 C321 1.380 . S
C323 C324 1.391 . S
C323 H333 0.930 . S
C324 C323 1.391 . S
C324 C326 1.387 . S
C325 C322 1.398 . S
C325 C326 1.380 . S
C325 H334 0.930 . S
C326 C324 1.387 . S
C326 C325 1.380 . S
C326 H335 0.930 . S
C327 O304 1.254 . S
C327 O305 1.268 . S
H328 C313 0.930 . S
H329 C314 0.930 . S
H330 C316 0.930 . S
H331 C317 0.930 . S
H332 C322 0.930 . S
H333 C323 0.930 . S
H334 C325 0.930 . S
H335 C326 0.930 . S
Gd336 N367 2.661 . S
Gd336 N373 2.601 . S
Gd336 O380 2.545 1_554 S
Gd336 O381 2.606 . S
Gd336 O383 2.429 . S
Gd336 O384 2.545 . S
Gd336 O385 2.412 . S
Gd336 O387 2.362 . S
Gd336 O388 2.324 . S
Gd336 C395 2.828 1_554 S
Gd337 N346 2.661 . S
Gd337 N350 2.601 . S
Gd337 O381 2.362 . S
Gd337 O382 2.324 . S
Gd337 O386 2.545 . S
Gd337 O387 2.606 . S
Gd337 O389 2.429 . S
Gd337 O390 2.545 . S
Gd337 O391 2.412 . S
Gd337 C404 2.828 . S
C338 C341 1.417 . S
C338 C343 1.431 . S
C338 C344 1.412 . S
C339 C342 1.437 . S
C339 C343 1.317 . S
C339 H358 0.929 . S
C340 C341 1.426 . S
C340 C342 1.413 . S
C340 N350 1.359 . S
C341 C338 1.417 . S
C341 C340 1.426 . S
C341 N346 1.350 . S
C342 C339 1.437 . S
C342 C340 1.413 . S
C342 C352 1.391 . S
C343 C338 1.431 . S
C343 C339 1.317 . S
C343 H354 0.930 . S
C344 C338 1.412 . S
C344 C345 1.355 . S
C344 H356 0.930 . S
C345 C344 1.355 . S
C345 C347 1.402 . S
C345 H357 0.930 1_554 S
N346 Gd337 2.661 . S
N346 C341 1.350 . S
N346 C347 1.307 . S
C347 C345 1.402 . S
C347 N346 1.307 . S
C347 H348 0.930 . S
H348 C347 0.930 . S
C349 N350 1.334 . S
C349 C351 1.394 . S
C349 H353 0.930 . S
N350 Gd337 2.601 . S
N350 C340 1.359 . S
N350 C349 1.334 . S
C351 C349 1.394 . S
C351 C352 1.359 . S
C351 H363 0.930 . S
C352 C342 1.391 . S
C352 C351 1.359 . S
C352 H364 0.929 . S
H353 C349 0.930 . S
H354 C343 0.930 . S
H355 C372 0.930 . S
H356 C344 0.930 . S
H357 C345 0.930 1_556 S
H358 C339 0.929 . S
H359 C377 0.930 . S
H360 C368 0.930 . S
H361 C369 0.930 . S
H362 C393 0.929 . S
H363 C351 0.930 . S
H364 C352 0.929 . S
H365 C394 0.930 . S
H366 C375 0.930 . S
N367 Gd336 2.661 . S
N367 C371 1.350 . S
N367 C372 1.307 . S
C368 H360 0.930 . S
C368 C369 1.355 . S
C368 C370 1.412 . S
C369 H361 0.930 . S
C369 C368 1.355 . S
C369 C372 1.402 . S
C370 C368 1.412 . S
C370 C371 1.417 . S
C370 C394 1.431 . S
C371 N367 1.350 . S
C371 C370 1.417 . S
C371 C374 1.426 . S
C372 H355 0.930 . S
C372 N367 1.307 . S
C372 C369 1.402 . S
N373 Gd336 2.601 . S
N373 C374 1.359 . S
N373 C377 1.334 1_554 S
C374 C371 1.426 . S
C374 N373 1.359 . S
C374 C378 1.413 . S
C375 H366 0.930 . S
C375 C376 1.359 . S
C375 C377 1.394 . S
C376 C375 1.359 . S
C376 C378 1.391 1_556 S
C376 H379 0.929 . S
C377 H359 0.930 . S
C377 N373 1.334 1_556 S
C377 C375 1.394 . S
C378 C374 1.413 . S
C378 C376 1.391 1_554 S
C378 C393 1.437 . S
H379 C376 0.929 . S
O380 Gd336 2.545 1_556 S
O380 C395 1.258 . S
O381 Gd336 2.606 . S
O381 Gd337 2.362 . S
O381 C392 1.284 . S
O382 Gd337 2.324 . S
O382 C402 1.254 . S
O383 Gd336 2.429 . S
O383 C402 1.268 . S
O384 Gd336 2.545 . S
O384 C392 1.250 . S
O385 Gd336 2.412 . S
O385 C395 1.252 1_554 S
O386 Gd337 2.545 . S
O386 C404 1.258 . S
O387 Gd336 2.362 . S
O387 Gd337 2.606 . S
O387 C403 1.284 . S
O388 Gd336 2.324 . S
O388 C411 1.254 . S
O389 Gd337 2.429 . S
O389 C411 1.268 . S
O390 Gd337 2.545 . S
O390 C403 1.250 . S
O391 Gd337 2.412 . S
O391 C404 1.252 . S
C392 O381 1.284 . S
C392 O384 1.250 . S
C393 H362 0.929 . S
C393 C378 1.437 . S
C393 C394 1.317 . S
C394 H365 0.930 . S
C394 C370 1.431 . S
C394 C393 1.317 . S
C395 Gd336 2.828 1_556 S
C395 O380 1.258 . S
C395 O385 1.252 1_556 S
C395 C396 1.497 . S
C396 C395 1.497 . S
C396 C397 1.395 . S
C396 C398 1.380 . S
C397 C396 1.395 . S
C397 C400 1.398 . S
C397 H412 0.930 . S
C398 C396 1.380 . S
C398 C399 1.391 . S
C398 H413 0.930 . S
C399 C398 1.391 . S
C399 C401 1.387 . S
C400 C397 1.398 . S
C400 C401 1.380 . S
C400 H414 0.930 . S
C401 C399 1.387 . S
C401 C400 1.380 . S
C401 H415 0.930 . S
C402 O382 1.254 . S
C402 O383 1.268 . S
C403 O387 1.284 . S
C403 O390 1.250 . S
C404 Gd337 2.828 . S
C404 O386 1.258 . S
C404 O391 1.252 . S
C404 C405 1.497 . S
C405 C404 1.497 . S
C405 C406 1.395 . S
C405 C407 1.380 . S
C406 C405 1.395 . S
C406 C409 1.398 . S
C406 H416 0.930 . S
C407 C405 1.380 . S
C407 C408 1.391 . S
C407 H417 0.930 . S
C408 C407 1.391 . S
C408 C410 1.387 . S
C409 C406 1.398 . S
C409 C410 1.380 . S
C409 H418 0.930 . S
C410 C408 1.387 . S
C410 C409 1.380 . S
C410 H419 0.930 . S
C411 O388 1.254 . S
C411 O389 1.268 . S
H412 C397 0.930 . S
H413 C398 0.930 . S
H414 C400 0.930 . S
H415 C401 0.930 . S
H416 C406 0.930 . S
H417 C407 0.930 . S
H418 C409 0.930 . S
H419 C410 0.930 . S
Gd420 N451 2.661 . S
Gd420 N457 2.601 1_655 S
Gd420 O464 2.545 . S
Gd420 O465 2.606 . S
Gd420 O467 2.429 1_655 S
Gd420 O468 2.545 . S
Gd420 O469 2.412 . S
Gd420 O471 2.362 1_655 S
Gd420 O472 2.324 . S
Gd420 C479 2.828 . S
Gd421 N430 2.661 . S
Gd421 N434 2.601 1_455 S
Gd421 O465 2.362 1_455 S
Gd421 O466 2.324 . S
Gd421 O470 2.545 . S
Gd421 O471 2.606 . S
Gd421 O473 2.429 1_455 S
Gd421 O474 2.545 . S
Gd421 O475 2.412 . S
Gd421 C488 2.828 . S
C422 C425 1.417 . S
C422 C427 1.431 . S
C422 C428 1.412 1_655 S
C423 C426 1.437 . S
C423 C427 1.317 . S
C423 H442 0.929 . S
C424 C425 1.426 . S
C424 C426 1.413 . S
C424 N434 1.359 . S
C425 C422 1.417 . S
C425 C424 1.426 . S
C425 N430 1.350 1_655 S
C426 C423 1.437 . S
C426 C424 1.413 . S
C426 C436 1.391 . S
C427 C422 1.431 . S
C427 C423 1.317 . S
C427 H438 0.930 . S
C428 C422 1.412 1_455 S
C428 C429 1.355 . S
C428 H440 0.924 . S
C429 C428 1.355 . S
C429 C431 1.402 . S
C429 H441 0.930 . S
N430 Gd421 2.661 . S
N430 C425 1.350 1_455 S
N430 C431 1.307 . S
C431 C429 1.402 . S
C431 N430 1.307 . S
C431 H432 0.930 . S
H432 C431 0.930 . S
C433 N434 1.334 . S
C433 C435 1.394 . S
C433 H437 0.930 . S
N434 Gd421 2.601 1_655 S
N434 C424 1.359 . S
N434 C433 1.334 . S
C435 C433 1.394 . S
C435 C436 1.359 . S
C435 H447 0.930 . S
C436 C426 1.391 . S
C436 C435 1.359 . S
C436 H448 0.929 . S
H437 C433 0.930 . S
H438 C427 0.930 . S
H439 C456 0.930 . S
H440 C428 0.924 . S
H441 C429 0.930 . S
H442 C423 0.929 . S
H443 C461 0.930 . S
H444 C452 0.926 . S
H445 C453 0.930 . S
H446 C477 0.929 . S
H447 C435 0.930 . S
H448 C436 0.929 . S
H449 C478 0.930 . S
H450 C459 0.930 . S
N451 Gd420 2.661 . S
N451 C455 1.350 1_655 S
N451 C456 1.307 . S
C452 H444 0.926 . S
C452 C453 1.355 . S
C452 C454 1.412 1_655 S
C453 H445 0.930 . S
C453 C452 1.355 . S
C453 C456 1.402 . S
C454 C452 1.412 1_455 S
C454 C455 1.417 . S
C454 C478 1.431 . S
C455 N451 1.350 1_455 S
C455 C454 1.417 . S
C455 C458 1.426 . S
C456 H439 0.930 . S
C456 N451 1.307 . S
C456 C453 1.402 . S
N457 Gd420 2.601 1_455 S
N457 C458 1.359 . S
N457 C461 1.334 . S
C458 C455 1.426 . S
C458 N457 1.359 . S
C458 C462 1.413 . S
C459 H450 0.930 . S
C459 C460 1.359 . S
C459 C461 1.394 . S
C460 C459 1.359 . S
C460 C462 1.391 . S
C460 H463 0.929 . S
C461 H443 0.930 . S
C461 N457 1.334 . S
C461 C459 1.394 . S
C462 C458 1.413 . S
C462 C460 1.391 . S
C462 C477 1.437 . S
H463 C460 0.929 . S
O464 Gd420 2.545 . S
O464 C479 1.258 . S
O465 Gd420 2.606 . S
O465 Gd421 2.362 1_655 S
O465 C476 1.284 . S
O466 Gd421 2.324 . S
O466 C486 1.254 . S
O467 Gd420 2.429 1_455 S
O467 C486 1.268 . S
O468 Gd420 2.545 . S
O468 C476 1.250 . S
O469 Gd420 2.412 . S
O469 C479 1.252 . S
O470 Gd421 2.545 . S
O470 C488 1.258 . S
O471 Gd420 2.362 1_455 S
O471 Gd421 2.606 . S
O471 C487 1.284 . S
O472 Gd420 2.324 . S
O472 C495 1.254 . S
O473 Gd421 2.429 1_655 S
O473 C495 1.268 . S
O474 Gd421 2.545 . S
O474 C487 1.250 . S
O475 Gd421 2.412 . S
O475 C488 1.252 . S
C476 O465 1.284 . S
C476 O468 1.250 . S
C477 H446 0.929 . S
C477 C462 1.437 . S
C477 C478 1.317 . S
C478 H449 0.930 . S
C478 C454 1.431 . S
C478 C477 1.317 . S
C479 Gd420 2.828 . S
C479 O464 1.258 . S
C479 O469 1.252 . S
C479 C480 1.497 . S
C480 C479 1.497 . S
C480 C481 1.395 . S
C480 C482 1.380 . S
C481 C480 1.395 . S
C481 C484 1.398 . S
C481 H496 0.930 . S
C482 C480 1.380 . S
C482 C483 1.391 . S
C482 H497 0.930 . S
C483 C482 1.391 . S
C483 C485 1.387 . S
C484 C481 1.398 . S
C484 C485 1.380 . S
C484 H498 0.930 . S
C485 C483 1.387 . S
C485 C484 1.380 . S
C485 H499 0.930 . S
C486 O466 1.254 . S
C486 O467 1.268 . S
C487 O471 1.284 . S
C487 O474 1.250 . S
C488 Gd421 2.828 . S
C488 O470 1.258 . S
C488 O475 1.252 . S
C488 C489 1.497 . S
C489 C488 1.497 . S
C489 C490 1.395 . S
C489 C491 1.380 . S
C490 C489 1.395 . S
C490 C493 1.398 . S
C490 H500 0.930 . S
C491 C489 1.380 . S
C491 C492 1.391 . S
C491 H501 0.930 . S
C492 C491 1.391 . S
C492 C494 1.387 . S
C493 C490 1.398 . S
C493 C494 1.380 . S
C493 H502 0.930 . S
C494 C492 1.387 . S
C494 C493 1.380 . S
C494 H503 0.930 . S
C495 O472 1.254 . S
C495 O473 1.268 . S
H496 C481 0.930 . S
H497 C482 0.930 . S
H498 C484 0.930 . S
H499 C485 0.930 . S
H500 C490 0.930 . S
H501 C491 0.930 . S
H502 C493 0.930 . S
H503 C494 0.930 . S
Gd504 N535 2.661 . S
Gd504 N541 2.601 1_455 S
Gd504 O548 2.545 . S
Gd504 O549 2.606 . S
Gd504 O551 2.429 1_455 S
Gd504 O552 2.545 . S
Gd504 O553 2.412 . S
Gd504 O555 2.362 1_455 S
Gd504 O556 2.324 . S
Gd504 C563 2.828 . S
Gd505 N514 2.661 . S
Gd505 N518 2.601 1_655 S
Gd505 O549 2.362 1_655 S
Gd505 O550 2.324 . S
Gd505 O554 2.545 . S
Gd505 O555 2.606 . S
Gd505 O557 2.429 1_655 S
Gd505 O558 2.545 . S
Gd505 O559 2.412 . S
Gd505 C572 2.828 . S
C506 C509 1.417 . S
C506 C511 1.431 . S
C506 C512 1.420 . S
C507 C510 1.437 . S
C507 C511 1.317 . S
C507 H526 0.929 . S
C508 C509 1.426 . S
C508 C510 1.413 . S
C508 N518 1.359 . S
C509 C506 1.417 . S
C509 C508 1.426 . S
C509 N514 1.350 1_455 S
C510 C507 1.437 . S
C510 C508 1.413 . S
C510 C520 1.391 . S
C511 C506 1.431 . S
C511 C507 1.317 . S
C511 H522 0.930 . S
C512 C506 1.420 . S
C512 C513 1.337 1_455 S
C512 H524 0.940 . S
C513 C512 1.337 1_655 S
C513 C515 1.402 . S
C513 H525 0.930 . S
N514 Gd505 2.661 . S
N514 C509 1.350 1_655 S
N514 C515 1.307 . S
C515 C513 1.402 . S
C515 N514 1.307 . S
C515 H516 0.930 . S
H516 C515 0.930 . S
C517 N518 1.334 . S
C517 C519 1.394 . S
C517 H521 0.930 . S
N518 Gd505 2.601 1_455 S
N518 C508 1.359 . S
N518 C517 1.334 . S
C519 C517 1.394 . S
C519 C520 1.359 . S
C519 H531 0.930 . S
C520 C510 1.391 . S
C520 C519 1.359 . S
C520 H532 0.929 . S
H521 C517 0.930 . S
H522 C511 0.930 . S
H523 C540 0.930 . S
H524 C512 0.940 . S
H525 C513 0.930 . S
H526 C507 0.929 . S
H527 C545 0.930 . S
H528 C536 0.943 . S
H529 C537 0.930 . S
H530 C561 0.929 . S
H531 C519 0.930 . S
H532 C520 0.929 . S
H533 C562 0.930 . S
H534 C543 0.930 . S
N535 Gd504 2.661 . S
N535 C539 1.350 1_455 S
N535 C540 1.307 . S
C536 H528 0.943 . S
C536 C537 1.331 1_655 S
C536 C538 1.423 . S
C537 H529 0.930 . S
C537 C536 1.331 1_455 S
C537 C540 1.402 . S
C538 C536 1.423 . S
C538 C539 1.417 . S
C538 C562 1.431 . S
C539 N535 1.350 1_655 S
C539 C538 1.417 . S
C539 C542 1.426 . S
C540 H523 0.930 . S
C540 N535 1.307 . S
C540 C537 1.402 . S
N541 Gd504 2.601 1_655 S
N541 C542 1.359 . S
N541 C545 1.334 . S
C542 C539 1.426 . S
C542 N541 1.359 . S
C542 C546 1.413 . S
C543 H534 0.930 . S
C543 C544 1.359 . S
C543 C545 1.394 . S
C544 C543 1.359 . S
C544 C546 1.391 . S
C544 H547 0.929 . S
C545 H527 0.930 . S
C545 N541 1.334 . S
C545 C543 1.394 . S
C546 C542 1.413 . S
C546 C544 1.391 . S
C546 C561 1.437 . S
H547 C544 0.929 . S
O548 Gd504 2.545 . S
O548 C563 1.258 . S
O549 Gd504 2.606 . S
O549 Gd505 2.362 1_455 S
O549 C560 1.284 . S
O550 Gd505 2.324 . S
O550 C570 1.254 . S
O551 Gd504 2.429 1_655 S
O551 C570 1.268 . S
O552 Gd504 2.545 . S
O552 C560 1.250 . S
O553 Gd504 2.412 . S
O553 C563 1.252 . S
O554 Gd505 2.545 . S
O554 C572 1.258 . S
O555 Gd504 2.362 1_655 S
O555 Gd505 2.606 . S
O555 C571 1.284 . S
O556 Gd504 2.324 . S
O556 C579 1.254 . S
O557 Gd505 2.429 1_455 S
O557 C579 1.268 . S
O558 Gd505 2.545 . S
O558 C571 1.250 . S
O559 Gd505 2.412 . S
O559 C572 1.252 . S
C560 O549 1.284 . S
C560 O552 1.250 . S
C561 H530 0.929 . S
C561 C546 1.437 . S
C561 C562 1.317 . S
C562 H533 0.930 . S
C562 C538 1.431 . S
C562 C561 1.317 . S
C563 Gd504 2.828 . S
C563 O548 1.258 . S
C563 O553 1.252 . S
C563 C564 1.497 . S
C564 C563 1.497 . S
C564 C565 1.395 . S
C564 C566 1.380 . S
C565 C564 1.395 . S
C565 C568 1.398 . S
C565 H580 0.930 . S
C566 C564 1.380 . S
C566 C567 1.391 . S
C566 H581 0.930 . S
C567 C566 1.391 . S
C567 C569 1.387 . S
C568 C565 1.398 . S
C568 C569 1.380 . S
C568 H582 0.930 . S
C569 C567 1.387 . S
C569 C568 1.380 . S
C569 H583 0.930 . S
C570 O550 1.254 . S
C570 O551 1.268 . S
C571 O555 1.284 . S
C571 O558 1.250 . S
C572 Gd505 2.828 . S
C572 O554 1.258 . S
C572 O559 1.252 . S
C572 C573 1.497 . S
C573 C572 1.497 . S
C573 C574 1.395 . S
C573 C575 1.380 . S
C574 C573 1.395 . S
C574 C577 1.398 . S
C574 H584 0.930 . S
C575 C573 1.380 . S
C575 C576 1.391 . S
C575 H585 0.930 . S
C576 C575 1.391 . S
C576 C578 1.387 . S
C577 C574 1.398 . S
C577 C578 1.380 . S
C577 H586 0.930 . S
C578 C576 1.387 . S
C578 C577 1.380 . S
C578 H587 0.930 . S
C579 O556 1.254 . S
C579 O557 1.268 . S
H580 C565 0.930 . S
H581 C566 0.930 . S
H582 C568 0.930 . S
H583 C569 0.930 . S
H584 C574 0.930 . S
H585 C575 0.930 . S
H586 C577 0.930 . S
H587 C578 0.930 . S
Gd588 N619 2.661 . S
Gd588 N625 2.601 1_545 S
Gd588 O632 2.545 . S
Gd588 O633 2.606 . S
Gd588 O635 2.429 1_545 S
Gd588 O636 2.545 . S
Gd588 O637 2.412 . S
Gd588 O639 2.362 1_545 S
Gd588 O640 2.324 . S
Gd588 C647 2.828 . S
Gd589 N598 2.661 . S
Gd589 N602 2.601 1_565 S
Gd589 O633 2.362 1_565 S
Gd589 O634 2.324 . S
Gd589 O638 2.545 . S
Gd589 O639 2.606 . S
Gd589 O641 2.429 1_565 S
Gd589 O642 2.545 . S
Gd589 O643 2.412 . S
Gd589 C656 2.828 . S
C590 C593 1.417 . S
C590 C595 1.431 . S
C590 C596 1.412 1_545 S
C591 C594 1.437 . S
C591 C595 1.317 . S
C591 H610 0.929 . S
C592 C593 1.426 . S
C592 C594 1.413 . S
C592 N602 1.359 . S
C593 C590 1.417 . S
C593 C592 1.426 . S
C593 N598 1.350 1_545 S
C594 C591 1.437 . S
C594 C592 1.413 . S
C594 C604 1.391 . S
C595 C590 1.431 . S
C595 C591 1.317 . S
C595 H606 0.930 . S
C596 C590 1.412 1_565 S
C596 C597 1.355 . S
C596 H608 0.924 . S
C597 C596 1.355 . S
C597 C599 1.402 . S
C597 H609 0.930 . S
N598 Gd589 2.661 . S
N598 C593 1.350 1_565 S
N598 C599 1.307 . S
C599 C597 1.402 . S
C599 N598 1.307 . S
C599 H600 0.930 . S
H600 C599 0.930 . S
C601 N602 1.334 . S
C601 C603 1.394 . S
C601 H605 0.930 . S
N602 Gd589 2.601 1_545 S
N602 C592 1.359 . S
N602 C601 1.334 . S
C603 C601 1.394 . S
C603 C604 1.359 . S
C603 H615 0.930 . S
C604 C594 1.391 . S
C604 C603 1.359 . S
C604 H616 0.929 . S
H605 C601 0.930 . S
H606 C595 0.930 . S
H607 C624 0.930 . S
H608 C596 0.924 . S
H609 C597 0.930 . S
H610 C591 0.929 . S
H611 C629 0.930 . S
H612 C620 0.926 . S
H613 C621 0.930 . S
H614 C645 0.929 . S
H615 C603 0.930 . S
H616 C604 0.929 . S
H617 C646 0.930 . S
H618 C627 0.930 . S
N619 Gd588 2.661 . S
N619 C623 1.350 1_545 S
N619 C624 1.307 . S
C620 H612 0.926 . S
C620 C621 1.355 . S
C620 C622 1.412 1_545 S
C621 H613 0.930 . S
C621 C620 1.355 . S
C621 C624 1.402 . S
C622 C620 1.412 1_565 S
C622 C623 1.417 . S
C622 C646 1.431 . S
C623 N619 1.350 1_565 S
C623 C622 1.417 . S
C623 C626 1.426 . S
C624 H607 0.930 . S
C624 N619 1.307 . S
C624 C621 1.402 . S
N625 Gd588 2.601 1_565 S
N625 C626 1.359 . S
N625 C629 1.334 . S
C626 C623 1.426 . S
C626 N625 1.359 . S
C626 C630 1.413 . S
C627 H618 0.930 . S
C627 C628 1.359 . S
C627 C629 1.394 . S
C628 C627 1.359 . S
C628 C630 1.391 . S
C628 H631 0.929 . S
C629 H611 0.930 . S
C629 N625 1.334 . S
C629 C627 1.394 . S
C630 C626 1.413 . S
C630 C628 1.391 . S
C630 C645 1.437 . S
H631 C628 0.929 . S
O632 Gd588 2.545 . S
O632 C647 1.258 . S
O633 Gd588 2.606 . S
O633 Gd589 2.362 1_545 S
O633 C644 1.284 . S
O634 Gd589 2.324 . S
O634 C654 1.254 . S
O635 Gd588 2.429 1_565 S
O635 C654 1.268 . S
O636 Gd588 2.545 . S
O636 C644 1.250 . S
O637 Gd588 2.412 . S
O637 C647 1.252 . S
O638 Gd589 2.545 . S
O638 C656 1.258 . S
O639 Gd588 2.362 1_565 S
O639 Gd589 2.606 . S
O639 C655 1.284 . S
O640 Gd588 2.324 . S
O640 C663 1.254 . S
O641 Gd589 2.429 1_545 S
O641 C663 1.268 . S
O642 Gd589 2.545 . S
O642 C655 1.250 . S
O643 Gd589 2.412 . S
O643 C656 1.252 . S
C644 O633 1.284 . S
C644 O636 1.250 . S
C645 H614 0.929 . S
C645 C630 1.437 . S
C645 C646 1.317 . S
C646 H617 0.930 . S
C646 C622 1.431 . S
C646 C645 1.317 . S
C647 Gd588 2.828 . S
C647 O632 1.258 . S
C647 O637 1.252 . S
C647 C648 1.497 . S
C648 C647 1.497 . S
C648 C649 1.395 . S
C648 C650 1.380 . S
C649 C648 1.395 . S
C649 C652 1.398 . S
C649 H664 0.930 . S
C650 C648 1.380 . S
C650 C651 1.391 . S
C650 H665 0.930 . S
C651 C650 1.391 . S
C651 C653 1.387 . S
C652 C649 1.398 . S
C652 C653 1.380 . S
C652 H666 0.930 . S
C653 C651 1.387 . S
C653 C652 1.380 . S
C653 H667 0.930 . S
C654 O634 1.254 . S
C654 O635 1.268 . S
C655 O639 1.284 . S
C655 O642 1.250 . S
C656 Gd589 2.828 . S
C656 O638 1.258 . S
C656 O643 1.252 . S
C656 C657 1.497 . S
C657 C656 1.497 . S
C657 C658 1.395 . S
C657 C659 1.380 . S
C658 C657 1.395 . S
C658 C661 1.398 . S
C658 H668 0.930 . S
C659 C657 1.380 . S
C659 C660 1.391 . S
C659 H669 0.930 . S
C660 C659 1.391 . S
C660 C662 1.387 . S
C661 C658 1.398 . S
C661 C662 1.380 . S
C661 H670 0.930 . S
C662 C660 1.387 . S
C662 C661 1.380 . S
C662 H671 0.930 . S
C663 O640 1.254 . S
C663 O641 1.268 . S
H664 C649 0.930 . S
H665 C650 0.930 . S
H666 C652 0.930 . S
H667 C653 0.930 . S
H668 C658 0.930 . S
H669 C659 0.930 . S
H670 C661 0.930 . S
H671 C662 0.930 . S
Gd672 N703 2.661 . S
Gd672 N709 2.601 . S
Gd672 O716 2.545 . S
Gd672 O717 2.606 . S
Gd672 O719 2.429 . S
Gd672 O720 2.545 . S
Gd672 O721 2.412 . S
Gd672 O723 2.362 . S
Gd672 O724 2.324 . S
Gd672 C731 2.828 . S
Gd673 N682 2.661 . S
Gd673 N686 2.601 . S
Gd673 O717 2.362 . S
Gd673 O718 2.324 . S
Gd673 O722 2.545 . S
Gd673 O723 2.606 . S
Gd673 O725 2.429 . S
Gd673 O726 2.545 . S
Gd673 O727 2.412 . S
Gd673 C740 2.828 . S
C674 C677 1.417 . S
C674 C679 1.431 . S
C674 C680 1.412 . S
C675 C678 1.437 . S
C675 C679 1.317 . S
C675 H694 0.929 . S
C676 C677 1.426 . S
C676 C678 1.413 . S
C676 N686 1.359 . S
C677 C674 1.417 . S
C677 C676 1.426 . S
C677 N682 1.350 . S
C678 C675 1.437 . S
C678 C676 1.413 . S
C678 C688 1.391 . S
C679 C674 1.431 . S
C679 C675 1.317 . S
C679 H690 0.930 . S
C680 C674 1.412 . S
C680 C681 1.355 . S
C680 H692 0.930 . S
C681 C680 1.355 . S
C681 C683 1.402 . S
C681 H693 0.930 . S
N682 Gd673 2.661 . S
N682 C677 1.350 . S
N682 C683 1.307 . S
C683 C681 1.402 . S
C683 N682 1.307 . S
C683 H684 0.930 . S
H684 C683 0.930 . S
C685 N686 1.334 . S
C685 C687 1.394 . S
C685 H689 0.930 . S
N686 Gd673 2.601 . S
N686 C676 1.359 . S
N686 C685 1.334 . S
C687 C685 1.394 . S
C687 C688 1.359 . S
C687 H699 0.930 . S
C688 C678 1.391 . S
C688 C687 1.359 . S
C688 H700 0.929 . S
H689 C685 0.930 . S
H690 C679 0.930 . S
H691 C708 0.930 . S
H692 C680 0.930 . S
H693 C681 0.930 . S
H694 C675 0.929 . S
H695 C713 0.930 . S
H696 C704 0.930 . S
H697 C705 0.930 . S
H698 C729 0.929 . S
H699 C687 0.930 . S
H700 C688 0.929 . S
H701 C730 0.930 . S
H702 C711 0.930 . S
N703 Gd672 2.661 . S
N703 C707 1.350 . S
N703 C708 1.307 . S
C704 H696 0.930 . S
C704 C705 1.355 . S
C704 C706 1.412 . S
C705 H697 0.930 . S
C705 C704 1.355 . S
C705 C708 1.402 . S
C706 C704 1.412 . S
C706 C707 1.417 . S
C706 C730 1.431 . S
C707 N703 1.350 . S
C707 C706 1.417 . S
C707 C710 1.426 . S
C708 H691 0.930 . S
C708 N703 1.307 . S
C708 C705 1.402 . S
N709 Gd672 2.601 . S
N709 C710 1.359 . S
N709 C713 1.334 . S
C710 C707 1.426 . S
C710 N709 1.359 . S
C710 C714 1.413 . S
C711 H702 0.930 . S
C711 C712 1.359 . S
C711 C713 1.394 . S
C712 C711 1.359 . S
C712 C714 1.391 . S
C712 H715 0.929 . S
C713 H695 0.930 . S
C713 N709 1.334 . S
C713 C711 1.394 . S
C714 C710 1.413 . S
C714 C712 1.391 . S
C714 C729 1.437 . S
H715 C712 0.929 . S
O716 Gd672 2.545 . S
O716 C731 1.258 . S
O717 Gd672 2.606 . S
O717 Gd673 2.362 . S
O717 C728 1.284 . S
O718 Gd673 2.324 . S
O718 C738 1.254 . S
O719 Gd672 2.429 . S
O719 C738 1.268 . S
O720 Gd672 2.545 . S
O720 C728 1.250 . S
O721 Gd672 2.412 . S
O721 C731 1.252 . S
O722 Gd673 2.545 . S
O722 C740 1.258 . S
O723 Gd672 2.362 . S
O723 Gd673 2.606 . S
O723 C739 1.284 . S
O724 Gd672 2.324 . S
O724 C747 1.254 . S
O725 Gd673 2.429 . S
O725 C747 1.268 . S
O726 Gd673 2.545 . S
O726 C739 1.250 . S
O727 Gd673 2.412 . S
O727 C740 1.252 . S
C728 O717 1.284 . S
C728 O720 1.250 . S
C729 H698 0.929 . S
C729 C714 1.437 . S
C729 C730 1.317 . S
C730 H701 0.930 . S
C730 C706 1.431 . S
C730 C729 1.317 . S
C731 Gd672 2.828 . S
C731 O716 1.258 . S
C731 O721 1.252 . S
C731 C732 1.497 . S
C732 C731 1.497 . S
C732 C733 1.395 . S
C732 C734 1.380 . S
C733 C732 1.395 . S
C733 C736 1.398 . S
C733 H748 0.930 . S
C734 C732 1.380 . S
C734 C735 1.391 . S
C734 H749 0.930 . S
C735 C734 1.391 . S
C735 C737 1.387 . S
C736 C733 1.398 . S
C736 C737 1.380 . S
C736 H750 0.930 . S
C737 C735 1.387 . S
C737 C736 1.380 . S
C737 H751 0.930 . S
C738 O718 1.254 . S
C738 O719 1.268 . S
C739 O723 1.284 . S
C739 O726 1.250 . S
C740 Gd673 2.828 . S
C740 O722 1.258 . S
C740 O727 1.252 . S
C740 C741 1.497 . S
C741 C740 1.497 . S
C741 C742 1.395 . S
C741 C743 1.380 . S
C742 C741 1.395 . S
C742 C745 1.398 . S
C742 H752 0.930 . S
C743 C741 1.380 . S
C743 C744 1.391 . S
C743 H753 0.930 . S
C744 C743 1.391 . S
C744 C746 1.387 . S
C745 C742 1.398 . S
C745 C746 1.380 . S
C745 H754 0.930 . S
C746 C744 1.387 . S
C746 C745 1.380 . S
C746 H755 0.930 . S
C747 O724 1.254 . S
C747 O725 1.268 . S
H748 C733 0.930 . S
H749 C734 0.930 . S
H750 C736 0.930 . S
H751 C737 0.930 . S
H752 C742 0.930 . S
H753 C743 0.930 . S
H754 C745 0.930 . S
H755 C746 0.930 . S
Gd756 N787 2.661 . S
Gd756 N793 2.601 1_655 S
Gd756 O800 2.545 1_556 S
Gd756 O801 2.606 . S
Gd756 O803 2.429 1_655 S
Gd756 O804 2.545 1_556 S
Gd756 O805 2.412 . S
Gd756 O807 2.362 1_655 S
Gd756 O808 2.324 . S
Gd756 C815 2.828 1_556 S
Gd757 N766 2.661 . S
Gd757 N770 2.601 1_455 S
Gd757 O801 2.362 1_455 S
Gd757 O802 2.324 . S
Gd757 O806 2.545 . S
Gd757 O807 2.606 . S
Gd757 O809 2.429 1_455 S
Gd757 O810 2.545 . S
Gd757 O811 2.412 . S
Gd757 C824 2.828 . S
C758 C761 1.417 . S
C758 C763 1.431 . S
C758 C764 1.420 . S
C759 C762 1.437 . S
C759 C763 1.317 . S
C759 H778 0.929 . S
C760 C761 1.426 . S
C760 C762 1.413 . S
C760 N770 1.359 . S
C761 C758 1.417 . S
C761 C760 1.426 . S
C761 N766 1.350 1_655 S
C762 C759 1.437 . S
C762 C760 1.413 . S
C762 C772 1.391 . S
C763 C758 1.431 . S
C763 C759 1.317 . S
C763 H774 0.930 . S
C764 C758 1.420 . S
C764 C765 1.344 1_655 S
C764 H776 0.904 1_556 S
C765 C764 1.344 1_455 S
C765 C767 1.415 . S
C765 H777 0.911 1_556 S
N766 Gd757 2.661 . S
N766 C761 1.350 1_455 S
N766 C767 1.307 . S
C767 C765 1.415 . S
C767 N766 1.307 . S
C767 H768 0.930 . S
H768 C767 0.930 . S
C769 N770 1.334 . S
C769 C771 1.394 . S
C769 H773 0.930 . S
N770 Gd757 2.601 1_655 S
N770 C760 1.359 . S
N770 C769 1.334 . S
C771 C769 1.394 . S
C771 C772 1.359 . S
C771 H783 0.930 . S
C772 C762 1.391 . S
C772 C771 1.359 . S
C772 H784 0.929 . S
H773 C769 0.930 . S
H774 C763 0.930 . S
H775 C792 0.930 . S
H776 C764 0.904 1_554 S
H777 C765 0.911 1_554 S
H778 C759 0.929 . S
H779 C797 0.930 . S
H780 C788 0.943 . S
H781 C789 0.930 . S
H782 C813 0.929 . S
H783 C771 0.930 . S
H784 C772 0.929 . S
H785 C814 0.930 . S
H786 C795 0.930 . S
N787 Gd756 2.661 . S
N787 C791 1.350 1_655 S
N787 C792 1.307 . S
C788 H780 0.943 . S
C788 C789 1.331 1_455 S
C788 C790 1.423 . S
C789 H781 0.930 . S
C789 C788 1.331 1_655 S
C789 C792 1.402 . S
C790 C788 1.423 . S
C790 C791 1.417 . S
C790 C814 1.431 . S
C791 N787 1.350 1_455 S
C791 C790 1.417 . S
C791 C794 1.426 . S
C792 H775 0.930 . S
C792 N787 1.307 . S
C792 C789 1.402 . S
N793 Gd756 2.601 1_455 S
N793 C794 1.359 . S
N793 C797 1.334 1_556 S
C794 C791 1.426 . S
C794 N793 1.359 . S
C794 C798 1.413 . S
C795 H786 0.930 . S
C795 C796 1.359 . S
C795 C797 1.394 . S
C796 C795 1.359 . S
C796 C798 1.391 1_554 S
C796 H799 0.929 . S
C797 H779 0.930 . S
C797 N793 1.334 1_554 S
C797 C795 1.394 . S
C798 C794 1.413 . S
C798 C796 1.391 1_556 S
C798 C813 1.437 . S
H799 C796 0.929 . S
O800 Gd756 2.545 1_554 S
O800 C815 1.258 . S
O801 Gd756 2.606 . S
O801 Gd757 2.362 1_655 S
O801 C812 1.284 . S
O802 Gd757 2.324 . S
O802 C822 1.254 . S
O803 Gd756 2.429 1_455 S
O803 C822 1.268 . S
O804 Gd756 2.545 1_554 S
O804 C812 1.250 1_554 S
O805 Gd756 2.412 . S
O805 C815 1.252 1_556 S
O806 Gd757 2.545 . S
O806 C824 1.258 . S
O807 Gd756 2.362 1_455 S
O807 Gd757 2.606 . S
O807 C823 1.284 . S
O808 Gd756 2.324 . S
O808 C831 1.254 . S
O809 Gd757 2.429 1_655 S
O809 C831 1.268 . S
O810 Gd757 2.545 . S
O810 C823 1.250 . S
O811 Gd757 2.412 . S
O811 C824 1.252 . S
C812 O801 1.284 . S
C812 O804 1.250 1_556 S
C813 H782 0.929 . S
C813 C798 1.437 . S
C813 C814 1.317 . S
C814 H785 0.930 . S
C814 C790 1.431 . S
C814 C813 1.317 . S
C815 Gd756 2.828 1_554 S
C815 O800 1.258 . S
C815 O805 1.252 1_554 S
C815 C816 1.497 . S
C816 C815 1.497 . S
C816 C817 1.395 . S
C816 C818 1.380 . S
C817 C816 1.395 . S
C817 C820 1.398 . S
C817 H832 0.930 . S
C818 C816 1.380 . S
C818 C819 1.391 . S
C818 H833 0.930 . S
C819 C818 1.391 . S
C819 C821 1.387 . S
C820 C817 1.398 . S
C820 C821 1.380 . S
C820 H834 0.930 . S
C821 C819 1.387 . S
C821 C820 1.380 . S
C821 H835 0.930 . S
C822 O802 1.254 . S
C822 O803 1.268 . S
C823 O807 1.284 . S
C823 O810 1.250 . S
C824 Gd757 2.828 . S
C824 O806 1.258 . S
C824 O811 1.252 . S
C824 C825 1.497 . S
C825 C824 1.497 . S
C825 C826 1.395 . S
C825 C827 1.380 . S
C826 C825 1.395 . S
C826 C829 1.398 . S
C826 H836 0.930 . S
C827 C825 1.380 . S
C827 C828 1.391 . S
C827 H837 0.930 . S
C828 C827 1.391 . S
C828 C830 1.387 . S
C829 C826 1.398 . S
C829 C830 1.380 . S
C829 H838 0.930 . S
C830 C828 1.387 . S
C830 C829 1.380 . S
C830 H839 0.930 . S
C831 O808 1.254 . S
C831 O809 1.268 . S
H832 C817 0.930 . S
H833 C818 0.930 . S
H834 C820 0.930 . S
H835 C821 0.930 . S
H836 C826 0.930 . S
H837 C827 0.930 . S
H838 C829 0.930 . S
H839 C830 0.930 . S
Gd840 N871 2.661 . S
Gd840 N877 2.601 1_565 S
Gd840 O884 2.545 . S
Gd840 O885 2.606 . S
Gd840 O887 2.429 1_565 S
Gd840 O888 2.545 . S
Gd840 O889 2.412 . S
Gd840 O891 2.362 1_565 S
Gd840 O892 2.324 . S
Gd840 C899 2.828 . S
Gd841 N850 2.661 . S
Gd841 N854 2.601 1_545 S
Gd841 O885 2.362 1_545 S
Gd841 O886 2.324 . S
Gd841 O890 2.545 . S
Gd841 O891 2.606 . S
Gd841 O893 2.429 1_545 S
Gd841 O894 2.545 . S
Gd841 O895 2.412 . S
Gd841 C908 2.828 . S
C842 C845 1.417 . S
C842 C847 1.431 . S
C842 C848 1.412 1_565 S
C843 C846 1.437 . S
C843 C847 1.317 . S
C843 H862 0.929 . S
C844 C845 1.426 . S
C844 C846 1.413 . S
C844 N854 1.359 . S
C845 C842 1.417 . S
C845 C844 1.426 . S
C845 N850 1.350 1_565 S
C846 C843 1.437 . S
C846 C844 1.413 . S
C846 C856 1.391 . S
C847 C842 1.431 . S
C847 C843 1.317 . S
C847 H858 0.930 . S
C848 C842 1.412 1_545 S
C848 C849 1.355 . S
C848 H860 0.924 . S
C849 C848 1.355 . S
C849 C851 1.402 . S
C849 H861 0.930 . S
N850 Gd841 2.661 . S
N850 C845 1.350 1_545 S
N850 C851 1.307 . S
C851 C849 1.402 . S
C851 N850 1.307 . S
C851 H852 0.930 . S
H852 C851 0.930 . S
C853 N854 1.334 . S
C853 C855 1.394 . S
C853 H857 0.930 . S
N854 Gd841 2.601 1_565 S
N854 C844 1.359 . S
N854 C853 1.334 . S
C855 C853 1.394 . S
C855 C856 1.359 . S
C855 H867 0.930 . S
C856 C846 1.391 . S
C856 C855 1.359 . S
C856 H868 0.929 . S
H857 C853 0.930 . S
H858 C847 0.930 . S
H859 C876 0.930 . S
H860 C848 0.924 . S
H861 C849 0.930 . S
H862 C843 0.929 . S
H863 C881 0.930 . S
H864 C872 0.926 . S
H865 C873 0.930 . S
H866 C897 0.929 . S
H867 C855 0.930 . S
H868 C856 0.929 . S
H869 C898 0.930 . S
H870 C879 0.930 . S
N871 Gd840 2.661 . S
N871 C875 1.350 1_565 S
N871 C876 1.307 . S
C872 H864 0.926 . S
C872 C873 1.355 . S
C872 C874 1.412 1_565 S
C873 H865 0.930 . S
C873 C872 1.355 . S
C873 C876 1.402 . S
C874 C872 1.412 1_545 S
C874 C875 1.417 . S
C874 C898 1.431 . S
C875 N871 1.350 1_545 S
C875 C874 1.417 . S
C875 C878 1.426 . S
C876 H859 0.930 . S
C876 N871 1.307 . S
C876 C873 1.402 . S
N877 Gd840 2.601 1_545 S
N877 C878 1.359 . S
N877 C881 1.334 . S
C878 C875 1.426 . S
C878 N877 1.359 . S
C878 C882 1.413 . S
C879 H870 0.930 . S
C879 C880 1.359 . S
C879 C881 1.394 . S
C880 C879 1.359 . S
C880 C882 1.391 . S
C880 H883 0.929 . S
C881 H863 0.930 . S
C881 N877 1.334 . S
C881 C879 1.394 . S
C882 C878 1.413 . S
C882 C880 1.391 . S
C882 C897 1.437 . S
H883 C880 0.929 . S
O884 Gd840 2.545 . S
O884 C899 1.258 . S
O885 Gd840 2.606 . S
O885 Gd841 2.362 1_565 S
O885 C896 1.284 . S
O886 Gd841 2.324 . S
O886 C906 1.254 . S
O887 Gd840 2.429 1_545 S
O887 C906 1.268 . S
O888 Gd840 2.545 . S
O888 C896 1.250 . S
O889 Gd840 2.412 . S
O889 C899 1.252 . S
O890 Gd841 2.545 . S
O890 C908 1.258 . S
O891 Gd840 2.362 1_545 S
O891 Gd841 2.606 . S
O891 C907 1.284 . S
O892 Gd840 2.324 . S
O892 C915 1.254 . S
O893 Gd841 2.429 1_565 S
O893 C915 1.268 . S
O894 Gd841 2.545 . S
O894 C907 1.250 . S
O895 Gd841 2.412 . S
O895 C908 1.252 . S
C896 O885 1.284 . S
C896 O888 1.250 . S
C897 H866 0.929 . S
C897 C882 1.437 . S
C897 C898 1.317 . S
C898 H869 0.930 . S
C898 C874 1.431 . S
C898 C897 1.317 . S
C899 Gd840 2.828 . S
C899 O884 1.258 . S
C899 O889 1.252 . S
C899 C900 1.497 . S
C900 C899 1.497 . S
C900 C901 1.395 . S
C900 C902 1.380 . S
C901 C900 1.395 . S
C901 C904 1.398 . S
C901 H916 0.930 . S
C902 C900 1.380 . S
C902 C903 1.391 . S
C902 H917 0.930 . S
C903 C902 1.391 . S
C903 C905 1.387 . S
C904 C901 1.398 . S
C904 C905 1.380 . S
C904 H918 0.930 . S
C905 C903 1.387 . S
C905 C904 1.380 . S
C905 H919 0.930 . S
C906 O886 1.254 . S
C906 O887 1.268 . S
C907 O891 1.284 . S
C907 O894 1.250 . S
C908 Gd841 2.828 . S
C908 O890 1.258 . S
C908 O895 1.252 . S
C908 C909 1.497 . S
C909 C908 1.497 . S
C909 C910 1.395 . S
C909 C911 1.380 . S
C910 C909 1.395 . S
C910 C913 1.398 . S
C910 H920 0.930 . S
C911 C909 1.380 . S
C911 C912 1.391 . S
C911 H921 0.930 . S
C912 C911 1.391 . S
C912 C914 1.387 . S
C913 C910 1.398 . S
C913 C914 1.380 . S
C913 H922 0.930 . S
C914 C912 1.387 . S
C914 C913 1.380 . S
C914 H923 0.930 . S
C915 O892 1.254 . S
C915 O893 1.268 . S
H916 C901 0.930 . S
H917 C902 0.930 . S
H918 C904 0.930 . S
H919 C905 0.930 . S
H920 C910 0.930 . S
H921 C911 0.930 . S
H922 C913 0.930 . S
H923 C914 0.930 . S
Gd924 N955 2.661 . S
Gd924 N961 2.601 . S
Gd924 O968 2.545 . S
Gd924 O969 2.606 . S
Gd924 O971 2.429 . S
Gd924 O972 2.545 . S
Gd924 O973 2.412 . S
Gd924 O975 2.362 . S
Gd924 O976 2.324 . S
Gd924 C983 2.828 . S
Gd925 N934 2.661 . S
Gd925 N938 2.601 . S
Gd925 O969 2.362 . S
Gd925 O970 2.324 . S
Gd925 O974 2.545 . S
Gd925 O975 2.606 . S
Gd925 O977 2.429 . S
Gd925 O978 2.545 . S
Gd925 O979 2.412 . S
Gd925 C992 2.828 . S
C926 C929 1.417 . S
C926 C931 1.431 . S
C926 C932 1.412 . S
C927 C930 1.437 . S
C927 C931 1.317 . S
C927 H946 0.929 . S
C928 C929 1.426 . S
C928 C930 1.413 . S
C928 N938 1.359 . S
C929 C926 1.417 . S
C929 C928 1.426 . S
C929 N934 1.350 . S
C930 C927 1.437 . S
C930 C928 1.413 . S
C930 C940 1.391 . S
C931 C926 1.431 . S
C931 C927 1.317 . S
C931 H942 0.930 . S
C932 C926 1.412 . S
C932 C933 1.355 . S
C932 H944 0.930 . S
C933 C932 1.355 . S
C933 C935 1.402 . S
C933 H945 0.930 . S
N934 Gd925 2.661 . S
N934 C929 1.350 . S
N934 C935 1.307 . S
C935 C933 1.402 . S
C935 N934 1.307 . S
C935 H936 0.930 . S
H936 C935 0.930 . S
C937 N938 1.334 . S
C937 C939 1.394 . S
C937 H941 0.930 . S
N938 Gd925 2.601 . S
N938 C928 1.359 . S
N938 C937 1.334 . S
C939 C937 1.394 . S
C939 C940 1.359 . S
C939 H951 0.930 . S
C940 C930 1.391 . S
C940 C939 1.359 . S
C940 H952 0.929 . S
H941 C937 0.930 . S
H942 C931 0.930 . S
H943 C960 0.930 . S
H944 C932 0.930 . S
H945 C933 0.930 . S
H946 C927 0.929 . S
H947 C965 0.930 . S
H948 C956 0.930 . S
H949 C957 0.930 . S
H950 C981 0.929 . S
H951 C939 0.930 . S
H952 C940 0.929 . S
H953 C982 0.930 . S
H954 C963 0.930 . S
N955 Gd924 2.661 . S
N955 C959 1.350 . S
N955 C960 1.307 . S
C956 H948 0.930 . S
C956 C957 1.355 . S
C956 C958 1.412 . S
C957 H949 0.930 . S
C957 C956 1.355 . S
C957 C960 1.402 . S
C958 C956 1.412 . S
C958 C959 1.417 . S
C958 C982 1.431 . S
C959 N955 1.350 . S
C959 C958 1.417 . S
C959 C962 1.426 . S
C960 H943 0.930 . S
C960 N955 1.307 . S
C960 C957 1.402 . S
N961 Gd924 2.601 . S
N961 C962 1.359 . S
N961 C965 1.334 . S
C962 C959 1.426 . S
C962 N961 1.359 . S
C962 C966 1.413 . S
C963 H954 0.930 . S
C963 C964 1.359 . S
C963 C965 1.394 . S
C964 C963 1.359 . S
C964 C966 1.391 . S
C964 H967 0.929 . S
C965 H947 0.930 . S
C965 N961 1.334 . S
C965 C963 1.394 . S
C966 C962 1.413 . S
C966 C964 1.391 . S
C966 C981 1.437 . S
H967 C964 0.929 . S
O968 Gd924 2.545 . S
O968 C983 1.258 . S
O969 Gd924 2.606 . S
O969 Gd925 2.362 . S
O969 C980 1.284 . S
O970 Gd925 2.324 . S
O970 C990 1.254 . S
O971 Gd924 2.429 . S
O971 C990 1.268 . S
O972 Gd924 2.545 . S
O972 C980 1.250 . S
O973 Gd924 2.412 . S
O973 C983 1.252 . S
O974 Gd925 2.545 . S
O974 C992 1.258 . S
O975 Gd924 2.362 . S
O975 Gd925 2.606 . S
O975 C991 1.284 . S
O976 Gd924 2.324 . S
O976 C999 1.254 . S
O977 Gd925 2.429 . S
O977 C999 1.268 . S
O978 Gd925 2.545 . S
O978 C991 1.250 . S
O979 Gd925 2.412 . S
O979 C992 1.252 . S
C980 O969 1.284 . S
C980 O972 1.250 . S
C981 H950 0.929 . S
C981 C966 1.437 . S
C981 C982 1.317 . S
C982 H953 0.930 . S
C982 C958 1.431 . S
C982 C981 1.317 . S
C983 Gd924 2.828 . S
C983 O968 1.258 . S
C983 O973 1.252 . S
C983 C984 1.497 . S
C984 C983 1.497 . S
C984 C985 1.395 . S
C984 C986 1.380 . S
C985 C984 1.395 . S
C985 C988 1.398 . S
C985 H1000 0.930 . S
C986 C984 1.380 . S
C986 C987 1.391 . S
C986 H1001 0.930 . S
C987 C986 1.391 . S
C987 C989 1.387 . S
C988 C985 1.398 . S
C988 C989 1.380 . S
C988 H1002 0.930 . S
C989 C987 1.387 . S
C989 C988 1.380 . S
C989 H1003 0.930 . S
C990 O970 1.254 . S
C990 O971 1.268 . S
C991 O975 1.284 . S
C991 O978 1.250 . S
C992 Gd925 2.828 . S
C992 O974 1.258 . S
C992 O979 1.252 . S
C992 C993 1.497 . S
C993 C992 1.497 . S
C993 C994 1.395 . S
C993 C995 1.380 . S
C994 C993 1.395 . S
C994 C997 1.398 . S
C994 H1004 0.930 . S
C995 C993 1.380 . S
C995 C996 1.391 . S
C995 H1005 0.930 . S
C996 C995 1.391 . S
C996 C998 1.387 . S
C997 C994 1.398 . S
C997 C998 1.380 . S
C997 H1006 0.930 . S
C998 C996 1.387 . S
C998 C997 1.380 . S
C998 H1007 0.930 . S
C999 O976 1.254 . S
C999 O977 1.268 . S
H1000 C985 0.930 . S
H1001 C986 0.930 . S
H1002 C988 0.930 . S
H1003 C989 0.930 . S
H1004 C994 0.930 . S
H1005 C995 0.930 . S
H1006 C997 0.930 . S
H1007 C998 0.930 . S
H1008 C1016 0.950 . S
H1009 C1021 0.950 . S
H1010 C1018 0.950 . S
H1011 C1020 0.950 . S
H1012 C1022 0.950 . S
H1013 C1024 0.950 . S
H1014 C1026 0.950 . S
H1015 C1027 0.950 . S
C1016 H1008 0.950 . S
C1016 C1017 1.386 . S
C1016 C1018 1.391 . S
C1017 C1016 1.386 . S
C1017 C1021 1.393 . S
C1018 H1010 0.950 . S
C1018 C1016 1.391 . S
C1018 C1019 1.400 . S
C1019 C1018 1.400 . S
C1019 C1020 1.398 . S
C1019 C1025 1.491 . S
C1020 H1011 0.950 . S
C1020 C1019 1.398 . S
C1020 C1021 1.391 . S
C1021 H1009 0.950 . S
C1021 C1017 1.393 . S
C1021 C1020 1.391 . S
C1022 H1012 0.950 . S
C1022 C1023 1.386 . S
C1022 C1024 1.391 . S
C1023 C1022 1.386 . S
C1023 C1027 1.393 . S
C1024 H1013 0.950 . S
C1024 C1022 1.391 . S
C1024 C1025 1.400 . S
C1025 C1019 1.491 . S
C1025 C1024 1.400 . S
C1025 C1026 1.398 . S
C1026 H1014 0.950 . S
C1026 C1025 1.398 . S
C1026 C1027 1.391 . S
C1027 H1015 0.950 . S
C1027 C1023 1.393 . S
C1027 C1026 1.391 . S
H1028 C1036 0.950 . S
H1029 C1041 0.950 . S
H1030 C1038 0.950 . S
H1031 C1040 0.950 . S
H1032 C1042 0.950 . S
H1033 C1044 0.950 . S
H1034 C1046 0.950 . S
H1035 C1047 0.950 . S
C1036 H1028 0.950 . S
C1036 C1037 1.386 . S
C1036 C1038 1.391 . S
C1037 C1036 1.386 . S
C1037 C1041 1.393 . S
C1038 H1030 0.950 . S
C1038 C1036 1.391 . S
C1038 C1039 1.400 . S
C1039 C1038 1.400 . S
C1039 C1040 1.398 . S
C1039 C1045 1.491 . S
C1040 H1031 0.950 . S
C1040 C1039 1.398 . S
C1040 C1041 1.391 . S
C1041 H1029 0.950 . S
C1041 C1037 1.393 . S
C1041 C1040 1.391 . S
C1042 H1032 0.950 . S
C1042 C1043 1.386 . S
C1042 C1044 1.391 . S
C1043 C1042 1.386 . S
C1043 C1047 1.393 . S
C1044 H1033 0.950 . S
C1044 C1042 1.391 . S
C1044 C1045 1.400 . S
C1045 C1039 1.491 . S
C1045 C1044 1.400 . S
C1045 C1046 1.398 . S
C1046 H1034 0.950 . S
C1046 C1045 1.398 . S
C1046 C1047 1.391 . S
C1047 H1035 0.950 . S
C1047 C1043 1.393 . S
C1047 C1046 1.391 . S
H1048 C1056 0.950 . S
H1049 C1061 0.950 . S
H1050 C1058 0.950 . S
H1051 C1060 0.950 . S
H1052 C1062 0.950 . S
H1053 C1064 0.950 . S
H1054 C1066 0.950 . S
H1055 C1067 0.950 . S
C1056 H1048 0.950 . S
C1056 C1057 1.386 . S
C1056 C1058 1.391 . S
C1057 C1056 1.386 . S
C1057 C1061 1.393 . S
C1058 H1050 0.950 . S
C1058 C1056 1.391 . S
C1058 C1059 1.400 . S
C1059 C1058 1.400 . S
C1059 C1060 1.398 . S
C1059 C1065 1.491 . S
C1060 H1051 0.950 . S
C1060 C1059 1.398 . S
C1060 C1061 1.391 . S
C1061 H1049 0.950 . S
C1061 C1057 1.393 . S
C1061 C1060 1.391 . S
C1062 H1052 0.950 . S
C1062 C1063 1.386 . S
C1062 C1064 1.391 . S
C1063 C1062 1.386 . S
C1063 C1067 1.393 . S
C1064 H1053 0.950 . S
C1064 C1062 1.391 . S
C1064 C1065 1.400 . S
C1065 C1059 1.491 . S
C1065 C1064 1.400 . S
C1065 C1066 1.398 . S
C1066 H1054 0.950 . S
C1066 C1065 1.398 . S
C1066 C1067 1.391 . S
C1067 H1055 0.950 . S
C1067 C1063 1.393 . S
C1067 C1066 1.391 . S
H1068 C1076 0.950 . S
H1069 C1081 0.950 . S
H1070 C1078 0.950 . S
H1071 C1080 0.950 . S
H1072 C1082 0.950 . S
H1073 C1084 0.950 . S
H1074 C1086 0.950 . S
H1075 C1087 0.950 . S
C1076 H1068 0.950 . S
C1076 C1077 1.386 . S
C1076 C1078 1.391 . S
C1077 C1076 1.386 . S
C1077 C1081 1.393 . S
C1078 H1070 0.950 . S
C1078 C1076 1.391 . S
C1078 C1079 1.400 . S
C1079 C1078 1.400 . S
C1079 C1080 1.398 . S
C1079 C1085 1.491 . S
C1080 H1071 0.950 . S
C1080 C1079 1.398 . S
C1080 C1081 1.391 . S
C1081 H1069 0.950 . S
C1081 C1077 1.393 . S
C1081 C1080 1.391 . S
C1082 H1072 0.950 . S
C1082 C1083 1.386 . S
C1082 C1084 1.391 . S
C1083 C1082 1.386 . S
C1083 C1087 1.393 . S
C1084 H1073 0.950 . S
C1084 C1082 1.391 . S
C1084 C1085 1.400 . S
C1085 C1079 1.491 . S
C1085 C1084 1.400 . S
C1085 C1086 1.398 . S
C1086 H1074 0.950 . S
C1086 C1085 1.398 . S
C1086 C1087 1.391 . S
C1087 H1075 0.950 . S
C1087 C1083 1.393 . S
C1087 C1086 1.391 . S
H1088 C1096 0.950 . S
H1089 C1101 0.950 . S
H1090 C1098 0.950 . S
H1091 C1100 0.950 . S
H1092 C1102 0.950 . S
H1093 C1104 0.950 . S
H1094 C1106 0.950 . S
H1095 C1107 0.950 . S
C1096 H1088 0.950 . S
C1096 C1097 1.386 . S
C1096 C1098 1.391 . S
C1097 C1096 1.386 . S
C1097 C1101 1.393 . S
C1098 H1090 0.950 . S
C1098 C1096 1.391 . S
C1098 C1099 1.400 . S
C1099 C1098 1.400 . S
C1099 C1100 1.398 . S
C1099 C1105 1.491 . S
C1100 H1091 0.950 . S
C1100 C1099 1.398 . S
C1100 C1101 1.391 . S
C1101 H1089 0.950 . S
C1101 C1097 1.393 . S
C1101 C1100 1.391 . S
C1102 H1092 0.950 . S
C1102 C1103 1.386 . S
C1102 C1104 1.391 . S
C1103 C1102 1.386 . S
C1103 C1107 1.393 . S
C1104 H1093 0.950 . S
C1104 C1102 1.391 . S
C1104 C1105 1.400 . S
C1105 C1099 1.491 . S
C1105 C1104 1.400 . S
C1105 C1106 1.398 . S
C1106 H1094 0.950 . S
C1106 C1105 1.398 . S
C1106 C1107 1.391 . S
C1107 H1095 0.950 . S
C1107 C1103 1.393 . S
C1107 C1106 1.391 . S
H1108 C1116 0.950 . S
H1109 C1121 0.950 . S
H1110 C1118 0.950 . S
H1111 C1120 0.950 . S
H1112 C1122 0.950 . S
H1113 C1124 0.950 . S
H1114 C1126 0.950 . S
H1115 C1127 0.950 . S
C1116 H1108 0.950 . S
C1116 C1117 1.386 . S
C1116 C1118 1.391 . S
C1117 C1116 1.386 . S
C1117 C1121 1.393 . S
C1118 H1110 0.950 . S
C1118 C1116 1.391 . S
C1118 C1119 1.400 . S
C1119 C1118 1.400 . S
C1119 C1120 1.398 . S
C1119 C1125 1.491 . S
C1120 H1111 0.950 . S
C1120 C1119 1.398 . S
C1120 C1121 1.391 . S
C1121 H1109 0.950 . S
C1121 C1117 1.393 . S
C1121 C1120 1.391 . S
C1122 H1112 0.950 . S
C1122 C1123 1.386 . S
C1122 C1124 1.391 . S
C1123 C1122 1.386 . S
C1123 C1127 1.393 . S
C1124 H1113 0.950 . S
C1124 C1122 1.391 . S
C1124 C1125 1.400 . S
C1125 C1119 1.491 . S
C1125 C1124 1.400 . S
C1125 C1126 1.398 . S
C1126 H1114 0.950 . S
C1126 C1125 1.398 . S
C1126 C1127 1.391 . S
C1127 H1115 0.950 . S
C1127 C1123 1.393 . S
C1127 C1126 1.391 . S
H1128 C1136 0.950 . S
H1129 C1141 0.950 . S
H1130 C1138 0.950 . S
H1131 C1140 0.950 . S
H1132 C1142 0.950 . S
H1133 C1144 0.950 . S
H1134 C1146 0.950 . S
H1135 C1147 0.950 . S
C1136 H1128 0.950 . S
C1136 C1137 1.386 . S
C1136 C1138 1.391 . S
C1137 C1136 1.386 . S
C1137 C1141 1.393 . S
C1138 H1130 0.950 . S
C1138 C1136 1.391 . S
C1138 C1139 1.400 . S
C1139 C1138 1.400 . S
C1139 C1140 1.398 . S
C1139 C1145 1.491 . S
C1140 H1131 0.950 . S
C1140 C1139 1.398 . S
C1140 C1141 1.391 . S
C1141 H1129 0.950 . S
C1141 C1137 1.393 . S
C1141 C1140 1.391 . S
C1142 H1132 0.950 . S
C1142 C1143 1.386 . S
C1142 C1144 1.391 . S
C1143 C1142 1.386 . S
C1143 C1147 1.393 . S
C1144 H1133 0.950 . S
C1144 C1142 1.391 . S
C1144 C1145 1.400 . S
C1145 C1139 1.491 . S
C1145 C1144 1.400 . S
C1145 C1146 1.398 . S
C1146 H1134 0.950 . S
C1146 C1145 1.398 . S
C1146 C1147 1.391 . S
C1147 H1135 0.950 . S
C1147 C1143 1.393 . S
C1147 C1146 1.391 . S
H1148 C1156 0.950 . S
H1149 C1161 0.950 . S
H1150 C1158 0.950 . S
H1151 C1160 0.950 . S
H1152 C1162 0.950 . S
H1153 C1164 0.950 . S
H1154 C1166 0.950 . S
H1155 C1167 0.950 . S
C1156 H1148 0.950 . S
C1156 C1157 1.386 . S
C1156 C1158 1.391 . S
C1157 C1156 1.386 . S
C1157 C1161 1.393 . S
C1158 H1150 0.950 . S
C1158 C1156 1.391 . S
C1158 C1159 1.400 . S
C1159 C1158 1.400 . S
C1159 C1160 1.398 . S
C1159 C1165 1.491 . S
C1160 H1151 0.950 . S
C1160 C1159 1.398 . S
C1160 C1161 1.391 . S
C1161 H1149 0.950 . S
C1161 C1157 1.393 . S
C1161 C1160 1.391 . S
C1162 H1152 0.950 . S
C1162 C1163 1.386 . S
C1162 C1164 1.391 . S
C1163 C1162 1.386 . S
C1163 C1167 1.393 . S
C1164 H1153 0.950 . S
C1164 C1162 1.391 . S
C1164 C1165 1.400 . S
C1165 C1159 1.491 . S
C1165 C1164 1.400 . S
C1165 C1166 1.398 . S
C1166 H1154 0.950 . S
C1166 C1165 1.398 . S
C1166 C1167 1.391 . S
C1167 H1155 0.950 . S
C1167 C1163 1.393 . S
C1167 C1166 1.391 . S
H1168 C1176 0.950 . S
H1169 C1181 0.950 . S
H1170 C1178 0.950 . S
H1171 C1180 0.950 . S
H1172 C1182 0.950 . S
H1173 C1184 0.950 . S
H1174 C1186 0.950 . S
H1175 C1187 0.950 . S
C1176 H1168 0.950 . S
C1176 C1177 1.386 . S
C1176 C1178 1.391 . S
C1177 C1176 1.386 . S
C1177 C1181 1.393 . S
C1178 H1170 0.950 . S
C1178 C1176 1.391 . S
C1178 C1179 1.400 . S
C1179 C1178 1.400 . S
C1179 C1180 1.398 . S
C1179 C1185 1.491 . S
C1180 H1171 0.950 . S
C1180 C1179 1.398 . S
C1180 C1181 1.391 . S
C1181 H1169 0.950 . S
C1181 C1177 1.393 . S
C1181 C1180 1.391 . S
C1182 H1172 0.950 . S
C1182 C1183 1.386 . S
C1182 C1184 1.391 . S
C1183 C1182 1.386 . S
C1183 C1187 1.393 . S
C1184 H1173 0.950 . S
C1184 C1182 1.391 . S
C1184 C1185 1.400 . S
C1185 C1179 1.491 . S
C1185 C1184 1.400 . S
C1185 C1186 1.398 . S
C1186 H1174 0.950 . S
C1186 C1185 1.398 . S
C1186 C1187 1.391 . S
C1187 H1175 0.950 . S
C1187 C1183 1.393 . S
C1187 C1186 1.391 . S
H1188 C1196 0.950 . S
H1189 C1201 0.950 . S
H1190 C1198 0.950 . S
H1191 C1200 0.950 . S
H1192 C1202 0.950 . S
H1193 C1204 0.950 . S
H1194 C1206 0.950 . S
H1195 C1207 0.950 . S
C1196 H1188 0.950 . S
C1196 C1197 1.386 . S
C1196 C1198 1.391 . S
C1197 C1196 1.386 . S
C1197 C1201 1.393 . S
C1198 H1190 0.950 . S
C1198 C1196 1.391 . S
C1198 C1199 1.400 . S
C1199 C1198 1.400 . S
C1199 C1200 1.398 . S
C1199 C1205 1.491 . S
C1200 H1191 0.950 . S
C1200 C1199 1.398 . S
C1200 C1201 1.391 . S
C1201 H1189 0.950 . S
C1201 C1197 1.393 . S
C1201 C1200 1.391 . S
C1202 H1192 0.950 . S
C1202 C1203 1.386 . S
C1202 C1204 1.391 . S
C1203 C1202 1.386 . S
C1203 C1207 1.393 . S
C1204 H1193 0.950 . S
C1204 C1202 1.391 . S
C1204 C1205 1.400 . S
C1205 C1199 1.491 . S
C1205 C1204 1.400 . S
C1205 C1206 1.398 . S
C1206 H1194 0.950 . S
C1206 C1205 1.398 . S
C1206 C1207 1.391 . S
C1207 H1195 0.950 . S
C1207 C1203 1.393 . S
C1207 C1206 1.391 . S
H1208 C1216 0.950 . S
H1209 C1221 0.950 . S
H1210 C1218 0.950 . S
H1211 C1220 0.950 . S
H1212 C1222 0.950 . S
H1213 C1224 0.950 . S
H1214 C1226 0.950 . S
H1215 C1227 0.950 . S
C1216 H1208 0.950 . S
C1216 C1217 1.386 . S
C1216 C1218 1.391 . S
C1217 C1216 1.386 . S
C1217 C1221 1.393 . S
C1218 H1210 0.950 . S
C1218 C1216 1.391 . S
C1218 C1219 1.400 . S
C1219 C1218 1.400 . S
C1219 C1220 1.398 . S
C1219 C1225 1.491 . S
C1220 H1211 0.950 . S
C1220 C1219 1.398 . S
C1220 C1221 1.391 . S
C1221 H1209 0.950 . S
C1221 C1217 1.393 . S
C1221 C1220 1.391 . S
C1222 H1212 0.950 . S
C1222 C1223 1.386 . S
C1222 C1224 1.391 . S
C1223 C1222 1.386 . S
C1223 C1227 1.393 . S
C1224 H1213 0.950 . S
C1224 C1222 1.391 . S
C1224 C1225 1.400 . S
C1225 C1219 1.491 . S
C1225 C1224 1.400 . S
C1225 C1226 1.398 . S
C1226 H1214 0.950 . S
C1226 C1225 1.398 . S
C1226 C1227 1.391 . S
C1227 H1215 0.950 . S
C1227 C1223 1.393 . S
C1227 C1226 1.391 . S
H1228 C1236 0.950 . S
H1229 C1241 0.950 . S
H1230 C1238 0.950 . S
H1231 C1240 0.950 . S
H1232 C1242 0.950 . S
H1233 C1244 0.950 . S
H1234 C1246 0.950 . S
H1235 C1247 0.950 . S
C1236 H1228 0.950 . S
C1236 C1237 1.386 . S
C1236 C1238 1.391 . S
C1237 C1236 1.386 . S
C1237 C1241 1.393 . S
C1238 H1230 0.950 . S
C1238 C1236 1.391 . S
C1238 C1239 1.400 . S
C1239 C1238 1.400 . S
C1239 C1240 1.398 . S
C1239 C1245 1.491 . S
C1240 H1231 0.950 . S
C1240 C1239 1.398 . S
C1240 C1241 1.391 . S
C1241 H1229 0.950 . S
C1241 C1237 1.393 . S
C1241 C1240 1.391 . S
C1242 H1232 0.950 . S
C1242 C1243 1.386 . S
C1242 C1244 1.391 . S
C1243 C1242 1.386 . S
C1243 C1247 1.393 . S
C1244 H1233 0.950 . S
C1244 C1242 1.391 . S
C1244 C1245 1.400 . S
C1245 C1239 1.491 . S
C1245 C1244 1.400 . S
C1245 C1246 1.398 . S
C1246 H1234 0.950 . S
C1246 C1245 1.398 . S
C1246 C1247 1.391 . S
C1247 H1235 0.950 . S
C1247 C1243 1.393 . S
C1247 C1246 1.391 . S
H1248 C1256 0.950 . S
H1249 C1261 0.950 . S
H1250 C1258 0.950 . S
H1251 C1260 0.950 . S
H1252 C1262 0.950 . S
H1253 C1264 0.950 . S
H1254 C1266 0.950 . S
H1255 C1267 0.950 . S
C1256 H1248 0.950 . S
C1256 C1257 1.386 . S
C1256 C1258 1.391 . S
C1257 C1256 1.386 . S
C1257 C1261 1.393 . S
C1258 H1250 0.950 . S
C1258 C1256 1.391 . S
C1258 C1259 1.400 . S
C1259 C1258 1.400 . S
C1259 C1260 1.398 . S
C1259 C1265 1.491 . S
C1260 H1251 0.950 . S
C1260 C1259 1.398 . S
C1260 C1261 1.391 . S
C1261 H1249 0.950 . S
C1261 C1257 1.393 . S
C1261 C1260 1.391 . S
C1262 H1252 0.950 . S
C1262 C1263 1.386 . S
C1262 C1264 1.391 . S
C1263 C1262 1.386 . S
C1263 C1267 1.393 . S
C1264 H1253 0.950 . S
C1264 C1262 1.391 . S
C1264 C1265 1.400 . S
C1265 C1259 1.491 . S
C1265 C1264 1.400 . S
C1265 C1266 1.398 . S
C1266 H1254 0.950 . S
C1266 C1265 1.398 . S
C1266 C1267 1.391 . S
C1267 H1255 0.950 . S
C1267 C1263 1.393 . S
C1267 C1266 1.391 . S
H1268 C1276 0.950 . S
H1269 C1281 0.950 . S
H1270 C1278 0.950 . S
H1271 C1280 0.950 . S
H1272 C1282 0.950 . S
H1273 C1284 0.950 . S
H1274 C1286 0.950 . S
H1275 C1287 0.950 . S
C1276 H1268 0.950 . S
C1276 C1277 1.386 . S
C1276 C1278 1.391 . S
C1277 C1276 1.386 . S
C1277 C1281 1.393 . S
C1278 H1270 0.950 . S
C1278 C1276 1.391 . S
C1278 C1279 1.400 . S
C1279 C1278 1.400 . S
C1279 C1280 1.398 . S
C1279 C1285 1.491 . S
C1280 H1271 0.950 . S
C1280 C1279 1.398 . S
C1280 C1281 1.391 . S
C1281 H1269 0.950 . S
C1281 C1277 1.393 . S
C1281 C1280 1.391 . S
C1282 H1272 0.950 . S
C1282 C1283 1.386 . S
C1282 C1284 1.391 . S
C1283 C1282 1.386 . S
C1283 C1287 1.393 . S
C1284 H1273 0.950 . S
C1284 C1282 1.391 . S
C1284 C1285 1.400 . S
C1285 C1279 1.491 . S
C1285 C1284 1.400 . S
C1285 C1286 1.398 . S
C1286 H1274 0.950 . S
C1286 C1285 1.398 . S
C1286 C1287 1.391 . S
C1287 H1275 0.950 . S
C1287 C1283 1.393 . S
C1287 C1286 1.391 . S
H1288 C1296 0.950 . S
H1289 C1301 0.950 . S
H1290 C1298 0.950 . S
H1291 C1300 0.950 . S
H1292 C1302 0.950 . S
H1293 C1304 0.950 . S
H1294 C1306 0.950 . S
H1295 C1307 0.950 . S
C1296 H1288 0.950 . S
C1296 C1297 1.386 . S
C1296 C1298 1.391 . S
C1297 C1296 1.386 . S
C1297 C1301 1.393 . S
C1298 H1290 0.950 . S
C1298 C1296 1.391 . S
C1298 C1299 1.400 . S
C1299 C1298 1.400 . S
C1299 C1300 1.398 . S
C1299 C1305 1.491 . S
C1300 H1291 0.950 . S
C1300 C1299 1.398 . S
C1300 C1301 1.391 . S
C1301 H1289 0.950 . S
C1301 C1297 1.393 . S
C1301 C1300 1.391 . S
C1302 H1292 0.950 . S
C1302 C1303 1.386 . S
C1302 C1304 1.391 . S
C1303 C1302 1.386 . S
C1303 C1307 1.393 . S
C1304 H1293 0.950 . S
C1304 C1302 1.391 . S
C1304 C1305 1.400 . S
C1305 C1299 1.491 . S
C1305 C1304 1.400 . S
C1305 C1306 1.398 . S
C1306 H1294 0.950 . S
C1306 C1305 1.398 . S
C1306 C1307 1.391 . S
C1307 H1295 0.950 . S
C1307 C1303 1.393 . S
C1307 C1306 1.391 . S
H1308 C1316 0.950 . S
H1309 C1321 0.950 . S
H1310 C1318 0.950 . S
H1311 C1320 0.950 . S
H1312 C1322 0.950 . S
H1313 C1324 0.950 . S
H1314 C1326 0.950 . S
H1315 C1327 0.950 . S
C1316 H1308 0.950 . S
C1316 C1317 1.386 . S
C1316 C1318 1.391 . S
C1317 C1316 1.386 . S
C1317 C1321 1.393 . S
C1318 H1310 0.950 . S
C1318 C1316 1.391 . S
C1318 C1319 1.400 . S
C1319 C1318 1.400 . S
C1319 C1320 1.398 . S
C1319 C1325 1.491 . S
C1320 H1311 0.950 . S
C1320 C1319 1.398 . S
C1320 C1321 1.391 . S
C1321 H1309 0.950 . S
C1321 C1317 1.393 . S
C1321 C1320 1.391 . S
C1322 H1312 0.950 . S
C1322 C1323 1.386 . S
C1322 C1324 1.391 . S
C1323 C1322 1.386 . S
C1323 C1327 1.393 . S
C1324 H1313 0.950 . S
C1324 C1322 1.391 . S
C1324 C1325 1.400 . S
C1325 C1319 1.491 . S
C1325 C1324 1.400 . S
C1325 C1326 1.398 . S
C1326 H1314 0.950 . S
C1326 C1325 1.398 . S
C1326 C1327 1.391 . S
C1327 H1315 0.950 . S
C1327 C1323 1.393 . S
C1327 C1326 1.391 . S
H1328 C1336 0.950 . S
H1329 C1341 0.950 . S
H1330 C1338 0.950 . S
H1331 C1340 0.950 . S
H1332 C1342 0.978 . S
H1333 C1344 0.950 . S
H1334 C1346 0.950 . S
H1335 C1347 0.950 . S
C1336 H1328 0.950 . S
C1336 C1337 1.386 1_554 S
C1336 C1338 1.391 . S
C1337 C1336 1.386 1_556 S
C1337 C1341 1.393 . S
C1338 H1330 0.950 . S
C1338 C1336 1.391 . S
C1338 C1339 1.410 . S
C1339 C1338 1.410 . S
C1339 C1340 1.386 1_554 S
C1339 C1345 1.494 . S
C1340 H1331 0.950 . S
C1340 C1339 1.386 1_556 S
C1340 C1341 1.391 . S
C1341 H1329 0.950 . S
C1341 C1337 1.393 . S
C1341 C1340 1.391 . S
C1342 H1332 0.978 . S
C1342 C1343 1.352 1_556 S
C1342 C1344 1.403 . S
C1343 C1342 1.352 1_554 S
C1343 C1347 1.393 . S
C1344 H1333 0.950 . S
C1344 C1342 1.403 . S
C1344 C1345 1.400 1_556 S
C1345 C1339 1.494 . S
C1345 C1344 1.400 1_554 S
C1345 C1346 1.398 . S
C1346 H1334 0.950 . S
C1346 C1345 1.398 . S
C1346 C1347 1.391 . S
C1347 H1335 0.950 . S
C1347 C1343 1.393 . S
C1347 C1346 1.391 . S
H1348 C1356 0.950 . S
H1349 C1361 0.950 . S
H1350 C1358 0.950 . S
H1351 C1360 0.950 . S
H1352 C1362 0.950 . S
H1353 C1364 0.950 . S
H1354 C1366 0.950 . S
H1355 C1367 0.950 . S
C1356 H1348 0.950 . S
C1356 C1357 1.386 . S
C1356 C1358 1.391 . S
C1357 C1356 1.386 . S
C1357 C1361 1.393 . S
C1358 H1350 0.950 . S
C1358 C1356 1.391 . S
C1358 C1359 1.400 . S
C1359 C1358 1.400 . S
C1359 C1360 1.398 . S
C1359 C1365 1.491 . S
C1360 H1351 0.950 . S
C1360 C1359 1.398 . S
C1360 C1361 1.391 . S
C1361 H1349 0.950 . S
C1361 C1357 1.393 . S
C1361 C1360 1.391 . S
C1362 H1352 0.950 . S
C1362 C1363 1.386 . S
C1362 C1364 1.391 . S
C1363 C1362 1.386 . S
C1363 C1367 1.393 . S
C1364 H1353 0.950 . S
C1364 C1362 1.391 . S
C1364 C1365 1.400 . S
C1365 C1359 1.491 . S
C1365 C1364 1.400 . S
C1365 C1366 1.398 . S
C1366 H1354 0.950 . S
C1366 C1365 1.398 . S
C1366 C1367 1.391 . S
C1367 H1355 0.950 . S
C1367 C1363 1.393 . S
C1367 C1366 1.391 . S
H1368 C1376 0.950 . S
H1369 C1381 0.950 . S
H1370 C1378 0.950 . S
H1371 C1380 0.950 . S
H1372 C1382 0.950 . S
H1373 C1384 0.950 . S
H1374 C1386 0.950 . S
H1375 C1387 0.950 . S
C1376 H1368 0.950 . S
C1376 C1377 1.386 . S
C1376 C1378 1.391 . S
C1377 C1376 1.386 . S
C1377 C1381 1.393 . S
C1378 H1370 0.950 . S
C1378 C1376 1.391 . S
C1378 C1379 1.400 . S
C1379 C1378 1.400 . S
C1379 C1380 1.398 . S
C1379 C1385 1.491 . S
C1380 H1371 0.950 . S
C1380 C1379 1.398 . S
C1380 C1381 1.391 . S
C1381 H1369 0.950 . S
C1381 C1377 1.393 . S
C1381 C1380 1.391 . S
C1382 H1372 0.950 . S
C1382 C1383 1.386 . S
C1382 C1384 1.391 . S
C1383 C1382 1.386 . S
C1383 C1387 1.393 . S
C1384 H1373 0.950 . S
C1384 C1382 1.391 . S
C1384 C1385 1.400 . S
C1385 C1379 1.491 . S
C1385 C1384 1.400 . S
C1385 C1386 1.398 . S
C1386 H1374 0.950 . S
C1386 C1385 1.398 . S
C1386 C1387 1.391 . S
C1387 H1375 0.950 . S
C1387 C1383 1.393 . S
C1387 C1386 1.391 . S
H1388 C1396 0.950 . S
H1389 C1401 0.950 . S
H1390 C1398 0.950 . S
H1391 C1400 0.950 . S
H1392 C1402 0.950 . S
H1393 C1404 0.950 . S
H1394 C1406 0.950 . S
H1395 C1407 0.950 . S
C1396 H1388 0.950 . S
C1396 C1397 1.386 . S
C1396 C1398 1.391 . S
C1397 C1396 1.386 . S
C1397 C1401 1.393 . S
C1398 H1390 0.950 . S
C1398 C1396 1.391 . S
C1398 C1399 1.400 . S
C1399 C1398 1.400 . S
C1399 C1400 1.398 . S
C1399 C1405 1.491 . S
C1400 H1391 0.950 . S
C1400 C1399 1.398 . S
C1400 C1401 1.391 . S
C1401 H1389 0.950 . S
C1401 C1397 1.393 . S
C1401 C1400 1.391 . S
C1402 H1392 0.950 . S
C1402 C1403 1.386 . S
C1402 C1404 1.391 . S
C1403 C1402 1.386 . S
C1403 C1407 1.393 . S
C1404 H1393 0.950 . S
C1404 C1402 1.391 . S
C1404 C1405 1.400 . S
C1405 C1399 1.491 . S
C1405 C1404 1.400 . S
C1405 C1406 1.398 . S
C1406 H1394 0.950 . S
C1406 C1405 1.398 . S
C1406 C1407 1.391 . S
C1407 H1395 0.950 . S
C1407 C1403 1.393 . S
C1407 C1406 1.391 . S
H1408 C1416 0.950 . S
H1409 C1421 0.950 . S
H1410 C1418 0.950 . S
H1411 C1420 0.950 . S
H1412 C1422 0.950 . S
H1413 C1424 0.950 . S
H1414 C1426 0.950 . S
H1415 C1427 0.950 . S
C1416 H1408 0.950 . S
C1416 C1417 1.386 . S
C1416 C1418 1.391 . S
C1417 C1416 1.386 . S
C1417 C1421 1.393 . S
C1418 H1410 0.950 . S
C1418 C1416 1.391 . S
C1418 C1419 1.400 . S
C1419 C1418 1.400 . S
C1419 C1420 1.398 . S
C1419 C1425 1.491 . S
C1420 H1411 0.950 . S
C1420 C1419 1.398 . S
C1420 C1421 1.391 . S
C1421 H1409 0.950 . S
C1421 C1417 1.393 . S
C1421 C1420 1.391 . S
C1422 H1412 0.950 . S
C1422 C1423 1.386 . S
C1422 C1424 1.391 . S
C1423 C1422 1.386 . S
C1423 C1427 1.393 . S
C1424 H1413 0.950 . S
C1424 C1422 1.391 . S
C1424 C1425 1.400 . S
C1425 C1419 1.491 . S
C1425 C1424 1.400 . S
C1425 C1426 1.398 . S
C1426 H1414 0.950 . S
C1426 C1425 1.398 . S
C1426 C1427 1.391 . S
C1427 H1415 0.950 . S
C1427 C1423 1.393 . S
C1427 C1426 1.391 . S
H1428 C1436 0.950 . S
H1429 C1441 0.950 . S
H1430 C1438 0.950 . S
H1431 C1440 0.950 . S
H1432 C1442 0.950 . S
H1433 C1444 0.950 . S
H1434 C1446 0.950 . S
H1435 C1447 0.950 . S
C1436 H1428 0.950 . S
C1436 C1437 1.386 . S
C1436 C1438 1.391 . S
C1437 C1436 1.386 . S
C1437 C1441 1.393 1_554 S
C1438 H1430 0.950 . S
C1438 C1436 1.391 . S
C1438 C1439 1.400 . S
C1439 C1438 1.400 . S
C1439 C1440 1.398 1_554 S
C1439 C1445 1.491 . S
C1440 H1431 0.950 . S
C1440 C1439 1.398 1_556 S
C1440 C1441 1.391 . S
C1441 H1429 0.950 . S
C1441 C1437 1.393 1_556 S
C1441 C1440 1.391 . S
C1442 H1432 0.950 . S
C1442 C1443 1.386 . S
C1442 C1444 1.391 . S
C1443 C1442 1.386 . S
C1443 C1447 1.393 1_556 S
C1444 H1433 0.950 . S
C1444 C1442 1.391 . S
C1444 C1445 1.400 1_556 S
C1445 C1439 1.491 . S
C1445 C1444 1.400 1_554 S
C1445 C1446 1.398 . S
C1446 H1434 0.950 . S
C1446 C1445 1.398 . S
C1446 C1447 1.391 . S
C1447 H1435 0.950 . S
C1447 C1443 1.393 1_554 S
C1447 C1446 1.391 . S
H1448 C1456 0.950 . S
H1449 C1461 0.950 . S
H1450 C1458 0.950 . S
H1451 C1460 0.950 . S
H1452 C1462 0.950 . S
H1453 C1464 0.950 . S
H1454 C1466 0.950 . S
H1455 C1467 0.950 . S
C1456 H1448 0.950 . S
C1456 C1457 1.386 . S
C1456 C1458 1.391 . S
C1457 C1456 1.386 . S
C1457 C1461 1.393 . S
C1458 H1450 0.950 . S
C1458 C1456 1.391 . S
C1458 C1459 1.400 . S
C1459 C1458 1.400 . S
C1459 C1460 1.398 . S
C1459 C1465 1.491 . S
C1460 H1451 0.950 . S
C1460 C1459 1.398 . S
C1460 C1461 1.391 . S
C1461 H1449 0.950 . S
C1461 C1457 1.393 . S
C1461 C1460 1.391 . S
C1462 H1452 0.950 . S
C1462 C1463 1.386 . S
C1462 C1464 1.391 . S
C1463 C1462 1.386 . S
C1463 C1467 1.393 . S
C1464 H1453 0.950 . S
C1464 C1462 1.391 . S
C1464 C1465 1.400 . S
C1465 C1459 1.491 . S
C1465 C1464 1.400 . S
C1465 C1466 1.398 . S
C1466 H1454 0.950 . S
C1466 C1465 1.398 . S
C1466 C1467 1.391 . S
C1467 H1455 0.950 . S
C1467 C1463 1.393 . S
C1467 C1466 1.391 . S
H1468 C1476 0.950 . S
H1469 C1481 0.950 . S
H1470 C1478 0.950 . S
H1471 C1480 0.950 . S
H1472 C1482 0.950 . S
H1473 C1484 0.950 . S
H1474 C1486 0.950 . S
H1475 C1487 0.950 . S
C1476 H1468 0.950 . S
C1476 C1477 1.386 . S
C1476 C1478 1.391 . S
C1477 C1476 1.386 . S
C1477 C1481 1.393 . S
C1478 H1470 0.950 . S
C1478 C1476 1.391 . S
C1478 C1479 1.400 . S
C1479 C1478 1.400 . S
C1479 C1480 1.398 . S
C1479 C1485 1.491 . S
C1480 H1471 0.950 . S
C1480 C1479 1.398 . S
C1480 C1481 1.391 . S
C1481 H1469 0.950 . S
C1481 C1477 1.393 . S
C1481 C1480 1.391 . S
C1482 H1472 0.950 . S
C1482 C1483 1.386 . S
C1482 C1484 1.391 . S
C1483 C1482 1.386 . S
C1483 C1487 1.393 . S
C1484 H1473 0.950 . S
C1484 C1482 1.391 . S
C1484 C1485 1.400 . S
C1485 C1479 1.491 . S
C1485 C1484 1.400 . S
C1485 C1486 1.398 . S
C1486 H1474 0.950 . S
C1486 C1485 1.398 . S
C1486 C1487 1.391 . S
C1487 H1475 0.950 . S
C1487 C1483 1.393 . S
C1487 C1486 1.391 . S
H1488 C1496 0.950 . S
H1489 C1501 0.950 . S
H1490 C1498 0.950 . S
H1491 C1500 0.950 . S
H1492 C1502 0.950 . S
H1493 C1504 0.950 . S
H1494 C1506 0.950 . S
H1495 C1507 0.950 . S
C1496 H1488 0.950 . S
C1496 C1497 1.386 . S
C1496 C1498 1.391 . S
C1497 C1496 1.386 . S
C1497 C1501 1.393 . S
C1498 H1490 0.950 . S
C1498 C1496 1.391 . S
C1498 C1499 1.400 . S
C1499 C1498 1.400 . S
C1499 C1500 1.398 . S
C1499 C1505 1.491 . S
C1500 H1491 0.950 . S
C1500 C1499 1.398 . S
C1500 C1501 1.391 . S
C1501 H1489 0.950 . S
C1501 C1497 1.393 . S
C1501 C1500 1.391 . S
C1502 H1492 0.950 . S
C1502 C1503 1.386 . S
C1502 C1504 1.391 . S
C1503 C1502 1.386 . S
C1503 C1507 1.393 . S
C1504 H1493 0.950 . S
C1504 C1502 1.391 . S
C1504 C1505 1.400 . S
C1505 C1499 1.491 . S
C1505 C1504 1.400 . S
C1505 C1506 1.398 . S
C1506 H1494 0.950 . S
C1506 C1505 1.398 . S
C1506 C1507 1.391 . S
C1507 H1495 0.950 . S
C1507 C1503 1.393 . S
C1507 C1506 1.391 . S
H1508 C1516 0.950 . S
H1509 C1521 0.950 . S
H1510 C1518 0.950 . S
H1511 C1520 0.950 . S
H1512 C1522 0.950 . S
H1513 C1524 0.950 . S
H1514 C1526 0.950 . S
H1515 C1527 0.950 . S
C1516 H1508 0.950 . S
C1516 C1517 1.386 . S
C1516 C1518 1.391 . S
C1517 C1516 1.386 . S
C1517 C1521 1.393 . S
C1518 H1510 0.950 . S
C1518 C1516 1.391 . S
C1518 C1519 1.400 . S
C1519 C1518 1.400 . S
C1519 C1520 1.398 . S
C1519 C1525 1.491 . S
C1520 H1511 0.950 . S
C1520 C1519 1.398 . S
C1520 C1521 1.391 . S
C1521 H1509 0.950 . S
C1521 C1517 1.393 . S
C1521 C1520 1.391 . S
C1522 H1512 0.950 . S
C1522 C1523 1.386 . S
C1522 C1524 1.391 . S
C1523 C1522 1.386 . S
C1523 C1527 1.393 . S
C1524 H1513 0.950 . S
C1524 C1522 1.391 . S
C1524 C1525 1.400 . S
C1525 C1519 1.491 . S
C1525 C1524 1.400 . S
C1525 C1526 1.398 . S
C1526 H1514 0.950 . S
C1526 C1525 1.398 . S
C1526 C1527 1.391 . S
C1527 H1515 0.950 . S
C1527 C1523 1.393 . S
C1527 C1526 1.391 . S
H1528 C1536 0.950 . S
H1529 C1541 0.950 . S
H1530 C1538 0.950 . S
H1531 C1540 0.950 . S
H1532 C1542 0.950 . S
H1533 C1544 0.950 . S
H1534 C1546 0.950 . S
H1535 C1547 0.950 . S
C1536 H1528 0.950 . S
C1536 C1537 1.386 . S
C1536 C1538 1.391 . S
C1537 C1536 1.386 . S
C1537 C1541 1.393 . S
C1538 H1530 0.950 . S
C1538 C1536 1.391 . S
C1538 C1539 1.400 . S
C1539 C1538 1.400 . S
C1539 C1540 1.398 . S
C1539 C1545 1.491 . S
C1540 H1531 0.950 . S
C1540 C1539 1.398 . S
C1540 C1541 1.391 . S
C1541 H1529 0.950 . S
C1541 C1537 1.393 . S
C1541 C1540 1.391 . S
C1542 H1532 0.950 . S
C1542 C1543 1.386 . S
C1542 C1544 1.391 . S
C1543 C1542 1.386 . S
C1543 C1547 1.393 . S
C1544 H1533 0.950 . S
C1544 C1542 1.391 . S
C1544 C1545 1.400 . S
C1545 C1539 1.491 . S
C1545 C1544 1.400 . S
C1545 C1546 1.398 . S
C1546 H1534 0.950 . S
C1546 C1545 1.398 . S
C1546 C1547 1.391 . S
C1547 H1535 0.950 . S
C1547 C1543 1.393 . S
C1547 C1546 1.391 . S
H1548 C1556 0.950 . S
H1549 C1561 0.950 . S
H1550 C1558 0.950 . S
H1551 C1560 0.950 . S
H1552 C1562 0.950 . S
H1553 C1564 0.950 . S
H1554 C1566 0.950 . S
H1555 C1567 0.950 . S
C1556 H1548 0.950 . S
C1556 C1557 1.386 . S
C1556 C1558 1.391 . S
C1557 C1556 1.386 . S
C1557 C1561 1.393 . S
C1558 H1550 0.950 . S
C1558 C1556 1.391 . S
C1558 C1559 1.400 . S
C1559 C1558 1.400 . S
C1559 C1560 1.398 . S
C1559 C1565 1.491 . S
C1560 H1551 0.950 . S
C1560 C1559 1.398 . S
C1560 C1561 1.391 . S
C1561 H1549 0.950 . S
C1561 C1557 1.393 . S
C1561 C1560 1.391 . S
C1562 H1552 0.950 . S
C1562 C1563 1.386 . S
C1562 C1564 1.391 . S
C1563 C1562 1.386 . S
C1563 C1567 1.393 . S
C1564 H1553 0.950 . S
C1564 C1562 1.391 . S
C1564 C1565 1.400 . S
C1565 C1559 1.491 . S
C1565 C1564 1.400 . S
C1565 C1566 1.398 . S
C1566 H1554 0.950 . S
C1566 C1565 1.398 . S
C1566 C1567 1.391 . S
C1567 H1555 0.950 . S
C1567 C1563 1.393 . S
C1567 C1566 1.391 . S
H1568 C1576 0.950 . S
H1569 C1581 0.950 . S
H1570 C1578 0.950 . S
H1571 C1580 0.950 . S
H1572 C1582 0.950 . S
H1573 C1584 0.950 . S
H1574 C1586 0.950 . S
H1575 C1587 0.950 . S
C1576 H1568 0.950 . S
C1576 C1577 1.386 . S
C1576 C1578 1.391 . S
C1577 C1576 1.386 . S
C1577 C1581 1.393 . S
C1578 H1570 0.950 . S
C1578 C1576 1.391 . S
C1578 C1579 1.400 . S
C1579 C1578 1.400 . S
C1579 C1580 1.398 . S
C1579 C1585 1.491 . S
C1580 H1571 0.950 . S
C1580 C1579 1.398 . S
C1580 C1581 1.391 . S
C1581 H1569 0.950 . S
C1581 C1577 1.393 . S
C1581 C1580 1.391 . S
C1582 H1572 0.950 . S
C1582 C1583 1.386 . S
C1582 C1584 1.391 . S
C1583 C1582 1.386 . S
C1583 C1587 1.393 . S
C1584 H1573 0.950 . S
C1584 C1582 1.391 . S
C1584 C1585 1.400 . S
C1585 C1579 1.491 . S
C1585 C1584 1.400 . S
C1585 C1586 1.398 . S
C1586 H1574 0.950 . S
C1586 C1585 1.398 . S
C1586 C1587 1.391 . S
C1587 H1575 0.950 . S
C1587 C1583 1.393 . S
C1587 C1586 1.391 . S
H1588 C1596 0.950 . S
H1589 C1601 0.950 . S
H1590 C1598 0.950 . S
H1591 C1600 0.950 . S
H1592 C1602 0.950 . S
H1593 C1604 0.950 . S
H1594 C1606 0.950 . S
H1595 C1607 0.950 . S
C1596 H1588 0.950 . S
C1596 C1597 1.386 . S
C1596 C1598 1.391 . S
C1597 C1596 1.386 . S
C1597 C1601 1.393 . S
C1598 H1590 0.950 . S
C1598 C1596 1.391 . S
C1598 C1599 1.400 . S
C1599 C1598 1.400 . S
C1599 C1600 1.398 . S
C1599 C1605 1.491 . S
C1600 H1591 0.950 . S
C1600 C1599 1.398 . S
C1600 C1601 1.391 . S
C1601 H1589 0.950 . S
C1601 C1597 1.393 . S
C1601 C1600 1.391 . S
C1602 H1592 0.950 . S
C1602 C1603 1.386 . S
C1602 C1604 1.391 . S
C1603 C1602 1.386 . S
C1603 C1607 1.393 . S
C1604 H1593 0.950 . S
C1604 C1602 1.391 . S
C1604 C1605 1.400 . S
C1605 C1599 1.491 . S
C1605 C1604 1.400 . S
C1605 C1606 1.398 . S
C1606 H1594 0.950 . S
C1606 C1605 1.398 . S
C1606 C1607 1.391 . S
C1607 H1595 0.950 . S
C1607 C1603 1.393 . S
C1607 C1606 1.391 . S
H1608 C1616 0.950 . S
H1609 C1621 0.950 . S
H1610 C1618 0.950 . S
H1611 C1620 0.950 . S
H1612 C1622 0.950 . S
H1613 C1624 0.950 . S
H1614 C1626 0.950 . S
H1615 C1627 0.950 . S
C1616 H1608 0.950 . S
C1616 C1617 1.386 . S
C1616 C1618 1.391 . S
C1617 C1616 1.386 . S
C1617 C1621 1.393 . S
C1618 H1610 0.950 . S
C1618 C1616 1.391 . S
C1618 C1619 1.400 . S
C1619 C1618 1.400 . S
C1619 C1620 1.398 . S
C1619 C1625 1.491 . S
C1620 H1611 0.950 . S
C1620 C1619 1.398 . S
C1620 C1621 1.391 . S
C1621 H1609 0.950 . S
C1621 C1617 1.393 . S
C1621 C1620 1.391 . S
C1622 H1612 0.950 . S
C1622 C1623 1.386 . S
C1622 C1624 1.391 . S
C1623 C1622 1.386 . S
C1623 C1627 1.393 . S
C1624 H1613 0.950 . S
C1624 C1622 1.391 . S
C1624 C1625 1.400 . S
C1625 C1619 1.491 . S
C1625 C1624 1.400 . S
C1625 C1626 1.398 . S
C1626 H1614 0.950 . S
C1626 C1625 1.398 . S
C1626 C1627 1.391 . S
C1627 H1615 0.950 . S
C1627 C1623 1.393 . S
C1627 C1626 1.391 . S
H1628 C1636 0.950 . S
H1629 C1641 0.950 . S
H1630 C1638 0.950 . S
H1631 C1640 0.950 . S
H1632 C1642 0.950 . S
H1633 C1644 0.950 . S
H1634 C1646 0.950 . S
H1635 C1647 0.950 . S
C1636 H1628 0.950 . S
C1636 C1637 1.386 . S
C1636 C1638 1.391 . S
C1637 C1636 1.386 . S
C1637 C1641 1.393 . S
C1638 H1630 0.950 . S
C1638 C1636 1.391 . S
C1638 C1639 1.400 . S
C1639 C1638 1.400 . S
C1639 C1640 1.398 . S
C1639 C1645 1.491 . S
C1640 H1631 0.950 . S
C1640 C1639 1.398 . S
C1640 C1641 1.391 . S
C1641 H1629 0.950 . S
C1641 C1637 1.393 . S
C1641 C1640 1.391 . S
C1642 H1632 0.950 . S
C1642 C1643 1.386 . S
C1642 C1644 1.391 . S
C1643 C1642 1.386 . S
C1643 C1647 1.393 . S
C1644 H1633 0.950 . S
C1644 C1642 1.391 . S
C1644 C1645 1.400 . S
C1645 C1639 1.491 . S
C1645 C1644 1.400 . S
C1645 C1646 1.398 . S
C1646 H1634 0.950 . S
C1646 C1645 1.398 . S
C1646 C1647 1.391 . S
C1647 H1635 0.950 . S
C1647 C1643 1.393 . S
C1647 C1646 1.391 . S
H1648 C1656 0.950 . S
H1649 C1661 0.950 . S
H1650 C1658 0.950 . S
H1651 C1660 0.950 . S
H1652 C1662 0.950 . S
H1653 C1664 0.950 . S
H1654 C1666 0.950 . S
H1655 C1667 0.950 . S
C1656 H1648 0.950 . S
C1656 C1657 1.386 . S
C1656 C1658 1.391 . S
C1657 C1656 1.386 . S
C1657 C1661 1.393 . S
C1658 H1650 0.950 . S
C1658 C1656 1.391 . S
C1658 C1659 1.400 . S
C1659 C1658 1.400 . S
C1659 C1660 1.398 . S
C1659 C1665 1.491 . S
C1660 H1651 0.950 . S
C1660 C1659 1.398 . S
C1660 C1661 1.391 . S
C1661 H1649 0.950 . S
C1661 C1657 1.393 . S
C1661 C1660 1.391 . S
C1662 H1652 0.950 . S
C1662 C1663 1.386 . S
C1662 C1664 1.391 . S
C1663 C1662 1.386 . S
C1663 C1667 1.393 . S
C1664 H1653 0.950 . S
C1664 C1662 1.391 . S
C1664 C1665 1.400 . S
C1665 C1659 1.491 . S
C1665 C1664 1.400 . S
C1665 C1666 1.398 . S
C1666 H1654 0.950 . S
C1666 C1665 1.398 . S
C1666 C1667 1.391 . S
C1667 H1655 0.950 . S
C1667 C1663 1.393 . S
C1667 C1666 1.391 . S
H1668 C1676 0.950 . S
H1669 C1681 0.950 . S
H1670 C1678 0.950 . S
H1671 C1680 0.950 . S
H1672 C1682 0.950 . S
H1673 C1684 0.950 . S
H1674 C1686 0.950 . S
H1675 C1687 0.950 . S
C1676 H1668 0.950 . S
C1676 C1677 1.386 . S
C1676 C1678 1.391 . S
C1677 C1676 1.386 . S
C1677 C1681 1.393 . S
C1678 H1670 0.950 . S
C1678 C1676 1.391 . S
C1678 C1679 1.400 . S
C1679 C1678 1.400 . S
C1679 C1680 1.398 . S
C1679 C1685 1.491 . S
C1680 H1671 0.950 . S
C1680 C1679 1.398 . S
C1680 C1681 1.391 . S
C1681 H1669 0.950 . S
C1681 C1677 1.393 . S
C1681 C1680 1.391 . S
C1682 H1672 0.950 . S
C1682 C1683 1.386 . S
C1682 C1684 1.391 . S
C1683 C1682 1.386 . S
C1683 C1687 1.393 . S
C1684 H1673 0.950 . S
C1684 C1682 1.391 . S
C1684 C1685 1.400 . S
C1685 C1679 1.491 . S
C1685 C1684 1.400 . S
C1685 C1686 1.398 . S
C1686 H1674 0.950 . S
C1686 C1685 1.398 . S
C1686 C1687 1.391 . S
C1687 H1675 0.950 . S
C1687 C1683 1.393 . S
C1687 C1686 1.391 . S
H1688 C1696 0.950 . S
H1689 C1701 0.950 . S
H1690 C1698 0.950 . S
H1691 C1700 0.950 . S
H1692 C1702 0.950 . S
H1693 C1704 0.950 . S
H1694 C1706 0.950 . S
H1695 C1707 0.950 . S
C1696 H1688 0.950 . S
C1696 C1697 1.386 . S
C1696 C1698 1.391 . S
C1697 C1696 1.386 . S
C1697 C1701 1.393 . S
C1698 H1690 0.950 . S
C1698 C1696 1.391 . S
C1698 C1699 1.400 . S
C1699 C1698 1.400 . S
C1699 C1700 1.398 . S
C1699 C1705 1.491 . S
C1700 H1691 0.950 . S
C1700 C1699 1.398 . S
C1700 C1701 1.391 . S
C1701 H1689 0.950 . S
C1701 C1697 1.393 . S
C1701 C1700 1.391 . S
C1702 H1692 0.950 . S
C1702 C1703 1.386 . S
C1702 C1704 1.391 . S
C1703 C1702 1.386 . S
C1703 C1707 1.393 . S
C1704 H1693 0.950 . S
C1704 C1702 1.391 . S
C1704 C1705 1.400 . S
C1705 C1699 1.491 . S
C1705 C1704 1.400 . S
C1705 C1706 1.398 . S
C1706 H1694 0.950 . S
C1706 C1705 1.398 . S
C1706 C1707 1.391 . S
C1707 H1695 0.950 . S
C1707 C1703 1.393 . S
C1707 C1706 1.391 . S
H1708 C1716 0.950 . S
H1709 C1721 0.950 . S
H1710 C1718 0.950 . S
H1711 C1720 0.950 . S
H1712 C1722 0.950 . S
H1713 C1724 0.950 . S
H1714 C1726 0.950 . S
H1715 C1727 0.950 . S
C1716 H1708 0.950 . S
C1716 C1717 1.386 . S
C1716 C1718 1.391 . S
C1717 C1716 1.386 . S
C1717 C1721 1.393 . S
C1718 H1710 0.950 . S
C1718 C1716 1.391 . S
C1718 C1719 1.400 . S
C1719 C1718 1.400 . S
C1719 C1720 1.398 . S
C1719 C1725 1.491 . S
C1720 H1711 0.950 . S
C1720 C1719 1.398 . S
C1720 C1721 1.391 . S
C1721 H1709 0.950 . S
C1721 C1717 1.393 . S
C1721 C1720 1.391 . S
C1722 H1712 0.950 . S
C1722 C1723 1.386 . S
C1722 C1724 1.391 . S
C1723 C1722 1.386 . S
C1723 C1727 1.393 . S
C1724 H1713 0.950 . S
C1724 C1722 1.391 . S
C1724 C1725 1.400 . S
C1725 C1719 1.491 . S
C1725 C1724 1.400 . S
C1725 C1726 1.398 . S
C1726 H1714 0.950 . S
C1726 C1725 1.398 . S
C1726 C1727 1.391 . S
C1727 H1715 0.950 . S
C1727 C1723 1.393 . S
C1727 C1726 1.391 . S
C1017 C487 1.319 . S
C1023 C63 1.213 . S
C1037 C147 1.198 . S
C1043 C67 1.315 . S
C1057 C231 1.299 . S
C1063 C151 1.416 . S
C1077 C235 1.329 . S
C1083 C315 1.224 . S
C1097 C319 1.333 . S
C1103 C399 1.213 . S
C1117 C483 1.290 . S
C1123 C403 1.408 . S
C1137 C655 1.322 . S
C1143 C567 1.217 . S
C1157 C651 1.308 . S
C1163 C739 1.423 . S
C1177 C823 1.331 . S
C1183 C735 1.210 . S
C1197 C907 1.319 . S
C1203 C819 1.213 . S
C1217 C991 1.402 . S
C1223 C903 1.289 . S
C1237 C571 1.310 . S
C1243 C987 1.188 . S
C1257 C990 3.452 . S
C1263 C56 3.440 . S
C1277 C140 2.851 . S
C1283 C570 2.860 . S
C1297 C654 3.162 . S
C1303 C224 3.146 . S
C1317 C738 3.452 . S
C1323 C308 3.442 . S
C1337 C822 2.858 . S
C1343 C392 2.841 . S
C1357 C476 3.139 . S
C1363 C906 3.155 . S
C1377 C560 3.439 . S
C1383 C150 3.456 . S
C1397 C644 3.140 . S
C1403 C234 3.156 . S
C1417 C318 2.860 . S
C1423 C728 2.844 . S
C1437 C402 3.455 . S
C1443 C812 3.444 . S
C1457 C896 3.140 . S
C1463 C486 3.155 . S
C1477 C980 2.849 . S
C1483 C66 2.859 . S
C1497 C579 2.672 . S
C1503 C75 2.670 . S
C1517 C159 1.828 . S
C1523 C663 1.831 . S
C1537 C747 1.800 . S
C1543 C243 1.840 . S
C1557 C327 2.662 . S
C1563 C831 2.659 . S
C1577 C915 1.823 . S
C1583 C411 1.825 . S
C1597 C999 1.803 . S
C1603 C495 1.851 . S
C1617 C576 0.734 . S
C1623 C72 0.697 . S
C1637 C660 0.523 . S
C1643 C156 0.419 . S
C1657 C744 0.481 . S
C1663 C240 0.471 . S
C1677 C324 0.735 . S
C1683 C828 0.695 . S
C1697 C912 0.431 . S
C1703 C408 0.489 . S
C1717 C996 0.402 . S
C1723 C492 0.524 . S
