# Generated by pormake.
# Topology wig, (6)-cn, num edge types: 1
# Building blocks:
#     Node 0, Type 0, BuildingBlock: OJICUG_clean_sbu_0, # of connection points: 6
#     Node 1, Type 0, BuildingBlock: OJICUG_clean_sbu_0, # of connection points: 6
#     Node 2, Type 0, BuildingBlock: OJICUG_clean_sbu_0, # of connection points: 6
#     Node 3, Type 0, BuildingBlock: OJICUG_clean_sbu_0, # of connection points: 6
#     Node 4, Type 0, BuildingBlock: OJICUG_clean_sbu_0, # of connection points: 6
#     Node 5, Type 0, BuildingBlock: OJICUG_clean_sbu_0, # of connection points: 6
#     Node 6, Type 0, BuildingBlock: OJICUG_clean_sbu_0, # of connection points: 6
#     Node 7, Type 0, BuildingBlock: OJICUG_clean_sbu_0, # of connection points: 6
#     Node 8, Type 0, BuildingBlock: OJICUG_clean_sbu_0, # of connection points: 6
#     Node 9, Type 0, BuildingBlock: OJICUG_clean_sbu_0, # of connection points: 6
#     Node 10, Type 0, BuildingBlock: OJICUG_clean_sbu_0, # of connection points: 6
#     Node 11, Type 0, BuildingBlock: OJICUG_clean_sbu_0, # of connection points: 6
#     Node 12, Type 0, BuildingBlock: OJICUG_clean_sbu_0, # of connection points: 6
#     Node 13, Type 0, BuildingBlock: OJICUG_clean_sbu_0, # of connection points: 6
#     Node 14, Type 0, BuildingBlock: OJICUG_clean_sbu_0, # of connection points: 6
#     Node 15, Type 0, BuildingBlock: OJICUG_clean_sbu_0, # of connection points: 6
#     Edge 16, Type (0, 0), BuildingBlock: UVAHIK_clean_linker_0, # of connection points: 2
#     Edge 17, Type (0, 0), BuildingBlock: UVAHIK_clean_linker_0, # of connection points: 2
#     Edge 18, Type (0, 0), BuildingBlock: UVAHIK_clean_linker_0, # of connection points: 2
#     Edge 19, Type (0, 0), BuildingBlock: UVAHIK_clean_linker_0, # of connection points: 2
#     Edge 20, Type (0, 0), BuildingBlock: UVAHIK_clean_linker_0, # of connection points: 2
#     Edge 21, Type (0, 0), BuildingBlock: UVAHIK_clean_linker_0, # of connection points: 2
#     Edge 22, Type (0, 0), BuildingBlock: UVAHIK_clean_linker_0, # of connection points: 2
#     Edge 23, Type (0, 0), BuildingBlock: UVAHIK_clean_linker_0, # of connection points: 2
#     Edge 24, Type (0, 0), BuildingBlock: UVAHIK_clean_linker_0, # of connection points: 2
#     Edge 25, Type (0, 0), BuildingBlock: UVAHIK_clean_linker_0, # of connection points: 2
#     Edge 26, Type (0, 0), BuildingBlock: UVAHIK_clean_linker_0, # of connection points: 2
#     Edge 27, Type (0, 0), BuildingBlock: UVAHIK_clean_linker_0, # of connection points: 2
#     Edge 28, Type (0, 0), BuildingBlock: UVAHIK_clean_linker_0, # of connection points: 2
#     Edge 29, Type (0, 0), BuildingBlock: UVAHIK_clean_linker_0, # of connection points: 2
#     Edge 30, Type (0, 0), BuildingBlock: UVAHIK_clean_linker_0, # of connection points: 2
#     Edge 31, Type (0, 0), BuildingBlock: UVAHIK_clean_linker_0, # of connection points: 2
#     Edge 32, Type (0, 0), BuildingBlock: UVAHIK_clean_linker_0, # of connection points: 2
#     Edge 33, Type (0, 0), BuildingBlock: UVAHIK_clean_linker_0, # of connection points: 2
#     Edge 34, Type (0, 0), BuildingBlock: UVAHIK_clean_linker_0, # of connection points: 2
#     Edge 35, Type (0, 0), BuildingBlock: UVAHIK_clean_linker_0, # of connection points: 2
#     Edge 36, Type (0, 0), BuildingBlock: UVAHIK_clean_linker_0, # of connection points: 2
#     Edge 37, Type (0, 0), BuildingBlock: UVAHIK_clean_linker_0, # of connection points: 2
#     Edge 38, Type (0, 0), BuildingBlock: UVAHIK_clean_linker_0, # of connection points: 2
#     Edge 39, Type (0, 0), BuildingBlock: UVAHIK_clean_linker_0, # of connection points: 2
#     Edge 40, Type (0, 0), BuildingBlock: UVAHIK_clean_linker_0, # of connection points: 2
#     Edge 41, Type (0, 0), BuildingBlock: UVAHIK_clean_linker_0, # of connection points: 2
#     Edge 42, Type (0, 0), BuildingBlock: UVAHIK_clean_linker_0, # of connection points: 2
#     Edge 43, Type (0, 0), BuildingBlock: UVAHIK_clean_linker_0, # of connection points: 2
#     Edge 44, Type (0, 0), BuildingBlock: UVAHIK_clean_linker_0, # of connection points: 2
#     Edge 45, Type (0, 0), BuildingBlock: UVAHIK_clean_linker_0, # of connection points: 2
#     Edge 46, Type (0, 0), BuildingBlock: UVAHIK_clean_linker_0, # of connection points: 2
#     Edge 47, Type (0, 0), BuildingBlock: UVAHIK_clean_linker_0, # of connection points: 2
#     Edge 48, Type (0, 0), BuildingBlock: UVAHIK_clean_linker_0, # of connection points: 2
#     Edge 49, Type (0, 0), BuildingBlock: UVAHIK_clean_linker_0, # of connection points: 2
#     Edge 50, Type (0, 0), BuildingBlock: UVAHIK_clean_linker_0, # of connection points: 2
#     Edge 51, Type (0, 0), BuildingBlock: UVAHIK_clean_linker_0, # of connection points: 2
#     Edge 52, Type (0, 0), BuildingBlock: UVAHIK_clean_linker_0, # of connection points: 2
#     Edge 53, Type (0, 0), BuildingBlock: UVAHIK_clean_linker_0, # of connection points: 2
#     Edge 54, Type (0, 0), BuildingBlock: UVAHIK_clean_linker_0, # of connection points: 2
#     Edge 55, Type (0, 0), BuildingBlock: UVAHIK_clean_linker_0, # of connection points: 2
#     Edge 56, Type (0, 0), BuildingBlock: UVAHIK_clean_linker_0, # of connection points: 2
#     Edge 57, Type (0, 0), BuildingBlock: UVAHIK_clean_linker_0, # of connection points: 2
#     Edge 58, Type (0, 0), BuildingBlock: UVAHIK_clean_linker_0, # of connection points: 2
#     Edge 59, Type (0, 0), BuildingBlock: UVAHIK_clean_linker_0, # of connection points: 2
#     Edge 60, Type (0, 0), BuildingBlock: UVAHIK_clean_linker_0, # of connection points: 2
#     Edge 61, Type (0, 0), BuildingBlock: UVAHIK_clean_linker_0, # of connection points: 2
#     Edge 62, Type (0, 0), BuildingBlock: UVAHIK_clean_linker_0, # of connection points: 2
#     Edge 63, Type (0, 0), BuildingBlock: UVAHIK_clean_linker_0, # of connection points: 2
# Relax obj value: 0.258
# Max RMSD: 0.298
# Mean RMSD: 0.298
data_MOF--net-wig--node1-OJICUG_clean_sbu_0--edge1-UVAHIK_clean_linker_0
_symmetry_space_group_name_H-M    P1
_symmetry_Int_Tables_number       1
_symmetry_cell_setting            triclinic
loop_
_symmetry_equiv_pos_as_xyz
'x, y, z'
_cell_length_a     36.569382
_cell_length_b     36.587386
_cell_length_c     110.21279
_cell_angle_alpha  90.012881
_cell_angle_beta   90.01229
_cell_angle_gamma 89.962901
loop_
_atom_site_label
_atom_site_type_symbol
_atom_site_fract_x
_atom_site_fract_y
_atom_site_fract_z
_atom_type_partial_charge
Sc0 Sc 0.14733 0.21768 0.28484 0.0
Sc1 Sc 0.21574 0.2168 0.26222 0.0
Sc2 Sc 0.2184 0.15246 0.28589 0.0
O3 O 0.19374 0.1956 0.27764 0.0
C4 C 0.19569 0.2022 0.30832 0.0
C5 C 0.19316 0.28791 0.27708 0.0
C6 C 0.28775 0.1982 0.27738 0.0
C7 C 0.13052 0.22222 0.25654 0.0
C8 C 0.13349 0.13255 0.28882 0.0
C9 C 0.22345 0.13119 0.25782 0.0
O10 O 0.16921 0.21809 0.30302 0.0
O11 O 0.21331 0.27113 0.26952 0.0
O12 O 0.27288 0.17481 0.28431 0.0
O13 O 0.12038 0.21941 0.26752 0.0
O14 O 0.16722 0.12405 0.28859 0.0
O15 O 0.22076 0.16368 0.25377 0.0
O16 O 0.12231 0.1652 0.28757 0.0
O17 O 0.16381 0.22286 0.25332 0.0
O18 O 0.2235 0.12356 0.26908 0.0
O19 O 0.16714 0.27293 0.28288 0.0
O20 O 0.21571 0.17824 0.30329 0.0
O21 O 0.27041 0.21449 0.26902 0.0
Sc22 Sc 0.20812 0.83055 0.69996 0.0
Sc23 Sc 0.19798 0.77418 0.72572 0.0
Sc24 Sc 0.1351 0.76806 0.70167 0.0
O25 O 0.1804 0.791 0.70914 0.0
C26 C 0.12514 0.85313 0.69541 0.0
C27 C 0.21735 0.85881 0.72715 0.0
C28 C 0.11212 0.77801 0.72955 0.0
C29 C 0.27185 0.77967 0.71029 0.0
C30 C 0.18608 0.77604 0.6786 0.0
C31 C 0.17098 0.69885 0.71414 0.0
O32 O 0.15879 0.86138 0.69656 0.0
O33 O 0.21054 0.82819 0.73202 0.0
O34 O 0.1051 0.77302 0.71836 0.0
O35 O 0.25966 0.80308 0.70275 0.0
O36 O 0.16075 0.76018 0.68442 0.0
O37 O 0.18812 0.71765 0.72195 0.0
O38 O 0.20416 0.80272 0.68284 0.0
O39 O 0.25281 0.76691 0.719 0.0
O40 O 0.15148 0.71295 0.70585 0.0
O41 O 0.21689 0.8637 0.71575 0.0
O42 O 0.11328 0.82063 0.69659 0.0
O43 O 0.14452 0.7799 0.73371 0.0
Sc44 Sc 0.77287 0.83365 0.28547 0.0
Sc45 Sc 0.7784 0.76964 0.26171 0.0
Sc46 Sc 0.84166 0.76609 0.28583 0.0
O47 O 0.79769 0.78984 0.27766 0.0
C48 C 0.85757 0.85175 0.28895 0.0
C49 C 0.76654 0.85442 0.25736 0.0
C50 C 0.86418 0.76382 0.25778 0.0
C51 C 0.70522 0.78597 0.27677 0.0
C52 C 0.7932 0.78583 0.30877 0.0
C53 C 0.79744 0.69679 0.27648 0.0
O54 O 0.8244 0.86172 0.28766 0.0
O55 O 0.7725 0.82245 0.25337 0.0
O56 O 0.87123 0.76294 0.26907 0.0
O57 O 0.71938 0.80926 0.28395 0.0
O58 O 0.81743 0.76656 0.30357 0.0
O59 O 0.78128 0.7145 0.26815 0.0
O60 O 0.77596 0.81117 0.30338 0.0
O61 O 0.72303 0.77067 0.26825 0.0
O62 O 0.82036 0.71139 0.28367 0.0
O63 O 0.76554 0.86193 0.2686 0.0
O64 O 0.86745 0.81836 0.28881 0.0
O65 O 0.83189 0.76631 0.25362 0.0
Sc66 Sc 0.84883 0.22781 0.70452 0.0
Sc67 Sc 0.78197 0.22373 0.72738 0.0
Sc68 Sc 0.77587 0.16526 0.7021 0.0
O69 O 0.80231 0.20548 0.71136 0.0
C70 C 0.80147 0.21822 0.68069 0.0
C71 C 0.80721 0.29781 0.71489 0.0
C72 C 0.7099 0.21427 0.71112 0.0
C73 C 0.86771 0.22275 0.73265 0.0
C74 C 0.85908 0.14228 0.69886 0.0
C75 C 0.76558 0.13927 0.72969 0.0
O76 O 0.82493 0.23557 0.68692 0.0
O77 O 0.78661 0.27951 0.72187 0.0
O78 O 0.72392 0.19302 0.70326 0.0
O79 O 0.87699 0.22238 0.72153 0.0
O80 O 0.82548 0.13401 0.70008 0.0
O81 O 0.77419 0.16965 0.73446 0.0
O82 O 0.8708 0.17496 0.69964 0.0
O83 O 0.83466 0.22471 0.73615 0.0
O84 O 0.76398 0.13443 0.71827 0.0
O85 O 0.8324 0.28337 0.70855 0.0
O86 O 0.78366 0.19108 0.68476 0.0
O87 O 0.72723 0.22546 0.72041 0.0
Sc88 Sc 0.22621 0.34168 0.95176 0.0
Sc89 Sc 0.21524 0.28029 0.976 0.0
Sc90 Sc 0.15445 0.27706 0.95116 0.0
O91 O 0.19853 0.29977 0.95966 0.0
C92 C 0.14261 0.36262 0.94671 0.0
C93 C 0.22799 0.36535 0.97971 0.0
C94 C 0.12868 0.27693 0.97885 0.0
C95 C 0.29115 0.29348 0.96227 0.0
C96 C 0.20818 0.29101 0.92898 0.0
C97 C 0.19582 0.20738 0.96145 0.0
O98 O 0.17609 0.37125 0.94813 0.0
O99 O 0.2208 0.33384 0.98393 0.0
O100 O 0.12253 0.27648 0.96751 0.0
O101 O 0.27884 0.31633 0.9546 0.0
O102 O 0.18121 0.27469 0.93379 0.0
O103 O 0.2126 0.22495 0.96967 0.0
O104 O 0.22614 0.31595 0.9343 0.0
O105 O 0.27149 0.2796 0.97057 0.0
O106 O 0.1731 0.22187 0.95418 0.0
O107 O 0.23099 0.37174 0.96842 0.0
O108 O 0.13124 0.32982 0.94731 0.0
O109 O 0.16071 0.27818 0.98329 0.0
Sc110 Sc 0.27596 0.84239 0.03732 0.0
Sc111 Sc 0.28014 0.78044 0.0128 0.0
Sc112 Sc 0.34476 0.77484 0.0364 0.0
O113 O 0.30032 0.79929 0.02883 0.0
C114 C 0.36091 0.85955 0.04098 0.0
C115 C 0.27117 0.86649 0.00954 0.0
C116 C 0.36573 0.77489 0.00824 0.0
C117 C 0.20784 0.79621 0.02815 0.0
C118 C 0.29573 0.79102 0.05966 0.0
C119 C 0.3001 0.70634 0.02665 0.0
O120 O 0.32753 0.86924 0.04044 0.0
O121 O 0.27372 0.83439 0.00521 0.0
O122 O 0.37339 0.77305 0.01946 0.0
O123 O 0.22174 0.82027 0.03506 0.0
O124 O 0.32093 0.77392 0.05414 0.0
O125 O 0.28346 0.7246 0.01855 0.0
O126 O 0.27732 0.81653 0.0548 0.0
O127 O 0.22546 0.78003 0.0198 0.0
O128 O 0.32333 0.72043 0.03383 0.0
O129 O 0.27169 0.87311 0.02085 0.0
O130 O 0.37115 0.82652 0.03976 0.0
O131 O 0.33322 0.77793 0.00428 0.0
Sc132 Sc 0.84223 0.72181 0.95331 0.0
Sc133 Sc 0.78032 0.72034 0.97777 0.0
Sc134 Sc 0.77656 0.65155 0.95557 0.0
O135 O 0.79984 0.69782 0.96223 0.0
C136 C 0.7889 0.69905 0.93175 0.0
C137 C 0.79838 0.79162 0.96208 0.0
C138 C 0.70757 0.69845 0.96408 0.0
C139 C 0.86598 0.72753 0.98127 0.0
C140 C 0.86153 0.63734 0.95029 0.0
C141 C 0.77478 0.63499 0.98371 0.0
O142 O 0.81586 0.71706 0.9359 0.0
O143 O 0.784 0.77509 0.97099 0.0
O144 O 0.72138 0.67076 0.95882 0.0
O145 O 0.87229 0.72882 0.96992 0.0
O146 O 0.82867 0.62647 0.95144 0.0
O147 O 0.77272 0.66844 0.98672 0.0
O148 O 0.87046 0.67081 0.95097 0.0
O149 O 0.83409 0.72332 0.98569 0.0
O150 O 0.77872 0.62444 0.97281 0.0
O151 O 0.81957 0.77602 0.95458 0.0
O152 O 0.77188 0.67493 0.93781 0.0
O153 O 0.72572 0.71993 0.97082 0.0
Sc154 Sc 0.65235 0.2242 0.03411 0.0
Sc155 Sc 0.71928 0.21941 0.01131 0.0
Sc156 Sc 0.72206 0.15756 0.03585 0.0
O157 O 0.69784 0.20028 0.02707 0.0
C158 C 0.69821 0.20874 0.05797 0.0
C159 C 0.697 0.29334 0.02468 0.0
C160 C 0.79004 0.20517 0.02775 0.0
C161 C 0.63395 0.22302 0.00581 0.0
C162 C 0.63757 0.13872 0.03848 0.0
C163 C 0.73205 0.13428 0.00802 0.0
O164 O 0.67552 0.22765 0.05193 0.0
O165 O 0.71573 0.2749 0.01718 0.0
O166 O 0.77551 0.18232 0.03497 0.0
O167 O 0.62463 0.2232 0.01692 0.0
O168 O 0.67084 0.12893 0.03748 0.0
O169 O 0.72606 0.16582 0.00366 0.0
O170 O 0.62742 0.17197 0.03791 0.0
O171 O 0.66706 0.22249 0.00231 0.0
O172 O 0.73225 0.12778 0.01935 0.0
O173 O 0.67212 0.27926 0.03123 0.0
O174 O 0.71549 0.18172 0.05355 0.0
O175 O 0.77344 0.21932 0.01878 0.0
Sc176 Sc 0.63561 0.72976 0.78517 0.0
Sc177 Sc 0.70042 0.72464 0.76163 0.0
Sc178 Sc 0.70754 0.66547 0.78661 0.0
O179 O 0.6811 0.70646 0.77778 0.0
C180 C 0.68408 0.71601 0.80872 0.0
C181 C 0.67743 0.79878 0.77516 0.0
C182 C 0.77306 0.71509 0.77726 0.0
C183 C 0.61556 0.72805 0.75681 0.0
C184 C 0.62276 0.64484 0.78979 0.0
C185 C 0.71647 0.63921 0.75924 0.0
O186 O 0.65682 0.73024 0.80339 0.0
O187 O 0.6925 0.78075 0.76667 0.0
O188 O 0.7607 0.69006 0.78412 0.0
O189 O 0.60812 0.73307 0.76795 0.0
O190 O 0.65673 0.63692 0.78993 0.0
O191 O 0.71205 0.67076 0.75465 0.0
O192 O 0.61086 0.67706 0.78791 0.0
O193 O 0.64771 0.7217 0.75298 0.0
O194 O 0.71435 0.63317 0.77056 0.0
O195 O 0.65669 0.78434 0.78306 0.0
O196 O 0.70517 0.6931 0.80368 0.0
O197 O 0.75449 0.73013 0.7689 0.0
Sc198 Sc 0.72075 0.33445 0.20804 0.0
Sc199 Sc 0.71916 0.26702 0.23095 0.0
Sc200 Sc 0.65241 0.2666 0.20792 0.0
O201 O 0.6974 0.28943 0.21565 0.0
C202 C 0.63598 0.35207 0.20517 0.0
C203 C 0.7272 0.35186 0.23642 0.0
C204 C 0.63367 0.26067 0.23612 0.0
C205 C 0.7903 0.28735 0.21553 0.0
C206 C 0.69953 0.28749 0.18469 0.0
C207 C 0.69822 0.19623 0.21562 0.0
O208 O 0.6691 0.36203 0.20625 0.0
O209 O 0.72468 0.31894 0.23998 0.0
O210 O 0.62446 0.26324 0.22503 0.0
O211 O 0.77512 0.3116 0.20897 0.0
O212 O 0.67603 0.26782 0.1901 0.0
O213 O 0.71697 0.21289 0.22358 0.0
O214 O 0.71697 0.31316 0.18987 0.0
O215 O 0.77353 0.27021 0.22386 0.0
O216 O 0.67311 0.21164 0.20951 0.0
O217 O 0.72658 0.3611 0.2253 0.0
O218 O 0.62621 0.31874 0.20533 0.0
O219 O 0.66674 0.26067 0.23968 0.0
Sc220 Sc 0.27646 0.32916 0.7847 0.0
Sc221 Sc 0.28306 0.27204 0.75914 0.0
Sc222 Sc 0.35082 0.26821 0.78192 0.0
O223 O 0.30354 0.2899 0.77523 0.0
C224 C 0.3599 0.35319 0.78789 0.0
C225 C 0.26592 0.35686 0.75737 0.0
C226 C 0.36839 0.27384 0.75359 0.0
C227 C 0.21083 0.27992 0.77529 0.0
C228 C 0.30327 0.27609 0.80589 0.0
C229 C 0.30987 0.19811 0.77161 0.0
O230 O 0.32587 0.3605 0.78744 0.0
O231 O 0.27291 0.32634 0.75238 0.0
O232 O 0.37795 0.27264 0.76467 0.0
O233 O 0.22431 0.30208 0.78296 0.0
O234 O 0.32926 0.26158 0.79996 0.0
O235 O 0.28995 0.21616 0.76432 0.0
O236 O 0.2828 0.30092 0.80159 0.0
O237 O 0.22867 0.26804 0.76622 0.0
O238 O 0.33404 0.21272 0.77832 0.0
O239 O 0.26602 0.36137 0.7688 0.0
O240 O 0.37252 0.32116 0.78628 0.0
O241 O 0.33525 0.27322 0.75016 0.0
Sc242 Sc 0.34545 0.71758 0.2086 0.0
Sc243 Sc 0.27589 0.71639 0.23073 0.0
Sc244 Sc 0.27566 0.65128 0.20713 0.0
O245 O 0.29905 0.69503 0.21551 0.0
C246 C 0.29923 0.70085 0.18474 0.0
C247 C 0.2996 0.78782 0.21627 0.0
C248 C 0.20609 0.6981 0.21446 0.0
C249 C 0.36088 0.7207 0.23702 0.0
C250 C 0.3605 0.63239 0.20484 0.0
C251 C 0.26732 0.63082 0.23517 0.0
O252 O 0.3238 0.71829 0.19048 0.0
O253 O 0.2793 0.77091 0.22372 0.0
O254 O 0.22132 0.67369 0.20804 0.0
O255 O 0.37132 0.71878 0.22605 0.0
O256 O 0.32701 0.62327 0.20518 0.0
O257 O 0.2693 0.66342 0.23914 0.0
O258 O 0.37108 0.66532 0.20582 0.0
O259 O 0.32744 0.72132 0.24016 0.0
O260 O 0.26884 0.62292 0.22395 0.0
O261 O 0.32568 0.77285 0.21051 0.0
O262 O 0.28022 0.67562 0.18951 0.0
O263 O 0.22217 0.71507 0.22296 0.0
Sc264 Sc 0.72664 0.84601 0.45839 0.0
Sc265 Sc 0.72336 0.77849 0.4812 0.0
Sc266 Sc 0.66064 0.77597 0.45694 0.0
O267 O 0.7035 0.80021 0.46552 0.0
C268 C 0.64147 0.86057 0.45381 0.0
C269 C 0.72616 0.86376 0.48675 0.0
C270 C 0.63768 0.76859 0.48477 0.0
C271 C 0.7966 0.80174 0.46752 0.0
C272 C 0.71191 0.79819 0.43475 0.0
C273 C 0.70764 0.70718 0.46533 0.0
O274 O 0.67438 0.87126 0.45491 0.0
O275 O 0.72595 0.83064 0.49019 0.0
O276 O 0.63052 0.76973 0.4735 0.0
O277 O 0.78184 0.82629 0.46098 0.0
O278 O 0.68634 0.77958 0.43949 0.0
O279 O 0.72344 0.72419 0.4739 0.0
O280 O 0.72899 0.82314 0.44043 0.0
O281 O 0.77877 0.78277 0.47513 0.0
O282 O 0.68397 0.72201 0.45847 0.0
O283 O 0.72625 0.87329 0.47565 0.0
O284 O 0.63238 0.82708 0.45439 0.0
O285 O 0.6699 0.77123 0.48899 0.0
Sc286 Sc 0.76464 0.34589 0.53137 0.0
Sc287 Sc 0.76697 0.27692 0.509 0.0
Sc288 Sc 0.82852 0.27387 0.53351 0.0
O289 O 0.78679 0.29898 0.52461 0.0
C290 C 0.8504 0.35815 0.53515 0.0
C291 C 0.76503 0.3616 0.50282 0.0
C292 C 0.85159 0.26095 0.50581 0.0
C293 C 0.69425 0.302 0.52275 0.0
C294 C 0.77968 0.30191 0.55565 0.0
C295 C 0.77907 0.20662 0.52586 0.0
O296 O 0.81767 0.36964 0.53421 0.0
O297 O 0.76556 0.32836 0.49953 0.0
O298 O 0.85804 0.2618 0.51713 0.0
O299 O 0.70923 0.32642 0.52928 0.0
O300 O 0.80403 0.28161 0.55099 0.0
O301 O 0.7655 0.22309 0.51675 0.0
O302 O 0.76277 0.32642 0.54975 0.0
O303 O 0.71177 0.28307 0.51503 0.0
O304 O 0.80207 0.22137 0.53298 0.0
O305 O 0.76452 0.37156 0.51386 0.0
O306 O 0.85879 0.32436 0.53489 0.0
O307 O 0.82027 0.26756 0.50133 0.0
Sc308 Sc 0.33413 0.21358 0.45623 0.0
Sc309 Sc 0.26817 0.20743 0.47948 0.0
Sc310 Sc 0.2683 0.14335 0.4556 0.0
O311 O 0.29027 0.18809 0.46379 0.0
C312 C 0.2858 0.19435 0.43301 0.0
C313 C 0.28419 0.28051 0.46462 0.0
C314 C 0.19673 0.18445 0.46469 0.0
C315 C 0.35295 0.2194 0.48442 0.0
C316 C 0.35426 0.12977 0.45213 0.0
C317 C 0.26684 0.12126 0.48365 0.0
O318 O 0.31121 0.21194 0.43826 0.0
O319 O 0.26694 0.2624 0.47263 0.0
O320 O 0.21264 0.16187 0.45771 0.0
O321 O 0.36213 0.21814 0.47331 0.0
O322 O 0.32125 0.11886 0.45247 0.0
O323 O 0.26729 0.1538 0.48775 0.0
O324 O 0.3631 0.16312 0.45344 0.0
O325 O 0.32015 0.21649 0.48802 0.0
O326 O 0.2666 0.1139 0.47238 0.0
O327 O 0.30964 0.26683 0.4582 0.0
O328 O 0.26774 0.16905 0.43812 0.0
O329 O 0.21337 0.202 0.47293 0.0
Sc330 Sc 0.16101 0.70927 0.53249 0.0
Sc331 Sc 0.22821 0.70841 0.50964 0.0
Sc332 Sc 0.22433 0.63678 0.53106 0.0
O333 O 0.20448 0.68476 0.52438 0.0
C334 C 0.20761 0.68203 0.55511 0.0
C335 C 0.21184 0.77744 0.52622 0.0
C336 C 0.29722 0.67914 0.52445 0.0
C337 C 0.14316 0.7214 0.50458 0.0
C338 C 0.13882 0.62482 0.53409 0.0
C339 C 0.22817 0.62439 0.50238 0.0
O340 O 0.18543 0.70415 0.55011 0.0
O341 O 0.23076 0.76067 0.51835 0.0
O342 O 0.28026 0.65487 0.53042 0.0
O343 O 0.13338 0.7163 0.51551 0.0
O344 O 0.17109 0.61289 0.53261 0.0
O345 O 0.22892 0.65801 0.49949 0.0
O346 O 0.13133 0.65871 0.53453 0.0
O347 O 0.17637 0.72106 0.50114 0.0
O348 O 0.22719 0.61316 0.51328 0.0
O349 O 0.18452 0.76332 0.53156 0.0
O350 O 0.22268 0.65558 0.54955 0.0
O351 O 0.28223 0.69958 0.5166 0.0
C352 C 0.25593 0.83669 0.21075 0.0
C353 C 0.29145 0.82643 0.21406 0.0
C354 C 0.24624 0.87351 0.21027 0.0
C355 C 0.22462 0.94434 0.22153 0.0
H356 H 0.29287 0.025 0.21896 0.0
C357 C 0.21874 0.06481 0.25329 0.0
C358 C 0.22625 0.10037 0.2492 0.0
C359 C 0.22252 0.03509 0.24554 0.0
C360 C 0.27318 0.00295 0.21946 0.0
H361 H 0.34541 0.84581 0.2188 0.0
H362 H 0.32813 0.91026 0.2188 0.0
H363 H 0.30876 0.9657 0.21021 0.0
H364 H 0.24306 0.13274 0.23369 0.0
H365 H 0.25011 0.08008 0.22005 0.0
H366 H 0.18936 0.98128 0.23091 0.0
C367 C 0.30789 0.89027 0.21611 0.0
C368 C 0.28246 0.96883 0.2146 0.0
C369 C 0.31783 0.85337 0.21623 0.0
C370 C 0.23706 0.10562 0.23708 0.0
C371 C 0.2412 0.07558 0.2293 0.0
C372 C 0.21528 0.97836 0.22624 0.0
C373 C 0.27157 0.90073 0.21355 0.0
C374 C 0.25897 0.93867 0.21608 0.0
C375 C 0.23398 0.04004 0.2335 0.0
C376 C 0.24019 0.00746 0.22581 0.0
H377 H 0.23537 0.81614 0.20885 0.0
H378 H 0.21838 0.88049 0.20788 0.0
H379 H 0.20577 0.92197 0.22299 0.0
H380 H 0.21014 0.05975 0.26254 0.0
H381 H 0.21742 0.008 0.24912 0.0
C382 C 0.04525 0.78417 0.73342 0.0
C383 C 0.08091 0.78093 0.73802 0.0
C384 C 0.01535 0.78475 0.74121 0.0
C385 C 0.9856 0.75285 0.77088 0.0
H386 H 0.89981 0.80891 0.76196 0.0
C387 C 0.81856 0.76497 0.77884 0.0
C388 C 0.8109 0.72745 0.77881 0.0
C389 C 0.85459 0.77722 0.77824 0.0
C390 C 0.92354 0.79359 0.76489 0.0
H391 H 0.11319 0.7768 0.7545 0.0
H392 H 0.06047 0.77783 0.76819 0.0
H393 H 0.95781 0.82252 0.75251 0.0
H394 H 0.83426 0.67315 0.77894 0.0
H395 H 0.89726 0.69423 0.77711 0.0
H396 H 0.95113 0.7237 0.78323 0.0
C397 C 0.05591 0.77971 0.7585 0.0
C398 C 0.9568 0.80113 0.7593 0.0
C399 C 0.08603 0.77926 0.75067 0.0
C400 C 0.83973 0.70225 0.77898 0.0
C401 C 0.87583 0.71447 0.77802 0.0
C402 C 0.95228 0.74553 0.77661 0.0
C403 C 0.02025 0.7822 0.75382 0.0
C404 C 0.98773 0.7797 0.76179 0.0
C405 C 0.88359 0.75213 0.77715 0.0
C406 C 0.92046 0.76475 0.77328 0.0
H407 H 0.04023 0.78566 0.72374 0.0
H408 H 0.98822 0.78598 0.73728 0.0
H409 H 0.00904 0.73592 0.77301 0.0
H410 H 0.79656 0.78484 0.7789 0.0
H411 H 0.85952 0.80638 0.778 0.0
C412 C 0.76816 0.88132 0.23637 0.0
C413 C 0.75811 0.88393 0.24867 0.0
C414 C 0.75935 0.90947 0.22827 0.0
C415 C 0.69675 0.98718 0.22432 0.0
H416 H 0.77768 0.03745 0.20894 0.0
C417 C 0.73848 0.14165 0.21794 0.0
C418 C 0.70572 0.157 0.21365 0.0
C419 C 0.74432 0.1041 0.21729 0.0
C420 C 0.75467 0.02337 0.21299 0.0
H421 H 0.73033 0.91758 0.26203 0.0
H422 H 0.71491 0.96615 0.24795 0.0
H423 H 0.78727 0.9768 0.21772 0.0
H424 H 0.65444 0.1453 0.20453 0.0
H425 H 0.66451 0.07924 0.20358 0.0
H426 H 0.6648 0.03462 0.22049 0.0
C427 C 0.72946 0.94245 0.24456 0.0
C428 C 0.76011 0.98862 0.21793 0.0
C429 C 0.73873 0.91482 0.25265 0.0
C430 C 0.67983 0.13422 0.20801 0.0
C431 C 0.68558 0.09646 0.20745 0.0
C432 C 0.69127 0.02176 0.21935 0.0
C433 C 0.73969 0.94011 0.23231 0.0
C434 C 0.73166 0.9712 0.22421 0.0
C435 C 0.71748 0.08096 0.21238 0.0
C436 C 0.72068 0.04101 0.21423 0.0
H437 H 0.78312 0.8578 0.23306 0.0
H438 H 0.76774 0.90729 0.21887 0.0
H439 H 0.67431 0.97399 0.22901 0.0
H440 H 0.75923 0.15851 0.22217 0.0
H441 H 0.76897 0.09302 0.22132 0.0
C442 C 0.14789 0.28625 0.78428 0.0
C443 C 0.17252 0.26769 0.77665 0.0
C444 C 0.11087 0.2765 0.78446 0.0
C445 C 0.04543 0.2051 0.77368 0.0
H446 H 0.98166 0.28766 0.76739 0.0
C447 C 0.93026 0.20433 0.73916 0.0
C448 C 0.8969 0.22145 0.74186 0.0
C449 C 0.95897 0.20516 0.74746 0.0
C450 C -0.00118 0.2643 0.76944 0.0
H451 H 0.1781 0.22276 0.76391 0.0
H452 H 0.11411 0.20638 0.76405 0.0
H453 H 0.043 0.29823 0.77527 0.0
H454 H 0.86692 0.25202 0.75549 0.0
H455 H 0.91797 0.25454 0.76992 0.0
H456 H 0.00213 0.17151 0.76684 0.0
C457 C 0.12308 0.22821 0.76999 0.0
C458 C 0.03396 0.27032 0.77398 0.0
C459 C 0.15982 0.23797 0.76977 0.0
C460 C 0.89239 0.23855 0.75319 0.0
C461 C 0.92147 0.24003 0.76143 0.0
C462 C 0.01048 0.19915 0.76901 0.0
C463 C 0.09796 0.24785 0.7771 0.0
C464 C 0.05826 0.24089 0.77556 0.0
C465 C 0.95509 0.22363 0.75856 0.0
C466 C 0.98756 0.22884 0.76634 0.0
H467 H 0.1569 0.30912 0.78976 0.0
H468 H 0.09219 0.29198 0.7901 0.0
H469 H 0.06322 0.1818 0.77509 0.0
H470 H 0.93438 0.19073 0.73053 0.0
H471 H 0.9848 0.19273 0.74497 0.0
C472 C 0.22555 0.39342 0.00055 0.0
C473 C 0.23562 0.39559 0.98824 0.0
C474 C 0.23417 0.4219 0.00855 0.0
C475 C 0.29721 0.49923 0.01229 0.0
H476 H 0.21812 0.5482 0.02917 0.0
C477 C 0.25901 0.65335 0.02278 0.0
C478 C 0.29204 0.66688 0.02749 0.0
C479 C 0.25252 0.61589 0.02229 0.0
C480 C 0.24061 0.53448 0.02467 0.0
H481 H 0.2629 0.42915 0.97475 0.0
H482 H 0.27795 0.4783 0.98865 0.0
H483 H 0.20714 0.48894 0.01954 0.0
H484 H 0.34326 0.65191 0.03607 0.0
H485 H 0.33214 0.58594 0.03499 0.0
H486 H 0.33009 0.54561 0.0167 0.0
C487 C 0.26357 0.45463 0.99213 0.0
C488 C 0.23437 0.50054 0.01923 0.0
C489 C 0.25454 0.42662 0.98414 0.0
C490 C 0.31765 0.64222 0.03233 0.0
C491 C 0.31131 0.60454 0.03171 0.0
C492 C 0.30351 0.53298 0.01779 0.0
C493 C 0.25359 0.45254 0.0044 0.0
C494 C 0.26219 0.48352 0.01252 0.0
C495 C 0.27903 0.59104 0.02641 0.0
C496 C 0.27481 0.55172 0.02354 0.0
H497 H 0.21093 0.36985 0.00398 0.0
H498 H 0.22601 0.41984 0.01797 0.0
H499 H 0.3192 0.48636 0.00728 0.0
H500 H 0.23849 0.67171 0.01914 0.0
H501 H 0.22759 0.60638 0.01803 0.0
C502 C 0.43211 0.78006 0.00366 0.0
C503 C 0.39644 0.77312 -0.00045 0.0
C504 C 0.46176 0.77645 -0.00414 0.0
C505 C 0.51865 0.78359 0.97656 0.0
H506 H 0.52891 0.69133 0.95959 0.0
C507 C 0.65844 0.74267 0.9593 0.0
C508 C 0.66877 0.70688 0.96226 0.0
C509 C 0.62168 0.75269 0.95931 0.0
C510 C 0.52644 0.71728 0.96424 0.0
H511 H 0.36377 0.75769 0.98393 0.0
H512 H 0.41623 0.75102 0.97021 0.0
H513 H 0.47026 0.70752 0.96877 0.0
H514 H 0.64936 0.6528 0.96682 0.0
H515 H 0.58503 0.67061 0.96762 0.0
H516 H 0.57507 0.79239 0.97306 0.0
C517 C 0.42092 0.7593 0.97952 0.0
C518 C 0.49271 0.72675 0.96936 0.0
C519 C 0.39098 0.76326 0.98734 0.0
C520 C 0.6418 0.68059 0.96451 0.0
C521 C 0.60496 0.69084 0.96486 0.0
C522 C 0.55228 0.77407 0.97157 0.0
C523 C 0.4566 0.76572 0.98375 0.0
C524 C 0.48903 0.75931 0.976 0.0
C525 C 0.59459 0.72739 0.96271 0.0
C526 C 0.55704 0.74017 0.96574 0.0
H527 H 0.4373 0.78791 0.01298 0.0
H528 H 0.48895 0.78097 -0.00054 0.0
H529 H 0.51639 0.80916 0.98146 0.0
H530 H 0.67895 0.76321 0.95733 0.0
H531 H 0.61469 0.78075 0.95721 0.0
C532 C 0.73845 0.34608 0.021 0.0
C533 C 0.70556 0.33269 0.02585 0.0
C534 C 0.74653 0.38317 0.02142 0.0
C535 C 0.70159 0.47151 0.02155 0.0
H536 H 0.80242 0.5044 0.02231 0.0
C537 C 0.74719 0.61241 0.00307 0.0
C538 C 0.77081 0.60688 0.99317 0.0
C539 C 0.74016 0.58394 0.01121 0.0
C540 C 0.77408 0.49579 0.02229 0.0
H541 H 0.65592 0.34771 0.0354 0.0
H542 H 0.67006 0.41323 0.03605 0.0
H543 H 0.78702 0.44366 0.02991 0.0
H544 H 0.80722 0.56833 0.98439 0.0
H545 H 0.79575 0.51902 -0.00121 0.0
H546 H 0.68907 0.52325 0.01343 0.0
C547 C 0.68946 0.39469 0.03189 0.0
C548 C 0.76524 0.46104 0.02657 0.0
C549 C 0.6814 0.35724 0.03153 0.0
C550 C 0.78878 0.5732 0.99192 0.0
C551 C 0.78244 0.54515 0.0002 0.0
C552 C 0.71039 0.50652 0.0174 0.0
C553 C 0.72199 0.40803 0.02671 0.0
C554 C 0.72927 0.44776 0.02558 0.0
C555 C 0.75746 0.54998 0.00974 0.0
C556 C 0.74698 0.5181 0.01716 0.0
H557 H 0.75794 0.32796 0.01667 0.0
H558 H 0.77148 0.39248 0.01713 0.0
H559 H 0.67366 0.46209 0.02063 0.0
H560 H 0.73287 0.63812 0.00418 0.0
H561 H 0.72067 0.58813 0.01848 0.0
C562 C 0.35546 0.30113 0.95449 0.0
C563 C 0.32993 0.28209 0.96164 0.0
C564 C 0.39244 0.29114 0.95464 0.0
C565 C 0.4556 0.21709 0.96479 0.0
H566 H 0.52182 0.29673 0.97223 0.0
C567 C 0.57066 0.20819 -0.00081 0.0
C568 C 0.60472 0.22402 -0.00339 0.0
C569 C 0.54191 0.21125 0.99096 0.0
C570 C 0.50394 0.27422 0.96986 0.0
H571 H 0.32297 0.23648 0.97405 0.0
H572 H 0.38685 0.21969 0.97446 0.0
H573 H 0.46075 0.31022 0.96451 0.0
H574 H 0.63587 0.25467 0.98333 0.0
H575 H 0.58472 0.26119 0.96904 0.0
H576 H 0.49787 0.18131 0.97111 0.0
C577 C 0.37857 0.24204 0.96863 0.0
C578 C 0.46898 0.28191 0.96542 0.0
C579 C 0.34187 0.25204 0.96852 0.0
C580 C 0.60985 0.24215 0.9855 0.0
C581 C 0.58072 0.24592 0.97735 0.0
C582 C 0.49035 0.20946 0.96934 0.0
C583 C 0.40441 0.26174 0.96185 0.0
C584 C 0.44385 0.25347 0.96342 0.0
C585 C 0.54645 0.23074 0.98009 0.0
C586 C 0.51416 0.23804 0.97242 0.0
H587 H 0.34708 0.32427 0.94903 0.0
H588 H 0.41174 0.30674 0.94929 0.0
H589 H 0.43713 0.19456 0.96304 0.0
H590 H 0.56607 0.19386 0.00765 0.0
H591 H 0.51559 0.19972 0.99335 0.0
C592 C 0.74248 0.57678 0.75639 0.0
C593 C 0.72742 0.60857 0.75126 0.0
C594 C 0.7553 0.54865 0.74903 0.0
C595 C 0.74259 0.50462 0.72018 0.0
H596 H 0.8338 0.45703 0.72885 0.0
C597 C 0.82938 0.36194 0.7114 0.0
C598 C 0.80092 0.33759 0.71421 0.0
C599 C 0.82361 0.39972 0.71211 0.0
C600 C 0.80871 0.47039 0.72608 0.0
H601 H 0.71342 0.63539 0.73432 0.0
H602 H 0.73512 0.58524 0.72139 0.0
H603 H 0.8183 0.5159 0.73786 0.0
H604 H 0.74352 0.33351 0.71902 0.0
H605 H 0.73355 0.39897 0.72023 0.0
H606 H 0.73209 0.45806 0.70892 0.0
C607 C 0.73733 0.58268 0.73115 0.0
C608 C 0.7997 0.5039 0.73133 0.0
C609 C 0.72489 0.61125 0.73855 0.0
C610 C 0.76613 0.35161 0.71698 0.0
C611 C 0.76027 0.38916 0.71751 0.0
C612 C 0.7515 0.47092 0.71499 0.0
C613 C 0.75307 0.55137 0.73636 0.0
C614 C 0.76588 0.52051 0.72882 0.0
C615 C 0.78914 0.41362 0.71541 0.0
C616 C 0.78394 0.4528 0.7183 0.0
H617 H 0.74502 0.57377 0.76614 0.0
H618 H 0.76663 0.52446 0.75329 0.0
H619 H 0.71638 0.51692 0.7181 0.0
H620 H 0.85641 0.35182 0.70919 0.0
H621 H 0.8463 0.41805 0.71042 0.0
C622 C 0.60881 0.23609 0.25567 0.0
C623 C 0.60431 0.2576 0.24521 0.0
C624 C 0.57959 0.23107 0.26371 0.0
C625 C 0.49219 0.26979 0.2735 0.0
H626 H 0.45514 0.17057 0.27459 0.0
C627 C 0.3411 0.23865 0.27336 0.0
C628 C 0.32698 0.20702 0.27885 0.0
C629 C 0.37839 0.246 0.27365 0.0
C630 C 0.46548 0.19829 0.27474 0.0
H631 H 0.56669 0.29215 0.23523 0.0
H632 H 0.51615 0.28421 0.2494 0.0
H633 H 0.51679 0.18207 0.26701 0.0
H634 H 0.34083 0.15918 0.28952 0.0
H635 H 0.40662 0.17204 0.28999 0.0
H636 H 0.44058 0.28634 0.28076 0.0
C637 C 0.54202 0.27096 0.25134 0.0
C638 C 0.50077 0.20484 0.27037 0.0
C639 C 0.57078 0.27524 0.24319 0.0
C640 C 0.35093 0.18368 0.28515 0.0
C641 C 0.38855 0.19098 0.28539 0.0
C642 C 0.45717 0.26324 0.27801 0.0
C643 C 0.54594 0.24839 0.26155 0.0
C644 C 0.51359 0.2408 0.26915 0.0
C645 C 0.40271 0.22194 0.27946 0.0
C646 C 0.44268 0.22764 0.27803 0.0
H647 H 0.63441 0.22211 0.2574 0.0
H648 H 0.58307 0.21339 0.27151 0.0
H649 H 0.50176 0.29773 0.27276 0.0
H650 H 0.32342 0.25747 0.26854 0.0
H651 H 0.38829 0.26975 0.2688 0.0
C652 C 0.17257 0.63618 0.70485 0.0
C653 C 0.17307 0.65883 0.71517 0.0
C654 C 0.17662 0.59827 0.70611 0.0
C655 C 0.16433 0.52423 0.72773 0.0
H656 H 0.25517 0.48158 0.71628 0.0
C657 C 0.24098 0.41993 0.75522 0.0
C658 C 0.25428 0.38795 0.7497 0.0
C659 C 0.22657 0.44809 0.74824 0.0
C660 C 0.22925 0.49273 0.71927 0.0
H661 H 0.17679 0.65987 0.7348 0.0
H662 H 0.18283 0.59402 0.73698 0.0
H663 H 0.23515 0.54106 0.7084 0.0
H664 H 0.26415 0.36121 0.7324 0.0
H665 H 0.23939 0.41142 0.72012 0.0
H666 H 0.15944 0.47733 0.73916 0.0
C667 C 0.17971 0.60541 0.72796 0.0
C668 C 0.21779 0.5266 0.71475 0.0
C669 C 0.17654 0.64305 0.7267 0.0
C670 C 0.25399 0.38543 0.73694 0.0
C671 C 0.23982 0.41402 0.72991 0.0
C672 C 0.17567 0.49051 0.7322 0.0
C673 C 0.18008 0.58274 0.71769 0.0
C674 C 0.18622 0.54332 0.71944 0.0
C675 C 0.2253 0.4452 0.73555 0.0
C676 C 0.20918 0.47545 0.72849 0.0
H677 H 0.17009 0.64785 0.69586 0.0
H678 H 0.17708 0.58115 0.69809 0.0
H679 H 0.13976 0.5366 0.73139 0.0
H680 H 0.24085 0.42302 0.765 0.0
H681 H 0.21633 0.47227 0.75279 0.0
C682 C 0.42242 0.70359 0.24464 0.0
C683 C 0.38934 0.72221 0.24646 0.0
C684 C 0.4509 0.70713 0.25293 0.0
C685 C 0.49167 0.77386 0.27205 0.0
H686 H 0.55544 0.69326 0.28073 0.0
C687 C 0.64241 0.79763 0.28526 0.0
C688 C 0.66627 0.77606 0.27826 0.0
C689 C 0.6051 0.7892 0.28585 0.0
C690 C 0.5378 0.71608 0.27848 0.0
H691 H 0.35945 0.75824 0.25852 0.0
H692 H 0.41029 0.76559 0.27293 0.0
H693 H 0.49355 0.6808 0.27353 0.0
H694 H 0.67 0.72763 0.26692 0.0
H695 H 0.60546 0.71335 0.26782 0.0
H696 H 0.53681 0.80904 0.27602 0.0
C697 C 0.41369 0.74779 0.26516 0.0
C698 C 0.50239 0.70893 0.27443 0.0
C699 C 0.38475 0.74356 0.25695 0.0
C700 C 0.65238 0.74508 0.27231 0.0
C701 C 0.61535 0.73657 0.27296 0.0
C702 C 0.52725 0.78103 0.27602 0.0
C703 C 0.44712 0.72987 0.26312 0.0
C704 C 0.4797 0.73766 0.27061 0.0
C705 C 0.59115 0.75882 0.27956 0.0
C706 C 0.55126 0.75206 0.27866 0.0
H707 H 0.42654 0.68675 0.23666 0.0
H708 H 0.47656 0.69344 0.25105 0.0
H709 H 0.47472 0.79648 0.2691 0.0
H710 H 0.65231 0.8216 0.29 0.0
H711 H 0.58709 0.80677 0.29103 0.0
C712 C 0.74315 0.88783 0.50726 0.0
C713 C 0.72574 0.89273 0.49601 0.0
C714 C 0.74462 0.91655 0.51563 0.0
C715 C 0.70269 0.00436 0.5238 0.0
H716 H 0.80142 0.04016 0.52854 0.0
C717 C 0.73774 0.15393 0.52173 0.0
C718 C 0.76784 0.16838 0.52802 0.0
C719 C 0.72877 0.11713 0.52279 0.0
C720 C 0.77366 0.0302 0.5277 0.0
H721 H 0.69452 0.93045 0.48491 0.0
H722 H 0.69646 0.9802 0.49958 0.0
H723 H 0.79182 0.97807 0.52123 0.0
H724 H 0.81083 0.15594 0.54096 0.0
H725 H 0.79515 0.09117 0.54276 0.0
H726 H 0.68446 0.05702 0.52965 0.0
C727 C 0.70916 0.95437 0.50192 0.0
C728 C 0.7682 0.99462 0.52349 0.0
C729 C 0.70841 0.92609 0.49348 0.0
C730 C 0.78764 0.14555 0.53592 0.0
C731 C 0.77871 0.10849 0.53694 0.0
C732 C 0.7081 0.03975 0.52814 0.0
C733 C 0.72778 0.95009 0.51297 0.0
C734 C 0.73277 0.98227 0.52085 0.0
C735 C 0.74965 0.09377 0.53018 0.0
C736 C 0.74369 0.05376 0.5294 0.0
H737 H 0.75672 0.8623 0.5094 0.0
H738 H 0.75935 0.91284 0.52407 0.0
H739 H 0.67509 0.99514 0.52196 0.0
H740 H 0.72159 0.17081 0.51568 0.0
H741 H 0.70659 0.10667 0.51729 0.0
C742 C 0.134 0.16433 0.45821 0.0
C743 C 0.15708 0.19089 0.46333 0.0
C744 C 0.09605 0.16947 0.45818 0.0
C745 C 0.02168 0.17676 0.47076 0.0
H746 H 0.97659 0.27213 0.467 0.0
C747 C 0.91138 0.23011 0.50226 0.0
C748 C 0.88155 0.24984 0.49761 0.0
C749 C 0.93959 0.21882 0.49465 0.0
C750 C 0.98844 0.2451 0.46784 0.0
H751 H 0.15886 0.24468 0.47162 0.0
H752 H 0.09312 0.25357 0.47156 0.0
H753 H 0.03741 0.26098 0.45858 0.0
H754 H 0.85778 0.27303 0.48129 0.0
H755 H 0.90813 0.25406 0.46798 0.0
H756 H 0.97367 0.16159 0.48066 0.0
C757 C 0.10409 0.22882 0.46756 0.0
C758 C 0.02329 0.23879 0.46309 0.0
C759 C 0.14176 0.2235 0.46775 0.0
C760 C 0.88047 0.2579 0.48513 0.0
C761 C 0.90914 0.24704 0.47752 0.0
C762 C 0.98697 0.18315 0.47557 0.0
C763 C 0.08076 0.20154 0.46306 0.0
C764 C 0.04088 0.20511 0.46501 0.0
C765 C 0.93889 0.22732 0.48224 0.0
C766 C 0.97082 0.21789 0.47463 0.0
H767 H 0.1451 0.13898 0.45471 0.0
H768 H 0.07861 0.14804 0.45466 0.0
H769 H 0.03459 0.15057 0.47242 0.0
H770 H 0.91293 0.22317 0.5118 0.0
H771 H 0.96252 0.20423 0.49857 0.0
C772 C 0.19489 0.84289 0.52883 0.0
C773 C 0.22168 0.81551 0.52886 0.0
C774 C 0.20515 0.87968 0.52894 0.0
C775 C 0.23144 0.95783 0.52949 0.0
H776 H 0.31392 0.97106 0.50785 0.0
C777 C 0.2624 0.09512 0.50478 0.0
C778 C 0.2674 0.09014 0.49222 0.0
C779 C 0.26252 0.06499 0.51264 0.0
C780 C 0.29099 0.96792 0.51399 0.0
H781 H 0.27959 0.8043 0.53044 0.0
H782 H 0.29754 0.86836 0.53142 0.0
H783 H 0.30233 0.91149 0.51642 0.0
H784 H 0.27714 0.04962 0.47815 0.0
H785 H 0.27695 -0.00219 0.49169 0.0
H786 H 0.21851 0.01402 0.52599 0.0
C787 C 0.26875 0.86185 0.53067 0.0
C788 C 0.28454 0.93373 0.51908 0.0
C789 C 0.25855 0.82516 0.53018 0.0
C790 C 0.27307 0.05462 0.48775 0.0
C791 C 0.2734 0.02482 0.49555 0.0
C792 C 0.23771 0.99209 0.52424 0.0
C793 C 0.24237 0.88963 0.52936 0.0
C794 C 0.25371 0.92774 0.52647 0.0
C795 C 0.26812 0.02956 0.50807 0.0
C796 C 0.26653 -0.00314 0.51597 0.0
H797 H 0.16626 0.83592 0.52781 0.0
H798 H 0.18396 0.90006 0.52782 0.0
H799 H 0.20802 0.95451 0.53539 0.0
H800 H 0.25801 0.12215 0.50851 0.0
H801 H 0.25833 0.06937 0.52226 0.0
C802 C 0.08061 0.70973 0.49679 0.0
C803 C 0.1142 0.72782 0.49555 0.0
C804 C 0.05183 0.71746 0.48894 0.0
C805 C 0.01104 0.7914 0.47322 0.0
H806 H 0.94805 0.71542 0.46038 0.0
C807 C 0.85984 0.81893 0.46046 0.0
C808 C 0.83613 0.79408 0.4662 0.0
C809 C 0.89745 0.81172 0.45984 0.0
C810 C 0.96547 0.73703 0.4638 0.0
H811 H 0.14453 0.76759 0.48503 0.0
H812 H 0.09313 0.7823 0.47145 0.0
H813 H 0.00989 0.70011 0.467 0.0
H814 H 0.83311 0.74152 0.4753 0.0
H815 H 0.89802 0.72929 0.47433 0.0
H816 H 0.96562 0.82775 0.47099 0.0
C817 C 0.0896 0.76163 0.47839 0.0
C818 C 0.00085 0.72828 0.46752 0.0
C819 C 0.11886 0.7532 0.48611 0.0
C820 C 0.85056 0.76145 0.47091 0.0
C821 C 0.88783 0.75417 0.47021 0.0
C822 C 0.97545 0.80013 0.46959 0.0
C823 C 0.0558 0.74394 0.47982 0.0
C824 C 0.02325 0.75503 0.4728 0.0
C825 C 0.91179 0.77932 0.46479 0.0
C826 C 0.95173 0.77259 0.46544 0.0
H827 H 0.07642 0.68992 0.50397 0.0
H828 H 0.02587 0.70382 0.49034 0.0
H829 H 0.02782 0.81244 0.47732 0.0
H830 H 0.84951 0.84426 0.4567 0.0
H831 H 0.91532 0.83159 0.45562 0.0
C832 C 0.17709 0.2159 0.3296 0.0
C833 C 0.20457 0.21242 0.32083 0.0
C834 C 0.18642 0.22163 0.34175 0.0
C835 C 0.26555 0.20833 0.36229 0.0
H836 H 0.20219 0.256 0.38565 0.0
C837 C 0.30254 0.22058 0.41283 0.0
C838 C 0.27652 0.20392 0.4204 0.0
C839 C 0.29411 0.22812 0.40074 0.0
C840 C 0.22014 0.24283 0.37917 0.0
H841 H 0.26282 0.21508 0.31745 0.0
H842 H 0.27913 0.2273 0.33845 0.0
H843 H 0.18726 0.25899 0.36404 0.0
H844 H 0.22081 0.18372 0.42146 0.0
H845 H 0.20604 0.19744 0.40033 0.0
H846 H 0.29851 0.19256 0.37744 0.0
C847 C 0.25053 0.22375 0.3362 0.0
C848 C 0.21154 0.24426 0.36682 0.0
C849 C 0.24125 0.21701 0.32416 0.0
C850 C 0.24152 0.19621 0.41579 0.0
C851 C 0.23292 0.20437 0.40377 0.0
C852 C 0.27446 0.20755 0.37456 0.0
C853 C 0.22337 0.22485 0.34523 0.0
C854 C 0.23384 0.22648 0.35825 0.0
C855 C 0.25934 0.21981 0.39612 0.0
C856 C 0.25154 0.22424 0.3831 0.0
H857 H 0.1486 0.21238 0.32717 0.0
H858 H 0.16475 0.22193 0.34844 0.0
H859 H 0.28294 0.19349 0.35605 0.0
H860 H 0.3297 0.22687 0.41615 0.0
H861 H 0.31486 0.24003 0.39494 0.0
C862 C 0.19075 0.72502 0.66372 0.0
C863 C 0.19568 0.76212 0.66651 0.0
C864 C 0.20006 0.71165 0.65229 0.0
C865 C 0.24869 0.73696 0.62368 0.0
H866 H 0.18148 0.66705 0.60946 0.0
C867 C 0.21548 0.72262 0.57301 0.0
C868 C 0.21594 0.68732 0.56802 0.0
C869 C 0.22124 0.72768 0.58538 0.0
C870 C 0.20083 0.68606 0.61341 0.0
H871 H 0.2143 0.81437 0.65964 0.0
H872 H 0.22861 0.79165 0.63946 0.0
H873 H 0.17478 0.68392 0.63068 0.0
H874 H 0.22361 0.62971 0.5719 0.0
H875 H 0.23225 0.63861 0.59378 0.0
H876 H 0.27273 0.74093 0.60599 0.0
C877 C 0.2189 0.77242 0.64619 0.0
C878 C 0.19715 0.6957 0.62558 0.0
C879 C 0.21033 0.7856 0.65771 0.0
C880 C 0.22317 0.6572 0.57555 0.0
C881 C 0.2281 0.66221 0.58801 0.0
C882 C 0.25186 0.72783 0.61144 0.0
C883 C 0.21374 0.73529 0.64331 0.0
C884 C 0.22051 0.7219 0.6308 0.0
C885 C 0.22683 0.69747 0.59299 0.0
C886 C 0.2275 0.70285 0.60619 0.0
H887 H 0.18009 0.70621 0.67044 0.0
H888 H 0.19643 0.68279 0.6505 0.0
H889 H 0.26775 0.75651 0.62747 0.0
H890 H 0.21028 0.74629 0.56735 0.0
H891 H 0.21979 0.75507 0.5891 0.0
C892 C 0.8069 0.75578 0.32872 0.0
C893 C 0.78477 0.77898 0.32167 0.0
C894 C 0.79958 0.75088 0.34106 0.0
C895 C 0.79216 0.7697 0.36795 0.0
H896 H 0.69233 0.76264 0.37961 0.0
C897 C 0.74931 0.811 0.41619 0.0
C898 C 0.72235 0.79015 0.42207 0.0
C899 C 0.75863 0.80371 0.40416 0.0
C900 C 0.72041 0.76405 0.37652 0.0
H901 H 0.73701 0.81433 0.32196 0.0
H902 H 0.72456 0.80594 0.3434 0.0
H903 H 0.70455 0.75885 0.35792 0.0
H904 H 0.68481 0.74454 0.42 0.0
H905 H 0.70125 0.73186 0.39903 0.0
H906 H 0.80795 0.77535 0.38656 0.0
C907 C 0.74735 0.79134 0.3394 0.0
C908 C 0.72734 0.76222 0.3641 0.0
C909 C 0.75472 0.7964 0.32713 0.0
C910 C 0.70545 0.7614 0.41572 0.0
C911 C 0.7148 0.75411 0.4037 0.0
C912 C 0.78521 0.77158 0.38039 0.0
C913 C 0.76987 0.76883 0.34651 0.0
C914 C 0.76317 0.76588 0.35969 0.0
C915 C 0.74123 0.7754 0.39777 0.0
C916 C 0.74919 0.76955 0.38476 0.0
H917 H 0.83022 0.74191 0.32478 0.0
H918 H 0.81723 0.7332 0.34634 0.0
H919 H 0.82002 0.77281 0.36478 0.0
H920 H 0.76293 0.8333 0.42081 0.0
H921 H 0.77874 0.82092 0.39976 0.0
C922 C 0.78057 0.20587 0.65955 0.0
C923 C 0.79383 0.23058 0.66823 0.0
C924 C 0.7731 0.21753 0.64776 0.0
C925 C 0.79384 0.29259 0.62626 0.0
H926 H 0.71885 0.24428 0.60722 0.0
C927 C 0.76355 0.32733 0.576 0.0
C928 C 0.77154 0.29707 0.56861 0.0
C929 C 0.75982 0.32291 0.58853 0.0
C930 C 0.73958 0.25821 0.6125 0.0
H931 H 0.80867 0.28706 0.67155 0.0
H932 H 0.79429 0.30783 0.6511 0.0
H933 H 0.72462 0.23046 0.6288 0.0
H934 H 0.77986 0.2384 0.5683 0.0
H935 H 0.77216 0.23059 0.59016 0.0
H936 H 0.80842 0.32045 0.60987 0.0
C937 C 0.79078 0.27917 0.65324 0.0
C938 C 0.74323 0.25007 0.62481 0.0
C939 C 0.79895 0.26732 0.66497 0.0
C940 C 0.77391 0.26216 0.57383 0.0
C941 C 0.76929 0.25765 0.58628 0.0
C942 C 0.78966 0.30125 0.61401 0.0
C943 C 0.77798 0.25436 0.64445 0.0
C944 C 0.77114 0.26632 0.63176 0.0
C945 C 0.76302 0.28807 0.59374 0.0
C946 C 0.76316 0.2834 0.607 0.0
H947 H 0.77659 0.17733 0.6618 0.0
H948 H 0.76418 0.1974 0.6412 0.0
H949 H 0.81595 0.30532 0.63124 0.0
H950 H 0.76177 0.35453 0.57216 0.0
H951 H 0.75509 0.34669 0.59418 0.0
C952 C 0.19544 0.26818 0.90803 0.0
C953 C 0.22053 0.27954 0.91687 0.0
C954 C 0.20752 0.25895 0.8964 0.0
C955 C 0.28687 0.27406 0.87607 0.0
H956 H 0.23369 0.20728 0.85521 0.0
C957 C 0.32538 0.25328 0.82598 0.0
C958 C 0.29643 0.26415 0.81843 0.0
C959 C 0.31903 0.24615 0.83826 0.0
C960 C 0.24899 0.22565 0.86102 0.0
H961 H 0.27794 0.28788 0.92088 0.0
H962 H 0.29926 0.2701 0.90085 0.0
H963 H 0.21756 0.2116 0.87669 0.0
H964 H 0.23793 0.27355 0.81746 0.0
H965 H 0.22681 0.26037 0.83884 0.0
H966 H 0.31817 0.28803 0.86035 0.0
C967 C 0.27014 0.26987 0.90261 0.0
C968 C 0.23957 0.22847 0.87326 0.0
C969 C 0.25797 0.27996 0.91411 0.0
C970 C 0.26078 0.26558 0.82314 0.0
C971 C 0.25434 0.25771 0.83532 0.0
C972 C 0.29669 0.27069 0.86391 0.0
C973 C 0.24504 0.26008 0.8935 0.0
C974 C 0.25772 0.2535 0.88087 0.0
C975 C 0.28353 0.24892 0.84304 0.0
C976 C 0.27722 0.24721 0.85623 0.0
H977 H 0.16641 0.26763 0.90998 0.0
H978 H 0.18727 0.25213 0.8896 0.0
H979 H 0.30108 0.29415 0.88152 0.0
H980 H 0.35311 0.25199 0.82255 0.0
H981 H 0.34191 0.23947 0.8441 0.0
C982 C 0.30559 0.75081 0.07767 0.0
C983 C 0.2877 0.78079 0.07234 0.0
C984 C 0.29909 0.74172 0.08973 0.0
C985 C 0.26809 0.71801 0.11383 0.0
H986 H 0.27473 0.79724 0.13712 0.0
C987 C 0.26444 0.69275 0.16536 0.0
C988 C 0.29193 0.71079 0.17199 0.0
C989 C 0.25754 0.70218 0.15332 0.0
C990 C 0.27273 0.77488 0.13071 0.0
H991 H 0.24816 0.82414 0.07543 0.0
H992 H 0.23691 0.80813 0.0966 0.0
H993 H 0.27373 0.811 0.11547 0.0
H994 H 0.33337 0.75324 0.17118 0.0
H995 H 0.32166 0.7692 0.15013 0.0
H996 H 0.2689 0.68179 0.12904 0.0
C997 C 0.25613 0.79192 0.09139 0.0
C998 C 0.27173 0.78276 0.11834 0.0
C999 C 0.26254 0.80099 0.07928 0.0
C1000 C 0.31204 0.73874 0.16635 0.0
C1001 C 0.30511 0.74815 0.15432 0.0
C1002 C 0.26907 0.71013 0.1262 0.0
C1003 C 0.2746 0.76239 0.09674 0.0
C1004 C 0.27036 0.75433 0.10979 0.0
C1005 C 0.27793 0.72985 0.14768 0.0
C1006 C 0.27233 0.73846 0.13473 0.0
H1007 H 0.32503 0.73455 0.07258 0.0
H1008 H 0.31413 0.71914 0.09368 0.0
H1009 H 0.26658 0.69562 0.10742 0.0
H1010 H 0.24824 0.67126 0.16945 0.0
H1011 H 0.23624 0.68784 0.14843 0.0
C1012 C 0.79936 0.72024 0.91049 0.0
C1013 C 0.77543 0.70771 0.91951 0.0
C1014 C 0.78627 0.72807 0.89888 0.0
C1015 C 0.70732 0.7084 0.87882 0.0
H1016 H 0.75394 0.78094 0.85836 0.0
C1017 C 0.66283 0.73384 0.82943 0.0
C1018 C 0.69156 0.72584 0.82141 0.0
C1019 C 0.66998 0.73915 0.84176 0.0
C1020 C 0.7405 0.76089 0.86405 0.0
H1021 H 0.7189 0.69524 0.92374 0.0
H1022 H 0.69576 0.71036 0.90369 0.0
H1023 H 0.77188 0.77575 0.87965 0.0
H1024 H 0.75031 0.71953 0.8197 0.0
H1025 H 0.76281 0.72964 0.84119 0.0
H1026 H 0.67594 0.69376 0.86317 0.0
C1027 C 0.72484 0.71276 0.90535 0.0
C1028 C 0.75097 0.75759 0.87618 0.0
C1029 C 0.73806 0.70417 0.91686 0.0
C1030 C 0.72767 0.72532 0.82574 0.0
C1031 C 0.73486 0.73141 0.83798 0.0
C1032 C 0.69641 0.71221 0.86677 0.0
C1033 C 0.74884 0.7243 0.89615 0.0
C1034 C 0.73517 0.73064 0.88363 0.0
C1035 C 0.70601 0.73744 0.84612 0.0
C1036 C 0.71352 0.73786 0.85924 0.0
H1037 H 0.82832 0.72316 0.91233 0.0
H1038 H 0.80571 0.73622 0.89198 0.0
H1039 H 0.69495 0.68689 0.88416 0.0
H1040 H 0.63476 0.73434 0.82629 0.0
H1041 H 0.64738 0.74371 0.84793 0.0
C1042 C 0.70096 0.25497 0.07455 0.0
C1043 C 0.70452 0.21855 0.07075 0.0
C1044 C 0.70589 0.26425 0.08672 0.0
C1045 C 0.73979 0.22742 0.11631 0.0
H1046 H 0.67611 0.30248 0.12943 0.0
C1047 C 0.70117 0.24538 0.1669 0.0
C1048 C 0.70633 0.28054 0.17173 0.0
C1049 C 0.70607 0.23905 0.15452 0.0
C1050 C 0.6943 0.28176 0.12583 0.0
H1051 H 0.71613 0.16322 0.07659 0.0
H1052 H 0.72282 0.17891 0.09794 0.0
H1053 H 0.67421 0.28885 0.10783 0.0
H1054 H 0.72096 0.33654 0.16749 0.0
H1055 H 0.72826 0.32557 0.14569 0.0
H1056 H 0.75801 0.2191 0.13461 0.0
C1057 C 0.71756 0.20068 0.09152 0.0
C1058 C 0.69344 0.27402 0.11344 0.0
C1059 C 0.71346 0.19157 0.0793 0.0
C1060 C 0.71693 0.30916 0.16399 0.0
C1061 C 0.72102 0.30297 0.15157 0.0
C1062 C 0.74003 0.23468 0.12875 0.0
C1063 C 0.71361 0.23714 0.09541 0.0
C1064 C 0.71602 0.24658 0.10852 0.0
C1065 C 0.71545 0.26792 0.14676 0.0
C1066 C 0.71716 0.26177 0.13357 0.0
H1067 H 0.6946 0.27639 0.0681 0.0
H1068 H 0.70355 0.29271 0.08929 0.0
H1069 H 0.75812 0.20667 0.11284 0.0
H1070 H 0.69322 0.22279 0.17268 0.0
H1071 H 0.70141 0.21185 0.15095 0.0
C1072 C 0.23657 0.33706 0.28257 0.0
C1073 C 0.20111 0.32656 0.27929 0.0
C1074 C 0.24591 0.37396 0.2831 0.0
C1075 C 0.26683 0.44511 0.27196 0.0
H1076 H 0.19745 0.52497 0.27429 0.0
C1077 C 0.27147 0.5645 0.23986 0.0
C1078 C 0.26387 0.60019 0.24383 0.0
C1079 C 0.26769 0.53502 0.24769 0.0
C1080 C 0.21745 0.50315 0.27386 0.0
H1081 H 0.14692 0.34556 0.27464 0.0
H1082 H 0.16359 0.41012 0.27469 0.0
H1083 H 0.18232 0.46567 0.28316 0.0
H1084 H 0.24669 0.63296 0.25922 0.0
H1085 H 0.23964 0.58067 0.27301 0.0
H1086 H 0.30166 0.4823 0.26254 0.0
C1087 C 0.18406 0.39029 0.27734 0.0
C1088 C 0.20861 0.46902 0.27879 0.0
C1089 C 0.17447 0.35331 0.27718 0.0
C1090 C 0.25277 0.60574 0.25591 0.0
C1091 C 0.24865 0.57592 0.26378 0.0
C1092 C 0.27575 0.47915 0.2672 0.0
C1093 C 0.22029 0.40102 0.27988 0.0
C1094 C 0.23249 0.4391 0.27737 0.0
C1095 C 0.25617 0.5403 0.25971 0.0
C1096 C 0.2504 0.50792 0.26752 0.0
H1097 H 0.25733 0.31664 0.28442 0.0
H1098 H 0.27371 0.38113 0.28549 0.0
H1099 H 0.286 0.42296 0.27056 0.0
H1100 H 0.28027 0.55916 0.23064 0.0
H1101 H 0.27298 0.50783 0.2442 0.0
C1102 C 0.3354 0.78789 0.70216 0.0
C1103 C 0.31055 0.76818 0.70937 0.0
C1104 C 0.37278 0.78006 0.70263 0.0
C1105 C 0.44177 0.71412 0.71439 0.0
H1106 H 0.49476 0.80165 0.72356 0.0
C1107 C 0.58682 0.71414 0.7366 0.0
C1108 C 0.58547 0.73158 0.74797 0.0
C1109 C 0.55765 0.71764 0.72844 0.0
C1110 C 0.48054 0.77704 0.7208 0.0
H1111 H 0.30515 0.72277 0.72192 0.0
H1112 H 0.37016 0.70944 0.72282 0.0
H1113 H 0.43419 0.80712 0.71455 0.0
H1114 H 0.55318 0.76709 0.75956 0.0
H1115 H 0.50294 0.77359 0.7453 0.0
H1116 H 0.48753 0.68412 0.72141 0.0
C1117 C 0.36085 0.73086 0.71677 0.0
C1118 C 0.44598 0.78012 0.71556 0.0
C1119 C 0.32357 0.73881 0.71637 0.0
C1120 C 0.55492 0.75308 0.75091 0.0
C1121 C 0.52631 0.75713 0.74271 0.0
C1122 C 0.47657 0.71105 0.71954 0.0
C1123 C 0.38596 0.75218 0.71023 0.0
C1124 C 0.42556 0.74867 0.71281 0.0
C1125 C 0.52731 0.73938 0.73143 0.0
C1126 C 0.49542 0.74249 0.72329 0.0
H1127 H 0.32626 0.81049 0.69658 0.0
H1128 H 0.39154 0.79673 0.69742 0.0
H1129 H 0.42674 0.68945 0.71224 0.0
H1130 H 0.61006 0.69735 0.73412 0.0
H1131 H 0.55881 0.70356 0.7198 0.0
C1132 C 0.71457 0.41516 0.24336 0.0
C1133 C 0.73084 0.38106 0.24552 0.0
C1134 C 0.71956 0.44383 0.2515 0.0
C1135 C 0.72174 0.49386 0.27358 0.0
H1136 H 0.82206 0.52806 0.27442 0.0
C1137 C 0.75706 0.64367 0.27206 0.0
C1138 C 0.78846 0.65757 0.27778 0.0
C1139 C 0.74902 0.60657 0.27255 0.0
C1140 C 0.79404 0.51851 0.27464 0.0
H1141 H 0.76458 0.34976 0.25792 0.0
H1142 H 0.77467 0.40094 0.27202 0.0
H1143 H 0.80874 0.46629 0.26727 0.0
H1144 H 0.83534 0.64349 0.2889 0.0
H1145 H 0.8213 0.57797 0.28964 0.0
H1146 H 0.70671 0.54644 0.2804 0.0
C1147 C 0.75745 0.40496 0.26413 0.0
C1148 C 0.78646 0.48317 0.27053 0.0
C1149 C 0.75166 0.37585 0.25611 0.0
C1150 C 0.81103 0.63356 0.28436 0.0
C1151 C 0.80304 0.59611 0.28477 0.0
C1152 C 0.72932 0.52895 0.27782 0.0
C1153 C 0.74153 0.43919 0.26184 0.0
C1154 C 0.75011 0.47138 0.26937 0.0
C1155 C 0.77212 0.58222 0.27875 0.0
C1156 C 0.76534 0.54238 0.27772 0.0
H1157 H 0.69822 0.41978 0.2353 0.0
H1158 H 0.70742 0.47015 0.24946 0.0
H1159 H 0.69352 0.4851 0.27287 0.0
H1160 H 0.73883 0.66138 0.26701 0.0
H1161 H 0.72537 0.59679 0.2676 0.0
C1162 C 0.65897 0.25642 0.71651 0.0
C1163 C 0.67167 0.22665 0.70965 0.0
C1164 C 0.62234 0.26655 0.71615 0.0
C1165 C 0.53307 0.22545 0.71185 0.0
H1166 H 0.50224 0.32456 0.71908 0.0
C1167 C 0.39218 0.25892 0.73287 0.0
C1168 C 0.39733 0.27522 0.7443 0.0
C1169 C 0.421 0.25733 0.72455 0.0
C1170 C 0.51029 0.29685 0.71686 0.0
H1171 H 0.65623 0.18546 0.69645 0.0
H1172 H 0.59164 0.20321 0.69586 0.0
H1173 H 0.56318 0.31364 0.71078 0.0
H1174 H 0.43569 0.30444 0.75574 0.0
H1175 H 0.48567 0.30233 0.74112 0.0
H1176 H 0.48062 0.20866 0.71844 0.0
C1177 C 0.61024 0.21847 0.70159 0.0
C1178 C 0.54515 0.29054 0.71217 0.0
C1179 C 0.64719 0.20837 0.70191 0.0
C1180 C 0.43108 0.29148 0.74703 0.0
C1181 C 0.45953 0.29059 0.73863 0.0
C1182 C 0.498 0.23183 0.7164 0.0
C1183 C 0.59733 0.24723 0.7089 0.0
C1184 C 0.55766 0.25461 0.7103 0.0
C1185 C 0.45499 0.27287 0.72742 0.0
C1186 C 0.48714 0.2674 0.71954 0.0
H1187 H 0.67716 0.27144 0.72246 0.0
H1188 H 0.61335 0.28842 0.72206 0.0
H1189 H 0.54186 0.19744 0.71055 0.0
H1190 H 0.3664 0.24611 0.73057 0.0
H1191 H 0.41702 0.24338 0.71598 0.0
C1192 C 0.24096 0.15798 0.95849 0.0
C1193 C 0.20451 0.16852 0.9602 0.0
C1194 C 0.2509 0.12131 0.95936 0.0
C1195 C 0.26845 0.05406 0.97344 0.0
H1196 H 0.20456 0.97061 0.96898 0.0
C1197 C 0.27084 0.93358 0.00565 0.0
C1198 C 0.2674 0.89781 0.00116 0.0
C1199 C 0.26669 0.96346 -0.00202 0.0
C1200 C 0.22302 0.9935 0.97008 0.0
H1201 H 0.14937 0.14967 0.96344 0.0
H1202 H 0.16682 0.08551 0.96567 0.0
H1203 H 0.19024 0.02839 0.95887 0.0
H1204 H 0.257 0.86541 0.98501 0.0
H1205 H 0.24956 0.91819 0.97153 0.0
H1206 H 0.3009 0.01953 0.98474 0.0
C1207 C 0.18771 0.10514 0.96325 0.0
C1208 C 0.21463 0.02669 0.96441 0.0
C1209 C 0.17765 0.14186 0.96206 0.0
C1210 C 0.25989 0.89264 0.98875 0.0
C1211 C 0.25548 0.92276 0.98104 0.0
C1212 C 0.27688 0.021 0.979 0.0
C1213 C 0.22473 0.09467 0.96238 0.0
C1214 C 0.23661 0.05771 0.96637 0.0
C1215 C 0.25896 0.95843 0.98561 0.0
C1216 C 0.25352 0.99084 0.97779 0.0
H1217 H 0.26198 0.17831 0.95692 0.0
H1218 H 0.27945 0.11414 0.95827 0.0
H1219 H 0.28589 0.07727 0.97532 0.0
H1220 H 0.27665 0.93866 0.01514 0.0
H1221 H 0.26885 0.99064 0.00181 0.0
C1222 C 0.14183 0.81245 0.02941 0.0
C1223 C 0.16946 0.78596 0.02979 0.0
C1224 C 0.10522 0.80177 0.02856 0.0
C1225 C 0.02741 0.77346 0.02742 0.0
H1226 H 0.02003 0.69403 0.00425 0.0
C1227 C 0.8927 0.73383 0.00223 0.0
C1228 C 0.89755 0.73045 0.98961 0.0
C1229 C 0.92303 0.73651 0.00994 0.0
C1230 C 0.02157 0.71609 0.01079 0.0
H1231 H 0.18117 0.72809 0.03096 0.0
H1232 H 0.11729 0.70933 0.03021 0.0
H1233 H 0.07822 0.7069 0.01369 0.0
H1234 H 0.93808 0.72715 0.97523 0.0
H1235 H 0.99038 0.73198 0.98857 0.0
H1236 H 0.97084 0.78406 0.02362 0.0
C1237 C 0.12357 0.73824 0.02997 0.0
C1238 C 0.0549 0.72324 0.01637 0.0
C1239 C 0.1601 0.7489 0.03047 0.0
C1240 C 0.93322 0.72971 0.98488 0.0
C1241 C 0.96329 0.73214 0.99255 0.0
C1242 C 0.99392 0.7664 0.02173 0.0
C1243 C 0.09581 0.76442 0.02832 0.0
C1244 C 0.05865 0.75282 0.02444 0.0
C1245 C 0.95858 0.7354 0.00514 0.0
C1246 C 0.99121 0.73855 0.013 0.0
H1247 H 0.14867 0.84122 0.02888 0.0
H1248 H 0.08472 0.82274 0.02721 0.0
H1249 H 0.02916 0.79602 0.03375 0.0
H1250 H 0.86556 0.73456 0.00615 0.0
H1251 H 0.91872 0.73906 0.01963 0.0
C1252 C 0.75886 0.07281 0.00392 0.0
C1253 C 0.74061 0.10401 -0.00038 0.0
C1254 C 0.76784 0.04443 -0.00396 0.0
C1255 C 0.73799 -0.00105 0.96888 0.0
H1256 H 0.8319 0.9503 0.97173 0.0
C1257 C 0.81668 0.8548 0.95573 0.0
C1258 C 0.79069 0.83098 0.96078 0.0
C1259 C 0.81133 0.89264 0.95629 0.0
C1260 C 0.80584 0.96395 0.97056 0.0
H1261 H 0.71734 0.12987 0.98365 0.0
H1262 H 0.73232 0.07939 0.96989 0.0
H1263 H 0.82281 0.0098 0.98123 0.0
H1264 H 0.73743 0.82764 0.96936 0.0
H1265 H 0.72806 0.89333 0.97027 0.0
H1266 H 0.72038 0.95204 0.95881 0.0
C1267 C 0.73998 0.07738 0.97936 0.0
C1268 C 0.80055 -0.00218 0.9761 0.0
C1269 C 0.73145 0.10616 0.98723 0.0
C1270 C 0.75813 0.84542 0.96554 0.0
C1271 C 0.75257 0.88305 0.96593 0.0
C1272 C 0.74318 0.96489 0.96341 0.0
C1273 C 0.75842 0.04638 0.98371 0.0
C1274 C 0.76616 0.01486 0.97573 0.0
C1275 C 0.77963 0.90708 0.9617 0.0
C1276 C 0.77672 0.94644 0.96463 0.0
H1277 H 0.76651 0.07037 0.01338 0.0
H1278 H 0.78151 0.02052 -0.00034 0.0
H1279 H 0.71121 0.01157 0.96846 0.0
H1280 H 0.84198 0.84433 0.95198 0.0
H1281 H 0.83255 0.91063 0.95293 0.0
C1282 C 0.06131 0.27708 0.98256 0.0
C1283 C 0.09704 0.27548 0.98721 0.0
C1284 C 0.0313 0.27471 0.99028 0.0
C1285 C 0.00238 0.23911 0.01967 0.0
H1286 H 0.91594 0.29599 0.01208 0.0
C1287 C 0.85623 0.19015 0.02903 0.0
C1288 C 0.82814 0.21611 0.02959 0.0
C1289 C 0.89253 0.20153 0.02779 0.0
C1290 C 0.93991 0.28038 0.01462 0.0
H1291 H 0.12919 0.27053 0.0037 0.0
H1292 H 0.07635 0.26641 0.01723 0.0
H1293 H 0.97306 0.30996 0.00207 0.0
H1294 H 0.81535 0.27376 0.03062 0.0
H1295 H 0.87878 0.29377 0.02919 0.0
H1296 H 0.96892 0.20923 0.03216 0.0
C1297 C 0.07182 0.26934 0.00757 0.0
C1298 C 0.97261 0.28811 0.0087 0.0
C1299 C 0.10201 0.27184 -0.00018 0.0
C1300 C 0.83681 0.25336 0.03008 0.0
C1301 C 0.87306 0.26473 0.02916 0.0
C1302 C 0.96957 0.23148 0.02569 0.0
C1303 C 0.03617 0.27073 0.00285 0.0
C1304 C 0.00378 0.26666 0.0108 0.0
C1305 C 0.90115 0.23905 0.02729 0.0
C1306 C 0.93761 0.25122 0.02291 0.0
H1307 H 0.05638 0.27985 0.97291 0.0
H1308 H 0.00416 0.27517 0.98633 0.0
H1309 H 0.02603 0.22214 0.02149 0.0
H1310 H 0.8499 0.16125 0.02857 0.0
H1311 H 0.91331 0.18093 0.02629 0.0
C1312 C 0.73587 0.07866 0.73295 0.0
C1313 C 0.75496 0.10872 0.73772 0.0
C1314 C 0.72421 0.05051 0.74051 0.0
C1315 C 0.74644 0.00329 0.76826 0.0
H1316 H 0.6512 0.95917 0.76315 0.0
C1317 C 0.65924 0.86323 0.78007 0.0
C1318 C 0.68534 0.83819 0.77579 0.0
C1319 C 0.66592 0.90084 0.77928 0.0
C1320 C 0.67754 0.97159 0.76493 0.0
H1321 H 0.77706 0.13261 0.7542 0.0
H1322 H 0.75724 0.08261 0.76741 0.0
H1323 H 0.66519 0.01805 0.75386 0.0
H1324 H 0.73984 0.83238 0.76826 0.0
H1325 H 0.75152 0.89758 0.76697 0.0
H1326 H 0.75946 0.95581 0.77878 0.0
C1327 C 0.75107 0.0813 0.75781 0.0
C1328 C 0.68567 0.00506 0.75951 0.0
C1329 C 0.7624 0.10981 0.75024 0.0
C1330 C 0.71903 0.85115 0.77147 0.0
C1331 C 0.72591 0.88849 0.77087 0.0
C1332 C 0.7384 0.96965 0.77362 0.0
C1333 C 0.73164 0.05156 0.753 0.0
C1334 C 0.72068 0.02042 0.76072 0.0
C1335 C 0.69909 0.91373 0.77446 0.0
C1336 C 0.7044 0.95283 0.77157 0.0
H1337 H 0.72952 0.07699 0.72336 0.0
H1338 H 0.70989 0.02753 0.73653 0.0
H1339 H 0.77363 0.01458 0.76934 0.0
H1340 H 0.6331 0.85385 0.78348 0.0
H1341 H 0.64483 0.91982 0.78211 0.0
C1342 C 0.85262 0.30175 0.2071 0.0
C1343 C 0.8292 0.27824 0.21354 0.0
C1344 C 0.89005 0.294 0.20629 0.0
C1345 C 0.95887 0.22088 0.21263 0.0
H1346 H 0.01836 0.30104 0.22443 0.0
C1347 C 0.06837 0.20787 0.2487 0.0
C1348 C 0.1022 0.22525 0.2471 0.0
C1349 C 0.04076 0.21209 0.2401 0.0
C1350 C 0.00242 0.27858 0.22082 0.0
H1351 H 0.82621 0.22697 0.22342 0.0
H1352 H 0.89081 0.21395 0.2222 0.0
H1353 H 0.95712 0.31335 0.2167 0.0
H1354 H 0.1341 0.26014 0.23523 0.0
H1355 H 0.08478 0.26882 0.22038 0.0
H1356 H 0.00302 0.18582 0.21791 0.0
C1357 C 0.88063 0.23817 0.21767 0.0
C1358 C 0.96736 0.2856 0.21635 0.0
C1359 C 0.84353 0.24596 0.21853 0.0
C1360 C 0.10822 0.24638 0.23663 0.0
C1361 C 0.08019 0.25133 0.22816 0.0
C1362 C 0.99366 0.21385 0.21725 0.0
C1363 C 0.90451 0.26243 0.21177 0.0
C1364 C 0.9445 0.25655 0.21286 0.0
C1365 C 0.04622 0.23433 0.22989 0.0
C1366 C 0.01489 0.24247 0.22193 0.0
H1367 H 0.84231 0.32673 0.20308 0.0
H1368 H 0.9078 0.31311 0.20164 0.0
H1369 H 0.9422 0.19805 0.20971 0.0
H1370 H 0.06315 0.19126 0.25665 0.0
H1371 H 0.01455 0.19915 0.2417 0.0
C1372 C 0.26909 0.14433 0.76947 0.0
C1373 C 0.30375 0.15841 0.77231 0.0
C1374 C 0.26338 0.1068 0.76901 0.0
C1375 C 0.31194 0.02605 0.76047 0.0
H1376 H 0.21955 0.97972 0.76839 0.0
C1377 C 0.24519 0.92053 0.72988 0.0
C1378 C 0.22893 0.88939 0.73501 0.0
C1379 C 0.25858 0.94835 0.73726 0.0
C1380 C 0.2458 0.99193 0.76631 0.0
H1381 H 0.35917 0.14448 0.77755 0.0
H1382 H 0.34934 0.07819 0.7764 0.0
H1383 H 0.23564 0.03798 0.77783 0.0
H1384 H 0.21344 0.86336 0.75196 0.0
H1385 H 0.23632 0.91271 0.76487 0.0
H1386 H 0.3212 0.98104 0.74846 0.0
C1387 C 0.32663 0.09645 0.77463 0.0
C1388 C 0.25493 0.02527 0.77167 0.0
C1389 C 0.33224 0.13424 0.77528 0.0
C1390 C 0.22583 0.88701 0.74772 0.0
C1391 C 0.23894 0.91513 0.75512 0.0
C1392 C 0.30273 0.99286 0.75507 0.0
C1393 C 0.29229 0.08248 0.77126 0.0
C1394 C 0.28732 0.04338 0.76837 0.0
C1395 C 0.25578 0.94584 0.74993 0.0
C1396 C 0.26886 0.97638 0.75754 0.0
H1397 H 0.24649 0.16237 0.76731 0.0
H1398 H 0.23677 0.09687 0.76622 0.0
H1399 H 0.337 0.03948 0.75771 0.0
H1400 H 0.24814 0.92326 0.72014 0.0
H1401 H 0.27074 0.97214 0.73302 0.0
C1402 C 0.93105 0.76692 0.25367 0.0
C1403 C 0.89531 0.7625 0.24924 0.0
C1404 C 0.96077 0.76549 0.24583 0.0
C1405 C 0.01751 0.7804 0.22702 0.0
H1406 H 0.02848 0.69516 0.20645 0.0
C1407 C 0.15859 0.74449 0.21018 0.0
C1408 C 0.16797 0.70778 0.212 0.0
C1409 C 0.12197 0.75498 0.20978 0.0
C1410 C 0.0258 0.71922 0.2121 0.0
H1411 H 0.86275 0.75329 0.23305 0.0
H1412 H 0.91534 0.75045 0.21927 0.0
H1413 H 0.96952 0.70777 0.21601 0.0
H1414 H 0.14734 0.65279 0.21406 0.0
H1415 H 0.08322 0.67112 0.21422 0.0
H1416 H 0.074 0.79044 0.22416 0.0
C1417 C 0.91998 0.75512 0.22886 0.0
C1418 C 0.99191 0.72665 0.21745 0.0
C1419 C 0.88998 0.75682 0.23673 0.0
C1420 C 0.14046 0.68129 0.21265 0.0
C1421 C 0.10374 0.69188 0.21262 0.0
C1422 C 0.05131 0.77284 0.22181 0.0
C1423 C 0.95563 0.75957 0.23336 0.0
C1424 C 0.98805 0.75637 0.22542 0.0
C1425 C 0.0941 0.7291 0.21169 0.0
C1426 C 0.05636 0.74126 0.21471 0.0
H1427 H 0.93623 0.77144 0.26323 0.0
H1428 H 0.98798 0.76825 0.24962 0.0
H1429 H 0.01505 0.80392 0.23294 0.0
H1430 H 0.17964 0.76523 0.20947 0.0
H1431 H 0.11562 0.78368 0.20865 0.0
C1432 C 0.74809 0.65362 0.46932 0.0
C1433 C 0.71743 0.66838 0.4634 0.0
C1434 C 0.75644 0.61666 0.46824 0.0
C1435 C 0.71124 0.52955 0.46386 0.0
H1436 H 0.81091 0.49464 0.46722 0.0
C1437 C 0.74566 0.38603 0.48258 0.0
C1438 C 0.7651 0.39034 0.49349 0.0
C1439 C 0.74283 0.41518 0.4744 0.0
C1440 C 0.78295 0.50382 0.46605 0.0
H1441 H 0.67242 0.65613 0.45122 0.0
H1442 H 0.687 0.59104 0.44942 0.0
H1443 H 0.79972 0.55702 0.46028 0.0
H1444 H 0.79872 0.42722 0.50409 0.0
H1445 H 0.79453 0.47762 0.48973 0.0
H1446 H 0.69465 0.47683 0.47026 0.0
C1447 C 0.70441 0.60829 0.45493 0.0
C1448 C 0.77652 0.53951 0.46215 0.0
C1449 C 0.6961 0.64553 0.45596 0.0
C1450 C 0.78333 0.42335 0.49578 0.0
C1451 C 0.78124 0.45201 0.48751 0.0
C1452 C 0.71769 0.49368 0.46765 0.0
C1453 C 0.73438 0.5934 0.46121 0.0
C1454 C 0.74068 0.5534 0.46173 0.0
C1455 C 0.76033 0.4485 0.47689 0.0
C1456 C 0.75364 0.48129 0.46942 0.0
H1457 H 0.76536 0.67045 0.47502 0.0
H1458 H 0.77933 0.60605 0.47339 0.0
H1459 H 0.68331 0.53941 0.46366 0.0
H1460 H 0.73133 0.36079 0.48065 0.0
H1461 H 0.72639 0.41202 0.46629 0.0
C1462 C 0.64091 0.26099 0.51967 0.0
C1463 C 0.65498 0.29384 0.52432 0.0
C1464 C 0.6039 0.25303 0.52061 0.0
C1465 C 0.5269 0.23451 0.52686 0.0
H1466 H 0.46398 0.30969 0.51347 0.0
C1467 C 0.37499 0.24699 0.50383 0.0
C1468 C 0.38175 0.22542 0.49351 0.0
C1469 C 0.40338 0.2552 0.51189 0.0
C1470 C 0.48094 0.2887 0.51753 0.0
H1471 H 0.64133 0.34361 0.53402 0.0
H1472 H 0.57582 0.32973 0.53553 0.0
H1473 H 0.52531 0.32577 0.52045 0.0
H1474 H 0.42259 0.19409 0.48377 0.0
H1475 H 0.47186 0.20745 0.49806 0.0
H1476 H 0.48376 0.19691 0.52277 0.0
C1477 C 0.59382 0.31023 0.53117 0.0
C1478 C 0.51599 0.29787 0.52156 0.0
C1479 C 0.63122 0.31816 0.53029 0.0
C1480 C 0.41679 0.2109 0.49163 0.0
C1481 C 0.4448 0.2183 0.49983 0.0
C1482 C 0.49215 0.22531 0.52268 0.0
C1483 C 0.57981 0.27766 0.52623 0.0
C1484 C 0.54001 0.27045 0.52561 0.0
C1485 C 0.43846 0.24096 0.50989 0.0
C1486 C 0.4697 0.25205 0.51745 0.0
H1487 H 0.65842 0.2414 0.51512 0.0
H1488 H 0.59399 0.22808 0.51647 0.0
H1489 H 0.54456 0.21297 0.53021 0.0
H1490 H 0.34817 0.25865 0.50541 0.0
H1491 H 0.39813 0.27298 0.51955 0.0
C1492 C 0.24791 0.60091 0.48203 0.0
C1493 C 0.22752 0.5966 0.49274 0.0
C1494 C 0.25012 0.57224 0.47364 0.0
C1495 C 0.20838 0.48401 0.46491 0.0
H1496 H 0.30793 0.44815 0.46273 0.0
C1497 C 0.24356 0.33404 0.46872 0.0
C1498 C 0.27418 0.31931 0.46277 0.0
C1499 C 0.23503 0.37098 0.46757 0.0
C1500 C 0.28002 0.45806 0.46288 0.0
H1501 H 0.19139 0.56052 0.5027 0.0
H1502 H 0.19472 0.511 0.48804 0.0
H1503 H 0.29676 0.5109 0.46908 0.0
H1504 H 0.31891 0.33164 0.45047 0.0
H1505 H 0.30399 0.39649 0.44856 0.0
H1506 H 0.19151 0.43055 0.45942 0.0
C1507 C 0.20917 0.53617 0.4861 0.0
C1508 C 0.27365 0.49407 0.46652 0.0
C1509 C 0.20761 0.56433 0.49457 0.0
C1510 C 0.29528 0.34217 0.45526 0.0
C1511 C 0.28678 0.37929 0.45415 0.0
C1512 C 0.21473 0.44811 0.46121 0.0
C1513 C 0.23116 0.53944 0.47572 0.0
C1514 C 0.23774 0.50661 0.46823 0.0
C1515 C 0.25687 0.39417 0.46045 0.0
C1516 C 0.25054 0.43417 0.46086 0.0
H1517 H 0.26346 0.62564 0.48044 0.0
H1518 H 0.26738 0.57525 0.46571 0.0
H1519 H 0.18043 0.49329 0.46602 0.0
H1520 H 0.22649 0.31724 0.47449 0.0
H1521 H 0.21218 0.38164 0.47273 0.0
C1522 C 0.57116 0.77156 0.48942 0.0
C1523 C 0.60691 0.76377 0.49327 0.0
C1524 C 0.54165 0.76558 0.49712 0.0
C1525 C 0.51147 0.70764 0.52161 0.0
H1526 H 0.42908 0.77428 0.52095 0.0
C1527 C 0.36259 0.66102 0.52338 0.0
C1528 C 0.33574 0.68581 0.52713 0.0
C1529 C 0.39945 0.67096 0.52383 0.0
C1530 C 0.45194 0.75556 0.52158 0.0
H1531 H 0.63989 0.74423 0.50831 0.0
H1532 H 0.5877 0.73319 0.52179 0.0
H1533 H 0.48762 0.794 0.51307 0.0
H1534 H 0.32541 0.73862 0.53526 0.0
H1535 H 0.38986 0.7555 0.53659 0.0
H1536 H 0.47535 0.66874 0.5298 0.0
C1537 C 0.58285 0.7441 0.5128 0.0
C1538 C 0.48543 0.76683 0.51691 0.0
C1539 C 0.6126 0.75051 0.50511 0.0
C1540 C 0.34599 0.71931 0.53225 0.0
C1541 C 0.38278 0.72896 0.53294 0.0
C1542 C 0.47786 0.69633 0.52635 0.0
C1543 C 0.54711 0.75147 0.50882 0.0
C1544 C 0.51498 0.74244 0.51637 0.0
C1545 C 0.40983 0.70568 0.52817 0.0
C1546 C 0.4473 0.71967 0.52589 0.0
H1547 H 0.56587 0.78201 0.48039 0.0
H1548 H 0.51434 0.77095 0.49374 0.0
H1549 H 0.5339 0.68831 0.52131 0.0
H1550 H 0.35494 0.6351 0.51936 0.0
H1551 H 0.41943 0.65247 0.51996 0.0
C1552 C 0.06833 0.11156 0.29038 0.0
C1553 C 0.10588 0.10313 0.29025 0.0
C1554 C 0.04216 0.08387 0.29119 0.0
C1555 C 0.02947 0.98551 0.28541 0.0
H1556 H 0.94163 -0.00146 0.30465 0.0
C1557 C 0.9233 0.87032 0.29128 0.0
C1558 C 0.88622 0.88021 0.29031 0.0
C1559 C 0.95048 0.89704 0.29203 0.0
C1560 C 0.96587 0.99463 0.29915 0.0
H1561 H 0.14521 0.05872 0.29109 0.0
H1562 H 0.09949 0.01048 0.29263 0.0
H1563 H 0.98863 0.04585 0.30472 0.0
H1564 H 0.84878 0.92624 0.28954 0.0
H1565 H 0.89626 0.97278 0.29078 0.0
H1566 H 0.00662 0.93444 0.27976 0.0
C1567 C 0.09035 0.03857 0.29194 0.0
C1568 C 0.99281 0.02172 0.29919 0.0
C1569 C 0.11657 0.06628 0.29113 0.0
C1570 C 0.87701 0.91755 0.2903 0.0
C1571 C 0.90423 0.94428 0.29107 0.0
C1572 C 0.00256 0.95841 0.28537 0.0
C1573 C 0.05283 0.04703 0.2919 0.0
C1574 C 0.02484 0.01758 0.29226 0.0
C1575 C 0.9413 0.93434 0.29185 0.0
C1576 C 0.97035 0.96274 0.29219 0.0
H1577 H 0.05899 0.13958 0.28968 0.0
H1578 H 0.01351 0.09133 0.29097 0.0
H1579 H 0.05352 0.9817 0.27981 0.0
H1580 H 0.9315 0.84186 0.29135 0.0
H1581 H 0.97874 0.88845 0.29279 0.0
C1582 C 0.87438 0.07605 0.6955 0.0
C1583 C 0.88597 0.11251 0.69676 0.0
C1584 C 0.89985 0.04789 0.69403 0.0
C1585 C -0.00354 0.02917 0.68579 0.0
H1586 H 0.98093 0.9403 0.70423 0.0
C1587 C 0.10887 0.91968 0.69335 0.0
C1588 C 0.09809 0.88277 0.69335 0.0
C1589 C 0.08278 0.94757 0.69254 0.0
C1590 C 0.98545 0.9647 0.69887 0.0
H1591 H 0.93368 0.14782 0.69726 0.0
H1592 H 0.97795 0.0987 0.69485 0.0
H1593 H 0.93572 0.98902 0.70511 0.0
H1594 H 0.05133 0.8464 0.69195 0.0
H1595 H 0.00614 0.89493 0.69042 0.0
H1596 H 0.04655 0.00489 0.6797 0.0
C1597 C 0.94912 0.09194 0.69484 0.0
C1598 C 0.95949 0.99266 0.69938 0.0
C1599 C 0.92367 0.12012 0.6963 0.0
C1600 C 0.06071 0.87447 0.69208 0.0
C1601 C 0.0347 0.90232 0.69127 0.0
C1602 C 0.0225 0.00117 0.6853 0.0
C1603 C 0.93754 0.05545 0.6938 0.0
C1604 C 0.96472 0.0253 0.69289 0.0
C1605 C 0.04534 0.93919 0.69171 0.0
C1606 C 0.01733 0.96865 0.69187 0.0
H1607 H 0.84559 0.06913 0.69574 0.0
H1608 H 0.88997 0.02014 0.69307 0.0
H1609 H 0.0011 0.05378 0.68055 0.0
H1610 H 0.13738 0.92714 0.69432 0.0
H1611 H 0.09187 0.97571 0.69299 0.0
C1612 C 0.12547 0.42906 0.94492 0.0
C1613 C 0.11512 0.39203 0.94492 0.0
C1614 C 0.09903 0.45663 0.94419 0.0
C1615 C 0.00173 0.47385 0.93624 0.0
H1616 H 0.01218 0.55632 0.95805 0.0
C1617 C 0.88272 0.57245 0.94746 0.0
C1618 C 0.89092 0.60991 0.94839 0.0
C1619 C 0.91068 0.54667 0.94609 0.0
C1620 C 0.00907 0.53372 0.95179 0.0
H1621 H 0.06868 0.35515 0.94383 0.0
H1622 H 0.02288 0.40305 0.9427 0.0
H1623 H 0.06025 0.5103 0.95708 0.0
H1624 H 0.93517 0.64952 0.94839 0.0
H1625 H 0.98367 0.60462 0.94594 0.0
H1626 H 0.95019 0.49705 0.93112 0.0
C1627 C 0.05142 0.41084 0.94312 0.0
C1628 C 0.03667 0.50736 0.95121 0.0
C1629 C 0.07778 0.38332 0.94384 0.0
C1630 C 0.92774 0.62094 0.94775 0.0
C1631 C 0.95564 0.59517 0.94641 0.0
C1632 C 0.97407 0.50018 0.93684 0.0
C1633 C 0.06165 0.44784 0.94343 0.0
C1634 C 0.03323 0.47695 0.94349 0.0
C1635 C 0.94748 0.55774 0.94564 0.0
C1636 C 0.97732 0.53029 0.94468 0.0
H1637 H 0.15394 0.43683 0.94571 0.0
H1638 H 0.10786 0.48488 0.94428 0.0
H1639 H -0.00155 0.45105 0.93006 0.0
H1640 H 0.85472 0.56292 0.94793 0.0
H1641 H 0.90352 0.51798 0.94565 0.0
C1642 C 0.37916 0.9252 0.0436 0.0
C1643 C 0.38919 0.88821 0.04254 0.0
C1644 C 0.40583 0.95244 0.04423 0.0
C1645 C 0.50396 0.96859 0.05042 0.0
H1646 H 0.48882 0.05487 0.03062 0.0
C1647 C 0.61872 0.0729 0.04026 0.0
C1648 C 0.60921 0.11016 0.04011 0.0
C1649 C 0.59176 0.04603 0.04135 0.0
C1650 C 0.49327 0.0312 0.03633 0.0
H1651 H 0.43537 0.85094 0.04162 0.0
H1652 H 0.48177 0.89852 0.04264 0.0
H1653 H 0.44194 0.00772 0.03129 0.0
H1654 H 0.56375 0.14827 0.04122 0.0
H1655 H 0.51697 0.10144 0.04324 0.0
H1656 H 0.55549 0.99204 0.05537 0.0
C1657 C 0.45325 0.90638 0.04309 0.0
C1658 C 0.46638 0.00417 0.03672 0.0
C1659 C 0.42658 0.8791 0.04245 0.0
C1660 C 0.57214 0.11987 0.04125 0.0
C1661 C 0.54523 0.09301 0.04234 0.0
C1662 C 0.53089 0.99567 0.05004 0.0
C1663 C 0.44317 0.94338 0.04383 0.0
C1664 C 0.47144 0.97251 0.04374 0.0
C1665 C 0.55469 0.05578 0.04231 0.0
C1666 C 0.52587 0.02725 0.04296 0.0
H1667 H 0.35067 0.93327 0.04375 0.0
H1668 H 0.39718 0.98067 0.04499 0.0
H1669 H 0.50848 0.94471 0.05604 0.0
H1670 H 0.64696 0.06437 0.03938 0.0
H1671 H 0.59992 0.01757 0.04116 0.0
C1672 C 0.55803 0.6224 0.79114 0.0
C1673 C 0.59579 0.615 0.79145 0.0
C1674 C 0.53259 0.59406 0.79201 0.0
C1675 C 0.52388 0.49542 0.78657 0.0
H1676 H 0.43384 0.50512 0.80489 0.0
C1677 C 0.42375 0.37554 0.79141 0.0
C1678 C 0.38632 0.38328 0.78995 0.0
C1679 C 0.44914 0.40373 0.79263 0.0
C1680 C 0.45872 0.50215 0.79965 0.0
H1681 H 0.63625 0.57187 0.79326 0.0
H1682 H 0.59182 0.52256 0.79486 0.0
H1683 H 0.4788 0.55449 0.80527 0.0
H1684 H 0.34625 0.42696 0.78891 0.0
H1685 H 0.39076 0.47625 0.79088 0.0
H1686 H 0.50378 0.44341 0.78081 0.0
C1687 C 0.58196 0.55029 0.79378 0.0
C1688 C 0.48447 0.53039 0.79988 0.0
C1689 C 0.60743 0.57862 0.79293 0.0
C1690 C 0.37483 0.41998 0.79003 0.0
C1691 C 0.40033 0.44825 0.79122 0.0
C1692 C 0.49817 0.46727 0.78633 0.0
C1693 C 0.54427 0.55765 0.79319 0.0
C1694 C 0.51731 0.52734 0.79331 0.0
C1695 C 0.43783 0.44042 0.79237 0.0
C1696 C 0.46527 0.47029 0.79285 0.0
H1697 H 0.54801 0.65005 0.79001 0.0
H1698 H 0.50375 0.60059 0.7914 0.0
H1699 H 0.54857 0.49251 0.78123 0.0
H1700 H 0.43363 0.34762 0.7915 0.0
H1701 H 0.47774 0.39676 0.79372 0.0
C1702 C 0.42589 0.61202 0.20362 0.0
C1703 C 0.38843 0.60332 0.20357 0.0
C1704 C 0.45224 0.58448 0.20291 0.0
C1705 C 0.46502 0.48647 0.20885 0.0
H1706 H 0.55266 0.49864 0.18946 0.0
C1707 C 0.57034 0.37075 0.20292 0.0
C1708 C 0.60741 0.38054 0.20393 0.0
C1709 C 0.54329 0.39759 0.20216 0.0
C1710 C 0.52846 0.495 0.19499 0.0
H1711 H 0.34939 0.55871 0.20251 0.0
H1712 H 0.39541 0.51078 0.20117 0.0
H1713 H 0.50584 0.54622 0.18935 0.0
H1714 H 0.64503 0.42638 0.20479 0.0
H1715 H 0.59777 0.47311 0.20357 0.0
H1716 H 0.48771 0.43543 0.21458 0.0
C1717 C 0.40434 0.53892 0.20191 0.0
C1718 C 0.50167 0.52222 0.19493 0.0
C1719 C 0.37797 0.56644 0.20262 0.0
C1720 C 0.61679 0.41782 0.204 0.0
C1721 C 0.58972 0.44464 0.20323 0.0
C1722 C 0.49178 0.45927 0.20892 0.0
C1723 C 0.44174 0.54762 0.20214 0.0
C1724 C 0.46974 0.5183 0.2019 0.0
C1725 C 0.55267 0.43481 0.20239 0.0
C1726 C 0.52386 0.46331 0.20203 0.0
H1727 H 0.43498 0.6401 0.20438 0.0
H1728 H 0.48086 0.59202 0.20326 0.0
H1729 H 0.441 0.48292 0.21448 0.0
H1730 H 0.56208 0.34233 0.2028 0.0
H1731 H 0.515 0.38918 0.20136 0.0
C1732 C 0.62111 0.9258 0.45155 0.0
C1733 C 0.61234 0.8884 0.45214 0.0
C1734 C 0.59357 0.95211 0.45053 0.0
C1735 C 0.49624 0.96478 0.44219 0.0
H1736 H 0.50426 0.05151 0.46224 0.0
C1737 C 0.37582 0.06477 0.45013 0.0
C1738 C 0.38385 0.10235 0.45062 0.0
C1739 C 0.40394 0.03893 0.44942 0.0
C1740 C 0.50181 0.02771 0.45645 0.0
H1741 H 0.56753 0.84948 0.45191 0.0
H1742 H 0.5196 0.89542 0.45025 0.0
H1743 H 0.55289 0.00608 0.4626 0.0
H1744 H 0.42793 0.14211 0.45041 0.0
H1745 H 0.47674 0.09711 0.44905 0.0
H1746 H 0.44492 0.98636 0.43614 0.0
C1747 C 0.54783 0.90434 0.45044 0.0
C1748 C 0.52972 0.00165 0.45666 0.0
C1749 C 0.57536 0.87799 0.45146 0.0
C1750 C 0.42065 0.11343 0.45012 0.0
C1751 C 0.44871 0.08761 0.44941 0.0
C1752 C 0.46829 0.99088 0.44199 0.0
C1753 C 0.55659 0.94172 0.45007 0.0
C1754 C 0.52724 0.96982 0.44956 0.0
C1755 C 0.44073 0.05005 0.4492 0.0
C1756 C 0.47072 0.02261 0.44914 0.0
H1757 H 0.64926 0.93488 0.45199 0.0
H1758 H 0.60128 0.98066 0.45008 0.0
H1759 H 0.49372 0.94078 0.4365 0.0
H1760 H 0.34783 0.05519 0.45052 0.0
H1761 H 0.39686 0.01019 0.4494 0.0
C1762 C 0.87139 0.42303 0.53705 0.0
C1763 C 0.87994 0.3856 0.53629 0.0
C1764 C 0.89907 0.44917 0.53764 0.0
C1765 C -0.00298 0.46146 0.54455 0.0
H1766 H 0.98656 0.54837 0.52469 0.0
C1767 C 0.11629 0.56025 0.53511 0.0
C1768 C 0.10874 0.59796 0.53522 0.0
C1769 C 0.08802 0.53481 0.53593 0.0
C1770 C 0.98966 0.52449 0.53041 0.0
H1771 H 0.92449 0.34638 0.53573 0.0
H1772 H 0.97282 0.39215 0.53662 0.0
H1773 H 0.93802 0.50281 0.52487 0.0
H1774 H 0.06539 0.6384 0.5364 0.0
H1775 H 0.01605 0.59385 0.53789 0.0
H1776 H 0.04888 0.48306 0.54998 0.0
C1777 C 0.94461 0.40115 0.5369 0.0
C1778 C 0.96187 0.49839 0.53052 0.0
C1779 C 0.91689 0.37494 0.53633 0.0
C1780 C 0.07222 0.60959 0.53627 0.0
C1781 C 0.04391 0.58409 0.53706 0.0
C1782 C 0.02485 0.48758 0.54443 0.0
C1783 C 0.93597 0.43856 0.53746 0.0
C1784 C 0.96529 0.46653 0.53756 0.0
C1785 C 0.05153 0.54644 0.53685 0.0
C1786 C 0.02151 0.51929 0.53732 0.0
H1787 H 0.84326 0.4323 0.53712 0.0
H1788 H 0.89154 0.47775 0.53825 0.0
H1789 H 0.0002 0.43745 0.5502 0.0
H1790 H 0.14407 0.55026 0.5343 0.0
H1791 H 0.0947 0.50598 0.53559 0.0
loop_
_geom_bond_atom_site_label_1
_geom_bond_atom_site_label_2
_geom_bond_distance
_geom_bond_site_symmetry_2
_ccdc_geom_bond_type
Sc0 O3 2.025 . S
Sc0 O10 2.105 . S
Sc0 O13 2.105 . S
Sc0 O16 2.105 . S
Sc0 O19 2.105 . S
Sc1 O3 2.025 . S
Sc1 O11 2.105 . S
Sc1 O15 2.105 . S
Sc1 O17 2.105 . S
Sc1 O21 2.105 . S
Sc2 O3 2.025 . S
Sc2 O12 2.105 . S
Sc2 O14 2.105 . S
Sc2 O18 2.105 . S
Sc2 O20 2.105 . S
O3 Sc0 2.025 . S
O3 Sc1 2.025 . S
O3 Sc2 2.025 . S
C4 O10 1.268 . S
C4 O20 1.268 . S
C5 O11 1.268 . S
C5 O19 1.268 . S
C6 O12 1.268 . S
C6 O21 1.268 . S
C7 O13 1.268 . S
C7 O17 1.268 . S
C8 O14 1.268 . S
C8 O16 1.268 . S
C9 O15 1.268 . S
C9 O18 1.268 . S
O10 Sc0 2.105 . S
O10 C4 1.268 . S
O11 Sc1 2.105 . S
O11 C5 1.268 . S
O12 Sc2 2.105 . S
O12 C6 1.268 . S
O13 Sc0 2.105 . S
O13 C7 1.268 . S
O14 Sc2 2.105 . S
O14 C8 1.268 . S
O15 Sc1 2.105 . S
O15 C9 1.268 . S
O16 Sc0 2.105 . S
O16 C8 1.268 . S
O17 Sc1 2.105 . S
O17 C7 1.268 . S
O18 Sc2 2.105 . S
O18 C9 1.268 . S
O19 Sc0 2.105 . S
O19 C5 1.268 . S
O20 Sc2 2.105 . S
O20 C4 1.268 . S
O21 Sc1 2.105 . S
O21 C6 1.268 . S
Sc22 O25 2.025 . S
Sc22 O32 2.105 . S
Sc22 O35 2.105 . S
Sc22 O38 2.105 . S
Sc22 O41 2.105 . S
Sc23 O25 2.025 . S
Sc23 O33 2.105 . S
Sc23 O37 2.105 . S
Sc23 O39 2.105 . S
Sc23 O43 2.105 . S
Sc24 O25 2.025 . S
Sc24 O34 2.105 . S
Sc24 O36 2.105 . S
Sc24 O40 2.105 . S
Sc24 O42 2.105 . S
O25 Sc22 2.025 . S
O25 Sc23 2.025 . S
O25 Sc24 2.025 . S
C26 O32 1.268 . S
C26 O42 1.268 . S
C27 O33 1.268 . S
C27 O41 1.268 . S
C28 O34 1.268 . S
C28 O43 1.268 . S
C29 O35 1.268 . S
C29 O39 1.268 . S
C30 O36 1.268 . S
C30 O38 1.268 . S
C31 O37 1.268 . S
C31 O40 1.268 . S
O32 Sc22 2.105 . S
O32 C26 1.268 . S
O33 Sc23 2.105 . S
O33 C27 1.268 . S
O34 Sc24 2.105 . S
O34 C28 1.268 . S
O35 Sc22 2.105 . S
O35 C29 1.268 . S
O36 Sc24 2.105 . S
O36 C30 1.268 . S
O37 Sc23 2.105 . S
O37 C31 1.268 . S
O38 Sc22 2.105 . S
O38 C30 1.268 . S
O39 Sc23 2.105 . S
O39 C29 1.268 . S
O40 Sc24 2.105 . S
O40 C31 1.268 . S
O41 Sc22 2.105 . S
O41 C27 1.268 . S
O42 Sc24 2.105 . S
O42 C26 1.268 . S
O43 Sc23 2.105 . S
O43 C28 1.268 . S
Sc44 O47 2.025 . S
Sc44 O54 2.105 . S
Sc44 O57 2.105 . S
Sc44 O60 2.105 . S
Sc44 O63 2.105 . S
Sc45 O47 2.025 . S
Sc45 O55 2.105 . S
Sc45 O59 2.105 . S
Sc45 O61 2.105 . S
Sc45 O65 2.105 . S
Sc46 O47 2.025 . S
Sc46 O56 2.105 . S
Sc46 O58 2.105 . S
Sc46 O62 2.105 . S
Sc46 O64 2.105 . S
O47 Sc44 2.025 . S
O47 Sc45 2.025 . S
O47 Sc46 2.025 . S
C48 O54 1.268 . S
C48 O64 1.268 . S
C49 O55 1.268 . S
C49 O63 1.268 . S
C50 O56 1.268 . S
C50 O65 1.268 . S
C51 O57 1.268 . S
C51 O61 1.268 . S
C52 O58 1.268 . S
C52 O60 1.268 . S
C53 O59 1.268 . S
C53 O62 1.268 . S
O54 Sc44 2.105 . S
O54 C48 1.268 . S
O55 Sc45 2.105 . S
O55 C49 1.268 . S
O56 Sc46 2.105 . S
O56 C50 1.268 . S
O57 Sc44 2.105 . S
O57 C51 1.268 . S
O58 Sc46 2.105 . S
O58 C52 1.268 . S
O59 Sc45 2.105 . S
O59 C53 1.268 . S
O60 Sc44 2.105 . S
O60 C52 1.268 . S
O61 Sc45 2.105 . S
O61 C51 1.268 . S
O62 Sc46 2.105 . S
O62 C53 1.268 . S
O63 Sc44 2.105 . S
O63 C49 1.268 . S
O64 Sc46 2.105 . S
O64 C48 1.268 . S
O65 Sc45 2.105 . S
O65 C50 1.268 . S
Sc66 O69 2.025 . S
Sc66 O76 2.105 . S
Sc66 O79 2.105 . S
Sc66 O82 2.105 . S
Sc66 O85 2.105 . S
Sc67 O69 2.025 . S
Sc67 O77 2.105 . S
Sc67 O81 2.105 . S
Sc67 O83 2.105 . S
Sc67 O87 2.105 . S
Sc68 O69 2.025 . S
Sc68 O78 2.105 . S
Sc68 O80 2.105 . S
Sc68 O84 2.105 . S
Sc68 O86 2.105 . S
O69 Sc66 2.025 . S
O69 Sc67 2.025 . S
O69 Sc68 2.025 . S
C70 O76 1.268 . S
C70 O86 1.268 . S
C71 O77 1.268 . S
C71 O85 1.268 . S
C72 O78 1.268 . S
C72 O87 1.268 . S
C73 O79 1.268 . S
C73 O83 1.268 . S
C74 O80 1.268 . S
C74 O82 1.268 . S
C75 O81 1.268 . S
C75 O84 1.268 . S
O76 Sc66 2.105 . S
O76 C70 1.268 . S
O77 Sc67 2.105 . S
O77 C71 1.268 . S
O78 Sc68 2.105 . S
O78 C72 1.268 . S
O79 Sc66 2.105 . S
O79 C73 1.268 . S
O80 Sc68 2.105 . S
O80 C74 1.268 . S
O81 Sc67 2.105 . S
O81 C75 1.268 . S
O82 Sc66 2.105 . S
O82 C74 1.268 . S
O83 Sc67 2.105 . S
O83 C73 1.268 . S
O84 Sc68 2.105 . S
O84 C75 1.268 . S
O85 Sc66 2.105 . S
O85 C71 1.268 . S
O86 Sc68 2.105 . S
O86 C70 1.268 . S
O87 Sc67 2.105 . S
O87 C72 1.268 . S
Sc88 O91 2.025 . S
Sc88 O98 2.105 . S
Sc88 O101 2.105 . S
Sc88 O104 2.105 . S
Sc88 O107 2.105 . S
Sc89 O91 2.025 . S
Sc89 O99 2.105 . S
Sc89 O103 2.105 . S
Sc89 O105 2.105 . S
Sc89 O109 2.105 . S
Sc90 O91 2.025 . S
Sc90 O100 2.105 . S
Sc90 O102 2.105 . S
Sc90 O106 2.105 . S
Sc90 O108 2.105 . S
O91 Sc88 2.025 . S
O91 Sc89 2.025 . S
O91 Sc90 2.025 . S
C92 O98 1.268 . S
C92 O108 1.268 . S
C93 O99 1.268 . S
C93 O107 1.268 . S
C94 O100 1.268 . S
C94 O109 1.268 . S
C95 O101 1.268 . S
C95 O105 1.268 . S
C96 O102 1.268 . S
C96 O104 1.268 . S
C97 O103 1.268 . S
C97 O106 1.268 . S
O98 Sc88 2.105 . S
O98 C92 1.268 . S
O99 Sc89 2.105 . S
O99 C93 1.268 . S
O100 Sc90 2.105 . S
O100 C94 1.268 . S
O101 Sc88 2.105 . S
O101 C95 1.268 . S
O102 Sc90 2.105 . S
O102 C96 1.268 . S
O103 Sc89 2.105 . S
O103 C97 1.268 . S
O104 Sc88 2.105 . S
O104 C96 1.268 . S
O105 Sc89 2.105 . S
O105 C95 1.268 . S
O106 Sc90 2.105 . S
O106 C97 1.268 . S
O107 Sc88 2.105 . S
O107 C93 1.268 . S
O108 Sc90 2.105 . S
O108 C92 1.268 . S
O109 Sc89 2.105 . S
O109 C94 1.268 . S
Sc110 O113 2.025 . S
Sc110 O120 2.105 . S
Sc110 O123 2.105 . S
Sc110 O126 2.105 . S
Sc110 O129 2.105 . S
Sc111 O113 2.025 . S
Sc111 O121 2.105 . S
Sc111 O125 2.105 . S
Sc111 O127 2.105 . S
Sc111 O131 2.105 . S
Sc112 O113 2.025 . S
Sc112 O122 2.105 . S
Sc112 O124 2.105 . S
Sc112 O128 2.105 . S
Sc112 O130 2.105 . S
O113 Sc110 2.025 . S
O113 Sc111 2.025 . S
O113 Sc112 2.025 . S
C114 O120 1.268 . S
C114 O130 1.268 . S
C115 O121 1.268 . S
C115 O129 1.268 . S
C116 O122 1.268 . S
C116 O131 1.268 . S
C117 O123 1.268 . S
C117 O127 1.268 . S
C118 O124 1.268 . S
C118 O126 1.268 . S
C119 O125 1.268 . S
C119 O128 1.268 . S
O120 Sc110 2.105 . S
O120 C114 1.268 . S
O121 Sc111 2.105 . S
O121 C115 1.268 . S
O122 Sc112 2.105 . S
O122 C116 1.268 . S
O123 Sc110 2.105 . S
O123 C117 1.268 . S
O124 Sc112 2.105 . S
O124 C118 1.268 . S
O125 Sc111 2.105 . S
O125 C119 1.268 . S
O126 Sc110 2.105 . S
O126 C118 1.268 . S
O127 Sc111 2.105 . S
O127 C117 1.268 . S
O128 Sc112 2.105 . S
O128 C119 1.268 . S
O129 Sc110 2.105 . S
O129 C115 1.268 . S
O130 Sc112 2.105 . S
O130 C114 1.268 . S
O131 Sc111 2.105 . S
O131 C116 1.268 . S
Sc132 O135 2.025 . S
Sc132 O142 2.105 . S
Sc132 O145 2.105 . S
Sc132 O148 2.105 . S
Sc132 O151 2.105 . S
Sc133 O135 2.025 . S
Sc133 O143 2.105 . S
Sc133 O147 2.105 . S
Sc133 O149 2.105 . S
Sc133 O153 2.105 . S
Sc134 O135 2.025 . S
Sc134 O144 2.105 . S
Sc134 O146 2.105 . S
Sc134 O150 2.105 . S
Sc134 O152 2.105 . S
O135 Sc132 2.025 . S
O135 Sc133 2.025 . S
O135 Sc134 2.025 . S
C136 O142 1.268 . S
C136 O152 1.268 . S
C137 O143 1.268 . S
C137 O151 1.268 . S
C138 O144 1.268 . S
C138 O153 1.268 . S
C139 O145 1.268 . S
C139 O149 1.268 . S
C140 O146 1.268 . S
C140 O148 1.268 . S
C141 O147 1.268 . S
C141 O150 1.268 . S
O142 Sc132 2.105 . S
O142 C136 1.268 . S
O143 Sc133 2.105 . S
O143 C137 1.268 . S
O144 Sc134 2.105 . S
O144 C138 1.268 . S
O145 Sc132 2.105 . S
O145 C139 1.268 . S
O146 Sc134 2.105 . S
O146 C140 1.268 . S
O147 Sc133 2.105 . S
O147 C141 1.268 . S
O148 Sc132 2.105 . S
O148 C140 1.268 . S
O149 Sc133 2.105 . S
O149 C139 1.268 . S
O150 Sc134 2.105 . S
O150 C141 1.268 . S
O151 Sc132 2.105 . S
O151 C137 1.268 . S
O152 Sc134 2.105 . S
O152 C136 1.268 . S
O153 Sc133 2.105 . S
O153 C138 1.268 . S
Sc154 O157 2.025 . S
Sc154 O164 2.105 . S
Sc154 O167 2.105 . S
Sc154 O170 2.105 . S
Sc154 O173 2.105 . S
Sc155 O157 2.025 . S
Sc155 O165 2.105 . S
Sc155 O169 2.105 . S
Sc155 O171 2.105 . S
Sc155 O175 2.105 . S
Sc156 O157 2.025 . S
Sc156 O166 2.105 . S
Sc156 O168 2.105 . S
Sc156 O172 2.105 . S
Sc156 O174 2.105 . S
O157 Sc154 2.025 . S
O157 Sc155 2.025 . S
O157 Sc156 2.025 . S
C158 O164 1.268 . S
C158 O174 1.268 . S
C159 O165 1.268 . S
C159 O173 1.268 . S
C160 O166 1.268 . S
C160 O175 1.268 . S
C161 O167 1.268 . S
C161 O171 1.268 . S
C162 O168 1.268 . S
C162 O170 1.268 . S
C163 O169 1.268 . S
C163 O172 1.268 . S
O164 Sc154 2.105 . S
O164 C158 1.268 . S
O165 Sc155 2.105 . S
O165 C159 1.268 . S
O166 Sc156 2.105 . S
O166 C160 1.268 . S
O167 Sc154 2.105 . S
O167 C161 1.268 . S
O168 Sc156 2.105 . S
O168 C162 1.268 . S
O169 Sc155 2.105 . S
O169 C163 1.268 . S
O170 Sc154 2.105 . S
O170 C162 1.268 . S
O171 Sc155 2.105 . S
O171 C161 1.268 . S
O172 Sc156 2.105 . S
O172 C163 1.268 . S
O173 Sc154 2.105 . S
O173 C159 1.268 . S
O174 Sc156 2.105 . S
O174 C158 1.268 . S
O175 Sc155 2.105 . S
O175 C160 1.268 . S
Sc176 O179 2.025 . S
Sc176 O186 2.105 . S
Sc176 O189 2.105 . S
Sc176 O192 2.105 . S
Sc176 O195 2.105 . S
Sc177 O179 2.025 . S
Sc177 O187 2.105 . S
Sc177 O191 2.105 . S
Sc177 O193 2.105 . S
Sc177 O197 2.105 . S
Sc178 O179 2.025 . S
Sc178 O188 2.105 . S
Sc178 O190 2.105 . S
Sc178 O194 2.105 . S
Sc178 O196 2.105 . S
O179 Sc176 2.025 . S
O179 Sc177 2.025 . S
O179 Sc178 2.025 . S
C180 O186 1.268 . S
C180 O196 1.268 . S
C181 O187 1.268 . S
C181 O195 1.268 . S
C182 O188 1.268 . S
C182 O197 1.268 . S
C183 O189 1.268 . S
C183 O193 1.268 . S
C184 O190 1.268 . S
C184 O192 1.268 . S
C185 O191 1.268 . S
C185 O194 1.268 . S
O186 Sc176 2.105 . S
O186 C180 1.268 . S
O187 Sc177 2.105 . S
O187 C181 1.268 . S
O188 Sc178 2.105 . S
O188 C182 1.268 . S
O189 Sc176 2.105 . S
O189 C183 1.268 . S
O190 Sc178 2.105 . S
O190 C184 1.268 . S
O191 Sc177 2.105 . S
O191 C185 1.268 . S
O192 Sc176 2.105 . S
O192 C184 1.268 . S
O193 Sc177 2.105 . S
O193 C183 1.268 . S
O194 Sc178 2.105 . S
O194 C185 1.268 . S
O195 Sc176 2.105 . S
O195 C181 1.268 . S
O196 Sc178 2.105 . S
O196 C180 1.268 . S
O197 Sc177 2.105 . S
O197 C182 1.268 . S
Sc198 O201 2.025 . S
Sc198 O208 2.105 . S
Sc198 O211 2.105 . S
Sc198 O214 2.105 . S
Sc198 O217 2.105 . S
Sc199 O201 2.025 . S
Sc199 O209 2.105 . S
Sc199 O213 2.105 . S
Sc199 O215 2.105 . S
Sc199 O219 2.105 . S
Sc200 O201 2.025 . S
Sc200 O210 2.105 . S
Sc200 O212 2.105 . S
Sc200 O216 2.105 . S
Sc200 O218 2.105 . S
O201 Sc198 2.025 . S
O201 Sc199 2.025 . S
O201 Sc200 2.025 . S
C202 O208 1.268 . S
C202 O218 1.268 . S
C203 O209 1.268 . S
C203 O217 1.268 . S
C204 O210 1.268 . S
C204 O219 1.268 . S
C205 O211 1.268 . S
C205 O215 1.268 . S
C206 O212 1.268 . S
C206 O214 1.268 . S
C207 O213 1.268 . S
C207 O216 1.268 . S
O208 Sc198 2.105 . S
O208 C202 1.268 . S
O209 Sc199 2.105 . S
O209 C203 1.268 . S
O210 Sc200 2.105 . S
O210 C204 1.268 . S
O211 Sc198 2.105 . S
O211 C205 1.268 . S
O212 Sc200 2.105 . S
O212 C206 1.268 . S
O213 Sc199 2.105 . S
O213 C207 1.268 . S
O214 Sc198 2.105 . S
O214 C206 1.268 . S
O215 Sc199 2.105 . S
O215 C205 1.268 . S
O216 Sc200 2.105 . S
O216 C207 1.268 . S
O217 Sc198 2.105 . S
O217 C203 1.268 . S
O218 Sc200 2.105 . S
O218 C202 1.268 . S
O219 Sc199 2.105 . S
O219 C204 1.268 . S
Sc220 O223 2.025 . S
Sc220 O230 2.105 . S
Sc220 O233 2.105 . S
Sc220 O236 2.105 . S
Sc220 O239 2.105 . S
Sc221 O223 2.025 . S
Sc221 O231 2.105 . S
Sc221 O235 2.105 . S
Sc221 O237 2.105 . S
Sc221 O241 2.105 . S
Sc222 O223 2.025 . S
Sc222 O232 2.105 . S
Sc222 O234 2.105 . S
Sc222 O238 2.105 . S
Sc222 O240 2.105 . S
O223 Sc220 2.025 . S
O223 Sc221 2.025 . S
O223 Sc222 2.025 . S
C224 O230 1.268 . S
C224 O240 1.268 . S
C225 O231 1.268 . S
C225 O239 1.268 . S
C226 O232 1.268 . S
C226 O241 1.268 . S
C227 O233 1.268 . S
C227 O237 1.268 . S
C228 O234 1.268 . S
C228 O236 1.268 . S
C229 O235 1.268 . S
C229 O238 1.268 . S
O230 Sc220 2.105 . S
O230 C224 1.268 . S
O231 Sc221 2.105 . S
O231 C225 1.268 . S
O232 Sc222 2.105 . S
O232 C226 1.268 . S
O233 Sc220 2.105 . S
O233 C227 1.268 . S
O234 Sc222 2.105 . S
O234 C228 1.268 . S
O235 Sc221 2.105 . S
O235 C229 1.268 . S
O236 Sc220 2.105 . S
O236 C228 1.268 . S
O237 Sc221 2.105 . S
O237 C227 1.268 . S
O238 Sc222 2.105 . S
O238 C229 1.268 . S
O239 Sc220 2.105 . S
O239 C225 1.268 . S
O240 Sc222 2.105 . S
O240 C224 1.268 . S
O241 Sc221 2.105 . S
O241 C226 1.268 . S
Sc242 O245 2.025 . S
Sc242 O252 2.105 . S
Sc242 O255 2.105 . S
Sc242 O258 2.105 . S
Sc242 O261 2.105 . S
Sc243 O245 2.025 . S
Sc243 O253 2.105 . S
Sc243 O257 2.105 . S
Sc243 O259 2.105 . S
Sc243 O263 2.105 . S
Sc244 O245 2.025 . S
Sc244 O254 2.105 . S
Sc244 O256 2.105 . S
Sc244 O260 2.105 . S
Sc244 O262 2.105 . S
O245 Sc242 2.025 . S
O245 Sc243 2.025 . S
O245 Sc244 2.025 . S
C246 O252 1.268 . S
C246 O262 1.268 . S
C247 O253 1.268 . S
C247 O261 1.268 . S
C248 O254 1.268 . S
C248 O263 1.268 . S
C249 O255 1.268 . S
C249 O259 1.268 . S
C250 O256 1.268 . S
C250 O258 1.268 . S
C251 O257 1.268 . S
C251 O260 1.268 . S
O252 Sc242 2.105 . S
O252 C246 1.268 . S
O253 Sc243 2.105 . S
O253 C247 1.268 . S
O254 Sc244 2.105 . S
O254 C248 1.268 . S
O255 Sc242 2.105 . S
O255 C249 1.268 . S
O256 Sc244 2.105 . S
O256 C250 1.268 . S
O257 Sc243 2.105 . S
O257 C251 1.268 . S
O258 Sc242 2.105 . S
O258 C250 1.268 . S
O259 Sc243 2.105 . S
O259 C249 1.268 . S
O260 Sc244 2.105 . S
O260 C251 1.268 . S
O261 Sc242 2.105 . S
O261 C247 1.268 . S
O262 Sc244 2.105 . S
O262 C246 1.268 . S
O263 Sc243 2.105 . S
O263 C248 1.268 . S
Sc264 O267 2.025 . S
Sc264 O274 2.105 . S
Sc264 O277 2.105 . S
Sc264 O280 2.105 . S
Sc264 O283 2.105 . S
Sc265 O267 2.025 . S
Sc265 O275 2.105 . S
Sc265 O279 2.105 . S
Sc265 O281 2.105 . S
Sc265 O285 2.105 . S
Sc266 O267 2.025 . S
Sc266 O276 2.105 . S
Sc266 O278 2.105 . S
Sc266 O282 2.105 . S
Sc266 O284 2.105 . S
O267 Sc264 2.025 . S
O267 Sc265 2.025 . S
O267 Sc266 2.025 . S
C268 O274 1.268 . S
C268 O284 1.268 . S
C269 O275 1.268 . S
C269 O283 1.268 . S
C270 O276 1.268 . S
C270 O285 1.268 . S
C271 O277 1.268 . S
C271 O281 1.268 . S
C272 O278 1.268 . S
C272 O280 1.268 . S
C273 O279 1.268 . S
C273 O282 1.268 . S
O274 Sc264 2.105 . S
O274 C268 1.268 . S
O275 Sc265 2.105 . S
O275 C269 1.268 . S
O276 Sc266 2.105 . S
O276 C270 1.268 . S
O277 Sc264 2.105 . S
O277 C271 1.268 . S
O278 Sc266 2.105 . S
O278 C272 1.268 . S
O279 Sc265 2.105 . S
O279 C273 1.268 . S
O280 Sc264 2.105 . S
O280 C272 1.268 . S
O281 Sc265 2.105 . S
O281 C271 1.268 . S
O282 Sc266 2.105 . S
O282 C273 1.268 . S
O283 Sc264 2.105 . S
O283 C269 1.268 . S
O284 Sc266 2.105 . S
O284 C268 1.268 . S
O285 Sc265 2.105 . S
O285 C270 1.268 . S
Sc286 O289 2.025 . S
Sc286 O296 2.105 . S
Sc286 O299 2.105 . S
Sc286 O302 2.105 . S
Sc286 O305 2.105 . S
Sc287 O289 2.025 . S
Sc287 O297 2.105 . S
Sc287 O301 2.105 . S
Sc287 O303 2.105 . S
Sc287 O307 2.105 . S
Sc288 O289 2.025 . S
Sc288 O298 2.105 . S
Sc288 O300 2.105 . S
Sc288 O304 2.105 . S
Sc288 O306 2.105 . S
O289 Sc286 2.025 . S
O289 Sc287 2.025 . S
O289 Sc288 2.025 . S
C290 O296 1.268 . S
C290 O306 1.268 . S
C291 O297 1.268 . S
C291 O305 1.268 . S
C292 O298 1.268 . S
C292 O307 1.268 . S
C293 O299 1.268 . S
C293 O303 1.268 . S
C294 O300 1.268 . S
C294 O302 1.268 . S
C295 O301 1.268 . S
C295 O304 1.268 . S
O296 Sc286 2.105 . S
O296 C290 1.268 . S
O297 Sc287 2.105 . S
O297 C291 1.268 . S
O298 Sc288 2.105 . S
O298 C292 1.268 . S
O299 Sc286 2.105 . S
O299 C293 1.268 . S
O300 Sc288 2.105 . S
O300 C294 1.268 . S
O301 Sc287 2.105 . S
O301 C295 1.268 . S
O302 Sc286 2.105 . S
O302 C294 1.268 . S
O303 Sc287 2.105 . S
O303 C293 1.268 . S
O304 Sc288 2.105 . S
O304 C295 1.268 . S
O305 Sc286 2.105 . S
O305 C291 1.268 . S
O306 Sc288 2.105 . S
O306 C290 1.268 . S
O307 Sc287 2.105 . S
O307 C292 1.268 . S
Sc308 O311 2.025 . S
Sc308 O318 2.105 . S
Sc308 O321 2.105 . S
Sc308 O324 2.105 . S
Sc308 O327 2.105 . S
Sc309 O311 2.025 . S
Sc309 O319 2.105 . S
Sc309 O323 2.105 . S
Sc309 O325 2.105 . S
Sc309 O329 2.105 . S
Sc310 O311 2.025 . S
Sc310 O320 2.105 . S
Sc310 O322 2.105 . S
Sc310 O326 2.105 . S
Sc310 O328 2.105 . S
O311 Sc308 2.025 . S
O311 Sc309 2.025 . S
O311 Sc310 2.025 . S
C312 O318 1.268 . S
C312 O328 1.268 . S
C313 O319 1.268 . S
C313 O327 1.268 . S
C314 O320 1.268 . S
C314 O329 1.268 . S
C315 O321 1.268 . S
C315 O325 1.268 . S
C316 O322 1.268 . S
C316 O324 1.268 . S
C317 O323 1.268 . S
C317 O326 1.268 . S
O318 Sc308 2.105 . S
O318 C312 1.268 . S
O319 Sc309 2.105 . S
O319 C313 1.268 . S
O320 Sc310 2.105 . S
O320 C314 1.268 . S
O321 Sc308 2.105 . S
O321 C315 1.268 . S
O322 Sc310 2.105 . S
O322 C316 1.268 . S
O323 Sc309 2.105 . S
O323 C317 1.268 . S
O324 Sc308 2.105 . S
O324 C316 1.268 . S
O325 Sc309 2.105 . S
O325 C315 1.268 . S
O326 Sc310 2.105 . S
O326 C317 1.268 . S
O327 Sc308 2.105 . S
O327 C313 1.268 . S
O328 Sc310 2.105 . S
O328 C312 1.268 . S
O329 Sc309 2.105 . S
O329 C314 1.268 . S
Sc330 O333 2.025 . S
Sc330 O340 2.105 . S
Sc330 O343 2.105 . S
Sc330 O346 2.105 . S
Sc330 O349 2.105 . S
Sc331 O333 2.025 . S
Sc331 O341 2.105 . S
Sc331 O345 2.105 . S
Sc331 O347 2.105 . S
Sc331 O351 2.105 . S
Sc332 O333 2.025 . S
Sc332 O342 2.105 . S
Sc332 O344 2.105 . S
Sc332 O348 2.105 . S
Sc332 O350 2.105 . S
O333 Sc330 2.025 . S
O333 Sc331 2.025 . S
O333 Sc332 2.025 . S
C334 O340 1.268 . S
C334 O350 1.268 . S
C335 O341 1.268 . S
C335 O349 1.268 . S
C336 O342 1.268 . S
C336 O351 1.268 . S
C337 O343 1.268 . S
C337 O347 1.268 . S
C338 O344 1.268 . S
C338 O346 1.268 . S
C339 O345 1.268 . S
C339 O348 1.268 . S
O340 Sc330 2.105 . S
O340 C334 1.268 . S
O341 Sc331 2.105 . S
O341 C335 1.268 . S
O342 Sc332 2.105 . S
O342 C336 1.268 . S
O343 Sc330 2.105 . S
O343 C337 1.268 . S
O344 Sc332 2.105 . S
O344 C338 1.268 . S
O345 Sc331 2.105 . S
O345 C339 1.268 . S
O346 Sc330 2.105 . S
O346 C338 1.268 . S
O347 Sc331 2.105 . S
O347 C337 1.268 . S
O348 Sc332 2.105 . S
O348 C339 1.268 . S
O349 Sc330 2.105 . S
O349 C335 1.268 . S
O350 Sc332 2.105 . S
O350 C334 1.268 . S
O351 Sc331 2.105 . S
O351 C336 1.268 . S
C352 C353 1.349 . S
C352 C354 1.327 . S
C352 H377 0.950 . S
C353 C352 1.349 . S
C353 C369 1.349 . S
C354 C352 1.327 . S
C354 C373 1.429 . S
C354 H378 0.950 . S
C355 C372 1.574 . S
C355 C374 1.368 . S
C355 H379 0.949 . S
H356 C360 0.949 . S
C357 C358 1.349 . S
C357 C359 1.327 . S
C357 H380 0.950 . S
C358 C357 1.349 . S
C358 C370 1.349 . S
C359 C357 1.327 . S
C359 C375 1.429 . S
C359 H381 0.950 . S
C360 H356 0.949 . S
C360 C368 1.574 . S
C360 C376 1.368 . S
H361 C369 0.950 . S
H362 C367 0.950 . S
H363 C368 0.949 . S
H364 C370 0.950 . S
H365 C371 0.950 . S
H366 C372 0.949 . S
C367 H362 0.950 . S
C367 C369 1.327 . S
C367 C373 1.429 . S
C368 C360 1.574 . S
C368 H363 0.949 . S
C368 C374 1.368 . S
C369 C353 1.349 . S
C369 H361 0.950 . S
C369 C367 1.327 . S
C370 C358 1.349 . S
C370 H364 0.950 . S
C370 C371 1.327 . S
C371 H365 0.950 . S
C371 C370 1.327 . S
C371 C375 1.429 . S
C372 C355 1.574 . S
C372 H366 0.949 . S
C372 C376 1.368 . S
C373 C354 1.429 . S
C373 C367 1.429 . S
C373 C374 1.523 . S
C374 C355 1.368 . S
C374 C368 1.368 . S
C374 C373 1.523 . S
C375 C359 1.429 . S
C375 C371 1.429 . S
C375 C376 1.523 1_545 S
C376 C360 1.368 . S
C376 C372 1.368 . S
C376 C375 1.523 1_565 S
H377 C352 0.950 . S
H378 C354 0.950 . S
H379 C355 0.949 . S
H380 C357 0.950 . S
H381 C359 0.950 . S
C382 C383 1.349 . S
C382 C384 1.327 . S
C382 H407 0.950 . S
C383 C382 1.349 . S
C383 C399 1.349 . S
C384 C382 1.327 . S
C384 C403 1.429 . S
C384 H408 0.950 . S
C385 C402 1.574 . S
C385 C404 1.368 . S
C385 H409 0.949 . S
H386 C390 0.949 . S
C387 C388 1.349 . S
C387 C389 1.327 . S
C387 H410 0.950 . S
C388 C387 1.349 . S
C388 C400 1.349 . S
C389 C387 1.327 . S
C389 C405 1.429 . S
C389 H411 0.950 . S
C390 H386 0.949 . S
C390 C398 1.574 . S
C390 C406 1.368 . S
H391 C399 0.950 . S
H392 C397 0.950 . S
H393 C398 0.949 . S
H394 C400 0.950 . S
H395 C401 0.950 . S
H396 C402 0.949 . S
C397 H392 0.950 . S
C397 C399 1.327 . S
C397 C403 1.429 . S
C398 C390 1.574 . S
C398 H393 0.949 . S
C398 C404 1.368 . S
C399 C383 1.349 . S
C399 H391 0.950 . S
C399 C397 1.327 . S
C400 C388 1.349 . S
C400 H394 0.950 . S
C400 C401 1.327 . S
C401 H395 0.950 . S
C401 C400 1.327 . S
C401 C405 1.429 . S
C402 C385 1.574 . S
C402 H396 0.949 . S
C402 C406 1.368 . S
C403 C384 1.429 . S
C403 C397 1.429 . S
C403 C404 1.523 1_455 S
C404 C385 1.368 . S
C404 C398 1.368 . S
C404 C403 1.523 1_655 S
C405 C389 1.429 . S
C405 C401 1.429 . S
C405 C406 1.523 . S
C406 C390 1.368 . S
C406 C402 1.368 . S
C406 C405 1.523 . S
H407 C382 0.950 . S
H408 C384 0.950 . S
H409 C385 0.949 . S
H410 C387 0.950 . S
H411 C389 0.950 . S
C412 C413 1.349 . S
C412 C414 1.327 . S
C412 H437 0.950 . S
C413 C412 1.349 . S
C413 C429 1.349 . S
C414 C412 1.327 . S
C414 C433 1.429 . S
C414 H438 0.950 . S
C415 C432 1.574 . S
C415 C434 1.368 . S
C415 H439 0.949 . S
H416 C420 0.949 . S
C417 C418 1.349 . S
C417 C419 1.327 . S
C417 H440 0.950 . S
C418 C417 1.349 . S
C418 C430 1.349 . S
C419 C417 1.327 . S
C419 C435 1.429 . S
C419 H441 0.950 . S
C420 H416 0.949 . S
C420 C428 1.574 . S
C420 C436 1.368 . S
H421 C429 0.950 . S
H422 C427 0.950 . S
H423 C428 0.949 1_565 S
H424 C430 0.950 . S
H425 C431 0.950 . S
H426 C432 0.949 . S
C427 H422 0.950 . S
C427 C429 1.327 . S
C427 C433 1.429 . S
C428 C420 1.574 . S
C428 H423 0.949 1_545 S
C428 C434 1.368 . S
C429 C413 1.349 . S
C429 H421 0.950 . S
C429 C427 1.327 . S
C430 C418 1.349 . S
C430 H424 0.950 . S
C430 C431 1.327 . S
C431 H425 0.950 . S
C431 C430 1.327 . S
C431 C435 1.429 . S
C432 C415 1.574 . S
C432 H426 0.949 . S
C432 C436 1.368 . S
C433 C414 1.429 . S
C433 C427 1.429 . S
C433 C434 1.523 1_565 S
C434 C415 1.368 . S
C434 C428 1.368 . S
C434 C433 1.523 1_545 S
C435 C419 1.429 . S
C435 C431 1.429 . S
C435 C436 1.523 . S
C436 C420 1.368 . S
C436 C432 1.368 . S
C436 C435 1.523 . S
H437 C412 0.950 . S
H438 C414 0.950 . S
H439 C415 0.949 . S
H440 C417 0.950 . S
H441 C419 0.950 . S
C442 C443 1.349 . S
C442 C444 1.327 . S
C442 H467 0.950 . S
C443 C442 1.349 . S
C443 C459 1.349 . S
C444 C442 1.327 . S
C444 C463 1.429 . S
C444 H468 0.950 . S
C445 C462 1.574 . S
C445 C464 1.368 . S
C445 H469 0.949 . S
H446 C450 0.949 . S
C447 C448 1.349 . S
C447 C449 1.327 . S
C447 H470 0.950 . S
C448 C447 1.349 . S
C448 C460 1.349 . S
C449 C447 1.327 . S
C449 C465 1.429 . S
C449 H471 0.950 . S
C450 H446 0.949 . S
C450 C458 1.574 . S
C450 C466 1.368 . S
H451 C459 0.950 . S
H452 C457 0.950 . S
H453 C458 0.949 . S
H454 C460 0.950 . S
H455 C461 0.950 . S
H456 C462 0.949 . S
C457 H452 0.950 . S
C457 C459 1.327 . S
C457 C463 1.429 . S
C458 C450 1.574 . S
C458 H453 0.949 . S
C458 C464 1.368 . S
C459 C443 1.349 . S
C459 H451 0.950 . S
C459 C457 1.327 . S
C460 C448 1.349 . S
C460 H454 0.950 . S
C460 C461 1.327 . S
C461 H455 0.950 . S
C461 C460 1.327 . S
C461 C465 1.429 . S
C462 C445 1.574 . S
C462 H456 0.949 . S
C462 C466 1.368 . S
C463 C444 1.429 . S
C463 C457 1.429 . S
C463 C464 1.523 . S
C464 C445 1.368 . S
C464 C458 1.368 . S
C464 C463 1.523 . S
C465 C449 1.429 . S
C465 C461 1.429 . S
C465 C466 1.523 1_655 S
C466 C450 1.368 . S
C466 C462 1.368 . S
C466 C465 1.523 1_455 S
H467 C442 0.950 . S
H468 C444 0.950 . S
H469 C445 0.949 . S
H470 C447 0.950 . S
H471 C449 0.950 . S
C472 C473 1.349 1_554 S
C472 C474 1.327 . S
C472 H497 0.950 . S
C473 C472 1.349 1_556 S
C473 C489 1.349 . S
C474 C472 1.327 . S
C474 C493 1.440 . S
C474 H498 0.950 . S
C475 C492 1.574 1_556 S
C475 C494 1.368 1_556 S
C475 H499 0.949 . S
H476 C480 0.949 . S
C477 C478 1.349 . S
C477 C479 1.327 . S
C477 H500 0.950 . S
C478 C477 1.349 . S
C478 C490 1.349 . S
C479 C477 1.327 . S
C479 C495 1.429 . S
C479 H501 0.950 . S
C480 H476 0.949 . S
C480 C488 1.574 . S
C480 C496 1.368 . S
H481 C489 0.950 . S
H482 C487 0.950 . S
H483 C488 0.949 . S
H484 C490 0.950 . S
H485 C491 0.950 . S
H486 C492 0.940 1_556 S
C487 H482 0.950 . S
C487 C489 1.327 . S
C487 C493 1.408 1_556 S
C488 C480 1.574 . S
C488 H483 0.949 . S
C488 C494 1.368 . S
C489 C473 1.349 . S
C489 H481 0.950 . S
C489 C487 1.327 . S
C490 C478 1.349 . S
C490 H484 0.950 . S
C490 C491 1.327 . S
C491 H485 0.950 . S
C491 C490 1.327 . S
C491 C495 1.429 . S
C492 C475 1.574 1_554 S
C492 H486 0.940 1_554 S
C492 C496 1.368 . S
C493 C474 1.440 . S
C493 C487 1.408 1_554 S
C493 C494 1.532 . S
C494 C475 1.368 1_554 S
C494 C488 1.368 . S
C494 C493 1.532 . S
C495 C479 1.429 . S
C495 C491 1.429 . S
C495 C496 1.523 . S
C496 C480 1.368 . S
C496 C492 1.368 . S
C496 C495 1.523 . S
H497 C472 0.950 . S
H498 C474 0.950 . S
H499 C475 0.949 . S
H500 C477 0.950 . S
H501 C479 0.950 . S
C502 C503 1.349 . S
C502 C504 1.327 1_554 S
C502 H527 0.948 1_554 S
C503 C502 1.349 . S
C503 C519 1.349 . S
C504 C502 1.327 1_556 S
C504 C523 1.434 . S
C504 H528 0.950 . S
C505 C522 1.574 . S
C505 C524 1.368 . S
C505 H529 0.949 1_556 S
H506 C510 0.949 . S
C507 C508 1.349 . S
C507 C509 1.327 . S
C507 H530 0.950 . S
C508 C507 1.349 . S
C508 C520 1.349 . S
C509 C507 1.327 . S
C509 C525 1.429 . S
C509 H531 0.950 . S
C510 H506 0.949 . S
C510 C518 1.574 . S
C510 C526 1.368 . S
H511 C519 0.950 . S
H512 C517 0.950 . S
H513 C518 0.949 . S
H514 C520 0.950 . S
H515 C521 0.950 . S
H516 C522 0.949 . S
C517 H512 0.950 . S
C517 C519 1.327 . S
C517 C523 1.414 1_554 S
C518 C510 1.574 . S
C518 H513 0.949 . S
C518 C524 1.368 . S
C519 C503 1.349 . S
C519 H511 0.950 . S
C519 C517 1.327 . S
C520 C508 1.349 . S
C520 H514 0.950 . S
C520 C521 1.327 . S
C521 H515 0.950 . S
C521 C520 1.327 . S
C521 C525 1.429 . S
C522 C505 1.574 . S
C522 H516 0.949 . S
C522 C526 1.368 . S
C523 C504 1.434 . S
C523 C517 1.414 1_556 S
C523 C524 1.532 . S
C524 C505 1.368 . S
C524 C518 1.368 . S
C524 C523 1.532 . S
C525 C509 1.429 . S
C525 C521 1.429 . S
C525 C526 1.523 . S
C526 C510 1.368 . S
C526 C522 1.368 . S
C526 C525 1.523 . S
H527 C502 0.948 1_556 S
H528 C504 0.950 . S
H529 C505 0.949 1_554 S
H530 C507 0.950 . S
H531 C509 0.950 . S
C532 C533 1.349 . S
C532 C534 1.327 . S
C532 H557 0.950 . S
C533 C532 1.349 . S
C533 C549 1.349 . S
C534 C532 1.327 . S
C534 C553 1.429 . S
C534 H558 0.950 . S
C535 C552 1.574 . S
C535 C554 1.368 . S
C535 H559 0.949 . S
H536 C540 0.949 . S
C537 C538 1.349 . S
C537 C539 1.327 . S
C537 H560 0.950 . S
C538 C537 1.349 . S
C538 C550 1.349 . S
C539 C537 1.327 . S
C539 C555 1.415 1_556 S
C539 H561 0.950 . S
C540 H536 0.949 . S
C540 C548 1.574 . S
C540 C556 1.368 . S
H541 C549 0.950 . S
H542 C547 0.950 . S
H543 C548 0.949 . S
H544 C550 0.958 . S
H545 C551 0.950 . S
H546 C552 0.949 1_556 S
C547 H542 0.950 . S
C547 C549 1.327 . S
C547 C553 1.429 . S
C548 C540 1.574 . S
C548 H543 0.949 . S
C548 C554 1.368 . S
C549 C533 1.349 . S
C549 H541 0.950 . S
C549 C547 1.327 . S
C550 C538 1.349 . S
C550 H544 0.958 . S
C550 C551 1.327 1_556 S
C551 H545 0.950 . S
C551 C550 1.327 1_554 S
C551 C555 1.433 . S
C552 C535 1.574 . S
C552 H546 0.949 1_554 S
C552 C556 1.368 . S
C553 C534 1.429 . S
C553 C547 1.429 . S
C553 C554 1.523 . S
C554 C535 1.368 . S
C554 C548 1.368 . S
C554 C553 1.523 . S
C555 C539 1.415 1_554 S
C555 C551 1.433 . S
C555 C556 1.532 . S
C556 C540 1.368 . S
C556 C552 1.368 . S
C556 C555 1.532 . S
H557 C532 0.950 . S
H558 C534 0.950 . S
H559 C535 0.949 . S
H560 C537 0.950 . S
H561 C539 0.950 . S
C562 C563 1.349 . S
C562 C564 1.327 . S
C562 H587 0.950 . S
C563 C562 1.349 . S
C563 C579 1.349 . S
C564 C562 1.327 . S
C564 C583 1.429 . S
C564 H588 0.950 . S
C565 C582 1.574 . S
C565 C584 1.368 . S
C565 H589 0.949 . S
H566 C570 0.949 . S
C567 C568 1.349 . S
C567 C569 1.327 . S
C567 H590 0.950 . S
C568 C567 1.349 . S
C568 C580 1.349 . S
C569 C567 1.327 . S
C569 C585 1.414 1_554 S
C569 H591 0.950 . S
C570 H566 0.949 . S
C570 C578 1.574 . S
C570 C586 1.368 . S
H571 C579 0.950 . S
H572 C577 0.950 . S
H573 C578 0.949 . S
H574 C580 0.951 1_556 S
H575 C581 0.950 . S
H576 C582 0.949 1_554 S
C577 H572 0.950 . S
C577 C579 1.327 . S
C577 C583 1.429 . S
C578 C570 1.574 . S
C578 H573 0.949 . S
C578 C584 1.368 . S
C579 C563 1.349 . S
C579 H571 0.950 . S
C579 C577 1.327 . S
C580 C568 1.349 . S
C580 H574 0.951 1_554 S
C580 C581 1.327 1_554 S
C581 H575 0.950 . S
C581 C580 1.327 1_556 S
C581 C585 1.433 . S
C582 C565 1.574 . S
C582 H576 0.949 1_556 S
C582 C586 1.368 . S
C583 C564 1.429 . S
C583 C577 1.429 . S
C583 C584 1.523 . S
C584 C565 1.368 . S
C584 C578 1.368 . S
C584 C583 1.523 . S
C585 C569 1.414 1_556 S
C585 C581 1.433 . S
C585 C586 1.532 . S
C586 C570 1.368 . S
C586 C582 1.368 . S
C586 C585 1.532 . S
H587 C562 0.950 . S
H588 C564 0.950 . S
H589 C565 0.949 . S
H590 C567 0.950 . S
H591 C569 0.950 . S
C592 C593 1.349 . S
C592 C594 1.327 . S
C592 H617 0.950 . S
C593 C592 1.349 . S
C593 C609 1.349 . S
C594 C592 1.327 . S
C594 C613 1.429 . S
C594 H618 0.950 . S
C595 C612 1.574 . S
C595 C614 1.368 . S
C595 H619 0.949 . S
H596 C600 0.949 . S
C597 C598 1.349 . S
C597 C599 1.327 . S
C597 H620 0.950 . S
C598 C597 1.349 . S
C598 C610 1.349 . S
C599 C597 1.327 . S
C599 C615 1.429 . S
C599 H621 0.950 . S
C600 H596 0.949 . S
C600 C608 1.574 . S
C600 C616 1.368 . S
H601 C609 0.950 . S
H602 C607 0.950 . S
H603 C608 0.949 . S
H604 C610 0.950 . S
H605 C611 0.950 . S
H606 C612 0.949 . S
C607 H602 0.950 . S
C607 C609 1.327 . S
C607 C613 1.429 . S
C608 C600 1.574 . S
C608 H603 0.949 . S
C608 C614 1.368 . S
C609 C593 1.349 . S
C609 H601 0.950 . S
C609 C607 1.327 . S
C610 C598 1.349 . S
C610 H604 0.950 . S
C610 C611 1.327 . S
C611 H605 0.950 . S
C611 C610 1.327 . S
C611 C615 1.429 . S
C612 C595 1.574 . S
C612 H606 0.949 . S
C612 C616 1.368 . S
C613 C594 1.429 . S
C613 C607 1.429 . S
C613 C614 1.523 . S
C614 C595 1.368 . S
C614 C608 1.368 . S
C614 C613 1.523 . S
C615 C599 1.429 . S
C615 C611 1.429 . S
C615 C616 1.523 . S
C616 C600 1.368 . S
C616 C612 1.368 . S
C616 C615 1.523 . S
H617 C592 0.950 . S
H618 C594 0.950 . S
H619 C595 0.949 . S
H620 C597 0.950 . S
H621 C599 0.950 . S
C622 C623 1.349 . S
C622 C624 1.327 . S
C622 H647 0.950 . S
C623 C622 1.349 . S
C623 C639 1.349 . S
C624 C622 1.327 . S
C624 C643 1.429 . S
C624 H648 0.950 . S
C625 C642 1.574 . S
C625 C644 1.368 . S
C625 H649 0.949 . S
H626 C630 0.949 . S
C627 C628 1.349 . S
C627 C629 1.327 . S
C627 H650 0.950 . S
C628 C627 1.349 . S
C628 C640 1.349 . S
C629 C627 1.327 . S
C629 C645 1.429 . S
C629 H651 0.950 . S
C630 H626 0.949 . S
C630 C638 1.574 . S
C630 C646 1.368 . S
H631 C639 0.950 . S
H632 C637 0.950 . S
H633 C638 0.949 . S
H634 C640 0.950 . S
H635 C641 0.950 . S
H636 C642 0.949 . S
C637 H632 0.950 . S
C637 C639 1.327 . S
C637 C643 1.429 . S
C638 C630 1.574 . S
C638 H633 0.949 . S
C638 C644 1.368 . S
C639 C623 1.349 . S
C639 H631 0.950 . S
C639 C637 1.327 . S
C640 C628 1.349 . S
C640 H634 0.950 . S
C640 C641 1.327 . S
C641 H635 0.950 . S
C641 C640 1.327 . S
C641 C645 1.429 . S
C642 C625 1.574 . S
C642 H636 0.949 . S
C642 C646 1.368 . S
C643 C624 1.429 . S
C643 C637 1.429 . S
C643 C644 1.523 . S
C644 C625 1.368 . S
C644 C638 1.368 . S
C644 C643 1.523 . S
C645 C629 1.429 . S
C645 C641 1.429 . S
C645 C646 1.523 . S
C646 C630 1.368 . S
C646 C642 1.368 . S
C646 C645 1.523 . S
H647 C622 0.950 . S
H648 C624 0.950 . S
H649 C625 0.949 . S
H650 C627 0.950 . S
H651 C629 0.950 . S
C652 C653 1.349 . S
C652 C654 1.327 . S
C652 H677 0.950 . S
C653 C652 1.349 . S
C653 C669 1.349 . S
C654 C652 1.327 . S
C654 C673 1.429 . S
C654 H678 0.950 . S
C655 C672 1.574 . S
C655 C674 1.368 . S
C655 H679 0.949 . S
H656 C660 0.949 . S
C657 C658 1.349 . S
C657 C659 1.327 . S
C657 H680 0.950 . S
C658 C657 1.349 . S
C658 C670 1.349 . S
C659 C657 1.327 . S
C659 C675 1.429 . S
C659 H681 0.950 . S
C660 H656 0.949 . S
C660 C668 1.574 . S
C660 C676 1.368 . S
H661 C669 0.950 . S
H662 C667 0.950 . S
H663 C668 0.949 . S
H664 C670 0.950 . S
H665 C671 0.950 . S
H666 C672 0.949 . S
C667 H662 0.950 . S
C667 C669 1.327 . S
C667 C673 1.429 . S
C668 C660 1.574 . S
C668 H663 0.949 . S
C668 C674 1.368 . S
C669 C653 1.349 . S
C669 H661 0.950 . S
C669 C667 1.327 . S
C670 C658 1.349 . S
C670 H664 0.950 . S
C670 C671 1.327 . S
C671 H665 0.950 . S
C671 C670 1.327 . S
C671 C675 1.429 . S
C672 C655 1.574 . S
C672 H666 0.949 . S
C672 C676 1.368 . S
C673 C654 1.429 . S
C673 C667 1.429 . S
C673 C674 1.523 . S
C674 C655 1.368 . S
C674 C668 1.368 . S
C674 C673 1.523 . S
C675 C659 1.429 . S
C675 C671 1.429 . S
C675 C676 1.523 . S
C676 C660 1.368 . S
C676 C672 1.368 . S
C676 C675 1.523 . S
H677 C652 0.950 . S
H678 C654 0.950 . S
H679 C655 0.949 . S
H680 C657 0.950 . S
H681 C659 0.950 . S
C682 C683 1.349 . S
C682 C684 1.327 . S
C682 H707 0.950 . S
C683 C682 1.349 . S
C683 C699 1.349 . S
C684 C682 1.327 . S
C684 C703 1.429 . S
C684 H708 0.950 . S
C685 C702 1.574 . S
C685 C704 1.368 . S
C685 H709 0.949 . S
H686 C690 0.949 . S
C687 C688 1.349 . S
C687 C689 1.327 . S
C687 H710 0.950 . S
C688 C687 1.349 . S
C688 C700 1.349 . S
C689 C687 1.327 . S
C689 C705 1.429 . S
C689 H711 0.950 . S
C690 H686 0.949 . S
C690 C698 1.574 . S
C690 C706 1.368 . S
H691 C699 0.950 . S
H692 C697 0.950 . S
H693 C698 0.949 . S
H694 C700 0.950 . S
H695 C701 0.950 . S
H696 C702 0.949 . S
C697 H692 0.950 . S
C697 C699 1.327 . S
C697 C703 1.429 . S
C698 C690 1.574 . S
C698 H693 0.949 . S
C698 C704 1.368 . S
C699 C683 1.349 . S
C699 H691 0.950 . S
C699 C697 1.327 . S
C700 C688 1.349 . S
C700 H694 0.950 . S
C700 C701 1.327 . S
C701 H695 0.950 . S
C701 C700 1.327 . S
C701 C705 1.429 . S
C702 C685 1.574 . S
C702 H696 0.949 . S
C702 C706 1.368 . S
C703 C684 1.429 . S
C703 C697 1.429 . S
C703 C704 1.523 . S
C704 C685 1.368 . S
C704 C698 1.368 . S
C704 C703 1.523 . S
C705 C689 1.429 . S
C705 C701 1.429 . S
C705 C706 1.523 . S
C706 C690 1.368 . S
C706 C702 1.368 . S
C706 C705 1.523 . S
H707 C682 0.950 . S
H708 C684 0.950 . S
H709 C685 0.949 . S
H710 C687 0.950 . S
H711 C689 0.950 . S
C712 C713 1.349 . S
C712 C714 1.327 . S
C712 H737 0.950 . S
C713 C712 1.349 . S
C713 C729 1.349 . S
C714 C712 1.327 . S
C714 C733 1.429 . S
C714 H738 0.950 . S
C715 C732 1.574 . S
C715 C734 1.368 . S
C715 H739 0.949 . S
H716 C720 0.949 . S
C717 C718 1.349 . S
C717 C719 1.327 . S
C717 H740 0.950 . S
C718 C717 1.349 . S
C718 C730 1.349 . S
C719 C717 1.327 . S
C719 C735 1.429 . S
C719 H741 0.950 . S
C720 H716 0.949 . S
C720 C728 1.574 . S
C720 C736 1.368 . S
H721 C729 0.950 . S
H722 C727 0.950 . S
H723 C728 0.949 1_565 S
H724 C730 0.950 . S
H725 C731 0.950 . S
H726 C732 0.949 . S
C727 H722 0.950 . S
C727 C729 1.327 . S
C727 C733 1.429 . S
C728 C720 1.574 . S
C728 H723 0.949 1_545 S
C728 C734 1.368 . S
C729 C713 1.349 . S
C729 H721 0.950 . S
C729 C727 1.327 . S
C730 C718 1.349 . S
C730 H724 0.950 . S
C730 C731 1.327 . S
C731 H725 0.950 . S
C731 C730 1.327 . S
C731 C735 1.429 . S
C732 C715 1.574 . S
C732 H726 0.949 . S
C732 C736 1.368 . S
C733 C714 1.429 . S
C733 C727 1.429 . S
C733 C734 1.523 1_565 S
C734 C715 1.368 . S
C734 C728 1.368 . S
C734 C733 1.523 1_545 S
C735 C719 1.429 . S
C735 C731 1.429 . S
C735 C736 1.523 . S
C736 C720 1.368 . S
C736 C732 1.368 . S
C736 C735 1.523 . S
H737 C712 0.950 . S
H738 C714 0.950 . S
H739 C715 0.949 . S
H740 C717 0.950 . S
H741 C719 0.950 . S
C742 C743 1.349 . S
C742 C744 1.327 . S
C742 H767 0.950 . S
C743 C742 1.349 . S
C743 C759 1.349 . S
C744 C742 1.327 . S
C744 C763 1.429 . S
C744 H768 0.950 . S
C745 C762 1.574 . S
C745 C764 1.368 . S
C745 H769 0.949 . S
H746 C750 0.949 1_655 S
C747 C748 1.349 . S
C747 C749 1.327 . S
C747 H770 0.950 . S
C748 C747 1.349 . S
C748 C760 1.349 . S
C749 C747 1.327 . S
C749 C765 1.429 . S
C749 H771 0.950 . S
C750 H746 0.949 1_455 S
C750 C758 1.574 . S
C750 C766 1.368 . S
H751 C759 0.950 . S
H752 C757 0.950 . S
H753 C758 0.949 . S
H754 C760 0.950 . S
H755 C761 0.950 . S
H756 C762 0.949 . S
C757 H752 0.950 . S
C757 C759 1.327 . S
C757 C763 1.429 . S
C758 C750 1.574 . S
C758 H753 0.949 . S
C758 C764 1.368 . S
C759 C743 1.349 . S
C759 H751 0.950 . S
C759 C757 1.327 . S
C760 C748 1.349 . S
C760 H754 0.950 . S
C760 C761 1.327 . S
C761 H755 0.950 . S
C761 C760 1.327 . S
C761 C765 1.429 . S
C762 C745 1.574 . S
C762 H756 0.949 . S
C762 C766 1.368 . S
C763 C744 1.429 . S
C763 C757 1.429 . S
C763 C764 1.523 . S
C764 C745 1.368 . S
C764 C758 1.368 . S
C764 C763 1.523 . S
C765 C749 1.429 . S
C765 C761 1.429 . S
C765 C766 1.523 1_655 S
C766 C750 1.368 . S
C766 C762 1.368 . S
C766 C765 1.523 1_455 S
H767 C742 0.950 . S
H768 C744 0.950 . S
H769 C745 0.949 . S
H770 C747 0.950 . S
H771 C749 0.950 . S
C772 C773 1.349 . S
C772 C774 1.327 . S
C772 H797 0.950 . S
C773 C772 1.349 . S
C773 C789 1.349 . S
C774 C772 1.327 . S
C774 C793 1.429 . S
C774 H798 0.950 . S
C775 C792 1.574 . S
C775 C794 1.368 . S
C775 H799 0.949 . S
H776 C780 0.949 . S
C777 C778 1.349 . S
C777 C779 1.327 . S
C777 H800 0.950 . S
C778 C777 1.349 . S
C778 C790 1.349 . S
C779 C777 1.327 . S
C779 C795 1.429 . S
C779 H801 0.950 . S
C780 H776 0.949 . S
C780 C788 1.574 . S
C780 C796 1.368 . S
H781 C789 0.950 . S
H782 C787 0.950 . S
H783 C788 0.949 . S
H784 C790 0.950 . S
H785 C791 0.950 . S
H786 C792 0.949 . S
C787 H782 0.950 . S
C787 C789 1.327 . S
C787 C793 1.429 . S
C788 C780 1.574 . S
C788 H783 0.949 . S
C788 C794 1.368 . S
C789 C773 1.349 . S
C789 H781 0.950 . S
C789 C787 1.327 . S
C790 C778 1.349 . S
C790 H784 0.950 . S
C790 C791 1.327 . S
C791 H785 0.950 . S
C791 C790 1.327 . S
C791 C795 1.429 . S
C792 C775 1.574 . S
C792 H786 0.949 . S
C792 C796 1.368 . S
C793 C774 1.429 . S
C793 C787 1.429 . S
C793 C794 1.523 . S
C794 C775 1.368 . S
C794 C788 1.368 . S
C794 C793 1.523 . S
C795 C779 1.429 . S
C795 C791 1.429 . S
C795 C796 1.523 1_545 S
C796 C780 1.368 . S
C796 C792 1.368 . S
C796 C795 1.523 1_565 S
H797 C772 0.950 . S
H798 C774 0.950 . S
H799 C775 0.949 . S
H800 C777 0.950 . S
H801 C779 0.950 . S
C802 C803 1.349 . S
C802 C804 1.327 . S
C802 H827 0.950 . S
C803 C802 1.349 . S
C803 C819 1.349 . S
C804 C802 1.327 . S
C804 C823 1.429 . S
C804 H828 0.950 . S
C805 C822 1.574 . S
C805 C824 1.368 . S
C805 H829 0.949 1_655 S
H806 C810 0.949 . S
C807 C808 1.349 . S
C807 C809 1.327 . S
C807 H830 0.950 . S
C808 C807 1.349 . S
C808 C820 1.349 . S
C809 C807 1.327 . S
C809 C825 1.429 . S
C809 H831 0.950 . S
C810 H806 0.949 . S
C810 C818 1.574 . S
C810 C826 1.368 . S
H811 C819 0.950 . S
H812 C817 0.950 . S
H813 C818 0.949 . S
H814 C820 0.950 . S
H815 C821 0.950 . S
H816 C822 0.949 . S
C817 H812 0.950 . S
C817 C819 1.327 . S
C817 C823 1.429 . S
C818 C810 1.574 . S
C818 H813 0.949 . S
C818 C824 1.368 . S
C819 C803 1.349 . S
C819 H811 0.950 . S
C819 C817 1.327 . S
C820 C808 1.349 . S
C820 H814 0.950 . S
C820 C821 1.327 . S
C821 H815 0.950 . S
C821 C820 1.327 . S
C821 C825 1.429 . S
C822 C805 1.574 . S
C822 H816 0.949 . S
C822 C826 1.368 . S
C823 C804 1.429 . S
C823 C817 1.429 . S
C823 C824 1.523 1_455 S
C824 C805 1.368 . S
C824 C818 1.368 . S
C824 C823 1.523 1_655 S
C825 C809 1.429 . S
C825 C821 1.429 . S
C825 C826 1.523 . S
C826 C810 1.368 . S
C826 C822 1.368 . S
C826 C825 1.523 . S
H827 C802 0.950 . S
H828 C804 0.950 . S
H829 C805 0.949 1_455 S
H830 C807 0.950 . S
H831 C809 0.950 . S
C832 C833 1.349 . S
C832 C834 1.327 . S
C832 H857 0.950 . S
C833 C832 1.349 . S
C833 C849 1.349 . S
C834 C832 1.327 . S
C834 C853 1.429 . S
C834 H858 0.950 . S
C835 C852 1.574 . S
C835 C854 1.368 . S
C835 H859 0.949 . S
H836 C840 0.949 . S
C837 C838 1.349 . S
C837 C839 1.327 . S
C837 H860 0.950 . S
C838 C837 1.349 . S
C838 C850 1.349 . S
C839 C837 1.327 . S
C839 C855 1.429 . S
C839 H861 0.950 . S
C840 H836 0.949 . S
C840 C848 1.574 . S
C840 C856 1.368 . S
H841 C849 0.950 . S
H842 C847 0.950 . S
H843 C848 0.949 . S
H844 C850 0.950 . S
H845 C851 0.950 . S
H846 C852 0.949 . S
C847 H842 0.950 . S
C847 C849 1.327 . S
C847 C853 1.429 . S
C848 C840 1.574 . S
C848 H843 0.949 . S
C848 C854 1.368 . S
C849 C833 1.349 . S
C849 H841 0.950 . S
C849 C847 1.327 . S
C850 C838 1.349 . S
C850 H844 0.950 . S
C850 C851 1.327 . S
C851 H845 0.950 . S
C851 C850 1.327 . S
C851 C855 1.429 . S
C852 C835 1.574 . S
C852 H846 0.949 . S
C852 C856 1.368 . S
C853 C834 1.429 . S
C853 C847 1.429 . S
C853 C854 1.523 . S
C854 C835 1.368 . S
C854 C848 1.368 . S
C854 C853 1.523 . S
C855 C839 1.429 . S
C855 C851 1.429 . S
C855 C856 1.523 . S
C856 C840 1.368 . S
C856 C852 1.368 . S
C856 C855 1.523 . S
H857 C832 0.950 . S
H858 C834 0.950 . S
H859 C835 0.949 . S
H860 C837 0.950 . S
H861 C839 0.950 . S
C862 C863 1.349 . S
C862 C864 1.327 . S
C862 H887 0.950 . S
C863 C862 1.349 . S
C863 C879 1.349 . S
C864 C862 1.327 . S
C864 C883 1.429 . S
C864 H888 0.950 . S
C865 C882 1.574 . S
C865 C884 1.368 . S
C865 H889 0.949 . S
H866 C870 0.949 . S
C867 C868 1.349 . S
C867 C869 1.327 . S
C867 H890 0.950 . S
C868 C867 1.349 . S
C868 C880 1.349 . S
C869 C867 1.327 . S
C869 C885 1.429 . S
C869 H891 0.950 . S
C870 H866 0.949 . S
C870 C878 1.574 . S
C870 C886 1.368 . S
H871 C879 0.950 . S
H872 C877 0.950 . S
H873 C878 0.949 . S
H874 C880 0.950 . S
H875 C881 0.950 . S
H876 C882 0.949 . S
C877 H872 0.950 . S
C877 C879 1.327 . S
C877 C883 1.429 . S
C878 C870 1.574 . S
C878 H873 0.949 . S
C878 C884 1.368 . S
C879 C863 1.349 . S
C879 H871 0.950 . S
C879 C877 1.327 . S
C880 C868 1.349 . S
C880 H874 0.950 . S
C880 C881 1.327 . S
C881 H875 0.950 . S
C881 C880 1.327 . S
C881 C885 1.429 . S
C882 C865 1.574 . S
C882 H876 0.949 . S
C882 C886 1.368 . S
C883 C864 1.429 . S
C883 C877 1.429 . S
C883 C884 1.523 . S
C884 C865 1.368 . S
C884 C878 1.368 . S
C884 C883 1.523 . S
C885 C869 1.429 . S
C885 C881 1.429 . S
C885 C886 1.523 . S
C886 C870 1.368 . S
C886 C882 1.368 . S
C886 C885 1.523 . S
H887 C862 0.950 . S
H888 C864 0.950 . S
H889 C865 0.949 . S
H890 C867 0.950 . S
H891 C869 0.950 . S
C892 C893 1.349 . S
C892 C894 1.327 . S
C892 H917 0.950 . S
C893 C892 1.349 . S
C893 C909 1.349 . S
C894 C892 1.327 . S
C894 C913 1.429 . S
C894 H918 0.950 . S
C895 C912 1.574 . S
C895 C914 1.368 . S
C895 H919 0.949 . S
H896 C900 0.949 . S
C897 C898 1.349 . S
C897 C899 1.327 . S
C897 H920 0.950 . S
C898 C897 1.349 . S
C898 C910 1.349 . S
C899 C897 1.327 . S
C899 C915 1.429 . S
C899 H921 0.950 . S
C900 H896 0.949 . S
C900 C908 1.574 . S
C900 C916 1.368 . S
H901 C909 0.950 . S
H902 C907 0.950 . S
H903 C908 0.949 . S
H904 C910 0.950 . S
H905 C911 0.950 . S
H906 C912 0.949 . S
C907 H902 0.950 . S
C907 C909 1.327 . S
C907 C913 1.429 . S
C908 C900 1.574 . S
C908 H903 0.949 . S
C908 C914 1.368 . S
C909 C893 1.349 . S
C909 H901 0.950 . S
C909 C907 1.327 . S
C910 C898 1.349 . S
C910 H904 0.950 . S
C910 C911 1.327 . S
C911 H905 0.950 . S
C911 C910 1.327 . S
C911 C915 1.429 . S
C912 C895 1.574 . S
C912 H906 0.949 . S
C912 C916 1.368 . S
C913 C894 1.429 . S
C913 C907 1.429 . S
C913 C914 1.523 . S
C914 C895 1.368 . S
C914 C908 1.368 . S
C914 C913 1.523 . S
C915 C899 1.429 . S
C915 C911 1.429 . S
C915 C916 1.523 . S
C916 C900 1.368 . S
C916 C912 1.368 . S
C916 C915 1.523 . S
H917 C892 0.950 . S
H918 C894 0.950 . S
H919 C895 0.949 . S
H920 C897 0.950 . S
H921 C899 0.950 . S
C922 C923 1.349 . S
C922 C924 1.327 . S
C922 H947 0.950 . S
C923 C922 1.349 . S
C923 C939 1.349 . S
C924 C922 1.327 . S
C924 C943 1.429 . S
C924 H948 0.950 . S
C925 C942 1.574 . S
C925 C944 1.368 . S
C925 H949 0.949 . S
H926 C930 0.949 . S
C927 C928 1.349 . S
C927 C929 1.327 . S
C927 H950 0.950 . S
C928 C927 1.349 . S
C928 C940 1.349 . S
C929 C927 1.327 . S
C929 C945 1.429 . S
C929 H951 0.950 . S
C930 H926 0.949 . S
C930 C938 1.574 . S
C930 C946 1.368 . S
H931 C939 0.950 . S
H932 C937 0.950 . S
H933 C938 0.949 . S
H934 C940 0.950 . S
H935 C941 0.950 . S
H936 C942 0.949 . S
C937 H932 0.950 . S
C937 C939 1.327 . S
C937 C943 1.429 . S
C938 C930 1.574 . S
C938 H933 0.949 . S
C938 C944 1.368 . S
C939 C923 1.349 . S
C939 H931 0.950 . S
C939 C937 1.327 . S
C940 C928 1.349 . S
C940 H934 0.950 . S
C940 C941 1.327 . S
C941 H935 0.950 . S
C941 C940 1.327 . S
C941 C945 1.429 . S
C942 C925 1.574 . S
C942 H936 0.949 . S
C942 C946 1.368 . S
C943 C924 1.429 . S
C943 C937 1.429 . S
C943 C944 1.523 . S
C944 C925 1.368 . S
C944 C938 1.368 . S
C944 C943 1.523 . S
C945 C929 1.429 . S
C945 C941 1.429 . S
C945 C946 1.523 . S
C946 C930 1.368 . S
C946 C942 1.368 . S
C946 C945 1.523 . S
H947 C922 0.950 . S
H948 C924 0.950 . S
H949 C925 0.949 . S
H950 C927 0.950 . S
H951 C929 0.950 . S
C952 C953 1.349 . S
C952 C954 1.327 . S
C952 H977 0.950 . S
C953 C952 1.349 . S
C953 C969 1.349 . S
C954 C952 1.327 . S
C954 C973 1.429 . S
C954 H978 0.950 . S
C955 C972 1.574 . S
C955 C974 1.368 . S
C955 H979 0.949 . S
H956 C960 0.949 . S
C957 C958 1.349 . S
C957 C959 1.327 . S
C957 H980 0.950 . S
C958 C957 1.349 . S
C958 C970 1.349 . S
C959 C957 1.327 . S
C959 C975 1.429 . S
C959 H981 0.950 . S
C960 H956 0.949 . S
C960 C968 1.574 . S
C960 C976 1.368 . S
H961 C969 0.950 . S
H962 C967 0.950 . S
H963 C968 0.949 . S
H964 C970 0.950 . S
H965 C971 0.950 . S
H966 C972 0.949 . S
C967 H962 0.950 . S
C967 C969 1.327 . S
C967 C973 1.429 . S
C968 C960 1.574 . S
C968 H963 0.949 . S
C968 C974 1.368 . S
C969 C953 1.349 . S
C969 H961 0.950 . S
C969 C967 1.327 . S
C970 C958 1.349 . S
C970 H964 0.950 . S
C970 C971 1.327 . S
C971 H965 0.950 . S
C971 C970 1.327 . S
C971 C975 1.429 . S
C972 C955 1.574 . S
C972 H966 0.949 . S
C972 C976 1.368 . S
C973 C954 1.429 . S
C973 C967 1.429 . S
C973 C974 1.523 . S
C974 C955 1.368 . S
C974 C968 1.368 . S
C974 C973 1.523 . S
C975 C959 1.429 . S
C975 C971 1.429 . S
C975 C976 1.523 . S
C976 C960 1.368 . S
C976 C972 1.368 . S
C976 C975 1.523 . S
H977 C952 0.950 . S
H978 C954 0.950 . S
H979 C955 0.949 . S
H980 C957 0.950 . S
H981 C959 0.950 . S
C982 C983 1.349 . S
C982 C984 1.327 . S
C982 H1007 0.950 . S
C983 C982 1.349 . S
C983 C999 1.349 . S
C984 C982 1.327 . S
C984 C1003 1.429 . S
C984 H1008 0.950 . S
C985 C1002 1.574 . S
C985 C1004 1.368 . S
C985 H1009 0.949 . S
H986 C990 0.949 . S
C987 C988 1.349 . S
C987 C989 1.327 . S
C987 H1010 0.950 . S
C988 C987 1.349 . S
C988 C1000 1.349 . S
C989 C987 1.327 . S
C989 C1005 1.429 . S
C989 H1011 0.950 . S
C990 H986 0.949 . S
C990 C998 1.574 . S
C990 C1006 1.368 . S
H991 C999 0.950 . S
H992 C997 0.950 . S
H993 C998 0.949 . S
H994 C1000 0.950 . S
H995 C1001 0.950 . S
H996 C1002 0.949 . S
C997 H992 0.950 . S
C997 C999 1.327 . S
C997 C1003 1.429 . S
C998 C990 1.574 . S
C998 H993 0.949 . S
C998 C1004 1.368 . S
C999 C983 1.349 . S
C999 H991 0.950 . S
C999 C997 1.327 . S
C1000 C988 1.349 . S
C1000 H994 0.950 . S
C1000 C1001 1.327 . S
C1001 H995 0.950 . S
C1001 C1000 1.327 . S
C1001 C1005 1.429 . S
C1002 C985 1.574 . S
C1002 H996 0.949 . S
C1002 C1006 1.368 . S
C1003 C984 1.429 . S
C1003 C997 1.429 . S
C1003 C1004 1.523 . S
C1004 C985 1.368 . S
C1004 C998 1.368 . S
C1004 C1003 1.523 . S
C1005 C989 1.429 . S
C1005 C1001 1.429 . S
C1005 C1006 1.523 . S
C1006 C990 1.368 . S
C1006 C1002 1.368 . S
C1006 C1005 1.523 . S
H1007 C982 0.950 . S
H1008 C984 0.950 . S
H1009 C985 0.949 . S
H1010 C987 0.950 . S
H1011 C989 0.950 . S
C1012 C1013 1.349 . S
C1012 C1014 1.327 . S
C1012 H1037 0.950 . S
C1013 C1012 1.349 . S
C1013 C1029 1.349 . S
C1014 C1012 1.327 . S
C1014 C1033 1.429 . S
C1014 H1038 0.950 . S
C1015 C1032 1.574 . S
C1015 C1034 1.368 . S
C1015 H1039 0.949 . S
H1016 C1020 0.949 . S
C1017 C1018 1.349 . S
C1017 C1019 1.327 . S
C1017 H1040 0.950 . S
C1018 C1017 1.349 . S
C1018 C1030 1.349 . S
C1019 C1017 1.327 . S
C1019 C1035 1.429 . S
C1019 H1041 0.950 . S
C1020 H1016 0.949 . S
C1020 C1028 1.574 . S
C1020 C1036 1.368 . S
H1021 C1029 0.950 . S
H1022 C1027 0.950 . S
H1023 C1028 0.949 . S
H1024 C1030 0.950 . S
H1025 C1031 0.950 . S
H1026 C1032 0.949 . S
C1027 H1022 0.950 . S
C1027 C1029 1.327 . S
C1027 C1033 1.429 . S
C1028 C1020 1.574 . S
C1028 H1023 0.949 . S
C1028 C1034 1.368 . S
C1029 C1013 1.349 . S
C1029 H1021 0.950 . S
C1029 C1027 1.327 . S
C1030 C1018 1.349 . S
C1030 H1024 0.950 . S
C1030 C1031 1.327 . S
C1031 H1025 0.950 . S
C1031 C1030 1.327 . S
C1031 C1035 1.429 . S
C1032 C1015 1.574 . S
C1032 H1026 0.949 . S
C1032 C1036 1.368 . S
C1033 C1014 1.429 . S
C1033 C1027 1.429 . S
C1033 C1034 1.523 . S
C1034 C1015 1.368 . S
C1034 C1028 1.368 . S
C1034 C1033 1.523 . S
C1035 C1019 1.429 . S
C1035 C1031 1.429 . S
C1035 C1036 1.523 . S
C1036 C1020 1.368 . S
C1036 C1032 1.368 . S
C1036 C1035 1.523 . S
H1037 C1012 0.950 . S
H1038 C1014 0.950 . S
H1039 C1015 0.949 . S
H1040 C1017 0.950 . S
H1041 C1019 0.950 . S
C1042 C1043 1.349 . S
C1042 C1044 1.327 . S
C1042 H1067 0.950 . S
C1043 C1042 1.349 . S
C1043 C1059 1.349 . S
C1044 C1042 1.327 . S
C1044 C1063 1.429 . S
C1044 H1068 0.950 . S
C1045 C1062 1.574 . S
C1045 C1064 1.368 . S
C1045 H1069 0.949 . S
H1046 C1050 0.949 . S
C1047 C1048 1.349 . S
C1047 C1049 1.327 . S
C1047 H1070 0.950 . S
C1048 C1047 1.349 . S
C1048 C1060 1.349 . S
C1049 C1047 1.327 . S
C1049 C1065 1.429 . S
C1049 H1071 0.950 . S
C1050 H1046 0.949 . S
C1050 C1058 1.574 . S
C1050 C1066 1.368 . S
H1051 C1059 0.950 . S
H1052 C1057 0.950 . S
H1053 C1058 0.949 . S
H1054 C1060 0.950 . S
H1055 C1061 0.950 . S
H1056 C1062 0.949 . S
C1057 H1052 0.950 . S
C1057 C1059 1.327 . S
C1057 C1063 1.429 . S
C1058 C1050 1.574 . S
C1058 H1053 0.949 . S
C1058 C1064 1.368 . S
C1059 C1043 1.349 . S
C1059 H1051 0.950 . S
C1059 C1057 1.327 . S
C1060 C1048 1.349 . S
C1060 H1054 0.950 . S
C1060 C1061 1.327 . S
C1061 H1055 0.950 . S
C1061 C1060 1.327 . S
C1061 C1065 1.429 . S
C1062 C1045 1.574 . S
C1062 H1056 0.949 . S
C1062 C1066 1.368 . S
C1063 C1044 1.429 . S
C1063 C1057 1.429 . S
C1063 C1064 1.523 . S
C1064 C1045 1.368 . S
C1064 C1058 1.368 . S
C1064 C1063 1.523 . S
C1065 C1049 1.429 . S
C1065 C1061 1.429 . S
C1065 C1066 1.523 . S
C1066 C1050 1.368 . S
C1066 C1062 1.368 . S
C1066 C1065 1.523 . S
H1067 C1042 0.950 . S
H1068 C1044 0.950 . S
H1069 C1045 0.949 . S
H1070 C1047 0.950 . S
H1071 C1049 0.950 . S
C1072 C1073 1.349 . S
C1072 C1074 1.327 . S
C1072 H1097 0.950 . S
C1073 C1072 1.349 . S
C1073 C1089 1.349 . S
C1074 C1072 1.327 . S
C1074 C1093 1.429 . S
C1074 H1098 0.950 . S
C1075 C1092 1.574 . S
C1075 C1094 1.368 . S
C1075 H1099 0.949 . S
H1076 C1080 0.949 . S
C1077 C1078 1.349 . S
C1077 C1079 1.327 . S
C1077 H1100 0.950 . S
C1078 C1077 1.349 . S
C1078 C1090 1.349 . S
C1079 C1077 1.327 . S
C1079 C1095 1.429 . S
C1079 H1101 0.950 . S
C1080 H1076 0.949 . S
C1080 C1088 1.574 . S
C1080 C1096 1.368 . S
H1081 C1089 0.950 . S
H1082 C1087 0.950 . S
H1083 C1088 0.949 . S
H1084 C1090 0.950 . S
H1085 C1091 0.950 . S
H1086 C1092 0.949 . S
C1087 H1082 0.950 . S
C1087 C1089 1.327 . S
C1087 C1093 1.429 . S
C1088 C1080 1.574 . S
C1088 H1083 0.949 . S
C1088 C1094 1.368 . S
C1089 C1073 1.349 . S
C1089 H1081 0.950 . S
C1089 C1087 1.327 . S
C1090 C1078 1.349 . S
C1090 H1084 0.950 . S
C1090 C1091 1.327 . S
C1091 H1085 0.950 . S
C1091 C1090 1.327 . S
C1091 C1095 1.429 . S
C1092 C1075 1.574 . S
C1092 H1086 0.949 . S
C1092 C1096 1.368 . S
C1093 C1074 1.429 . S
C1093 C1087 1.429 . S
C1093 C1094 1.523 . S
C1094 C1075 1.368 . S
C1094 C1088 1.368 . S
C1094 C1093 1.523 . S
C1095 C1079 1.429 . S
C1095 C1091 1.429 . S
C1095 C1096 1.523 . S
C1096 C1080 1.368 . S
C1096 C1092 1.368 . S
C1096 C1095 1.523 . S
H1097 C1072 0.950 . S
H1098 C1074 0.950 . S
H1099 C1075 0.949 . S
H1100 C1077 0.950 . S
H1101 C1079 0.950 . S
C1102 C1103 1.349 . S
C1102 C1104 1.327 . S
C1102 H1127 0.950 . S
C1103 C1102 1.349 . S
C1103 C1119 1.349 . S
C1104 C1102 1.327 . S
C1104 C1123 1.429 . S
C1104 H1128 0.950 . S
C1105 C1122 1.574 . S
C1105 C1124 1.368 . S
C1105 H1129 0.949 . S
H1106 C1110 0.949 . S
C1107 C1108 1.349 . S
C1107 C1109 1.327 . S
C1107 H1130 0.950 . S
C1108 C1107 1.349 . S
C1108 C1120 1.349 . S
C1109 C1107 1.327 . S
C1109 C1125 1.429 . S
C1109 H1131 0.950 . S
C1110 H1106 0.949 . S
C1110 C1118 1.574 . S
C1110 C1126 1.368 . S
H1111 C1119 0.950 . S
H1112 C1117 0.950 . S
H1113 C1118 0.949 . S
H1114 C1120 0.950 . S
H1115 C1121 0.950 . S
H1116 C1122 0.949 . S
C1117 H1112 0.950 . S
C1117 C1119 1.327 . S
C1117 C1123 1.429 . S
C1118 C1110 1.574 . S
C1118 H1113 0.949 . S
C1118 C1124 1.368 . S
C1119 C1103 1.349 . S
C1119 H1111 0.950 . S
C1119 C1117 1.327 . S
C1120 C1108 1.349 . S
C1120 H1114 0.950 . S
C1120 C1121 1.327 . S
C1121 H1115 0.950 . S
C1121 C1120 1.327 . S
C1121 C1125 1.429 . S
C1122 C1105 1.574 . S
C1122 H1116 0.949 . S
C1122 C1126 1.368 . S
C1123 C1104 1.429 . S
C1123 C1117 1.429 . S
C1123 C1124 1.523 . S
C1124 C1105 1.368 . S
C1124 C1118 1.368 . S
C1124 C1123 1.523 . S
C1125 C1109 1.429 . S
C1125 C1121 1.429 . S
C1125 C1126 1.523 . S
C1126 C1110 1.368 . S
C1126 C1122 1.368 . S
C1126 C1125 1.523 . S
H1127 C1102 0.950 . S
H1128 C1104 0.950 . S
H1129 C1105 0.949 . S
H1130 C1107 0.950 . S
H1131 C1109 0.950 . S
C1132 C1133 1.349 . S
C1132 C1134 1.327 . S
C1132 H1157 0.950 . S
C1133 C1132 1.349 . S
C1133 C1149 1.349 . S
C1134 C1132 1.327 . S
C1134 C1153 1.429 . S
C1134 H1158 0.950 . S
C1135 C1152 1.574 . S
C1135 C1154 1.368 . S
C1135 H1159 0.949 . S
H1136 C1140 0.949 . S
C1137 C1138 1.349 . S
C1137 C1139 1.327 . S
C1137 H1160 0.950 . S
C1138 C1137 1.349 . S
C1138 C1150 1.349 . S
C1139 C1137 1.327 . S
C1139 C1155 1.429 . S
C1139 H1161 0.950 . S
C1140 H1136 0.949 . S
C1140 C1148 1.574 . S
C1140 C1156 1.368 . S
H1141 C1149 0.950 . S
H1142 C1147 0.950 . S
H1143 C1148 0.949 . S
H1144 C1150 0.950 . S
H1145 C1151 0.950 . S
H1146 C1152 0.949 . S
C1147 H1142 0.950 . S
C1147 C1149 1.327 . S
C1147 C1153 1.429 . S
C1148 C1140 1.574 . S
C1148 H1143 0.949 . S
C1148 C1154 1.368 . S
C1149 C1133 1.349 . S
C1149 H1141 0.950 . S
C1149 C1147 1.327 . S
C1150 C1138 1.349 . S
C1150 H1144 0.950 . S
C1150 C1151 1.327 . S
C1151 H1145 0.950 . S
C1151 C1150 1.327 . S
C1151 C1155 1.429 . S
C1152 C1135 1.574 . S
C1152 H1146 0.949 . S
C1152 C1156 1.368 . S
C1153 C1134 1.429 . S
C1153 C1147 1.429 . S
C1153 C1154 1.523 . S
C1154 C1135 1.368 . S
C1154 C1148 1.368 . S
C1154 C1153 1.523 . S
C1155 C1139 1.429 . S
C1155 C1151 1.429 . S
C1155 C1156 1.523 . S
C1156 C1140 1.368 . S
C1156 C1152 1.368 . S
C1156 C1155 1.523 . S
H1157 C1132 0.950 . S
H1158 C1134 0.950 . S
H1159 C1135 0.949 . S
H1160 C1137 0.950 . S
H1161 C1139 0.950 . S
C1162 C1163 1.349 . S
C1162 C1164 1.327 . S
C1162 H1187 0.950 . S
C1163 C1162 1.349 . S
C1163 C1179 1.349 . S
C1164 C1162 1.327 . S
C1164 C1183 1.429 . S
C1164 H1188 0.950 . S
C1165 C1182 1.574 . S
C1165 C1184 1.368 . S
C1165 H1189 0.949 . S
H1166 C1170 0.949 . S
C1167 C1168 1.349 . S
C1167 C1169 1.327 . S
C1167 H1190 0.950 . S
C1168 C1167 1.349 . S
C1168 C1180 1.349 . S
C1169 C1167 1.327 . S
C1169 C1185 1.429 . S
C1169 H1191 0.950 . S
C1170 H1166 0.949 . S
C1170 C1178 1.574 . S
C1170 C1186 1.368 . S
H1171 C1179 0.950 . S
H1172 C1177 0.950 . S
H1173 C1178 0.949 . S
H1174 C1180 0.950 . S
H1175 C1181 0.950 . S
H1176 C1182 0.949 . S
C1177 H1172 0.950 . S
C1177 C1179 1.327 . S
C1177 C1183 1.429 . S
C1178 C1170 1.574 . S
C1178 H1173 0.949 . S
C1178 C1184 1.368 . S
C1179 C1163 1.349 . S
C1179 H1171 0.950 . S
C1179 C1177 1.327 . S
C1180 C1168 1.349 . S
C1180 H1174 0.950 . S
C1180 C1181 1.327 . S
C1181 H1175 0.950 . S
C1181 C1180 1.327 . S
C1181 C1185 1.429 . S
C1182 C1165 1.574 . S
C1182 H1176 0.949 . S
C1182 C1186 1.368 . S
C1183 C1164 1.429 . S
C1183 C1177 1.429 . S
C1183 C1184 1.523 . S
C1184 C1165 1.368 . S
C1184 C1178 1.368 . S
C1184 C1183 1.523 . S
C1185 C1169 1.429 . S
C1185 C1181 1.429 . S
C1185 C1186 1.523 . S
C1186 C1170 1.368 . S
C1186 C1182 1.368 . S
C1186 C1185 1.523 . S
H1187 C1162 0.950 . S
H1188 C1164 0.950 . S
H1189 C1165 0.949 . S
H1190 C1167 0.950 . S
H1191 C1169 0.950 . S
C1192 C1193 1.349 . S
C1192 C1194 1.327 . S
C1192 H1217 0.950 . S
C1193 C1192 1.349 . S
C1193 C1209 1.349 . S
C1194 C1192 1.327 . S
C1194 C1213 1.429 . S
C1194 H1218 0.950 . S
C1195 C1212 1.574 1_556 S
C1195 C1214 1.368 . S
C1195 H1219 0.949 1_556 S
H1196 C1200 0.941 1_565 S
C1197 C1198 1.349 . S
C1197 C1199 1.327 . S
C1197 H1220 0.950 . S
C1198 C1197 1.349 . S
C1198 C1210 1.347 1_554 S
C1199 C1197 1.327 . S
C1199 C1215 1.429 . S
C1199 H1221 0.950 . S
C1200 H1196 0.941 1_545 S
C1200 C1208 1.574 . S
C1200 C1216 1.368 . S
H1201 C1209 0.950 . S
H1202 C1207 0.950 . S
H1203 C1208 0.949 . S
H1204 C1210 0.951 . S
H1205 C1211 0.950 . S
H1206 C1212 0.949 . S
C1207 H1202 0.950 . S
C1207 C1209 1.327 . S
C1207 C1213 1.429 . S
C1208 C1200 1.574 . S
C1208 H1203 0.949 . S
C1208 C1214 1.368 . S
C1209 C1193 1.349 . S
C1209 H1201 0.950 . S
C1209 C1207 1.327 . S
C1210 C1198 1.347 1_556 S
C1210 H1204 0.951 . S
C1210 C1211 1.328 . S
C1211 H1205 0.950 . S
C1211 C1210 1.328 . S
C1211 C1215 1.429 1_556 S
C1212 C1195 1.574 1_554 S
C1212 H1206 0.949 . S
C1212 C1216 1.368 1_554 S
C1213 C1194 1.429 . S
C1213 C1207 1.429 . S
C1213 C1214 1.523 . S
C1214 C1195 1.368 . S
C1214 C1208 1.368 . S
C1214 C1213 1.523 . S
C1215 C1199 1.429 . S
C1215 C1211 1.429 1_554 S
C1215 C1216 1.523 1_564 S
C1216 C1200 1.368 . S
C1216 C1212 1.368 1_556 S
C1216 C1215 1.523 1_546 S
H1217 C1192 0.950 . S
H1218 C1194 0.950 . S
H1219 C1195 0.949 1_554 S
H1220 C1197 0.950 . S
H1221 C1199 0.950 . S
C1222 C1223 1.349 . S
C1222 C1224 1.327 . S
C1222 H1247 0.950 . S
C1223 C1222 1.349 . S
C1223 C1239 1.349 . S
C1224 C1222 1.327 . S
C1224 C1243 1.429 . S
C1224 H1248 0.950 . S
C1225 C1242 1.574 . S
C1225 C1244 1.368 . S
C1225 H1249 0.949 . S
H1226 C1230 0.949 . S
C1227 C1228 1.351 . S
C1227 C1229 1.326 1_556 S
C1227 H1250 0.949 1_556 S
C1228 C1227 1.351 . S
C1228 C1240 1.349 . S
C1229 C1227 1.326 1_554 S
C1229 C1245 1.429 1_554 S
C1229 H1251 0.950 . S
C1230 H1226 0.949 . S
C1230 C1238 1.574 1_556 S
C1230 C1246 1.368 1_556 S
H1231 C1239 0.950 . S
H1232 C1237 0.950 . S
H1233 C1238 0.949 1_556 S
H1234 C1240 0.950 . S
H1235 C1241 0.950 . S
H1236 C1242 0.964 . S
C1237 H1232 0.950 . S
C1237 C1239 1.327 . S
C1237 C1243 1.429 . S
C1238 C1230 1.574 1_554 S
C1238 H1233 0.949 1_554 S
C1238 C1244 1.368 . S
C1239 C1223 1.349 . S
C1239 H1231 0.950 . S
C1239 C1237 1.327 . S
C1240 C1228 1.349 . S
C1240 H1234 0.950 . S
C1240 C1241 1.327 . S
C1241 H1235 0.950 . S
C1241 C1240 1.327 . S
C1241 C1245 1.429 . S
C1242 C1225 1.574 . S
C1242 H1236 0.964 . S
C1242 C1246 1.368 . S
C1243 C1224 1.429 . S
C1243 C1237 1.429 . S
C1243 C1244 1.523 . S
C1244 C1225 1.368 . S
C1244 C1238 1.368 . S
C1244 C1243 1.523 . S
C1245 C1229 1.429 1_556 S
C1245 C1241 1.429 . S
C1245 C1246 1.523 1_656 S
C1246 C1230 1.368 1_554 S
C1246 C1242 1.368 . S
C1246 C1245 1.523 1_454 S
H1247 C1222 0.950 . S
H1248 C1224 0.950 . S
H1249 C1225 0.949 . S
H1250 C1227 0.949 1_554 S
H1251 C1229 0.950 . S
C1252 C1253 1.349 . S
C1252 C1254 1.327 . S
C1252 H1277 0.950 . S
C1253 C1252 1.349 . S
C1253 C1269 1.349 . S
C1254 C1252 1.327 . S
C1254 C1273 1.429 . S
C1254 H1278 0.950 . S
C1255 C1272 1.574 . S
C1255 C1274 1.368 . S
C1255 H1279 0.949 1_565 S
H1256 C1260 0.949 . S
C1257 C1258 1.349 . S
C1257 C1259 1.327 . S
C1257 H1280 0.950 . S
C1258 C1257 1.349 . S
C1258 C1270 1.349 . S
C1259 C1257 1.327 . S
C1259 C1275 1.429 . S
C1259 H1281 0.950 . S
C1260 H1256 0.949 . S
C1260 C1268 1.547 1_556 S
C1260 C1276 1.368 . S
H1261 C1269 0.930 1_556 S
H1262 C1267 0.950 . S
H1263 C1268 1.003 . S
H1264 C1270 0.950 . S
H1265 C1271 0.950 . S
H1266 C1272 0.949 . S
C1267 H1262 0.950 . S
C1267 C1269 1.327 1_556 S
C1267 C1273 1.429 1_556 S
C1268 C1260 1.547 1_554 S
C1268 H1263 1.003 . S
C1268 C1274 1.340 1_554 S
C1269 C1253 1.349 . S
C1269 H1261 0.930 1_554 S
C1269 C1267 1.327 1_554 S
C1270 C1258 1.349 . S
C1270 H1264 0.950 . S
C1270 C1271 1.327 . S
C1271 H1265 0.950 . S
C1271 C1270 1.327 . S
C1271 C1275 1.429 . S
C1272 C1255 1.574 . S
C1272 H1266 0.949 . S
C1272 C1276 1.368 . S
C1273 C1254 1.429 . S
C1273 C1267 1.429 1_554 S
C1273 C1274 1.523 1_544 S
C1274 C1255 1.368 . S
C1274 C1268 1.340 1_556 S
C1274 C1273 1.523 1_566 S
C1275 C1259 1.429 . S
C1275 C1271 1.429 . S
C1275 C1276 1.523 . S
C1276 C1260 1.368 . S
C1276 C1272 1.368 . S
C1276 C1275 1.523 . S
H1277 C1252 0.950 . S
H1278 C1254 0.950 . S
H1279 C1255 0.949 1_545 S
H1280 C1257 0.950 . S
H1281 C1259 0.950 . S
C1282 C1283 1.349 . S
C1282 C1284 1.327 . S
C1282 H1307 0.950 . S
C1283 C1282 1.349 . S
C1283 C1299 1.349 . S
C1284 C1282 1.327 . S
C1284 C1303 1.429 . S
C1284 H1308 0.950 . S
C1285 C1302 1.574 . S
C1285 C1304 1.368 . S
C1285 H1309 0.949 1_655 S
H1286 C1290 0.949 . S
C1287 C1288 1.349 . S
C1287 C1289 1.327 . S
C1287 H1310 0.950 . S
C1288 C1287 1.349 . S
C1288 C1300 1.349 . S
C1289 C1287 1.327 . S
C1289 C1305 1.429 . S
C1289 H1311 0.950 . S
C1290 H1286 0.949 . S
C1290 C1298 1.574 . S
C1290 C1306 1.368 . S
H1291 C1299 0.950 . S
H1292 C1297 0.921 1_554 S
H1293 C1298 0.913 1_556 S
H1294 C1300 0.950 . S
H1295 C1301 0.950 . S
H1296 C1302 0.949 . S
C1297 H1292 0.921 1_556 S
C1297 C1299 1.358 . S
C1297 C1303 1.432 . S
C1298 C1290 1.574 . S
C1298 H1293 0.913 1_554 S
C1298 C1304 1.368 . S
C1299 C1283 1.349 . S
C1299 H1291 0.950 . S
C1299 C1297 1.358 . S
C1300 C1288 1.349 . S
C1300 H1294 0.950 . S
C1300 C1301 1.327 . S
C1301 H1295 0.950 . S
C1301 C1300 1.327 . S
C1301 C1305 1.429 . S
C1302 C1285 1.574 . S
C1302 H1296 0.949 . S
C1302 C1306 1.368 . S
C1303 C1284 1.429 . S
C1303 C1297 1.432 . S
C1303 C1304 1.523 1_456 S
C1304 C1285 1.368 . S
C1304 C1298 1.368 . S
C1304 C1303 1.523 1_654 S
C1305 C1289 1.429 . S
C1305 C1301 1.429 . S
C1305 C1306 1.523 . S
C1306 C1290 1.368 . S
C1306 C1302 1.368 . S
C1306 C1305 1.523 . S
H1307 C1282 0.950 . S
H1308 C1284 0.950 . S
H1309 C1285 0.949 1_455 S
H1310 C1287 0.950 . S
H1311 C1289 0.950 . S
C1312 C1313 1.349 . S
C1312 C1314 1.327 . S
C1312 H1337 0.950 . S
C1313 C1312 1.349 . S
C1313 C1329 1.349 . S
C1314 C1312 1.327 . S
C1314 C1333 1.429 . S
C1314 H1338 0.950 . S
C1315 C1332 1.574 . S
C1315 C1334 1.368 . S
C1315 H1339 0.949 1_565 S
H1316 C1320 0.949 . S
C1317 C1318 1.349 . S
C1317 C1319 1.327 . S
C1317 H1340 0.950 . S
C1318 C1317 1.349 . S
C1318 C1330 1.349 . S
C1319 C1317 1.327 . S
C1319 C1335 1.429 . S
C1319 H1341 0.950 . S
C1320 H1316 0.949 . S
C1320 C1328 1.574 . S
C1320 C1336 1.368 . S
H1321 C1329 0.950 . S
H1322 C1327 0.950 . S
H1323 C1328 0.949 . S
H1324 C1330 0.950 . S
H1325 C1331 0.950 . S
H1326 C1332 0.949 . S
C1327 H1322 0.950 . S
C1327 C1329 1.327 . S
C1327 C1333 1.429 . S
C1328 C1320 1.574 . S
C1328 H1323 0.949 . S
C1328 C1334 1.368 . S
C1329 C1313 1.349 . S
C1329 H1321 0.950 . S
C1329 C1327 1.327 . S
C1330 C1318 1.349 . S
C1330 H1324 0.950 . S
C1330 C1331 1.327 . S
C1331 H1325 0.950 . S
C1331 C1330 1.327 . S
C1331 C1335 1.429 . S
C1332 C1315 1.574 . S
C1332 H1326 0.949 . S
C1332 C1336 1.368 . S
C1333 C1314 1.429 . S
C1333 C1327 1.429 . S
C1333 C1334 1.523 1_545 S
C1334 C1315 1.368 . S
C1334 C1328 1.368 . S
C1334 C1333 1.523 1_565 S
C1335 C1319 1.429 . S
C1335 C1331 1.429 . S
C1335 C1336 1.523 . S
C1336 C1320 1.368 . S
C1336 C1332 1.368 . S
C1336 C1335 1.523 . S
H1337 C1312 0.950 . S
H1338 C1314 0.950 . S
H1339 C1315 0.949 1_545 S
H1340 C1317 0.950 . S
H1341 C1319 0.950 . S
C1342 C1343 1.349 . S
C1342 C1344 1.327 . S
C1342 H1367 0.950 . S
C1343 C1342 1.349 . S
C1343 C1359 1.349 . S
C1344 C1342 1.327 . S
C1344 C1363 1.429 . S
C1344 H1368 0.950 . S
C1345 C1362 1.574 . S
C1345 C1364 1.368 . S
C1345 H1369 0.949 . S
H1346 C1350 0.949 . S
C1347 C1348 1.349 . S
C1347 C1349 1.327 . S
C1347 H1370 0.950 . S
C1348 C1347 1.349 . S
C1348 C1360 1.349 . S
C1349 C1347 1.327 . S
C1349 C1365 1.429 . S
C1349 H1371 0.950 . S
C1350 H1346 0.949 . S
C1350 C1358 1.574 . S
C1350 C1366 1.368 . S
H1351 C1359 0.950 . S
H1352 C1357 0.950 . S
H1353 C1358 0.949 . S
H1354 C1360 0.950 . S
H1355 C1361 0.950 . S
H1356 C1362 0.949 . S
C1357 H1352 0.950 . S
C1357 C1359 1.327 . S
C1357 C1363 1.429 . S
C1358 C1350 1.574 . S
C1358 H1353 0.949 . S
C1358 C1364 1.368 . S
C1359 C1343 1.349 . S
C1359 H1351 0.950 . S
C1359 C1357 1.327 . S
C1360 C1348 1.349 . S
C1360 H1354 0.950 . S
C1360 C1361 1.327 . S
C1361 H1355 0.950 . S
C1361 C1360 1.327 . S
C1361 C1365 1.429 . S
C1362 C1345 1.574 . S
C1362 H1356 0.949 . S
C1362 C1366 1.368 . S
C1363 C1344 1.429 . S
C1363 C1357 1.429 . S
C1363 C1364 1.523 . S
C1364 C1345 1.368 . S
C1364 C1358 1.368 . S
C1364 C1363 1.523 . S
C1365 C1349 1.429 . S
C1365 C1361 1.429 . S
C1365 C1366 1.523 1_455 S
C1366 C1350 1.368 . S
C1366 C1362 1.368 . S
C1366 C1365 1.523 1_655 S
H1367 C1342 0.950 . S
H1368 C1344 0.950 . S
H1369 C1345 0.949 . S
H1370 C1347 0.950 . S
H1371 C1349 0.950 . S
C1372 C1373 1.349 . S
C1372 C1374 1.327 . S
C1372 H1397 0.950 . S
C1373 C1372 1.349 . S
C1373 C1389 1.349 . S
C1374 C1372 1.327 . S
C1374 C1393 1.429 . S
C1374 H1398 0.950 . S
C1375 C1392 1.574 . S
C1375 C1394 1.368 . S
C1375 H1399 0.949 . S
H1376 C1380 0.949 1_565 S
C1377 C1378 1.349 . S
C1377 C1379 1.327 . S
C1377 H1400 0.950 . S
C1378 C1377 1.349 . S
C1378 C1390 1.349 . S
C1379 C1377 1.327 . S
C1379 C1395 1.429 . S
C1379 H1401 0.950 . S
C1380 H1376 0.949 1_545 S
C1380 C1388 1.574 . S
C1380 C1396 1.368 . S
H1381 C1389 0.950 . S
H1382 C1387 0.950 . S
H1383 C1388 0.949 . S
H1384 C1390 0.950 . S
H1385 C1391 0.950 . S
H1386 C1392 0.949 . S
C1387 H1382 0.950 . S
C1387 C1389 1.327 . S
C1387 C1393 1.429 . S
C1388 C1380 1.574 . S
C1388 H1383 0.949 . S
C1388 C1394 1.368 . S
C1389 C1373 1.349 . S
C1389 H1381 0.950 . S
C1389 C1387 1.327 . S
C1390 C1378 1.349 . S
C1390 H1384 0.950 . S
C1390 C1391 1.327 . S
C1391 H1385 0.950 . S
C1391 C1390 1.327 . S
C1391 C1395 1.429 . S
C1392 C1375 1.574 . S
C1392 H1386 0.949 . S
C1392 C1396 1.368 . S
C1393 C1374 1.429 . S
C1393 C1387 1.429 . S
C1393 C1394 1.523 . S
C1394 C1375 1.368 . S
C1394 C1388 1.368 . S
C1394 C1393 1.523 . S
C1395 C1379 1.429 . S
C1395 C1391 1.429 . S
C1395 C1396 1.523 1_565 S
C1396 C1380 1.368 . S
C1396 C1392 1.368 . S
C1396 C1395 1.523 1_545 S
H1397 C1372 0.950 . S
H1398 C1374 0.950 . S
H1399 C1375 0.949 . S
H1400 C1377 0.950 . S
H1401 C1379 0.950 . S
C1402 C1403 1.349 . S
C1402 C1404 1.327 . S
C1402 H1427 0.950 . S
C1403 C1402 1.349 . S
C1403 C1419 1.349 . S
C1404 C1402 1.327 . S
C1404 C1423 1.429 . S
C1404 H1428 0.950 . S
C1405 C1422 1.574 . S
C1405 C1424 1.368 . S
C1405 H1429 0.949 . S
H1406 C1410 0.949 . S
C1407 C1408 1.349 . S
C1407 C1409 1.327 . S
C1407 H1430 0.950 . S
C1408 C1407 1.349 . S
C1408 C1420 1.349 . S
C1409 C1407 1.327 . S
C1409 C1425 1.429 . S
C1409 H1431 0.950 . S
C1410 H1406 0.949 . S
C1410 C1418 1.574 . S
C1410 C1426 1.368 . S
H1411 C1419 0.950 . S
H1412 C1417 0.950 . S
H1413 C1418 0.949 1_655 S
H1414 C1420 0.950 . S
H1415 C1421 0.950 . S
H1416 C1422 0.949 . S
C1417 H1412 0.950 . S
C1417 C1419 1.327 . S
C1417 C1423 1.429 . S
C1418 C1410 1.574 . S
C1418 H1413 0.949 1_455 S
C1418 C1424 1.368 . S
C1419 C1403 1.349 . S
C1419 H1411 0.950 . S
C1419 C1417 1.327 . S
C1420 C1408 1.349 . S
C1420 H1414 0.950 . S
C1420 C1421 1.327 . S
C1421 H1415 0.950 . S
C1421 C1420 1.327 . S
C1421 C1425 1.429 . S
C1422 C1405 1.574 . S
C1422 H1416 0.949 . S
C1422 C1426 1.368 . S
C1423 C1404 1.429 . S
C1423 C1417 1.429 . S
C1423 C1424 1.523 1_655 S
C1424 C1405 1.368 . S
C1424 C1418 1.368 . S
C1424 C1423 1.523 1_455 S
C1425 C1409 1.429 . S
C1425 C1421 1.429 . S
C1425 C1426 1.523 . S
C1426 C1410 1.368 . S
C1426 C1422 1.368 . S
C1426 C1425 1.523 . S
H1427 C1402 0.950 . S
H1428 C1404 0.950 . S
H1429 C1405 0.949 . S
H1430 C1407 0.950 . S
H1431 C1409 0.950 . S
C1432 C1433 1.349 . S
C1432 C1434 1.327 . S
C1432 H1457 0.950 . S
C1433 C1432 1.349 . S
C1433 C1449 1.349 . S
C1434 C1432 1.327 . S
C1434 C1453 1.429 . S
C1434 H1458 0.950 . S
C1435 C1452 1.574 . S
C1435 C1454 1.368 . S
C1435 H1459 0.949 . S
H1436 C1440 0.949 . S
C1437 C1438 1.349 . S
C1437 C1439 1.327 . S
C1437 H1460 0.950 . S
C1438 C1437 1.349 . S
C1438 C1450 1.349 . S
C1439 C1437 1.327 . S
C1439 C1455 1.429 . S
C1439 H1461 0.950 . S
C1440 H1436 0.949 . S
C1440 C1448 1.574 . S
C1440 C1456 1.368 . S
H1441 C1449 0.950 . S
H1442 C1447 0.950 . S
H1443 C1448 0.949 . S
H1444 C1450 0.950 . S
H1445 C1451 0.950 . S
H1446 C1452 0.949 . S
C1447 H1442 0.950 . S
C1447 C1449 1.327 . S
C1447 C1453 1.429 . S
C1448 C1440 1.574 . S
C1448 H1443 0.949 . S
C1448 C1454 1.368 . S
C1449 C1433 1.349 . S
C1449 H1441 0.950 . S
C1449 C1447 1.327 . S
C1450 C1438 1.349 . S
C1450 H1444 0.950 . S
C1450 C1451 1.327 . S
C1451 H1445 0.950 . S
C1451 C1450 1.327 . S
C1451 C1455 1.429 . S
C1452 C1435 1.574 . S
C1452 H1446 0.949 . S
C1452 C1456 1.368 . S
C1453 C1434 1.429 . S
C1453 C1447 1.429 . S
C1453 C1454 1.523 . S
C1454 C1435 1.368 . S
C1454 C1448 1.368 . S
C1454 C1453 1.523 . S
C1455 C1439 1.429 . S
C1455 C1451 1.429 . S
C1455 C1456 1.523 . S
C1456 C1440 1.368 . S
C1456 C1452 1.368 . S
C1456 C1455 1.523 . S
H1457 C1432 0.950 . S
H1458 C1434 0.950 . S
H1459 C1435 0.949 . S
H1460 C1437 0.950 . S
H1461 C1439 0.950 . S
C1462 C1463 1.349 . S
C1462 C1464 1.327 . S
C1462 H1487 0.950 . S
C1463 C1462 1.349 . S
C1463 C1479 1.349 . S
C1464 C1462 1.327 . S
C1464 C1483 1.429 . S
C1464 H1488 0.950 . S
C1465 C1482 1.574 . S
C1465 C1484 1.368 . S
C1465 H1489 0.949 . S
H1466 C1470 0.949 . S
C1467 C1468 1.349 . S
C1467 C1469 1.327 . S
C1467 H1490 0.950 . S
C1468 C1467 1.349 . S
C1468 C1480 1.349 . S
C1469 C1467 1.327 . S
C1469 C1485 1.429 . S
C1469 H1491 0.950 . S
C1470 H1466 0.949 . S
C1470 C1478 1.574 . S
C1470 C1486 1.368 . S
H1471 C1479 0.950 . S
H1472 C1477 0.950 . S
H1473 C1478 0.949 . S
H1474 C1480 0.950 . S
H1475 C1481 0.950 . S
H1476 C1482 0.949 . S
C1477 H1472 0.950 . S
C1477 C1479 1.327 . S
C1477 C1483 1.429 . S
C1478 C1470 1.574 . S
C1478 H1473 0.949 . S
C1478 C1484 1.368 . S
C1479 C1463 1.349 . S
C1479 H1471 0.950 . S
C1479 C1477 1.327 . S
C1480 C1468 1.349 . S
C1480 H1474 0.950 . S
C1480 C1481 1.327 . S
C1481 H1475 0.950 . S
C1481 C1480 1.327 . S
C1481 C1485 1.429 . S
C1482 C1465 1.574 . S
C1482 H1476 0.949 . S
C1482 C1486 1.368 . S
C1483 C1464 1.429 . S
C1483 C1477 1.429 . S
C1483 C1484 1.523 . S
C1484 C1465 1.368 . S
C1484 C1478 1.368 . S
C1484 C1483 1.523 . S
C1485 C1469 1.429 . S
C1485 C1481 1.429 . S
C1485 C1486 1.523 . S
C1486 C1470 1.368 . S
C1486 C1482 1.368 . S
C1486 C1485 1.523 . S
H1487 C1462 0.950 . S
H1488 C1464 0.950 . S
H1489 C1465 0.949 . S
H1490 C1467 0.950 . S
H1491 C1469 0.950 . S
C1492 C1493 1.349 . S
C1492 C1494 1.327 . S
C1492 H1517 0.950 . S
C1493 C1492 1.349 . S
C1493 C1509 1.349 . S
C1494 C1492 1.327 . S
C1494 C1513 1.429 . S
C1494 H1518 0.950 . S
C1495 C1512 1.574 . S
C1495 C1514 1.368 . S
C1495 H1519 0.949 . S
H1496 C1500 0.949 . S
C1497 C1498 1.349 . S
C1497 C1499 1.327 . S
C1497 H1520 0.950 . S
C1498 C1497 1.349 . S
C1498 C1510 1.349 . S
C1499 C1497 1.327 . S
C1499 C1515 1.429 . S
C1499 H1521 0.950 . S
C1500 H1496 0.949 . S
C1500 C1508 1.574 . S
C1500 C1516 1.368 . S
H1501 C1509 0.950 . S
H1502 C1507 0.950 . S
H1503 C1508 0.949 . S
H1504 C1510 0.950 . S
H1505 C1511 0.950 . S
H1506 C1512 0.949 . S
C1507 H1502 0.950 . S
C1507 C1509 1.327 . S
C1507 C1513 1.429 . S
C1508 C1500 1.574 . S
C1508 H1503 0.949 . S
C1508 C1514 1.368 . S
C1509 C1493 1.349 . S
C1509 H1501 0.950 . S
C1509 C1507 1.327 . S
C1510 C1498 1.349 . S
C1510 H1504 0.950 . S
C1510 C1511 1.327 . S
C1511 H1505 0.950 . S
C1511 C1510 1.327 . S
C1511 C1515 1.429 . S
C1512 C1495 1.574 . S
C1512 H1506 0.949 . S
C1512 C1516 1.368 . S
C1513 C1494 1.429 . S
C1513 C1507 1.429 . S
C1513 C1514 1.523 . S
C1514 C1495 1.368 . S
C1514 C1508 1.368 . S
C1514 C1513 1.523 . S
C1515 C1499 1.429 . S
C1515 C1511 1.429 . S
C1515 C1516 1.523 . S
C1516 C1500 1.368 . S
C1516 C1512 1.368 . S
C1516 C1515 1.523 . S
H1517 C1492 0.950 . S
H1518 C1494 0.950 . S
H1519 C1495 0.949 . S
H1520 C1497 0.950 . S
H1521 C1499 0.950 . S
C1522 C1523 1.349 . S
C1522 C1524 1.327 . S
C1522 H1547 0.950 . S
C1523 C1522 1.349 . S
C1523 C1539 1.349 . S
C1524 C1522 1.327 . S
C1524 C1543 1.429 . S
C1524 H1548 0.950 . S
C1525 C1542 1.574 . S
C1525 C1544 1.368 . S
C1525 H1549 0.949 . S
H1526 C1530 0.949 . S
C1527 C1528 1.349 . S
C1527 C1529 1.327 . S
C1527 H1550 0.950 . S
C1528 C1527 1.349 . S
C1528 C1540 1.349 . S
C1529 C1527 1.327 . S
C1529 C1545 1.429 . S
C1529 H1551 0.950 . S
C1530 H1526 0.949 . S
C1530 C1538 1.574 . S
C1530 C1546 1.368 . S
H1531 C1539 0.950 . S
H1532 C1537 0.950 . S
H1533 C1538 0.949 . S
H1534 C1540 0.950 . S
H1535 C1541 0.950 . S
H1536 C1542 0.949 . S
C1537 H1532 0.950 . S
C1537 C1539 1.327 . S
C1537 C1543 1.429 . S
C1538 C1530 1.574 . S
C1538 H1533 0.949 . S
C1538 C1544 1.368 . S
C1539 C1523 1.349 . S
C1539 H1531 0.950 . S
C1539 C1537 1.327 . S
C1540 C1528 1.349 . S
C1540 H1534 0.950 . S
C1540 C1541 1.327 . S
C1541 H1535 0.950 . S
C1541 C1540 1.327 . S
C1541 C1545 1.429 . S
C1542 C1525 1.574 . S
C1542 H1536 0.949 . S
C1542 C1546 1.368 . S
C1543 C1524 1.429 . S
C1543 C1537 1.429 . S
C1543 C1544 1.523 . S
C1544 C1525 1.368 . S
C1544 C1538 1.368 . S
C1544 C1543 1.523 . S
C1545 C1529 1.429 . S
C1545 C1541 1.429 . S
C1545 C1546 1.523 . S
C1546 C1530 1.368 . S
C1546 C1542 1.368 . S
C1546 C1545 1.523 . S
H1547 C1522 0.950 . S
H1548 C1524 0.950 . S
H1549 C1525 0.949 . S
H1550 C1527 0.950 . S
H1551 C1529 0.950 . S
C1552 C1553 1.349 . S
C1552 C1554 1.327 . S
C1552 H1577 0.950 . S
C1553 C1552 1.349 . S
C1553 C1569 1.349 . S
C1554 C1552 1.327 . S
C1554 C1573 1.429 . S
C1554 H1578 0.950 . S
C1555 C1572 1.575 1_445 S
C1555 C1574 1.368 . S
C1555 H1579 0.949 . S
H1556 C1560 0.949 . S
C1557 C1558 1.349 . S
C1557 C1559 1.327 . S
C1557 H1580 0.950 . S
C1558 C1557 1.349 . S
C1558 C1570 1.349 . S
C1559 C1557 1.327 . S
C1559 C1575 1.429 . S
C1559 H1581 0.950 . S
C1560 H1556 0.949 . S
C1560 C1568 1.575 1_665 S
C1560 C1576 1.368 . S
H1561 C1569 0.950 . S
H1562 C1567 0.950 . S
H1563 C1568 0.949 . S
H1564 C1570 0.950 . S
H1565 C1571 0.950 . S
H1566 C1572 0.949 . S
C1567 H1562 0.950 . S
C1567 C1569 1.327 . S
C1567 C1573 1.429 . S
C1568 C1560 1.575 1_445 S
C1568 H1563 0.949 . S
C1568 C1574 1.367 . S
C1569 C1553 1.349 . S
C1569 H1561 0.950 . S
C1569 C1567 1.327 . S
C1570 C1558 1.349 . S
C1570 H1564 0.950 . S
C1570 C1571 1.327 . S
C1571 H1565 0.950 . S
C1571 C1570 1.327 . S
C1571 C1575 1.429 . S
C1572 C1555 1.575 1_665 S
C1572 H1566 0.949 . S
C1572 C1576 1.367 . S
C1573 C1554 1.429 . S
C1573 C1567 1.429 . S
C1573 C1574 1.523 . S
C1574 C1555 1.368 . S
C1574 C1568 1.367 . S
C1574 C1573 1.523 . S
C1575 C1559 1.429 . S
C1575 C1571 1.429 . S
C1575 C1576 1.523 . S
C1576 C1560 1.368 . S
C1576 C1572 1.367 . S
C1576 C1575 1.523 . S
H1577 C1552 0.950 . S
H1578 C1554 0.950 . S
H1579 C1555 0.949 . S
H1580 C1557 0.950 . S
H1581 C1559 0.950 . S
C1582 C1583 1.349 . S
C1582 C1584 1.327 . S
C1582 H1607 0.950 . S
C1583 C1582 1.349 . S
C1583 C1599 1.349 . S
C1584 C1582 1.327 . S
C1584 C1603 1.429 . S
C1584 H1608 0.950 . S
C1585 C1602 1.575 1_645 S
C1585 C1604 1.368 . S
C1585 H1609 0.949 . S
H1586 C1590 0.949 . S
C1587 C1588 1.349 . S
C1587 C1589 1.327 . S
C1587 H1610 0.950 . S
C1588 C1587 1.349 . S
C1588 C1600 1.349 . S
C1589 C1587 1.327 . S
C1589 C1605 1.429 . S
C1589 H1611 0.950 . S
C1590 H1586 0.949 . S
C1590 C1598 1.575 1_465 S
C1590 C1606 1.368 . S
H1591 C1599 0.950 . S
H1592 C1597 0.950 . S
H1593 C1598 0.949 . S
H1594 C1600 0.950 . S
H1595 C1601 0.950 . S
H1596 C1602 0.949 . S
C1597 H1592 0.950 . S
C1597 C1599 1.327 . S
C1597 C1603 1.429 . S
C1598 C1590 1.575 1_645 S
C1598 H1593 0.949 . S
C1598 C1604 1.367 . S
C1599 C1583 1.349 . S
C1599 H1591 0.950 . S
C1599 C1597 1.327 . S
C1600 C1588 1.349 . S
C1600 H1594 0.950 . S
C1600 C1601 1.327 . S
C1601 H1595 0.950 . S
C1601 C1600 1.327 . S
C1601 C1605 1.429 . S
C1602 C1585 1.575 1_465 S
C1602 H1596 0.949 . S
C1602 C1606 1.367 . S
C1603 C1584 1.429 . S
C1603 C1597 1.429 . S
C1603 C1604 1.523 . S
C1604 C1585 1.368 . S
C1604 C1598 1.367 . S
C1604 C1603 1.523 . S
C1605 C1589 1.429 . S
C1605 C1601 1.429 . S
C1605 C1606 1.523 . S
C1606 C1590 1.368 . S
C1606 C1602 1.367 . S
C1606 C1605 1.523 . S
H1607 C1582 0.950 . S
H1608 C1584 0.950 . S
H1609 C1585 0.949 . S
H1610 C1587 0.950 . S
H1611 C1589 0.950 . S
C1612 C1613 1.349 . S
C1612 C1614 1.327 . S
C1612 H1637 0.950 . S
C1613 C1612 1.349 . S
C1613 C1629 1.349 . S
C1614 C1612 1.327 . S
C1614 C1633 1.429 . S
C1614 H1638 0.950 . S
C1615 C1632 1.575 1_455 S
C1615 C1634 1.367 . S
C1615 H1639 0.949 . S
H1616 C1620 0.949 . S
C1617 C1618 1.349 . S
C1617 C1619 1.327 . S
C1617 H1640 0.950 . S
C1618 C1617 1.349 . S
C1618 C1630 1.349 . S
C1619 C1617 1.327 . S
C1619 C1635 1.429 . S
C1619 H1641 0.950 . S
C1620 H1616 0.949 . S
C1620 C1628 1.575 1_655 S
C1620 C1636 1.367 . S
H1621 C1629 0.950 . S
H1622 C1627 0.950 . S
H1623 C1628 0.949 . S
H1624 C1630 0.950 . S
H1625 C1631 0.950 . S
H1626 C1632 0.949 . S
C1627 H1622 0.950 . S
C1627 C1629 1.327 . S
C1627 C1633 1.429 . S
C1628 C1620 1.575 1_455 S
C1628 H1623 0.949 . S
C1628 C1634 1.368 . S
C1629 C1613 1.349 . S
C1629 H1621 0.950 . S
C1629 C1627 1.327 . S
C1630 C1618 1.349 . S
C1630 H1624 0.950 . S
C1630 C1631 1.327 . S
C1631 H1625 0.950 . S
C1631 C1630 1.327 . S
C1631 C1635 1.429 . S
C1632 C1615 1.575 1_655 S
C1632 H1626 0.949 . S
C1632 C1636 1.368 . S
C1633 C1614 1.429 . S
C1633 C1627 1.429 . S
C1633 C1634 1.523 . S
C1634 C1615 1.367 . S
C1634 C1628 1.368 . S
C1634 C1633 1.523 . S
C1635 C1619 1.429 . S
C1635 C1631 1.429 . S
C1635 C1636 1.523 . S
C1636 C1620 1.367 . S
C1636 C1632 1.368 . S
C1636 C1635 1.523 . S
H1637 C1612 0.950 . S
H1638 C1614 0.950 . S
H1639 C1615 0.949 . S
H1640 C1617 0.950 . S
H1641 C1619 0.950 . S
C1642 C1643 1.349 . S
C1642 C1644 1.327 . S
C1642 H1667 0.950 . S
C1643 C1642 1.349 . S
C1643 C1659 1.349 . S
C1644 C1642 1.327 . S
C1644 C1663 1.429 . S
C1644 H1668 0.950 . S
C1645 C1662 1.575 1_565 S
C1645 C1664 1.368 . S
C1645 H1669 0.949 . S
H1646 C1650 0.949 . S
C1647 C1648 1.349 . S
C1647 C1649 1.327 . S
C1647 H1670 0.950 . S
C1648 C1647 1.349 . S
C1648 C1660 1.349 . S
C1649 C1647 1.327 . S
C1649 C1665 1.429 . S
C1649 H1671 0.950 . S
C1650 H1646 0.949 . S
C1650 C1658 1.575 1_545 S
C1650 C1666 1.368 . S
H1651 C1659 0.950 . S
H1652 C1657 0.950 . S
H1653 C1658 0.949 . S
H1654 C1660 0.950 . S
H1655 C1661 0.950 . S
H1656 C1662 0.949 . S
C1657 H1652 0.950 . S
C1657 C1659 1.327 . S
C1657 C1663 1.429 . S
C1658 C1650 1.575 1_565 S
C1658 H1653 0.949 . S
C1658 C1664 1.367 . S
C1659 C1643 1.349 . S
C1659 H1651 0.950 . S
C1659 C1657 1.327 . S
C1660 C1648 1.349 . S
C1660 H1654 0.950 . S
C1660 C1661 1.327 . S
C1661 H1655 0.950 . S
C1661 C1660 1.327 . S
C1661 C1665 1.429 . S
C1662 C1645 1.575 1_545 S
C1662 H1656 0.949 . S
C1662 C1666 1.367 . S
C1663 C1644 1.429 . S
C1663 C1657 1.429 . S
C1663 C1664 1.523 . S
C1664 C1645 1.368 . S
C1664 C1658 1.367 . S
C1664 C1663 1.523 . S
C1665 C1649 1.429 . S
C1665 C1661 1.429 . S
C1665 C1666 1.523 . S
C1666 C1650 1.368 . S
C1666 C1662 1.367 . S
C1666 C1665 1.523 . S
H1667 C1642 0.950 . S
H1668 C1644 0.950 . S
H1669 C1645 0.949 . S
H1670 C1647 0.950 . S
H1671 C1649 0.950 . S
C1672 C1673 1.349 . S
C1672 C1674 1.327 . S
C1672 H1697 0.950 . S
C1673 C1672 1.349 . S
C1673 C1689 1.349 . S
C1674 C1672 1.327 . S
C1674 C1693 1.429 . S
C1674 H1698 0.950 . S
C1675 C1692 1.574 . S
C1675 C1694 1.368 . S
C1675 H1699 0.949 . S
H1676 C1680 0.949 . S
C1677 C1678 1.349 . S
C1677 C1679 1.327 . S
C1677 H1700 0.950 . S
C1678 C1677 1.349 . S
C1678 C1690 1.349 . S
C1679 C1677 1.327 . S
C1679 C1695 1.429 . S
C1679 H1701 0.950 . S
C1680 H1676 0.949 . S
C1680 C1688 1.574 . S
C1680 C1696 1.368 . S
H1681 C1689 0.950 . S
H1682 C1687 0.950 . S
H1683 C1688 0.949 . S
H1684 C1690 0.950 . S
H1685 C1691 0.950 . S
H1686 C1692 0.949 . S
C1687 H1682 0.950 . S
C1687 C1689 1.327 . S
C1687 C1693 1.429 . S
C1688 C1680 1.574 . S
C1688 H1683 0.949 . S
C1688 C1694 1.368 . S
C1689 C1673 1.349 . S
C1689 H1681 0.950 . S
C1689 C1687 1.327 . S
C1690 C1678 1.349 . S
C1690 H1684 0.950 . S
C1690 C1691 1.327 . S
C1691 H1685 0.950 . S
C1691 C1690 1.327 . S
C1691 C1695 1.429 . S
C1692 C1675 1.574 . S
C1692 H1686 0.949 . S
C1692 C1696 1.368 . S
C1693 C1674 1.429 . S
C1693 C1687 1.429 . S
C1693 C1694 1.523 . S
C1694 C1675 1.368 . S
C1694 C1688 1.368 . S
C1694 C1693 1.523 . S
C1695 C1679 1.429 . S
C1695 C1691 1.429 . S
C1695 C1696 1.523 . S
C1696 C1680 1.368 . S
C1696 C1692 1.368 . S
C1696 C1695 1.523 . S
H1697 C1672 0.950 . S
H1698 C1674 0.950 . S
H1699 C1675 0.949 . S
H1700 C1677 0.950 . S
H1701 C1679 0.950 . S
C1702 C1703 1.349 . S
C1702 C1704 1.327 . S
C1702 H1727 0.950 . S
C1703 C1702 1.349 . S
C1703 C1719 1.349 . S
C1704 C1702 1.327 . S
C1704 C1723 1.429 . S
C1704 H1728 0.950 . S
C1705 C1722 1.574 . S
C1705 C1724 1.368 . S
C1705 H1729 0.949 . S
H1706 C1710 0.949 . S
C1707 C1708 1.349 . S
C1707 C1709 1.327 . S
C1707 H1730 0.950 . S
C1708 C1707 1.349 . S
C1708 C1720 1.349 . S
C1709 C1707 1.327 . S
C1709 C1725 1.429 . S
C1709 H1731 0.950 . S
C1710 H1706 0.949 . S
C1710 C1718 1.574 . S
C1710 C1726 1.368 . S
H1711 C1719 0.950 . S
H1712 C1717 0.950 . S
H1713 C1718 0.949 . S
H1714 C1720 0.950 . S
H1715 C1721 0.950 . S
H1716 C1722 0.949 . S
C1717 H1712 0.950 . S
C1717 C1719 1.327 . S
C1717 C1723 1.429 . S
C1718 C1710 1.574 . S
C1718 H1713 0.949 . S
C1718 C1724 1.368 . S
C1719 C1703 1.349 . S
C1719 H1711 0.950 . S
C1719 C1717 1.327 . S
C1720 C1708 1.349 . S
C1720 H1714 0.950 . S
C1720 C1721 1.327 . S
C1721 H1715 0.950 . S
C1721 C1720 1.327 . S
C1721 C1725 1.429 . S
C1722 C1705 1.574 . S
C1722 H1716 0.949 . S
C1722 C1726 1.368 . S
C1723 C1704 1.429 . S
C1723 C1717 1.429 . S
C1723 C1724 1.523 . S
C1724 C1705 1.368 . S
C1724 C1718 1.368 . S
C1724 C1723 1.523 . S
C1725 C1709 1.429 . S
C1725 C1721 1.429 . S
C1725 C1726 1.523 . S
C1726 C1710 1.368 . S
C1726 C1722 1.368 . S
C1726 C1725 1.523 . S
H1727 C1702 0.950 . S
H1728 C1704 0.950 . S
H1729 C1705 0.949 . S
H1730 C1707 0.950 . S
H1731 C1709 0.950 . S
C1732 C1733 1.349 . S
C1732 C1734 1.327 . S
C1732 H1757 0.950 . S
C1733 C1732 1.349 . S
C1733 C1749 1.349 . S
C1734 C1732 1.327 . S
C1734 C1753 1.429 . S
C1734 H1758 0.950 . S
C1735 C1752 1.574 1_565 S
C1735 C1754 1.368 . S
C1735 H1759 0.949 . S
H1736 C1740 0.949 . S
C1737 C1738 1.349 . S
C1737 C1739 1.327 . S
C1737 H1760 0.950 . S
C1738 C1737 1.349 . S
C1738 C1750 1.349 . S
C1739 C1737 1.327 . S
C1739 C1755 1.429 . S
C1739 H1761 0.950 . S
C1740 H1736 0.949 . S
C1740 C1748 1.574 1_545 S
C1740 C1756 1.368 . S
H1741 C1749 0.950 . S
H1742 C1747 0.950 . S
H1743 C1748 0.949 . S
H1744 C1750 0.950 . S
H1745 C1751 0.950 . S
H1746 C1752 0.949 . S
C1747 H1742 0.950 . S
C1747 C1749 1.327 . S
C1747 C1753 1.429 . S
C1748 C1740 1.574 1_565 S
C1748 H1743 0.949 . S
C1748 C1754 1.368 . S
C1749 C1733 1.349 . S
C1749 H1741 0.950 . S
C1749 C1747 1.327 . S
C1750 C1738 1.349 . S
C1750 H1744 0.950 . S
C1750 C1751 1.327 . S
C1751 H1745 0.950 . S
C1751 C1750 1.327 . S
C1751 C1755 1.429 . S
C1752 C1735 1.574 1_545 S
C1752 H1746 0.949 . S
C1752 C1756 1.368 . S
C1753 C1734 1.429 . S
C1753 C1747 1.429 . S
C1753 C1754 1.523 . S
C1754 C1735 1.368 . S
C1754 C1748 1.368 . S
C1754 C1753 1.523 . S
C1755 C1739 1.429 . S
C1755 C1751 1.429 . S
C1755 C1756 1.523 . S
C1756 C1740 1.368 . S
C1756 C1752 1.368 . S
C1756 C1755 1.523 . S
H1757 C1732 0.950 . S
H1758 C1734 0.950 . S
H1759 C1735 0.949 . S
H1760 C1737 0.950 . S
H1761 C1739 0.950 . S
C1762 C1763 1.349 . S
C1762 C1764 1.327 . S
C1762 H1787 0.950 . S
C1763 C1762 1.349 . S
C1763 C1779 1.349 . S
C1764 C1762 1.327 . S
C1764 C1783 1.429 . S
C1764 H1788 0.950 . S
C1765 C1782 1.574 1_655 S
C1765 C1784 1.368 . S
C1765 H1789 0.949 . S
H1766 C1770 0.949 . S
C1767 C1768 1.349 . S
C1767 C1769 1.327 . S
C1767 H1790 0.950 . S
C1768 C1767 1.349 . S
C1768 C1780 1.349 . S
C1769 C1767 1.327 . S
C1769 C1785 1.429 . S
C1769 H1791 0.950 . S
C1770 H1766 0.949 . S
C1770 C1778 1.574 1_455 S
C1770 C1786 1.368 . S
H1771 C1779 0.950 . S
H1772 C1777 0.950 . S
H1773 C1778 0.949 . S
H1774 C1780 0.950 . S
H1775 C1781 0.950 . S
H1776 C1782 0.949 . S
C1777 H1772 0.950 . S
C1777 C1779 1.327 . S
C1777 C1783 1.429 . S
C1778 C1770 1.574 1_655 S
C1778 H1773 0.949 . S
C1778 C1784 1.368 . S
C1779 C1763 1.349 . S
C1779 H1771 0.950 . S
C1779 C1777 1.327 . S
C1780 C1768 1.349 . S
C1780 H1774 0.950 . S
C1780 C1781 1.327 . S
C1781 H1775 0.950 . S
C1781 C1780 1.327 . S
C1781 C1785 1.429 . S
C1782 C1765 1.574 1_455 S
C1782 H1776 0.949 . S
C1782 C1786 1.368 . S
C1783 C1764 1.429 . S
C1783 C1777 1.429 . S
C1783 C1784 1.523 . S
C1784 C1765 1.368 . S
C1784 C1778 1.368 . S
C1784 C1783 1.523 . S
C1785 C1769 1.429 . S
C1785 C1781 1.429 . S
C1785 C1786 1.523 . S
C1786 C1770 1.368 . S
C1786 C1782 1.368 . S
C1786 C1785 1.523 . S
H1787 C1762 0.950 . S
H1788 C1764 0.950 . S
H1789 C1765 0.949 . S
H1790 C1767 0.950 . S
H1791 C1769 0.950 . S
C353 C247 1.399 . S
C358 C9 1.377 . S
C383 C28 1.377 . S
C388 C182 1.399 . S
C413 C49 1.377 . S
C418 C207 1.399 . S
C443 C227 1.399 . S
C448 C73 1.377 . S
C473 C93 1.377 . S
C478 C119 1.399 . S
C503 C116 1.377 . S
C508 C138 1.399 . S
C533 C159 1.399 . S
C538 C141 1.377 . S
C563 C95 1.399 . S
C568 C161 1.377 . S
C593 C185 1.377 . S
C598 C71 1.399 . S
C623 C204 1.377 . S
C628 C6 1.399 . S
C653 C31 1.399 . S
C658 C225 1.377 . S
C683 C249 1.377 . S
C688 C51 1.399 . S
C713 C269 1.377 . S
C718 C295 1.399 . S
C743 C314 1.399 . S
C748 C292 1.377 . S
C773 C335 1.399 . S
C778 C317 1.377 . S
C803 C337 1.377 . S
C808 C271 1.399 . S
C833 C4 1.423 . S
C838 C312 1.423 . S
C863 C30 1.423 . S
C868 C334 1.423 . S
C893 C52 1.423 . S
C898 C272 1.423 . S
C923 C70 1.423 . S
C928 C294 1.423 . S
C953 C96 1.423 . S
C958 C228 1.423 . S
C983 C118 1.423 . S
C988 C246 1.423 . S
C1013 C136 1.423 . S
C1018 C180 1.423 . S
C1043 C158 1.423 . S
C1048 C206 1.423 . S
C1073 C5 1.024 . S
C1078 C251 1.029 . S
C1103 C29 1.024 . S
C1108 C183 1.029 . S
C1133 C203 1.029 . S
C1138 C53 1.024 . S
C1163 C72 1.024 . S
C1168 C226 1.029 . S
C1193 C97 1.024 . S
C1198 C115 1.029 . S
C1223 C117 1.024 . S
C1228 C139 1.029 . S
C1253 C163 1.029 . S
C1258 C137 1.024 . S
C1283 C94 1.029 . S
C1288 C160 1.024 . S
C1313 C75 1.029 . S
C1318 C181 1.024 . S
C1343 C205 1.024 . S
C1348 C7 1.029 . S
C1373 C229 1.024 . S
C1378 C27 1.029 . S
C1403 C50 1.029 . S
C1408 C248 1.024 . S
C1433 C273 1.024 . S
C1438 C291 1.029 . S
C1463 C293 1.024 . S
C1468 C315 1.029 . S
C1493 C339 1.029 . S
C1498 C313 1.024 . S
C1523 C270 1.029 . S
C1528 C336 1.024 . S
C1553 C8 1.656 . S
C1558 C48 1.656 . S
C1583 C74 1.656 . S
C1588 C26 1.656 . S
C1613 C92 1.656 . S
C1618 C140 1.656 . S
C1643 C114 1.656 . S
C1648 C162 1.656 . S
C1673 C184 1.656 . S
C1678 C224 1.656 . S
C1703 C250 1.656 . S
C1708 C202 1.656 . S
C1733 C268 1.656 . S
C1738 C316 1.656 . S
C1763 C290 1.656 . S
C1768 C338 1.656 . S
