# Generated by pormake.
# Topology utm, (3)-cn, num edge types: 1
# Building blocks:
#     Node 0, Type 0, BuildingBlock: OLANEW_clean_sbu_2, # of connection points: 3
#     Node 1, Type 0, BuildingBlock: OLANEW_clean_sbu_2, # of connection points: 3
#     Node 2, Type 0, BuildingBlock: OLANEW_clean_sbu_2, # of connection points: 3
#     Node 3, Type 0, BuildingBlock: OLANEW_clean_sbu_2, # of connection points: 3
#     Node 4, Type 0, BuildingBlock: OLANEW_clean_sbu_2, # of connection points: 3
#     Node 5, Type 0, BuildingBlock: OLANEW_clean_sbu_2, # of connection points: 3
#     Node 6, Type 0, BuildingBlock: OLANEW_clean_sbu_2, # of connection points: 3
#     Node 7, Type 0, BuildingBlock: OLANEW_clean_sbu_2, # of connection points: 3
#     Node 8, Type 0, BuildingBlock: OLANEW_clean_sbu_2, # of connection points: 3
#     Node 9, Type 0, BuildingBlock: OLANEW_clean_sbu_2, # of connection points: 3
#     Node 10, Type 0, BuildingBlock: OLANEW_clean_sbu_2, # of connection points: 3
#     Node 11, Type 0, BuildingBlock: OLANEW_clean_sbu_2, # of connection points: 3
#     Node 12, Type 0, BuildingBlock: OLANEW_clean_sbu_2, # of connection points: 3
#     Node 13, Type 0, BuildingBlock: OLANEW_clean_sbu_2, # of connection points: 3
#     Node 14, Type 0, BuildingBlock: OLANEW_clean_sbu_2, # of connection points: 3
#     Node 15, Type 0, BuildingBlock: OLANEW_clean_sbu_2, # of connection points: 3
#     Node 16, Type 0, BuildingBlock: OLANEW_clean_sbu_2, # of connection points: 3
#     Node 17, Type 0, BuildingBlock: OLANEW_clean_sbu_2, # of connection points: 3
#     Node 18, Type 0, BuildingBlock: OLANEW_clean_sbu_2, # of connection points: 3
#     Node 19, Type 0, BuildingBlock: OLANEW_clean_sbu_2, # of connection points: 3
#     Node 20, Type 0, BuildingBlock: OLANEW_clean_sbu_2, # of connection points: 3
#     Node 21, Type 0, BuildingBlock: OLANEW_clean_sbu_2, # of connection points: 3
#     Node 22, Type 0, BuildingBlock: OLANEW_clean_sbu_2, # of connection points: 3
#     Node 23, Type 0, BuildingBlock: OLANEW_clean_sbu_2, # of connection points: 3
#     Node 24, Type 0, BuildingBlock: OLANEW_clean_sbu_2, # of connection points: 3
#     Node 25, Type 0, BuildingBlock: OLANEW_clean_sbu_2, # of connection points: 3
#     Node 26, Type 0, BuildingBlock: OLANEW_clean_sbu_2, # of connection points: 3
#     Node 27, Type 0, BuildingBlock: OLANEW_clean_sbu_2, # of connection points: 3
#     Node 28, Type 0, BuildingBlock: OLANEW_clean_sbu_2, # of connection points: 3
#     Node 29, Type 0, BuildingBlock: OLANEW_clean_sbu_2, # of connection points: 3
#     Node 30, Type 0, BuildingBlock: OLANEW_clean_sbu_2, # of connection points: 3
#     Node 31, Type 0, BuildingBlock: OLANEW_clean_sbu_2, # of connection points: 3
#     Edge 32, Type (0, 0), BuildingBlock: TEMPAE_clean_linker_10, # of connection points: 2
#     Edge 33, Type (0, 0), BuildingBlock: TEMPAE_clean_linker_10, # of connection points: 2
#     Edge 34, Type (0, 0), BuildingBlock: TEMPAE_clean_linker_10, # of connection points: 2
#     Edge 35, Type (0, 0), BuildingBlock: TEMPAE_clean_linker_10, # of connection points: 2
#     Edge 36, Type (0, 0), BuildingBlock: TEMPAE_clean_linker_10, # of connection points: 2
#     Edge 37, Type (0, 0), BuildingBlock: TEMPAE_clean_linker_10, # of connection points: 2
#     Edge 38, Type (0, 0), BuildingBlock: TEMPAE_clean_linker_10, # of connection points: 2
#     Edge 39, Type (0, 0), BuildingBlock: TEMPAE_clean_linker_10, # of connection points: 2
#     Edge 40, Type (0, 0), BuildingBlock: TEMPAE_clean_linker_10, # of connection points: 2
#     Edge 41, Type (0, 0), BuildingBlock: TEMPAE_clean_linker_10, # of connection points: 2
#     Edge 42, Type (0, 0), BuildingBlock: TEMPAE_clean_linker_10, # of connection points: 2
#     Edge 43, Type (0, 0), BuildingBlock: TEMPAE_clean_linker_10, # of connection points: 2
#     Edge 44, Type (0, 0), BuildingBlock: TEMPAE_clean_linker_10, # of connection points: 2
#     Edge 45, Type (0, 0), BuildingBlock: TEMPAE_clean_linker_10, # of connection points: 2
#     Edge 46, Type (0, 0), BuildingBlock: TEMPAE_clean_linker_10, # of connection points: 2
#     Edge 47, Type (0, 0), BuildingBlock: TEMPAE_clean_linker_10, # of connection points: 2
#     Edge 48, Type (0, 0), BuildingBlock: TEMPAE_clean_linker_10, # of connection points: 2
#     Edge 49, Type (0, 0), BuildingBlock: TEMPAE_clean_linker_10, # of connection points: 2
#     Edge 50, Type (0, 0), BuildingBlock: TEMPAE_clean_linker_10, # of connection points: 2
#     Edge 51, Type (0, 0), BuildingBlock: TEMPAE_clean_linker_10, # of connection points: 2
#     Edge 52, Type (0, 0), BuildingBlock: TEMPAE_clean_linker_10, # of connection points: 2
#     Edge 53, Type (0, 0), BuildingBlock: TEMPAE_clean_linker_10, # of connection points: 2
#     Edge 54, Type (0, 0), BuildingBlock: TEMPAE_clean_linker_10, # of connection points: 2
#     Edge 55, Type (0, 0), BuildingBlock: TEMPAE_clean_linker_10, # of connection points: 2
#     Edge 56, Type (0, 0), BuildingBlock: TEMPAE_clean_linker_10, # of connection points: 2
#     Edge 57, Type (0, 0), BuildingBlock: TEMPAE_clean_linker_10, # of connection points: 2
#     Edge 58, Type (0, 0), BuildingBlock: TEMPAE_clean_linker_10, # of connection points: 2
#     Edge 59, Type (0, 0), BuildingBlock: TEMPAE_clean_linker_10, # of connection points: 2
#     Edge 60, Type (0, 0), BuildingBlock: TEMPAE_clean_linker_10, # of connection points: 2
#     Edge 61, Type (0, 0), BuildingBlock: TEMPAE_clean_linker_10, # of connection points: 2
#     Edge 62, Type (0, 0), BuildingBlock: TEMPAE_clean_linker_10, # of connection points: 2
#     Edge 63, Type (0, 0), BuildingBlock: TEMPAE_clean_linker_10, # of connection points: 2
#     Edge 64, Type (0, 0), BuildingBlock: TEMPAE_clean_linker_10, # of connection points: 2
#     Edge 65, Type (0, 0), BuildingBlock: TEMPAE_clean_linker_10, # of connection points: 2
#     Edge 66, Type (0, 0), BuildingBlock: TEMPAE_clean_linker_10, # of connection points: 2
#     Edge 67, Type (0, 0), BuildingBlock: TEMPAE_clean_linker_10, # of connection points: 2
#     Edge 68, Type (0, 0), BuildingBlock: TEMPAE_clean_linker_10, # of connection points: 2
#     Edge 69, Type (0, 0), BuildingBlock: TEMPAE_clean_linker_10, # of connection points: 2
#     Edge 70, Type (0, 0), BuildingBlock: TEMPAE_clean_linker_10, # of connection points: 2
#     Edge 71, Type (0, 0), BuildingBlock: TEMPAE_clean_linker_10, # of connection points: 2
#     Edge 72, Type (0, 0), BuildingBlock: TEMPAE_clean_linker_10, # of connection points: 2
#     Edge 73, Type (0, 0), BuildingBlock: TEMPAE_clean_linker_10, # of connection points: 2
#     Edge 74, Type (0, 0), BuildingBlock: TEMPAE_clean_linker_10, # of connection points: 2
#     Edge 75, Type (0, 0), BuildingBlock: TEMPAE_clean_linker_10, # of connection points: 2
#     Edge 76, Type (0, 0), BuildingBlock: TEMPAE_clean_linker_10, # of connection points: 2
#     Edge 77, Type (0, 0), BuildingBlock: TEMPAE_clean_linker_10, # of connection points: 2
#     Edge 78, Type (0, 0), BuildingBlock: TEMPAE_clean_linker_10, # of connection points: 2
#     Edge 79, Type (0, 0), BuildingBlock: TEMPAE_clean_linker_10, # of connection points: 2
# Relax obj value: 0.000
# Max RMSD: 0.047
# Mean RMSD: 0.047
data_MOF--net-utm--node1-OLANEW_clean_sbu_2--edge1-TEMPAE_clean_linker_10
_symmetry_space_group_name_H-M    P1
_symmetry_Int_Tables_number       1
_symmetry_cell_setting            triclinic
loop_
_symmetry_equiv_pos_as_xyz
'x, y, z'
_cell_length_a     82.100408
_cell_length_b     82.092216
_cell_length_c     48.768199
_cell_angle_alpha  90.005736
_cell_angle_beta   90.0154
_cell_angle_gamma 89.99264
loop_
_atom_site_label
_atom_site_type_symbol
_atom_site_fract_x
_atom_site_fract_y
_atom_site_fract_z
_atom_type_partial_charge
O0 O 0.17934 0.27984 0.0989 0.0
Cd1 Cd 0.15906 0.28147 0.13551 0.0
O2 O 0.18499 0.30589 0.10353 0.0
Cd3 Cd 0.16306 0.31189 0.12679 0.0
O4 O 0.14067 0.32581 0.13313 0.0
C5 C 0.12826 0.3228 0.11835 0.0
O6 O 0.12892 0.31066 0.10081 0.0
C7 C 0.18817 0.29208 0.09301 0.0
C8 C 0.17375 0.27163 0.18443 0.0
O9 O 0.16527 0.26161 0.1702 0.0
O10 O 0.17495 0.28634 0.17587 0.0
O11 O 0.96259 0.94646 0.28337 0.0
Cd12 Cd 0.95898 0.92395 0.31571 0.0
O13 O 0.9454 0.96263 0.30468 0.0
Cd14 Cd 0.93624 0.94294 0.33034 0.0
O15 O 0.92086 0.92289 0.34415 0.0
C16 C 0.90881 0.9194 0.32885 0.0
O17 O 0.90658 0.92786 0.30628 0.0
C18 C 0.95583 0.96033 0.28581 0.0
C19 C 0.9783 0.92909 0.362 0.0
O20 O 0.984 0.92196 0.34068 0.0
O21 O 0.96335 0.93357 0.36163 0.0
O22 O 0.30842 0.71871 0.60564 0.0
Cd23 Cd 0.32681 0.71349 0.64417 0.0
O24 O 0.3271 0.72058 0.57348 0.0
Cd25 Cd 0.34677 0.713 0.60066 0.0
O26 O 0.3655 0.69532 0.61181 0.0
C27 C 0.37773 0.69374 0.59606 0.0
O28 O 0.37915 0.70354 0.57489 0.0
C29 C 0.31224 0.72121 0.58072 0.0
C30 C 0.31697 0.73152 0.68977 0.0
O31 O 0.30978 0.71824 0.68317 0.0
O32 O 0.32902 0.73624 0.67509 0.0
O33 O 0.55503 0.97875 0.88204 0.0
Cd34 Cd 0.55604 0.96804 0.9287 0.0
O35 O 0.57685 0.9935 0.88978 0.0
Cd36 Cd 0.59484 0.01154 0.87671 0.0
O37 O 0.60985 0.03297 0.8687 0.0
C38 C 0.60669 0.04256 0.84892 0.0
O39 O 0.59447 0.03913 0.83249 0.0
C40 C 0.56579 0.98863 0.8735 0.0
C41 C 0.52846 0.97589 0.95912 0.0
O42 O 0.54141 0.98456 0.96079 0.0
O43 O 0.52856 0.96357 0.94297 0.0
O44 O 0.21576 0.71895 0.42907 0.0
Cd45 Cd 0.19338 0.71376 0.39711 0.0
O46 O 0.22106 0.69287 0.43421 0.0
Cd47 Cd 0.20099 0.68433 0.40861 0.0
O48 O 0.18101 0.67006 0.39141 0.0
C49 C 0.1675 0.66948 0.40411 0.0
O50 O 0.16577 0.67805 0.42669 0.0
C51 C 0.22429 0.70766 0.43969 0.0
C52 C 0.19224 0.73702 0.35543 0.0
O53 O 0.18458 0.73914 0.37804 0.0
O54 O 0.20045 0.72384 0.3525 0.0
O55 O 0.56593 0.98671 0.6551 0.0
Cd56 Cd 0.57113 0.98416 0.6058 0.0
O57 O 0.58477 0.00552 0.66036 0.0
Cd58 Cd 0.59659 0.99694 0.62305 0.0
O59 O 0.61048 0.97536 0.61102 0.0
C60 C 0.60555 0.96202 0.62139 0.0
O61 O 0.59242 0.96218 0.63678 0.0
C62 C 0.57294 0.99734 0.67002 0.0
C63 C 0.5441 0.9931 0.57446 0.0
O64 O 0.55401 0.00384 0.58373 0.0
O65 O 0.54695 0.97811 0.58 0.0
O66 O 0.29019 0.28822 0.95223 0.0
Cd67 Cd 0.31085 0.29186 0.91658 0.0
O68 O 0.27398 0.30558 0.93128 0.0
Cd69 Cd 0.29315 0.31482 0.90453 0.0
O70 O 0.31388 0.32933 0.89072 0.0
C71 C 0.31901 0.34011 0.90731 0.0
O72 O 0.3117 0.34171 0.93113 0.0
C73 C 0.2764 0.29522 0.95027 0.0
C74 C 0.30435 0.27081 0.87305 0.0
O75 O 0.31575 0.2676 0.89016 0.0
O76 O 0.29625 0.28401 0.87621 0.0
O77 O 0.97309 0.05519 0.13359 0.0
Cd78 Cd 0.97224 0.07312 0.0936 0.0
O79 O 0.94823 0.04687 0.12426 0.0
Cd80 Cd 0.94225 0.06714 0.09715 0.0
O81 O 0.92725 0.08837 0.08777 0.0
C82 C 0.928 0.1006 0.10371 0.0
O83 O 0.93854 0.10041 0.12399 0.0
C84 C 0.96129 0.04551 0.13811 0.0
C85 C 0.99005 0.05874 0.05134 0.0
O86 O 0.99612 0.07044 0.06541 0.0
O87 O 0.97553 0.05408 0.05684 0.0
O88 O 0.71408 0.68331 0.93175 0.0
Cd89 Cd 0.69725 0.68097 0.89041 0.0
O90 O 0.73293 0.66906 0.91112 0.0
Cd91 Cd 0.75599 0.65617 0.90425 0.0
O92 O 0.77647 0.63983 0.89622 0.0
C93 C 0.77745 0.62638 0.90903 0.0
O94 O 0.76624 0.62279 0.92728 0.0
C95 C 0.72783 0.67622 0.93266 0.0
C96 C 0.69935 0.70627 0.85223 0.0
O97 O 0.68912 0.70685 0.87207 0.0
O98 O 0.70892 0.69394 0.85095 0.0
O99 O 0.07293 0.96831 0.59955 0.0
Cd100 Cd 0.0806 0.965 0.55147 0.0
O101 O 0.07916 0.99417 0.59658 0.0
Cd102 Cd 0.08564 0.01838 0.61175 0.0
O103 O 0.09848 0.04142 0.61752 0.0
C104 C 0.11391 0.04098 0.61546 0.0
O105 O 0.121 0.02691 0.61073 0.0
C106 C 0.07452 0.98213 0.611 0.0
C107 C 0.05512 0.95743 0.51592 0.0
O108 O 0.06259 0.94623 0.52925 0.0
O109 O 0.05948 0.97224 0.5199 0.0
O110 O 0.79144 0.33013 0.39924 0.0
Cd111 Cd 0.80294 0.33508 0.35361 0.0
O112 O 0.76674 0.33304 0.38281 0.0
Cd113 Cd 0.74072 0.33773 0.38812 0.0
O114 O 0.71697 0.34972 0.38713 0.0
C115 C 0.71273 0.3594 0.4062 0.0
O116 O 0.72252 0.36146 0.42724 0.0
C117 C 0.77616 0.3308 0.40314 0.0
C118 C 0.80008 0.31042 0.31441 0.0
O119 O 0.81232 0.31099 0.33072 0.0
O120 O 0.78889 0.32118 0.31732 0.0
O121 O 0.4076 0.00966 0.15352 0.0
Cd122 Cd 0.40124 0.00438 0.10543 0.0
O123 O 0.4001 0.98449 0.16066 0.0
Cd124 Cd 0.39204 0.96306 0.18348 0.0
O125 O 0.37495 0.94276 0.18651 0.0
C126 C 0.37432 0.93289 0.16644 0.0
O127 O 0.38466 0.93476 0.14611 0.0
C128 C 0.40525 0.99797 0.17013 0.0
C129 C 0.42909 0.99894 0.07421 0.0
O130 O 0.42254 0.0131 0.07528 0.0
O131 O 0.42248 0.9874 0.08795 0.0
O132 O 0.71396 0.33104 0.59721 0.0
Cd133 Cd 0.70149 0.33446 0.64245 0.0
O134 O 0.73853 0.33279 0.61478 0.0
Cd135 Cd 0.76484 0.33631 0.61058 0.0
O136 O 0.78991 0.34529 0.60892 0.0
C137 C 0.79234 0.35969 0.60022 0.0
O138 O 0.77979 0.36836 0.59206 0.0
C139 C 0.72932 0.33133 0.59397 0.0
C140 C 0.69906 0.30641 0.67462 0.0
O141 O 0.68798 0.31006 0.65713 0.0
O142 O 0.7115 0.31581 0.67637 0.0
O143 O 0.41864 0.02626 0.38511 0.0
Cd144 Cd 0.42149 0.04 0.42948 0.0
O145 O 0.43741 0.04169 0.36606 0.0
Cd146 Cd 0.43646 0.05929 0.39956 0.0
O147 O 0.42345 0.07981 0.4179 0.0
C148 C 0.40806 0.07938 0.41512 0.0
O149 O 0.40149 0.06664 0.4031 0.0
C150 C 0.4276 0.02972 0.36463 0.0
C151 C 0.44789 0.0284 0.45998 0.0
O152 O 0.43345 0.02304 0.46427 0.0
O153 O 0.44985 0.03915 0.44123 0.0
O154 O 0.80334 0.67253 0.11325 0.0
Cd155 Cd 0.81943 0.6667 0.15434 0.0
O156 O 0.78159 0.66429 0.13504 0.0
Cd157 Cd 0.75608 0.65795 0.14296 0.0
O158 O 0.73228 0.64639 0.14767 0.0
C159 C 0.72973 0.6332 0.1347 0.0
O160 O 0.74137 0.62731 0.11908 0.0
C161 C 0.78817 0.66944 0.11301 0.0
C162 C 0.81716 0.68971 0.19631 0.0
O163 O 0.82803 0.69094 0.17755 0.0
O164 O 0.80712 0.67779 0.19484 0.0
O165 O 0.0746 0.98419 0.83148 0.0
Cd166 Cd 0.07583 0.97656 0.87998 0.0
O167 O 0.05419 0.96739 0.8239 0.0
Cd168 Cd 0.0576 0.95525 0.86333 0.0
O169 O 0.07312 0.93935 0.88809 0.0
C170 C 0.08771 0.93834 0.87951 0.0
O171 O 0.09193 0.94694 0.85792 0.0
C172 C 0.06387 0.97839 0.81534 0.0
C173 C 0.05773 0.99689 0.91418 0.0
O174 O 0.07326 0.99823 0.91277 0.0
O175 O 0.05075 0.9861 0.89928 0.0
O176 O 0.70762 0.79755 0.612 0.0
Cd177 Cd 0.68896 0.80581 0.64857 0.0
O178 O 0.71664 0.82253 0.60572 0.0
Cd179 Cd 0.69852 0.83493 0.63091 0.0
O180 O 0.68167 0.8553 0.63625 0.0
C181 C 0.67348 0.85956 0.6153 0.0
O182 O 0.67509 0.85114 0.59254 0.0
C183 C 0.71729 0.8074 0.60018 0.0
C184 C 0.69171 0.78532 0.69415 0.0
O185 O 0.68166 0.78219 0.67474 0.0
O186 O 0.70044 0.7982 0.69208 0.0
O187 O 0.46841 0.43968 0.80205 0.0
Cd188 Cd 0.46784 0.42101 0.84107 0.0
O189 O 0.44769 0.45412 0.81702 0.0
Cd190 Cd 0.43971 0.43535 0.84567 0.0
O191 O 0.42279 0.41708 0.86138 0.0
C192 C 0.40806 0.41872 0.85382 0.0
O193 O 0.40423 0.43112 0.83803 0.0
C194 C 0.45931 0.45215 0.80012 0.0
C195 C 0.48184 0.43702 0.8857 0.0
O196 O 0.49067 0.43007 0.86748 0.0
O197 O 0.46633 0.43605 0.88333 0.0
O198 O 0.78914 0.22083 0.06621 0.0
Cd199 Cd 0.81126 0.21982 0.09995 0.0
O200 O 0.78005 0.19659 0.07779 0.0
Cd201 Cd 0.80074 0.19122 0.10433 0.0
O202 O 0.8235 0.17861 0.11351 0.0
C203 C 0.83583 0.1814 0.09846 0.0
O204 O 0.8347 0.1925 0.07913 0.0
C205 C 0.77874 0.20945 0.06341 0.0
C206 C 0.80593 0.23894 0.14653 0.0
O207 O 0.81305 0.24476 0.12529 0.0
O208 O 0.8011 0.2241 0.14562 0.0
O209 O 0.03235 0.55221 0.30637 0.0
Cd210 Cd 0.04009 0.56783 0.34707 0.0
O211 O 0.05548 0.53869 0.3072 0.0
Cd212 Cd 0.06716 0.55516 0.33628 0.0
O213 O 0.08283 0.57374 0.35444 0.0
C214 C 0.08248 0.58806 0.34454 0.0
O215 O 0.07228 0.59127 0.32448 0.0
C216 C 0.04134 0.54084 0.29716 0.0
C217 C 0.03227 0.54968 0.3937 0.0
O218 O 0.02246 0.5605 0.38441 0.0
O219 O 0.04588 0.5477 0.3813 0.0
O220 O 0.69248 0.20163 0.89597 0.0
Cd221 Cd 0.6748 0.19556 0.8569 0.0
O222 O 0.71083 0.1835 0.8838 0.0
Cd223 Cd 0.69512 0.17196 0.85329 0.0
O224 O 0.67983 0.15183 0.83921 0.0
C225 C 0.6662 0.14967 0.85101 0.0
O226 O 0.66152 0.16022 0.86969 0.0
C227 C 0.70629 0.19495 0.89964 0.0
C228 C 0.67979 0.21815 0.81489 0.0
O229 O 0.66945 0.22082 0.83406 0.0
O230 O 0.68769 0.20468 0.81542 0.0
O231 O 0.00135 0.45286 0.14723 0.0
Cd232 Cd 0.99653 0.43134 0.1135 0.0
O233 O 0.02303 0.46226 0.12602 0.0
Cd234 Cd 0.02576 0.44034 0.10114 0.0
O235 O 0.03963 0.41797 0.09443 0.0
C236 C 0.0389 0.40684 0.11252 0.0
O237 O 0.02894 0.40871 0.13336 0.0
C238 C 0.01249 0.46354 0.145 0.0
C239 C 0.97864 0.44328 0.06907 0.0
O240 O 0.97154 0.43822 0.09086 0.0
O241 O 0.99423 0.4426 0.06817 0.0
O242 O 0.80499 0.78062 0.44242 0.0
Cd243 Cd 0.82623 0.78357 0.40745 0.0
O244 O 0.78816 0.79735 0.42147 0.0
Cd245 Cd 0.80643 0.80508 0.39184 0.0
O246 O 0.82546 0.82088 0.37553 0.0
C247 C 0.82561 0.83531 0.38499 0.0
O248 O 0.81445 0.83951 0.40297 0.0
C249 C 0.79118 0.78762 0.44112 0.0
C250 C 0.8221 0.76305 0.36223 0.0
O251 O 0.83037 0.75849 0.38317 0.0
O252 O 0.81563 0.77725 0.36279 0.0
O253 O 0.47886 0.54419 0.64433 0.0
Cd254 Cd 0.47943 0.56322 0.60577 0.0
O255 O 0.45524 0.53455 0.63053 0.0
Cd256 Cd 0.45046 0.55519 0.60357 0.0
O257 O 0.44032 0.57908 0.59393 0.0
C258 C 0.44455 0.59114 0.60866 0.0
O259 O 0.45548 0.5889 0.62799 0.0
C260 C 0.46747 0.53375 0.64648 0.0
C261 C 0.49692 0.54944 0.56258 0.0
O262 O 0.50343 0.56028 0.578 0.0
O263 O 0.48213 0.54532 0.56728 0.0
O264 O 0.25926 0.21465 0.42407 0.0
Cd265 Cd 0.26693 0.23036 0.38338 0.0
O266 O 0.28536 0.20944 0.42808 0.0
Cd267 Cd 0.30577 0.19704 0.448 0.0
O268 O 0.32522 0.17918 0.45409 0.0
C269 C 0.33471 0.17672 0.43393 0.0
O270 O 0.33269 0.18541 0.41155 0.0
C271 C 0.27094 0.20821 0.4373 0.0
C272 C 0.24282 0.23566 0.34401 0.0
O273 O 0.25293 0.22384 0.34163 0.0
O274 O 0.24379 0.24467 0.36542 0.0
O275 O 0.55176 0.52525 0.10727 0.0
Cd276 Cd 0.55093 0.53237 0.05865 0.0
O277 O 0.57207 0.54236 0.10974 0.0
Cd278 Cd 0.59196 0.55689 0.12696 0.0
O279 O 0.61322 0.57273 0.13082 0.0
C280 C 0.62475 0.56971 0.14745 0.0
O281 O 0.62367 0.5569 0.1635 0.0
C282 C 0.5629 0.53196 0.12141 0.0
C283 C 0.53391 0.51013 0.02631 0.0
O284 O 0.54856 0.50726 0.03395 0.0
O285 O 0.52719 0.52341 0.03424 0.0
O286 O 0.248 0.82217 0.91646 0.0
Cd287 Cd 0.24418 0.81855 0.86698 0.0
O288 O 0.2217 0.82534 0.91219 0.0
Cd289 Cd 0.19757 0.83255 0.92677 0.0
O290 O 0.17467 0.84608 0.92719 0.0
C291 C 0.17307 0.85893 0.94149 0.0
O292 O 0.18511 0.86348 0.95752 0.0
C293 C 0.23423 0.82483 0.92746 0.0
C294 C 0.26676 0.80062 0.83686 0.0
O295 O 0.26719 0.81623 0.83698 0.0
O296 O 0.25615 0.79348 0.85192 0.0
O297 O 0.9765 0.46014 0.62419 0.0
Cd298 Cd 0.99183 0.44958 0.58505 0.0
O299 O 0.95599 0.4439 0.61524 0.0
Cd300 Cd 0.93263 0.43153 0.62196 0.0
O301 O 0.90892 0.41936 0.62351 0.0
C302 C 0.90408 0.41139 0.60268 0.0
O303 O 0.91354 0.41064 0.58099 0.0
C304 C 0.96241 0.45483 0.6303 0.0
C305 C 0.99938 0.47323 0.54591 0.0
O306 O 0.98669 0.46425 0.5434 0.0
O307 O 0.0084 0.47115 0.56709 0.0
O308 O 0.19317 0.84676 0.12926 0.0
Cd309 Cd 0.18196 0.85095 0.17513 0.0
O310 O 0.21787 0.84483 0.14605 0.0
Cd311 Cd 0.24441 0.84467 0.14277 0.0
O312 O 0.26939 0.8536 0.14598 0.0
C313 C 0.27194 0.86798 0.13734 0.0
O314 O 0.25979 0.87606 0.12627 0.0
C315 C 0.20837 0.84491 0.12547 0.0
C316 C 0.18598 0.82445 0.21031 0.0
O317 O 0.17347 0.82557 0.19467 0.0
O318 O 0.19671 0.83577 0.20898 0.0
O319 O 0.90673 0.48996 0.82217 0.0
Cd320 Cd 0.89467 0.49851 0.86571 0.0
O321 O 0.90394 0.51371 0.80178 0.0
Cd322 Cd 0.89095 0.52539 0.8356 0.0
O323 O 0.87403 0.54165 0.85685 0.0
C324 C 0.85984 0.54306 0.84667 0.0
O325 O 0.8561 0.53437 0.82492 0.0
C326 C 0.90875 0.49899 0.80126 0.0
C327 C 0.91285 0.48688 0.91005 0.0
O328 O 0.90188 0.47807 0.89868 0.0
O329 O 0.91519 0.50126 0.90056 0.0
O330 O 0.26253 0.17137 0.64501 0.0
Cd331 Cd 0.2555 0.16795 0.69338 0.0
O332 O 0.23653 0.16668 0.63944 0.0
Cd333 Cd 0.21449 0.16134 0.61606 0.0
O334 O 0.19364 0.14537 0.60884 0.0
C335 C 0.18755 0.13877 0.63008 0.0
O336 O 0.19361 0.14259 0.65419 0.0
C337 C 0.25034 0.16999 0.62912 0.0
C338 C 0.26986 0.19047 0.72865 0.0
O339 O 0.27529 0.17586 0.72709 0.0
O340 O 0.25787 0.19451 0.71329 0.0
O341 O 0.57802 0.48996 0.33072 0.0
Cd342 Cd 0.5788 0.47583 0.37483 0.0
O343 O 0.58515 0.46783 0.30828 0.0
Cd344 Cd 0.59213 0.45348 0.34418 0.0
O345 O 0.6084 0.43668 0.36568 0.0
C346 C 0.62353 0.43895 0.36165 0.0
O347 O 0.62806 0.45131 0.34634 0.0
C348 C 0.58051 0.48261 0.30815 0.0
C349 C 0.56154 0.4928 0.41499 0.0
O350 O 0.57713 0.4934 0.41416 0.0
O351 O 0.55413 0.4842 0.39697 0.0
C352 C 0.23362 0.23352 0.2953 0.0
C353 C 0.23104 0.23944 0.32191 0.0
C354 C 0.22352 0.23829 0.2735 0.0
C355 C 0.21031 0.24898 0.27855 0.0
C356 C 0.20722 0.25443 0.30561 0.0
C357 C 0.21774 0.24974 0.32692 0.0
C358 C 0.22739 0.23242 0.24488 0.0
C359 C 0.19305 0.26553 0.31192 0.0
C360 C 0.19572 0.27524 0.21933 0.0
C361 C 0.18247 0.26622 0.2094 0.0
C362 C 0.20481 0.26979 0.2419 0.0
C363 C 0.20033 0.25515 0.25527 0.0
C364 C 0.18667 0.24623 0.24584 0.0
C365 C 0.17801 0.25178 0.22279 0.0
C366 C 0.21948 0.27951 0.25101 0.0
C367 C 0.18131 0.23076 0.25992 0.0
H368 H 0.24393 0.22562 0.29126 0.0
H369 H 0.21562 0.25427 0.3475 0.0
H370 H 0.2166 0.2264 0.23572 0.0
H371 H 0.23047 0.24298 0.23165 0.0
H372 H 0.23776 0.22372 0.24454 0.0
H373 H 0.19148 0.26751 0.3343 0.0
H374 H 0.19495 0.27752 0.30194 0.0
H375 H 0.18161 0.26034 0.3035 0.0
H376 H 0.19929 0.28636 0.20895 0.0
H377 H 0.16772 0.24481 0.21529 0.0
H378 H 0.2306 0.27187 0.2495 0.0
H379 H 0.21813 0.28313 0.2728 0.0
H380 H 0.22129 0.29066 0.23849 0.0
H381 H 0.19096 0.22137 0.2581 0.0
H382 H 0.16987 0.22579 0.25108 0.0
H383 H 0.1794 0.23305 0.28212 0.0
C384 C 0.00573 0.93046 0.38411 0.0
C385 C 0.98881 0.93247 0.38602 0.0
C386 C 0.01596 0.93435 0.40621 0.0
C387 C 0.00908 0.94021 0.43094 0.0
C388 C 0.99198 0.94193 0.43322 0.0
C389 C 0.98205 0.93814 0.41066 0.0
C390 C 0.03416 0.9325 0.40289 0.0
C391 C 0.9842 0.94793 0.4594 0.0
C392 C 0.03618 0.93742 0.49391 0.0
C393 C 0.04238 0.95331 0.49558 0.0
C394 C 0.02491 0.9331 0.47351 0.0
C395 C 0.0199 0.94491 0.45411 0.0
C396 C 0.02583 0.96106 0.45606 0.0
C397 C 0.03692 0.96509 0.47687 0.0
C398 C 0.01866 0.91582 0.47234 0.0
C399 C 0.02088 0.97395 0.4356 0.0
H400 H 0.01105 0.92614 0.36511 0.0
H401 H 0.96897 0.93965 0.41232 0.0
H402 H 0.04019 0.94448 0.40572 0.0
H403 H 0.03903 0.92419 0.41885 0.0
H404 H 0.03755 0.92763 0.38242 0.0
H405 H 0.97069 0.94791 0.45825 0.0
H406 H 0.98803 0.94017 0.47688 0.0
H407 H 0.98836 0.9605 0.46387 0.0
H408 H 0.04027 0.92828 0.5084 0.0
H409 H 0.04168 0.97739 0.47799 0.0
H410 H 0.02288 0.90989 0.45317 0.0
H411 H 0.00515 0.91575 0.47196 0.0
H412 H 0.02286 0.90841 0.49004 0.0
H413 H 0.025 0.97037 0.41478 0.0
H414 H 0.02612 0.98608 0.44056 0.0
H415 H 0.00742 0.97505 0.4349 0.0
C416 C 0.28177 0.79783 0.79272 0.0
C417 C 0.27713 0.79112 0.81796 0.0
C418 C 0.28948 0.78826 0.77271 0.0
C419 C 0.29309 0.77173 0.77846 0.0
C420 C 0.28936 0.76521 0.8046 0.0
C421 C 0.28114 0.77491 0.82389 0.0
C422 C 0.29284 0.79556 0.74486 0.0
C423 C 0.29352 0.74782 0.81186 0.0
C424 C 0.29441 0.742 0.71888 0.0
C425 C 0.3111 0.74138 0.71305 0.0
C426 C 0.28842 0.75192 0.74001 0.0
C427 C 0.29945 0.76096 0.75636 0.0
C428 C 0.31639 0.75998 0.75107 0.0
C429 C 0.322 0.75043 0.72908 0.0
C430 C 0.27024 0.75301 0.74441 0.0
C431 C 0.32856 0.76897 0.76866 0.0
H432 H 0.27855 0.81032 0.788 0.0
H433 H 0.27765 0.76973 0.84348 0.0
H434 H 0.30577 0.79375 0.7391 0.0
H435 H 0.28531 0.78929 0.72917 0.0
H436 H 0.29007 0.8088 0.74414 0.0
H437 H 0.2918 0.7453 0.83406 0.0
H438 H 0.28564 0.73939 0.80004 0.0
H439 H 0.30634 0.74509 0.80628 0.0
H440 H 0.28597 0.7351 0.70632 0.0
H441 H 0.33492 0.74984 0.72466 0.0
H442 H 0.2662 0.76587 0.74258 0.0
H443 H 0.26709 0.74884 0.76538 0.0
H444 H 0.2633 0.74554 0.72941 0.0
H445 H 0.32669 0.7823 0.76669 0.0
H446 H 0.34134 0.7661 0.76293 0.0
H447 H 0.32671 0.7658 0.79056 0.0
C448 C 0.51518 0.98984 0.9988 0.0
C449 C 0.51388 0.97983 0.97561 0.0
C450 C 0.50153 0.99323 0.01515 0.0
C451 C 0.48617 0.98672 0.00778 0.0
C452 C 0.48474 0.97685 0.98409 0.0
C453 C 0.49865 0.97339 0.96844 0.0
C454 C 0.50358 0.00357 0.04053 0.0
C455 C 0.46851 0.96994 0.9753 0.0
C456 C 0.45336 0.98207 0.06204 0.0
C457 C 0.4438 0.99596 0.05747 0.0
C458 C 0.46733 0.97904 0.04627 0.0
C459 C 0.47164 0.99001 0.02508 0.0
C460 C 0.46199 0.00402 0.02028 0.0
C461 C 0.44826 0.00691 0.03673 0.0
C462 C 0.47748 0.96413 0.05232 0.0
C463 C 0.46605 0.01583 0.99755 0.0
H464 H 0.52695 0.99477 0.0045 0.0
H465 H 0.49757 0.96573 0.95042 0.0
H466 H 0.49562 0.01446 0.03931 0.0
H467 H 0.49979 0.99655 0.0589 0.0
H468 H 0.51636 0.00767 0.04344 0.0
H469 H 0.46936 0.963 0.95579 0.0
H470 H 0.46372 0.96171 0.99144 0.0
H471 H 0.45953 0.97992 0.97265 0.0
H472 H 0.45002 0.97362 0.07817 0.0
H473 H 0.44086 0.01762 0.03301 0.0
H474 H 0.49024 0.96775 0.0567 0.0
H475 H 0.47774 0.95602 0.03412 0.0
H476 H 0.47274 0.9571 0.07007 0.0
H477 H 0.47842 0.02093 0.00071 0.0
H478 H 0.45723 0.02606 0.99635 0.0
H479 H 0.46614 0.00937 0.97756 0.0
C480 C 0.19952 0.74672 0.30826 0.0
C481 C 0.19165 0.74944 0.33339 0.0
C482 C 0.19904 0.75843 0.28726 0.0
C483 C 0.19054 0.77321 0.29155 0.0
C484 C 0.18259 0.77603 0.31687 0.0
C485 C 0.18322 0.76411 0.33746 0.0
C486 C 0.20762 0.75497 0.2605 0.0
C487 C 0.17343 0.79167 0.32224 0.0
C488 C 0.2007 0.81048 0.24865 0.0
C489 C 0.18768 0.81081 0.23001 0.0
C490 C 0.20195 0.79814 0.26847 0.0
C491 C 0.18992 0.7858 0.26961 0.0
C492 C 0.17698 0.78583 0.25043 0.0
C493 C 0.17599 0.79835 0.23089 0.0
C494 C 0.21593 0.79852 0.28859 0.0
C495 C 0.16397 0.77283 0.25091 0.0
H496 H 0.20604 0.73542 0.30493 0.0
H497 H 0.17712 0.76632 0.35681 0.0
H498 H 0.19877 0.75546 0.24332 0.0
H499 H 0.21696 0.76445 0.25656 0.0
H500 H 0.21364 0.74285 0.26038 0.0
H501 H 0.16794 0.79199 0.34305 0.0
H502 H 0.18176 0.80223 0.32006 0.0
H503 H 0.16358 0.79318 0.30687 0.0
H504 H 0.2098 0.82004 0.2481 0.0
H505 H 0.16593 0.79848 0.21651 0.0
H506 H 0.22266 0.7868 0.28802 0.0
H507 H 0.21116 0.80004 0.30972 0.0
H508 H 0.22461 0.80857 0.28428 0.0
H509 H 0.16963 0.76058 0.24961 0.0
H510 H 0.15514 0.77417 0.2338 0.0
H511 H 0.15721 0.77339 0.27057 0.0
C512 C 0.52216 0.98656 0.54058 0.0
C513 C 0.52982 0.9979 0.55777 0.0
C514 C 0.50881 0.99107 0.52422 0.0
C515 C 0.50277 0.00721 0.52558 0.0
C516 C 0.51032 0.01864 0.54323 0.0
C517 C 0.52387 0.0139 0.55887 0.0
C518 C 0.50131 0.97863 0.50523 0.0
C519 C 0.50404 0.03587 0.54566 0.0
C520 C 0.47783 0.02456 0.46676 0.0
C521 C 0.46187 0.02255 0.47641 0.0
C522 C 0.49124 0.01931 0.4823 0.0
C523 C 0.48863 0.0122 0.50839 0.0
C524 C 0.47254 0.01015 0.51826 0.0
C525 C 0.45934 0.01519 0.502 0.0
C526 C 0.50819 0.0214 0.47082 0.0
C527 C 0.46928 0.00292 0.54619 0.0
H528 H 0.52678 0.9742 0.53953 0.0
H529 H 0.52969 0.02269 0.57227 0.0
H530 H 0.48828 0.97684 0.51044 0.0
H531 H 0.50181 0.98309 0.48377 0.0
H532 H 0.50759 0.96665 0.50632 0.0
H533 H 0.51095 0.04312 0.561 0.0
H534 H 0.50486 0.0421 0.52553 0.0
H535 H 0.49101 0.03575 0.55167 0.0
H536 H 0.47985 0.03014 0.44691 0.0
H537 H 0.44703 0.01369 0.50963 0.0
H538 H 0.5146 0.00949 0.4705 0.0
H539 H 0.51535 0.02967 0.48417 0.0
H540 H 0.5081 0.02647 0.44971 0.0
H541 H 0.47455 0.99051 0.54749 0.0
H542 H 0.45606 0.00218 0.55086 0.0
H543 H 0.47528 0.01042 0.56221 0.0
C544 C 0.28387 0.25661 0.84411 0.0
C545 C 0.30022 0.25936 0.85085 0.0
C546 C 0.27958 0.24522 0.82391 0.0
C547 C 0.29199 0.23692 0.80935 0.0
C548 C 0.30856 0.24003 0.81557 0.0
C549 C 0.31247 0.25098 0.83672 0.0
C550 C 0.26178 0.24184 0.81859 0.0
C551 C 0.32212 0.23189 0.79978 0.0
C552 C 0.28095 0.19691 0.77489 0.0
C553 C 0.2767 0.20214 0.74852 0.0
C554 C 0.28604 0.2081 0.7949 0.0
C555 C 0.28753 0.22479 0.78795 0.0
C556 C 0.28395 0.22998 0.7609 0.0
C557 C 0.27822 0.21863 0.74165 0.0
C558 C 0.28916 0.20216 0.82374 0.0
C559 C 0.28598 0.24755 0.75241 0.0
H560 H 0.27441 0.26301 0.85528 0.0
H561 H 0.32512 0.25324 0.84186 0.0
H562 H 0.25866 0.24494 0.79709 0.0
H563 H 0.25924 0.22866 0.82139 0.0
H564 H 0.25366 0.24888 0.83244 0.0
H565 H 0.33433 0.23636 0.80607 0.0
H566 H 0.32167 0.21853 0.80296 0.0
H567 H 0.32054 0.23412 0.77749 0.0
H568 H 0.2796 0.18416 0.78022 0.0
H569 H 0.27502 0.22261 0.72115 0.0
H570 H 0.28067 0.2083 0.83812 0.0
H571 H 0.3017 0.20535 0.83022 0.0
H572 H 0.28755 0.18878 0.82572 0.0
H573 H 0.27696 0.25525 0.76331 0.0
H574 H 0.28429 0.24927 0.72999 0.0
H575 H 0.29827 0.252 0.7582 0.0
C576 C 0.05447 0.0113 0.95882 0.0
C577 C 0.04815 0.00714 0.93308 0.0
C578 C 0.04506 0.02007 0.97781 0.0
C579 C 0.02922 0.02532 0.9704 0.0
C580 C 0.02305 0.02166 0.94398 0.0
C581 C 0.03248 0.01231 0.92582 0.0
C582 C 0.05187 0.02323 0.00608 0.0
C583 C 0.00646 0.02753 0.93496 0.0
C584 C 0.99815 0.03356 0.02642 0.0
C585 C 0.99973 0.0504 0.03008 0.0
C586 C 0.00782 0.02522 0.00729 0.0
C587 C 0.01888 0.03407 0.99069 0.0
C588 C 0.02017 0.05118 0.99379 0.0
C589 C 0.01081 0.05911 0.01389 0.0
C590 C 0.00647 0.00691 0.00528 0.0
C591 C 0.03137 0.06111 0.97582 0.0
H592 H 0.06655 0.00716 0.9645 0.0
H593 H 0.02766 0.00918 0.9058 0.0
H594 H 0.05218 0.0365 0.01027 0.0
H595 H 0.04384 0.0176 0.02174 0.0
H596 H 0.06437 0.01826 0.00862 0.0
H597 H 0.00404 0.02484 0.91301 0.0
H598 H 0.99688 0.02162 0.9475 0.0
H599 H 0.00541 0.04087 0.93823 0.0
H600 H 0.98969 0.02681 0.03916 0.0
H601 H 0.01193 0.07217 0.01663 0.0
H602 H 0.01856 0.00126 0.00891 0.0
H603 H 0.00254 0.00335 0.98437 0.0
H604 H 0.99767 0.00181 0.0203 0.0
H605 H 0.0442 0.05744 0.97935 0.0
H606 H 0.03026 0.07439 0.97976 0.0
H607 H 0.02861 0.05875 0.95389 0.0
C608 C 0.68389 0.76004 0.7197 0.0
C609 C 0.69325 0.77431 0.71814 0.0
C610 C 0.6853 0.74941 0.74211 0.0
C611 C 0.69633 0.75312 0.76355 0.0
C612 C 0.70578 0.76752 0.76218 0.0
C613 C 0.70414 0.77794 0.73949 0.0
C614 C 0.67502 0.73415 0.74279 0.0
C615 C 0.71764 0.7719 0.78467 0.0
C616 C 0.68862 0.73216 0.83184 0.0
C617 C 0.69951 0.71899 0.83063 0.0
C618 C 0.68775 0.74359 0.81047 0.0
C619 C 0.69799 0.74182 0.7873 0.0
C620 C 0.70931 0.72883 0.7863 0.0
C621 C 0.70995 0.71758 0.80797 0.0
C622 C 0.67556 0.75733 0.81236 0.0
C623 C 0.72045 0.72653 0.76196 0.0
H624 H 0.67546 0.75713 0.70332 0.0
H625 H 0.71141 0.78894 0.73847 0.0
H626 H 0.68299 0.72325 0.74377 0.0
H627 H 0.66732 0.73409 0.76148 0.0
H628 H 0.66699 0.73306 0.72455 0.0
H629 H 0.72399 0.7836 0.78063 0.0
H630 H 0.71115 0.77285 0.80455 0.0
H631 H 0.72691 0.76215 0.78686 0.0
H632 H 0.68053 0.73337 0.84928 0.0
H633 H 0.71841 0.70747 0.80686 0.0
H634 H 0.66639 0.75609 0.79578 0.0
H635 H 0.68175 0.76921 0.8094 0.0
H636 H 0.66912 0.75752 0.83238 0.0
H637 H 0.71309 0.72408 0.74332 0.0
H638 H 0.72912 0.71629 0.76493 0.0
H639 H 0.7275 0.73783 0.75811 0.0
C640 C 0.78633 0.29834 0.27324 0.0
C641 C 0.79941 0.29835 0.29179 0.0
C642 C 0.78633 0.28806 0.2502 0.0
C643 C 0.79973 0.27755 0.24557 0.0
C644 C 0.81268 0.27709 0.26473 0.0
C645 C 0.81236 0.28747 0.28761 0.0
C646 C 0.77224 0.28884 0.23033 0.0
C647 C 0.82717 0.26603 0.26057 0.0
C648 C 0.79608 0.24247 0.19488 0.0
C649 C 0.80372 0.24897 0.17157 0.0
C650 C 0.79448 0.25169 0.21903 0.0
C651 C 0.8007 0.26777 0.21989 0.0
C652 C 0.80823 0.27446 0.19632 0.0
C653 C 0.80963 0.26499 0.17247 0.0
C654 C 0.78633 0.24416 0.24371 0.0
C655 C 0.81502 0.29156 0.1964 0.0
H656 H 0.77625 0.30667 0.27632 0.0
H657 H 0.8225 0.28736 0.30184 0.0
H658 H 0.77654 0.29366 0.21034 0.0
H659 H 0.76731 0.27646 0.22657 0.0
H660 H 0.76223 0.29677 0.23788 0.0
H661 H 0.83575 0.26638 0.27818 0.0
H662 H 0.82307 0.25328 0.25753 0.0
H663 H 0.83385 0.26972 0.24179 0.0
H664 H 0.79146 0.23011 0.19438 0.0
H665 H 0.81554 0.27012 0.15458 0.0
H666 H 0.77603 0.25191 0.25054 0.0
H667 H 0.7951 0.24348 0.26099 0.0
H668 H 0.78167 0.23172 0.23944 0.0
H669 H 0.80531 0.30038 0.20187 0.0
H670 H 0.82021 0.29507 0.17622 0.0
H671 H 0.82471 0.29261 0.21217 0.0
C672 C 0.69271 0.22673 0.7706 0.0
C673 C 0.68269 0.23039 0.79308 0.0
C674 C 0.69574 0.23835 0.75007 0.0
C675 C 0.6887 0.25405 0.75222 0.0
C676 C 0.67854 0.25779 0.77482 0.0
C677 C 0.6756 0.2459 0.79489 0.0
C678 C 0.70652 0.23387 0.72615 0.0
C679 C 0.6709 0.27442 0.77795 0.0
C680 C 0.70791 0.28997 0.71523 0.0
C681 C 0.69715 0.29224 0.69319 0.0
C682 C 0.70549 0.27738 0.73427 0.0
C683 C 0.69209 0.26669 0.73108 0.0
C684 C 0.6815 0.26858 0.70839 0.0
C685 C 0.68411 0.28138 0.68978 0.0
C686 C 0.71701 0.27581 0.75829 0.0
C687 C 0.66717 0.25733 0.70412 0.0
H688 H 0.69819 0.21476 0.76899 0.0
H689 H 0.66788 0.24885 0.81222 0.0
H690 H 0.69985 0.2357 0.7066 0.0
H691 H 0.71734 0.24196 0.72567 0.0
H692 H 0.71074 0.22103 0.72716 0.0
H693 H 0.66327 0.27537 0.79669 0.0
H694 H 0.68055 0.28387 0.77893 0.0
H695 H 0.6632 0.2772 0.75985 0.0
H696 H 0.718 0.29831 0.71804 0.0
H697 H 0.67579 0.28299 0.67274 0.0
H698 H 0.72212 0.26332 0.75916 0.0
H699 H 0.71027 0.27788 0.7777 0.0
H700 H 0.72723 0.28465 0.75719 0.0
H701 H 0.67129 0.24446 0.70418 0.0
H702 H 0.6607 0.25979 0.68454 0.0
H703 H 0.6584 0.25877 0.72126 0.0
C704 C 0.81101 0.75737 0.3153 0.0
C705 C 0.82035 0.75237 0.33789 0.0
C706 C 0.80967 0.74757 0.2918 0.0
C707 C 0.81789 0.73243 0.29084 0.0
C708 C 0.8272 0.72723 0.31367 0.0
C709 C 0.8283 0.73725 0.33693 0.0
C710 C 0.79958 0.75349 0.2679 0.0
C711 C 0.83617 0.71117 0.3134 0.0
C712 C 0.80482 0.69976 0.24016 0.0
C713 C 0.81668 0.70131 0.2196 0.0
C714 C 0.80486 0.71003 0.26319 0.0
C715 C 0.81706 0.72211 0.26577 0.0
C716 C 0.82884 0.72398 0.24481 0.0
C717 C 0.8285 0.71358 0.22197 0.0
C718 C 0.79204 0.70772 0.28505 0.0
C719 C 0.84205 0.73673 0.24681 0.0
H720 H 0.80481 0.76902 0.31589 0.0
H721 H 0.83554 0.73328 0.35427 0.0
H722 H 0.80741 0.75487 0.24951 0.0
H723 H 0.79006 0.7444 0.2628 0.0
H724 H 0.79359 0.76536 0.27218 0.0
H725 H 0.84266 0.70878 0.33299 0.0
H726 H 0.82751 0.70105 0.30958 0.0
H727 H 0.84519 0.71106 0.29647 0.0
H728 H 0.79563 0.69034 0.23848 0.0
H729 H 0.8377 0.71488 0.20618 0.0
H730 H 0.78556 0.71936 0.28885 0.0
H731 H 0.79792 0.70409 0.30461 0.0
H732 H 0.78296 0.69828 0.27938 0.0
H733 H 0.83657 0.74896 0.24966 0.0
H734 H 0.84993 0.737 0.2283 0.0
H735 H 0.84981 0.73428 0.26498 0.0
C736 C 0.52929 0.48212 0.00785 0.0
C737 C 0.52525 0.49871 0.00799 0.0
C738 C 0.52169 0.47129 0.98961 0.0
C739 C 0.51018 0.47731 0.97051 0.0
C740 C 0.50596 0.49404 0.97075 0.0
C741 C 0.51338 0.5045 0.9898 0.0
C742 C 0.52614 0.45345 0.99052 0.0
C743 C 0.49407 0.50102 0.95025 0.0
C744 C 0.50464 0.45381 0.90411 0.0
C745 C 0.48936 0.44657 0.90804 0.0
C746 C 0.51153 0.46385 0.92429 0.0
C747 C 0.50315 0.46631 0.94933 0.0
C748 C 0.48794 0.45861 0.95375 0.0
C749 C 0.48109 0.44903 0.93284 0.0
C750 C 0.52756 0.47218 0.91849 0.0
C751 C 0.47888 0.46055 0.98049 0.0
H752 H 0.53838 0.4776 0.02207 0.0
H753 H 0.51033 0.51735 0.98976 0.0
H754 H 0.51496 0.44589 0.99201 0.0
H755 H 0.53245 0.44996 0.9713 0.0
H756 H 0.53422 0.4505 0.00811 0.0
H757 H 0.49193 0.51425 0.95344 0.0
H758 H 0.49878 0.49917 0.92915 0.0
H759 H 0.48223 0.49458 0.95163 0.0
H760 H 0.51098 0.45205 0.88484 0.0
H761 H 0.46931 0.44336 0.93597 0.0
H762 H 0.53673 0.46864 0.93409 0.0
H763 H 0.52602 0.48559 0.91984 0.0
H764 H 0.53242 0.46912 0.89786 0.0
H765 H 0.48691 0.45719 0.99791 0.0
H766 H 0.46772 0.45292 0.98133 0.0
H767 H 0.47534 0.47347 0.98338 0.0
C768 C 0.01463 0.5436 0.43433 0.0
C769 C 0.02779 0.53937 0.41744 0.0
C770 C 0.00991 0.53356 0.45626 0.0
C771 C 0.01837 0.51881 0.46109 0.0
C772 C 0.03174 0.51454 0.44423 0.0
C773 C 0.03638 0.52494 0.42276 0.0
C774 C 0.99577 0.53867 0.4741 0.0
C775 C 0.04093 0.4988 0.44847 0.0
C776 C 0.01546 0.49736 0.53001 0.0
C777 C 0.00374 0.48534 0.52464 0.0
C778 C 0.02006 0.50859 0.50972 0.0
C779 C 0.01299 0.50758 0.48329 0.0
C780 C 0.00108 0.49554 0.47781 0.0
C781 C 0.9965 0.48465 0.49862 0.0
C782 C 0.0326 0.52144 0.51647 0.0
C783 C 0.99343 0.49392 0.44977 0.0
H784 H 0.008 0.55478 0.43041 0.0
H785 H 0.04651 0.52154 0.40971 0.0
H786 H 0.98574 0.52968 0.47225 0.0
H787 H 0.99955 0.53889 0.49594 0.0
H788 H 0.99099 0.55088 0.46848 0.0
H789 H 0.05115 0.49734 0.43374 0.0
H790 H 0.04591 0.49829 0.4696 0.0
H791 H 0.03252 0.48831 0.44609 0.0
H792 H 0.02103 0.49802 0.55013 0.0
H793 H 0.9875 0.47535 0.49429 0.0
H794 H 0.0277 0.53372 0.5118 0.0
H795 H 0.04358 0.51968 0.50356 0.0
H796 H 0.03634 0.52109 0.53836 0.0
H797 H 0.98745 0.50553 0.44387 0.0
H798 H 0.98423 0.48401 0.44893 0.0
H799 H 0.003 0.4914 0.43428 0.0
C800 C 0.93179 0.49125 0.94965 0.0
C801 C 0.92259 0.48059 0.93334 0.0
C802 C 0.94097 0.48544 0.9719 0.0
C803 C 0.94117 0.46853 0.9777 0.0
C804 C 0.93204 0.4577 0.96114 0.0
C805 C 0.92275 0.46388 0.93931 0.0
C806 C 0.95036 0.49739 0.98934 0.0
C807 C 0.93213 0.43958 0.96641 0.0
C808 C 0.97636 0.45177 0.01989 0.0
C809 C 0.9691 0.44978 0.0457 0.0
C810 C 0.96739 0.45778 0.99753 0.0
C811 C 0.95085 0.46217 0.00121 0.0
C812 C 0.94352 0.46035 0.0273 0.0
C813 C 0.95269 0.45405 0.04917 0.0
C814 C 0.97558 0.45931 0.96993 0.0
C815 C 0.92598 0.46512 0.03214 0.0
H816 H 0.93167 0.50419 0.94522 0.0
H817 H 0.91575 0.45556 0.92669 0.0
H818 H 0.94629 0.49652 0.01099 0.0
H819 H 0.96352 0.49437 0.98893 0.0
H820 H 0.94877 0.51017 0.98231 0.0
H821 H 0.92465 0.43276 0.95127 0.0
H822 H 0.94479 0.43488 0.96563 0.0
H823 H 0.92736 0.43702 0.98725 0.0
H824 H 0.98902 0.44843 0.01704 0.0
H825 H 0.94703 0.45264 0.06911 0.0
H826 H 0.97522 0.47216 0.96293 0.0
H827 H 0.96892 0.45195 0.9545 0.0
H828 H 0.98848 0.45522 0.97042 0.0
H829 H 0.92415 0.47811 0.02664 0.0
H830 H 0.92221 0.46332 0.0538 0.0
H831 H 0.91786 0.45781 0.01878 0.0
C832 C 0.55874 0.50349 0.46266 0.0
C833 C 0.55232 0.50169 0.43622 0.0
C834 C 0.54979 0.51134 0.48334 0.0
C835 C 0.53434 0.51806 0.47708 0.0
C836 C 0.52802 0.51667 0.45015 0.0
C837 C 0.53697 0.50822 0.43017 0.0
C838 C 0.5567 0.51209 0.51201 0.0
C839 C 0.51185 0.52415 0.44244 0.0
C840 C 0.50364 0.52515 0.53413 0.0
C841 C 0.50631 0.54158 0.54045 0.0
C842 C 0.51287 0.51728 0.51386 0.0
C843 C 0.52461 0.52624 0.49886 0.0
C844 C 0.52708 0.54296 0.50476 0.0
C845 C 0.51811 0.55036 0.52588 0.0
C846 C 0.51024 0.49932 0.50882 0.0
C847 C 0.53908 0.55305 0.48859 0.0
H848 H 0.57057 0.49832 0.46737 0.0
H849 H 0.53207 0.50694 0.40963 0.0
H850 H 0.55808 0.52495 0.51855 0.0
H851 H 0.54817 0.50619 0.52659 0.0
H852 H 0.56874 0.50598 0.51359 0.0
H853 H 0.50916 0.52286 0.42021 0.0
H854 H 0.50191 0.51826 0.45421 0.0
H855 H 0.51177 0.53729 0.44779 0.0
H856 H 0.49462 0.51833 0.5456 0.0
H857 H 0.52008 0.5631 0.53067 0.0
H858 H 0.5219 0.49265 0.5114 0.0
H859 H 0.5061 0.4973 0.48744 0.0
H860 H 0.50107 0.494 0.52297 0.0
H861 H 0.55157 0.54817 0.49133 0.0
H862 H 0.53902 0.56605 0.49491 0.0
H863 H 0.53618 0.55233 0.4664 0.0
C864 C 0.04943 0.38055 0.13167 0.0
C865 C 0.05042 0.39292 0.11187 0.0
C866 C 0.06116 0.36812 0.13294 0.0
C867 C 0.07426 0.36812 0.11407 0.0
C868 C 0.07505 0.38027 0.09351 0.0
C869 C 0.06309 0.39249 0.09258 0.0
C870 C 0.05981 0.35528 0.15498 0.0
C871 C 0.08885 0.38071 0.07305 0.0
C872 C 0.11429 0.34823 0.13421 0.0
C873 C 0.1139 0.33375 0.11895 0.0
C874 C 0.10134 0.35938 0.13316 0.0
C875 C 0.08759 0.35592 0.11661 0.0
C876 C 0.08688 0.34109 0.10183 0.0
C877 C 0.10007 0.33021 0.1031 0.0
C878 C 0.10257 0.37508 0.14919 0.0
C879 C 0.07236 0.3369 0.08419 0.0
H880 H 0.03964 0.38074 0.14657 0.0
H881 H 0.06397 0.40198 0.07721 0.0
H882 H 0.06045 0.34294 0.14576 0.0
H883 H 0.07019 0.35641 0.16942 0.0
H884 H 0.04829 0.35632 0.1668 0.0
H885 H 0.0873 0.39052 0.05758 0.0
H886 H 0.10055 0.38269 0.08394 0.0
H887 H 0.08977 0.36886 0.06221 0.0
H888 H 0.12491 0.35108 0.14651 0.0
H889 H 0.09962 0.31902 0.09132 0.0
H890 H 0.0919 0.37641 0.16296 0.0
H891 H 0.10245 0.38559 0.13488 0.0
H892 H 0.11384 0.3757 0.16175 0.0
H893 H 0.06099 0.33769 0.09642 0.0
H894 H 0.07327 0.32449 0.07525 0.0
H895 H 0.07129 0.34583 0.06721 0.0
C896 C 0.85092 0.84251 0.35887 0.0
C897 C 0.83817 0.84719 0.37633 0.0
C898 C 0.86293 0.85372 0.35083 0.0
C899 C 0.86212 0.86998 0.36038 0.0
C900 C 0.84928 0.87478 0.37797 0.0
C901 C 0.83749 0.86332 0.38577 0.0
C902 C 0.87648 0.84817 0.3321 0.0
C903 C 0.84795 0.89204 0.38847 0.0
C904 C 0.89984 0.8968 0.35997 0.0
C905 C 0.89722 0.90635 0.33651 0.0
C906 C 0.88867 0.88469 0.3677 0.0
C907 C 0.87452 0.88213 0.35167 0.0
C908 C 0.87191 0.89158 0.32781 0.0
C909 C 0.8833 0.90354 0.32049 0.0
C910 C 0.89189 0.8748 0.39324 0.0
C911 C 0.85693 0.88925 0.31026 0.0
H912 H 0.85156 0.83006 0.35154 0.0
H913 H 0.82768 0.86706 0.39925 0.0
H914 H 0.87628 0.85536 0.31284 0.0
H915 H 0.88846 0.85034 0.34199 0.0
H916 H 0.87551 0.83504 0.32682 0.0
H917 H 0.83726 0.89378 0.40214 0.0
H918 H 0.85913 0.89536 0.39996 0.0
H919 H 0.84689 0.90061 0.37097 0.0
H920 H 0.91059 0.89885 0.37241 0.0
H921 H 0.88117 0.91084 0.30232 0.0
H922 H 0.89176 0.86161 0.38827 0.0
H923 H 0.88209 0.87698 0.40847 0.0
H924 H 0.90378 0.87785 0.40283 0.0
H925 H 0.85606 0.8764 0.30337 0.0
H926 H 0.85694 0.89726 0.2919 0.0
H927 H 0.84584 0.8919 0.32249 0.0
C928 C 0.40273 0.67831 0.58231 0.0
C929 C 0.3892 0.67996 0.59967 0.0
C930 C 0.41286 0.66456 0.58378 0.0
C931 C 0.40931 0.65212 0.60295 0.0
C932 C 0.39597 0.65394 0.62111 0.0
C933 C 0.38611 0.66787 0.61931 0.0
C934 C 0.42706 0.66311 0.56427 0.0
C935 C 0.39179 0.64092 0.64183 0.0
C936 C 0.42296 0.60884 0.58797 0.0
C937 C 0.43629 0.6071 0.60574 0.0
C938 C 0.41425 0.62352 0.58656 0.0
C939 C 0.41903 0.63682 0.60319 0.0
C940 C 0.43274 0.63531 0.6206 0.0
C941 C 0.44118 0.62045 0.62172 0.0
C942 C 0.39966 0.62465 0.56777 0.0
C943 C 0.43828 0.64928 0.63846 0.0
H944 H 0.40526 0.68763 0.56716 0.0
H945 H 0.3757 0.66904 0.63282 0.0
H946 H 0.43843 0.66057 0.57578 0.0
H947 H 0.42503 0.65274 0.5501 0.0
H948 H 0.42884 0.67433 0.55188 0.0
H949 H 0.3815 0.64454 0.6553 0.0
H950 H 0.38845 0.6295 0.63103 0.0
H951 H 0.40252 0.63819 0.65485 0.0
H952 H 0.41909 0.59859 0.57555 0.0
H953 H 0.4515 0.61924 0.63544 0.0
H954 H 0.40112 0.63504 0.55345 0.0
H955 H 0.38851 0.62695 0.58003 0.0
H956 H 0.39783 0.61336 0.55559 0.0
H957 H 0.44034 0.66031 0.62578 0.0
H958 H 0.44967 0.64642 0.64978 0.0
H959 H 0.42863 0.65231 0.65355 0.0
C960 C 0.61174 0.06922 0.82527 0.0
C961 C 0.61595 0.05795 0.84571 0.0
C962 C 0.61974 0.08431 0.82328 0.0
C963 C 0.63224 0.0882 0.84217 0.0
C964 C 0.63685 0.07669 0.86235 0.0
C965 C 0.62867 0.06172 0.86387 0.0
C966 C 0.61453 0.09626 0.80143 0.0
C967 C 0.65016 0.08035 0.88283 0.0
C968 C 0.66265 0.12224 0.82911 0.0
C969 C 0.65664 0.13461 0.84621 0.0
C970 C 0.65452 0.10724 0.82677 0.0
C971 C 0.64003 0.10457 0.84187 0.0
C972 C 0.63355 0.11725 0.85824 0.0
C973 C 0.64193 0.13211 0.86021 0.0
C974 C 0.66177 0.09404 0.80901 0.0
C975 C 0.61809 0.11492 0.87456 0.0
H976 H 0.60197 0.0664 0.81109 0.0
H977 H 0.63207 0.05307 0.87966 0.0
H978 H 0.60924 0.10726 0.8112 0.0
H979 H 0.62522 0.10028 0.7893 0.0
H980 H 0.60534 0.09099 0.78725 0.0
H981 H 0.65278 0.06982 0.89645 0.0
H982 H 0.66154 0.08377 0.872 0.0
H983 H 0.64656 0.09087 0.89576 0.0
H984 H 0.67398 0.12407 0.81814 0.0
H985 H 0.63713 0.14161 0.87335 0.0
H986 H 0.65244 0.0891 0.79481 0.0
H987 H 0.66596 0.08381 0.82212 0.0
H988 H 0.67228 0.09849 0.79678 0.0
H989 H 0.60814 0.11055 0.86103 0.0
H990 H 0.61407 0.12632 0.88479 0.0
H991 H 0.62006 0.10547 0.89049 0.0
C992 C 0.09375 0.61638 0.34296 0.0
C993 C 0.09407 0.60065 0.35422 0.0
C994 C 0.10516 0.62821 0.35093 0.0
C995 C 0.1172 0.62421 0.37059 0.0
C996 C 0.11743 0.60844 0.38236 0.0
C997 C 0.10585 0.59687 0.37407 0.0
C998 C 0.10449 0.64492 0.33801 0.0
C999 C 0.13008 0.60372 0.40338 0.0
C1000 C 0.15671 0.64825 0.372 0.0
C1001 C 0.1543 0.65852 0.39463 0.0
C1002 C 0.14465 0.63717 0.36375 0.0
C1003 C 0.1298 0.63637 0.37843 0.0
C1004 C 0.12715 0.64693 0.40094 0.0
C1005 C 0.13944 0.65786 0.40879 0.0
C1006 C 0.14792 0.6261 0.33963 0.0
C1007 C 0.11143 0.64649 0.41699 0.0
H1008 H 0.08468 0.61944 0.32766 0.0
H1009 H 0.10619 0.58475 0.38289 0.0
H1010 H 0.10353 0.65439 0.35414 0.0
H1011 H 0.11591 0.64728 0.32652 0.0
H1012 H 0.09404 0.64626 0.32371 0.0
H1013 H 0.12836 0.59109 0.41105 0.0
H1014 H 0.14243 0.60469 0.39429 0.0
H1015 H 0.12962 0.6122 0.42107 0.0
H1016 H 0.16815 0.64867 0.36092 0.0
H1017 H 0.13745 0.66578 0.42626 0.0
H1018 H 0.13828 0.62763 0.3239 0.0
H1019 H 0.14761 0.6132 0.34639 0.0
H1020 H 0.15993 0.62853 0.32996 0.0
H1021 H 0.10092 0.6484 0.40305 0.0
H1022 H 0.11105 0.65589 0.43337 0.0
H1023 H 0.10988 0.63433 0.42658 0.0
C1024 C 0.63074 0.94699 0.60694 0.0
C1025 C 0.61502 0.94677 0.61822 0.0
C1026 C 0.64022 0.93275 0.60581 0.0
C1027 C 0.63377 0.91794 0.61599 0.0
C1028 C 0.61776 0.91756 0.62673 0.0
C1029 C 0.60862 0.93198 0.6278 0.0
C1030 C 0.65726 0.93364 0.59429 0.0
C1031 C 0.61039 0.90197 0.63752 0.0
C1032 C 0.6532 0.87816 0.59322 0.0
C1033 C 0.66298 0.87425 0.61589 0.0
C1034 C 0.6436 0.89231 0.59299 0.0
C1035 C 0.64386 0.90287 0.61592 0.0
C1036 C 0.65364 0.89898 0.63892 0.0
C1037 C 0.66304 0.88468 0.63868 0.0
C1038 C 0.63321 0.89598 0.56819 0.0
C1039 C 0.65427 0.90997 0.66373 0.0
H1040 H 0.63579 0.95837 0.59956 0.0
H1041 H 0.59646 0.93167 0.63643 0.0
H1042 H 0.6662 0.93022 0.61036 0.0
H1043 H 0.65865 0.92481 0.57722 0.0
H1044 H 0.66033 0.946 0.5866 0.0
H1045 H 0.59757 0.90361 0.64426 0.0
H1046 H 0.61075 0.8924 0.62146 0.0
H1047 H 0.61763 0.89745 0.65516 0.0
H1048 H 0.65305 0.87017 0.57553 0.0
H1049 H 0.6706 0.88179 0.65624 0.0
H1050 H 0.63681 0.90786 0.5592 0.0
H1051 H 0.62024 0.897 0.57433 0.0
H1052 H 0.63427 0.88645 0.55211 0.0
H1053 H 0.65843 0.92231 0.6576 0.0
H1054 H 0.66258 0.90527 0.67987 0.0
H1055 H 0.64191 0.91131 0.67262 0.0
C1056 C 0.34113 0.34889 0.87507 0.0
C1057 C 0.33273 0.35098 0.89987 0.0
C1058 C 0.35389 0.3594 0.86763 0.0
C1059 C 0.35829 0.37234 0.88536 0.0
C1060 C 0.34998 0.37439 0.91054 0.0
C1061 C 0.33734 0.36367 0.91752 0.0
C1062 C 0.36252 0.35679 0.84065 0.0
C1063 C 0.35426 0.38809 0.92993 0.0
C1064 C 0.39955 0.39282 0.87707 0.0
C1065 C 0.39542 0.40682 0.8621 0.0
C1066 C 0.38761 0.38141 0.88463 0.0
C1067 C 0.37116 0.38411 0.87714 0.0
C1068 C 0.36693 0.39822 0.86208 0.0
C1069 C 0.3791 0.40938 0.85471 0.0
C1070 C 0.39258 0.36647 0.90063 0.0
C1071 C 0.34951 0.40158 0.85384 0.0
H1072 H 0.33769 0.33908 0.86136 0.0
H1073 H 0.33093 0.36539 0.93673 0.0
H1074 H 0.36069 0.36754 0.82722 0.0
H1075 H 0.37582 0.35553 0.8441 0.0
H1076 H 0.35808 0.34578 0.8297 0.0
H1077 H 0.34695 0.38773 0.94907 0.0
H1078 H 0.36736 0.38749 0.93543 0.0
H1079 H 0.35219 0.39999 0.9197 0.0
H1080 H 0.41213 0.39073 0.88281 0.0
H1081 H 0.37578 0.42016 0.84316 0.0
H1082 H 0.38902 0.35531 0.88927 0.0
H1083 H 0.38612 0.3662 0.9206 0.0
H1084 H 0.40591 0.36605 0.90455 0.0
H1085 H 0.34479 0.39141 0.84113 0.0
H1086 H 0.34825 0.41309 0.84206 0.0
H1087 H 0.34171 0.40236 0.87237 0.0
C1088 C 0.90308 0.11296 0.08264 0.0
C1089 C 0.916 0.11403 0.10138 0.0
C1090 C 0.89075 0.1248 0.08205 0.0
C1091 C 0.89141 0.13809 0.10052 0.0
C1092 C 0.90473 0.13957 0.11879 0.0
C1093 C 0.91684 0.12749 0.11905 0.0
C1094 C 0.87674 0.12279 0.06227 0.0
C1095 C 0.90593 0.15365 0.1386 0.0
C1096 C 0.86424 0.17427 0.08411 0.0
C1097 C 0.85065 0.17117 0.10075 0.0
C1098 C 0.87781 0.16386 0.08436 0.0
C1099 C 0.87775 0.14998 0.10155 0.0
C1100 C 0.86427 0.14704 0.11898 0.0
C1101 C 0.85091 0.1577 0.11843 0.0
C1102 C 0.89203 0.16748 0.06568 0.0
C1103 C 0.86374 0.13234 0.1376 0.0
H1104 H 0.90232 0.10261 0.06889 0.0
H1105 H 0.92682 0.12847 0.13352 0.0
H1106 H 0.86523 0.12113 0.07387 0.0
H1107 H 0.87533 0.13391 0.04958 0.0
H1108 H 0.8784 0.11217 0.04843 0.0
H1109 H 0.91761 0.15364 0.15013 0.0
H1110 H 0.9048 0.16538 0.12747 0.0
H1111 H 0.89575 0.15305 0.15353 0.0
H1112 H 0.86418 0.1847 0.07047 0.0
H1113 H 0.84048 0.1552 0.13138 0.0
H1114 H 0.89318 0.1577 0.0501 0.0
H1115 H 0.90354 0.16768 0.0776 0.0
H1116 H 0.89066 0.17932 0.05491 0.0
H1117 H 0.86399 0.12105 0.12511 0.0
H1118 H 0.85266 0.13215 0.15067 0.0
H1119 H 0.87463 0.13214 0.15106 0.0
C1120 C 0.80211 0.61809 0.88215 0.0
C1121 C 0.79048 0.61451 0.90233 0.0
C1122 C 0.81391 0.60659 0.87448 0.0
C1123 C 0.81409 0.59111 0.88727 0.0
C1124 C 0.80266 0.58756 0.90816 0.0
C1125 C 0.791 0.5993 0.91545 0.0
C1126 C 0.82593 0.61085 0.85216 0.0
C1127 C 0.80247 0.57119 0.9223 0.0
C1128 C 0.83237 0.55621 0.8465 0.0
C1129 C 0.84797 0.55488 0.85806 0.0
C1130 C 0.82119 0.56781 0.85608 0.0
C1131 C 0.82568 0.57836 0.87776 0.0
C1132 C 0.8413 0.57692 0.88984 0.0
C1133 C 0.85226 0.56519 0.87985 0.0
C1134 C 0.80462 0.56892 0.84272 0.0
C1135 C 0.84651 0.58796 0.913 0.0
H1136 H 0.80185 0.62983 0.87197 0.0
H1137 H 0.7821 0.59642 0.93113 0.0
H1138 H 0.83857 0.60887 0.85949 0.0
H1139 H 0.82403 0.60274 0.83424 0.0
H1140 H 0.82472 0.62369 0.84526 0.0
H1141 H 0.7934 0.57067 0.93917 0.0
H1142 H 0.79955 0.56151 0.90722 0.0
H1143 H 0.81469 0.56841 0.93084 0.0
H1144 H 0.82892 0.54829 0.82971 0.0
H1145 H 0.86428 0.56424 0.88891 0.0
H1146 H 0.80301 0.58113 0.83336 0.0
H1147 H 0.79492 0.56743 0.85835 0.0
H1148 H 0.80287 0.55955 0.82654 0.0
H1149 H 0.84646 0.60081 0.90598 0.0
H1150 H 0.85889 0.58495 0.92073 0.0
H1151 H 0.83776 0.58704 0.93025 0.0
C1152 C 0.14083 0.05516 0.61672 0.0
C1153 C 0.12377 0.05604 0.61766 0.0
C1154 C 0.15043 0.06924 0.61848 0.0
C1155 C 0.14281 0.08463 0.62114 0.0
C1156 C 0.12561 0.08565 0.62204 0.0
C1157 C 0.11628 0.07133 0.62035 0.0
C1158 C 0.16875 0.06764 0.6176 0.0
C1159 C 0.11707 0.10186 0.6248 0.0
C1160 C 0.16925 0.118 0.65139 0.0
C1161 C 0.17492 0.12595 0.62777 0.0
C1162 C 0.15837 0.10487 0.64957 0.0
C1163 C 0.15298 0.09957 0.62349 0.0
C1164 C 0.15816 0.10792 0.59962 0.0
C1165 C 0.16909 0.121 0.60204 0.0
C1166 C 0.15314 0.09628 0.6755 0.0
C1167 C 0.15258 0.10267 0.57147 0.0
H1168 H 0.14673 0.04341 0.61467 0.0
H1169 H 0.10311 0.07213 0.62101 0.0
H1170 H 0.17372 0.07482 0.60025 0.0
H1171 H 0.17413 0.07264 0.6367 0.0
H1172 H 0.17277 0.05478 0.61529 0.0
H1173 H 0.1036 0.10059 0.62478 0.0
H1174 H 0.12083 0.1079 0.64413 0.0
H1175 H 0.12066 0.11001 0.60769 0.0
H1176 H 0.17362 0.12177 0.67138 0.0
H1177 H 0.17335 0.12711 0.58369 0.0
H1178 H 0.1579 0.08364 0.6755 0.0
H1179 H 0.13966 0.0955 0.67646 0.0
H1180 H 0.15758 0.10255 0.69426 0.0
H1181 H 0.15742 0.09035 0.56686 0.0
H1182 H 0.15672 0.11117 0.55517 0.0
H1183 H 0.1391 0.10188 0.57079 0.0
C1184 C 0.65238 0.42968 0.36619 0.0
C1185 C 0.63584 0.42725 0.37207 0.0
C1186 C 0.66417 0.41822 0.37401 0.0
C1187 C 0.65933 0.40397 0.38817 0.0
C1188 C 0.64272 0.40165 0.39494 0.0
C1189 C 0.63115 0.41332 0.38677 0.0
C1190 C 0.68176 0.42117 0.36641 0.0
C1191 C 0.63712 0.38665 0.41016 0.0
C1192 C 0.68827 0.36833 0.37948 0.0
C1193 C 0.69788 0.36952 0.4032 0.0
C1194 C 0.67523 0.37904 0.37491 0.0
C1195 C 0.67165 0.39122 0.39456 0.0
C1196 C 0.68078 0.39199 0.41915 0.0
C1197 C 0.6938 0.38114 0.42318 0.0
C1198 C 0.66576 0.37778 0.34843 0.0
C1199 C 0.67726 0.40473 0.44068 0.0
H1200 H 0.65615 0.44042 0.35494 0.0
H1201 H 0.6184 0.41136 0.39147 0.0
H1202 H 0.68956 0.4206 0.38497 0.0
H1203 H 0.68599 0.41148 0.35222 0.0
H1204 H 0.68361 0.43317 0.35636 0.0
H1205 H 0.62399 0.38721 0.41555 0.0
H1206 H 0.63923 0.37569 0.39733 0.0
H1207 H 0.6443 0.38508 0.42926 0.0
H1208 H 0.69125 0.35934 0.36399 0.0
H1209 H 0.70108 0.38209 0.44166 0.0
H1210 H 0.66799 0.38879 0.33577 0.0
H1211 H 0.6525 0.37726 0.35269 0.0
H1212 H 0.66922 0.36687 0.33628 0.0
H1213 H 0.6804 0.41696 0.43256 0.0
H1214 H 0.68432 0.40266 0.4598 0.0
H1215 H 0.66409 0.40486 0.44577 0.0
C1216 C 0.35972 0.91076 0.14111 0.0
C1217 C 0.36091 0.92087 0.16423 0.0
C1218 C 0.3461 0.90072 0.13704 0.0
C1219 C 0.33335 0.9008 0.15656 0.0
C1220 C 0.33482 0.91037 0.18059 0.0
C1221 C 0.3486 0.92029 0.18415 0.0
C1222 C 0.34501 0.89061 0.11124 0.0
C1223 C 0.32151 0.91073 0.20193 0.0
C1224 C 0.29041 0.89194 0.13197 0.0
C1225 C 0.28799 0.87594 0.14117 0.0
C1226 C 0.30518 0.90006 0.13661 0.0
C1227 C 0.31789 0.89199 0.15077 0.0
C1228 C 0.31566 0.87573 0.1597 0.0
C1229 C 0.30072 0.86789 0.15479 0.0
C1230 C 0.30709 0.91739 0.12668 0.0
C1231 C 0.32896 0.86672 0.17477 0.0
H1232 H 0.36921 0.91105 0.12567 0.0
H1233 H 0.34943 0.92799 0.20214 0.0
H1234 H 0.34185 0.87782 0.11629 0.0
H1235 H 0.33518 0.89543 0.09792 0.0
H1236 H 0.35659 0.89069 0.09943 0.0
H1237 H 0.32511 0.91771 0.22048 0.0
H1238 H 0.31042 0.91642 0.1931 0.0
H1239 H 0.31821 0.89817 0.20818 0.0
H1240 H 0.28067 0.89826 0.12138 0.0
H1241 H 0.29896 0.85552 0.16195 0.0
H1242 H 0.31777 0.91832 0.11284 0.0
H1243 H 0.30937 0.92558 0.14436 0.0
H1244 H 0.29615 0.92182 0.11553 0.0
H1245 H 0.34028 0.86663 0.16236 0.0
H1246 H 0.32551 0.85395 0.17952 0.0
H1247 H 0.33179 0.87309 0.19427 0.0
C1248 C 0.88259 0.39475 0.57934 0.0
C1249 C 0.88792 0.40328 0.60261 0.0
C1250 C 0.86722 0.38726 0.5787 0.0
C1251 C 0.85692 0.38831 0.6019 0.0
C1252 C 0.86227 0.39677 0.62555 0.0
C1253 C 0.8777 0.40416 0.62562 0.0
C1254 C 0.86195 0.37835 0.5531 0.0
C1255 C 0.85163 0.39815 0.65069 0.0
C1256 C 0.81137 0.38293 0.59141 0.0
C1257 C 0.80894 0.36683 0.60016 0.0
C1258 C 0.82691 0.39005 0.59184 0.0
C1259 C 0.84039 0.38084 0.6012 0.0
C1260 C 0.83807 0.36455 0.60988 0.0
C1261 C 0.82237 0.35773 0.60927 0.0
C1262 C 0.82889 0.40746 0.58239 0.0
C1263 C 0.85215 0.35434 0.61994 0.0
H1264 H 0.89039 0.39398 0.56146 0.0
H1265 H 0.88172 0.4107 0.64371 0.0
H1266 H 0.85885 0.36554 0.55812 0.0
H1267 H 0.85081 0.3841 0.54459 0.0
H1268 H 0.87153 0.37836 0.53701 0.0
H1269 H 0.85771 0.40487 0.66761 0.0
H1270 H 0.84014 0.40454 0.64542 0.0
H1271 H 0.84828 0.38583 0.65817 0.0
H1272 H 0.80108 0.39006 0.58433 0.0
H1273 H 0.82063 0.34529 0.61605 0.0
H1274 H 0.83769 0.40803 0.56515 0.0
H1275 H 0.83393 0.41498 0.59929 0.0
H1276 H 0.81719 0.41293 0.57559 0.0
H1277 H 0.86161 0.35345 0.60376 0.0
H1278 H 0.84833 0.34183 0.6258 0.0
H1279 H 0.85789 0.36024 0.63798 0.0
C1280 C 0.38098 0.09316 0.4175 0.0
C1281 C 0.39778 0.09353 0.42269 0.0
C1282 C 0.3712 0.10691 0.42195 0.0
C1283 C 0.37837 0.12141 0.432 0.0
C1284 C 0.3952 0.12169 0.4384 0.0
C1285 C 0.40472 0.10774 0.43362 0.0
C1286 C 0.35331 0.10611 0.41484 0.0
C1287 C 0.40324 0.13689 0.44937 0.0
C1288 C 0.35644 0.16017 0.41132 0.0
C1289 C 0.34696 0.16345 0.4346 0.0
C1290 C 0.36711 0.14684 0.41059 0.0
C1291 C 0.36842 0.13654 0.43377 0.0
C1292 C 0.35937 0.14012 0.45773 0.0
C1293 C 0.34871 0.15352 0.45786 0.0
C1294 C 0.37653 0.14343 0.38461 0.0
C1295 C 0.36055 0.12948 0.48291 0.0
H1296 H 0.37547 0.08222 0.40919 0.0
H1297 H 0.41768 0.10812 0.43782 0.0
H1298 H 0.34583 0.1101 0.43255 0.0
H1299 H 0.35068 0.11453 0.39761 0.0
H1300 H 0.34943 0.09365 0.4088 0.0
H1301 H 0.41604 0.13467 0.45576 0.0
H1302 H 0.40318 0.14648 0.43334 0.0
H1303 H 0.39634 0.1417 0.46717 0.0
H1304 H 0.35524 0.16779 0.39329 0.0
H1305 H 0.34149 0.156 0.47599 0.0
H1306 H 0.37249 0.13166 0.37571 0.0
H1307 H 0.38972 0.14231 0.38919 0.0
H1308 H 0.37484 0.15312 0.36895 0.0
H1309 H 0.35541 0.11728 0.47836 0.0
H1310 H 0.35387 0.13472 0.50065 0.0
H1311 H 0.37348 0.12771 0.48879 0.0
C1312 C 0.6526 0.57644 0.16522 0.0
C1313 C 0.63961 0.57997 0.14749 0.0
C1314 C 0.66709 0.58552 0.16433 0.0
C1315 C 0.66864 0.5984 0.14522 0.0
C1316 C 0.65545 0.60227 0.1277 0.0
C1317 C 0.6411 0.59303 0.12906 0.0
C1318 C 0.68088 0.58108 0.18342 0.0
C1319 C 0.65664 0.61592 0.10704 0.0
C1320 C 0.70195 0.63003 0.15542 0.0
C1321 C 0.71403 0.62443 0.13738 0.0
C1322 C 0.68712 0.62166 0.15828 0.0
C1323 C 0.68431 0.60739 0.14268 0.0
C1324 C 0.69644 0.60171 0.1244 0.0
C1325 C 0.71115 0.61028 0.122 0.0
C1326 C 0.67448 0.62806 0.17801 0.0
C1327 C 0.69387 0.58657 0.10732 0.0
H1328 H 0.65155 0.56642 0.17958 0.0
H1329 H 0.63112 0.59588 0.11531 0.0
H1330 H 0.69154 0.57693 0.17132 0.0
H1331 H 0.68477 0.59192 0.19531 0.0
H1332 H 0.67745 0.57126 0.19801 0.0
H1333 H 0.64504 0.61783 0.09574 0.0
H1334 H 0.66001 0.62746 0.11744 0.0
H1335 H 0.66638 0.61317 0.09198 0.0
H1336 H 0.70408 0.64094 0.16741 0.0
H1337 H 0.72039 0.60587 0.10798 0.0
H1338 H 0.67158 0.61864 0.19357 0.0
H1339 H 0.66303 0.63081 0.16685 0.0
H1340 H 0.67858 0.63927 0.18875 0.0
H1341 H 0.69154 0.57597 0.12087 0.0
H1342 H 0.70452 0.58377 0.09409 0.0
H1343 H 0.68299 0.5881 0.09407 0.0
C1344 C 0.15757 0.88459 0.95129 0.0
C1345 C 0.15874 0.86966 0.9374 0.0
C1346 C 0.14514 0.89575 0.94505 0.0
C1347 C 0.13364 0.8919 0.92439 0.0
C1348 C 0.13426 0.87651 0.91134 0.0
C1349 C 0.14678 0.86557 0.91804 0.0
C1350 C 0.1448 0.91199 0.95958 0.0
C1351 C 0.12223 0.87192 0.88923 0.0
C1352 C 0.09511 0.91703 0.9144 0.0
C1353 C 0.09959 0.9271 0.89239 0.0
C1354 C 0.10617 0.90575 0.92555 0.0
C1355 C 0.12204 0.9045 0.91438 0.0
C1356 C 0.12673 0.91489 0.89261 0.0
C1357 C 0.11547 0.92605 0.88194 0.0
C1358 C 0.10078 0.89492 0.94887 0.0
C1359 C 0.14354 0.91396 0.8801 0.0
H1360 H 0.16669 0.88782 0.96642 0.0
H1361 H 0.1475 0.85403 0.90732 0.0
H1362 H 0.14824 0.92177 0.94499 0.0
H1363 H 0.13233 0.91473 0.96703 0.0
H1364 H 0.15333 0.91236 0.97725 0.0
H1365 H 0.12345 0.85898 0.88286 0.0
H1366 H 0.10958 0.87401 0.89639 0.0
H1367 H 0.12417 0.87975 0.87097 0.0
H1368 H 0.08287 0.91779 0.92265 0.0
H1369 H 0.11909 0.93381 0.86502 0.0
H1370 H 0.10948 0.89585 0.96621 0.0
H1371 H 0.10073 0.88203 0.94205 0.0
H1372 H 0.0884 0.89809 0.95637 0.0
H1373 H 0.15294 0.91568 0.89618 0.0
H1374 H 0.14544 0.92327 0.86388 0.0
H1375 H 0.14548 0.90173 0.87099 0.0
C1376 C 0.26692 0.28415 0.99547 0.0
C1377 C 0.2634 0.29204 0.97064 0.0
C1378 C 0.25498 0.28248 0.01592 0.0
C1379 C 0.23913 0.28872 0.01128 0.0
C1380 C 0.23533 0.29603 0.98579 0.0
C1381 C 0.24752 0.29767 0.96585 0.0
C1382 C 0.25951 0.27469 0.0429 0.0
C1383 C 0.21852 0.30268 0.97993 0.0
C1384 C 0.20342 0.27671 0.05665 0.0
C1385 C 0.20187 0.29053 0.07339 0.0
C1386 C 0.21575 0.27573 0.03672 0.0
C1387 C 0.22685 0.2888 0.03369 0.0
C1388 C 0.22567 0.30252 0.05117 0.0
C1389 C 0.21317 0.30324 0.07068 0.0
C1390 C 0.21657 0.26096 0.01832 0.0
C1391 C 0.23738 0.31665 0.04879 0.0
H1392 H 0.27916 0.27976 0.99933 0.0
H1393 H 0.24464 0.30364 0.94663 0.0
H1394 H 0.25911 0.28398 0.05942 0.0
H1395 H 0.2506 0.26506 0.04834 0.0
H1396 H 0.27189 0.26925 0.04245 0.0
H1397 H 0.21719 0.3068 0.95835 0.0
H1398 H 0.20916 0.29327 0.98415 0.0
H1399 H 0.216 0.31316 0.99365 0.0
H1400 H 0.19473 0.26684 0.05859 0.0
H1401 H 0.21216 0.31391 0.08369 0.0
H1402 H 0.229 0.25568 0.01863 0.0
H1403 H 0.21395 0.26461 0.99686 0.0
H1404 H 0.20773 0.25139 0.02446 0.0
H1405 H 0.25013 0.31223 0.05007 0.0
H1406 H 0.23543 0.32593 0.06504 0.0
H1407 H 0.23589 0.32261 0.02852 0.0
C1408 C 0.95019 0.021 0.16193 0.0
C1409 C 0.96241 0.03287 0.15972 0.0
C1410 C 0.95056 0.0093 0.18282 0.0
C1411 C 0.96341 0.0095 0.20216 0.0
C1412 C 0.97593 0.02127 0.19988 0.0
C1413 C 0.97532 0.03281 0.17859 0.0
C1414 C 0.93703 0.99685 0.18441 0.0
C1415 C 0.98978 0.02188 0.22022 0.0
C1416 C 0.95273 0.98906 0.26948 0.0
C1417 C 0.95936 0.97346 0.26582 0.0
C1418 C 0.95466 0.00118 0.24947 0.0
C1419 C 0.96333 0.99759 0.22512 0.0
C1420 C 0.97063 0.98209 0.22179 0.0
C1421 C 0.9686 0.97022 0.24223 0.0
C1422 C 0.94681 0.01762 0.25387 0.0
C1423 C 0.97992 0.97779 0.19608 0.0
H1424 H 0.94022 0.02087 0.14735 0.0
H1425 H 0.9848 0.04195 0.17705 0.0
H1426 H 0.94219 0.98436 0.18413 0.0
H1427 H 0.9303 0.99828 0.204 0.0
H1428 H 0.92822 0.99802 0.16722 0.0
H1429 H 0.99888 0.0314 0.215 0.0
H1430 H 0.98493 0.0244 0.24103 0.0
H1431 H 0.99602 0.00991 0.22111 0.0
H1432 H 0.9457 0.99173 0.28774 0.0
H1433 H 0.97381 0.95822 0.23924 0.0
H1434 H 0.93671 0.01927 0.23899 0.0
H1435 H 0.95575 0.0275 0.25017 0.0
H1436 H 0.94182 0.01898 0.27492 0.0
H1437 H 0.97141 0.97736 0.17842 0.0
H1438 H 0.98613 0.96581 0.19774 0.0
H1439 H 0.98917 0.98726 0.1915 0.0
C1440 C 0.24077 0.72773 0.46701 0.0
C1441 C 0.23768 0.71158 0.45904 0.0
C1442 C 0.25299 0.73138 0.48625 0.0
C1443 C 0.26232 0.71858 0.49774 0.0
C1444 C 0.25945 0.70231 0.48941 0.0
C1445 C 0.24719 0.69902 0.4702 0.0
C1446 C 0.25575 0.74887 0.49461 0.0
C1447 C 0.26917 0.68832 0.50114 0.0
C1448 C 0.30335 0.72486 0.53192 0.0
C1449 C 0.29929 0.72316 0.55974 0.0
C1450 C 0.2913 0.72431 0.5115 0.0
C1451 C 0.27483 0.72196 0.51908 0.0
C1452 C 0.27055 0.7212 0.54717 0.0
C1453 C 0.28283 0.72184 0.56716 0.0
C1454 C 0.29633 0.72531 0.48177 0.0
C1455 C 0.25311 0.71875 0.55608 0.0
H1456 H 0.2335 0.73752 0.45849 0.0
H1457 H 0.24496 0.68652 0.46414 0.0
H1458 H 0.25309 0.75035 0.51677 0.0
H1459 H 0.2687 0.75224 0.49148 0.0
H1460 H 0.24797 0.75747 0.48287 0.0
H1461 H 0.26567 0.67642 0.49202 0.0
H1462 H 0.28236 0.69031 0.49753 0.0
H1463 H 0.26732 0.68766 0.52365 0.0
H1464 H 0.31601 0.726 0.52597 0.0
H1465 H 0.27954 0.72062 0.58858 0.0
H1466 H 0.28849 0.73407 0.47055 0.0
H1467 H 0.29472 0.71322 0.47195 0.0
H1468 H 0.30925 0.72907 0.47938 0.0
H1469 H 0.24501 0.72763 0.54571 0.0
H1470 H 0.2516 0.72005 0.57862 0.0
H1471 H 0.249 0.70638 0.55004 0.0
C1472 C 0.56351 0.98476 0.71357 0.0
C1473 C 0.56888 0.99861 0.69944 0.0
C1474 C 0.56207 0.98483 0.7422 0.0
C1475 C 0.56556 0.99927 0.75696 0.0
C1476 C 0.56996 0.01361 0.74263 0.0
C1477 C 0.57188 0.01303 0.71401 0.0
C1478 C 0.55778 0.96915 0.75673 0.0
C1479 C 0.57319 0.02939 0.75758 0.0
C1480 C 0.55147 0.99763 0.83101 0.0
C1481 C 0.56596 0.9935 0.84446 0.0
C1482 C 0.55133 0.00067 0.80267 0.0
C1483 C 0.5659 0.99884 0.78743 0.0
C1484 C 0.58063 0.99504 0.80115 0.0
C1485 C 0.58051 0.99263 0.8296 0.0
C1486 C 0.53553 0.00531 0.78892 0.0
C1487 C 0.59635 0.99254 0.78561 0.0
H1488 H 0.56134 0.97355 0.70239 0.0
H1489 H 0.57595 0.02378 0.70307 0.0
H1490 H 0.56809 0.96534 0.76999 0.0
H1491 H 0.54707 0.97098 0.77021 0.0
H1492 H 0.55502 0.9591 0.74219 0.0
H1493 H 0.57414 0.03988 0.7433 0.0
H1494 H 0.56334 0.03187 0.77261 0.0
H1495 H 0.58475 0.02844 0.76923 0.0
H1496 H 0.54023 0.99833 0.84263 0.0
H1497 H 0.59165 0.98916 0.84001 0.0
H1498 H 0.53107 0.99499 0.7763 0.0
H1499 H 0.53742 0.01581 0.77495 0.0
H1500 H 0.52593 0.00852 0.80404 0.0
H1501 H 0.59505 0.98203 0.77146 0.0
H1502 H 0.60683 0.9902 0.79947 0.0
H1503 H 0.59915 0.00339 0.77293 0.0
C1504 C 0.74867 0.66387 0.96422 0.0
C1505 C 0.73726 0.67615 0.95866 0.0
C1506 C 0.75725 0.66349 0.98911 0.0
C1507 C 0.75384 0.67527 0.00951 0.0
C1508 C 0.74212 0.68754 0.0043 0.0
C1509 C 0.73408 0.68791 0.97887 0.0
C1510 C 0.76977 0.65028 0.99371 0.0
C1511 C 0.73781 0.70004 0.02582 0.0
C1512 C 0.76439 0.66281 0.08241 0.0
C1513 C 0.77879 0.67155 0.0872 0.0
C1514 C 0.75582 0.6644 0.05764 0.0
C1515 C 0.76218 0.67442 0.03659 0.0
C1516 C 0.77683 0.6831 0.04106 0.0
C1517 C 0.78487 0.68167 0.06637 0.0
C1518 C 0.74014 0.65504 0.05384 0.0
C1519 C 0.78423 0.69357 0.01886 0.0
H1520 H 0.75053 0.65415 0.94967 0.0
H1521 H 0.72513 0.69733 0.97494 0.0
H1522 H 0.78136 0.65563 0.0012 0.0
H1523 H 0.76536 0.64173 0.00967 0.0
H1524 H 0.77231 0.64324 0.97475 0.0
H1525 H 0.72849 0.70883 0.01851 0.0
H1526 H 0.73309 0.69383 0.0444 0.0
H1527 H 0.74885 0.70691 0.03202 0.0
H1528 H 0.76006 0.65424 0.09747 0.0
H1529 H 0.7961 0.68834 0.0697 0.0
H1530 H 0.74202 0.64512 0.03872 0.0
H1531 H 0.73047 0.66313 0.04565 0.0
H1532 H 0.73577 0.64955 0.07331 0.0
H1533 H 0.78706 0.68595 0.00067 0.0
H1534 H 0.79559 0.69969 0.02571 0.0
H1535 H 0.77541 0.703 0.01221 0.0
C1536 C 0.05055 0.9787 0.76919 0.0
C1537 C 0.06375 0.983 0.78596 0.0
C1538 C 0.05131 0.98065 0.74062 0.0
C1539 C 0.06572 0.9868 0.72852 0.0
C1540 C 0.07872 0.99204 0.74545 0.0
C1541 C 0.07753 0.99018 0.77401 0.0
C1542 C 0.03705 0.97523 0.72332 0.0
C1543 C 0.09435 0.99854 0.73334 0.0
C1544 C 0.076 0.97039 0.65793 0.0
C1545 C 0.0722 0.98362 0.64095 0.0
C1546 C 0.0741 0.97139 0.68643 0.0
C1547 C 0.06795 0.9859 0.69826 0.0
C1548 C 0.0639 0.99926 0.68121 0.0
C1549 C 0.06615 0.99799 0.65269 0.0
C1550 C 0.07877 0.95692 0.70389 0.0
C1551 C 0.05701 0.01479 0.69305 0.0
H1552 H 0.03979 0.97329 0.7783 0.0
H1553 H 0.08779 0.99354 0.78681 0.0
H1554 H 0.0341 0.98457 0.70765 0.0
H1555 H 0.04028 0.96386 0.7123 0.0
H1556 H 0.02601 0.97288 0.73588 0.0
H1557 H 0.10254 0.00373 0.74923 0.0
H1558 H 0.10088 0.98853 0.72271 0.0
H1559 H 0.09173 0.00808 0.71785 0.0
H1560 H 0.08073 0.95928 0.64891 0.0
H1561 H 0.06281 0.00809 0.63955 0.0
H1562 H 0.06797 0.95244 0.71527 0.0
H1563 H 0.08802 0.96059 0.71929 0.0
H1564 H 0.08377 0.94671 0.69153 0.0
H1565 H 0.0454 0.01215 0.70382 0.0
H1566 H 0.0547 0.02414 0.67705 0.0
H1567 H 0.06553 0.01992 0.70844 0.0
C1568 C 0.77672 0.3397 0.45189 0.0
C1569 C 0.76956 0.33028 0.43121 0.0
C1570 C 0.77018 0.33995 0.47848 0.0
C1571 C 0.75656 0.33003 0.48471 0.0
C1572 C 0.74957 0.32014 0.46399 0.0
C1573 C 0.75599 0.32063 0.43731 0.0
C1574 C 0.77761 0.35111 0.49971 0.0
C1575 C 0.7354 0.30899 0.47004 0.0
C1576 C 0.74946 0.32072 0.56015 0.0
C1577 C 0.73627 0.33091 0.56614 0.0
C1578 C 0.75598 0.32003 0.53354 0.0
C1579 C 0.74947 0.33022 0.5128 0.0
C1580 C 0.73628 0.34073 0.51895 0.0
C1581 C 0.72962 0.34069 0.54546 0.0
C1582 C 0.76967 0.30828 0.52756 0.0
C1583 C 0.72932 0.35214 0.49767 0.0
H1584 H 0.78715 0.34727 0.44701 0.0
H1585 H 0.75058 0.31324 0.42128 0.0
H1586 H 0.76821 0.35964 0.50754 0.0
H1587 H 0.78205 0.34392 0.51745 0.0
H1588 H 0.78793 0.35832 0.49137 0.0
H1589 H 0.7321 0.3013 0.45213 0.0
H1590 H 0.7384 0.30092 0.48759 0.0
H1591 H 0.72459 0.31627 0.476 0.0
H1592 H 0.75444 0.31302 0.57615 0.0
H1593 H 0.71944 0.34862 0.55023 0.0
H1594 H 0.78071 0.31506 0.52117 0.0
H1595 H 0.76622 0.30016 0.5103 0.0
H1596 H 0.77279 0.30064 0.54562 0.0
H1597 H 0.73917 0.35973 0.48872 0.0
H1598 H 0.71984 0.36032 0.50629 0.0
H1599 H 0.72384 0.34503 0.48068 0.0
C1600 C 0.43737 0.02218 0.31777 0.0
C1601 C 0.4254 0.02112 0.33819 0.0
C1602 C 0.43447 0.01625 0.29122 0.0
C1603 C 0.4191 0.00942 0.2848 0.0
C1604 C 0.40727 0.00755 0.3057 0.0
C1605 C 0.41063 0.01329 0.33224 0.0
C1606 C 0.44754 0.01813 0.26967 0.0
C1607 C 0.39067 0.00051 0.29962 0.0
C1608 C 0.40541 0.01582 0.21132 0.0
C1609 C 0.40796 0.00041 0.19978 0.0
C1610 C 0.40856 0.01873 0.23914 0.0
C1611 C 0.41479 0.00601 0.25571 0.0
C1612 C 0.41732 0.99036 0.24421 0.0
C1613 C 0.41375 0.98771 0.21635 0.0
C1614 C 0.40541 0.03552 0.2507 0.0
C1615 C 0.42426 0.9766 0.26108 0.0
H1616 H 0.44888 0.02808 0.32232 0.0
H1617 H 0.4013 0.01247 0.3479 0.0
H1618 H 0.44912 0.0066 0.25811 0.0
H1619 H 0.44385 0.02765 0.25476 0.0
H1620 H 0.45945 0.02167 0.27871 0.0
H1621 H 0.38353 0.99825 0.31859 0.0
H1622 H 0.38376 0.00911 0.28647 0.0
H1623 H 0.3918 0.9889 0.28814 0.0
H1624 H 0.40087 0.02564 0.19855 0.0
H1625 H 0.41604 0.97587 0.20733 0.0
H1626 H 0.41704 0.04104 0.25762 0.0
H1627 H 0.39731 0.03467 0.26885 0.0
H1628 H 0.3997 0.04379 0.23545 0.0
H1629 H 0.43678 0.97977 0.2678 0.0
H1630 H 0.42473 0.96497 0.24946 0.0
H1631 H 0.41687 0.97473 0.27985 0.0
C1632 C 0.74114 0.81195 0.56943 0.0
C1633 C 0.72877 0.8016 0.57887 0.0
C1634 C 0.75127 0.80738 0.54763 0.0
C1635 C 0.74891 0.79211 0.53474 0.0
C1636 C 0.73682 0.78134 0.54472 0.0
C1637 C 0.72691 0.78619 0.56678 0.0
C1638 C 0.76415 0.81916 0.53782 0.0
C1639 C 0.73393 0.76498 0.53144 0.0
C1640 C 0.7636 0.7925 0.46122 0.0
C1641 C 0.77932 0.78598 0.46386 0.0
C1642 C 0.75313 0.79354 0.48385 0.0
C1643 C 0.75854 0.78804 0.50982 0.0
C1644 C 0.77396 0.78047 0.51226 0.0
C1645 C 0.78416 0.77947 0.4892 0.0
C1646 C 0.73667 0.80149 0.4803 0.0
C1647 C 0.78016 0.77445 0.53958 0.0
H1648 H 0.74277 0.82382 0.5788 0.0
H1649 H 0.71737 0.77813 0.57394 0.0
H1650 H 0.77622 0.81307 0.53724 0.0
H1651 H 0.76129 0.82318 0.51664 0.0
H1652 H 0.76507 0.83011 0.55111 0.0
H1653 H 0.72512 0.75744 0.54316 0.0
H1654 H 0.72911 0.76679 0.5104 0.0
H1655 H 0.74555 0.75818 0.52953 0.0
H1656 H 0.75969 0.79738 0.44165 0.0
H1657 H 0.79627 0.77437 0.49143 0.0
H1658 H 0.73667 0.81354 0.49061 0.0
H1659 H 0.72702 0.794 0.49004 0.0
H1660 H 0.73351 0.80332 0.45836 0.0
H1661 H 0.78308 0.78503 0.55286 0.0
H1662 H 0.7913 0.76688 0.53739 0.0
H1663 H 0.77068 0.7672 0.55024 0.0
C1664 C 0.45347 0.47903 0.77805 0.0
C1665 C 0.462 0.46422 0.77799 0.0
C1666 C 0.45543 0.49036 0.75678 0.0
C1667 C 0.46608 0.48673 0.73477 0.0
C1668 C 0.47493 0.47194 0.73478 0.0
C1669 C 0.47284 0.46088 0.75646 0.0
C1670 C 0.44588 0.50608 0.75761 0.0
C1671 C 0.48629 0.46762 0.71155 0.0
C1672 C 0.45665 0.50831 0.66789 0.0
C1673 C 0.46799 0.5211 0.66812 0.0
C1674 C 0.45623 0.49678 0.68909 0.0
C1675 C 0.46731 0.49814 0.71119 0.0
C1676 C 0.47904 0.51079 0.71127 0.0
C1677 C 0.47929 0.52208 0.68964 0.0
C1678 C 0.44365 0.48336 0.68812 0.0
C1679 C 0.49099 0.51267 0.7346 0.0
H1680 H 0.44516 0.48177 0.79469 0.0
H1681 H 0.47947 0.44947 0.75624 0.0
H1682 H 0.45424 0.51663 0.7557 0.0
H1683 H 0.43734 0.50657 0.74 0.0
H1684 H 0.43876 0.50741 0.77685 0.0
H1685 H 0.49281 0.45595 0.7152 0.0
H1686 H 0.47929 0.46656 0.69217 0.0
H1687 H 0.49543 0.47742 0.70859 0.0
H1688 H 0.44795 0.50738 0.65125 0.0
H1689 H 0.48807 0.53194 0.68999 0.0
H1690 H 0.43509 0.48469 0.70558 0.0
H1691 H 0.44964 0.47131 0.69023 0.0
H1692 H 0.43652 0.48348 0.66876 0.0
H1693 H 0.4843 0.51527 0.75387 0.0
H1694 H 0.49985 0.52266 0.73092 0.0
H1695 H 0.49781 0.50115 0.73776 0.0
C1696 C 0.75407 0.19826 0.03996 0.0
C1697 C 0.76615 0.21032 0.04165 0.0
C1698 C 0.7435 0.19746 0.01741 0.0
C1699 C 0.74507 0.20894 0.99592 0.0
C1700 C 0.75664 0.22166 0.99816 0.0
C1701 C 0.76702 0.22223 0.02106 0.0
C1702 C 0.7312 0.18381 0.01595 0.0
C1703 C 0.75866 0.23415 0.97569 0.0
C1704 C 0.73238 0.19321 0.92598 0.0
C1705 C 0.71669 0.19978 0.92315 0.0
C1706 C 0.74192 0.19657 0.94916 0.0
C1707 C 0.73562 0.20668 0.97015 0.0
C1708 C 0.72001 0.21377 0.96708 0.0
C1709 C 0.71074 0.21027 0.94357 0.0
C1710 C 0.75857 0.18886 0.95156 0.0
C1711 C 0.71288 0.2246 0.98903 0.0
H1712 H 0.7532 0.18909 0.05588 0.0
H1713 H 0.7763 0.2316 0.02218 0.0
H1714 H 0.71893 0.18871 0.01116 0.0
H1715 H 0.73456 0.17531 0.99919 0.0
H1716 H 0.7305 0.17681 0.03541 0.0
H1717 H 0.7669 0.24424 0.98185 0.0
H1718 H 0.7638 0.22819 0.95719 0.0
H1719 H 0.74669 0.23935 0.96984 0.0
H1720 H 0.73714 0.18518 0.91026 0.0
H1721 H 0.69864 0.21541 0.94158 0.0
H1722 H 0.75875 0.18029 0.96915 0.0
H1723 H 0.7679 0.19833 0.95559 0.0
H1724 H 0.76207 0.18207 0.93275 0.0
H1725 H 0.71075 0.21737 0.00791 0.0
H1726 H 0.70116 0.23018 0.9826 0.0
H1727 H 0.72155 0.23446 0.99439 0.0
C1728 C 0.04379 0.51559 0.26893 0.0
C1729 C 0.03555 0.53015 0.27471 0.0
C1730 C 0.03874 0.5054 0.2475 0.0
C1731 C 0.02523 0.50996 0.23117 0.0
C1732 C 0.0168 0.52462 0.23691 0.0
C1733 C 0.022 0.5345 0.25877 0.0
C1734 C 0.04793 0.48975 0.24226 0.0
C1735 C 0.00247 0.52996 0.21972 0.0
C1736 C 0.02475 0.48972 0.1613 0.0
C1737 C 0.01407 0.47663 0.16574 0.0
C1738 C 0.02782 0.50119 0.182 0.0
C1739 C 0.02021 0.4994 0.20787 0.0
C1740 C 0.0089 0.48664 0.2121 0.0
C1741 C 0.00588 0.47546 0.1909 0.0
C1742 C 0.03977 0.51479 0.17656 0.0
C1743 C 0.00064 0.48426 0.23947 0.0
H1744 H 0.0542 0.51208 0.28126 0.0
H1745 H 0.01561 0.54577 0.26305 0.0
H1746 H 0.03946 0.47924 0.24308 0.0
H1747 H 0.05334 0.48999 0.22143 0.0
H1748 H 0.05784 0.48773 0.25739 0.0
H1749 H 0.99709 0.54157 0.2271 0.0
H1750 H 0.00636 0.53158 0.1981 0.0
H1751 H 0.9929 0.52043 0.21988 0.0
H1752 H 0.03101 0.49079 0.14182 0.0
H1753 H 0.99762 0.46539 0.19452 0.0
H1754 H 0.05094 0.51285 0.18895 0.0
H1755 H 0.0345 0.52667 0.18281 0.0
H1756 H 0.04331 0.51549 0.1546 0.0
H1757 H 0.00985 0.48075 0.25505 0.0
H1758 H 0.99113 0.47465 0.23871 0.0
H1759 H 0.99496 0.49579 0.24646 0.0
C1760 C 0.24148 0.18351 0.58613 0.0
C1761 C 0.25213 0.17282 0.59947 0.0
C1762 C 0.24415 0.18808 0.55877 0.0
C1763 C 0.25741 0.18124 0.54416 0.0
C1764 C 0.2676 0.16963 0.55715 0.0
C1765 C 0.26508 0.16587 0.58493 0.0
C1766 C 0.23338 0.20096 0.54609 0.0
C1767 C 0.28142 0.16154 0.54195 0.0
C1768 C 0.25669 0.18785 0.46689 0.0
C1769 C 0.26801 0.20047 0.46403 0.0
C1770 C 0.2536 0.18091 0.49275 0.0
C1771 C 0.26146 0.18736 0.51626 0.0
C1772 C 0.27285 0.20021 0.5133 0.0
C1773 C 0.27624 0.20635 0.4871 0.0
C1774 C 0.24195 0.16676 0.49494 0.0
C1775 C 0.28106 0.20785 0.53786 0.0
H1776 H 0.23157 0.18899 0.59758 0.0
H1777 H 0.27324 0.15752 0.59532 0.0
H1778 H 0.24079 0.21188 0.54115 0.0
H1779 H 0.22808 0.19648 0.52659 0.0
H1780 H 0.22329 0.20467 0.55992 0.0
H1781 H 0.28664 0.15116 0.55364 0.0
H1782 H 0.27718 0.15705 0.5217 0.0
H1783 H 0.29125 0.17051 0.53812 0.0
H1784 H 0.25041 0.1833 0.44888 0.0
H1785 H 0.28489 0.21624 0.48474 0.0
H1786 H 0.23096 0.17047 0.50659 0.0
H1787 H 0.24773 0.1566 0.50638 0.0
H1788 H 0.23805 0.16222 0.4745 0.0
H1789 H 0.27172 0.21249 0.55235 0.0
H1790 H 0.2892 0.21809 0.53206 0.0
H1791 H 0.28836 0.1986 0.54896 0.0
C1792 C 0.57395 0.50771 0.28078 0.0
C1793 C 0.57795 0.49109 0.28162 0.0
C1794 C 0.57146 0.51573 0.25565 0.0
C1795 C 0.5729 0.5069 0.23084 0.0
C1796 C 0.57695 0.49014 0.23157 0.0
C1797 C 0.57945 0.48247 0.2569 0.0
C1798 C 0.56723 0.53363 0.25564 0.0
C1799 C 0.57854 0.48026 0.20556 0.0
C1800 C 0.55211 0.5209 0.16545 0.0
C1801 C 0.56524 0.52719 0.15043 0.0
C1802 C 0.55431 0.51484 0.1921 0.0
C1803 C 0.57004 0.515 0.20397 0.0
C1804 C 0.58326 0.52176 0.18921 0.0
C1805 C 0.58072 0.52769 0.16254 0.0
C1806 C 0.53991 0.50768 0.20713 0.0
C1807 C 0.60023 0.5221 0.20115 0.0
H1808 H 0.5728 0.51449 0.29975 0.0
H1809 H 0.58251 0.46963 0.25729 0.0
H1810 H 0.57636 0.54051 0.24351 0.0
H1811 H 0.55523 0.53552 0.24569 0.0
H1812 H 0.56677 0.53881 0.27667 0.0
H1813 H 0.58184 0.46737 0.20967 0.0
H1814 H 0.56688 0.4805 0.19406 0.0
H1815 H 0.58798 0.48568 0.1921 0.0
H1816 H 0.54012 0.52044 0.15616 0.0
H1817 H 0.59103 0.53196 0.15078 0.0
H1818 H 0.53878 0.51323 0.22779 0.0
H1819 H 0.54179 0.49441 0.21007 0.0
H1820 H 0.52829 0.50954 0.19588 0.0
H1821 H 0.6001 0.52805 0.22157 0.0
H1822 H 0.60898 0.52867 0.18776 0.0
H1823 H 0.60469 0.50946 0.20412 0.0
C1824 C 0.24336 0.83779 0.97127 0.0
C1825 C 0.23263 0.8275 0.95721 0.0
C1826 C 0.241 0.84126 0.99924 0.0
C1827 C 0.22791 0.83381 0.01347 0.0
C1828 C 0.21749 0.82286 0.99947 0.0
C1829 C 0.21985 0.82003 0.97143 0.0
C1830 C 0.25208 0.85333 0.01328 0.0
C1831 C 0.20367 0.81433 0.014 0.0
C1832 C 0.22687 0.8318 0.09133 0.0
C1833 C 0.21473 0.84324 0.09733 0.0
C1834 C 0.23171 0.82891 0.06412 0.0
C1835 C 0.22447 0.83798 0.04259 0.0
C1836 C 0.2128 0.85013 0.04879 0.0
C1837 C 0.20787 0.85242 0.07606 0.0
C1838 C 0.24386 0.81555 0.05829 0.0
C1839 C 0.20507 0.86034 0.02653 0.0
H1840 H 0.25321 0.8436 0.96015 0.0
H1841 H 0.2117 0.81188 0.96055 0.0
H1842 H 0.2449 0.8641 0.01984 0.0
H1843 H 0.25745 0.84787 0.03201 0.0
H1844 H 0.2621 0.8575 0.99969 0.0
H1845 H 0.19759 0.80515 0.00074 0.0
H1846 H 0.20822 0.80815 0.03273 0.0
H1847 H 0.19443 0.82339 0.02058 0.0
H1848 H 0.23199 0.82453 0.10776 0.0
H1849 H 0.19854 0.86135 0.08076 0.0
H1850 H 0.2538 0.82013 0.04497 0.0
H1851 H 0.23773 0.80551 0.04707 0.0
H1852 H 0.24929 0.81052 0.07736 0.0
H1853 H 0.21457 0.86544 0.01281 0.0
H1854 H 0.19774 0.87053 0.03502 0.0
H1855 H 0.19698 0.8526 0.01379 0.0
C1856 C 0.92018 0.47568 0.77411 0.0
C1857 C 0.91648 0.49233 0.77613 0.0
C1858 C 0.92731 0.46923 0.75029 0.0
C1859 C 0.93093 0.47968 0.72803 0.0
C1860 C 0.92725 0.49649 0.72993 0.0
C1861 C 0.92003 0.5026 0.7539 0.0
C1862 C 0.93098 0.45122 0.74896 0.0
C1863 C 0.93105 0.50804 0.7067 0.0
C1864 C 0.96352 0.46662 0.67737 0.0
C1865 C 0.95417 0.46099 0.65523 0.0
C1866 C 0.95611 0.47266 0.70121 0.0
C1867 C 0.93891 0.47311 0.70296 0.0
C1868 C 0.92939 0.46752 0.68064 0.0
C1869 C 0.93714 0.46166 0.65693 0.0
C1870 C 0.96669 0.47861 0.72448 0.0
C1871 C 0.91101 0.46787 0.68171 0.0
H1872 H 0.91742 0.46764 0.7911 0.0
H1873 H 0.91725 0.51548 0.75525 0.0
H1874 H 0.92469 0.44569 0.7311 0.0
H1875 H 0.94424 0.44931 0.746 0.0
H1876 H 0.92713 0.44468 0.76782 0.0
H1877 H 0.92726 0.52075 0.7113 0.0
H1878 H 0.94432 0.50795 0.70242 0.0
H1879 H 0.92478 0.50401 0.68772 0.0
H1880 H 0.9767 0.4662 0.67613 0.0
H1881 H 0.92985 0.45803 0.6395 0.0
H1882 H 0.96397 0.47161 0.74339 0.0
H1883 H 0.96399 0.49159 0.72887 0.0
H1884 H 0.97989 0.47741 0.71987 0.0
H1885 H 0.90662 0.46109 0.69994 0.0
H1886 H 0.90538 0.46248 0.66308 0.0
H1887 H 0.90671 0.48062 0.68381 0.0
loop_
_geom_bond_atom_site_label_1
_geom_bond_atom_site_label_2
_geom_bond_distance
_geom_bond_site_symmetry_2
_ccdc_geom_bond_type
O0 Cd1 2.300 . S
O0 C7 1.275 . S
Cd1 O0 2.300 . S
Cd1 O9 2.381 . S
Cd1 O10 2.378 . S
O2 Cd3 2.385 . S
O2 C7 1.255 . S
Cd3 O2 2.385 . S
Cd3 O4 2.317 . S
O4 Cd3 2.317 . S
O4 C5 1.232 . S
C5 O4 1.232 . S
C5 O6 1.218 . S
O6 C5 1.218 . S
C7 O0 1.275 . S
C7 O2 1.255 . S
C8 O9 1.258 . S
C8 O10 1.256 . S
O9 Cd1 2.381 . S
O9 C8 1.258 . S
O10 Cd1 2.378 . S
O10 C8 1.256 . S
O11 Cd12 2.300 . S
O11 C18 1.275 . S
Cd12 O11 2.300 . S
Cd12 O20 2.381 . S
Cd12 O21 2.378 . S
O13 Cd14 2.385 . S
O13 C18 1.255 . S
Cd14 O13 2.385 . S
Cd14 O15 2.317 . S
O15 Cd14 2.317 . S
O15 C16 1.232 . S
C16 O15 1.232 . S
C16 O17 1.218 . S
O17 C16 1.218 . S
C18 O11 1.275 . S
C18 O13 1.255 . S
C19 O20 1.258 . S
C19 O21 1.256 . S
O20 Cd12 2.381 . S
O20 C19 1.258 . S
O21 Cd12 2.378 . S
O21 C19 1.256 . S
O22 Cd23 2.300 . S
O22 C29 1.275 . S
Cd23 O22 2.300 . S
Cd23 O31 2.381 . S
Cd23 O32 2.378 . S
O24 Cd25 2.385 . S
O24 C29 1.255 . S
Cd25 O24 2.385 . S
Cd25 O26 2.317 . S
O26 Cd25 2.317 . S
O26 C27 1.232 . S
C27 O26 1.232 . S
C27 O28 1.218 . S
O28 C27 1.218 . S
C29 O22 1.275 . S
C29 O24 1.255 . S
C30 O31 1.258 . S
C30 O32 1.256 . S
O31 Cd23 2.381 . S
O31 C30 1.258 . S
O32 Cd23 2.378 . S
O32 C30 1.256 . S
O33 Cd34 2.300 . S
O33 C40 1.275 . S
Cd34 O33 2.300 . S
Cd34 O42 2.381 . S
Cd34 O43 2.378 . S
O35 Cd36 2.385 . S
O35 C40 1.255 . S
Cd36 O35 2.385 . S
Cd36 O37 2.317 . S
O37 Cd36 2.317 . S
O37 C38 1.232 . S
C38 O37 1.232 . S
C38 O39 1.218 . S
O39 C38 1.218 . S
C40 O33 1.275 . S
C40 O35 1.255 . S
C41 O42 1.258 . S
C41 O43 1.256 . S
O42 Cd34 2.381 . S
O42 C41 1.258 . S
O43 Cd34 2.378 . S
O43 C41 1.256 . S
O44 Cd45 2.300 . S
O44 C51 1.275 . S
Cd45 O44 2.300 . S
Cd45 O53 2.381 . S
Cd45 O54 2.378 . S
O46 Cd47 2.385 . S
O46 C51 1.255 . S
Cd47 O46 2.385 . S
Cd47 O48 2.317 . S
O48 Cd47 2.317 . S
O48 C49 1.232 . S
C49 O48 1.232 . S
C49 O50 1.218 . S
O50 C49 1.218 . S
C51 O44 1.275 . S
C51 O46 1.255 . S
C52 O53 1.258 . S
C52 O54 1.256 . S
O53 Cd45 2.381 . S
O53 C52 1.258 . S
O54 Cd45 2.378 . S
O54 C52 1.256 . S
O55 Cd56 2.300 . S
O55 C62 1.275 . S
Cd56 O55 2.300 . S
Cd56 O64 2.381 . S
Cd56 O65 2.378 . S
O57 Cd58 2.385 . S
O57 C62 1.255 . S
Cd58 O57 2.385 . S
Cd58 O59 2.317 . S
O59 Cd58 2.317 . S
O59 C60 1.232 . S
C60 O59 1.232 . S
C60 O61 1.218 . S
O61 C60 1.218 . S
C62 O55 1.275 . S
C62 O57 1.255 . S
C63 O64 1.258 . S
C63 O65 1.256 . S
O64 Cd56 2.381 . S
O64 C63 1.258 . S
O65 Cd56 2.378 . S
O65 C63 1.256 . S
O66 Cd67 2.300 . S
O66 C73 1.275 . S
Cd67 O66 2.300 . S
Cd67 O75 2.381 . S
Cd67 O76 2.378 . S
O68 Cd69 2.385 . S
O68 C73 1.255 . S
Cd69 O68 2.385 . S
Cd69 O70 2.317 . S
O70 Cd69 2.317 . S
O70 C71 1.232 . S
C71 O70 1.232 . S
C71 O72 1.218 . S
O72 C71 1.218 . S
C73 O66 1.275 . S
C73 O68 1.255 . S
C74 O75 1.258 . S
C74 O76 1.256 . S
O75 Cd67 2.381 . S
O75 C74 1.258 . S
O76 Cd67 2.378 . S
O76 C74 1.256 . S
O77 Cd78 2.300 . S
O77 C84 1.275 . S
Cd78 O77 2.300 . S
Cd78 O86 2.381 . S
Cd78 O87 2.378 . S
O79 Cd80 2.385 . S
O79 C84 1.255 . S
Cd80 O79 2.385 . S
Cd80 O81 2.317 . S
O81 Cd80 2.317 . S
O81 C82 1.232 . S
C82 O81 1.232 . S
C82 O83 1.218 . S
O83 C82 1.218 . S
C84 O77 1.275 . S
C84 O79 1.255 . S
C85 O86 1.258 . S
C85 O87 1.256 . S
O86 Cd78 2.381 . S
O86 C85 1.258 . S
O87 Cd78 2.378 . S
O87 C85 1.256 . S
O88 Cd89 2.300 . S
O88 C95 1.275 . S
Cd89 O88 2.300 . S
Cd89 O97 2.381 . S
Cd89 O98 2.378 . S
O90 Cd91 2.385 . S
O90 C95 1.255 . S
Cd91 O90 2.385 . S
Cd91 O92 2.317 . S
O92 Cd91 2.317 . S
O92 C93 1.232 . S
C93 O92 1.232 . S
C93 O94 1.218 . S
O94 C93 1.218 . S
C95 O88 1.275 . S
C95 O90 1.255 . S
C96 O97 1.258 . S
C96 O98 1.256 . S
O97 Cd89 2.381 . S
O97 C96 1.258 . S
O98 Cd89 2.378 . S
O98 C96 1.256 . S
O99 Cd100 2.300 . S
O99 C106 1.275 . S
Cd100 O99 2.300 . S
Cd100 O108 2.381 . S
Cd100 O109 2.378 . S
O101 Cd102 2.385 . S
O101 C106 1.255 . S
Cd102 O101 2.385 . S
Cd102 O103 2.317 . S
O103 Cd102 2.317 . S
O103 C104 1.232 . S
C104 O103 1.232 . S
C104 O105 1.218 . S
O105 C104 1.218 . S
C106 O99 1.275 . S
C106 O101 1.255 . S
C107 O108 1.258 . S
C107 O109 1.256 . S
O108 Cd100 2.381 . S
O108 C107 1.258 . S
O109 Cd100 2.378 . S
O109 C107 1.256 . S
O110 Cd111 2.300 . S
O110 C117 1.275 . S
Cd111 O110 2.300 . S
Cd111 O119 2.381 . S
Cd111 O120 2.378 . S
O112 Cd113 2.385 . S
O112 C117 1.255 . S
Cd113 O112 2.385 . S
Cd113 O114 2.317 . S
O114 Cd113 2.317 . S
O114 C115 1.232 . S
C115 O114 1.232 . S
C115 O116 1.218 . S
O116 C115 1.218 . S
C117 O110 1.275 . S
C117 O112 1.255 . S
C118 O119 1.258 . S
C118 O120 1.256 . S
O119 Cd111 2.381 . S
O119 C118 1.258 . S
O120 Cd111 2.378 . S
O120 C118 1.256 . S
O121 Cd122 2.300 . S
O121 C128 1.275 . S
Cd122 O121 2.300 . S
Cd122 O130 2.381 . S
Cd122 O131 2.378 . S
O123 Cd124 2.385 . S
O123 C128 1.255 . S
Cd124 O123 2.385 . S
Cd124 O125 2.317 . S
O125 Cd124 2.317 . S
O125 C126 1.232 . S
C126 O125 1.232 . S
C126 O127 1.218 . S
O127 C126 1.218 . S
C128 O121 1.275 . S
C128 O123 1.255 . S
C129 O130 1.258 . S
C129 O131 1.256 . S
O130 Cd122 2.381 . S
O130 C129 1.258 . S
O131 Cd122 2.378 . S
O131 C129 1.256 . S
O132 Cd133 2.300 . S
O132 C139 1.275 . S
Cd133 O132 2.300 . S
Cd133 O141 2.381 . S
Cd133 O142 2.378 . S
O134 Cd135 2.385 . S
O134 C139 1.255 . S
Cd135 O134 2.385 . S
Cd135 O136 2.317 . S
O136 Cd135 2.317 . S
O136 C137 1.232 . S
C137 O136 1.232 . S
C137 O138 1.218 . S
O138 C137 1.218 . S
C139 O132 1.275 . S
C139 O134 1.255 . S
C140 O141 1.258 . S
C140 O142 1.256 . S
O141 Cd133 2.381 . S
O141 C140 1.258 . S
O142 Cd133 2.378 . S
O142 C140 1.256 . S
O143 Cd144 2.300 . S
O143 C150 1.275 . S
Cd144 O143 2.300 . S
Cd144 O152 2.381 . S
Cd144 O153 2.378 . S
O145 Cd146 2.385 . S
O145 C150 1.255 . S
Cd146 O145 2.385 . S
Cd146 O147 2.317 . S
O147 Cd146 2.317 . S
O147 C148 1.232 . S
C148 O147 1.232 . S
C148 O149 1.218 . S
O149 C148 1.218 . S
C150 O143 1.275 . S
C150 O145 1.255 . S
C151 O152 1.258 . S
C151 O153 1.256 . S
O152 Cd144 2.381 . S
O152 C151 1.258 . S
O153 Cd144 2.378 . S
O153 C151 1.256 . S
O154 Cd155 2.300 . S
O154 C161 1.275 . S
Cd155 O154 2.300 . S
Cd155 O163 2.381 . S
Cd155 O164 2.378 . S
O156 Cd157 2.385 . S
O156 C161 1.255 . S
Cd157 O156 2.385 . S
Cd157 O158 2.317 . S
O158 Cd157 2.317 . S
O158 C159 1.232 . S
C159 O158 1.232 . S
C159 O160 1.218 . S
O160 C159 1.218 . S
C161 O154 1.275 . S
C161 O156 1.255 . S
C162 O163 1.258 . S
C162 O164 1.256 . S
O163 Cd155 2.381 . S
O163 C162 1.258 . S
O164 Cd155 2.378 . S
O164 C162 1.256 . S
O165 Cd166 2.300 . S
O165 C172 1.275 . S
Cd166 O165 2.300 . S
Cd166 O174 2.381 . S
Cd166 O175 2.378 . S
O167 Cd168 2.385 . S
O167 C172 1.255 . S
Cd168 O167 2.385 . S
Cd168 O169 2.317 . S
O169 Cd168 2.317 . S
O169 C170 1.232 . S
C170 O169 1.232 . S
C170 O171 1.218 . S
O171 C170 1.218 . S
C172 O165 1.275 . S
C172 O167 1.255 . S
C173 O174 1.258 . S
C173 O175 1.256 . S
O174 Cd166 2.381 . S
O174 C173 1.258 . S
O175 Cd166 2.378 . S
O175 C173 1.256 . S
O176 Cd177 2.300 . S
O176 C183 1.275 . S
Cd177 O176 2.300 . S
Cd177 O185 2.381 . S
Cd177 O186 2.378 . S
O178 Cd179 2.385 . S
O178 C183 1.255 . S
Cd179 O178 2.385 . S
Cd179 O180 2.317 . S
O180 Cd179 2.317 . S
O180 C181 1.232 . S
C181 O180 1.232 . S
C181 O182 1.218 . S
O182 C181 1.218 . S
C183 O176 1.275 . S
C183 O178 1.255 . S
C184 O185 1.258 . S
C184 O186 1.256 . S
O185 Cd177 2.381 . S
O185 C184 1.258 . S
O186 Cd177 2.378 . S
O186 C184 1.256 . S
O187 Cd188 2.300 . S
O187 C194 1.275 . S
Cd188 O187 2.300 . S
Cd188 O196 2.381 . S
Cd188 O197 2.378 . S
O189 Cd190 2.385 . S
O189 C194 1.255 . S
Cd190 O189 2.385 . S
Cd190 O191 2.317 . S
O191 Cd190 2.317 . S
O191 C192 1.232 . S
C192 O191 1.232 . S
C192 O193 1.218 . S
O193 C192 1.218 . S
C194 O187 1.275 . S
C194 O189 1.255 . S
C195 O196 1.258 . S
C195 O197 1.256 . S
O196 Cd188 2.381 . S
O196 C195 1.258 . S
O197 Cd188 2.378 . S
O197 C195 1.256 . S
O198 Cd199 2.300 . S
O198 C205 1.275 . S
Cd199 O198 2.300 . S
Cd199 O207 2.381 . S
Cd199 O208 2.378 . S
O200 Cd201 2.385 . S
O200 C205 1.255 . S
Cd201 O200 2.385 . S
Cd201 O202 2.317 . S
O202 Cd201 2.317 . S
O202 C203 1.232 . S
C203 O202 1.232 . S
C203 O204 1.218 . S
O204 C203 1.218 . S
C205 O198 1.275 . S
C205 O200 1.255 . S
C206 O207 1.258 . S
C206 O208 1.256 . S
O207 Cd199 2.381 . S
O207 C206 1.258 . S
O208 Cd199 2.378 . S
O208 C206 1.256 . S
O209 Cd210 2.300 . S
O209 C216 1.275 . S
Cd210 O209 2.300 . S
Cd210 O218 2.381 . S
Cd210 O219 2.378 . S
O211 Cd212 2.385 . S
O211 C216 1.255 . S
Cd212 O211 2.385 . S
Cd212 O213 2.317 . S
O213 Cd212 2.317 . S
O213 C214 1.232 . S
C214 O213 1.232 . S
C214 O215 1.218 . S
O215 C214 1.218 . S
C216 O209 1.275 . S
C216 O211 1.255 . S
C217 O218 1.258 . S
C217 O219 1.256 . S
O218 Cd210 2.381 . S
O218 C217 1.258 . S
O219 Cd210 2.378 . S
O219 C217 1.256 . S
O220 Cd221 2.300 . S
O220 C227 1.275 . S
Cd221 O220 2.300 . S
Cd221 O229 2.381 . S
Cd221 O230 2.378 . S
O222 Cd223 2.385 . S
O222 C227 1.255 . S
Cd223 O222 2.385 . S
Cd223 O224 2.317 . S
O224 Cd223 2.317 . S
O224 C225 1.232 . S
C225 O224 1.232 . S
C225 O226 1.218 . S
O226 C225 1.218 . S
C227 O220 1.275 . S
C227 O222 1.255 . S
C228 O229 1.258 . S
C228 O230 1.256 . S
O229 Cd221 2.381 . S
O229 C228 1.258 . S
O230 Cd221 2.378 . S
O230 C228 1.256 . S
O231 Cd232 2.300 . S
O231 C238 1.275 . S
Cd232 O231 2.300 . S
Cd232 O240 2.381 . S
Cd232 O241 2.378 . S
O233 Cd234 2.385 . S
O233 C238 1.255 . S
Cd234 O233 2.385 . S
Cd234 O235 2.317 . S
O235 Cd234 2.317 . S
O235 C236 1.232 . S
C236 O235 1.232 . S
C236 O237 1.218 . S
O237 C236 1.218 . S
C238 O231 1.275 . S
C238 O233 1.255 . S
C239 O240 1.258 . S
C239 O241 1.256 . S
O240 Cd232 2.381 . S
O240 C239 1.258 . S
O241 Cd232 2.378 . S
O241 C239 1.256 . S
O242 Cd243 2.300 . S
O242 C249 1.275 . S
Cd243 O242 2.300 . S
Cd243 O251 2.381 . S
Cd243 O252 2.378 . S
O244 Cd245 2.385 . S
O244 C249 1.255 . S
Cd245 O244 2.385 . S
Cd245 O246 2.317 . S
O246 Cd245 2.317 . S
O246 C247 1.232 . S
C247 O246 1.232 . S
C247 O248 1.218 . S
O248 C247 1.218 . S
C249 O242 1.275 . S
C249 O244 1.255 . S
C250 O251 1.258 . S
C250 O252 1.256 . S
O251 Cd243 2.381 . S
O251 C250 1.258 . S
O252 Cd243 2.378 . S
O252 C250 1.256 . S
O253 Cd254 2.300 . S
O253 C260 1.275 . S
Cd254 O253 2.300 . S
Cd254 O262 2.381 . S
Cd254 O263 2.378 . S
O255 Cd256 2.385 . S
O255 C260 1.255 . S
Cd256 O255 2.385 . S
Cd256 O257 2.317 . S
O257 Cd256 2.317 . S
O257 C258 1.232 . S
C258 O257 1.232 . S
C258 O259 1.218 . S
O259 C258 1.218 . S
C260 O253 1.275 . S
C260 O255 1.255 . S
C261 O262 1.258 . S
C261 O263 1.256 . S
O262 Cd254 2.381 . S
O262 C261 1.258 . S
O263 Cd254 2.378 . S
O263 C261 1.256 . S
O264 Cd265 2.300 . S
O264 C271 1.275 . S
Cd265 O264 2.300 . S
Cd265 O273 2.381 . S
Cd265 O274 2.378 . S
O266 Cd267 2.385 . S
O266 C271 1.255 . S
Cd267 O266 2.385 . S
Cd267 O268 2.317 . S
O268 Cd267 2.317 . S
O268 C269 1.232 . S
C269 O268 1.232 . S
C269 O270 1.218 . S
O270 C269 1.218 . S
C271 O264 1.275 . S
C271 O266 1.255 . S
C272 O273 1.258 . S
C272 O274 1.256 . S
O273 Cd265 2.381 . S
O273 C272 1.258 . S
O274 Cd265 2.378 . S
O274 C272 1.256 . S
O275 Cd276 2.300 . S
O275 C282 1.275 . S
Cd276 O275 2.300 . S
Cd276 O284 2.381 . S
Cd276 O285 2.378 . S
O277 Cd278 2.385 . S
O277 C282 1.255 . S
Cd278 O277 2.385 . S
Cd278 O279 2.317 . S
O279 Cd278 2.317 . S
O279 C280 1.232 . S
C280 O279 1.232 . S
C280 O281 1.218 . S
O281 C280 1.218 . S
C282 O275 1.275 . S
C282 O277 1.255 . S
C283 O284 1.258 . S
C283 O285 1.256 . S
O284 Cd276 2.381 . S
O284 C283 1.258 . S
O285 Cd276 2.378 . S
O285 C283 1.256 . S
O286 Cd287 2.300 . S
O286 C293 1.275 . S
Cd287 O286 2.300 . S
Cd287 O295 2.381 . S
Cd287 O296 2.378 . S
O288 Cd289 2.385 . S
O288 C293 1.255 . S
Cd289 O288 2.385 . S
Cd289 O290 2.317 . S
O290 Cd289 2.317 . S
O290 C291 1.232 . S
C291 O290 1.232 . S
C291 O292 1.218 . S
O292 C291 1.218 . S
C293 O286 1.275 . S
C293 O288 1.255 . S
C294 O295 1.258 . S
C294 O296 1.256 . S
O295 Cd287 2.381 . S
O295 C294 1.258 . S
O296 Cd287 2.378 . S
O296 C294 1.256 . S
O297 Cd298 2.300 . S
O297 C304 1.275 . S
Cd298 O297 2.300 . S
Cd298 O306 2.381 . S
Cd298 O307 2.378 . S
O299 Cd300 2.385 . S
O299 C304 1.255 . S
Cd300 O299 2.385 . S
Cd300 O301 2.317 . S
O301 Cd300 2.317 . S
O301 C302 1.232 . S
C302 O301 1.232 . S
C302 O303 1.218 . S
O303 C302 1.218 . S
C304 O297 1.275 . S
C304 O299 1.255 . S
C305 O306 1.258 . S
C305 O307 1.256 . S
O306 Cd298 2.381 . S
O306 C305 1.258 . S
O307 Cd298 2.378 . S
O307 C305 1.256 . S
O308 Cd309 2.300 . S
O308 C315 1.275 . S
Cd309 O308 2.300 . S
Cd309 O317 2.381 . S
Cd309 O318 2.378 . S
O310 Cd311 2.385 . S
O310 C315 1.255 . S
Cd311 O310 2.385 . S
Cd311 O312 2.317 . S
O312 Cd311 2.317 . S
O312 C313 1.232 . S
C313 O312 1.232 . S
C313 O314 1.218 . S
O314 C313 1.218 . S
C315 O308 1.275 . S
C315 O310 1.255 . S
C316 O317 1.258 . S
C316 O318 1.256 . S
O317 Cd309 2.381 . S
O317 C316 1.258 . S
O318 Cd309 2.378 . S
O318 C316 1.256 . S
O319 Cd320 2.300 . S
O319 C326 1.275 . S
Cd320 O319 2.300 . S
Cd320 O328 2.381 . S
Cd320 O329 2.378 . S
O321 Cd322 2.385 . S
O321 C326 1.255 . S
Cd322 O321 2.385 . S
Cd322 O323 2.317 . S
O323 Cd322 2.317 . S
O323 C324 1.232 . S
C324 O323 1.232 . S
C324 O325 1.218 . S
O325 C324 1.218 . S
C326 O319 1.275 . S
C326 O321 1.255 . S
C327 O328 1.258 . S
C327 O329 1.256 . S
O328 Cd320 2.381 . S
O328 C327 1.258 . S
O329 Cd320 2.378 . S
O329 C327 1.256 . S
O330 Cd331 2.300 . S
O330 C337 1.275 . S
Cd331 O330 2.300 . S
Cd331 O339 2.381 . S
Cd331 O340 2.378 . S
O332 Cd333 2.385 . S
O332 C337 1.255 . S
Cd333 O332 2.385 . S
Cd333 O334 2.317 . S
O334 Cd333 2.317 . S
O334 C335 1.232 . S
C335 O334 1.232 . S
C335 O336 1.218 . S
O336 C335 1.218 . S
C337 O330 1.275 . S
C337 O332 1.255 . S
C338 O339 1.258 . S
C338 O340 1.256 . S
O339 Cd331 2.381 . S
O339 C338 1.258 . S
O340 Cd331 2.378 . S
O340 C338 1.256 . S
O341 Cd342 2.300 . S
O341 C348 1.275 . S
Cd342 O341 2.300 . S
Cd342 O350 2.381 . S
Cd342 O351 2.378 . S
O343 Cd344 2.385 . S
O343 C348 1.255 . S
Cd344 O343 2.385 . S
Cd344 O345 2.317 . S
O345 Cd344 2.317 . S
O345 C346 1.232 . S
C346 O345 1.232 . S
C346 O347 1.218 . S
O347 C346 1.218 . S
C348 O341 1.275 . S
C348 O343 1.255 . S
C349 O350 1.258 . S
C349 O351 1.256 . S
O350 Cd342 2.381 . S
O350 C349 1.258 . S
O351 Cd342 2.378 . S
O351 C349 1.256 . S
C352 C353 1.391 . S
C352 C354 1.394 . S
C352 H368 0.931 . S
C353 C352 1.391 . S
C353 C357 1.376 . S
C354 C352 1.394 . S
C354 C355 1.369 . S
C354 C358 1.531 . S
C355 C354 1.369 . S
C355 C356 1.410 . S
C355 C363 1.503 . S
C356 C355 1.410 . S
C356 C357 1.392 . S
C356 C359 1.511 . S
C357 C353 1.376 . S
C357 C356 1.392 . S
C357 H369 0.929 . S
C358 C354 1.531 . S
C358 H370 0.960 . S
C358 H371 0.962 . S
C358 H372 0.960 . S
C359 C356 1.511 . S
C359 H373 0.961 . S
C359 H374 0.961 . S
C359 H375 0.961 . S
C360 C361 1.370 . S
C360 C362 1.363 . S
C360 H376 0.931 . S
C361 C360 1.370 . S
C361 C365 1.408 . S
C362 C360 1.363 . S
C362 C363 1.370 . S
C362 C366 1.524 . S
C363 C355 1.503 . S
C363 C362 1.370 . S
C363 C364 1.403 . S
C364 C363 1.403 . S
C364 C365 1.404 . S
C364 C367 1.539 . S
C365 C361 1.408 . S
C365 C364 1.404 . S
C365 H377 0.930 . S
C366 C362 1.524 . S
C366 H378 0.956 . S
C366 H379 0.961 . S
C366 H380 0.961 . S
C367 C364 1.539 . S
C367 H381 0.958 . S
C367 H382 0.961 . S
C367 H383 0.960 . S
H368 C352 0.931 . S
H369 C357 0.929 . S
H370 C358 0.960 . S
H371 C358 0.962 . S
H372 C358 0.960 . S
H373 C359 0.961 . S
H374 C359 0.961 . S
H375 C359 0.961 . S
H376 C360 0.931 . S
H377 C365 0.930 . S
H378 C366 0.956 . S
H379 C366 0.961 . S
H380 C366 0.961 . S
H381 C367 0.958 . S
H382 C367 0.961 . S
H383 C367 0.960 . S
C384 C385 1.391 . S
C384 C386 1.394 . S
C384 H400 0.931 . S
C385 C384 1.391 . S
C385 C389 1.376 1_565 S
C386 C384 1.394 . S
C386 C387 1.370 1_565 S
C386 C390 1.531 1_655 S
C387 C386 1.370 1_545 S
C387 C388 1.409 . S
C387 C395 1.503 1_655 S
C388 C387 1.409 . S
C388 C389 1.392 . S
C388 C391 1.511 . S
C389 C385 1.376 1_545 S
C389 C388 1.392 . S
C389 H401 0.929 . S
C390 C386 1.531 1_455 S
C390 H402 0.960 . S
C390 H403 0.962 . S
C390 H404 0.960 . S
C391 C388 1.511 . S
C391 H405 0.961 . S
C391 H406 0.961 . S
C391 H407 0.961 . S
C392 C393 1.338 1_565 S
C392 C394 1.373 . S
C392 H408 0.958 . S
C393 C392 1.338 1_545 S
C393 C397 1.408 . S
C394 C392 1.373 . S
C394 C395 1.370 1_565 S
C394 C398 1.524 1_455 S
C395 C387 1.503 1_455 S
C395 C394 1.370 1_545 S
C395 C396 1.403 . S
C396 C395 1.403 . S
C396 C397 1.404 . S
C396 C399 1.539 . S
C397 C393 1.408 . S
C397 C396 1.404 . S
C397 H409 0.930 . S
C398 C394 1.524 1_655 S
C398 H410 0.956 . S
C398 H411 0.961 . S
C398 H412 0.961 . S
C399 C396 1.539 . S
C399 H413 0.958 . S
C399 H414 0.961 . S
C399 H415 0.960 . S
H400 C384 0.931 . S
H401 C389 0.929 . S
H402 C390 0.960 . S
H403 C390 0.962 . S
H404 C390 0.960 . S
H405 C391 0.961 . S
H406 C391 0.961 . S
H407 C391 0.961 . S
H408 C392 0.958 . S
H409 C397 0.930 . S
H410 C398 0.956 . S
H411 C398 0.961 . S
H412 C398 0.961 . S
H413 C399 0.958 . S
H414 C399 0.961 . S
H415 C399 0.960 . S
C416 C417 1.391 . S
C416 C418 1.394 . S
C416 H432 0.931 . S
C417 C416 1.391 . S
C417 C421 1.376 . S
C418 C416 1.394 . S
C418 C419 1.369 . S
C418 C422 1.531 . S
C419 C418 1.369 . S
C419 C420 1.410 . S
C419 C427 1.503 . S
C420 C419 1.410 . S
C420 C421 1.392 . S
C420 C423 1.511 . S
C421 C417 1.376 . S
C421 C420 1.392 . S
C421 H433 0.929 . S
C422 C418 1.531 . S
C422 H434 0.960 . S
C422 H435 0.962 . S
C422 H436 0.960 . S
C423 C420 1.511 . S
C423 H437 0.961 . S
C423 H438 0.961 . S
C423 H439 0.961 . S
C424 C425 1.370 . S
C424 C426 1.363 . S
C424 H440 0.931 . S
C425 C424 1.370 . S
C425 C429 1.408 . S
C426 C424 1.363 . S
C426 C427 1.370 . S
C426 C430 1.524 . S
C427 C419 1.503 . S
C427 C426 1.370 . S
C427 C428 1.403 . S
C428 C427 1.403 . S
C428 C429 1.404 . S
C428 C431 1.539 . S
C429 C425 1.408 . S
C429 C428 1.404 . S
C429 H441 0.930 . S
C430 C426 1.524 . S
C430 H442 0.956 . S
C430 H443 0.961 . S
C430 H444 0.961 . S
C431 C428 1.539 . S
C431 H445 0.958 . S
C431 H446 0.961 . S
C431 H447 0.960 . S
H432 C416 0.931 . S
H433 C421 0.929 . S
H434 C422 0.960 . S
H435 C422 0.962 . S
H436 C422 0.960 . S
H437 C423 0.961 . S
H438 C423 0.961 . S
H439 C423 0.961 . S
H440 C424 0.931 . S
H441 C429 0.930 . S
H442 C430 0.956 . S
H443 C430 0.961 . S
H444 C430 0.961 . S
H445 C431 0.958 . S
H446 C431 0.961 . S
H447 C431 0.960 . S
C448 C449 1.391 . S
C448 C450 1.394 . S
C448 H464 0.931 . S
C449 C448 1.391 . S
C449 C453 1.376 1_545 S
C450 C448 1.394 . S
C450 C451 1.369 . S
C450 C454 1.531 1_556 S
C451 C450 1.369 . S
C451 C452 1.410 1_545 S
C451 C459 1.509 1_556 S
C452 C451 1.410 1_565 S
C452 C453 1.392 . S
C452 C455 1.511 . S
C453 C449 1.376 1_565 S
C453 C452 1.392 . S
C453 H465 0.929 . S
C454 C450 1.531 1_554 S
C454 H466 0.960 . S
C454 H467 0.962 . S
C454 H468 0.960 . S
C455 C452 1.511 . S
C455 H469 0.961 . S
C455 H470 0.961 . S
C455 H471 0.961 . S
C456 C457 1.370 . S
C456 C458 1.363 . S
C456 H472 0.931 . S
C457 C456 1.370 . S
C457 C461 1.408 1_565 S
C458 C456 1.363 . S
C458 C459 1.353 1_565 S
C458 C462 1.524 . S
C459 C451 1.509 1_554 S
C459 C458 1.353 1_545 S
C459 C460 1.415 . S
C460 C459 1.415 . S
C460 C461 1.404 . S
C460 C463 1.539 1_554 S
C461 C457 1.408 1_545 S
C461 C460 1.404 . S
C461 H473 0.930 . S
C462 C458 1.524 . S
C462 H474 0.956 . S
C462 H475 0.961 . S
C462 H476 0.961 . S
C463 C460 1.539 1_556 S
C463 H477 0.958 . S
C463 H478 0.961 . S
C463 H479 0.960 . S
H464 C448 0.931 . S
H465 C453 0.929 . S
H466 C454 0.960 . S
H467 C454 0.962 . S
H468 C454 0.960 . S
H469 C455 0.961 . S
H470 C455 0.961 . S
H471 C455 0.961 . S
H472 C456 0.931 . S
H473 C461 0.930 . S
H474 C462 0.956 . S
H475 C462 0.961 . S
H476 C462 0.961 . S
H477 C463 0.958 . S
H478 C463 0.961 . S
H479 C463 0.960 . S
C480 C481 1.391 . S
C480 C482 1.394 . S
C480 H496 0.931 . S
C481 C480 1.391 . S
C481 C485 1.376 . S
C482 C480 1.394 . S
C482 C483 1.369 . S
C482 C486 1.531 . S
C483 C482 1.369 . S
C483 C484 1.410 . S
C483 C491 1.503 . S
C484 C483 1.410 . S
C484 C485 1.392 . S
C484 C487 1.511 . S
C485 C481 1.376 . S
C485 C484 1.392 . S
C485 H497 0.929 . S
C486 C482 1.531 . S
C486 H498 0.960 . S
C486 H499 0.962 . S
C486 H500 0.960 . S
C487 C484 1.511 . S
C487 H501 0.961 . S
C487 H502 0.961 . S
C487 H503 0.961 . S
C488 C489 1.370 . S
C488 C490 1.363 . S
C488 H504 0.931 . S
C489 C488 1.370 . S
C489 C493 1.408 . S
C490 C488 1.363 . S
C490 C491 1.370 . S
C490 C494 1.524 . S
C491 C483 1.503 . S
C491 C490 1.370 . S
C491 C492 1.403 . S
C492 C491 1.403 . S
C492 C493 1.404 . S
C492 C495 1.539 . S
C493 C489 1.408 . S
C493 C492 1.404 . S
C493 H505 0.930 . S
C494 C490 1.524 . S
C494 H506 0.956 . S
C494 H507 0.961 . S
C494 H508 0.961 . S
C495 C492 1.539 . S
C495 H509 0.958 . S
C495 H510 0.961 . S
C495 H511 0.960 . S
H496 C480 0.931 . S
H497 C485 0.929 . S
H498 C486 0.960 . S
H499 C486 0.962 . S
H500 C486 0.960 . S
H501 C487 0.961 . S
H502 C487 0.961 . S
H503 C487 0.961 . S
H504 C488 0.931 . S
H505 C493 0.930 . S
H506 C494 0.956 . S
H507 C494 0.961 . S
H508 C494 0.961 . S
H509 C495 0.958 . S
H510 C495 0.961 . S
H511 C495 0.960 . S
C512 C513 1.391 . S
C512 C514 1.394 . S
C512 H528 0.931 . S
C513 C512 1.391 . S
C513 C517 1.376 1_565 S
C514 C512 1.394 . S
C514 C515 1.369 . S
C514 C518 1.531 . S
C515 C514 1.369 . S
C515 C516 1.410 1_565 S
C515 C523 1.504 1_565 S
C516 C515 1.410 1_545 S
C516 C517 1.392 . S
C516 C519 1.511 . S
C517 C513 1.376 1_545 S
C517 C516 1.392 . S
C517 H529 0.929 . S
C518 C514 1.531 . S
C518 H530 0.960 . S
C518 H531 0.962 . S
C518 H532 0.960 . S
C519 C516 1.511 . S
C519 H533 0.961 . S
C519 H534 0.961 . S
C519 H535 0.961 . S
C520 C521 1.370 . S
C520 C522 1.363 . S
C520 H536 0.931 . S
C521 C520 1.370 . S
C521 C525 1.408 1_545 S
C522 C520 1.363 . S
C522 C523 1.369 . S
C522 C526 1.524 . S
C523 C515 1.504 1_545 S
C523 C522 1.369 . S
C523 C524 1.403 1_545 S
C524 C523 1.403 1_565 S
C524 C525 1.404 . S
C524 C527 1.539 . S
C525 C521 1.408 1_565 S
C525 C524 1.404 . S
C525 H537 0.930 . S
C526 C522 1.524 . S
C526 H538 0.956 . S
C526 H539 0.961 . S
C526 H540 0.961 . S
C527 C524 1.539 . S
C527 H541 0.958 . S
C527 H542 0.961 . S
C527 H543 0.960 . S
H528 C512 0.931 . S
H529 C517 0.929 . S
H530 C518 0.960 . S
H531 C518 0.962 . S
H532 C518 0.960 . S
H533 C519 0.961 . S
H534 C519 0.961 . S
H535 C519 0.961 . S
H536 C520 0.931 . S
H537 C525 0.930 . S
H538 C526 0.956 . S
H539 C526 0.961 . S
H540 C526 0.961 . S
H541 C527 0.958 . S
H542 C527 0.961 . S
H543 C527 0.960 . S
C544 C545 1.391 . S
C544 C546 1.394 . S
C544 H560 0.931 . S
C545 C544 1.391 . S
C545 C549 1.376 . S
C546 C544 1.394 . S
C546 C547 1.369 . S
C546 C550 1.531 . S
C547 C546 1.369 . S
C547 C548 1.410 . S
C547 C555 1.503 . S
C548 C547 1.410 . S
C548 C549 1.392 . S
C548 C551 1.511 . S
C549 C545 1.376 . S
C549 C548 1.392 . S
C549 H561 0.929 . S
C550 C546 1.531 . S
C550 H562 0.960 . S
C550 H563 0.962 . S
C550 H564 0.960 . S
C551 C548 1.511 . S
C551 H565 0.961 . S
C551 H566 0.961 . S
C551 H567 0.961 . S
C552 C553 1.370 . S
C552 C554 1.363 . S
C552 H568 0.931 . S
C553 C552 1.370 . S
C553 C557 1.408 . S
C554 C552 1.363 . S
C554 C555 1.370 . S
C554 C558 1.524 . S
C555 C547 1.503 . S
C555 C554 1.370 . S
C555 C556 1.403 . S
C556 C555 1.403 . S
C556 C557 1.404 . S
C556 C559 1.539 . S
C557 C553 1.408 . S
C557 C556 1.404 . S
C557 H569 0.930 . S
C558 C554 1.524 . S
C558 H570 0.956 . S
C558 H571 0.961 . S
C558 H572 0.961 . S
C559 C556 1.539 . S
C559 H573 0.958 . S
C559 H574 0.961 . S
C559 H575 0.960 . S
H560 C544 0.931 . S
H561 C549 0.929 . S
H562 C550 0.960 . S
H563 C550 0.962 . S
H564 C550 0.960 . S
H565 C551 0.961 . S
H566 C551 0.961 . S
H567 C551 0.961 . S
H568 C552 0.931 . S
H569 C557 0.930 . S
H570 C558 0.956 . S
H571 C558 0.961 . S
H572 C558 0.961 . S
H573 C559 0.958 . S
H574 C559 0.961 . S
H575 C559 0.960 . S
C576 C577 1.391 1_545 S
C576 C578 1.394 . S
C576 H592 0.931 . S
C577 C576 1.391 1_565 S
C577 C581 1.376 . S
C578 C576 1.394 . S
C578 C579 1.369 . S
C578 C582 1.531 1_556 S
C579 C578 1.369 . S
C579 C580 1.410 1_545 S
C579 C587 1.503 1_456 S
C580 C579 1.410 1_565 S
C580 C581 1.392 . S
C580 C583 1.511 1_455 S
C581 C577 1.376 . S
C581 C580 1.392 . S
C581 H593 0.929 . S
C582 C578 1.531 1_554 S
C582 H594 0.960 . S
C582 H595 0.962 . S
C582 H596 0.960 . S
C583 C580 1.511 1_655 S
C583 H597 0.961 . S
C583 H598 0.961 . S
C583 H599 0.989 . S
C584 C585 1.370 1_565 S
C584 C586 1.363 . S
C584 H600 0.931 . S
C585 C584 1.370 1_545 S
C585 C589 1.408 . S
C586 C584 1.363 . S
C586 C587 1.370 1_565 S
C586 C590 1.524 . S
C587 C579 1.503 1_654 S
C587 C586 1.370 1_545 S
C587 C588 1.403 . S
C588 C587 1.403 . S
C588 C589 1.404 . S
C588 C591 1.539 1_554 S
C589 C585 1.408 . S
C589 C588 1.404 . S
C589 H601 0.930 . S
C590 C586 1.524 . S
C590 H602 0.956 1_655 S
C590 H603 0.961 . S
C590 H604 0.961 . S
C591 C588 1.539 1_556 S
C591 H605 0.958 . S
C591 H606 0.961 . S
C591 H607 0.960 . S
H592 C576 0.931 . S
H593 C581 0.929 . S
H594 C582 0.960 . S
H595 C582 0.962 . S
H596 C582 0.960 . S
H597 C583 0.961 . S
H598 C583 0.961 . S
H599 C583 0.989 . S
H600 C584 0.931 . S
H601 C589 0.930 . S
H602 C590 0.956 1_455 S
H603 C590 0.961 . S
H604 C590 0.961 . S
H605 C591 0.958 . S
H606 C591 0.961 . S
H607 C591 0.960 . S
C608 C609 1.391 . S
C608 C610 1.394 . S
C608 H624 0.931 . S
C609 C608 1.391 . S
C609 C613 1.376 . S
C610 C608 1.394 . S
C610 C611 1.369 . S
C610 C614 1.531 . S
C611 C610 1.369 . S
C611 C612 1.410 . S
C611 C619 1.503 . S
C612 C611 1.410 . S
C612 C613 1.392 . S
C612 C615 1.511 . S
C613 C609 1.376 . S
C613 C612 1.392 . S
C613 H625 0.929 . S
C614 C610 1.531 . S
C614 H626 0.960 . S
C614 H627 0.962 . S
C614 H628 0.960 . S
C615 C612 1.511 . S
C615 H629 0.961 . S
C615 H630 0.961 . S
C615 H631 0.961 . S
C616 C617 1.370 . S
C616 C618 1.363 . S
C616 H632 0.931 . S
C617 C616 1.370 . S
C617 C621 1.408 . S
C618 C616 1.363 . S
C618 C619 1.370 . S
C618 C622 1.524 . S
C619 C611 1.503 . S
C619 C618 1.370 . S
C619 C620 1.403 . S
C620 C619 1.403 . S
C620 C621 1.404 . S
C620 C623 1.539 . S
C621 C617 1.408 . S
C621 C620 1.404 . S
C621 H633 0.930 . S
C622 C618 1.524 . S
C622 H634 0.956 . S
C622 H635 0.961 . S
C622 H636 0.961 . S
C623 C620 1.539 . S
C623 H637 0.958 . S
C623 H638 0.961 . S
C623 H639 0.960 . S
H624 C608 0.931 . S
H625 C613 0.929 . S
H626 C614 0.960 . S
H627 C614 0.962 . S
H628 C614 0.960 . S
H629 C615 0.961 . S
H630 C615 0.961 . S
H631 C615 0.961 . S
H632 C616 0.931 . S
H633 C621 0.930 . S
H634 C622 0.956 . S
H635 C622 0.961 . S
H636 C622 0.961 . S
H637 C623 0.958 . S
H638 C623 0.961 . S
H639 C623 0.960 . S
C640 C641 1.391 . S
C640 C642 1.394 . S
C640 H656 0.931 . S
C641 C640 1.391 . S
C641 C645 1.376 . S
C642 C640 1.394 . S
C642 C643 1.369 . S
C642 C646 1.531 . S
C643 C642 1.369 . S
C643 C644 1.410 . S
C643 C651 1.503 . S
C644 C643 1.410 . S
C644 C645 1.392 . S
C644 C647 1.511 . S
C645 C641 1.376 . S
C645 C644 1.392 . S
C645 H657 0.929 . S
C646 C642 1.531 . S
C646 H658 0.960 . S
C646 H659 0.962 . S
C646 H660 0.960 . S
C647 C644 1.511 . S
C647 H661 0.961 . S
C647 H662 0.961 . S
C647 H663 0.961 . S
C648 C649 1.370 . S
C648 C650 1.363 . S
C648 H664 0.931 . S
C649 C648 1.370 . S
C649 C653 1.408 . S
C650 C648 1.363 . S
C650 C651 1.370 . S
C650 C654 1.524 . S
C651 C643 1.503 . S
C651 C650 1.370 . S
C651 C652 1.403 . S
C652 C651 1.403 . S
C652 C653 1.404 . S
C652 C655 1.539 . S
C653 C649 1.408 . S
C653 C652 1.404 . S
C653 H665 0.930 . S
C654 C650 1.524 . S
C654 H666 0.956 . S
C654 H667 0.961 . S
C654 H668 0.961 . S
C655 C652 1.539 . S
C655 H669 0.958 . S
C655 H670 0.961 . S
C655 H671 0.960 . S
H656 C640 0.931 . S
H657 C645 0.929 . S
H658 C646 0.960 . S
H659 C646 0.962 . S
H660 C646 0.960 . S
H661 C647 0.961 . S
H662 C647 0.961 . S
H663 C647 0.961 . S
H664 C648 0.931 . S
H665 C653 0.930 . S
H666 C654 0.956 . S
H667 C654 0.961 . S
H668 C654 0.961 . S
H669 C655 0.958 . S
H670 C655 0.961 . S
H671 C655 0.960 . S
C672 C673 1.391 . S
C672 C674 1.394 . S
C672 H688 0.931 . S
C673 C672 1.391 . S
C673 C677 1.376 . S
C674 C672 1.394 . S
C674 C675 1.369 . S
C674 C678 1.531 . S
C675 C674 1.369 . S
C675 C676 1.410 . S
C675 C683 1.503 . S
C676 C675 1.410 . S
C676 C677 1.392 . S
C676 C679 1.511 . S
C677 C673 1.376 . S
C677 C676 1.392 . S
C677 H689 0.929 . S
C678 C674 1.531 . S
C678 H690 0.960 . S
C678 H691 0.962 . S
C678 H692 0.960 . S
C679 C676 1.511 . S
C679 H693 0.961 . S
C679 H694 0.961 . S
C679 H695 0.961 . S
C680 C681 1.370 . S
C680 C682 1.363 . S
C680 H696 0.931 . S
C681 C680 1.370 . S
C681 C685 1.408 . S
C682 C680 1.363 . S
C682 C683 1.370 . S
C682 C686 1.524 . S
C683 C675 1.503 . S
C683 C682 1.370 . S
C683 C684 1.403 . S
C684 C683 1.403 . S
C684 C685 1.404 . S
C684 C687 1.539 . S
C685 C681 1.408 . S
C685 C684 1.404 . S
C685 H697 0.930 . S
C686 C682 1.524 . S
C686 H698 0.956 . S
C686 H699 0.961 . S
C686 H700 0.961 . S
C687 C684 1.539 . S
C687 H701 0.958 . S
C687 H702 0.961 . S
C687 H703 0.960 . S
H688 C672 0.931 . S
H689 C677 0.929 . S
H690 C678 0.960 . S
H691 C678 0.962 . S
H692 C678 0.960 . S
H693 C679 0.961 . S
H694 C679 0.961 . S
H695 C679 0.961 . S
H696 C680 0.931 . S
H697 C685 0.930 . S
H698 C686 0.956 . S
H699 C686 0.961 . S
H700 C686 0.961 . S
H701 C687 0.958 . S
H702 C687 0.961 . S
H703 C687 0.960 . S
C704 C705 1.391 . S
C704 C706 1.394 . S
C704 H720 0.931 . S
C705 C704 1.391 . S
C705 C709 1.376 . S
C706 C704 1.394 . S
C706 C707 1.369 . S
C706 C710 1.531 . S
C707 C706 1.369 . S
C707 C708 1.410 . S
C707 C715 1.503 . S
C708 C707 1.410 . S
C708 C709 1.392 . S
C708 C711 1.511 . S
C709 C705 1.376 . S
C709 C708 1.392 . S
C709 H721 0.929 . S
C710 C706 1.531 . S
C710 H722 0.960 . S
C710 H723 0.962 . S
C710 H724 0.960 . S
C711 C708 1.511 . S
C711 H725 0.961 . S
C711 H726 0.961 . S
C711 H727 0.961 . S
C712 C713 1.370 . S
C712 C714 1.363 . S
C712 H728 0.931 . S
C713 C712 1.370 . S
C713 C717 1.408 . S
C714 C712 1.363 . S
C714 C715 1.370 . S
C714 C718 1.524 . S
C715 C707 1.503 . S
C715 C714 1.370 . S
C715 C716 1.403 . S
C716 C715 1.403 . S
C716 C717 1.404 . S
C716 C719 1.539 . S
C717 C713 1.408 . S
C717 C716 1.404 . S
C717 H729 0.930 . S
C718 C714 1.524 . S
C718 H730 0.956 . S
C718 H731 0.961 . S
C718 H732 0.961 . S
C719 C716 1.539 . S
C719 H733 0.958 . S
C719 H734 0.961 . S
C719 H735 0.960 . S
H720 C704 0.931 . S
H721 C709 0.929 . S
H722 C710 0.960 . S
H723 C710 0.962 . S
H724 C710 0.960 . S
H725 C711 0.961 . S
H726 C711 0.961 . S
H727 C711 0.961 . S
H728 C712 0.931 . S
H729 C717 0.930 . S
H730 C718 0.956 . S
H731 C718 0.961 . S
H732 C718 0.961 . S
H733 C719 0.958 . S
H734 C719 0.961 . S
H735 C719 0.960 . S
C736 C737 1.391 . S
C736 C738 1.394 . S
C736 H752 0.931 . S
C737 C736 1.391 . S
C737 C741 1.376 . S
C738 C736 1.394 . S
C738 C739 1.369 . S
C738 C742 1.531 1_554 S
C739 C738 1.369 . S
C739 C740 1.410 . S
C739 C747 1.503 1_554 S
C740 C739 1.410 . S
C740 C741 1.392 . S
C740 C743 1.511 . S
C741 C737 1.376 . S
C741 C740 1.392 . S
C741 H753 0.929 . S
C742 C738 1.531 1_556 S
C742 H754 0.960 . S
C742 H755 0.962 . S
C742 H756 0.960 . S
C743 C740 1.511 . S
C743 H757 0.961 . S
C743 H758 0.961 . S
C743 H759 0.961 . S
C744 C745 1.370 . S
C744 C746 1.363 . S
C744 H760 0.931 . S
C745 C744 1.370 . S
C745 C749 1.408 . S
C746 C744 1.363 . S
C746 C747 1.370 . S
C746 C750 1.524 . S
C747 C739 1.503 1_556 S
C747 C746 1.370 . S
C747 C748 1.403 1_556 S
C748 C747 1.403 1_554 S
C748 C749 1.404 1_554 S
C748 C751 1.539 . S
C749 C745 1.408 . S
C749 C748 1.404 1_556 S
C749 H761 0.930 . S
C750 C746 1.524 . S
C750 H762 0.956 . S
C750 H763 0.961 . S
C750 H764 0.961 . S
C751 C748 1.539 . S
C751 H765 0.958 . S
C751 H766 0.961 . S
C751 H767 0.960 . S
H752 C736 0.931 . S
H753 C741 0.929 . S
H754 C742 0.960 . S
H755 C742 0.962 . S
H756 C742 0.960 . S
H757 C743 0.961 . S
H758 C743 0.961 . S
H759 C743 0.961 . S
H760 C744 0.931 . S
H761 C749 0.930 . S
H762 C750 0.956 . S
H763 C750 0.961 . S
H764 C750 0.961 . S
H765 C751 0.958 . S
H766 C751 0.961 . S
H767 C751 0.960 . S
C768 C769 1.391 . S
C768 C770 1.394 . S
C768 H784 0.931 . S
C769 C768 1.391 . S
C769 C773 1.376 . S
C770 C768 1.394 . S
C770 C771 1.369 . S
C770 C774 1.531 . S
C771 C770 1.369 . S
C771 C772 1.410 . S
C771 C779 1.503 1_455 S
C772 C771 1.410 . S
C772 C773 1.392 . S
C772 C775 1.511 1_455 S
C773 C769 1.376 . S
C773 C772 1.392 . S
C773 H785 0.929 . S
C774 C770 1.531 . S
C774 H786 0.960 . S
C774 H787 0.962 . S
C774 H788 0.960 . S
C775 C772 1.511 1_655 S
C775 H789 0.961 1_655 S
C775 H790 0.961 . S
C775 H791 0.961 . S
C776 C777 1.370 . S
C776 C778 1.363 . S
C776 H792 0.931 . S
C777 C776 1.370 . S
C777 C781 1.408 . S
C778 C776 1.363 . S
C778 C779 1.370 . S
C778 C782 1.524 1_655 S
C779 C771 1.503 1_655 S
C779 C778 1.370 . S
C779 C780 1.403 . S
C780 C779 1.403 . S
C780 C781 1.404 . S
C780 C783 1.539 . S
C781 C777 1.408 . S
C781 C780 1.404 . S
C781 H793 0.930 . S
C782 C778 1.524 1_455 S
C782 H794 0.956 . S
C782 H795 0.961 . S
C782 H796 0.961 . S
C783 C780 1.539 . S
C783 H797 0.958 . S
C783 H798 0.961 . S
C783 H799 0.960 . S
H784 C768 0.931 . S
H785 C773 0.929 . S
H786 C774 0.960 . S
H787 C774 0.962 . S
H788 C774 0.960 . S
H789 C775 0.961 1_455 S
H790 C775 0.961 . S
H791 C775 0.961 . S
H792 C776 0.931 . S
H793 C781 0.930 . S
H794 C782 0.956 . S
H795 C782 0.961 . S
H796 C782 0.961 . S
H797 C783 0.958 . S
H798 C783 0.961 . S
H799 C783 0.960 . S
C800 C801 1.391 . S
C800 C802 1.394 . S
C800 H816 0.931 . S
C801 C800 1.391 . S
C801 C805 1.376 . S
C802 C800 1.394 . S
C802 C803 1.369 . S
C802 C806 1.531 1_556 S
C803 C802 1.369 . S
C803 C804 1.410 . S
C803 C811 1.503 1_656 S
C804 C803 1.410 . S
C804 C805 1.392 . S
C804 C807 1.511 . S
C805 C801 1.376 . S
C805 C804 1.392 . S
C805 H817 0.929 . S
C806 C802 1.531 1_554 S
C806 H818 0.960 . S
C806 H819 0.934 1_654 S
C806 H820 0.960 . S
C807 C804 1.511 . S
C807 H821 0.961 . S
C807 H822 0.922 1_655 S
C807 H823 0.961 1_556 S
C808 C809 1.370 . S
C808 C810 1.353 1_554 S
C808 H824 0.931 . S
C809 C808 1.370 . S
C809 C813 1.408 . S
C810 C808 1.353 1_556 S
C810 C811 1.361 1_556 S
C810 C814 1.544 . S
C811 C803 1.503 1_454 S
C811 C810 1.361 1_554 S
C811 C812 1.403 . S
C812 C811 1.403 . S
C812 C813 1.404 . S
C812 C815 1.539 1_455 S
C813 C809 1.408 . S
C813 C812 1.404 . S
C813 H825 0.930 . S
C814 C810 1.544 . S
C814 H826 0.956 . S
C814 H827 0.961 . S
C814 H828 0.961 . S
C815 C812 1.539 1_655 S
C815 H829 0.958 . S
C815 H830 0.961 . S
C815 H831 0.960 . S
H816 C800 0.931 . S
H817 C805 0.929 . S
H818 C806 0.960 . S
H819 C806 0.934 1_456 S
H820 C806 0.960 . S
H821 C807 0.961 . S
H822 C807 0.922 1_455 S
H823 C807 0.961 1_554 S
H824 C808 0.931 . S
H825 C813 0.930 . S
H826 C814 0.956 . S
H827 C814 0.961 . S
H828 C814 0.961 . S
H829 C815 0.958 . S
H830 C815 0.961 . S
H831 C815 0.960 . S
C832 C833 1.391 . S
C832 C834 1.394 . S
C832 H848 0.931 . S
C833 C832 1.391 . S
C833 C837 1.376 . S
C834 C832 1.394 . S
C834 C835 1.369 . S
C834 C838 1.531 . S
C835 C834 1.369 . S
C835 C836 1.410 . S
C835 C843 1.503 . S
C836 C835 1.410 . S
C836 C837 1.392 . S
C836 C839 1.511 . S
C837 C833 1.376 . S
C837 C836 1.392 . S
C837 H849 0.929 . S
C838 C834 1.531 . S
C838 H850 0.960 . S
C838 H851 0.962 . S
C838 H852 0.960 . S
C839 C836 1.511 . S
C839 H853 0.961 . S
C839 H854 0.961 . S
C839 H855 0.961 . S
C840 C841 1.370 . S
C840 C842 1.363 . S
C840 H856 0.931 . S
C841 C840 1.370 . S
C841 C845 1.408 . S
C842 C840 1.363 . S
C842 C843 1.370 . S
C842 C846 1.524 . S
C843 C835 1.503 . S
C843 C842 1.370 . S
C843 C844 1.403 . S
C844 C843 1.403 . S
C844 C845 1.404 . S
C844 C847 1.539 . S
C845 C841 1.408 . S
C845 C844 1.404 . S
C845 H857 0.930 . S
C846 C842 1.524 . S
C846 H858 0.956 . S
C846 H859 0.961 . S
C846 H860 0.961 . S
C847 C844 1.539 . S
C847 H861 0.958 . S
C847 H862 0.961 . S
C847 H863 0.960 . S
H848 C832 0.931 . S
H849 C837 0.929 . S
H850 C838 0.960 . S
H851 C838 0.962 . S
H852 C838 0.960 . S
H853 C839 0.961 . S
H854 C839 0.961 . S
H855 C839 0.961 . S
H856 C840 0.931 . S
H857 C845 0.930 . S
H858 C846 0.956 . S
H859 C846 0.961 . S
H860 C846 0.961 . S
H861 C847 0.958 . S
H862 C847 0.961 . S
H863 C847 0.960 . S
C864 C865 1.391 . S
C864 C866 1.394 . S
C864 H880 0.931 . S
C865 C864 1.391 . S
C865 C869 1.376 . S
C866 C864 1.394 . S
C866 C867 1.369 . S
C866 C870 1.531 . S
C867 C866 1.369 . S
C867 C868 1.410 . S
C867 C875 1.503 . S
C868 C867 1.410 . S
C868 C869 1.392 . S
C868 C871 1.511 . S
C869 C865 1.376 . S
C869 C868 1.392 . S
C869 H881 0.929 . S
C870 C866 1.531 . S
C870 H882 0.960 . S
C870 H883 0.962 . S
C870 H884 0.960 . S
C871 C868 1.511 . S
C871 H885 0.961 . S
C871 H886 0.961 . S
C871 H887 0.961 . S
C872 C873 1.370 . S
C872 C874 1.363 . S
C872 H888 0.931 . S
C873 C872 1.370 . S
C873 C877 1.408 . S
C874 C872 1.363 . S
C874 C875 1.370 . S
C874 C878 1.524 . S
C875 C867 1.503 . S
C875 C874 1.370 . S
C875 C876 1.403 . S
C876 C875 1.403 . S
C876 C877 1.404 . S
C876 C879 1.539 . S
C877 C873 1.408 . S
C877 C876 1.404 . S
C877 H889 0.930 . S
C878 C874 1.524 . S
C878 H890 0.956 . S
C878 H891 0.961 . S
C878 H892 0.961 . S
C879 C876 1.539 . S
C879 H893 0.958 . S
C879 H894 0.961 . S
C879 H895 0.960 . S
H880 C864 0.931 . S
H881 C869 0.929 . S
H882 C870 0.960 . S
H883 C870 0.962 . S
H884 C870 0.960 . S
H885 C871 0.961 . S
H886 C871 0.961 . S
H887 C871 0.961 . S
H888 C872 0.931 . S
H889 C877 0.930 . S
H890 C878 0.956 . S
H891 C878 0.961 . S
H892 C878 0.961 . S
H893 C879 0.958 . S
H894 C879 0.961 . S
H895 C879 0.960 . S
C896 C897 1.391 . S
C896 C898 1.394 . S
C896 H912 0.931 . S
C897 C896 1.391 . S
C897 C901 1.376 . S
C898 C896 1.394 . S
C898 C899 1.369 . S
C898 C902 1.531 . S
C899 C898 1.369 . S
C899 C900 1.410 . S
C899 C907 1.503 . S
C900 C899 1.410 . S
C900 C901 1.392 . S
C900 C903 1.511 . S
C901 C897 1.376 . S
C901 C900 1.392 . S
C901 H913 0.929 . S
C902 C898 1.531 . S
C902 H914 0.960 . S
C902 H915 0.962 . S
C902 H916 0.960 . S
C903 C900 1.511 . S
C903 H917 0.961 . S
C903 H918 0.961 . S
C903 H919 0.961 . S
C904 C905 1.370 . S
C904 C906 1.363 . S
C904 H920 0.931 . S
C905 C904 1.370 . S
C905 C909 1.408 . S
C906 C904 1.363 . S
C906 C907 1.370 . S
C906 C910 1.524 . S
C907 C899 1.503 . S
C907 C906 1.370 . S
C907 C908 1.403 . S
C908 C907 1.403 . S
C908 C909 1.404 . S
C908 C911 1.539 . S
C909 C905 1.408 . S
C909 C908 1.404 . S
C909 H921 0.930 . S
C910 C906 1.524 . S
C910 H922 0.956 . S
C910 H923 0.961 . S
C910 H924 0.961 . S
C911 C908 1.539 . S
C911 H925 0.958 . S
C911 H926 0.961 . S
C911 H927 0.960 . S
H912 C896 0.931 . S
H913 C901 0.929 . S
H914 C902 0.960 . S
H915 C902 0.962 . S
H916 C902 0.960 . S
H917 C903 0.961 . S
H918 C903 0.961 . S
H919 C903 0.961 . S
H920 C904 0.931 . S
H921 C909 0.930 . S
H922 C910 0.956 . S
H923 C910 0.961 . S
H924 C910 0.961 . S
H925 C911 0.958 . S
H926 C911 0.961 . S
H927 C911 0.960 . S
C928 C929 1.391 . S
C928 C930 1.394 . S
C928 H944 0.931 . S
C929 C928 1.391 . S
C929 C933 1.376 . S
C930 C928 1.394 . S
C930 C931 1.369 . S
C930 C934 1.531 . S
C931 C930 1.369 . S
C931 C932 1.410 . S
C931 C939 1.503 . S
C932 C931 1.410 . S
C932 C933 1.392 . S
C932 C935 1.511 . S
C933 C929 1.376 . S
C933 C932 1.392 . S
C933 H945 0.929 . S
C934 C930 1.531 . S
C934 H946 0.960 . S
C934 H947 0.962 . S
C934 H948 0.960 . S
C935 C932 1.511 . S
C935 H949 0.961 . S
C935 H950 0.961 . S
C935 H951 0.961 . S
C936 C937 1.370 . S
C936 C938 1.363 . S
C936 H952 0.931 . S
C937 C936 1.370 . S
C937 C941 1.408 . S
C938 C936 1.363 . S
C938 C939 1.370 . S
C938 C942 1.524 . S
C939 C931 1.503 . S
C939 C938 1.370 . S
C939 C940 1.403 . S
C940 C939 1.403 . S
C940 C941 1.404 . S
C940 C943 1.539 . S
C941 C937 1.408 . S
C941 C940 1.404 . S
C941 H953 0.930 . S
C942 C938 1.524 . S
C942 H954 0.956 . S
C942 H955 0.961 . S
C942 H956 0.961 . S
C943 C940 1.539 . S
C943 H957 0.958 . S
C943 H958 0.961 . S
C943 H959 0.960 . S
H944 C928 0.931 . S
H945 C933 0.929 . S
H946 C934 0.960 . S
H947 C934 0.962 . S
H948 C934 0.960 . S
H949 C935 0.961 . S
H950 C935 0.961 . S
H951 C935 0.961 . S
H952 C936 0.931 . S
H953 C941 0.930 . S
H954 C942 0.956 . S
H955 C942 0.961 . S
H956 C942 0.961 . S
H957 C943 0.958 . S
H958 C943 0.961 . S
H959 C943 0.960 . S
C960 C961 1.391 . S
C960 C962 1.394 . S
C960 H976 0.931 . S
C961 C960 1.391 . S
C961 C965 1.376 . S
C962 C960 1.394 . S
C962 C963 1.369 . S
C962 C966 1.531 . S
C963 C962 1.369 . S
C963 C964 1.410 . S
C963 C971 1.503 . S
C964 C963 1.410 . S
C964 C965 1.392 . S
C964 C967 1.511 . S
C965 C961 1.376 . S
C965 C964 1.392 . S
C965 H977 0.929 . S
C966 C962 1.531 . S
C966 H978 0.960 . S
C966 H979 0.962 . S
C966 H980 0.960 . S
C967 C964 1.511 . S
C967 H981 0.961 . S
C967 H982 0.961 . S
C967 H983 0.961 . S
C968 C969 1.370 . S
C968 C970 1.363 . S
C968 H984 0.931 . S
C969 C968 1.370 . S
C969 C973 1.408 . S
C970 C968 1.363 . S
C970 C971 1.370 . S
C970 C974 1.524 . S
C971 C963 1.503 . S
C971 C970 1.370 . S
C971 C972 1.403 . S
C972 C971 1.403 . S
C972 C973 1.404 . S
C972 C975 1.539 . S
C973 C969 1.408 . S
C973 C972 1.404 . S
C973 H985 0.930 . S
C974 C970 1.524 . S
C974 H986 0.956 . S
C974 H987 0.961 . S
C974 H988 0.961 . S
C975 C972 1.539 . S
C975 H989 0.958 . S
C975 H990 0.961 . S
C975 H991 0.960 . S
H976 C960 0.931 . S
H977 C965 0.929 . S
H978 C966 0.960 . S
H979 C966 0.962 . S
H980 C966 0.960 . S
H981 C967 0.961 . S
H982 C967 0.961 . S
H983 C967 0.961 . S
H984 C968 0.931 . S
H985 C973 0.930 . S
H986 C974 0.956 . S
H987 C974 0.961 . S
H988 C974 0.961 . S
H989 C975 0.958 . S
H990 C975 0.961 . S
H991 C975 0.960 . S
C992 C993 1.391 . S
C992 C994 1.394 . S
C992 H1008 0.931 . S
C993 C992 1.391 . S
C993 C997 1.376 . S
C994 C992 1.394 . S
C994 C995 1.369 . S
C994 C998 1.531 . S
C995 C994 1.369 . S
C995 C996 1.410 . S
C995 C1003 1.503 . S
C996 C995 1.410 . S
C996 C997 1.392 . S
C996 C999 1.511 . S
C997 C993 1.376 . S
C997 C996 1.392 . S
C997 H1009 0.929 . S
C998 C994 1.531 . S
C998 H1010 0.960 . S
C998 H1011 0.962 . S
C998 H1012 0.960 . S
C999 C996 1.511 . S
C999 H1013 0.961 . S
C999 H1014 0.961 . S
C999 H1015 0.961 . S
C1000 C1001 1.370 . S
C1000 C1002 1.363 . S
C1000 H1016 0.931 . S
C1001 C1000 1.370 . S
C1001 C1005 1.408 . S
C1002 C1000 1.363 . S
C1002 C1003 1.370 . S
C1002 C1006 1.524 . S
C1003 C995 1.503 . S
C1003 C1002 1.370 . S
C1003 C1004 1.403 . S
C1004 C1003 1.403 . S
C1004 C1005 1.404 . S
C1004 C1007 1.539 . S
C1005 C1001 1.408 . S
C1005 C1004 1.404 . S
C1005 H1017 0.930 . S
C1006 C1002 1.524 . S
C1006 H1018 0.956 . S
C1006 H1019 0.961 . S
C1006 H1020 0.961 . S
C1007 C1004 1.539 . S
C1007 H1021 0.958 . S
C1007 H1022 0.961 . S
C1007 H1023 0.960 . S
H1008 C992 0.931 . S
H1009 C997 0.929 . S
H1010 C998 0.960 . S
H1011 C998 0.962 . S
H1012 C998 0.960 . S
H1013 C999 0.961 . S
H1014 C999 0.961 . S
H1015 C999 0.961 . S
H1016 C1000 0.931 . S
H1017 C1005 0.930 . S
H1018 C1006 0.956 . S
H1019 C1006 0.961 . S
H1020 C1006 0.961 . S
H1021 C1007 0.958 . S
H1022 C1007 0.961 . S
H1023 C1007 0.960 . S
C1024 C1025 1.391 . S
C1024 C1026 1.394 . S
C1024 H1040 0.931 . S
C1025 C1024 1.391 . S
C1025 C1029 1.376 . S
C1026 C1024 1.394 . S
C1026 C1027 1.369 . S
C1026 C1030 1.531 . S
C1027 C1026 1.369 . S
C1027 C1028 1.410 . S
C1027 C1035 1.503 . S
C1028 C1027 1.410 . S
C1028 C1029 1.392 . S
C1028 C1031 1.511 . S
C1029 C1025 1.376 . S
C1029 C1028 1.392 . S
C1029 H1041 0.929 . S
C1030 C1026 1.531 . S
C1030 H1042 0.960 . S
C1030 H1043 0.962 . S
C1030 H1044 0.960 . S
C1031 C1028 1.511 . S
C1031 H1045 0.961 . S
C1031 H1046 0.961 . S
C1031 H1047 0.961 . S
C1032 C1033 1.370 . S
C1032 C1034 1.363 . S
C1032 H1048 0.931 . S
C1033 C1032 1.370 . S
C1033 C1037 1.408 . S
C1034 C1032 1.363 . S
C1034 C1035 1.370 . S
C1034 C1038 1.524 . S
C1035 C1027 1.503 . S
C1035 C1034 1.370 . S
C1035 C1036 1.403 . S
C1036 C1035 1.403 . S
C1036 C1037 1.404 . S
C1036 C1039 1.539 . S
C1037 C1033 1.408 . S
C1037 C1036 1.404 . S
C1037 H1049 0.930 . S
C1038 C1034 1.524 . S
C1038 H1050 0.956 . S
C1038 H1051 0.961 . S
C1038 H1052 0.961 . S
C1039 C1036 1.539 . S
C1039 H1053 0.958 . S
C1039 H1054 0.961 . S
C1039 H1055 0.960 . S
H1040 C1024 0.931 . S
H1041 C1029 0.929 . S
H1042 C1030 0.960 . S
H1043 C1030 0.962 . S
H1044 C1030 0.960 . S
H1045 C1031 0.961 . S
H1046 C1031 0.961 . S
H1047 C1031 0.961 . S
H1048 C1032 0.931 . S
H1049 C1037 0.930 . S
H1050 C1038 0.956 . S
H1051 C1038 0.961 . S
H1052 C1038 0.961 . S
H1053 C1039 0.958 . S
H1054 C1039 0.961 . S
H1055 C1039 0.960 . S
C1056 C1057 1.391 . S
C1056 C1058 1.394 . S
C1056 H1072 0.931 . S
C1057 C1056 1.391 . S
C1057 C1061 1.376 . S
C1058 C1056 1.394 . S
C1058 C1059 1.369 . S
C1058 C1062 1.531 . S
C1059 C1058 1.369 . S
C1059 C1060 1.410 . S
C1059 C1067 1.503 . S
C1060 C1059 1.410 . S
C1060 C1061 1.392 . S
C1060 C1063 1.511 . S
C1061 C1057 1.376 . S
C1061 C1060 1.392 . S
C1061 H1073 0.929 . S
C1062 C1058 1.531 . S
C1062 H1074 0.960 . S
C1062 H1075 0.962 . S
C1062 H1076 0.960 . S
C1063 C1060 1.511 . S
C1063 H1077 0.961 . S
C1063 H1078 0.961 . S
C1063 H1079 0.961 . S
C1064 C1065 1.370 . S
C1064 C1066 1.363 . S
C1064 H1080 0.931 . S
C1065 C1064 1.370 . S
C1065 C1069 1.408 . S
C1066 C1064 1.363 . S
C1066 C1067 1.370 . S
C1066 C1070 1.524 . S
C1067 C1059 1.503 . S
C1067 C1066 1.370 . S
C1067 C1068 1.403 . S
C1068 C1067 1.403 . S
C1068 C1069 1.404 . S
C1068 C1071 1.539 . S
C1069 C1065 1.408 . S
C1069 C1068 1.404 . S
C1069 H1081 0.930 . S
C1070 C1066 1.524 . S
C1070 H1082 0.956 . S
C1070 H1083 0.961 . S
C1070 H1084 0.961 . S
C1071 C1068 1.539 . S
C1071 H1085 0.958 . S
C1071 H1086 0.961 . S
C1071 H1087 0.960 . S
H1072 C1056 0.931 . S
H1073 C1061 0.929 . S
H1074 C1062 0.960 . S
H1075 C1062 0.962 . S
H1076 C1062 0.960 . S
H1077 C1063 0.961 . S
H1078 C1063 0.961 . S
H1079 C1063 0.961 . S
H1080 C1064 0.931 . S
H1081 C1069 0.930 . S
H1082 C1070 0.956 . S
H1083 C1070 0.961 . S
H1084 C1070 0.961 . S
H1085 C1071 0.958 . S
H1086 C1071 0.961 . S
H1087 C1071 0.960 . S
C1088 C1089 1.391 . S
C1088 C1090 1.394 . S
C1088 H1104 0.931 . S
C1089 C1088 1.391 . S
C1089 C1093 1.376 . S
C1090 C1088 1.394 . S
C1090 C1091 1.369 . S
C1090 C1094 1.531 . S
C1091 C1090 1.369 . S
C1091 C1092 1.410 . S
C1091 C1099 1.503 . S
C1092 C1091 1.410 . S
C1092 C1093 1.392 . S
C1092 C1095 1.511 . S
C1093 C1089 1.376 . S
C1093 C1092 1.392 . S
C1093 H1105 0.929 . S
C1094 C1090 1.531 . S
C1094 H1106 0.960 . S
C1094 H1107 0.962 . S
C1094 H1108 0.960 . S
C1095 C1092 1.511 . S
C1095 H1109 0.961 . S
C1095 H1110 0.961 . S
C1095 H1111 0.961 . S
C1096 C1097 1.370 . S
C1096 C1098 1.363 . S
C1096 H1112 0.931 . S
C1097 C1096 1.370 . S
C1097 C1101 1.408 . S
C1098 C1096 1.363 . S
C1098 C1099 1.370 . S
C1098 C1102 1.524 . S
C1099 C1091 1.503 . S
C1099 C1098 1.370 . S
C1099 C1100 1.403 . S
C1100 C1099 1.403 . S
C1100 C1101 1.404 . S
C1100 C1103 1.539 . S
C1101 C1097 1.408 . S
C1101 C1100 1.404 . S
C1101 H1113 0.930 . S
C1102 C1098 1.524 . S
C1102 H1114 0.956 . S
C1102 H1115 0.961 . S
C1102 H1116 0.961 . S
C1103 C1100 1.539 . S
C1103 H1117 0.958 . S
C1103 H1118 0.961 . S
C1103 H1119 0.960 . S
H1104 C1088 0.931 . S
H1105 C1093 0.929 . S
H1106 C1094 0.960 . S
H1107 C1094 0.962 . S
H1108 C1094 0.960 . S
H1109 C1095 0.961 . S
H1110 C1095 0.961 . S
H1111 C1095 0.961 . S
H1112 C1096 0.931 . S
H1113 C1101 0.930 . S
H1114 C1102 0.956 . S
H1115 C1102 0.961 . S
H1116 C1102 0.961 . S
H1117 C1103 0.958 . S
H1118 C1103 0.961 . S
H1119 C1103 0.960 . S
C1120 C1121 1.391 . S
C1120 C1122 1.394 . S
C1120 H1136 0.931 . S
C1121 C1120 1.391 . S
C1121 C1125 1.376 . S
C1122 C1120 1.394 . S
C1122 C1123 1.369 . S
C1122 C1126 1.531 . S
C1123 C1122 1.369 . S
C1123 C1124 1.410 . S
C1123 C1131 1.503 . S
C1124 C1123 1.410 . S
C1124 C1125 1.392 . S
C1124 C1127 1.511 . S
C1125 C1121 1.376 . S
C1125 C1124 1.392 . S
C1125 H1137 0.929 . S
C1126 C1122 1.531 . S
C1126 H1138 0.960 . S
C1126 H1139 0.962 . S
C1126 H1140 0.960 . S
C1127 C1124 1.511 . S
C1127 H1141 0.961 . S
C1127 H1142 0.961 . S
C1127 H1143 0.961 . S
C1128 C1129 1.370 . S
C1128 C1130 1.363 . S
C1128 H1144 0.931 . S
C1129 C1128 1.370 . S
C1129 C1133 1.408 . S
C1130 C1128 1.363 . S
C1130 C1131 1.370 . S
C1130 C1134 1.524 . S
C1131 C1123 1.503 . S
C1131 C1130 1.370 . S
C1131 C1132 1.403 . S
C1132 C1131 1.403 . S
C1132 C1133 1.404 . S
C1132 C1135 1.539 . S
C1133 C1129 1.408 . S
C1133 C1132 1.404 . S
C1133 H1145 0.930 . S
C1134 C1130 1.524 . S
C1134 H1146 0.956 . S
C1134 H1147 0.961 . S
C1134 H1148 0.961 . S
C1135 C1132 1.539 . S
C1135 H1149 0.958 . S
C1135 H1150 0.961 . S
C1135 H1151 0.960 . S
H1136 C1120 0.931 . S
H1137 C1125 0.929 . S
H1138 C1126 0.960 . S
H1139 C1126 0.962 . S
H1140 C1126 0.960 . S
H1141 C1127 0.961 . S
H1142 C1127 0.961 . S
H1143 C1127 0.961 . S
H1144 C1128 0.931 . S
H1145 C1133 0.930 . S
H1146 C1134 0.956 . S
H1147 C1134 0.961 . S
H1148 C1134 0.961 . S
H1149 C1135 0.958 . S
H1150 C1135 0.961 . S
H1151 C1135 0.960 . S
C1152 C1153 1.391 . S
C1152 C1154 1.394 . S
C1152 H1168 0.931 . S
C1153 C1152 1.391 . S
C1153 C1157 1.376 . S
C1154 C1152 1.394 . S
C1154 C1155 1.369 . S
C1154 C1158 1.531 . S
C1155 C1154 1.369 . S
C1155 C1156 1.410 . S
C1155 C1163 1.503 . S
C1156 C1155 1.410 . S
C1156 C1157 1.392 . S
C1156 C1159 1.511 . S
C1157 C1153 1.376 . S
C1157 C1156 1.392 . S
C1157 H1169 0.929 . S
C1158 C1154 1.531 . S
C1158 H1170 0.960 . S
C1158 H1171 0.962 . S
C1158 H1172 0.960 . S
C1159 C1156 1.511 . S
C1159 H1173 0.961 . S
C1159 H1174 0.961 . S
C1159 H1175 0.961 . S
C1160 C1161 1.370 . S
C1160 C1162 1.363 . S
C1160 H1176 0.931 . S
C1161 C1160 1.370 . S
C1161 C1165 1.408 . S
C1162 C1160 1.363 . S
C1162 C1163 1.370 . S
C1162 C1166 1.524 . S
C1163 C1155 1.503 . S
C1163 C1162 1.370 . S
C1163 C1164 1.403 . S
C1164 C1163 1.403 . S
C1164 C1165 1.404 . S
C1164 C1167 1.539 . S
C1165 C1161 1.408 . S
C1165 C1164 1.404 . S
C1165 H1177 0.930 . S
C1166 C1162 1.524 . S
C1166 H1178 0.956 . S
C1166 H1179 0.961 . S
C1166 H1180 0.961 . S
C1167 C1164 1.539 . S
C1167 H1181 0.958 . S
C1167 H1182 0.961 . S
C1167 H1183 0.960 . S
H1168 C1152 0.931 . S
H1169 C1157 0.929 . S
H1170 C1158 0.960 . S
H1171 C1158 0.962 . S
H1172 C1158 0.960 . S
H1173 C1159 0.961 . S
H1174 C1159 0.961 . S
H1175 C1159 0.961 . S
H1176 C1160 0.931 . S
H1177 C1165 0.930 . S
H1178 C1166 0.956 . S
H1179 C1166 0.961 . S
H1180 C1166 0.961 . S
H1181 C1167 0.958 . S
H1182 C1167 0.961 . S
H1183 C1167 0.960 . S
C1184 C1185 1.391 . S
C1184 C1186 1.394 . S
C1184 H1200 0.931 . S
C1185 C1184 1.391 . S
C1185 C1189 1.376 . S
C1186 C1184 1.394 . S
C1186 C1187 1.369 . S
C1186 C1190 1.531 . S
C1187 C1186 1.369 . S
C1187 C1188 1.410 . S
C1187 C1195 1.503 . S
C1188 C1187 1.410 . S
C1188 C1189 1.392 . S
C1188 C1191 1.511 . S
C1189 C1185 1.376 . S
C1189 C1188 1.392 . S
C1189 H1201 0.929 . S
C1190 C1186 1.531 . S
C1190 H1202 0.960 . S
C1190 H1203 0.962 . S
C1190 H1204 0.960 . S
C1191 C1188 1.511 . S
C1191 H1205 0.961 . S
C1191 H1206 0.961 . S
C1191 H1207 0.961 . S
C1192 C1193 1.370 . S
C1192 C1194 1.363 . S
C1192 H1208 0.931 . S
C1193 C1192 1.370 . S
C1193 C1197 1.408 . S
C1194 C1192 1.363 . S
C1194 C1195 1.370 . S
C1194 C1198 1.524 . S
C1195 C1187 1.503 . S
C1195 C1194 1.370 . S
C1195 C1196 1.403 . S
C1196 C1195 1.403 . S
C1196 C1197 1.404 . S
C1196 C1199 1.539 . S
C1197 C1193 1.408 . S
C1197 C1196 1.404 . S
C1197 H1209 0.930 . S
C1198 C1194 1.524 . S
C1198 H1210 0.956 . S
C1198 H1211 0.961 . S
C1198 H1212 0.961 . S
C1199 C1196 1.539 . S
C1199 H1213 0.958 . S
C1199 H1214 0.961 . S
C1199 H1215 0.960 . S
H1200 C1184 0.931 . S
H1201 C1189 0.929 . S
H1202 C1190 0.960 . S
H1203 C1190 0.962 . S
H1204 C1190 0.960 . S
H1205 C1191 0.961 . S
H1206 C1191 0.961 . S
H1207 C1191 0.961 . S
H1208 C1192 0.931 . S
H1209 C1197 0.930 . S
H1210 C1198 0.956 . S
H1211 C1198 0.961 . S
H1212 C1198 0.961 . S
H1213 C1199 0.958 . S
H1214 C1199 0.961 . S
H1215 C1199 0.960 . S
C1216 C1217 1.391 . S
C1216 C1218 1.394 . S
C1216 H1232 0.931 . S
C1217 C1216 1.391 . S
C1217 C1221 1.376 . S
C1218 C1216 1.394 . S
C1218 C1219 1.369 . S
C1218 C1222 1.531 . S
C1219 C1218 1.369 . S
C1219 C1220 1.410 . S
C1219 C1227 1.503 . S
C1220 C1219 1.410 . S
C1220 C1221 1.392 . S
C1220 C1223 1.511 . S
C1221 C1217 1.376 . S
C1221 C1220 1.392 . S
C1221 H1233 0.929 . S
C1222 C1218 1.531 . S
C1222 H1234 0.960 . S
C1222 H1235 0.962 . S
C1222 H1236 0.960 . S
C1223 C1220 1.511 . S
C1223 H1237 0.961 . S
C1223 H1238 0.961 . S
C1223 H1239 0.961 . S
C1224 C1225 1.370 . S
C1224 C1226 1.363 . S
C1224 H1240 0.931 . S
C1225 C1224 1.370 . S
C1225 C1229 1.408 . S
C1226 C1224 1.363 . S
C1226 C1227 1.370 . S
C1226 C1230 1.524 . S
C1227 C1219 1.503 . S
C1227 C1226 1.370 . S
C1227 C1228 1.403 . S
C1228 C1227 1.403 . S
C1228 C1229 1.404 . S
C1228 C1231 1.539 . S
C1229 C1225 1.408 . S
C1229 C1228 1.404 . S
C1229 H1241 0.930 . S
C1230 C1226 1.524 . S
C1230 H1242 0.956 . S
C1230 H1243 0.961 . S
C1230 H1244 0.961 . S
C1231 C1228 1.539 . S
C1231 H1245 0.958 . S
C1231 H1246 0.961 . S
C1231 H1247 0.960 . S
H1232 C1216 0.931 . S
H1233 C1221 0.929 . S
H1234 C1222 0.960 . S
H1235 C1222 0.962 . S
H1236 C1222 0.960 . S
H1237 C1223 0.961 . S
H1238 C1223 0.961 . S
H1239 C1223 0.961 . S
H1240 C1224 0.931 . S
H1241 C1229 0.930 . S
H1242 C1230 0.956 . S
H1243 C1230 0.961 . S
H1244 C1230 0.961 . S
H1245 C1231 0.958 . S
H1246 C1231 0.961 . S
H1247 C1231 0.960 . S
C1248 C1249 1.391 . S
C1248 C1250 1.394 . S
C1248 H1264 0.931 . S
C1249 C1248 1.391 . S
C1249 C1253 1.376 . S
C1250 C1248 1.394 . S
C1250 C1251 1.369 . S
C1250 C1254 1.531 . S
C1251 C1250 1.369 . S
C1251 C1252 1.410 . S
C1251 C1259 1.503 . S
C1252 C1251 1.410 . S
C1252 C1253 1.392 . S
C1252 C1255 1.511 . S
C1253 C1249 1.376 . S
C1253 C1252 1.392 . S
C1253 H1265 0.929 . S
C1254 C1250 1.531 . S
C1254 H1266 0.960 . S
C1254 H1267 0.962 . S
C1254 H1268 0.960 . S
C1255 C1252 1.511 . S
C1255 H1269 0.961 . S
C1255 H1270 0.961 . S
C1255 H1271 0.961 . S
C1256 C1257 1.370 . S
C1256 C1258 1.363 . S
C1256 H1272 0.931 . S
C1257 C1256 1.370 . S
C1257 C1261 1.408 . S
C1258 C1256 1.363 . S
C1258 C1259 1.370 . S
C1258 C1262 1.524 . S
C1259 C1251 1.503 . S
C1259 C1258 1.370 . S
C1259 C1260 1.403 . S
C1260 C1259 1.403 . S
C1260 C1261 1.404 . S
C1260 C1263 1.539 . S
C1261 C1257 1.408 . S
C1261 C1260 1.404 . S
C1261 H1273 0.930 . S
C1262 C1258 1.524 . S
C1262 H1274 0.956 . S
C1262 H1275 0.961 . S
C1262 H1276 0.961 . S
C1263 C1260 1.539 . S
C1263 H1277 0.958 . S
C1263 H1278 0.961 . S
C1263 H1279 0.960 . S
H1264 C1248 0.931 . S
H1265 C1253 0.929 . S
H1266 C1254 0.960 . S
H1267 C1254 0.962 . S
H1268 C1254 0.960 . S
H1269 C1255 0.961 . S
H1270 C1255 0.961 . S
H1271 C1255 0.961 . S
H1272 C1256 0.931 . S
H1273 C1261 0.930 . S
H1274 C1262 0.956 . S
H1275 C1262 0.961 . S
H1276 C1262 0.961 . S
H1277 C1263 0.958 . S
H1278 C1263 0.961 . S
H1279 C1263 0.960 . S
C1280 C1281 1.391 . S
C1280 C1282 1.394 . S
C1280 H1296 0.931 . S
C1281 C1280 1.391 . S
C1281 C1285 1.376 . S
C1282 C1280 1.394 . S
C1282 C1283 1.369 . S
C1282 C1286 1.531 . S
C1283 C1282 1.369 . S
C1283 C1284 1.410 . S
C1283 C1291 1.503 . S
C1284 C1283 1.410 . S
C1284 C1285 1.392 . S
C1284 C1287 1.511 . S
C1285 C1281 1.376 . S
C1285 C1284 1.392 . S
C1285 H1297 0.929 . S
C1286 C1282 1.531 . S
C1286 H1298 0.960 . S
C1286 H1299 0.962 . S
C1286 H1300 0.960 . S
C1287 C1284 1.511 . S
C1287 H1301 0.961 . S
C1287 H1302 0.961 . S
C1287 H1303 0.961 . S
C1288 C1289 1.370 . S
C1288 C1290 1.363 . S
C1288 H1304 0.931 . S
C1289 C1288 1.370 . S
C1289 C1293 1.408 . S
C1290 C1288 1.363 . S
C1290 C1291 1.370 . S
C1290 C1294 1.524 . S
C1291 C1283 1.503 . S
C1291 C1290 1.370 . S
C1291 C1292 1.403 . S
C1292 C1291 1.403 . S
C1292 C1293 1.404 . S
C1292 C1295 1.539 . S
C1293 C1289 1.408 . S
C1293 C1292 1.404 . S
C1293 H1305 0.930 . S
C1294 C1290 1.524 . S
C1294 H1306 0.956 . S
C1294 H1307 0.961 . S
C1294 H1308 0.961 . S
C1295 C1292 1.539 . S
C1295 H1309 0.958 . S
C1295 H1310 0.961 . S
C1295 H1311 0.960 . S
H1296 C1280 0.931 . S
H1297 C1285 0.929 . S
H1298 C1286 0.960 . S
H1299 C1286 0.962 . S
H1300 C1286 0.960 . S
H1301 C1287 0.961 . S
H1302 C1287 0.961 . S
H1303 C1287 0.961 . S
H1304 C1288 0.931 . S
H1305 C1293 0.930 . S
H1306 C1294 0.956 . S
H1307 C1294 0.961 . S
H1308 C1294 0.961 . S
H1309 C1295 0.958 . S
H1310 C1295 0.961 . S
H1311 C1295 0.960 . S
C1312 C1313 1.391 . S
C1312 C1314 1.394 . S
C1312 H1328 0.931 . S
C1313 C1312 1.391 . S
C1313 C1317 1.376 . S
C1314 C1312 1.394 . S
C1314 C1315 1.369 . S
C1314 C1318 1.531 . S
C1315 C1314 1.369 . S
C1315 C1316 1.410 . S
C1315 C1323 1.503 . S
C1316 C1315 1.410 . S
C1316 C1317 1.392 . S
C1316 C1319 1.511 . S
C1317 C1313 1.376 . S
C1317 C1316 1.392 . S
C1317 H1329 0.929 . S
C1318 C1314 1.531 . S
C1318 H1330 0.960 . S
C1318 H1331 0.962 . S
C1318 H1332 0.960 . S
C1319 C1316 1.511 . S
C1319 H1333 0.961 . S
C1319 H1334 0.961 . S
C1319 H1335 0.961 . S
C1320 C1321 1.370 . S
C1320 C1322 1.363 . S
C1320 H1336 0.931 . S
C1321 C1320 1.370 . S
C1321 C1325 1.408 . S
C1322 C1320 1.363 . S
C1322 C1323 1.370 . S
C1322 C1326 1.524 . S
C1323 C1315 1.503 . S
C1323 C1322 1.370 . S
C1323 C1324 1.403 . S
C1324 C1323 1.403 . S
C1324 C1325 1.404 . S
C1324 C1327 1.539 . S
C1325 C1321 1.408 . S
C1325 C1324 1.404 . S
C1325 H1337 0.930 . S
C1326 C1322 1.524 . S
C1326 H1338 0.956 . S
C1326 H1339 0.961 . S
C1326 H1340 0.961 . S
C1327 C1324 1.539 . S
C1327 H1341 0.958 . S
C1327 H1342 0.961 . S
C1327 H1343 0.960 . S
H1328 C1312 0.931 . S
H1329 C1317 0.929 . S
H1330 C1318 0.960 . S
H1331 C1318 0.962 . S
H1332 C1318 0.960 . S
H1333 C1319 0.961 . S
H1334 C1319 0.961 . S
H1335 C1319 0.961 . S
H1336 C1320 0.931 . S
H1337 C1325 0.930 . S
H1338 C1326 0.956 . S
H1339 C1326 0.961 . S
H1340 C1326 0.961 . S
H1341 C1327 0.958 . S
H1342 C1327 0.961 . S
H1343 C1327 0.960 . S
C1344 C1345 1.391 . S
C1344 C1346 1.394 . S
C1344 H1360 0.931 . S
C1345 C1344 1.391 . S
C1345 C1349 1.376 . S
C1346 C1344 1.394 . S
C1346 C1347 1.369 . S
C1346 C1350 1.531 . S
C1347 C1346 1.369 . S
C1347 C1348 1.410 . S
C1347 C1355 1.503 . S
C1348 C1347 1.410 . S
C1348 C1349 1.392 . S
C1348 C1351 1.511 . S
C1349 C1345 1.376 . S
C1349 C1348 1.392 . S
C1349 H1361 0.929 . S
C1350 C1346 1.531 . S
C1350 H1362 0.960 . S
C1350 H1363 0.962 . S
C1350 H1364 0.960 . S
C1351 C1348 1.511 . S
C1351 H1365 0.961 . S
C1351 H1366 0.961 . S
C1351 H1367 0.961 . S
C1352 C1353 1.370 . S
C1352 C1354 1.363 . S
C1352 H1368 0.931 . S
C1353 C1352 1.370 . S
C1353 C1357 1.408 . S
C1354 C1352 1.363 . S
C1354 C1355 1.370 . S
C1354 C1358 1.524 . S
C1355 C1347 1.503 . S
C1355 C1354 1.370 . S
C1355 C1356 1.403 . S
C1356 C1355 1.403 . S
C1356 C1357 1.404 . S
C1356 C1359 1.539 . S
C1357 C1353 1.408 . S
C1357 C1356 1.404 . S
C1357 H1369 0.930 . S
C1358 C1354 1.524 . S
C1358 H1370 0.956 . S
C1358 H1371 0.961 . S
C1358 H1372 0.961 . S
C1359 C1356 1.539 . S
C1359 H1373 0.958 . S
C1359 H1374 0.961 . S
C1359 H1375 0.960 . S
H1360 C1344 0.931 . S
H1361 C1349 0.929 . S
H1362 C1350 0.960 . S
H1363 C1350 0.962 . S
H1364 C1350 0.960 . S
H1365 C1351 0.961 . S
H1366 C1351 0.961 . S
H1367 C1351 0.961 . S
H1368 C1352 0.931 . S
H1369 C1357 0.930 . S
H1370 C1358 0.956 . S
H1371 C1358 0.961 . S
H1372 C1358 0.961 . S
H1373 C1359 0.958 . S
H1374 C1359 0.961 . S
H1375 C1359 0.960 . S
C1376 C1377 1.391 . S
C1376 C1378 1.394 . S
C1376 H1392 0.931 . S
C1377 C1376 1.391 . S
C1377 C1381 1.376 . S
C1378 C1376 1.394 . S
C1378 C1379 1.369 . S
C1378 C1382 1.531 . S
C1379 C1378 1.369 . S
C1379 C1380 1.410 . S
C1379 C1387 1.503 1_556 S
C1380 C1379 1.410 . S
C1380 C1381 1.392 . S
C1380 C1383 1.511 . S
C1381 C1377 1.376 . S
C1381 C1380 1.392 . S
C1381 H1393 0.929 . S
C1382 C1378 1.531 . S
C1382 H1394 0.960 1_556 S
C1382 H1395 0.962 1_556 S
C1382 H1396 0.960 . S
C1383 C1380 1.511 . S
C1383 H1397 0.961 . S
C1383 H1398 0.961 . S
C1383 H1399 0.961 . S
C1384 C1385 1.370 . S
C1384 C1386 1.363 . S
C1384 H1400 0.931 . S
C1385 C1384 1.370 . S
C1385 C1389 1.408 . S
C1386 C1384 1.363 . S
C1386 C1387 1.370 . S
C1386 C1390 1.524 . S
C1387 C1379 1.503 1_554 S
C1387 C1386 1.370 . S
C1387 C1388 1.403 . S
C1388 C1387 1.403 . S
C1388 C1389 1.404 . S
C1388 C1391 1.539 . S
C1389 C1385 1.408 . S
C1389 C1388 1.404 . S
C1389 H1401 0.930 . S
C1390 C1386 1.524 . S
C1390 H1402 0.956 . S
C1390 H1403 0.970 . S
C1390 H1404 0.961 . S
C1391 C1388 1.539 . S
C1391 H1405 0.958 . S
C1391 H1406 0.961 . S
C1391 H1407 0.960 1_554 S
H1392 C1376 0.931 . S
H1393 C1381 0.929 . S
H1394 C1382 0.960 1_554 S
H1395 C1382 0.962 1_554 S
H1396 C1382 0.960 . S
H1397 C1383 0.961 . S
H1398 C1383 0.961 . S
H1399 C1383 0.961 . S
H1400 C1384 0.931 . S
H1401 C1389 0.930 . S
H1402 C1390 0.956 . S
H1403 C1390 0.970 . S
H1404 C1390 0.961 . S
H1405 C1391 0.958 . S
H1406 C1391 0.961 . S
H1407 C1391 0.960 1_556 S
C1408 C1409 1.391 1_565 S
C1408 C1410 1.394 . S
C1408 H1424 0.931 . S
C1409 C1408 1.391 1_545 S
C1409 C1413 1.376 . S
C1410 C1408 1.394 . S
C1410 C1411 1.394 . S
C1410 C1414 1.531 . S
C1411 C1410 1.394 . S
C1411 C1412 1.367 1_565 S
C1411 C1419 1.519 . S
C1412 C1411 1.367 1_545 S
C1412 C1413 1.392 . S
C1412 C1415 1.511 . S
C1413 C1409 1.376 . S
C1413 C1412 1.392 . S
C1413 H1425 0.929 . S
C1414 C1410 1.531 . S
C1414 H1426 0.960 . S
C1414 H1427 0.962 . S
C1414 H1428 0.960 . S
C1415 C1412 1.511 . S
C1415 H1429 0.961 . S
C1415 H1430 0.961 . S
C1415 H1431 0.961 . S
C1416 C1417 1.370 1_545 S
C1416 C1418 1.363 . S
C1416 H1432 0.931 . S
C1417 C1416 1.370 1_565 S
C1417 C1421 1.408 . S
C1418 C1416 1.363 . S
C1418 C1419 1.370 1_545 S
C1418 C1422 1.524 . S
C1419 C1411 1.519 . S
C1419 C1418 1.370 1_565 S
C1419 C1420 1.403 . S
C1420 C1419 1.403 . S
C1420 C1421 1.404 . S
C1420 C1423 1.539 . S
C1421 C1417 1.408 . S
C1421 C1420 1.404 . S
C1421 H1433 0.930 . S
C1422 C1418 1.524 . S
C1422 H1434 0.956 . S
C1422 H1435 0.961 . S
C1422 H1436 0.961 . S
C1423 C1420 1.539 . S
C1423 H1437 0.958 . S
C1423 H1438 0.961 . S
C1423 H1439 0.960 . S
H1424 C1408 0.931 . S
H1425 C1413 0.929 . S
H1426 C1414 0.960 . S
H1427 C1414 0.962 . S
H1428 C1414 0.960 . S
H1429 C1415 0.961 . S
H1430 C1415 0.961 . S
H1431 C1415 0.961 . S
H1432 C1416 0.931 . S
H1433 C1421 0.930 . S
H1434 C1422 0.956 . S
H1435 C1422 0.961 . S
H1436 C1422 0.961 . S
H1437 C1423 0.958 . S
H1438 C1423 0.961 . S
H1439 C1423 0.960 . S
C1440 C1441 1.391 . S
C1440 C1442 1.394 . S
C1440 H1456 0.931 . S
C1441 C1440 1.391 . S
C1441 C1445 1.376 . S
C1442 C1440 1.394 . S
C1442 C1443 1.369 . S
C1442 C1446 1.531 . S
C1443 C1442 1.369 . S
C1443 C1444 1.410 . S
C1443 C1451 1.503 . S
C1444 C1443 1.410 . S
C1444 C1445 1.392 . S
C1444 C1447 1.511 . S
C1445 C1441 1.376 . S
C1445 C1444 1.392 . S
C1445 H1457 0.929 . S
C1446 C1442 1.531 . S
C1446 H1458 0.960 . S
C1446 H1459 0.962 . S
C1446 H1460 0.960 . S
C1447 C1444 1.511 . S
C1447 H1461 0.961 . S
C1447 H1462 0.961 . S
C1447 H1463 0.961 . S
C1448 C1449 1.370 . S
C1448 C1450 1.363 . S
C1448 H1464 0.931 . S
C1449 C1448 1.370 . S
C1449 C1453 1.408 . S
C1450 C1448 1.363 . S
C1450 C1451 1.370 . S
C1450 C1454 1.524 . S
C1451 C1443 1.503 . S
C1451 C1450 1.370 . S
C1451 C1452 1.403 . S
C1452 C1451 1.403 . S
C1452 C1453 1.404 . S
C1452 C1455 1.539 . S
C1453 C1449 1.408 . S
C1453 C1452 1.404 . S
C1453 H1465 0.930 . S
C1454 C1450 1.524 . S
C1454 H1466 0.956 . S
C1454 H1467 0.961 . S
C1454 H1468 0.961 . S
C1455 C1452 1.539 . S
C1455 H1469 0.958 . S
C1455 H1470 0.961 . S
C1455 H1471 0.960 . S
H1456 C1440 0.931 . S
H1457 C1445 0.929 . S
H1458 C1446 0.960 . S
H1459 C1446 0.962 . S
H1460 C1446 0.960 . S
H1461 C1447 0.961 . S
H1462 C1447 0.961 . S
H1463 C1447 0.961 . S
H1464 C1448 0.931 . S
H1465 C1453 0.930 . S
H1466 C1454 0.956 . S
H1467 C1454 0.961 . S
H1468 C1454 0.961 . S
H1469 C1455 0.958 . S
H1470 C1455 0.961 . S
H1471 C1455 0.960 . S
C1472 C1473 1.391 . S
C1472 C1474 1.394 . S
C1472 H1488 0.931 . S
C1473 C1472 1.391 . S
C1473 C1477 1.356 1_565 S
C1474 C1472 1.394 . S
C1474 C1475 1.369 . S
C1474 C1478 1.531 . S
C1475 C1474 1.369 . S
C1475 C1476 1.410 1_565 S
C1475 C1483 1.498 1_565 S
C1476 C1475 1.410 1_545 S
C1476 C1477 1.398 . S
C1476 C1479 1.511 . S
C1477 C1473 1.356 1_545 S
C1477 C1476 1.398 . S
C1477 H1489 0.943 . S
C1478 C1474 1.531 . S
C1478 H1490 0.960 . S
C1478 H1491 0.962 . S
C1478 H1492 0.960 . S
C1479 C1476 1.511 . S
C1479 H1493 0.961 . S
C1479 H1494 0.961 . S
C1479 H1495 0.961 . S
C1480 C1481 1.370 . S
C1480 C1482 1.363 . S
C1480 H1496 0.931 . S
C1481 C1480 1.370 . S
C1481 C1485 1.408 1_545 S
C1482 C1480 1.363 . S
C1482 C1483 1.383 . S
C1482 C1486 1.524 . S
C1483 C1475 1.498 1_545 S
C1483 C1482 1.383 . S
C1483 C1484 1.395 1_545 S
C1484 C1483 1.395 1_565 S
C1484 C1485 1.404 . S
C1484 C1487 1.539 . S
C1485 C1481 1.408 1_565 S
C1485 C1484 1.404 . S
C1485 H1497 0.930 . S
C1486 C1482 1.524 . S
C1486 H1498 0.956 . S
C1486 H1499 0.961 . S
C1486 H1500 0.961 . S
C1487 C1484 1.539 . S
C1487 H1501 0.958 . S
C1487 H1502 0.961 . S
C1487 H1503 0.960 . S
H1488 C1472 0.931 . S
H1489 C1477 0.943 . S
H1490 C1478 0.960 . S
H1491 C1478 0.962 . S
H1492 C1478 0.960 . S
H1493 C1479 0.961 . S
H1494 C1479 0.961 . S
H1495 C1479 0.961 . S
H1496 C1480 0.931 . S
H1497 C1485 0.930 . S
H1498 C1486 0.956 . S
H1499 C1486 0.961 . S
H1500 C1486 0.961 . S
H1501 C1487 0.958 . S
H1502 C1487 0.961 . S
H1503 C1487 0.960 . S
C1504 C1505 1.391 . S
C1504 C1506 1.394 . S
C1504 H1520 0.931 . S
C1505 C1504 1.391 . S
C1505 C1509 1.376 . S
C1506 C1504 1.394 . S
C1506 C1507 1.369 . S
C1506 C1510 1.531 . S
C1507 C1506 1.369 . S
C1507 C1508 1.410 . S
C1507 C1515 1.503 1_556 S
C1508 C1507 1.410 . S
C1508 C1509 1.392 . S
C1508 C1511 1.511 . S
C1509 C1505 1.376 . S
C1509 C1508 1.392 . S
C1509 H1521 0.929 . S
C1510 C1506 1.531 . S
C1510 H1522 0.960 1_556 S
C1510 H1523 0.962 . S
C1510 H1524 0.960 . S
C1511 C1508 1.511 . S
C1511 H1525 0.961 . S
C1511 H1526 0.961 1_556 S
C1511 H1527 0.961 . S
C1512 C1513 1.370 . S
C1512 C1514 1.363 . S
C1512 H1528 0.931 . S
C1513 C1512 1.370 . S
C1513 C1517 1.408 . S
C1514 C1512 1.363 . S
C1514 C1515 1.370 . S
C1514 C1518 1.508 1_554 S
C1515 C1507 1.503 1_554 S
C1515 C1514 1.370 . S
C1515 C1516 1.403 . S
C1516 C1515 1.403 . S
C1516 C1517 1.404 . S
C1516 C1519 1.539 . S
C1517 C1513 1.408 . S
C1517 C1516 1.404 . S
C1517 H1529 0.930 . S
C1518 C1514 1.508 1_556 S
C1518 H1530 0.967 . S
C1518 H1531 0.975 . S
C1518 H1532 0.952 1_556 S
C1519 C1516 1.539 . S
C1519 H1533 0.958 . S
C1519 H1534 0.961 . S
C1519 H1535 0.960 . S
H1520 C1504 0.931 . S
H1521 C1509 0.929 . S
H1522 C1510 0.960 1_554 S
H1523 C1510 0.962 . S
H1524 C1510 0.960 . S
H1525 C1511 0.961 . S
H1526 C1511 0.961 1_554 S
H1527 C1511 0.961 . S
H1528 C1512 0.931 . S
H1529 C1517 0.930 . S
H1530 C1518 0.967 . S
H1531 C1518 0.975 . S
H1532 C1518 0.952 1_554 S
H1533 C1519 0.958 . S
H1534 C1519 0.961 . S
H1535 C1519 0.960 . S
C1536 C1537 1.391 . S
C1536 C1538 1.394 1_565 S
C1536 H1552 0.940 . S
C1537 C1536 1.391 . S
C1537 C1541 1.376 . S
C1538 C1536 1.394 1_545 S
C1538 C1539 1.369 . S
C1538 C1542 1.531 . S
C1539 C1538 1.369 . S
C1539 C1540 1.410 1_545 S
C1539 C1547 1.503 . S
C1540 C1539 1.410 1_565 S
C1540 C1541 1.392 . S
C1540 C1543 1.511 . S
C1541 C1537 1.376 . S
C1541 C1540 1.392 . S
C1541 H1553 0.929 . S
C1542 C1538 1.531 . S
C1542 H1554 0.960 . S
C1542 H1555 0.962 . S
C1542 H1556 0.960 . S
C1543 C1540 1.511 . S
C1543 H1557 0.961 . S
C1543 H1558 0.961 . S
C1543 H1559 0.961 1_565 S
C1544 C1545 1.370 1_565 S
C1544 C1546 1.363 . S
C1544 H1560 0.931 . S
C1545 C1544 1.370 1_545 S
C1545 C1549 1.408 . S
C1546 C1544 1.363 . S
C1546 C1547 1.370 1_565 S
C1546 C1550 1.524 . S
C1547 C1539 1.503 . S
C1547 C1546 1.370 1_545 S
C1547 C1548 1.403 . S
C1548 C1547 1.403 . S
C1548 C1549 1.404 . S
C1548 C1551 1.539 . S
C1549 C1545 1.408 . S
C1549 C1548 1.404 . S
C1549 H1561 0.930 . S
C1550 C1546 1.524 . S
C1550 H1562 0.956 . S
C1550 H1563 0.961 . S
C1550 H1564 0.961 . S
C1551 C1548 1.539 . S
C1551 H1565 0.958 . S
C1551 H1566 0.961 . S
C1551 H1567 0.960 . S
H1552 C1536 0.940 . S
H1553 C1541 0.929 . S
H1554 C1542 0.960 . S
H1555 C1542 0.962 . S
H1556 C1542 0.960 . S
H1557 C1543 0.961 . S
H1558 C1543 0.961 . S
H1559 C1543 0.961 1_545 S
H1560 C1544 0.931 . S
H1561 C1549 0.930 . S
H1562 C1550 0.956 . S
H1563 C1550 0.961 . S
H1564 C1550 0.961 . S
H1565 C1551 0.958 . S
H1566 C1551 0.961 . S
H1567 C1551 0.960 . S
C1568 C1569 1.391 . S
C1568 C1570 1.394 . S
C1568 H1584 0.931 . S
C1569 C1568 1.391 . S
C1569 C1573 1.376 . S
C1570 C1568 1.394 . S
C1570 C1571 1.369 . S
C1570 C1574 1.531 . S
C1571 C1570 1.369 . S
C1571 C1572 1.410 . S
C1571 C1579 1.503 . S
C1572 C1571 1.410 . S
C1572 C1573 1.392 . S
C1572 C1575 1.511 . S
C1573 C1569 1.376 . S
C1573 C1572 1.392 . S
C1573 H1585 0.929 . S
C1574 C1570 1.531 . S
C1574 H1586 0.960 . S
C1574 H1587 0.962 . S
C1574 H1588 0.960 . S
C1575 C1572 1.511 . S
C1575 H1589 0.961 . S
C1575 H1590 0.961 . S
C1575 H1591 0.961 . S
C1576 C1577 1.370 . S
C1576 C1578 1.363 . S
C1576 H1592 0.931 . S
C1577 C1576 1.370 . S
C1577 C1581 1.408 . S
C1578 C1576 1.363 . S
C1578 C1579 1.370 . S
C1578 C1582 1.524 . S
C1579 C1571 1.503 . S
C1579 C1578 1.370 . S
C1579 C1580 1.403 . S
C1580 C1579 1.403 . S
C1580 C1581 1.404 . S
C1580 C1583 1.539 . S
C1581 C1577 1.408 . S
C1581 C1580 1.404 . S
C1581 H1593 0.930 . S
C1582 C1578 1.524 . S
C1582 H1594 0.956 . S
C1582 H1595 0.961 . S
C1582 H1596 0.961 . S
C1583 C1580 1.539 . S
C1583 H1597 0.958 . S
C1583 H1598 0.961 . S
C1583 H1599 0.960 . S
H1584 C1568 0.931 . S
H1585 C1573 0.929 . S
H1586 C1574 0.960 . S
H1587 C1574 0.962 . S
H1588 C1574 0.960 . S
H1589 C1575 0.961 . S
H1590 C1575 0.961 . S
H1591 C1575 0.961 . S
H1592 C1576 0.931 . S
H1593 C1581 0.930 . S
H1594 C1582 0.956 . S
H1595 C1582 0.961 . S
H1596 C1582 0.961 . S
H1597 C1583 0.958 . S
H1598 C1583 0.961 . S
H1599 C1583 0.960 . S
C1600 C1601 1.391 . S
C1600 C1602 1.394 1_545 S
C1600 H1616 0.922 1_545 S
C1601 C1600 1.391 . S
C1601 C1605 1.376 . S
C1602 C1600 1.394 1_565 S
C1602 C1603 1.369 . S
C1602 C1606 1.531 . S
C1603 C1602 1.369 . S
C1603 C1604 1.410 1_565 S
C1603 C1611 1.503 . S
C1604 C1603 1.410 1_545 S
C1604 C1605 1.392 . S
C1604 C1607 1.511 . S
C1605 C1601 1.376 . S
C1605 C1604 1.392 . S
C1605 H1617 0.929 . S
C1606 C1602 1.531 . S
C1606 H1618 0.960 . S
C1606 H1619 0.962 . S
C1606 H1620 0.960 . S
C1607 C1604 1.511 . S
C1607 H1621 0.961 . S
C1607 H1622 0.961 . S
C1607 H1623 0.932 1_545 S
C1608 C1609 1.370 1_545 S
C1608 C1610 1.363 . S
C1608 H1624 0.931 . S
C1609 C1608 1.370 1_565 S
C1609 C1613 1.408 . S
C1610 C1608 1.363 . S
C1610 C1611 1.370 1_545 S
C1610 C1614 1.524 . S
C1611 C1603 1.503 . S
C1611 C1610 1.370 1_565 S
C1611 C1612 1.403 . S
C1612 C1611 1.403 . S
C1612 C1613 1.404 . S
C1612 C1615 1.539 . S
C1613 C1609 1.408 . S
C1613 C1612 1.404 . S
C1613 H1625 0.930 . S
C1614 C1610 1.524 . S
C1614 H1626 0.956 . S
C1614 H1627 0.961 . S
C1614 H1628 0.961 . S
C1615 C1612 1.539 . S
C1615 H1629 0.958 . S
C1615 H1630 0.961 . S
C1615 H1631 0.960 . S
H1616 C1600 0.922 1_565 S
H1617 C1605 0.929 . S
H1618 C1606 0.960 . S
H1619 C1606 0.962 . S
H1620 C1606 0.960 . S
H1621 C1607 0.961 . S
H1622 C1607 0.961 . S
H1623 C1607 0.932 1_565 S
H1624 C1608 0.931 . S
H1625 C1613 0.930 . S
H1626 C1614 0.956 . S
H1627 C1614 0.961 . S
H1628 C1614 0.961 . S
H1629 C1615 0.958 . S
H1630 C1615 0.961 . S
H1631 C1615 0.960 . S
C1632 C1633 1.391 . S
C1632 C1634 1.394 . S
C1632 H1648 0.931 . S
C1633 C1632 1.391 . S
C1633 C1637 1.376 . S
C1634 C1632 1.394 . S
C1634 C1635 1.369 . S
C1634 C1638 1.531 . S
C1635 C1634 1.369 . S
C1635 C1636 1.410 . S
C1635 C1643 1.503 . S
C1636 C1635 1.410 . S
C1636 C1637 1.392 . S
C1636 C1639 1.511 . S
C1637 C1633 1.376 . S
C1637 C1636 1.392 . S
C1637 H1649 0.929 . S
C1638 C1634 1.531 . S
C1638 H1650 0.960 . S
C1638 H1651 0.962 . S
C1638 H1652 0.960 . S
C1639 C1636 1.511 . S
C1639 H1653 0.961 . S
C1639 H1654 0.961 . S
C1639 H1655 0.961 . S
C1640 C1641 1.370 . S
C1640 C1642 1.363 . S
C1640 H1656 0.931 . S
C1641 C1640 1.370 . S
C1641 C1645 1.408 . S
C1642 C1640 1.363 . S
C1642 C1643 1.370 . S
C1642 C1646 1.524 . S
C1643 C1635 1.503 . S
C1643 C1642 1.370 . S
C1643 C1644 1.403 . S
C1644 C1643 1.403 . S
C1644 C1645 1.404 . S
C1644 C1647 1.539 . S
C1645 C1641 1.408 . S
C1645 C1644 1.404 . S
C1645 H1657 0.930 . S
C1646 C1642 1.524 . S
C1646 H1658 0.956 . S
C1646 H1659 0.961 . S
C1646 H1660 0.961 . S
C1647 C1644 1.539 . S
C1647 H1661 0.958 . S
C1647 H1662 0.961 . S
C1647 H1663 0.960 . S
H1648 C1632 0.931 . S
H1649 C1637 0.929 . S
H1650 C1638 0.960 . S
H1651 C1638 0.962 . S
H1652 C1638 0.960 . S
H1653 C1639 0.961 . S
H1654 C1639 0.961 . S
H1655 C1639 0.961 . S
H1656 C1640 0.931 . S
H1657 C1645 0.930 . S
H1658 C1646 0.956 . S
H1659 C1646 0.961 . S
H1660 C1646 0.961 . S
H1661 C1647 0.958 . S
H1662 C1647 0.961 . S
H1663 C1647 0.960 . S
C1664 C1665 1.391 . S
C1664 C1666 1.394 . S
C1664 H1680 0.931 . S
C1665 C1664 1.391 . S
C1665 C1669 1.376 . S
C1666 C1664 1.394 . S
C1666 C1667 1.369 . S
C1666 C1670 1.531 . S
C1667 C1666 1.369 . S
C1667 C1668 1.410 . S
C1667 C1675 1.503 . S
C1668 C1667 1.410 . S
C1668 C1669 1.392 . S
C1668 C1671 1.511 . S
C1669 C1665 1.376 . S
C1669 C1668 1.392 . S
C1669 H1681 0.929 . S
C1670 C1666 1.531 . S
C1670 H1682 0.960 . S
C1670 H1683 0.962 . S
C1670 H1684 0.960 . S
C1671 C1668 1.511 . S
C1671 H1685 0.961 . S
C1671 H1686 0.961 . S
C1671 H1687 0.961 . S
C1672 C1673 1.370 . S
C1672 C1674 1.363 . S
C1672 H1688 0.931 . S
C1673 C1672 1.370 . S
C1673 C1677 1.408 . S
C1674 C1672 1.363 . S
C1674 C1675 1.370 . S
C1674 C1678 1.524 . S
C1675 C1667 1.503 . S
C1675 C1674 1.370 . S
C1675 C1676 1.403 . S
C1676 C1675 1.403 . S
C1676 C1677 1.404 . S
C1676 C1679 1.539 . S
C1677 C1673 1.408 . S
C1677 C1676 1.404 . S
C1677 H1689 0.930 . S
C1678 C1674 1.524 . S
C1678 H1690 0.956 . S
C1678 H1691 0.961 . S
C1678 H1692 0.961 . S
C1679 C1676 1.539 . S
C1679 H1693 0.958 . S
C1679 H1694 0.961 . S
C1679 H1695 0.960 . S
H1680 C1664 0.931 . S
H1681 C1669 0.929 . S
H1682 C1670 0.960 . S
H1683 C1670 0.962 . S
H1684 C1670 0.960 . S
H1685 C1671 0.961 . S
H1686 C1671 0.961 . S
H1687 C1671 0.961 . S
H1688 C1672 0.931 . S
H1689 C1677 0.930 . S
H1690 C1678 0.956 . S
H1691 C1678 0.961 . S
H1692 C1678 0.961 . S
H1693 C1679 0.958 . S
H1694 C1679 0.961 . S
H1695 C1679 0.960 . S
C1696 C1697 1.391 . S
C1696 C1698 1.394 . S
C1696 H1712 0.931 . S
C1697 C1696 1.391 . S
C1697 C1701 1.376 . S
C1698 C1696 1.394 . S
C1698 C1699 1.369 . S
C1698 C1702 1.531 . S
C1699 C1698 1.369 . S
C1699 C1700 1.410 . S
C1699 C1707 1.503 1_554 S
C1700 C1699 1.410 . S
C1700 C1701 1.392 . S
C1700 C1703 1.511 . S
C1701 C1697 1.376 . S
C1701 C1700 1.392 . S
C1701 H1713 0.929 . S
C1702 C1698 1.531 . S
C1702 H1714 0.965 . S
C1702 H1715 0.962 . S
C1702 H1716 0.960 . S
C1703 C1700 1.511 . S
C1703 H1717 0.961 . S
C1703 H1718 0.961 1_554 S
C1703 H1719 0.961 . S
C1704 C1705 1.370 . S
C1704 C1706 1.363 . S
C1704 H1720 0.931 . S
C1705 C1704 1.370 . S
C1705 C1709 1.408 . S
C1706 C1704 1.363 . S
C1706 C1707 1.370 . S
C1706 C1710 1.524 . S
C1707 C1699 1.503 1_556 S
C1707 C1706 1.370 . S
C1707 C1708 1.403 . S
C1708 C1707 1.403 . S
C1708 C1709 1.404 . S
C1708 C1711 1.539 . S
C1709 C1705 1.408 . S
C1709 C1708 1.404 . S
C1709 H1721 0.930 . S
C1710 C1706 1.524 . S
C1710 H1722 0.956 . S
C1710 H1723 0.961 . S
C1710 H1724 0.961 . S
C1711 C1708 1.539 . S
C1711 H1725 0.958 1_556 S
C1711 H1726 0.961 . S
C1711 H1727 0.960 1_556 S
H1712 C1696 0.931 . S
H1713 C1701 0.929 . S
H1714 C1702 0.965 . S
H1715 C1702 0.962 . S
H1716 C1702 0.960 . S
H1717 C1703 0.961 . S
H1718 C1703 0.961 1_556 S
H1719 C1703 0.961 . S
H1720 C1704 0.931 . S
H1721 C1709 0.930 . S
H1722 C1710 0.956 . S
H1723 C1710 0.961 . S
H1724 C1710 0.961 . S
H1725 C1711 0.958 1_554 S
H1726 C1711 0.961 . S
H1727 C1711 0.960 1_554 S
C1728 C1729 1.391 . S
C1728 C1730 1.394 . S
C1728 H1744 0.931 . S
C1729 C1728 1.391 . S
C1729 C1733 1.376 . S
C1730 C1728 1.394 . S
C1730 C1731 1.369 . S
C1730 C1734 1.531 . S
C1731 C1730 1.369 . S
C1731 C1732 1.410 . S
C1731 C1739 1.503 . S
C1732 C1731 1.410 . S
C1732 C1733 1.392 . S
C1732 C1735 1.511 . S
C1733 C1729 1.376 . S
C1733 C1732 1.392 . S
C1733 H1745 0.929 . S
C1734 C1730 1.531 . S
C1734 H1746 0.960 . S
C1734 H1747 0.962 . S
C1734 H1748 0.960 . S
C1735 C1732 1.511 . S
C1735 H1749 0.961 . S
C1735 H1750 0.961 . S
C1735 H1751 0.961 . S
C1736 C1737 1.370 . S
C1736 C1738 1.363 . S
C1736 H1752 0.931 . S
C1737 C1736 1.370 . S
C1737 C1741 1.408 . S
C1738 C1736 1.363 . S
C1738 C1739 1.370 . S
C1738 C1742 1.524 . S
C1739 C1731 1.503 . S
C1739 C1738 1.370 . S
C1739 C1740 1.403 . S
C1740 C1739 1.403 . S
C1740 C1741 1.404 . S
C1740 C1743 1.539 . S
C1741 C1737 1.408 . S
C1741 C1740 1.404 . S
C1741 H1753 0.930 . S
C1742 C1738 1.524 . S
C1742 H1754 0.956 . S
C1742 H1755 0.961 . S
C1742 H1756 0.961 . S
C1743 C1740 1.539 . S
C1743 H1757 0.958 . S
C1743 H1758 0.961 . S
C1743 H1759 0.960 . S
H1744 C1728 0.931 . S
H1745 C1733 0.929 . S
H1746 C1734 0.960 . S
H1747 C1734 0.962 . S
H1748 C1734 0.960 . S
H1749 C1735 0.961 . S
H1750 C1735 0.961 . S
H1751 C1735 0.961 . S
H1752 C1736 0.931 . S
H1753 C1741 0.930 . S
H1754 C1742 0.956 . S
H1755 C1742 0.961 . S
H1756 C1742 0.961 . S
H1757 C1743 0.958 . S
H1758 C1743 0.961 . S
H1759 C1743 0.960 . S
C1760 C1761 1.391 . S
C1760 C1762 1.394 . S
C1760 H1776 0.931 . S
C1761 C1760 1.391 . S
C1761 C1765 1.376 . S
C1762 C1760 1.394 . S
C1762 C1763 1.369 . S
C1762 C1766 1.531 . S
C1763 C1762 1.369 . S
C1763 C1764 1.410 . S
C1763 C1771 1.503 . S
C1764 C1763 1.410 . S
C1764 C1765 1.392 . S
C1764 C1767 1.511 . S
C1765 C1761 1.376 . S
C1765 C1764 1.392 . S
C1765 H1777 0.929 . S
C1766 C1762 1.531 . S
C1766 H1778 0.960 . S
C1766 H1779 0.962 . S
C1766 H1780 0.960 . S
C1767 C1764 1.511 . S
C1767 H1781 0.961 . S
C1767 H1782 0.961 . S
C1767 H1783 0.961 . S
C1768 C1769 1.370 . S
C1768 C1770 1.363 . S
C1768 H1784 0.931 . S
C1769 C1768 1.370 . S
C1769 C1773 1.408 . S
C1770 C1768 1.363 . S
C1770 C1771 1.370 . S
C1770 C1774 1.524 . S
C1771 C1763 1.503 . S
C1771 C1770 1.370 . S
C1771 C1772 1.403 . S
C1772 C1771 1.403 . S
C1772 C1773 1.404 . S
C1772 C1775 1.539 . S
C1773 C1769 1.408 . S
C1773 C1772 1.404 . S
C1773 H1785 0.930 . S
C1774 C1770 1.524 . S
C1774 H1786 0.956 . S
C1774 H1787 0.961 . S
C1774 H1788 0.961 . S
C1775 C1772 1.539 . S
C1775 H1789 0.958 . S
C1775 H1790 0.961 . S
C1775 H1791 0.960 . S
H1776 C1760 0.931 . S
H1777 C1765 0.929 . S
H1778 C1766 0.960 . S
H1779 C1766 0.962 . S
H1780 C1766 0.960 . S
H1781 C1767 0.961 . S
H1782 C1767 0.961 . S
H1783 C1767 0.961 . S
H1784 C1768 0.931 . S
H1785 C1773 0.930 . S
H1786 C1774 0.956 . S
H1787 C1774 0.961 . S
H1788 C1774 0.961 . S
H1789 C1775 0.958 . S
H1790 C1775 0.961 . S
H1791 C1775 0.960 . S
C1792 C1793 1.391 . S
C1792 C1794 1.394 . S
C1792 H1808 0.931 . S
C1793 C1792 1.391 . S
C1793 C1797 1.376 . S
C1794 C1792 1.394 . S
C1794 C1795 1.369 . S
C1794 C1798 1.531 . S
C1795 C1794 1.369 . S
C1795 C1796 1.410 . S
C1795 C1803 1.503 . S
C1796 C1795 1.410 . S
C1796 C1797 1.392 . S
C1796 C1799 1.511 . S
C1797 C1793 1.376 . S
C1797 C1796 1.392 . S
C1797 H1809 0.929 . S
C1798 C1794 1.531 . S
C1798 H1810 0.960 . S
C1798 H1811 0.962 . S
C1798 H1812 0.960 . S
C1799 C1796 1.511 . S
C1799 H1813 0.961 . S
C1799 H1814 0.961 . S
C1799 H1815 0.961 . S
C1800 C1801 1.370 . S
C1800 C1802 1.363 . S
C1800 H1816 0.931 . S
C1801 C1800 1.370 . S
C1801 C1805 1.408 . S
C1802 C1800 1.363 . S
C1802 C1803 1.370 . S
C1802 C1806 1.524 . S
C1803 C1795 1.503 . S
C1803 C1802 1.370 . S
C1803 C1804 1.403 . S
C1804 C1803 1.403 . S
C1804 C1805 1.404 . S
C1804 C1807 1.539 . S
C1805 C1801 1.408 . S
C1805 C1804 1.404 . S
C1805 H1817 0.930 . S
C1806 C1802 1.524 . S
C1806 H1818 0.956 . S
C1806 H1819 0.961 . S
C1806 H1820 0.961 . S
C1807 C1804 1.539 . S
C1807 H1821 0.958 . S
C1807 H1822 0.961 . S
C1807 H1823 0.960 . S
H1808 C1792 0.931 . S
H1809 C1797 0.929 . S
H1810 C1798 0.960 . S
H1811 C1798 0.962 . S
H1812 C1798 0.960 . S
H1813 C1799 0.961 . S
H1814 C1799 0.961 . S
H1815 C1799 0.961 . S
H1816 C1800 0.931 . S
H1817 C1805 0.930 . S
H1818 C1806 0.956 . S
H1819 C1806 0.961 . S
H1820 C1806 0.961 . S
H1821 C1807 0.958 . S
H1822 C1807 0.961 . S
H1823 C1807 0.960 . S
C1824 C1825 1.391 . S
C1824 C1826 1.394 . S
C1824 H1840 0.931 . S
C1825 C1824 1.391 . S
C1825 C1829 1.376 . S
C1826 C1824 1.394 . S
C1826 C1827 1.369 . S
C1826 C1830 1.531 . S
C1827 C1826 1.369 . S
C1827 C1828 1.410 . S
C1827 C1835 1.503 1_556 S
C1828 C1827 1.410 . S
C1828 C1829 1.392 . S
C1828 C1831 1.511 . S
C1829 C1825 1.376 . S
C1829 C1828 1.392 . S
C1829 H1841 0.929 . S
C1830 C1826 1.531 . S
C1830 H1842 0.960 . S
C1830 H1843 0.962 . S
C1830 H1844 0.960 . S
C1831 C1828 1.511 . S
C1831 H1845 0.961 . S
C1831 H1846 0.961 1_556 S
C1831 H1847 0.961 1_556 S
C1832 C1833 1.370 . S
C1832 C1834 1.363 . S
C1832 H1848 0.931 . S
C1833 C1832 1.370 . S
C1833 C1837 1.408 . S
C1834 C1832 1.363 . S
C1834 C1835 1.370 . S
C1834 C1838 1.524 . S
C1835 C1827 1.503 1_554 S
C1835 C1834 1.370 . S
C1835 C1836 1.403 . S
C1836 C1835 1.403 . S
C1836 C1837 1.404 . S
C1836 C1839 1.539 . S
C1837 C1833 1.408 . S
C1837 C1836 1.404 . S
C1837 H1849 0.930 . S
C1838 C1834 1.524 . S
C1838 H1850 0.956 1_554 S
C1838 H1851 0.961 1_554 S
C1838 H1852 0.961 . S
C1839 C1836 1.539 . S
C1839 H1853 0.958 . S
C1839 H1854 0.961 . S
C1839 H1855 0.960 . S
H1840 C1824 0.931 . S
H1841 C1829 0.929 . S
H1842 C1830 0.960 . S
H1843 C1830 0.962 . S
H1844 C1830 0.960 . S
H1845 C1831 0.961 . S
H1846 C1831 0.961 1_554 S
H1847 C1831 0.961 1_554 S
H1848 C1832 0.931 . S
H1849 C1837 0.930 . S
H1850 C1838 0.956 1_556 S
H1851 C1838 0.961 1_556 S
H1852 C1838 0.961 . S
H1853 C1839 0.958 . S
H1854 C1839 0.961 . S
H1855 C1839 0.960 . S
C1856 C1857 1.391 . S
C1856 C1858 1.394 . S
C1856 H1872 0.931 . S
C1857 C1856 1.391 . S
C1857 C1861 1.376 . S
C1858 C1856 1.394 . S
C1858 C1859 1.369 . S
C1858 C1862 1.531 . S
C1859 C1858 1.369 . S
C1859 C1860 1.410 . S
C1859 C1867 1.503 . S
C1860 C1859 1.410 . S
C1860 C1861 1.392 . S
C1860 C1863 1.511 . S
C1861 C1857 1.376 . S
C1861 C1860 1.392 . S
C1861 H1873 0.929 . S
C1862 C1858 1.531 . S
C1862 H1874 0.960 . S
C1862 H1875 0.962 . S
C1862 H1876 0.960 . S
C1863 C1860 1.511 . S
C1863 H1877 0.961 . S
C1863 H1878 0.961 . S
C1863 H1879 0.961 . S
C1864 C1865 1.370 . S
C1864 C1866 1.363 . S
C1864 H1880 0.931 . S
C1865 C1864 1.370 . S
C1865 C1869 1.408 . S
C1866 C1864 1.363 . S
C1866 C1867 1.370 . S
C1866 C1870 1.524 . S
C1867 C1859 1.503 . S
C1867 C1866 1.370 . S
C1867 C1868 1.403 . S
C1868 C1867 1.403 . S
C1868 C1869 1.404 . S
C1868 C1871 1.539 . S
C1869 C1865 1.408 . S
C1869 C1868 1.404 . S
C1869 H1881 0.930 . S
C1870 C1866 1.524 . S
C1870 H1882 0.956 . S
C1870 H1883 0.961 . S
C1870 H1884 0.961 . S
C1871 C1868 1.539 . S
C1871 H1885 0.958 . S
C1871 H1886 0.961 . S
C1871 H1887 0.960 . S
H1872 C1856 0.931 . S
H1873 C1861 0.929 . S
H1874 C1862 0.960 . S
H1875 C1862 0.962 . S
H1876 C1862 0.960 . S
H1877 C1863 0.961 . S
H1878 C1863 0.961 . S
H1879 C1863 0.961 . S
H1880 C1864 0.931 . S
H1881 C1869 0.930 . S
H1882 C1870 0.956 . S
H1883 C1870 0.961 . S
H1884 C1870 0.961 . S
H1885 C1871 0.958 . S
H1886 C1871 0.961 . S
H1887 C1871 0.960 . S
C353 C272 1.539 . S
C361 C8 1.565 . S
C385 C19 1.555 . S
C393 C107 1.535 . S
C417 C294 1.531 . S
C425 C30 1.566 . S
C449 C41 1.560 . S
C457 C129 1.542 . S
C481 C52 1.564 . S
C489 C316 1.531 . S
C513 C63 1.559 . S
C521 C151 1.542 . S
C545 C74 1.561 . S
C553 C338 1.525 . S
C577 C173 1.534 . S
C585 C85 1.566 . S
C609 C184 1.555 . S
C617 C96 1.531 . S
C641 C118 1.551 . S
C649 C206 1.564 . S
C673 C228 1.564 . S
C681 C140 1.532 . S
C705 C250 1.564 . S
C713 C162 1.533 . S
C737 C283 1.523 . S
C745 C195 1.565 . S
C769 C217 1.560 . S
C777 C305 1.542 . S
C801 C327 1.549 . S
C809 C239 1.563 . S
C833 C349 1.537 . S
C841 C261 1.566 . S
C865 C236 1.355 . S
C873 C5 1.361 . S
C897 C247 1.350 . S
C905 C16 1.359 . S
C929 C27 1.421 . S
C937 C258 1.392 . S
C961 C38 1.420 . S
C969 C225 1.391 . S
C993 C214 1.408 . S
C1001 C49 1.384 . S
C1025 C60 1.368 . S
C1033 C181 1.378 . S
C1057 C71 1.326 . S
C1065 C192 1.352 . S
C1089 C82 1.379 . S
C1097 C203 1.382 . S
C1121 C93 1.232 . S
C1129 C324 1.303 . S
C1153 C104 1.314 . S
C1161 C335 1.270 . S
C1185 C346 1.313 . S
C1193 C115 1.320 . S
C1217 C126 1.273 . S
C1225 C313 1.269 . S
C1249 C302 1.258 . S
C1257 C137 1.272 . S
C1281 C148 1.280 . S
C1289 C269 1.269 . S
C1313 C280 1.353 . S
C1321 C159 1.301 . S
C1345 C291 1.309 . S
C1353 C170 1.269 . S
C1377 C73 1.527 . S
C1385 C7 1.541 . S
C1409 C84 1.511 . S
C1417 C18 1.538 . S
C1441 C51 1.538 . S
C1449 C29 1.526 . S
C1473 C62 1.547 . S
C1481 C40 1.532 . S
C1505 C95 1.475 . S
C1513 C161 1.494 . S
C1537 C172 1.509 . S
C1545 C106 1.494 . S
C1569 C117 1.510 . S
C1577 C139 1.505 . S
C1601 C150 1.511 . S
C1609 C128 1.496 . S
C1633 C183 1.513 . S
C1641 C249 1.536 . S
C1665 C194 1.511 . S
C1673 C260 1.539 . S
C1697 C205 1.512 . S
C1705 C227 1.541 . S
C1729 C216 1.511 . S
C1737 C238 1.541 . S
C1761 C337 1.467 . S
C1769 C271 1.480 . S
C1793 C348 1.514 . S
C1801 C282 1.497 . S
C1825 C293 1.515 . S
C1833 C315 1.506 . S
C1857 C326 1.513 . S
C1865 C304 1.497 . S
