# Generated by pormake.
# Topology ukc, (4)-cn, num edge types: 1
# Building blocks:
#     Node 0, Type 0, BuildingBlock: KUFVIS_clean_sbu_0, # of connection points: 4
#     Node 1, Type 0, BuildingBlock: KUFVIS_clean_sbu_0, # of connection points: 4
#     Node 2, Type 0, BuildingBlock: KUFVIS_clean_sbu_0, # of connection points: 4
#     Node 3, Type 0, BuildingBlock: KUFVIS_clean_sbu_0, # of connection points: 4
#     Node 4, Type 0, BuildingBlock: KUFVIS_clean_sbu_0, # of connection points: 4
#     Node 5, Type 0, BuildingBlock: KUFVIS_clean_sbu_0, # of connection points: 4
#     Node 6, Type 0, BuildingBlock: KUFVIS_clean_sbu_0, # of connection points: 4
#     Node 7, Type 0, BuildingBlock: KUFVIS_clean_sbu_0, # of connection points: 4
#     Node 8, Type 0, BuildingBlock: KUFVIS_clean_sbu_0, # of connection points: 4
#     Node 9, Type 0, BuildingBlock: KUFVIS_clean_sbu_0, # of connection points: 4
#     Node 10, Type 0, BuildingBlock: KUFVIS_clean_sbu_0, # of connection points: 4
#     Node 11, Type 0, BuildingBlock: KUFVIS_clean_sbu_0, # of connection points: 4
#     Node 12, Type 0, BuildingBlock: KUFVIS_clean_sbu_0, # of connection points: 4
#     Node 13, Type 0, BuildingBlock: KUFVIS_clean_sbu_0, # of connection points: 4
#     Node 14, Type 0, BuildingBlock: KUFVIS_clean_sbu_0, # of connection points: 4
#     Node 15, Type 0, BuildingBlock: KUFVIS_clean_sbu_0, # of connection points: 4
#     Node 16, Type 0, BuildingBlock: KUFVIS_clean_sbu_0, # of connection points: 4
#     Node 17, Type 0, BuildingBlock: KUFVIS_clean_sbu_0, # of connection points: 4
#     Node 18, Type 0, BuildingBlock: KUFVIS_clean_sbu_0, # of connection points: 4
#     Node 19, Type 0, BuildingBlock: KUFVIS_clean_sbu_0, # of connection points: 4
#     Node 20, Type 0, BuildingBlock: KUFVIS_clean_sbu_0, # of connection points: 4
#     Node 21, Type 0, BuildingBlock: KUFVIS_clean_sbu_0, # of connection points: 4
#     Node 22, Type 0, BuildingBlock: KUFVIS_clean_sbu_0, # of connection points: 4
#     Node 23, Type 0, BuildingBlock: KUFVIS_clean_sbu_0, # of connection points: 4
#     Node 24, Type 0, BuildingBlock: KUFVIS_clean_sbu_0, # of connection points: 4
#     Node 25, Type 0, BuildingBlock: KUFVIS_clean_sbu_0, # of connection points: 4
#     Node 26, Type 0, BuildingBlock: KUFVIS_clean_sbu_0, # of connection points: 4
#     Node 27, Type 0, BuildingBlock: KUFVIS_clean_sbu_0, # of connection points: 4
#     Node 28, Type 0, BuildingBlock: KUFVIS_clean_sbu_0, # of connection points: 4
#     Node 29, Type 0, BuildingBlock: KUFVIS_clean_sbu_0, # of connection points: 4
#     Node 30, Type 0, BuildingBlock: KUFVIS_clean_sbu_0, # of connection points: 4
#     Node 31, Type 0, BuildingBlock: KUFVIS_clean_sbu_0, # of connection points: 4
#     Edge 32, Type (0, 0), None
#     Edge 33, Type (0, 0), None
#     Edge 34, Type (0, 0), None
#     Edge 35, Type (0, 0), None
#     Edge 36, Type (0, 0), None
#     Edge 37, Type (0, 0), None
#     Edge 38, Type (0, 0), None
#     Edge 39, Type (0, 0), None
#     Edge 40, Type (0, 0), None
#     Edge 41, Type (0, 0), None
#     Edge 42, Type (0, 0), None
#     Edge 43, Type (0, 0), None
#     Edge 44, Type (0, 0), None
#     Edge 45, Type (0, 0), None
#     Edge 46, Type (0, 0), None
#     Edge 47, Type (0, 0), None
#     Edge 48, Type (0, 0), None
#     Edge 49, Type (0, 0), None
#     Edge 50, Type (0, 0), None
#     Edge 51, Type (0, 0), None
#     Edge 52, Type (0, 0), None
#     Edge 53, Type (0, 0), None
#     Edge 54, Type (0, 0), None
#     Edge 55, Type (0, 0), None
#     Edge 56, Type (0, 0), None
#     Edge 57, Type (0, 0), None
#     Edge 58, Type (0, 0), None
#     Edge 59, Type (0, 0), None
#     Edge 60, Type (0, 0), None
#     Edge 61, Type (0, 0), None
#     Edge 62, Type (0, 0), None
#     Edge 63, Type (0, 0), None
#     Edge 64, Type (0, 0), None
#     Edge 65, Type (0, 0), None
#     Edge 66, Type (0, 0), None
#     Edge 67, Type (0, 0), None
#     Edge 68, Type (0, 0), None
#     Edge 69, Type (0, 0), None
#     Edge 70, Type (0, 0), None
#     Edge 71, Type (0, 0), None
#     Edge 72, Type (0, 0), None
#     Edge 73, Type (0, 0), None
#     Edge 74, Type (0, 0), None
#     Edge 75, Type (0, 0), None
#     Edge 76, Type (0, 0), None
#     Edge 77, Type (0, 0), None
#     Edge 78, Type (0, 0), None
#     Edge 79, Type (0, 0), None
#     Edge 80, Type (0, 0), None
#     Edge 81, Type (0, 0), None
#     Edge 82, Type (0, 0), None
#     Edge 83, Type (0, 0), None
#     Edge 84, Type (0, 0), None
#     Edge 85, Type (0, 0), None
#     Edge 86, Type (0, 0), None
#     Edge 87, Type (0, 0), None
#     Edge 88, Type (0, 0), None
#     Edge 89, Type (0, 0), None
#     Edge 90, Type (0, 0), None
#     Edge 91, Type (0, 0), None
#     Edge 92, Type (0, 0), None
#     Edge 93, Type (0, 0), None
#     Edge 94, Type (0, 0), None
#     Edge 95, Type (0, 0), None
# Relax obj value: 0.044
# Max RMSD: 0.059
# Mean RMSD: 0.059
data_MOF--net-ukc--node1-KUFVIS_clean_sbu_0--edge1-none
_symmetry_space_group_name_H-M    P1
_symmetry_Int_Tables_number       1
_symmetry_cell_setting            triclinic
loop_
_symmetry_equiv_pos_as_xyz
'x, y, z'
_cell_length_a     18.849349
_cell_length_b     18.930312
_cell_length_c     42.136168
_cell_angle_alpha  89.717902
_cell_angle_beta   90.093824
_cell_angle_gamma 90.372837
loop_
_atom_site_label
_atom_site_type_symbol
_atom_site_fract_x
_atom_site_fract_y
_atom_site_fract_z
_atom_type_partial_charge
Mn0 Mn 0.12003 0.41576 0.0546 0.0
Mn1 Mn 0.07729 0.37028 0.98234 0.0
C2 C 0.04358 0.31883 0.05005 0.0
C3 C 0.18116 0.4224 0.10371 0.0
C4 C 0.04504 0.50454 0.00761 0.0
O5 O 0.20357 0.44701 0.0236 0.0
O6 O 0.18281 0.3744 0.98172 0.0
C7 C 0.1222 0.42888 0.92152 0.0
N8 N 0.06994 0.3967 0.93872 0.0
C9 C 0.9823 0.4324 0.90038 0.0
C10 C 0.03575 0.46283 0.88179 0.0
C11 C 0.1053 0.46441 0.89332 0.0
C12 C 1.00128 0.40207 0.92966 0.0
H13 H 0.17606 0.4312 0.93018 0.0
C14 C 0.22345 0.41728 0.99718 0.0
O15 O 0.14774 0.47468 0.09156 0.0
O16 O 0.18756 0.36748 0.08542 0.0
N17 N 0.97408 0.37431 0.98233 0.0
C18 C 0.92864 0.38202 0.00741 0.0
C19 C 0.85653 0.39432 0.00247 0.0
C20 C 0.83085 0.40428 0.97178 0.0
C21 C 0.87874 0.40556 0.94656 0.0
C22 C 0.95047 0.38978 0.95267 0.0
H23 H 0.94631 0.38607 0.03134 0.0
O24 O 0.04303 0.35804 0.07525 0.0
O25 O 0.08611 0.34034 0.02761 0.0
O26 O 0.04603 0.4853 0.03633 0.0
O27 O 0.08174 0.4723 0.98784 0.0
C28 C 0.85857 0.42829 0.91617 0.0
C29 C 0.91033 0.44075 0.89289 0.0
H30 H 1.02308 0.4901 0.85985 0.0
H31 H 0.14612 0.49317 0.88055 0.0
H32 H 0.82204 0.40093 0.02269 0.0
H33 H 0.77542 0.41688 0.96814 0.0
H34 H 0.80391 0.44179 0.91133 0.0
H35 H 0.89492 0.46437 0.8705 0.0
Mn36 Mn 0.9331 0.86439 0.30404 0.0
Mn37 Mn 0.99609 0.84074 0.23353 0.0
C38 C 0.03781 0.79874 0.29792 0.0
C39 C 0.91136 0.90154 0.35643 0.0
C40 C 0.85341 0.79909 0.24975 0.0
O41 O 0.91027 0.95956 0.27723 0.0
O42 O 0.98748 0.94802 0.23538 0.0
C43 C 0.03396 0.87246 0.16817 0.0
N44 N 0.99287 0.83618 0.18896 0.0
C45 C 0.95259 0.75843 0.14867 0.0
C46 C 0.99434 0.79391 0.12638 0.0
C47 C 0.04258 0.84483 0.13747 0.0
C48 C 0.9649 0.77405 0.18021 0.0
H49 H 0.06345 0.91818 0.17594 0.0
C50 C 0.94492 0.98631 0.25275 0.0
O51 O 0.86403 0.87168 0.33932 0.0
O52 O 0.97 0.91897 0.34188 0.0
N53 N 0.98631 0.7369 0.2319 0.0
C54 C 0.97752 0.68659 0.25534 0.0
C55 C 0.93987 0.62415 0.24975 0.0
C56 C 0.90885 0.61238 0.22031 0.0
C57 C 0.92056 0.66077 0.19606 0.0
C58 C 0.9589 0.72259 0.20285 0.0
H59 H 0.99324 0.69215 0.27925 0.0
O60 O 0.99481 0.78433 0.32115 0.0
O61 O 1.01402 0.84552 0.27866 0.0
O62 O 0.86989 0.7954 0.27873 0.0
O63 O 0.88979 0.83887 0.23175 0.0
C64 C 0.89083 0.6527 0.16581 0.0
C65 C 0.90721 0.70222 0.14183 0.0
H66 H 0.99474 0.77825 0.10174 0.0
H67 H 0.08458 0.86342 0.12237 0.0
H68 H 0.93162 0.58759 0.2691 0.0
H69 H 0.87385 0.5679 0.21671 0.0
H70 H 0.85755 0.60739 0.16077 0.0
H71 H 0.88585 0.69701 0.1184 0.0
Mn72 Mn 0.43118 0.6354 0.54913 0.0
Mn73 Mn 0.44321 0.67217 0.4727 0.0
C74 C 0.50928 0.72738 0.53595 0.0
C75 C 0.38421 0.63113 0.60116 0.0
C76 C 0.49519 0.54569 0.50079 0.0
O77 O 0.33801 0.59847 0.52636 0.0
O78 O 0.34257 0.66909 0.48322 0.0
C79 C 0.36148 0.60294 0.42271 0.0
N80 N 0.42366 0.63498 0.43156 0.0
C81 C 0.48549 0.57646 0.38954 0.0
C82 C 0.42304 0.54065 0.38118 0.0
C83 C 0.36043 0.5547 0.39766 0.0
C84 C 0.48439 0.62126 0.41601 0.0
H85 H 0.31292 0.61194 0.43524 0.0
C86 C 0.30937 0.6259 0.50117 0.0
O87 O 0.417 0.57948 0.58853 0.0
O88 O 0.37321 0.68563 0.58277 0.0
N89 N 0.54228 0.672 0.45954 0.0
C90 C 0.60329 0.68425 0.47627 0.0
C91 C 0.6697 0.67422 0.46222 0.0
C92 C 0.67415 0.64698 0.43161 0.0
C93 C 0.61188 0.63022 0.41523 0.0
C94 C 0.5466 0.64449 0.42982 0.0
H95 H 0.60349 0.69735 0.5007 0.0
O96 O 0.5154 0.69154 0.56217 0.0
O97 O 0.45732 0.70769 0.51741 0.0
O98 O 0.49862 0.56642 0.52895 0.0
O99 O 0.45028 0.5713 0.48218 0.0
C100 C 0.61239 0.5941 0.38614 0.0
C101 C 0.54939 0.56651 0.37344 0.0
H102 H 0.42224 0.5035 0.36169 0.0
H103 H 0.31134 0.52876 0.3911 0.0
H104 H 0.71754 0.68434 0.47563 0.0
H105 H 0.72569 0.63537 0.42169 0.0
H106 H 0.6615 0.57838 0.37542 0.0
H107 H 0.55134 0.53406 0.35238 0.0
Mn108 Mn 0.62688 0.17404 0.80219 0.0
Mn109 Mn 0.56792 0.2039 0.73091 0.0
C110 C 0.5304 0.24871 0.79589 0.0
C111 C 0.64293 0.13838 0.85465 0.0
C112 C 0.71156 0.23561 0.7491 0.0
O113 O 0.6454 0.07917 0.77557 0.0
O114 O 0.57094 0.09657 0.73306 0.0
C115 C 0.52436 0.17323 0.66693 0.0
N116 N 0.57048 0.20723 0.68627 0.0
C117 C 0.60616 0.28455 0.64445 0.0
C118 C 0.5589 0.25125 0.62383 0.0
C119 C 0.51118 0.20178 0.63666 0.0
C120 C 0.59971 0.26825 0.67645 0.0
H121 H 0.49413 0.12893 0.6758 0.0
C122 C 0.6117 0.0559 0.7503 0.0
O123 O 0.69442 0.16006 0.83739 0.0
O124 O 0.58362 0.12433 0.83986 0.0
N125 N 0.5834 0.30679 0.72819 0.0
C126 C 0.59602 0.35671 0.75114 0.0
C127 C 0.63217 0.41949 0.74408 0.0
C128 C 0.65792 0.43207 0.71364 0.0
C129 C 0.64511 0.38232 0.69025 0.0
C130 C 0.6088 0.31996 0.69857 0.0
H131 H 0.58495 0.34992 0.77557 0.0
O132 O 0.57428 0.25877 0.81924 0.0
O133 O 0.54928 0.20054 0.77633 0.0
O134 O 0.69455 0.23771 0.77788 0.0
O135 O 0.67376 0.20073 0.72984 0.0
C136 C 0.6699 0.39061 0.65905 0.0
C137 C 0.64967 0.34122 0.63582 0.0
H138 H 0.55379 0.26818 0.59938 0.0
H139 H 0.46584 0.18476 0.62316 0.0
H140 H 0.64315 0.45608 0.76286 0.0
H141 H 0.68887 0.47902 0.70848 0.0
H142 H 0.70178 0.43617 0.65259 0.0
H143 H 0.66601 0.34729 0.61156 0.0
Mn144 Mn 0.11724 0.64326 0.44496 0.0
Mn145 Mn 0.09567 0.67445 0.52101 0.0
C146 C 0.04525 0.73974 0.45723 0.0
C147 C 0.17289 0.63937 0.39389 0.0
C148 C 0.04139 0.55363 0.49087 0.0
O149 O 0.20429 0.60096 0.47046 0.0
O150 O 0.19814 0.66739 0.51482 0.0
C151 C 0.15523 0.58666 0.57096 0.0
N152 N 0.10256 0.6322 0.56211 0.0
C153 C 0.02742 0.58707 0.60361 0.0
C154 C 0.0815 0.54163 0.61347 0.0
C155 C 0.1448 0.53951 0.59628 0.0
C156 C 0.03849 0.62878 0.57631 0.0
H157 H 0.20412 0.58357 0.55788 0.0
C158 C 0.23174 0.62573 0.49652 0.0
O159 O 0.13439 0.58954 0.40523 0.0
O160 O 0.18423 0.69199 0.41314 0.0
N161 N 0.99432 0.67819 0.52927 0.0
C162 C 0.93852 0.68732 0.50885 0.0
C163 C 0.86858 0.68266 0.51967 0.0
C164 C 0.8551 0.661 0.5507 0.0
C165 C 0.91201 0.64352 0.57039 0.0
C166 C 0.98145 0.65515 0.55935 0.0
H167 H 0.94495 0.6926 0.4839 0.0
O168 O 0.03984 0.70673 0.43033 0.0
O169 O 0.09273 0.71481 0.47674 0.0
O170 O 0.04074 0.57564 0.46267 0.0
O171 O 0.08805 0.57586 0.5093 0.0
C172 C 0.90169 0.60746 0.59909 0.0
C173 C 0.95951 0.58306 0.6168 0.0
H174 H 0.07377 0.50576 0.6333 0.0
H175 H 0.18615 0.50289 0.60295 0.0
H176 H 0.82505 0.69153 0.50346 0.0
H177 H 0.80078 0.65321 0.55842 0.0
H178 H 0.84932 0.58955 0.60544 0.0
H179 H 0.94981 0.5517 0.63795 0.0
Mn180 Mn 0.6331 0.85861 0.69052 0.0
Mn181 Mn 0.57082 0.82796 0.76183 0.0
C182 C 0.53359 0.78468 0.69718 0.0
C183 C 0.64854 0.89817 0.6375 0.0
C184 C 0.71478 0.79527 0.74541 0.0
O185 O 0.64906 0.95418 0.71757 0.0
O186 O 0.57372 0.93495 0.75973 0.0
C187 C 0.5319 0.86182 0.82647 0.0
N188 N 0.57282 0.82422 0.80647 0.0
C189 C 0.60908 0.74768 0.84822 0.0
C190 C 0.56721 0.78477 0.86959 0.0
C191 C 0.52094 0.8356 0.85733 0.0
C192 C 0.59972 0.76251 0.81625 0.0
H193 H 0.50413 0.90758 0.81795 0.0
C194 C 0.61318 0.97679 0.74235 0.0
O195 O 0.6995 0.87306 0.65409 0.0
O196 O 0.59026 0.91095 0.65304 0.0
N197 N 0.58437 0.72493 0.76426 0.0
C198 C 0.59693 0.67538 0.74118 0.0
C199 C 0.63088 0.61186 0.74835 0.0
C200 C 0.65509 0.59863 0.77899 0.0
C201 C 0.64262 0.64812 0.8024 0.0
C202 C 0.60784 0.71084 0.79408 0.0
H203 H 0.58775 0.68305 0.71663 0.0
O204 O 0.57645 0.77439 0.6736 0.0
O205 O 0.55497 0.83211 0.71648 0.0
O206 O 0.70058 0.79432 0.71606 0.0
O207 O 0.67651 0.83141 0.76378 0.0
C208 C 0.66764 0.63961 0.8335 0.0
C209 C 0.65134 0.69052 0.85654 0.0
H210 H 0.56475 0.77005 0.89438 0.0
H211 H 0.4774 0.85395 0.87136 0.0
H212 H 0.64185 0.57532 0.72956 0.0
H213 H 0.68553 0.55185 0.78427 0.0
H214 H 0.69772 0.59318 0.83997 0.0
H215 H 0.6701 0.68546 0.88047 0.0
Mn216 Mn 0.42477 0.41149 0.9421 0.0
Mn217 Mn 0.43792 0.37393 0.01846 0.0
C218 C 0.50335 0.32022 0.95497 0.0
C219 C 0.38012 0.4142 0.88923 0.0
C220 C 0.48989 0.50215 0.99161 0.0
O221 O 0.32901 0.44373 0.96471 0.0
O222 O 0.33632 0.37504 0.00856 0.0
C223 C 0.35993 0.44628 0.06813 0.0
N224 N 0.42024 0.41119 0.05977 0.0
C225 C 0.48516 0.47028 0.10111 0.0
C226 C 0.42475 0.50931 0.10879 0.0
C227 C 0.36159 0.49691 0.09223 0.0
C228 C 0.48176 0.42418 0.07509 0.0
H229 H 0.31125 0.43863 0.0555 0.0
C230 C 0.30098 0.41453 0.98982 0.0
O231 O 0.41051 0.46696 0.90242 0.0
O232 O 0.36915 0.35968 0.90765 0.0
N233 N 0.53726 0.37457 0.03106 0.0
C234 C 0.59752 0.36364 0.01386 0.0
C235 C 0.66429 0.36952 0.02804 0.0
C236 C 0.67038 0.39477 0.05896 0.0
C237 C 0.60904 0.41324 0.07539 0.0
C238 C 0.54298 0.40027 0.06103 0.0
H239 H 0.5972 0.35548 0.98903 0.0
O240 O 0.51 0.35729 0.92914 0.0
O241 O 0.45131 0.33887 0.97355 0.0
O242 O 0.49211 0.48302 0.96308 0.0
O243 O 0.44434 0.47535 0.00963 0.0
C244 C 0.61145 0.44998 0.10424 0.0
C245 C 0.54965 0.47895 0.11708 0.0
H246 H 0.42604 0.54796 0.12767 0.0
H247 H 0.31409 0.5258 0.09803 0.0
H248 H 0.71096 0.35789 0.01433 0.0
H249 H 0.7225 0.4041 0.06898 0.0
H250 H 0.66139 0.46554 0.11434 0.0
H251 H 0.55339 0.51245 0.13779 0.0
Mn252 Mn 0.92037 0.18255 0.19211 0.0
Mn253 Mn 0.98424 0.217 0.26184 0.0
C254 C 1.02362 0.25455 0.19629 0.0
C255 C 0.89558 0.13856 0.14062 0.0
C256 C 0.83973 0.24936 0.24572 0.0
O257 O 0.90394 0.08873 0.22073 0.0
O258 O 0.98098 0.10912 0.26206 0.0
C259 C 1.01823 0.18859 0.32811 0.0
N260 N 0.9812 0.22595 0.30635 0.0
C261 C 0.94324 0.30725 0.34553 0.0
C262 C 0.98171 0.27097 0.3686 0.0
C263 C 0.02692 0.21724 0.35857 0.0
C264 C 0.95511 0.28927 0.31417 0.0
H265 H 0.04475 0.14086 0.32133 0.0
C266 C 0.94109 0.06635 0.24528 0.0
O267 O 0.84885 0.16706 0.15814 0.0
O268 O 0.95637 0.12648 0.1544 0.0
N269 N 0.97092 0.32029 0.26131 0.0
C270 C 0.95736 0.36627 0.23666 0.0
C271 C 0.92032 0.42877 0.24133 0.0
C272 C 0.89533 0.44583 0.27129 0.0
C273 C 0.90998 0.40078 0.29652 0.0
C274 C 0.9471 0.33812 0.29051 0.0
H275 H 0.96691 0.35608 0.21247 0.0
O276 O 0.97956 0.26363 0.1729 0.0
O277 O 1.00151 0.20892 0.21663 0.0
O278 O 0.85519 0.25093 0.21658 0.0
O279 O 0.87825 0.21329 0.26421 0.0
C280 C 0.8836 0.41255 0.32707 0.0
C281 C 0.90013 0.36489 0.35168 0.0
H282 H 0.98227 0.28798 0.39307 0.0
H283 H 0.0685 0.19919 0.37384 0.0
H284 H 0.90717 0.46055 0.22096 0.0
H285 H 0.86243 0.49185 0.27448 0.0
H286 H 0.85095 0.45816 0.33172 0.0
H287 H 0.87954 0.3719 0.3751 0.0
Mn288 Mn 0.93094 0.64596 0.94612 0.0
Mn289 Mn 0.94115 0.68741 0.02163 0.0
C290 C 1.0028 0.74577 0.95758 0.0
C291 C 0.88257 0.63389 0.894 0.0
C292 C 1.00003 0.56206 0.99618 0.0
O293 O 0.83913 0.60564 0.96994 0.0
O294 O 0.84033 0.67959 0.0116 0.0
C295 C 0.86461 0.61276 0.07169 0.0
N296 N 0.92456 0.64922 0.06298 0.0
C297 C 0.99101 0.59085 0.104 0.0
C298 C 0.93093 0.55108 0.11226 0.0
C299 C 0.86718 0.56252 0.09612 0.0
C300 C 0.98659 0.63746 0.07801 0.0
H301 H 0.8151 0.61982 0.05952 0.0
C302 C 0.80886 0.63356 0.99461 0.0
O303 O 0.91996 0.58598 0.9074 0.0
O304 O 0.86891 0.6889 0.91144 0.0
N305 N 0.04044 0.69203 0.0342 0.0
C306 C 0.10008 0.70747 0.01702 0.0
C307 C 0.16754 0.69944 0.03039 0.0
C308 C 0.17456 0.67046 0.06066 0.0
C309 C 0.1138 0.65079 0.07751 0.0
C310 C 0.04724 0.66369 0.06376 0.0
H311 H 0.09869 0.72123 0.99267 0.0
O312 O 1.01105 0.70852 0.93204 0.0
O313 O 0.95265 0.72282 0.97648 0.0
O314 O 1.00364 0.58197 0.96773 0.0
O315 O 0.95247 0.58642 0.01354 0.0
C316 C 0.1173 0.61272 0.10612 0.0
C317 C 0.0562 0.58217 0.11929 0.0
H318 H 0.93289 0.51243 0.1313 0.0
H319 H 0.81997 0.53302 0.10249 0.0
H320 H 0.21425 0.71205 0.01658 0.0
H321 H 0.22697 0.65932 0.06979 0.0
H322 H 0.16755 0.59793 0.1159 0.0
H323 H 0.06085 0.54796 0.13987 0.0
Mn324 Mn 0.12659 0.17772 0.69496 0.0
Mn325 Mn 0.09317 0.17639 0.77146 0.0
C326 C 0.03506 0.25374 0.71068 0.0
C327 C 0.13397 0.15061 0.63977 0.0
C328 C 0.21772 0.23887 0.74522 0.0
O329 O 0.1556 0.07413 0.71314 0.0
O330 O 0.09282 0.07627 0.75852 0.0
C331 C 0.1745 0.09058 0.81587 0.0
N332 N 0.13752 0.15166 0.81088 0.0
C333 C 0.20689 0.20972 0.85114 0.0
C334 C 0.247 0.14849 0.85548 0.0
C335 C 0.23068 0.08847 0.83767 0.0
C336 C 0.15489 0.21043 0.8272 0.0
H337 H 0.16388 0.04421 0.8023 0.0
C338 C 0.12595 0.04185 0.73733 0.0
O339 O 0.18571 0.17507 0.65581 0.0
O340 O 0.07752 0.13465 0.6562 0.0
N341 N 0.09342 0.27249 0.78781 0.0
C342 C 0.07163 0.33471 0.77462 0.0
C343 C 0.08385 0.39891 0.78999 0.0
C344 C 0.12115 0.40006 0.81853 0.0
C345 C 0.14367 0.33656 0.83209 0.0
C346 C 0.12782 0.27343 0.81619 0.0
H347 H 0.04784 0.3379 0.7521 0.0
O348 O 0.07427 0.26598 0.68596 0.0
O349 O 0.05229 0.19761 0.72731 0.0
O350 O 0.19842 0.24227 0.7169 0.0
O351 O 0.19459 0.18861 0.76172 0.0
C352 C 0.18591 0.33399 0.85961 0.0
C353 C 0.21925 0.27112 0.86863 0.0
H354 H 0.28967 0.14686 0.87271 0.0
H355 H 0.2607 0.04047 0.84087 0.0
H356 H 0.06667 0.44777 0.77911 0.0
H357 H 0.13477 0.45039 0.82894 0.0
H358 H 0.20077 0.38152 0.87188 0.0
H359 H 0.25695 0.27145 0.88805 0.0
Mn360 Mn 0.61648 0.40123 0.44536 0.0
Mn361 Mn 0.59067 0.36538 0.52069 0.0
C362 C 0.54321 0.30381 0.45599 0.0
C363 C 0.6721 0.41032 0.39457 0.0
C364 C 0.54083 0.48887 0.4906 0.0
O365 O 0.70261 0.44214 0.47233 0.0
O366 O 0.69367 0.37285 0.516 0.0
C367 C 0.64868 0.44781 0.57282 0.0
N368 N 0.5954 0.40426 0.56233 0.0
C369 C 0.51862 0.44511 0.60372 0.0
C370 C 0.57397 0.48662 0.61585 0.0
C371 C 0.63852 0.48996 0.5996 0.0
C372 C 0.53052 0.40664 0.57576 0.0
H373 H 0.69838 0.45216 0.56038 0.0
C374 C 0.72853 0.41616 0.49856 0.0
O375 O 0.6345 0.45909 0.40669 0.0
O376 O 0.68351 0.35611 0.41308 0.0
N377 N 0.48872 0.36177 0.52745 0.0
C378 C 0.43435 0.35549 0.50604 0.0
C379 C 0.36376 0.36031 0.51581 0.0
C380 C 0.34839 0.37958 0.54686 0.0
C381 C 0.40417 0.3946 0.56763 0.0
C382 C 0.47412 0.38267 0.55757 0.0
H383 H 0.44261 0.35244 0.48114 0.0
O384 O 0.53934 0.33849 0.42933 0.0
O385 O 0.59003 0.32746 0.47617 0.0
O386 O 0.54015 0.46689 0.4626 0.0
O387 O 0.58514 0.46489 0.50976 0.0
C388 C 0.39254 0.42871 0.59649 0.0
C389 C 0.44958 0.45021 0.61554 0.0
H390 H 0.56621 0.51931 0.63658 0.0
H391 H 0.68061 0.52451 0.60782 0.0
H392 H 0.32142 0.35358 0.4988 0.0
H393 H 0.29371 0.38758 0.55382 0.0
H394 H 0.34008 0.44682 0.6022 0.0
H395 H 0.43908 0.4798 0.63695 0.0
Mn396 Mn 0.43138 0.8691 0.18986 0.0
Mn397 Mn 0.49603 0.8399 0.26027 0.0
C398 C 0.53679 0.80302 0.19555 0.0
C399 C 0.40853 0.90972 0.1372 0.0
C400 C 0.35299 0.80021 0.24428 0.0
O401 O 0.40978 0.96218 0.21797 0.0
O402 O 0.48757 0.94699 0.25964 0.0
C403 C 0.53432 0.86811 0.32584 0.0
N404 N 0.49403 0.83198 0.30479 0.0
C405 C 0.45612 0.7508 0.34452 0.0
C406 C 0.49748 0.78576 0.36701 0.0
C407 C 0.54396 0.83882 0.35626 0.0
C408 C 0.46722 0.76883 0.31306 0.0
H409 H 0.5631 0.91467 0.31837 0.0
C410 C 0.44449 0.98653 0.24292 0.0
O411 O 0.36191 0.87886 0.15438 0.0
O412 O 0.46723 0.92638 0.1519 0.0
N413 N 0.48581 0.73607 0.26074 0.0
C414 C 0.47486 0.68825 0.23665 0.0
C415 C 0.43699 0.62571 0.24168 0.0
C416 C 0.40795 0.6112 0.2713 0.0
C417 C 0.42163 0.65708 0.29616 0.0
C418 C 0.4601 0.71923 0.28987 0.0
H419 H 0.4883 0.6964 0.2126 0.0
O420 O 0.49391 0.7905 0.17205 0.0
O421 O 0.51257 0.84812 0.21518 0.0
O422 O 0.36828 0.79851 0.21508 0.0
O423 O 0.39007 0.83873 0.26239 0.0
C424 C 0.39332 0.64655 0.32657 0.0
C425 C 0.41146 0.69372 0.35107 0.0
H426 H 0.49901 0.76816 0.39147 0.0
H427 H 0.58574 0.8576 0.37138 0.0
H428 H 0.42667 0.59156 0.22178 0.0
H429 H 0.3726 0.56683 0.2745 0.0
H430 H 0.35919 0.60157 0.33123 0.0
H431 H 0.39136 0.68648 0.37464 0.0
Mn432 Mn 0.93031 0.40512 0.55106 0.0
Mn433 Mn 0.93925 0.37415 0.47364 0.0
C434 C 1.00766 0.31526 0.53552 0.0
C435 C 0.8875 0.40206 0.60459 0.0
C436 C 0.99302 0.49868 0.50215 0.0
O437 O 0.83489 0.4409 0.52956 0.0
O438 O 0.83919 0.37558 0.48489 0.0
C439 C 0.85688 0.44815 0.42532 0.0
N440 N 0.91857 0.41447 0.43305 0.0
C441 C 0.97957 0.47571 0.39104 0.0
C442 C 0.9176 0.5129 0.38378 0.0
C443 C 0.85568 0.49851 0.40091 0.0
C444 C 0.9788 0.42909 0.4171 0.0
H445 H 0.80893 0.43883 0.43831 0.0
C446 C 0.80614 0.4159 0.50381 0.0
O447 O 0.91822 0.45593 0.59218 0.0
O448 O 0.87543 0.34995 0.58514 0.0
N449 N 0.03779 0.37554 0.45966 0.0
C450 C 0.0994 0.36103 0.47549 0.0
C451 C 0.1652 0.37122 0.46076 0.0
C452 C 0.16862 0.40043 0.43036 0.0
C453 C 0.10591 0.4188 0.41482 0.0
C454 C 0.04117 0.40468 0.4301 0.0
H455 H 0.10077 0.34562 0.49969 0.0
O456 O 1.01596 0.34937 0.56196 0.0
O457 O 0.95474 0.33617 0.51798 0.0
O458 O 0.9962 0.47783 0.5305 0.0
O459 O 0.94662 0.47411 0.48402 0.0
C460 C 0.10562 0.45606 0.38585 0.0
C461 C 0.04273 0.48564 0.37422 0.0
H462 H 0.91663 0.55143 0.36468 0.0
H463 H 0.8069 0.52555 0.39532 0.0
H464 H 0.21346 0.35934 0.47347 0.0
H465 H 0.21989 0.41209 0.42 0.0
H466 H 0.15447 0.47119 0.37449 0.0
H467 H 0.04444 0.51949 0.35342 0.0
Mn468 Mn 0.42196 0.18026 0.30509 0.0
Mn469 Mn 0.48368 0.21646 0.23493 0.0
C470 C 0.52432 0.25289 0.29999 0.0
C471 C 0.40171 0.13754 0.35729 0.0
C472 C 0.33941 0.24669 0.25137 0.0
O473 O 0.40554 0.08673 0.27644 0.0
O474 O 0.48073 0.10905 0.23455 0.0
C475 C 0.51683 0.18869 0.1689 0.0
N476 N 0.48023 0.22635 0.19049 0.0
C477 C 0.44519 0.30952 0.15116 0.0
C478 C 0.48376 0.27322 0.12837 0.0
C479 C 0.52763 0.21852 0.13872 0.0
C480 C 0.45559 0.29042 0.18258 0.0
H481 H 0.54227 0.14025 0.17578 0.0
C482 C 0.44133 0.06573 0.25133 0.0
O483 O 0.35296 0.16485 0.34023 0.0
O484 O 0.46099 0.12454 0.34255 0.0
N485 N 0.46984 0.31957 0.23563 0.0
C486 C 0.45449 0.36414 0.26037 0.0
C487 C 0.41873 0.4274 0.25551 0.0
C488 C 0.39648 0.44644 0.22524 0.0
C489 C 0.41221 0.40243 0.19998 0.0
C490 C 0.44767 0.33877 0.20624 0.0
H491 H 0.46032 0.35152 0.28463 0.0
O492 O 0.48126 0.26157 0.32366 0.0
O493 O 0.50176 0.2073 0.27996 0.0
O494 O 0.35514 0.24769 0.28054 0.0
O495 O 0.37805 0.21184 0.23273 0.0
C496 C 0.38806 0.41611 0.16911 0.0
C497 C 0.40387 0.36833 0.14469 0.0
H498 H 0.48581 0.29104 0.10397 0.0
H499 H 0.56997 0.20086 0.12394 0.0
H500 H 0.40388 0.45799 0.27591 0.0
H501 H 0.36391 0.49263 0.22184 0.0
H502 H 0.35717 0.46289 0.16407 0.0
H503 H 0.38387 0.37582 0.12114 0.0
Mn504 Mn 0.61357 0.64632 0.05009 0.0
Mn505 Mn 0.59429 0.68069 0.97422 0.0
C506 C 0.54082 0.74385 0.03747 0.0
C507 C 0.668 0.64073 0.10168 0.0
C508 C 0.53832 0.55751 0.00327 0.0
O509 O 0.70271 0.60566 0.02505 0.0
O510 O 0.69671 0.67381 0.98108 0.0
C511 C 0.65695 0.59582 0.92461 0.0
N512 N 0.60325 0.64026 0.93316 0.0
C513 C 0.5298 0.59488 0.8913 0.0
C514 C 0.58471 0.5503 0.88184 0.0
C515 C 0.64809 0.54967 0.89909 0.0
C516 C 0.53969 0.63654 0.91851 0.0
H517 H 0.70569 0.59317 0.93788 0.0
C518 C 0.73058 0.63148 -0.00086 0.0
O519 O 0.62987 0.59123 0.08997 0.0
O520 O 0.67935 0.69409 0.08263 0.0
N521 N 0.49343 0.68494 0.9651 0.0
C522 C 0.43677 0.69325 0.98503 0.0
C523 C 0.36731 0.68863 0.97358 0.0
C524 C 0.35525 0.66781 0.94243 0.0
C525 C 0.41305 0.65105 0.92329 0.0
C526 C 0.48192 0.66261 0.93492 0.0
H527 H 0.44198 0.69751 0.01005 0.0
O528 O 0.53504 0.7097 0.06421 0.0
O529 O 0.58922 0.71944 0.01845 0.0
O530 O 0.53758 0.57849 0.03158 0.0
O531 O 0.58514 0.58098 0.98508 0.0
C532 C 0.40407 0.6149 0.89476 0.0
C533 C 0.46245 0.59055 0.87762 0.0
H534 H 0.57795 0.51461 0.86201 0.0
H535 H 0.6903 0.51422 0.89265 0.0
H536 H 0.32307 0.69644 0.98942 0.0
H537 H 0.30129 0.65979 0.93423 0.0
H538 H 0.35237 0.59517 0.8888 0.0
H539 H 0.45353 0.55883 0.85664 0.0
Mn540 Mn 0.13279 0.85415 0.80077 0.0
Mn541 Mn 0.07384 0.81415 0.73027 0.0
C542 C 0.03193 0.78223 0.7966 0.0
C543 C 0.1438 0.90652 0.852 0.0
C544 C 0.21594 0.78267 0.74957 0.0
O545 O 0.15893 0.94049 0.76965 0.0
O546 O 0.08188 0.92166 0.72835 0.0
C547 C 0.04731 0.84064 0.66324 0.0
N548 N 0.08094 0.8032 0.68609 0.0
C549 C 0.12664 0.7224 0.64841 0.0
C550 C 0.09721 0.76247 0.62394 0.0
C551 C 0.0494 0.81553 0.63203 0.0
C552 C 0.10834 0.73985 0.67925 0.0
H553 H 1.01586 0.88589 0.66939 0.0
C554 C 0.1271 0.96201 0.74358 0.0
O555 O 0.19503 0.87532 0.838 0.0
O556 O 0.08802 0.91737 0.83438 0.0
N557 N 0.08461 0.71017 0.73179 0.0
C558 C 0.09107 0.66305 0.75664 0.0
C559 C 0.12018 0.59583 0.75227 0.0
C560 C 0.14702 0.57679 0.72282 0.0
C561 C 0.14355 0.62511 0.69788 0.0
C562 C 0.11123 0.69082 0.70321 0.0
H563 H 0.07934 0.67466 0.78059 0.0
O564 O 0.07386 0.77593 0.82091 0.0
O565 O 0.0546 0.82538 0.7752 0.0
O566 O 0.20004 0.78282 0.77882 0.0
O567 O 0.1787 0.81738 0.73025 0.0
C568 C 0.17462 0.61222 0.6682 0.0
C569 C 0.16699 0.66214 0.64358 0.0
H570 H 0.10452 0.74838 0.59935 0.0
H571 H 1.01321 0.8347 0.61467 0.0
H572 H 0.1254 0.56013 0.77225 0.0
H573 H 0.17191 0.52579 0.71986 0.0
H574 H 0.20386 0.56408 0.66397 0.0
H575 H 0.19207 0.6543 0.62101 0.0
Mn576 Mn 0.61208 0.89453 0.54851 0.0
Mn577 Mn 0.59035 0.86599 0.47271 0.0
C578 C 0.53887 0.80013 0.53611 0.0
C579 C 0.65204 0.90045 0.60211 0.0
C580 C 0.54314 0.98809 0.50272 0.0
O581 O 0.70578 0.9304 0.5246 0.0
O582 O 0.69483 0.872 0.47787 0.0
C583 C 0.64944 0.9512 0.42086 0.0
N584 N 0.59431 0.91088 0.4319 0.0
C585 C 0.51579 0.9622 0.39299 0.0
C586 C 0.57223 1.00255 0.38095 0.0
C587 C 0.63862 0.99889 0.39577 0.0
C588 C 0.52848 0.91947 0.41975 0.0
H589 H 0.70069 0.95007 0.43226 0.0
C590 C 0.73208 0.90741 0.49788 0.0
O591 O 0.62364 0.95173 0.58732 0.0
O592 O 0.66733 0.84612 0.58454 0.0
N593 N 0.48738 0.86331 0.46542 0.0
C594 C 0.43147 0.84667 0.48485 0.0
C595 C 0.36211 0.84376 0.47292 0.0
C596 C 0.34816 0.86528 0.44188 0.0
C597 C 0.40371 0.89202 0.42353 0.0
C598 C 0.47306 0.88912 0.436 0.0
H599 H 0.43652 0.83982 0.50973 0.0
O600 O 0.53011 0.83646 0.56186 0.0
O601 O 0.58854 0.82232 0.51682 0.0
O602 O 0.54014 0.96397 0.53029 0.0
O603 O 0.58837 0.96463 0.48431 0.0
C604 C 0.39223 0.92417 0.39383 0.0
C605 C 0.44832 0.95977 0.3786 0.0
H606 H 0.56509 0.03688 0.3606 0.0
H607 H 0.68158 0.03275 0.38785 0.0
H608 H 0.31909 0.82721 0.48812 0.0
H609 H 0.29407 0.86525 0.43313 0.0
H610 H 0.33972 0.92529 0.38335 0.0
H611 H 0.43849 0.98698 0.3564 0.0
Mn612 Mn 0.3674 0.36216 0.80295 0.0
Mn613 Mn 0.40325 0.32818 0.72885 0.0
C614 C 0.46027 0.28429 0.79519 0.0
C615 C 0.37063 0.41201 0.85415 0.0
C616 C 0.27277 0.28869 0.75697 0.0
O617 O 0.33767 0.45256 0.7748 0.0
O618 O 0.40223 0.43334 0.73027 0.0
C619 C 0.33239 0.38113 0.67231 0.0
N620 N 0.37015 0.32785 0.68606 0.0
C621 C 0.33071 0.24686 0.64582 0.0
C622 C 0.29499 0.30189 0.63055 0.0
C623 C 0.29122 0.36764 0.64536 0.0
C624 C 0.36452 0.26125 0.67487 0.0
H625 H 0.32903 0.4324 0.68322 0.0
C626 C 0.36413 0.47402 0.74762 0.0
O627 O 0.31423 0.38524 0.84211 0.0
O628 O 0.42319 0.4215 0.83453 0.0
N629 N 0.39781 0.22586 0.72598 0.0
C630 C 0.39206 0.17693 0.74989 0.0
C631 C 0.37546 0.10668 0.74334 0.0
C632 C 0.36099 0.08601 0.71232 0.0
C633 C 0.35967 0.13716 0.68842 0.0
C634 C 0.37846 0.20719 0.69609 0.0
H635 H 0.39162 0.19068 0.77432 0.0
O636 O 0.42165 0.28108 0.82059 0.0
O637 O 0.44008 0.33021 0.77373 0.0
O638 O 0.29279 0.29042 0.7855 0.0
O639 O 0.30156 0.33031 0.73769 0.0
C640 C 0.33512 0.12169 0.65782 0.0
C641 C 0.32278 0.17654 0.63604 0.0
H642 H 0.26459 0.29248 0.60913 0.0
H643 H 0.257 0.40828 0.63584 0.0
H644 H 0.36899 0.07 0.76277 0.0
H645 H 0.34545 0.03192 0.7075 0.0
H646 H 0.31941 0.06833 0.65188 0.0
H647 H 0.29781 0.16443 0.61354 0.0
Mn648 Mn 0.93017 0.15207 0.05407 0.0
Mn649 Mn 0.96733 0.21281 0.98385 0.0
C650 C 1.00474 0.25 0.05037 0.0
C651 C 0.8863 0.138 0.10554 0.0
C652 C 0.99535 0.06929 0.00159 0.0
O653 O 0.84003 0.1303 0.02483 0.0
O654 O 0.85946 0.20692 0.98331 0.0
C655 C 0.93626 0.24363 0.91732 0.0
N656 N 0.9753 0.20894 0.93939 0.0
C657 C 0.05309 0.16457 0.90016 0.0
C658 C 1.01263 0.19699 0.87655 0.0
C659 C 0.96064 0.24487 0.88588 0.0
C660 C 0.03813 0.18153 0.93136 0.0
H661 H 0.89021 0.2733 0.92418 0.0
C662 C 0.8187 0.16264 -0.00105 0.0
O663 O 0.91044 0.08642 0.08938 0.0
O664 O 0.8737 0.19583 0.0896 0.0
N665 N 0.07123 0.19915 0.98393 0.0
C666 C 0.11829 0.18629 0.00831 0.0
C667 C 0.18352 0.15354 0.00287 0.0
C668 C 0.20081 0.13005 0.97269 0.0
C669 C 0.15216 0.13948 0.94821 0.0
C670 C 0.08841 0.17495 0.95466 0.0
H671 H 0.10721 0.19424 0.03261 0.0
O672 O 1.01215 0.20595 0.07383 0.0
O673 O 0.9595 0.23027 0.02919 0.0
O674 O 0.99726 0.08502 0.03067 0.0
O675 O 0.96205 0.1082 0.98243 0.0
C676 C 0.16184 0.10975 0.91809 0.0
C677 C 0.1108 0.12124 0.89425 0.0
H678 H 1.02482 0.19083 0.8517 0.0
H679 H 0.94054 0.28241 0.86913 0.0
H680 H 0.2185 0.14232 0.02258 0.0
H681 H 0.25012 0.10222 0.9689 0.0
H682 H 0.20784 0.0776 0.91315 0.0
H683 H 0.11557 0.09681 0.8715 0.0
Mn684 Mn 0.20006 0.68405 0.30605 0.0
Mn685 Mn 0.16182 0.71013 0.2305 0.0
C686 C 0.11001 0.76602 0.29584 0.0
C687 C 0.18862 0.64185 0.35914 0.0
C688 C 0.29577 0.75223 0.25692 0.0
O689 O 0.22419 0.58661 0.28073 0.0
O690 O 0.1623 0.60489 0.23523 0.0
C691 C 0.22666 0.64748 0.17459 0.0
N692 N 0.19095 0.70311 0.18728 0.0
C693 C 0.22423 0.77703 0.14313 0.0
C694 C 0.25958 0.72012 0.12947 0.0
C695 C 0.26388 0.65619 0.1461 0.0
C696 C 0.19389 0.76742 0.17331 0.0
H697 H 0.23098 0.59794 0.18715 0.0
C698 C 0.19758 0.56369 0.2537 0.0
O699 O 0.24799 0.6656 0.34823 0.0
O700 O 0.13904 0.63183 0.33812 0.0
N701 N 0.16657 0.81138 0.22358 0.0
C702 C 0.17681 0.86378 0.24539 0.0
C703 C 0.193 0.93256 0.23566 0.0
C704 C 0.20101 0.94827 0.20355 0.0
C705 C 0.19801 0.8934 0.18164 0.0
C706 C 0.18131 0.82486 0.19256 0.0
H707 H 0.18125 0.85343 0.2702 0.0
O708 O 0.15011 0.77081 0.32067 0.0
O709 O 0.12808 0.71625 0.27588 0.0
O710 O 0.27878 0.74951 0.28601 0.0
O711 O 0.26455 0.71151 0.23794 0.0
C712 C 0.21676 0.9037 0.14977 0.0
C713 C 0.22845 0.84527 0.13014 0.0
H714 H 0.28853 0.72673 0.10747 0.0
H715 H 0.29466 0.61315 0.13672 0.0
H716 H 0.20455 0.97211 0.2532 0.0
H717 H 0.21541 1.00144 0.19628 0.0
H718 H 0.23088 0.95582 0.14134 0.0
H719 H 0.2492 0.85374 0.10647 0.0
Mn720 Mn 0.6133 0.15691 0.94343 0.0
Mn721 Mn 0.59559 0.19026 0.01842 0.0
C722 C 0.5359 0.24865 0.95529 0.0
C723 C 0.64716 0.14356 0.88967 0.0
C724 C 0.54945 0.06279 0.99077 0.0
O725 O 0.71301 0.13147 0.96586 0.0
O726 O 0.7 0.19162 0.01177 0.0
C727 C 0.66313 0.10951 0.06893 0.0
N728 N 0.60562 0.14783 0.05944 0.0
C729 C 0.53276 0.08923 0.09862 0.0
C730 C 0.59142 0.05045 0.10887 0.0
C731 C 0.65612 0.05849 0.09293 0.0
C732 C 0.54137 0.13492 0.07252 0.0
H733 H 0.7132 0.11407 0.05678 0.0
C734 C 0.73953 0.16088 0.99136 0.0
O735 O 0.62383 0.09313 0.9067 0.0
O736 O 0.66052 0.20211 0.90473 0.0
N737 N 0.49346 0.18815 0.02753 0.0
C738 C 0.4351 0.20181 0.00914 0.0
C739 C 0.36693 0.20134 0.02228 0.0
C740 C 0.35691 0.17882 0.05351 0.0
C741 C 0.41513 0.1545 0.0707 0.0
C742 C 0.48312 0.16194 0.05721 0.0
H743 H 0.43723 0.20855 0.9842 0.0
O744 O 0.52684 0.20933 0.93042 0.0
O745 O 0.58827 0.23094 0.97388 0.0
O746 O 0.5452 0.08574 0.96314 0.0
O747 O 0.59454 0.08937 0.00878 0.0
C748 C 0.40763 0.11993 0.1001 0.0
C749 C 0.4664 0.08616 0.11382 0.0
H750 H 0.58708 1.0135 0.12849 0.0
H751 H 0.70113 0.02633 0.09952 0.0
H752 H 0.32188 0.21555 0.00774 0.0
H753 H 0.30388 0.17594 0.06331 0.0
H754 H 0.35617 0.1151 0.11136 0.0
H755 H 0.45966 0.05696 0.13573 0.0
Mn756 Mn 0.19196 0.36896 0.19055 0.0
Mn757 Mn 0.14788 0.33896 0.26481 0.0
C758 C 0.09456 0.29219 0.19761 0.0
C759 C 0.19175 0.41822 0.13866 0.0
C760 C 0.28117 0.29332 0.2393 0.0
O761 O 0.22241 0.46162 0.21798 0.0
O762 O 0.15509 0.44467 0.26186 0.0
C763 C 0.20868 0.39604 0.32343 0.0
N764 N 0.17615 0.34092 0.3084 0.0
C765 C 0.21071 0.26168 0.35038 0.0
C766 C 0.24185 0.31801 0.36662 0.0
C767 C 0.2437 0.38472 0.35235 0.0
C768 C 0.18052 0.27487 0.32044 0.0
H769 H 0.21125 0.44789 0.31278 0.0
C770 C 0.1955 0.48461 0.24478 0.0
O771 O 0.24668 0.38825 0.15056 0.0
O772 O 0.13967 0.42886 0.15828 0.0
N773 N 0.14687 0.23681 0.26983 0.0
C774 C 0.14579 0.18457 0.24749 0.0
C775 C 0.15064 0.11368 0.25636 0.0
C776 C 0.16635 0.09598 0.2877 0.0
C777 C 0.17775 0.14984 0.30956 0.0
C778 C 0.16521 0.21997 0.3001 0.0
H779 H 0.14693 0.19463 0.2227 0.0
O780 O 0.13554 0.28785 0.17311 0.0
O781 O 0.11542 0.33828 0.21901 0.0
O782 O 0.26421 0.29716 0.21027 0.0
O783 O 0.25091 0.33371 0.25853 0.0
C784 C 0.20233 0.13599 0.34027 0.0
C785 C 0.21704 0.19183 0.36109 0.0
H786 H 0.26874 0.30961 0.38906 0.0
H787 H 0.27172 0.42766 0.36373 0.0
H788 H 0.14534 0.07332 0.2385 0.0
H789 H 0.17224 0.04121 0.29463 0.0
H790 H 0.21574 0.08263 0.34697 0.0
H791 H 0.24042 0.18062 0.38402 0.0
Mn792 Mn 0.93753 0.9013 0.44539 0.0
Mn793 Mn 0.94993 0.8718 0.52151 0.0
C794 C 1.01564 0.81225 0.45904 0.0
C795 C 0.9038 0.9042 0.39146 0.0
C796 C 0.99788 0.99696 0.49245 0.0
O797 O 0.83935 0.93217 0.46651 0.0
O798 O 0.84696 0.87124 0.51266 0.0
C799 C 0.87473 0.95144 0.5702 0.0
N800 N 0.9346 0.91585 0.5617 0.0
C801 C 1.00049 0.97256 0.60347 0.0
C802 C 0.93982 1.00929 0.61246 0.0
C803 C 0.87716 1.00051 0.59496 0.0
C804 C 0.99684 0.9307 0.57611 0.0
H805 H 0.82587 0.9454 0.55726 0.0
C806 C 0.81107 0.90717 0.49252 0.0
O807 O 0.92678 0.95802 0.4064 0.0
O808 O 0.88944 0.84888 0.40894 0.0
N809 N 0.05073 0.87525 0.53315 0.0
C810 C 0.11083 0.85573 0.51735 0.0
C811 C 0.17766 0.86151 0.53173 0.0
C812 C 0.18429 0.89083 0.56185 0.0
C813 C 0.12381 0.91525 0.57712 0.0
C814 C 0.05757 0.90578 0.56212 0.0
H815 H 0.11077 0.83814 0.49362 0.0
O816 O 1.0245 0.85092 0.43384 0.0
O817 O 0.96234 0.82918 0.47744 0.0
O818 O 1.00347 0.97428 0.46489 0.0
O819 O 0.95147 0.97135 0.51006 0.0
C820 C 0.127 0.94884 0.60681 0.0
C821 C 0.06511 0.97759 0.61998 0.0
H822 H 0.94086 0.0448 0.63255 0.0
H823 H 0.83012 0.02988 0.60115 0.0
H824 H 0.22433 0.84443 0.51926 0.0
H825 H 0.23629 0.89614 0.57262 0.0
H826 H 0.17705 0.95493 0.61922 0.0
H827 H 0.06825 1.00493 0.6424 0.0
Mn828 Mn 0.36853 0.67367 0.68857 0.0
Mn829 Mn 0.40714 0.69333 0.76404 0.0
C830 C 0.46182 0.75118 0.69855 0.0
C831 C 0.3732 0.63259 0.63597 0.0
C832 C 0.27527 0.73885 0.73765 0.0
O833 O 0.33864 0.57742 0.71298 0.0
O834 O 0.40504 0.58996 0.75747 0.0
C835 C 0.3334 0.62471 0.8163 0.0
N836 N 0.37265 0.68167 0.80638 0.0
C837 C 0.32557 0.75159 0.84882 0.0
C838 C 0.28404 0.69424 0.85874 0.0
C839 C 0.28568 0.63139 0.84145 0.0
C840 C 0.36517 0.74475 0.82077 0.0
H841 H 0.33359 0.57576 0.8035 0.0
C842 C 0.36611 0.55207 0.73922 0.0
O843 O 0.31645 0.65857 0.64787 0.0
O844 O 0.42473 0.62032 0.65581 0.0
N845 N 0.40526 0.79386 0.77293 0.0
C846 C 0.40945 0.85052 0.75277 0.0
C847 C 0.39881 0.91893 0.7638 0.0
C848 C 0.37721 0.92987 0.795 0.0
C849 C 0.36765 0.87161 0.81497 0.0
C850 C 0.38337 0.80399 0.80329 0.0
H851 H 0.41601 0.84572 0.72792 0.0
O852 O 0.42156 0.75856 0.67387 0.0
O853 O 0.4425 0.70175 0.71877 0.0
O854 O 0.29381 0.73987 0.70888 0.0
O855 O 0.30485 0.69617 0.75609 0.0
C856 C 0.34005 0.8783 0.84565 0.0
C857 C 0.31974 0.81808 0.86292 0.0
H858 H 0.24873 0.6986 0.87889 0.0
H859 H 0.25225 0.58717 0.84831 0.0
H860 H 0.40518 0.96256 0.74758 0.0
H861 H 0.36665 0.98283 0.80328 0.0
H862 H 0.32545 0.92943 0.85441 0.0
H863 H 0.29177 0.82432 0.88516 0.0
Mn864 Mn 0.43314 0.14063 0.44615 0.0
Mn865 Mn 0.45625 0.17092 0.52162 0.0
C866 C 0.51081 0.23211 0.45736 0.0
C867 C 0.39511 0.13504 0.39253 0.0
C868 C 0.49814 0.0456 0.49246 0.0
O869 O 0.33762 0.10973 0.47026 0.0
O870 O 0.35141 0.16903 0.51653 0.0
C871 C 0.393 0.0901 0.57386 0.0
N872 N 0.45003 0.12748 0.56268 0.0
C873 C 0.52577 0.07302 0.60181 0.0
C874 C 0.4675 0.03565 0.61397 0.0
C875 C 0.40147 0.04214 0.59902 0.0
C876 C 0.51532 0.11569 0.57484 0.0
H877 H 0.34184 0.09354 0.56249 0.0
C878 C 0.3125 0.13413 0.49697 0.0
O879 O 0.41935 0.0822 0.40777 0.0
O880 O 0.38145 0.1904 0.40973 0.0
N881 N 0.55922 0.1695 0.52906 0.0
C882 C 0.61592 0.18427 0.50978 0.0
C883 C 0.68539 0.18227 0.52158 0.0
C884 C 0.69822 0.15975 0.55256 0.0
C885 C 0.64131 0.13657 0.57098 0.0
C886 C 0.57223 0.14288 0.55847 0.0
H887 H 0.61137 0.19344 0.48507 0.0
O888 O 0.51779 0.19355 0.4322 0.0
O889 O 0.46033 0.2135 0.47711 0.0
O890 O 0.50173 0.06915 0.46484 0.0
O891 O 0.45451 0.0714 0.511 0.0
C892 C 0.65105 0.10475 0.60088 0.0
C893 C 0.5932 0.07248 0.61625 0.0
H894 H 0.4731 1.00112 0.63438 0.0
H895 H 0.35686 1.01046 0.60693 0.0
H896 H 0.72926 0.19563 0.5063 0.0
H897 H 0.75226 0.15644 0.56123 0.0
H898 H 0.70339 0.10129 0.61143 0.0
H899 H 0.60152 0.04564 0.63866 0.0
Mn900 Mn 0.69705 0.68486 0.18925 0.0
Mn901 Mn 0.65956 0.71561 0.26431 0.0
C902 C 0.60817 0.76839 0.19807 0.0
C903 C 0.68426 0.64172 0.13648 0.0
C904 C 0.79469 0.75266 0.23754 0.0
O905 O 0.72009 0.58842 0.2162 0.0
O906 O 0.65903 0.60958 0.26156 0.0
C907 C 0.71754 0.65565 0.32302 0.0
N908 N 0.68729 0.71179 0.30792 0.0
C909 C 0.71994 0.78859 0.35093 0.0
C910 C 0.74827 0.73105 0.36734 0.0
C911 C 0.75045 0.66523 0.35254 0.0
C912 C 0.69219 0.77726 0.32037 0.0
H913 H 0.72003 0.60448 0.31195 0.0
C914 C 0.69427 0.56712 0.24376 0.0
O915 O 0.7441 0.6644 0.14726 0.0
O916 O 0.63484 0.63258 0.15762 0.0
N917 N 0.66687 0.81742 0.26907 0.0
C918 C 0.67869 0.8677 0.24619 0.0
C919 C 0.69666 0.93685 0.25448 0.0
C920 C 0.70484 0.95504 0.28625 0.0
C921 C 0.70021 0.90223 0.30931 0.0
C922 C 0.68205 0.83321 0.29978 0.0
H923 H 0.68314 0.85519 0.22165 0.0
O924 O 0.64847 0.77164 0.17332 0.0
O925 O 0.62571 0.71941 0.21881 0.0
O926 O 0.77709 0.74971 0.20852 0.0
O927 O 0.76227 0.71388 0.25709 0.0
C928 C 0.71908 0.9148 0.34099 0.0
C929 C 0.72754 0.85789 0.3621 0.0
H930 H 0.7735 0.73803 0.39024 0.0
H931 H 0.77714 0.62166 0.36395 0.0
H932 H 0.70926 0.97471 0.23617 0.0
H933 H 0.72073 1.00834 0.29244 0.0
H934 H 0.73424 0.96734 0.34843 0.0
H935 H 0.74791 0.86771 0.38572 0.0
Mn936 Mn 0.10527 0.91533 0.94216 0.0
Mn937 Mn 0.0899 0.8843 0.01936 0.0
C938 C 0.03038 0.82046 0.95702 0.0
C939 C 0.1428 0.91392 0.88747 0.0
C940 C 0.03866 1.00984 0.99011 0.0
O941 O 0.20429 0.94699 0.96453 0.0
O942 O 0.19393 0.89048 0.01198 0.0
C943 C 0.15735 0.96447 0.07069 0.0
N944 N 0.10003 0.92634 0.0604 0.0
C945 C 0.02768 0.97541 0.1018 0.0
C946 C 0.08619 1.0138 0.11298 0.0
C947 C 0.1506 1.0102 0.09658 0.0
C948 C 0.03615 0.93474 0.07428 0.0
H949 H 0.20722 0.96318 0.05823 0.0
C950 C 0.2316 0.92369 0.99134 0.0
O951 O 0.11487 0.96787 0.90053 0.0
O952 O 0.15701 0.86206 0.90687 0.0
N953 N 0.9884 0.88029 0.02956 0.0
C954 C 0.92999 0.86158 0.0121 0.0
C955 C 0.86281 0.85757 0.02618 0.0
C956 C 0.8534 0.87911 0.05743 0.0
C957 C 0.91126 0.9066 0.07397 0.0
C958 C 0.97841 0.90532 0.05937 0.0
H959 H 0.9313 0.85316 0.98727 0.0
O960 O 1.02003 0.85693 0.93129 0.0
O961 O 0.08192 0.84362 0.97502 0.0
O962 O 0.03751 0.98947 0.96173 0.0
O963 O 0.08351 0.98391 0.00851 0.0
C964 C 0.90428 0.93686 0.10419 0.0
C965 C 0.96239 0.97216 0.11794 0.0
H966 H 0.0821 0.04652 0.1339 0.0
H967 H 0.19542 0.04203 0.10411 0.0
H968 H 0.81787 0.83972 0.01256 0.0
H969 H 0.80091 0.87778 0.06788 0.0
H970 H 0.85367 0.93644 0.11635 0.0
H971 H 0.95615 0.99684 0.14083 0.0
Mn972 Mn 0.86757 0.35635 0.69348 0.0
Mn973 Mn 0.89391 0.334 0.7708 0.0
C974 C 0.96091 0.28141 0.70872 0.0
C975 C 0.87609 0.39715 0.63969 0.0
C976 C 0.77046 0.28224 0.73879 0.0
O977 O 0.83433 0.45285 0.71717 0.0
O978 O 0.88658 0.43805 0.76533 0.0
C979 C 0.81424 0.39403 0.82387 0.0
N980 N 0.8524 0.33907 0.8121 0.0
C981 C 0.81183 0.26311 0.8544 0.0
C982 C 0.7746 0.31961 0.86747 0.0
C983 C 0.77378 0.38463 0.85144 0.0
C984 C 0.84794 0.27451 0.82568 0.0
H985 H 0.81235 0.44424 0.81171 0.0
C986 C 0.85479 0.47734 0.74499 0.0
O987 O 0.81963 0.36881 0.65106 0.0
O988 O 0.92554 0.41106 0.66044 0.0
N989 N 0.89856 0.23249 0.7791 0.0
C990 C 0.9131 0.17664 0.75979 0.0
C991 C 0.92008 0.10862 0.77238 0.0
C992 C 0.90234 0.09537 0.80401 0.0
C993 C 0.87622 0.15058 0.82237 0.0
C994 C 0.87658 0.21908 0.80922 0.0
H995 H 0.9154 0.18081 0.73465 0.0
O996 O 0.92688 0.27289 0.68222 0.0
O997 O 0.93608 0.33098 0.72687 0.0
O998 O 0.79153 0.28598 0.71052 0.0
O999 O 0.79476 0.32533 0.75856 0.0
C1000 C 0.84793 0.13971 0.8529 0.0
C1001 C 0.81525 0.19593 0.86884 0.0
H1002 H 0.74537 0.31341 0.88941 0.0
H1003 H 0.7427 0.42782 0.86047 0.0
H1004 H 0.93707 0.06641 0.75713 0.0
H1005 H 0.90511 0.04203 0.81336 0.0
H1006 H 0.84861 0.08782 0.86384 0.0
H1007 H 0.79265 0.18672 0.89208 0.0
Mn1008 Mn 0.43527 0.90982 0.04755 0.0
Mn1009 Mn 0.45344 0.87959 0.97159 0.0
C1010 C 0.51062 0.81683 0.03558 0.0
C1011 C 0.40042 0.91347 0.10189 0.0
C1012 C 0.50454 1.00383 0.00102 0.0
O1013 O 0.33873 0.94381 0.02443 0.0
O1014 O 0.34857 0.88594 0.97781 0.0
C1015 C 0.38865 0.95906 0.91909 0.0
N1016 N 0.44584 0.92284 0.93048 0.0
C1017 C 0.52031 0.97401 0.88986 0.0
C1018 C 0.46187 1.01003 0.87748 0.0
C1019 C 0.39655 1.00486 0.89306 0.0
C1020 C 0.51062 0.93346 0.91757 0.0
H1021 H 0.3377 0.95585 0.93059 0.0
C1022 C 0.31166 0.92206 0.99747 0.0
O1023 O 0.42492 0.96652 0.0867 0.0
O1024 O 0.38443 0.85916 0.08431 0.0
N1025 N 0.5556 0.87691 0.96248 0.0
C1026 C 0.61287 0.85695 0.98034 0.0
C1027 C 0.68096 0.8551 0.96717 0.0
C1028 C 0.69258 0.88021 0.93652 0.0
C1029 C 0.63583 0.90839 0.91959 0.0
C1030 C 0.56762 0.90471 0.93318 0.0
H1031 H 0.61018 0.84597 0.00489 0.0
O1032 O 0.51944 0.85554 0.06057 0.0
O1033 O 0.45953 0.83635 0.01617 0.0
O1034 O 0.50565 0.98164 0.02896 0.0
O1035 O 0.45957 0.97914 0.98238 0.0
C1036 C 0.64483 0.94057 0.88975 0.0
C1037 C 0.58709 0.97366 0.87495 0.0
H1038 H 0.46668 0.04238 0.85631 0.0
H1039 H 0.35162 0.03463 0.88451 0.0
H1040 H 0.72482 0.83596 0.98107 0.0
H1041 H 0.74575 0.88039 0.92677 0.0
H1042 H 0.69631 0.94187 0.87835 0.0
H1043 H 0.5945 0.99764 0.85189 0.0
Mn1044 Mn 0.86324 0.6741 0.8063 0.0
Mn1045 Mn 0.90368 0.70069 0.73145 0.0
C1046 C 0.96017 0.74841 0.79665 0.0
C1047 C 0.86855 0.63167 0.8592 0.0
C1048 C 0.77185 0.74782 0.75774 0.0
O1049 O 0.83164 0.58004 0.78019 0.0
O1050 O 0.89453 0.5956 0.73469 0.0
C1051 C 0.83303 0.64776 0.67511 0.0
N1052 N 0.87398 0.69966 0.68827 0.0
C1053 C 0.842 0.78012 0.64645 0.0
C1054 C 0.80207 0.7266 0.63206 0.0
C1055 C 0.79376 0.66182 0.64769 0.0
C1056 C 0.87469 0.76558 0.67575 0.0
H1057 H 0.82563 0.59748 0.68681 0.0
C1058 C 0.85591 0.55646 0.75293 0.0
O1059 O 0.8121 0.65917 0.84747 0.0
O1060 O 0.9184 0.61744 0.83891 0.0
N1061 N 0.90673 0.80251 0.7267 0.0
C1062 C 0.90006 0.85289 0.74971 0.0
C1063 C 0.89137 0.92377 0.74176 0.0
C1064 C 0.88326 0.94338 0.71014 0.0
C1065 C 0.87944 0.89069 0.68713 0.0
C1066 C 0.8926 0.82022 0.6961 0.0
H1067 H 0.89238 0.84029 0.77411 0.0
O1068 O 0.92097 0.75611 0.82156 0.0
O1069 O 0.93764 0.70092 0.7765 0.0
O1070 O 0.78961 0.74469 0.78668 0.0
O1071 O 0.80125 0.70685 0.73857 0.0
C1072 C 0.85423 0.90521 0.65663 0.0
C1073 C 0.83833 0.85003 0.63568 0.0
H1074 H 0.77245 0.73665 0.61046 0.0
H1075 H 0.75793 0.62216 0.63829 0.0
H1076 H 0.88446 0.96188 0.76041 0.0
H1077 H 0.87273 0.99811 0.70423 0.0
H1078 H 0.83832 0.95831 0.65075 0.0
H1079 H 0.81256 0.86199 0.61335 0.0
Mn1080 Mn 0.1065 0.14937 0.54999 0.0
Mn1081 Mn 0.09532 0.17656 0.47347 0.0
C1082 C 0.03397 0.24167 0.53509 0.0
C1083 C 0.13755 0.14777 0.60449 0.0
C1084 C 0.04248 0.05471 0.50332 0.0
O1085 O 0.20438 0.11466 0.5291 0.0
O1086 O 0.19842 0.17224 0.48185 0.0
C1087 C 0.1643 0.0916 0.42473 0.0
N1088 N 0.10671 0.13036 0.43349 0.0
C1089 C 0.0361 0.07546 0.39267 0.0
C1090 C 0.09496 0.03661 0.383 0.0
C1091 C 0.15853 0.04254 0.40006 0.0
C1092 C 0.04322 0.1186 0.41953 0.0
H1093 H 0.21376 0.09524 0.43745 0.0
C1094 C 0.23337 0.13704 0.50263 0.0
O1095 O 0.11261 0.09438 0.58987 0.0
O1096 O 0.15571 0.20116 0.58652 0.0
N1097 N 0.99403 0.17792 0.46244 0.0
C1098 C 0.9353 0.19983 0.47862 0.0
C1099 C 0.86851 0.20084 0.46401 0.0
C1100 C 0.85969 0.17302 0.43373 0.0
C1101 C 0.91792 0.14346 0.41856 0.0
C1102 C 0.98479 0.14826 0.43342 0.0
H1103 H 0.93598 0.21329 0.5029 0.0
O1104 O 1.02185 0.2046 0.56051 0.0
O1105 O 0.08646 0.22095 0.51719 0.0
O1106 O 0.03761 0.07792 0.53084 0.0
O1107 O 0.09026 0.07805 0.48587 0.0
C1108 C 0.91178 0.10883 0.38924 0.0
C1109 C 0.97089 0.07444 0.37638 0.0
H1110 H 0.09169 1.00138 0.36286 0.0
H1111 H 0.20376 1.01065 0.39369 0.0
H1112 H 0.82348 0.22168 0.47653 0.0
H1113 H 0.80751 0.17212 0.4229 0.0
H1114 H 0.86135 0.10626 0.3769 0.0
H1115 H 0.96541 0.0472 0.35405 0.0
Mn1116 Mn 0.69021 0.36803 0.30675 0.0
Mn1117 Mn 0.64779 0.34251 0.23183 0.0
C1118 C 0.59531 0.28967 0.29837 0.0
C1119 C 0.68527 0.4101 0.35967 0.0
C1120 C 0.78133 0.29581 0.25776 0.0
O1121 O 0.71846 0.46435 0.2805 0.0
O1122 O 0.65364 0.44782 0.23584 0.0
C1123 C 0.71098 0.40489 0.17473 0.0
N1124 N 0.67695 0.34868 0.18848 0.0
C1125 C 0.71199 0.27357 0.14551 0.0
C1126 C 0.74525 0.33099 0.13069 0.0
C1127 C 0.74779 0.396 0.14621 0.0
C1128 C 0.68098 0.28392 0.17541 0.0
H1129 H 0.71394 0.45547 0.18627 0.0
C1130 C 0.69207 0.48797 0.2535 0.0
O1131 O 0.7423 0.38433 0.34788 0.0
O1132 O 0.63455 0.42249 0.33946 0.0
N1133 N 0.64696 0.24094 0.22534 0.0
C1134 C 0.64525 0.18643 0.2468 0.0
C1135 C 0.64969 0.11648 0.23675 0.0
C1136 C 0.66545 0.10196 0.20519 0.0
C1137 C 0.67699 0.15795 0.18423 0.0
C1138 C 0.66503 0.22711 0.19482 0.0
H1139 H 0.64586 0.19388 0.27173 0.0
O1140 O 0.63658 0.28384 0.32274 0.0
O1141 O 0.61473 0.33796 0.27752 0.0
O1142 O 0.76481 0.29941 0.28682 0.0
O1143 O 0.75085 0.33655 0.23849 0.0
C1144 C 0.70112 0.14707 0.15331 0.0
C1145 C 0.71718 0.2049 0.13357 0.0
H1146 H 0.77331 0.32446 0.1085 0.0
H1147 H 0.77713 0.4397 0.13594 0.0
H1148 H 0.64364 0.07423 0.25381 0.0
H1149 H 0.67067 0.04793 0.19732 0.0
H1150 H 0.71397 0.09433 0.1458 0.0
H1151 H 0.74028 0.19584 0.11049 0.0
loop_
_geom_bond_atom_site_label_1
_geom_bond_atom_site_label_2
_geom_bond_distance
_geom_bond_site_symmetry_2
_ccdc_geom_bond_type
Mn0 O5 2.095 . S
Mn0 O15 2.162 . S
Mn0 O16 2.297 . S
Mn0 O24 2.385 1_455 S
Mn0 O25 2.209 . S
Mn0 O26 2.094 . S
Mn1 O6 2.121 . S
Mn1 N8 2.257 . S
Mn1 N17 2.282 1_455 S
Mn1 O25 2.215 1_556 S
Mn1 O27 2.117 . S
C2 O24 1.234 1_455 S
C2 O25 1.283 . S
C3 O15 1.281 . S
C3 O16 1.236 . S
C4 O26 1.275 . S
C4 O27 1.241 1_554 S
O5 Mn0 2.095 . S
O5 C14 1.250 . S
O6 Mn1 2.121 . S
O6 C14 1.258 1_556 S
C7 N8 1.326 . S
C7 C11 1.460 . S
C7 H13 0.929 . S
N8 Mn1 2.257 . S
N8 C7 1.326 . S
N8 C12 1.362 . S
C9 C10 1.258 . S
C9 C12 1.431 . S
C9 C29 1.449 1_455 S
C10 C9 1.258 . S
C10 C11 1.477 . S
C10 H30 0.931 . S
C11 C7 1.460 . S
C11 C10 1.477 . S
C11 H31 0.930 . S
C12 N8 1.362 . S
C12 C9 1.431 . S
C12 C22 1.476 1_455 S
H13 C7 0.929 . S
C14 O5 1.250 . S
C14 O6 1.258 1_554 S
O15 Mn0 2.162 . S
O15 C3 1.281 . S
O16 Mn0 2.297 . S
O16 C3 1.236 . S
N17 Mn1 2.282 1_655 S
N17 C18 1.328 . S
N17 C22 1.318 . S
C18 N17 1.328 . S
C18 C19 1.457 . S
C18 H23 0.929 . S
C19 C18 1.457 . S
C19 C20 1.291 . S
C19 H32 0.931 . S
C20 C19 1.291 . S
C20 C21 1.373 . S
C20 H33 0.929 . S
C21 C20 1.373 . S
C21 C22 1.396 . S
C21 C28 1.403 . S
C22 C12 1.476 1_655 S
C22 N17 1.318 . S
C22 C21 1.396 . S
H23 C18 0.929 . S
O24 Mn0 2.385 1_655 S
O24 C2 1.234 1_655 S
O25 Mn0 2.209 . S
O25 Mn1 2.215 1_554 S
O25 C2 1.283 . S
O26 Mn0 2.094 . S
O26 C4 1.275 . S
O27 Mn1 2.117 . S
O27 C4 1.241 1_556 S
C28 C21 1.403 . S
C28 C29 1.399 . S
C28 H34 0.929 . S
C29 C9 1.449 1_655 S
C29 C28 1.399 . S
C29 H35 0.930 . S
H30 C10 0.931 . S
H31 C11 0.930 . S
H32 C19 0.931 . S
H33 C20 0.929 . S
H34 C28 0.929 . S
H35 C29 0.930 . S
Mn36 O41 2.095 . S
Mn36 O51 2.162 . S
Mn36 O52 2.297 . S
Mn36 O60 2.385 . S
Mn36 O61 2.209 . S
Mn36 O62 2.094 . S
Mn37 O42 2.121 . S
Mn37 N44 2.257 1_655 S
Mn37 N53 2.282 . S
Mn37 O61 2.215 . S
Mn37 O63 2.117 . S
C38 O60 1.234 . S
C38 O61 1.283 . S
C39 O51 1.281 . S
C39 O52 1.236 . S
C40 O62 1.240 . S
C40 O63 1.264 . S
O41 Mn36 2.095 . S
O41 C50 1.250 . S
O42 Mn37 2.121 . S
O42 C50 1.258 . S
C43 N44 1.326 . S
C43 C47 1.460 . S
C43 H49 0.929 . S
N44 Mn37 2.257 1_455 S
N44 C43 1.326 . S
N44 C48 1.362 . S
C45 C46 1.258 . S
C45 C48 1.431 . S
C45 C65 1.449 . S
C46 C45 1.258 . S
C46 C47 1.477 . S
C46 H66 0.931 . S
C47 C43 1.460 . S
C47 C46 1.477 . S
C47 H67 0.930 . S
C48 N44 1.362 . S
C48 C45 1.431 . S
C48 C58 1.476 . S
H49 C43 0.929 . S
C50 O41 1.250 . S
C50 O42 1.258 . S
O51 Mn36 2.162 . S
O51 C39 1.281 . S
O52 Mn36 2.297 . S
O52 C39 1.236 . S
N53 Mn37 2.282 . S
N53 C54 1.328 . S
N53 C58 1.318 1_655 S
C54 N53 1.328 . S
C54 C55 1.457 . S
C54 H59 0.929 . S
C55 C54 1.457 . S
C55 C56 1.291 1_655 S
C55 H68 0.931 . S
C56 C55 1.291 1_455 S
C56 C57 1.373 . S
C56 H69 0.929 . S
C57 C56 1.373 . S
C57 C58 1.396 . S
C57 C64 1.403 . S
C58 C48 1.476 . S
C58 N53 1.318 1_455 S
C58 C57 1.396 . S
H59 C54 0.929 . S
O60 Mn36 2.385 . S
O60 C38 1.234 . S
O61 Mn36 2.209 . S
O61 Mn37 2.215 . S
O61 C38 1.283 . S
O62 Mn36 2.094 . S
O62 C40 1.240 . S
O63 Mn37 2.117 . S
O63 C40 1.264 . S
C64 C57 1.403 . S
C64 C65 1.399 . S
C64 H70 0.929 . S
C65 C45 1.449 . S
C65 C64 1.399 . S
C65 H71 0.930 . S
H66 C46 0.931 . S
H67 C47 0.930 . S
H68 C55 0.931 . S
H69 C56 0.929 . S
H70 C64 0.929 . S
H71 C65 0.930 . S
Mn72 O77 2.095 . S
Mn72 O87 2.162 . S
Mn72 O88 2.297 . S
Mn72 O96 2.385 . S
Mn72 O97 2.209 . S
Mn72 O98 2.094 . S
Mn73 O78 2.121 . S
Mn73 N80 2.257 . S
Mn73 N89 2.282 . S
Mn73 O97 2.215 . S
Mn73 O99 2.117 . S
C74 O96 1.234 . S
C74 O97 1.283 . S
C75 O87 1.281 . S
C75 O88 1.236 . S
C76 O98 1.240 . S
C76 O99 1.264 . S
O77 Mn72 2.095 . S
O77 C86 1.250 . S
O78 Mn73 2.121 . S
O78 C86 1.258 . S
C79 N80 1.326 . S
C79 C83 1.460 . S
C79 H85 0.929 . S
N80 Mn73 2.257 . S
N80 C79 1.326 . S
N80 C84 1.362 . S
C81 C82 1.258 . S
C81 C84 1.431 . S
C81 C101 1.449 . S
C82 C81 1.258 . S
C82 C83 1.477 . S
C82 H102 0.931 . S
C83 C79 1.460 . S
C83 C82 1.477 . S
C83 H103 0.930 . S
C84 N80 1.362 . S
C84 C81 1.431 . S
C84 C94 1.476 . S
H85 C79 0.929 . S
C86 O77 1.250 . S
C86 O78 1.258 . S
O87 Mn72 2.162 . S
O87 C75 1.281 . S
O88 Mn72 2.297 . S
O88 C75 1.236 . S
N89 Mn73 2.282 . S
N89 C90 1.328 . S
N89 C94 1.318 . S
C90 N89 1.328 . S
C90 C91 1.457 . S
C90 H95 0.929 . S
C91 C90 1.457 . S
C91 C92 1.291 . S
C91 H104 0.931 . S
C92 C91 1.291 . S
C92 C93 1.373 . S
C92 H105 0.929 . S
C93 C92 1.373 . S
C93 C94 1.396 . S
C93 C100 1.403 . S
C94 C84 1.476 . S
C94 N89 1.318 . S
C94 C93 1.396 . S
H95 C90 0.929 . S
O96 Mn72 2.385 . S
O96 C74 1.234 . S
O97 Mn72 2.209 . S
O97 Mn73 2.215 . S
O97 C74 1.283 . S
O98 Mn72 2.094 . S
O98 C76 1.240 . S
O99 Mn73 2.117 . S
O99 C76 1.264 . S
C100 C93 1.403 . S
C100 C101 1.399 . S
C100 H106 0.929 . S
C101 C81 1.449 . S
C101 C100 1.399 . S
C101 H107 0.930 . S
H102 C82 0.931 . S
H103 C83 0.930 . S
H104 C91 0.931 . S
H105 C92 0.929 . S
H106 C100 0.929 . S
H107 C101 0.930 . S
Mn108 O113 2.095 . S
Mn108 O123 2.162 . S
Mn108 O124 2.297 . S
Mn108 O132 2.385 . S
Mn108 O133 2.209 . S
Mn108 O134 2.094 . S
Mn109 O114 2.121 . S
Mn109 N116 2.257 . S
Mn109 N125 2.282 . S
Mn109 O133 2.215 . S
Mn109 O135 2.117 . S
C110 O132 1.234 . S
C110 O133 1.283 . S
C111 O123 1.281 . S
C111 O124 1.236 . S
C112 O134 1.240 . S
C112 O135 1.264 . S
O113 Mn108 2.095 . S
O113 C122 1.250 . S
O114 Mn109 2.121 . S
O114 C122 1.258 . S
C115 N116 1.326 . S
C115 C119 1.460 . S
C115 H121 0.929 . S
N116 Mn109 2.257 . S
N116 C115 1.326 . S
N116 C120 1.362 . S
C117 C118 1.258 . S
C117 C120 1.431 . S
C117 C137 1.449 . S
C118 C117 1.258 . S
C118 C119 1.477 . S
C118 H138 0.931 . S
C119 C115 1.460 . S
C119 C118 1.477 . S
C119 H139 0.930 . S
C120 N116 1.362 . S
C120 C117 1.431 . S
C120 C130 1.476 . S
H121 C115 0.929 . S
C122 O113 1.250 . S
C122 O114 1.258 . S
O123 Mn108 2.162 . S
O123 C111 1.281 . S
O124 Mn108 2.297 . S
O124 C111 1.236 . S
N125 Mn109 2.282 . S
N125 C126 1.328 . S
N125 C130 1.318 . S
C126 N125 1.328 . S
C126 C127 1.457 . S
C126 H131 0.929 . S
C127 C126 1.457 . S
C127 C128 1.291 . S
C127 H140 0.931 . S
C128 C127 1.291 . S
C128 C129 1.373 . S
C128 H141 0.929 . S
C129 C128 1.373 . S
C129 C130 1.396 . S
C129 C136 1.403 . S
C130 C120 1.476 . S
C130 N125 1.318 . S
C130 C129 1.396 . S
H131 C126 0.929 . S
O132 Mn108 2.385 . S
O132 C110 1.234 . S
O133 Mn108 2.209 . S
O133 Mn109 2.215 . S
O133 C110 1.283 . S
O134 Mn108 2.094 . S
O134 C112 1.240 . S
O135 Mn109 2.117 . S
O135 C112 1.264 . S
C136 C129 1.403 . S
C136 C137 1.399 . S
C136 H142 0.929 . S
C137 C117 1.449 . S
C137 C136 1.399 . S
C137 H143 0.930 . S
H138 C118 0.931 . S
H139 C119 0.930 . S
H140 C127 0.931 . S
H141 C128 0.929 . S
H142 C136 0.929 . S
H143 C137 0.930 . S
Mn144 O149 2.095 . S
Mn144 O159 2.162 . S
Mn144 O160 2.297 . S
Mn144 O168 2.385 1_455 S
Mn144 O169 2.209 . S
Mn144 O170 2.094 . S
Mn145 O150 2.121 . S
Mn145 N152 2.257 . S
Mn145 N161 2.282 1_455 S
Mn145 O169 2.215 . S
Mn145 O171 2.117 . S
C146 O168 1.234 1_455 S
C146 O169 1.283 . S
C147 O159 1.281 . S
C147 O160 1.236 . S
C148 O170 1.240 . S
C148 O171 1.264 . S
O149 Mn144 2.095 . S
O149 C158 1.250 . S
O150 Mn145 2.121 . S
O150 C158 1.258 . S
C151 N152 1.326 . S
C151 C155 1.460 . S
C151 H157 0.929 . S
N152 Mn145 2.257 . S
N152 C151 1.326 . S
N152 C156 1.362 . S
C153 C154 1.258 . S
C153 C156 1.431 . S
C153 C173 1.449 1_455 S
C154 C153 1.258 . S
C154 C155 1.477 . S
C154 H174 0.931 . S
C155 C151 1.460 . S
C155 C154 1.477 . S
C155 H175 0.930 . S
C156 N152 1.362 . S
C156 C153 1.431 . S
C156 C166 1.476 1_455 S
H157 C151 0.929 . S
C158 O149 1.250 . S
C158 O150 1.258 . S
O159 Mn144 2.162 . S
O159 C147 1.281 . S
O160 Mn144 2.297 . S
O160 C147 1.236 . S
N161 Mn145 2.282 1_655 S
N161 C162 1.328 . S
N161 C166 1.318 . S
C162 N161 1.328 . S
C162 C163 1.457 . S
C162 H167 0.929 . S
C163 C162 1.457 . S
C163 C164 1.291 . S
C163 H176 0.931 . S
C164 C163 1.291 . S
C164 C165 1.373 . S
C164 H177 0.929 . S
C165 C164 1.373 . S
C165 C166 1.396 . S
C165 C172 1.403 . S
C166 C156 1.476 1_655 S
C166 N161 1.318 . S
C166 C165 1.396 . S
H167 C162 0.929 . S
O168 Mn144 2.385 1_655 S
O168 C146 1.234 1_655 S
O169 Mn144 2.209 . S
O169 Mn145 2.215 . S
O169 C146 1.283 . S
O170 Mn144 2.094 . S
O170 C148 1.240 . S
O171 Mn145 2.117 . S
O171 C148 1.264 . S
C172 C165 1.403 . S
C172 C173 1.399 . S
C172 H178 0.929 . S
C173 C153 1.449 1_655 S
C173 C172 1.399 . S
C173 H179 0.930 . S
H174 C154 0.931 . S
H175 C155 0.930 . S
H176 C163 0.931 . S
H177 C164 0.929 . S
H178 C172 0.929 . S
H179 C173 0.930 . S
Mn180 O185 2.095 . S
Mn180 O195 2.162 . S
Mn180 O196 2.297 . S
Mn180 O204 2.385 . S
Mn180 O205 2.209 . S
Mn180 O206 2.094 . S
Mn181 O186 2.121 . S
Mn181 N188 2.257 . S
Mn181 N197 2.282 . S
Mn181 O205 2.215 . S
Mn181 O207 2.117 . S
C182 O204 1.234 . S
C182 O205 1.283 . S
C183 O195 1.281 . S
C183 O196 1.236 . S
C184 O206 1.240 . S
C184 O207 1.264 . S
O185 Mn180 2.095 . S
O185 C194 1.250 . S
O186 Mn181 2.121 . S
O186 C194 1.258 . S
C187 N188 1.326 . S
C187 C191 1.460 . S
C187 H193 0.929 . S
N188 Mn181 2.257 . S
N188 C187 1.326 . S
N188 C192 1.362 . S
C189 C190 1.258 . S
C189 C192 1.431 . S
C189 C209 1.449 . S
C190 C189 1.258 . S
C190 C191 1.477 . S
C190 H210 0.931 . S
C191 C187 1.460 . S
C191 C190 1.477 . S
C191 H211 0.930 . S
C192 N188 1.362 . S
C192 C189 1.431 . S
C192 C202 1.476 . S
H193 C187 0.929 . S
C194 O185 1.250 . S
C194 O186 1.258 . S
O195 Mn180 2.162 . S
O195 C183 1.281 . S
O196 Mn180 2.297 . S
O196 C183 1.236 . S
N197 Mn181 2.282 . S
N197 C198 1.328 . S
N197 C202 1.318 . S
C198 N197 1.328 . S
C198 C199 1.457 . S
C198 H203 0.929 . S
C199 C198 1.457 . S
C199 C200 1.291 . S
C199 H212 0.931 . S
C200 C199 1.291 . S
C200 C201 1.373 . S
C200 H213 0.929 . S
C201 C200 1.373 . S
C201 C202 1.396 . S
C201 C208 1.403 . S
C202 C192 1.476 . S
C202 N197 1.318 . S
C202 C201 1.396 . S
H203 C198 0.929 . S
O204 Mn180 2.385 . S
O204 C182 1.234 . S
O205 Mn180 2.209 . S
O205 Mn181 2.215 . S
O205 C182 1.283 . S
O206 Mn180 2.094 . S
O206 C184 1.240 . S
O207 Mn181 2.117 . S
O207 C184 1.264 . S
C208 C201 1.403 . S
C208 C209 1.399 . S
C208 H214 0.929 . S
C209 C189 1.449 . S
C209 C208 1.399 . S
C209 H215 0.930 . S
H210 C190 0.931 . S
H211 C191 0.930 . S
H212 C199 0.931 . S
H213 C200 0.929 . S
H214 C208 0.929 . S
H215 C209 0.930 . S
Mn216 O221 2.095 . S
Mn216 O231 2.162 . S
Mn216 O232 2.297 . S
Mn216 O240 2.385 . S
Mn216 O241 2.209 . S
Mn216 O242 2.094 . S
Mn217 O222 2.121 . S
Mn217 N224 2.257 . S
Mn217 N233 2.282 . S
Mn217 O241 2.215 1_554 S
Mn217 O243 2.117 . S
C218 O240 1.234 . S
C218 O241 1.283 . S
C219 O231 1.281 . S
C219 O232 1.236 . S
C220 O242 1.275 . S
C220 O243 1.241 1_556 S
O221 Mn216 2.095 . S
O221 C230 1.250 . S
O222 Mn217 2.121 . S
O222 C230 1.258 1_554 S
C223 N224 1.326 . S
C223 C227 1.460 . S
C223 H229 0.929 . S
N224 Mn217 2.257 . S
N224 C223 1.326 . S
N224 C228 1.362 . S
C225 C226 1.258 . S
C225 C228 1.431 . S
C225 C245 1.449 . S
C226 C225 1.258 . S
C226 C227 1.477 . S
C226 H246 0.931 . S
C227 C223 1.460 . S
C227 C226 1.477 . S
C227 H247 0.930 . S
C228 N224 1.362 . S
C228 C225 1.431 . S
C228 C238 1.476 . S
H229 C223 0.929 . S
C230 O221 1.250 . S
C230 O222 1.258 1_556 S
O231 Mn216 2.162 . S
O231 C219 1.281 . S
O232 Mn216 2.297 . S
O232 C219 1.236 . S
N233 Mn217 2.282 . S
N233 C234 1.328 . S
N233 C238 1.318 . S
C234 N233 1.328 . S
C234 C235 1.457 . S
C234 H239 0.929 . S
C235 C234 1.457 . S
C235 C236 1.291 . S
C235 H248 0.931 . S
C236 C235 1.291 . S
C236 C237 1.373 . S
C236 H249 0.929 . S
C237 C236 1.373 . S
C237 C238 1.396 . S
C237 C244 1.403 . S
C238 C228 1.476 . S
C238 N233 1.318 . S
C238 C237 1.396 . S
H239 C234 0.929 . S
O240 Mn216 2.385 . S
O240 C218 1.234 . S
O241 Mn216 2.209 . S
O241 Mn217 2.215 1_556 S
O241 C218 1.283 . S
O242 Mn216 2.094 . S
O242 C220 1.275 . S
O243 Mn217 2.117 . S
O243 C220 1.241 1_554 S
C244 C237 1.403 . S
C244 C245 1.399 . S
C244 H250 0.929 . S
C245 C225 1.449 . S
C245 C244 1.399 . S
C245 H251 0.930 . S
H246 C226 0.931 . S
H247 C227 0.930 . S
H248 C235 0.931 . S
H249 C236 0.929 . S
H250 C244 0.929 . S
H251 C245 0.930 . S
Mn252 O257 2.095 . S
Mn252 O267 2.162 . S
Mn252 O268 2.297 . S
Mn252 O276 2.385 . S
Mn252 O277 2.209 . S
Mn252 O278 2.094 . S
Mn253 O258 2.121 . S
Mn253 N260 2.257 1_655 S
Mn253 N269 2.282 . S
Mn253 O277 2.215 . S
Mn253 O279 2.117 . S
C254 O276 1.234 . S
C254 O277 1.283 . S
C255 O267 1.281 . S
C255 O268 1.236 . S
C256 O278 1.240 . S
C256 O279 1.264 . S
O257 Mn252 2.095 . S
O257 C266 1.250 . S
O258 Mn253 2.121 . S
O258 C266 1.258 . S
C259 N260 1.326 . S
C259 C263 1.460 . S
C259 H265 0.929 . S
N260 Mn253 2.257 1_455 S
N260 C259 1.326 . S
N260 C264 1.362 . S
C261 C262 1.258 . S
C261 C264 1.431 . S
C261 C281 1.449 . S
C262 C261 1.258 . S
C262 C263 1.477 . S
C262 H282 0.931 . S
C263 C259 1.460 . S
C263 C262 1.477 . S
C263 H283 0.930 . S
C264 N260 1.362 . S
C264 C261 1.431 . S
C264 C274 1.476 . S
H265 C259 0.929 . S
C266 O257 1.250 . S
C266 O258 1.258 . S
O267 Mn252 2.162 . S
O267 C255 1.281 . S
O268 Mn252 2.297 . S
O268 C255 1.236 . S
N269 Mn253 2.282 . S
N269 C270 1.328 . S
N269 C274 1.318 1_655 S
C270 N269 1.328 . S
C270 C271 1.457 . S
C270 H275 0.929 . S
C271 C270 1.457 . S
C271 C272 1.291 1_655 S
C271 H284 0.931 . S
C272 C271 1.291 1_455 S
C272 C273 1.373 . S
C272 H285 0.929 . S
C273 C272 1.373 . S
C273 C274 1.396 . S
C273 C280 1.403 . S
C274 C264 1.476 . S
C274 N269 1.318 1_455 S
C274 C273 1.396 . S
H275 C270 0.929 . S
O276 Mn252 2.385 . S
O276 C254 1.234 . S
O277 Mn252 2.209 . S
O277 Mn253 2.215 . S
O277 C254 1.283 . S
O278 Mn252 2.094 . S
O278 C256 1.240 . S
O279 Mn253 2.117 . S
O279 C256 1.264 . S
C280 C273 1.403 . S
C280 C281 1.399 . S
C280 H286 0.929 . S
C281 C261 1.449 . S
C281 C280 1.399 . S
C281 H287 0.930 . S
H282 C262 0.931 . S
H283 C263 0.930 . S
H284 C271 0.931 . S
H285 C272 0.929 . S
H286 C280 0.929 . S
H287 C281 0.930 . S
Mn288 O293 2.095 . S
Mn288 O303 2.162 . S
Mn288 O304 2.297 . S
Mn288 O312 2.385 1_655 S
Mn288 O313 2.209 . S
Mn288 O314 2.094 . S
Mn289 O294 2.121 . S
Mn289 N296 2.257 . S
Mn289 N305 2.282 1_655 S
Mn289 O313 2.215 1_554 S
Mn289 O315 2.117 . S
C290 O312 1.234 1_655 S
C290 O313 1.283 . S
C291 O303 1.281 . S
C291 O304 1.236 . S
C292 O314 1.275 . S
C292 O315 1.241 1_556 S
O293 Mn288 2.095 . S
O293 C302 1.250 . S
O294 Mn289 2.121 . S
O294 C302 1.258 1_554 S
C295 N296 1.326 . S
C295 C299 1.460 . S
C295 H301 0.929 . S
N296 Mn289 2.257 . S
N296 C295 1.326 . S
N296 C300 1.362 . S
C297 C298 1.258 . S
C297 C300 1.431 . S
C297 C317 1.449 1_655 S
C298 C297 1.258 . S
C298 C299 1.477 . S
C298 H318 0.931 . S
C299 C295 1.460 . S
C299 C298 1.477 . S
C299 H319 0.930 . S
C300 N296 1.362 . S
C300 C297 1.431 . S
C300 C310 1.476 1_655 S
H301 C295 0.929 . S
C302 O293 1.250 . S
C302 O294 1.258 1_556 S
O303 Mn288 2.162 . S
O303 C291 1.281 . S
O304 Mn288 2.297 . S
O304 C291 1.236 . S
N305 Mn289 2.282 1_455 S
N305 C306 1.328 . S
N305 C310 1.318 . S
C306 N305 1.328 . S
C306 C307 1.457 . S
C306 H311 0.929 . S
C307 C306 1.457 . S
C307 C308 1.291 . S
C307 H320 0.931 . S
C308 C307 1.291 . S
C308 C309 1.373 . S
C308 H321 0.929 . S
C309 C308 1.373 . S
C309 C310 1.396 . S
C309 C316 1.403 . S
C310 C300 1.476 1_455 S
C310 N305 1.318 . S
C310 C309 1.396 . S
H311 C306 0.929 . S
O312 Mn288 2.385 1_455 S
O312 C290 1.234 1_455 S
O313 Mn288 2.209 . S
O313 Mn289 2.215 1_556 S
O313 C290 1.283 . S
O314 Mn288 2.094 . S
O314 C292 1.275 . S
O315 Mn289 2.117 . S
O315 C292 1.241 1_554 S
C316 C309 1.403 . S
C316 C317 1.399 . S
C316 H322 0.929 . S
C317 C297 1.449 1_455 S
C317 C316 1.399 . S
C317 H323 0.930 . S
H318 C298 0.931 . S
H319 C299 0.930 . S
H320 C307 0.931 . S
H321 C308 0.929 . S
H322 C316 0.929 . S
H323 C317 0.930 . S
Mn324 O329 2.095 . S
Mn324 O339 2.162 . S
Mn324 O340 2.297 . S
Mn324 O348 2.385 . S
Mn324 O349 2.209 . S
Mn324 O350 2.094 . S
Mn325 O330 2.121 . S
Mn325 N332 2.257 1_455 S
Mn325 N341 2.282 . S
Mn325 O349 2.215 . S
Mn325 O351 2.117 . S
C326 O348 1.234 . S
C326 O349 1.283 . S
C327 O339 1.281 . S
C327 O340 1.236 . S
C328 O350 1.240 . S
C328 O351 1.264 . S
O329 Mn324 2.095 . S
O329 C338 1.250 . S
O330 Mn325 2.121 . S
O330 C338 1.258 . S
C331 N332 1.326 . S
C331 C335 1.460 . S
C331 H337 0.929 . S
N332 Mn325 2.257 1_655 S
N332 C331 1.326 . S
N332 C336 1.362 . S
C333 C334 1.258 . S
C333 C336 1.431 . S
C333 C353 1.449 . S
C334 C333 1.258 . S
C334 C335 1.477 . S
C334 H354 0.931 . S
C335 C331 1.460 . S
C335 C334 1.477 . S
C335 H355 0.930 . S
C336 N332 1.362 . S
C336 C333 1.431 . S
C336 C346 1.476 . S
H337 C331 0.929 . S
C338 O329 1.250 . S
C338 O330 1.258 . S
O339 Mn324 2.162 . S
O339 C327 1.281 . S
O340 Mn324 2.297 . S
O340 C327 1.236 . S
N341 Mn325 2.282 . S
N341 C342 1.328 . S
N341 C346 1.318 1_455 S
C342 N341 1.328 . S
C342 C343 1.457 . S
C342 H347 0.929 . S
C343 C342 1.457 . S
C343 C344 1.291 1_455 S
C343 H356 0.931 . S
C344 C343 1.291 1_655 S
C344 C345 1.373 . S
C344 H357 0.929 . S
C345 C344 1.373 . S
C345 C346 1.396 . S
C345 C352 1.403 . S
C346 C336 1.476 . S
C346 N341 1.318 1_655 S
C346 C345 1.396 . S
H347 C342 0.929 . S
O348 Mn324 2.385 . S
O348 C326 1.234 . S
O349 Mn324 2.209 . S
O349 Mn325 2.215 . S
O349 C326 1.283 . S
O350 Mn324 2.094 . S
O350 C328 1.240 . S
O351 Mn325 2.117 . S
O351 C328 1.264 . S
C352 C345 1.403 . S
C352 C353 1.399 . S
C352 H358 0.929 . S
C353 C333 1.449 . S
C353 C352 1.399 . S
C353 H359 0.930 . S
H354 C334 0.931 . S
H355 C335 0.930 . S
H356 C343 0.931 . S
H357 C344 0.929 . S
H358 C352 0.929 . S
H359 C353 0.930 . S
Mn360 O365 2.095 . S
Mn360 O375 2.162 . S
Mn360 O376 2.297 . S
Mn360 O384 2.385 . S
Mn360 O385 2.209 . S
Mn360 O386 2.094 . S
Mn361 O366 2.121 . S
Mn361 N368 2.257 . S
Mn361 N377 2.282 . S
Mn361 O385 2.215 . S
Mn361 O387 2.117 . S
C362 O384 1.234 . S
C362 O385 1.283 . S
C363 O375 1.281 . S
C363 O376 1.236 . S
C364 O386 1.240 . S
C364 O387 1.264 . S
O365 Mn360 2.095 . S
O365 C374 1.250 . S
O366 Mn361 2.121 . S
O366 C374 1.258 . S
C367 N368 1.326 . S
C367 C371 1.460 . S
C367 H373 0.929 . S
N368 Mn361 2.257 . S
N368 C367 1.326 . S
N368 C372 1.362 . S
C369 C370 1.258 . S
C369 C372 1.431 . S
C369 C389 1.449 . S
C370 C369 1.258 . S
C370 C371 1.477 . S
C370 H390 0.931 . S
C371 C367 1.460 . S
C371 C370 1.477 . S
C371 H391 0.930 . S
C372 N368 1.362 . S
C372 C369 1.431 . S
C372 C382 1.476 . S
H373 C367 0.929 . S
C374 O365 1.250 . S
C374 O366 1.258 . S
O375 Mn360 2.162 . S
O375 C363 1.281 . S
O376 Mn360 2.297 . S
O376 C363 1.236 . S
N377 Mn361 2.282 . S
N377 C378 1.328 . S
N377 C382 1.318 . S
C378 N377 1.328 . S
C378 C379 1.457 . S
C378 H383 0.929 . S
C379 C378 1.457 . S
C379 C380 1.291 . S
C379 H392 0.931 . S
C380 C379 1.291 . S
C380 C381 1.373 . S
C380 H393 0.929 . S
C381 C380 1.373 . S
C381 C382 1.396 . S
C381 C388 1.403 . S
C382 C372 1.476 . S
C382 N377 1.318 . S
C382 C381 1.396 . S
H383 C378 0.929 . S
O384 Mn360 2.385 . S
O384 C362 1.234 . S
O385 Mn360 2.209 . S
O385 Mn361 2.215 . S
O385 C362 1.283 . S
O386 Mn360 2.094 . S
O386 C364 1.240 . S
O387 Mn361 2.117 . S
O387 C364 1.264 . S
C388 C381 1.403 . S
C388 C389 1.399 . S
C388 H394 0.929 . S
C389 C369 1.449 . S
C389 C388 1.399 . S
C389 H395 0.930 . S
H390 C370 0.931 . S
H391 C371 0.930 . S
H392 C379 0.931 . S
H393 C380 0.929 . S
H394 C388 0.929 . S
H395 C389 0.930 . S
Mn396 O401 2.095 . S
Mn396 O411 2.162 . S
Mn396 O412 2.297 . S
Mn396 O420 2.385 . S
Mn396 O421 2.209 . S
Mn396 O422 2.094 . S
Mn397 O402 2.121 . S
Mn397 N404 2.257 . S
Mn397 N413 2.282 . S
Mn397 O421 2.215 . S
Mn397 O423 2.117 . S
C398 O420 1.234 . S
C398 O421 1.283 . S
C399 O411 1.281 . S
C399 O412 1.236 . S
C400 O422 1.240 . S
C400 O423 1.264 . S
O401 Mn396 2.095 . S
O401 C410 1.250 . S
O402 Mn397 2.121 . S
O402 C410 1.258 . S
C403 N404 1.326 . S
C403 C407 1.460 . S
C403 H409 0.929 . S
N404 Mn397 2.257 . S
N404 C403 1.326 . S
N404 C408 1.362 . S
C405 C406 1.258 . S
C405 C408 1.431 . S
C405 C425 1.449 . S
C406 C405 1.258 . S
C406 C407 1.477 . S
C406 H426 0.931 . S
C407 C403 1.460 . S
C407 C406 1.477 . S
C407 H427 0.930 . S
C408 N404 1.362 . S
C408 C405 1.431 . S
C408 C418 1.476 . S
H409 C403 0.929 . S
C410 O401 1.250 . S
C410 O402 1.258 . S
O411 Mn396 2.162 . S
O411 C399 1.281 . S
O412 Mn396 2.297 . S
O412 C399 1.236 . S
N413 Mn397 2.282 . S
N413 C414 1.328 . S
N413 C418 1.318 . S
C414 N413 1.328 . S
C414 C415 1.457 . S
C414 H419 0.929 . S
C415 C414 1.457 . S
C415 C416 1.291 . S
C415 H428 0.931 . S
C416 C415 1.291 . S
C416 C417 1.373 . S
C416 H429 0.929 . S
C417 C416 1.373 . S
C417 C418 1.396 . S
C417 C424 1.403 . S
C418 C408 1.476 . S
C418 N413 1.318 . S
C418 C417 1.396 . S
H419 C414 0.929 . S
O420 Mn396 2.385 . S
O420 C398 1.234 . S
O421 Mn396 2.209 . S
O421 Mn397 2.215 . S
O421 C398 1.283 . S
O422 Mn396 2.094 . S
O422 C400 1.240 . S
O423 Mn397 2.117 . S
O423 C400 1.264 . S
C424 C417 1.403 . S
C424 C425 1.399 . S
C424 H430 0.929 . S
C425 C405 1.449 . S
C425 C424 1.399 . S
C425 H431 0.930 . S
H426 C406 0.931 . S
H427 C407 0.930 . S
H428 C415 0.931 . S
H429 C416 0.929 . S
H430 C424 0.929 . S
H431 C425 0.930 . S
Mn432 O437 2.095 . S
Mn432 O447 2.162 . S
Mn432 O448 2.297 . S
Mn432 O456 2.385 1_655 S
Mn432 O457 2.209 . S
Mn432 O458 2.094 . S
Mn433 O438 2.121 . S
Mn433 N440 2.257 . S
Mn433 N449 2.282 1_655 S
Mn433 O457 2.215 . S
Mn433 O459 2.117 . S
C434 O456 1.234 1_655 S
C434 O457 1.283 . S
C435 O447 1.281 . S
C435 O448 1.236 . S
C436 O458 1.240 . S
C436 O459 1.264 . S
O437 Mn432 2.095 . S
O437 C446 1.250 . S
O438 Mn433 2.121 . S
O438 C446 1.258 . S
C439 N440 1.326 . S
C439 C443 1.460 . S
C439 H445 0.929 . S
N440 Mn433 2.257 . S
N440 C439 1.326 . S
N440 C444 1.362 . S
C441 C442 1.258 . S
C441 C444 1.431 . S
C441 C461 1.449 1_655 S
C442 C441 1.258 . S
C442 C443 1.477 . S
C442 H462 0.931 . S
C443 C439 1.460 . S
C443 C442 1.477 . S
C443 H463 0.930 . S
C444 N440 1.362 . S
C444 C441 1.431 . S
C444 C454 1.476 1_655 S
H445 C439 0.929 . S
C446 O437 1.250 . S
C446 O438 1.258 . S
O447 Mn432 2.162 . S
O447 C435 1.281 . S
O448 Mn432 2.297 . S
O448 C435 1.236 . S
N449 Mn433 2.282 1_455 S
N449 C450 1.328 . S
N449 C454 1.318 . S
C450 N449 1.328 . S
C450 C451 1.457 . S
C450 H455 0.929 . S
C451 C450 1.457 . S
C451 C452 1.291 . S
C451 H464 0.931 . S
C452 C451 1.291 . S
C452 C453 1.373 . S
C452 H465 0.929 . S
C453 C452 1.373 . S
C453 C454 1.396 . S
C453 C460 1.403 . S
C454 C444 1.476 1_455 S
C454 N449 1.318 . S
C454 C453 1.396 . S
H455 C450 0.929 . S
O456 Mn432 2.385 1_455 S
O456 C434 1.234 1_455 S
O457 Mn432 2.209 . S
O457 Mn433 2.215 . S
O457 C434 1.283 . S
O458 Mn432 2.094 . S
O458 C436 1.240 . S
O459 Mn433 2.117 . S
O459 C436 1.264 . S
C460 C453 1.403 . S
C460 C461 1.399 . S
C460 H466 0.929 . S
C461 C441 1.449 1_455 S
C461 C460 1.399 . S
C461 H467 0.930 . S
H462 C442 0.931 . S
H463 C443 0.930 . S
H464 C451 0.931 . S
H465 C452 0.929 . S
H466 C460 0.929 . S
H467 C461 0.930 . S
Mn468 O473 2.095 . S
Mn468 O483 2.162 . S
Mn468 O484 2.297 . S
Mn468 O492 2.385 . S
Mn468 O493 2.209 . S
Mn468 O494 2.094 . S
Mn469 O474 2.121 . S
Mn469 N476 2.257 . S
Mn469 N485 2.282 . S
Mn469 O493 2.215 . S
Mn469 O495 2.117 . S
C470 O492 1.234 . S
C470 O493 1.283 . S
C471 O483 1.281 . S
C471 O484 1.236 . S
C472 O494 1.240 . S
C472 O495 1.264 . S
O473 Mn468 2.095 . S
O473 C482 1.250 . S
O474 Mn469 2.121 . S
O474 C482 1.258 . S
C475 N476 1.326 . S
C475 C479 1.460 . S
C475 H481 0.929 . S
N476 Mn469 2.257 . S
N476 C475 1.326 . S
N476 C480 1.362 . S
C477 C478 1.258 . S
C477 C480 1.431 . S
C477 C497 1.449 . S
C478 C477 1.258 . S
C478 C479 1.477 . S
C478 H498 0.931 . S
C479 C475 1.460 . S
C479 C478 1.477 . S
C479 H499 0.930 . S
C480 N476 1.362 . S
C480 C477 1.431 . S
C480 C490 1.476 . S
H481 C475 0.929 . S
C482 O473 1.250 . S
C482 O474 1.258 . S
O483 Mn468 2.162 . S
O483 C471 1.281 . S
O484 Mn468 2.297 . S
O484 C471 1.236 . S
N485 Mn469 2.282 . S
N485 C486 1.328 . S
N485 C490 1.318 . S
C486 N485 1.328 . S
C486 C487 1.457 . S
C486 H491 0.929 . S
C487 C486 1.457 . S
C487 C488 1.291 . S
C487 H500 0.931 . S
C488 C487 1.291 . S
C488 C489 1.373 . S
C488 H501 0.929 . S
C489 C488 1.373 . S
C489 C490 1.396 . S
C489 C496 1.403 . S
C490 C480 1.476 . S
C490 N485 1.318 . S
C490 C489 1.396 . S
H491 C486 0.929 . S
O492 Mn468 2.385 . S
O492 C470 1.234 . S
O493 Mn468 2.209 . S
O493 Mn469 2.215 . S
O493 C470 1.283 . S
O494 Mn468 2.094 . S
O494 C472 1.240 . S
O495 Mn469 2.117 . S
O495 C472 1.264 . S
C496 C489 1.403 . S
C496 C497 1.399 . S
C496 H502 0.929 . S
C497 C477 1.449 . S
C497 C496 1.399 . S
C497 H503 0.930 . S
H498 C478 0.931 . S
H499 C479 0.930 . S
H500 C487 0.931 . S
H501 C488 0.929 . S
H502 C496 0.929 . S
H503 C497 0.930 . S
Mn504 O509 2.095 . S
Mn504 O519 2.162 . S
Mn504 O520 2.297 . S
Mn504 O528 2.385 . S
Mn504 O529 2.209 . S
Mn504 O530 2.094 . S
Mn505 O510 2.121 . S
Mn505 N512 2.257 . S
Mn505 N521 2.282 . S
Mn505 O529 2.215 1_556 S
Mn505 O531 2.117 . S
C506 O528 1.234 . S
C506 O529 1.283 . S
C507 O519 1.281 . S
C507 O520 1.236 . S
C508 O530 1.275 . S
C508 O531 1.241 1_554 S
O509 Mn504 2.095 . S
O509 C518 1.250 . S
O510 Mn505 2.121 . S
O510 C518 1.258 1_556 S
C511 N512 1.326 . S
C511 C515 1.460 . S
C511 H517 0.929 . S
N512 Mn505 2.257 . S
N512 C511 1.326 . S
N512 C516 1.362 . S
C513 C514 1.258 . S
C513 C516 1.431 . S
C513 C533 1.449 . S
C514 C513 1.258 . S
C514 C515 1.477 . S
C514 H534 0.931 . S
C515 C511 1.460 . S
C515 C514 1.477 . S
C515 H535 0.930 . S
C516 N512 1.362 . S
C516 C513 1.431 . S
C516 C526 1.476 . S
H517 C511 0.929 . S
C518 O509 1.250 . S
C518 O510 1.258 1_554 S
O519 Mn504 2.162 . S
O519 C507 1.281 . S
O520 Mn504 2.297 . S
O520 C507 1.236 . S
N521 Mn505 2.282 . S
N521 C522 1.328 . S
N521 C526 1.318 . S
C522 N521 1.328 . S
C522 C523 1.457 . S
C522 H527 0.929 . S
C523 C522 1.457 . S
C523 C524 1.291 . S
C523 H536 0.931 . S
C524 C523 1.291 . S
C524 C525 1.373 . S
C524 H537 0.929 . S
C525 C524 1.373 . S
C525 C526 1.396 . S
C525 C532 1.403 . S
C526 C516 1.476 . S
C526 N521 1.318 . S
C526 C525 1.396 . S
H527 C522 0.929 . S
O528 Mn504 2.385 . S
O528 C506 1.234 . S
O529 Mn504 2.209 . S
O529 Mn505 2.215 1_554 S
O529 C506 1.283 . S
O530 Mn504 2.094 . S
O530 C508 1.275 . S
O531 Mn505 2.117 . S
O531 C508 1.241 1_556 S
C532 C525 1.403 . S
C532 C533 1.399 . S
C532 H538 0.929 . S
C533 C513 1.449 . S
C533 C532 1.399 . S
C533 H539 0.930 . S
H534 C514 0.931 . S
H535 C515 0.930 . S
H536 C523 0.931 . S
H537 C524 0.929 . S
H538 C532 0.929 . S
H539 C533 0.930 . S
Mn540 O545 2.095 . S
Mn540 O555 2.162 . S
Mn540 O556 2.297 . S
Mn540 O564 2.385 . S
Mn540 O565 2.209 . S
Mn540 O566 2.094 . S
Mn541 O546 2.121 . S
Mn541 N548 2.257 1_455 S
Mn541 N557 2.282 . S
Mn541 O565 2.215 . S
Mn541 O567 2.117 . S
C542 O564 1.234 . S
C542 O565 1.283 . S
C543 O555 1.281 . S
C543 O556 1.236 . S
C544 O566 1.240 . S
C544 O567 1.264 . S
O545 Mn540 2.095 . S
O545 C554 1.250 . S
O546 Mn541 2.121 . S
O546 C554 1.258 . S
C547 N548 1.326 . S
C547 C551 1.460 . S
C547 H553 0.929 . S
N548 Mn541 2.257 1_655 S
N548 C547 1.326 . S
N548 C552 1.362 . S
C549 C550 1.258 . S
C549 C552 1.431 . S
C549 C569 1.449 . S
C550 C549 1.258 . S
C550 C551 1.477 . S
C550 H570 0.931 . S
C551 C547 1.460 . S
C551 C550 1.477 . S
C551 H571 0.930 . S
C552 N548 1.362 . S
C552 C549 1.431 . S
C552 C562 1.476 . S
H553 C547 0.929 . S
C554 O545 1.250 . S
C554 O546 1.258 . S
O555 Mn540 2.162 . S
O555 C543 1.281 . S
O556 Mn540 2.297 . S
O556 C543 1.236 . S
N557 Mn541 2.282 . S
N557 C558 1.328 . S
N557 C562 1.318 1_455 S
C558 N557 1.328 . S
C558 C559 1.457 . S
C558 H563 0.929 . S
C559 C558 1.457 . S
C559 C560 1.291 1_455 S
C559 H572 0.931 . S
C560 C559 1.291 1_655 S
C560 C561 1.373 . S
C560 H573 0.929 . S
C561 C560 1.373 . S
C561 C562 1.396 . S
C561 C568 1.403 . S
C562 C552 1.476 . S
C562 N557 1.318 1_655 S
C562 C561 1.396 . S
H563 C558 0.929 . S
O564 Mn540 2.385 . S
O564 C542 1.234 . S
O565 Mn540 2.209 . S
O565 Mn541 2.215 . S
O565 C542 1.283 . S
O566 Mn540 2.094 . S
O566 C544 1.240 . S
O567 Mn541 2.117 . S
O567 C544 1.264 . S
C568 C561 1.403 . S
C568 C569 1.399 . S
C568 H574 0.929 . S
C569 C549 1.449 . S
C569 C568 1.399 . S
C569 H575 0.930 . S
H570 C550 0.931 . S
H571 C551 0.930 . S
H572 C559 0.931 . S
H573 C560 0.929 . S
H574 C568 0.929 . S
H575 C569 0.930 . S
Mn576 O581 2.095 . S
Mn576 O591 2.162 . S
Mn576 O592 2.297 . S
Mn576 O600 2.385 . S
Mn576 O601 2.209 . S
Mn576 O602 2.094 . S
Mn577 O582 2.121 . S
Mn577 N584 2.257 . S
Mn577 N593 2.282 . S
Mn577 O601 2.215 . S
Mn577 O603 2.117 . S
C578 O600 1.234 . S
C578 O601 1.283 . S
C579 O591 1.281 . S
C579 O592 1.236 . S
C580 O602 1.240 . S
C580 O603 1.264 . S
O581 Mn576 2.095 . S
O581 C590 1.250 . S
O582 Mn577 2.121 . S
O582 C590 1.258 . S
C583 N584 1.326 . S
C583 C587 1.460 . S
C583 H589 0.929 . S
N584 Mn577 2.257 . S
N584 C583 1.326 . S
N584 C588 1.362 . S
C585 C586 1.258 . S
C585 C588 1.431 . S
C585 C605 1.449 . S
C586 C585 1.258 . S
C586 C587 1.477 . S
C586 H606 0.931 . S
C587 C583 1.460 . S
C587 C586 1.477 . S
C587 H607 0.930 . S
C588 N584 1.362 . S
C588 C585 1.431 . S
C588 C598 1.476 . S
H589 C583 0.929 . S
C590 O581 1.250 . S
C590 O582 1.258 . S
O591 Mn576 2.162 . S
O591 C579 1.281 . S
O592 Mn576 2.297 . S
O592 C579 1.236 . S
N593 Mn577 2.282 . S
N593 C594 1.328 . S
N593 C598 1.318 . S
C594 N593 1.328 . S
C594 C595 1.457 . S
C594 H599 0.929 . S
C595 C594 1.457 . S
C595 C596 1.291 . S
C595 H608 0.931 . S
C596 C595 1.291 . S
C596 C597 1.373 . S
C596 H609 0.929 . S
C597 C596 1.373 . S
C597 C598 1.396 . S
C597 C604 1.403 . S
C598 C588 1.476 . S
C598 N593 1.318 . S
C598 C597 1.396 . S
H599 C594 0.929 . S
O600 Mn576 2.385 . S
O600 C578 1.234 . S
O601 Mn576 2.209 . S
O601 Mn577 2.215 . S
O601 C578 1.283 . S
O602 Mn576 2.094 . S
O602 C580 1.240 . S
O603 Mn577 2.117 . S
O603 C580 1.264 . S
C604 C597 1.403 . S
C604 C605 1.399 . S
C604 H610 0.929 . S
C605 C585 1.449 . S
C605 C604 1.399 . S
C605 H611 0.930 . S
H606 C586 0.931 . S
H607 C587 0.930 . S
H608 C595 0.931 . S
H609 C596 0.929 . S
H610 C604 0.929 . S
H611 C605 0.930 . S
Mn612 O617 2.095 . S
Mn612 O627 2.162 . S
Mn612 O628 2.297 . S
Mn612 O636 2.385 . S
Mn612 O637 2.209 . S
Mn612 O638 2.094 . S
Mn613 O618 2.121 . S
Mn613 N620 2.257 . S
Mn613 N629 2.282 . S
Mn613 O637 2.215 . S
Mn613 O639 2.117 . S
C614 O636 1.234 . S
C614 O637 1.283 . S
C615 O627 1.281 . S
C615 O628 1.236 . S
C616 O638 1.240 . S
C616 O639 1.264 . S
O617 Mn612 2.095 . S
O617 C626 1.250 . S
O618 Mn613 2.121 . S
O618 C626 1.258 . S
C619 N620 1.326 . S
C619 C623 1.460 . S
C619 H625 0.929 . S
N620 Mn613 2.257 . S
N620 C619 1.326 . S
N620 C624 1.362 . S
C621 C622 1.258 . S
C621 C624 1.431 . S
C621 C641 1.449 . S
C622 C621 1.258 . S
C622 C623 1.477 . S
C622 H642 0.931 . S
C623 C619 1.460 . S
C623 C622 1.477 . S
C623 H643 0.930 . S
C624 N620 1.362 . S
C624 C621 1.431 . S
C624 C634 1.476 . S
H625 C619 0.929 . S
C626 O617 1.250 . S
C626 O618 1.258 . S
O627 Mn612 2.162 . S
O627 C615 1.281 . S
O628 Mn612 2.297 . S
O628 C615 1.236 . S
N629 Mn613 2.282 . S
N629 C630 1.328 . S
N629 C634 1.318 . S
C630 N629 1.328 . S
C630 C631 1.457 . S
C630 H635 0.929 . S
C631 C630 1.457 . S
C631 C632 1.291 . S
C631 H644 0.931 . S
C632 C631 1.291 . S
C632 C633 1.373 . S
C632 H645 0.929 . S
C633 C632 1.373 . S
C633 C634 1.396 . S
C633 C640 1.403 . S
C634 C624 1.476 . S
C634 N629 1.318 . S
C634 C633 1.396 . S
H635 C630 0.929 . S
O636 Mn612 2.385 . S
O636 C614 1.234 . S
O637 Mn612 2.209 . S
O637 Mn613 2.215 . S
O637 C614 1.283 . S
O638 Mn612 2.094 . S
O638 C616 1.240 . S
O639 Mn613 2.117 . S
O639 C616 1.264 . S
C640 C633 1.403 . S
C640 C641 1.399 . S
C640 H646 0.929 . S
C641 C621 1.449 . S
C641 C640 1.399 . S
C641 H647 0.930 . S
H642 C622 0.931 . S
H643 C623 0.930 . S
H644 C631 0.931 . S
H645 C632 0.929 . S
H646 C640 0.929 . S
H647 C641 0.930 . S
Mn648 O653 2.095 . S
Mn648 O663 2.162 . S
Mn648 O664 2.297 . S
Mn648 O672 2.385 1_655 S
Mn648 O673 2.209 . S
Mn648 O674 2.094 . S
Mn649 O654 2.121 . S
Mn649 N656 2.257 . S
Mn649 N665 2.282 1_655 S
Mn649 O673 2.215 1_556 S
Mn649 O675 2.117 . S
C650 O672 1.234 1_655 S
C650 O673 1.283 . S
C651 O663 1.281 . S
C651 O664 1.236 . S
C652 O674 1.275 . S
C652 O675 1.241 1_554 S
O653 Mn648 2.095 . S
O653 C662 1.250 . S
O654 Mn649 2.121 . S
O654 C662 1.258 1_556 S
C655 N656 1.326 . S
C655 C659 1.460 . S
C655 H661 0.929 . S
N656 Mn649 2.257 . S
N656 C655 1.326 . S
N656 C660 1.362 . S
C657 C658 1.258 . S
C657 C660 1.431 . S
C657 C677 1.449 1_655 S
C658 C657 1.258 . S
C658 C659 1.477 . S
C658 H678 0.931 . S
C659 C655 1.460 . S
C659 C658 1.477 . S
C659 H679 0.930 . S
C660 N656 1.362 . S
C660 C657 1.431 . S
C660 C670 1.476 1_655 S
H661 C655 0.929 . S
C662 O653 1.250 . S
C662 O654 1.258 1_554 S
O663 Mn648 2.162 . S
O663 C651 1.281 . S
O664 Mn648 2.297 . S
O664 C651 1.236 . S
N665 Mn649 2.282 1_455 S
N665 C666 1.328 . S
N665 C670 1.318 . S
C666 N665 1.328 . S
C666 C667 1.457 . S
C666 H671 0.929 . S
C667 C666 1.457 . S
C667 C668 1.291 . S
C667 H680 0.931 . S
C668 C667 1.291 . S
C668 C669 1.373 . S
C668 H681 0.929 . S
C669 C668 1.373 . S
C669 C670 1.396 . S
C669 C676 1.403 . S
C670 C660 1.476 1_455 S
C670 N665 1.318 . S
C670 C669 1.396 . S
H671 C666 0.929 . S
O672 Mn648 2.385 1_455 S
O672 C650 1.234 1_455 S
O673 Mn648 2.209 . S
O673 Mn649 2.215 1_554 S
O673 C650 1.283 . S
O674 Mn648 2.094 . S
O674 C652 1.275 . S
O675 Mn649 2.117 . S
O675 C652 1.241 1_556 S
C676 C669 1.403 . S
C676 C677 1.399 . S
C676 H682 0.929 . S
C677 C657 1.449 1_455 S
C677 C676 1.399 . S
C677 H683 0.930 . S
H678 C658 0.931 . S
H679 C659 0.930 . S
H680 C667 0.931 . S
H681 C668 0.929 . S
H682 C676 0.929 . S
H683 C677 0.930 . S
Mn684 O689 2.095 . S
Mn684 O699 2.162 . S
Mn684 O700 2.297 . S
Mn684 O708 2.385 . S
Mn684 O709 2.209 . S
Mn684 O710 2.094 . S
Mn685 O690 2.121 . S
Mn685 N692 2.257 1_455 S
Mn685 N701 2.282 . S
Mn685 O709 2.215 . S
Mn685 O711 2.117 . S
C686 O708 1.234 . S
C686 O709 1.283 . S
C687 O699 1.281 . S
C687 O700 1.236 . S
C688 O710 1.240 . S
C688 O711 1.264 . S
O689 Mn684 2.095 . S
O689 C698 1.250 . S
O690 Mn685 2.121 . S
O690 C698 1.258 . S
C691 N692 1.326 . S
C691 C695 1.460 . S
C691 H697 0.929 . S
N692 Mn685 2.257 1_655 S
N692 C691 1.326 . S
N692 C696 1.362 . S
C693 C694 1.258 . S
C693 C696 1.431 . S
C693 C713 1.449 . S
C694 C693 1.258 . S
C694 C695 1.477 . S
C694 H714 0.931 . S
C695 C691 1.460 . S
C695 C694 1.477 . S
C695 H715 0.930 . S
C696 N692 1.362 . S
C696 C693 1.431 . S
C696 C706 1.476 . S
H697 C691 0.929 . S
C698 O689 1.250 . S
C698 O690 1.258 . S
O699 Mn684 2.162 . S
O699 C687 1.281 . S
O700 Mn684 2.297 . S
O700 C687 1.236 . S
N701 Mn685 2.282 . S
N701 C702 1.328 . S
N701 C706 1.318 1_455 S
C702 N701 1.328 . S
C702 C703 1.457 . S
C702 H707 0.929 . S
C703 C702 1.457 . S
C703 C704 1.291 1_455 S
C703 H716 0.931 . S
C704 C703 1.291 1_655 S
C704 C705 1.373 . S
C704 H717 0.929 . S
C705 C704 1.373 . S
C705 C706 1.396 . S
C705 C712 1.403 . S
C706 C696 1.476 . S
C706 N701 1.318 1_655 S
C706 C705 1.396 . S
H707 C702 0.929 . S
O708 Mn684 2.385 . S
O708 C686 1.234 . S
O709 Mn684 2.209 . S
O709 Mn685 2.215 . S
O709 C686 1.283 . S
O710 Mn684 2.094 . S
O710 C688 1.240 . S
O711 Mn685 2.117 . S
O711 C688 1.264 . S
C712 C705 1.403 . S
C712 C713 1.399 . S
C712 H718 0.929 . S
C713 C693 1.449 . S
C713 C712 1.399 . S
C713 H719 0.930 . S
H714 C694 0.931 . S
H715 C695 0.930 . S
H716 C703 0.931 . S
H717 C704 0.929 . S
H718 C712 0.929 . S
H719 C713 0.930 . S
Mn720 O725 2.095 . S
Mn720 O735 2.162 . S
Mn720 O736 2.297 . S
Mn720 O744 2.385 . S
Mn720 O745 2.209 . S
Mn720 O746 2.094 . S
Mn721 O726 2.121 . S
Mn721 N728 2.257 . S
Mn721 N737 2.282 . S
Mn721 O745 2.215 1_554 S
Mn721 O747 2.117 . S
C722 O744 1.234 . S
C722 O745 1.283 . S
C723 O735 1.281 . S
C723 O736 1.236 . S
C724 O746 1.275 . S
C724 O747 1.241 1_556 S
O725 Mn720 2.095 . S
O725 C734 1.250 . S
O726 Mn721 2.121 . S
O726 C734 1.258 1_554 S
C727 N728 1.326 . S
C727 C731 1.460 . S
C727 H733 0.929 . S
N728 Mn721 2.257 . S
N728 C727 1.326 . S
N728 C732 1.362 . S
C729 C730 1.258 . S
C729 C732 1.431 . S
C729 C749 1.449 . S
C730 C729 1.258 . S
C730 C731 1.477 . S
C730 H750 0.931 . S
C731 C727 1.460 . S
C731 C730 1.477 . S
C731 H751 0.930 . S
C732 N728 1.362 . S
C732 C729 1.431 . S
C732 C742 1.476 . S
H733 C727 0.929 . S
C734 O725 1.250 . S
C734 O726 1.258 1_556 S
O735 Mn720 2.162 . S
O735 C723 1.281 . S
O736 Mn720 2.297 . S
O736 C723 1.236 . S
N737 Mn721 2.282 . S
N737 C738 1.328 . S
N737 C742 1.318 . S
C738 N737 1.328 . S
C738 C739 1.457 . S
C738 H743 0.929 . S
C739 C738 1.457 . S
C739 C740 1.291 . S
C739 H752 0.931 . S
C740 C739 1.291 . S
C740 C741 1.373 . S
C740 H753 0.929 . S
C741 C740 1.373 . S
C741 C742 1.396 . S
C741 C748 1.403 . S
C742 C732 1.476 . S
C742 N737 1.318 . S
C742 C741 1.396 . S
H743 C738 0.929 . S
O744 Mn720 2.385 . S
O744 C722 1.234 . S
O745 Mn720 2.209 . S
O745 Mn721 2.215 1_556 S
O745 C722 1.283 . S
O746 Mn720 2.094 . S
O746 C724 1.275 . S
O747 Mn721 2.117 . S
O747 C724 1.241 1_554 S
C748 C741 1.403 . S
C748 C749 1.399 . S
C748 H754 0.929 . S
C749 C729 1.449 . S
C749 C748 1.399 . S
C749 H755 0.930 . S
H750 C730 0.931 . S
H751 C731 0.930 . S
H752 C739 0.931 . S
H753 C740 0.929 . S
H754 C748 0.929 . S
H755 C749 0.930 . S
Mn756 O761 2.095 . S
Mn756 O771 2.162 . S
Mn756 O772 2.297 . S
Mn756 O780 2.385 . S
Mn756 O781 2.209 . S
Mn756 O782 2.094 . S
Mn757 O762 2.121 . S
Mn757 N764 2.257 1_455 S
Mn757 N773 2.282 . S
Mn757 O781 2.215 . S
Mn757 O783 2.117 . S
C758 O780 1.234 . S
C758 O781 1.283 . S
C759 O771 1.281 . S
C759 O772 1.236 . S
C760 O782 1.240 . S
C760 O783 1.264 . S
O761 Mn756 2.095 . S
O761 C770 1.250 . S
O762 Mn757 2.121 . S
O762 C770 1.258 . S
C763 N764 1.326 . S
C763 C767 1.460 . S
C763 H769 0.929 . S
N764 Mn757 2.257 1_655 S
N764 C763 1.326 . S
N764 C768 1.362 . S
C765 C766 1.258 . S
C765 C768 1.431 . S
C765 C785 1.449 . S
C766 C765 1.258 . S
C766 C767 1.477 . S
C766 H786 0.931 . S
C767 C763 1.460 . S
C767 C766 1.477 . S
C767 H787 0.930 . S
C768 N764 1.362 . S
C768 C765 1.431 . S
C768 C778 1.476 . S
H769 C763 0.929 . S
C770 O761 1.250 . S
C770 O762 1.258 . S
O771 Mn756 2.162 . S
O771 C759 1.281 . S
O772 Mn756 2.297 . S
O772 C759 1.236 . S
N773 Mn757 2.282 . S
N773 C774 1.328 . S
N773 C778 1.318 1_455 S
C774 N773 1.328 . S
C774 C775 1.457 . S
C774 H779 0.929 . S
C775 C774 1.457 . S
C775 C776 1.291 1_455 S
C775 H788 0.931 . S
C776 C775 1.291 1_655 S
C776 C777 1.373 . S
C776 H789 0.929 . S
C777 C776 1.373 . S
C777 C778 1.396 . S
C777 C784 1.403 . S
C778 C768 1.476 . S
C778 N773 1.318 1_655 S
C778 C777 1.396 . S
H779 C774 0.929 . S
O780 Mn756 2.385 . S
O780 C758 1.234 . S
O781 Mn756 2.209 . S
O781 Mn757 2.215 . S
O781 C758 1.283 . S
O782 Mn756 2.094 . S
O782 C760 1.240 . S
O783 Mn757 2.117 . S
O783 C760 1.264 . S
C784 C777 1.403 . S
C784 C785 1.399 . S
C784 H790 0.929 . S
C785 C765 1.449 . S
C785 C784 1.399 . S
C785 H791 0.930 . S
H786 C766 0.931 . S
H787 C767 0.930 . S
H788 C775 0.931 . S
H789 C776 0.929 . S
H790 C784 0.929 . S
H791 C785 0.930 . S
Mn792 O797 2.095 . S
Mn792 O807 2.162 . S
Mn792 O808 2.297 . S
Mn792 O816 2.385 1_655 S
Mn792 O817 2.209 . S
Mn792 O818 2.094 . S
Mn793 O798 2.121 . S
Mn793 N800 2.257 . S
Mn793 N809 2.282 1_655 S
Mn793 O817 2.215 . S
Mn793 O819 2.117 . S
C794 O816 1.234 1_655 S
C794 O817 1.283 . S
C795 O807 1.281 . S
C795 O808 1.236 . S
C796 O818 1.240 . S
C796 O819 1.264 . S
O797 Mn792 2.095 . S
O797 C806 1.250 . S
O798 Mn793 2.121 . S
O798 C806 1.258 . S
C799 N800 1.326 . S
C799 C803 1.460 . S
C799 H805 0.929 . S
N800 Mn793 2.257 . S
N800 C799 1.326 . S
N800 C804 1.362 . S
C801 C802 1.258 . S
C801 C804 1.431 . S
C801 C821 1.449 1_655 S
C802 C801 1.258 . S
C802 C803 1.477 . S
C802 H822 0.931 . S
C803 C799 1.460 . S
C803 C802 1.477 . S
C803 H823 0.930 . S
C804 N800 1.362 . S
C804 C801 1.431 . S
C804 C814 1.476 1_655 S
H805 C799 0.929 . S
C806 O797 1.250 . S
C806 O798 1.258 . S
O807 Mn792 2.162 . S
O807 C795 1.281 . S
O808 Mn792 2.297 . S
O808 C795 1.236 . S
N809 Mn793 2.282 1_455 S
N809 C810 1.328 . S
N809 C814 1.318 . S
C810 N809 1.328 . S
C810 C811 1.457 . S
C810 H815 0.929 . S
C811 C810 1.457 . S
C811 C812 1.291 . S
C811 H824 0.931 . S
C812 C811 1.291 . S
C812 C813 1.373 . S
C812 H825 0.929 . S
C813 C812 1.373 . S
C813 C814 1.396 . S
C813 C820 1.403 . S
C814 C804 1.476 1_455 S
C814 N809 1.318 . S
C814 C813 1.396 . S
H815 C810 0.929 . S
O816 Mn792 2.385 1_455 S
O816 C794 1.234 1_455 S
O817 Mn792 2.209 . S
O817 Mn793 2.215 . S
O817 C794 1.283 . S
O818 Mn792 2.094 . S
O818 C796 1.240 . S
O819 Mn793 2.117 . S
O819 C796 1.264 . S
C820 C813 1.403 . S
C820 C821 1.399 . S
C820 H826 0.929 . S
C821 C801 1.449 1_455 S
C821 C820 1.399 . S
C821 H827 0.930 . S
H822 C802 0.931 . S
H823 C803 0.930 . S
H824 C811 0.931 . S
H825 C812 0.929 . S
H826 C820 0.929 . S
H827 C821 0.930 . S
Mn828 O833 2.095 . S
Mn828 O843 2.162 . S
Mn828 O844 2.297 . S
Mn828 O852 2.385 . S
Mn828 O853 2.209 . S
Mn828 O854 2.094 . S
Mn829 O834 2.121 . S
Mn829 N836 2.257 . S
Mn829 N845 2.282 . S
Mn829 O853 2.215 . S
Mn829 O855 2.117 . S
C830 O852 1.234 . S
C830 O853 1.283 . S
C831 O843 1.281 . S
C831 O844 1.236 . S
C832 O854 1.240 . S
C832 O855 1.264 . S
O833 Mn828 2.095 . S
O833 C842 1.250 . S
O834 Mn829 2.121 . S
O834 C842 1.258 . S
C835 N836 1.326 . S
C835 C839 1.460 . S
C835 H841 0.929 . S
N836 Mn829 2.257 . S
N836 C835 1.326 . S
N836 C840 1.362 . S
C837 C838 1.258 . S
C837 C840 1.431 . S
C837 C857 1.449 . S
C838 C837 1.258 . S
C838 C839 1.477 . S
C838 H858 0.931 . S
C839 C835 1.460 . S
C839 C838 1.477 . S
C839 H859 0.930 . S
C840 N836 1.362 . S
C840 C837 1.431 . S
C840 C850 1.476 . S
H841 C835 0.929 . S
C842 O833 1.250 . S
C842 O834 1.258 . S
O843 Mn828 2.162 . S
O843 C831 1.281 . S
O844 Mn828 2.297 . S
O844 C831 1.236 . S
N845 Mn829 2.282 . S
N845 C846 1.328 . S
N845 C850 1.318 . S
C846 N845 1.328 . S
C846 C847 1.457 . S
C846 H851 0.929 . S
C847 C846 1.457 . S
C847 C848 1.291 . S
C847 H860 0.931 . S
C848 C847 1.291 . S
C848 C849 1.373 . S
C848 H861 0.929 . S
C849 C848 1.373 . S
C849 C850 1.396 . S
C849 C856 1.403 . S
C850 C840 1.476 . S
C850 N845 1.318 . S
C850 C849 1.396 . S
H851 C846 0.929 . S
O852 Mn828 2.385 . S
O852 C830 1.234 . S
O853 Mn828 2.209 . S
O853 Mn829 2.215 . S
O853 C830 1.283 . S
O854 Mn828 2.094 . S
O854 C832 1.240 . S
O855 Mn829 2.117 . S
O855 C832 1.264 . S
C856 C849 1.403 . S
C856 C857 1.399 . S
C856 H862 0.929 . S
C857 C837 1.449 . S
C857 C856 1.399 . S
C857 H863 0.930 . S
H858 C838 0.931 . S
H859 C839 0.930 . S
H860 C847 0.931 . S
H861 C848 0.929 . S
H862 C856 0.929 . S
H863 C857 0.930 . S
Mn864 O869 2.095 . S
Mn864 O879 2.162 . S
Mn864 O880 2.297 . S
Mn864 O888 2.385 . S
Mn864 O889 2.209 . S
Mn864 O890 2.094 . S
Mn865 O870 2.121 . S
Mn865 N872 2.257 . S
Mn865 N881 2.282 . S
Mn865 O889 2.215 . S
Mn865 O891 2.117 . S
C866 O888 1.234 . S
C866 O889 1.283 . S
C867 O879 1.281 . S
C867 O880 1.236 . S
C868 O890 1.240 . S
C868 O891 1.264 . S
O869 Mn864 2.095 . S
O869 C878 1.250 . S
O870 Mn865 2.121 . S
O870 C878 1.258 . S
C871 N872 1.326 . S
C871 C875 1.460 . S
C871 H877 0.929 . S
N872 Mn865 2.257 . S
N872 C871 1.326 . S
N872 C876 1.362 . S
C873 C874 1.258 . S
C873 C876 1.431 . S
C873 C893 1.449 . S
C874 C873 1.258 . S
C874 C875 1.477 . S
C874 H894 0.931 . S
C875 C871 1.460 . S
C875 C874 1.477 . S
C875 H895 0.930 . S
C876 N872 1.362 . S
C876 C873 1.431 . S
C876 C886 1.476 . S
H877 C871 0.929 . S
C878 O869 1.250 . S
C878 O870 1.258 . S
O879 Mn864 2.162 . S
O879 C867 1.281 . S
O880 Mn864 2.297 . S
O880 C867 1.236 . S
N881 Mn865 2.282 . S
N881 C882 1.328 . S
N881 C886 1.318 . S
C882 N881 1.328 . S
C882 C883 1.457 . S
C882 H887 0.929 . S
C883 C882 1.457 . S
C883 C884 1.291 . S
C883 H896 0.931 . S
C884 C883 1.291 . S
C884 C885 1.373 . S
C884 H897 0.929 . S
C885 C884 1.373 . S
C885 C886 1.396 . S
C885 C892 1.403 . S
C886 C876 1.476 . S
C886 N881 1.318 . S
C886 C885 1.396 . S
H887 C882 0.929 . S
O888 Mn864 2.385 . S
O888 C866 1.234 . S
O889 Mn864 2.209 . S
O889 Mn865 2.215 . S
O889 C866 1.283 . S
O890 Mn864 2.094 . S
O890 C868 1.240 . S
O891 Mn865 2.117 . S
O891 C868 1.264 . S
C892 C885 1.403 . S
C892 C893 1.399 . S
C892 H898 0.929 . S
C893 C873 1.449 . S
C893 C892 1.399 . S
C893 H899 0.930 . S
H894 C874 0.931 . S
H895 C875 0.930 . S
H896 C883 0.931 . S
H897 C884 0.929 . S
H898 C892 0.929 . S
H899 C893 0.930 . S
Mn900 O905 2.095 . S
Mn900 O915 2.162 . S
Mn900 O916 2.297 . S
Mn900 O924 2.385 . S
Mn900 O925 2.209 . S
Mn900 O926 2.094 . S
Mn901 O906 2.121 . S
Mn901 N908 2.257 . S
Mn901 N917 2.282 . S
Mn901 O925 2.215 . S
Mn901 O927 2.117 . S
C902 O924 1.234 . S
C902 O925 1.283 . S
C903 O915 1.281 . S
C903 O916 1.236 . S
C904 O926 1.240 . S
C904 O927 1.264 . S
O905 Mn900 2.095 . S
O905 C914 1.250 . S
O906 Mn901 2.121 . S
O906 C914 1.258 . S
C907 N908 1.326 . S
C907 C911 1.460 . S
C907 H913 0.929 . S
N908 Mn901 2.257 . S
N908 C907 1.326 . S
N908 C912 1.362 . S
C909 C910 1.258 . S
C909 C912 1.431 . S
C909 C929 1.449 . S
C910 C909 1.258 . S
C910 C911 1.477 . S
C910 H930 0.931 . S
C911 C907 1.460 . S
C911 C910 1.477 . S
C911 H931 0.930 . S
C912 N908 1.362 . S
C912 C909 1.431 . S
C912 C922 1.476 . S
H913 C907 0.929 . S
C914 O905 1.250 . S
C914 O906 1.258 . S
O915 Mn900 2.162 . S
O915 C903 1.281 . S
O916 Mn900 2.297 . S
O916 C903 1.236 . S
N917 Mn901 2.282 . S
N917 C918 1.328 . S
N917 C922 1.318 . S
C918 N917 1.328 . S
C918 C919 1.457 . S
C918 H923 0.929 . S
C919 C918 1.457 . S
C919 C920 1.291 . S
C919 H932 0.931 . S
C920 C919 1.291 . S
C920 C921 1.373 . S
C920 H933 0.929 . S
C921 C920 1.373 . S
C921 C922 1.396 . S
C921 C928 1.403 . S
C922 C912 1.476 . S
C922 N917 1.318 . S
C922 C921 1.396 . S
H923 C918 0.929 . S
O924 Mn900 2.385 . S
O924 C902 1.234 . S
O925 Mn900 2.209 . S
O925 Mn901 2.215 . S
O925 C902 1.283 . S
O926 Mn900 2.094 . S
O926 C904 1.240 . S
O927 Mn901 2.117 . S
O927 C904 1.264 . S
C928 C921 1.403 . S
C928 C929 1.399 . S
C928 H934 0.929 . S
C929 C909 1.449 . S
C929 C928 1.399 . S
C929 H935 0.930 . S
H930 C910 0.931 . S
H931 C911 0.930 . S
H932 C919 0.931 . S
H933 C920 0.929 . S
H934 C928 0.929 . S
H935 C929 0.930 . S
Mn936 O941 2.095 . S
Mn936 O951 2.162 . S
Mn936 O952 2.297 . S
Mn936 O960 2.385 1_455 S
Mn936 O961 2.209 . S
Mn936 O962 2.094 . S
Mn937 O942 2.121 . S
Mn937 N944 2.257 . S
Mn937 N953 2.282 1_455 S
Mn937 O961 2.215 1_554 S
Mn937 O963 2.117 . S
C938 O960 1.234 1_455 S
C938 O961 1.283 . S
C939 O951 1.281 . S
C939 O952 1.236 . S
C940 O962 1.275 . S
C940 O963 1.241 1_556 S
O941 Mn936 2.095 . S
O941 C950 1.250 . S
O942 Mn937 2.121 . S
O942 C950 1.258 1_554 S
C943 N944 1.326 . S
C943 C947 1.460 . S
C943 H949 0.929 . S
N944 Mn937 2.257 . S
N944 C943 1.326 . S
N944 C948 1.362 . S
C945 C946 1.258 . S
C945 C948 1.431 . S
C945 C965 1.449 1_455 S
C946 C945 1.258 . S
C946 C947 1.477 . S
C946 H966 0.931 . S
C947 C943 1.460 . S
C947 C946 1.477 . S
C947 H967 0.930 . S
C948 N944 1.362 . S
C948 C945 1.431 . S
C948 C958 1.476 1_455 S
H949 C943 0.929 . S
C950 O941 1.250 . S
C950 O942 1.258 1_556 S
O951 Mn936 2.162 . S
O951 C939 1.281 . S
O952 Mn936 2.297 . S
O952 C939 1.236 . S
N953 Mn937 2.282 1_655 S
N953 C954 1.328 . S
N953 C958 1.318 . S
C954 N953 1.328 . S
C954 C955 1.457 . S
C954 H959 0.929 . S
C955 C954 1.457 . S
C955 C956 1.291 . S
C955 H968 0.931 . S
C956 C955 1.291 . S
C956 C957 1.373 . S
C956 H969 0.929 . S
C957 C956 1.373 . S
C957 C958 1.396 . S
C957 C964 1.403 . S
C958 C948 1.476 1_655 S
C958 N953 1.318 . S
C958 C957 1.396 . S
H959 C954 0.929 . S
O960 Mn936 2.385 1_655 S
O960 C938 1.234 1_655 S
O961 Mn936 2.209 . S
O961 Mn937 2.215 1_556 S
O961 C938 1.283 . S
O962 Mn936 2.094 . S
O962 C940 1.275 . S
O963 Mn937 2.117 . S
O963 C940 1.241 1_554 S
C964 C957 1.403 . S
C964 C965 1.399 . S
C964 H970 0.929 . S
C965 C945 1.449 1_655 S
C965 C964 1.399 . S
C965 H971 0.930 . S
H966 C946 0.931 . S
H967 C947 0.930 . S
H968 C955 0.931 . S
H969 C956 0.929 . S
H970 C964 0.929 . S
H971 C965 0.930 . S
Mn972 O977 2.095 . S
Mn972 O987 2.162 . S
Mn972 O988 2.297 . S
Mn972 O996 2.385 . S
Mn972 O997 2.209 . S
Mn972 O998 2.094 . S
Mn973 O978 2.121 . S
Mn973 N980 2.257 1_655 S
Mn973 N989 2.282 . S
Mn973 O997 2.215 . S
Mn973 O999 2.117 . S
C974 O996 1.234 . S
C974 O997 1.283 . S
C975 O987 1.281 . S
C975 O988 1.236 . S
C976 O998 1.240 . S
C976 O999 1.264 . S
O977 Mn972 2.095 . S
O977 C986 1.250 . S
O978 Mn973 2.121 . S
O978 C986 1.258 . S
C979 N980 1.326 . S
C979 C983 1.460 . S
C979 H985 0.929 . S
N980 Mn973 2.257 1_455 S
N980 C979 1.326 . S
N980 C984 1.362 . S
C981 C982 1.258 . S
C981 C984 1.431 . S
C981 C1001 1.449 . S
C982 C981 1.258 . S
C982 C983 1.477 . S
C982 H1002 0.931 . S
C983 C979 1.460 . S
C983 C982 1.477 . S
C983 H1003 0.930 . S
C984 N980 1.362 . S
C984 C981 1.431 . S
C984 C994 1.476 . S
H985 C979 0.929 . S
C986 O977 1.250 . S
C986 O978 1.258 . S
O987 Mn972 2.162 . S
O987 C975 1.281 . S
O988 Mn972 2.297 . S
O988 C975 1.236 . S
N989 Mn973 2.282 . S
N989 C990 1.328 . S
N989 C994 1.318 1_655 S
C990 N989 1.328 . S
C990 C991 1.457 . S
C990 H995 0.929 . S
C991 C990 1.457 . S
C991 C992 1.291 1_655 S
C991 H1004 0.931 . S
C992 C991 1.291 1_455 S
C992 C993 1.373 . S
C992 H1005 0.929 . S
C993 C992 1.373 . S
C993 C994 1.396 . S
C993 C1000 1.403 . S
C994 C984 1.476 . S
C994 N989 1.318 1_455 S
C994 C993 1.396 . S
H995 C990 0.929 . S
O996 Mn972 2.385 . S
O996 C974 1.234 . S
O997 Mn972 2.209 . S
O997 Mn973 2.215 . S
O997 C974 1.283 . S
O998 Mn972 2.094 . S
O998 C976 1.240 . S
O999 Mn973 2.117 . S
O999 C976 1.264 . S
C1000 C993 1.403 . S
C1000 C1001 1.399 . S
C1000 H1006 0.929 . S
C1001 C981 1.449 . S
C1001 C1000 1.399 . S
C1001 H1007 0.930 . S
H1002 C982 0.931 . S
H1003 C983 0.930 . S
H1004 C991 0.931 . S
H1005 C992 0.929 . S
H1006 C1000 0.929 . S
H1007 C1001 0.930 . S
Mn1008 O1013 2.095 . S
Mn1008 O1023 2.162 . S
Mn1008 O1024 2.297 . S
Mn1008 O1032 2.385 . S
Mn1008 O1033 2.209 . S
Mn1008 O1034 2.094 . S
Mn1009 O1014 2.121 . S
Mn1009 N1016 2.257 . S
Mn1009 N1025 2.282 . S
Mn1009 O1033 2.215 1_556 S
Mn1009 O1035 2.117 . S
C1010 O1032 1.234 . S
C1010 O1033 1.283 . S
C1011 O1023 1.281 . S
C1011 O1024 1.236 . S
C1012 O1034 1.275 . S
C1012 O1035 1.241 1_554 S
O1013 Mn1008 2.095 . S
O1013 C1022 1.250 . S
O1014 Mn1009 2.121 . S
O1014 C1022 1.258 1_556 S
C1015 N1016 1.326 . S
C1015 C1019 1.460 . S
C1015 H1021 0.929 . S
N1016 Mn1009 2.257 . S
N1016 C1015 1.326 . S
N1016 C1020 1.362 . S
C1017 C1018 1.258 . S
C1017 C1020 1.431 . S
C1017 C1037 1.449 . S
C1018 C1017 1.258 . S
C1018 C1019 1.477 . S
C1018 H1038 0.931 . S
C1019 C1015 1.460 . S
C1019 C1018 1.477 . S
C1019 H1039 0.930 . S
C1020 N1016 1.362 . S
C1020 C1017 1.431 . S
C1020 C1030 1.476 . S
H1021 C1015 0.929 . S
C1022 O1013 1.250 . S
C1022 O1014 1.258 1_554 S
O1023 Mn1008 2.162 . S
O1023 C1011 1.281 . S
O1024 Mn1008 2.297 . S
O1024 C1011 1.236 . S
N1025 Mn1009 2.282 . S
N1025 C1026 1.328 . S
N1025 C1030 1.318 . S
C1026 N1025 1.328 . S
C1026 C1027 1.457 . S
C1026 H1031 0.929 . S
C1027 C1026 1.457 . S
C1027 C1028 1.291 . S
C1027 H1040 0.931 . S
C1028 C1027 1.291 . S
C1028 C1029 1.373 . S
C1028 H1041 0.929 . S
C1029 C1028 1.373 . S
C1029 C1030 1.396 . S
C1029 C1036 1.403 . S
C1030 C1020 1.476 . S
C1030 N1025 1.318 . S
C1030 C1029 1.396 . S
H1031 C1026 0.929 . S
O1032 Mn1008 2.385 . S
O1032 C1010 1.234 . S
O1033 Mn1008 2.209 . S
O1033 Mn1009 2.215 1_554 S
O1033 C1010 1.283 . S
O1034 Mn1008 2.094 . S
O1034 C1012 1.275 . S
O1035 Mn1009 2.117 . S
O1035 C1012 1.241 1_556 S
C1036 C1029 1.403 . S
C1036 C1037 1.399 . S
C1036 H1042 0.929 . S
C1037 C1017 1.449 . S
C1037 C1036 1.399 . S
C1037 H1043 0.930 . S
H1038 C1018 0.931 . S
H1039 C1019 0.930 . S
H1040 C1027 0.931 . S
H1041 C1028 0.929 . S
H1042 C1036 0.929 . S
H1043 C1037 0.930 . S
Mn1044 O1049 2.095 . S
Mn1044 O1059 2.162 . S
Mn1044 O1060 2.297 . S
Mn1044 O1068 2.385 . S
Mn1044 O1069 2.209 . S
Mn1044 O1070 2.094 . S
Mn1045 O1050 2.121 . S
Mn1045 N1052 2.257 1_655 S
Mn1045 N1061 2.282 . S
Mn1045 O1069 2.215 . S
Mn1045 O1071 2.117 . S
C1046 O1068 1.234 . S
C1046 O1069 1.283 . S
C1047 O1059 1.281 . S
C1047 O1060 1.236 . S
C1048 O1070 1.240 . S
C1048 O1071 1.264 . S
O1049 Mn1044 2.095 . S
O1049 C1058 1.250 . S
O1050 Mn1045 2.121 . S
O1050 C1058 1.258 . S
C1051 N1052 1.326 . S
C1051 C1055 1.460 . S
C1051 H1057 0.929 . S
N1052 Mn1045 2.257 1_455 S
N1052 C1051 1.326 . S
N1052 C1056 1.362 . S
C1053 C1054 1.258 . S
C1053 C1056 1.431 . S
C1053 C1073 1.449 . S
C1054 C1053 1.258 . S
C1054 C1055 1.477 . S
C1054 H1074 0.931 . S
C1055 C1051 1.460 . S
C1055 C1054 1.477 . S
C1055 H1075 0.930 . S
C1056 N1052 1.362 . S
C1056 C1053 1.431 . S
C1056 C1066 1.476 . S
H1057 C1051 0.929 . S
C1058 O1049 1.250 . S
C1058 O1050 1.258 . S
O1059 Mn1044 2.162 . S
O1059 C1047 1.281 . S
O1060 Mn1044 2.297 . S
O1060 C1047 1.236 . S
N1061 Mn1045 2.282 . S
N1061 C1062 1.328 . S
N1061 C1066 1.318 1_655 S
C1062 N1061 1.328 . S
C1062 C1063 1.457 . S
C1062 H1067 0.929 . S
C1063 C1062 1.457 . S
C1063 C1064 1.291 1_655 S
C1063 H1076 0.931 . S
C1064 C1063 1.291 1_455 S
C1064 C1065 1.373 . S
C1064 H1077 0.929 . S
C1065 C1064 1.373 . S
C1065 C1066 1.396 . S
C1065 C1072 1.403 . S
C1066 C1056 1.476 . S
C1066 N1061 1.318 1_455 S
C1066 C1065 1.396 . S
H1067 C1062 0.929 . S
O1068 Mn1044 2.385 . S
O1068 C1046 1.234 . S
O1069 Mn1044 2.209 . S
O1069 Mn1045 2.215 . S
O1069 C1046 1.283 . S
O1070 Mn1044 2.094 . S
O1070 C1048 1.240 . S
O1071 Mn1045 2.117 . S
O1071 C1048 1.264 . S
C1072 C1065 1.403 . S
C1072 C1073 1.399 . S
C1072 H1078 0.929 . S
C1073 C1053 1.449 . S
C1073 C1072 1.399 . S
C1073 H1079 0.930 . S
H1074 C1054 0.931 . S
H1075 C1055 0.930 . S
H1076 C1063 0.931 . S
H1077 C1064 0.929 . S
H1078 C1072 0.929 . S
H1079 C1073 0.930 . S
Mn1080 O1085 2.095 . S
Mn1080 O1095 2.162 . S
Mn1080 O1096 2.297 . S
Mn1080 O1104 2.385 1_455 S
Mn1080 O1105 2.209 . S
Mn1080 O1106 2.094 . S
Mn1081 O1086 2.121 . S
Mn1081 N1088 2.257 . S
Mn1081 N1097 2.282 1_455 S
Mn1081 O1105 2.215 . S
Mn1081 O1107 2.117 . S
C1082 O1104 1.234 1_455 S
C1082 O1105 1.283 . S
C1083 O1095 1.281 . S
C1083 O1096 1.236 . S
C1084 O1106 1.240 . S
C1084 O1107 1.264 . S
O1085 Mn1080 2.095 . S
O1085 C1094 1.250 . S
O1086 Mn1081 2.121 . S
O1086 C1094 1.258 . S
C1087 N1088 1.326 . S
C1087 C1091 1.460 . S
C1087 H1093 0.929 . S
N1088 Mn1081 2.257 . S
N1088 C1087 1.326 . S
N1088 C1092 1.362 . S
C1089 C1090 1.258 . S
C1089 C1092 1.431 . S
C1089 C1109 1.449 1_455 S
C1090 C1089 1.258 . S
C1090 C1091 1.477 . S
C1090 H1110 0.931 . S
C1091 C1087 1.460 . S
C1091 C1090 1.477 . S
C1091 H1111 0.930 . S
C1092 N1088 1.362 . S
C1092 C1089 1.431 . S
C1092 C1102 1.476 1_455 S
H1093 C1087 0.929 . S
C1094 O1085 1.250 . S
C1094 O1086 1.258 . S
O1095 Mn1080 2.162 . S
O1095 C1083 1.281 . S
O1096 Mn1080 2.297 . S
O1096 C1083 1.236 . S
N1097 Mn1081 2.282 1_655 S
N1097 C1098 1.328 . S
N1097 C1102 1.318 . S
C1098 N1097 1.328 . S
C1098 C1099 1.457 . S
C1098 H1103 0.929 . S
C1099 C1098 1.457 . S
C1099 C1100 1.291 . S
C1099 H1112 0.931 . S
C1100 C1099 1.291 . S
C1100 C1101 1.373 . S
C1100 H1113 0.929 . S
C1101 C1100 1.373 . S
C1101 C1102 1.396 . S
C1101 C1108 1.403 . S
C1102 C1092 1.476 1_655 S
C1102 N1097 1.318 . S
C1102 C1101 1.396 . S
H1103 C1098 0.929 . S
O1104 Mn1080 2.385 1_655 S
O1104 C1082 1.234 1_655 S
O1105 Mn1080 2.209 . S
O1105 Mn1081 2.215 . S
O1105 C1082 1.283 . S
O1106 Mn1080 2.094 . S
O1106 C1084 1.240 . S
O1107 Mn1081 2.117 . S
O1107 C1084 1.264 . S
C1108 C1101 1.403 . S
C1108 C1109 1.399 . S
C1108 H1114 0.929 . S
C1109 C1089 1.449 1_655 S
C1109 C1108 1.399 . S
C1109 H1115 0.930 . S
H1110 C1090 0.931 . S
H1111 C1091 0.930 . S
H1112 C1099 0.931 . S
H1113 C1100 0.929 . S
H1114 C1108 0.929 . S
H1115 C1109 0.930 . S
Mn1116 O1121 2.095 . S
Mn1116 O1131 2.162 . S
Mn1116 O1132 2.297 . S
Mn1116 O1140 2.385 . S
Mn1116 O1141 2.209 . S
Mn1116 O1142 2.094 . S
Mn1117 O1122 2.121 . S
Mn1117 N1124 2.257 . S
Mn1117 N1133 2.282 . S
Mn1117 O1141 2.215 . S
Mn1117 O1143 2.117 . S
C1118 O1140 1.234 . S
C1118 O1141 1.283 . S
C1119 O1131 1.281 . S
C1119 O1132 1.236 . S
C1120 O1142 1.240 . S
C1120 O1143 1.264 . S
O1121 Mn1116 2.095 . S
O1121 C1130 1.250 . S
O1122 Mn1117 2.121 . S
O1122 C1130 1.258 . S
C1123 N1124 1.326 . S
C1123 C1127 1.460 . S
C1123 H1129 0.929 . S
N1124 Mn1117 2.257 . S
N1124 C1123 1.326 . S
N1124 C1128 1.362 . S
C1125 C1126 1.258 . S
C1125 C1128 1.431 . S
C1125 C1145 1.449 . S
C1126 C1125 1.258 . S
C1126 C1127 1.477 . S
C1126 H1146 0.931 . S
C1127 C1123 1.460 . S
C1127 C1126 1.477 . S
C1127 H1147 0.930 . S
C1128 N1124 1.362 . S
C1128 C1125 1.431 . S
C1128 C1138 1.476 . S
H1129 C1123 0.929 . S
C1130 O1121 1.250 . S
C1130 O1122 1.258 . S
O1131 Mn1116 2.162 . S
O1131 C1119 1.281 . S
O1132 Mn1116 2.297 . S
O1132 C1119 1.236 . S
N1133 Mn1117 2.282 . S
N1133 C1134 1.328 . S
N1133 C1138 1.318 . S
C1134 N1133 1.328 . S
C1134 C1135 1.457 . S
C1134 H1139 0.929 . S
C1135 C1134 1.457 . S
C1135 C1136 1.291 . S
C1135 H1148 0.931 . S
C1136 C1135 1.291 . S
C1136 C1137 1.373 . S
C1136 H1149 0.929 . S
C1137 C1136 1.373 . S
C1137 C1138 1.396 . S
C1137 C1144 1.403 . S
C1138 C1128 1.476 . S
C1138 N1133 1.318 . S
C1138 C1137 1.396 . S
H1139 C1134 0.929 . S
O1140 Mn1116 2.385 . S
O1140 C1118 1.234 . S
O1141 Mn1116 2.209 . S
O1141 Mn1117 2.215 . S
O1141 C1118 1.283 . S
O1142 Mn1116 2.094 . S
O1142 C1120 1.240 . S
O1143 Mn1117 2.117 . S
O1143 C1120 1.264 . S
C1144 C1137 1.403 . S
C1144 C1145 1.399 . S
C1144 H1150 0.929 . S
C1145 C1125 1.449 . S
C1145 C1144 1.399 . S
C1145 H1151 0.930 . S
H1146 C1126 0.931 . S
H1147 C1127 0.930 . S
H1148 C1135 0.931 . S
H1149 C1136 0.929 . S
H1150 C1144 0.929 . S
H1151 C1145 0.930 . S
C292 C4 1.383 1_656 S
C904 C40 1.385 . S
C364 C76 1.385 . S
C976 C112 1.385 . S
C436 C148 1.385 1_655 S
C184 C1048 1.385 . S
C220 C508 1.383 1_556 S
C256 C1120 1.385 . S
C616 C328 1.385 . S
C688 C400 1.385 . S
C472 C760 1.385 . S
C544 C832 1.385 . S
C580 C868 1.385 1_565 S
C940 C652 1.383 1_466 S
C724 C1012 1.383 1_546 S
C1084 C796 1.385 1_445 S
C650 C2 1.523 1_655 S
C686 C38 1.523 1_455 S
C74 C578 1.523 . S
C110 C614 1.523 . S
C794 C146 1.523 1_655 S
C182 C830 1.523 . S
C722 C218 1.523 . S
C758 C254 1.523 1_455 S
C290 C938 1.523 1_655 S
C974 C326 1.523 1_655 S
C362 C866 1.523 . S
C398 C902 1.523 . S
C434 C1082 1.523 1_655 S
C470 C1118 1.523 . S
C1010 C506 1.523 . S
C1046 C542 1.523 1_655 S
C230 C14 1.544 1_556 S
C266 C50 1.543 1_545 S
C158 C86 1.544 . S
C122 C194 1.543 1_545 S
C518 C302 1.544 1_554 S
C554 C338 1.543 1_565 S
C446 C374 1.544 . S
C482 C410 1.543 1_545 S
C806 C590 1.544 . S
C842 C626 1.543 . S
C662 C734 1.544 1_554 S
C698 C770 1.543 . S
C1094 C878 1.544 . S
C1130 C914 1.543 . S
C950 C1022 1.544 1_556 S
C986 C1058 1.543 . S
C3 C759 1.552 . S
C795 C39 1.552 . S
C831 C75 1.552 . S
C111 C723 1.552 . S
C687 C147 1.552 . S
C183 C579 1.552 . S
C615 C219 1.552 . S
C255 C651 1.552 . S
C1047 C291 1.552 . S
C1083 C327 1.552 . S
C363 C1119 1.552 . S
C1011 C399 1.552 . S
C975 C435 1.552 . S
C471 C867 1.552 . S
C903 C507 1.552 . S
C543 C939 1.552 . S
