# Generated by pormake.
# Topology wgp, (5)-cn, num edge types: 1
# Building blocks:
#     Node 0, Type 0, BuildingBlock: XOMCOT_clean_sbu_0, # of connection points: 5
#     Node 1, Type 0, BuildingBlock: XOMCOT_clean_sbu_0, # of connection points: 5
#     Node 2, Type 0, BuildingBlock: XOMCOT_clean_sbu_0, # of connection points: 5
#     Node 3, Type 0, BuildingBlock: XOMCOT_clean_sbu_0, # of connection points: 5
#     Node 4, Type 0, BuildingBlock: XOMCOT_clean_sbu_0, # of connection points: 5
#     Node 5, Type 0, BuildingBlock: XOMCOT_clean_sbu_0, # of connection points: 5
#     Node 6, Type 0, BuildingBlock: XOMCOT_clean_sbu_0, # of connection points: 5
#     Node 7, Type 0, BuildingBlock: XOMCOT_clean_sbu_0, # of connection points: 5
#     Node 8, Type 0, BuildingBlock: XOMCOT_clean_sbu_0, # of connection points: 5
#     Node 9, Type 0, BuildingBlock: XOMCOT_clean_sbu_0, # of connection points: 5
#     Node 10, Type 0, BuildingBlock: XOMCOT_clean_sbu_0, # of connection points: 5
#     Node 11, Type 0, BuildingBlock: XOMCOT_clean_sbu_0, # of connection points: 5
#     Node 12, Type 0, BuildingBlock: XOMCOT_clean_sbu_0, # of connection points: 5
#     Node 13, Type 0, BuildingBlock: XOMCOT_clean_sbu_0, # of connection points: 5
#     Node 14, Type 0, BuildingBlock: XOMCOT_clean_sbu_0, # of connection points: 5
#     Node 15, Type 0, BuildingBlock: XOMCOT_clean_sbu_0, # of connection points: 5
#     Node 16, Type 0, BuildingBlock: XOMCOT_clean_sbu_0, # of connection points: 5
#     Node 17, Type 0, BuildingBlock: XOMCOT_clean_sbu_0, # of connection points: 5
#     Node 18, Type 0, BuildingBlock: XOMCOT_clean_sbu_0, # of connection points: 5
#     Node 19, Type 0, BuildingBlock: XOMCOT_clean_sbu_0, # of connection points: 5
#     Node 20, Type 0, BuildingBlock: XOMCOT_clean_sbu_0, # of connection points: 5
#     Node 21, Type 0, BuildingBlock: XOMCOT_clean_sbu_0, # of connection points: 5
#     Node 22, Type 0, BuildingBlock: XOMCOT_clean_sbu_0, # of connection points: 5
#     Node 23, Type 0, BuildingBlock: XOMCOT_clean_sbu_0, # of connection points: 5
#     Node 24, Type 0, BuildingBlock: XOMCOT_clean_sbu_0, # of connection points: 5
#     Node 25, Type 0, BuildingBlock: XOMCOT_clean_sbu_0, # of connection points: 5
#     Node 26, Type 0, BuildingBlock: XOMCOT_clean_sbu_0, # of connection points: 5
#     Node 27, Type 0, BuildingBlock: XOMCOT_clean_sbu_0, # of connection points: 5
#     Node 28, Type 0, BuildingBlock: XOMCOT_clean_sbu_0, # of connection points: 5
#     Node 29, Type 0, BuildingBlock: XOMCOT_clean_sbu_0, # of connection points: 5
#     Node 30, Type 0, BuildingBlock: XOMCOT_clean_sbu_0, # of connection points: 5
#     Node 31, Type 0, BuildingBlock: XOMCOT_clean_sbu_0, # of connection points: 5
#     Edge 32, Type (0, 0), None
#     Edge 33, Type (0, 0), None
#     Edge 34, Type (0, 0), None
#     Edge 35, Type (0, 0), None
#     Edge 36, Type (0, 0), None
#     Edge 37, Type (0, 0), None
#     Edge 38, Type (0, 0), None
#     Edge 39, Type (0, 0), None
#     Edge 40, Type (0, 0), None
#     Edge 41, Type (0, 0), None
#     Edge 42, Type (0, 0), None
#     Edge 43, Type (0, 0), None
#     Edge 44, Type (0, 0), None
#     Edge 45, Type (0, 0), None
#     Edge 46, Type (0, 0), None
#     Edge 47, Type (0, 0), None
#     Edge 48, Type (0, 0), None
#     Edge 49, Type (0, 0), None
#     Edge 50, Type (0, 0), None
#     Edge 51, Type (0, 0), None
#     Edge 52, Type (0, 0), None
#     Edge 53, Type (0, 0), None
#     Edge 54, Type (0, 0), None
#     Edge 55, Type (0, 0), None
#     Edge 56, Type (0, 0), None
#     Edge 57, Type (0, 0), None
#     Edge 58, Type (0, 0), None
#     Edge 59, Type (0, 0), None
#     Edge 60, Type (0, 0), None
#     Edge 61, Type (0, 0), None
#     Edge 62, Type (0, 0), None
#     Edge 63, Type (0, 0), None
#     Edge 64, Type (0, 0), None
#     Edge 65, Type (0, 0), None
#     Edge 66, Type (0, 0), None
#     Edge 67, Type (0, 0), None
#     Edge 68, Type (0, 0), None
#     Edge 69, Type (0, 0), None
#     Edge 70, Type (0, 0), None
#     Edge 71, Type (0, 0), None
#     Edge 72, Type (0, 0), None
#     Edge 73, Type (0, 0), None
#     Edge 74, Type (0, 0), None
#     Edge 75, Type (0, 0), None
#     Edge 76, Type (0, 0), None
#     Edge 77, Type (0, 0), None
#     Edge 78, Type (0, 0), None
#     Edge 79, Type (0, 0), None
#     Edge 80, Type (0, 0), None
#     Edge 81, Type (0, 0), None
#     Edge 82, Type (0, 0), None
#     Edge 83, Type (0, 0), None
#     Edge 84, Type (0, 0), None
#     Edge 85, Type (0, 0), None
#     Edge 86, Type (0, 0), None
#     Edge 87, Type (0, 0), None
#     Edge 88, Type (0, 0), None
#     Edge 89, Type (0, 0), None
#     Edge 90, Type (0, 0), None
#     Edge 91, Type (0, 0), None
#     Edge 92, Type (0, 0), None
#     Edge 93, Type (0, 0), None
#     Edge 94, Type (0, 0), None
#     Edge 95, Type (0, 0), None
#     Edge 96, Type (0, 0), None
#     Edge 97, Type (0, 0), None
#     Edge 98, Type (0, 0), None
#     Edge 99, Type (0, 0), None
#     Edge 100, Type (0, 0), None
#     Edge 101, Type (0, 0), None
#     Edge 102, Type (0, 0), None
#     Edge 103, Type (0, 0), None
#     Edge 104, Type (0, 0), None
#     Edge 105, Type (0, 0), None
#     Edge 106, Type (0, 0), None
#     Edge 107, Type (0, 0), None
#     Edge 108, Type (0, 0), None
#     Edge 109, Type (0, 0), None
#     Edge 110, Type (0, 0), None
#     Edge 111, Type (0, 0), None
# Relax obj value: 0.205
# Max RMSD: 0.189
# Mean RMSD: 0.189
data_MOF--net-wgp--node1-XOMCOT_clean_sbu_0--edge1-none
_symmetry_space_group_name_H-M    P1
_symmetry_Int_Tables_number       1
_symmetry_cell_setting            triclinic
loop_
_symmetry_equiv_pos_as_xyz
'x, y, z'
_cell_length_a     16.446905
_cell_length_b     16.446785
_cell_length_c     58.98768
_cell_angle_alpha  90.060564
_cell_angle_beta   90.062257
_cell_angle_gamma 90.003055
loop_
_atom_site_label
_atom_site_type_symbol
_atom_site_fract_x
_atom_site_fract_y
_atom_site_fract_z
_atom_type_partial_charge
Co0 Co 0.37171 0.17317 0.09331 0.0
C1 C 0.39107 1.00089 0.1032 0.0
C2 C 0.50431 1.05184 0.0925 0.0
C3 C 0.51007 0.96806 0.09192 0.0
N4 N 0.42876 0.07236 0.09936 0.0
N5 N 0.43804 0.93695 0.09855 0.0
H6 H 0.3267 0.99384 0.1057 0.0
H7 H 0.54858 0.09374 0.08566 0.0
C8 C 0.51741 0.30142 0.09141 0.0
O9 O 0.4721 0.36138 0.08391 0.0
N10 N 0.30755 0.26896 0.08643 0.0
C11 C 0.24881 0.26608 0.07025 0.0
C12 C 0.19086 0.32354 0.0744 0.0
C13 C 0.28246 0.3283 0.10064 0.0
N14 N 0.21126 0.36168 0.09364 0.0
C15 C 0.34479 0.08427 0.05288 0.0
C16 C 0.38264 0.20941 0.02358 0.0
C17 C 0.33638 0.14354 0.01569 0.0
C18 C 0.32171 0.07833 0.03024 0.0
C19 C 0.40654 0.21205 0.04634 0.0
N20 N 0.38253 0.15245 0.06099 0.0
H21 H 0.32423 1.03751 0.06428 0.0
H22 H 0.43548 0.26626 0.05255 0.0
H23 H 0.24337 0.2203 0.05724 0.0
H24 H 0.31366 0.34464 0.11613 0.0
O25 O 0.26734 0.11936 0.09803 0.0
O26 O 0.33897 0.17805 0.12512 0.0
O27 O 0.48481 0.23133 0.09539 0.0
C28 C 0.27488 0.13579 0.11944 0.0
H29 H 0.55954 0.93339 0.08465 0.0
H30 H 0.13834 0.33685 0.06399 0.0
H31 H 0.39655 0.26019 0.01256 0.0
H32 H 0.28684 1.0261 0.02464 0.0
Co33 Co 0.18716 0.11445 0.34005 0.0
C34 C 0.35828 0.14094 0.34994 0.0
C35 C 0.30319 0.25252 0.33939 0.0
C36 C 0.38653 0.26232 0.33957 0.0
N37 N 0.2857 0.17554 0.34567 0.0
N38 N 0.4203 0.19134 0.34606 0.0
H39 H 0.36767 0.07679 0.35248 0.0
H40 H 0.26003 0.29579 0.33268 0.0
C41 C 0.06409 0.26188 0.3457 0.0
O42 O 1.01391 0.2212 0.35872 0.0
N43 N 0.09345 1.04662 0.33387 0.0
C44 C 0.09772 0.98417 0.31886 0.0
C45 C 1.0383 0.92854 0.32329 0.0
C46 C 1.03197 1.02587 0.34783 0.0
N47 N 0.99775 0.95421 0.34162 0.0
C48 C 0.2778 0.0779 0.30036 0.0
C49 C 0.15284 0.11112 0.27038 0.0
C50 C 0.21923 0.06437 0.2631 0.0
C51 C 0.28415 1.0516 0.27798 0.0
C52 C 0.14969 0.13812 0.29285 0.0
N53 N 0.20948 0.11685 0.3078 0.0
H54 H 0.32455 0.05984 0.31213 0.0
H55 H 0.0951 0.16781 0.2988 0.0
H56 H 0.14485 0.97542 0.30639 0.0
H57 H 1.01442 0.06043 0.36264 0.0
O58 O 0.24237 1.01312 0.34715 0.0
O59 O 0.18085 0.08959 0.37259 0.0
O60 O 0.12716 0.22594 0.33737 0.0
C61 C 0.22441 1.02483 0.36824 0.0
H62 H 0.41953 0.31414 0.33302 0.0
H63 H 1.02503 0.87431 0.31358 0.0
H64 H 0.10241 0.12367 0.25909 0.0
H65 H 0.3368 1.01662 0.27281 0.0
Co66 Co 0.25491 0.93969 0.59037 0.0
C67 C 0.22659 0.10918 0.60186 0.0
C68 C 0.11564 1.05409 0.59074 0.0
C69 C 0.10511 0.13724 0.59157 0.0
N70 N 0.19282 1.03682 0.59684 0.0
N71 N 0.17587 0.17117 0.59826 0.0
H72 H 0.29064 0.11894 0.60447 0.0
H73 H 0.07289 1.01128 0.58358 0.0
C74 C 0.1079 0.81555 0.59574 0.0
O75 O 0.14833 0.76558 0.6089 0.0
N76 N 0.32329 0.84712 0.58346 0.0
C77 C 0.38593 0.85295 0.5686 0.0
C78 C 0.44021 0.79143 0.57222 0.0
C79 C 0.34235 0.78262 0.59651 0.0
N80 N 0.41323 0.74803 0.58987 0.0
C81 C 0.2893 1.03336 0.55083 0.0
C82 C 0.25435 0.9099 0.52049 0.0
C83 C 0.30003 0.9769 0.51315 0.0
C84 C 0.31372 1.04112 0.52826 0.0
C85 C 0.22944 0.90528 0.5431 0.0
N86 N 0.25134 0.96437 0.5582 0.0
H87 H 0.30759 0.07966 0.56276 0.0
H88 H 0.20066 0.85009 0.54894 0.0
H89 H 0.39528 0.90205 0.55677 0.0
H90 H 0.30725 0.76315 0.611 0.0
O91 O 0.356 0.99583 0.59783 0.0
O92 O 0.28043 0.93077 0.62274 0.0
O93 O 0.14389 0.87868 0.58746 0.0
C94 C 0.34438 0.97593 0.61879 0.0
H95 H 1.05321 0.17028 0.58505 0.0
H96 H 0.49448 0.77893 0.56248 0.0
H97 H 0.24119 0.85987 0.5091 0.0
H98 H 0.34799 0.0942 0.52309 0.0
Co99 Co 0.42097 0.99708 0.84362 0.0
C100 C 0.25038 0.9757 0.85524 0.0
C101 C 0.3013 0.86318 0.84389 0.0
C102 C 0.21762 0.85665 0.84398 0.0
N103 N 0.32169 0.93893 0.8506 0.0
N104 N 0.18639 0.92843 0.85085 0.0
H105 H 0.24295 1.03995 0.85788 0.0
H106 H 0.34283 0.8195 0.83657 0.0
C107 C 0.5503 0.85193 0.84138 0.0
O108 O 0.61003 0.89711 0.83371 0.0
N109 N 0.51554 0.06186 0.83594 0.0
C110 C 0.5108 0.12098 0.81996 0.0
C111 C 0.57057 0.17742 0.82333 0.0
C112 C 0.57825 0.08497 0.84925 0.0
N113 N 0.61203 0.15541 0.84187 0.0
C114 C 0.32902 1.02189 0.80339 0.0
C115 C 0.45292 0.98259 0.77378 0.0
C116 C 0.38655 1.02795 0.76584 0.0
C117 C 0.32191 1.04342 0.78058 0.0
C118 C 0.45683 0.96055 0.79665 0.0
N119 N 0.39782 0.98508 0.81141 0.0
H120 H 0.28258 1.04243 0.81494 0.0
H121 H 0.51157 0.93245 0.80278 0.0
H122 H 0.46279 0.12721 0.8076 0.0
H123 H 0.59679 1.05291 0.86438 0.0
O124 O 0.366 0.10114 0.8487 0.0
O125 O 0.42856 1.03047 0.87526 0.0
O126 O 0.48026 0.88453 0.84544 0.0
C127 C 0.38454 0.09374 0.86999 0.0
H128 H 0.18285 0.80719 0.83672 0.0
H129 H 0.58295 0.23009 0.81291 0.0
H130 H 0.50336 0.96813 0.76268 0.0
H131 H 0.26931 0.07763 0.77499 0.0
Co132 Co 0.36649 0.9434 0.41232 0.0
C133 C 0.388 0.11396 0.40069 0.0
C134 C 0.50051 0.06296 0.41202 0.0
C135 C 0.50712 0.14663 0.41191 0.0
N136 N 0.42471 1.04263 0.40533 0.0
N137 N 0.43536 0.17792 0.40504 0.0
H138 H 0.32374 0.12145 0.39807 0.0
H139 H 0.54417 1.02141 0.41933 0.0
C140 C 0.51159 0.814 0.41455 0.0
O141 O 0.46636 0.7542 0.42216 0.0
N142 N 0.30166 0.84886 0.42 0.0
C143 C 0.24248 0.85365 0.43596 0.0
C144 C 0.18608 0.79385 0.4326 0.0
C145 C 0.27862 0.7861 0.4067 0.0
N146 N 0.20818 0.75232 0.41407 0.0
C147 C 0.3417 1.03539 0.45254 0.0
C148 C 0.38083 0.91144 0.48216 0.0
C149 C 0.33554 0.97787 0.4901 0.0
C150 C 0.32016 1.04253 0.47535 0.0
C151 C 0.4029 0.90751 0.45929 0.0
N152 N 0.37845 0.96655 0.44453 0.0
H153 H 0.32121 0.08185 0.44099 0.0
H154 H 0.43094 0.85274 0.45316 0.0
H155 H 0.2362 0.9017 0.44831 0.0
H156 H 0.31075 0.76752 0.39158 0.0
O157 O 0.26247 0.99842 0.40723 0.0
O158 O 0.33317 0.93579 0.38068 0.0
O159 O 0.47902 0.88407 0.41053 0.0
C160 C 0.26992 0.97986 0.38594 0.0
H161 H 0.55666 0.18138 0.41914 0.0
H162 H 0.13338 0.78149 0.44299 0.0
H163 H 0.39522 0.861 0.49326 0.0
H164 H 0.28599 0.09516 0.48094 0.0
Co165 Co 0.42467 0.10891 0.66557 0.0
C166 C 0.2552 0.13755 0.65411 0.0
C167 C 0.31046 0.24835 0.66529 0.0
C168 C 0.22733 0.25902 0.66447 0.0
N169 N 0.32761 0.17118 0.65914 0.0
N170 N 0.19329 0.18835 0.65773 0.0
H171 H 0.24535 0.07353 0.65147 0.0
H172 H 0.35334 0.29099 0.67247 0.0
C173 C 0.54865 0.25594 0.66009 0.0
O174 O 0.59814 0.21572 0.64674 0.0
N175 N 0.51715 1.04037 0.67242 0.0
C176 C 0.51128 0.9776 0.68724 0.0
C177 C 0.57287 0.92341 0.68362 0.0
C178 C 0.58175 1.02149 0.65939 0.0
N179 N 0.61636 0.95058 0.666 0.0
C180 C 0.33106 0.07447 0.70512 0.0
C181 C 0.45466 0.10904 0.73544 0.0
C182 C 0.38758 0.06348 0.74278 0.0
C183 C 0.32331 1.04997 0.72768 0.0
C184 C 0.45929 0.13402 0.71284 0.0
N185 N 0.4001 0.11233 0.69775 0.0
H186 H 0.28469 1.05633 0.69319 0.0
H187 H 0.51451 0.16272 0.707 0.0
H188 H 0.46212 0.96814 0.69905 0.0
H189 H 0.60129 1.05676 0.64495 0.0
O190 O 0.36836 1.00794 0.65809 0.0
O191 O 0.43344 0.08354 0.63318 0.0
O192 O 0.48584 0.21982 0.66852 0.0
C193 C 0.38819 1.01966 0.63713 0.0
H194 H 0.19436 0.31093 0.67101 0.0
H195 H 0.58537 0.86907 0.69333 0.0
H196 H 0.50474 0.12206 0.74683 0.0
H197 H 0.27016 1.0158 0.73285 0.0
Co198 Co 0.24988 0.17651 0.91586 0.0
C199 C 0.22343 1.00537 0.90598 0.0
C200 C 0.11186 0.06044 0.91653 0.0
C201 C 0.10208 0.97709 0.91636 0.0
N202 N 0.18882 0.07794 0.91025 0.0
N203 N 0.17306 0.94334 0.90987 0.0
H204 H 0.28758 0.996 0.90344 0.0
H205 H 0.06858 0.10359 0.92324 0.0
C206 C 0.10247 0.29962 0.91023 0.0
O207 O 0.1432 0.3499 0.89725 0.0
N208 N 0.31769 0.27024 0.92203 0.0
C209 C 0.38012 0.266 0.93705 0.0
C210 C 0.43576 0.3254 0.93261 0.0
C211 C 0.33846 0.33169 0.90806 0.0
N212 N 0.41012 0.36591 0.91427 0.0
C213 C 0.2864 0.08589 0.95556 0.0
C214 C 0.25313 0.21085 0.98552 0.0
C215 C 0.29986 0.14446 0.99281 0.0
C216 C 0.31266 0.07954 0.97794 0.0
C217 C 0.22617 0.214 0.96305 0.0
N218 N 0.24747 0.15422 0.94811 0.0
H219 H 0.30448 1.03914 0.94378 0.0
H220 H 0.1965 0.2686 0.9571 0.0
H221 H 0.38886 0.21889 0.94952 0.0
H222 H 0.30392 0.34921 0.89324 0.0
O223 O 0.35124 0.12131 0.90877 0.0
O224 O 0.27476 0.18279 0.88332 0.0
O225 O 0.13838 0.23649 0.91852 0.0
C226 C 0.33951 0.13923 0.88768 0.0
H227 H 1.05029 0.94408 0.92293 0.0
H228 H 0.49 0.33868 0.94232 0.0
H229 H 0.24057 0.26128 0.99682 0.0
H230 H 0.34763 1.02689 0.98312 0.0
Co231 Co 0.19066 0.99237 0.1626 0.0
C232 C 0.36294 0.9729 0.15274 0.0
C233 C 0.31194 0.85973 0.16347 0.0
C234 C 0.39573 0.85395 0.16406 0.0
N235 N 0.29145 0.93526 0.15658 0.0
N236 N 0.42686 0.92593 0.1574 0.0
H237 H 0.37002 1.03727 0.15022 0.0
H238 H 0.27003 0.8155 0.17032 0.0
C239 C 0.0624 0.84665 0.16449 0.0
O240 O 1.00241 0.89192 0.17199 0.0
N241 N 0.09488 1.05659 0.16946 0.0
C242 C 0.09777 0.11537 0.18562 0.0
C243 C 1.04028 0.17329 0.18147 0.0
C244 C 1.03552 0.08164 0.15525 0.0
N245 N 1.00212 0.15284 0.16224 0.0
C246 C 0.27949 1.01929 0.20304 0.0
C247 C 0.15425 0.98161 0.23233 0.0
C248 C 0.22015 1.02782 0.24023 0.0
C249 C 0.28541 1.04241 0.22569 0.0
C250 C 0.15164 0.95767 0.20957 0.0
N251 N 0.2113 0.98159 0.19493 0.0
H252 H 0.3263 1.03978 0.19165 0.0
H253 H 0.09741 0.92878 0.20336 0.0
H254 H 0.14356 0.12084 0.19864 0.0
H255 H 1.01916 1.05038 0.13976 0.0
O256 O 0.24453 0.09671 0.15788 0.0
O257 O 0.18586 1.02504 0.13079 0.0
O258 O 0.13248 0.87928 0.16052 0.0
C259 C 0.22816 0.0891 0.13647 0.0
H260 H 0.43037 0.8045 0.17135 0.0
H261 H 1.02696 0.22582 0.19187 0.0
H262 H 0.10344 0.96778 0.24334 0.0
H263 H 0.33765 0.07723 0.23129 0.0
Co264 Co 0.74265 0.94113 0.91262 0.0
C265 C 0.72324 0.11342 0.90275 0.0
C266 C 0.61005 0.06245 0.91348 0.0
C267 C 0.60427 0.14622 0.91406 0.0
N268 N 0.68559 1.04194 0.9066 0.0
N269 N 0.67626 0.17735 0.9074 0.0
H270 H 0.78761 0.12048 0.90024 0.0
H271 H 0.5658 1.02054 0.92032 0.0
C272 C 0.59687 0.81292 0.91452 0.0
O273 O 0.64216 0.75288 0.92198 0.0
N274 N 0.80682 0.84531 0.91948 0.0
C275 C 0.86558 0.84815 0.93564 0.0
C276 C 0.92353 0.79071 0.93147 0.0
C277 C 0.83191 0.78603 0.90525 0.0
N278 N 0.90312 0.75263 0.91223 0.0
C279 C 0.76965 1.02998 0.95306 0.0
C280 C 0.73179 0.90482 0.98235 0.0
C281 C 0.77801 0.97072 0.99025 0.0
C282 C 0.7927 1.03593 0.9757 0.0
C283 C 0.70793 0.90218 0.95959 0.0
N284 N 0.73191 0.96179 0.94495 0.0
H285 H 0.79019 0.07674 0.94166 0.0
H286 H 0.67902 0.84795 0.95338 0.0
H287 H 0.87104 0.89388 0.94867 0.0
H288 H 0.8007 0.76974 0.88975 0.0
O289 O 0.84701 0.99495 0.90788 0.0
O290 O 0.77531 0.93631 0.88081 0.0
O291 O 0.62952 0.88301 0.91056 0.0
C292 C 0.83942 0.97856 0.88647 0.0
H293 H 0.5548 0.18088 0.92133 0.0
H294 H 0.97605 0.77736 0.94188 0.0
H295 H 0.71789 0.85404 0.99337 0.0
H296 H 0.82753 0.08816 0.9813 0.0
Co297 Co 0.92691 0.99958 0.6659 0.0
C298 C 0.75581 0.97283 0.65604 0.0
C299 C 0.81109 0.86129 0.66657 0.0
C300 C 0.72775 0.85134 0.6664 0.0
N301 N 0.82844 0.93833 0.66031 0.0
N302 N 0.69392 0.92232 0.65995 0.0
H303 H 0.74632 1.03695 0.65349 0.0
H304 H 0.85434 0.81806 0.67326 0.0
C305 C 1.04973 0.85208 0.6601 0.0
O306 O 0.09917 0.89247 0.6468 0.0
N307 N 1.02051 0.06755 0.67206 0.0
C308 C 1.01614 0.13016 0.68701 0.0
C309 C 0.07575 0.18561 0.68261 0.0
C310 C 0.08222 0.08801 0.65814 0.0
N311 N 0.11655 0.15959 0.66437 0.0
C312 C 0.83623 1.03622 0.70558 0.0
C313 C 0.96129 1.00343 0.73556 0.0
C314 C 0.89483 1.05009 0.74283 0.0
C315 C 0.82987 0.06265 0.72795 0.0
C316 C 0.96446 0.97629 0.71311 0.0
N317 N 0.90461 0.99733 0.69816 0.0
H318 H 0.78944 1.05413 0.69381 0.0
H319 H 1.0191 0.94666 0.70717 0.0
H320 H 0.96883 0.1391 0.69942 0.0
H321 H 0.09986 1.05331 0.64337 0.0
O322 O 0.87155 0.10079 0.65876 0.0
O323 O 0.93317 1.0243 0.63335 0.0
O324 O 0.9871 0.8882 0.66863 0.0
C325 C 0.88952 0.08902 0.63768 0.0
H326 H 0.69482 0.79942 0.67293 0.0
H327 H 0.08893 0.23998 0.69228 0.0
H328 H 1.01177 0.99104 0.74686 0.0
H329 H 0.77716 0.09756 0.73311 0.0
Co330 Co 0.85896 0.17401 0.41557 0.0
C331 C 0.88733 1.00453 0.40406 0.0
C332 C 0.99822 0.05959 0.41525 0.0
C333 C 1.00875 0.97644 0.41441 0.0
N334 N 0.92108 0.07688 0.4091 0.0
N335 N 0.93802 0.94252 0.40768 0.0
H336 H 0.82329 0.99477 0.40143 0.0
H337 H 1.04093 0.10239 0.42243 0.0
C338 C 1.00603 0.29794 0.4101 0.0
O339 O 0.96573 0.34752 0.39679 0.0
N340 N 0.79057 0.26658 0.42245 0.0
C341 C 0.7279 0.26077 0.4373 0.0
C342 C 0.67363 0.32229 0.43367 0.0
C343 C 0.77156 0.33107 0.40939 0.0
N344 N 0.70066 0.36566 0.41602 0.0
C345 C 0.82452 0.08031 0.4551 0.0
C346 C 0.85938 0.20373 0.48545 0.0
C347 C 0.81373 0.1367 0.49278 0.0
C348 C 0.80008 0.07251 0.47767 0.0
C349 C 0.8843 0.20841 0.46285 0.0
N350 N 0.86246 0.14932 0.44774 0.0
H351 H 0.80627 1.03401 0.44316 0.0
H352 H 0.91307 0.26361 0.45701 0.0
H353 H 0.71852 0.21168 0.44914 0.0
H354 H 0.80669 0.35051 0.39492 0.0
O355 O 0.7579 0.11785 0.4081 0.0
O356 O 0.83351 0.18291 0.38319 0.0
O357 O 0.96995 0.23505 0.4185 0.0
C358 C 0.76956 0.13775 0.38714 0.0
H359 H 0.0606 0.94339 0.42096 0.0
H360 H 0.61933 0.33481 0.4434 0.0
H361 H 0.8725 0.25376 0.49685 0.0
H362 H 0.76583 1.0194 0.48283 0.0
Co363 Co 0.69317 0.11708 0.16236 0.0
C364 C 0.86375 0.13848 0.15075 0.0
C365 C 0.81274 0.25113 0.16199 0.0
C366 C 0.89642 0.25779 0.16186 0.0
N367 N 0.79242 0.17524 0.15537 0.0
N368 N 0.92766 0.18593 0.15507 0.0
H369 H 0.87126 0.07421 0.14817 0.0
H370 H 0.77118 0.29489 0.16925 0.0
C371 C 0.5638 0.26221 0.16458 0.0
O372 O 0.50397 0.21698 0.17217 0.0
N373 N 0.59861 1.05229 0.17004 0.0
C374 C 0.60337 0.99312 0.18601 0.0
C375 C 0.54348 0.93678 0.18267 0.0
C376 C 0.5358 1.0293 0.15675 0.0
N377 N 0.50191 0.95897 0.16417 0.0
C378 C 0.78516 0.09221 0.20258 0.0
C379 C 0.66121 0.1313 0.23219 0.0
C380 C 0.7276 0.08593 0.24012 0.0
C381 C 0.79226 0.07058 0.22537 0.0
C382 C 0.65731 0.15346 0.20933 0.0
N383 N 0.71635 0.12902 0.19457 0.0
H384 H 0.83161 0.07172 0.19102 0.0
H385 H 0.60256 0.18156 0.2032 0.0
H386 H 0.65147 0.98678 0.19834 0.0
H387 H 0.51729 0.06136 0.14162 0.0
O388 O 0.74813 1.01304 0.15726 0.0
O389 O 0.68553 0.08376 0.13072 0.0
O390 O 0.63388 0.22963 0.16057 0.0
C391 C 0.72959 1.02049 0.13597 0.0
H392 H 0.9312 0.30744 0.16903 0.0
H393 H 0.53116 0.88404 0.19306 0.0
H394 H 0.61076 0.14567 0.24329 0.0
H395 H 0.84487 1.03635 0.23096 0.0
Co396 Co 0.74728 0.17024 0.5936 0.0
C397 C 0.7258 0.99971 0.60527 0.0
C398 C 0.61328 1.05069 0.59394 0.0
C399 C 0.60668 0.96702 0.59405 0.0
N400 N 0.68908 0.07103 0.60062 0.0
N401 N 0.67845 0.93574 0.60091 0.0
H402 H 0.79006 0.99224 0.60789 0.0
H403 H 0.56961 0.09222 0.58662 0.0
C404 C 0.6022 0.29967 0.59136 0.0
O405 O 0.64744 0.35942 0.58372 0.0
N406 N 0.8121 0.26475 0.5859 0.0
C407 C 0.87125 0.25993 0.56993 0.0
C408 C 0.92765 0.31975 0.57327 0.0
C409 C 0.83514 0.32755 0.59918 0.0
N410 N 0.90557 0.36132 0.59179 0.0
C411 C 0.77203 0.07818 0.55339 0.0
C412 C 0.73284 0.20209 0.52377 0.0
C413 C 0.77818 0.1357 0.51583 0.0
C414 C 0.79359 0.07104 0.53058 0.0
C415 C 0.71078 0.20603 0.54663 0.0
N416 N 0.73526 0.14701 0.5614 0.0
H417 H 0.79254 1.03174 0.56495 0.0
H418 H 0.68271 0.26079 0.55276 0.0
H419 H 0.87753 0.21184 0.55759 0.0
H420 H 0.80303 0.34617 0.6143 0.0
O421 O 0.85132 0.11523 0.59869 0.0
O422 O 0.78068 0.17794 0.62524 0.0
O423 O 0.63476 0.2296 0.5954 0.0
C424 C 0.84392 0.13387 0.61997 0.0
H425 H 0.55715 0.93226 0.58682 0.0
H426 H 0.98034 0.33208 0.56287 0.0
H427 H 0.71843 0.25253 0.51267 0.0
H428 H 0.82778 1.01842 0.52499 0.0
Co429 Co 0.68946 1.00468 0.34035 0.0
C430 C 0.85898 0.97632 0.3518 0.0
C431 C 0.80383 0.86533 0.34071 0.0
C432 C 0.88699 0.85475 0.34153 0.0
N433 N 0.7866 0.94256 0.3468 0.0
N434 N 0.9209 0.92555 0.34818 0.0
H435 H 0.86878 1.04037 0.35441 0.0
H436 H 0.76097 0.82256 0.33358 0.0
C437 C 0.56548 0.85764 0.3458 0.0
O438 O 0.51588 0.89794 0.3591 0.0
N439 N 0.5969 0.07309 0.33348 0.0
C440 C 0.60271 0.13582 0.31865 0.0
C441 C 0.5411 0.19 0.32227 0.0
C442 C 0.53232 0.09197 0.34652 0.0
N443 N 0.49763 0.16279 0.33988 0.0
C444 C 0.7831 1.03925 0.30083 0.0
C445 C 0.65958 1.00459 0.27048 0.0
C446 C 0.72659 1.05029 0.26316 0.0
C447 C 0.79083 0.06383 0.27827 0.0
C448 C 0.65498 0.97951 0.29307 0.0
N449 N 0.7141 1.00127 0.30818 0.0
H450 H 0.82942 0.05744 0.31276 0.0
H451 H 0.59979 0.9507 0.29891 0.0
H452 H 0.65187 0.14532 0.30685 0.0
H453 H 0.51289 1.05681 0.361 0.0
O454 O 0.74563 0.10573 0.34784 0.0
O455 O 0.6806 1.03006 0.37274 0.0
O456 O 0.6284 0.89369 0.33741 0.0
C457 C 0.72579 0.09399 0.36879 0.0
H458 H 0.92002 0.8028 0.33503 0.0
H459 H 0.52862 0.24438 0.31257 0.0
H460 H 0.60953 0.99154 0.25909 0.0
H461 H 0.84393 0.09811 0.27311 0.0
Co462 Co 0.8643 0.93783 0.09009 0.0
C463 C 0.89076 0.10897 0.09999 0.0
C464 C 1.00234 1.05388 0.08943 0.0
C465 C 1.01211 0.13722 0.08959 0.0
N466 N 0.92537 1.03638 0.09572 0.0
N467 N 0.94114 0.17098 0.09608 0.0
H468 H 0.82662 0.11834 0.10253 0.0
H469 H 1.0456 1.01072 0.08272 0.0
C470 C 1.01169 0.81457 0.09567 0.0
O471 O 0.97089 0.76405 0.10855 0.0
N472 N 0.79648 0.84412 0.08391 0.0
C473 C 0.73407 0.8484 0.06888 0.0
C474 C 0.67842 0.78901 0.0733 0.0
C475 C 0.77567 0.78264 0.09786 0.0
N476 N 0.70402 0.74844 0.09163 0.0
C477 C 0.82786 1.02844 0.05039 0.0
C478 C 0.8612 0.90346 0.02044 0.0
C479 C 0.81448 0.96983 0.01314 0.0
C480 C 0.80164 1.03477 0.028 0.0
C481 C 0.88812 0.90033 0.04291 0.0
N482 N 0.86678 0.96013 0.05785 0.0
H483 H 0.80975 0.0752 0.06216 0.0
H484 H 0.91779 0.84575 0.04887 0.0
H485 H 0.72537 0.89554 0.05641 0.0
H486 H 0.81018 0.76508 0.11268 0.0
O487 O 0.76295 0.99304 0.09718 0.0
O488 O 0.83939 0.93151 0.12263 0.0
O489 O 0.97582 0.87786 0.08745 0.0
C490 C 0.77464 0.97507 0.11827 0.0
H491 H 0.06391 0.17021 0.08302 0.0
H492 H 0.62421 0.77575 0.06358 0.0
H493 H 0.8738 0.85302 0.00915 0.0
H494 H 0.76667 0.08741 0.02282 0.0
Co495 Co 0.92346 0.12209 0.84332 0.0
C496 C 0.75115 0.14129 0.85318 0.0
C497 C 0.80204 0.25466 0.84255 0.0
C498 C 0.71825 0.26041 0.84198 0.0
N499 N 0.8226 0.17905 0.84937 0.0
N500 N 0.68723 0.18828 0.84855 0.0
H501 H 0.74411 0.0769 0.85567 0.0
H502 H 0.84393 0.29902 0.83576 0.0
C503 C 1.05159 0.26792 0.84141 0.0
O504 O 0.11155 0.22267 0.83388 0.0
N505 N 1.01931 0.05801 0.83642 0.0
C506 C 1.0165 0.99933 0.82023 0.0
C507 C 0.07406 0.94144 0.82435 0.0
C508 C 0.07869 1.03293 0.85062 0.0
N509 N 0.11222 0.96187 0.84357 0.0
C510 C 0.83456 0.09509 0.80289 0.0
C511 C 0.95964 0.13308 0.77358 0.0
C512 C 0.89384 0.08671 0.76569 0.0
C513 C 0.82864 0.07198 0.78024 0.0
C514 C 0.96225 0.157 0.79634 0.0
N515 N 0.9027 0.13292 0.81099 0.0
H516 H 0.78783 0.07448 0.81428 0.0
H517 H 1.01643 0.18602 0.80254 0.0
H518 H 0.97069 0.99385 0.80722 0.0
H519 H 0.09493 0.06401 0.86615 0.0
O520 O 0.86972 1.01768 0.84803 0.0
O521 O 0.92838 0.08936 0.87512 0.0
O522 O 0.98153 0.23524 0.8454 0.0
C523 C 0.88611 1.02528 0.86945 0.0
H524 H 0.68354 0.30994 0.83476 0.0
H525 H 0.08735 0.88892 0.81394 0.0
H526 H 1.0104 0.14703 0.76256 0.0
H527 H 0.77647 1.03704 0.77465 0.0
Co528 Co 0.87202 0.67277 0.59326 0.0
C529 C 0.89136 0.50046 0.6031 0.0
C530 C 1.00465 0.55143 0.59243 0.0
C531 C 1.01046 0.46765 0.59185 0.0
N532 N 0.92905 0.57193 0.59927 0.0
N533 N 0.93838 0.43658 0.59845 0.0
H534 H 0.82699 0.49338 0.60561 0.0
H535 H 1.04896 0.59335 0.58563 0.0
C536 C 1.01784 0.80092 0.59137 0.0
O537 O 0.97257 0.86101 0.58394 0.0
N538 N 0.80787 0.76863 0.58641 0.0
C539 C 0.74906 0.76581 0.57026 0.0
C540 C 0.69121 0.82337 0.57441 0.0
C541 C 0.78292 0.828 0.60063 0.0
N542 N 0.7118 0.86153 0.59363 0.0
C543 C 0.84488 0.58395 0.55283 0.0
C544 C 0.88251 0.70917 0.52353 0.0
C545 C 0.83621 0.6433 0.51565 0.0
C546 C 0.82165 0.57805 0.5302 0.0
C547 C 0.90657 0.71176 0.54628 0.0
N548 N 0.88267 0.65212 0.56093 0.0
H549 H 0.82439 0.53717 0.56423 0.0
H550 H 0.93553 0.76597 0.55249 0.0
H551 H 0.74349 0.71999 0.55726 0.0
H552 H 0.81412 0.84424 0.61614 0.0
O553 O 0.76765 0.619 0.59801 0.0
O554 O 0.83945 0.67761 0.62508 0.0
O555 O 0.98517 0.73082 0.5953 0.0
C556 C 0.77532 0.63538 0.61942 0.0
H557 H 0.06 0.43297 0.58463 0.0
H558 H 0.63862 0.83666 0.56403 0.0
H559 H 0.89632 0.75997 0.51251 0.0
H560 H 0.78676 0.52583 0.52461 0.0
Co561 Co 0.68797 0.61444 0.84001 0.0
C562 C 0.85905 0.6412 0.84992 0.0
C563 C 0.80384 0.75263 0.83929 0.0
C564 C 0.88718 0.76252 0.83947 0.0
N565 N 0.78644 0.67568 0.84561 0.0
N566 N 0.92101 0.69163 0.846 0.0
H567 H 0.86849 0.57709 0.85249 0.0
H568 H 0.76065 0.79579 0.83254 0.0
C569 C 0.56518 0.76195 0.84579 0.0
O570 O 0.51565 0.72153 0.85906 0.0
N571 N 0.59435 0.54648 0.83385 0.0
C572 C 0.59873 0.48389 0.81889 0.0
C573 C 0.53922 0.42835 0.82332 0.0
C574 C 0.53274 0.52592 0.84778 0.0
N575 N 0.49851 0.45424 0.8416 0.0
C576 C 0.77869 0.5778 0.80033 0.0
C577 C 0.65366 0.6106 0.77035 0.0
C578 C 0.72013 0.56393 0.76308 0.0
C579 C 0.78508 0.55137 0.77796 0.0
C580 C 0.65048 0.63774 0.7928 0.0
N581 N 0.71031 0.61668 0.80775 0.0
H582 H 0.82548 0.55991 0.81211 0.0
H583 H 0.59583 0.66737 0.79873 0.0
H584 H 0.64596 0.47502 0.80646 0.0
H585 H 0.51507 0.56064 0.86255 0.0
O586 O 0.7433 0.51321 0.84715 0.0
O587 O 0.68166 0.58973 0.87255 0.0
O588 O 0.62782 0.72583 0.83728 0.0
C589 C 0.72529 0.52499 0.86823 0.0
H590 H 0.92012 0.81433 0.83288 0.0
H591 H 0.526 0.37404 0.81364 0.0
H592 H 0.6032 0.623 0.75904 0.0
H593 H 0.83779 0.51646 0.7728 0.0
Co594 Co 0.75446 0.44013 0.09032 0.0
C595 C 0.72612 0.60964 0.10178 0.0
C596 C 0.61514 0.55452 0.09067 0.0
C597 C 0.60455 0.63768 0.09151 0.0
N598 N 0.69235 0.53727 0.09676 0.0
N599 N 0.67535 0.67157 0.09818 0.0
H600 H 0.79016 0.61943 0.10439 0.0
H601 H 0.57237 0.51169 0.08353 0.0
C602 C 0.60741 0.31626 0.09582 0.0
O603 O 0.64768 0.26686 0.10918 0.0
N604 N 0.82286 0.34754 0.08346 0.0
C605 C 0.88561 0.35333 0.06863 0.0
C606 C 0.93977 0.29172 0.07226 0.0
C607 C 0.84172 0.28298 0.0965 0.0
N608 N 0.91255 0.24828 0.08987 0.0
C609 C 0.78909 0.53376 0.05079 0.0
C610 C 0.75449 0.41024 0.02044 0.0
C611 C 0.80022 0.47724 0.01313 0.0
C612 C 0.81373 0.54148 0.02824 0.0
C613 C 0.72936 0.40564 0.04303 0.0
N614 N 0.75109 0.46476 0.05814 0.0
H615 H 0.80726 0.58009 0.06272 0.0
H616 H 0.70053 0.35046 0.04886 0.0
H617 H 0.89512 0.40248 0.05682 0.0
H618 H 0.80656 0.26358 0.11098 0.0
O619 O 0.85551 0.49628 0.09781 0.0
O620 O 0.77981 0.43127 0.1227 0.0
O621 O 0.64349 0.37906 0.08737 0.0
C622 C 0.84376 0.47643 0.11877 0.0
H623 H 0.55261 0.67074 0.08502 0.0
H624 H 0.99417 0.27924 0.06257 0.0
H625 H 0.74146 0.36018 0.00905 0.0
H626 H 0.84802 0.59457 0.02309 0.0
Co627 Co 0.91998 0.49704 0.34356 0.0
C628 C 0.74942 0.47556 0.3552 0.0
C629 C 0.80038 0.36307 0.34384 0.0
C630 C 0.71671 0.35649 0.34395 0.0
N631 N 0.82074 0.43884 0.35055 0.0
N632 N 0.68545 0.42824 0.35084 0.0
H633 H 0.74196 0.53981 0.35785 0.0
H634 H 0.84191 0.31942 0.33651 0.0
C635 C 1.04934 0.35191 0.34134 0.0
O636 O 0.10919 0.39714 0.33376 0.0
N637 N 1.01454 0.56186 0.33589 0.0
C638 C 1.00975 0.62107 0.31994 0.0
C639 C 0.06956 0.67746 0.3233 0.0
C640 C 0.07731 0.58487 0.34919 0.0
N641 N 0.11109 0.65533 0.34183 0.0
C642 C 0.828 0.52194 0.30334 0.0
C643 C 0.95198 0.48293 0.27373 0.0
C644 C 0.88558 0.52828 0.2658 0.0
C645 C 0.8209 0.5436 0.28054 0.0
C646 C 0.95588 0.46075 0.29658 0.0
N647 N 0.89682 0.48514 0.31135 0.0
H648 H 0.78153 0.54238 0.3149 0.0
H649 H 1.01064 0.43267 0.30272 0.0
H650 H 0.96169 0.62738 0.30759 0.0
H651 H 0.09589 0.55273 0.36431 0.0
O652 O 0.865 0.60107 0.34867 0.0
O653 O 0.92763 0.53031 0.3752 0.0
O654 O 0.97926 0.38449 0.34534 0.0
C655 C 0.88359 0.5936 0.36996 0.0
H656 H 0.68194 0.30699 0.33671 0.0
H657 H 0.08191 0.73019 0.31291 0.0
H658 H 1.00244 0.46858 0.26263 0.0
H659 H 0.76828 0.5778 0.27496 0.0
Co660 Co 0.86731 0.44373 0.91234 0.0
C661 C 0.88877 0.61429 0.90072 0.0
C662 C 1.00139 0.56327 0.91197 0.0
C663 C 1.00807 0.64694 0.91184 0.0
N664 N 0.9255 0.54296 0.90534 0.0
N665 N 0.93622 0.67819 0.90505 0.0
H666 H 0.8245 0.62181 0.89811 0.0
H667 H 1.04512 0.52171 0.91925 0.0
C668 C 1.01243 0.31436 0.91458 0.0
O669 O 0.9672 0.2545 0.92215 0.0
N670 N 0.80251 0.34919 0.92003 0.0
C671 C 0.74327 0.35401 0.93598 0.0
C672 C 0.68697 0.29407 0.93264 0.0
C673 C 0.77962 0.28631 0.90676 0.0
N674 N 0.70927 0.25242 0.91416 0.0
C675 C 0.8424 0.53579 0.95255 0.0
C676 C 0.88131 0.41181 0.98218 0.0
C677 C 0.83593 0.47822 0.99009 0.0
C678 C 0.82067 0.5429 0.97534 0.0
C679 C 0.90356 0.40791 0.95933 0.0
N680 N 0.87921 0.46695 0.94455 0.0
H681 H 0.82198 0.58224 0.94099 0.0
H682 H 0.93165 0.35314 0.9532 0.0
H683 H 0.73686 0.40216 0.94829 0.0
H684 H 0.81175 0.26774 0.89165 0.0
O685 O 0.76329 0.4987 0.90723 0.0
O686 O 0.83405 0.43603 0.8807 0.0
O687 O 0.97986 0.38445 0.91058 0.0
C688 C 0.77079 0.4801 0.88595 0.0
H689 H 0.0577 0.68171 0.91902 0.0
H690 H 0.63419 0.28179 0.94301 0.0
H691 H 0.89561 0.36135 0.99328 0.0
H692 H 0.78646 0.59552 0.98092 0.0
Co693 Co 0.92375 0.60956 0.16556 0.0
C694 C 0.75426 0.638 0.15407 0.0
C695 C 0.80935 0.74882 0.1653 0.0
C696 C 0.7262 0.75936 0.16448 0.0
N697 N 0.82662 0.67171 0.15911 0.0
N698 N 0.69227 0.68867 0.15772 0.0
H699 H 0.7445 0.57398 0.1514 0.0
H700 H 0.85216 0.79148 0.17249 0.0
C701 C 1.0476 0.75664 0.16006 0.0
O702 O 0.09704 0.71642 0.1467 0.0
N703 N 1.01631 0.54113 0.17242 0.0
C704 C 1.01049 0.47838 0.18724 0.0
C705 C 0.07202 0.42415 0.18359 0.0
C706 C 0.08083 0.5222 0.15936 0.0
N707 N 0.11542 0.45126 0.16596 0.0
C708 C 0.8301 0.575 0.20508 0.0
C709 C 0.95362 0.6096 0.23543 0.0
C710 C 0.88659 0.56392 0.24275 0.0
C711 C 0.82235 0.55041 0.22764 0.0
C712 C 0.95824 0.63467 0.21284 0.0
N713 N 0.89912 0.61294 0.19773 0.0
H714 H 0.78376 0.55684 0.19315 0.0
H715 H 1.01344 0.66346 0.20701 0.0
H716 H 0.96138 0.46893 0.19907 0.0
H717 H 0.1003 0.55742 0.1449 0.0
O718 O 0.86757 0.50852 0.15807 0.0
O719 O 0.93261 0.58419 0.13317 0.0
O720 O 0.98482 0.72052 0.1685 0.0
C721 C 0.88744 0.52025 0.13711 0.0
H722 H 0.69316 0.81117 0.17105 0.0
H723 H 0.08453 0.3698 0.1933 0.0
H724 H 1.00367 0.62263 0.24683 0.0
H725 H 0.76923 0.51616 0.2328 0.0
Co726 Co 0.74909 0.67626 0.41587 0.0
C727 C 0.72265 0.50511 0.406 0.0
C728 C 0.61101 0.56021 0.41651 0.0
C729 C 0.6012 0.47686 0.41635 0.0
N730 N 0.68802 0.57769 0.41025 0.0
N731 N 0.67224 0.44314 0.40991 0.0
H732 H 0.78679 0.49572 0.40346 0.0
H733 H 0.56769 0.60339 0.42319 0.0
C734 C 0.6016 0.79919 0.41018 0.0
O735 O 0.64221 0.84915 0.39707 0.0
N736 N 0.81691 0.76997 0.42205 0.0
C737 C 0.87941 0.76568 0.43704 0.0
C738 C 0.93496 0.8252 0.43264 0.0
C739 C 0.83754 0.83156 0.40811 0.0
N740 N 0.90912 0.86587 0.41435 0.0
C741 C 0.78577 0.5856 0.45555 0.0
C742 C 0.75273 0.71058 0.48553 0.0
C743 C 0.79954 0.64422 0.49279 0.0
C744 C 0.81222 0.57928 0.47792 0.0
C745 C 0.72558 0.7137 0.46307 0.0
N746 N 0.74677 0.65391 0.44812 0.0
H747 H 0.80379 0.53885 0.44377 0.0
H748 H 0.69584 0.76829 0.45714 0.0
H749 H 0.88827 0.71844 0.44947 0.0
H750 H 0.80298 0.84911 0.3933 0.0
O751 O 0.85041 0.62107 0.40875 0.0
O752 O 0.77386 0.68262 0.38333 0.0
O753 O 0.6376 0.73626 0.41857 0.0
C754 C 0.83862 0.63904 0.38767 0.0
H755 H 0.54935 0.44385 0.42288 0.0
H756 H 0.98927 0.83839 0.44232 0.0
H757 H 0.74024 0.76103 0.49683 0.0
H758 H 0.84724 0.52664 0.48307 0.0
Co759 Co 0.69143 0.49183 0.6626 0.0
C760 C 0.86372 0.47263 0.65269 0.0
C761 C 0.81291 0.35936 0.66341 0.0
C762 C 0.89669 0.35368 0.66398 0.0
N763 N 0.7923 0.43489 0.65655 0.0
N764 N 0.92772 0.42572 0.65733 0.0
H765 H 0.87071 0.53701 0.65018 0.0
H766 H 0.77107 0.31506 0.67026 0.0
C767 C 0.56338 0.34596 0.66451 0.0
O768 O 0.50337 0.39119 0.67201 0.0
N769 N 0.59555 0.5559 0.66948 0.0
C770 C 0.59835 0.61458 0.68567 0.0
C771 C 0.54091 0.67255 0.68152 0.0
C772 C 0.53626 0.58105 0.65526 0.0
N773 N 0.50286 0.65223 0.66226 0.0
C774 C 0.78035 0.51889 0.70302 0.0
C775 C 0.6553 0.48091 0.73234 0.0
C776 C 0.72111 0.52729 0.74022 0.0
C777 C 0.78629 0.54201 0.72566 0.0
C778 C 0.65267 0.45697 0.70958 0.0
N779 N 0.71221 0.48105 0.69492 0.0
H780 H 0.82708 0.53948 0.69161 0.0
H781 H 0.59849 0.42795 0.70338 0.0
H782 H 0.64409 0.62001 0.6987 0.0
H783 H 0.52001 0.54993 0.63974 0.0
O784 O 0.74513 0.59625 0.65787 0.0
O785 O 0.68648 0.52451 0.63079 0.0
O786 O 0.63342 0.37865 0.66052 0.0
C787 C 0.7287 0.58863 0.63646 0.0
H788 H 0.93142 0.30426 0.67124 0.0
H789 H 0.52758 0.72504 0.69193 0.0
H790 H 0.60455 0.46697 0.74336 0.0
H791 H 0.83847 0.57696 0.73125 0.0
Co792 Co 0.2418 0.44092 0.41261 0.0
C793 C 0.2224 0.61321 0.40275 0.0
C794 C 0.10912 0.56221 0.41342 0.0
C795 C 0.10329 0.64599 0.41399 0.0
N796 N 0.18473 0.54172 0.40658 0.0
N797 N 0.17536 0.67708 0.4074 0.0
H798 H 0.28676 0.6203 0.40024 0.0
H799 H 0.06483 0.52028 0.42022 0.0
C800 C 0.09604 0.31269 0.41451 0.0
O801 O 0.14132 0.25269 0.42199 0.0
N802 N 0.30598 0.34512 0.41948 0.0
C803 C 0.36478 0.34801 0.43563 0.0
C804 C 0.42263 0.29042 0.4315 0.0
C805 C 0.33093 0.28568 0.40528 0.0
N806 N 0.40204 0.25216 0.4123 0.0
C807 C 0.26882 0.52978 0.45304 0.0
C808 C 0.23125 0.40454 0.48234 0.0
C809 C 0.27753 0.47041 0.49022 0.0
C810 C 0.29206 0.53567 0.47568 0.0
C811 C 0.20718 0.40196 0.45958 0.0
N812 N 0.23106 0.4616 0.44494 0.0
H813 H 0.28929 0.57658 0.44164 0.0
H814 H 0.17823 0.34774 0.45338 0.0
H815 H 0.37035 0.39388 0.44862 0.0
H816 H 0.29972 0.26937 0.38978 0.0
O817 O 0.34614 0.49474 0.40787 0.0
O818 O 0.27444 0.43606 0.3808 0.0
O819 O 0.12869 0.38278 0.41054 0.0
C820 C 0.33853 0.47834 0.38646 0.0
H821 H 1.05375 0.68065 0.42122 0.0
H822 H 0.47521 0.27715 0.44189 0.0
H823 H 0.21745 0.35372 0.49335 0.0
H824 H 0.32694 0.5879 0.48126 0.0
Co825 Co 0.42602 0.4997 0.16587 0.0
C826 C 0.25488 0.47332 0.15597 0.0
C827 C 0.30997 0.36162 0.16645 0.0
C828 C 0.22661 0.35182 0.16627 0.0
N829 N 0.32746 0.43866 0.16022 0.0
N830 N 0.1929 0.42289 0.15985 0.0
H831 H 0.2455 0.53747 0.15345 0.0
H832 H 0.35313 0.31827 0.17312 0.0
C833 C 0.54903 0.35224 0.16022 0.0
O834 O 0.59917 0.39291 0.14718 0.0
N835 N 0.51974 0.56748 0.17207 0.0
C836 C 0.51546 0.62993 0.18708 0.0
C837 C 0.57497 0.6855 0.18268 0.0
C838 C 0.58132 0.58817 0.15813 0.0
N839 N 0.61563 0.65973 0.16439 0.0
C840 C 0.33529 0.53633 0.20554 0.0
C841 C 0.46016 0.50306 0.23553 0.0
C842 C 0.3938 0.54986 0.2428 0.0
C843 C 0.32892 0.56266 0.22791 0.0
C844 C 0.46334 0.47602 0.21307 0.0
N845 N 0.4036 0.49732 0.19811 0.0
H846 H 0.28858 0.55443 0.19375 0.0
H847 H 0.51792 0.44629 0.20714 0.0
H848 H 0.46823 0.63875 0.19951 0.0
H849 H 0.59884 0.55367 0.14331 0.0
O850 O 0.37087 0.60105 0.15874 0.0
O851 O 0.43245 0.52453 0.13333 0.0
O852 O 0.48599 0.38819 0.16855 0.0
C853 C 0.38889 0.58931 0.13766 0.0
H854 H 0.1936 0.29993 0.17278 0.0
H855 H 0.58816 0.73979 0.19238 0.0
H856 H 0.51057 0.49049 0.24684 0.0
H857 H 0.27628 0.59768 0.23307 0.0
Co858 Co 0.35977 0.67421 0.91556 0.0
C859 C 0.38804 0.50469 0.90409 0.0
C860 C 0.49906 0.55978 0.91518 0.0
C861 C 0.50962 0.47663 0.91435 0.0
N862 N 0.42184 0.57705 0.9091 0.0
N863 N 0.4388 0.44275 0.9077 0.0
H864 H 0.32399 0.49491 0.90148 0.0
H865 H 0.54186 0.60261 0.92231 0.0
C866 C 0.50682 0.79821 0.91014 0.0
O867 O 0.46645 0.84797 0.89691 0.0
N868 N 0.2914 0.76679 0.92245 0.0
C869 C 0.22869 0.76098 0.93729 0.0
C870 C 0.1745 0.82258 0.93368 0.0
C871 C 0.27247 0.83135 0.90941 0.0
N872 N 0.20166 0.86603 0.91606 0.0
C873 C 0.32517 0.58056 0.95509 0.0
C874 C 0.35984 0.70408 0.98543 0.0
C875 C 0.31406 0.63711 0.99275 0.0
C876 C 0.30052 0.57286 0.97765 0.0
C877 C 0.38498 0.70864 0.96285 0.0
N878 N 0.3632 0.64953 0.94774 0.0
H879 H 0.30697 0.53424 0.94316 0.0
H880 H 0.41384 0.7638 0.95701 0.0
H881 H 0.21922 0.71183 0.9491 0.0
H882 H 0.30758 0.85076 0.89492 0.0
O883 O 0.25869 0.61809 0.90808 0.0
O884 O 0.33436 0.68312 0.88318 0.0
O885 O 0.47079 0.73522 0.9185 0.0
C886 C 0.27039 0.63798 0.88712 0.0
H887 H 0.56157 0.44357 0.92084 0.0
H888 H 0.12014 0.83506 0.94338 0.0
H889 H 0.3729 0.75412 0.99683 0.0
H890 H 0.2662 0.5198 0.9828 0.0
Co891 Co 0.19395 0.61694 0.66228 0.0
C892 C 0.36456 0.63818 0.65067 0.0
C893 C 0.31366 0.75083 0.66194 0.0
C894 C 0.39734 0.75736 0.66186 0.0
N895 N 0.29326 0.67501 0.65528 0.0
N896 N 0.42852 0.68549 0.65505 0.0
H897 H 0.37199 0.57391 0.64805 0.0
H898 H 0.27213 0.79459 0.66922 0.0
C899 C 0.06465 0.76211 0.66453 0.0
O900 O 1.00495 0.71692 0.67221 0.0
N901 N 0.09935 0.55224 0.66998 0.0
C902 C 0.10407 0.49315 0.68597 0.0
C903 C 1.04423 0.43676 0.68263 0.0
C904 C 1.0366 0.52917 0.65668 0.0
N905 N 1.00272 0.45884 0.6641 0.0
C906 C 0.28595 0.59209 0.7025 0.0
C907 C 0.16212 0.63148 0.73212 0.0
C908 C 0.22845 0.58606 0.74006 0.0
C909 C 0.29307 0.57055 0.72531 0.0
C910 C 0.1582 0.65354 0.70926 0.0
N911 N 0.21717 0.62896 0.69449 0.0
H912 H 0.33235 0.57149 0.69095 0.0
H913 H 0.10348 0.68169 0.70313 0.0
H914 H 0.15212 0.48686 0.69832 0.0
H915 H 1.01812 0.56115 0.64153 0.0
O916 O 0.24885 0.51285 0.6572 0.0
O917 O 0.18627 0.58354 0.63065 0.0
O918 O 0.13469 0.72952 0.66046 0.0
C919 C 0.23027 0.52025 0.63592 0.0
H920 H 0.43215 0.80689 0.66908 0.0
H921 H 1.03189 0.38406 0.69303 0.0
H922 H 0.11171 0.64598 0.74323 0.0
H923 H 0.34564 0.53628 0.7309 0.0
Co924 Co 0.24694 0.67062 0.09354 0.0
C925 C 0.22553 0.50003 0.10515 0.0
C926 C 0.11292 0.55101 0.09388 0.0
C927 C 0.10628 0.46734 0.094 0.0
N928 N 0.18878 0.57135 0.10052 0.0
N929 N 0.17812 0.43611 0.10081 0.0
H930 H 0.2898 0.49254 0.10777 0.0
H931 H 0.06918 0.59256 0.0866 0.0
C932 C 0.10175 0.79992 0.09133 0.0
O933 O 0.14698 0.85985 0.0838 0.0
N934 N 0.31172 0.76521 0.08587 0.0
C935 C 0.37093 0.76046 0.06992 0.0
C936 C 0.42725 0.82036 0.07327 0.0
C937 C 0.33466 0.82801 0.09917 0.0
N938 N 0.40502 0.86191 0.09178 0.0
C939 C 0.27193 0.5786 0.05333 0.0
C940 C 0.23299 0.70256 0.0237 0.0
C941 C 0.27836 0.63615 0.01579 0.0
C942 C 0.29364 0.57149 0.03054 0.0
C943 C 0.21074 0.70647 0.04656 0.0
N944 N 0.2351 0.64743 0.06133 0.0
H945 H 0.29236 0.53215 0.0649 0.0
H946 H 0.18264 0.76124 0.05269 0.0
H947 H 0.37732 0.71237 0.05759 0.0
H948 H 0.30257 0.8465 0.1143 0.0
O949 O 0.35098 0.61569 0.09866 0.0
O950 O 0.28014 0.67829 0.12519 0.0
O951 O 0.13436 0.72983 0.0953 0.0
C952 C 0.34343 0.63425 0.11995 0.0
H953 H 1.05667 0.43255 0.08682 0.0
H954 H 0.48002 0.83269 0.0629 0.0
H955 H 0.21868 0.75302 0.0126 0.0
H956 H 0.32786 0.51886 0.02497 0.0
Co957 Co 0.19024 0.505 0.84032 0.0
C958 C 0.35974 0.47649 0.85176 0.0
C959 C 0.30449 0.36557 0.84065 0.0
C960 C 0.38763 0.3549 0.84148 0.0
N961 N 0.28733 0.44279 0.84676 0.0
N962 N 0.42161 0.42566 0.84814 0.0
H963 H 0.36959 0.54051 0.85439 0.0
H964 H 0.26159 0.32285 0.83352 0.0
C965 C 0.06638 0.35792 0.84584 0.0
O966 O 1.01707 0.39809 0.85925 0.0
N967 N 0.09772 0.57348 0.83346 0.0
C968 C 0.10359 0.63626 0.81865 0.0
C969 C 1.04193 0.6904 0.82225 0.0
C970 C 1.03308 0.59229 0.84648 0.0
N971 N 0.99838 0.66311 0.83984 0.0
C972 C 0.28389 0.53953 0.80079 0.0
C973 C 0.16035 0.50491 0.77045 0.0
C974 C 0.22742 0.55051 0.76311 0.0
C975 C 0.29166 0.56404 0.77822 0.0
C976 C 0.15571 0.4799 0.79304 0.0
N977 N 0.21486 0.50161 0.80815 0.0
H978 H 0.33023 0.5577 0.81271 0.0
H979 H 0.1005 0.45116 0.79888 0.0
H980 H 0.1528 0.64579 0.80685 0.0
H981 H 1.01359 0.55707 0.86093 0.0
O982 O 0.24649 0.606 0.84781 0.0
O983 O 0.1814 0.53034 0.87271 0.0
O984 O 0.1291 0.39407 0.83737 0.0
C985 C 0.22663 0.59425 0.86877 0.0
H986 H 0.42061 0.30292 0.83498 0.0
H987 H 1.02948 0.7448 0.81256 0.0
H988 H 0.11029 0.49188 0.75905 0.0
H989 H 0.34479 0.59825 0.77306 0.0
Co990 Co 0.36473 0.43743 0.59 0.0
C991 C 0.39123 0.60858 0.59987 0.0
C992 C 0.50283 0.55345 0.58933 0.0
C993 C 0.51266 0.63681 0.58949 0.0
N994 N 0.42583 0.53599 0.5956 0.0
N995 N 0.44164 0.67054 0.59596 0.0
H996 H 0.3271 0.61799 0.60242 0.0
H997 H 0.54611 0.51027 0.58264 0.0
C998 C 0.51221 0.31454 0.59574 0.0
O999 O 0.47164 0.26474 0.6089 0.0
N1000 N 0.29689 0.34372 0.58385 0.0
C1001 C 0.23435 0.34797 0.56887 0.0
C1002 C 0.17883 0.28845 0.57329 0.0
C1003 C 0.27631 0.28216 0.5978 0.0
N1004 N 0.20472 0.24783 0.59158 0.0
C1005 C 0.32803 0.52806 0.55032 0.0
C1006 C 0.36098 0.40306 0.52034 0.0
C1007 C 0.31422 0.46946 0.51308 0.0
C1008 C 0.30158 0.5344 0.52795 0.0
C1009 C 0.38814 0.39992 0.5428 0.0
N1010 N 0.36699 0.45973 0.55775 0.0
H1011 H 0.31005 0.57483 0.5621 0.0
H1012 H 0.41784 0.34532 0.54873 0.0
H1013 H 0.22547 0.39518 0.55643 0.0
H1014 H 0.3109 0.26465 0.61261 0.0
O1015 O 0.26342 0.49266 0.59713 0.0
O1016 O 0.33998 0.43115 0.62255 0.0
O1017 O 0.47619 0.37739 0.58731 0.0
C1018 C 0.27522 0.47473 0.61821 0.0
H1019 H 0.5645 0.66981 0.58295 0.0
H1020 H 0.1245 0.27522 0.56362 0.0
H1021 H 0.37344 0.35261 0.50904 0.0
H1022 H 0.26659 0.58706 0.5228 0.0
Co1023 Co 0.4225 0.62186 0.34329 0.0
C1024 C 0.25021 0.64115 0.35316 0.0
C1025 C 0.30116 0.75447 0.3425 0.0
C1026 C 0.21737 0.76026 0.34192 0.0
N1027 N 0.32168 0.67887 0.34933 0.0
N1028 N 0.18631 0.68817 0.34851 0.0
H1029 H 0.24314 0.57678 0.35566 0.0
H1030 H 0.34307 0.7988 0.3357 0.0
C1031 C 0.55071 0.76762 0.34139 0.0
O1032 O 0.61071 0.72233 0.33391 0.0
N1033 N 0.51833 0.55774 0.3364 0.0
C1034 C 0.51548 0.49901 0.32022 0.0
C1035 C 0.57304 0.44113 0.32435 0.0
C1036 C 0.57773 0.53271 0.3506 0.0
N1037 N 0.61124 0.46163 0.34356 0.0
C1038 C 0.33359 0.59488 0.30286 0.0
C1039 C 0.45872 0.63274 0.27355 0.0
C1040 C 0.39286 0.58644 0.26567 0.0
C1041 C 0.32765 0.57177 0.28022 0.0
C1042 C 0.46135 0.65667 0.29631 0.0
N1043 N 0.40176 0.63265 0.31096 0.0
H1044 H 0.28684 0.57431 0.31426 0.0
H1045 H 0.51555 0.68563 0.30252 0.0
H1046 H 0.46965 0.4935 0.30722 0.0
H1047 H 0.59399 0.56384 0.36611 0.0
O1048 O 0.36874 0.51747 0.34802 0.0
O1049 O 0.42743 0.58917 0.37509 0.0
O1050 O 0.48061 0.73499 0.34536 0.0
C1051 C 0.38516 0.52508 0.36942 0.0
H1052 H 0.18269 0.8098 0.3347 0.0
H1053 H 0.58632 0.38858 0.31395 0.0
H1054 H 0.50949 0.64663 0.26253 0.0
H1055 H 0.27544 0.53688 0.27462 0.0
loop_
_geom_bond_atom_site_label_1
_geom_bond_atom_site_label_2
_geom_bond_distance
_geom_bond_site_symmetry_2
_ccdc_geom_bond_type
Co0 N4 2.148 . S
Co0 N10 2.128 . S
Co0 N20 2.194 . S
Co0 O25 2.351 . S
Co0 O26 2.155 . S
Co0 O27 2.096 . S
C1 N4 1.301 . S
C1 N5 1.328 1_545 S
C1 H6 0.930 . S
C2 C3 1.333 1_545 S
C2 N4 1.317 . S
C2 H7 0.930 . S
C3 C2 1.333 1_565 S
C3 N5 1.350 . S
C3 H29 0.931 . S
N4 Co0 2.148 . S
N4 C1 1.301 . S
N4 C2 1.317 . S
N5 C1 1.328 1_565 S
N5 C3 1.350 . S
H6 C1 0.930 . S
H7 C2 0.930 . S
C8 O9 1.224 . S
C8 O27 1.247 . S
O9 C8 1.224 . S
N10 Co0 2.128 . S
N10 C11 1.355 . S
N10 C13 1.311 . S
C11 N10 1.355 . S
C11 C12 1.363 . S
C11 H23 0.929 . S
C12 C11 1.363 . S
C12 N14 1.375 . S
C12 H30 0.931 . S
C13 N10 1.311 . S
C13 N14 1.347 . S
C13 H24 0.929 . S
N14 C12 1.375 . S
N14 C13 1.347 . S
C15 C18 1.365 . S
C15 N20 1.328 . S
C15 H21 0.929 . S
C16 C17 1.362 . S
C16 C19 1.378 . S
C16 H31 0.929 . S
C17 C16 1.362 . S
C17 C18 1.366 . S
C18 C15 1.365 . S
C18 C17 1.366 . S
C18 H32 0.930 . S
C19 C16 1.378 . S
C19 N20 1.315 . S
C19 H22 0.930 . S
N20 Co0 2.194 . S
N20 C15 1.328 . S
N20 C19 1.315 . S
H21 C15 0.929 . S
H22 C19 0.930 . S
H23 C11 0.929 . S
H24 C13 0.929 . S
O25 Co0 2.351 . S
O25 C28 1.244 . S
O26 Co0 2.155 . S
O26 C28 1.240 . S
O27 Co0 2.096 . S
O27 C8 1.247 . S
C28 O25 1.244 . S
C28 O26 1.240 . S
H29 C3 0.931 . S
H30 C12 0.931 . S
H31 C16 0.929 . S
H32 C18 0.930 . S
Co33 N37 2.148 . S
Co33 N43 2.128 1_455 S
Co33 N53 2.194 . S
Co33 O58 2.351 1_545 S
Co33 O59 2.155 1_545 S
Co33 O60 2.096 . S
C34 N37 1.301 . S
C34 N38 1.328 . S
C34 H39 0.930 1_545 S
C35 C36 1.333 . S
C35 N37 1.317 . S
C35 H40 0.930 . S
C36 C35 1.333 . S
C36 N38 1.350 . S
C36 H62 0.931 . S
N37 Co33 2.148 . S
N37 C34 1.301 . S
N37 C35 1.317 . S
N38 C34 1.328 . S
N38 C36 1.350 . S
H39 C34 0.930 1_565 S
H40 C35 0.930 . S
C41 O42 1.224 . S
C41 O60 1.247 . S
O42 C41 1.224 . S
N43 Co33 2.128 1_655 S
N43 C44 1.355 1_545 S
N43 C46 1.311 . S
C44 N43 1.355 1_565 S
C44 C45 1.363 . S
C44 H56 0.929 . S
C45 C44 1.363 . S
C45 N47 1.375 1_565 S
C45 H63 0.931 . S
C46 N43 1.311 . S
C46 N47 1.347 . S
C46 H57 0.929 . S
N47 C45 1.375 1_545 S
N47 C46 1.347 . S
C48 C51 1.365 . S
C48 N53 1.328 1_565 S
C48 H54 0.929 . S
C49 C50 1.362 1_545 S
C49 C52 1.378 . S
C49 H64 0.929 . S
C50 C49 1.362 1_565 S
C50 C51 1.366 . S
C51 C48 1.365 . S
C51 C50 1.366 . S
C51 H65 0.930 . S
C52 C49 1.378 . S
C52 N53 1.315 . S
C52 H55 0.930 . S
N53 Co33 2.194 . S
N53 C48 1.328 1_545 S
N53 C52 1.315 . S
H54 C48 0.929 . S
H55 C52 0.930 . S
H56 C44 0.929 . S
H57 C46 0.929 . S
O58 Co33 2.351 1_565 S
O58 C61 1.244 . S
O59 Co33 2.155 1_565 S
O59 C61 1.240 . S
O60 Co33 2.096 . S
O60 C41 1.247 . S
C61 O58 1.244 . S
C61 O59 1.240 . S
H62 C36 0.931 . S
H63 C45 0.931 . S
H64 C49 0.929 . S
H65 C51 0.930 . S
Co66 N70 2.148 . S
Co66 N76 2.128 . S
Co66 N86 2.194 . S
Co66 O91 2.351 . S
Co66 O92 2.155 . S
Co66 O93 2.096 . S
C67 N70 1.301 . S
C67 N71 1.328 1_565 S
C67 H72 0.930 . S
C68 C69 1.333 1_565 S
C68 N70 1.317 . S
C68 H73 0.930 . S
C69 C68 1.333 1_545 S
C69 N71 1.350 . S
C69 H95 0.931 . S
N70 Co66 2.148 . S
N70 C67 1.301 . S
N70 C68 1.317 . S
N71 C67 1.328 1_545 S
N71 C69 1.350 . S
H72 C67 0.930 . S
H73 C68 0.930 . S
C74 O75 1.224 . S
C74 O93 1.247 . S
O75 C74 1.224 . S
N76 Co66 2.128 . S
N76 C77 1.355 . S
N76 C79 1.311 . S
C77 N76 1.355 . S
C77 C78 1.363 . S
C77 H89 0.929 . S
C78 C77 1.363 . S
C78 N80 1.375 . S
C78 H96 0.931 . S
C79 N76 1.311 . S
C79 N80 1.347 . S
C79 H90 0.929 . S
N80 C78 1.375 . S
N80 C79 1.347 . S
C81 C84 1.365 . S
C81 N86 1.328 . S
C81 H87 0.929 . S
C82 C83 1.362 . S
C82 C85 1.378 . S
C82 H97 0.929 . S
C83 C82 1.362 . S
C83 C84 1.366 . S
C84 C81 1.365 . S
C84 C83 1.366 . S
C84 H98 0.930 . S
C85 C82 1.378 . S
C85 N86 1.315 . S
C85 H88 0.930 . S
N86 Co66 2.194 . S
N86 C81 1.328 . S
N86 C85 1.315 . S
H87 C81 0.929 . S
H88 C85 0.930 . S
H89 C77 0.929 . S
H90 C79 0.929 . S
O91 Co66 2.351 . S
O91 C94 1.244 . S
O92 Co66 2.155 . S
O92 C94 1.240 . S
O93 Co66 2.096 . S
O93 C74 1.247 . S
C94 O91 1.244 . S
C94 O92 1.240 . S
H95 C69 0.931 . S
H96 C78 0.931 . S
H97 C82 0.929 . S
H98 C84 0.930 . S
Co99 N103 2.148 . S
Co99 N109 2.128 . S
Co99 N119 2.194 . S
Co99 O124 2.351 1_565 S
Co99 O125 2.155 1_565 S
Co99 O126 2.096 . S
C100 N103 1.301 . S
C100 N104 1.328 . S
C100 H105 0.930 1_565 S
C101 C102 1.333 . S
C101 N103 1.317 . S
C101 H106 0.930 . S
C102 C101 1.333 . S
C102 N104 1.350 . S
C102 H128 0.931 . S
N103 Co99 2.148 . S
N103 C100 1.301 . S
N103 C101 1.317 . S
N104 C100 1.328 . S
N104 C102 1.350 . S
H105 C100 0.930 1_545 S
H106 C101 0.930 . S
C107 O108 1.224 . S
C107 O126 1.247 . S
O108 C107 1.224 . S
N109 Co99 2.128 . S
N109 C110 1.355 1_565 S
N109 C112 1.311 . S
C110 N109 1.355 1_545 S
C110 C111 1.363 . S
C110 H122 0.929 . S
C111 C110 1.363 . S
C111 N113 1.375 1_545 S
C111 H129 0.931 . S
C112 N109 1.311 . S
C112 N113 1.347 . S
C112 H123 0.929 . S
N113 C111 1.375 1_565 S
N113 C112 1.347 . S
C114 C117 1.365 . S
C114 N119 1.328 1_545 S
C114 H120 0.929 . S
C115 C116 1.362 1_565 S
C115 C118 1.378 . S
C115 H130 0.929 . S
C116 C115 1.362 1_545 S
C116 C117 1.366 . S
C117 C114 1.365 . S
C117 C116 1.366 . S
C117 H131 0.930 . S
C118 C115 1.378 . S
C118 N119 1.315 . S
C118 H121 0.930 . S
N119 Co99 2.194 . S
N119 C114 1.328 1_565 S
N119 C118 1.315 . S
H120 C114 0.929 . S
H121 C118 0.930 . S
H122 C110 0.929 . S
H123 C112 0.929 . S
O124 Co99 2.351 1_545 S
O124 C127 1.244 . S
O125 Co99 2.155 1_545 S
O125 C127 1.240 . S
O126 Co99 2.096 . S
O126 C107 1.247 . S
C127 O124 1.244 . S
C127 O125 1.240 . S
H128 C102 0.931 . S
H129 C111 0.931 . S
H130 C115 0.929 . S
H131 C117 0.930 . S
Co132 N136 2.148 . S
Co132 N142 2.128 . S
Co132 N152 2.194 . S
Co132 O157 2.351 . S
Co132 O158 2.155 . S
Co132 O159 2.096 . S
C133 N136 1.301 . S
C133 N137 1.328 1_565 S
C133 H138 0.930 . S
C134 C135 1.333 1_565 S
C134 N136 1.317 . S
C134 H139 0.930 . S
C135 C134 1.333 1_545 S
C135 N137 1.350 . S
C135 H161 0.931 . S
N136 Co132 2.148 . S
N136 C133 1.301 . S
N136 C134 1.317 . S
N137 C133 1.328 1_545 S
N137 C135 1.350 . S
H138 C133 0.930 . S
H139 C134 0.930 . S
C140 O141 1.224 . S
C140 O159 1.247 . S
O141 C140 1.224 . S
N142 Co132 2.128 . S
N142 C143 1.355 . S
N142 C145 1.311 . S
C143 N142 1.355 . S
C143 C144 1.363 . S
C143 H155 0.929 . S
C144 C143 1.363 . S
C144 N146 1.375 . S
C144 H162 0.931 . S
C145 N142 1.311 . S
C145 N146 1.347 . S
C145 H156 0.929 . S
N146 C144 1.375 . S
N146 C145 1.347 . S
C147 C150 1.365 . S
C147 N152 1.328 . S
C147 H153 0.929 . S
C148 C149 1.362 . S
C148 C151 1.378 . S
C148 H163 0.929 . S
C149 C148 1.362 . S
C149 C150 1.366 . S
C150 C147 1.365 . S
C150 C149 1.366 . S
C150 H164 0.930 . S
C151 C148 1.378 . S
C151 N152 1.315 . S
C151 H154 0.930 . S
N152 Co132 2.194 . S
N152 C147 1.328 . S
N152 C151 1.315 . S
H153 C147 0.929 . S
H154 C151 0.930 . S
H155 C143 0.929 . S
H156 C145 0.929 . S
O157 Co132 2.351 . S
O157 C160 1.244 . S
O158 Co132 2.155 . S
O158 C160 1.240 . S
O159 Co132 2.096 . S
O159 C140 1.247 . S
C160 O157 1.244 . S
C160 O158 1.240 . S
H161 C135 0.931 . S
H162 C144 0.931 . S
H163 C148 0.929 . S
H164 C150 0.930 . S
Co165 N169 2.148 . S
Co165 N175 2.128 . S
Co165 N185 2.194 . S
Co165 O190 2.351 1_545 S
Co165 O191 2.155 1_545 S
Co165 O192 2.096 . S
C166 N169 1.301 . S
C166 N170 1.328 . S
C166 H171 0.930 1_545 S
C167 C168 1.333 . S
C167 N169 1.317 . S
C167 H172 0.930 . S
C168 C167 1.333 . S
C168 N170 1.350 . S
C168 H194 0.931 . S
N169 Co165 2.148 . S
N169 C166 1.301 . S
N169 C167 1.317 . S
N170 C166 1.328 . S
N170 C168 1.350 . S
H171 C166 0.930 1_565 S
H172 C167 0.930 . S
C173 O174 1.224 . S
C173 O192 1.247 . S
O174 C173 1.224 . S
N175 Co165 2.128 . S
N175 C176 1.355 1_545 S
N175 C178 1.311 . S
C176 N175 1.355 1_565 S
C176 C177 1.363 . S
C176 H188 0.929 . S
C177 C176 1.363 . S
C177 N179 1.375 1_565 S
C177 H195 0.931 . S
C178 N175 1.311 . S
C178 N179 1.347 . S
C178 H189 0.929 . S
N179 C177 1.375 1_545 S
N179 C178 1.347 . S
C180 C183 1.365 . S
C180 N185 1.328 1_565 S
C180 H186 0.929 . S
C181 C182 1.362 1_545 S
C181 C184 1.378 . S
C181 H196 0.929 . S
C182 C181 1.362 1_565 S
C182 C183 1.366 . S
C183 C180 1.365 . S
C183 C182 1.366 . S
C183 H197 0.930 . S
C184 C181 1.378 . S
C184 N185 1.315 . S
C184 H187 0.930 . S
N185 Co165 2.194 . S
N185 C180 1.328 1_545 S
N185 C184 1.315 . S
H186 C180 0.929 . S
H187 C184 0.930 . S
H188 C176 0.929 . S
H189 C178 0.929 . S
O190 Co165 2.351 1_565 S
O190 C193 1.244 . S
O191 Co165 2.155 1_565 S
O191 C193 1.240 . S
O192 Co165 2.096 . S
O192 C173 1.247 . S
C193 O190 1.244 . S
C193 O191 1.240 . S
H194 C168 0.931 . S
H195 C177 0.931 . S
H196 C181 0.929 . S
H197 C183 0.930 . S
Co198 N202 2.148 . S
Co198 N208 2.128 . S
Co198 N218 2.194 . S
Co198 O223 2.351 . S
Co198 O224 2.155 . S
Co198 O225 2.096 . S
C199 N202 1.301 . S
C199 N203 1.328 1_545 S
C199 H204 0.930 . S
C200 C201 1.333 1_545 S
C200 N202 1.317 . S
C200 H205 0.930 . S
C201 C200 1.333 1_565 S
C201 N203 1.350 . S
C201 H227 0.931 . S
N202 Co198 2.148 . S
N202 C199 1.301 . S
N202 C200 1.317 . S
N203 C199 1.328 1_565 S
N203 C201 1.350 . S
H204 C199 0.930 . S
H205 C200 0.930 . S
C206 O207 1.224 . S
C206 O225 1.247 . S
O207 C206 1.224 . S
N208 Co198 2.128 . S
N208 C209 1.355 . S
N208 C211 1.311 . S
C209 N208 1.355 . S
C209 C210 1.363 . S
C209 H221 0.929 . S
C210 C209 1.363 . S
C210 N212 1.375 . S
C210 H228 0.931 . S
C211 N208 1.311 . S
C211 N212 1.347 . S
C211 H222 0.929 . S
N212 C210 1.375 . S
N212 C211 1.347 . S
C213 C216 1.365 . S
C213 N218 1.328 . S
C213 H219 0.929 . S
C214 C215 1.362 . S
C214 C217 1.378 . S
C214 H229 0.929 . S
C215 C214 1.362 . S
C215 C216 1.366 . S
C216 C213 1.365 . S
C216 C215 1.366 . S
C216 H230 0.930 . S
C217 C214 1.378 . S
C217 N218 1.315 . S
C217 H220 0.930 . S
N218 Co198 2.194 . S
N218 C213 1.328 . S
N218 C217 1.315 . S
H219 C213 0.929 . S
H220 C217 0.930 . S
H221 C209 0.929 . S
H222 C211 0.929 . S
O223 Co198 2.351 . S
O223 C226 1.244 . S
O224 Co198 2.155 . S
O224 C226 1.240 . S
O225 Co198 2.096 . S
O225 C206 1.247 . S
C226 O223 1.244 . S
C226 O224 1.240 . S
H227 C201 0.931 . S
H228 C210 0.931 . S
H229 C214 0.929 . S
H230 C216 0.930 . S
Co231 N235 2.148 . S
Co231 N241 2.128 1_455 S
Co231 N251 2.194 . S
Co231 O256 2.351 1_565 S
Co231 O257 2.155 1_565 S
Co231 O258 2.096 . S
C232 N235 1.301 . S
C232 N236 1.328 . S
C232 H237 0.930 1_565 S
C233 C234 1.333 . S
C233 N235 1.317 . S
C233 H238 0.930 . S
C234 C233 1.333 . S
C234 N236 1.350 . S
C234 H260 0.931 . S
N235 Co231 2.148 . S
N235 C232 1.301 . S
N235 C233 1.317 . S
N236 C232 1.328 . S
N236 C234 1.350 . S
H237 C232 0.930 1_545 S
H238 C233 0.930 . S
C239 O240 1.224 . S
C239 O258 1.247 . S
O240 C239 1.224 . S
N241 Co231 2.128 1_655 S
N241 C242 1.355 1_565 S
N241 C244 1.311 . S
C242 N241 1.355 1_545 S
C242 C243 1.363 . S
C242 H254 0.929 . S
C243 C242 1.363 . S
C243 N245 1.375 1_545 S
C243 H261 0.931 . S
C244 N241 1.311 . S
C244 N245 1.347 . S
C244 H255 0.929 . S
N245 C243 1.375 1_565 S
N245 C244 1.347 . S
C246 C249 1.365 . S
C246 N251 1.328 1_545 S
C246 H252 0.929 . S
C247 C248 1.362 1_565 S
C247 C250 1.378 . S
C247 H262 0.929 . S
C248 C247 1.362 1_545 S
C248 C249 1.366 . S
C249 C246 1.365 . S
C249 C248 1.366 . S
C249 H263 0.930 . S
C250 C247 1.378 . S
C250 N251 1.315 . S
C250 H253 0.930 . S
N251 Co231 2.194 . S
N251 C246 1.328 1_565 S
N251 C250 1.315 . S
H252 C246 0.929 . S
H253 C250 0.930 . S
H254 C242 0.929 . S
H255 C244 0.929 . S
O256 Co231 2.351 1_545 S
O256 C259 1.244 . S
O257 Co231 2.155 1_545 S
O257 C259 1.240 . S
O258 Co231 2.096 . S
O258 C239 1.247 . S
C259 O256 1.244 . S
C259 O257 1.240 . S
H260 C234 0.931 . S
H261 C243 0.931 . S
H262 C247 0.929 . S
H263 C249 0.930 . S
Co264 N268 2.148 . S
Co264 N274 2.128 . S
Co264 N284 2.194 . S
Co264 O289 2.351 . S
Co264 O290 2.155 . S
Co264 O291 2.096 . S
C265 N268 1.301 . S
C265 N269 1.328 1_565 S
C265 H270 0.930 . S
C266 C267 1.333 1_565 S
C266 N268 1.317 . S
C266 H271 0.930 . S
C267 C266 1.333 1_545 S
C267 N269 1.350 . S
C267 H293 0.931 . S
N268 Co264 2.148 . S
N268 C265 1.301 . S
N268 C266 1.317 . S
N269 C265 1.328 1_545 S
N269 C267 1.350 . S
H270 C265 0.930 . S
H271 C266 0.930 . S
C272 O273 1.224 . S
C272 O291 1.247 . S
O273 C272 1.224 . S
N274 Co264 2.128 . S
N274 C275 1.355 . S
N274 C277 1.311 . S
C275 N274 1.355 . S
C275 C276 1.363 . S
C275 H287 0.929 . S
C276 C275 1.363 . S
C276 N278 1.375 . S
C276 H294 0.931 . S
C277 N274 1.311 . S
C277 N278 1.347 . S
C277 H288 0.929 . S
N278 C276 1.375 . S
N278 C277 1.347 . S
C279 C282 1.365 . S
C279 N284 1.328 . S
C279 H285 0.929 . S
C280 C281 1.362 . S
C280 C283 1.378 . S
C280 H295 0.929 . S
C281 C280 1.362 . S
C281 C282 1.366 . S
C282 C279 1.365 . S
C282 C281 1.366 . S
C282 H296 0.930 . S
C283 C280 1.378 . S
C283 N284 1.315 . S
C283 H286 0.930 . S
N284 Co264 2.194 . S
N284 C279 1.328 . S
N284 C283 1.315 . S
H285 C279 0.929 . S
H286 C283 0.930 . S
H287 C275 0.929 . S
H288 C277 0.929 . S
O289 Co264 2.351 . S
O289 C292 1.244 . S
O290 Co264 2.155 . S
O290 C292 1.240 . S
O291 Co264 2.096 . S
O291 C272 1.247 . S
C292 O289 1.244 . S
C292 O290 1.240 . S
H293 C267 0.931 . S
H294 C276 0.931 . S
H295 C280 0.929 . S
H296 C282 0.930 . S
Co297 N301 2.148 . S
Co297 N307 2.128 1_655 S
Co297 N317 2.194 . S
Co297 O322 2.351 1_565 S
Co297 O323 2.155 1_565 S
Co297 O324 2.096 . S
C298 N301 1.301 . S
C298 N302 1.328 . S
C298 H303 0.930 1_565 S
C299 C300 1.333 . S
C299 N301 1.317 . S
C299 H304 0.930 . S
C300 C299 1.333 . S
C300 N302 1.350 . S
C300 H326 0.931 . S
N301 Co297 2.148 . S
N301 C298 1.301 . S
N301 C299 1.317 . S
N302 C298 1.328 . S
N302 C300 1.350 . S
H303 C298 0.930 1_545 S
H304 C299 0.930 . S
C305 O306 1.224 . S
C305 O324 1.247 . S
O306 C305 1.224 . S
N307 Co297 2.128 1_455 S
N307 C308 1.355 1_565 S
N307 C310 1.311 . S
C308 N307 1.355 1_545 S
C308 C309 1.363 . S
C308 H320 0.929 . S
C309 C308 1.363 . S
C309 N311 1.375 1_545 S
C309 H327 0.931 . S
C310 N307 1.311 . S
C310 N311 1.347 . S
C310 H321 0.929 . S
N311 C309 1.375 1_565 S
N311 C310 1.347 . S
C312 C315 1.365 . S
C312 N317 1.328 1_545 S
C312 H318 0.929 . S
C313 C314 1.362 1_565 S
C313 C316 1.378 . S
C313 H328 0.929 . S
C314 C313 1.362 1_545 S
C314 C315 1.366 . S
C315 C312 1.365 . S
C315 C314 1.366 . S
C315 H329 0.930 . S
C316 C313 1.378 . S
C316 N317 1.315 . S
C316 H319 0.930 . S
N317 Co297 2.194 . S
N317 C312 1.328 1_565 S
N317 C316 1.315 . S
H318 C312 0.929 . S
H319 C316 0.930 . S
H320 C308 0.929 . S
H321 C310 0.929 . S
O322 Co297 2.351 1_545 S
O322 C325 1.244 . S
O323 Co297 2.155 1_545 S
O323 C325 1.240 . S
O324 Co297 2.096 . S
O324 C305 1.247 . S
C325 O322 1.244 . S
C325 O323 1.240 . S
H326 C300 0.931 . S
H327 C309 0.931 . S
H328 C313 0.929 . S
H329 C315 0.930 . S
Co330 N334 2.148 . S
Co330 N340 2.128 . S
Co330 N350 2.194 . S
Co330 O355 2.351 . S
Co330 O356 2.155 . S
Co330 O357 2.096 . S
C331 N334 1.301 . S
C331 N335 1.328 1_545 S
C331 H336 0.930 . S
C332 C333 1.333 1_545 S
C332 N334 1.317 . S
C332 H337 0.930 . S
C333 C332 1.333 1_565 S
C333 N335 1.350 . S
C333 H359 0.931 . S
N334 Co330 2.148 . S
N334 C331 1.301 . S
N334 C332 1.317 . S
N335 C331 1.328 1_565 S
N335 C333 1.350 . S
H336 C331 0.930 . S
H337 C332 0.930 . S
C338 O339 1.224 . S
C338 O357 1.247 . S
O339 C338 1.224 . S
N340 Co330 2.128 . S
N340 C341 1.355 . S
N340 C343 1.311 . S
C341 N340 1.355 . S
C341 C342 1.363 . S
C341 H353 0.929 . S
C342 C341 1.363 . S
C342 N344 1.375 . S
C342 H360 0.931 . S
C343 N340 1.311 . S
C343 N344 1.347 . S
C343 H354 0.929 . S
N344 C342 1.375 . S
N344 C343 1.347 . S
C345 C348 1.365 . S
C345 N350 1.328 . S
C345 H351 0.929 . S
C346 C347 1.362 . S
C346 C349 1.378 . S
C346 H361 0.929 . S
C347 C346 1.362 . S
C347 C348 1.366 . S
C348 C345 1.365 . S
C348 C347 1.366 . S
C348 H362 0.930 . S
C349 C346 1.378 . S
C349 N350 1.315 . S
C349 H352 0.930 . S
N350 Co330 2.194 . S
N350 C345 1.328 . S
N350 C349 1.315 . S
H351 C345 0.929 . S
H352 C349 0.930 . S
H353 C341 0.929 . S
H354 C343 0.929 . S
O355 Co330 2.351 . S
O355 C358 1.244 . S
O356 Co330 2.155 . S
O356 C358 1.240 . S
O357 Co330 2.096 . S
O357 C338 1.247 . S
C358 O355 1.244 . S
C358 O356 1.240 . S
H359 C333 0.931 . S
H360 C342 0.931 . S
H361 C346 0.929 . S
H362 C348 0.930 . S
Co363 N367 2.148 . S
Co363 N373 2.128 . S
Co363 N383 2.194 . S
Co363 O388 2.351 1_545 S
Co363 O389 2.155 1_545 S
Co363 O390 2.096 . S
C364 N367 1.301 . S
C364 N368 1.328 . S
C364 H369 0.930 1_545 S
C365 C366 1.333 . S
C365 N367 1.317 . S
C365 H370 0.930 . S
C366 C365 1.333 . S
C366 N368 1.350 . S
C366 H392 0.931 . S
N367 Co363 2.148 . S
N367 C364 1.301 . S
N367 C365 1.317 . S
N368 C364 1.328 . S
N368 C366 1.350 . S
H369 C364 0.930 1_565 S
H370 C365 0.930 . S
C371 O372 1.224 . S
C371 O390 1.247 . S
O372 C371 1.224 . S
N373 Co363 2.128 . S
N373 C374 1.355 1_545 S
N373 C376 1.311 . S
C374 N373 1.355 1_565 S
C374 C375 1.363 . S
C374 H386 0.929 . S
C375 C374 1.363 . S
C375 N377 1.375 1_565 S
C375 H393 0.931 . S
C376 N373 1.311 . S
C376 N377 1.347 . S
C376 H387 0.929 . S
N377 C375 1.375 1_545 S
N377 C376 1.347 . S
C378 C381 1.365 . S
C378 N383 1.328 1_565 S
C378 H384 0.929 . S
C379 C380 1.362 1_545 S
C379 C382 1.378 . S
C379 H394 0.929 . S
C380 C379 1.362 1_565 S
C380 C381 1.366 . S
C381 C378 1.365 . S
C381 C380 1.366 . S
C381 H395 0.930 . S
C382 C379 1.378 . S
C382 N383 1.315 . S
C382 H385 0.930 . S
N383 Co363 2.194 . S
N383 C378 1.328 1_545 S
N383 C382 1.315 . S
H384 C378 0.929 . S
H385 C382 0.930 . S
H386 C374 0.929 . S
H387 C376 0.929 . S
O388 Co363 2.351 1_565 S
O388 C391 1.244 . S
O389 Co363 2.155 1_565 S
O389 C391 1.240 . S
O390 Co363 2.096 . S
O390 C371 1.247 . S
C391 O388 1.244 . S
C391 O389 1.240 . S
H392 C366 0.931 . S
H393 C375 0.931 . S
H394 C379 0.929 . S
H395 C381 0.930 . S
Co396 N400 2.148 . S
Co396 N406 2.128 . S
Co396 N416 2.194 . S
Co396 O421 2.351 . S
Co396 O422 2.155 . S
Co396 O423 2.096 . S
C397 N400 1.301 . S
C397 N401 1.328 1_545 S
C397 H402 0.930 . S
C398 C399 1.333 1_545 S
C398 N400 1.317 . S
C398 H403 0.930 . S
C399 C398 1.333 1_565 S
C399 N401 1.350 . S
C399 H425 0.931 . S
N400 Co396 2.148 . S
N400 C397 1.301 . S
N400 C398 1.317 . S
N401 C397 1.328 1_565 S
N401 C399 1.350 . S
H402 C397 0.930 . S
H403 C398 0.930 . S
C404 O405 1.224 . S
C404 O423 1.247 . S
O405 C404 1.224 . S
N406 Co396 2.128 . S
N406 C407 1.355 . S
N406 C409 1.311 . S
C407 N406 1.355 . S
C407 C408 1.363 . S
C407 H419 0.929 . S
C408 C407 1.363 . S
C408 N410 1.375 . S
C408 H426 0.931 . S
C409 N406 1.311 . S
C409 N410 1.347 . S
C409 H420 0.929 . S
N410 C408 1.375 . S
N410 C409 1.347 . S
C411 C414 1.365 . S
C411 N416 1.328 . S
C411 H417 0.929 . S
C412 C413 1.362 . S
C412 C415 1.378 . S
C412 H427 0.929 . S
C413 C412 1.362 . S
C413 C414 1.366 . S
C414 C411 1.365 . S
C414 C413 1.366 . S
C414 H428 0.930 . S
C415 C412 1.378 . S
C415 N416 1.315 . S
C415 H418 0.930 . S
N416 Co396 2.194 . S
N416 C411 1.328 . S
N416 C415 1.315 . S
H417 C411 0.929 . S
H418 C415 0.930 . S
H419 C407 0.929 . S
H420 C409 0.929 . S
O421 Co396 2.351 . S
O421 C424 1.244 . S
O422 Co396 2.155 . S
O422 C424 1.240 . S
O423 Co396 2.096 . S
O423 C404 1.247 . S
C424 O421 1.244 . S
C424 O422 1.240 . S
H425 C399 0.931 . S
H426 C408 0.931 . S
H427 C412 0.929 . S
H428 C414 0.930 . S
Co429 N433 2.148 . S
Co429 N439 2.128 . S
Co429 N449 2.194 . S
Co429 O454 2.351 1_565 S
Co429 O455 2.155 1_565 S
Co429 O456 2.096 . S
C430 N433 1.301 . S
C430 N434 1.328 . S
C430 H435 0.930 1_565 S
C431 C432 1.333 . S
C431 N433 1.317 . S
C431 H436 0.930 . S
C432 C431 1.333 . S
C432 N434 1.350 . S
C432 H458 0.931 . S
N433 Co429 2.148 . S
N433 C430 1.301 . S
N433 C431 1.317 . S
N434 C430 1.328 . S
N434 C432 1.350 . S
H435 C430 0.930 1_545 S
H436 C431 0.930 . S
C437 O438 1.224 . S
C437 O456 1.247 . S
O438 C437 1.224 . S
N439 Co429 2.128 . S
N439 C440 1.355 1_565 S
N439 C442 1.311 . S
C440 N439 1.355 1_545 S
C440 C441 1.363 . S
C440 H452 0.929 . S
C441 C440 1.363 . S
C441 N443 1.375 1_545 S
C441 H459 0.931 . S
C442 N439 1.311 . S
C442 N443 1.347 . S
C442 H453 0.929 . S
N443 C441 1.375 1_565 S
N443 C442 1.347 . S
C444 C447 1.365 . S
C444 N449 1.328 1_545 S
C444 H450 0.929 . S
C445 C446 1.362 1_565 S
C445 C448 1.378 . S
C445 H460 0.929 . S
C446 C445 1.362 1_545 S
C446 C447 1.366 . S
C447 C444 1.365 . S
C447 C446 1.366 . S
C447 H461 0.930 . S
C448 C445 1.378 . S
C448 N449 1.315 . S
C448 H451 0.930 . S
N449 Co429 2.194 . S
N449 C444 1.328 1_565 S
N449 C448 1.315 . S
H450 C444 0.929 . S
H451 C448 0.930 . S
H452 C440 0.929 . S
H453 C442 0.929 . S
O454 Co429 2.351 1_545 S
O454 C457 1.244 . S
O455 Co429 2.155 1_545 S
O455 C457 1.240 . S
O456 Co429 2.096 . S
O456 C437 1.247 . S
C457 O454 1.244 . S
C457 O455 1.240 . S
H458 C432 0.931 . S
H459 C441 0.931 . S
H460 C445 0.929 . S
H461 C447 0.930 . S
Co462 N466 2.148 . S
Co462 N472 2.128 . S
Co462 N482 2.194 . S
Co462 O487 2.351 . S
Co462 O488 2.155 . S
Co462 O489 2.096 . S
C463 N466 1.301 . S
C463 N467 1.328 1_565 S
C463 H468 0.930 . S
C464 C465 1.333 1_565 S
C464 N466 1.317 . S
C464 H469 0.930 . S
C465 C464 1.333 1_545 S
C465 N467 1.350 . S
C465 H491 0.931 . S
N466 Co462 2.148 . S
N466 C463 1.301 . S
N466 C464 1.317 . S
N467 C463 1.328 1_545 S
N467 C465 1.350 . S
H468 C463 0.930 . S
H469 C464 0.930 . S
C470 O471 1.224 . S
C470 O489 1.247 . S
O471 C470 1.224 . S
N472 Co462 2.128 . S
N472 C473 1.355 . S
N472 C475 1.311 . S
C473 N472 1.355 . S
C473 C474 1.363 . S
C473 H485 0.929 . S
C474 C473 1.363 . S
C474 N476 1.375 . S
C474 H492 0.931 . S
C475 N472 1.311 . S
C475 N476 1.347 . S
C475 H486 0.929 . S
N476 C474 1.375 . S
N476 C475 1.347 . S
C477 C480 1.365 . S
C477 N482 1.328 . S
C477 H483 0.929 . S
C478 C479 1.362 . S
C478 C481 1.378 . S
C478 H493 0.929 . S
C479 C478 1.362 . S
C479 C480 1.366 . S
C480 C477 1.365 . S
C480 C479 1.366 . S
C480 H494 0.930 . S
C481 C478 1.378 . S
C481 N482 1.315 . S
C481 H484 0.930 . S
N482 Co462 2.194 . S
N482 C477 1.328 . S
N482 C481 1.315 . S
H483 C477 0.929 . S
H484 C481 0.930 . S
H485 C473 0.929 . S
H486 C475 0.929 . S
O487 Co462 2.351 . S
O487 C490 1.244 . S
O488 Co462 2.155 . S
O488 C490 1.240 . S
O489 Co462 2.096 . S
O489 C470 1.247 . S
C490 O487 1.244 . S
C490 O488 1.240 . S
H491 C465 0.931 . S
H492 C474 0.931 . S
H493 C478 0.929 . S
H494 C480 0.930 . S
Co495 N499 2.148 . S
Co495 N505 2.128 1_655 S
Co495 N515 2.194 . S
Co495 O520 2.351 1_545 S
Co495 O521 2.155 1_545 S
Co495 O522 2.096 . S
C496 N499 1.301 . S
C496 N500 1.328 . S
C496 H501 0.930 1_545 S
C497 C498 1.333 . S
C497 N499 1.317 . S
C497 H502 0.930 . S
C498 C497 1.333 . S
C498 N500 1.350 . S
C498 H524 0.931 . S
N499 Co495 2.148 . S
N499 C496 1.301 . S
N499 C497 1.317 . S
N500 C496 1.328 . S
N500 C498 1.350 . S
H501 C496 0.930 1_565 S
H502 C497 0.930 . S
C503 O504 1.224 . S
C503 O522 1.247 . S
O504 C503 1.224 . S
N505 Co495 2.128 1_455 S
N505 C506 1.355 1_545 S
N505 C508 1.311 . S
C506 N505 1.355 1_565 S
C506 C507 1.363 . S
C506 H518 0.929 . S
C507 C506 1.363 . S
C507 N509 1.375 1_565 S
C507 H525 0.931 . S
C508 N505 1.311 . S
C508 N509 1.347 . S
C508 H519 0.929 . S
N509 C507 1.375 1_545 S
N509 C508 1.347 . S
C510 C513 1.365 . S
C510 N515 1.328 1_565 S
C510 H516 0.929 . S
C511 C512 1.362 1_545 S
C511 C514 1.378 . S
C511 H526 0.929 . S
C512 C511 1.362 1_565 S
C512 C513 1.366 . S
C513 C510 1.365 . S
C513 C512 1.366 . S
C513 H527 0.930 . S
C514 C511 1.378 . S
C514 N515 1.315 . S
C514 H517 0.930 . S
N515 Co495 2.194 . S
N515 C510 1.328 1_545 S
N515 C514 1.315 . S
H516 C510 0.929 . S
H517 C514 0.930 . S
H518 C506 0.929 . S
H519 C508 0.929 . S
O520 Co495 2.351 1_565 S
O520 C523 1.244 . S
O521 Co495 2.155 1_565 S
O521 C523 1.240 . S
O522 Co495 2.096 . S
O522 C503 1.247 . S
C523 O520 1.244 . S
C523 O521 1.240 . S
H524 C498 0.931 . S
H525 C507 0.931 . S
H526 C511 0.929 . S
H527 C513 0.930 . S
Co528 N532 2.148 . S
Co528 N538 2.128 . S
Co528 N548 2.194 . S
Co528 O553 2.351 . S
Co528 O554 2.155 . S
Co528 O555 2.096 . S
C529 N532 1.301 . S
C529 N533 1.328 . S
C529 H534 0.930 . S
C530 C531 1.333 . S
C530 N532 1.317 . S
C530 H535 0.930 . S
C531 C530 1.333 . S
C531 N533 1.350 . S
C531 H557 0.931 . S
N532 Co528 2.148 . S
N532 C529 1.301 . S
N532 C530 1.317 . S
N533 C529 1.328 . S
N533 C531 1.350 . S
H534 C529 0.930 . S
H535 C530 0.930 . S
C536 O537 1.224 . S
C536 O555 1.247 . S
O537 C536 1.224 . S
N538 Co528 2.128 . S
N538 C539 1.355 . S
N538 C541 1.311 . S
C539 N538 1.355 . S
C539 C540 1.363 . S
C539 H551 0.929 . S
C540 C539 1.363 . S
C540 N542 1.375 . S
C540 H558 0.931 . S
C541 N538 1.311 . S
C541 N542 1.347 . S
C541 H552 0.929 . S
N542 C540 1.375 . S
N542 C541 1.347 . S
C543 C546 1.365 . S
C543 N548 1.328 . S
C543 H549 0.929 . S
C544 C545 1.362 . S
C544 C547 1.378 . S
C544 H559 0.929 . S
C545 C544 1.362 . S
C545 C546 1.366 . S
C546 C543 1.365 . S
C546 C545 1.366 . S
C546 H560 0.930 . S
C547 C544 1.378 . S
C547 N548 1.315 . S
C547 H550 0.930 . S
N548 Co528 2.194 . S
N548 C543 1.328 . S
N548 C547 1.315 . S
H549 C543 0.929 . S
H550 C547 0.930 . S
H551 C539 0.929 . S
H552 C541 0.929 . S
O553 Co528 2.351 . S
O553 C556 1.244 . S
O554 Co528 2.155 . S
O554 C556 1.240 . S
O555 Co528 2.096 . S
O555 C536 1.247 . S
C556 O553 1.244 . S
C556 O554 1.240 . S
H557 C531 0.931 . S
H558 C540 0.931 . S
H559 C544 0.929 . S
H560 C546 0.930 . S
Co561 N565 2.148 . S
Co561 N571 2.128 . S
Co561 N581 2.194 . S
Co561 O586 2.351 . S
Co561 O587 2.155 . S
Co561 O588 2.096 . S
C562 N565 1.301 . S
C562 N566 1.328 . S
C562 H567 0.930 . S
C563 C564 1.333 . S
C563 N565 1.317 . S
C563 H568 0.930 . S
C564 C563 1.333 . S
C564 N566 1.350 . S
C564 H590 0.931 . S
N565 Co561 2.148 . S
N565 C562 1.301 . S
N565 C563 1.317 . S
N566 C562 1.328 . S
N566 C564 1.350 . S
H567 C562 0.930 . S
H568 C563 0.930 . S
C569 O570 1.224 . S
C569 O588 1.247 . S
O570 C569 1.224 . S
N571 Co561 2.128 . S
N571 C572 1.355 . S
N571 C574 1.311 . S
C572 N571 1.355 . S
C572 C573 1.363 . S
C572 H584 0.929 . S
C573 C572 1.363 . S
C573 N575 1.375 . S
C573 H591 0.931 . S
C574 N571 1.311 . S
C574 N575 1.347 . S
C574 H585 0.929 . S
N575 C573 1.375 . S
N575 C574 1.347 . S
C576 C579 1.365 . S
C576 N581 1.328 . S
C576 H582 0.929 . S
C577 C578 1.362 . S
C577 C580 1.378 . S
C577 H592 0.929 . S
C578 C577 1.362 . S
C578 C579 1.366 . S
C579 C576 1.365 . S
C579 C578 1.366 . S
C579 H593 0.930 . S
C580 C577 1.378 . S
C580 N581 1.315 . S
C580 H583 0.930 . S
N581 Co561 2.194 . S
N581 C576 1.328 . S
N581 C580 1.315 . S
H582 C576 0.929 . S
H583 C580 0.930 . S
H584 C572 0.929 . S
H585 C574 0.929 . S
O586 Co561 2.351 . S
O586 C589 1.244 . S
O587 Co561 2.155 . S
O587 C589 1.240 . S
O588 Co561 2.096 . S
O588 C569 1.247 . S
C589 O586 1.244 . S
C589 O587 1.240 . S
H590 C564 0.931 . S
H591 C573 0.931 . S
H592 C577 0.929 . S
H593 C579 0.930 . S
Co594 N598 2.148 . S
Co594 N604 2.128 . S
Co594 N614 2.194 . S
Co594 O619 2.351 . S
Co594 O620 2.155 . S
Co594 O621 2.096 . S
C595 N598 1.301 . S
C595 N599 1.328 . S
C595 H600 0.930 . S
C596 C597 1.333 . S
C596 N598 1.317 . S
C596 H601 0.930 . S
C597 C596 1.333 . S
C597 N599 1.350 . S
C597 H623 0.931 . S
N598 Co594 2.148 . S
N598 C595 1.301 . S
N598 C596 1.317 . S
N599 C595 1.328 . S
N599 C597 1.350 . S
H600 C595 0.930 . S
H601 C596 0.930 . S
C602 O603 1.224 . S
C602 O621 1.247 . S
O603 C602 1.224 . S
N604 Co594 2.128 . S
N604 C605 1.355 . S
N604 C607 1.311 . S
C605 N604 1.355 . S
C605 C606 1.363 . S
C605 H617 0.929 . S
C606 C605 1.363 . S
C606 N608 1.375 . S
C606 H624 0.931 . S
C607 N604 1.311 . S
C607 N608 1.347 . S
C607 H618 0.929 . S
N608 C606 1.375 . S
N608 C607 1.347 . S
C609 C612 1.365 . S
C609 N614 1.328 . S
C609 H615 0.929 . S
C610 C611 1.362 . S
C610 C613 1.378 . S
C610 H625 0.929 . S
C611 C610 1.362 . S
C611 C612 1.366 . S
C612 C609 1.365 . S
C612 C611 1.366 . S
C612 H626 0.930 . S
C613 C610 1.378 . S
C613 N614 1.315 . S
C613 H616 0.930 . S
N614 Co594 2.194 . S
N614 C609 1.328 . S
N614 C613 1.315 . S
H615 C609 0.929 . S
H616 C613 0.930 . S
H617 C605 0.929 . S
H618 C607 0.929 . S
O619 Co594 2.351 . S
O619 C622 1.244 . S
O620 Co594 2.155 . S
O620 C622 1.240 . S
O621 Co594 2.096 . S
O621 C602 1.247 . S
C622 O619 1.244 . S
C622 O620 1.240 . S
H623 C597 0.931 . S
H624 C606 0.931 . S
H625 C610 0.929 . S
H626 C612 0.930 . S
Co627 N631 2.148 . S
Co627 N637 2.128 1_655 S
Co627 N647 2.194 . S
Co627 O652 2.351 . S
Co627 O653 2.155 . S
Co627 O654 2.096 . S
C628 N631 1.301 . S
C628 N632 1.328 . S
C628 H633 0.930 . S
C629 C630 1.333 . S
C629 N631 1.317 . S
C629 H634 0.930 . S
C630 C629 1.333 . S
C630 N632 1.350 . S
C630 H656 0.931 . S
N631 Co627 2.148 . S
N631 C628 1.301 . S
N631 C629 1.317 . S
N632 C628 1.328 . S
N632 C630 1.350 . S
H633 C628 0.930 . S
H634 C629 0.930 . S
C635 O636 1.224 . S
C635 O654 1.247 . S
O636 C635 1.224 . S
N637 Co627 2.128 1_455 S
N637 C638 1.355 . S
N637 C640 1.311 . S
C638 N637 1.355 . S
C638 C639 1.363 . S
C638 H650 0.929 . S
C639 C638 1.363 . S
C639 N641 1.375 . S
C639 H657 0.931 . S
C640 N637 1.311 . S
C640 N641 1.347 . S
C640 H651 0.929 . S
N641 C639 1.375 . S
N641 C640 1.347 . S
C642 C645 1.365 . S
C642 N647 1.328 . S
C642 H648 0.929 . S
C643 C644 1.362 . S
C643 C646 1.378 . S
C643 H658 0.929 . S
C644 C643 1.362 . S
C644 C645 1.366 . S
C645 C642 1.365 . S
C645 C644 1.366 . S
C645 H659 0.930 . S
C646 C643 1.378 . S
C646 N647 1.315 . S
C646 H649 0.930 . S
N647 Co627 2.194 . S
N647 C642 1.328 . S
N647 C646 1.315 . S
H648 C642 0.929 . S
H649 C646 0.930 . S
H650 C638 0.929 . S
H651 C640 0.929 . S
O652 Co627 2.351 . S
O652 C655 1.244 . S
O653 Co627 2.155 . S
O653 C655 1.240 . S
O654 Co627 2.096 . S
O654 C635 1.247 . S
C655 O652 1.244 . S
C655 O653 1.240 . S
H656 C630 0.931 . S
H657 C639 0.931 . S
H658 C643 0.929 . S
H659 C645 0.930 . S
Co660 N664 2.148 . S
Co660 N670 2.128 . S
Co660 N680 2.194 . S
Co660 O685 2.351 . S
Co660 O686 2.155 . S
Co660 O687 2.096 . S
C661 N664 1.301 . S
C661 N665 1.328 . S
C661 H666 0.930 . S
C662 C663 1.333 . S
C662 N664 1.317 . S
C662 H667 0.930 . S
C663 C662 1.333 . S
C663 N665 1.350 . S
C663 H689 0.931 . S
N664 Co660 2.148 . S
N664 C661 1.301 . S
N664 C662 1.317 . S
N665 C661 1.328 . S
N665 C663 1.350 . S
H666 C661 0.930 . S
H667 C662 0.930 . S
C668 O669 1.224 . S
C668 O687 1.247 . S
O669 C668 1.224 . S
N670 Co660 2.128 . S
N670 C671 1.355 . S
N670 C673 1.311 . S
C671 N670 1.355 . S
C671 C672 1.363 . S
C671 H683 0.929 . S
C672 C671 1.363 . S
C672 N674 1.375 . S
C672 H690 0.931 . S
C673 N670 1.311 . S
C673 N674 1.347 . S
C673 H684 0.929 . S
N674 C672 1.375 . S
N674 C673 1.347 . S
C675 C678 1.365 . S
C675 N680 1.328 . S
C675 H681 0.929 . S
C676 C677 1.362 . S
C676 C679 1.378 . S
C676 H691 0.929 . S
C677 C676 1.362 . S
C677 C678 1.366 . S
C678 C675 1.365 . S
C678 C677 1.366 . S
C678 H692 0.930 . S
C679 C676 1.378 . S
C679 N680 1.315 . S
C679 H682 0.930 . S
N680 Co660 2.194 . S
N680 C675 1.328 . S
N680 C679 1.315 . S
H681 C675 0.929 . S
H682 C679 0.930 . S
H683 C671 0.929 . S
H684 C673 0.929 . S
O685 Co660 2.351 . S
O685 C688 1.244 . S
O686 Co660 2.155 . S
O686 C688 1.240 . S
O687 Co660 2.096 . S
O687 C668 1.247 . S
C688 O685 1.244 . S
C688 O686 1.240 . S
H689 C663 0.931 . S
H690 C672 0.931 . S
H691 C676 0.929 . S
H692 C678 0.930 . S
Co693 N697 2.148 . S
Co693 N703 2.128 1_655 S
Co693 N713 2.194 . S
Co693 O718 2.351 . S
Co693 O719 2.155 . S
Co693 O720 2.096 . S
C694 N697 1.301 . S
C694 N698 1.328 . S
C694 H699 0.930 . S
C695 C696 1.333 . S
C695 N697 1.317 . S
C695 H700 0.930 . S
C696 C695 1.333 . S
C696 N698 1.350 . S
C696 H722 0.931 . S
N697 Co693 2.148 . S
N697 C694 1.301 . S
N697 C695 1.317 . S
N698 C694 1.328 . S
N698 C696 1.350 . S
H699 C694 0.930 . S
H700 C695 0.930 . S
C701 O702 1.224 . S
C701 O720 1.247 . S
O702 C701 1.224 . S
N703 Co693 2.128 1_455 S
N703 C704 1.355 . S
N703 C706 1.311 . S
C704 N703 1.355 . S
C704 C705 1.363 . S
C704 H716 0.929 . S
C705 C704 1.363 . S
C705 N707 1.375 . S
C705 H723 0.931 . S
C706 N703 1.311 . S
C706 N707 1.347 . S
C706 H717 0.929 . S
N707 C705 1.375 . S
N707 C706 1.347 . S
C708 C711 1.365 . S
C708 N713 1.328 . S
C708 H714 0.929 . S
C709 C710 1.362 . S
C709 C712 1.378 . S
C709 H724 0.929 . S
C710 C709 1.362 . S
C710 C711 1.366 . S
C711 C708 1.365 . S
C711 C710 1.366 . S
C711 H725 0.930 . S
C712 C709 1.378 . S
C712 N713 1.315 . S
C712 H715 0.930 . S
N713 Co693 2.194 . S
N713 C708 1.328 . S
N713 C712 1.315 . S
H714 C708 0.929 . S
H715 C712 0.930 . S
H716 C704 0.929 . S
H717 C706 0.929 . S
O718 Co693 2.351 . S
O718 C721 1.244 . S
O719 Co693 2.155 . S
O719 C721 1.240 . S
O720 Co693 2.096 . S
O720 C701 1.247 . S
C721 O718 1.244 . S
C721 O719 1.240 . S
H722 C696 0.931 . S
H723 C705 0.931 . S
H724 C709 0.929 . S
H725 C711 0.930 . S
Co726 N730 2.148 . S
Co726 N736 2.128 . S
Co726 N746 2.194 . S
Co726 O751 2.351 . S
Co726 O752 2.155 . S
Co726 O753 2.096 . S
C727 N730 1.301 . S
C727 N731 1.328 . S
C727 H732 0.930 . S
C728 C729 1.333 . S
C728 N730 1.317 . S
C728 H733 0.930 . S
C729 C728 1.333 . S
C729 N731 1.350 . S
C729 H755 0.931 . S
N730 Co726 2.148 . S
N730 C727 1.301 . S
N730 C728 1.317 . S
N731 C727 1.328 . S
N731 C729 1.350 . S
H732 C727 0.930 . S
H733 C728 0.930 . S
C734 O735 1.224 . S
C734 O753 1.247 . S
O735 C734 1.224 . S
N736 Co726 2.128 . S
N736 C737 1.355 . S
N736 C739 1.311 . S
C737 N736 1.355 . S
C737 C738 1.363 . S
C737 H749 0.929 . S
C738 C737 1.363 . S
C738 N740 1.375 . S
C738 H756 0.931 . S
C739 N736 1.311 . S
C739 N740 1.347 . S
C739 H750 0.929 . S
N740 C738 1.375 . S
N740 C739 1.347 . S
C741 C744 1.365 . S
C741 N746 1.328 . S
C741 H747 0.929 . S
C742 C743 1.362 . S
C742 C745 1.378 . S
C742 H757 0.929 . S
C743 C742 1.362 . S
C743 C744 1.366 . S
C744 C741 1.365 . S
C744 C743 1.366 . S
C744 H758 0.930 . S
C745 C742 1.378 . S
C745 N746 1.315 . S
C745 H748 0.930 . S
N746 Co726 2.194 . S
N746 C741 1.328 . S
N746 C745 1.315 . S
H747 C741 0.929 . S
H748 C745 0.930 . S
H749 C737 0.929 . S
H750 C739 0.929 . S
O751 Co726 2.351 . S
O751 C754 1.244 . S
O752 Co726 2.155 . S
O752 C754 1.240 . S
O753 Co726 2.096 . S
O753 C734 1.247 . S
C754 O751 1.244 . S
C754 O752 1.240 . S
H755 C729 0.931 . S
H756 C738 0.931 . S
H757 C742 0.929 . S
H758 C744 0.930 . S
Co759 N763 2.148 . S
Co759 N769 2.128 . S
Co759 N779 2.194 . S
Co759 O784 2.351 . S
Co759 O785 2.155 . S
Co759 O786 2.096 . S
C760 N763 1.301 . S
C760 N764 1.328 . S
C760 H765 0.930 . S
C761 C762 1.333 . S
C761 N763 1.317 . S
C761 H766 0.930 . S
C762 C761 1.333 . S
C762 N764 1.350 . S
C762 H788 0.931 . S
N763 Co759 2.148 . S
N763 C760 1.301 . S
N763 C761 1.317 . S
N764 C760 1.328 . S
N764 C762 1.350 . S
H765 C760 0.930 . S
H766 C761 0.930 . S
C767 O768 1.224 . S
C767 O786 1.247 . S
O768 C767 1.224 . S
N769 Co759 2.128 . S
N769 C770 1.355 . S
N769 C772 1.311 . S
C770 N769 1.355 . S
C770 C771 1.363 . S
C770 H782 0.929 . S
C771 C770 1.363 . S
C771 N773 1.375 . S
C771 H789 0.931 . S
C772 N769 1.311 . S
C772 N773 1.347 . S
C772 H783 0.929 . S
N773 C771 1.375 . S
N773 C772 1.347 . S
C774 C777 1.365 . S
C774 N779 1.328 . S
C774 H780 0.929 . S
C775 C776 1.362 . S
C775 C778 1.378 . S
C775 H790 0.929 . S
C776 C775 1.362 . S
C776 C777 1.366 . S
C777 C774 1.365 . S
C777 C776 1.366 . S
C777 H791 0.930 . S
C778 C775 1.378 . S
C778 N779 1.315 . S
C778 H781 0.930 . S
N779 Co759 2.194 . S
N779 C774 1.328 . S
N779 C778 1.315 . S
H780 C774 0.929 . S
H781 C778 0.930 . S
H782 C770 0.929 . S
H783 C772 0.929 . S
O784 Co759 2.351 . S
O784 C787 1.244 . S
O785 Co759 2.155 . S
O785 C787 1.240 . S
O786 Co759 2.096 . S
O786 C767 1.247 . S
C787 O784 1.244 . S
C787 O785 1.240 . S
H788 C762 0.931 . S
H789 C771 0.931 . S
H790 C775 0.929 . S
H791 C777 0.930 . S
Co792 N796 2.148 . S
Co792 N802 2.128 . S
Co792 N812 2.194 . S
Co792 O817 2.351 . S
Co792 O818 2.155 . S
Co792 O819 2.096 . S
C793 N796 1.301 . S
C793 N797 1.328 . S
C793 H798 0.930 . S
C794 C795 1.333 . S
C794 N796 1.317 . S
C794 H799 0.930 . S
C795 C794 1.333 . S
C795 N797 1.350 . S
C795 H821 0.931 . S
N796 Co792 2.148 . S
N796 C793 1.301 . S
N796 C794 1.317 . S
N797 C793 1.328 . S
N797 C795 1.350 . S
H798 C793 0.930 . S
H799 C794 0.930 . S
C800 O801 1.224 . S
C800 O819 1.247 . S
O801 C800 1.224 . S
N802 Co792 2.128 . S
N802 C803 1.355 . S
N802 C805 1.311 . S
C803 N802 1.355 . S
C803 C804 1.363 . S
C803 H815 0.929 . S
C804 C803 1.363 . S
C804 N806 1.375 . S
C804 H822 0.931 . S
C805 N802 1.311 . S
C805 N806 1.347 . S
C805 H816 0.929 . S
N806 C804 1.375 . S
N806 C805 1.347 . S
C807 C810 1.365 . S
C807 N812 1.328 . S
C807 H813 0.929 . S
C808 C809 1.362 . S
C808 C811 1.378 . S
C808 H823 0.929 . S
C809 C808 1.362 . S
C809 C810 1.366 . S
C810 C807 1.365 . S
C810 C809 1.366 . S
C810 H824 0.930 . S
C811 C808 1.378 . S
C811 N812 1.315 . S
C811 H814 0.930 . S
N812 Co792 2.194 . S
N812 C807 1.328 . S
N812 C811 1.315 . S
H813 C807 0.929 . S
H814 C811 0.930 . S
H815 C803 0.929 . S
H816 C805 0.929 . S
O817 Co792 2.351 . S
O817 C820 1.244 . S
O818 Co792 2.155 . S
O818 C820 1.240 . S
O819 Co792 2.096 . S
O819 C800 1.247 . S
C820 O817 1.244 . S
C820 O818 1.240 . S
H821 C795 0.931 . S
H822 C804 0.931 . S
H823 C808 0.929 . S
H824 C810 0.930 . S
Co825 N829 2.148 . S
Co825 N835 2.128 . S
Co825 N845 2.194 . S
Co825 O850 2.351 . S
Co825 O851 2.155 . S
Co825 O852 2.096 . S
C826 N829 1.301 . S
C826 N830 1.328 . S
C826 H831 0.930 . S
C827 C828 1.333 . S
C827 N829 1.317 . S
C827 H832 0.930 . S
C828 C827 1.333 . S
C828 N830 1.350 . S
C828 H854 0.931 . S
N829 Co825 2.148 . S
N829 C826 1.301 . S
N829 C827 1.317 . S
N830 C826 1.328 . S
N830 C828 1.350 . S
H831 C826 0.930 . S
H832 C827 0.930 . S
C833 O834 1.224 . S
C833 O852 1.247 . S
O834 C833 1.224 . S
N835 Co825 2.128 . S
N835 C836 1.355 . S
N835 C838 1.311 . S
C836 N835 1.355 . S
C836 C837 1.363 . S
C836 H848 0.929 . S
C837 C836 1.363 . S
C837 N839 1.375 . S
C837 H855 0.931 . S
C838 N835 1.311 . S
C838 N839 1.347 . S
C838 H849 0.929 . S
N839 C837 1.375 . S
N839 C838 1.347 . S
C840 C843 1.365 . S
C840 N845 1.328 . S
C840 H846 0.929 . S
C841 C842 1.362 . S
C841 C844 1.378 . S
C841 H856 0.929 . S
C842 C841 1.362 . S
C842 C843 1.366 . S
C843 C840 1.365 . S
C843 C842 1.366 . S
C843 H857 0.930 . S
C844 C841 1.378 . S
C844 N845 1.315 . S
C844 H847 0.930 . S
N845 Co825 2.194 . S
N845 C840 1.328 . S
N845 C844 1.315 . S
H846 C840 0.929 . S
H847 C844 0.930 . S
H848 C836 0.929 . S
H849 C838 0.929 . S
O850 Co825 2.351 . S
O850 C853 1.244 . S
O851 Co825 2.155 . S
O851 C853 1.240 . S
O852 Co825 2.096 . S
O852 C833 1.247 . S
C853 O850 1.244 . S
C853 O851 1.240 . S
H854 C828 0.931 . S
H855 C837 0.931 . S
H856 C841 0.929 . S
H857 C843 0.930 . S
Co858 N862 2.148 . S
Co858 N868 2.128 . S
Co858 N878 2.194 . S
Co858 O883 2.351 . S
Co858 O884 2.155 . S
Co858 O885 2.096 . S
C859 N862 1.301 . S
C859 N863 1.328 . S
C859 H864 0.930 . S
C860 C861 1.333 . S
C860 N862 1.317 . S
C860 H865 0.930 . S
C861 C860 1.333 . S
C861 N863 1.350 . S
C861 H887 0.931 . S
N862 Co858 2.148 . S
N862 C859 1.301 . S
N862 C860 1.317 . S
N863 C859 1.328 . S
N863 C861 1.350 . S
H864 C859 0.930 . S
H865 C860 0.930 . S
C866 O867 1.224 . S
C866 O885 1.247 . S
O867 C866 1.224 . S
N868 Co858 2.128 . S
N868 C869 1.355 . S
N868 C871 1.311 . S
C869 N868 1.355 . S
C869 C870 1.363 . S
C869 H881 0.929 . S
C870 C869 1.363 . S
C870 N872 1.375 . S
C870 H888 0.931 . S
C871 N868 1.311 . S
C871 N872 1.347 . S
C871 H882 0.929 . S
N872 C870 1.375 . S
N872 C871 1.347 . S
C873 C876 1.365 . S
C873 N878 1.328 . S
C873 H879 0.929 . S
C874 C875 1.362 . S
C874 C877 1.378 . S
C874 H889 0.929 . S
C875 C874 1.362 . S
C875 C876 1.366 . S
C876 C873 1.365 . S
C876 C875 1.366 . S
C876 H890 0.930 . S
C877 C874 1.378 . S
C877 N878 1.315 . S
C877 H880 0.930 . S
N878 Co858 2.194 . S
N878 C873 1.328 . S
N878 C877 1.315 . S
H879 C873 0.929 . S
H880 C877 0.930 . S
H881 C869 0.929 . S
H882 C871 0.929 . S
O883 Co858 2.351 . S
O883 C886 1.244 . S
O884 Co858 2.155 . S
O884 C886 1.240 . S
O885 Co858 2.096 . S
O885 C866 1.247 . S
C886 O883 1.244 . S
C886 O884 1.240 . S
H887 C861 0.931 . S
H888 C870 0.931 . S
H889 C874 0.929 . S
H890 C876 0.930 . S
Co891 N895 2.148 . S
Co891 N901 2.128 1_455 S
Co891 N911 2.194 . S
Co891 O916 2.351 . S
Co891 O917 2.155 . S
Co891 O918 2.096 . S
C892 N895 1.301 . S
C892 N896 1.328 . S
C892 H897 0.930 . S
C893 C894 1.333 . S
C893 N895 1.317 . S
C893 H898 0.930 . S
C894 C893 1.333 . S
C894 N896 1.350 . S
C894 H920 0.931 . S
N895 Co891 2.148 . S
N895 C892 1.301 . S
N895 C893 1.317 . S
N896 C892 1.328 . S
N896 C894 1.350 . S
H897 C892 0.930 . S
H898 C893 0.930 . S
C899 O900 1.224 . S
C899 O918 1.247 . S
O900 C899 1.224 . S
N901 Co891 2.128 1_655 S
N901 C902 1.355 . S
N901 C904 1.311 . S
C902 N901 1.355 . S
C902 C903 1.363 . S
C902 H914 0.929 . S
C903 C902 1.363 . S
C903 N905 1.375 . S
C903 H921 0.931 . S
C904 N901 1.311 . S
C904 N905 1.347 . S
C904 H915 0.929 . S
N905 C903 1.375 . S
N905 C904 1.347 . S
C906 C909 1.365 . S
C906 N911 1.328 . S
C906 H912 0.929 . S
C907 C908 1.362 . S
C907 C910 1.378 . S
C907 H922 0.929 . S
C908 C907 1.362 . S
C908 C909 1.366 . S
C909 C906 1.365 . S
C909 C908 1.366 . S
C909 H923 0.930 . S
C910 C907 1.378 . S
C910 N911 1.315 . S
C910 H913 0.930 . S
N911 Co891 2.194 . S
N911 C906 1.328 . S
N911 C910 1.315 . S
H912 C906 0.929 . S
H913 C910 0.930 . S
H914 C902 0.929 . S
H915 C904 0.929 . S
O916 Co891 2.351 . S
O916 C919 1.244 . S
O917 Co891 2.155 . S
O917 C919 1.240 . S
O918 Co891 2.096 . S
O918 C899 1.247 . S
C919 O916 1.244 . S
C919 O917 1.240 . S
H920 C894 0.931 . S
H921 C903 0.931 . S
H922 C907 0.929 . S
H923 C909 0.930 . S
Co924 N928 2.148 . S
Co924 N934 2.128 . S
Co924 N944 2.194 . S
Co924 O949 2.351 . S
Co924 O950 2.155 . S
Co924 O951 2.096 . S
C925 N928 1.301 . S
C925 N929 1.328 . S
C925 H930 0.930 . S
C926 C927 1.333 . S
C926 N928 1.317 . S
C926 H931 0.930 . S
C927 C926 1.333 . S
C927 N929 1.350 . S
C927 H953 0.931 . S
N928 Co924 2.148 . S
N928 C925 1.301 . S
N928 C926 1.317 . S
N929 C925 1.328 . S
N929 C927 1.350 . S
H930 C925 0.930 . S
H931 C926 0.930 . S
C932 O933 1.224 . S
C932 O951 1.247 . S
O933 C932 1.224 . S
N934 Co924 2.128 . S
N934 C935 1.355 . S
N934 C937 1.311 . S
C935 N934 1.355 . S
C935 C936 1.363 . S
C935 H947 0.929 . S
C936 C935 1.363 . S
C936 N938 1.375 . S
C936 H954 0.931 . S
C937 N934 1.311 . S
C937 N938 1.347 . S
C937 H948 0.929 . S
N938 C936 1.375 . S
N938 C937 1.347 . S
C939 C942 1.365 . S
C939 N944 1.328 . S
C939 H945 0.929 . S
C940 C941 1.362 . S
C940 C943 1.378 . S
C940 H955 0.929 . S
C941 C940 1.362 . S
C941 C942 1.366 . S
C942 C939 1.365 . S
C942 C941 1.366 . S
C942 H956 0.930 . S
C943 C940 1.378 . S
C943 N944 1.315 . S
C943 H946 0.930 . S
N944 Co924 2.194 . S
N944 C939 1.328 . S
N944 C943 1.315 . S
H945 C939 0.929 . S
H946 C943 0.930 . S
H947 C935 0.929 . S
H948 C937 0.929 . S
O949 Co924 2.351 . S
O949 C952 1.244 . S
O950 Co924 2.155 . S
O950 C952 1.240 . S
O951 Co924 2.096 . S
O951 C932 1.247 . S
C952 O949 1.244 . S
C952 O950 1.240 . S
H953 C927 0.931 . S
H954 C936 0.931 . S
H955 C940 0.929 . S
H956 C942 0.930 . S
Co957 N961 2.148 . S
Co957 N967 2.128 1_455 S
Co957 N977 2.194 . S
Co957 O982 2.351 . S
Co957 O983 2.155 . S
Co957 O984 2.096 . S
C958 N961 1.301 . S
C958 N962 1.328 . S
C958 H963 0.930 . S
C959 C960 1.333 . S
C959 N961 1.317 . S
C959 H964 0.930 . S
C960 C959 1.333 . S
C960 N962 1.350 . S
C960 H986 0.931 . S
N961 Co957 2.148 . S
N961 C958 1.301 . S
N961 C959 1.317 . S
N962 C958 1.328 . S
N962 C960 1.350 . S
H963 C958 0.930 . S
H964 C959 0.930 . S
C965 O966 1.224 . S
C965 O984 1.247 . S
O966 C965 1.224 . S
N967 Co957 2.128 1_655 S
N967 C968 1.355 . S
N967 C970 1.311 . S
C968 N967 1.355 . S
C968 C969 1.363 . S
C968 H980 0.929 . S
C969 C968 1.363 . S
C969 N971 1.375 . S
C969 H987 0.931 . S
C970 N967 1.311 . S
C970 N971 1.347 . S
C970 H981 0.929 . S
N971 C969 1.375 . S
N971 C970 1.347 . S
C972 C975 1.365 . S
C972 N977 1.328 . S
C972 H978 0.929 . S
C973 C974 1.362 . S
C973 C976 1.378 . S
C973 H988 0.929 . S
C974 C973 1.362 . S
C974 C975 1.366 . S
C975 C972 1.365 . S
C975 C974 1.366 . S
C975 H989 0.930 . S
C976 C973 1.378 . S
C976 N977 1.315 . S
C976 H979 0.930 . S
N977 Co957 2.194 . S
N977 C972 1.328 . S
N977 C976 1.315 . S
H978 C972 0.929 . S
H979 C976 0.930 . S
H980 C968 0.929 . S
H981 C970 0.929 . S
O982 Co957 2.351 . S
O982 C985 1.244 . S
O983 Co957 2.155 . S
O983 C985 1.240 . S
O984 Co957 2.096 . S
O984 C965 1.247 . S
C985 O982 1.244 . S
C985 O983 1.240 . S
H986 C960 0.931 . S
H987 C969 0.931 . S
H988 C973 0.929 . S
H989 C975 0.930 . S
Co990 N994 2.148 . S
Co990 N1000 2.128 . S
Co990 N1010 2.194 . S
Co990 O1015 2.351 . S
Co990 O1016 2.155 . S
Co990 O1017 2.096 . S
C991 N994 1.301 . S
C991 N995 1.328 . S
C991 H996 0.930 . S
C992 C993 1.333 . S
C992 N994 1.317 . S
C992 H997 0.930 . S
C993 C992 1.333 . S
C993 N995 1.350 . S
C993 H1019 0.931 . S
N994 Co990 2.148 . S
N994 C991 1.301 . S
N994 C992 1.317 . S
N995 C991 1.328 . S
N995 C993 1.350 . S
H996 C991 0.930 . S
H997 C992 0.930 . S
C998 O999 1.224 . S
C998 O1017 1.247 . S
O999 C998 1.224 . S
N1000 Co990 2.128 . S
N1000 C1001 1.355 . S
N1000 C1003 1.311 . S
C1001 N1000 1.355 . S
C1001 C1002 1.363 . S
C1001 H1013 0.929 . S
C1002 C1001 1.363 . S
C1002 N1004 1.375 . S
C1002 H1020 0.931 . S
C1003 N1000 1.311 . S
C1003 N1004 1.347 . S
C1003 H1014 0.929 . S
N1004 C1002 1.375 . S
N1004 C1003 1.347 . S
C1005 C1008 1.365 . S
C1005 N1010 1.328 . S
C1005 H1011 0.929 . S
C1006 C1007 1.362 . S
C1006 C1009 1.378 . S
C1006 H1021 0.929 . S
C1007 C1006 1.362 . S
C1007 C1008 1.366 . S
C1008 C1005 1.365 . S
C1008 C1007 1.366 . S
C1008 H1022 0.930 . S
C1009 C1006 1.378 . S
C1009 N1010 1.315 . S
C1009 H1012 0.930 . S
N1010 Co990 2.194 . S
N1010 C1005 1.328 . S
N1010 C1009 1.315 . S
H1011 C1005 0.929 . S
H1012 C1009 0.930 . S
H1013 C1001 0.929 . S
H1014 C1003 0.929 . S
O1015 Co990 2.351 . S
O1015 C1018 1.244 . S
O1016 Co990 2.155 . S
O1016 C1018 1.240 . S
O1017 Co990 2.096 . S
O1017 C998 1.247 . S
C1018 O1015 1.244 . S
C1018 O1016 1.240 . S
H1019 C993 0.931 . S
H1020 C1002 0.931 . S
H1021 C1006 0.929 . S
H1022 C1008 0.930 . S
Co1023 N1027 2.148 . S
Co1023 N1033 2.128 . S
Co1023 N1043 2.194 . S
Co1023 O1048 2.351 . S
Co1023 O1049 2.155 . S
Co1023 O1050 2.096 . S
C1024 N1027 1.301 . S
C1024 N1028 1.328 . S
C1024 H1029 0.930 . S
C1025 C1026 1.333 . S
C1025 N1027 1.317 . S
C1025 H1030 0.930 . S
C1026 C1025 1.333 . S
C1026 N1028 1.350 . S
C1026 H1052 0.931 . S
N1027 Co1023 2.148 . S
N1027 C1024 1.301 . S
N1027 C1025 1.317 . S
N1028 C1024 1.328 . S
N1028 C1026 1.350 . S
H1029 C1024 0.930 . S
H1030 C1025 0.930 . S
C1031 O1032 1.224 . S
C1031 O1050 1.247 . S
O1032 C1031 1.224 . S
N1033 Co1023 2.128 . S
N1033 C1034 1.355 . S
N1033 C1036 1.311 . S
C1034 N1033 1.355 . S
C1034 C1035 1.363 . S
C1034 H1046 0.929 . S
C1035 C1034 1.363 . S
C1035 N1037 1.375 . S
C1035 H1053 0.931 . S
C1036 N1033 1.311 . S
C1036 N1037 1.347 . S
C1036 H1047 0.929 . S
N1037 C1035 1.375 . S
N1037 C1036 1.347 . S
C1038 C1041 1.365 . S
C1038 N1043 1.328 . S
C1038 H1044 0.929 . S
C1039 C1040 1.362 . S
C1039 C1042 1.378 . S
C1039 H1054 0.929 . S
C1040 C1039 1.362 . S
C1040 C1041 1.366 . S
C1041 C1038 1.365 . S
C1041 C1040 1.366 . S
C1041 H1055 0.930 . S
C1042 C1039 1.378 . S
C1042 N1043 1.315 . S
C1042 H1045 0.930 . S
N1043 Co1023 2.194 . S
N1043 C1038 1.328 . S
N1043 C1042 1.315 . S
H1044 C1038 0.929 . S
H1045 C1042 0.930 . S
H1046 C1034 0.929 . S
H1047 C1036 0.929 . S
O1048 Co1023 2.351 . S
O1048 C1051 1.244 . S
O1049 Co1023 2.155 . S
O1049 C1051 1.240 . S
O1050 Co1023 2.096 . S
O1050 C1031 1.247 . S
C1051 O1048 1.244 . S
C1051 O1049 1.240 . S
H1052 C1026 0.931 . S
H1053 C1035 0.931 . S
H1054 C1039 0.929 . S
H1055 C1041 0.930 . S
C28 C259 1.957 . S
C61 C160 1.957 . S
C94 C193 1.956 . S
C127 C226 1.957 . S
C523 C292 1.957 . S
C325 C424 1.957 . S
C457 C358 1.956 . S
C391 C490 1.957 . S
C556 C787 1.957 . S
C688 C589 1.957 . S
C622 C721 1.956 . S
C655 C754 1.957 . S
C820 C1051 1.957 . S
C853 C952 1.957 . S
C985 C886 1.956 . S
C1018 C919 1.957 . S
C215 C17 2.200 1_556 S
C50 C248 2.200 1_565 S
C83 C149 2.200 . S
C116 C182 2.200 1_545 S
C281 C479 2.200 1_556 S
C512 C314 2.200 1_565 S
C413 C347 2.200 . S
C446 C380 2.200 1_545 S
C545 C743 2.200 . S
C776 C578 2.200 . S
C677 C611 2.200 1_556 S
C644 C710 2.200 . S
C1007 C809 2.200 . S
C842 C1040 2.200 . S
C941 C875 2.200 1_554 S
C974 C908 2.200 . S
N938 N5 1.769 . S
N443 N38 1.769 1_565 S
N1004 N71 1.770 . S
N104 N509 1.769 1_565 S
N806 N137 1.769 . S
N311 N170 1.770 1_565 S
N872 N203 1.769 . S
N236 N377 1.769 1_565 S
N269 N674 1.769 . S
N302 N179 1.769 1_565 S
N335 N740 1.770 . S
N245 N368 1.769 1_565 S
N542 N401 1.769 . S
N434 N47 1.770 1_565 S
N467 N608 1.769 . S
N500 N113 1.769 1_545 S
N410 N533 1.769 . S
N566 N971 1.769 . S
N476 N599 1.770 . S
N632 N1037 1.769 . S
N665 N278 1.769 . S
N698 N839 1.770 . S
N344 N731 1.769 . S
N764 N905 1.769 . S
N146 N797 1.769 . S
N707 N830 1.769 . S
N212 N863 1.770 . S
N773 N896 1.769 . S
N14 N929 1.769 . S
N575 N962 1.770 . S
N995 N80 1.769 . S
N641 N1028 1.769 . S
C602 C8 2.619 . S
C635 C41 2.619 1_655 S
C74 C536 2.619 1_455 S
C107 C569 2.619 . S
C734 C140 2.619 . S
C173 C767 2.619 . S
C668 C206 2.619 1_655 S
C701 C239 2.619 1_655 S
C866 C272 2.619 . S
C899 C305 2.619 1_455 S
C338 C800 2.619 1_655 S
C371 C833 2.619 . S
C404 C998 2.619 . S
C437 C1031 2.619 . S
C932 C470 2.619 1_455 S
C965 C503 2.619 1_455 S
