# Generated by pormake.
# Topology uks, (4)-cn, num edge types: 1
# Building blocks:
#     Node 0, Type 0, BuildingBlock: MUDLON_clean_sbu_0, # of connection points: 4
#     Node 1, Type 0, BuildingBlock: MUDLON_clean_sbu_0, # of connection points: 4
#     Node 2, Type 0, BuildingBlock: MUDLON_clean_sbu_0, # of connection points: 4
#     Node 3, Type 0, BuildingBlock: MUDLON_clean_sbu_0, # of connection points: 4
#     Node 4, Type 0, BuildingBlock: MUDLON_clean_sbu_0, # of connection points: 4
#     Node 5, Type 0, BuildingBlock: MUDLON_clean_sbu_0, # of connection points: 4
#     Node 6, Type 0, BuildingBlock: MUDLON_clean_sbu_0, # of connection points: 4
#     Node 7, Type 0, BuildingBlock: MUDLON_clean_sbu_0, # of connection points: 4
#     Node 8, Type 0, BuildingBlock: MUDLON_clean_sbu_0, # of connection points: 4
#     Node 9, Type 0, BuildingBlock: MUDLON_clean_sbu_0, # of connection points: 4
#     Node 10, Type 0, BuildingBlock: MUDLON_clean_sbu_0, # of connection points: 4
#     Node 11, Type 0, BuildingBlock: MUDLON_clean_sbu_0, # of connection points: 4
#     Node 12, Type 0, BuildingBlock: MUDLON_clean_sbu_0, # of connection points: 4
#     Node 13, Type 0, BuildingBlock: MUDLON_clean_sbu_0, # of connection points: 4
#     Node 14, Type 0, BuildingBlock: MUDLON_clean_sbu_0, # of connection points: 4
#     Node 15, Type 0, BuildingBlock: MUDLON_clean_sbu_0, # of connection points: 4
#     Node 16, Type 0, BuildingBlock: MUDLON_clean_sbu_0, # of connection points: 4
#     Node 17, Type 0, BuildingBlock: MUDLON_clean_sbu_0, # of connection points: 4
#     Node 18, Type 0, BuildingBlock: MUDLON_clean_sbu_0, # of connection points: 4
#     Node 19, Type 0, BuildingBlock: MUDLON_clean_sbu_0, # of connection points: 4
#     Node 20, Type 0, BuildingBlock: MUDLON_clean_sbu_0, # of connection points: 4
#     Node 21, Type 0, BuildingBlock: MUDLON_clean_sbu_0, # of connection points: 4
#     Node 22, Type 0, BuildingBlock: MUDLON_clean_sbu_0, # of connection points: 4
#     Node 23, Type 0, BuildingBlock: MUDLON_clean_sbu_0, # of connection points: 4
#     Edge 24, Type (0, 0), BuildingBlock: CIFDUS_clean_linker_0, # of connection points: 2
#     Edge 25, Type (0, 0), BuildingBlock: CIFDUS_clean_linker_0, # of connection points: 2
#     Edge 26, Type (0, 0), BuildingBlock: CIFDUS_clean_linker_0, # of connection points: 2
#     Edge 27, Type (0, 0), BuildingBlock: CIFDUS_clean_linker_0, # of connection points: 2
#     Edge 28, Type (0, 0), BuildingBlock: CIFDUS_clean_linker_0, # of connection points: 2
#     Edge 29, Type (0, 0), BuildingBlock: CIFDUS_clean_linker_0, # of connection points: 2
#     Edge 30, Type (0, 0), BuildingBlock: CIFDUS_clean_linker_0, # of connection points: 2
#     Edge 31, Type (0, 0), BuildingBlock: CIFDUS_clean_linker_0, # of connection points: 2
#     Edge 32, Type (0, 0), BuildingBlock: CIFDUS_clean_linker_0, # of connection points: 2
#     Edge 33, Type (0, 0), BuildingBlock: CIFDUS_clean_linker_0, # of connection points: 2
#     Edge 34, Type (0, 0), BuildingBlock: CIFDUS_clean_linker_0, # of connection points: 2
#     Edge 35, Type (0, 0), BuildingBlock: CIFDUS_clean_linker_0, # of connection points: 2
#     Edge 36, Type (0, 0), BuildingBlock: CIFDUS_clean_linker_0, # of connection points: 2
#     Edge 37, Type (0, 0), BuildingBlock: CIFDUS_clean_linker_0, # of connection points: 2
#     Edge 38, Type (0, 0), BuildingBlock: CIFDUS_clean_linker_0, # of connection points: 2
#     Edge 39, Type (0, 0), BuildingBlock: CIFDUS_clean_linker_0, # of connection points: 2
#     Edge 40, Type (0, 0), BuildingBlock: CIFDUS_clean_linker_0, # of connection points: 2
#     Edge 41, Type (0, 0), BuildingBlock: CIFDUS_clean_linker_0, # of connection points: 2
#     Edge 42, Type (0, 0), BuildingBlock: CIFDUS_clean_linker_0, # of connection points: 2
#     Edge 43, Type (0, 0), BuildingBlock: CIFDUS_clean_linker_0, # of connection points: 2
#     Edge 44, Type (0, 0), BuildingBlock: CIFDUS_clean_linker_0, # of connection points: 2
#     Edge 45, Type (0, 0), BuildingBlock: CIFDUS_clean_linker_0, # of connection points: 2
#     Edge 46, Type (0, 0), BuildingBlock: CIFDUS_clean_linker_0, # of connection points: 2
#     Edge 47, Type (0, 0), BuildingBlock: CIFDUS_clean_linker_0, # of connection points: 2
#     Edge 48, Type (0, 0), BuildingBlock: CIFDUS_clean_linker_0, # of connection points: 2
#     Edge 49, Type (0, 0), BuildingBlock: CIFDUS_clean_linker_0, # of connection points: 2
#     Edge 50, Type (0, 0), BuildingBlock: CIFDUS_clean_linker_0, # of connection points: 2
#     Edge 51, Type (0, 0), BuildingBlock: CIFDUS_clean_linker_0, # of connection points: 2
#     Edge 52, Type (0, 0), BuildingBlock: CIFDUS_clean_linker_0, # of connection points: 2
#     Edge 53, Type (0, 0), BuildingBlock: CIFDUS_clean_linker_0, # of connection points: 2
#     Edge 54, Type (0, 0), BuildingBlock: CIFDUS_clean_linker_0, # of connection points: 2
#     Edge 55, Type (0, 0), BuildingBlock: CIFDUS_clean_linker_0, # of connection points: 2
#     Edge 56, Type (0, 0), BuildingBlock: CIFDUS_clean_linker_0, # of connection points: 2
#     Edge 57, Type (0, 0), BuildingBlock: CIFDUS_clean_linker_0, # of connection points: 2
#     Edge 58, Type (0, 0), BuildingBlock: CIFDUS_clean_linker_0, # of connection points: 2
#     Edge 59, Type (0, 0), BuildingBlock: CIFDUS_clean_linker_0, # of connection points: 2
#     Edge 60, Type (0, 0), BuildingBlock: CIFDUS_clean_linker_0, # of connection points: 2
#     Edge 61, Type (0, 0), BuildingBlock: CIFDUS_clean_linker_0, # of connection points: 2
#     Edge 62, Type (0, 0), BuildingBlock: CIFDUS_clean_linker_0, # of connection points: 2
#     Edge 63, Type (0, 0), BuildingBlock: CIFDUS_clean_linker_0, # of connection points: 2
#     Edge 64, Type (0, 0), BuildingBlock: CIFDUS_clean_linker_0, # of connection points: 2
#     Edge 65, Type (0, 0), BuildingBlock: CIFDUS_clean_linker_0, # of connection points: 2
#     Edge 66, Type (0, 0), BuildingBlock: CIFDUS_clean_linker_0, # of connection points: 2
#     Edge 67, Type (0, 0), BuildingBlock: CIFDUS_clean_linker_0, # of connection points: 2
#     Edge 68, Type (0, 0), BuildingBlock: CIFDUS_clean_linker_0, # of connection points: 2
#     Edge 69, Type (0, 0), BuildingBlock: CIFDUS_clean_linker_0, # of connection points: 2
#     Edge 70, Type (0, 0), BuildingBlock: CIFDUS_clean_linker_0, # of connection points: 2
#     Edge 71, Type (0, 0), BuildingBlock: CIFDUS_clean_linker_0, # of connection points: 2
# Relax obj value: 0.065
# Max RMSD: 0.061
# Mean RMSD: 0.061
data_MOF--net-uks--node1-MUDLON_clean_sbu_0--edge1-CIFDUS_clean_linker_0
_symmetry_space_group_name_H-M    P1
_symmetry_Int_Tables_number       1
_symmetry_cell_setting            triclinic
loop_
_symmetry_equiv_pos_as_xyz
'x, y, z'
_cell_length_a     48.870637
_cell_length_b     48.1782
_cell_length_c     49.042248
_cell_angle_alpha  90.108828
_cell_angle_beta   90.744293
_cell_angle_gamma 89.840607
loop_
_atom_site_label
_atom_site_type_symbol
_atom_site_fract_x
_atom_site_fract_y
_atom_site_fract_z
_atom_type_partial_charge
Mg0 Mg 0.15165 0.37723 0.69608 0.0
C1 C 0.20207 0.38969 0.72652 0.0
O2 O 0.20872 0.39262 0.70081 0.0
C3 C 0.09637 0.36478 0.67999 0.0
O4 O 0.11203 0.35722 0.6597 0.0
C5 C 0.15027 0.43478 0.67603 0.0
O6 O 0.13385 0.43501 0.69704 0.0
O7 O 0.16084 0.4117 0.6688 0.0
O8 O 0.17734 0.3839 0.7321 0.0
O9 O 0.15801 0.33375 0.68483 0.0
C10 C 0.17888 0.31919 0.69114 0.0
O11 O 0.20128 0.33159 0.69971 0.0
O12 O 0.10747 0.37651 0.70064 0.0
Mg13 Mg 0.64493 0.66893 0.22313 0.0
C14 C 0.64637 0.71428 0.25963 0.0
O15 O 0.65501 0.72253 0.23572 0.0
C16 C 0.66372 0.61512 0.2024 0.0
O17 O 0.67514 0.63367 0.18662 0.0
C18 C 0.59745 0.70104 0.19475 0.0
O19 O 0.59781 0.7151 0.21771 0.0
O20 O 0.61576 0.68253 0.19086 0.0
O21 O 0.63617 0.69004 0.2616 0.0
O22 O 0.68829 0.67945 0.22507 0.0
C23 C 0.70876 0.68658 0.21113 0.0
O24 O 0.70635 0.68945 0.18458 0.0
O25 O 0.64785 0.62359 0.22117 0.0
Mg26 Mg 0.3965 0.14796 0.73377 0.0
C27 C 0.38464 0.16467 0.79089 0.0
O28 O 0.36129 0.15328 0.78352 0.0
C29 C 0.38253 0.09404 0.70458 0.0
O30 O 0.38659 0.1101 0.68341 0.0
C31 C 0.45452 0.15375 0.71659 0.0
O32 O 0.45695 0.13824 0.73851 0.0
O33 O 0.43065 0.16103 0.70867 0.0
O34 O 0.40519 0.16143 0.77546 0.0
O35 O 0.3589 0.17146 0.7279 0.0
C36 C 0.33893 0.16344 0.71314 0.0
O37 O 0.34306 0.144 0.69487 0.0
O38 O 0.38665 0.1038 0.72848 0.0
Mg39 Mg 0.87168 0.87769 0.16914 0.0
C40 C 0.8147 0.88529 0.18796 0.0
O41 O 0.82713 0.90813 0.19577 0.0
C42 C 0.90878 0.83861 0.13845 0.0
O43 O 0.90126 0.82209 0.15826 0.0
C44 C 0.85975 0.93682 0.15311 0.0
O45 O 0.84377 0.9232 0.13602 0.0
O46 O 0.87496 0.92305 0.16956 0.0
O47 O 0.82812 0.8675 0.17413 0.0
O48 O 0.89107 0.85674 0.2034 0.0
C49 C 0.88423 0.85961 0.22809 0.0
O50 O 0.86664 0.87914 0.23456 0.0
O51 O 0.89639 0.86179 0.13551 0.0
Mg52 Mg 0.15226 0.16223 0.82269 0.0
C53 C 0.14679 0.1765 0.76192 0.0
O54 O 0.16606 0.15776 0.75928 0.0
C55 C 0.17109 0.10861 0.84776 0.0
O56 O 0.18493 0.12719 0.86187 0.0
C57 C 0.11361 0.20234 0.85116 0.0
O58 O 0.11723 0.21632 0.82852 0.0
O59 O 0.12743 0.1802 0.85512 0.0
O60 O 0.13445 0.17848 0.78456 0.0
O61 O 0.19434 0.17667 0.81855 0.0
C62 C 0.20847 0.15975 0.80455 0.0
O63 O 0.19823 0.13519 0.79897 0.0
O64 O 0.15444 0.11703 0.82923 0.0
Mg65 Mg 0.88805 0.6702 0.3407 0.0
C66 C 0.89677 0.7204 0.31217 0.0
O67 O 0.88079 0.72491 0.33303 0.0
C68 C 0.86695 0.6173 0.3582 0.0
O69 O 0.85586 0.63667 0.37343 0.0
C70 C 0.92513 0.70226 0.3838 0.0
O71 O 0.91052 0.72454 0.37856 0.0
O72 O 0.91731 0.67888 0.37431 0.0
O73 O 0.90504 0.69563 0.30791 0.0
O74 O 0.84495 0.68202 0.33422 0.0
C75 C 0.8396 0.67655 0.3092 0.0
O76 O 0.85874 0.66466 0.29463 0.0
O77 O 0.88396 0.6248 0.34009 0.0
Mg78 Mg 0.38596 0.36531 0.85164 0.0
C79 C 0.33555 0.38114 0.822 0.0
O80 O 0.32934 0.38468 0.84776 0.0
C81 C 0.44275 0.34791 0.8617 0.0
O82 O 0.42895 0.3365 0.88154 0.0
C83 C 0.38892 0.42341 0.87007 0.0
O84 O 0.40508 0.42247 0.84888 0.0
O85 O 0.37827 0.40083 0.87829 0.0
O86 O 0.3597 0.37319 0.8162 0.0
O87 O 0.37727 0.32273 0.86431 0.0
C88 C 0.3556 0.30949 0.85805 0.0
O89 O 0.33434 0.32321 0.84845 0.0
O90 O 0.42991 0.36304 0.84446 0.0
Mg91 Mg 0.65557 0.89756 0.33613 0.0
C92 C 0.64777 0.84044 0.3593 0.0
O93 O 0.6257 0.85229 0.36904 0.0
C94 C 0.65855 0.94115 0.38258 0.0
O95 O 0.63863 0.92627 0.39272 0.0
C96 C 0.59505 0.91612 0.34005 0.0
O97 O 0.60542 0.94108 0.34305 0.0
O98 O 0.61092 0.8959 0.3349 0.0
O99 O 0.66634 0.85583 0.34945 0.0
O100 O 0.67494 0.90227 0.29633 0.0
C101 C 0.68513 0.8818 0.28337 0.0
O102 O 0.6814 0.85656 0.29265 0.0
O103 O 0.6699 0.93295 0.36078 0.0
Mg104 Mg 0.70008 0.1614 0.39345 0.0
C105 C 0.7282 0.16518 0.34152 0.0
O106 O 0.74724 0.15979 0.35993 0.0
C107 C 0.65937 0.19682 0.42362 0.0
O108 O 0.67532 0.21629 0.414 0.0
C109 C 0.69127 0.10116 0.40952 0.0
O110 O 0.66917 0.11237 0.41986 0.0
O111 O 0.70924 0.11707 0.39929 0.0
O112 O 0.70348 0.16747 0.34938 0.0
O113 O 0.72737 0.19316 0.40945 0.0
C114 C 0.75184 0.19375 0.41834 0.0
O115 O 0.76613 0.17065 0.41983 0.0
O116 O 0.66249 0.17201 0.41507 0.0
Mg117 Mg 0.90626 0.24505 0.89893 0.0
C118 C 0.91649 0.24141 0.83863 0.0
O119 O 0.94156 0.245 0.84786 0.0
C120 C 0.9058 0.21894 0.95319 0.0
O121 O 0.91714 0.24327 0.95759 0.0
C122 C 0.96649 0.23769 0.90739 0.0
O123 O 0.95683 0.21359 0.91514 0.0
O124 O 0.94955 0.25701 0.90144 0.0
O125 O 0.89761 0.23669 0.85565 0.0
O126 O 0.87414 0.27513 0.90796 0.0
C127 C 0.86382 0.28896 0.88826 0.0
O128 O 0.87701 0.28975 0.86511 0.0
O129 O 0.89916 0.21237 0.92879 0.0
Mg130 Mg 0.82207 0.39983 0.38761 0.0
C131 C 0.8013 0.34887 0.40454 0.0
O132 O 0.82514 0.34572 0.39281 0.0
C133 C 0.84386 0.45276 0.37127 0.0
O134 O 0.85921 0.43322 0.36062 0.0
C135 C 0.85016 0.394 0.43892 0.0
O136 O 0.82904 0.41052 0.44245 0.0
O137 O 0.8559 0.38682 0.41457 0.0
O138 O 0.79111 0.3733 0.40588 0.0
O139 O 0.81473 0.38833 0.34498 0.0
C140 C 0.83008 0.38121 0.32547 0.0
O141 O 0.85656 0.37871 0.32977 0.0
O142 O 0.82389 0.44536 0.38612 0.0
Mg143 Mg 0.65692 0.34914 0.87934 0.0
C144 C 0.65529 0.34135 0.82182 0.0
O145 O 0.64915 0.31781 0.83369 0.0
C146 C 0.64527 0.36716 0.93559 0.0
O147 O 0.63011 0.34504 0.93159 0.0
C148 C 0.60127 0.31441 0.88413 0.0
O149 O 0.61392 0.29425 0.89721 0.0
O150 O 0.61453 0.33558 0.87655 0.0
O151 O 0.66118 0.36231 0.83675 0.0
O152 O 0.69146 0.32066 0.88409 0.0
C153 C 0.70368 0.31653 0.90682 0.0
O154 O 0.69221 0.32505 0.92941 0.0
O155 O 0.65901 0.37637 0.91556 0.0
Mg156 Mg 0.72219 0.40855 0.13437 0.0
C157 C 0.74745 0.39627 0.18512 0.0
O158 O 0.76519 0.40733 0.16847 0.0
C159 C 0.70067 0.41881 0.08101 0.0
O160 O 0.72323 0.43326 0.08453 0.0
C161 C 0.70865 0.46215 0.1566 0.0
O162 O 0.69117 0.44412 0.1663 0.0
O163 O 0.72727 0.45326 0.14075 0.0
O164 O 0.72274 0.3935 0.17668 0.0
O165 O 0.75094 0.37821 0.11846 0.0
C166 C 0.77624 0.37602 0.11338 0.0
O167 O 0.79232 0.39766 0.11631 0.0
O168 O 0.6916 0.40536 0.1014 0.0
Mg169 Mg 0.63336 0.24579 0.63196 0.0
C170 C 0.69242 0.22565 0.64398 0.0
O171 O 0.68859 0.23597 0.66845 0.0
C172 C 0.60128 0.2052 0.66723 0.0
O173 O 0.62452 0.2042 0.68097 0.0
C174 C 0.61852 0.23545 0.57467 0.0
O175 O 0.6135 0.21188 0.58705 0.0
O176 O 0.62535 0.25633 0.58924 0.0
O177 O 0.67242 0.2248 0.62717 0.0
O178 O 0.63871 0.27963 0.66177 0.0
C179 C 0.61784 0.28839 0.6745 0.0
O180 O 0.59365 0.27891 0.66716 0.0
O181 O 0.59977 0.21986 0.64575 0.0
Mg182 Mg 0.82204 0.15928 0.14116 0.0
C183 C 0.81158 0.2156 0.12573 0.0
O184 O 0.83635 0.21419 0.13639 0.0
C185 C 0.83145 0.10063 0.1476 0.0
O186 O 0.85057 0.11369 0.16166 0.0
C187 C 0.85673 0.15654 0.09392 0.0
O188 O 0.83504 0.14152 0.08803 0.0
O189 O 0.85948 0.16575 0.1182 0.0
O190 O 0.79749 0.19334 0.12431 0.0
O191 O 0.81918 0.16548 0.18525 0.0
C192 C 0.79435 0.16679 0.19292 0.0
O193 O 0.77491 0.16534 0.17421 0.0
O194 O 0.81332 0.11517 0.13524 0.0
Mg195 Mg 0.88859 0.29657 0.63718 0.0
C196 C 0.8468 0.25518 0.61631 0.0
O197 O 0.84483 0.2733 0.59639 0.0
C198 C 0.94283 0.31711 0.6492 0.0
O199 O 0.92577 0.33553 0.65915 0.0
C200 C 0.88698 0.32288 0.58216 0.0
O201 O 0.90537 0.30317 0.57934 0.0
O202 O 0.87563 0.32583 0.60529 0.0
O203 O 0.86638 0.25758 0.63348 0.0
O204 O 0.88197 0.3061 0.68009 0.0
C205 C 0.86245 0.29576 0.69364 0.0
O206 O 0.84103 0.28579 0.68056 0.0
O207 O 0.93306 0.296 0.63679 0.0
Mg208 Mg 0.38708 0.73286 0.13855 0.0
C209 C 0.34497 0.78173 0.13102 0.0
O210 O 0.35986 0.79532 0.14904 0.0
C211 C 0.44769 0.7209 0.13203 0.0
O212 O 0.43775 0.69568 0.12983 0.0
C213 C 0.36938 0.69752 0.09464 0.0
O214 O 0.37033 0.72293 0.0851 0.0
O215 O 0.37705 0.6931 0.1192 0.0
O216 O 0.35351 0.75858 0.12198 0.0
O217 O 0.3818 0.73974 0.18222 0.0
C218 C 0.39414 0.76191 0.18945 0.0
O219 O 0.40946 0.77445 0.17147 0.0
O220 O 0.43101 0.74132 0.13271 0.0
Mg221 Mg 0.38973 0.84369 0.38449 0.0
C222 C 0.39075 0.85516 0.32359 0.0
O223 O 0.41153 0.87103 0.33042 0.0
C224 C 0.38943 0.86972 0.43697 0.0
O225 O 0.40559 0.84792 0.43882 0.0
C226 C 0.44549 0.86559 0.38228 0.0
O227 O 0.42967 0.88739 0.38561 0.0
O228 O 0.43449 0.84161 0.3826 0.0
O229 O 0.37604 0.84501 0.34223 0.0
O230 O 0.36436 0.80972 0.3991 0.0
C231 C 0.34008 0.81861 0.40306 0.0
O232 O 0.33509 0.84516 0.39942 0.0
O233 O 0.37977 0.87614 0.41358 0.0
Mg234 Mg 0.2379 0.89891 0.90225 0.0
C235 C 0.25452 0.8904 0.84649 0.0
O236 O 0.27679 0.89839 0.85958 0.0
C237 C 0.20341 0.89804 0.95158 0.0
O238 O 0.22183 0.91679 0.95817 0.0
C239 C 0.21753 0.95392 0.88812 0.0
O240 O 0.19973 0.93604 0.87819 0.0
O241 O 0.23831 0.94449 0.90122 0.0
O242 O 0.23233 0.88856 0.85961 0.0
O243 O 0.27303 0.87246 0.91433 0.0
C244 C 0.27153 0.84848 0.90321 0.0
O245 O 0.25024 0.84278 0.88761 0.0
O246 O 0.20433 0.88684 0.92808 0.0
Mg247 Mg 0.14269 0.72065 0.39368 0.0
C248 C 0.14043 0.75268 0.34303 0.0
O249 O 0.13782 0.77119 0.36254 0.0
C250 C 0.15676 0.67497 0.43338 0.0
O251 O 0.13255 0.68175 0.44263 0.0
C252 C 0.08732 0.6977 0.39898 0.0
O253 O 0.102 0.67761 0.38834 0.0
O254 O 0.09931 0.72039 0.40507 0.0
O255 O 0.14324 0.72725 0.34966 0.0
O256 O 0.17113 0.75218 0.40881 0.0
C257 C 0.19524 0.74501 0.40189 0.0
O258 O 0.19816 0.72236 0.38724 0.0
O259 O 0.16407 0.6845 0.41043 0.0
Mg260 Mg 0.32818 0.6392 0.89526 0.0
C261 C 0.30754 0.63513 0.83927 0.0
O262 O 0.33407 0.63881 0.83718 0.0
C263 C 0.33143 0.62927 0.95554 0.0
O264 O 0.3544 0.6178 0.94756 0.0
C265 C 0.34538 0.58091 0.8962 0.0
O266 O 0.32065 0.58115 0.90641 0.0
O267 O 0.35597 0.60399 0.88929 0.0
O268 O 0.29739 0.63374 0.86306 0.0
O269 O 0.34084 0.68242 0.88858 0.0
C270 C 0.34009 0.70033 0.9078 0.0
O271 O 0.33759 0.69161 0.93299 0.0
O272 O 0.31459 0.63815 0.93748 0.0
Mg273 Mg 0.12549 0.80606 0.13026 0.0
C274 C 0.1289 0.77838 0.18184 0.0
O275 O 0.12687 0.75933 0.1627 0.0
C276 C 0.13 0.83887 0.08221 0.0
O277 O 0.12045 0.8144 0.07503 0.0
C278 C 0.06656 0.81334 0.11567 0.0
O279 O 0.0763 0.83868 0.11473 0.0
O280 O 0.08316 0.79337 0.1205 0.0
O281 O 0.12866 0.8038 0.17463 0.0
O282 O 0.16276 0.78377 0.11838 0.0
C283 C 0.18286 0.79926 0.12537 0.0
O284 O 0.17738 0.82279 0.1378 0.0
O285 O 0.13297 0.84406 0.10756 0.0
Mg286 Mg 0.21426 0.64574 0.63573 0.0
C287 C 0.20663 0.70727 0.65191 0.0
O288 O 0.21222 0.69782 0.67646 0.0
C289 C 0.19398 0.58975 0.64001 0.0
O290 O 0.21839 0.58841 0.62917 0.0
C291 C 0.22809 0.65095 0.57507 0.0
O292 O 0.23498 0.67642 0.58176 0.0
O293 O 0.22314 0.63361 0.59388 0.0
O294 O 0.20363 0.69003 0.63238 0.0
O295 O 0.24547 0.64137 0.66789 0.0
C296 C 0.2356 0.6379 0.69161 0.0
O297 O 0.20888 0.6368 0.69402 0.0
O298 O 0.18433 0.61366 0.64588 0.0
Mg299 Mg 0.2997 0.8956 0.63476 0.0
C300 C 0.26342 0.85317 0.60605 0.0
O301 O 0.2846 0.85203 0.58987 0.0
C302 C 0.31959 0.94797 0.65845 0.0
O303 O 0.33439 0.92847 0.67018 0.0
C304 C 0.32853 0.90162 0.58309 0.0
O305 O 0.30939 0.9208 0.58179 0.0
O306 O 0.33047 0.88681 0.6045 0.0
O307 O 0.26239 0.87242 0.62386 0.0
O308 O 0.30696 0.87947 0.67538 0.0
C309 C 0.28491 0.88079 0.68886 0.0
O310 O 0.26262 0.88979 0.67645 0.0
O311 O 0.301 0.94078 0.6413 0.0
H312 H 0.18817 0.19582 0.73115 0.0
H313 H 0.10388 0.2116 0.75128 0.0
H314 H 0.10534 0.25574 0.72665 0.0
H315 H 0.13231 0.29235 0.70489 0.0
H316 H 0.21815 0.27884 0.69017 0.0
H317 H 0.21434 0.23116 0.70685 0.0
C318 C 0.16988 0.20856 0.72955 0.0
C319 C 0.14584 0.20035 0.74288 0.0
C320 C 0.17131 0.23449 0.71655 0.0
C321 C 0.12255 0.21741 0.7411 0.0
C322 C 0.12344 0.2427 0.72714 0.0
C323 C 0.15004 0.27874 0.70467 0.0
C324 C 0.1755 0.28907 0.69616 0.0
C325 C 0.14796 0.25184 0.71555 0.0
C326 C 0.19836 0.27135 0.69654 0.0
C327 C 0.19619 0.24415 0.70619 0.0
H328 H 0.71821 0.69045 0.26583 0.0
H329 H 0.7598 0.68821 0.18868 0.0
H330 H 0.80396 0.68692 0.2127 0.0
H331 H 0.83035 0.68276 0.25528 0.0
H332 H 0.78929 0.68504 0.33259 0.0
H333 H 0.74509 0.69038 0.30872 0.0
C334 C 0.73693 0.68992 0.2542 0.0
C335 C 0.73565 0.6891 0.22539 0.0
C336 C 0.76223 0.68908 0.26816 0.0
C337 C 0.76014 0.68878 0.21076 0.0
C338 C 0.78539 0.68793 0.22451 0.0
C339 C 0.81175 0.68456 0.26699 0.0
C340 C 0.81303 0.68308 0.29571 0.0
C341 C 0.78661 0.68748 0.25315 0.0
C342 C 0.78883 0.68602 0.31053 0.0
C343 C 0.76359 0.68894 0.29686 0.0
H344 H 0.40116 0.27727 0.85299 0.0
H345 H 0.31297 0.27322 0.85364 0.0
H346 H 0.3147 0.22527 0.83746 0.0
H347 H 0.34073 0.18769 0.81596 0.0
H348 H 0.42868 0.19342 0.81144 0.0
H349 H 0.42759 0.23727 0.83655 0.0
C350 C 0.38232 0.2657 0.85024 0.0
C351 C 0.35692 0.27894 0.85432 0.0
C352 C 0.38342 0.23852 0.83974 0.0
C353 C 0.33275 0.26362 0.85048 0.0
C354 C 0.33373 0.23623 0.84104 0.0
C355 C 0.35976 0.19816 0.82098 0.0
C356 C 0.38474 0.18738 0.81146 0.0
C357 C 0.35888 0.22391 0.8345 0.0
C358 C 0.40915 0.20129 0.81829 0.0
C359 C 0.40852 0.22648 0.83254 0.0
H360 H 0.71316 0.84311 0.25364 0.0
H361 H 0.70145 0.93155 0.26256 0.0
H362 H 0.73858 0.9401 0.231 0.0
H363 H 0.77762 0.92279 0.20519 0.0
H364 H 0.79041 0.83465 0.19637 0.0
H365 H 0.74933 0.82567 0.22314 0.0
C366 C 0.71843 0.86427 0.24838 0.0
C367 C 0.70468 0.88666 0.26086 0.0
C368 C 0.74011 0.8691 0.23032 0.0
C369 C 0.71172 0.9139 0.25353 0.0
C370 C 0.73305 0.91884 0.23549 0.0
C371 C 0.77118 0.90157 0.20873 0.0
C372 C 0.78721 0.87941 0.19904 0.0
C373 C 0.74788 0.89663 0.22443 0.0
C374 C 0.77842 0.85208 0.20354 0.0
C375 C 0.75505 0.84696 0.21905 0.0
H376 H 0.7433 0.1719 0.21377 0.0
H377 H 0.82828 0.16478 0.23796 0.0
H378 H 0.81514 0.16444 0.28595 0.0
H379 H 0.77951 0.16453 0.32081 0.0
H380 H 0.6945 0.17145 0.29666 0.0
H381 H 0.70775 0.17356 0.24874 0.0
C382 C 0.75903 0.17038 0.2295 0.0
C383 C 0.78681 0.16825 0.22218 0.0
C384 C 0.7513 0.17007 0.25702 0.0
C385 C 0.80681 0.16644 0.24293 0.0
C386 C 0.79928 0.16618 0.27039 0.0
C387 C 0.7638 0.16657 0.30512 0.0
C388 C 0.73596 0.16768 0.31241 0.0
C389 C 0.77158 0.16772 0.27764 0.0
C390 C 0.71601 0.1705 0.29171 0.0
C391 C 0.7236 0.17168 0.26429 0.0
H392 H 0.91145 0.28652 0.71823 0.0
H393 H 0.82471 0.2852 0.73316 0.0
H394 H 0.8334 0.26684 0.77912 0.0
H395 H 0.86601 0.25074 0.81493 0.0
H396 H 0.95251 0.25005 0.79787 0.0
H397 H 0.94343 0.26899 0.7527 0.0
C398 C 0.89441 0.28263 0.73165 0.0
C399 C 0.86748 0.28772 0.72246 0.0
C400 C 0.89951 0.27115 0.75751 0.0
C401 C 0.84565 0.2818 0.73989 0.0
C402 C 0.85061 0.2711 0.76607 0.0
C403 C 0.88282 0.25433 0.80118 0.0
C404 C 0.90994 0.24893 0.80991 0.0
C405 C 0.87749 0.26543 0.77503 0.0
C406 C 0.93145 0.25396 0.79181 0.0
C407 C 0.92632 0.26499 0.76597 0.0
H408 H 0.77595 0.38257 0.31039 0.0
H409 H 0.85717 0.37489 0.27743 0.0
H410 H 0.83808 0.37641 0.23123 0.0
H411 H 0.79909 0.38377 0.20035 0.0
H412 H 0.71768 0.39185 0.23237 0.0
H413 H 0.73607 0.38589 0.27889 0.0
C414 C 0.7895 0.38098 0.29311 0.0
C415 C 0.8181 0.37894 0.29749 0.0
C416 C 0.77835 0.38201 0.26648 0.0
C417 C 0.8352 0.3766 0.27479 0.0
C418 C 0.82428 0.37753 0.24832 0.0
C419 C 0.78526 0.384 0.21748 0.0
C420 C 0.75706 0.38859 0.21294 0.0
C421 C 0.796 0.38084 0.24397 0.0
C422 C 0.73942 0.38835 0.2353 0.0
C423 C 0.74999 0.38513 0.26189 0.0
H424 H 0.66494 0.3079 0.69934 0.0
H425 H 0.57699 0.30719 0.70693 0.0
H426 H 0.58089 0.32827 0.7519 0.0
H427 H 0.60925 0.34066 0.79171 0.0
H428 H 0.69695 0.34112 0.7854 0.0
H429 H 0.69327 0.32704 0.73733 0.0
C430 C 0.64661 0.31284 0.71061 0.0
C431 C 0.62072 0.30546 0.69977 0.0
C432 C 0.64896 0.32497 0.7368 0.0
C433 C 0.59722 0.31225 0.71471 0.0
C434 C 0.59939 0.32435 0.74054 0.0
C435 C 0.62748 0.33875 0.77942 0.0
C436 C 0.6533 0.34241 0.7918 0.0
C437 C 0.62514 0.32999 0.75213 0.0
C438 C 0.67685 0.33911 0.77604 0.0
C439 C 0.67472 0.33064 0.74868 0.0
H440 H 0.30231 0.74977 0.11249 0.0
H441 H 0.32273 0.83293 0.13852 0.0
H442 H 0.27444 0.84582 0.13693 0.0
H443 H 0.2266 0.83268 0.13213 0.0
H444 H 0.20482 0.7493 0.10821 0.0
H445 H 0.25358 0.7373 0.10481 0.0
C446 C 0.29624 0.77086 0.11733 0.0
C447 C 0.3162 0.79039 0.12569 0.0
C448 C 0.26821 0.77797 0.11708 0.0
C449 C 0.30788 0.81751 0.13211 0.0
C450 C 0.28023 0.82487 0.1313 0.0
C451 C 0.23236 0.81183 0.12603 0.0
C452 C 0.21199 0.7918 0.12075 0.0
C453 C 0.26023 0.8051 0.12451 0.0
C454 C 0.22002 0.76508 0.11252 0.0
C455 C 0.24791 0.75823 0.11063 0.0
H456 H 0.28885 0.83319 0.418 0.0
H457 H 0.33856 0.76182 0.39853 0.0
H458 H 0.29787 0.73232 0.39907 0.0
H459 H 0.24789 0.72792 0.40024 0.0
H460 H 0.19796 0.79944 0.41849 0.0
H461 H 0.23924 0.82788 0.42349 0.0
C462 C 0.29089 0.8111 0.41417 0.0
C463 C 0.31671 0.79977 0.40785 0.0
C464 C 0.26738 0.79443 0.41406 0.0
C465 C 0.31899 0.77108 0.40335 0.0
C466 C 0.29569 0.75426 0.40351 0.0
C467 C 0.24599 0.74972 0.40551 0.0
C468 C 0.21984 0.76171 0.40855 0.0
C469 C 0.26973 0.76589 0.40804 0.0
C470 C 0.2178 0.78978 0.41591 0.0
C471 C 0.24139 0.80603 0.41866 0.0
H472 H 0.2905 0.8128 0.86575 0.0
H473 H 0.29791 0.83394 0.9509 0.0
H474 H 0.32332 0.79067 0.95947 0.0
H475 H 0.33748 0.74401 0.94351 0.0
H476 H 0.32997 0.72375 0.85791 0.0
H477 H 0.31106 0.7697 0.84868 0.0
C478 C 0.29823 0.80819 0.88609 0.0
C479 C 0.29216 0.82633 0.90774 0.0
C480 C 0.3126 0.78332 0.89078 0.0
C481 C 0.30245 0.82034 0.93392 0.0
C482 C 0.31675 0.79549 0.93882 0.0
C483 C 0.33226 0.74983 0.92273 0.0
C484 C 0.33478 0.73013 0.90151 0.0
C485 C 0.3211 0.77636 0.91755 0.0
C486 C 0.32816 0.73826 0.8747 0.0
C487 C 0.31716 0.76455 0.86939 0.0
H488 H 0.21516 0.73249 0.60287 0.0
H489 H 0.20519 0.75004 0.68848 0.0
H490 H 0.21774 0.79844 0.68092 0.0
H491 H 0.23746 0.83413 0.65122 0.0
H492 H 0.25096 0.81543 0.56641 0.0
H493 H 0.23076 0.7695 0.57231 0.0
C494 C 0.21513 0.74702 0.61979 0.0
C495 C 0.20936 0.7375 0.64626 0.0
C496 C 0.22325 0.7747 0.61545 0.0
C497 C 0.20967 0.75668 0.66793 0.0
C498 C 0.21693 0.78441 0.66363 0.0
C499 C 0.23527 0.82031 0.63384 0.0
C500 C 0.2457 0.82827 0.60837 0.0
C501 C 0.2246 0.79346 0.63764 0.0
C502 C 0.24311 0.80986 0.58622 0.0
C503 C 0.23168 0.7835 0.58962 0.0
H504 H 0.90537 0.8082 0.21781 0.0
H505 H 0.87948 0.86186 0.28331 0.0
H506 H 0.8848 0.82372 0.31561 0.0
H507 H 0.89158 0.77448 0.32424 0.0
H508 H 0.91441 0.71935 0.2589 0.0
H509 H 0.91602 0.75897 0.22747 0.0
C510 C 0.90136 0.8117 0.23924 0.0
C511 C 0.8918 0.83785 0.24812 0.0
C512 C 0.90371 0.7894 0.2576 0.0
C513 C 0.88666 0.84196 0.27592 0.0
C514 C 0.88964 0.82013 0.29438 0.0
C515 C 0.89717 0.77105 0.30316 0.0
C516 C 0.90248 0.74395 0.29378 0.0
C517 C 0.8973 0.79364 0.28528 0.0
C518 C 0.91018 0.74 0.26657 0.0
C519 C 0.91092 0.76262 0.24862 0.0
H520 H 0.25696 0.38898 0.71907 0.0
H521 H 0.19604 0.39112 0.78199 0.0
H522 H 0.23219 0.38985 0.81698 0.0
H523 H 0.28089 0.38663 0.82955 0.0
H524 H 0.34165 0.38233 0.76656 0.0
H525 H 0.30563 0.386 0.73163 0.0
C526 C 0.25153 0.38938 0.74044 0.0
C527 C 0.22378 0.39023 0.7479 0.0
C528 C 0.27238 0.38815 0.76038 0.0
C529 C 0.21719 0.39047 0.77569 0.0
C530 C 0.23786 0.38972 0.79569 0.0
C531 C 0.28633 0.38666 0.80819 0.0
C532 C 0.31398 0.38425 0.80069 0.0
C533 C 0.2655 0.38834 0.78825 0.0
C534 C 0.32057 0.38411 0.77289 0.0
C535 C 0.29997 0.38622 0.75292 0.0
H536 H 0.68733 0.81037 0.33433 0.0
H537 H 0.60514 0.80399 0.36474 0.0
H538 H 0.59849 0.76077 0.33947 0.0
H539 H 0.61324 0.72954 0.30195 0.0
H540 H 0.69445 0.7388 0.26995 0.0
H541 H 0.70429 0.77567 0.30258 0.0
C542 C 0.66818 0.79921 0.33601 0.0
C543 C 0.64662 0.81081 0.35094 0.0
C544 C 0.66413 0.77492 0.32067 0.0
C545 C 0.62207 0.79577 0.35316 0.0
C546 C 0.61813 0.77109 0.33851 0.0
C547 C 0.63327 0.73917 0.30278 0.0
C548 C 0.65301 0.73174 0.2835 0.0
C549 C 0.63855 0.76117 0.32114 0.0
C550 C 0.67887 0.74442 0.2845 0.0
C551 C 0.68451 0.76555 0.30311 0.0
H552 H 0.32325 0.19253 0.75837 0.0
H553 H 0.29117 0.14587 0.68976 0.0
H554 H 0.24687 0.14292 0.71169 0.0
H555 H 0.21994 0.14695 0.75292 0.0
H556 H 0.25075 0.19333 0.82194 0.0
H557 H 0.29315 0.20299 0.79717 0.0
C558 C 0.30641 0.18226 0.74789 0.0
C559 C 0.31077 0.16882 0.72269 0.0
C560 C 0.28108 0.18001 0.76095 0.0
C561 C 0.28856 0.15603 0.70929 0.0
C562 C 0.26325 0.15415 0.7219 0.0
C563 C 0.23583 0.15942 0.76251 0.0
C564 C 0.23267 0.16887 0.7894 0.0
C565 C 0.25976 0.16489 0.7482 0.0
C566 C 0.25301 0.18557 0.80135 0.0
C567 C 0.27717 0.19102 0.78722 0.0
H568 H 0.24031 0.87477 0.71999 0.0
H569 H 0.32852 0.87783 0.72444 0.0
H570 H 0.32673 0.87907 0.77428 0.0
H571 H 0.2999 0.88411 0.81597 0.0
H572 H 0.21163 0.88223 0.81115 0.0
H573 H 0.21366 0.87571 0.7618 0.0
C574 C 0.25919 0.8754 0.73186 0.0
C575 C 0.28451 0.87659 0.71861 0.0
C576 C 0.25796 0.87665 0.76032 0.0
C577 C 0.30879 0.87695 0.7342 0.0
C578 C 0.30776 0.87786 0.76266 0.0
C579 C 0.28109 0.88213 0.80415 0.0
C580 C 0.25562 0.88409 0.8171 0.0
C581 C 0.28242 0.87854 0.77584 0.0
C582 C 0.23146 0.881 0.80161 0.0
C583 C 0.23262 0.87729 0.77342 0.0
H584 H 0.1387 0.72037 0.29716 0.0
H585 H 0.13971 0.80576 0.3239 0.0
H586 H 0.13653 0.82146 0.27676 0.0
H587 H 0.13269 0.8111 0.2276 0.0
H588 H 0.13119 0.72557 0.20118 0.0
H589 H 0.13529 0.71003 0.24819 0.0
C590 C 0.13834 0.7424 0.29267 0.0
C591 C 0.1394 0.76177 0.31412 0.0
C592 C 0.13632 0.7514 0.26543 0.0
C593 C 0.13883 0.79029 0.30786 0.0
C594 C 0.13701 0.79936 0.28085 0.0
C595 C 0.13328 0.78909 0.23214 0.0
C596 C 0.13157 0.76964 0.21078 0.0
C597 C 0.13559 0.78012 0.25942 0.0
C598 C 0.1324 0.74113 0.21712 0.0
C599 C 0.13478 0.73213 0.24408 0.0
H600 H 0.32428 0.63839 0.7867 0.0
H601 H 0.25184 0.6289 0.83525 0.0
H602 H 0.22352 0.62821 0.79376 0.0
H603 H 0.21926 0.63138 0.74395 0.0
H604 H 0.2916 0.64138 0.69536 0.0
H605 H 0.32008 0.6407 0.73678 0.0
C606 C 0.30229 0.63608 0.78829 0.0
C607 C 0.29022 0.63375 0.81417 0.0
C608 C 0.28614 0.63583 0.76435 0.0
C609 C 0.2617 0.63075 0.81569 0.0
C610 C 0.24549 0.63038 0.79195 0.0
C611 C 0.24127 0.63333 0.74231 0.0
C612 C 0.25324 0.63649 0.71648 0.0
C613 C 0.25748 0.63307 0.7662 0.0
C614 C 0.28182 0.63894 0.7149 0.0
C615 C 0.29811 0.63858 0.7386 0.0
H616 H 0.36636 0.80688 0.30728 0.0
H617 H 0.4126 0.87655 0.2775 0.0
H618 H 0.41721 0.85368 0.23336 0.0
H619 H 0.41102 0.81298 0.20455 0.0
H620 H 0.36581 0.74241 0.23372 0.0
H621 H 0.35811 0.76654 0.27708 0.0
C622 C 0.37698 0.81731 0.29096 0.0
C623 C 0.38912 0.84346 0.29568 0.0
C624 C 0.38019 0.80368 0.2658 0.0
C625 C 0.40308 0.85649 0.27441 0.0
C626 C 0.40587 0.84334 0.24922 0.0
C627 C 0.39949 0.80272 0.22033 0.0
C628 C 0.38928 0.77574 0.21599 0.0
C629 C 0.39508 0.81671 0.24495 0.0
C630 C 0.37409 0.76305 0.23662 0.0
C631 C 0.36961 0.7769 0.26135 0.0
H632 H 0.74071 0.32302 0.86668 0.0
H633 H 0.73239 0.29231 0.94868 0.0
H634 H 0.78158 0.28241 0.95097 0.0
H635 H 0.82703 0.28262 0.92952 0.0
H636 H 0.83498 0.31546 0.84812 0.0
H637 H 0.78603 0.32491 0.84605 0.0
C638 C 0.74958 0.3138 0.88493 0.0
C639 C 0.73284 0.30797 0.90732 0.0
C640 C 0.77794 0.30902 0.88641 0.0
C641 C 0.7448 0.29671 0.93107 0.0
C642 C 0.77295 0.29122 0.93244 0.0
C643 C 0.81814 0.29218 0.91146 0.0
C644 C 0.83482 0.29829 0.88902 0.0
C645 C 0.78977 0.29747 0.91029 0.0
C646 C 0.82279 0.31058 0.86576 0.0
C647 C 0.79469 0.31583 0.86444 0.0
H648 H 0.80309 0.24221 0.58391 0.0
H649 H 0.83504 0.23173 0.66569 0.0
H650 H 0.7898 0.21846 0.68143 0.0
H651 H 0.73975 0.21782 0.67332 0.0
H652 H 0.7085 0.22614 0.59099 0.0
H653 H 0.75479 0.23172 0.57419 0.0
C654 C 0.80033 0.23631 0.60503 0.0
C655 C 0.82224 0.23891 0.62372 0.0
C656 C 0.77422 0.22864 0.61399 0.0
C657 C 0.81844 0.23053 0.6509 0.0
C658 C 0.79248 0.22305 0.66 0.0
C659 C 0.74314 0.22022 0.65164 0.0
C660 C 0.72061 0.22218 0.63359 0.0
C661 C 0.76996 0.22334 0.64197 0.0
C662 C 0.72539 0.22479 0.60546 0.0
C663 C 0.75191 0.22814 0.59578 0.0
H664 H 0.74788 0.32788 0.10657 0.0
H665 H 0.83016 0.36009 0.1123 0.0
H666 H 0.84824 0.31276 0.114 0.0
H667 H 0.8404 0.26281 0.11875 0.0
H668 H 0.75818 0.23044 0.11469 0.0
H669 H 0.74032 0.27746 0.10724 0.0
C670 C 0.76983 0.32463 0.10785 0.0
C671 C 0.78762 0.34765 0.10966 0.0
C672 C 0.78003 0.29737 0.10939 0.0
C673 C 0.81597 0.34289 0.11098 0.0
C674 C 0.82632 0.3158 0.11211 0.0
C675 C 0.81855 0.26594 0.11603 0.0
C676 C 0.80058 0.24315 0.11767 0.0
C677 C 0.80848 0.29297 0.11213 0.0
C678 C 0.77242 0.24759 0.11363 0.0
C679 C 0.76223 0.27448 0.10948 0.0
H680 H 0.82487 0.30071 0.41939 0.0
H681 H 0.74598 0.34021 0.4103 0.0
H682 H 0.72345 0.29529 0.41711 0.0
H683 H 0.72675 0.24431 0.41972 0.0
H684 H 0.80612 0.20513 0.42702 0.0
H685 H 0.82798 0.25066 0.42706 0.0
C686 C 0.80269 0.29959 0.41923 0.0
C687 C 0.78705 0.32364 0.41391 0.0
C688 C 0.79007 0.27377 0.42257 0.0
C689 C 0.75841 0.32199 0.41431 0.0
C690 C 0.74559 0.29628 0.41799 0.0
C691 C 0.74883 0.24568 0.42165 0.0
C692 C 0.76482 0.22122 0.42289 0.0
C693 C 0.76128 0.27193 0.4212 0.0
C694 C 0.79334 0.2235 0.42583 0.0
C695 C 0.80585 0.24955 0.42576 0.0
H696 H 0.20652 0.53824 0.62193 0.0
H697 H 0.14941 0.58207 0.67289 0.0
H698 H 0.12954 0.53776 0.687 0.0
H699 H 0.13081 0.48657 0.68733 0.0
H700 H 0.18862 0.44319 0.63669 0.0
H701 H 0.2057 0.48748 0.61983 0.0
C702 C 0.18959 0.5382 0.63601 0.0
C703 C 0.17964 0.5635 0.64656 0.0
C704 C 0.17849 0.51272 0.64415 0.0
C705 C 0.15748 0.56297 0.66449 0.0
C706 C 0.1462 0.53761 0.67264 0.0
C707 C 0.14699 0.48674 0.67241 0.0
C708 C 0.15856 0.46147 0.66346 0.0
C709 C 0.1569 0.51235 0.66298 0.0
C710 C 0.17937 0.46221 0.64399 0.0
C711 C 0.18921 0.48757 0.6344 0.0
H712 H 0.48973 0.68447 0.12428 0.0
H713 H 0.47168 0.76518 0.15792 0.0
H714 H 0.51748 0.76721 0.17845 0.0
H715 H 0.56076 0.74375 0.19118 0.0
H716 H 0.57921 0.66351 0.15669 0.0
H717 H 0.53543 0.66379 0.13201 0.0
C718 C 0.49597 0.70275 0.13569 0.0
C719 C 0.47709 0.72453 0.13972 0.0
C720 C 0.5224 0.70375 0.14754 0.0
C721 C 0.48569 0.74813 0.15439 0.0
C722 C 0.51188 0.74921 0.16634 0.0
C723 C 0.5554 0.7265 0.17792 0.0
C724 C 0.57322 0.70349 0.17609 0.0
C725 C 0.53012 0.7268 0.16372 0.0
C726 C 0.566 0.68149 0.15856 0.0
C727 C 0.54084 0.68156 0.14453 0.0
H728 H 0.34632 0.96825 0.70278 0.0
H729 H 0.30873 0.99383 0.6268 0.0
H730 H 0.32517 0.04132 0.63435 0.0
H731 H 0.35208 0.075 0.66169 0.0
H732 H 0.38778 0.04947 0.73858 0.0
H733 H 0.37036 1.0024 0.73145 0.0
C734 C 0.34154 0.98424 0.68791 0.0
C735 C 0.32646 0.97745 0.66414 0.0
C736 C 0.35097 1.01142 0.69246 0.0
C737 C 0.32019 0.99851 0.64529 0.0
C738 C 0.32976 1.02561 0.64953 0.0
C739 C 0.35609 0.05909 0.67685 0.0
C740 C 0.37154 0.06563 0.7005 0.0
C741 C 0.34551 0.0322 0.67285 0.0
C742 C 0.37608 0.04496 0.7202 0.0
C743 C 0.36611 1.01805 0.71612 0.0
H744 H 0.0284 0.84829 0.09451 0.0
H745 H 0.03686 0.77025 0.13676 0.0
H746 H 0.98741 0.76934 0.14436 0.0
H747 H 0.94307 0.79403 0.14443 0.0
H748 H 0.9353 0.87263 0.1028 0.0
H749 H 0.98305 0.86973 0.08917 0.0
C750 C 0.01938 0.83081 0.10498 0.0
C751 C 0.03639 0.80954 0.11538 0.0
C752 C 0.99105 0.83065 0.10958 0.0
C753 C 0.0243 0.78689 0.12856 0.0
C754 C 0.99602 0.78648 0.13308 0.0
C755 C 0.95161 0.81028 0.1319 0.0
C756 C 0.93557 0.83376 0.12505 0.0
C757 C 0.97935 0.80873 0.12449 0.0
C758 C 0.94707 0.85443 0.10858 0.0
C759 C 0.97448 0.85286 0.10088 0.0
H760 H 0.17829 0.97776 0.85615 0.0
H761 H 0.2462 0.99816 0.90958 0.0
H762 H 0.2375 0.04771 0.90202 0.0
H763 H 0.21051 0.08513 0.88026 0.0
H764 H 0.14324 0.06427 0.82616 0.0
H765 H 0.15182 1.0149 0.83406 0.0
C766 C 0.19125 0.99297 0.86623 0.0
C767 C 0.21288 0.98414 0.88353 0.0
C768 C 0.1862 1.02135 0.86167 0.0
C769 C 0.22946 1.00429 0.89619 0.0
C770 C 0.22445 0.03264 0.89188 0.0
C771 C 0.19764 0.06982 0.87021 0.0
C772 C 0.17613 0.07852 0.85267 0.0
C773 C 0.20285 0.0414 0.87469 0.0
C774 C 0.15987 0.05828 0.83974 0.0
C775 C 0.16478 0.03001 0.84426 0.0
H776 H 0.96376 0.66173 0.39033 0.0
H777 H 0.95135 0.74987 0.40021 0.0
H778 H 1.00035 0.75622 0.40841 0.0
H779 H 0.0476 0.73738 0.40742 0.0
H780 H 0.05924 0.64928 0.39602 0.0
H781 H 1.00998 0.64245 0.39391 0.0
C782 C 0.97161 0.6823 0.39477 0.0
C783 C 0.95374 0.70528 0.39433 0.0
C784 C 0.99993 0.68593 0.39886 0.0
C785 C 0.9645 0.73174 0.40027 0.0
C786 C 0.99263 0.73545 0.40482 0.0
C787 C 0.03933 0.71666 0.40492 0.0
C788 C 0.05724 0.69396 0.40155 0.0
C789 C 1.0107 0.71281 0.40331 0.0
C790 C 0.04607 0.66723 0.39834 0.0
C791 C 1.01781 0.66324 0.39714 0.0
H792 H 0.33082 0.53055 0.91593 0.0
H793 H 0.3914 0.57046 0.86629 0.0
H794 H 0.41149 0.52518 0.85558 0.0
H795 H 0.40971 0.47416 0.85771 0.0
H796 H 0.34878 0.43442 0.90712 0.0
H797 H 0.33116 0.47984 0.92076 0.0
C798 C 0.34855 0.52942 0.90289 0.0
C799 C 0.35942 0.55392 0.8917 0.0
C800 C 0.35989 0.50334 0.89675 0.0
C801 C 0.38258 0.552 0.87513 0.0
C802 C 0.39402 0.52608 0.86894 0.0
C803 C 0.39274 0.47538 0.8717 0.0
C804 C 0.38047 0.45081 0.88121 0.0
C805 C 0.38254 0.50159 0.87925 0.0
C806 C 0.35863 0.4529 0.89947 0.0
C807 C 0.34846 0.47889 0.90718 0.0
H808 H 0.47132 0.91458 0.37489 0.0
H809 H 0.48503 0.82608 0.37238 0.0
H810 H 0.53222 0.83387 0.3579 0.0
H811 H 0.56954 0.86604 0.34606 0.0
H812 H 0.55496 0.95446 0.34879 0.0
H813 H 0.50793 0.94636 0.36272 0.0
C814 C 0.48457 0.89689 0.37132 0.0
C815 C 0.47459 0.86974 0.37487 0.0
C816 C 0.51147 0.90153 0.36276 0.0
C817 C 0.49216 0.84718 0.36995 0.0
C818 C 0.51912 0.85164 0.36156 0.0
C819 C 0.55602 0.88356 0.34946 0.0
C820 C 0.56585 0.91088 0.34629 0.0
C821 C 0.52897 0.87876 0.35781 0.0
C822 C 0.54802 0.93326 0.35101 0.0
C823 C 0.52112 0.92865 0.35908 0.0
H824 H 0.60546 0.19402 0.53919 0.0
H825 H 0.63853 0.27697 0.54222 0.0
H826 H 0.65075 0.27353 0.49412 0.0
H827 H 0.65729 0.24482 0.45315 0.0
H828 H 0.62613 0.16104 0.4511 0.0
H829 H 0.6076 0.16717 0.49673 0.0
C830 C 0.61496 0.21157 0.52928 0.0
C831 C 0.62135 0.23562 0.54449 0.0
C832 C 0.62247 0.20921 0.50178 0.0
C833 C 0.63344 0.25818 0.53113 0.0
C834 C 0.64056 0.25616 0.50361 0.0
C835 C 0.64598 0.22803 0.4624 0.0
C836 C 0.6434 0.20236 0.4487 0.0
C837 C 0.63596 0.23145 0.489 0.0
C838 C 0.62859 0.18095 0.46113 0.0
C839 C 0.61809 0.1844 0.48733 0.0
H840 H 0.85543 0.1396 0.04118 0.0
H841 H 0.89523 0.19797 0.09541 0.0
H842 H 0.91595 0.22097 0.05635 0.0
H843 H 0.91854 0.22752 1.00672 0.0
H844 H 0.87723 0.17008 0.9526 0.0
H845 H 0.86135 0.14365 0.99179 0.0
C846 C 0.86897 0.15711 0.04456 0.0
C847 C 0.87355 0.16719 0.07124 0.0
C848 C 0.88025 0.1706 0.02199 0.0
C849 C 0.89134 0.18975 0.07516 0.0
C850 C 0.90303 0.20304 0.05279 0.0
C851 C 0.90629 0.20905 1.00343 0.0
C852 C 0.89881 0.20101 0.97668 0.0
C853 C 0.89695 0.19414 0.02609 0.0
C854 C 0.88316 0.17687 0.97289 0.0
C855 C 0.87402 0.16176 0.99532 0.0
H856 H 0.90519 0.31858 0.52992 0.0
H857 H 0.85096 0.36652 0.58059 0.0
H858 H 0.83674 0.39402 0.54105 0.0
H859 H 0.83803 0.40304 0.49201 0.0
H860 H 0.89076 0.35422 0.44063 0.0
H861 H 0.90756 0.32873 0.48071 0.0
C862 C 0.89034 0.33513 0.5324 0.0
C863 C 0.87908 0.34035 0.55831 0.0
C864 C 0.88206 0.35075 0.50947 0.0
C865 C 0.8599 0.36193 0.561 0.0
C866 C 0.85177 0.3777 0.53836 0.0
C867 C 0.85342 0.38702 0.48947 0.0
C868 C 0.86309 0.3806 0.4632 0.0
C869 C 0.86251 0.3721 0.51248 0.0
C870 C 0.88301 0.35971 0.46052 0.0
C871 C 0.89251 0.34502 0.48345 0.0
H872 H 0.67912 0.40881 0.95409 0.0
H873 H 0.62022 0.34867 0.98135 0.0
H874 H 0.63036 0.36048 0.02864 0.0
H875 H 0.65891 0.38498 0.06282 0.0
H876 H 0.7172 0.44569 0.03543 0.0
H877 H 0.70415 0.43676 0.98825 0.0
C878 C 0.66822 0.39858 0.97034 0.0
C879 C 0.64918 0.37765 0.96397 0.0
C880 C 0.67417 0.40542 0.99777 0.0
C881 C 0.63518 0.36473 0.98546 0.0
C882 C 0.64098 0.37142 1.01267 0.0
C883 C 0.66844 0.39655 0.04656 0.0
C884 C 0.68925 0.41571 0.05285 0.0
C885 C 0.6609 0.39129 0.01915 0.0
C886 C 0.70128 0.43058 0.03138 0.0
C887 C 0.69388 0.42548 1.00423 0.0
H888 H 0.88812 0.5703 0.33443 0.0
H889 H 0.82807 0.59784 0.39239 0.0
H890 H 0.81512 0.55003 0.40128 0.0
H891 H 0.82109 0.49984 0.39336 0.0
H892 H 0.88158 0.47229 0.33587 0.0
H893 H 0.89381 0.52014 0.32622 0.0
C894 C 0.87217 0.56584 0.34894 0.0
C895 C 0.85922 0.58779 0.36268 0.0
C896 C 0.86478 0.53807 0.35419 0.0
C897 C 0.83857 0.58148 0.38148 0.0
C898 C 0.83105 0.55405 0.38664 0.0
C899 C 0.83687 0.50432 0.37868 0.0
C900 C 0.85034 0.48234 0.36549 0.0
C901 C 0.84406 0.5321 0.37322 0.0
C902 C 0.87083 0.48866 0.34651 0.0
C903 C 0.87791 0.51612 0.34089 0.0
H904 H 0.47256 0.30923 0.88907 0.0
H905 H 0.4802 0.37609 0.83121 0.0
H906 H 0.52998 0.37023 0.83183 0.0
H907 H 0.57124 0.34797 0.85087 0.0
H908 H 0.56353 0.28108 0.9087 0.0
H909 H 0.51365 0.28491 0.90575 0.0
C910 C 0.48507 0.32251 0.8765 0.0
C911 C 0.47269 0.34333 0.86034 0.0
C912 C 0.5136 0.319 0.87697 0.0
C913 C 0.4892 0.36001 0.84389 0.0
C914 C 0.51766 0.35669 0.84429 0.0
C915 C 0.55867 0.33409 0.86275 0.0
C916 C 0.57113 0.31444 0.88024 0.0
C917 C 0.53007 0.33654 0.86107 0.0
C918 C 0.55452 0.29638 0.89514 0.0
C919 C 0.52599 0.29867 0.89355 0.0
H920 H 0.6592 0.0619 0.4328 0.0
H921 H 0.72596 0.07142 0.37689 0.0
H922 H 0.72312 1.02218 0.365 0.0
H923 H 0.69876 0.97737 0.36731 0.0
H924 H 0.63209 0.96828 0.42348 0.0
H925 H 0.63798 1.01618 0.43845 0.0
C926 C 0.6734 0.05317 0.41827 0.0
C927 C 0.6926 0.07052 0.4056 0.0
C928 C 0.67152 1.02485 0.41136 0.0
C929 C 0.71097 0.05867 0.387 0.0
C930 C 0.70924 0.03048 0.38005 0.0
C931 C 0.68572 0.98574 0.38307 0.0
C932 C 0.66479 0.96916 0.394 0.0
C933 C 0.68915 1.01351 0.3916 0.0
C934 C 0.64828 0.98043 0.41456 0.0
C935 C 0.65158 1.00793 0.42312 0.0
H936 H 0.07903 0.24689 0.84746 0.0
H937 H 0.09516 0.17317 0.89503 0.0
H938 H 0.05231 0.17984 0.91917 0.0
H939 H 1.00777 0.20311 0.92272 0.0
H940 H 0.991 0.27636 0.8748 0.0
H941 H 0.03672 0.27361 0.85526 0.0
C942 C 0.07342 0.23251 0.86342 0.0
C943 C 0.0902 0.20929 0.86907 0.0
C944 C 0.0485 0.23628 0.87706 0.0
C945 C 0.08265 0.19109 0.89004 0.0
C946 C 0.05805 0.19483 0.90383 0.0
C947 C 1.01427 0.21879 0.90836 0.0
C948 C 0.9958 0.2397 0.9 0.0
C949 C 0.04042 0.21682 0.89689 0.0
C950 C 1.00471 0.26001 0.8816 0.0
C951 C 0.03083 0.25833 0.87025 0.0
H952 H 0.86676 0.06604 0.1738 0.0
H953 H 0.79833 0.0659 0.11726 0.0
H954 H 0.80143 1.01524 0.11364 0.0
H955 H 0.82384 0.97109 0.12644 0.0
H956 H 0.89197 0.97183 0.1834 0.0
H957 H 0.88876 1.0223 0.18679 0.0
C958 C 0.85243 0.05502 0.16066 0.0
C959 C 0.83232 0.06985 0.14578 0.0
C960 C 0.85438 0.026 0.15868 0.0
C961 C 0.81396 0.05507 0.12897 0.0
C962 C 0.81578 0.0261 0.12685 0.0
C963 C 0.83808 0.98227 0.13952 0.0
C964 C 0.85822 0.9676 0.15458 0.0
C965 C 0.83598 1.01136 0.14156 0.0
C966 C 0.87633 0.9825 0.17156 0.0
C967 C 0.87448 1.01139 0.17354 0.0
H968 H 0.07133 0.32775 0.64667 0.0
H969 H 0.05512 0.38706 0.71056 0.0
H970 H 1.00609 0.377 0.70681 0.0
H971 H 0.96801 0.35223 0.68454 0.0
H972 H 0.9845 0.2919 0.62162 0.0
H973 H 0.03355 0.30143 0.62595 0.0
C974 C 0.05709 0.33855 0.65978 0.0
C975 C 0.0668 0.35837 0.67869 0.0
C976 C 0.0291 0.33244 0.65768 0.0
C977 C 0.04814 0.3718 0.69581 0.0
C978 C 0.02014 0.36607 0.69363 0.0
C979 C 0.98232 0.34112 0.67176 0.0
C980 C 0.97262 0.32153 0.65259 0.0
C981 C 1.01041 0.34657 0.6745 0.0
C982 C 0.99145 0.30706 0.63648 0.0
C983 C 0.01946 0.31257 0.63891 0.0
H984 H 0.6738 0.48458 0.19325 0.0
H985 H 0.73547 0.50702 0.1351 0.0
H986 H 0.72715 0.55625 0.14461 0.0
H987 H 0.70133 0.59274 0.16832 0.0
H988 H 0.63982 0.5701 0.22658 0.0
H989 H 0.64916 0.52094 0.21806 0.0
C990 C 0.68555 0.50018 0.18265 0.0
C991 C 0.70519 0.49204 0.16333 0.0
C992 C 0.68058 0.52837 0.18817 0.0
C993 C 0.72028 0.51263 0.15003 0.0
C994 C 0.71545 0.54079 0.15542 0.0
C995 C 0.68992 0.57709 0.17921 0.0
C996 C 0.66971 0.58518 0.19798 0.0
C997 C 0.69547 0.54888 0.17425 0.0
C998 C 0.65539 0.56454 0.21202 0.0
C999 C 0.66073 0.53641 0.20713 0.0
H1000 H 0.50762 0.14367 0.73059 0.0
H1001 H 0.45736 0.18667 0.67114 0.0
H1002 H 0.49837 0.20517 0.64976 0.0
H1003 H 0.54845 0.21076 0.64918 0.0
H1004 H 0.59837 0.16857 0.7095 0.0
H1005 H 0.55753 0.14804 0.72915 0.0
C1006 C 0.50557 0.15696 0.71286 0.0
C1007 C 0.47936 0.16382 0.70258 0.0
C1008 C 0.52921 0.16774 0.70082 0.0
C1009 C 0.47722 0.18107 0.67955 0.0
C1010 C 0.50069 0.19169 0.66731 0.0
C1011 C 0.55045 0.19689 0.66648 0.0
C1012 C 0.57652 0.1913 0.67786 0.0
C1013 C 0.52679 0.1854 0.67795 0.0
C1014 C 0.57862 0.17335 0.70036 0.0
C1015 C 0.55525 0.1616 0.71165 0.0
H1016 H 0.40223 0.85547 0.48895 0.0
H1017 H 0.35299 0.91286 0.44174 0.0
H1018 H 0.33139 0.92945 0.48348 0.0
H1019 H 0.32367 0.92455 0.53265 0.0
H1020 H 0.37134 0.86523 0.57918 0.0
H1021 H 0.39647 0.85251 0.53827 0.0
C1022 C 0.38702 0.87187 0.48773 0.0
C1023 C 0.37911 0.88278 0.46219 0.0
C1024 C 0.37423 0.88074 0.51166 0.0
C1025 C 0.35942 0.90406 0.4611 0.0
C1026 C 0.34698 0.91345 0.48495 0.0
C1027 C 0.33974 0.90902 0.53394 0.0
C1028 C 0.34547 0.8957 0.55894 0.0
C1029 C 0.35376 0.90145 0.51024 0.0
C1030 C 0.36639 0.87568 0.5602 0.0
C1031 C 0.38077 0.86839 0.53681 0.0
H1032 H 0.12297 0.83375 0.02774 0.0
H1033 H 0.1624 0.88501 0.08879 0.0
H1034 H 0.18684 0.90983 0.05306 0.0
H1035 H 0.20064 0.91327 1.00503 0.0
H1036 H 0.16241 0.86018 0.94464 0.0
H1037 H 0.13381 0.83977 0.97968 0.0
C1038 C 0.13665 0.85059 0.03328 0.0
C1039 C 0.14108 0.85732 0.06093 0.0
C1040 C 0.15107 0.86422 1.01276 0.0
C1041 C 0.15863 0.8794 0.06768 0.0
C1042 C 0.17275 0.89346 0.04726 0.0
C1043 C 0.18583 0.89747 0.99945 0.0
C1044 C 0.18393 0.88804 0.97225 0.0
C1045 C 0.16972 0.88547 0.01981 0.0
C1046 C 0.1645 0.86766 0.96541 0.0
C1047 C 0.14813 0.85596 0.98544 0.0
H1048 H 0.24391 0.67476 0.52734 0.0
H1049 H 0.18777 0.61489 0.56021 0.0
H1050 H 0.16222 0.61412 0.51725 0.0
H1051 H 0.15142 0.63641 0.47317 0.0
H1052 H 0.20888 0.69401 0.439 0.0
H1053 H 0.23848 0.68933 0.47923 0.0
C1054 C 0.22653 0.661 0.52481 0.0
C1055 C 0.21754 0.6453 0.54712 0.0
C1056 C 0.21195 0.66043 0.49985 0.0
C1057 C 0.19515 0.62729 0.54345 0.0
C1058 C 0.18034 0.62696 0.5189 0.0
C1059 C 0.17086 0.6472 0.4742 0.0
C1060 C 0.17782 0.66568 0.4533 0.0
C1061 C 0.18789 0.6443 0.49737 0.0
C1062 C 0.2031 0.67953 0.45476 0.0
C1063 C 0.21993 0.67709 0.47793 0.0
H1064 H 0.32505 0.69929 0.06225 0.0
H1065 H 0.39351 0.64724 0.08454 0.0
H1066 H 0.38481 0.61792 0.04433 0.0
H1067 H 0.36265 0.61267 0.99904 0.0
H1068 H 0.29466 0.66588 0.97695 0.0
H1069 H 0.29783 0.68882 0.0212 0.0
C1070 C 0.33754 0.681 0.05867 0.0
C1071 C 0.35999 0.67542 0.07602 0.0
C1072 C 0.33267 0.66474 0.03541 0.0
C1073 C 0.37603 0.65173 0.07147 0.0
C1074 C 0.3712 0.63521 0.04834 0.0
C1075 C 0.34811 0.62885 1.00414 0.0
C1076 C 0.32882 0.63794 0.98442 0.0
C1077 C 0.35033 0.64231 0.02955 0.0
C1078 C 0.30986 0.65861 0.99156 0.0
C1079 C 0.31176 0.67189 0.01684 0.0
loop_
_geom_bond_atom_site_label_1
_geom_bond_atom_site_label_2
_geom_bond_distance
_geom_bond_site_symmetry_2
_ccdc_geom_bond_type
Mg0 O7 2.141 . S
Mg0 O8 2.048 . S
Mg0 O9 2.048 . S
Mg0 O12 2.141 . S
C1 O2 1.313 . S
C1 O8 1.195 . S
O2 C1 1.313 . S
C3 O4 1.245 . S
C3 O12 1.289 . S
O4 C3 1.245 . S
C5 O6 1.245 . S
C5 O7 1.289 . S
O6 C5 1.245 . S
O7 Mg0 2.141 . S
O7 C5 1.289 . S
O8 Mg0 2.048 . S
O8 C1 1.195 . S
O9 Mg0 2.048 . S
O9 C10 1.195 . S
C10 O9 1.195 . S
C10 O11 1.313 . S
O11 C10 1.313 . S
O12 Mg0 2.141 . S
O12 C3 1.289 . S
Mg13 O20 2.141 . S
Mg13 O21 2.048 . S
Mg13 O22 2.048 . S
Mg13 O25 2.141 . S
C14 O15 1.313 . S
C14 O21 1.195 . S
O15 C14 1.313 . S
C16 O17 1.245 . S
C16 O25 1.289 . S
O17 C16 1.245 . S
C18 O19 1.245 . S
C18 O20 1.289 . S
O19 C18 1.245 . S
O20 Mg13 2.141 . S
O20 C18 1.289 . S
O21 Mg13 2.048 . S
O21 C14 1.195 . S
O22 Mg13 2.048 . S
O22 C23 1.195 . S
C23 O22 1.195 . S
C23 O24 1.313 . S
O24 C23 1.313 . S
O25 Mg13 2.141 . S
O25 C16 1.289 . S
Mg26 O33 2.141 . S
Mg26 O34 2.048 . S
Mg26 O35 2.048 . S
Mg26 O38 2.141 . S
C27 O28 1.313 . S
C27 O34 1.195 . S
O28 C27 1.313 . S
C29 O30 1.245 . S
C29 O38 1.289 . S
O30 C29 1.245 . S
C31 O32 1.245 . S
C31 O33 1.289 . S
O32 C31 1.245 . S
O33 Mg26 2.141 . S
O33 C31 1.289 . S
O34 Mg26 2.048 . S
O34 C27 1.195 . S
O35 Mg26 2.048 . S
O35 C36 1.195 . S
C36 O35 1.195 . S
C36 O37 1.313 . S
O37 C36 1.313 . S
O38 Mg26 2.141 . S
O38 C29 1.289 . S
Mg39 O46 2.141 . S
Mg39 O47 2.048 . S
Mg39 O48 2.048 . S
Mg39 O51 2.141 . S
C40 O41 1.313 . S
C40 O47 1.195 . S
O41 C40 1.313 . S
C42 O43 1.245 . S
C42 O51 1.289 . S
O43 C42 1.245 . S
C44 O45 1.245 . S
C44 O46 1.289 . S
O45 C44 1.245 . S
O46 Mg39 2.141 . S
O46 C44 1.289 . S
O47 Mg39 2.048 . S
O47 C40 1.195 . S
O48 Mg39 2.048 . S
O48 C49 1.195 . S
C49 O48 1.195 . S
C49 O50 1.313 . S
O50 C49 1.313 . S
O51 Mg39 2.141 . S
O51 C42 1.289 . S
Mg52 O59 2.141 . S
Mg52 O60 2.048 . S
Mg52 O61 2.048 . S
Mg52 O64 2.141 . S
C53 O54 1.313 . S
C53 O60 1.195 . S
O54 C53 1.313 . S
C55 O56 1.245 . S
C55 O64 1.289 . S
O56 C55 1.245 . S
C57 O58 1.245 . S
C57 O59 1.289 . S
O58 C57 1.245 . S
O59 Mg52 2.141 . S
O59 C57 1.289 . S
O60 Mg52 2.048 . S
O60 C53 1.195 . S
O61 Mg52 2.048 . S
O61 C62 1.195 . S
C62 O61 1.195 . S
C62 O63 1.313 . S
O63 C62 1.313 . S
O64 Mg52 2.141 . S
O64 C55 1.289 . S
Mg65 O72 2.141 . S
Mg65 O73 2.048 . S
Mg65 O74 2.048 . S
Mg65 O77 2.141 . S
C66 O67 1.313 . S
C66 O73 1.195 . S
O67 C66 1.313 . S
C68 O69 1.245 . S
C68 O77 1.289 . S
O69 C68 1.245 . S
C70 O71 1.245 . S
C70 O72 1.289 . S
O71 C70 1.245 . S
O72 Mg65 2.141 . S
O72 C70 1.289 . S
O73 Mg65 2.048 . S
O73 C66 1.195 . S
O74 Mg65 2.048 . S
O74 C75 1.195 . S
C75 O74 1.195 . S
C75 O76 1.313 . S
O76 C75 1.313 . S
O77 Mg65 2.141 . S
O77 C68 1.289 . S
Mg78 O85 2.141 . S
Mg78 O86 2.048 . S
Mg78 O87 2.048 . S
Mg78 O90 2.141 . S
C79 O80 1.313 . S
C79 O86 1.195 . S
O80 C79 1.313 . S
C81 O82 1.245 . S
C81 O90 1.289 . S
O82 C81 1.245 . S
C83 O84 1.245 . S
C83 O85 1.289 . S
O84 C83 1.245 . S
O85 Mg78 2.141 . S
O85 C83 1.289 . S
O86 Mg78 2.048 . S
O86 C79 1.195 . S
O87 Mg78 2.048 . S
O87 C88 1.195 . S
C88 O87 1.195 . S
C88 O89 1.313 . S
O89 C88 1.313 . S
O90 Mg78 2.141 . S
O90 C81 1.289 . S
Mg91 O98 2.141 . S
Mg91 O99 2.048 . S
Mg91 O100 2.048 . S
Mg91 O103 2.141 . S
C92 O93 1.313 . S
C92 O99 1.195 . S
O93 C92 1.313 . S
C94 O95 1.245 . S
C94 O103 1.289 . S
O95 C94 1.245 . S
C96 O97 1.245 . S
C96 O98 1.289 . S
O97 C96 1.245 . S
O98 Mg91 2.141 . S
O98 C96 1.289 . S
O99 Mg91 2.048 . S
O99 C92 1.195 . S
O100 Mg91 2.048 . S
O100 C101 1.195 . S
C101 O100 1.195 . S
C101 O102 1.313 . S
O102 C101 1.313 . S
O103 Mg91 2.141 . S
O103 C94 1.289 . S
Mg104 O111 2.141 . S
Mg104 O112 2.048 . S
Mg104 O113 2.048 . S
Mg104 O116 2.141 . S
C105 O106 1.313 . S
C105 O112 1.195 . S
O106 C105 1.313 . S
C107 O108 1.245 . S
C107 O116 1.289 . S
O108 C107 1.245 . S
C109 O110 1.245 . S
C109 O111 1.289 . S
O110 C109 1.245 . S
O111 Mg104 2.141 . S
O111 C109 1.289 . S
O112 Mg104 2.048 . S
O112 C105 1.195 . S
O113 Mg104 2.048 . S
O113 C114 1.195 . S
C114 O113 1.195 . S
C114 O115 1.313 . S
O115 C114 1.313 . S
O116 Mg104 2.141 . S
O116 C107 1.289 . S
Mg117 O124 2.141 . S
Mg117 O125 2.048 . S
Mg117 O126 2.048 . S
Mg117 O129 2.141 . S
C118 O119 1.313 . S
C118 O125 1.195 . S
O119 C118 1.313 . S
C120 O121 1.245 . S
C120 O129 1.289 . S
O121 C120 1.245 . S
C122 O123 1.245 . S
C122 O124 1.289 . S
O123 C122 1.245 . S
O124 Mg117 2.141 . S
O124 C122 1.289 . S
O125 Mg117 2.048 . S
O125 C118 1.195 . S
O126 Mg117 2.048 . S
O126 C127 1.195 . S
C127 O126 1.195 . S
C127 O128 1.313 . S
O128 C127 1.313 . S
O129 Mg117 2.141 . S
O129 C120 1.289 . S
Mg130 O137 2.141 . S
Mg130 O138 2.048 . S
Mg130 O139 2.048 . S
Mg130 O142 2.141 . S
C131 O132 1.313 . S
C131 O138 1.195 . S
O132 C131 1.313 . S
C133 O134 1.245 . S
C133 O142 1.289 . S
O134 C133 1.245 . S
C135 O136 1.245 . S
C135 O137 1.289 . S
O136 C135 1.245 . S
O137 Mg130 2.141 . S
O137 C135 1.289 . S
O138 Mg130 2.048 . S
O138 C131 1.195 . S
O139 Mg130 2.048 . S
O139 C140 1.195 . S
C140 O139 1.195 . S
C140 O141 1.313 . S
O141 C140 1.313 . S
O142 Mg130 2.141 . S
O142 C133 1.289 . S
Mg143 O150 2.141 . S
Mg143 O151 2.048 . S
Mg143 O152 2.048 . S
Mg143 O155 2.141 . S
C144 O145 1.313 . S
C144 O151 1.195 . S
O145 C144 1.313 . S
C146 O147 1.245 . S
C146 O155 1.289 . S
O147 C146 1.245 . S
C148 O149 1.245 . S
C148 O150 1.289 . S
O149 C148 1.245 . S
O150 Mg143 2.141 . S
O150 C148 1.289 . S
O151 Mg143 2.048 . S
O151 C144 1.195 . S
O152 Mg143 2.048 . S
O152 C153 1.195 . S
C153 O152 1.195 . S
C153 O154 1.313 . S
O154 C153 1.313 . S
O155 Mg143 2.141 . S
O155 C146 1.289 . S
Mg156 O163 2.141 . S
Mg156 O164 2.048 . S
Mg156 O165 2.048 . S
Mg156 O168 2.141 . S
C157 O158 1.313 . S
C157 O164 1.195 . S
O158 C157 1.313 . S
C159 O160 1.245 . S
C159 O168 1.289 . S
O160 C159 1.245 . S
C161 O162 1.245 . S
C161 O163 1.289 . S
O162 C161 1.245 . S
O163 Mg156 2.141 . S
O163 C161 1.289 . S
O164 Mg156 2.048 . S
O164 C157 1.195 . S
O165 Mg156 2.048 . S
O165 C166 1.195 . S
C166 O165 1.195 . S
C166 O167 1.313 . S
O167 C166 1.313 . S
O168 Mg156 2.141 . S
O168 C159 1.289 . S
Mg169 O176 2.141 . S
Mg169 O177 2.048 . S
Mg169 O178 2.048 . S
Mg169 O181 2.141 . S
C170 O171 1.313 . S
C170 O177 1.195 . S
O171 C170 1.313 . S
C172 O173 1.245 . S
C172 O181 1.289 . S
O173 C172 1.245 . S
C174 O175 1.245 . S
C174 O176 1.289 . S
O175 C174 1.245 . S
O176 Mg169 2.141 . S
O176 C174 1.289 . S
O177 Mg169 2.048 . S
O177 C170 1.195 . S
O178 Mg169 2.048 . S
O178 C179 1.195 . S
C179 O178 1.195 . S
C179 O180 1.313 . S
O180 C179 1.313 . S
O181 Mg169 2.141 . S
O181 C172 1.289 . S
Mg182 O189 2.141 . S
Mg182 O190 2.048 . S
Mg182 O191 2.048 . S
Mg182 O194 2.141 . S
C183 O184 1.313 . S
C183 O190 1.195 . S
O184 C183 1.313 . S
C185 O186 1.245 . S
C185 O194 1.289 . S
O186 C185 1.245 . S
C187 O188 1.245 . S
C187 O189 1.289 . S
O188 C187 1.245 . S
O189 Mg182 2.141 . S
O189 C187 1.289 . S
O190 Mg182 2.048 . S
O190 C183 1.195 . S
O191 Mg182 2.048 . S
O191 C192 1.195 . S
C192 O191 1.195 . S
C192 O193 1.313 . S
O193 C192 1.313 . S
O194 Mg182 2.141 . S
O194 C185 1.289 . S
Mg195 O202 2.141 . S
Mg195 O203 2.048 . S
Mg195 O204 2.048 . S
Mg195 O207 2.141 . S
C196 O197 1.313 . S
C196 O203 1.195 . S
O197 C196 1.313 . S
C198 O199 1.245 . S
C198 O207 1.289 . S
O199 C198 1.245 . S
C200 O201 1.245 . S
C200 O202 1.289 . S
O201 C200 1.245 . S
O202 Mg195 2.141 . S
O202 C200 1.289 . S
O203 Mg195 2.048 . S
O203 C196 1.195 . S
O204 Mg195 2.048 . S
O204 C205 1.195 . S
C205 O204 1.195 . S
C205 O206 1.313 . S
O206 C205 1.313 . S
O207 Mg195 2.141 . S
O207 C198 1.289 . S
Mg208 O215 2.141 . S
Mg208 O216 2.048 . S
Mg208 O217 2.048 . S
Mg208 O220 2.141 . S
C209 O210 1.313 . S
C209 O216 1.195 . S
O210 C209 1.313 . S
C211 O212 1.245 . S
C211 O220 1.289 . S
O212 C211 1.245 . S
C213 O214 1.245 . S
C213 O215 1.289 . S
O214 C213 1.245 . S
O215 Mg208 2.141 . S
O215 C213 1.289 . S
O216 Mg208 2.048 . S
O216 C209 1.195 . S
O217 Mg208 2.048 . S
O217 C218 1.195 . S
C218 O217 1.195 . S
C218 O219 1.313 . S
O219 C218 1.313 . S
O220 Mg208 2.141 . S
O220 C211 1.289 . S
Mg221 O228 2.141 . S
Mg221 O229 2.048 . S
Mg221 O230 2.048 . S
Mg221 O233 2.141 . S
C222 O223 1.313 . S
C222 O229 1.195 . S
O223 C222 1.313 . S
C224 O225 1.245 . S
C224 O233 1.289 . S
O225 C224 1.245 . S
C226 O227 1.245 . S
C226 O228 1.289 . S
O227 C226 1.245 . S
O228 Mg221 2.141 . S
O228 C226 1.289 . S
O229 Mg221 2.048 . S
O229 C222 1.195 . S
O230 Mg221 2.048 . S
O230 C231 1.195 . S
C231 O230 1.195 . S
C231 O232 1.313 . S
O232 C231 1.313 . S
O233 Mg221 2.141 . S
O233 C224 1.289 . S
Mg234 O241 2.141 . S
Mg234 O242 2.048 . S
Mg234 O243 2.048 . S
Mg234 O246 2.141 . S
C235 O236 1.313 . S
C235 O242 1.195 . S
O236 C235 1.313 . S
C237 O238 1.245 . S
C237 O246 1.289 . S
O238 C237 1.245 . S
C239 O240 1.245 . S
C239 O241 1.289 . S
O240 C239 1.245 . S
O241 Mg234 2.141 . S
O241 C239 1.289 . S
O242 Mg234 2.048 . S
O242 C235 1.195 . S
O243 Mg234 2.048 . S
O243 C244 1.195 . S
C244 O243 1.195 . S
C244 O245 1.313 . S
O245 C244 1.313 . S
O246 Mg234 2.141 . S
O246 C237 1.289 . S
Mg247 O254 2.141 . S
Mg247 O255 2.048 . S
Mg247 O256 2.048 . S
Mg247 O259 2.141 . S
C248 O249 1.313 . S
C248 O255 1.195 . S
O249 C248 1.313 . S
C250 O251 1.245 . S
C250 O259 1.289 . S
O251 C250 1.245 . S
C252 O253 1.245 . S
C252 O254 1.289 . S
O253 C252 1.245 . S
O254 Mg247 2.141 . S
O254 C252 1.289 . S
O255 Mg247 2.048 . S
O255 C248 1.195 . S
O256 Mg247 2.048 . S
O256 C257 1.195 . S
C257 O256 1.195 . S
C257 O258 1.313 . S
O258 C257 1.313 . S
O259 Mg247 2.141 . S
O259 C250 1.289 . S
Mg260 O267 2.141 . S
Mg260 O268 2.048 . S
Mg260 O269 2.048 . S
Mg260 O272 2.141 . S
C261 O262 1.313 . S
C261 O268 1.195 . S
O262 C261 1.313 . S
C263 O264 1.245 . S
C263 O272 1.289 . S
O264 C263 1.245 . S
C265 O266 1.245 . S
C265 O267 1.289 . S
O266 C265 1.245 . S
O267 Mg260 2.141 . S
O267 C265 1.289 . S
O268 Mg260 2.048 . S
O268 C261 1.195 . S
O269 Mg260 2.048 . S
O269 C270 1.195 . S
C270 O269 1.195 . S
C270 O271 1.313 . S
O271 C270 1.313 . S
O272 Mg260 2.141 . S
O272 C263 1.289 . S
Mg273 O280 2.141 . S
Mg273 O281 2.048 . S
Mg273 O282 2.048 . S
Mg273 O285 2.141 . S
C274 O275 1.313 . S
C274 O281 1.195 . S
O275 C274 1.313 . S
C276 O277 1.245 . S
C276 O285 1.289 . S
O277 C276 1.245 . S
C278 O279 1.245 . S
C278 O280 1.289 . S
O279 C278 1.245 . S
O280 Mg273 2.141 . S
O280 C278 1.289 . S
O281 Mg273 2.048 . S
O281 C274 1.195 . S
O282 Mg273 2.048 . S
O282 C283 1.195 . S
C283 O282 1.195 . S
C283 O284 1.313 . S
O284 C283 1.313 . S
O285 Mg273 2.141 . S
O285 C276 1.289 . S
Mg286 O293 2.141 . S
Mg286 O294 2.048 . S
Mg286 O295 2.048 . S
Mg286 O298 2.141 . S
C287 O288 1.313 . S
C287 O294 1.195 . S
O288 C287 1.313 . S
C289 O290 1.245 . S
C289 O298 1.289 . S
O290 C289 1.245 . S
C291 O292 1.245 . S
C291 O293 1.289 . S
O292 C291 1.245 . S
O293 Mg286 2.141 . S
O293 C291 1.289 . S
O294 Mg286 2.048 . S
O294 C287 1.195 . S
O295 Mg286 2.048 . S
O295 C296 1.195 . S
C296 O295 1.195 . S
C296 O297 1.313 . S
O297 C296 1.313 . S
O298 Mg286 2.141 . S
O298 C289 1.289 . S
Mg299 O306 2.141 . S
Mg299 O307 2.048 . S
Mg299 O308 2.048 . S
Mg299 O311 2.141 . S
C300 O301 1.313 . S
C300 O307 1.195 . S
O301 C300 1.313 . S
C302 O303 1.245 . S
C302 O311 1.289 . S
O303 C302 1.245 . S
C304 O305 1.245 . S
C304 O306 1.289 . S
O305 C304 1.245 . S
O306 Mg299 2.141 . S
O306 C304 1.289 . S
O307 Mg299 2.048 . S
O307 C300 1.195 . S
O308 Mg299 2.048 . S
O308 C309 1.195 . S
C309 O308 1.195 . S
C309 O310 1.313 . S
O310 C309 1.313 . S
O311 Mg299 2.141 . S
O311 C302 1.289 . S
H312 C318 0.930 . S
H313 C321 0.930 . S
H314 C322 0.930 . S
H315 C323 0.930 . S
H316 C326 0.930 . S
H317 C327 0.930 . S
C318 H312 0.930 . S
C318 C319 1.355 . S
C318 C320 1.415 . S
C319 C318 1.355 . S
C319 C321 1.419 . S
C320 C318 1.415 . S
C320 C325 1.425 . S
C320 C327 1.409 . S
C321 H313 0.930 . S
C321 C319 1.419 . S
C321 C322 1.362 . S
C322 H314 0.930 . S
C322 C321 1.362 . S
C322 C325 1.409 . S
C323 H315 0.930 . S
C323 C324 1.355 . S
C323 C325 1.415 . S
C324 C323 1.355 . S
C324 C326 1.419 . S
C325 C320 1.425 . S
C325 C322 1.409 . S
C325 C323 1.415 . S
C326 H316 0.930 . S
C326 C324 1.419 . S
C326 C327 1.362 . S
C327 H317 0.930 . S
C327 C320 1.409 . S
C327 C326 1.362 . S
H328 C334 0.930 . S
H329 C337 0.930 . S
H330 C338 0.930 . S
H331 C339 0.930 . S
H332 C342 0.930 . S
H333 C343 0.930 . S
C334 H328 0.930 . S
C334 C335 1.355 . S
C334 C336 1.415 . S
C335 C334 1.355 . S
C335 C337 1.419 . S
C336 C334 1.415 . S
C336 C341 1.425 . S
C336 C343 1.409 . S
C337 H329 0.930 . S
C337 C335 1.419 . S
C337 C338 1.362 . S
C338 H330 0.930 . S
C338 C337 1.362 . S
C338 C341 1.409 . S
C339 H331 0.930 . S
C339 C340 1.355 . S
C339 C341 1.415 . S
C340 C339 1.355 . S
C340 C342 1.419 . S
C341 C336 1.425 . S
C341 C338 1.409 . S
C341 C339 1.415 . S
C342 H332 0.930 . S
C342 C340 1.419 . S
C342 C343 1.362 . S
C343 H333 0.930 . S
C343 C336 1.409 . S
C343 C342 1.362 . S
H344 C350 0.930 . S
H345 C353 0.930 . S
H346 C354 0.930 . S
H347 C355 0.930 . S
H348 C358 0.930 . S
H349 C359 0.930 . S
C350 H344 0.930 . S
C350 C351 1.355 . S
C350 C352 1.415 . S
C351 C350 1.355 . S
C351 C353 1.419 . S
C352 C350 1.415 . S
C352 C357 1.425 . S
C352 C359 1.409 . S
C353 H345 0.930 . S
C353 C351 1.419 . S
C353 C354 1.362 . S
C354 H346 0.930 . S
C354 C353 1.362 . S
C354 C357 1.409 . S
C355 H347 0.930 . S
C355 C356 1.355 . S
C355 C357 1.415 . S
C356 C355 1.355 . S
C356 C358 1.419 . S
C357 C352 1.425 . S
C357 C354 1.409 . S
C357 C355 1.415 . S
C358 H348 0.930 . S
C358 C356 1.419 . S
C358 C359 1.362 . S
C359 H349 0.930 . S
C359 C352 1.409 . S
C359 C358 1.362 . S
H360 C366 0.930 . S
H361 C369 0.930 . S
H362 C370 0.930 . S
H363 C371 0.930 . S
H364 C374 0.930 . S
H365 C375 0.930 . S
C366 H360 0.930 . S
C366 C367 1.355 . S
C366 C368 1.415 . S
C367 C366 1.355 . S
C367 C369 1.419 . S
C368 C366 1.415 . S
C368 C373 1.425 . S
C368 C375 1.409 . S
C369 H361 0.930 . S
C369 C367 1.419 . S
C369 C370 1.362 . S
C370 H362 0.930 . S
C370 C369 1.362 . S
C370 C373 1.409 . S
C371 H363 0.930 . S
C371 C372 1.355 . S
C371 C373 1.415 . S
C372 C371 1.355 . S
C372 C374 1.419 . S
C373 C368 1.425 . S
C373 C370 1.409 . S
C373 C371 1.415 . S
C374 H364 0.930 . S
C374 C372 1.419 . S
C374 C375 1.362 . S
C375 H365 0.930 . S
C375 C368 1.409 . S
C375 C374 1.362 . S
H376 C382 0.930 . S
H377 C385 0.930 . S
H378 C386 0.930 . S
H379 C387 0.930 . S
H380 C390 0.930 . S
H381 C391 0.930 . S
C382 H376 0.930 . S
C382 C383 1.355 . S
C382 C384 1.415 . S
C383 C382 1.355 . S
C383 C385 1.419 . S
C384 C382 1.415 . S
C384 C389 1.425 . S
C384 C391 1.409 . S
C385 H377 0.930 . S
C385 C383 1.419 . S
C385 C386 1.362 . S
C386 H378 0.930 . S
C386 C385 1.362 . S
C386 C389 1.409 . S
C387 H379 0.930 . S
C387 C388 1.355 . S
C387 C389 1.415 . S
C388 C387 1.355 . S
C388 C390 1.419 . S
C389 C384 1.425 . S
C389 C386 1.409 . S
C389 C387 1.415 . S
C390 H380 0.930 . S
C390 C388 1.419 . S
C390 C391 1.362 . S
C391 H381 0.930 . S
C391 C384 1.409 . S
C391 C390 1.362 . S
H392 C398 0.930 . S
H393 C401 0.930 . S
H394 C402 0.930 . S
H395 C403 0.930 . S
H396 C406 0.930 . S
H397 C407 0.930 . S
C398 H392 0.930 . S
C398 C399 1.355 . S
C398 C400 1.415 . S
C399 C398 1.355 . S
C399 C401 1.419 . S
C400 C398 1.415 . S
C400 C405 1.425 . S
C400 C407 1.409 . S
C401 H393 0.930 . S
C401 C399 1.419 . S
C401 C402 1.362 . S
C402 H394 0.930 . S
C402 C401 1.362 . S
C402 C405 1.409 . S
C403 H395 0.930 . S
C403 C404 1.355 . S
C403 C405 1.415 . S
C404 C403 1.355 . S
C404 C406 1.419 . S
C405 C400 1.425 . S
C405 C402 1.409 . S
C405 C403 1.415 . S
C406 H396 0.930 . S
C406 C404 1.419 . S
C406 C407 1.362 . S
C407 H397 0.930 . S
C407 C400 1.409 . S
C407 C406 1.362 . S
H408 C414 0.930 . S
H409 C417 0.930 . S
H410 C418 0.930 . S
H411 C419 0.930 . S
H412 C422 0.930 . S
H413 C423 0.930 . S
C414 H408 0.930 . S
C414 C415 1.355 . S
C414 C416 1.415 . S
C415 C414 1.355 . S
C415 C417 1.419 . S
C416 C414 1.415 . S
C416 C421 1.425 . S
C416 C423 1.409 . S
C417 H409 0.930 . S
C417 C415 1.419 . S
C417 C418 1.362 . S
C418 H410 0.930 . S
C418 C417 1.362 . S
C418 C421 1.409 . S
C419 H411 0.930 . S
C419 C420 1.355 . S
C419 C421 1.415 . S
C420 C419 1.355 . S
C420 C422 1.419 . S
C421 C416 1.425 . S
C421 C418 1.409 . S
C421 C419 1.415 . S
C422 H412 0.930 . S
C422 C420 1.419 . S
C422 C423 1.362 . S
C423 H413 0.930 . S
C423 C416 1.409 . S
C423 C422 1.362 . S
H424 C430 0.930 . S
H425 C433 0.930 . S
H426 C434 0.930 . S
H427 C435 0.930 . S
H428 C438 0.930 . S
H429 C439 0.930 . S
C430 H424 0.930 . S
C430 C431 1.355 . S
C430 C432 1.415 . S
C431 C430 1.355 . S
C431 C433 1.419 . S
C432 C430 1.415 . S
C432 C437 1.425 . S
C432 C439 1.409 . S
C433 H425 0.930 . S
C433 C431 1.419 . S
C433 C434 1.362 . S
C434 H426 0.930 . S
C434 C433 1.362 . S
C434 C437 1.409 . S
C435 H427 0.930 . S
C435 C436 1.355 . S
C435 C437 1.415 . S
C436 C435 1.355 . S
C436 C438 1.419 . S
C437 C432 1.425 . S
C437 C434 1.409 . S
C437 C435 1.415 . S
C438 H428 0.930 . S
C438 C436 1.419 . S
C438 C439 1.362 . S
C439 H429 0.930 . S
C439 C432 1.409 . S
C439 C438 1.362 . S
H440 C446 0.930 . S
H441 C449 0.930 . S
H442 C450 0.930 . S
H443 C451 0.930 . S
H444 C454 0.930 . S
H445 C455 0.930 . S
C446 H440 0.930 . S
C446 C447 1.355 . S
C446 C448 1.415 . S
C447 C446 1.355 . S
C447 C449 1.419 . S
C448 C446 1.415 . S
C448 C453 1.425 . S
C448 C455 1.409 . S
C449 H441 0.930 . S
C449 C447 1.419 . S
C449 C450 1.362 . S
C450 H442 0.930 . S
C450 C449 1.362 . S
C450 C453 1.409 . S
C451 H443 0.930 . S
C451 C452 1.355 . S
C451 C453 1.415 . S
C452 C451 1.355 . S
C452 C454 1.419 . S
C453 C448 1.425 . S
C453 C450 1.409 . S
C453 C451 1.415 . S
C454 H444 0.930 . S
C454 C452 1.419 . S
C454 C455 1.362 . S
C455 H445 0.930 . S
C455 C448 1.409 . S
C455 C454 1.362 . S
H456 C462 0.930 . S
H457 C465 0.930 . S
H458 C466 0.930 . S
H459 C467 0.930 . S
H460 C470 0.930 . S
H461 C471 0.930 . S
C462 H456 0.930 . S
C462 C463 1.355 . S
C462 C464 1.415 . S
C463 C462 1.355 . S
C463 C465 1.419 . S
C464 C462 1.415 . S
C464 C469 1.425 . S
C464 C471 1.409 . S
C465 H457 0.930 . S
C465 C463 1.419 . S
C465 C466 1.362 . S
C466 H458 0.930 . S
C466 C465 1.362 . S
C466 C469 1.409 . S
C467 H459 0.930 . S
C467 C468 1.355 . S
C467 C469 1.415 . S
C468 C467 1.355 . S
C468 C470 1.419 . S
C469 C464 1.425 . S
C469 C466 1.409 . S
C469 C467 1.415 . S
C470 H460 0.930 . S
C470 C468 1.419 . S
C470 C471 1.362 . S
C471 H461 0.930 . S
C471 C464 1.409 . S
C471 C470 1.362 . S
H472 C478 0.930 . S
H473 C481 0.930 . S
H474 C482 0.930 . S
H475 C483 0.930 . S
H476 C486 0.930 . S
H477 C487 0.930 . S
C478 H472 0.930 . S
C478 C479 1.355 . S
C478 C480 1.415 . S
C479 C478 1.355 . S
C479 C481 1.419 . S
C480 C478 1.415 . S
C480 C485 1.425 . S
C480 C487 1.409 . S
C481 H473 0.930 . S
C481 C479 1.419 . S
C481 C482 1.362 . S
C482 H474 0.930 . S
C482 C481 1.362 . S
C482 C485 1.409 . S
C483 H475 0.930 . S
C483 C484 1.355 . S
C483 C485 1.415 . S
C484 C483 1.355 . S
C484 C486 1.419 . S
C485 C480 1.425 . S
C485 C482 1.409 . S
C485 C483 1.415 . S
C486 H476 0.930 . S
C486 C484 1.419 . S
C486 C487 1.362 . S
C487 H477 0.930 . S
C487 C480 1.409 . S
C487 C486 1.362 . S
H488 C494 0.930 . S
H489 C497 0.930 . S
H490 C498 0.930 . S
H491 C499 0.930 . S
H492 C502 0.930 . S
H493 C503 0.930 . S
C494 H488 0.930 . S
C494 C495 1.355 . S
C494 C496 1.415 . S
C495 C494 1.355 . S
C495 C497 1.419 . S
C496 C494 1.415 . S
C496 C501 1.425 . S
C496 C503 1.409 . S
C497 H489 0.930 . S
C497 C495 1.419 . S
C497 C498 1.362 . S
C498 H490 0.930 . S
C498 C497 1.362 . S
C498 C501 1.409 . S
C499 H491 0.930 . S
C499 C500 1.355 . S
C499 C501 1.415 . S
C500 C499 1.355 . S
C500 C502 1.419 . S
C501 C496 1.425 . S
C501 C498 1.409 . S
C501 C499 1.415 . S
C502 H492 0.930 . S
C502 C500 1.419 . S
C502 C503 1.362 . S
C503 H493 0.930 . S
C503 C496 1.409 . S
C503 C502 1.362 . S
H504 C510 0.930 . S
H505 C513 0.930 . S
H506 C514 0.930 . S
H507 C515 0.930 . S
H508 C518 0.930 . S
H509 C519 0.930 . S
C510 H504 0.930 . S
C510 C511 1.355 . S
C510 C512 1.415 . S
C511 C510 1.355 . S
C511 C513 1.419 . S
C512 C510 1.415 . S
C512 C517 1.425 . S
C512 C519 1.409 . S
C513 H505 0.930 . S
C513 C511 1.419 . S
C513 C514 1.362 . S
C514 H506 0.930 . S
C514 C513 1.362 . S
C514 C517 1.409 . S
C515 H507 0.930 . S
C515 C516 1.355 . S
C515 C517 1.415 . S
C516 C515 1.355 . S
C516 C518 1.419 . S
C517 C512 1.425 . S
C517 C514 1.409 . S
C517 C515 1.415 . S
C518 H508 0.930 . S
C518 C516 1.419 . S
C518 C519 1.362 . S
C519 H509 0.930 . S
C519 C512 1.409 . S
C519 C518 1.362 . S
H520 C526 0.930 . S
H521 C529 0.930 . S
H522 C530 0.930 . S
H523 C531 0.930 . S
H524 C534 0.930 . S
H525 C535 0.930 . S
C526 H520 0.930 . S
C526 C527 1.355 . S
C526 C528 1.415 . S
C527 C526 1.355 . S
C527 C529 1.419 . S
C528 C526 1.415 . S
C528 C533 1.425 . S
C528 C535 1.409 . S
C529 H521 0.930 . S
C529 C527 1.419 . S
C529 C530 1.362 . S
C530 H522 0.930 . S
C530 C529 1.362 . S
C530 C533 1.409 . S
C531 H523 0.930 . S
C531 C532 1.355 . S
C531 C533 1.415 . S
C532 C531 1.355 . S
C532 C534 1.419 . S
C533 C528 1.425 . S
C533 C530 1.409 . S
C533 C531 1.415 . S
C534 H524 0.930 . S
C534 C532 1.419 . S
C534 C535 1.362 . S
C535 H525 0.930 . S
C535 C528 1.409 . S
C535 C534 1.362 . S
H536 C542 0.930 . S
H537 C545 0.930 . S
H538 C546 0.930 . S
H539 C547 0.930 . S
H540 C550 0.930 . S
H541 C551 0.930 . S
C542 H536 0.930 . S
C542 C543 1.355 . S
C542 C544 1.415 . S
C543 C542 1.355 . S
C543 C545 1.419 . S
C544 C542 1.415 . S
C544 C549 1.425 . S
C544 C551 1.409 . S
C545 H537 0.930 . S
C545 C543 1.419 . S
C545 C546 1.362 . S
C546 H538 0.930 . S
C546 C545 1.362 . S
C546 C549 1.409 . S
C547 H539 0.930 . S
C547 C548 1.355 . S
C547 C549 1.415 . S
C548 C547 1.355 . S
C548 C550 1.419 . S
C549 C544 1.425 . S
C549 C546 1.409 . S
C549 C547 1.415 . S
C550 H540 0.930 . S
C550 C548 1.419 . S
C550 C551 1.362 . S
C551 H541 0.930 . S
C551 C544 1.409 . S
C551 C550 1.362 . S
H552 C558 0.930 . S
H553 C561 0.930 . S
H554 C562 0.930 . S
H555 C563 0.930 . S
H556 C566 0.930 . S
H557 C567 0.930 . S
C558 H552 0.930 . S
C558 C559 1.355 . S
C558 C560 1.415 . S
C559 C558 1.355 . S
C559 C561 1.419 . S
C560 C558 1.415 . S
C560 C565 1.425 . S
C560 C567 1.409 . S
C561 H553 0.930 . S
C561 C559 1.419 . S
C561 C562 1.362 . S
C562 H554 0.930 . S
C562 C561 1.362 . S
C562 C565 1.409 . S
C563 H555 0.930 . S
C563 C564 1.355 . S
C563 C565 1.415 . S
C564 C563 1.355 . S
C564 C566 1.419 . S
C565 C560 1.425 . S
C565 C562 1.409 . S
C565 C563 1.415 . S
C566 H556 0.930 . S
C566 C564 1.419 . S
C566 C567 1.362 . S
C567 H557 0.930 . S
C567 C560 1.409 . S
C567 C566 1.362 . S
H568 C574 0.930 . S
H569 C577 0.930 . S
H570 C578 0.930 . S
H571 C579 0.930 . S
H572 C582 0.930 . S
H573 C583 0.930 . S
C574 H568 0.930 . S
C574 C575 1.355 . S
C574 C576 1.415 . S
C575 C574 1.355 . S
C575 C577 1.419 . S
C576 C574 1.415 . S
C576 C581 1.425 . S
C576 C583 1.409 . S
C577 H569 0.930 . S
C577 C575 1.419 . S
C577 C578 1.362 . S
C578 H570 0.930 . S
C578 C577 1.362 . S
C578 C581 1.409 . S
C579 H571 0.930 . S
C579 C580 1.355 . S
C579 C581 1.415 . S
C580 C579 1.355 . S
C580 C582 1.419 . S
C581 C576 1.425 . S
C581 C578 1.409 . S
C581 C579 1.415 . S
C582 H572 0.930 . S
C582 C580 1.419 . S
C582 C583 1.362 . S
C583 H573 0.930 . S
C583 C576 1.409 . S
C583 C582 1.362 . S
H584 C590 0.930 . S
H585 C593 0.930 . S
H586 C594 0.930 . S
H587 C595 0.930 . S
H588 C598 0.930 . S
H589 C599 0.930 . S
C590 H584 0.930 . S
C590 C591 1.355 . S
C590 C592 1.415 . S
C591 C590 1.355 . S
C591 C593 1.419 . S
C592 C590 1.415 . S
C592 C597 1.425 . S
C592 C599 1.409 . S
C593 H585 0.930 . S
C593 C591 1.419 . S
C593 C594 1.362 . S
C594 H586 0.930 . S
C594 C593 1.362 . S
C594 C597 1.409 . S
C595 H587 0.930 . S
C595 C596 1.355 . S
C595 C597 1.415 . S
C596 C595 1.355 . S
C596 C598 1.419 . S
C597 C592 1.425 . S
C597 C594 1.409 . S
C597 C595 1.415 . S
C598 H588 0.930 . S
C598 C596 1.419 . S
C598 C599 1.362 . S
C599 H589 0.930 . S
C599 C592 1.409 . S
C599 C598 1.362 . S
H600 C606 0.930 . S
H601 C609 0.930 . S
H602 C610 0.930 . S
H603 C611 0.930 . S
H604 C614 0.930 . S
H605 C615 0.930 . S
C606 H600 0.930 . S
C606 C607 1.355 . S
C606 C608 1.415 . S
C607 C606 1.355 . S
C607 C609 1.419 . S
C608 C606 1.415 . S
C608 C613 1.425 . S
C608 C615 1.409 . S
C609 H601 0.930 . S
C609 C607 1.419 . S
C609 C610 1.362 . S
C610 H602 0.930 . S
C610 C609 1.362 . S
C610 C613 1.409 . S
C611 H603 0.930 . S
C611 C612 1.355 . S
C611 C613 1.415 . S
C612 C611 1.355 . S
C612 C614 1.419 . S
C613 C608 1.425 . S
C613 C610 1.409 . S
C613 C611 1.415 . S
C614 H604 0.930 . S
C614 C612 1.419 . S
C614 C615 1.362 . S
C615 H605 0.930 . S
C615 C608 1.409 . S
C615 C614 1.362 . S
H616 C622 0.930 . S
H617 C625 0.930 . S
H618 C626 0.930 . S
H619 C627 0.930 . S
H620 C630 0.930 . S
H621 C631 0.930 . S
C622 H616 0.930 . S
C622 C623 1.355 . S
C622 C624 1.415 . S
C623 C622 1.355 . S
C623 C625 1.419 . S
C624 C622 1.415 . S
C624 C629 1.425 . S
C624 C631 1.409 . S
C625 H617 0.930 . S
C625 C623 1.419 . S
C625 C626 1.362 . S
C626 H618 0.930 . S
C626 C625 1.362 . S
C626 C629 1.409 . S
C627 H619 0.930 . S
C627 C628 1.355 . S
C627 C629 1.415 . S
C628 C627 1.355 . S
C628 C630 1.419 . S
C629 C624 1.425 . S
C629 C626 1.409 . S
C629 C627 1.415 . S
C630 H620 0.930 . S
C630 C628 1.419 . S
C630 C631 1.362 . S
C631 H621 0.930 . S
C631 C624 1.409 . S
C631 C630 1.362 . S
H632 C638 0.930 . S
H633 C641 0.930 . S
H634 C642 0.930 . S
H635 C643 0.930 . S
H636 C646 0.930 . S
H637 C647 0.930 . S
C638 H632 0.930 . S
C638 C639 1.355 . S
C638 C640 1.415 . S
C639 C638 1.355 . S
C639 C641 1.419 . S
C640 C638 1.415 . S
C640 C645 1.425 . S
C640 C647 1.409 . S
C641 H633 0.930 . S
C641 C639 1.419 . S
C641 C642 1.362 . S
C642 H634 0.930 . S
C642 C641 1.362 . S
C642 C645 1.409 . S
C643 H635 0.930 . S
C643 C644 1.355 . S
C643 C645 1.415 . S
C644 C643 1.355 . S
C644 C646 1.419 . S
C645 C640 1.425 . S
C645 C642 1.409 . S
C645 C643 1.415 . S
C646 H636 0.930 . S
C646 C644 1.419 . S
C646 C647 1.362 . S
C647 H637 0.930 . S
C647 C640 1.409 . S
C647 C646 1.362 . S
H648 C654 0.930 . S
H649 C657 0.930 . S
H650 C658 0.930 . S
H651 C659 0.930 . S
H652 C662 0.930 . S
H653 C663 0.930 . S
C654 H648 0.930 . S
C654 C655 1.355 . S
C654 C656 1.415 . S
C655 C654 1.355 . S
C655 C657 1.419 . S
C656 C654 1.415 . S
C656 C661 1.425 . S
C656 C663 1.409 . S
C657 H649 0.930 . S
C657 C655 1.419 . S
C657 C658 1.362 . S
C658 H650 0.930 . S
C658 C657 1.362 . S
C658 C661 1.409 . S
C659 H651 0.930 . S
C659 C660 1.355 . S
C659 C661 1.415 . S
C660 C659 1.355 . S
C660 C662 1.419 . S
C661 C656 1.425 . S
C661 C658 1.409 . S
C661 C659 1.415 . S
C662 H652 0.930 . S
C662 C660 1.419 . S
C662 C663 1.362 . S
C663 H653 0.930 . S
C663 C656 1.409 . S
C663 C662 1.362 . S
H664 C670 0.930 . S
H665 C673 0.930 . S
H666 C674 0.930 . S
H667 C675 0.930 . S
H668 C678 0.930 . S
H669 C679 0.930 . S
C670 H664 0.930 . S
C670 C671 1.355 . S
C670 C672 1.415 . S
C671 C670 1.355 . S
C671 C673 1.419 . S
C672 C670 1.415 . S
C672 C677 1.425 . S
C672 C679 1.409 . S
C673 H665 0.930 . S
C673 C671 1.419 . S
C673 C674 1.362 . S
C674 H666 0.930 . S
C674 C673 1.362 . S
C674 C677 1.409 . S
C675 H667 0.930 . S
C675 C676 1.355 . S
C675 C677 1.415 . S
C676 C675 1.355 . S
C676 C678 1.419 . S
C677 C672 1.425 . S
C677 C674 1.409 . S
C677 C675 1.415 . S
C678 H668 0.930 . S
C678 C676 1.419 . S
C678 C679 1.362 . S
C679 H669 0.930 . S
C679 C672 1.409 . S
C679 C678 1.362 . S
H680 C686 0.930 . S
H681 C689 0.930 . S
H682 C690 0.930 . S
H683 C691 0.930 . S
H684 C694 0.930 . S
H685 C695 0.930 . S
C686 H680 0.930 . S
C686 C687 1.355 . S
C686 C688 1.415 . S
C687 C686 1.355 . S
C687 C689 1.419 . S
C688 C686 1.415 . S
C688 C693 1.425 . S
C688 C695 1.409 . S
C689 H681 0.930 . S
C689 C687 1.419 . S
C689 C690 1.362 . S
C690 H682 0.930 . S
C690 C689 1.362 . S
C690 C693 1.409 . S
C691 H683 0.930 . S
C691 C692 1.355 . S
C691 C693 1.415 . S
C692 C691 1.355 . S
C692 C694 1.419 . S
C693 C688 1.425 . S
C693 C690 1.409 . S
C693 C691 1.415 . S
C694 H684 0.930 . S
C694 C692 1.419 . S
C694 C695 1.362 . S
C695 H685 0.930 . S
C695 C688 1.409 . S
C695 C694 1.362 . S
H696 C702 0.930 . S
H697 C705 0.930 . S
H698 C706 0.930 . S
H699 C707 0.930 . S
H700 C710 0.930 . S
H701 C711 0.930 . S
C702 H696 0.930 . S
C702 C703 1.355 . S
C702 C704 1.415 . S
C703 C702 1.355 . S
C703 C705 1.419 . S
C704 C702 1.415 . S
C704 C709 1.425 . S
C704 C711 1.409 . S
C705 H697 0.930 . S
C705 C703 1.419 . S
C705 C706 1.362 . S
C706 H698 0.930 . S
C706 C705 1.362 . S
C706 C709 1.409 . S
C707 H699 0.930 . S
C707 C708 1.355 . S
C707 C709 1.415 . S
C708 C707 1.355 . S
C708 C710 1.419 . S
C709 C704 1.425 . S
C709 C706 1.409 . S
C709 C707 1.415 . S
C710 H700 0.930 . S
C710 C708 1.419 . S
C710 C711 1.362 . S
C711 H701 0.930 . S
C711 C704 1.409 . S
C711 C710 1.362 . S
H712 C718 0.930 . S
H713 C721 0.930 . S
H714 C722 0.930 . S
H715 C723 0.930 . S
H716 C726 0.930 . S
H717 C727 0.930 . S
C718 H712 0.930 . S
C718 C719 1.355 . S
C718 C720 1.415 . S
C719 C718 1.355 . S
C719 C721 1.419 . S
C720 C718 1.415 . S
C720 C725 1.425 . S
C720 C727 1.409 . S
C721 H713 0.930 . S
C721 C719 1.419 . S
C721 C722 1.362 . S
C722 H714 0.930 . S
C722 C721 1.362 . S
C722 C725 1.409 . S
C723 H715 0.930 . S
C723 C724 1.355 . S
C723 C725 1.415 . S
C724 C723 1.355 . S
C724 C726 1.419 . S
C725 C720 1.425 . S
C725 C722 1.409 . S
C725 C723 1.415 . S
C726 H716 0.930 . S
C726 C724 1.419 . S
C726 C727 1.362 . S
C727 H717 0.930 . S
C727 C720 1.409 . S
C727 C726 1.362 . S
H728 C734 0.930 . S
H729 C737 0.930 . S
H730 C738 0.930 . S
H731 C739 0.930 . S
H732 C742 0.930 . S
H733 C743 0.930 . S
C734 H728 0.930 . S
C734 C735 1.355 . S
C734 C736 1.415 . S
C735 C734 1.355 . S
C735 C737 1.419 . S
C736 C734 1.415 . S
C736 C741 1.425 1_565 S
C736 C743 1.409 1_565 S
C737 H729 0.930 . S
C737 C735 1.419 . S
C737 C738 1.362 . S
C738 H730 0.930 . S
C738 C737 1.362 . S
C738 C741 1.409 1_565 S
C739 H731 0.930 . S
C739 C740 1.355 . S
C739 C741 1.415 . S
C740 C739 1.355 . S
C740 C742 1.419 . S
C741 C736 1.425 1_545 S
C741 C738 1.409 1_545 S
C741 C739 1.415 . S
C742 H732 0.930 . S
C742 C740 1.419 . S
C742 C743 1.362 . S
C743 H733 0.930 . S
C743 C736 1.409 1_545 S
C743 C742 1.362 . S
H744 C750 0.930 . S
H745 C753 0.930 . S
H746 C754 0.936 . S
H747 C755 0.930 . S
H748 C758 0.930 . S
H749 C759 0.936 . S
C750 H744 0.930 . S
C750 C751 1.355 . S
C750 C752 1.415 . S
C751 C750 1.355 . S
C751 C753 1.419 . S
C752 C750 1.415 . S
C752 C757 1.425 1_455 S
C752 C759 1.409 1_455 S
C753 H745 0.930 . S
C753 C751 1.419 . S
C753 C754 1.362 . S
C754 H746 0.936 . S
C754 C753 1.362 . S
C754 C757 1.409 1_455 S
C755 H747 0.930 . S
C755 C756 1.355 . S
C755 C757 1.415 . S
C756 C755 1.355 . S
C756 C758 1.419 . S
C757 C752 1.425 1_655 S
C757 C754 1.409 1_655 S
C757 C755 1.415 . S
C758 H748 0.930 . S
C758 C756 1.419 . S
C758 C759 1.362 . S
C759 H749 0.936 . S
C759 C752 1.409 1_655 S
C759 C758 1.362 . S
H760 C766 0.930 . S
H761 C769 0.930 . S
H762 C770 0.941 . S
H763 C771 0.930 . S
H764 C774 0.930 . S
H765 C775 0.941 . S
C766 H760 0.930 . S
C766 C767 1.355 . S
C766 C768 1.415 . S
C767 C766 1.355 . S
C767 C769 1.419 . S
C768 C766 1.415 . S
C768 C773 1.425 1_565 S
C768 C775 1.409 1_565 S
C769 H761 0.930 . S
C769 C767 1.419 . S
C769 C770 1.362 . S
C770 H762 0.941 . S
C770 C769 1.362 . S
C770 C773 1.409 1_565 S
C771 H763 0.930 . S
C771 C772 1.355 . S
C771 C773 1.415 . S
C772 C771 1.355 . S
C772 C774 1.419 . S
C773 C768 1.425 1_545 S
C773 C770 1.409 1_545 S
C773 C771 1.415 . S
C774 H764 0.930 . S
C774 C772 1.419 . S
C774 C775 1.362 . S
C775 H765 0.941 . S
C775 C768 1.409 1_545 S
C775 C774 1.362 . S
H776 C782 0.930 . S
H777 C785 0.930 . S
H778 C786 0.930 . S
H779 C787 0.930 . S
H780 C790 0.930 . S
H781 C791 0.930 . S
C782 H776 0.930 . S
C782 C783 1.355 . S
C782 C784 1.415 . S
C783 C782 1.355 . S
C783 C785 1.419 . S
C784 C782 1.415 . S
C784 C789 1.425 1_655 S
C784 C791 1.409 1_655 S
C785 H777 0.930 . S
C785 C783 1.419 . S
C785 C786 1.362 . S
C786 H778 0.930 . S
C786 C785 1.362 . S
C786 C789 1.409 1_655 S
C787 H779 0.930 . S
C787 C788 1.355 . S
C787 C789 1.415 . S
C788 C787 1.355 . S
C788 C790 1.419 . S
C789 C784 1.425 1_455 S
C789 C786 1.409 1_455 S
C789 C787 1.415 . S
C790 H780 0.930 . S
C790 C788 1.419 . S
C790 C791 1.362 . S
C791 H781 0.930 . S
C791 C784 1.409 1_455 S
C791 C790 1.362 . S
H792 C798 0.930 . S
H793 C801 0.930 . S
H794 C802 0.930 . S
H795 C803 0.930 . S
H796 C806 0.930 . S
H797 C807 0.930 . S
C798 H792 0.930 . S
C798 C799 1.355 . S
C798 C800 1.415 . S
C799 C798 1.355 . S
C799 C801 1.419 . S
C800 C798 1.415 . S
C800 C805 1.425 . S
C800 C807 1.409 . S
C801 H793 0.930 . S
C801 C799 1.419 . S
C801 C802 1.362 . S
C802 H794 0.930 . S
C802 C801 1.362 . S
C802 C805 1.409 . S
C803 H795 0.930 . S
C803 C804 1.355 . S
C803 C805 1.415 . S
C804 C803 1.355 . S
C804 C806 1.419 . S
C805 C800 1.425 . S
C805 C802 1.409 . S
C805 C803 1.415 . S
C806 H796 0.930 . S
C806 C804 1.419 . S
C806 C807 1.362 . S
C807 H797 0.930 . S
C807 C800 1.409 . S
C807 C806 1.362 . S
H808 C814 0.930 . S
H809 C817 0.930 . S
H810 C818 0.930 . S
H811 C819 0.930 . S
H812 C822 0.930 . S
H813 C823 0.930 . S
C814 H808 0.930 . S
C814 C815 1.355 . S
C814 C816 1.415 . S
C815 C814 1.355 . S
C815 C817 1.419 . S
C816 C814 1.415 . S
C816 C821 1.425 . S
C816 C823 1.409 . S
C817 H809 0.930 . S
C817 C815 1.419 . S
C817 C818 1.362 . S
C818 H810 0.930 . S
C818 C817 1.362 . S
C818 C821 1.409 . S
C819 H811 0.930 . S
C819 C820 1.355 . S
C819 C821 1.415 . S
C820 C819 1.355 . S
C820 C822 1.419 . S
C821 C816 1.425 . S
C821 C818 1.409 . S
C821 C819 1.415 . S
C822 H812 0.930 . S
C822 C820 1.419 . S
C822 C823 1.362 . S
C823 H813 0.930 . S
C823 C816 1.409 . S
C823 C822 1.362 . S
H824 C830 0.930 . S
H825 C833 0.930 . S
H826 C834 0.930 . S
H827 C835 0.930 . S
H828 C838 0.930 . S
H829 C839 0.930 . S
C830 H824 0.930 . S
C830 C831 1.355 . S
C830 C832 1.415 . S
C831 C830 1.355 . S
C831 C833 1.419 . S
C832 C830 1.415 . S
C832 C837 1.425 . S
C832 C839 1.409 . S
C833 H825 0.930 . S
C833 C831 1.419 . S
C833 C834 1.362 . S
C834 H826 0.930 . S
C834 C833 1.362 . S
C834 C837 1.409 . S
C835 H827 0.930 . S
C835 C836 1.355 . S
C835 C837 1.415 . S
C836 C835 1.355 . S
C836 C838 1.419 . S
C837 C832 1.425 . S
C837 C834 1.409 . S
C837 C835 1.415 . S
C838 H828 0.930 . S
C838 C836 1.419 . S
C838 C839 1.362 . S
C839 H829 0.930 . S
C839 C832 1.409 . S
C839 C838 1.362 . S
H840 C846 0.930 . S
H841 C849 0.930 . S
H842 C850 0.930 . S
H843 C851 0.930 . S
H844 C854 0.930 . S
H845 C855 0.930 . S
C846 H840 0.930 . S
C846 C847 1.355 . S
C846 C848 1.415 . S
C847 C846 1.355 . S
C847 C849 1.419 . S
C848 C846 1.415 . S
C848 C853 1.425 1_554 S
C848 C855 1.409 1_554 S
C849 H841 0.930 . S
C849 C847 1.419 . S
C849 C850 1.362 . S
C850 H842 0.930 . S
C850 C849 1.362 . S
C850 C853 1.409 1_554 S
C851 H843 0.930 . S
C851 C852 1.355 . S
C851 C853 1.415 . S
C852 C851 1.355 . S
C852 C854 1.419 . S
C853 C848 1.425 1_556 S
C853 C850 1.409 1_556 S
C853 C851 1.415 . S
C854 H844 0.930 . S
C854 C852 1.419 . S
C854 C855 1.362 . S
C855 H845 0.930 . S
C855 C848 1.409 1_556 S
C855 C854 1.362 . S
H856 C862 0.930 . S
H857 C865 0.930 . S
H858 C866 0.930 . S
H859 C867 0.930 . S
H860 C870 0.930 . S
H861 C871 0.930 . S
C862 H856 0.930 . S
C862 C863 1.355 . S
C862 C864 1.415 . S
C863 C862 1.355 . S
C863 C865 1.419 . S
C864 C862 1.415 . S
C864 C869 1.425 . S
C864 C871 1.409 . S
C865 H857 0.930 . S
C865 C863 1.419 . S
C865 C866 1.362 . S
C866 H858 0.930 . S
C866 C865 1.362 . S
C866 C869 1.409 . S
C867 H859 0.930 . S
C867 C868 1.355 . S
C867 C869 1.415 . S
C868 C867 1.355 . S
C868 C870 1.419 . S
C869 C864 1.425 . S
C869 C866 1.409 . S
C869 C867 1.415 . S
C870 H860 0.930 . S
C870 C868 1.419 . S
C870 C871 1.362 . S
C871 H861 0.930 . S
C871 C864 1.409 . S
C871 C870 1.362 . S
H872 C878 0.930 . S
H873 C881 0.930 . S
H874 C882 0.930 . S
H875 C883 0.930 . S
H876 C886 0.930 . S
H877 C887 0.930 . S
C878 H872 0.930 . S
C878 C879 1.355 . S
C878 C880 1.415 . S
C879 C878 1.355 . S
C879 C881 1.419 . S
C880 C878 1.415 . S
C880 C885 1.425 1_556 S
C880 C887 1.409 1_556 S
C881 H873 0.930 . S
C881 C879 1.419 . S
C881 C882 1.362 . S
C882 H874 0.930 . S
C882 C881 1.362 . S
C882 C885 1.409 1_556 S
C883 H875 0.930 . S
C883 C884 1.355 . S
C883 C885 1.415 . S
C884 C883 1.355 . S
C884 C886 1.419 . S
C885 C880 1.425 1_554 S
C885 C882 1.409 1_554 S
C885 C883 1.415 . S
C886 H876 0.930 . S
C886 C884 1.419 . S
C886 C887 1.362 . S
C887 H877 0.930 . S
C887 C880 1.409 1_554 S
C887 C886 1.362 . S
H888 C894 0.930 . S
H889 C897 0.930 . S
H890 C898 0.930 . S
H891 C899 0.930 . S
H892 C902 0.930 . S
H893 C903 0.930 . S
C894 H888 0.930 . S
C894 C895 1.355 . S
C894 C896 1.415 . S
C895 C894 1.355 . S
C895 C897 1.419 . S
C896 C894 1.415 . S
C896 C901 1.425 . S
C896 C903 1.409 . S
C897 H889 0.930 . S
C897 C895 1.419 . S
C897 C898 1.362 . S
C898 H890 0.930 . S
C898 C897 1.362 . S
C898 C901 1.409 . S
C899 H891 0.930 . S
C899 C900 1.355 . S
C899 C901 1.415 . S
C900 C899 1.355 . S
C900 C902 1.419 . S
C901 C896 1.425 . S
C901 C898 1.409 . S
C901 C899 1.415 . S
C902 H892 0.930 . S
C902 C900 1.419 . S
C902 C903 1.362 . S
C903 H893 0.930 . S
C903 C896 1.409 . S
C903 C902 1.362 . S
H904 C910 0.930 . S
H905 C913 0.930 . S
H906 C914 0.930 . S
H907 C915 0.930 . S
H908 C918 0.930 . S
H909 C919 0.930 . S
C910 H904 0.930 . S
C910 C911 1.355 . S
C910 C912 1.415 . S
C911 C910 1.355 . S
C911 C913 1.419 . S
C912 C910 1.415 . S
C912 C917 1.425 . S
C912 C919 1.409 . S
C913 H905 0.930 . S
C913 C911 1.419 . S
C913 C914 1.362 . S
C914 H906 0.930 . S
C914 C913 1.362 . S
C914 C917 1.409 . S
C915 H907 0.930 . S
C915 C916 1.355 . S
C915 C917 1.415 . S
C916 C915 1.355 . S
C916 C918 1.419 . S
C917 C912 1.425 . S
C917 C914 1.409 . S
C917 C915 1.415 . S
C918 H908 0.930 . S
C918 C916 1.419 . S
C918 C919 1.362 . S
C919 H909 0.930 . S
C919 C912 1.409 . S
C919 C918 1.362 . S
H920 C926 0.930 . S
H921 C929 0.930 . S
H922 C930 0.930 . S
H923 C931 0.930 . S
H924 C934 0.930 . S
H925 C935 0.930 . S
C926 H920 0.930 . S
C926 C927 1.355 . S
C926 C928 1.415 . S
C927 C926 1.355 . S
C927 C929 1.419 . S
C928 C926 1.415 . S
C928 C933 1.425 1_545 S
C928 C935 1.409 1_545 S
C929 H921 0.930 . S
C929 C927 1.419 . S
C929 C930 1.362 . S
C930 H922 0.930 . S
C930 C929 1.362 . S
C930 C933 1.409 1_545 S
C931 H923 0.930 . S
C931 C932 1.355 . S
C931 C933 1.415 . S
C932 C931 1.355 . S
C932 C934 1.419 . S
C933 C928 1.425 1_565 S
C933 C930 1.409 1_565 S
C933 C931 1.415 . S
C934 H924 0.930 . S
C934 C932 1.419 . S
C934 C935 1.362 . S
C935 H925 0.930 . S
C935 C928 1.409 1_565 S
C935 C934 1.362 . S
H936 C942 0.930 . S
H937 C945 0.930 . S
H938 C946 0.930 . S
H939 C947 0.930 . S
H940 C950 0.930 . S
H941 C951 0.930 . S
C942 H936 0.930 . S
C942 C943 1.355 . S
C942 C944 1.415 . S
C943 C942 1.355 . S
C943 C945 1.419 . S
C944 C942 1.415 . S
C944 C949 1.425 1_455 S
C944 C951 1.409 1_455 S
C945 H937 0.930 . S
C945 C943 1.419 . S
C945 C946 1.362 . S
C946 H938 0.930 . S
C946 C945 1.362 . S
C946 C949 1.409 1_455 S
C947 H939 0.930 . S
C947 C948 1.355 . S
C947 C949 1.415 . S
C948 C947 1.355 . S
C948 C950 1.419 . S
C949 C944 1.425 1_655 S
C949 C946 1.409 1_655 S
C949 C947 1.415 . S
C950 H940 0.930 . S
C950 C948 1.419 . S
C950 C951 1.362 . S
C951 H941 0.930 . S
C951 C944 1.409 1_655 S
C951 C950 1.362 . S
H952 C958 0.930 . S
H953 C961 0.930 . S
H954 C962 0.930 . S
H955 C963 0.930 . S
H956 C966 0.930 . S
H957 C967 0.930 . S
C958 H952 0.930 . S
C958 C959 1.355 . S
C958 C960 1.415 . S
C959 C958 1.355 . S
C959 C961 1.419 . S
C960 C958 1.415 . S
C960 C965 1.425 1_545 S
C960 C967 1.409 1_545 S
C961 H953 0.930 . S
C961 C959 1.419 . S
C961 C962 1.362 . S
C962 H954 0.930 . S
C962 C961 1.362 . S
C962 C965 1.409 1_545 S
C963 H955 0.930 . S
C963 C964 1.355 . S
C963 C965 1.415 . S
C964 C963 1.355 . S
C964 C966 1.419 . S
C965 C960 1.425 1_565 S
C965 C962 1.409 1_565 S
C965 C963 1.415 . S
C966 H956 0.930 . S
C966 C964 1.419 . S
C966 C967 1.362 . S
C967 H957 0.930 . S
C967 C960 1.409 1_565 S
C967 C966 1.362 . S
H968 C974 0.930 . S
H969 C977 0.930 . S
H970 C978 0.930 . S
H971 C979 0.930 . S
H972 C982 0.930 . S
H973 C983 0.930 . S
C974 H968 0.930 . S
C974 C975 1.355 . S
C974 C976 1.415 . S
C975 C974 1.355 . S
C975 C977 1.419 . S
C976 C974 1.415 . S
C976 C981 1.425 1_455 S
C976 C983 1.409 1_455 S
C977 H969 0.930 . S
C977 C975 1.419 . S
C977 C978 1.362 . S
C978 H970 0.930 . S
C978 C977 1.362 . S
C978 C981 1.409 1_455 S
C979 H971 0.930 . S
C979 C980 1.355 . S
C979 C981 1.415 . S
C980 C979 1.355 . S
C980 C982 1.419 . S
C981 C976 1.425 1_655 S
C981 C978 1.409 1_655 S
C981 C979 1.415 . S
C982 H972 0.930 . S
C982 C980 1.419 . S
C982 C983 1.362 . S
C983 H973 0.930 . S
C983 C976 1.409 1_655 S
C983 C982 1.362 . S
H984 C990 0.930 . S
H985 C993 0.930 . S
H986 C994 0.930 . S
H987 C995 0.930 . S
H988 C998 0.930 . S
H989 C999 0.930 . S
C990 H984 0.930 . S
C990 C991 1.355 . S
C990 C992 1.415 . S
C991 C990 1.355 . S
C991 C993 1.419 . S
C992 C990 1.415 . S
C992 C997 1.425 . S
C992 C999 1.409 . S
C993 H985 0.930 . S
C993 C991 1.419 . S
C993 C994 1.362 . S
C994 H986 0.930 . S
C994 C993 1.362 . S
C994 C997 1.409 . S
C995 H987 0.930 . S
C995 C996 1.355 . S
C995 C997 1.415 . S
C996 C995 1.355 . S
C996 C998 1.419 . S
C997 C992 1.425 . S
C997 C994 1.409 . S
C997 C995 1.415 . S
C998 H988 0.930 . S
C998 C996 1.419 . S
C998 C999 1.362 . S
C999 H989 0.930 . S
C999 C992 1.409 . S
C999 C998 1.362 . S
H1000 C1006 0.930 . S
H1001 C1009 0.930 . S
H1002 C1010 0.930 . S
H1003 C1011 0.930 . S
H1004 C1014 0.930 . S
H1005 C1015 0.930 . S
C1006 H1000 0.930 . S
C1006 C1007 1.355 . S
C1006 C1008 1.415 . S
C1007 C1006 1.355 . S
C1007 C1009 1.419 . S
C1008 C1006 1.415 . S
C1008 C1013 1.425 . S
C1008 C1015 1.409 . S
C1009 H1001 0.930 . S
C1009 C1007 1.419 . S
C1009 C1010 1.362 . S
C1010 H1002 0.930 . S
C1010 C1009 1.362 . S
C1010 C1013 1.409 . S
C1011 H1003 0.930 . S
C1011 C1012 1.355 . S
C1011 C1013 1.415 . S
C1012 C1011 1.355 . S
C1012 C1014 1.419 . S
C1013 C1008 1.425 . S
C1013 C1010 1.409 . S
C1013 C1011 1.415 . S
C1014 H1004 0.930 . S
C1014 C1012 1.419 . S
C1014 C1015 1.362 . S
C1015 H1005 0.930 . S
C1015 C1008 1.409 . S
C1015 C1014 1.362 . S
H1016 C1022 0.930 . S
H1017 C1025 0.930 . S
H1018 C1026 0.930 . S
H1019 C1027 0.930 . S
H1020 C1030 0.930 . S
H1021 C1031 0.930 . S
C1022 H1016 0.930 . S
C1022 C1023 1.355 . S
C1022 C1024 1.415 . S
C1023 C1022 1.355 . S
C1023 C1025 1.419 . S
C1024 C1022 1.415 . S
C1024 C1029 1.425 . S
C1024 C1031 1.409 . S
C1025 H1017 0.930 . S
C1025 C1023 1.419 . S
C1025 C1026 1.362 . S
C1026 H1018 0.930 . S
C1026 C1025 1.362 . S
C1026 C1029 1.409 . S
C1027 H1019 0.930 . S
C1027 C1028 1.355 . S
C1027 C1029 1.415 . S
C1028 C1027 1.355 . S
C1028 C1030 1.419 . S
C1029 C1024 1.425 . S
C1029 C1026 1.409 . S
C1029 C1027 1.415 . S
C1030 H1020 0.930 . S
C1030 C1028 1.419 . S
C1030 C1031 1.362 . S
C1031 H1021 0.930 . S
C1031 C1024 1.409 . S
C1031 C1030 1.362 . S
H1032 C1038 0.930 . S
H1033 C1041 0.930 . S
H1034 C1042 0.930 . S
H1035 C1043 0.930 . S
H1036 C1046 0.930 . S
H1037 C1047 0.930 . S
C1038 H1032 0.930 . S
C1038 C1039 1.355 . S
C1038 C1040 1.415 . S
C1039 C1038 1.355 . S
C1039 C1041 1.419 . S
C1040 C1038 1.415 . S
C1040 C1045 1.425 1_554 S
C1040 C1047 1.409 1_554 S
C1041 H1033 0.930 . S
C1041 C1039 1.419 . S
C1041 C1042 1.362 . S
C1042 H1034 0.930 . S
C1042 C1041 1.362 . S
C1042 C1045 1.409 1_554 S
C1043 H1035 0.930 . S
C1043 C1044 1.355 . S
C1043 C1045 1.415 . S
C1044 C1043 1.355 . S
C1044 C1046 1.419 . S
C1045 C1040 1.425 1_556 S
C1045 C1042 1.409 1_556 S
C1045 C1043 1.415 . S
C1046 H1036 0.930 . S
C1046 C1044 1.419 . S
C1046 C1047 1.362 . S
C1047 H1037 0.930 . S
C1047 C1040 1.409 1_556 S
C1047 C1046 1.362 . S
H1048 C1054 0.930 . S
H1049 C1057 0.930 . S
H1050 C1058 0.930 . S
H1051 C1059 0.930 . S
H1052 C1062 0.930 . S
H1053 C1063 0.930 . S
C1054 H1048 0.930 . S
C1054 C1055 1.355 . S
C1054 C1056 1.415 . S
C1055 C1054 1.355 . S
C1055 C1057 1.419 . S
C1056 C1054 1.415 . S
C1056 C1061 1.425 . S
C1056 C1063 1.409 . S
C1057 H1049 0.930 . S
C1057 C1055 1.419 . S
C1057 C1058 1.362 . S
C1058 H1050 0.930 . S
C1058 C1057 1.362 . S
C1058 C1061 1.409 . S
C1059 H1051 0.930 . S
C1059 C1060 1.355 . S
C1059 C1061 1.415 . S
C1060 C1059 1.355 . S
C1060 C1062 1.419 . S
C1061 C1056 1.425 . S
C1061 C1058 1.409 . S
C1061 C1059 1.415 . S
C1062 H1052 0.930 . S
C1062 C1060 1.419 . S
C1062 C1063 1.362 . S
C1063 H1053 0.930 . S
C1063 C1056 1.409 . S
C1063 C1062 1.362 . S
H1064 C1070 0.930 . S
H1065 C1073 0.930 . S
H1066 C1074 0.930 . S
H1067 C1075 0.930 . S
H1068 C1078 0.930 . S
H1069 C1079 0.930 . S
C1070 H1064 0.930 . S
C1070 C1071 1.355 . S
C1070 C1072 1.415 . S
C1071 C1070 1.355 . S
C1071 C1073 1.419 . S
C1072 C1070 1.415 . S
C1072 C1077 1.425 1_554 S
C1072 C1079 1.409 1_554 S
C1073 H1065 0.930 . S
C1073 C1071 1.419 . S
C1073 C1074 1.362 . S
C1074 H1066 0.930 . S
C1074 C1073 1.362 . S
C1074 C1077 1.409 1_554 S
C1075 H1067 0.930 . S
C1075 C1076 1.355 . S
C1075 C1077 1.415 . S
C1076 C1075 1.355 . S
C1076 C1078 1.419 . S
C1077 C1072 1.425 1_556 S
C1077 C1074 1.409 1_556 S
C1077 C1075 1.415 . S
C1078 H1068 0.930 . S
C1078 C1076 1.419 . S
C1078 C1079 1.362 . S
C1079 H1069 0.930 . S
C1079 C1072 1.409 1_556 S
C1079 C1078 1.362 . S
C319 C53 1.539 . S
C324 C10 1.558 . S
C335 C23 1.550 . S
C340 C75 1.575 . S
C351 C88 1.563 . S
C356 C27 1.545 . S
C367 C101 1.568 . S
C372 C40 1.501 . S
C383 C192 1.578 . S
C388 C105 1.533 . S
C399 C205 1.546 . S
C404 C118 1.514 . S
C415 C140 1.557 . S
C420 C157 1.538 . S
C431 C179 1.578 . S
C436 C144 1.546 . S
C447 C209 1.486 . S
C452 C283 1.558 . S
C463 C231 1.548 . S
C468 C257 1.544 . S
C479 C244 1.564 . S
C484 C270 1.542 . S
C495 C287 1.480 . S
C500 C300 1.479 . S
C511 C49 1.480 . S
C516 C66 1.552 . S
C527 C1 1.551 . S
C532 C79 1.542 . S
C543 C92 1.578 . S
C548 C14 1.557 . S
C559 C36 1.549 . S
C564 C62 1.546 . S
C575 C309 1.550 . S
C580 C235 1.574 . S
C591 C248 1.561 . S
C596 C274 1.579 . S
C607 C261 1.541 . S
C612 C296 1.496 . S
C623 C222 1.577 . S
C628 C218 1.525 . S
C639 C153 1.479 . S
C644 C127 1.480 . S
C655 C196 1.553 . S
C660 C170 1.576 . S
C671 C166 1.479 . S
C676 C183 1.550 . S
C687 C131 1.542 . S
C692 C114 1.482 . S
C703 C289 1.558 . S
C708 C5 1.624 . S
C719 C211 1.554 . S
C724 C18 1.622 . S
C735 C302 1.594 . S
C740 C29 1.564 . S
C751 C278 1.620 . S
C756 C42 1.563 . S
C767 C239 1.622 . S
C772 C55 1.553 . S
C783 C70 1.621 . S
C788 C252 1.615 . S
C799 C265 1.618 . S
C804 C83 1.624 . S
C815 C226 1.615 . S
C820 C96 1.622 . S
C831 C174 1.616 . S
C836 C107 1.596 . S
C847 C187 1.624 . S
C852 C120 1.549 . S
C863 C200 1.615 . S
C868 C135 1.621 . S
C879 C146 1.556 . S
C884 C159 1.584 . S
C895 C68 1.615 . S
C900 C133 1.620 . S
C911 C81 1.624 . S
C916 C148 1.559 . S
C927 C109 1.571 . S
C932 C94 1.622 . S
C943 C57 1.604 . S
C948 C122 1.581 . S
C959 C185 1.620 . S
C964 C44 1.565 . S
C975 C3 1.624 . S
C980 C198 1.617 . S
C991 C161 1.592 . S
C996 C16 1.616 . S
C1007 C31 1.595 . S
C1012 C172 1.619 . S
C1023 C224 1.616 . S
C1028 C304 1.596 . S
C1039 C276 1.622 . S
C1044 C237 1.615 . S
C1055 C291 1.589 . S
C1060 C250 1.616 . S
C1071 C213 1.598 . S
C1076 C263 1.615 . S
