# Generated by pormake.
# Topology dei, (4)-cn, num edge types: 1
# Building blocks:
#     Node 0, Type 0, BuildingBlock: QUQFOY_clean_sbu_1, # of connection points: 4
#     Node 1, Type 0, BuildingBlock: QUQFOY_clean_sbu_1, # of connection points: 4
#     Node 2, Type 0, BuildingBlock: QUQFOY_clean_sbu_1, # of connection points: 4
#     Node 3, Type 0, BuildingBlock: QUQFOY_clean_sbu_1, # of connection points: 4
#     Node 4, Type 0, BuildingBlock: QUQFOY_clean_sbu_1, # of connection points: 4
#     Node 5, Type 0, BuildingBlock: QUQFOY_clean_sbu_1, # of connection points: 4
#     Node 6, Type 0, BuildingBlock: QUQFOY_clean_sbu_1, # of connection points: 4
#     Node 7, Type 0, BuildingBlock: QUQFOY_clean_sbu_1, # of connection points: 4
#     Node 8, Type 0, BuildingBlock: QUQFOY_clean_sbu_1, # of connection points: 4
#     Node 9, Type 0, BuildingBlock: QUQFOY_clean_sbu_1, # of connection points: 4
#     Node 10, Type 0, BuildingBlock: QUQFOY_clean_sbu_1, # of connection points: 4
#     Node 11, Type 0, BuildingBlock: QUQFOY_clean_sbu_1, # of connection points: 4
#     Node 12, Type 0, BuildingBlock: QUQFOY_clean_sbu_1, # of connection points: 4
#     Node 13, Type 0, BuildingBlock: QUQFOY_clean_sbu_1, # of connection points: 4
#     Node 14, Type 0, BuildingBlock: QUQFOY_clean_sbu_1, # of connection points: 4
#     Node 15, Type 0, BuildingBlock: QUQFOY_clean_sbu_1, # of connection points: 4
#     Node 16, Type 0, BuildingBlock: QUQFOY_clean_sbu_1, # of connection points: 4
#     Node 17, Type 0, BuildingBlock: QUQFOY_clean_sbu_1, # of connection points: 4
#     Node 18, Type 0, BuildingBlock: QUQFOY_clean_sbu_1, # of connection points: 4
#     Node 19, Type 0, BuildingBlock: QUQFOY_clean_sbu_1, # of connection points: 4
#     Node 20, Type 0, BuildingBlock: QUQFOY_clean_sbu_1, # of connection points: 4
#     Node 21, Type 0, BuildingBlock: QUQFOY_clean_sbu_1, # of connection points: 4
#     Node 22, Type 0, BuildingBlock: QUQFOY_clean_sbu_1, # of connection points: 4
#     Node 23, Type 0, BuildingBlock: QUQFOY_clean_sbu_1, # of connection points: 4
#     Node 24, Type 0, BuildingBlock: QUQFOY_clean_sbu_1, # of connection points: 4
#     Node 25, Type 0, BuildingBlock: QUQFOY_clean_sbu_1, # of connection points: 4
#     Node 26, Type 0, BuildingBlock: QUQFOY_clean_sbu_1, # of connection points: 4
#     Node 27, Type 0, BuildingBlock: QUQFOY_clean_sbu_1, # of connection points: 4
#     Node 28, Type 0, BuildingBlock: QUQFOY_clean_sbu_1, # of connection points: 4
#     Node 29, Type 0, BuildingBlock: QUQFOY_clean_sbu_1, # of connection points: 4
#     Node 30, Type 0, BuildingBlock: QUQFOY_clean_sbu_1, # of connection points: 4
#     Node 31, Type 0, BuildingBlock: QUQFOY_clean_sbu_1, # of connection points: 4
#     Edge 32, Type (0, 0), BuildingBlock: AJUNOK_clean_linker_0, # of connection points: 2
#     Edge 33, Type (0, 0), BuildingBlock: AJUNOK_clean_linker_0, # of connection points: 2
#     Edge 34, Type (0, 0), BuildingBlock: AJUNOK_clean_linker_0, # of connection points: 2
#     Edge 35, Type (0, 0), BuildingBlock: AJUNOK_clean_linker_0, # of connection points: 2
#     Edge 36, Type (0, 0), BuildingBlock: AJUNOK_clean_linker_0, # of connection points: 2
#     Edge 37, Type (0, 0), BuildingBlock: AJUNOK_clean_linker_0, # of connection points: 2
#     Edge 38, Type (0, 0), BuildingBlock: AJUNOK_clean_linker_0, # of connection points: 2
#     Edge 39, Type (0, 0), BuildingBlock: AJUNOK_clean_linker_0, # of connection points: 2
#     Edge 40, Type (0, 0), BuildingBlock: AJUNOK_clean_linker_0, # of connection points: 2
#     Edge 41, Type (0, 0), BuildingBlock: AJUNOK_clean_linker_0, # of connection points: 2
#     Edge 42, Type (0, 0), BuildingBlock: AJUNOK_clean_linker_0, # of connection points: 2
#     Edge 43, Type (0, 0), BuildingBlock: AJUNOK_clean_linker_0, # of connection points: 2
#     Edge 44, Type (0, 0), BuildingBlock: AJUNOK_clean_linker_0, # of connection points: 2
#     Edge 45, Type (0, 0), BuildingBlock: AJUNOK_clean_linker_0, # of connection points: 2
#     Edge 46, Type (0, 0), BuildingBlock: AJUNOK_clean_linker_0, # of connection points: 2
#     Edge 47, Type (0, 0), BuildingBlock: AJUNOK_clean_linker_0, # of connection points: 2
#     Edge 48, Type (0, 0), BuildingBlock: AJUNOK_clean_linker_0, # of connection points: 2
#     Edge 49, Type (0, 0), BuildingBlock: AJUNOK_clean_linker_0, # of connection points: 2
#     Edge 50, Type (0, 0), BuildingBlock: AJUNOK_clean_linker_0, # of connection points: 2
#     Edge 51, Type (0, 0), BuildingBlock: AJUNOK_clean_linker_0, # of connection points: 2
#     Edge 52, Type (0, 0), BuildingBlock: AJUNOK_clean_linker_0, # of connection points: 2
#     Edge 53, Type (0, 0), BuildingBlock: AJUNOK_clean_linker_0, # of connection points: 2
#     Edge 54, Type (0, 0), BuildingBlock: AJUNOK_clean_linker_0, # of connection points: 2
#     Edge 55, Type (0, 0), BuildingBlock: AJUNOK_clean_linker_0, # of connection points: 2
#     Edge 56, Type (0, 0), BuildingBlock: AJUNOK_clean_linker_0, # of connection points: 2
#     Edge 57, Type (0, 0), BuildingBlock: AJUNOK_clean_linker_0, # of connection points: 2
#     Edge 58, Type (0, 0), BuildingBlock: AJUNOK_clean_linker_0, # of connection points: 2
#     Edge 59, Type (0, 0), BuildingBlock: AJUNOK_clean_linker_0, # of connection points: 2
#     Edge 60, Type (0, 0), BuildingBlock: AJUNOK_clean_linker_0, # of connection points: 2
#     Edge 61, Type (0, 0), BuildingBlock: AJUNOK_clean_linker_0, # of connection points: 2
#     Edge 62, Type (0, 0), BuildingBlock: AJUNOK_clean_linker_0, # of connection points: 2
#     Edge 63, Type (0, 0), BuildingBlock: AJUNOK_clean_linker_0, # of connection points: 2
#     Edge 64, Type (0, 0), BuildingBlock: AJUNOK_clean_linker_0, # of connection points: 2
#     Edge 65, Type (0, 0), BuildingBlock: AJUNOK_clean_linker_0, # of connection points: 2
#     Edge 66, Type (0, 0), BuildingBlock: AJUNOK_clean_linker_0, # of connection points: 2
#     Edge 67, Type (0, 0), BuildingBlock: AJUNOK_clean_linker_0, # of connection points: 2
#     Edge 68, Type (0, 0), BuildingBlock: AJUNOK_clean_linker_0, # of connection points: 2
#     Edge 69, Type (0, 0), BuildingBlock: AJUNOK_clean_linker_0, # of connection points: 2
#     Edge 70, Type (0, 0), BuildingBlock: AJUNOK_clean_linker_0, # of connection points: 2
#     Edge 71, Type (0, 0), BuildingBlock: AJUNOK_clean_linker_0, # of connection points: 2
#     Edge 72, Type (0, 0), BuildingBlock: AJUNOK_clean_linker_0, # of connection points: 2
#     Edge 73, Type (0, 0), BuildingBlock: AJUNOK_clean_linker_0, # of connection points: 2
#     Edge 74, Type (0, 0), BuildingBlock: AJUNOK_clean_linker_0, # of connection points: 2
#     Edge 75, Type (0, 0), BuildingBlock: AJUNOK_clean_linker_0, # of connection points: 2
#     Edge 76, Type (0, 0), BuildingBlock: AJUNOK_clean_linker_0, # of connection points: 2
#     Edge 77, Type (0, 0), BuildingBlock: AJUNOK_clean_linker_0, # of connection points: 2
#     Edge 78, Type (0, 0), BuildingBlock: AJUNOK_clean_linker_0, # of connection points: 2
#     Edge 79, Type (0, 0), BuildingBlock: AJUNOK_clean_linker_0, # of connection points: 2
#     Edge 80, Type (0, 0), BuildingBlock: AJUNOK_clean_linker_0, # of connection points: 2
#     Edge 81, Type (0, 0), BuildingBlock: AJUNOK_clean_linker_0, # of connection points: 2
#     Edge 82, Type (0, 0), BuildingBlock: AJUNOK_clean_linker_0, # of connection points: 2
#     Edge 83, Type (0, 0), BuildingBlock: AJUNOK_clean_linker_0, # of connection points: 2
#     Edge 84, Type (0, 0), BuildingBlock: AJUNOK_clean_linker_0, # of connection points: 2
#     Edge 85, Type (0, 0), BuildingBlock: AJUNOK_clean_linker_0, # of connection points: 2
#     Edge 86, Type (0, 0), BuildingBlock: AJUNOK_clean_linker_0, # of connection points: 2
#     Edge 87, Type (0, 0), BuildingBlock: AJUNOK_clean_linker_0, # of connection points: 2
#     Edge 88, Type (0, 0), BuildingBlock: AJUNOK_clean_linker_0, # of connection points: 2
#     Edge 89, Type (0, 0), BuildingBlock: AJUNOK_clean_linker_0, # of connection points: 2
#     Edge 90, Type (0, 0), BuildingBlock: AJUNOK_clean_linker_0, # of connection points: 2
#     Edge 91, Type (0, 0), BuildingBlock: AJUNOK_clean_linker_0, # of connection points: 2
#     Edge 92, Type (0, 0), BuildingBlock: AJUNOK_clean_linker_0, # of connection points: 2
#     Edge 93, Type (0, 0), BuildingBlock: AJUNOK_clean_linker_0, # of connection points: 2
#     Edge 94, Type (0, 0), BuildingBlock: AJUNOK_clean_linker_0, # of connection points: 2
#     Edge 95, Type (0, 0), BuildingBlock: AJUNOK_clean_linker_0, # of connection points: 2
# Relax obj value: 0.259
# Max RMSD: 0.141
# Mean RMSD: 0.141
data_MOF--net-dei--node1-QUQFOY_clean_sbu_1--edge1-AJUNOK_clean_linker_0
_symmetry_space_group_name_H-M    P1
_symmetry_Int_Tables_number       1
_symmetry_cell_setting            triclinic
loop_
_symmetry_equiv_pos_as_xyz
'x, y, z'
_cell_length_a     41.959793
_cell_length_b     41.986487
_cell_length_c     70.507007
_cell_angle_alpha  89.983901
_cell_angle_beta   89.967269
_cell_angle_gamma 89.925286
loop_
_atom_site_label
_atom_site_type_symbol
_atom_site_fract_x
_atom_site_fract_y
_atom_site_fract_z
_atom_type_partial_charge
O0 O 0.11566 0.64674 0.01825 0.0
Cd1 Cd 0.16467 0.64651 0.01883 0.0
Cd2 Cd 0.15692 0.65955 0.05866 0.0
O3 O 0.11177 0.64769 0.04939 0.0
O4 O 0.17967 0.6153 0.99936 0.0
O5 O 0.18413 0.60724 0.03027 0.0
C6 C 0.18706 0.5964 0.01317 0.0
C7 C 0.15866 0.65698 0.09225 0.0
C8 C 0.09879 0.64536 0.03317 0.0
C9 C 0.188 0.70958 0.03193 0.0
O10 O 0.17807 0.70047 0.0481 0.0
O11 O 0.18651 0.69096 0.0177 0.0
O12 O 0.14279 0.67816 0.08319 0.0
O13 O 0.17471 0.6369 0.08222 0.0
O14 O 0.60716 0.92805 0.29895 0.0
Cd15 Cd 0.64838 0.9078 0.30983 0.0
Cd16 Cd 0.66099 0.91387 0.26991 0.0
O17 O 0.61655 0.9357 0.26847 0.0
O18 O 0.63015 0.89554 0.33483 0.0
O19 O 0.67127 0.92751 0.33269 0.0
C20 C 0.65115 0.91256 0.34326 0.0
C21 C 0.71105 0.93598 0.26393 0.0
C22 C 0.59794 0.93751 0.2827 0.0
C23 C 0.66328 0.84879 0.28533 0.0
O24 O 0.66095 0.86488 0.27016 0.0
O25 O 0.66107 0.86239 0.30138 0.0
O26 O 0.6922 0.92802 0.25023 0.0
O27 O 0.70019 0.93376 0.28107 0.0
O28 O 0.44329 0.40908 0.51726 0.0
Cd29 Cd 0.39436 0.40973 0.51892 0.0
Cd30 Cd 0.4034 0.39891 0.55834 0.0
O31 O 0.44801 0.4112 0.54832 0.0
O32 O 0.37817 0.44121 0.49995 0.0
O33 O 0.37631 0.44909 0.53099 0.0
C34 C 0.37219 0.4601 0.514 0.0
C35 C 0.40232 0.40566 0.5916 0.0
C36 C 0.46053 0.41211 0.53191 0.0
C37 C 0.37196 0.34712 0.53325 0.0
O38 O 0.38292 0.35675 0.54907 0.0
O39 O 0.3722 0.36544 0.51884 0.0
O40 O 0.41874 0.38381 0.58347 0.0
O41 O 0.38486 0.4235 0.58094 0.0
O42 O 0.95175 0.12818 0.79887 0.0
Cd43 Cd 0.91095 0.14945 0.80961 0.0
Cd44 Cd 0.89708 0.14234 0.77022 0.0
O45 O 0.94126 0.11988 0.76858 0.0
O46 O 0.92829 0.16128 0.83492 0.0
O47 O 0.88666 0.13013 0.83206 0.0
C48 C 0.90633 0.14493 0.84298 0.0
C49 C 0.84649 0.12101 0.76477 0.0
C50 C 0.96031 0.11819 0.78261 0.0
C51 C 0.89739 0.20818 0.78469 0.0
O52 O 0.89801 0.19129 0.76977 0.0
O53 O 0.89994 0.19517 0.8009 0.0
O54 O 0.8653 0.12816 0.75088 0.0
O55 O 0.85765 0.12353 0.78183 0.0
O56 O 0.11453 0.41143 0.99847 0.0
Cd57 Cd 0.16358 0.41014 0.99698 0.0
Cd58 Cd 0.15286 0.40561 0.95786 0.0
O59 O 0.111 0.42451 0.96834 0.0
O60 O 0.18155 0.4418 0.01523 0.0
O61 O 0.18234 0.44815 0.98403 0.0
C62 C 0.18727 0.45989 1.00075 0.0
C63 C 0.15334 0.41058 0.92438 0.0
C64 C 0.09809 0.42117 0.98451 0.0
C65 C 0.17712 0.34758 0.98157 0.0
O66 O 0.16548 0.36034 0.96673 0.0
O67 O 0.18304 0.36454 0.9961 0.0
O68 O 0.13393 0.39237 0.93324 0.0
O69 O 0.17386 0.42589 0.93445 0.0
O70 O 0.95249 0.92911 0.2179 0.0
Cd71 Cd 0.91197 0.90742 0.20723 0.0
Cd72 Cd 0.89834 0.91454 0.24658 0.0
O73 O 0.94236 0.93713 0.24825 0.0
O74 O 0.9303 0.89576 0.18215 0.0
O75 O 0.88798 0.92619 0.18445 0.0
C76 C 0.90856 0.912 0.1738 0.0
C77 C 0.84758 0.93619 0.25092 0.0
C78 C 0.96119 0.93907 0.23413 0.0
C79 C 0.89902 0.84862 0.23222 0.0
O80 O 0.89938 0.86557 0.24713 0.0
O81 O 0.90155 0.86161 0.216 0.0
O82 O 0.86561 0.92931 0.26523 0.0
O83 O 0.85965 0.9332 0.23412 0.0
O84 O 0.44454 0.6469 0.49863 0.0
Cd85 Cd 0.39554 0.64712 0.49802 0.0
Cd86 Cd 0.40194 0.65876 0.45831 0.0
O87 O 0.4469 0.646 0.46745 0.0
O88 O 0.37965 0.61468 0.51651 0.0
O89 O 0.37653 0.60891 0.48534 0.0
C90 C 0.37293 0.59682 0.5021 0.0
C91 C 0.40039 0.65312 0.42498 0.0
C92 C 0.46058 0.64403 0.48347 0.0
C93 C 0.37222 0.7101 0.48456 0.0
O94 O 0.38171 0.7006 0.46836 0.0
O95 O 0.37385 0.69167 0.49889 0.0
O96 O 0.41654 0.67494 0.43328 0.0
O97 O 0.38322 0.63484 0.43553 0.0
O98 O 0.60576 0.12625 0.71906 0.0
Cd99 Cd 0.64578 0.14813 0.70782 0.0
Cd100 Cd 0.65897 0.14416 0.74777 0.0
O101 O 0.61499 0.12154 0.74977 0.0
O102 O 0.62668 0.15891 0.68283 0.0
O103 O 0.66938 0.129 0.685 0.0
C104 C 0.64846 0.1428 0.67442 0.0
C105 C 0.70973 0.12254 0.75233 0.0
C106 C 0.59681 0.11758 0.73551 0.0
C107 C 0.65891 0.20869 0.73151 0.0
O108 O 0.65809 0.19316 0.74695 0.0
O109 O 0.6563 0.19433 0.71573 0.0
O110 O 0.69191 0.13039 0.76657 0.0
O111 O 0.69747 0.12462 0.73553 0.0
O112 O 0.94398 0.41011 0.99982 0.0
Cd113 Cd 0.89504 0.40911 0.99875 0.0
Cd114 Cd 0.90369 0.39953 0.95866 0.0
O115 O 0.94725 0.41515 0.96877 0.0
O116 O 0.8785 0.44017 0.01786 0.0
O117 O 0.87587 0.44809 0.98685 0.0
C118 C 0.87195 0.45901 1.00387 0.0
C119 C 0.90303 0.40468 0.92526 0.0
C120 C 0.96023 0.41592 0.98504 0.0
C121 C 0.87365 0.34657 0.98395 0.0
O122 O 0.8844 0.35689 0.96822 0.0
O123 O 0.8739 0.3643 0.99861 0.0
O124 O 0.92025 0.38401 0.93389 0.0
O125 O 0.88465 0.42226 0.93554 0.0
O126 O 0.39901 0.19226 0.74762 0.0
Cd127 Cd 0.39809 0.14328 0.74767 0.0
Cd128 Cd 0.41209 0.14922 0.70804 0.0
O129 O 0.40248 0.19538 0.7165 0.0
O130 O 0.36634 0.12943 0.76714 0.0
O131 O 0.35875 0.12401 0.73624 0.0
C132 C 0.34761 0.12177 0.75332 0.0
C133 C 0.40724 0.14462 0.67469 0.0
C134 C 0.39941 0.20881 0.73256 0.0
C135 C 0.46077 0.11743 0.7352 0.0
O136 O 0.45219 0.1268 0.71881 0.0
O137 O 0.44222 0.12069 0.74938 0.0
O138 O 0.42977 0.16026 0.68267 0.0
O139 O 0.38716 0.13048 0.68568 0.0
O140 O 0.61525 0.64667 0.49807 0.0
Cd141 Cd 0.66427 0.64673 0.49749 0.0
Cd142 Cd 0.65769 0.65851 0.45797 0.0
O143 O 0.61251 0.64597 0.46689 0.0
O144 O 0.67996 0.61426 0.51602 0.0
O145 O 0.68336 0.60843 0.48487 0.0
C146 C 0.68681 0.59636 0.50164 0.0
C147 C 0.66135 0.65294 0.42464 0.0
C148 C 0.59902 0.64399 0.48297 0.0
C149 C 0.68741 0.70973 0.48425 0.0
O150 O 0.67772 0.70033 0.46809 0.0
O151 O 0.68601 0.6912 0.49854 0.0
O152 O 0.64449 0.67462 0.43263 0.0
O153 O 0.67738 0.63427 0.4356 0.0
O154 O 0.15979 0.86587 0.24809 0.0
Cd155 Cd 0.16067 0.91483 0.24727 0.0
Cd156 Cd 0.14763 0.90716 0.20782 0.0
O157 O 0.15803 0.86154 0.21699 0.0
O158 O 0.19204 0.92961 0.26667 0.0
O159 O 0.20016 0.93361 0.23574 0.0
C160 C 0.21101 0.93662 0.25283 0.0
C161 C 0.15339 0.91072 0.17446 0.0
C162 C 0.16039 0.84875 0.23327 0.0
C163 C 0.09779 0.93902 0.2342 0.0
O164 O 0.10667 0.9289 0.21802 0.0
O165 O 0.1165 0.9373 0.24839 0.0
O166 O 0.13103 0.89477 0.18242 0.0
O167 O 0.17274 0.92578 0.18545 0.0
O168 O 0.94295 0.64664 0.01859 0.0
Cd169 Cd 0.89396 0.64631 0.01963 0.0
Cd170 Cd 0.90164 0.65876 0.05882 0.0
O171 O 0.94707 0.64735 0.04971 0.0
O172 O 0.87819 0.61362 1.00129 0.0
O173 O 0.87543 0.60794 0.03247 0.0
C174 C 0.87177 0.59575 0.01575 0.0
C175 C 0.89799 0.65315 0.09216 0.0
C176 C 0.95996 0.64522 0.03344 0.0
C177 C 0.87083 0.7095 0.03267 0.0
O178 O 0.88096 0.70034 0.04879 0.0
O179 O 0.87196 0.69077 0.01847 0.0
O180 O 0.91452 0.67504 0.08417 0.0
O181 O 0.8824 0.63417 0.0812 0.0
O182 O 0.15867 0.19148 0.76926 0.0
Cd183 Cd 0.15981 0.14252 0.76966 0.0
Cd184 Cd 0.1464 0.14963 0.80901 0.0
O185 O 0.15777 0.19532 0.80042 0.0
O186 O 0.19289 0.12794 0.75117 0.0
O187 O 0.1984 0.12401 0.78231 0.0
C188 C 0.21076 0.12116 0.76557 0.0
C189 C 0.14892 0.14441 0.84242 0.0
C190 C 0.15982 0.20835 0.78418 0.0
C191 C 0.09692 0.11838 0.782 0.0
O192 O 0.10567 0.12857 0.79817 0.0
O193 O 0.1158 0.1199 0.76788 0.0
O194 O 0.12785 0.16141 0.834 0.0
O195 O 0.16947 0.12999 0.83186 0.0
O196 O 0.61641 0.40888 0.51742 0.0
Cd197 Cd 0.66536 0.40941 0.51893 0.0
Cd198 Cd 0.65634 0.39892 0.5583 0.0
O199 O 0.61155 0.41112 0.54849 0.0
O200 O 0.6814 0.44073 0.49984 0.0
O201 O 0.68352 0.4488 0.53084 0.0
C202 C 0.6875 0.45969 0.51382 0.0
C203 C 0.6589 0.40569 0.59159 0.0
C204 C 0.5991 0.41197 0.53206 0.0
C205 C 0.68767 0.34681 0.53328 0.0
O206 O 0.67667 0.35661 0.54907 0.0
O207 O 0.68752 0.36505 0.51884 0.0
O208 O 0.64201 0.384 0.5837 0.0
O209 O 0.67549 0.42376 0.58058 0.0
O210 O 0.39808 0.86503 0.26963 0.0
Cd211 Cd 0.39801 0.914 0.26987 0.0
Cd212 Cd 0.41011 0.90787 0.30948 0.0
O213 O 0.39744 0.86258 0.30084 0.0
O214 O 0.36556 0.92922 0.25121 0.0
O215 O 0.35962 0.93325 0.28233 0.0
C216 C 0.34759 0.93631 0.26552 0.0
C217 C 0.40515 0.91198 0.34283 0.0
C218 C 0.39543 0.84897 0.2848 0.0
C219 C 0.46099 0.93748 0.28277 0.0
O220 O 0.45172 0.92796 0.29901 0.0
O221 O 0.44239 0.93583 0.26854 0.0
O222 O 0.42675 0.8951 0.33478 0.0
O223 O 0.38617 0.92773 0.33192 0.0
O224 O 0.61644 0.14756 0.51778 0.0
Cd225 Cd 0.66533 0.14692 0.51972 0.0
Cd226 Cd 0.6561 0.15802 0.55893 0.0
O227 O 0.61152 0.14591 0.54884 0.0
O228 O 0.68215 0.11431 0.50163 0.0
O229 O 0.68285 0.10836 0.53284 0.0
C230 C 0.68752 0.09628 0.51618 0.0
C231 C 0.65679 0.15083 0.59216 0.0
C232 C 0.5991 0.14477 0.53243 0.0
C233 C 0.68771 0.20966 0.53382 0.0
O234 O 0.67673 0.20016 0.54968 0.0
O235 O 0.6875 0.1912 0.51948 0.0
O236 O 0.64066 0.17295 0.58408 0.0
O237 O 0.6743 0.13306 0.58148 0.0
O238 O 0.10512 0.42717 0.79736 0.0
Cd239 Cd 0.14579 0.40618 0.8084 0.0
Cd240 Cd 0.15954 0.41283 0.76885 0.0
O241 O 0.11532 0.43513 0.767 0.0
O242 O 0.12722 0.39495 0.83349 0.0
O243 O 0.16899 0.42603 0.83111 0.0
C244 C 0.14841 0.41194 0.84178 0.0
C245 C 0.20998 0.43445 0.76325 0.0
C246 C 0.0964 0.43697 0.78109 0.0
C247 C 0.15961 0.34715 0.78389 0.0
O248 O 0.15881 0.36385 0.76889 0.0
O249 O 0.15715 0.36034 0.80006 0.0
O250 O 0.19131 0.42675 0.74941 0.0
O251 O 0.19878 0.43223 0.78031 0.0
O252 O 0.9441 0.90929 0.01788 0.0
Cd253 Cd 0.89507 0.90928 0.01864 0.0
Cd254 Cd 0.90149 0.89788 0.0583 0.0
O255 O 0.9465 0.91023 0.04905 0.0
O256 O 0.87898 0.94197 1.00034 0.0
O257 O 0.87631 0.9475 0.03153 0.0
C258 C 0.87249 0.95974 0.01483 0.0
C259 C 0.89996 0.90428 0.09155 0.0
C260 C 0.96017 0.91211 0.03302 0.0
C261 C 0.87148 0.84649 0.03231 0.0
O262 O 0.88102 0.85605 0.04848 0.0
O263 O 0.87322 0.8648 0.01793 0.0
O264 O 0.91605 0.88217 0.08344 0.0
O265 O 0.88279 0.92239 0.08088 0.0
O266 O 0.45176 0.63156 0.2982 0.0
Cd267 Cd 0.41048 0.65161 0.30917 0.0
Cd268 Cd 0.39768 0.64566 0.26953 0.0
O269 O 0.44211 0.62379 0.26777 0.0
O270 O 0.42871 0.6639 0.33414 0.0
O271 O 0.38779 0.63167 0.33206 0.0
C272 C 0.40786 0.64672 0.3426 0.0
C273 C 0.34713 0.62352 0.26541 0.0
C274 C 0.46087 0.62209 0.28193 0.0
C275 C 0.3953 0.71065 0.28475 0.0
O276 O 0.39777 0.69464 0.26955 0.0
O277 O 0.39748 0.69698 0.30078 0.0
O278 O 0.36482 0.6308 0.25101 0.0
O279 O 0.35951 0.6263 0.28215 0.0
O280 O 0.61539 0.90983 0.49934 0.0
Cd281 Cd 0.66441 0.90961 0.49874 0.0
Cd282 Cd 0.65774 0.89874 0.45885 0.0
O283 O 0.61289 0.91157 0.46818 0.0
O284 O 0.67991 0.94074 0.51808 0.0
O285 O 0.68371 0.94872 0.48712 0.0
C286 C 0.68699 0.95959 0.50419 0.0
C287 C 0.65911 0.90499 0.42556 0.0
C288 C 0.5993 0.91316 0.48424 0.0
C289 C 0.6875 0.84684 0.48471 0.0
O290 O 0.67787 0.85664 0.46861 0.0
O291 O 0.68606 0.86501 0.49916 0.0
O292 O 0.64288 0.88311 0.43375 0.0
O293 O 0.67647 0.92296 0.43617 0.0
O294 O 0.45161 0.42932 0.71829 0.0
Cd295 Cd 0.41164 0.40703 0.70739 0.0
Cd296 Cd 0.39783 0.41349 0.74689 0.0
O297 O 0.44171 0.43637 0.74876 0.0
O298 O 0.43064 0.39584 0.68242 0.0
O299 O 0.38792 0.42575 0.6845 0.0
C300 C 0.40893 0.41196 0.67397 0.0
C301 C 0.34683 0.43474 0.75104 0.0
C302 C 0.46024 0.43917 0.73455 0.0
C303 C 0.3991 0.34777 0.73211 0.0
O304 O 0.39917 0.36453 0.74709 0.0
O305 O 0.40168 0.36098 0.71595 0.0
O306 O 0.36468 0.42779 0.76542 0.0
O307 O 0.35921 0.43206 0.73429 0.0
O308 O 0.94323 0.14603 1.0 0.0
Cd309 Cd 0.89434 0.14666 0.99843 0.0
Cd310 Cd 0.90416 0.15663 0.95897 0.0
O311 O 0.94823 0.14214 0.96898 0.0
O312 O 0.87772 0.11538 0.01737 0.0
O313 O 0.87572 0.10764 0.98633 0.0
C314 C 0.87159 0.09659 1.0033 0.0
C315 C 0.90111 0.15064 0.92564 0.0
C316 C 0.96047 0.14139 0.98547 0.0
C317 C 0.87339 0.20945 0.98392 0.0
O318 O 0.88477 0.19935 0.9683 0.0
O319 O 0.87298 0.19145 0.99846 0.0
O320 O 0.91898 0.17144 0.93364 0.0
O321 O 0.88406 0.1329 0.93659 0.0
O322 O 0.10679 0.62887 0.21864 0.0
Cd323 Cd 0.14726 0.65134 0.20844 0.0
Cd324 Cd 0.15959 0.64425 0.24838 0.0
O325 O 0.11554 0.62148 0.24923 0.0
O326 O 0.12906 0.66512 0.18374 0.0
O327 O 0.17118 0.63431 0.18514 0.0
C328 C 0.15116 0.65011 0.17494 0.0
C329 C 0.21023 0.62275 0.2536 0.0
C330 C 0.09754 0.61887 0.23477 0.0
C331 C 0.15973 0.70994 0.23401 0.0
O332 O 0.1585 0.69322 0.24898 0.0
O333 O 0.15781 0.69675 0.21783 0.0
O334 O 0.19141 0.62949 0.26757 0.0
O335 O 0.19905 0.62581 0.23658 0.0
O336 O 0.44462 0.91003 0.49887 0.0
Cd337 Cd 0.39561 0.90997 0.49823 0.0
Cd338 Cd 0.40243 0.89863 0.45871 0.0
O339 O 0.44756 0.91125 0.46768 0.0
O340 O 0.37975 0.94242 0.51671 0.0
O341 O 0.37661 0.94824 0.48555 0.0
C342 C 0.37301 0.96031 0.50231 0.0
C343 C 0.39856 0.90446 0.4254 0.0
C344 C 0.46093 0.91302 0.48381 0.0
C345 C 0.37257 0.84715 0.48482 0.0
O346 O 0.3824 0.8567 0.46871 0.0
O347 O 0.37385 0.86553 0.49917 0.0
O348 O 0.41555 0.88278 0.43329 0.0
O349 O 0.3826 0.92304 0.43646 0.0
O350 O 0.89998 0.69309 0.24788 0.0
Cd351 Cd 0.89891 0.64412 0.24736 0.0
Cd352 Cd 0.91135 0.65042 0.20798 0.0
O353 O 0.90139 0.69636 0.21673 0.0
O354 O 0.86584 0.62919 0.26574 0.0
O355 O 0.86037 0.62591 0.23457 0.0
C356 C 0.848 0.6227 0.25129 0.0
C357 C 0.90551 0.6463 0.17469 0.0
C358 C 0.89924 0.70972 0.23286 0.0
C359 C 0.96123 0.61863 0.23432 0.0
O360 O 0.95217 0.62843 0.21812 0.0
O361 O 0.94296 0.6213 0.24867 0.0
O362 O 0.92801 0.66221 0.18252 0.0
O363 O 0.88604 0.63159 0.1858 0.0
O364 O 0.11565 0.14543 0.99924 0.0
Cd365 Cd 0.16466 0.14604 0.99762 0.0
Cd366 Cd 0.15296 0.14996 0.95861 0.0
O367 O 0.11114 0.13137 0.96932 0.0
O368 O 0.18212 0.11544 0.01667 0.0
O369 O 0.18342 0.10701 0.98565 0.0
C370 C 0.18802 0.09636 1.00268 0.0
C371 C 0.15324 0.14525 0.92509 0.0
C372 C 0.09864 0.13569 0.98554 0.0
C373 C 0.17757 0.2083 0.9819 0.0
O374 O 0.16549 0.19531 0.96729 0.0
O375 O 0.18422 0.19151 0.99641 0.0
O376 O 0.1338 0.1633 0.93406 0.0
O377 O 0.17377 0.12977 0.93509 0.0
O378 O 0.65761 0.36316 0.74664 0.0
Cd379 Cd 0.65848 0.41216 0.74706 0.0
Cd380 Cd 0.64587 0.40792 0.70736 0.0
O381 O 0.65615 0.36171 0.71543 0.0
O382 O 0.69145 0.42628 0.76571 0.0
O383 O 0.69698 0.43121 0.73462 0.0
C384 C 0.70928 0.43364 0.75139 0.0
C385 C 0.65098 0.41306 0.67407 0.0
C386 C 0.65861 0.34747 0.73126 0.0
C387 C 0.59633 0.43869 0.73447 0.0
O388 O 0.60539 0.4298 0.71808 0.0
O389 O 0.61447 0.43495 0.74878 0.0
O390 O 0.62848 0.39715 0.68192 0.0
O391 O 0.67086 0.42719 0.68517 0.0
O392 O 0.44326 0.14777 0.518 0.0
Cd393 Cd 0.39432 0.14723 0.51949 0.0
Cd394 Cd 0.40331 0.15839 0.55882 0.0
O395 O 0.44816 0.14614 0.54908 0.0
O396 O 0.37844 0.11588 0.5004 0.0
O397 O 0.37603 0.10789 0.53141 0.0
C398 C 0.3722 0.09696 0.51439 0.0
C399 C 0.40038 0.15193 0.59214 0.0
C400 C 0.46058 0.145 0.53265 0.0
C401 C 0.37195 0.21003 0.53347 0.0
O402 O 0.38292 0.2005 0.54932 0.0
O403 O 0.37215 0.19156 0.51914 0.0
O404 O 0.41729 0.17361 0.58422 0.0
O405 O 0.38405 0.13367 0.58113 0.0
O406 O 0.66101 0.69467 0.26933 0.0
Cd407 Cd 0.66099 0.64568 0.269 0.0
Cd408 Cd 0.64878 0.65082 0.30878 0.0
O409 O 0.66112 0.6964 0.30055 0.0
O410 O 0.69251 0.63135 0.24952 0.0
O411 O 0.70002 0.62573 0.28042 0.0
C412 C 0.71116 0.62344 0.26334 0.0
C413 C 0.65381 0.64602 0.3421 0.0
C414 C 0.66332 0.7104 0.28464 0.0
C415 C 0.59789 0.62194 0.28186 0.0
O416 O 0.6072 0.63092 0.29819 0.0
O417 O 0.61645 0.62406 0.26762 0.0
O418 O 0.63205 0.66288 0.3342 0.0
O419 O 0.67289 0.63065 0.33105 0.0
O420 O 0.11499 0.9097 0.01848 0.0
Cd421 Cd 0.16403 0.90953 0.01907 0.0
Cd422 Cd 0.15727 0.89721 0.05858 0.0
O423 O 0.11199 0.90959 0.04967 0.0
O424 O 0.17979 0.94197 1.00055 0.0
O425 O 0.18324 0.94774 0.03169 0.0
C426 C 0.18675 0.9598 0.01492 0.0
C427 C 0.16108 0.90279 0.09192 0.0
C428 C 0.09863 0.91195 0.03357 0.0
C429 C 0.18744 0.84642 0.03209 0.0
O430 O 0.17774 0.85563 0.0483 0.0
O431 O 0.18582 0.86505 0.01786 0.0
O432 O 0.14435 0.881 0.08398 0.0
O433 O 0.17686 0.92156 0.08091 0.0
O434 O 0.89754 0.3637 0.76944 0.0
Cd435 Cd 0.89659 0.41267 0.76949 0.0
Cd436 Cd 0.91114 0.4058 0.80917 0.0
O437 O 0.89988 0.36011 0.80059 0.0
O438 O 0.86485 0.42648 0.75 0.0
O439 O 0.85717 0.43195 0.78089 0.0
C440 C 0.84605 0.43412 0.76381 0.0
C441 C 0.90906 0.41014 0.84267 0.0
C442 C 0.89713 0.34697 0.78443 0.0
C443 C 0.95983 0.43697 0.78157 0.0
O444 O 0.95142 0.42717 0.7979 0.0
O445 O 0.94073 0.43502 0.76758 0.0
O446 O 0.93031 0.39377 0.83398 0.0
O447 O 0.88831 0.42471 0.83234 0.0
C448 C 0.17337 0.63137 0.14356 0.0
C449 C 0.15346 0.65208 0.15391 0.0
C450 C 0.17518 0.63306 0.12362 0.0
C451 C 0.15737 0.65571 0.11334 0.0
H452 H 0.1874 0.61352 0.15086 0.0
H453 H 0.19057 0.61644 0.11625 0.0
S454 S 0.10261 0.7164 0.13385 0.0
N455 N 0.11626 0.69656 0.15231 0.0
N456 N 0.1197 0.69982 0.11525 0.0
C457 C 0.13774 0.67682 0.12362 0.0
C458 C 0.13578 0.67499 0.14378 0.0
C459 C 0.68166 0.92209 0.39397 0.0
C460 C 0.65641 0.9095 0.40476 0.0
C461 C 0.67963 0.92399 0.37404 0.0
C462 C 0.6522 0.91358 0.36432 0.0
H463 H 0.70345 0.92955 0.40088 0.0
H464 H 0.69999 0.93282 0.3662 0.0
S465 S 0.57772 0.88332 0.38646 0.0
N466 N 0.60201 0.88962 0.40444 0.0
N467 N 0.59805 0.89338 0.36735 0.0
C468 C 0.62625 0.90252 0.37514 0.0
C469 C 0.62839 0.90044 0.39526 0.0
C470 C 0.38066 0.42341 0.64309 0.0
C471 C 0.40816 0.41335 0.6529 0.0
C472 C 0.37901 0.42192 0.62314 0.0
C473 C 0.40472 0.41009 0.61241 0.0
H474 H 0.35996 0.43164 0.65087 0.0
H475 H 0.35715 0.42903 0.61616 0.0
S476 S 0.48369 0.38509 0.63097 0.0
N477 N 0.46284 0.39436 0.65003 0.0
N478 N 0.45954 0.39129 0.61289 0.0
C479 C 0.43278 0.40141 0.622 0.0
C480 C 0.43456 0.40311 0.64215 0.0
C481 C 0.92402 0.16496 0.89425 0.0
C482 C 0.9013 0.14757 0.90463 0.0
C483 C 0.9254 0.16344 0.8745 0.0
C484 C 0.90403 0.14456 0.86403 0.0
H485 H 0.94114 0.18005 0.90141 0.0
H486 H 0.94342 0.17755 0.86741 0.0
S487 S 0.83994 0.09397 0.88425 0.0
N488 N 0.85694 0.11042 0.90297 0.0
N489 N 0.85939 0.1077 0.86558 0.0
C490 C 0.88117 0.12679 0.87415 0.0
C491 C 0.87985 0.12824 0.89447 0.0
C492 C 0.17753 0.42407 0.89258 0.0
C493 C 0.15142 0.41341 0.90341 0.0
C494 C 0.1763 0.42444 0.87261 0.0
C495 C 0.14888 0.41422 0.86281 0.0
H496 H 0.19935 0.43133 0.89955 0.0
H497 H 0.19723 0.43194 0.86481 0.0
S498 S 0.07264 0.3881 0.88469 0.0
N499 N 0.09638 0.3952 0.90282 0.0
N500 N 0.09404 0.39594 0.86563 0.0
C501 C 0.12219 0.40488 0.87357 0.0
C502 C 0.12346 0.40446 0.89376 0.0
C503 C 0.87731 0.92098 0.1232 0.0
C504 C 0.90275 0.90896 0.11232 0.0
C505 C 0.87948 0.92287 0.14312 0.0
C506 C 0.90725 0.91303 0.15274 0.0
H507 H 0.85528 0.92796 0.11636 0.0
H508 H 0.85898 0.93122 0.15104 0.0
S509 S 0.98226 0.88452 0.13031 0.0
N510 N 0.95763 0.89031 0.11242 0.0
N511 N 0.96188 0.89407 0.14949 0.0
C512 C 0.93338 0.9026 0.14182 0.0
C513 C 0.93108 0.90051 0.12171 0.0
C514 C 0.3779 0.6361 0.39338 0.0
C515 C 0.40298 0.64905 0.40415 0.0
C516 C 0.3798 0.63449 0.37344 0.0
C517 C 0.40693 0.64557 0.36366 0.0
H518 H 0.35633 0.62808 0.40034 0.0
H519 H 0.35957 0.62532 0.36564 0.0
S520 S 0.48093 0.67718 0.38566 0.0
N521 N 0.45693 0.67012 0.4037 0.0
N522 N 0.46065 0.66692 0.36659 0.0
C523 C 0.43272 0.65706 0.37444 0.0
C524 C 0.4307 0.65885 0.39458 0.0
C525 C 0.67719 0.13165 0.64365 0.0
C526 C 0.64956 0.14168 0.65335 0.0
C527 C 0.67929 0.13362 0.62373 0.0
C528 C 0.65393 0.14595 0.61292 0.0
H529 H 0.69767 0.12309 0.6515 0.0
H530 H 0.70125 0.1265 0.61683 0.0
S531 S 0.57477 0.17115 0.63114 0.0
N532 N 0.59512 0.16121 0.65026 0.0
N533 N 0.59926 0.16521 0.61318 0.0
C534 C 0.62572 0.15462 0.62239 0.0
C535 C 0.62348 0.15241 0.6425 0.0
C536 C 0.88186 0.42293 0.87372 0.0
C537 C 0.90847 0.41099 0.86377 0.0
C538 C 0.88034 0.42157 0.89367 0.0
C539 C 0.90528 0.40804 0.90434 0.0
H540 H 0.86177 0.43276 0.86604 0.0
H541 H 0.85917 0.43041 0.90073 0.0
S542 S 0.98176 0.37674 0.88533 0.0
N543 N 0.96144 0.38761 0.86639 0.0
N544 N 0.95846 0.38492 0.90353 0.0
C545 C 0.93245 0.39712 0.89458 0.0
C546 C 0.93407 0.39863 0.87441 0.0
C547 C 0.42573 0.16366 0.64316 0.0
C548 C 0.40462 0.14451 0.65366 0.0
C549 C 0.42392 0.16561 0.62343 0.0
C550 C 0.40104 0.14836 0.61311 0.0
H551 H 0.44383 0.17772 0.6502 0.0
H552 H 0.44084 0.1809 0.61624 0.0
S553 S 0.34043 0.09396 0.63359 0.0
N554 N 0.36017 0.10743 0.6522 0.0
N555 N 0.35696 0.11089 0.61485 0.0
C556 C 0.37994 0.12868 0.6233 0.0
C557 C 0.38166 0.12683 0.6436 0.0
C558 C 0.63863 0.66803 0.39336 0.0
C559 C 0.66077 0.64972 0.40365 0.0
C560 C 0.6366 0.66613 0.37365 0.0
C561 C 0.65672 0.64595 0.36312 0.0
H562 H 0.62241 0.68409 0.40056 0.0
H563 H 0.61907 0.68099 0.36664 0.0
S564 S 0.7189 0.59265 0.38309 0.0
N565 N 0.70324 0.61034 0.40184 0.0
N566 N 0.69961 0.60695 0.36451 0.0
C567 C 0.67903 0.62731 0.37314 0.0
C568 C 0.68099 0.62913 0.39343 0.0
C569 C 0.13676 0.88967 0.14303 0.0
C570 C 0.15655 0.91025 0.15345 0.0
C571 C 0.13879 0.88756 0.12331 0.0
C572 C 0.16061 0.90606 0.11292 0.0
H573 H 0.11945 0.8747 0.15013 0.0
H574 H 0.12281 0.87123 0.1162 0.0
S575 S 0.21793 0.96405 0.1332 0.0
N576 N 0.19888 0.94972 0.15185 0.0
N577 N 0.20252 0.94595 0.11453 0.0
C578 C 0.18058 0.92696 0.12304 0.0
C579 C 0.17862 0.92899 0.14333 0.0
C580 C 0.91972 0.66922 0.1235 0.0
C581 C 0.89839 0.65011 0.11316 0.0
C582 C 0.9217 0.6674 0.14321 0.0
C583 C 0.90232 0.64651 0.1537 0.0
H584 H 0.93538 0.68582 0.11633 0.0
H585 H 0.93863 0.68284 0.15025 0.0
S586 S 0.84226 0.59111 0.13366 0.0
N587 N 0.85735 0.60932 0.11492 0.0
N588 N 0.86088 0.6061 0.15227 0.0
C589 C 0.8807 0.62718 0.14366 0.0
C590 C 0.87881 0.6289 0.12336 0.0
C591 C 0.17616 0.131 0.87333 0.0
C592 C 0.14924 0.14236 0.86347 0.0
C593 C 0.17723 0.13121 0.89331 0.0
C594 C 0.15144 0.14286 0.90409 0.0
H595 H 0.19682 0.12259 0.86559 0.0
H596 H 0.19866 0.12295 0.90032 0.0
S597 S 0.074 0.17188 0.88515 0.0
N598 N 0.09522 0.16314 0.86616 0.0
N599 N 0.09725 0.1636 0.90334 0.0
C600 C 0.12399 0.15313 0.89436 0.0
C601 C 0.12289 0.15287 0.87416 0.0
C602 C 0.63383 0.3936 0.62268 0.0
C603 C 0.65786 0.40953 0.61253 0.0
C604 C 0.63177 0.39558 0.64239 0.0
C605 C 0.65375 0.41344 0.65304 0.0
H606 H 0.61623 0.37929 0.61537 0.0
H607 H 0.61277 0.38253 0.64931 0.0
S608 S 0.72109 0.46032 0.6334 0.0
N609 N 0.70395 0.44445 0.61455 0.0
N610 N 0.70025 0.44797 0.65188 0.0
C611 C 0.67781 0.42991 0.64314 0.0
C612 C 0.6798 0.42803 0.62285 0.0
C613 C 0.42182 0.89066 0.3742 0.0
C614 C 0.40234 0.91172 0.36386 0.0
C615 C 0.42004 0.88866 0.39392 0.0
C616 C 0.39879 0.90771 0.4044 0.0
H617 H 0.43867 0.87523 0.36703 0.0
H618 H 0.43574 0.87193 0.40096 0.0
S619 S 0.34254 0.96714 0.38435 0.0
N620 N 0.36097 0.95227 0.36562 0.0
N621 N 0.35779 0.94867 0.40296 0.0
C622 C 0.37916 0.9291 0.39436 0.0
C623 C 0.38087 0.93104 0.37406 0.0
C624 C 0.04609 0.63956 0.04912 0.0
C625 C 0.06352 0.64254 0.03215 0.0
C626 C 1.01283 0.63954 0.04919 0.0
C627 C 0.99524 0.6425 0.03229 0.0
H628 H 0.05816 0.63781 0.06266 0.0
H629 H 1.00089 0.63777 0.06277 0.0
S630 S 0.02914 0.64849 0.98374 0.0
N631 N 0.06061 0.64667 0.99775 0.0
N632 N 0.99781 0.64663 0.99788 0.0
C633 C 1.01222 0.64426 0.01507 0.0
C634 C 0.04637 0.64428 0.015 0.0
C635 C 0.65846 0.76312 0.26803 0.0
C636 C 0.66696 0.74554 0.28427 0.0
C637 C 0.65844 0.79657 0.2682 0.0
C638 C 0.66692 0.81365 0.28462 0.0
H639 H 0.65064 0.75101 0.25529 0.0
H640 H 0.65061 0.80906 0.25559 0.0
S641 S 0.69571 0.7789 0.32996 0.0
N642 N 0.68739 0.74781 0.31655 0.0
N643 N 0.68735 0.81039 0.31688 0.0
C644 C 0.67716 0.79632 0.3006 0.0
C645 C 0.67718 0.76238 0.30042 0.0
C646 C 0.51312 0.42326 0.54684 0.0
C647 C 0.4957 0.41527 0.53047 0.0
C648 C 0.54638 0.42321 0.54688 0.0
C649 C 0.56393 0.41517 0.53056 0.0
H650 H 0.50102 0.42898 0.55999 0.0
H651 H 0.55837 0.4289 0.56005 0.0
S652 S 0.53001 0.39481 0.48346 0.0
N653 N 0.49854 0.40096 0.49706 0.0
N654 N 0.56137 0.40087 0.49713 0.0
C655 C 0.54695 0.40854 0.51378 0.0
C656 C 0.51282 0.40859 0.51374 0.0
C657 C 0.89193 0.29428 0.80047 0.0
C658 C 0.89473 0.31168 0.78349 0.0
C659 C 0.892 0.26102 0.80053 0.0
C660 C 0.8949 0.24345 0.78362 0.0
H661 H 0.89014 0.30636 0.814 0.0
H662 H 0.89027 0.24907 0.81411 0.0
S663 S 0.90099 0.27734 0.73507 0.0
N664 N 0.899 0.30878 0.74909 0.0
N665 N 0.89915 0.24603 0.74921 0.0
C666 C 0.89666 0.26043 0.7664 0.0
C667 C 0.89658 0.29454 0.76634 0.0
C668 C 1.0129 0.40994 1.00156 0.0
C669 C 0.99497 0.42195 0.98628 0.0
C670 C 0.04635 0.41143 1.00149 0.0
C671 C 0.06302 0.4251 0.98617 0.0
H672 H 1.00116 0.39788 0.01321 0.0
H673 H 0.0592 0.40036 0.01307 0.0
S674 S 1.02676 0.46501 0.94434 0.0
N675 N 0.99613 0.45155 0.95662 0.0
N676 N 0.05867 0.45458 0.95651 0.0
C677 C 0.04516 0.43932 0.97151 0.0
C678 C 1.01124 0.43765 0.97155 0.0
C679 C 0.89619 0.7956 0.21639 0.0
C680 C 0.89691 0.81332 0.23333 0.0
C681 C 0.89627 0.76235 0.21655 0.0
C682 C 0.89706 0.74505 0.23365 0.0
H683 H 0.89605 0.80742 0.20274 0.0
H684 H 0.89617 0.7502 0.203 0.0
S685 S 0.89707 0.77979 0.2821 0.0
N686 N 0.89691 0.81099 0.26784 0.0
N687 N 0.89705 0.74823 0.26813 0.0
C688 C 0.89682 0.76234 0.25078 0.0
C689 C 0.89674 0.79646 0.25062 0.0
C690 C 0.5132 0.64871 0.50027 0.0
C691 C 0.49573 0.64011 0.48402 0.0
C692 C 0.54669 0.64873 0.50014 0.0
C693 C 0.56389 0.64016 0.48375 0.0
H694 H 0.50099 0.65666 0.51296 0.0
H695 H 0.55912 0.65668 0.51274 0.0
S696 S 0.52941 0.61113 0.4384 0.0
N697 N 0.49824 0.61948 0.45178 0.0
N698 N 0.56082 0.61953 0.45153 0.0
C699 C 0.54665 0.62977 0.46779 0.0
C700 C 0.51269 0.62974 0.46792 0.0
C701 C 0.6558 0.26142 0.74833 0.0
C702 C 0.66166 0.24398 0.73162 0.0
C703 C 0.65571 0.29489 0.74827 0.0
C704 C 0.66147 0.31219 0.7315 0.0
H705 H 0.65036 0.2492 0.76146 0.0
H706 H 0.6502 0.30722 0.76136 0.0
S707 S 0.68191 0.27788 0.68442 0.0
N708 N 0.6761 0.24667 0.6982 0.0
N709 N 0.67593 0.3092 0.69808 0.0
C710 C 0.66872 0.29499 0.71488 0.0
C711 C 0.66882 0.26103 0.71495 0.0
C712 C 0.39811 0.29478 0.71611 0.0
C713 C 0.39724 0.31243 0.73308 0.0
C714 C 0.3982 0.26153 0.71622 0.0
C715 C 0.39742 0.24416 0.7333 0.0
H716 H 0.39919 0.30666 0.70249 0.0
H717 H 0.39933 0.24941 0.70268 0.0
S718 S 0.39308 0.27871 0.78174 0.0
N719 N 0.39418 0.30996 0.76753 0.0
N720 N 0.39435 0.24722 0.76774 0.0
C721 C 0.3957 0.26139 0.75042 0.0
C722 C 0.39561 0.2955 0.75031 0.0
C723 C 0.16532 0.76247 0.21786 0.0
C724 C 0.16225 0.74523 0.23489 0.0
C725 C 0.16549 0.79571 0.21768 0.0
C726 C 0.16261 0.81347 0.23452 0.0
H727 H 0.16713 0.75027 0.20437 0.0
H728 H 0.16743 0.8075 0.20406 0.0
S729 S 0.15597 0.7801 0.28316 0.0
N730 N 0.15779 0.7485 0.26926 0.0
N731 N 0.15812 0.81126 0.26892 0.0
C732 C 0.16058 0.79667 0.25178 0.0
C733 C 0.1604 0.76255 0.25197 0.0
C734 C 0.1657 0.26121 0.79994 0.0
C735 C 0.16226 0.24363 0.78308 0.0
C736 C 0.16565 0.29447 0.79988 0.0
C737 C 0.16215 0.31187 0.78294 0.0
H738 H 0.16796 0.24925 0.81349 0.0
H739 H 0.16787 0.30658 0.81338 0.0
S740 S 0.15424 0.27749 0.73463 0.0
N741 N 0.15673 0.24619 0.74873 0.0
N742 N 0.15663 0.30893 0.74861 0.0
C743 C 0.15976 0.29471 0.76582 0.0
C744 C 0.15981 0.2606 0.76589 0.0
C745 C 0.40068 0.76309 0.2679 0.0
C746 C 0.39154 0.74577 0.28412 0.0
C747 C 0.40072 0.79655 0.26791 0.0
C748 C 0.39162 0.81386 0.28414 0.0
H749 H 0.40903 0.75078 0.25534 0.0
H750 H 0.4091 0.80885 0.25536 0.0
S751 S 0.36086 0.77981 0.32921 0.0
N752 N 0.36973 0.74852 0.31608 0.0
N753 N 0.3698 0.8111 0.3161 0.0
C754 C 0.38067 0.79679 0.30004 0.0
C755 C 0.38064 0.76284 0.30003 0.0
C756 C 0.51326 0.13356 0.5474 0.0
C757 C 0.49574 0.14177 0.53111 0.0
C758 C 0.54652 0.13347 0.54734 0.0
C759 C 0.56394 0.1416 0.53098 0.0
H760 H 0.50126 0.12776 0.56056 0.0
H761 H 0.55862 0.12762 0.56046 0.0
S762 S 0.52968 0.16257 0.48406 0.0
N763 N 0.49831 0.15639 0.49773 0.0
N764 N 0.56114 0.15624 0.49762 0.0
C765 C 0.54685 0.14844 0.51428 0.0
C766 C 0.51272 0.14852 0.51434 0.0
C767 C 1.01286 0.90707 0.01625 0.0
C768 C 0.99532 0.91593 0.03245 0.0
C769 C 0.04636 0.90701 0.01639 0.0
C770 C 0.06349 0.91579 0.03274 0.0
H771 H 1.00069 0.89894 1.0036 0.0
H772 H 0.05885 0.89885 1.00385 0.0
S773 S 0.02886 0.9456 0.0779 0.0
N774 N 0.99773 0.93709 0.06457 0.0
N775 N 0.06032 0.93693 0.06484 0.0
C776 C 0.0462 0.92644 0.04864 0.0
C777 C 1.01224 0.92653 0.0485 0.0
C778 C 0.51322 0.90758 0.50089 0.0
C779 C 0.49603 0.91696 0.48467 0.0
C780 C 0.54671 0.90765 0.50101 0.0
C781 C 0.56417 0.91712 0.48492 0.0
H782 H 0.50078 0.89891 0.51333 0.0
H783 H 0.55893 0.89902 0.51353 0.0
S784 S 0.53047 0.94857 0.43991 0.0
N785 N 0.49906 0.93938 0.45287 0.0
N786 N 0.56166 0.93953 0.4531 0.0
C787 C 0.54721 0.92835 0.46903 0.0
C788 C 0.51325 0.92826 0.46891 0.0
C789 C 0.04561 0.12286 0.97158 0.0
C790 C 0.06348 0.13278 0.98741 0.0
C791 C 1.01237 0.12465 0.97148 0.0
C792 C 0.99535 0.13624 0.98722 0.0
H793 H 0.05734 0.1147 0.95879 0.0
H794 H 1.00001 0.1176 0.95866 0.0
S795 S 0.03031 0.16182 0.03311 0.0
N796 N 0.0614 0.15211 0.01995 0.0
N797 N 0.99868 0.15528 0.01976 0.0
C798 C 1.01266 0.1444 1.00362 0.0
C799 C 0.04674 0.14271 1.00371 0.0
C800 C 0.19524 0.50739 0.02187 0.0
C801 C 0.19459 0.49441 1.00344 0.0
C802 C 0.19514 0.54047 0.02488 0.0
C803 C 0.19434 0.56209 0.00961 0.0
H804 H 0.19405 0.49195 0.03416 0.0
H805 H 0.19386 0.54904 0.03935 0.0
S806 S 0.19779 0.54059 0.95852 0.0
N807 N 0.19717 0.50602 0.96965 0.0
N808 N 0.19697 0.56799 0.9753 0.0
C809 C 0.1963 0.54947 0.99111 0.0
C810 C 0.19645 0.51574 0.98803 0.0
C811 C 0.80021 0.94329 0.27229 0.0
C812 C 0.813 0.94312 0.2538 0.0
C813 C 0.76715 0.94332 0.27546 0.0
C814 C 0.74536 0.94307 0.26027 0.0
H815 H 0.81579 0.94176 0.28451 0.0
H816 H 0.75873 0.94172 0.28995 0.0
S817 S 0.7663 0.94773 0.20913 0.0
N818 N 0.80103 0.94662 0.2201 0.0
N819 N 0.73907 0.9466 0.22602 0.0
C820 C 0.75778 0.94539 0.24174 0.0
C821 C 0.7915 0.94545 0.23851 0.0
C822 C 0.36597 0.516 0.5261 0.0
C823 C 0.36523 0.49456 0.51074 0.0
C824 C 0.36618 0.54911 0.52321 0.0
C825 C 0.36563 0.56231 0.50483 0.0
H826 H 0.36818 0.50724 0.54049 0.0
H827 H 0.3685 0.56438 0.53551 0.0
S828 S 0.3583 0.51675 0.45988 0.0
N829 N 0.35995 0.48913 0.47652 0.0
N830 N 0.36034 0.55117 0.47111 0.0
C831 C 0.36231 0.54121 0.48941 0.0
C832 C 0.36212 0.50744 0.49237 0.0
C833 C 0.79036 0.11539 0.77665 0.0
C834 C 0.81199 0.11449 0.76137 0.0
C835 C 0.75726 0.11588 0.77362 0.0
C836 C 0.74428 0.11536 0.75519 0.0
H837 H 0.79896 0.11752 0.79107 0.0
H838 H 0.74183 0.11826 0.78587 0.0
S839 S 0.79043 0.10783 0.71043 0.0
N840 N 0.81785 0.10926 0.72718 0.0
N841 N 0.75584 0.11008 0.72151 0.0
C842 C 0.76558 0.11194 0.73986 0.0
C843 C 0.79933 0.11155 0.74295 0.0
C844 C 0.86492 0.54797 0.99472 0.0
C845 C 0.86471 0.56117 0.0131 0.0
C846 C 0.86489 0.51486 0.99183 0.0
C847 C 0.8647 0.4934 1.0072 0.0
H848 H 0.86682 0.56326 0.98239 0.0
H849 H 0.86683 0.50612 0.97743 0.0
S850 S 0.85887 0.51552 0.05811 0.0
N851 N 0.86035 0.54997 0.04686 0.0
N852 N 0.86031 0.48792 0.04146 0.0
C853 C 0.86194 0.50625 0.0256 0.0
C854 C 0.86193 0.54003 0.02855 0.0
C855 C 0.25854 0.11439 0.74446 0.0
C856 C 0.24545 0.11448 0.76288 0.0
C857 C 0.29165 0.11449 0.74149 0.0
C858 C 0.3132 0.1148 0.7568 0.0
H859 H 0.24314 0.11584 0.73216 0.0
H860 H 0.30031 0.1161 0.72705 0.0
S861 S 0.29145 0.11016 0.80782 0.0
N862 N 0.2569 0.1111 0.79665 0.0
N863 N 0.31894 0.11137 0.79108 0.0
C864 C 0.30048 0.11248 0.77526 0.0
C865 C 0.26671 0.11228 0.77829 0.0
C866 C 0.69385 0.51565 0.52578 0.0
C867 C 0.69445 0.49412 0.51047 0.0
C868 C 0.69364 0.54874 0.52282 0.0
C869 C 0.69408 0.56183 0.50441 0.0
H870 H 0.69174 0.50697 0.54019 0.0
H871 H 0.69143 0.56408 0.5351 0.0
S872 S 0.70102 0.51598 0.45954 0.0
N873 N 0.69947 0.48847 0.47624 0.0
N874 N 0.6991 0.55048 0.4707 0.0
C875 C 0.69727 0.54063 0.48903 0.0
C876 C 0.69744 0.50688 0.49205 0.0
C877 C 0.2671 0.94344 0.24112 0.0
C878 C 0.24538 0.94359 0.25636 0.0
C879 C 0.30017 0.94333 0.24421 0.0
C880 C 0.31305 0.94346 0.26267 0.0
H881 H 0.2586 0.9416 0.22666 0.0
H882 H 0.31569 0.94148 0.23197 0.0
S883 S 0.2666 0.94917 0.30742 0.0
N884 N 0.23928 0.94783 0.2906 0.0
N885 N 0.30126 0.94768 0.29637 0.0
C886 C 0.29164 0.9462 0.27799 0.0
C887 C 0.25791 0.94624 0.27484 0.0
C888 C 0.69499 0.0485 0.49521 0.0
C889 C 0.6945 0.06165 0.5136 0.0
C890 C 0.69489 1.0154 0.4923 0.0
C891 C 0.69425 0.99392 0.50764 0.0
H892 H 0.69374 0.06383 0.48287 0.0
H893 H 0.69352 1.00671 0.47786 0.0
S894 S 0.69808 1.01587 0.55865 0.0
N895 N 0.69733 0.05035 0.54741 0.0
N896 N 0.69713 0.98832 0.54196 0.0
C897 C 0.69632 1.0067 0.52609 0.0
C898 C 0.69645 0.04046 0.52906 0.0
C899 C 0.26594 0.44138 0.77513 0.0
C900 C 0.2444 0.44138 0.75981 0.0
C901 C 0.29906 0.44138 0.77216 0.0
C902 C 0.31216 0.44149 0.75375 0.0
H903 H 0.25727 0.43961 0.78956 0.0
H904 H 0.31444 0.43969 0.78446 0.0
S905 S 0.26621 0.44668 0.70883 0.0
N906 N 0.2387 0.44533 0.72555 0.0
N907 N 0.30075 0.44541 0.71999 0.0
C908 C 0.29092 0.444 0.73834 0.0
C909 C 0.25714 0.44391 0.74137 0.0
C910 C 0.86533 1.00766 0.9939 0.0
C911 C 0.86516 0.99431 0.01225 0.0
C912 C 0.86503 0.04079 0.9911 0.0
C913 C 0.86461 0.06212 1.00652 0.0
H914 H 0.86739 0.99247 0.98154 0.0
H915 H 0.86695 0.04966 0.97672 0.0
S916 S 0.85882 0.03956 0.05737 0.0
N917 N 0.86062 1.00521 0.04604 0.0
N918 N 0.86008 0.06729 0.0408 0.0
C919 C 0.8619 0.0491 0.02488 0.0
C920 C 0.86216 1.01531 0.02775 0.0
C921 C 0.29932 0.61665 0.24439 0.0
C922 C 0.31255 0.6164 0.26277 0.0
C923 C 0.26619 0.61642 0.24152 0.0
C924 C 0.24474 0.61601 0.2569 0.0
H925 H 0.3146 0.61866 0.23206 0.0
H926 H 0.25742 0.61833 0.22712 0.0
S927 S 0.26694 0.6102 0.3078 0.0
N928 N 0.30139 0.6119 0.29653 0.0
N929 N 0.23931 0.61153 0.29116 0.0
C930 C 0.25763 0.61331 0.27529 0.0
C931 C 0.29143 0.61347 0.27822 0.0
C932 C 0.36573 0.04103 0.52638 0.0
C933 C 0.36526 0.06254 0.51104 0.0
C934 C 0.36597 1.00794 0.52344 0.0
C935 C 0.36569 0.99483 0.50504 0.0
H936 H 0.36773 0.04972 0.54079 0.0
H937 H 0.36808 0.9926 0.53574 0.0
S938 S 0.3591 0.04062 0.46012 0.0
N939 N 0.36051 0.06815 0.4768 0.0
N940 N 0.36093 1.00614 0.47131 0.0
C941 C 0.36262 1.01601 0.48964 0.0
C942 C 0.36241 0.04976 0.49263 0.0
C943 C 0.76704 0.61582 0.27523 0.0
C944 C 0.74555 0.61628 0.25989 0.0
C945 C 0.80017 0.61572 0.2723 0.0
C946 C 0.81333 0.61597 0.25391 0.0
H947 H 0.75834 0.61733 0.28967 0.0
H948 H 0.81551 0.61707 0.28463 0.0
S949 S 0.76752 0.61198 0.20889 0.0
N950 N 0.73995 0.61309 0.2256 0.0
N951 N 0.80202 0.61283 0.22011 0.0
C952 C 0.79213 0.61388 0.23846 0.0
C953 C 0.75835 0.61407 0.24145 0.0
C954 C 0.19406 1.00732 0.99374 0.0
C955 C 0.1943 0.99425 0.01215 0.0
C956 C 0.19449 0.0404 0.99076 0.0
C957 C 0.19511 0.06195 1.00606 0.0
H958 H 0.19183 0.99197 0.98146 0.0
H959 H 0.19247 0.04905 0.97634 0.0
S960 S 0.20131 0.0401 0.05701 0.0
N961 N 0.19924 1.0056 0.04586 0.0
N962 N 0.20001 0.06761 0.04029 0.0
C963 C 0.19797 0.04919 0.02449 0.0
C964 C 0.19757 1.01544 0.02753 0.0
C965 C 0.78996 0.4407 0.77562 0.0
C966 C 0.81159 0.44087 0.76033 0.0
C967 C 0.75686 0.4405 0.7726 0.0
C968 C 0.74387 0.44058 0.75417 0.0
H969 H 0.79855 0.43895 0.79006 0.0
H970 H 0.74142 0.43869 0.78487 0.0
S971 S 0.79006 0.44611 0.70931 0.0
N972 N 0.81748 0.44491 0.72608 0.0
N973 N 0.75546 0.44462 0.72043 0.0
C974 C 0.76519 0.44325 0.73879 0.0
C975 C 0.79895 0.44335 0.74187 0.0
C976 C 0.20507 0.79467 0.04608 0.0
C977 C 0.19627 0.8122 0.02988 0.0
C978 C 0.2053 0.76129 0.04602 0.0
C979 C 0.19671 0.74382 0.02977 0.0
H980 H 0.20994 0.80679 0.05933 0.0
H981 H 0.2103 0.7491 0.05924 0.0
S982 S 0.17631 0.77813 0.98278 0.0
N983 N 0.18241 0.80951 0.99642 0.0
N984 N 0.1828 0.74668 0.99633 0.0
C985 C 0.19081 0.76096 0.01294 0.0
C986 C 0.19059 0.79516 0.01299 0.0
C987 C 0.54615 0.95502 0.29671 0.0
C988 C 0.56366 0.94617 0.28049 0.0
C989 C 0.51275 0.95498 0.29673 0.0
C990 C 0.49525 0.94611 0.28055 0.0
H991 H 0.55831 0.96013 0.30991 0.0
H992 H 0.50059 0.96007 0.30996 0.0
S993 S 0.52945 0.92545 0.23355 0.0
N994 N 0.56088 0.93191 0.2471 0.0
N995 N 0.49802 0.93187 0.24715 0.0
C996 C 0.51235 0.94014 0.2637 0.0
C997 C 0.54656 0.94017 0.26368 0.0
C998 C 0.35671 0.26197 0.5482 0.0
C999 C 0.36333 0.24438 0.53166 0.0
C1000 C 0.35671 0.29534 0.54815 0.0
C1001 C 0.36334 0.31277 0.53155 0.0
H1002 H 0.35334 0.24987 0.56164 0.0
H1003 H 0.35335 0.30755 0.56154 0.0
S1004 S 0.3777 0.27836 0.48379 0.0
N1005 N 0.3731 0.24701 0.49768 0.0
N1006 N 0.37311 0.30983 0.49758 0.0
C1007 C 0.3671 0.2956 0.51452 0.0
C1008 C 0.3671 0.2614 0.51457 0.0
C1009 C 1.01214 0.09972 0.79606 0.0
C1010 C 0.99443 0.10914 0.78006 0.0
C1011 C 0.04553 0.09975 0.79591 0.0
C1012 C 0.06282 0.10921 0.77974 0.0
H1013 H 1.00014 0.09428 0.80928 0.0
H1014 H 0.05788 0.09434 0.80902 0.0
S1015 S 1.02802 0.13141 0.73319 0.0
N1016 N 0.99676 0.12447 0.74682 0.0
N1017 N 0.05964 0.12454 0.74653 0.0
C1018 C 0.04552 0.11566 0.76305 0.0
C1019 C 1.0113 0.11562 0.76321 0.0
C1020 C 0.20146 0.26119 0.99248 0.0
C1021 C 0.17804 0.24377 0.98259 0.0
C1022 C 0.20135 0.29494 0.99241 0.0
C1023 C 0.17781 0.31215 0.98244 0.0
H1024 H 0.22019 0.24874 1.00003 0.0
H1025 H 0.21998 0.30755 0.9999 0.0
S1026 S 0.10808 0.2777 0.95728 0.0
N1027 N 0.12864 0.24658 0.9646 0.0
N1028 N 0.12845 0.30898 0.96446 0.0
C1029 C 0.1536 0.29481 0.97329 0.0
C1030 C 0.15369 0.26092 0.97337 0.0
C1031 C 1.0128 0.95743 0.22035 0.0
C1032 C 0.99527 0.94824 0.23649 0.0
C1033 C 0.0462 0.95738 0.22036 0.0
C1034 C 0.06366 0.94816 0.2365 0.0
H1035 H 1.00065 0.96267 0.20716 0.0
H1036 H 0.0584 0.96259 0.20717 0.0
S1037 S 0.02938 0.92673 0.28334 0.0
N1038 N 0.99797 0.93345 0.2698 0.0
N1039 N 0.06084 0.93339 0.26982 0.0
C1040 C 0.04654 0.942 0.25331 0.0
C1041 C 1.01233 0.94203 0.2533 0.0
C1042 C 0.35571 0.76209 0.47036 0.0
C1043 C 0.36378 0.74445 0.48666 0.0
C1044 C 0.35581 0.79546 0.47042 0.0
C1045 C 0.36398 0.81284 0.48679 0.0
H1046 H 0.35112 0.75003 0.45705 0.0
H1047 H 0.3513 0.80771 0.45716 0.0
S1048 S 0.38249 0.77831 0.534 0.0
N1049 N 0.37657 0.747 0.52028 0.0
N1050 N 0.37675 0.80982 0.52039 0.0
C1051 C 0.3692 0.79563 0.50367 0.0
C1052 C 0.3691 0.76143 0.50361 0.0
C1053 C 0.51183 0.11772 0.75385 0.0
C1054 C 0.49464 0.10777 0.73774 0.0
C1055 C 0.54544 0.11777 0.75393 0.0
C1056 C 0.56292 0.10787 0.7379 0.0
H1057 H 0.4994 0.12814 0.76581 0.0
H1058 H 0.55763 0.12824 0.76594 0.0
S1059 S 0.52918 0.07264 0.69403 0.0
N1060 N 0.49768 0.08259 0.70677 0.0
N1061 N 0.56045 0.08262 0.70692 0.0
C1062 C 0.54594 0.09458 0.72263 0.0
C1063 C 0.51191 0.09456 0.72255 0.0
C1064 C 0.87119 0.29478 1.00201 0.0
C1065 C 0.86509 0.31219 0.98529 0.0
C1066 C 0.87108 0.26118 1.00201 0.0
C1067 C 0.86488 0.24385 0.98529 0.0
H1068 H 0.87842 0.30705 0.01481 0.0
H1069 H 0.87826 0.24882 0.0148 0.0
S1070 S 0.84075 0.27812 0.93893 0.0
N1071 N 0.84767 0.30944 0.95245 0.0
N1072 N 0.84751 0.24674 0.95246 0.0
C1073 C 0.85574 0.26105 0.96904 0.0
C1074 C 0.85584 0.29507 0.96904 0.0
C1075 C 0.70385 0.79508 0.47015 0.0
C1076 C 0.69595 0.81244 0.48658 0.0
C1077 C 0.70384 0.7617 0.47004 0.0
C1078 C 0.69592 0.74404 0.48636 0.0
H1079 H 0.70825 0.80735 0.45688 0.0
H1080 H 0.70823 0.74967 0.45669 0.0
S1081 S 0.67792 0.77781 0.53384 0.0
N1082 N 0.68359 0.80934 0.52024 0.0
N1083 N 0.68356 0.74653 0.52003 0.0
C1084 C 0.69085 0.76099 0.50335 0.0
C1085 C 0.69087 0.79518 0.50346 0.0
C1086 C 0.85413 0.76148 0.04676 0.0
C1087 C 0.86228 0.74381 0.03049 0.0
C1088 C 0.85435 0.79486 0.04668 0.0
C1089 C 0.86273 0.81221 0.03033 0.0
H1090 H 0.84943 0.74944 0.06007 0.0
H1091 H 0.84978 0.80713 0.05993 0.0
S1092 S 0.88152 0.77755 0.98318 0.0
N1093 N 0.87537 0.74627 0.99691 0.0
N1094 N 0.87577 0.80909 0.99676 0.0
C1095 C 0.86801 0.79495 0.01347 0.0
C1096 C 0.86779 0.76075 0.01355 0.0
C1097 C 0.7027 0.29507 0.54836 0.0
C1098 C 0.69627 0.31242 0.5317 0.0
C1099 C 0.7027 0.26169 0.5485 0.0
C1100 C 0.6963 0.24401 0.53197 0.0
H1101 H 0.70589 0.30736 0.56174 0.0
H1102 H 0.7059 0.24969 0.56197 0.0
S1103 S 0.68255 0.27772 0.48397 0.0
N1104 N 0.68695 0.30927 0.4977 0.0
N1105 N 0.68697 0.24646 0.49795 0.0
C1106 C 0.69274 0.26094 0.51483 0.0
C1107 C 0.69272 0.29514 0.51469 0.0
C1108 C 1.01151 0.45599 0.79485 0.0
C1109 C 0.99388 0.44606 0.77894 0.0
C1110 C 0.04491 0.45598 0.79474 0.0
C1111 C 0.06227 0.44605 0.7787 0.0
H1112 H 0.99944 0.4618 0.808 0.0
H1113 H 0.05719 0.4618 0.8078 0.0
S1114 S 1.0277 0.42234 0.73237 0.0
N1115 N 0.99637 0.42969 0.74588 0.0
N1116 N 0.05925 0.42967 0.74567 0.0
C1117 C 0.04505 0.43907 0.76206 0.0
C1118 C 1.01083 0.43908 0.76218 0.0
C1119 C 0.51268 0.60425 0.29575 0.0
C1120 C 0.49515 0.61345 0.27962 0.0
C1121 C 0.54607 0.60423 0.29574 0.0
C1122 C 0.56358 0.61343 0.2796 0.0
H1123 H 0.50051 0.59888 0.30893 0.0
H1124 H 0.55824 0.59884 0.30891 0.0
S1125 S 0.52933 0.63519 0.23281 0.0
N1126 N 0.4979 0.62846 0.24635 0.0
N1127 N 0.56077 0.62843 0.24632 0.0
C1128 C 0.54646 0.6198 0.26283 0.0
C1129 C 0.51224 0.61981 0.26284 0.0
C1130 C 0.51145 0.43938 0.75307 0.0
C1131 C 0.49412 0.44884 0.7369 0.0
C1132 C 0.54506 0.43919 0.75302 0.0
C1133 C 0.56241 0.44844 0.7368 0.0
H1134 H 0.49912 0.42943 0.7652 0.0
H1135 H 0.55736 0.42913 0.76514 0.0
S1136 S 0.52827 0.48221 0.6926 0.0
N1137 N 0.49689 0.47288 0.70559 0.0
N1138 N 0.55965 0.47257 0.70551 0.0
C1139 C 0.54529 0.46124 0.72143 0.0
C1140 C 0.51126 0.46143 0.72147 0.0
C1141 C 1.0124 0.61754 0.25292 0.0
C1142 C 0.99524 0.6091 0.2365 0.0
C1143 C 0.04601 0.61759 0.25304 0.0
C1144 C 0.06356 0.60919 0.23673 0.0
H1145 H 0.99994 0.62677 0.26521 0.0
H1146 H 0.05817 0.62686 0.26541 0.0
S1147 S 0.02995 0.57816 0.19171 0.0
N1148 N 0.99841 0.58686 0.20473 0.0
N1149 N 0.06117 0.58695 0.20494 0.0
C1150 C 0.04661 0.59742 0.22101 0.0
C1151 C 1.01258 0.59737 0.22089 0.0
loop_
_geom_bond_atom_site_label_1
_geom_bond_atom_site_label_2
_geom_bond_distance
_geom_bond_site_symmetry_2
_ccdc_geom_bond_type
O0 Cd1 2.223 . S
O0 C8 1.315 . S
Cd1 O0 2.223 . S
Cd1 O4 2.297 1_554 S
Cd1 O5 2.439 . S
Cd1 O11 2.240 . S
Cd2 O3 2.240 . S
Cd2 O10 2.223 . S
Cd2 O12 2.297 . S
Cd2 O13 2.439 . S
O3 Cd2 2.240 . S
O3 C8 1.279 . S
O4 Cd1 2.297 1_556 S
O4 C6 1.247 1_556 S
O5 Cd1 2.439 . S
O5 C6 1.208 . S
C6 O4 1.247 1_554 S
C6 O5 1.208 . S
C7 O12 1.247 . S
C7 O13 1.208 . S
C8 O0 1.315 . S
C8 O3 1.279 . S
C9 O10 1.315 . S
C9 O11 1.279 . S
O10 Cd2 2.223 . S
O10 C9 1.315 . S
O11 Cd1 2.240 . S
O11 C9 1.279 . S
O12 Cd2 2.297 . S
O12 C7 1.247 . S
O13 Cd2 2.439 . S
O13 C7 1.208 . S
O14 Cd15 2.223 . S
O14 C22 1.315 . S
Cd15 O14 2.223 . S
Cd15 O18 2.297 . S
Cd15 O19 2.439 . S
Cd15 O25 2.240 . S
Cd16 O17 2.240 . S
Cd16 O24 2.223 . S
Cd16 O26 2.297 . S
Cd16 O27 2.439 . S
O17 Cd16 2.240 . S
O17 C22 1.279 . S
O18 Cd15 2.297 . S
O18 C20 1.247 . S
O19 Cd15 2.439 . S
O19 C20 1.208 . S
C20 O18 1.247 . S
C20 O19 1.208 . S
C21 O26 1.247 . S
C21 O27 1.208 . S
C22 O14 1.315 . S
C22 O17 1.279 . S
C23 O24 1.315 . S
C23 O25 1.279 . S
O24 Cd16 2.223 . S
O24 C23 1.315 . S
O25 Cd15 2.240 . S
O25 C23 1.279 . S
O26 Cd16 2.297 . S
O26 C21 1.247 . S
O27 Cd16 2.439 . S
O27 C21 1.208 . S
O28 Cd29 2.223 . S
O28 C36 1.315 . S
Cd29 O28 2.223 . S
Cd29 O32 2.297 . S
Cd29 O33 2.439 . S
Cd29 O39 2.240 . S
Cd30 O31 2.240 . S
Cd30 O38 2.223 . S
Cd30 O40 2.297 . S
Cd30 O41 2.439 . S
O31 Cd30 2.240 . S
O31 C36 1.279 . S
O32 Cd29 2.297 . S
O32 C34 1.247 . S
O33 Cd29 2.439 . S
O33 C34 1.208 . S
C34 O32 1.247 . S
C34 O33 1.208 . S
C35 O40 1.247 . S
C35 O41 1.208 . S
C36 O28 1.315 . S
C36 O31 1.279 . S
C37 O38 1.315 . S
C37 O39 1.279 . S
O38 Cd30 2.223 . S
O38 C37 1.315 . S
O39 Cd29 2.240 . S
O39 C37 1.279 . S
O40 Cd30 2.297 . S
O40 C35 1.247 . S
O41 Cd30 2.439 . S
O41 C35 1.208 . S
O42 Cd43 2.223 . S
O42 C50 1.315 . S
Cd43 O42 2.223 . S
Cd43 O46 2.297 . S
Cd43 O47 2.439 . S
Cd43 O53 2.240 . S
Cd44 O45 2.240 . S
Cd44 O52 2.223 . S
Cd44 O54 2.297 . S
Cd44 O55 2.439 . S
O45 Cd44 2.240 . S
O45 C50 1.279 . S
O46 Cd43 2.297 . S
O46 C48 1.247 . S
O47 Cd43 2.439 . S
O47 C48 1.208 . S
C48 O46 1.247 . S
C48 O47 1.208 . S
C49 O54 1.247 . S
C49 O55 1.208 . S
C50 O42 1.315 . S
C50 O45 1.279 . S
C51 O52 1.315 . S
C51 O53 1.279 . S
O52 Cd44 2.223 . S
O52 C51 1.315 . S
O53 Cd43 2.240 . S
O53 C51 1.279 . S
O54 Cd44 2.297 . S
O54 C49 1.247 . S
O55 Cd44 2.439 . S
O55 C49 1.208 . S
O56 Cd57 2.223 . S
O56 C64 1.315 . S
Cd57 O56 2.223 . S
Cd57 O60 2.297 1_556 S
Cd57 O61 2.439 . S
Cd57 O67 2.240 . S
Cd58 O59 2.240 . S
Cd58 O66 2.223 . S
Cd58 O68 2.297 . S
Cd58 O69 2.439 . S
O59 Cd58 2.240 . S
O59 C64 1.279 . S
O60 Cd57 2.297 1_554 S
O60 C62 1.247 1_554 S
O61 Cd57 2.439 . S
O61 C62 1.208 . S
C62 O60 1.247 1_556 S
C62 O61 1.208 . S
C63 O68 1.247 . S
C63 O69 1.208 . S
C64 O56 1.315 . S
C64 O59 1.279 . S
C65 O66 1.315 . S
C65 O67 1.279 . S
O66 Cd58 2.223 . S
O66 C65 1.315 . S
O67 Cd57 2.240 . S
O67 C65 1.279 . S
O68 Cd58 2.297 . S
O68 C63 1.247 . S
O69 Cd58 2.439 . S
O69 C63 1.208 . S
O70 Cd71 2.223 . S
O70 C78 1.315 . S
Cd71 O70 2.223 . S
Cd71 O74 2.297 . S
Cd71 O75 2.439 . S
Cd71 O81 2.240 . S
Cd72 O73 2.240 . S
Cd72 O80 2.223 . S
Cd72 O82 2.297 . S
Cd72 O83 2.439 . S
O73 Cd72 2.240 . S
O73 C78 1.279 . S
O74 Cd71 2.297 . S
O74 C76 1.247 . S
O75 Cd71 2.439 . S
O75 C76 1.208 . S
C76 O74 1.247 . S
C76 O75 1.208 . S
C77 O82 1.247 . S
C77 O83 1.208 . S
C78 O70 1.315 . S
C78 O73 1.279 . S
C79 O80 1.315 . S
C79 O81 1.279 . S
O80 Cd72 2.223 . S
O80 C79 1.315 . S
O81 Cd71 2.240 . S
O81 C79 1.279 . S
O82 Cd72 2.297 . S
O82 C77 1.247 . S
O83 Cd72 2.439 . S
O83 C77 1.208 . S
O84 Cd85 2.223 . S
O84 C92 1.315 . S
Cd85 O84 2.223 . S
Cd85 O88 2.297 . S
Cd85 O89 2.439 . S
Cd85 O95 2.240 . S
Cd86 O87 2.240 . S
Cd86 O94 2.223 . S
Cd86 O96 2.297 . S
Cd86 O97 2.439 . S
O87 Cd86 2.240 . S
O87 C92 1.279 . S
O88 Cd85 2.297 . S
O88 C90 1.247 . S
O89 Cd85 2.439 . S
O89 C90 1.208 . S
C90 O88 1.247 . S
C90 O89 1.208 . S
C91 O96 1.247 . S
C91 O97 1.208 . S
C92 O84 1.315 . S
C92 O87 1.279 . S
C93 O94 1.315 . S
C93 O95 1.279 . S
O94 Cd86 2.223 . S
O94 C93 1.315 . S
O95 Cd85 2.240 . S
O95 C93 1.279 . S
O96 Cd86 2.297 . S
O96 C91 1.247 . S
O97 Cd86 2.439 . S
O97 C91 1.208 . S
O98 Cd99 2.223 . S
O98 C106 1.315 . S
Cd99 O98 2.223 . S
Cd99 O102 2.297 . S
Cd99 O103 2.439 . S
Cd99 O109 2.240 . S
Cd100 O101 2.240 . S
Cd100 O108 2.223 . S
Cd100 O110 2.297 . S
Cd100 O111 2.439 . S
O101 Cd100 2.240 . S
O101 C106 1.279 . S
O102 Cd99 2.297 . S
O102 C104 1.247 . S
O103 Cd99 2.439 . S
O103 C104 1.208 . S
C104 O102 1.247 . S
C104 O103 1.208 . S
C105 O110 1.247 . S
C105 O111 1.208 . S
C106 O98 1.315 . S
C106 O101 1.279 . S
C107 O108 1.315 . S
C107 O109 1.279 . S
O108 Cd100 2.223 . S
O108 C107 1.315 . S
O109 Cd99 2.240 . S
O109 C107 1.279 . S
O110 Cd100 2.297 . S
O110 C105 1.247 . S
O111 Cd100 2.439 . S
O111 C105 1.208 . S
O112 Cd113 2.223 . S
O112 C120 1.315 . S
Cd113 O112 2.223 . S
Cd113 O116 2.297 1_556 S
Cd113 O117 2.439 . S
Cd113 O123 2.240 . S
Cd114 O115 2.240 . S
Cd114 O122 2.223 . S
Cd114 O124 2.297 . S
Cd114 O125 2.439 . S
O115 Cd114 2.240 . S
O115 C120 1.279 . S
O116 Cd113 2.297 1_554 S
O116 C118 1.247 1_554 S
O117 Cd113 2.439 . S
O117 C118 1.208 . S
C118 O116 1.247 1_556 S
C118 O117 1.208 . S
C119 O124 1.247 . S
C119 O125 1.208 . S
C120 O112 1.315 . S
C120 O115 1.279 . S
C121 O122 1.315 . S
C121 O123 1.279 . S
O122 Cd114 2.223 . S
O122 C121 1.315 . S
O123 Cd113 2.240 . S
O123 C121 1.279 . S
O124 Cd114 2.297 . S
O124 C119 1.247 . S
O125 Cd114 2.439 . S
O125 C119 1.208 . S
O126 Cd127 2.223 . S
O126 C134 1.315 . S
Cd127 O126 2.223 . S
Cd127 O130 2.297 . S
Cd127 O131 2.439 . S
Cd127 O137 2.240 . S
Cd128 O129 2.240 . S
Cd128 O136 2.223 . S
Cd128 O138 2.297 . S
Cd128 O139 2.439 . S
O129 Cd128 2.240 . S
O129 C134 1.279 . S
O130 Cd127 2.297 . S
O130 C132 1.247 . S
O131 Cd127 2.439 . S
O131 C132 1.208 . S
C132 O130 1.247 . S
C132 O131 1.208 . S
C133 O138 1.247 . S
C133 O139 1.208 . S
C134 O126 1.315 . S
C134 O129 1.279 . S
C135 O136 1.315 . S
C135 O137 1.279 . S
O136 Cd128 2.223 . S
O136 C135 1.315 . S
O137 Cd127 2.240 . S
O137 C135 1.279 . S
O138 Cd128 2.297 . S
O138 C133 1.247 . S
O139 Cd128 2.439 . S
O139 C133 1.208 . S
O140 Cd141 2.223 . S
O140 C148 1.315 . S
Cd141 O140 2.223 . S
Cd141 O144 2.297 . S
Cd141 O145 2.439 . S
Cd141 O151 2.240 . S
Cd142 O143 2.240 . S
Cd142 O150 2.223 . S
Cd142 O152 2.297 . S
Cd142 O153 2.439 . S
O143 Cd142 2.240 . S
O143 C148 1.279 . S
O144 Cd141 2.297 . S
O144 C146 1.247 . S
O145 Cd141 2.439 . S
O145 C146 1.208 . S
C146 O144 1.247 . S
C146 O145 1.208 . S
C147 O152 1.247 . S
C147 O153 1.208 . S
C148 O140 1.315 . S
C148 O143 1.279 . S
C149 O150 1.315 . S
C149 O151 1.279 . S
O150 Cd142 2.223 . S
O150 C149 1.315 . S
O151 Cd141 2.240 . S
O151 C149 1.279 . S
O152 Cd142 2.297 . S
O152 C147 1.247 . S
O153 Cd142 2.439 . S
O153 C147 1.208 . S
O154 Cd155 2.223 . S
O154 C162 1.315 . S
Cd155 O154 2.223 . S
Cd155 O158 2.297 . S
Cd155 O159 2.439 . S
Cd155 O165 2.240 . S
Cd156 O157 2.240 . S
Cd156 O164 2.223 . S
Cd156 O166 2.297 . S
Cd156 O167 2.439 . S
O157 Cd156 2.240 . S
O157 C162 1.279 . S
O158 Cd155 2.297 . S
O158 C160 1.247 . S
O159 Cd155 2.439 . S
O159 C160 1.208 . S
C160 O158 1.247 . S
C160 O159 1.208 . S
C161 O166 1.247 . S
C161 O167 1.208 . S
C162 O154 1.315 . S
C162 O157 1.279 . S
C163 O164 1.315 . S
C163 O165 1.279 . S
O164 Cd156 2.223 . S
O164 C163 1.315 . S
O165 Cd155 2.240 . S
O165 C163 1.279 . S
O166 Cd156 2.297 . S
O166 C161 1.247 . S
O167 Cd156 2.439 . S
O167 C161 1.208 . S
O168 Cd169 2.223 . S
O168 C176 1.315 . S
Cd169 O168 2.223 . S
Cd169 O172 2.297 1_554 S
Cd169 O173 2.439 . S
Cd169 O179 2.240 . S
Cd170 O171 2.240 . S
Cd170 O178 2.223 . S
Cd170 O180 2.297 . S
Cd170 O181 2.439 . S
O171 Cd170 2.240 . S
O171 C176 1.279 . S
O172 Cd169 2.297 1_556 S
O172 C174 1.247 1_556 S
O173 Cd169 2.439 . S
O173 C174 1.208 . S
C174 O172 1.247 1_554 S
C174 O173 1.208 . S
C175 O180 1.247 . S
C175 O181 1.208 . S
C176 O168 1.315 . S
C176 O171 1.279 . S
C177 O178 1.315 . S
C177 O179 1.279 . S
O178 Cd170 2.223 . S
O178 C177 1.315 . S
O179 Cd169 2.240 . S
O179 C177 1.279 . S
O180 Cd170 2.297 . S
O180 C175 1.247 . S
O181 Cd170 2.439 . S
O181 C175 1.208 . S
O182 Cd183 2.223 . S
O182 C190 1.315 . S
Cd183 O182 2.223 . S
Cd183 O186 2.297 . S
Cd183 O187 2.439 . S
Cd183 O193 2.240 . S
Cd184 O185 2.240 . S
Cd184 O192 2.223 . S
Cd184 O194 2.297 . S
Cd184 O195 2.439 . S
O185 Cd184 2.240 . S
O185 C190 1.279 . S
O186 Cd183 2.297 . S
O186 C188 1.247 . S
O187 Cd183 2.439 . S
O187 C188 1.208 . S
C188 O186 1.247 . S
C188 O187 1.208 . S
C189 O194 1.247 . S
C189 O195 1.208 . S
C190 O182 1.315 . S
C190 O185 1.279 . S
C191 O192 1.315 . S
C191 O193 1.279 . S
O192 Cd184 2.223 . S
O192 C191 1.315 . S
O193 Cd183 2.240 . S
O193 C191 1.279 . S
O194 Cd184 2.297 . S
O194 C189 1.247 . S
O195 Cd184 2.439 . S
O195 C189 1.208 . S
O196 Cd197 2.223 . S
O196 C204 1.315 . S
Cd197 O196 2.223 . S
Cd197 O200 2.297 . S
Cd197 O201 2.439 . S
Cd197 O207 2.240 . S
Cd198 O199 2.240 . S
Cd198 O206 2.223 . S
Cd198 O208 2.297 . S
Cd198 O209 2.439 . S
O199 Cd198 2.240 . S
O199 C204 1.279 . S
O200 Cd197 2.297 . S
O200 C202 1.247 . S
O201 Cd197 2.439 . S
O201 C202 1.208 . S
C202 O200 1.247 . S
C202 O201 1.208 . S
C203 O208 1.247 . S
C203 O209 1.208 . S
C204 O196 1.315 . S
C204 O199 1.279 . S
C205 O206 1.315 . S
C205 O207 1.279 . S
O206 Cd198 2.223 . S
O206 C205 1.315 . S
O207 Cd197 2.240 . S
O207 C205 1.279 . S
O208 Cd198 2.297 . S
O208 C203 1.247 . S
O209 Cd198 2.439 . S
O209 C203 1.208 . S
O210 Cd211 2.223 . S
O210 C218 1.315 . S
Cd211 O210 2.223 . S
Cd211 O214 2.297 . S
Cd211 O215 2.439 . S
Cd211 O221 2.240 . S
Cd212 O213 2.240 . S
Cd212 O220 2.223 . S
Cd212 O222 2.297 . S
Cd212 O223 2.439 . S
O213 Cd212 2.240 . S
O213 C218 1.279 . S
O214 Cd211 2.297 . S
O214 C216 1.247 . S
O215 Cd211 2.439 . S
O215 C216 1.208 . S
C216 O214 1.247 . S
C216 O215 1.208 . S
C217 O222 1.247 . S
C217 O223 1.208 . S
C218 O210 1.315 . S
C218 O213 1.279 . S
C219 O220 1.315 . S
C219 O221 1.279 . S
O220 Cd212 2.223 . S
O220 C219 1.315 . S
O221 Cd211 2.240 . S
O221 C219 1.279 . S
O222 Cd212 2.297 . S
O222 C217 1.247 . S
O223 Cd212 2.439 . S
O223 C217 1.208 . S
O224 Cd225 2.223 . S
O224 C232 1.315 . S
Cd225 O224 2.223 . S
Cd225 O228 2.297 . S
Cd225 O229 2.439 . S
Cd225 O235 2.240 . S
Cd226 O227 2.240 . S
Cd226 O234 2.223 . S
Cd226 O236 2.297 . S
Cd226 O237 2.439 . S
O227 Cd226 2.240 . S
O227 C232 1.279 . S
O228 Cd225 2.297 . S
O228 C230 1.247 . S
O229 Cd225 2.439 . S
O229 C230 1.208 . S
C230 O228 1.247 . S
C230 O229 1.208 . S
C231 O236 1.247 . S
C231 O237 1.208 . S
C232 O224 1.315 . S
C232 O227 1.279 . S
C233 O234 1.315 . S
C233 O235 1.279 . S
O234 Cd226 2.223 . S
O234 C233 1.315 . S
O235 Cd225 2.240 . S
O235 C233 1.279 . S
O236 Cd226 2.297 . S
O236 C231 1.247 . S
O237 Cd226 2.439 . S
O237 C231 1.208 . S
O238 Cd239 2.223 . S
O238 C246 1.315 . S
Cd239 O238 2.223 . S
Cd239 O242 2.297 . S
Cd239 O243 2.439 . S
Cd239 O249 2.240 . S
Cd240 O241 2.240 . S
Cd240 O248 2.223 . S
Cd240 O250 2.297 . S
Cd240 O251 2.439 . S
O241 Cd240 2.240 . S
O241 C246 1.279 . S
O242 Cd239 2.297 . S
O242 C244 1.247 . S
O243 Cd239 2.439 . S
O243 C244 1.208 . S
C244 O242 1.247 . S
C244 O243 1.208 . S
C245 O250 1.247 . S
C245 O251 1.208 . S
C246 O238 1.315 . S
C246 O241 1.279 . S
C247 O248 1.315 . S
C247 O249 1.279 . S
O248 Cd240 2.223 . S
O248 C247 1.315 . S
O249 Cd239 2.240 . S
O249 C247 1.279 . S
O250 Cd240 2.297 . S
O250 C245 1.247 . S
O251 Cd240 2.439 . S
O251 C245 1.208 . S
O252 Cd253 2.223 . S
O252 C260 1.315 . S
Cd253 O252 2.223 . S
Cd253 O256 2.297 1_554 S
Cd253 O257 2.439 . S
Cd253 O263 2.240 . S
Cd254 O255 2.240 . S
Cd254 O262 2.223 . S
Cd254 O264 2.297 . S
Cd254 O265 2.439 . S
O255 Cd254 2.240 . S
O255 C260 1.279 . S
O256 Cd253 2.297 1_556 S
O256 C258 1.247 1_556 S
O257 Cd253 2.439 . S
O257 C258 1.208 . S
C258 O256 1.247 1_554 S
C258 O257 1.208 . S
C259 O264 1.247 . S
C259 O265 1.208 . S
C260 O252 1.315 . S
C260 O255 1.279 . S
C261 O262 1.315 . S
C261 O263 1.279 . S
O262 Cd254 2.223 . S
O262 C261 1.315 . S
O263 Cd253 2.240 . S
O263 C261 1.279 . S
O264 Cd254 2.297 . S
O264 C259 1.247 . S
O265 Cd254 2.439 . S
O265 C259 1.208 . S
O266 Cd267 2.223 . S
O266 C274 1.315 . S
Cd267 O266 2.223 . S
Cd267 O270 2.297 . S
Cd267 O271 2.439 . S
Cd267 O277 2.240 . S
Cd268 O269 2.240 . S
Cd268 O276 2.223 . S
Cd268 O278 2.297 . S
Cd268 O279 2.439 . S
O269 Cd268 2.240 . S
O269 C274 1.279 . S
O270 Cd267 2.297 . S
O270 C272 1.247 . S
O271 Cd267 2.439 . S
O271 C272 1.208 . S
C272 O270 1.247 . S
C272 O271 1.208 . S
C273 O278 1.247 . S
C273 O279 1.208 . S
C274 O266 1.315 . S
C274 O269 1.279 . S
C275 O276 1.315 . S
C275 O277 1.279 . S
O276 Cd268 2.223 . S
O276 C275 1.315 . S
O277 Cd267 2.240 . S
O277 C275 1.279 . S
O278 Cd268 2.297 . S
O278 C273 1.247 . S
O279 Cd268 2.439 . S
O279 C273 1.208 . S
O280 Cd281 2.223 . S
O280 C288 1.315 . S
Cd281 O280 2.223 . S
Cd281 O284 2.297 . S
Cd281 O285 2.439 . S
Cd281 O291 2.240 . S
Cd282 O283 2.240 . S
Cd282 O290 2.223 . S
Cd282 O292 2.297 . S
Cd282 O293 2.439 . S
O283 Cd282 2.240 . S
O283 C288 1.279 . S
O284 Cd281 2.297 . S
O284 C286 1.247 . S
O285 Cd281 2.439 . S
O285 C286 1.208 . S
C286 O284 1.247 . S
C286 O285 1.208 . S
C287 O292 1.247 . S
C287 O293 1.208 . S
C288 O280 1.315 . S
C288 O283 1.279 . S
C289 O290 1.315 . S
C289 O291 1.279 . S
O290 Cd282 2.223 . S
O290 C289 1.315 . S
O291 Cd281 2.240 . S
O291 C289 1.279 . S
O292 Cd282 2.297 . S
O292 C287 1.247 . S
O293 Cd282 2.439 . S
O293 C287 1.208 . S
O294 Cd295 2.223 . S
O294 C302 1.315 . S
Cd295 O294 2.223 . S
Cd295 O298 2.297 . S
Cd295 O299 2.439 . S
Cd295 O305 2.240 . S
Cd296 O297 2.240 . S
Cd296 O304 2.223 . S
Cd296 O306 2.297 . S
Cd296 O307 2.439 . S
O297 Cd296 2.240 . S
O297 C302 1.279 . S
O298 Cd295 2.297 . S
O298 C300 1.247 . S
O299 Cd295 2.439 . S
O299 C300 1.208 . S
C300 O298 1.247 . S
C300 O299 1.208 . S
C301 O306 1.247 . S
C301 O307 1.208 . S
C302 O294 1.315 . S
C302 O297 1.279 . S
C303 O304 1.315 . S
C303 O305 1.279 . S
O304 Cd296 2.223 . S
O304 C303 1.315 . S
O305 Cd295 2.240 . S
O305 C303 1.279 . S
O306 Cd296 2.297 . S
O306 C301 1.247 . S
O307 Cd296 2.439 . S
O307 C301 1.208 . S
O308 Cd309 2.223 . S
O308 C316 1.315 . S
Cd309 O308 2.223 . S
Cd309 O312 2.297 1_556 S
Cd309 O313 2.439 . S
Cd309 O319 2.240 . S
Cd310 O311 2.240 . S
Cd310 O318 2.223 . S
Cd310 O320 2.297 . S
Cd310 O321 2.439 . S
O311 Cd310 2.240 . S
O311 C316 1.279 . S
O312 Cd309 2.297 1_554 S
O312 C314 1.247 1_554 S
O313 Cd309 2.439 . S
O313 C314 1.208 . S
C314 O312 1.247 1_556 S
C314 O313 1.208 . S
C315 O320 1.247 . S
C315 O321 1.208 . S
C316 O308 1.315 . S
C316 O311 1.279 . S
C317 O318 1.315 . S
C317 O319 1.279 . S
O318 Cd310 2.223 . S
O318 C317 1.315 . S
O319 Cd309 2.240 . S
O319 C317 1.279 . S
O320 Cd310 2.297 . S
O320 C315 1.247 . S
O321 Cd310 2.439 . S
O321 C315 1.208 . S
O322 Cd323 2.223 . S
O322 C330 1.315 . S
Cd323 O322 2.223 . S
Cd323 O326 2.297 . S
Cd323 O327 2.439 . S
Cd323 O333 2.240 . S
Cd324 O325 2.240 . S
Cd324 O332 2.223 . S
Cd324 O334 2.297 . S
Cd324 O335 2.439 . S
O325 Cd324 2.240 . S
O325 C330 1.279 . S
O326 Cd323 2.297 . S
O326 C328 1.247 . S
O327 Cd323 2.439 . S
O327 C328 1.208 . S
C328 O326 1.247 . S
C328 O327 1.208 . S
C329 O334 1.247 . S
C329 O335 1.208 . S
C330 O322 1.315 . S
C330 O325 1.279 . S
C331 O332 1.315 . S
C331 O333 1.279 . S
O332 Cd324 2.223 . S
O332 C331 1.315 . S
O333 Cd323 2.240 . S
O333 C331 1.279 . S
O334 Cd324 2.297 . S
O334 C329 1.247 . S
O335 Cd324 2.439 . S
O335 C329 1.208 . S
O336 Cd337 2.223 . S
O336 C344 1.315 . S
Cd337 O336 2.223 . S
Cd337 O340 2.297 . S
Cd337 O341 2.439 . S
Cd337 O347 2.240 . S
Cd338 O339 2.240 . S
Cd338 O346 2.223 . S
Cd338 O348 2.297 . S
Cd338 O349 2.439 . S
O339 Cd338 2.240 . S
O339 C344 1.279 . S
O340 Cd337 2.297 . S
O340 C342 1.247 . S
O341 Cd337 2.439 . S
O341 C342 1.208 . S
C342 O340 1.247 . S
C342 O341 1.208 . S
C343 O348 1.247 . S
C343 O349 1.208 . S
C344 O336 1.315 . S
C344 O339 1.279 . S
C345 O346 1.315 . S
C345 O347 1.279 . S
O346 Cd338 2.223 . S
O346 C345 1.315 . S
O347 Cd337 2.240 . S
O347 C345 1.279 . S
O348 Cd338 2.297 . S
O348 C343 1.247 . S
O349 Cd338 2.439 . S
O349 C343 1.208 . S
O350 Cd351 2.223 . S
O350 C358 1.315 . S
Cd351 O350 2.223 . S
Cd351 O354 2.297 . S
Cd351 O355 2.439 . S
Cd351 O361 2.240 . S
Cd352 O353 2.240 . S
Cd352 O360 2.223 . S
Cd352 O362 2.297 . S
Cd352 O363 2.439 . S
O353 Cd352 2.240 . S
O353 C358 1.279 . S
O354 Cd351 2.297 . S
O354 C356 1.247 . S
O355 Cd351 2.439 . S
O355 C356 1.208 . S
C356 O354 1.247 . S
C356 O355 1.208 . S
C357 O362 1.247 . S
C357 O363 1.208 . S
C358 O350 1.315 . S
C358 O353 1.279 . S
C359 O360 1.315 . S
C359 O361 1.279 . S
O360 Cd352 2.223 . S
O360 C359 1.315 . S
O361 Cd351 2.240 . S
O361 C359 1.279 . S
O362 Cd352 2.297 . S
O362 C357 1.247 . S
O363 Cd352 2.439 . S
O363 C357 1.208 . S
O364 Cd365 2.223 . S
O364 C372 1.315 . S
Cd365 O364 2.223 . S
Cd365 O368 2.297 1_556 S
Cd365 O369 2.439 . S
Cd365 O375 2.240 . S
Cd366 O367 2.240 . S
Cd366 O374 2.223 . S
Cd366 O376 2.297 . S
Cd366 O377 2.439 . S
O367 Cd366 2.240 . S
O367 C372 1.279 . S
O368 Cd365 2.297 1_554 S
O368 C370 1.247 1_554 S
O369 Cd365 2.439 . S
O369 C370 1.208 . S
C370 O368 1.247 1_556 S
C370 O369 1.208 . S
C371 O376 1.247 . S
C371 O377 1.208 . S
C372 O364 1.315 . S
C372 O367 1.279 . S
C373 O374 1.315 . S
C373 O375 1.279 . S
O374 Cd366 2.223 . S
O374 C373 1.315 . S
O375 Cd365 2.240 . S
O375 C373 1.279 . S
O376 Cd366 2.297 . S
O376 C371 1.247 . S
O377 Cd366 2.439 . S
O377 C371 1.208 . S
O378 Cd379 2.223 . S
O378 C386 1.315 . S
Cd379 O378 2.223 . S
Cd379 O382 2.297 . S
Cd379 O383 2.439 . S
Cd379 O389 2.240 . S
Cd380 O381 2.240 . S
Cd380 O388 2.223 . S
Cd380 O390 2.297 . S
Cd380 O391 2.439 . S
O381 Cd380 2.240 . S
O381 C386 1.279 . S
O382 Cd379 2.297 . S
O382 C384 1.247 . S
O383 Cd379 2.439 . S
O383 C384 1.208 . S
C384 O382 1.247 . S
C384 O383 1.208 . S
C385 O390 1.247 . S
C385 O391 1.208 . S
C386 O378 1.315 . S
C386 O381 1.279 . S
C387 O388 1.315 . S
C387 O389 1.279 . S
O388 Cd380 2.223 . S
O388 C387 1.315 . S
O389 Cd379 2.240 . S
O389 C387 1.279 . S
O390 Cd380 2.297 . S
O390 C385 1.247 . S
O391 Cd380 2.439 . S
O391 C385 1.208 . S
O392 Cd393 2.223 . S
O392 C400 1.315 . S
Cd393 O392 2.223 . S
Cd393 O396 2.297 . S
Cd393 O397 2.439 . S
Cd393 O403 2.240 . S
Cd394 O395 2.240 . S
Cd394 O402 2.223 . S
Cd394 O404 2.297 . S
Cd394 O405 2.439 . S
O395 Cd394 2.240 . S
O395 C400 1.279 . S
O396 Cd393 2.297 . S
O396 C398 1.247 . S
O397 Cd393 2.439 . S
O397 C398 1.208 . S
C398 O396 1.247 . S
C398 O397 1.208 . S
C399 O404 1.247 . S
C399 O405 1.208 . S
C400 O392 1.315 . S
C400 O395 1.279 . S
C401 O402 1.315 . S
C401 O403 1.279 . S
O402 Cd394 2.223 . S
O402 C401 1.315 . S
O403 Cd393 2.240 . S
O403 C401 1.279 . S
O404 Cd394 2.297 . S
O404 C399 1.247 . S
O405 Cd394 2.439 . S
O405 C399 1.208 . S
O406 Cd407 2.223 . S
O406 C414 1.315 . S
Cd407 O406 2.223 . S
Cd407 O410 2.297 . S
Cd407 O411 2.439 . S
Cd407 O417 2.240 . S
Cd408 O409 2.240 . S
Cd408 O416 2.223 . S
Cd408 O418 2.297 . S
Cd408 O419 2.439 . S
O409 Cd408 2.240 . S
O409 C414 1.279 . S
O410 Cd407 2.297 . S
O410 C412 1.247 . S
O411 Cd407 2.439 . S
O411 C412 1.208 . S
C412 O410 1.247 . S
C412 O411 1.208 . S
C413 O418 1.247 . S
C413 O419 1.208 . S
C414 O406 1.315 . S
C414 O409 1.279 . S
C415 O416 1.315 . S
C415 O417 1.279 . S
O416 Cd408 2.223 . S
O416 C415 1.315 . S
O417 Cd407 2.240 . S
O417 C415 1.279 . S
O418 Cd408 2.297 . S
O418 C413 1.247 . S
O419 Cd408 2.439 . S
O419 C413 1.208 . S
O420 Cd421 2.223 . S
O420 C428 1.315 . S
Cd421 O420 2.223 . S
Cd421 O424 2.297 1_554 S
Cd421 O425 2.439 . S
Cd421 O431 2.240 . S
Cd422 O423 2.240 . S
Cd422 O430 2.223 . S
Cd422 O432 2.297 . S
Cd422 O433 2.439 . S
O423 Cd422 2.240 . S
O423 C428 1.279 . S
O424 Cd421 2.297 1_556 S
O424 C426 1.247 1_556 S
O425 Cd421 2.439 . S
O425 C426 1.208 . S
C426 O424 1.247 1_554 S
C426 O425 1.208 . S
C427 O432 1.247 . S
C427 O433 1.208 . S
C428 O420 1.315 . S
C428 O423 1.279 . S
C429 O430 1.315 . S
C429 O431 1.279 . S
O430 Cd422 2.223 . S
O430 C429 1.315 . S
O431 Cd421 2.240 . S
O431 C429 1.279 . S
O432 Cd422 2.297 . S
O432 C427 1.247 . S
O433 Cd422 2.439 . S
O433 C427 1.208 . S
O434 Cd435 2.223 . S
O434 C442 1.315 . S
Cd435 O434 2.223 . S
Cd435 O438 2.297 . S
Cd435 O439 2.439 . S
Cd435 O445 2.240 . S
Cd436 O437 2.240 . S
Cd436 O444 2.223 . S
Cd436 O446 2.297 . S
Cd436 O447 2.439 . S
O437 Cd436 2.240 . S
O437 C442 1.279 . S
O438 Cd435 2.297 . S
O438 C440 1.247 . S
O439 Cd435 2.439 . S
O439 C440 1.208 . S
C440 O438 1.247 . S
C440 O439 1.208 . S
C441 O446 1.247 . S
C441 O447 1.208 . S
C442 O434 1.315 . S
C442 O437 1.279 . S
C443 O444 1.315 . S
C443 O445 1.279 . S
O444 Cd436 2.223 . S
O444 C443 1.315 . S
O445 Cd435 2.240 . S
O445 C443 1.279 . S
O446 Cd436 2.297 . S
O446 C441 1.247 . S
O447 Cd436 2.439 . S
O447 C441 1.208 . S
C448 C449 1.369 . S
C448 C450 1.419 . S
C448 H452 0.930 . S
C449 C448 1.369 . S
C449 C458 1.429 . S
C450 C448 1.419 . S
C450 C451 1.363 . S
C450 H453 0.929 . S
C451 C450 1.363 . S
C451 C457 1.428 . S
H452 C448 0.930 . S
H453 C450 0.929 . S
S454 N455 1.613 . S
S454 N456 1.610 . S
N455 S454 1.613 . S
N455 C458 1.350 . S
N456 S454 1.610 . S
N456 C457 1.351 . S
C457 C451 1.428 . S
C457 N456 1.351 . S
C457 C458 1.434 . S
C458 C449 1.429 . S
C458 N455 1.350 . S
C458 C457 1.434 . S
C459 C460 1.369 . S
C459 C461 1.419 . S
C459 H463 0.930 . S
C460 C459 1.369 . S
C460 C469 1.429 . S
C461 C459 1.419 . S
C461 C462 1.363 . S
C461 H464 0.929 . S
C462 C461 1.363 . S
C462 C468 1.428 . S
H463 C459 0.930 . S
H464 C461 0.929 . S
S465 N466 1.613 . S
S465 N467 1.610 . S
N466 S465 1.613 . S
N466 C469 1.350 . S
N467 S465 1.610 . S
N467 C468 1.351 . S
C468 C462 1.428 . S
C468 N467 1.351 . S
C468 C469 1.434 . S
C469 C460 1.429 . S
C469 N466 1.350 . S
C469 C468 1.434 . S
C470 C471 1.369 . S
C470 C472 1.419 . S
C470 H474 0.930 . S
C471 C470 1.369 . S
C471 C480 1.429 . S
C472 C470 1.419 . S
C472 C473 1.363 . S
C472 H475 0.929 . S
C473 C472 1.363 . S
C473 C479 1.428 . S
H474 C470 0.930 . S
H475 C472 0.929 . S
S476 N477 1.613 . S
S476 N478 1.610 . S
N477 S476 1.613 . S
N477 C480 1.350 . S
N478 S476 1.610 . S
N478 C479 1.351 . S
C479 C473 1.428 . S
C479 N478 1.351 . S
C479 C480 1.434 . S
C480 C471 1.429 . S
C480 N477 1.350 . S
C480 C479 1.434 . S
C481 C482 1.369 . S
C481 C483 1.419 . S
C481 H485 0.930 . S
C482 C481 1.369 . S
C482 C491 1.429 . S
C483 C481 1.419 . S
C483 C484 1.363 . S
C483 H486 0.929 . S
C484 C483 1.363 . S
C484 C490 1.428 . S
H485 C481 0.930 . S
H486 C483 0.929 . S
S487 N488 1.613 . S
S487 N489 1.610 . S
N488 S487 1.613 . S
N488 C491 1.350 . S
N489 S487 1.610 . S
N489 C490 1.351 . S
C490 C484 1.428 . S
C490 N489 1.351 . S
C490 C491 1.434 . S
C491 C482 1.429 . S
C491 N488 1.350 . S
C491 C490 1.434 . S
C492 C493 1.369 . S
C492 C494 1.419 . S
C492 H496 0.930 . S
C493 C492 1.369 . S
C493 C502 1.429 . S
C494 C492 1.419 . S
C494 C495 1.363 . S
C494 H497 0.929 . S
C495 C494 1.363 . S
C495 C501 1.428 . S
H496 C492 0.930 . S
H497 C494 0.929 . S
S498 N499 1.613 . S
S498 N500 1.610 . S
N499 S498 1.613 . S
N499 C502 1.350 . S
N500 S498 1.610 . S
N500 C501 1.351 . S
C501 C495 1.428 . S
C501 N500 1.351 . S
C501 C502 1.434 . S
C502 C493 1.429 . S
C502 N499 1.350 . S
C502 C501 1.434 . S
C503 C504 1.369 . S
C503 C505 1.419 . S
C503 H507 0.930 . S
C504 C503 1.369 . S
C504 C513 1.429 . S
C505 C503 1.419 . S
C505 C506 1.363 . S
C505 H508 0.929 . S
C506 C505 1.363 . S
C506 C512 1.428 . S
H507 C503 0.930 . S
H508 C505 0.929 . S
S509 N510 1.613 . S
S509 N511 1.610 . S
N510 S509 1.613 . S
N510 C513 1.350 . S
N511 S509 1.610 . S
N511 C512 1.351 . S
C512 C506 1.428 . S
C512 N511 1.351 . S
C512 C513 1.434 . S
C513 C504 1.429 . S
C513 N510 1.350 . S
C513 C512 1.434 . S
C514 C515 1.369 . S
C514 C516 1.419 . S
C514 H518 0.930 . S
C515 C514 1.369 . S
C515 C524 1.429 . S
C516 C514 1.419 . S
C516 C517 1.363 . S
C516 H519 0.929 . S
C517 C516 1.363 . S
C517 C523 1.428 . S
H518 C514 0.930 . S
H519 C516 0.929 . S
S520 N521 1.613 . S
S520 N522 1.610 . S
N521 S520 1.613 . S
N521 C524 1.350 . S
N522 S520 1.610 . S
N522 C523 1.351 . S
C523 C517 1.428 . S
C523 N522 1.351 . S
C523 C524 1.434 . S
C524 C515 1.429 . S
C524 N521 1.350 . S
C524 C523 1.434 . S
C525 C526 1.369 . S
C525 C527 1.419 . S
C525 H529 0.930 . S
C526 C525 1.369 . S
C526 C535 1.429 . S
C527 C525 1.419 . S
C527 C528 1.363 . S
C527 H530 0.929 . S
C528 C527 1.363 . S
C528 C534 1.428 . S
H529 C525 0.930 . S
H530 C527 0.929 . S
S531 N532 1.613 . S
S531 N533 1.610 . S
N532 S531 1.613 . S
N532 C535 1.350 . S
N533 S531 1.610 . S
N533 C534 1.351 . S
C534 C528 1.428 . S
C534 N533 1.351 . S
C534 C535 1.434 . S
C535 C526 1.429 . S
C535 N532 1.350 . S
C535 C534 1.434 . S
C536 C537 1.369 . S
C536 C538 1.419 . S
C536 H540 0.930 . S
C537 C536 1.369 . S
C537 C546 1.429 . S
C538 C536 1.419 . S
C538 C539 1.363 . S
C538 H541 0.929 . S
C539 C538 1.363 . S
C539 C545 1.428 . S
H540 C536 0.930 . S
H541 C538 0.929 . S
S542 N543 1.613 . S
S542 N544 1.610 . S
N543 S542 1.613 . S
N543 C546 1.350 . S
N544 S542 1.610 . S
N544 C545 1.351 . S
C545 C539 1.428 . S
C545 N544 1.351 . S
C545 C546 1.434 . S
C546 C537 1.429 . S
C546 N543 1.350 . S
C546 C545 1.434 . S
C547 C548 1.369 . S
C547 C549 1.419 . S
C547 H551 0.930 . S
C548 C547 1.369 . S
C548 C557 1.429 . S
C549 C547 1.419 . S
C549 C550 1.363 . S
C549 H552 0.929 . S
C550 C549 1.363 . S
C550 C556 1.428 . S
H551 C547 0.930 . S
H552 C549 0.929 . S
S553 N554 1.613 . S
S553 N555 1.610 . S
N554 S553 1.613 . S
N554 C557 1.350 . S
N555 S553 1.610 . S
N555 C556 1.351 . S
C556 C550 1.428 . S
C556 N555 1.351 . S
C556 C557 1.434 . S
C557 C548 1.429 . S
C557 N554 1.350 . S
C557 C556 1.434 . S
C558 C559 1.369 . S
C558 C560 1.419 . S
C558 H562 0.930 . S
C559 C558 1.369 . S
C559 C568 1.429 . S
C560 C558 1.419 . S
C560 C561 1.363 . S
C560 H563 0.929 . S
C561 C560 1.363 . S
C561 C567 1.428 . S
H562 C558 0.930 . S
H563 C560 0.929 . S
S564 N565 1.613 . S
S564 N566 1.610 . S
N565 S564 1.613 . S
N565 C568 1.350 . S
N566 S564 1.610 . S
N566 C567 1.351 . S
C567 C561 1.428 . S
C567 N566 1.351 . S
C567 C568 1.434 . S
C568 C559 1.429 . S
C568 N565 1.350 . S
C568 C567 1.434 . S
C569 C570 1.369 . S
C569 C571 1.419 . S
C569 H573 0.930 . S
C570 C569 1.369 . S
C570 C579 1.429 . S
C571 C569 1.419 . S
C571 C572 1.363 . S
C571 H574 0.929 . S
C572 C571 1.363 . S
C572 C578 1.428 . S
H573 C569 0.930 . S
H574 C571 0.929 . S
S575 N576 1.613 . S
S575 N577 1.610 . S
N576 S575 1.613 . S
N576 C579 1.350 . S
N577 S575 1.610 . S
N577 C578 1.351 . S
C578 C572 1.428 . S
C578 N577 1.351 . S
C578 C579 1.434 . S
C579 C570 1.429 . S
C579 N576 1.350 . S
C579 C578 1.434 . S
C580 C581 1.369 . S
C580 C582 1.419 . S
C580 H584 0.930 . S
C581 C580 1.369 . S
C581 C590 1.429 . S
C582 C580 1.419 . S
C582 C583 1.363 . S
C582 H585 0.929 . S
C583 C582 1.363 . S
C583 C589 1.428 . S
H584 C580 0.930 . S
H585 C582 0.929 . S
S586 N587 1.613 . S
S586 N588 1.610 . S
N587 S586 1.613 . S
N587 C590 1.350 . S
N588 S586 1.610 . S
N588 C589 1.351 . S
C589 C583 1.428 . S
C589 N588 1.351 . S
C589 C590 1.434 . S
C590 C581 1.429 . S
C590 N587 1.350 . S
C590 C589 1.434 . S
C591 C592 1.369 . S
C591 C593 1.419 . S
C591 H595 0.930 . S
C592 C591 1.369 . S
C592 C601 1.429 . S
C593 C591 1.419 . S
C593 C594 1.363 . S
C593 H596 0.929 . S
C594 C593 1.363 . S
C594 C600 1.428 . S
H595 C591 0.930 . S
H596 C593 0.929 . S
S597 N598 1.613 . S
S597 N599 1.610 . S
N598 S597 1.613 . S
N598 C601 1.350 . S
N599 S597 1.610 . S
N599 C600 1.351 . S
C600 C594 1.428 . S
C600 N599 1.351 . S
C600 C601 1.434 . S
C601 C592 1.429 . S
C601 N598 1.350 . S
C601 C600 1.434 . S
C602 C603 1.369 . S
C602 C604 1.419 . S
C602 H606 0.930 . S
C603 C602 1.369 . S
C603 C612 1.429 . S
C604 C602 1.419 . S
C604 C605 1.363 . S
C604 H607 0.929 . S
C605 C604 1.363 . S
C605 C611 1.428 . S
H606 C602 0.930 . S
H607 C604 0.929 . S
S608 N609 1.613 . S
S608 N610 1.610 . S
N609 S608 1.613 . S
N609 C612 1.350 . S
N610 S608 1.610 . S
N610 C611 1.351 . S
C611 C605 1.428 . S
C611 N610 1.351 . S
C611 C612 1.434 . S
C612 C603 1.429 . S
C612 N609 1.350 . S
C612 C611 1.434 . S
C613 C614 1.369 . S
C613 C615 1.419 . S
C613 H617 0.930 . S
C614 C613 1.369 . S
C614 C623 1.429 . S
C615 C613 1.419 . S
C615 C616 1.363 . S
C615 H618 0.929 . S
C616 C615 1.363 . S
C616 C622 1.428 . S
H617 C613 0.930 . S
H618 C615 0.929 . S
S619 N620 1.613 . S
S619 N621 1.610 . S
N620 S619 1.613 . S
N620 C623 1.350 . S
N621 S619 1.610 . S
N621 C622 1.351 . S
C622 C616 1.428 . S
C622 N621 1.351 . S
C622 C623 1.434 . S
C623 C614 1.429 . S
C623 N620 1.350 . S
C623 C622 1.434 . S
C624 C625 1.369 . S
C624 C626 1.419 1_455 S
C624 H628 0.930 . S
C625 C624 1.369 . S
C625 C634 1.429 . S
C626 C624 1.419 1_655 S
C626 C627 1.363 . S
C626 H629 0.929 . S
C627 C626 1.363 . S
C627 C633 1.428 . S
H628 C624 0.930 . S
H629 C626 0.929 . S
S630 N631 1.616 1_655 S
S630 N632 1.608 . S
N631 S630 1.616 1_455 S
N631 C634 1.350 . S
N632 S630 1.608 . S
N632 C633 1.351 . S
C633 C627 1.428 . S
C633 N632 1.351 . S
C633 C634 1.434 1_655 S
C634 C625 1.429 . S
C634 N631 1.350 . S
C634 C633 1.434 1_455 S
C635 C636 1.369 . S
C635 C637 1.419 . S
C635 H639 0.930 . S
C636 C635 1.369 . S
C636 C645 1.429 . S
C637 C635 1.419 . S
C637 C638 1.363 . S
C637 H640 0.929 . S
C638 C637 1.363 . S
C638 C644 1.428 . S
H639 C635 0.930 . S
H640 C637 0.929 . S
S641 N642 1.613 . S
S641 N643 1.610 . S
N642 S641 1.613 . S
N642 C645 1.350 . S
N643 S641 1.610 . S
N643 C644 1.351 . S
C644 C638 1.428 . S
C644 N643 1.351 . S
C644 C645 1.434 . S
C645 C636 1.429 . S
C645 N642 1.350 . S
C645 C644 1.434 . S
C646 C647 1.369 . S
C646 C648 1.419 . S
C646 H650 0.930 . S
C647 C646 1.369 . S
C647 C656 1.429 . S
C648 C646 1.419 . S
C648 C649 1.363 . S
C648 H651 0.929 . S
C649 C648 1.363 . S
C649 C655 1.428 . S
H650 C646 0.930 . S
H651 C648 0.929 . S
S652 N653 1.613 . S
S652 N654 1.610 . S
N653 S652 1.613 . S
N653 C656 1.350 . S
N654 S652 1.610 . S
N654 C655 1.351 . S
C655 C649 1.428 . S
C655 N654 1.351 . S
C655 C656 1.434 . S
C656 C647 1.429 . S
C656 N653 1.350 . S
C656 C655 1.434 . S
C657 C658 1.369 . S
C657 C659 1.419 . S
C657 H661 0.930 . S
C658 C657 1.369 . S
C658 C667 1.429 . S
C659 C657 1.419 . S
C659 C660 1.363 . S
C659 H662 0.929 . S
C660 C659 1.363 . S
C660 C666 1.428 . S
H661 C657 0.930 . S
H662 C659 0.929 . S
S663 N664 1.613 . S
S663 N665 1.610 . S
N664 S663 1.613 . S
N664 C667 1.350 . S
N665 S663 1.610 . S
N665 C666 1.351 . S
C666 C660 1.428 . S
C666 N665 1.351 . S
C666 C667 1.434 . S
C667 C658 1.429 . S
C667 N664 1.350 . S
C667 C666 1.434 . S
C668 C669 1.369 . S
C668 C670 1.419 1_655 S
C668 H672 0.930 1_556 S
C669 C668 1.369 . S
C669 C678 1.429 . S
C670 C668 1.419 1_455 S
C670 C671 1.363 . S
C670 H673 0.929 1_556 S
C671 C670 1.363 . S
C671 C677 1.428 . S
H672 C668 0.930 1_554 S
H673 C670 0.929 1_554 S
S674 N675 1.616 1_455 S
S674 N676 1.607 . S
N675 S674 1.616 1_655 S
N675 C678 1.350 . S
N676 S674 1.607 . S
N676 C677 1.351 . S
C677 C671 1.428 . S
C677 N676 1.351 . S
C677 C678 1.434 1_455 S
C678 C669 1.429 . S
C678 N675 1.350 . S
C678 C677 1.434 1_655 S
C679 C680 1.369 . S
C679 C681 1.419 . S
C679 H683 0.930 . S
C680 C679 1.369 . S
C680 C689 1.429 . S
C681 C679 1.419 . S
C681 C682 1.363 . S
C681 H684 0.929 . S
C682 C681 1.363 . S
C682 C688 1.428 . S
H683 C679 0.930 . S
H684 C681 0.929 . S
S685 N686 1.613 . S
S685 N687 1.610 . S
N686 S685 1.613 . S
N686 C689 1.350 . S
N687 S685 1.610 . S
N687 C688 1.351 . S
C688 C682 1.428 . S
C688 N687 1.351 . S
C688 C689 1.434 . S
C689 C680 1.429 . S
C689 N686 1.350 . S
C689 C688 1.434 . S
C690 C691 1.369 . S
C690 C692 1.419 . S
C690 H694 0.930 . S
C691 C690 1.369 . S
C691 C700 1.429 . S
C692 C690 1.419 . S
C692 C693 1.363 . S
C692 H695 0.929 . S
C693 C692 1.363 . S
C693 C699 1.428 . S
H694 C690 0.930 . S
H695 C692 0.929 . S
S696 N697 1.613 . S
S696 N698 1.610 . S
N697 S696 1.613 . S
N697 C700 1.350 . S
N698 S696 1.610 . S
N698 C699 1.351 . S
C699 C693 1.428 . S
C699 N698 1.351 . S
C699 C700 1.434 . S
C700 C691 1.429 . S
C700 N697 1.350 . S
C700 C699 1.434 . S
C701 C702 1.369 . S
C701 C703 1.419 . S
C701 H705 0.930 . S
C702 C701 1.369 . S
C702 C711 1.429 . S
C703 C701 1.419 . S
C703 C704 1.363 . S
C703 H706 0.929 . S
C704 C703 1.363 . S
C704 C710 1.428 . S
H705 C701 0.930 . S
H706 C703 0.929 . S
S707 N708 1.613 . S
S707 N709 1.610 . S
N708 S707 1.613 . S
N708 C711 1.350 . S
N709 S707 1.610 . S
N709 C710 1.351 . S
C710 C704 1.428 . S
C710 N709 1.351 . S
C710 C711 1.434 . S
C711 C702 1.429 . S
C711 N708 1.350 . S
C711 C710 1.434 . S
C712 C713 1.369 . S
C712 C714 1.419 . S
C712 H716 0.930 . S
C713 C712 1.369 . S
C713 C722 1.429 . S
C714 C712 1.419 . S
C714 C715 1.363 . S
C714 H717 0.929 . S
C715 C714 1.363 . S
C715 C721 1.428 . S
H716 C712 0.930 . S
H717 C714 0.929 . S
S718 N719 1.613 . S
S718 N720 1.610 . S
N719 S718 1.613 . S
N719 C722 1.350 . S
N720 S718 1.610 . S
N720 C721 1.351 . S
C721 C715 1.428 . S
C721 N720 1.351 . S
C721 C722 1.434 . S
C722 C713 1.429 . S
C722 N719 1.350 . S
C722 C721 1.434 . S
C723 C724 1.369 . S
C723 C725 1.419 . S
C723 H727 0.930 . S
C724 C723 1.369 . S
C724 C733 1.429 . S
C725 C723 1.419 . S
C725 C726 1.363 . S
C725 H728 0.929 . S
C726 C725 1.363 . S
C726 C732 1.428 . S
H727 C723 0.930 . S
H728 C725 0.929 . S
S729 N730 1.613 . S
S729 N731 1.610 . S
N730 S729 1.613 . S
N730 C733 1.350 . S
N731 S729 1.610 . S
N731 C732 1.351 . S
C732 C726 1.428 . S
C732 N731 1.351 . S
C732 C733 1.434 . S
C733 C724 1.429 . S
C733 N730 1.350 . S
C733 C732 1.434 . S
C734 C735 1.369 . S
C734 C736 1.419 . S
C734 H738 0.930 . S
C735 C734 1.369 . S
C735 C744 1.429 . S
C736 C734 1.419 . S
C736 C737 1.363 . S
C736 H739 0.929 . S
C737 C736 1.363 . S
C737 C743 1.428 . S
H738 C734 0.930 . S
H739 C736 0.929 . S
S740 N741 1.613 . S
S740 N742 1.610 . S
N741 S740 1.613 . S
N741 C744 1.350 . S
N742 S740 1.610 . S
N742 C743 1.351 . S
C743 C737 1.428 . S
C743 N742 1.351 . S
C743 C744 1.434 . S
C744 C735 1.429 . S
C744 N741 1.350 . S
C744 C743 1.434 . S
C745 C746 1.369 . S
C745 C747 1.419 . S
C745 H749 0.930 . S
C746 C745 1.369 . S
C746 C755 1.429 . S
C747 C745 1.419 . S
C747 C748 1.363 . S
C747 H750 0.929 . S
C748 C747 1.363 . S
C748 C754 1.428 . S
H749 C745 0.930 . S
H750 C747 0.929 . S
S751 N752 1.613 . S
S751 N753 1.610 . S
N752 S751 1.613 . S
N752 C755 1.350 . S
N753 S751 1.610 . S
N753 C754 1.351 . S
C754 C748 1.428 . S
C754 N753 1.351 . S
C754 C755 1.434 . S
C755 C746 1.429 . S
C755 N752 1.350 . S
C755 C754 1.434 . S
C756 C757 1.369 . S
C756 C758 1.419 . S
C756 H760 0.930 . S
C757 C756 1.369 . S
C757 C766 1.429 . S
C758 C756 1.419 . S
C758 C759 1.363 . S
C758 H761 0.929 . S
C759 C758 1.363 . S
C759 C765 1.428 . S
H760 C756 0.930 . S
H761 C758 0.929 . S
S762 N763 1.613 . S
S762 N764 1.610 . S
N763 S762 1.613 . S
N763 C766 1.350 . S
N764 S762 1.610 . S
N764 C765 1.351 . S
C765 C759 1.428 . S
C765 N764 1.351 . S
C765 C766 1.434 . S
C766 C757 1.429 . S
C766 N763 1.350 . S
C766 C765 1.434 . S
C767 C768 1.369 . S
C767 C769 1.419 1_655 S
C767 H771 0.948 . S
C768 C767 1.369 . S
C768 C777 1.429 . S
C769 C767 1.419 1_455 S
C769 C770 1.363 . S
C769 H772 0.934 . S
C770 C769 1.363 . S
C770 C776 1.428 . S
H771 C767 0.948 . S
H772 C769 0.934 . S
S773 N774 1.616 1_455 S
S773 N775 1.608 . S
N774 S773 1.616 1_655 S
N774 C777 1.350 . S
N775 S773 1.608 . S
N775 C776 1.351 . S
C776 C770 1.428 . S
C776 N775 1.351 . S
C776 C777 1.434 1_455 S
C777 C768 1.429 . S
C777 N774 1.350 . S
C777 C776 1.434 1_655 S
C778 C779 1.369 . S
C778 C780 1.419 . S
C778 H782 0.930 . S
C779 C778 1.369 . S
C779 C788 1.429 . S
C780 C778 1.419 . S
C780 C781 1.363 . S
C780 H783 0.929 . S
C781 C780 1.363 . S
C781 C787 1.428 . S
H782 C778 0.930 . S
H783 C780 0.929 . S
S784 N785 1.613 . S
S784 N786 1.610 . S
N785 S784 1.613 . S
N785 C788 1.350 . S
N786 S784 1.610 . S
N786 C787 1.351 . S
C787 C781 1.428 . S
C787 N786 1.351 . S
C787 C788 1.434 . S
C788 C779 1.429 . S
C788 N785 1.350 . S
C788 C787 1.434 . S
C789 C790 1.369 . S
C789 C791 1.419 1_455 S
C789 H793 0.930 . S
C790 C789 1.369 . S
C790 C799 1.429 . S
C791 C789 1.419 1_655 S
C791 C792 1.363 . S
C791 H794 0.929 . S
C792 C791 1.363 . S
C792 C798 1.428 . S
H793 C789 0.930 . S
H794 C791 0.929 . S
S795 N796 1.616 1_655 S
S795 N797 1.607 . S
N796 S795 1.616 1_455 S
N796 C799 1.350 1_554 S
N797 S795 1.607 . S
N797 C798 1.351 1_554 S
C798 C792 1.428 . S
C798 N797 1.351 1_556 S
C798 C799 1.434 1_655 S
C799 C790 1.429 . S
C799 N796 1.350 1_556 S
C799 C798 1.434 1_455 S
C800 C801 1.369 1_554 S
C800 C802 1.419 . S
C800 H804 0.930 . S
C801 C800 1.369 1_556 S
C801 C810 1.429 . S
C802 C800 1.419 . S
C802 C803 1.363 . S
C802 H805 0.929 . S
C803 C802 1.363 . S
C803 C809 1.428 1_554 S
H804 C800 0.930 . S
H805 C802 0.929 . S
S806 N807 1.613 . S
S806 N808 1.610 . S
N807 S806 1.613 . S
N807 C810 1.350 . S
N808 S806 1.610 . S
N808 C809 1.351 . S
C809 C803 1.428 1_556 S
C809 N808 1.351 . S
C809 C810 1.434 . S
C810 C801 1.429 . S
C810 N807 1.350 . S
C810 C809 1.434 . S
C811 C812 1.369 . S
C811 C813 1.419 . S
C811 H815 0.930 . S
C812 C811 1.369 . S
C812 C821 1.429 . S
C813 C811 1.419 . S
C813 C814 1.363 . S
C813 H816 0.929 . S
C814 C813 1.363 . S
C814 C820 1.428 . S
H815 C811 0.930 . S
H816 C813 0.929 . S
S817 N818 1.613 . S
S817 N819 1.610 . S
N818 S817 1.613 . S
N818 C821 1.350 . S
N819 S817 1.610 . S
N819 C820 1.351 . S
C820 C814 1.428 . S
C820 N819 1.351 . S
C820 C821 1.434 . S
C821 C812 1.429 . S
C821 N818 1.350 . S
C821 C820 1.434 . S
C822 C823 1.369 . S
C822 C824 1.419 . S
C822 H826 0.930 . S
C823 C822 1.369 . S
C823 C832 1.429 . S
C824 C822 1.419 . S
C824 C825 1.363 . S
C824 H827 0.929 . S
C825 C824 1.363 . S
C825 C831 1.428 . S
H826 C822 0.930 . S
H827 C824 0.929 . S
S828 N829 1.613 . S
S828 N830 1.610 . S
N829 S828 1.613 . S
N829 C832 1.350 . S
N830 S828 1.610 . S
N830 C831 1.351 . S
C831 C825 1.428 . S
C831 N830 1.351 . S
C831 C832 1.434 . S
C832 C823 1.429 . S
C832 N829 1.350 . S
C832 C831 1.434 . S
C833 C834 1.369 . S
C833 C835 1.419 . S
C833 H837 0.930 . S
C834 C833 1.369 . S
C834 C843 1.429 . S
C835 C833 1.419 . S
C835 C836 1.363 . S
C835 H838 0.929 . S
C836 C835 1.363 . S
C836 C842 1.428 . S
H837 C833 0.930 . S
H838 C835 0.929 . S
S839 N840 1.613 . S
S839 N841 1.610 . S
N840 S839 1.613 . S
N840 C843 1.350 . S
N841 S839 1.610 . S
N841 C842 1.351 . S
C842 C836 1.428 . S
C842 N841 1.351 . S
C842 C843 1.434 . S
C843 C834 1.429 . S
C843 N840 1.350 . S
C843 C842 1.434 . S
C844 C845 1.369 1_556 S
C844 C846 1.419 . S
C844 H848 0.930 . S
C845 C844 1.369 1_554 S
C845 C854 1.429 . S
C846 C844 1.419 . S
C846 C847 1.363 . S
C846 H849 0.929 . S
C847 C846 1.363 . S
C847 C853 1.428 1_556 S
H848 C844 0.930 . S
H849 C846 0.929 . S
S850 N851 1.613 . S
S850 N852 1.610 . S
N851 S850 1.613 . S
N851 C854 1.350 . S
N852 S850 1.610 . S
N852 C853 1.351 . S
C853 C847 1.428 1_554 S
C853 N852 1.351 . S
C853 C854 1.434 . S
C854 C845 1.429 . S
C854 N851 1.350 . S
C854 C853 1.434 . S
C855 C856 1.369 . S
C855 C857 1.419 . S
C855 H859 0.930 . S
C856 C855 1.369 . S
C856 C865 1.429 . S
C857 C855 1.419 . S
C857 C858 1.363 . S
C857 H860 0.929 . S
C858 C857 1.363 . S
C858 C864 1.428 . S
H859 C855 0.930 . S
H860 C857 0.929 . S
S861 N862 1.613 . S
S861 N863 1.610 . S
N862 S861 1.613 . S
N862 C865 1.350 . S
N863 S861 1.610 . S
N863 C864 1.351 . S
C864 C858 1.428 . S
C864 N863 1.351 . S
C864 C865 1.434 . S
C865 C856 1.429 . S
C865 N862 1.350 . S
C865 C864 1.434 . S
C866 C867 1.369 . S
C866 C868 1.419 . S
C866 H870 0.930 . S
C867 C866 1.369 . S
C867 C876 1.429 . S
C868 C866 1.419 . S
C868 C869 1.363 . S
C868 H871 0.929 . S
C869 C868 1.363 . S
C869 C875 1.428 . S
H870 C866 0.930 . S
H871 C868 0.929 . S
S872 N873 1.613 . S
S872 N874 1.610 . S
N873 S872 1.613 . S
N873 C876 1.350 . S
N874 S872 1.610 . S
N874 C875 1.351 . S
C875 C869 1.428 . S
C875 N874 1.351 . S
C875 C876 1.434 . S
C876 C867 1.429 . S
C876 N873 1.350 . S
C876 C875 1.434 . S
C877 C878 1.369 . S
C877 C879 1.419 . S
C877 H881 0.930 . S
C878 C877 1.369 . S
C878 C887 1.429 . S
C879 C877 1.419 . S
C879 C880 1.363 . S
C879 H882 0.929 . S
C880 C879 1.363 . S
C880 C886 1.428 . S
H881 C877 0.930 . S
H882 C879 0.929 . S
S883 N884 1.613 . S
S883 N885 1.610 . S
N884 S883 1.613 . S
N884 C887 1.350 . S
N885 S883 1.610 . S
N885 C886 1.351 . S
C886 C880 1.428 . S
C886 N885 1.351 . S
C886 C887 1.434 . S
C887 C878 1.429 . S
C887 N884 1.350 . S
C887 C886 1.434 . S
C888 C889 1.369 . S
C888 C890 1.419 1_545 S
C888 H892 0.930 . S
C889 C888 1.369 . S
C889 C898 1.429 . S
C890 C888 1.419 1_565 S
C890 C891 1.363 . S
C890 H893 0.929 . S
C891 C890 1.363 . S
C891 C897 1.428 . S
H892 C888 0.930 . S
H893 C890 0.929 . S
S894 N895 1.613 1_565 S
S894 N896 1.610 . S
N895 S894 1.613 1_545 S
N895 C898 1.350 . S
N896 S894 1.610 . S
N896 C897 1.351 . S
C897 C891 1.428 . S
C897 N896 1.351 . S
C897 C898 1.434 1_565 S
C898 C889 1.429 . S
C898 N895 1.350 . S
C898 C897 1.434 1_545 S
C899 C900 1.369 . S
C899 C901 1.419 . S
C899 H903 0.930 . S
C900 C899 1.369 . S
C900 C909 1.429 . S
C901 C899 1.419 . S
C901 C902 1.363 . S
C901 H904 0.929 . S
C902 C901 1.363 . S
C902 C908 1.428 . S
H903 C899 0.930 . S
H904 C901 0.929 . S
S905 N906 1.613 . S
S905 N907 1.610 . S
N906 S905 1.613 . S
N906 C909 1.350 . S
N907 S905 1.610 . S
N907 C908 1.351 . S
C908 C902 1.428 . S
C908 N907 1.351 . S
C908 C909 1.434 . S
C909 C900 1.429 . S
C909 N906 1.350 . S
C909 C908 1.434 . S
C910 C911 1.369 1_556 S
C910 C912 1.419 1_565 S
C910 H914 0.930 . S
C911 C910 1.369 1_554 S
C911 C920 1.429 . S
C912 C910 1.419 1_545 S
C912 C913 1.363 . S
C912 H915 0.929 . S
C913 C912 1.363 . S
C913 C919 1.428 1_556 S
H914 C910 0.930 . S
H915 C912 0.929 . S
S916 N917 1.613 1_545 S
S916 N918 1.610 . S
N917 S916 1.613 1_565 S
N917 C920 1.350 . S
N918 S916 1.610 . S
N918 C919 1.351 . S
C919 C913 1.428 1_554 S
C919 N918 1.351 . S
C919 C920 1.434 1_545 S
C920 C911 1.429 . S
C920 N917 1.350 . S
C920 C919 1.434 1_565 S
C921 C922 1.369 . S
C921 C923 1.419 . S
C921 H925 0.930 . S
C922 C921 1.369 . S
C922 C931 1.429 . S
C923 C921 1.419 . S
C923 C924 1.363 . S
C923 H926 0.929 . S
C924 C923 1.363 . S
C924 C930 1.428 . S
H925 C921 0.930 . S
H926 C923 0.929 . S
S927 N928 1.613 . S
S927 N929 1.610 . S
N928 S927 1.613 . S
N928 C931 1.350 . S
N929 S927 1.610 . S
N929 C930 1.351 . S
C930 C924 1.428 . S
C930 N929 1.351 . S
C930 C931 1.434 . S
C931 C922 1.429 . S
C931 N928 1.350 . S
C931 C930 1.434 . S
C932 C933 1.369 . S
C932 C934 1.419 1_545 S
C932 H936 0.930 . S
C933 C932 1.369 . S
C933 C942 1.429 . S
C934 C932 1.419 1_565 S
C934 C935 1.363 . S
C934 H937 0.929 . S
C935 C934 1.363 . S
C935 C941 1.428 . S
H936 C932 0.930 . S
H937 C934 0.929 . S
S938 N939 1.613 . S
S938 N940 1.610 1_545 S
N939 S938 1.613 . S
N939 C942 1.350 . S
N940 S938 1.610 1_565 S
N940 C941 1.351 . S
C941 C935 1.428 . S
C941 N940 1.351 . S
C941 C942 1.434 1_565 S
C942 C933 1.429 . S
C942 N939 1.350 . S
C942 C941 1.434 1_545 S
C943 C944 1.369 . S
C943 C945 1.419 . S
C943 H947 0.930 . S
C944 C943 1.369 . S
C944 C953 1.429 . S
C945 C943 1.419 . S
C945 C946 1.363 . S
C945 H948 0.929 . S
C946 C945 1.363 . S
C946 C952 1.428 . S
H947 C943 0.930 . S
H948 C945 0.929 . S
S949 N950 1.613 . S
S949 N951 1.610 . S
N950 S949 1.613 . S
N950 C953 1.350 . S
N951 S949 1.610 . S
N951 C952 1.351 . S
C952 C946 1.428 . S
C952 N951 1.351 . S
C952 C953 1.434 . S
C953 C944 1.429 . S
C953 N950 1.350 . S
C953 C952 1.434 . S
C954 C955 1.356 1_556 S
C954 C956 1.430 1_565 S
C954 H958 0.934 . S
C955 C954 1.356 1_554 S
C955 C964 1.429 . S
C956 C954 1.430 1_545 S
C956 C957 1.363 . S
C956 H959 0.929 . S
C957 C956 1.363 . S
C957 C963 1.428 1_556 S
H958 C954 0.934 . S
H959 C956 0.929 . S
S960 N961 1.613 1_545 S
S960 N962 1.610 . S
N961 S960 1.613 1_565 S
N961 C964 1.350 . S
N962 S960 1.610 . S
N962 C963 1.351 . S
C963 C957 1.428 1_554 S
C963 N962 1.351 . S
C963 C964 1.434 1_545 S
C964 C955 1.429 . S
C964 N961 1.350 . S
C964 C963 1.434 1_565 S
C965 C966 1.369 . S
C965 C967 1.419 . S
C965 H969 0.930 . S
C966 C965 1.369 . S
C966 C975 1.429 . S
C967 C965 1.419 . S
C967 C968 1.363 . S
C967 H970 0.929 . S
C968 C967 1.363 . S
C968 C974 1.428 . S
H969 C965 0.930 . S
H970 C967 0.929 . S
S971 N972 1.613 . S
S971 N973 1.610 . S
N972 S971 1.613 . S
N972 C975 1.350 . S
N973 S971 1.610 . S
N973 C974 1.351 . S
C974 C968 1.428 . S
C974 N973 1.351 . S
C974 C975 1.434 . S
C975 C966 1.429 . S
C975 N972 1.350 . S
C975 C974 1.434 . S
C976 C977 1.369 . S
C976 C978 1.419 . S
C976 H980 0.930 . S
C977 C976 1.369 . S
C977 C986 1.429 . S
C978 C976 1.419 . S
C978 C979 1.363 . S
C978 H981 0.929 . S
C979 C978 1.363 . S
C979 C985 1.428 . S
H980 C976 0.930 . S
H981 C978 0.929 . S
S982 N983 1.613 . S
S982 N984 1.610 . S
N983 S982 1.613 . S
N983 C986 1.350 . S
N984 S982 1.610 . S
N984 C985 1.351 . S
C985 C979 1.428 . S
C985 N984 1.351 . S
C985 C986 1.434 . S
C986 C977 1.429 . S
C986 N983 1.350 . S
C986 C985 1.434 . S
C987 C988 1.369 . S
C987 C989 1.419 . S
C987 H991 0.930 . S
C988 C987 1.369 . S
C988 C997 1.429 . S
C989 C987 1.419 . S
C989 C990 1.363 . S
C989 H992 0.929 . S
C990 C989 1.363 . S
C990 C996 1.428 . S
H991 C987 0.930 . S
H992 C989 0.929 . S
S993 N994 1.613 . S
S993 N995 1.610 . S
N994 S993 1.613 . S
N994 C997 1.350 . S
N995 S993 1.610 . S
N995 C996 1.351 . S
C996 C990 1.428 . S
C996 N995 1.351 . S
C996 C997 1.434 . S
C997 C988 1.429 . S
C997 N994 1.350 . S
C997 C996 1.434 . S
C998 C999 1.369 . S
C998 C1000 1.419 . S
C998 H1002 0.930 . S
C999 C998 1.369 . S
C999 C1008 1.429 . S
C1000 C998 1.419 . S
C1000 C1001 1.363 . S
C1000 H1003 0.929 . S
C1001 C1000 1.363 . S
C1001 C1007 1.428 . S
H1002 C998 0.930 . S
H1003 C1000 0.929 . S
S1004 N1005 1.613 . S
S1004 N1006 1.610 . S
N1005 S1004 1.613 . S
N1005 C1008 1.350 . S
N1006 S1004 1.610 . S
N1006 C1007 1.351 . S
C1007 C1001 1.428 . S
C1007 N1006 1.351 . S
C1007 C1008 1.434 . S
C1008 C999 1.429 . S
C1008 N1005 1.350 . S
C1008 C1007 1.434 . S
C1009 C1010 1.369 . S
C1009 C1011 1.419 1_655 S
C1009 H1013 0.930 . S
C1010 C1009 1.369 . S
C1010 C1019 1.429 . S
C1011 C1009 1.419 1_455 S
C1011 C1012 1.363 . S
C1011 H1014 0.929 . S
C1012 C1011 1.363 . S
C1012 C1018 1.428 . S
H1013 C1009 0.930 . S
H1014 C1011 0.929 . S
S1015 N1016 1.616 1_455 S
S1015 N1017 1.608 . S
N1016 S1015 1.616 1_655 S
N1016 C1019 1.350 . S
N1017 S1015 1.608 . S
N1017 C1018 1.351 . S
C1018 C1012 1.428 . S
C1018 N1017 1.351 . S
C1018 C1019 1.434 1_455 S
C1019 C1010 1.429 . S
C1019 N1016 1.350 . S
C1019 C1018 1.434 1_655 S
C1020 C1021 1.369 . S
C1020 C1022 1.419 . S
C1020 H1024 0.930 . S
C1021 C1020 1.369 . S
C1021 C1030 1.429 . S
C1022 C1020 1.419 . S
C1022 C1023 1.363 . S
C1022 H1025 0.929 . S
C1023 C1022 1.363 . S
C1023 C1029 1.428 . S
H1024 C1020 0.930 . S
H1025 C1022 0.929 . S
S1026 N1027 1.613 . S
S1026 N1028 1.610 . S
N1027 S1026 1.613 . S
N1027 C1030 1.350 . S
N1028 S1026 1.610 . S
N1028 C1029 1.351 . S
C1029 C1023 1.428 . S
C1029 N1028 1.351 . S
C1029 C1030 1.434 . S
C1030 C1021 1.429 . S
C1030 N1027 1.350 . S
C1030 C1029 1.434 . S
C1031 C1032 1.369 . S
C1031 C1033 1.419 1_655 S
C1031 H1035 0.930 . S
C1032 C1031 1.369 . S
C1032 C1041 1.429 . S
C1033 C1031 1.419 1_455 S
C1033 C1034 1.363 . S
C1033 H1036 0.929 . S
C1034 C1033 1.363 . S
C1034 C1040 1.428 . S
H1035 C1031 0.930 . S
H1036 C1033 0.929 . S
S1037 N1038 1.616 1_455 S
S1037 N1039 1.608 . S
N1038 S1037 1.616 1_655 S
N1038 C1041 1.350 . S
N1039 S1037 1.608 . S
N1039 C1040 1.351 . S
C1040 C1034 1.428 . S
C1040 N1039 1.351 . S
C1040 C1041 1.434 1_455 S
C1041 C1032 1.429 . S
C1041 N1038 1.350 . S
C1041 C1040 1.434 1_655 S
C1042 C1043 1.369 . S
C1042 C1044 1.419 . S
C1042 H1046 0.930 . S
C1043 C1042 1.369 . S
C1043 C1052 1.429 . S
C1044 C1042 1.419 . S
C1044 C1045 1.363 . S
C1044 H1047 0.929 . S
C1045 C1044 1.363 . S
C1045 C1051 1.428 . S
H1046 C1042 0.930 . S
H1047 C1044 0.929 . S
S1048 N1049 1.613 . S
S1048 N1050 1.610 . S
N1049 S1048 1.613 . S
N1049 C1052 1.350 . S
N1050 S1048 1.610 . S
N1050 C1051 1.351 . S
C1051 C1045 1.428 . S
C1051 N1050 1.351 . S
C1051 C1052 1.434 . S
C1052 C1043 1.429 . S
C1052 N1049 1.350 . S
C1052 C1051 1.434 . S
C1053 C1054 1.369 . S
C1053 C1055 1.419 . S
C1053 H1057 0.930 . S
C1054 C1053 1.369 . S
C1054 C1063 1.429 . S
C1055 C1053 1.419 . S
C1055 C1056 1.363 . S
C1055 H1058 0.929 . S
C1056 C1055 1.363 . S
C1056 C1062 1.428 . S
H1057 C1053 0.930 . S
H1058 C1055 0.929 . S
S1059 N1060 1.613 . S
S1059 N1061 1.610 . S
N1060 S1059 1.613 . S
N1060 C1063 1.350 . S
N1061 S1059 1.610 . S
N1061 C1062 1.351 . S
C1062 C1056 1.428 . S
C1062 N1061 1.351 . S
C1062 C1063 1.434 . S
C1063 C1054 1.429 . S
C1063 N1060 1.350 . S
C1063 C1062 1.434 . S
C1064 C1065 1.369 . S
C1064 C1066 1.419 . S
C1064 H1068 0.930 . S
C1065 C1064 1.369 . S
C1065 C1074 1.429 . S
C1066 C1064 1.419 . S
C1066 C1067 1.363 . S
C1066 H1069 0.929 . S
C1067 C1066 1.363 . S
C1067 C1073 1.428 . S
H1068 C1064 0.930 . S
H1069 C1066 0.929 . S
S1070 N1071 1.613 . S
S1070 N1072 1.610 . S
N1071 S1070 1.613 . S
N1071 C1074 1.350 . S
N1072 S1070 1.610 . S
N1072 C1073 1.351 . S
C1073 C1067 1.428 . S
C1073 N1072 1.351 . S
C1073 C1074 1.434 . S
C1074 C1065 1.429 . S
C1074 N1071 1.350 . S
C1074 C1073 1.434 . S
C1075 C1076 1.369 . S
C1075 C1077 1.419 . S
C1075 H1079 0.930 . S
C1076 C1075 1.369 . S
C1076 C1085 1.429 . S
C1077 C1075 1.419 . S
C1077 C1078 1.363 . S
C1077 H1080 0.929 . S
C1078 C1077 1.363 . S
C1078 C1084 1.428 . S
H1079 C1075 0.930 . S
H1080 C1077 0.929 . S
S1081 N1082 1.613 . S
S1081 N1083 1.610 . S
N1082 S1081 1.613 . S
N1082 C1085 1.350 . S
N1083 S1081 1.610 . S
N1083 C1084 1.351 . S
C1084 C1078 1.428 . S
C1084 N1083 1.351 . S
C1084 C1085 1.434 . S
C1085 C1076 1.429 . S
C1085 N1082 1.350 . S
C1085 C1084 1.434 . S
C1086 C1087 1.369 . S
C1086 C1088 1.419 . S
C1086 H1090 0.930 . S
C1087 C1086 1.369 . S
C1087 C1096 1.429 . S
C1088 C1086 1.419 . S
C1088 C1089 1.363 . S
C1088 H1091 0.929 . S
C1089 C1088 1.363 . S
C1089 C1095 1.428 . S
H1090 C1086 0.930 . S
H1091 C1088 0.929 . S
S1092 N1093 1.613 . S
S1092 N1094 1.610 . S
N1093 S1092 1.613 . S
N1093 C1096 1.350 1_556 S
N1094 S1092 1.610 . S
N1094 C1095 1.351 1_556 S
C1095 C1089 1.428 . S
C1095 N1094 1.351 1_554 S
C1095 C1096 1.434 . S
C1096 C1087 1.429 . S
C1096 N1093 1.350 1_554 S
C1096 C1095 1.434 . S
C1097 C1098 1.369 . S
C1097 C1099 1.419 . S
C1097 H1101 0.930 . S
C1098 C1097 1.369 . S
C1098 C1107 1.429 . S
C1099 C1097 1.419 . S
C1099 C1100 1.363 . S
C1099 H1102 0.929 . S
C1100 C1099 1.363 . S
C1100 C1106 1.428 . S
H1101 C1097 0.930 . S
H1102 C1099 0.929 . S
S1103 N1104 1.613 . S
S1103 N1105 1.610 . S
N1104 S1103 1.613 . S
N1104 C1107 1.350 . S
N1105 S1103 1.610 . S
N1105 C1106 1.351 . S
C1106 C1100 1.428 . S
C1106 N1105 1.351 . S
C1106 C1107 1.434 . S
C1107 C1098 1.429 . S
C1107 N1104 1.350 . S
C1107 C1106 1.434 . S
C1108 C1109 1.369 . S
C1108 C1110 1.419 1_655 S
C1108 H1112 0.930 . S
C1109 C1108 1.369 . S
C1109 C1118 1.429 . S
C1110 C1108 1.419 1_455 S
C1110 C1111 1.363 . S
C1110 H1113 0.929 . S
C1111 C1110 1.363 . S
C1111 C1117 1.428 . S
H1112 C1108 0.930 . S
H1113 C1110 0.929 . S
S1114 N1115 1.616 1_455 S
S1114 N1116 1.607 . S
N1115 S1114 1.616 1_655 S
N1115 C1118 1.350 . S
N1116 S1114 1.607 . S
N1116 C1117 1.351 . S
C1117 C1111 1.428 . S
C1117 N1116 1.351 . S
C1117 C1118 1.434 1_455 S
C1118 C1109 1.429 . S
C1118 N1115 1.350 . S
C1118 C1117 1.434 1_655 S
C1119 C1120 1.369 . S
C1119 C1121 1.419 . S
C1119 H1123 0.930 . S
C1120 C1119 1.369 . S
C1120 C1129 1.429 . S
C1121 C1119 1.419 . S
C1121 C1122 1.363 . S
C1121 H1124 0.929 . S
C1122 C1121 1.363 . S
C1122 C1128 1.428 . S
H1123 C1119 0.930 . S
H1124 C1121 0.929 . S
S1125 N1126 1.613 . S
S1125 N1127 1.610 . S
N1126 S1125 1.613 . S
N1126 C1129 1.350 . S
N1127 S1125 1.610 . S
N1127 C1128 1.351 . S
C1128 C1122 1.428 . S
C1128 N1127 1.351 . S
C1128 C1129 1.434 . S
C1129 C1120 1.429 . S
C1129 N1126 1.350 . S
C1129 C1128 1.434 . S
C1130 C1131 1.369 . S
C1130 C1132 1.419 . S
C1130 H1134 0.930 . S
C1131 C1130 1.369 . S
C1131 C1140 1.429 . S
C1132 C1130 1.419 . S
C1132 C1133 1.363 . S
C1132 H1135 0.929 . S
C1133 C1132 1.363 . S
C1133 C1139 1.428 . S
H1134 C1130 0.930 . S
H1135 C1132 0.929 . S
S1136 N1137 1.613 . S
S1136 N1138 1.610 . S
N1137 S1136 1.613 . S
N1137 C1140 1.350 . S
N1138 S1136 1.610 . S
N1138 C1139 1.351 . S
C1139 C1133 1.428 . S
C1139 N1138 1.351 . S
C1139 C1140 1.434 . S
C1140 C1131 1.429 . S
C1140 N1137 1.350 . S
C1140 C1139 1.434 . S
C1141 C1142 1.369 . S
C1141 C1143 1.419 1_655 S
C1141 H1145 0.930 . S
C1142 C1141 1.369 . S
C1142 C1151 1.429 . S
C1143 C1141 1.419 1_455 S
C1143 C1144 1.363 . S
C1143 H1146 0.929 . S
C1144 C1143 1.363 . S
C1144 C1150 1.428 . S
H1145 C1141 0.930 . S
H1146 C1143 0.929 . S
S1147 N1148 1.616 1_455 S
S1147 N1149 1.608 . S
N1148 S1147 1.616 1_655 S
N1148 C1151 1.350 . S
N1149 S1147 1.608 . S
N1149 C1150 1.351 . S
C1150 C1144 1.428 . S
C1150 N1149 1.351 . S
C1150 C1151 1.434 1_455 S
C1151 C1142 1.429 . S
C1151 N1148 1.350 . S
C1151 C1150 1.434 1_655 S
C449 C328 1.772 . S
C451 C7 1.770 . S
C460 C287 1.768 . S
C462 C20 1.774 . S
C471 C300 1.780 . S
C473 C35 1.772 . S
C482 C315 1.780 . S
C484 C48 1.775 . S
C493 C63 1.769 . S
C495 C244 1.773 . S
C504 C259 1.768 . S
C506 C76 1.773 . S
C515 C91 1.768 . S
C517 C272 1.774 . S
C526 C104 1.776 . S
C528 C231 1.770 . S
C537 C441 1.770 . S
C539 C119 1.771 . S
C548 C133 1.780 . S
C550 C399 1.773 . S
C559 C147 1.779 . S
C561 C413 1.772 . S
C570 C161 1.773 . S
C572 C427 1.779 . S
C581 C175 1.774 . S
C583 C357 1.779 . S
C592 C189 1.771 . S
C594 C371 1.770 . S
C603 C203 1.777 . S
C605 C385 1.770 . S
C614 C217 1.780 . S
C616 C343 1.772 . S
C625 C8 1.404 . S
C627 C176 1.404 . S
C636 C414 1.404 . S
C638 C23 1.404 . S
C647 C36 1.407 . S
C649 C204 1.407 . S
C658 C442 1.406 . S
C660 C51 1.406 . S
C669 C120 1.405 . S
C671 C64 1.405 . S
C680 C79 1.404 . S
C682 C358 1.404 . S
C691 C92 1.405 . S
C693 C148 1.406 . S
C702 C107 1.405 . S
C704 C386 1.405 . S
C713 C303 1.404 . S
C715 C134 1.404 . S
C724 C331 1.405 . S
C726 C162 1.405 . S
C735 C190 1.407 . S
C737 C247 1.406 . S
C746 C275 1.404 . S
C748 C218 1.404 . S
C757 C400 1.407 . S
C759 C232 1.406 . S
C768 C260 1.404 . S
C770 C428 1.404 . S
C779 C344 1.404 . S
C781 C288 1.404 . S
C790 C372 1.406 . S
C792 C316 1.406 . S
C801 C62 1.400 . S
C803 C6 1.398 . S
C812 C77 1.401 . S
C814 C21 1.399 . S
C823 C34 1.399 . S
C825 C90 1.401 . S
C834 C49 1.399 . S
C836 C105 1.401 . S
C845 C174 1.401 . S
C847 C118 1.399 . S
C856 C188 1.401 . S
C858 C132 1.399 . S
C867 C202 1.399 . S
C869 C146 1.401 . S
C878 C160 1.400 . S
C880 C216 1.401 . S
C889 C230 1.402 . S
C891 C286 1.400 . S
C900 C245 1.398 . S
C902 C301 1.401 . S
C911 C258 1.400 . S
C913 C314 1.398 . S
C922 C273 1.401 . S
C924 C329 1.399 . S
C933 C398 1.398 . S
C935 C342 1.399 . S
C944 C412 1.398 . S
C946 C356 1.400 . S
C955 C426 1.402 . S
C957 C370 1.400 . S
C966 C440 1.400 . S
C968 C384 1.401 . S
C977 C429 1.595 . S
C979 C9 1.596 . S
C988 C22 1.601 . S
C990 C219 1.600 . S
C999 C401 1.602 . S
C1001 C37 1.601 . S
C1010 C50 1.601 . S
C1012 C191 1.600 . S
C1021 C373 1.593 . S
C1023 C65 1.594 . S
C1032 C78 1.600 . S
C1034 C163 1.600 . S
C1043 C93 1.599 . S
C1045 C345 1.598 . S
C1054 C135 1.600 . S
C1056 C106 1.599 . S
C1065 C121 1.593 . S
C1067 C317 1.594 . S
C1076 C289 1.600 . S
C1078 C149 1.599 . S
C1087 C177 1.600 . S
C1089 C261 1.600 . S
C1098 C205 1.602 . S
C1100 C233 1.601 . S
C1109 C443 1.594 . S
C1111 C246 1.595 . S
C1120 C274 1.598 . S
C1122 C415 1.597 . S
C1131 C302 1.593 . S
C1133 C387 1.594 . S
C1142 C359 1.595 . S
C1144 C330 1.595 . S
