# Generated by pormake.
# Topology whw, (6)-cn, num edge types: 1
# Building blocks:
#     Node 0, Type 0, BuildingBlock: MIFKUJ_clean_sbu_0, # of connection points: 6
#     Node 1, Type 0, BuildingBlock: MIFKUJ_clean_sbu_0, # of connection points: 6
#     Node 2, Type 0, BuildingBlock: MIFKUJ_clean_sbu_0, # of connection points: 6
#     Node 3, Type 0, BuildingBlock: MIFKUJ_clean_sbu_0, # of connection points: 6
#     Node 4, Type 0, BuildingBlock: MIFKUJ_clean_sbu_0, # of connection points: 6
#     Node 5, Type 0, BuildingBlock: MIFKUJ_clean_sbu_0, # of connection points: 6
#     Node 6, Type 0, BuildingBlock: MIFKUJ_clean_sbu_0, # of connection points: 6
#     Node 7, Type 0, BuildingBlock: MIFKUJ_clean_sbu_0, # of connection points: 6
#     Node 8, Type 0, BuildingBlock: MIFKUJ_clean_sbu_0, # of connection points: 6
#     Node 9, Type 0, BuildingBlock: MIFKUJ_clean_sbu_0, # of connection points: 6
#     Node 10, Type 0, BuildingBlock: MIFKUJ_clean_sbu_0, # of connection points: 6
#     Node 11, Type 0, BuildingBlock: MIFKUJ_clean_sbu_0, # of connection points: 6
#     Node 12, Type 0, BuildingBlock: MIFKUJ_clean_sbu_0, # of connection points: 6
#     Node 13, Type 0, BuildingBlock: MIFKUJ_clean_sbu_0, # of connection points: 6
#     Node 14, Type 0, BuildingBlock: MIFKUJ_clean_sbu_0, # of connection points: 6
#     Node 15, Type 0, BuildingBlock: MIFKUJ_clean_sbu_0, # of connection points: 6
#     Edge 16, Type (0, 0), BuildingBlock: CIFDUS_clean_linker_0, # of connection points: 2
#     Edge 17, Type (0, 0), BuildingBlock: CIFDUS_clean_linker_0, # of connection points: 2
#     Edge 18, Type (0, 0), BuildingBlock: CIFDUS_clean_linker_0, # of connection points: 2
#     Edge 19, Type (0, 0), BuildingBlock: CIFDUS_clean_linker_0, # of connection points: 2
#     Edge 20, Type (0, 0), BuildingBlock: CIFDUS_clean_linker_0, # of connection points: 2
#     Edge 21, Type (0, 0), BuildingBlock: CIFDUS_clean_linker_0, # of connection points: 2
#     Edge 22, Type (0, 0), BuildingBlock: CIFDUS_clean_linker_0, # of connection points: 2
#     Edge 23, Type (0, 0), BuildingBlock: CIFDUS_clean_linker_0, # of connection points: 2
#     Edge 24, Type (0, 0), BuildingBlock: CIFDUS_clean_linker_0, # of connection points: 2
#     Edge 25, Type (0, 0), BuildingBlock: CIFDUS_clean_linker_0, # of connection points: 2
#     Edge 26, Type (0, 0), BuildingBlock: CIFDUS_clean_linker_0, # of connection points: 2
#     Edge 27, Type (0, 0), BuildingBlock: CIFDUS_clean_linker_0, # of connection points: 2
#     Edge 28, Type (0, 0), BuildingBlock: CIFDUS_clean_linker_0, # of connection points: 2
#     Edge 29, Type (0, 0), BuildingBlock: CIFDUS_clean_linker_0, # of connection points: 2
#     Edge 30, Type (0, 0), BuildingBlock: CIFDUS_clean_linker_0, # of connection points: 2
#     Edge 31, Type (0, 0), BuildingBlock: CIFDUS_clean_linker_0, # of connection points: 2
#     Edge 32, Type (0, 0), BuildingBlock: CIFDUS_clean_linker_0, # of connection points: 2
#     Edge 33, Type (0, 0), BuildingBlock: CIFDUS_clean_linker_0, # of connection points: 2
#     Edge 34, Type (0, 0), BuildingBlock: CIFDUS_clean_linker_0, # of connection points: 2
#     Edge 35, Type (0, 0), BuildingBlock: CIFDUS_clean_linker_0, # of connection points: 2
#     Edge 36, Type (0, 0), BuildingBlock: CIFDUS_clean_linker_0, # of connection points: 2
#     Edge 37, Type (0, 0), BuildingBlock: CIFDUS_clean_linker_0, # of connection points: 2
#     Edge 38, Type (0, 0), BuildingBlock: CIFDUS_clean_linker_0, # of connection points: 2
#     Edge 39, Type (0, 0), BuildingBlock: CIFDUS_clean_linker_0, # of connection points: 2
#     Edge 40, Type (0, 0), BuildingBlock: CIFDUS_clean_linker_0, # of connection points: 2
#     Edge 41, Type (0, 0), BuildingBlock: CIFDUS_clean_linker_0, # of connection points: 2
#     Edge 42, Type (0, 0), BuildingBlock: CIFDUS_clean_linker_0, # of connection points: 2
#     Edge 43, Type (0, 0), BuildingBlock: CIFDUS_clean_linker_0, # of connection points: 2
#     Edge 44, Type (0, 0), BuildingBlock: CIFDUS_clean_linker_0, # of connection points: 2
#     Edge 45, Type (0, 0), BuildingBlock: CIFDUS_clean_linker_0, # of connection points: 2
#     Edge 46, Type (0, 0), BuildingBlock: CIFDUS_clean_linker_0, # of connection points: 2
#     Edge 47, Type (0, 0), BuildingBlock: CIFDUS_clean_linker_0, # of connection points: 2
#     Edge 48, Type (0, 0), BuildingBlock: CIFDUS_clean_linker_0, # of connection points: 2
#     Edge 49, Type (0, 0), BuildingBlock: CIFDUS_clean_linker_0, # of connection points: 2
#     Edge 50, Type (0, 0), BuildingBlock: CIFDUS_clean_linker_0, # of connection points: 2
#     Edge 51, Type (0, 0), BuildingBlock: CIFDUS_clean_linker_0, # of connection points: 2
#     Edge 52, Type (0, 0), BuildingBlock: CIFDUS_clean_linker_0, # of connection points: 2
#     Edge 53, Type (0, 0), BuildingBlock: CIFDUS_clean_linker_0, # of connection points: 2
#     Edge 54, Type (0, 0), BuildingBlock: CIFDUS_clean_linker_0, # of connection points: 2
#     Edge 55, Type (0, 0), BuildingBlock: CIFDUS_clean_linker_0, # of connection points: 2
#     Edge 56, Type (0, 0), BuildingBlock: CIFDUS_clean_linker_0, # of connection points: 2
#     Edge 57, Type (0, 0), BuildingBlock: CIFDUS_clean_linker_0, # of connection points: 2
#     Edge 58, Type (0, 0), BuildingBlock: CIFDUS_clean_linker_0, # of connection points: 2
#     Edge 59, Type (0, 0), BuildingBlock: CIFDUS_clean_linker_0, # of connection points: 2
#     Edge 60, Type (0, 0), BuildingBlock: CIFDUS_clean_linker_0, # of connection points: 2
#     Edge 61, Type (0, 0), BuildingBlock: CIFDUS_clean_linker_0, # of connection points: 2
#     Edge 62, Type (0, 0), BuildingBlock: CIFDUS_clean_linker_0, # of connection points: 2
#     Edge 63, Type (0, 0), BuildingBlock: CIFDUS_clean_linker_0, # of connection points: 2
# Relax obj value: 0.357
# Max RMSD: 0.226
# Mean RMSD: 0.226
data_MOF--net-whw--node1-MIFKUJ_clean_sbu_0--edge1-CIFDUS_clean_linker_0
_symmetry_space_group_name_H-M    P1
_symmetry_Int_Tables_number       1
_symmetry_cell_setting            triclinic
loop_
_symmetry_equiv_pos_as_xyz
'x, y, z'
_cell_length_a     38.011576
_cell_length_b     38.096923
_cell_length_c     26.88097
_cell_angle_alpha  90.037611
_cell_angle_beta   89.911734
_cell_angle_gamma 89.926143
loop_
_atom_site_label
_atom_site_type_symbol
_atom_site_fract_x
_atom_site_fract_y
_atom_site_fract_z
_atom_type_partial_charge
Zn0 Zn 0.02784 0.08319 0.19668 0.0
Zn1 Zn 0.02684 0.09607 0.04186 0.0
C2 C 0.08053 0.07786 0.27313 0.0
O3 O 0.05756 0.05553 0.29137 0.0
C4 C 0.99518 0.13444 0.96867 0.0
O5 O 0.02597 0.14945 0.97477 0.0
O6 O 0.98825 0.09046 0.24675 0.0
O7 O 0.01934 0.1221 0.14568 0.0
O8 O 0.04452 0.13929 0.07678 0.0
C9 C 0.99389 0.11568 0.27683 0.0
O10 O 0.02389 0.13261 0.27467 0.0
O11 O 0.07441 0.0919 0.23109 0.0
C12 C 0.06674 0.07251 0.95689 0.0
O13 O 0.03555 0.06383 0.93992 0.0
O14 O 0.06957 0.08188 0.00206 0.0
O15 O 0.01192 0.0674 0.10006 0.0
O16 O 0.02942 0.03451 0.16045 0.0
O17 O 0.98723 0.10822 0.99544 0.0
C18 C 0.04135 0.14184 0.12379 0.0
C19 C 0.02284 0.03798 0.11432 0.0
Zn20 Zn 0.22765 0.71691 0.46243 0.0
Zn21 Zn 0.20563 0.69343 0.31431 0.0
C22 C 0.24593 0.76786 0.53869 0.0
O23 O 0.27253 0.74646 0.54617 0.0
C24 C 0.17129 0.65357 0.24274 0.0
O25 O 0.14667 0.67538 0.25762 0.0
O26 O 0.21937 0.6763 0.5103 0.0
O27 O 0.18476 0.71732 0.41735 0.0
O28 O 0.1594 0.70444 0.3459 0.0
C29 C 0.1894 0.68076 0.53066 0.0
O30 O 0.17121 0.70883 0.51854 0.0
O31 O 0.225 0.7616 0.50298 0.0
C32 C 0.2226 0.74289 0.23477 0.0
O33 O 0.23072 0.71485 0.20874 0.0
O34 O 0.21472 0.73964 0.28044 0.0
O35 O 0.2367 0.68446 0.37238 0.0
O36 O 0.27207 0.71446 0.41892 0.0
O37 O 0.20148 0.65491 0.26285 0.0
C38 C 0.15793 0.71761 0.38928 0.0
C39 C 0.26568 0.70031 0.37705 0.0
Zn40 Zn 0.59471 0.91633 0.69993 0.0
Zn41 Zn 0.61618 0.88515 0.5546 0.0
C42 C 0.54567 0.92409 0.78297 0.0
O43 O 0.57124 0.94228 0.80331 0.0
C44 C 0.64416 0.854 0.47121 0.0
O45 O 0.61322 0.8392 0.47674 0.0
O46 O 0.63697 0.91222 0.74452 0.0
O47 O 0.59636 0.87302 0.65733 0.0
O48 O 0.60571 0.84035 0.59174 0.0
C49 C 0.63403 0.88674 0.77463 0.0
O50 O 0.60501 0.86807 0.77474 0.0
O51 O 0.5494 0.91288 0.73876 0.0
C52 C 0.57021 0.90821 0.47531 0.0
O53 O 0.60006 0.91863 0.45573 0.0
O54 O 0.57042 0.89499 0.51866 0.0
O55 O 0.62554 0.92163 0.60744 0.0
O56 O 0.59612 0.95837 0.65345 0.0
O57 O 0.65442 0.87632 0.50326 0.0
C58 C 0.5949 0.84332 0.63631 0.0
C59 C 0.60964 0.95081 0.61148 0.0
Zn60 Zn 0.40466 0.27822 0.96724 0.0
Zn61 Zn 0.43138 0.28636 0.81369 0.0
C62 C 0.38649 0.236 0.05365 0.0
O63 O 0.36668 0.26309 0.06525 0.0
C64 C 0.46915 0.34742 0.77733 0.0
O65 O 0.48925 0.34197 0.8163 0.0
O66 O 0.4156 0.32186 0.0072 0.0
O67 O 0.447 0.27086 0.9224 0.0
O68 O 0.4747 0.27153 0.85018 0.0
C69 C 0.44303 0.31754 0.03357 0.0
O70 O 0.45924 0.2871 0.03278 0.0
O71 O 0.40345 0.23636 0.01291 0.0
C72 C 0.41998 0.24805 0.72245 0.0
O73 O 0.42664 0.27895 0.70303 0.0
O74 O 0.41912 0.24482 0.76957 0.0
O75 O 0.39806 0.29608 0.86931 0.0
O76 O 0.36013 0.28002 0.92463 0.0
O77 O 0.44191 0.32863 0.77137 0.0
C78 C 0.4746 0.26565 0.89681 0.0
C79 C 0.36761 0.28465 0.87901 0.0
Zn80 Zn 0.12075 0.89427 0.94549 0.0
Zn81 Zn 0.0879 0.9108 0.79685 0.0
C82 C 0.15386 0.86048 0.02046 0.0
O83 O 0.12123 0.84914 0.02025 0.0
C84 C 0.03374 0.92036 0.72068 0.0
O85 O 0.05665 0.94114 0.69898 0.0
O86 O 0.08195 0.90847 0.99301 0.0
O87 O 0.12559 0.92324 0.88382 0.0
O88 O 0.09348 0.95632 0.83644 0.0
C89 C 0.08902 0.91993 0.03625 0.0
O90 O 0.1215 0.9292 0.04642 0.0
O91 O 0.16371 0.88181 0.9867 0.0
C92 C 0.15103 0.88459 0.74383 0.0
O93 O 0.16198 0.87375 0.78754 0.0
O94 O 0.12278 0.90238 0.74104 0.0
O95 O 0.08619 0.86886 0.84411 0.0
O96 O 0.10184 0.84993 0.91893 0.0
O97 O 0.04065 0.90806 0.76352 0.0
C98 C 0.10944 0.95197 0.87748 0.0
C99 C 0.08726 0.84485 0.87705 0.0
Zn100 Zn 0.42971 0.78739 0.21529 0.0
Zn101 Zn 0.40483 0.78604 0.06126 0.0
C102 C 0.45796 0.85394 0.24558 0.0
O103 O 0.4721 0.85337 0.20095 0.0
C104 C 0.39733 0.72889 0.98956 0.0
O105 O 0.36926 0.74583 0.97422 0.0
O106 O 0.41846 0.74599 0.25989 0.0
O107 O 0.39388 0.79249 0.16183 0.0
O108 O 0.35699 0.78492 0.102 0.0
C109 C 0.4365 0.74435 0.29962 0.0
O110 O 0.45942 0.76932 0.30861 0.0
O111 O 0.43648 0.82994 0.25768 0.0
C112 C 0.43948 0.82264 0.98779 0.0
O113 O 0.45983 0.79541 0.99599 0.0
O114 O 0.41109 0.82589 0.01245 0.0
O115 O 0.44357 0.78941 0.11225 0.0
O116 O 0.47514 0.77651 0.17646 0.0
O117 O 0.41429 0.74057 0.02661 0.0
C118 C 0.36266 0.78771 0.14868 0.0
C119 C 0.47227 0.7779 0.12923 0.0
Zn120 Zn 0.50167 0.10322 0.43525 0.0
Zn121 Zn 0.53729 0.07675 0.29124 0.0
C122 C 0.44629 0.11075 0.50629 0.0
O123 O 0.46138 0.08293 0.52576 0.0
C124 C 0.58555 0.06394 0.21081 0.0
O125 O 0.56281 0.03894 0.20114 0.0
O126 O 0.53002 0.0899 0.49476 0.0
O127 O 0.5016 0.06848 0.37885 0.0
O128 O 0.53585 0.0339 0.33625 0.0
C129 C 0.56293 0.09372 0.50015 0.0
O130 O 0.58245 0.10139 0.46128 0.0
O131 O 0.45496 0.11992 0.46241 0.0
C132 C 0.49552 0.11143 0.22393 0.0
O133 O 0.52067 0.13382 0.2342 0.0
O134 O 0.49586 0.08135 0.24436 0.0
O135 O 0.53657 0.119 0.33668 0.0
O136 O 0.52448 0.14637 0.40667 0.0
O137 O 0.5819 0.08135 0.25071 0.0
C138 C 0.5201 0.04076 0.37693 0.0
C139 C 0.53707 0.14669 0.36285 0.0
Zn140 Zn 0.19291 0.22967 0.70542 0.0
Zn141 Zn 0.22078 0.20974 0.55813 0.0
C142 C 0.16011 0.16285 0.73115 0.0
O143 O 0.14666 0.16533 0.68638 0.0
C144 C 0.22916 0.26499 0.48417 0.0
O145 O 0.2551 0.24546 0.46736 0.0
O146 O 0.19612 0.27088 0.7532 0.0
O147 O 0.23144 0.22119 0.65703 0.0
O148 O 0.26821 0.21301 0.59674 0.0
C149 C 0.20686 0.26354 0.7967 0.0
O150 O 0.22285 0.23338 0.80328 0.0
O151 O 0.18132 0.18637 0.74605 0.0
C152 C 0.18715 0.17391 0.48325 0.0
O153 O 0.16727 0.20153 0.49125 0.0
O154 O 0.21545 0.17023 0.50802 0.0
O155 O 0.1793 0.20322 0.60578 0.0
O156 O 0.15377 0.23919 0.65816 0.0
O157 O 0.21248 0.25529 0.52276 0.0
C158 C 0.2629 0.21954 0.64259 0.0
C159 C 0.15593 0.2264 0.61447 0.0
Zn160 Zn 0.92261 0.28915 0.69177 0.0
Zn161 Zn 0.90842 0.29698 0.54099 0.0
C162 C 0.95279 0.35472 0.73758 0.0
O163 O 0.96028 0.36668 0.69299 0.0
C164 C 0.90248 0.23803 0.47246 0.0
O165 O 0.87767 0.25725 0.45205 0.0
O166 O 0.90586 0.24731 0.73243 0.0
O167 O 0.89181 0.31003 0.639 0.0
O168 O 0.86029 0.29473 0.57582 0.0
C169 C 0.89545 0.25575 0.77577 0.0
O170 O 0.8854 0.28832 0.78317 0.0
O171 O 0.93814 0.325 0.7422 0.0
C172 C 0.94152 0.32733 0.46139 0.0
O173 O 0.96017 0.29911 0.47099 0.0
O174 O 0.91436 0.33381 0.48755 0.0
O175 O 0.94778 0.30616 0.59052 0.0
O176 O 0.96424 0.27235 0.65207 0.0
O177 O 0.91787 0.24928 0.51125 0.0
C178 C 0.86302 0.29844 0.62261 0.0
C179 C 0.96759 0.28194 0.60692 0.0
Zn180 Zn 0.7055 0.69862 0.18425 0.0
Zn181 Zn 0.72409 0.71132 0.03065 0.0
C182 C 0.67557 0.6689 0.26423 0.0
O183 O 0.66074 0.69989 0.25976 0.0
C184 C 0.73702 0.77187 0.96349 0.0
O185 O 0.7623 0.75386 0.94192 0.0
O186 O 0.71819 0.74311 0.22322 0.0
O187 O 0.7368 0.68658 0.12579 0.0
O188 O 0.77087 0.70522 0.06675 0.0
C189 C 0.73139 0.74052 0.26658 0.0
O190 O 0.74061 0.70938 0.28281 0.0
O191 O 0.69842 0.65924 0.23259 0.0
C192 C 0.67913 0.68044 0.96728 0.0
O193 O 0.66323 0.70858 0.98441 0.0
O194 O 0.71071 0.67446 0.98034 0.0
O195 O 0.68536 0.71204 0.08215 0.0
O196 O 0.658 0.70857 0.15332 0.0
O197 O 0.72057 0.75867 1e-05 0.0
C198 C 0.76649 0.69845 0.11269 0.0
C199 C 0.65706 0.71446 0.10685 0.0
Zn200 Zn 0.72722 0.21222 0.94144 0.0
Zn201 Zn 0.70635 0.21495 0.78775 0.0
C202 C 0.73834 0.25793 0.01953 0.0
O203 O 0.76368 0.23473 0.02467 0.0
C204 C 0.65945 0.17459 0.73132 0.0
O205 O 0.63908 0.20104 0.74387 0.0
O206 O 0.72456 0.17203 0.99146 0.0
O207 O 0.68698 0.20435 0.89294 0.0
O208 O 0.66676 0.2341 0.82957 0.0
C209 C 0.69398 0.17345 0.01089 0.0
O210 O 0.67251 0.19846 0.99639 0.0
O211 O 0.71855 0.25597 0.98164 0.0
C212 C 0.72665 0.24302 0.69357 0.0
O213 O 0.73527 0.20986 0.68786 0.0
O214 O 0.71792 0.25346 0.73688 0.0
O215 O 0.74038 0.19975 0.84082 0.0
O216 O 0.77281 0.21942 0.90093 0.0
O217 O 0.69046 0.17319 0.74847 0.0
C218 C 0.66696 0.22818 0.87616 0.0
C219 C 0.76807 0.2151 0.85445 0.0
Zn220 Zn 0.9039 0.7876 0.43161 0.0
Zn221 Zn 0.92399 0.77666 0.2789 0.0
C222 C 0.89866 0.72913 0.50291 0.0
O223 O 0.86525 0.73719 0.50818 0.0
C224 C 0.96802 0.82121 0.22317 0.0
O225 O 0.99176 0.80215 0.24611 0.0
O226 O 0.90309 0.829 0.47936 0.0
O227 O 0.94494 0.79652 0.3837 0.0
O228 O 0.96534 0.76438 0.32209 0.0
C229 C 0.93112 0.82871 0.50528 0.0
O230 O 0.95449 0.80385 0.49776 0.0
O231 O 0.91741 0.74577 0.47173 0.0
C232 C 0.90885 0.7346 0.19179 0.0
O233 O 0.90204 0.76569 0.17303 0.0
O234 O 0.91452 0.73217 0.23839 0.0
O235 O 0.89121 0.79233 0.33245 0.0
O236 O 0.8582 0.77556 0.3934 0.0
O237 O 0.93567 0.81591 0.23177 0.0
C238 C 0.96602 0.77308 0.36785 0.0
C239 C 0.86351 0.77748 0.34682 0.0
Zn240 Zn 0.51498 0.58386 0.70316 0.0
Zn241 Zn 0.52316 0.60869 0.5596 0.0
C242 C 0.58778 0.5793 0.74612 0.0
O243 O 0.60035 0.5695 0.70273 0.0
C244 C 0.45373 0.59257 0.50385 0.0
O245 O 0.42713 0.57071 0.50054 0.0
O246 O 0.47143 0.58926 0.74585 0.0
O247 O 0.51804 0.62971 0.66376 0.0
O248 O 0.51777 0.65629 0.59116 0.0
C249 C 0.47627 0.61706 0.77129 0.0
O250 O 0.50505 0.63544 0.76416 0.0
O251 O 0.55499 0.58461 0.75133 0.0
C252 C 0.55723 0.58925 0.46765 0.0
O253 O 0.53042 0.56784 0.46283 0.0
O254 O 0.55873 0.60954 0.50507 0.0
O255 O 0.54342 0.58096 0.61518 0.0
O256 O 0.51944 0.53994 0.65896 0.0
O257 O 0.47674 0.58679 0.53746 0.0
C258 C 0.51972 0.65777 0.63838 0.0
C259 C 0.53551 0.54912 0.61967 0.0
Zn260 Zn 0.12027 0.40258 0.18353 0.0
Zn261 Zn 0.06728 0.38917 0.09283 0.0
C262 C 0.06004 0.41525 0.25598 0.0
O263 O 0.07658 0.44224 0.27531 0.0
C264 C 0.10781 0.35345 0.02567 0.0
O265 O 0.0806 0.33351 0.03615 0.0
O266 O 0.15843 0.40149 0.23621 0.0
O267 O 0.12456 0.35461 0.15109 0.0
O268 O 0.06738 0.34833 0.13892 0.0
C269 C 0.15107 0.37853 0.26902 0.0
O270 O 0.12158 0.36086 0.26531 0.0
O271 O 0.07323 0.39937 0.21879 0.0
C272 C 0.03198 0.40014 0.00108 0.0
O273 O 0.06262 0.41464 0.9921 0.0
O274 O 0.02609 0.38749 0.04421 0.0
O275 O 0.06654 0.43306 0.13257 0.0
O276 O 0.12226 0.44366 0.13484 0.0
O277 O 0.11079 0.38256 0.04865 0.0
C278 C 0.09712 0.33546 0.15062 0.0
C279 C 0.0918 0.45251 0.11992 0.0
Zn280 Zn 0.5771 0.38637 0.42844 0.0
Zn281 Zn 0.61443 0.4067 0.30239 0.0
C282 C 0.62721 0.34966 0.4864 0.0
O283 O 0.60575 0.32456 0.47244 0.0
C284 C 0.55897 0.41625 0.22973 0.0
O285 O 0.58253 0.43632 0.20808 0.0
O286 O 0.53631 0.39025 0.47594 0.0
O287 O 0.57856 0.42039 0.37446 0.0
O288 O 0.6188 0.45287 0.34313 0.0
C289 C 0.54414 0.40387 0.51771 0.0
O290 O 0.57576 0.41701 0.52385 0.0
O291 O 0.62199 0.38073 0.47043 0.0
C292 C 0.64349 0.37366 0.2231 0.0
O293 O 0.61926 0.35229 0.24019 0.0
O294 O 0.64816 0.40309 0.24446 0.0
O295 O 0.62165 0.36028 0.34309 0.0
O296 O 0.57421 0.34463 0.38634 0.0
O297 O 0.56594 0.40297 0.27198 0.0
C298 C 0.59584 0.44837 0.37668 0.0
C299 C 0.59733 0.33813 0.35325 0.0
Zn300 Zn 0.0526 0.59895 0.91602 0.0
Zn301 Zn 0.00707 0.58578 0.80075 0.0
C302 C 0.0065 0.63586 0.97773 0.0
O303 O 0.03682 0.65181 0.98339 0.0
C304 C 0.07847 0.57703 0.73682 0.0
O305 O 0.09327 0.54856 0.75471 0.0
O306 O 0.0874 0.59113 0.97195 0.0
O307 O 0.05338 0.56386 0.86185 0.0
O308 O 0.00424 0.5402 0.84166 0.0
C309 C 0.07364 0.57841 0.01118 0.0
O310 O 0.04062 0.56846 0.00979 0.0
O311 O 0.00452 0.60985 0.94795 0.0
C312 C 0.97091 0.62194 0.73256 0.0
O313 O 0.99749 0.64134 0.74694 0.0
O314 O 0.96571 0.5927 0.75413 0.0
O315 O 0.01074 0.63125 0.84298 0.0
O316 O 0.06267 0.64056 0.87714 0.0
O317 O 0.04931 0.58784 0.75448 0.0
C318 C 0.03238 0.53867 0.8667 0.0
C319 C 0.03882 0.64954 0.84658 0.0
H320 H 0.06818 0.05984 0.85763 0.0
H321 H 0.12941 0.10539 0.97627 0.0
H322 H 0.16726 0.13438 0.9155 0.0
H323 H 0.17629 0.15476 0.82947 0.0
H324 H 0.11308 0.11079 0.71153 0.0
H325 H 0.08289 0.07331 0.77119 0.0
C326 C 0.09026 0.07549 0.87025 0.0
C327 C 0.0953 0.08118 0.92139 0.0
C328 C 0.11125 0.09297 0.83517 0.0
C329 C 0.12454 0.10092 0.93708 0.0
C330 C 0.14609 0.11778 0.90233 0.0
C331 C 0.15637 0.13651 0.81666 0.0
C332 C 0.14653 0.13609 0.76618 0.0
C333 C 0.1386 0.11533 0.85136 0.0
C334 C 0.12089 0.11203 0.75022 0.0
C335 C 0.10355 0.09055 0.78434 0.0
H336 H 0.25459 0.77348 0.15527 0.0
H337 H 0.16582 0.78334 0.25454 0.0
H338 H 0.1386 0.82581 0.19881 0.0
H339 H 0.13542 0.85157 0.11564 0.0
H340 H 0.22395 0.84354 0.01596 0.0
H341 H 0.25669 0.81009 0.07891 0.0
C342 C 0.22981 0.7858 0.16519 0.0
C343 C 0.21196 0.77501 0.20835 0.0
C344 C 0.21424 0.8103 0.13286 0.0
C345 C 0.18006 0.7913 0.22146 0.0
C346 C 0.16432 0.81538 0.18943 0.0
C347 C 0.1622 0.84307 0.10814 0.0
C348 C 0.17707 0.84892 0.06102 0.0
C349 C 0.18045 0.82376 0.14406 0.0
C350 C 0.21197 0.83882 0.05192 0.0
C351 C 0.23049 0.81951 0.08771 0.0
H352 H 0.4488 0.84784 0.34547 0.0
H353 H 0.50244 0.9096 0.23415 0.0
H354 H 0.53799 0.93725 0.29877 0.0
H355 H 0.56052 0.93615 0.38393 0.0
H356 H 0.51006 0.87084 0.49403 0.0
H357 H 0.46617 0.85279 0.43294 0.0
C358 C 0.46769 0.86794 0.33535 0.0
C359 C 0.47337 0.87624 0.28492 0.0
C360 C 0.48893 0.88275 0.37244 0.0
C361 C 0.49783 0.90245 0.2726 0.0
C362 C 0.51827 0.91817 0.30951 0.0
C363 C 0.53951 0.9185 0.39485 0.0
C364 C 0.53902 0.90428 0.44306 0.0
C365 C 0.51512 0.90733 0.35916 0.0
C366 C 0.51125 0.88196 0.45698 0.0
C367 C 0.48626 0.87143 0.42197 0.0
H368 H 0.40783 0.24772 0.62313 0.0
H369 H 0.42549 0.17879 0.74794 0.0
H370 H 0.4299 0.12859 0.69158 0.0
H371 H 0.4363 0.10586 0.60649 0.0
H372 H 0.41992 0.17534 0.48172 0.0
H373 H 0.40669 0.22351 0.53855 0.0
C374 C 0.4122 0.22163 0.63806 0.0
C375 C 0.41695 0.21707 0.68954 0.0
C376 C 0.41499 0.19297 0.60544 0.0
C377 C 0.42196 0.18305 0.70842 0.0
C378 C 0.4246 0.15434 0.67618 0.0
C379 C 0.42904 0.1313 0.59158 0.0
C380 C 0.42965 0.13699 0.53977 0.0
C381 C 0.42222 0.15918 0.62452 0.0
C382 C 0.41993 0.17016 0.52134 0.0
C383 C 0.41257 0.19786 0.55385 0.0
H384 H 0.02023 0.86755 0.23207 0.0
H385 H 0.94152 0.83041 0.1298 0.0
H386 H 0.96934 0.86344 0.06192 0.0
H387 H 0.02168 0.89497 0.03037 0.0
H388 H 0.09955 0.93219 0.13469 0.0
H389 H 0.06576 0.90803 0.20342 0.0
C390 C 0.0088 0.86744 0.19509 0.0
C391 C 0.97942 0.84647 0.18538 0.0
C392 C 0.02484 0.88636 0.15673 0.0
C393 C 0.96428 0.84655 0.13778 0.0
C394 C 0.98029 0.86522 0.09905 0.0
C395 C 0.03082 0.89854 0.06824 0.0
C396 C 0.06367 0.91441 0.07726 0.0
C397 C 0.01142 0.88412 0.10779 0.0
C398 C 0.07473 0.91951 0.12657 0.0
C399 C 0.05551 0.90554 0.16598 0.0
H400 H 0.89716 0.18408 0.79239 0.0
H401 H 0.92632 0.28409 0.85556 0.0
H402 H 0.95902 0.25523 0.92063 0.0
H403 H 0.98295 0.20239 0.95692 0.0
H404 H 0.95126 0.10098 0.90259 0.0
H405 H 0.91522 0.1292 0.83769 0.0
C406 C 0.91019 0.19932 0.82102 0.0
C407 C 0.90954 0.23627 0.81881 0.0
C408 C 0.92847 0.18232 0.8599 0.0
C409 C 0.92627 0.25576 0.85628 0.0
C410 C 0.9452 0.23927 0.89358 0.0
C411 C 0.96787 0.18648 0.9311 0.0
C412 C 0.96998 0.14994 0.93365 0.0
C413 C 0.947 0.20273 0.89521 0.0
C414 C 0.94994 0.12936 0.90087 0.0
C415 C 0.92956 0.14548 0.86376 0.0
H416 H 0.59326 0.15479 0.71096 0.0
H417 H 0.70056 0.141 0.66262 0.0
H418 H 0.68034 0.11031 0.58785 0.0
H419 H 0.63135 0.09466 0.5313 0.0
H420 H 0.52438 0.10733 0.58302 0.0
H421 H 0.54532 0.13073 0.66141 0.0
C422 C 0.61221 0.14448 0.68445 0.0
C423 C 0.64816 0.15047 0.69172 0.0
C424 C 0.60045 0.12689 0.64192 0.0
C425 C 0.67263 0.13666 0.65763 0.0
C426 C 0.66109 0.11933 0.61476 0.0
C427 C 0.61275 0.10183 0.56022 0.0
C428 C 0.57643 0.09979 0.55088 0.0
C429 C 0.62495 0.11533 0.60573 0.0
C430 C 0.55253 0.10869 0.58894 0.0
C431 C 0.56442 0.12235 0.63386 0.0
H432 H 0.70855 0.82389 0.46358 0.0
H433 H 0.62299 0.86596 0.37734 0.0
H434 H 0.64772 0.84036 0.3015 0.0
H435 H 0.6868 0.79647 0.26363 0.0
H436 H 0.76802 0.74864 0.35257 0.0
H437 H 0.75288 0.78643 0.42252 0.0
C438 C 0.69616 0.82835 0.4278 0.0
C439 C 0.66419 0.84665 0.42561 0.0
C440 C 0.7096 0.81202 0.3848 0.0
C441 C 0.64775 0.85189 0.37949 0.0
C442 C 0.66176 0.83709 0.33625 0.0
C443 C 0.7019 0.79512 0.29778 0.0
C444 C 0.72841 0.76961 0.30292 0.0
C445 C 0.69169 0.81563 0.33889 0.0
C446 C 0.74754 0.76803 0.34758 0.0
C447 C 0.73865 0.78946 0.38787 0.0
H448 H 0.64043 0.60761 0.26882 0.0
H449 H 0.6918 0.6862 0.35806 0.0
H450 H 0.66363 0.66329 0.43297 0.0
H451 H 0.61577 0.62935 0.46893 0.0
H452 H 0.55999 0.55387 0.37901 0.0
H453 H 0.59887 0.56643 0.30871 0.0
C454 C 0.64633 0.61865 0.30507 0.0
C455 C 0.66793 0.64829 0.30858 0.0
C456 C 0.6286 0.60646 0.34748 0.0
C457 C 0.67526 0.66313 0.35513 0.0
C458 C 0.65892 0.65028 0.39773 0.0
C459 C 0.61235 0.61528 0.43417 0.0
C460 C 0.58425 0.59175 0.42845 0.0
C461 C 0.63407 0.62331 0.39377 0.0
C462 C 0.58085 0.57291 0.38377 0.0
C463 C 0.60308 0.58003 0.34361 0.0
H464 H 0.70097 0.31095 0.68762 0.0
H465 H 0.73491 0.22328 0.59738 0.0
H466 H 0.71054 0.2509 0.52382 0.0
H467 H 0.67208 0.29532 0.48694 0.0
H468 H 0.63951 0.38467 0.57365 0.0
H469 H 0.67127 0.36156 0.64619 0.0
C470 C 0.70377 0.29831 0.65168 0.0
C471 C 0.71912 0.26457 0.64856 0.0
C472 C 0.68969 0.31455 0.60877 0.0
C473 C 0.72285 0.2489 0.60141 0.0
C474 C 0.7088 0.26465 0.55906 0.0
C475 C 0.67286 0.31021 0.52136 0.0
C476 C 0.65353 0.34151 0.52514 0.0
C477 C 0.69104 0.29675 0.56261 0.0
C478 C 0.65455 0.36064 0.56981 0.0
C479 C 0.6724 0.34721 0.61141 0.0
H480 H 0.03538 0.42955 0.90961 0.0
H481 H 0.97434 0.35699 0.99772 0.0
H482 H 0.94115 0.33984 0.9237 0.0
H483 H 0.93406 0.34113 0.83292 0.0
H484 H 0.99822 0.41037 0.7443 0.0
H485 H 0.02481 0.43421 0.81993 0.0
C486 C 0.01449 0.4103 0.91284 0.0
C487 C 0.00765 0.3942 0.95902 0.0
C488 C 0.99616 0.40001 0.87002 0.0
C489 C 0.98019 0.3697 0.96265 0.0
C490 C 0.96134 0.35977 0.92028 0.0
C491 C 0.95397 0.36129 0.83013 0.0
C492 C 0.96491 0.37315 0.78297 0.0
C493 C 0.9699 0.37396 0.87359 0.0
C494 C 0.98963 0.40043 0.78005 0.0
C495 C 0.00496 0.41394 0.82327 0.0
H496 H 0.90131 0.73227 0.09121 0.0
H497 H 0.93972 0.67149 0.21525 0.0
H498 H 0.96913 0.63118 0.15787 0.0
H499 H 0.99247 0.61962 0.07336 0.0
H500 H 0.9558 0.68177 0.95017 0.0
H501 H 0.91717 0.71506 0.00601 0.0
C502 C 0.91547 0.70979 0.10577 0.0
C503 C 0.91884 0.70544 0.15763 0.0
C504 C 0.93301 0.68715 0.07255 0.0
C505 C 0.9369 0.67579 0.17563 0.0
C506 C 0.95396 0.65279 0.14278 0.0
C507 C 0.97495 0.63958 0.05868 0.0
C508 C 0.97642 0.64801 0.00778 0.0
C509 C 0.95344 0.6591 0.0913 0.0
C510 C 0.95445 0.67446 0.98908 0.0
C511 C 0.93268 0.6937 0.02111 0.0
H512 H 0.55879 0.42124 0.61288 0.0
H513 H 0.47685 0.37819 0.52013 0.0
H514 H 0.44315 0.36209 0.59423 0.0
H515 H 0.44151 0.35241 0.68434 0.0
H516 H 0.52633 0.39083 0.77612 0.0
H517 H 0.55422 0.41698 0.70321 0.0
C518 C 0.5333 0.40882 0.60873 0.0
C519 C 0.52064 0.40025 0.56112 0.0
C520 C 0.51478 0.39852 0.65134 0.0
C521 C 0.48737 0.38461 0.55643 0.0
C522 C 0.46816 0.37532 0.59877 0.0
C523 C 0.46575 0.36706 0.68865 0.0
C524 C 0.48206 0.3692 0.73557 0.0
C525 C 0.4823 0.3809 0.64634 0.0
C526 C 0.51336 0.3885 0.74042 0.0
C527 C 0.5294 0.40336 0.69871 0.0
H528 H 0.41118 0.60598 0.42463 0.0
H529 H 0.50057 0.64751 0.50359 0.0
H530 H 0.50199 0.698 0.44882 0.0
H531 H 0.47796 0.73069 0.37879 0.0
H532 H 0.38932 0.68958 0.2973 0.0
H533 H 0.38731 0.63868 0.35299 0.0
C534 C 0.43104 0.62603 0.42996 0.0
C535 C 0.45574 0.62279 0.46892 0.0
C536 C 0.4317 0.65517 0.39783 0.0
C537 C 0.48127 0.64903 0.4746 0.0
C538 C 0.48203 0.6781 0.44309 0.0
C539 C 0.45807 0.7107 0.37312 0.0
C540 C 0.43388 0.71396 0.33385 0.0
C541 C 0.45733 0.68149 0.40477 0.0
C542 C 0.40835 0.6877 0.32716 0.0
C543 C 0.40722 0.65858 0.35896 0.0
H544 H 0.11336 0.6153 0.22948 0.0
H545 H 0.21216 0.64178 0.1606 0.0
H546 H 0.19215 0.61598 0.08178 0.0
H547 H 0.1425 0.59477 0.03009 0.0
H548 H 0.04447 0.5676 0.10189 0.0
H549 H 0.06843 0.58424 0.18207 0.0
C550 C 0.13081 0.61452 0.19748 0.0
C551 C 0.16386 0.63056 0.20024 0.0
C552 C 0.11907 0.59997 0.15274 0.0
C553 C 0.18655 0.62937 0.15903 0.0
C554 C 0.17499 0.61495 0.11397 0.0
C555 C 0.12671 0.59184 0.06346 0.0
C556 C 0.09146 0.58095 0.05978 0.0
C557 C 0.14069 0.60151 0.10991 0.0
C558 C 0.07151 0.57649 0.10342 0.0
C559 C 0.08512 0.58608 0.14944 0.0
H560 H 0.21257 0.32768 0.84414 0.0
H561 H 0.15563 0.2298 0.84349 0.0
H562 H 0.12088 0.24882 0.91467 0.0
H563 H 0.10684 0.29206 0.977 0.0
H564 H 0.16191 0.39093 0.98134 0.0
H565 H 0.19776 0.3726 0.90953 0.0
C566 C 0.19249 0.31078 0.85983 0.0
C567 C 0.18658 0.27736 0.83904 0.0
C568 C 0.17263 0.32184 0.90154 0.0
C569 C 0.16063 0.2555 0.85932 0.0
C570 C 0.14079 0.26633 0.89995 0.0
C571 C 0.1267 0.30977 0.96253 0.0
C572 C 0.13166 0.34281 0.9846 0.0
C573 C 0.14668 0.29925 0.92145 0.0
C574 C 0.15767 0.36523 0.9652 0.0
C575 C 0.17803 0.3548 0.92399 0.0
H576 H 0.05495 0.29374 0.20386 0.0
H577 H 0.14458 0.29249 0.10558 0.0
H578 H 0.13863 0.22886 0.09523 0.0
H579 H 0.10093 0.17664 0.10208 0.0
H580 H 0.01022 0.17886 0.19869 0.0
H581 H 0.02411 0.23897 0.22325 0.0
C582 C 0.07371 0.27924 0.18137 0.0
C583 C 0.09978 0.29733 0.15491 0.0
C584 C 0.06974 0.24305 0.17516 0.0
C585 C 0.12435 0.27873 0.12623 0.0
C586 C 0.12074 0.24253 0.12002 0.0
C587 C 0.0848 0.19008 0.12948 0.0
C588 C 0.0544 0.17378 0.14808 0.0
C589 C 0.0925 0.22481 0.14245 0.0
C590 C 0.03383 0.19097 0.18404 0.0
C591 C 0.04154 0.22542 0.19767 0.0
H592 H 0.02557 0.81009 0.37112 0.0
H593 H 0.97707 0.715 0.42336 0.0
H594 H 0.03469 0.69134 0.44669 0.0
H595 H 0.09894 0.69265 0.43283 0.0
H596 H 0.14685 0.78589 0.37303 0.0
H597 H 0.08982 0.81558 0.37177 0.0
C598 C 0.02774 0.7848 0.38947 0.0
C599 C 0.99761 0.76422 0.39604 0.0
C600 C 0.06098 0.77079 0.40007 0.0
C601 C 0.00022 0.73124 0.41872 0.0
C602 C 0.03313 0.71761 0.4314 0.0
C603 C 0.09681 0.71989 0.42147 0.0
C604 C 0.12652 0.73735 0.40318 0.0
C605 C 0.06377 0.73632 0.41947 0.0
C606 C 0.124 0.77237 0.38771 0.0
C607 C 0.09144 0.78919 0.38663 0.0
H608 H 0.48964 0.72178 0.65323 0.0
H609 H 0.58565 0.66303 0.67117 0.0
H610 H 0.61889 0.71734 0.68176 0.0
H611 H 0.62164 0.78112 0.66633 0.0
H612 H 0.5255 0.84036 0.65474 0.0
H613 H 0.49092 0.78651 0.66293 0.0
C614 C 0.51757 0.72106 0.66141 0.0
C615 C 0.53554 0.68897 0.6606 0.0
C616 C 0.53642 0.7524 0.66801 0.0
C617 C 0.57159 0.68781 0.6715 0.0
C618 C 0.5906 0.71878 0.67719 0.0
C619 C 0.59313 0.7822 0.66767 0.0
C620 C 0.57588 0.8141 0.65906 0.0
C621 C 0.57355 0.75123 0.67263 0.0
C622 C 0.53905 0.81573 0.66112 0.0
C623 C 0.51934 0.78498 0.66532 0.0
H624 H 0.61474 0.18825 0.91181 0.0
H625 H 0.65167 0.29484 0.90247 0.0
H626 H 0.59304 0.3167 0.92406 0.0
H627 H 0.52966 0.30526 0.92142 0.0
H628 H 0.49176 0.19889 0.92015 0.0
H629 H 0.55205 0.17673 0.92767 0.0
C630 C 0.61006 0.21616 0.91663 0.0
C631 C 0.63685 0.24014 0.90533 0.0
C632 C 0.57591 0.22839 0.926 0.0
C633 C 0.63099 0.2762 0.91092 0.0
C634 C 0.59752 0.28861 0.92284 0.0
C635 C 0.53475 0.27733 0.92508 0.0
C636 C 0.50699 0.25355 0.92005 0.0
C637 C 0.5694 0.26501 0.92689 0.0
C638 C 0.51318 0.21742 0.92426 0.0
C639 C 0.54758 0.20484 0.928 0.0
H640 H 0.08727 0.80079 0.79723 0.0
H641 H 0.04283 0.8167 0.94324 0.0
H642 H 0.0159 0.75874 0.9408 0.0
H643 H 0.01391 0.70045 0.90404 0.0
H644 H 0.06454 0.68076 0.76357 0.0
H645 H 0.07931 0.74321 0.75568 0.0
C646 C 0.07103 0.79164 0.8278 0.0
C647 C 0.06728 0.81238 0.87058 0.0
C648 C 0.05683 0.75761 0.82702 0.0
C649 C 0.04637 0.80064 0.9103 0.0
C650 C 0.03093 0.76764 0.90891 0.0
C651 C 0.02703 0.71028 0.87098 0.0
C652 C 0.03793 0.68674 0.83422 0.0
C653 C 0.0372 0.74542 0.86844 0.0
C654 C 0.05559 0.69898 0.79185 0.0
C655 C 0.06437 0.73448 0.78772 0.0
H656 H 0.59563 0.67958 0.10285 0.0
H657 H 0.6452 0.77694 0.06203 0.0
H658 H 0.58751 0.80444 0.0505 0.0
H659 H 0.52486 0.80413 0.07443 0.0
H660 H 0.47612 0.70736 0.11964 0.0
H661 H 0.53099 0.67551 0.10427 0.0
C662 C 0.5936 0.70639 0.08955 0.0
C663 C 0.62416 0.72658 0.08411 0.0
C664 C 0.56043 0.72202 0.08391 0.0
C665 C 0.62173 0.76114 0.06655 0.0
C666 C 0.5888 0.77688 0.06031 0.0
C667 C 0.52599 0.77581 0.07847 0.0
C668 C 0.49717 0.75798 0.09883 0.0
C669 C 0.5581 0.75816 0.07203 0.0
C670 C 0.49839 0.7214 0.10422 0.0
C671 C 0.52984 0.70334 0.09608 0.0
H672 H 0.59767 0.17881 0.38693 0.0
H673 H 0.50542 0.1881 0.29503 0.0
H674 H 0.52161 0.24828 0.27313 0.0
H675 H 0.55556 0.30099 0.29388 0.0
H676 H 0.64636 0.29286 0.38865 0.0
H677 H 0.63815 0.22921 0.39478 0.0
C678 C 0.58183 0.19387 0.36103 0.0
C679 C 0.55058 0.17952 0.34237 0.0
C680 C 0.59106 0.22854 0.34938 0.0
C681 C 0.52983 0.19883 0.30915 0.0
C682 C 0.53895 0.23321 0.29696 0.0
C683 C 0.57437 0.28489 0.31394 0.0
C684 C 0.60147 0.30106 0.3407 0.0
C685 C 0.56868 0.24875 0.31855 0.0
C686 C 0.62561 0.28054 0.36728 0.0
C687 C 0.62056 0.24432 0.37138 0.0
H688 H 0.12665 0.28294 0.5717 0.0
H689 H 0.11236 0.17206 0.59479 0.0
H690 H 0.04882 0.1786 0.5843 0.0
H691 H 0.99801 0.21875 0.5924 0.0
H692 H 0.01249 0.32949 0.56727 0.0
H693 H 0.07535 0.32022 0.55315 0.0
C694 C 0.10969 0.26004 0.57176 0.0
C695 C 0.1236 0.22731 0.58508 0.0
C696 C 0.07327 0.26418 0.56652 0.0
C697 C 0.10186 0.19758 0.58495 0.0
C698 C 0.06553 0.2014 0.57958 0.0
C699 C 0.01484 0.24054 0.58199 0.0
C700 C 0.00127 0.27478 0.58225 0.0
C701 C 0.0509 0.23499 0.57413 0.0
C702 C 0.02275 0.30294 0.56784 0.0
C703 C 0.05867 0.29768 0.56009 0.0
H704 H 0.08982 0.02697 0.08438 0.0
H705 H 0.98228 -0.00233 0.05663 0.0
H706 H -0.00103 0.97202 0.97658 0.0
H707 H 0.04375 0.96062 0.91264 0.0
H708 H 0.15198 0.98675 0.94145 0.0
H709 H 0.13543 0.01303 0.02155 0.0
C710 C 0.07044 0.01382 0.06141 0.0
C711 C 0.0351 0.01329 0.07643 0.0
C712 C 0.08009 0.00034 0.01464 0.0
C713 C 0.00978 -0.00255 0.04594 0.0
C714 C 0.01918 0.98353 -0.00018 0.0
C715 C 0.06349 0.97266 0.93622 0.0
C716 C 0.09886 0.97235 0.92138 0.0
C717 C 0.05405 0.98569 0.98321 0.0
C718 C 0.12454 0.98712 0.95238 0.0
C719 C 0.11514 0.00173 -0.00175 0.0
H720 H 0.29087 0.76493 0.35452 0.0
H721 H 0.28127 0.65968 0.29749 0.0
H722 H 0.30707 0.67803 0.21812 0.0
H723 H 0.33234 0.72451 0.16479 0.0
H724 H 0.34094 0.82967 0.22212 0.0
H725 H 0.31413 0.81146 0.3006 0.0
C726 C 0.29489 0.74602 0.32487 0.0
C727 C 0.2848 0.71097 0.33184 0.0
C728 C 0.30833 0.75706 0.27878 0.0
C729 C 0.28935 0.68675 0.29291 0.0
C730 C 0.30381 0.69727 0.24749 0.0
C731 C 0.32703 0.74353 0.19392 0.0
C732 C 0.33722 0.77859 0.18739 0.0
C733 C 0.31287 0.73251 0.23968 0.0
C734 C 0.33194 0.80282 0.22601 0.0
C735 C 0.3173 0.79228 0.27114 0.0
H736 H 0.58557 0.01884 0.40125 0.0
H737 H 0.47932 0.0253 0.4567 0.0
H738 H 0.49803 0.00022 0.53633 0.0
H739 H 0.5447 0.97566 0.58952 0.0
H740 H 0.6507 0.96845 0.53329 0.0
H741 H 0.63248 0.9963 0.45533 0.0
C742 C 0.56653 0.01441 0.43068 0.0
C743 C 0.53112 0.02348 0.4233 0.0
C744 C 0.57763 0.00075 0.47648 0.0
C745 C 0.50669 0.0182 0.46175 0.0
C746 C 0.51741 0.0041 0.50724 0.0
C747 C 0.56376 0.9805 0.56024 0.0
C748 C 0.59889 0.97005 0.56665 0.0
C749 C 0.55282 0.99531 0.51502 0.0
C750 C 0.62348 0.97627 0.52874 0.0
C751 C 0.61306 0.99208 0.48427 0.0
H752 H 0.36857 0.29928 0.78015 0.0
H753 H 0.31828 0.23357 0.8899 0.0
H754 H 0.28538 0.20375 0.82469 0.0
H755 H 0.268 0.19893 0.73722 0.0
H756 H 0.31891 0.26281 0.6264 0.0
H757 H 0.35481 0.29066 0.69104 0.0
C758 C 0.35038 0.27842 0.78965 0.0
C759 C 0.34589 0.2686 0.8397 0.0
C760 C 0.33181 0.26107 0.75181 0.0
C761 C 0.32203 0.24179 0.85169 0.0
C762 C 0.30338 0.22457 0.8144 0.0
C763 C 0.28766 0.21835 0.72726 0.0
C764 C 0.29093 0.22901 0.67754 0.0
C765 C 0.30785 0.23419 0.76448 0.0
C766 C 0.31634 0.25403 0.66456 0.0
C767 C 0.33646 0.27023 0.70157 0.0
H768 H 0.79109 0.19183 0.76683 0.0
H769 H 0.78546 0.28435 0.85877 0.0
H770 H 0.80944 0.31988 0.79063 0.0
H771 H 0.83499 0.3235 0.7066 0.0
H772 H 0.84166 0.23064 0.6155 0.0
H773 H 0.81431 0.1959 0.68175 0.0
C774 C 0.79575 0.2197 0.77198 0.0
C775 C 0.78736 0.23558 0.81752 0.0
C776 C 0.80937 0.23968 0.73286 0.0
C777 C 0.79268 0.27167 0.82413 0.0
C778 C 0.80574 0.29195 0.78503 0.0
C779 C 0.8295 0.29583 0.70102 0.0
C780 C 0.83991 0.27945 0.65667 0.0
C781 C 0.81429 0.27616 0.73935 0.0
C782 C 0.83328 0.24365 0.64937 0.0
C783 C 0.81818 0.2238 0.68739 0.0
H784 H 0.84699 0.79908 0.25639 0.0
H785 H 0.8372 0.7107 0.35529 0.0
H786 H 0.80959 0.67626 0.28852 0.0
H787 H 0.78511 0.67329 0.20301 0.0
H788 H 0.79715 0.7622 0.10515 0.0
H789 H 0.82673 0.79489 0.17086 0.0
C790 C 0.83832 0.77239 0.26339 0.0
C791 C 0.84321 0.75747 0.31046 0.0
C792 C 0.82291 0.75308 0.22517 0.0
C793 C 0.83279 0.72276 0.31934 0.0
C794 C 0.81754 0.70306 0.2811 0.0
C795 C 0.79489 0.69957 0.19607 0.0
C796 C 0.78899 0.7155 0.14971 0.0
C797 C 0.81212 0.71814 0.23397 0.0
C798 C 0.80161 0.74947 0.14063 0.0
C799 C 0.81817 0.76826 0.17824 0.0
H800 H 0.59522 0.54379 0.56813 0.0
H801 H 0.48927 0.50388 0.57588 0.0
H802 H 0.49842 0.47205 0.49752 0.0
H803 H 0.53635 0.4562 0.42765 0.0
H804 H 0.64348 0.49305 0.42129 0.0
H805 H 0.634 0.5266 0.49841 0.0
C806 C 0.5744 0.52757 0.55288 0.0
C807 C 0.54166 0.52579 0.5773 0.0
C808 C 0.58006 0.50933 0.50837 0.0
C809 C 0.51468 0.50511 0.55769 0.0
C810 C 0.51983 0.48739 0.51279 0.0
C811 C 0.55774 0.47145 0.4433 0.0
C812 C 0.59079 0.47167 0.41974 0.0
C813 C 0.55233 0.4895 0.48787 0.0
C814 C 0.61797 0.49228 0.43927 0.0
C815 C 0.61261 0.51108 0.48344 0.0
H816 H 0.09311 0.51813 0.90607 0.0
H817 H 0.98083 0.51114 0.92726 0.0
H818 H 0.99014 0.48675 0.01074 0.0
H819 H 0.03021 0.47195 0.07889 0.0
H820 H 0.14265 0.4777 0.05655 0.0
H821 H 0.13319 0.50075 0.97271 0.0
C822 C 0.07067 0.51072 0.92876 0.0
C823 C 0.03636 0.51668 0.91115 0.0
C824 C 0.07629 0.49789 0.97673 0.0
C825 C 0.00743 0.50671 0.94024 0.0
C826 C 0.01279 0.49335 0.98809 0.0
C827 C 0.05273 0.47847 0.05585 0.0
C828 C 0.08714 0.47284 0.07373 0.0
C829 C 0.04708 0.48999 0.00715 0.0
C830 C 0.11597 0.48176 0.04368 0.0
C831 C 0.11056 0.49433 0.99552 0.0
H832 H 0.08804 0.0696 0.37292 0.0
H833 H 0.13648 0.11837 0.24521 0.0
H834 H 0.17804 0.14875 0.29949 0.0
H835 H 0.19553 0.16728 0.384 0.0
H836 H 0.1448 0.12095 0.51121 0.0
H837 H 0.10926 0.0837 0.45665 0.0
C838 C 0.10813 0.0863 0.35682 0.0
C839 C 0.109 0.09185 0.30507 0.0
C840 C 0.1314 0.10431 0.38833 0.0
C841 C 0.13508 0.11381 0.28494 0.0
C842 C 0.15883 0.13125 0.31597 0.0
C843 C 0.17756 0.14806 0.39951 0.0
C844 C 0.17325 0.14599 0.45126 0.0
C845 C 0.15659 0.12749 0.36779 0.0
C846 C 0.1491 0.12206 0.47137 0.0
C847 C 0.12855 0.10112 0.44019 0.0
H848 H 0.1878 0.80995 0.54137 0.0
H849 H 0.28328 0.78628 0.62145 0.0
H850 H 0.26377 0.82311 0.69053 0.0
H851 H 0.21662 0.85655 0.73221 0.0
H852 H 0.1214 0.88034 0.65167 0.0
H853 H 0.14382 0.84909 0.57905 0.0
C854 C 0.20464 0.81324 0.57357 0.0
C855 C 0.23674 0.79484 0.57645 0.0
C856 C 0.1931 0.8342 0.6135 0.0
C857 C 0.25827 0.79975 0.61838 0.0
C858 C 0.24708 0.82076 0.65805 0.0
C859 C 0.20102 0.85534 0.69851 0.0
C860 C 0.16726 0.87051 0.69768 0.0
C861 C 0.21407 0.83722 0.65669 0.0
C862 C 0.14751 0.86898 0.65347 0.0
C863 C 0.16023 0.85092 0.61189 0.0
H864 H 0.43096 0.83163 0.88878 0.0
H865 H 0.48101 0.8753 0.0183 0.0
H866 H 0.51589 0.91458 0.9658 0.0
H867 H 0.53734 0.93073 0.88301 0.0
H868 H 0.48911 0.88526 0.75278 0.0
H869 H 0.44781 0.85314 0.80531 0.0
C870 C 0.4487 0.85064 0.90528 0.0
C871 C 0.45322 0.85126 0.95705 0.0
C872 C 0.46921 0.87251 0.87471 0.0
C873 C 0.4768 0.87512 0.97843 0.0
C874 C 0.49692 0.89728 0.94843 0.0
C875 C 0.51734 0.9144 0.866 0.0
C876 C 0.51665 0.91014 0.81405 0.0
C877 C 0.49412 0.89542 0.89646 0.0
C878 C 0.49047 0.88883 0.79271 0.0
C879 C 0.46686 0.87033 0.82274 0.0
H880 H 0.44285 0.1568 0.24081 0.0
H881 H 0.48889 0.09118 0.12766 0.0
H882 H 0.45509 0.12194 0.06343 0.0
H883 H 0.41973 0.17343 0.03927 0.0
H884 H 0.37291 0.23835 0.15328 0.0
H885 H 0.39868 0.20124 0.21755 0.0
C886 C 0.44439 0.14852 0.20223 0.0
C887 C 0.46813 0.12198 0.18859 0.0
C888 C 0.42501 0.16641 0.16576 0.0
C889 C 0.47052 0.1115 0.13871 0.0
C890 C 0.45141 0.12924 0.10207 0.0
C891 C 0.41457 0.17903 0.07818 0.0
C892 C 0.39513 0.20912 0.09147 0.0
C893 C 0.42968 0.15768 0.11503 0.0
C894 C 0.3881 0.21563 0.14198 0.0
C895 C 0.40299 0.1945 0.17883 0.0
H896 H 0.9376 0.81669 0.60262 0.0
H897 H 0.9441 0.89846 0.49266 0.0
H898 H 0.9738 0.93691 0.55276 0.0
H899 H 0.00583 0.94308 0.63255 0.0
H900 H 0.99777 0.86055 0.7421 0.0
H901 H 0.96037 0.82683 0.68662 0.0
C902 C 0.94443 0.84342 0.59255 0.0
C903 C 0.93859 0.85502 0.54378 0.0
C904 C 0.96172 0.86497 0.62699 0.0
C905 C 0.9479 0.88937 0.53045 0.0
C906 C 0.96524 0.91111 0.56461 0.0
C907 C 0.99521 0.91809 0.64466 0.0
C908 C 0.0051 0.90421 0.69116 0.0
C909 C 0.97352 0.89863 0.61241 0.0
C910 C 0.9908 0.87192 0.70652 0.0
C911 C 0.96948 0.85244 0.67469 0.0
H912 H 0.88443 0.21324 0.38064 0.0
H913 H 0.95318 0.19303 0.50522 0.0
H914 H 0.9845 0.14875 0.457 0.0
H915 H 0.99801 0.12239 0.37581 0.0
H916 H 0.93022 0.1423 0.25084 0.0
H917 H 0.89273 0.17998 0.3027 0.0
C918 C 0.90581 0.19867 0.39757 0.0
C919 C 0.91684 0.20696 0.44618 0.0
C920 C 0.92407 0.1734 0.36938 0.0
C921 C 0.94443 0.18759 0.46766 0.0
C922 C 0.96244 0.16226 0.44009 0.0
C923 C 0.9743 0.13406 0.36059 0.0
C924 C 0.96646 0.12945 0.31006 0.0
C925 C 0.9533 0.15588 0.39043 0.0
C926 C 0.93616 0.145 0.29006 0.0
C927 C 0.91504 0.16685 0.31955 0.0
H928 H 0.62694 0.15682 0.0285 0.0
H929 H 0.73227 0.13341 0.07761 0.0
H930 H 0.7084 0.09619 0.14451 0.0
H931 H 0.65627 0.0729 0.1916 0.0
H932 H 0.55219 0.09627 0.13739 0.0
H933 H 0.57675 0.13142 0.07026 0.0
C934 C 0.64482 0.14349 0.05366 0.0
C935 C 0.68127 0.14805 0.04843 0.0
C936 C 0.63099 0.1223 0.0913 0.0
C937 C 0.70406 0.1302 0.08088 0.0
C938 C 0.69038 0.10911 0.11924 0.0
C939 C 0.63926 0.08536 0.1645 0.0
C940 C 0.60249 0.08184 0.16874 0.0
C941 C 0.65376 0.1053 0.1252 0.0
C942 C 0.5805 0.09826 0.13404 0.0
C943 C 0.59452 0.11846 0.09589 0.0
H944 H 0.6317 0.87908 0.87323 0.0
H945 H 0.70034 0.86834 0.74664 0.0
H946 H 0.74262 0.83514 0.79714 0.0
H947 H 0.75435 0.80105 0.87366 0.0
H948 H 0.68503 0.81353 2e-05 0.0
H949 H 0.64922 0.85489 0.95372 0.0
C950 C 0.65648 0.87036 0.85731 0.0
C951 C 0.66312 0.87578 0.80671 0.0
C952 C 0.68029 0.85131 0.88636 0.0
C953 C 0.69507 0.86453 0.78588 0.0
C954 C 0.719 0.84532 0.8146 0.0
C955 C 0.73197 0.81353 0.89145 0.0
C956 C 0.72181 0.80336 0.93967 0.0
C957 C 0.71114 0.83732 0.8644 0.0
C958 C 0.69304 0.82023 0.96252 0.0
C959 C 0.67242 0.8439 0.93607 0.0
H960 H 0.56822 0.60356 0.83612 0.0
H961 H 0.6603 0.57885 0.74859 0.0
H962 H 0.69792 0.60441 0.81317 0.0
H963 H 0.70367 0.63998 0.89041 0.0
H964 H 0.60983 0.66759 0.97227 0.0
H965 H 0.57387 0.6346 0.91396 0.0
C966 C 0.59656 0.60331 0.83114 0.0
C967 C 0.61139 0.58968 0.78727 0.0
C968 C 0.6177 0.61891 0.86734 0.0
C969 C 0.64818 0.58938 0.7819 0.0
C970 C 0.66968 0.60412 0.81872 0.0
C971 C 0.67544 0.63814 0.89571 0.0
C972 C 0.65929 0.65636 0.93511 0.0
C973 C 0.65463 0.61988 0.86099 0.0
C974 C 0.62272 0.65408 0.94175 0.0
C975 C 0.60214 0.63522 0.90851 0.0
H976 H 0.67927 0.31385 0.22193 0.0
H977 H 0.65687 0.40539 0.13367 0.0
H978 H 0.68578 0.37805 0.06129 0.0
H979 H 0.71277 0.32509 0.02198 0.0
H980 H 0.73746 0.23572 0.11416 0.0
H981 H 0.71224 0.26506 0.18635 0.0
C982 C 0.68142 0.32803 0.18703 0.0
C983 C 0.6662 0.36133 0.18262 0.0
C984 C 0.69811 0.31233 0.14635 0.0
C985 C 0.66888 0.37974 0.13761 0.0
C986 C 0.68507 0.36398 0.09631 0.0
C987 C 0.71304 0.31248 0.05814 0.0
C988 C 0.72689 0.2784 0.063 0.0
C989 C 0.69907 0.32988 0.09998 0.0
C990 C 0.72729 0.26213 0.10981 0.0
C991 C 0.71272 0.27877 0.15102 0.0
H992 H 0.02078 0.44042 0.33431 0.0
H993 H 0.03509 0.34955 0.2401 0.0
H994 H 0.99677 0.31535 0.29327 0.0
H995 H 0.96488 0.30892 0.37148 0.0
H996 H 0.94721 0.3989 0.46525 0.0
H997 H 0.9804 0.43599 0.40695 0.0
C998 C 0.01493 0.41335 0.32498 0.0
C999 C 0.03139 0.39751 0.28368 0.0
C1000 C 0.99232 0.39362 0.3557 0.0
C1001 C 0.02315 0.36248 0.27177 0.0
C1002 C 0.00123 0.34273 0.30228 0.0
C1003 C 0.96766 0.33685 0.37847 0.0
C1004 C 0.954 0.35129 0.42237 0.0
C1005 C 0.98656 0.35771 0.34502 0.0
C1006 C 0.95744 0.38742 0.43129 0.0
C1007 C 0.97666 0.40847 0.39824 0.0
H1008 H 0.99794 0.65549 0.65531 0.0
H1009 H 0.90027 0.61358 0.71079 0.0
H1010 H 0.86851 0.64146 0.64126 0.0
H1011 H 0.86894 0.68285 0.56918 0.0
H1012 H 0.96874 0.72348 0.51764 0.0
H1013 H -0.0007 0.69082 0.58132 0.0
C1014 C 0.9697 0.65213 0.65208 0.0
C1015 C 0.95128 0.63314 0.68826 0.0
C1016 C 0.95207 0.66819 0.61287 0.0
C1017 C 0.91487 0.62831 0.68319 0.0
C1018 C 0.89681 0.6444 0.64373 0.0
C1019 C 0.89738 0.68411 0.57163 0.0
C1020 C 0.91644 0.70564 0.53858 0.0
C1021 C 0.91512 0.66522 0.60901 0.0
C1022 C 0.95332 0.70693 0.54205 0.0
C1023 C 0.97093 0.68841 0.57874 0.0
H1024 H 0.5454 0.42523 0.13107 0.0
H1025 H 0.50428 0.37668 0.26407 0.0
H1026 H 0.46072 0.34524 0.21468 0.0
H1027 H 0.4402 0.32497 0.13275 0.0
H1028 H 0.48227 0.37175 -0.00029 0.0
H1029 H 0.51958 0.41053 0.04983 0.0
C1030 C 0.52643 0.40838 0.14942 0.0
C1031 C 0.52845 0.40297 0.20116 0.0
C1032 C 0.50186 0.38978 0.12064 0.0
C1033 C 0.50358 0.38106 0.22427 0.0
C1034 C 0.4787 0.36296 0.19603 0.0
C1035 C 0.45675 0.34451 0.11504 0.0
C1036 C 0.45832 0.34612 0.06299 0.0
C1037 C 0.47844 0.36615 0.14409 0.0
C1038 C 0.48027 0.37079 0.0399 0.0
C1039 C 0.50179 0.39265 0.06853 0.0
H1040 H 0.36918 0.696 0.90838 0.0
H1041 H 0.46163 0.69876 0.0018 0.0
H1042 H 0.49241 0.66017 0.94447 0.0
H1043 H 0.49584 0.6319 0.86344 0.0
H1044 H 0.40493 0.62829 0.76825 0.0
H1045 H 0.37037 0.66037 0.83111 0.0
C1046 C 0.39582 0.68762 0.91657 0.0
C1047 C 0.41317 0.70071 0.95897 0.0
C1048 C 0.41363 0.66535 0.88318 0.0
C1049 C 0.44762 0.68934 0.96937 0.0
C1050 C 0.46537 0.6673 0.93653 0.0
C1051 C 0.46816 0.6374 0.85711 0.0
C1052 C 0.45275 0.62796 0.81174 0.0
C1053 C 0.44899 0.65606 0.89275 0.0
C1054 C 0.41704 0.63509 0.80341 0.0
C1055 C 0.39751 0.65371 0.83905 0.0
H1056 H 0.12618 0.68571 0.57467 0.0
H1057 H 0.21845 0.61978 0.56931 0.0
H1058 H 0.19217 0.58075 0.63205 0.0
H1059 H 0.14279 0.56664 0.69035 0.0
H1060 H 0.05206 0.635 0.69251 0.0
H1061 H 0.07801 0.67165 0.62929 0.0
C1062 C 0.14079 0.66284 0.587 0.0
C1063 C 0.17438 0.65588 0.56748 0.0
C1064 C 0.12572 0.6409 0.6228 0.0
C1065 C 0.19258 0.62588 0.58389 0.0
C1066 C 0.17755 0.60358 0.61978 0.0
C1067 C 0.12874 0.58949 0.67682 0.0
C1068 C 0.09537 0.59795 0.69668 0.0
C1069 C 0.14411 0.61099 0.63985 0.0
C1070 C 0.07762 0.62768 0.67843 0.0
C1071 C 0.0925 0.64883 0.64206 0.0
H1072 H 0.13617 0.37129 0.36538 0.0
H1073 H 0.22018 0.36023 0.25893 0.0
H1074 H 0.25451 0.32615 0.31936 0.0
H1075 H 0.25601 0.29228 0.39794 0.0
H1076 H 0.17085 0.30418 0.50333 0.0
H1077 H 0.14181 0.34552 0.44819 0.0
C1078 C 0.16253 0.36237 0.35616 0.0
C1079 C 0.17583 0.36815 0.30821 0.0
C1080 C 0.18159 0.34248 0.3906 0.0
C1081 C 0.20978 0.35642 0.29608 0.0
C1082 C 0.22913 0.33657 0.33038 0.0
C1083 C 0.23144 0.30443 0.40921 0.0
C1084 C 0.21534 0.29457 0.45432 0.0
C1085 C 0.21464 0.32828 0.37708 0.0
C1086 C 0.18369 0.31089 0.46863 0.0
C1087 C 0.16697 0.33457 0.43707 0.0
loop_
_geom_bond_atom_site_label_1
_geom_bond_atom_site_label_2
_geom_bond_distance
_geom_bond_site_symmetry_2
_ccdc_geom_bond_type
Zn0 O6 1.969 1_455 S
Zn0 O7 1.965 . S
Zn0 O11 2.024 . S
Zn0 O16 1.969 . S
Zn1 O8 1.969 . S
Zn1 O14 1.969 . S
Zn1 O15 1.965 . S
Zn1 O17 2.024 1_455 S
C2 O3 1.229 . S
C2 O11 1.058 . S
O3 C2 1.229 . S
C4 O5 1.229 1_655 S
C4 O17 1.058 1_556 S
O5 C4 1.229 1_455 S
O6 Zn0 1.969 1_655 S
O6 C9 1.267 . S
O7 Zn0 1.965 . S
O7 C18 1.260 . S
O8 Zn1 1.969 . S
O8 C18 1.258 . S
C9 O6 1.267 . S
C9 O10 1.228 . S
O10 C9 1.228 . S
O11 Zn0 2.024 . S
O11 C2 1.058 . S
C12 O13 1.228 . S
C12 O14 1.267 1_556 S
O13 C12 1.228 . S
O14 Zn1 1.969 . S
O14 C12 1.267 1_554 S
O15 Zn1 1.965 . S
O15 C19 1.260 . S
O16 Zn0 1.969 . S
O16 C19 1.258 . S
O17 Zn1 2.024 1_655 S
O17 C4 1.058 1_554 S
C18 O7 1.260 . S
C18 O8 1.258 . S
C19 O15 1.260 . S
C19 O16 1.258 . S
Zn20 O26 1.969 . S
Zn20 O27 1.965 . S
Zn20 O31 2.024 . S
Zn20 O36 1.969 . S
Zn21 O28 1.969 . S
Zn21 O34 1.969 . S
Zn21 O35 1.965 . S
Zn21 O37 2.024 . S
C22 O23 1.229 . S
C22 O31 1.058 . S
O23 C22 1.229 . S
C24 O25 1.229 . S
C24 O37 1.058 . S
O25 C24 1.229 . S
O26 Zn20 1.969 . S
O26 C29 1.267 . S
O27 Zn20 1.965 . S
O27 C38 1.260 . S
O28 Zn21 1.969 . S
O28 C38 1.258 . S
C29 O26 1.267 . S
C29 O30 1.228 . S
O30 C29 1.228 . S
O31 Zn20 2.024 . S
O31 C22 1.058 . S
C32 O33 1.228 . S
C32 O34 1.267 . S
O33 C32 1.228 . S
O34 Zn21 1.969 . S
O34 C32 1.267 . S
O35 Zn21 1.965 . S
O35 C39 1.260 . S
O36 Zn20 1.969 . S
O36 C39 1.258 . S
O37 Zn21 2.024 . S
O37 C24 1.058 . S
C38 O27 1.260 . S
C38 O28 1.258 . S
C39 O35 1.260 . S
C39 O36 1.258 . S
Zn40 O46 1.969 . S
Zn40 O47 1.965 . S
Zn40 O51 2.024 . S
Zn40 O56 1.969 . S
Zn41 O48 1.969 . S
Zn41 O54 1.969 . S
Zn41 O55 1.965 . S
Zn41 O57 2.024 . S
C42 O43 1.229 . S
C42 O51 1.058 . S
O43 C42 1.229 . S
C44 O45 1.229 . S
C44 O57 1.058 . S
O45 C44 1.229 . S
O46 Zn40 1.969 . S
O46 C49 1.267 . S
O47 Zn40 1.965 . S
O47 C58 1.260 . S
O48 Zn41 1.969 . S
O48 C58 1.258 . S
C49 O46 1.267 . S
C49 O50 1.228 . S
O50 C49 1.228 . S
O51 Zn40 2.024 . S
O51 C42 1.058 . S
C52 O53 1.228 . S
C52 O54 1.267 . S
O53 C52 1.228 . S
O54 Zn41 1.969 . S
O54 C52 1.267 . S
O55 Zn41 1.965 . S
O55 C59 1.260 . S
O56 Zn40 1.969 . S
O56 C59 1.258 . S
O57 Zn41 2.024 . S
O57 C44 1.058 . S
C58 O47 1.260 . S
C58 O48 1.258 . S
C59 O55 1.260 . S
C59 O56 1.258 . S
Zn60 O66 1.969 . S
Zn60 O67 1.965 . S
Zn60 O71 2.024 . S
Zn60 O76 1.969 . S
Zn61 O68 1.969 . S
Zn61 O74 1.969 . S
Zn61 O75 1.965 . S
Zn61 O77 2.024 . S
C62 O63 1.228 1_556 S
C62 O71 1.061 . S
O63 C62 1.228 1_554 S
C64 O65 1.229 . S
C64 O77 1.058 . S
O65 C64 1.229 . S
O66 Zn60 1.969 . S
O66 C69 1.267 1_556 S
O67 Zn60 1.965 . S
O67 C78 1.260 . S
O68 Zn61 1.969 . S
O68 C78 1.258 . S
C69 O66 1.267 1_554 S
C69 O70 1.228 . S
O70 C69 1.228 . S
O71 Zn60 2.024 . S
O71 C62 1.061 . S
C72 O73 1.228 . S
C72 O74 1.267 . S
O73 C72 1.228 . S
O74 Zn61 1.969 . S
O74 C72 1.267 . S
O75 Zn61 1.965 . S
O75 C79 1.260 . S
O76 Zn60 1.969 . S
O76 C79 1.258 . S
O77 Zn61 2.024 . S
O77 C64 1.058 . S
C78 O67 1.260 . S
C78 O68 1.258 . S
C79 O75 1.260 . S
C79 O76 1.258 . S
Zn80 O86 1.969 . S
Zn80 O87 1.965 . S
Zn80 O91 2.024 . S
Zn80 O96 1.969 . S
Zn81 O88 1.969 . S
Zn81 O94 1.969 . S
Zn81 O95 1.965 . S
Zn81 O97 2.024 . S
C82 O83 1.229 . S
C82 O91 1.058 1_554 S
O83 C82 1.229 . S
C84 O85 1.229 . S
C84 O97 1.058 . S
O85 C84 1.229 . S
O86 Zn80 1.969 . S
O86 C89 1.267 1_556 S
O87 Zn80 1.965 . S
O87 C98 1.260 . S
O88 Zn81 1.969 . S
O88 C98 1.258 . S
C89 O86 1.267 1_554 S
C89 O90 1.228 . S
O90 C89 1.228 . S
O91 Zn80 2.024 . S
O91 C82 1.058 1_556 S
C92 O93 1.228 . S
C92 O94 1.267 . S
O93 C92 1.228 . S
O94 Zn81 1.969 . S
O94 C92 1.267 . S
O95 Zn81 1.965 . S
O95 C99 1.260 . S
O96 Zn80 1.969 . S
O96 C99 1.258 . S
O97 Zn81 2.024 . S
O97 C84 1.058 . S
C98 O87 1.260 . S
C98 O88 1.258 . S
C99 O95 1.260 . S
C99 O96 1.258 . S
Zn100 O106 1.969 . S
Zn100 O107 1.965 . S
Zn100 O111 2.024 . S
Zn100 O116 1.969 . S
Zn101 O108 1.969 . S
Zn101 O114 1.969 . S
Zn101 O115 1.965 . S
Zn101 O117 2.024 . S
C102 O103 1.229 . S
C102 O111 1.058 . S
O103 C102 1.229 . S
C104 O105 1.228 1_554 S
C104 O117 1.061 . S
O105 C104 1.228 1_556 S
O106 Zn100 1.969 . S
O106 C109 1.267 . S
O107 Zn100 1.965 . S
O107 C118 1.260 . S
O108 Zn101 1.969 . S
O108 C118 1.258 . S
C109 O106 1.267 . S
C109 O110 1.228 . S
O110 C109 1.228 . S
O111 Zn100 2.024 . S
O111 C102 1.058 . S
C112 O113 1.228 . S
C112 O114 1.267 1_556 S
O113 C112 1.228 . S
O114 Zn101 1.969 . S
O114 C112 1.267 1_554 S
O115 Zn101 1.965 . S
O115 C119 1.260 . S
O116 Zn100 1.969 . S
O116 C119 1.258 . S
O117 Zn101 2.024 . S
O117 C104 1.061 . S
C118 O107 1.260 . S
C118 O108 1.258 . S
C119 O115 1.260 . S
C119 O116 1.258 . S
Zn120 O126 1.969 . S
Zn120 O127 1.965 . S
Zn120 O131 2.024 . S
Zn120 O136 1.969 . S
Zn121 O128 1.969 . S
Zn121 O134 1.969 . S
Zn121 O135 1.965 . S
Zn121 O137 2.024 . S
C122 O123 1.229 . S
C122 O131 1.058 . S
O123 C122 1.229 . S
C124 O125 1.229 . S
C124 O137 1.058 . S
O125 C124 1.229 . S
O126 Zn120 1.969 . S
O126 C129 1.267 . S
O127 Zn120 1.965 . S
O127 C138 1.260 . S
O128 Zn121 1.969 . S
O128 C138 1.258 . S
C129 O126 1.267 . S
C129 O130 1.228 . S
O130 C129 1.228 . S
O131 Zn120 2.024 . S
O131 C122 1.058 . S
C132 O133 1.228 . S
C132 O134 1.267 . S
O133 C132 1.228 . S
O134 Zn121 1.969 . S
O134 C132 1.267 . S
O135 Zn121 1.965 . S
O135 C139 1.260 . S
O136 Zn120 1.969 . S
O136 C139 1.258 . S
O137 Zn121 2.024 . S
O137 C124 1.058 . S
C138 O127 1.260 . S
C138 O128 1.258 . S
C139 O135 1.260 . S
C139 O136 1.258 . S
Zn140 O146 1.969 . S
Zn140 O147 1.965 . S
Zn140 O151 2.024 . S
Zn140 O156 1.969 . S
Zn141 O148 1.969 . S
Zn141 O154 1.969 . S
Zn141 O155 1.965 . S
Zn141 O157 2.024 . S
C142 O143 1.229 . S
C142 O151 1.058 . S
O143 C142 1.229 . S
C144 O145 1.229 . S
C144 O157 1.058 . S
O145 C144 1.229 . S
O146 Zn140 1.969 . S
O146 C149 1.267 . S
O147 Zn140 1.965 . S
O147 C158 1.260 . S
O148 Zn141 1.969 . S
O148 C158 1.258 . S
C149 O146 1.267 . S
C149 O150 1.228 . S
O150 C149 1.228 . S
O151 Zn140 2.024 . S
O151 C142 1.058 . S
C152 O153 1.228 . S
C152 O154 1.267 . S
O153 C152 1.228 . S
O154 Zn141 1.969 . S
O154 C152 1.267 . S
O155 Zn141 1.965 . S
O155 C159 1.260 . S
O156 Zn140 1.969 . S
O156 C159 1.258 . S
O157 Zn141 2.024 . S
O157 C144 1.058 . S
C158 O147 1.260 . S
C158 O148 1.258 . S
C159 O155 1.260 . S
C159 O156 1.258 . S
Zn160 O166 1.969 . S
Zn160 O167 1.965 . S
Zn160 O171 2.024 . S
Zn160 O176 1.969 . S
Zn161 O168 1.969 . S
Zn161 O174 1.969 . S
Zn161 O175 1.965 . S
Zn161 O177 2.024 . S
C162 O163 1.229 . S
C162 O171 1.058 . S
O163 C162 1.229 . S
C164 O165 1.229 . S
C164 O177 1.058 . S
O165 C164 1.229 . S
O166 Zn160 1.969 . S
O166 C169 1.267 . S
O167 Zn160 1.965 . S
O167 C178 1.260 . S
O168 Zn161 1.969 . S
O168 C178 1.258 . S
C169 O166 1.267 . S
C169 O170 1.228 . S
O170 C169 1.228 . S
O171 Zn160 2.024 . S
O171 C162 1.058 . S
C172 O173 1.228 . S
C172 O174 1.267 . S
O173 C172 1.228 . S
O174 Zn161 1.969 . S
O174 C172 1.267 . S
O175 Zn161 1.965 . S
O175 C179 1.260 . S
O176 Zn160 1.969 . S
O176 C179 1.258 . S
O177 Zn161 2.024 . S
O177 C164 1.058 . S
C178 O167 1.260 . S
C178 O168 1.258 . S
C179 O175 1.260 . S
C179 O176 1.258 . S
Zn180 O186 1.969 . S
Zn180 O187 1.965 . S
Zn180 O191 2.024 . S
Zn180 O196 1.969 . S
Zn181 O188 1.969 . S
Zn181 O194 1.969 . S
Zn181 O195 1.965 . S
Zn181 O197 2.024 . S
C182 O183 1.229 . S
C182 O191 1.058 . S
O183 C182 1.229 . S
C184 O185 1.228 1_554 S
C184 O197 1.061 . S
O185 C184 1.228 1_556 S
O186 Zn180 1.969 . S
O186 C189 1.267 . S
O187 Zn180 1.965 . S
O187 C198 1.260 . S
O188 Zn181 1.969 . S
O188 C198 1.258 . S
C189 O186 1.267 . S
C189 O190 1.228 . S
O190 C189 1.228 . S
O191 Zn180 2.024 . S
O191 C182 1.058 . S
C192 O193 1.228 . S
C192 O194 1.267 1_556 S
O193 C192 1.228 . S
O194 Zn181 1.969 . S
O194 C192 1.267 1_554 S
O195 Zn181 1.965 . S
O195 C199 1.260 . S
O196 Zn180 1.969 . S
O196 C199 1.258 . S
O197 Zn181 2.024 . S
O197 C184 1.061 . S
C198 O187 1.260 . S
C198 O188 1.258 . S
C199 O195 1.260 . S
C199 O196 1.258 . S
Zn200 O206 1.969 . S
Zn200 O207 1.965 . S
Zn200 O211 2.024 . S
Zn200 O216 1.969 . S
Zn201 O208 1.969 . S
Zn201 O214 1.969 . S
Zn201 O215 1.965 . S
Zn201 O217 2.024 . S
C202 O203 1.228 1_556 S
C202 O211 1.061 . S
O203 C202 1.228 1_554 S
C204 O205 1.229 . S
C204 O217 1.058 . S
O205 C204 1.229 . S
O206 Zn200 1.969 . S
O206 C209 1.267 1_556 S
O207 Zn200 1.965 . S
O207 C218 1.260 . S
O208 Zn201 1.969 . S
O208 C218 1.258 . S
C209 O206 1.267 1_554 S
C209 O210 1.228 . S
O210 C209 1.228 . S
O211 Zn200 2.024 . S
O211 C202 1.061 . S
C212 O213 1.228 . S
C212 O214 1.267 . S
O213 C212 1.228 . S
O214 Zn201 1.969 . S
O214 C212 1.267 . S
O215 Zn201 1.965 . S
O215 C219 1.260 . S
O216 Zn200 1.969 . S
O216 C219 1.258 . S
O217 Zn201 2.024 . S
O217 C204 1.058 . S
C218 O207 1.260 . S
C218 O208 1.258 . S
C219 O215 1.260 . S
C219 O216 1.258 . S
Zn220 O226 1.969 . S
Zn220 O227 1.965 . S
Zn220 O231 2.024 . S
Zn220 O236 1.969 . S
Zn221 O228 1.969 . S
Zn221 O234 1.969 . S
Zn221 O235 1.965 . S
Zn221 O237 2.024 . S
C222 O223 1.229 . S
C222 O231 1.058 . S
O223 C222 1.229 . S
C224 O225 1.229 . S
C224 O237 1.058 . S
O225 C224 1.229 . S
O226 Zn220 1.969 . S
O226 C229 1.267 . S
O227 Zn220 1.965 . S
O227 C238 1.260 . S
O228 Zn221 1.969 . S
O228 C238 1.258 . S
C229 O226 1.267 . S
C229 O230 1.228 . S
O230 C229 1.228 . S
O231 Zn220 2.024 . S
O231 C222 1.058 . S
C232 O233 1.228 . S
C232 O234 1.267 . S
O233 C232 1.228 . S
O234 Zn221 1.969 . S
O234 C232 1.267 . S
O235 Zn221 1.965 . S
O235 C239 1.260 . S
O236 Zn220 1.969 . S
O236 C239 1.258 . S
O237 Zn221 2.024 . S
O237 C224 1.058 . S
C238 O227 1.260 . S
C238 O228 1.258 . S
C239 O235 1.260 . S
C239 O236 1.258 . S
Zn240 O246 1.969 . S
Zn240 O247 1.965 . S
Zn240 O251 2.024 . S
Zn240 O256 1.969 . S
Zn241 O248 1.969 . S
Zn241 O254 1.969 . S
Zn241 O255 1.965 . S
Zn241 O257 2.024 . S
C242 O243 1.229 . S
C242 O251 1.058 . S
O243 C242 1.229 . S
C244 O245 1.229 . S
C244 O257 1.058 . S
O245 C244 1.229 . S
O246 Zn240 1.969 . S
O246 C249 1.267 . S
O247 Zn240 1.965 . S
O247 C258 1.260 . S
O248 Zn241 1.969 . S
O248 C258 1.258 . S
C249 O246 1.267 . S
C249 O250 1.228 . S
O250 C249 1.228 . S
O251 Zn240 2.024 . S
O251 C242 1.058 . S
C252 O253 1.228 . S
C252 O254 1.267 . S
O253 C252 1.228 . S
O254 Zn241 1.969 . S
O254 C252 1.267 . S
O255 Zn241 1.965 . S
O255 C259 1.260 . S
O256 Zn240 1.969 . S
O256 C259 1.258 . S
O257 Zn241 2.024 . S
O257 C244 1.058 . S
C258 O247 1.260 . S
C258 O248 1.258 . S
C259 O255 1.260 . S
C259 O256 1.258 . S
Zn260 O266 1.969 . S
Zn260 O267 1.965 . S
Zn260 O271 2.024 . S
Zn260 O276 1.969 . S
Zn261 O268 1.969 . S
Zn261 O274 1.969 . S
Zn261 O275 1.965 . S
Zn261 O277 2.024 . S
C262 O263 1.229 . S
C262 O271 1.058 . S
O263 C262 1.229 . S
C264 O265 1.229 . S
C264 O277 1.058 1_556 S
O265 C264 1.229 . S
O266 Zn260 1.969 . S
O266 C269 1.267 . S
O267 Zn260 1.965 . S
O267 C278 1.260 . S
O268 Zn261 1.969 . S
O268 C278 1.258 . S
C269 O266 1.267 . S
C269 O270 1.228 . S
O270 C269 1.228 . S
O271 Zn260 2.024 . S
O271 C262 1.058 . S
C272 O273 1.228 . S
C272 O274 1.267 1_556 S
O273 C272 1.228 . S
O274 Zn261 1.969 . S
O274 C272 1.267 1_554 S
O275 Zn261 1.965 . S
O275 C279 1.260 . S
O276 Zn260 1.969 . S
O276 C279 1.258 . S
O277 Zn261 2.024 . S
O277 C264 1.058 1_554 S
C278 O267 1.260 . S
C278 O268 1.258 . S
C279 O275 1.260 . S
C279 O276 1.258 . S
Zn280 O286 1.969 . S
Zn280 O287 1.965 . S
Zn280 O291 2.024 . S
Zn280 O296 1.969 . S
Zn281 O288 1.969 . S
Zn281 O294 1.969 . S
Zn281 O295 1.965 . S
Zn281 O297 2.024 . S
C282 O283 1.229 . S
C282 O291 1.058 . S
O283 C282 1.229 . S
C284 O285 1.229 . S
C284 O297 1.058 . S
O285 C284 1.229 . S
O286 Zn280 1.969 . S
O286 C289 1.267 . S
O287 Zn280 1.965 . S
O287 C298 1.260 . S
O288 Zn281 1.969 . S
O288 C298 1.258 . S
C289 O286 1.267 . S
C289 O290 1.228 . S
O290 C289 1.228 . S
O291 Zn280 2.024 . S
O291 C282 1.058 . S
C292 O293 1.228 . S
C292 O294 1.267 . S
O293 C292 1.228 . S
O294 Zn281 1.969 . S
O294 C292 1.267 . S
O295 Zn281 1.965 . S
O295 C299 1.260 . S
O296 Zn280 1.969 . S
O296 C299 1.258 . S
O297 Zn281 2.024 . S
O297 C284 1.058 . S
C298 O287 1.260 . S
C298 O288 1.258 . S
C299 O295 1.260 . S
C299 O296 1.258 . S
Zn300 O306 1.969 . S
Zn300 O307 1.965 . S
Zn300 O311 2.024 1_455 S
Zn300 O316 1.969 . S
Zn301 O308 1.969 . S
Zn301 O314 1.969 1_455 S
Zn301 O315 1.965 . S
Zn301 O317 2.024 . S
C302 O303 1.229 1_655 S
C302 O311 1.058 1_554 S
O303 C302 1.229 1_455 S
C304 O305 1.229 . S
C304 O317 1.058 . S
O305 C304 1.229 . S
O306 Zn300 1.969 . S
O306 C309 1.267 1_556 S
O307 Zn300 1.965 . S
O307 C318 1.260 . S
O308 Zn301 1.969 . S
O308 C318 1.258 . S
C309 O306 1.267 1_554 S
C309 O310 1.228 . S
O310 C309 1.228 . S
O311 Zn300 2.024 1_655 S
O311 C302 1.058 1_556 S
C312 O313 1.228 . S
C312 O314 1.267 . S
O313 C312 1.228 . S
O314 Zn301 1.969 1_655 S
O314 C312 1.267 . S
O315 Zn301 1.965 . S
O315 C319 1.260 . S
O316 Zn300 1.969 . S
O316 C319 1.258 . S
O317 Zn301 2.024 . S
O317 C304 1.058 . S
C318 O307 1.260 . S
C318 O308 1.258 . S
C319 O315 1.260 . S
C319 O316 1.258 . S
H320 C326 0.930 . S
H321 C329 0.930 . S
H322 C330 0.930 . S
H323 C331 0.930 . S
H324 C334 0.930 . S
H325 C335 0.930 . S
C326 H320 0.930 . S
C326 C327 1.355 . S
C326 C328 1.415 . S
C327 C326 1.355 . S
C327 C329 1.419 . S
C328 C326 1.415 . S
C328 C333 1.425 . S
C328 C335 1.409 . S
C329 H321 0.930 . S
C329 C327 1.419 . S
C329 C330 1.362 . S
C330 H322 0.930 . S
C330 C329 1.362 . S
C330 C333 1.409 . S
C331 H323 0.930 . S
C331 C332 1.355 . S
C331 C333 1.415 . S
C332 C331 1.355 . S
C332 C334 1.419 . S
C333 C328 1.425 . S
C333 C330 1.409 . S
C333 C331 1.415 . S
C334 H324 0.930 . S
C334 C332 1.419 . S
C334 C335 1.362 . S
C335 H325 0.930 . S
C335 C328 1.409 . S
C335 C334 1.362 . S
H336 C342 0.930 . S
H337 C345 0.930 . S
H338 C346 0.930 . S
H339 C347 0.930 . S
H340 C350 0.930 . S
H341 C351 0.930 . S
C342 H336 0.930 . S
C342 C343 1.355 . S
C342 C344 1.415 . S
C343 C342 1.355 . S
C343 C345 1.419 . S
C344 C342 1.415 . S
C344 C349 1.425 . S
C344 C351 1.409 . S
C345 H337 0.930 . S
C345 C343 1.419 . S
C345 C346 1.362 . S
C346 H338 0.930 . S
C346 C345 1.362 . S
C346 C349 1.409 . S
C347 H339 0.930 . S
C347 C348 1.355 . S
C347 C349 1.415 . S
C348 C347 1.355 . S
C348 C350 1.419 . S
C349 C344 1.425 . S
C349 C346 1.409 . S
C349 C347 1.415 . S
C350 H340 0.930 . S
C350 C348 1.419 . S
C350 C351 1.362 . S
C351 H341 0.930 . S
C351 C344 1.409 . S
C351 C350 1.362 . S
H352 C358 0.930 . S
H353 C361 0.930 . S
H354 C362 0.930 . S
H355 C363 0.930 . S
H356 C366 0.930 . S
H357 C367 0.930 . S
C358 H352 0.930 . S
C358 C359 1.355 . S
C358 C360 1.415 . S
C359 C358 1.355 . S
C359 C361 1.419 . S
C360 C358 1.415 . S
C360 C365 1.425 . S
C360 C367 1.409 . S
C361 H353 0.930 . S
C361 C359 1.419 . S
C361 C362 1.362 . S
C362 H354 0.930 . S
C362 C361 1.362 . S
C362 C365 1.409 . S
C363 H355 0.930 . S
C363 C364 1.355 . S
C363 C365 1.415 . S
C364 C363 1.355 . S
C364 C366 1.419 . S
C365 C360 1.425 . S
C365 C362 1.409 . S
C365 C363 1.415 . S
C366 H356 0.930 . S
C366 C364 1.419 . S
C366 C367 1.362 . S
C367 H357 0.930 . S
C367 C360 1.409 . S
C367 C366 1.362 . S
H368 C374 0.930 . S
H369 C377 0.930 . S
H370 C378 0.930 . S
H371 C379 0.930 . S
H372 C382 0.930 . S
H373 C383 0.930 . S
C374 H368 0.930 . S
C374 C375 1.355 . S
C374 C376 1.415 . S
C375 C374 1.355 . S
C375 C377 1.419 . S
C376 C374 1.415 . S
C376 C381 1.425 . S
C376 C383 1.409 . S
C377 H369 0.930 . S
C377 C375 1.419 . S
C377 C378 1.362 . S
C378 H370 0.930 . S
C378 C377 1.362 . S
C378 C381 1.409 . S
C379 H371 0.930 . S
C379 C380 1.355 . S
C379 C381 1.415 . S
C380 C379 1.355 . S
C380 C382 1.419 . S
C381 C376 1.425 . S
C381 C378 1.409 . S
C381 C379 1.415 . S
C382 H372 0.930 . S
C382 C380 1.419 . S
C382 C383 1.362 . S
C383 H373 0.930 . S
C383 C376 1.409 . S
C383 C382 1.362 . S
H384 C390 0.930 1_455 S
H385 C393 0.930 . S
H386 C394 0.930 . S
H387 C395 0.930 . S
H388 C398 0.930 . S
H389 C399 0.930 . S
C390 H384 0.930 1_655 S
C390 C391 1.355 . S
C390 C392 1.415 1_655 S
C391 C390 1.355 . S
C391 C393 1.419 . S
C392 C390 1.415 1_455 S
C392 C397 1.425 1_455 S
C392 C399 1.409 . S
C393 H385 0.930 . S
C393 C391 1.419 . S
C393 C394 1.362 . S
C394 H386 0.930 . S
C394 C393 1.362 . S
C394 C397 1.409 . S
C395 H387 0.930 . S
C395 C396 1.355 1_655 S
C395 C397 1.415 . S
C396 C395 1.355 1_455 S
C396 C398 1.419 . S
C397 C392 1.425 1_655 S
C397 C394 1.409 . S
C397 C395 1.415 . S
C398 H388 0.930 . S
C398 C396 1.419 . S
C398 C399 1.362 . S
C399 H389 0.930 . S
C399 C392 1.409 . S
C399 C398 1.362 . S
H400 C406 0.930 . S
H401 C409 0.930 . S
H402 C410 0.930 . S
H403 C411 0.930 . S
H404 C414 0.930 . S
H405 C415 0.930 . S
C406 H400 0.930 . S
C406 C407 1.355 . S
C406 C408 1.415 . S
C407 C406 1.355 . S
C407 C409 1.419 . S
C408 C406 1.415 . S
C408 C413 1.425 . S
C408 C415 1.409 . S
C409 H401 0.930 . S
C409 C407 1.419 . S
C409 C410 1.362 . S
C410 H402 0.930 . S
C410 C409 1.362 . S
C410 C413 1.409 . S
C411 H403 0.930 . S
C411 C412 1.355 . S
C411 C413 1.415 . S
C412 C411 1.355 . S
C412 C414 1.419 . S
C413 C408 1.425 . S
C413 C410 1.409 . S
C413 C411 1.415 . S
C414 H404 0.930 . S
C414 C412 1.419 . S
C414 C415 1.362 . S
C415 H405 0.930 . S
C415 C408 1.409 . S
C415 C414 1.362 . S
H416 C422 0.930 . S
H417 C425 0.930 . S
H418 C426 0.930 . S
H419 C427 0.930 . S
H420 C430 0.930 . S
H421 C431 0.930 . S
C422 H416 0.930 . S
C422 C423 1.355 . S
C422 C424 1.415 . S
C423 C422 1.355 . S
C423 C425 1.419 . S
C424 C422 1.415 . S
C424 C429 1.425 . S
C424 C431 1.409 . S
C425 H417 0.930 . S
C425 C423 1.419 . S
C425 C426 1.362 . S
C426 H418 0.930 . S
C426 C425 1.362 . S
C426 C429 1.409 . S
C427 H419 0.930 . S
C427 C428 1.355 . S
C427 C429 1.415 . S
C428 C427 1.355 . S
C428 C430 1.419 . S
C429 C424 1.425 . S
C429 C426 1.409 . S
C429 C427 1.415 . S
C430 H420 0.930 . S
C430 C428 1.419 . S
C430 C431 1.362 . S
C431 H421 0.930 . S
C431 C424 1.409 . S
C431 C430 1.362 . S
H432 C438 0.930 . S
H433 C441 0.930 . S
H434 C442 0.930 . S
H435 C443 0.930 . S
H436 C446 0.930 . S
H437 C447 0.930 . S
C438 H432 0.930 . S
C438 C439 1.355 . S
C438 C440 1.415 . S
C439 C438 1.355 . S
C439 C441 1.419 . S
C440 C438 1.415 . S
C440 C445 1.425 . S
C440 C447 1.409 . S
C441 H433 0.930 . S
C441 C439 1.419 . S
C441 C442 1.362 . S
C442 H434 0.930 . S
C442 C441 1.362 . S
C442 C445 1.409 . S
C443 H435 0.930 . S
C443 C444 1.355 . S
C443 C445 1.415 . S
C444 C443 1.355 . S
C444 C446 1.419 . S
C445 C440 1.425 . S
C445 C442 1.409 . S
C445 C443 1.415 . S
C446 H436 0.930 . S
C446 C444 1.419 . S
C446 C447 1.362 . S
C447 H437 0.930 . S
C447 C440 1.409 . S
C447 C446 1.362 . S
H448 C454 0.930 . S
H449 C457 0.930 . S
H450 C458 0.930 . S
H451 C459 0.930 . S
H452 C462 0.930 . S
H453 C463 0.930 . S
C454 H448 0.930 . S
C454 C455 1.355 . S
C454 C456 1.415 . S
C455 C454 1.355 . S
C455 C457 1.419 . S
C456 C454 1.415 . S
C456 C461 1.425 . S
C456 C463 1.409 . S
C457 H449 0.930 . S
C457 C455 1.419 . S
C457 C458 1.362 . S
C458 H450 0.930 . S
C458 C457 1.362 . S
C458 C461 1.409 . S
C459 H451 0.930 . S
C459 C460 1.355 . S
C459 C461 1.415 . S
C460 C459 1.355 . S
C460 C462 1.419 . S
C461 C456 1.425 . S
C461 C458 1.409 . S
C461 C459 1.415 . S
C462 H452 0.930 . S
C462 C460 1.419 . S
C462 C463 1.362 . S
C463 H453 0.930 . S
C463 C456 1.409 . S
C463 C462 1.362 . S
H464 C470 0.930 . S
H465 C473 0.930 . S
H466 C474 0.930 . S
H467 C475 0.930 . S
H468 C478 0.930 . S
H469 C479 0.930 . S
C470 H464 0.930 . S
C470 C471 1.355 . S
C470 C472 1.415 . S
C471 C470 1.355 . S
C471 C473 1.419 . S
C472 C470 1.415 . S
C472 C477 1.425 . S
C472 C479 1.409 . S
C473 H465 0.930 . S
C473 C471 1.419 . S
C473 C474 1.362 . S
C474 H466 0.930 . S
C474 C473 1.362 . S
C474 C477 1.409 . S
C475 H467 0.930 . S
C475 C476 1.355 . S
C475 C477 1.415 . S
C476 C475 1.355 . S
C476 C478 1.419 . S
C477 C472 1.425 . S
C477 C474 1.409 . S
C477 C475 1.415 . S
C478 H468 0.930 . S
C478 C476 1.419 . S
C478 C479 1.362 . S
C479 H469 0.930 . S
C479 C472 1.409 . S
C479 C478 1.362 . S
H480 C486 0.930 . S
H481 C489 0.930 . S
H482 C490 0.934 . S
H483 C491 0.930 . S
H484 C494 0.930 . S
H485 C495 0.930 . S
C486 H480 0.930 . S
C486 C487 1.355 . S
C486 C488 1.415 1_455 S
C487 C486 1.355 . S
C487 C489 1.419 . S
C488 C486 1.415 1_655 S
C488 C493 1.425 . S
C488 C495 1.409 . S
C489 H481 0.930 . S
C489 C487 1.419 . S
C489 C490 1.354 1_455 S
C490 H482 0.934 . S
C490 C489 1.354 1_655 S
C490 C493 1.414 . S
C491 H483 0.930 . S
C491 C492 1.355 . S
C491 C493 1.415 . S
C492 C491 1.355 . S
C492 C494 1.419 . S
C493 C488 1.425 . S
C493 C490 1.414 . S
C493 C491 1.415 . S
C494 H484 0.930 . S
C494 C492 1.419 . S
C494 C495 1.362 . S
C495 H485 0.930 . S
C495 C488 1.409 . S
C495 C494 1.362 . S
H496 C502 0.930 . S
H497 C505 0.930 . S
H498 C506 0.930 . S
H499 C507 0.930 . S
H500 C510 0.930 1_556 S
H501 C511 0.930 . S
C502 H496 0.930 . S
C502 C503 1.355 . S
C502 C504 1.415 . S
C503 C502 1.355 . S
C503 C505 1.419 . S
C504 C502 1.415 . S
C504 C509 1.425 . S
C504 C511 1.409 . S
C505 H497 0.930 . S
C505 C503 1.419 . S
C505 C506 1.362 . S
C506 H498 0.930 . S
C506 C505 1.362 . S
C506 C509 1.409 . S
C507 H499 0.930 . S
C507 C508 1.355 . S
C507 C509 1.415 . S
C508 C507 1.355 . S
C508 C510 1.419 . S
C509 C504 1.425 . S
C509 C506 1.409 . S
C509 C507 1.415 . S
C510 H500 0.930 1_554 S
C510 C508 1.419 . S
C510 C511 1.362 . S
C511 H501 0.930 . S
C511 C504 1.409 . S
C511 C510 1.362 . S
H512 C518 0.930 . S
H513 C521 0.930 . S
H514 C522 0.930 . S
H515 C523 0.930 . S
H516 C526 0.930 . S
H517 C527 0.930 . S
C518 H512 0.930 . S
C518 C519 1.355 . S
C518 C520 1.415 . S
C519 C518 1.355 . S
C519 C521 1.419 . S
C520 C518 1.415 . S
C520 C525 1.425 . S
C520 C527 1.409 . S
C521 H513 0.930 . S
C521 C519 1.419 . S
C521 C522 1.362 . S
C522 H514 0.930 . S
C522 C521 1.362 . S
C522 C525 1.409 . S
C523 H515 0.930 . S
C523 C524 1.355 . S
C523 C525 1.415 . S
C524 C523 1.355 . S
C524 C526 1.419 . S
C525 C520 1.425 . S
C525 C522 1.409 . S
C525 C523 1.415 . S
C526 H516 0.930 . S
C526 C524 1.419 . S
C526 C527 1.362 . S
C527 H517 0.930 . S
C527 C520 1.409 . S
C527 C526 1.362 . S
H528 C534 0.930 . S
H529 C537 0.930 . S
H530 C538 0.930 . S
H531 C539 0.930 . S
H532 C542 0.930 . S
H533 C543 0.930 . S
C534 H528 0.930 . S
C534 C535 1.355 . S
C534 C536 1.415 . S
C535 C534 1.355 . S
C535 C537 1.419 . S
C536 C534 1.415 . S
C536 C541 1.425 . S
C536 C543 1.409 . S
C537 H529 0.930 . S
C537 C535 1.419 . S
C537 C538 1.362 . S
C538 H530 0.930 . S
C538 C537 1.362 . S
C538 C541 1.409 . S
C539 H531 0.930 . S
C539 C540 1.355 . S
C539 C541 1.415 . S
C540 C539 1.355 . S
C540 C542 1.419 . S
C541 C536 1.425 . S
C541 C538 1.409 . S
C541 C539 1.415 . S
C542 H532 0.930 . S
C542 C540 1.419 . S
C542 C543 1.362 . S
C543 H533 0.930 . S
C543 C536 1.409 . S
C543 C542 1.362 . S
H544 C550 0.930 . S
H545 C553 0.930 . S
H546 C554 0.930 . S
H547 C555 0.930 . S
H548 C558 0.930 . S
H549 C559 0.930 . S
C550 H544 0.930 . S
C550 C551 1.355 . S
C550 C552 1.415 . S
C551 C550 1.355 . S
C551 C553 1.419 . S
C552 C550 1.415 . S
C552 C557 1.425 . S
C552 C559 1.409 . S
C553 H545 0.930 . S
C553 C551 1.419 . S
C553 C554 1.362 . S
C554 H546 0.930 . S
C554 C553 1.362 . S
C554 C557 1.409 . S
C555 H547 0.930 . S
C555 C556 1.355 . S
C555 C557 1.415 . S
C556 C555 1.355 . S
C556 C558 1.419 . S
C557 C552 1.425 . S
C557 C554 1.409 . S
C557 C555 1.415 . S
C558 H548 0.930 . S
C558 C556 1.419 . S
C558 C559 1.362 . S
C559 H549 0.930 . S
C559 C552 1.409 . S
C559 C558 1.362 . S
H560 C566 0.930 . S
H561 C569 0.930 . S
H562 C570 0.930 . S
H563 C571 0.930 . S
H564 C574 0.930 . S
H565 C575 0.930 . S
C566 H560 0.930 . S
C566 C567 1.355 . S
C566 C568 1.415 . S
C567 C566 1.355 . S
C567 C569 1.419 . S
C568 C566 1.415 . S
C568 C573 1.425 . S
C568 C575 1.409 . S
C569 H561 0.930 . S
C569 C567 1.419 . S
C569 C570 1.362 . S
C570 H562 0.930 . S
C570 C569 1.362 . S
C570 C573 1.409 . S
C571 H563 0.930 . S
C571 C572 1.355 . S
C571 C573 1.415 . S
C572 C571 1.355 . S
C572 C574 1.419 . S
C573 C568 1.425 . S
C573 C570 1.409 . S
C573 C571 1.415 . S
C574 H564 0.930 . S
C574 C572 1.419 . S
C574 C575 1.362 . S
C575 H565 0.930 . S
C575 C568 1.409 . S
C575 C574 1.362 . S
H576 C582 0.930 . S
H577 C585 0.930 . S
H578 C586 0.930 . S
H579 C587 0.930 . S
H580 C590 0.930 . S
H581 C591 0.930 . S
C582 H576 0.930 . S
C582 C583 1.355 . S
C582 C584 1.415 . S
C583 C582 1.355 . S
C583 C585 1.419 . S
C584 C582 1.415 . S
C584 C589 1.425 . S
C584 C591 1.409 . S
C585 H577 0.930 . S
C585 C583 1.419 . S
C585 C586 1.362 . S
C586 H578 0.930 . S
C586 C585 1.362 . S
C586 C589 1.409 . S
C587 H579 0.930 . S
C587 C588 1.355 . S
C587 C589 1.415 . S
C588 C587 1.355 . S
C588 C590 1.419 . S
C589 C584 1.425 . S
C589 C586 1.409 . S
C589 C587 1.415 . S
C590 H580 0.930 . S
C590 C588 1.419 . S
C590 C591 1.362 . S
C591 H581 0.930 . S
C591 C584 1.409 . S
C591 C590 1.362 . S
H592 C598 0.930 . S
H593 C601 0.930 1_655 S
H594 C602 0.930 . S
H595 C603 0.930 . S
H596 C606 0.930 . S
H597 C607 0.930 . S
C598 H592 0.930 . S
C598 C599 1.355 . S
C598 C600 1.415 . S
C599 C598 1.355 . S
C599 C601 1.419 . S
C600 C598 1.415 . S
C600 C605 1.425 . S
C600 C607 1.409 . S
C601 H593 0.930 1_455 S
C601 C599 1.419 . S
C601 C602 1.362 . S
C602 H594 0.930 . S
C602 C601 1.362 . S
C602 C605 1.409 . S
C603 H595 0.930 . S
C603 C604 1.355 . S
C603 C605 1.415 . S
C604 C603 1.355 . S
C604 C606 1.419 . S
C605 C600 1.425 . S
C605 C602 1.409 . S
C605 C603 1.415 . S
C606 H596 0.930 . S
C606 C604 1.419 . S
C606 C607 1.362 . S
C607 H597 0.930 . S
C607 C600 1.409 . S
C607 C606 1.362 . S
H608 C614 0.930 . S
H609 C617 0.930 . S
H610 C618 0.930 . S
H611 C619 0.930 . S
H612 C622 0.930 . S
H613 C623 0.930 . S
C614 H608 0.930 . S
C614 C615 1.355 . S
C614 C616 1.415 . S
C615 C614 1.355 . S
C615 C617 1.419 . S
C616 C614 1.415 . S
C616 C621 1.425 . S
C616 C623 1.409 . S
C617 H609 0.930 . S
C617 C615 1.419 . S
C617 C618 1.362 . S
C618 H610 0.930 . S
C618 C617 1.362 . S
C618 C621 1.409 . S
C619 H611 0.930 . S
C619 C620 1.355 . S
C619 C621 1.415 . S
C620 C619 1.355 . S
C620 C622 1.419 . S
C621 C616 1.425 . S
C621 C618 1.409 . S
C621 C619 1.415 . S
C622 H612 0.930 . S
C622 C620 1.419 . S
C622 C623 1.362 . S
C623 H613 0.930 . S
C623 C616 1.409 . S
C623 C622 1.362 . S
H624 C630 0.930 . S
H625 C633 0.930 . S
H626 C634 0.930 . S
H627 C635 0.930 . S
H628 C638 0.930 . S
H629 C639 0.930 . S
C630 H624 0.930 . S
C630 C631 1.355 . S
C630 C632 1.415 . S
C631 C630 1.355 . S
C631 C633 1.419 . S
C632 C630 1.415 . S
C632 C637 1.425 . S
C632 C639 1.409 . S
C633 H625 0.930 . S
C633 C631 1.419 . S
C633 C634 1.362 . S
C634 H626 0.930 . S
C634 C633 1.362 . S
C634 C637 1.409 . S
C635 H627 0.930 . S
C635 C636 1.355 . S
C635 C637 1.415 . S
C636 C635 1.355 . S
C636 C638 1.419 . S
C637 C632 1.425 . S
C637 C634 1.409 . S
C637 C635 1.415 . S
C638 H628 0.930 . S
C638 C636 1.419 . S
C638 C639 1.362 . S
C639 H629 0.930 . S
C639 C632 1.409 . S
C639 C638 1.362 . S
H640 C646 0.930 . S
H641 C649 0.930 . S
H642 C650 0.930 . S
H643 C651 0.930 . S
H644 C654 0.930 . S
H645 C655 0.930 . S
C646 H640 0.930 . S
C646 C647 1.355 . S
C646 C648 1.415 . S
C647 C646 1.355 . S
C647 C649 1.419 . S
C648 C646 1.415 . S
C648 C653 1.425 . S
C648 C655 1.409 . S
C649 H641 0.930 . S
C649 C647 1.419 . S
C649 C650 1.362 . S
C650 H642 0.930 . S
C650 C649 1.362 . S
C650 C653 1.409 . S
C651 H643 0.930 . S
C651 C652 1.355 . S
C651 C653 1.415 . S
C652 C651 1.355 . S
C652 C654 1.419 . S
C653 C648 1.425 . S
C653 C650 1.409 . S
C653 C651 1.415 . S
C654 H644 0.930 . S
C654 C652 1.419 . S
C654 C655 1.362 . S
C655 H645 0.930 . S
C655 C648 1.409 . S
C655 C654 1.362 . S
H656 C662 0.930 . S
H657 C665 0.930 . S
H658 C666 0.930 . S
H659 C667 0.930 . S
H660 C670 0.930 . S
H661 C671 0.930 . S
C662 H656 0.930 . S
C662 C663 1.355 . S
C662 C664 1.415 . S
C663 C662 1.355 . S
C663 C665 1.419 . S
C664 C662 1.415 . S
C664 C669 1.425 . S
C664 C671 1.409 . S
C665 H657 0.930 . S
C665 C663 1.419 . S
C665 C666 1.362 . S
C666 H658 0.930 . S
C666 C665 1.362 . S
C666 C669 1.409 . S
C667 H659 0.930 . S
C667 C668 1.355 . S
C667 C669 1.415 . S
C668 C667 1.355 . S
C668 C670 1.419 . S
C669 C664 1.425 . S
C669 C666 1.409 . S
C669 C667 1.415 . S
C670 H660 0.930 . S
C670 C668 1.419 . S
C670 C671 1.362 . S
C671 H661 0.930 . S
C671 C664 1.409 . S
C671 C670 1.362 . S
H672 C678 0.930 . S
H673 C681 0.930 . S
H674 C682 0.930 . S
H675 C683 0.930 . S
H676 C686 0.930 . S
H677 C687 0.930 . S
C678 H672 0.930 . S
C678 C679 1.355 . S
C678 C680 1.415 . S
C679 C678 1.355 . S
C679 C681 1.419 . S
C680 C678 1.415 . S
C680 C685 1.425 . S
C680 C687 1.409 . S
C681 H673 0.930 . S
C681 C679 1.419 . S
C681 C682 1.362 . S
C682 H674 0.930 . S
C682 C681 1.362 . S
C682 C685 1.409 . S
C683 H675 0.930 . S
C683 C684 1.355 . S
C683 C685 1.415 . S
C684 C683 1.355 . S
C684 C686 1.419 . S
C685 C680 1.425 . S
C685 C682 1.409 . S
C685 C683 1.415 . S
C686 H676 0.930 . S
C686 C684 1.419 . S
C686 C687 1.362 . S
C687 H677 0.930 . S
C687 C680 1.409 . S
C687 C686 1.362 . S
H688 C694 0.930 . S
H689 C697 0.930 . S
H690 C698 0.930 . S
H691 C699 0.930 1_655 S
H692 C702 0.930 . S
H693 C703 0.930 . S
C694 H688 0.930 . S
C694 C695 1.355 . S
C694 C696 1.415 . S
C695 C694 1.355 . S
C695 C697 1.419 . S
C696 C694 1.415 . S
C696 C701 1.425 . S
C696 C703 1.409 . S
C697 H689 0.930 . S
C697 C695 1.419 . S
C697 C698 1.362 . S
C698 H690 0.930 . S
C698 C697 1.362 . S
C698 C701 1.409 . S
C699 H691 0.930 1_455 S
C699 C700 1.355 . S
C699 C701 1.415 . S
C700 C699 1.355 . S
C700 C702 1.419 . S
C701 C696 1.425 . S
C701 C698 1.409 . S
C701 C699 1.415 . S
C702 H692 0.930 . S
C702 C700 1.419 . S
C702 C703 1.362 . S
C703 H693 0.930 . S
C703 C696 1.409 . S
C703 C702 1.362 . S
H704 C710 0.930 . S
H705 C713 0.930 1_655 S
H706 C714 0.939 1_556 S
H707 C715 0.930 . S
H708 C718 0.930 . S
H709 C719 0.930 1_554 S
C710 H704 0.930 . S
C710 C711 1.355 . S
C710 C712 1.415 . S
C711 C710 1.355 . S
C711 C713 1.419 . S
C712 C710 1.415 . S
C712 C717 1.425 1_544 S
C712 C719 1.409 1_554 S
C713 H705 0.930 1_455 S
C713 C711 1.419 . S
C713 C714 1.362 1_545 S
C714 H706 0.939 1_554 S
C714 C713 1.362 1_565 S
C714 C717 1.409 1_554 S
C715 H707 0.930 . S
C715 C716 1.355 . S
C715 C717 1.415 . S
C716 C715 1.355 . S
C716 C718 1.419 . S
C717 C712 1.425 1_566 S
C717 C714 1.409 1_556 S
C717 C715 1.415 . S
C718 H708 0.930 . S
C718 C716 1.419 . S
C718 C719 1.362 1_565 S
C719 H709 0.930 1_556 S
C719 C712 1.409 1_556 S
C719 C718 1.362 1_545 S
H720 C726 0.930 . S
H721 C729 0.930 . S
H722 C730 0.930 . S
H723 C731 0.930 . S
H724 C734 0.930 . S
H725 C735 0.930 . S
C726 H720 0.930 . S
C726 C727 1.355 . S
C726 C728 1.415 . S
C727 C726 1.355 . S
C727 C729 1.419 . S
C728 C726 1.415 . S
C728 C733 1.425 . S
C728 C735 1.409 . S
C729 H721 0.930 . S
C729 C727 1.419 . S
C729 C730 1.362 . S
C730 H722 0.930 . S
C730 C729 1.362 . S
C730 C733 1.409 . S
C731 H723 0.930 . S
C731 C732 1.355 . S
C731 C733 1.415 . S
C732 C731 1.355 . S
C732 C734 1.419 . S
C733 C728 1.425 . S
C733 C730 1.409 . S
C733 C731 1.415 . S
C734 H724 0.930 . S
C734 C732 1.419 . S
C734 C735 1.362 . S
C735 H725 0.930 . S
C735 C728 1.409 . S
C735 C734 1.362 . S
H736 C742 0.930 1_565 S
H737 C745 0.930 . S
H738 C746 0.930 . S
H739 C747 0.930 1_545 S
H740 C750 0.930 . S
H741 C751 0.930 . S
C742 H736 0.930 1_545 S
C742 C743 1.355 . S
C742 C744 1.415 1_545 S
C743 C742 1.355 . S
C743 C745 1.419 . S
C744 C742 1.415 1_565 S
C744 C749 1.425 1_565 S
C744 C751 1.409 . S
C745 H737 0.930 . S
C745 C743 1.419 . S
C745 C746 1.362 . S
C746 H738 0.930 . S
C746 C745 1.362 . S
C746 C749 1.409 . S
C747 H739 0.930 1_565 S
C747 C748 1.355 . S
C747 C749 1.415 1_565 S
C748 C747 1.355 . S
C748 C750 1.419 . S
C749 C744 1.425 1_545 S
C749 C746 1.409 . S
C749 C747 1.415 1_545 S
C750 H740 0.930 . S
C750 C748 1.419 . S
C750 C751 1.362 . S
C751 H741 0.930 . S
C751 C744 1.409 . S
C751 C750 1.362 . S
H752 C758 0.930 . S
H753 C761 0.930 . S
H754 C762 0.930 . S
H755 C763 0.930 . S
H756 C766 0.930 . S
H757 C767 0.930 . S
C758 H752 0.930 . S
C758 C759 1.355 . S
C758 C760 1.415 . S
C759 C758 1.355 . S
C759 C761 1.419 . S
C760 C758 1.415 . S
C760 C765 1.425 . S
C760 C767 1.409 . S
C761 H753 0.930 . S
C761 C759 1.419 . S
C761 C762 1.362 . S
C762 H754 0.930 . S
C762 C761 1.362 . S
C762 C765 1.409 . S
C763 H755 0.930 . S
C763 C764 1.355 . S
C763 C765 1.415 . S
C764 C763 1.355 . S
C764 C766 1.419 . S
C765 C760 1.425 . S
C765 C762 1.409 . S
C765 C763 1.415 . S
C766 H756 0.930 . S
C766 C764 1.419 . S
C766 C767 1.362 . S
C767 H757 0.930 . S
C767 C760 1.409 . S
C767 C766 1.362 . S
H768 C774 0.930 . S
H769 C777 0.930 . S
H770 C778 0.930 . S
H771 C779 0.930 . S
H772 C782 0.930 . S
H773 C783 0.930 . S
C774 H768 0.930 . S
C774 C775 1.355 . S
C774 C776 1.415 . S
C775 C774 1.355 . S
C775 C777 1.419 . S
C776 C774 1.415 . S
C776 C781 1.425 . S
C776 C783 1.409 . S
C777 H769 0.930 . S
C777 C775 1.419 . S
C777 C778 1.362 . S
C778 H770 0.930 . S
C778 C777 1.362 . S
C778 C781 1.409 . S
C779 H771 0.930 . S
C779 C780 1.355 . S
C779 C781 1.415 . S
C780 C779 1.355 . S
C780 C782 1.419 . S
C781 C776 1.425 . S
C781 C778 1.409 . S
C781 C779 1.415 . S
C782 H772 0.930 . S
C782 C780 1.419 . S
C782 C783 1.362 . S
C783 H773 0.930 . S
C783 C776 1.409 . S
C783 C782 1.362 . S
H784 C790 0.930 . S
H785 C793 0.930 . S
H786 C794 0.930 . S
H787 C795 0.930 . S
H788 C798 0.930 . S
H789 C799 0.930 . S
C790 H784 0.930 . S
C790 C791 1.355 . S
C790 C792 1.415 . S
C791 C790 1.355 . S
C791 C793 1.419 . S
C792 C790 1.415 . S
C792 C797 1.425 . S
C792 C799 1.409 . S
C793 H785 0.930 . S
C793 C791 1.419 . S
C793 C794 1.362 . S
C794 H786 0.930 . S
C794 C793 1.362 . S
C794 C797 1.409 . S
C795 H787 0.930 . S
C795 C796 1.355 . S
C795 C797 1.415 . S
C796 C795 1.355 . S
C796 C798 1.419 . S
C797 C792 1.425 . S
C797 C794 1.409 . S
C797 C795 1.415 . S
C798 H788 0.930 . S
C798 C796 1.419 . S
C798 C799 1.362 . S
C799 H789 0.930 . S
C799 C792 1.409 . S
C799 C798 1.362 . S
H800 C806 0.930 . S
H801 C809 0.930 . S
H802 C810 0.930 . S
H803 C811 0.930 . S
H804 C814 0.930 . S
H805 C815 0.930 . S
C806 H800 0.930 . S
C806 C807 1.355 . S
C806 C808 1.415 . S
C807 C806 1.355 . S
C807 C809 1.419 . S
C808 C806 1.415 . S
C808 C813 1.425 . S
C808 C815 1.409 . S
C809 H801 0.930 . S
C809 C807 1.419 . S
C809 C810 1.362 . S
C810 H802 0.930 . S
C810 C809 1.362 . S
C810 C813 1.409 . S
C811 H803 0.930 . S
C811 C812 1.355 . S
C811 C813 1.415 . S
C812 C811 1.355 . S
C812 C814 1.419 . S
C813 C808 1.425 . S
C813 C810 1.409 . S
C813 C811 1.415 . S
C814 H804 0.930 . S
C814 C812 1.419 . S
C814 C815 1.362 . S
C815 H805 0.930 . S
C815 C808 1.409 . S
C815 C814 1.362 . S
H816 C822 0.930 . S
H817 C825 0.930 1_655 S
H818 C826 0.930 . S
H819 C827 0.930 . S
H820 C830 0.930 . S
H821 C831 0.930 . S
C822 H816 0.930 . S
C822 C823 1.355 . S
C822 C824 1.415 . S
C823 C822 1.355 . S
C823 C825 1.419 . S
C824 C822 1.415 . S
C824 C829 1.425 1_556 S
C824 C831 1.409 . S
C825 H817 0.930 1_455 S
C825 C823 1.419 . S
C825 C826 1.362 1_556 S
C826 H818 0.930 . S
C826 C825 1.362 1_554 S
C826 C829 1.409 . S
C827 H819 0.930 . S
C827 C828 1.355 . S
C827 C829 1.415 . S
C828 C827 1.355 . S
C828 C830 1.419 . S
C829 C824 1.425 1_554 S
C829 C826 1.409 . S
C829 C827 1.415 . S
C830 H820 0.930 . S
C830 C828 1.419 . S
C830 C831 1.362 1_554 S
C831 H821 0.930 . S
C831 C824 1.409 . S
C831 C830 1.362 1_556 S
H832 C838 0.930 . S
H833 C841 0.930 . S
H834 C842 0.930 . S
H835 C843 0.930 . S
H836 C846 0.930 . S
H837 C847 0.930 . S
C838 H832 0.930 . S
C838 C839 1.355 . S
C838 C840 1.415 . S
C839 C838 1.355 . S
C839 C841 1.419 . S
C840 C838 1.415 . S
C840 C845 1.425 . S
C840 C847 1.409 . S
C841 H833 0.930 . S
C841 C839 1.419 . S
C841 C842 1.362 . S
C842 H834 0.930 . S
C842 C841 1.362 . S
C842 C845 1.409 . S
C843 H835 0.930 . S
C843 C844 1.355 . S
C843 C845 1.415 . S
C844 C843 1.355 . S
C844 C846 1.419 . S
C845 C840 1.425 . S
C845 C842 1.409 . S
C845 C843 1.415 . S
C846 H836 0.930 . S
C846 C844 1.419 . S
C846 C847 1.362 . S
C847 H837 0.930 . S
C847 C840 1.409 . S
C847 C846 1.362 . S
H848 C854 0.930 . S
H849 C857 0.930 . S
H850 C858 0.930 . S
H851 C859 0.930 . S
H852 C862 0.930 . S
H853 C863 0.930 . S
C854 H848 0.930 . S
C854 C855 1.355 . S
C854 C856 1.415 . S
C855 C854 1.355 . S
C855 C857 1.419 . S
C856 C854 1.415 . S
C856 C861 1.425 . S
C856 C863 1.409 . S
C857 H849 0.930 . S
C857 C855 1.419 . S
C857 C858 1.362 . S
C858 H850 0.930 . S
C858 C857 1.362 . S
C858 C861 1.409 . S
C859 H851 0.930 . S
C859 C860 1.355 . S
C859 C861 1.415 . S
C860 C859 1.355 . S
C860 C862 1.419 . S
C861 C856 1.425 . S
C861 C858 1.409 . S
C861 C859 1.415 . S
C862 H852 0.930 . S
C862 C860 1.419 . S
C862 C863 1.362 . S
C863 H853 0.930 . S
C863 C856 1.409 . S
C863 C862 1.362 . S
H864 C870 0.930 . S
H865 C873 0.930 . S
H866 C874 0.930 . S
H867 C875 0.930 . S
H868 C878 0.930 . S
H869 C879 0.930 . S
C870 H864 0.930 . S
C870 C871 1.355 . S
C870 C872 1.415 . S
C871 C870 1.355 . S
C871 C873 1.419 . S
C872 C870 1.415 . S
C872 C877 1.425 . S
C872 C879 1.409 . S
C873 H865 0.930 . S
C873 C871 1.419 . S
C873 C874 1.362 . S
C874 H866 0.930 . S
C874 C873 1.362 . S
C874 C877 1.409 . S
C875 H867 0.930 . S
C875 C876 1.355 . S
C875 C877 1.415 . S
C876 C875 1.355 . S
C876 C878 1.419 . S
C877 C872 1.425 . S
C877 C874 1.409 . S
C877 C875 1.415 . S
C878 H868 0.930 . S
C878 C876 1.419 . S
C878 C879 1.362 . S
C879 H869 0.930 . S
C879 C872 1.409 . S
C879 C878 1.362 . S
H880 C886 0.930 . S
H881 C889 0.930 . S
H882 C890 0.930 . S
H883 C891 0.930 . S
H884 C894 0.930 . S
H885 C895 0.930 . S
C886 H880 0.930 . S
C886 C887 1.355 . S
C886 C888 1.415 . S
C887 C886 1.355 . S
C887 C889 1.419 . S
C888 C886 1.415 . S
C888 C893 1.425 . S
C888 C895 1.409 . S
C889 H881 0.930 . S
C889 C887 1.419 . S
C889 C890 1.362 . S
C890 H882 0.930 . S
C890 C889 1.362 . S
C890 C893 1.409 . S
C891 H883 0.930 . S
C891 C892 1.355 . S
C891 C893 1.415 . S
C892 C891 1.355 . S
C892 C894 1.419 . S
C893 C888 1.425 . S
C893 C890 1.409 . S
C893 C891 1.415 . S
C894 H884 0.930 . S
C894 C892 1.419 . S
C894 C895 1.362 . S
C895 H885 0.930 . S
C895 C888 1.409 . S
C895 C894 1.362 . S
H896 C902 0.930 . S
H897 C905 0.930 . S
H898 C906 0.930 . S
H899 C907 0.930 . S
H900 C910 0.930 . S
H901 C911 0.930 . S
C902 H896 0.930 . S
C902 C903 1.355 . S
C902 C904 1.415 . S
C903 C902 1.355 . S
C903 C905 1.419 . S
C904 C902 1.415 . S
C904 C909 1.425 . S
C904 C911 1.409 . S
C905 H897 0.930 . S
C905 C903 1.419 . S
C905 C906 1.362 . S
C906 H898 0.930 . S
C906 C905 1.362 . S
C906 C909 1.409 . S
C907 H899 0.930 . S
C907 C908 1.355 . S
C907 C909 1.415 1_455 S
C908 C907 1.355 . S
C908 C910 1.419 . S
C909 C904 1.425 . S
C909 C906 1.409 . S
C909 C907 1.415 1_655 S
C910 H900 0.930 . S
C910 C908 1.419 . S
C910 C911 1.362 1_455 S
C911 H901 0.930 . S
C911 C904 1.409 . S
C911 C910 1.362 1_655 S
H912 C918 0.930 . S
H913 C921 0.930 . S
H914 C922 0.930 . S
H915 C923 0.930 . S
H916 C926 0.930 . S
H917 C927 0.930 . S
C918 H912 0.930 . S
C918 C919 1.355 . S
C918 C920 1.415 . S
C919 C918 1.355 . S
C919 C921 1.419 . S
C920 C918 1.415 . S
C920 C925 1.425 . S
C920 C927 1.409 . S
C921 H913 0.930 . S
C921 C919 1.419 . S
C921 C922 1.362 . S
C922 H914 0.930 . S
C922 C921 1.362 . S
C922 C925 1.409 . S
C923 H915 0.930 . S
C923 C924 1.355 . S
C923 C925 1.415 . S
C924 C923 1.355 . S
C924 C926 1.419 . S
C925 C920 1.425 . S
C925 C922 1.409 . S
C925 C923 1.415 . S
C926 H916 0.930 . S
C926 C924 1.419 . S
C926 C927 1.362 . S
C927 H917 0.930 . S
C927 C920 1.409 . S
C927 C926 1.362 . S
H928 C934 0.930 . S
H929 C937 0.930 . S
H930 C938 0.930 . S
H931 C939 0.930 . S
H932 C942 0.930 . S
H933 C943 0.930 . S
C934 H928 0.930 . S
C934 C935 1.355 . S
C934 C936 1.415 . S
C935 C934 1.355 . S
C935 C937 1.419 . S
C936 C934 1.415 . S
C936 C941 1.425 . S
C936 C943 1.409 . S
C937 H929 0.930 . S
C937 C935 1.419 . S
C937 C938 1.362 . S
C938 H930 0.930 . S
C938 C937 1.362 . S
C938 C941 1.409 . S
C939 H931 0.930 . S
C939 C940 1.355 . S
C939 C941 1.415 . S
C940 C939 1.355 . S
C940 C942 1.419 . S
C941 C936 1.425 . S
C941 C938 1.409 . S
C941 C939 1.415 . S
C942 H932 0.930 . S
C942 C940 1.419 . S
C942 C943 1.362 . S
C943 H933 0.930 . S
C943 C936 1.409 . S
C943 C942 1.362 . S
H944 C950 0.930 . S
H945 C953 0.930 . S
H946 C954 0.930 . S
H947 C955 0.930 . S
H948 C958 0.930 1_554 S
H949 C959 0.930 . S
C950 H944 0.930 . S
C950 C951 1.355 . S
C950 C952 1.415 . S
C951 C950 1.355 . S
C951 C953 1.419 . S
C952 C950 1.415 . S
C952 C957 1.425 . S
C952 C959 1.409 . S
C953 H945 0.930 . S
C953 C951 1.419 . S
C953 C954 1.362 . S
C954 H946 0.930 . S
C954 C953 1.362 . S
C954 C957 1.409 . S
C955 H947 0.930 . S
C955 C956 1.355 . S
C955 C957 1.415 . S
C956 C955 1.355 . S
C956 C958 1.419 . S
C957 C952 1.425 . S
C957 C954 1.409 . S
C957 C955 1.415 . S
C958 H948 0.930 1_556 S
C958 C956 1.419 . S
C958 C959 1.362 . S
C959 H949 0.930 . S
C959 C952 1.409 . S
C959 C958 1.362 . S
H960 C966 0.930 . S
H961 C969 0.930 . S
H962 C970 0.930 . S
H963 C971 0.930 . S
H964 C974 0.930 . S
H965 C975 0.930 . S
C966 H960 0.930 . S
C966 C967 1.355 . S
C966 C968 1.415 . S
C967 C966 1.355 . S
C967 C969 1.419 . S
C968 C966 1.415 . S
C968 C973 1.425 . S
C968 C975 1.409 . S
C969 H961 0.930 . S
C969 C967 1.419 . S
C969 C970 1.362 . S
C970 H962 0.930 . S
C970 C969 1.362 . S
C970 C973 1.409 . S
C971 H963 0.930 . S
C971 C972 1.355 . S
C971 C973 1.415 . S
C972 C971 1.355 . S
C972 C974 1.419 . S
C973 C968 1.425 . S
C973 C970 1.409 . S
C973 C971 1.415 . S
C974 H964 0.930 . S
C974 C972 1.419 . S
C974 C975 1.362 . S
C975 H965 0.930 . S
C975 C968 1.409 . S
C975 C974 1.362 . S
H976 C982 0.930 . S
H977 C985 0.930 . S
H978 C986 0.930 . S
H979 C987 0.930 . S
H980 C990 0.930 . S
H981 C991 0.930 . S
C982 H976 0.930 . S
C982 C983 1.355 . S
C982 C984 1.415 . S
C983 C982 1.355 . S
C983 C985 1.419 . S
C984 C982 1.415 . S
C984 C989 1.425 . S
C984 C991 1.409 . S
C985 H977 0.930 . S
C985 C983 1.419 . S
C985 C986 1.362 . S
C986 H978 0.930 . S
C986 C985 1.362 . S
C986 C989 1.409 . S
C987 H979 0.930 . S
C987 C988 1.355 . S
C987 C989 1.415 . S
C988 C987 1.355 . S
C988 C990 1.419 . S
C989 C984 1.425 . S
C989 C986 1.409 . S
C989 C987 1.415 . S
C990 H980 0.930 . S
C990 C988 1.419 . S
C990 C991 1.362 . S
C991 H981 0.930 . S
C991 C984 1.409 . S
C991 C990 1.362 . S
H992 C998 0.930 . S
H993 C1001 0.930 . S
H994 C1002 0.930 . S
H995 C1003 0.930 . S
H996 C1006 0.930 . S
H997 C1007 0.930 . S
C998 H992 0.930 . S
C998 C999 1.355 . S
C998 C1000 1.415 1_455 S
C999 C998 1.355 . S
C999 C1001 1.419 . S
C1000 C998 1.415 1_655 S
C1000 C1005 1.425 . S
C1000 C1007 1.409 . S
C1001 H993 0.930 . S
C1001 C999 1.419 . S
C1001 C1002 1.362 . S
C1002 H994 0.930 . S
C1002 C1001 1.362 . S
C1002 C1005 1.409 1_455 S
C1003 H995 0.930 . S
C1003 C1004 1.355 . S
C1003 C1005 1.415 . S
C1004 C1003 1.355 . S
C1004 C1006 1.419 . S
C1005 C1000 1.425 . S
C1005 C1002 1.409 1_655 S
C1005 C1003 1.415 . S
C1006 H996 0.930 . S
C1006 C1004 1.419 . S
C1006 C1007 1.362 . S
C1007 H997 0.930 . S
C1007 C1000 1.409 . S
C1007 C1006 1.362 . S
H1008 C1014 0.930 . S
H1009 C1017 0.930 . S
H1010 C1018 0.930 . S
H1011 C1019 0.930 . S
H1012 C1022 0.930 . S
H1013 C1023 0.930 . S
C1014 H1008 0.930 . S
C1014 C1015 1.355 . S
C1014 C1016 1.415 . S
C1015 C1014 1.355 . S
C1015 C1017 1.419 . S
C1016 C1014 1.415 . S
C1016 C1021 1.425 . S
C1016 C1023 1.409 . S
C1017 H1009 0.930 . S
C1017 C1015 1.419 . S
C1017 C1018 1.362 . S
C1018 H1010 0.930 . S
C1018 C1017 1.362 . S
C1018 C1021 1.409 . S
C1019 H1011 0.930 . S
C1019 C1020 1.355 . S
C1019 C1021 1.415 . S
C1020 C1019 1.355 . S
C1020 C1022 1.419 . S
C1021 C1016 1.425 . S
C1021 C1018 1.409 . S
C1021 C1019 1.415 . S
C1022 H1012 0.930 . S
C1022 C1020 1.419 . S
C1022 C1023 1.362 . S
C1023 H1013 0.930 . S
C1023 C1016 1.409 . S
C1023 C1022 1.362 . S
H1024 C1030 0.930 . S
H1025 C1033 0.930 . S
H1026 C1034 0.930 . S
H1027 C1035 0.930 . S
H1028 C1038 0.930 . S
H1029 C1039 0.930 . S
C1030 H1024 0.930 . S
C1030 C1031 1.355 . S
C1030 C1032 1.415 . S
C1031 C1030 1.355 . S
C1031 C1033 1.419 . S
C1032 C1030 1.415 . S
C1032 C1037 1.425 . S
C1032 C1039 1.409 . S
C1033 H1025 0.930 . S
C1033 C1031 1.419 . S
C1033 C1034 1.362 . S
C1034 H1026 0.930 . S
C1034 C1033 1.362 . S
C1034 C1037 1.409 . S
C1035 H1027 0.930 . S
C1035 C1036 1.355 . S
C1035 C1037 1.415 . S
C1036 C1035 1.355 . S
C1036 C1038 1.419 . S
C1037 C1032 1.425 . S
C1037 C1034 1.409 . S
C1037 C1035 1.415 . S
C1038 H1028 0.930 . S
C1038 C1036 1.419 . S
C1038 C1039 1.362 . S
C1039 H1029 0.930 . S
C1039 C1032 1.409 . S
C1039 C1038 1.362 . S
H1040 C1046 0.930 . S
H1041 C1049 0.930 . S
H1042 C1050 0.930 . S
H1043 C1051 0.930 . S
H1044 C1054 0.930 . S
H1045 C1055 0.930 . S
C1046 H1040 0.930 . S
C1046 C1047 1.355 . S
C1046 C1048 1.415 . S
C1047 C1046 1.355 . S
C1047 C1049 1.419 . S
C1048 C1046 1.415 . S
C1048 C1053 1.425 . S
C1048 C1055 1.409 . S
C1049 H1041 0.930 . S
C1049 C1047 1.419 . S
C1049 C1050 1.362 . S
C1050 H1042 0.930 . S
C1050 C1049 1.362 . S
C1050 C1053 1.409 . S
C1051 H1043 0.930 . S
C1051 C1052 1.355 . S
C1051 C1053 1.415 . S
C1052 C1051 1.355 . S
C1052 C1054 1.419 . S
C1053 C1048 1.425 . S
C1053 C1050 1.409 . S
C1053 C1051 1.415 . S
C1054 H1044 0.930 . S
C1054 C1052 1.419 . S
C1054 C1055 1.362 . S
C1055 H1045 0.930 . S
C1055 C1048 1.409 . S
C1055 C1054 1.362 . S
H1056 C1062 0.930 . S
H1057 C1065 0.930 . S
H1058 C1066 0.930 . S
H1059 C1067 0.930 . S
H1060 C1070 0.930 . S
H1061 C1071 0.930 . S
C1062 H1056 0.930 . S
C1062 C1063 1.355 . S
C1062 C1064 1.415 . S
C1063 C1062 1.355 . S
C1063 C1065 1.419 . S
C1064 C1062 1.415 . S
C1064 C1069 1.425 . S
C1064 C1071 1.409 . S
C1065 H1057 0.930 . S
C1065 C1063 1.419 . S
C1065 C1066 1.362 . S
C1066 H1058 0.930 . S
C1066 C1065 1.362 . S
C1066 C1069 1.409 . S
C1067 H1059 0.930 . S
C1067 C1068 1.355 . S
C1067 C1069 1.415 . S
C1068 C1067 1.355 . S
C1068 C1070 1.419 . S
C1069 C1064 1.425 . S
C1069 C1066 1.409 . S
C1069 C1067 1.415 . S
C1070 H1060 0.930 . S
C1070 C1068 1.419 . S
C1070 C1071 1.362 . S
C1071 H1061 0.930 . S
C1071 C1064 1.409 . S
C1071 C1070 1.362 . S
H1072 C1078 0.930 . S
H1073 C1081 0.930 . S
H1074 C1082 0.930 . S
H1075 C1083 0.930 . S
H1076 C1086 0.930 . S
H1077 C1087 0.930 . S
C1078 H1072 0.930 . S
C1078 C1079 1.355 . S
C1078 C1080 1.415 . S
C1079 C1078 1.355 . S
C1079 C1081 1.419 . S
C1080 C1078 1.415 . S
C1080 C1085 1.425 . S
C1080 C1087 1.409 . S
C1081 H1073 0.930 . S
C1081 C1079 1.419 . S
C1081 C1082 1.362 . S
C1082 H1074 0.930 . S
C1082 C1081 1.362 . S
C1082 C1085 1.409 . S
C1083 H1075 0.930 . S
C1083 C1084 1.355 . S
C1083 C1085 1.415 . S
C1084 C1083 1.355 . S
C1084 C1086 1.419 . S
C1085 C1080 1.425 . S
C1085 C1082 1.409 . S
C1085 C1083 1.415 . S
C1086 H1076 0.930 . S
C1086 C1084 1.419 . S
C1086 C1087 1.362 . S
C1087 H1077 0.930 . S
C1087 C1080 1.409 . S
C1087 C1086 1.362 . S
C327 C12 1.091 . S
C332 C142 0.945 . S
C343 C32 1.031 . S
C348 C82 1.052 . S
C359 C102 1.006 . S
C364 C52 1.072 . S
C375 C72 1.092 . S
C380 C122 0.913 . S
C391 C224 1.025 . S
C396 C89 0.993 . S
C407 C169 0.993 . S
C412 C4 1.021 . S
C423 C204 1.052 . S
C428 C129 1.005 . S
C439 C44 0.927 . S
C444 C189 1.021 . S
C455 C182 0.881 . S
C460 C252 1.064 . S
C471 C212 0.993 . S
C476 C282 1.017 . S
C487 C272 1.050 . S
C492 C162 1.037 . S
C503 C232 1.093 . S
C508 C302 0.920 . S
C519 C289 1.092 . S
C524 C64 0.936 . S
C535 C244 0.880 . S
C540 C109 1.073 . S
C551 C24 1.025 . S
C556 C309 0.993 . S
C567 C149 0.993 . S
C572 C264 1.024 . S
C583 C278 0.741 . S
C588 C18 0.824 . S
C599 C238 0.772 1_455 S
C604 C38 0.708 . S
C615 C258 0.735 . S
C620 C58 0.737 . S
C631 C218 0.741 . S
C636 C78 0.731 . S
C647 C99 0.700 . S
C652 C319 0.792 . S
C663 C199 0.764 . S
C668 C119 0.713 . S
C679 C139 0.820 . S
C684 C299 0.753 . S
C695 C159 0.762 . S
C700 C179 0.815 1_455 S
C711 C19 1.655 . S
C716 C98 1.655 . S
C727 C39 1.582 . S
C732 C118 1.582 . S
C743 C138 1.608 . S
C748 C59 1.608 . S
C759 C79 1.663 . S
C764 C158 1.663 . S
C775 C219 1.576 . S
C780 C178 1.576 . S
C791 C239 1.635 . S
C796 C198 1.635 . S
C807 C259 1.667 . S
C812 C298 1.667 . S
C823 C318 1.651 . S
C828 C279 1.651 . S
C839 C2 1.629 . S
C844 C152 1.538 . S
C855 C22 1.619 . S
C860 C92 1.488 . S
C871 C112 1.509 . S
C876 C42 1.640 . S
C887 C132 1.552 . S
C892 C62 1.558 1_554 S
C903 C229 1.586 . S
C908 C84 1.585 . S
C919 C164 1.636 . S
C924 C9 1.523 . S
C935 C209 1.561 . S
C940 C124 1.558 . S
C951 C49 1.580 . S
C956 C184 1.591 1_556 S
C967 C242 1.639 . S
C972 C192 1.514 . S
C983 C292 1.568 . S
C988 C202 1.553 1_554 S
C999 C262 1.570 . S
C1004 C172 1.590 . S
C1015 C312 1.586 . S
C1020 C222 1.584 . S
C1031 C284 1.639 . S
C1036 C69 1.511 . S
C1047 C104 1.601 1_556 S
C1052 C249 1.572 . S
C1063 C29 1.580 . S
C1068 C304 1.556 . S
C1079 C269 1.576 . S
C1084 C144 1.599 . S
