# Generated by pormake.
# Topology uov, (4)-cn, num edge types: 1
# Building blocks:
#     Node 0, Type 0, BuildingBlock: NAHDIM_clean_sbu_0, # of connection points: 4
#     Node 1, Type 0, BuildingBlock: NAHDIM_clean_sbu_0, # of connection points: 4
#     Node 2, Type 0, BuildingBlock: NAHDIM_clean_sbu_0, # of connection points: 4
#     Node 3, Type 0, BuildingBlock: NAHDIM_clean_sbu_0, # of connection points: 4
#     Node 4, Type 0, BuildingBlock: NAHDIM_clean_sbu_0, # of connection points: 4
#     Node 5, Type 0, BuildingBlock: NAHDIM_clean_sbu_0, # of connection points: 4
#     Node 6, Type 0, BuildingBlock: NAHDIM_clean_sbu_0, # of connection points: 4
#     Node 7, Type 0, BuildingBlock: NAHDIM_clean_sbu_0, # of connection points: 4
#     Edge 8, Type (0, 0), BuildingBlock: AJUNOK_clean_linker_0, # of connection points: 2
#     Edge 9, Type (0, 0), BuildingBlock: AJUNOK_clean_linker_0, # of connection points: 2
#     Edge 10, Type (0, 0), BuildingBlock: AJUNOK_clean_linker_0, # of connection points: 2
#     Edge 11, Type (0, 0), BuildingBlock: AJUNOK_clean_linker_0, # of connection points: 2
#     Edge 12, Type (0, 0), BuildingBlock: AJUNOK_clean_linker_0, # of connection points: 2
#     Edge 13, Type (0, 0), BuildingBlock: AJUNOK_clean_linker_0, # of connection points: 2
#     Edge 14, Type (0, 0), BuildingBlock: AJUNOK_clean_linker_0, # of connection points: 2
#     Edge 15, Type (0, 0), BuildingBlock: AJUNOK_clean_linker_0, # of connection points: 2
#     Edge 16, Type (0, 0), BuildingBlock: AJUNOK_clean_linker_0, # of connection points: 2
#     Edge 17, Type (0, 0), BuildingBlock: AJUNOK_clean_linker_0, # of connection points: 2
#     Edge 18, Type (0, 0), BuildingBlock: AJUNOK_clean_linker_0, # of connection points: 2
#     Edge 19, Type (0, 0), BuildingBlock: AJUNOK_clean_linker_0, # of connection points: 2
#     Edge 20, Type (0, 0), BuildingBlock: AJUNOK_clean_linker_0, # of connection points: 2
#     Edge 21, Type (0, 0), BuildingBlock: AJUNOK_clean_linker_0, # of connection points: 2
#     Edge 22, Type (0, 0), BuildingBlock: AJUNOK_clean_linker_0, # of connection points: 2
#     Edge 23, Type (0, 0), BuildingBlock: AJUNOK_clean_linker_0, # of connection points: 2
# Relax obj value: 0.256
# Max RMSD: 0.234
# Mean RMSD: 0.234
data_MOF--net-uov--node1-NAHDIM_clean_sbu_0--edge1-AJUNOK_clean_linker_0
_symmetry_space_group_name_H-M    P1
_symmetry_Int_Tables_number       1
_symmetry_cell_setting            triclinic
loop_
_symmetry_equiv_pos_as_xyz
'x, y, z'
_cell_length_a     22.586436
_cell_length_b     22.646981
_cell_length_c     30.382723
_cell_angle_alpha  89.89487
_cell_angle_beta   89.850512
_cell_angle_gamma 90.167971
loop_
_atom_site_label
_atom_site_type_symbol
_atom_site_fract_x
_atom_site_fract_y
_atom_site_fract_z
_atom_type_partial_charge
C0 C -0.00165 0.36767 0.63038 0.0
O1 O 0.94787 0.34036 0.63774 0.0
O2 O 0.95403 0.23113 0.58861 0.0
Zn3 Zn 0.03517 0.25009 0.61134 0.0
O4 O 0.05349 0.20752 0.66796 0.0
C5 C 0.07747 0.23542 0.52398 0.0
O6 O 0.03189 0.26977 0.51626 0.0
O7 O 0.04323 0.33758 0.61911 0.0
C8 C 0.07721 0.15666 0.66745 0.0
O9 O 0.08721 0.13102 0.62943 0.0
C10 C 0.91658 0.195 0.60447 0.0
O11 O 0.92863 0.16764 0.64153 0.0
O12 O 0.09036 0.2231 0.56366 0.0
C13 C 0.35704 0.01729 0.35897 0.0
O14 O 0.32876 0.0679 0.35935 0.0
O15 O 0.21508 0.04448 0.40415 0.0
Zn16 Zn 0.23993 0.97016 0.37337 0.0
O17 O 0.19695 0.95754 0.31619 0.0
C18 C 0.21936 0.90886 0.45519 0.0
O19 O 0.24151 0.9576 0.47185 0.0
O20 O 0.32784 0.96971 0.36395 0.0
C21 C 0.14422 0.9377 0.31734 0.0
O22 O 0.11824 0.93074 0.35573 0.0
C23 C 0.17877 0.08303 0.39047 0.0
O24 O 0.15585 0.07742 0.35101 0.0
O25 O 0.21725 0.90327 0.4136 0.0
C26 C 0.00339 0.62395 0.62237 0.0
O27 O 0.04937 0.65596 0.63391 0.0
O28 O 0.03581 0.77127 0.58548 0.0
Zn29 Zn 0.95536 0.73684 0.59729 0.0
O30 O 0.91697 0.77604 0.6492 0.0
C31 C 0.85313 0.76539 0.54359 0.0
O32 O 0.82339 0.75624 0.58019 0.0
O33 O 0.95832 0.64931 0.60619 0.0
C34 C 0.94534 0.79128 0.68336 0.0
O35 O 0.00243 0.78062 0.68535 0.0
C36 C 0.06223 0.7529 0.5512 0.0
O37 O 0.03868 0.70869 0.52933 0.0
O38 O 0.9086 0.75663 0.54334 0.0
C39 C 0.61423 0.01395 0.36539 0.0
O40 O 0.64575 0.96797 0.35353 0.0
O41 O 0.73939 0.96736 0.42404 0.0
Zn42 Zn 0.72634 0.04777 0.39812 0.0
O43 O 0.77646 0.06243 0.34429 0.0
C44 C 0.74554 0.09387 0.48511 0.0
O45 O 0.71642 0.04594 0.49664 0.0
O46 O 0.64003 0.0566 0.38461 0.0
C47 C 0.83146 0.07318 0.34854 0.0
O48 O 0.85486 0.07128 0.38807 0.0
C49 C 0.77262 0.92652 0.40982 0.0
O50 O 0.80203 0.93435 0.3729 0.0
O51 O 0.75195 0.10549 0.44443 0.0
C52 C 0.01256 0.36071 0.14688 0.0
O53 O 0.06313 0.33476 0.15565 0.0
O54 O 0.05765 0.21798 0.1064 0.0
Zn55 Zn 0.9743 0.24291 0.12097 0.0
O56 O 0.94029 0.19691 0.17169 0.0
C57 C 0.93839 0.1876 0.03933 0.0
O58 O 0.99044 0.16236 0.04248 0.0
O59 O 0.96954 0.33007 0.13259 0.0
C60 C 0.96756 0.17771 0.20525 0.0
O61 O 0.02427 0.18923 0.2097 0.0
C62 C 0.08384 0.2443 0.07485 0.0
O63 O 0.05798 0.29035 0.05699 0.0
O64 O 0.9222 0.2239 0.06886 0.0
C65 C 0.37464 0.02394 0.84755 0.0
O66 O 0.34122 0.01859 0.81247 0.0
O67 O 0.23481 0.96174 0.92341 0.0
Zn68 Zn 0.26212 0.0356 0.8929 0.0
O69 O 0.22067 0.04667 0.8349 0.0
C70 C 0.24351 0.0992 0.9737 0.0
O71 O 0.26554 0.05082 0.991 0.0
O72 O 0.35021 0.03211 0.88477 0.0
C73 C 0.16924 0.06922 0.83361 0.0
O74 O 0.14281 0.08318 0.87072 0.0
C75 C 0.20945 0.91771 0.90572 0.0
O76 O 0.19944 0.91822 0.86314 0.0
O77 O 0.24032 0.10355 0.93208 0.0
C78 C -0.00359 0.61609 0.13509 0.0
O79 O 0.94799 0.64562 0.14436 0.0
O80 O 0.95345 0.74214 0.07214 0.0
Zn81 Zn 0.0305 0.72937 0.10356 0.0
O82 O 0.03686 0.77824 0.15881 0.0
C83 C 0.08884 0.75147 0.02048 0.0
O84 O 0.0433 0.72209 0.00483 0.0
O85 O 0.03975 0.64336 0.11762 0.0
C86 C 0.05761 0.83046 0.15666 0.0
O87 O 0.07193 0.85253 0.11805 0.0
C88 C 0.91338 0.7783 0.08346 0.0
O89 O 0.91946 0.80786 0.12032 0.0
O90 O 0.09425 0.7566 0.06191 0.0
C91 C 0.63 0.98899 0.84299 0.0
O92 O 0.66155 0.98981 0.80662 0.0
O93 O 0.78766 0.03653 0.89575 0.0
Zn94 Zn 0.74228 0.96211 0.88479 0.0
O95 O 0.77555 0.92107 0.83167 0.0
C96 C 0.76627 0.85881 0.94057 0.0
O97 O 0.7618 0.82774 0.90425 0.0
O98 O 0.6555 0.97816 0.87932 0.0
C99 C 0.83079 0.91064 0.83062 0.0
O100 O 0.86347 0.92706 0.8642 0.0
C101 C 0.77077 0.06839 0.9277 0.0
O102 O 0.71996 0.05592 0.9468 0.0
O103 O 0.75741 0.91408 0.93909 0.0
C104 C 0.95 0.52754 0.62645 0.0
C105 C 0.00385 0.55891 0.62711 0.0
C106 C 0.94873 0.46586 0.62884 0.0
C107 C 0.00131 0.43295 0.63136 0.0
H108 H 0.90828 0.55076 0.62382 0.0
H109 H 0.90612 0.44386 0.62756 0.0
S110 S 0.154 0.49381 0.63593 0.0
N111 N 0.11115 0.55251 0.63209 0.0
N112 N 0.10883 0.43636 0.63609 0.0
C113 C 0.05552 0.46371 0.63291 0.0
C114 C 0.05676 0.52672 0.63096 0.0
C115 C 0.51719 0.06683 0.36689 0.0
C116 C 0.54904 0.01437 0.35974 0.0
C117 C 0.45524 0.0677 0.36511 0.0
C118 C 0.42256 0.01602 0.3566 0.0
H119 H 0.54019 0.10755 0.37458 0.0
H120 H 0.43286 0.10899 0.37177 0.0
S121 S 0.48459 0.86781 0.3326 0.0
N122 N 0.54313 0.90988 0.34141 0.0
N123 N 0.42676 0.91151 0.33841 0.0
C124 C 0.45383 0.96359 0.34803 0.0
C125 C 0.517 0.96279 0.34947 0.0
C126 C 0.05865 0.46104 0.14409 0.0
C127 C 0.00762 0.4258 0.14853 0.0
C128 C 0.05463 0.52261 0.14068 0.0
C129 C -0.0005 0.5514 0.14224 0.0
H130 H 0.10196 0.44087 0.14161 0.0
H131 H 0.0951 0.5477 0.13614 0.0
S132 S 0.85293 0.47934 0.1576 0.0
N133 N 0.90055 0.4242 0.15708 0.0
N134 N 0.89293 0.5399 0.15126 0.0
C135 C 0.9483 0.5168 0.14864 0.0
C136 C 0.95237 0.45402 0.15158 0.0
C137 C 0.4733 0.01429 0.88361 0.0
C138 C 0.43988 0.01737 0.84467 0.0
C139 C 0.53453 0.00562 0.8825 0.0
C140 C 0.56527 -8e-05 0.84239 0.0
H141 H 0.45202 0.0178 0.91549 0.0
H142 H 0.5578 0.00313 0.91358 0.0
S143 S 0.49906 0.00708 0.73075 0.0
N144 N 0.44242 0.01569 0.76455 0.0
N145 N 0.55777 -0.00049 0.76248 0.0
C146 C 0.53271 0.004 0.80305 0.0
C147 C 0.47003 0.01263 0.80419 0.0
C148 C 0.18018 0.13023 0.46466 0.0
C149 C 0.15737 0.12882 0.42156 0.0
C150 C 0.15588 0.16697 0.49688 0.0
C151 C 0.10778 0.20414 0.48746 0.0
H152 H 0.21591 0.10114 0.47427 0.0
H153 H 0.17382 0.16457 0.52986 0.0
S154 S 0.03611 0.22276 0.37838 0.0
N155 N 0.08718 0.17195 0.37013 0.0
N156 N 0.04155 0.24131 0.43071 0.0
C157 C 0.08677 0.20598 0.44383 0.0
C158 C 0.11151 0.16827 0.4109 0.0
C159 C 0.16839 0.81175 0.46507 0.0
C160 C 0.18855 0.86504 0.48357 0.0
C161 C 0.1307 0.77381 0.48845 0.0
C162 C 0.11119 0.78771 0.53121 0.0
H163 H 0.17982 0.80022 0.43154 0.0
H164 H 0.1145 0.73472 0.47182 0.0
S165 S 0.15772 0.91778 0.59703 0.0
N166 N 0.19136 0.92662 0.54917 0.0
N167 N 0.12026 0.85534 0.59303 0.0
C168 C 0.13439 0.83871 0.55135 0.0
C169 C 0.17312 0.87734 0.52755 0.0
C170 C 0.84017 0.84609 0.43477 0.0
C171 C 0.78612 0.87609 0.43917 0.0
C172 C 0.85967 0.80709 0.46746 0.0
C173 C 0.82575 0.79635 0.50568 0.0
H174 H 0.86942 0.85543 0.40731 0.0
H175 H 0.90314 0.7876 0.46367 0.0
S176 S 0.6755 0.85519 0.52851 0.0
N177 N 0.69498 0.88601 0.48137 0.0
N178 N 0.73151 0.81264 0.54276 0.0
C179 C 0.76915 0.82192 0.50845 0.0
C180 C 0.74942 0.86187 0.47522 0.0
C181 C 0.79029 0.10213 0.56008 0.0
C182 C 0.78042 0.12698 0.51823 0.0
C183 C 0.83192 0.1265 0.58903 0.0
C184 C 0.86518 0.17678 0.57728 0.0
H185 H 0.76813 0.06164 0.56978 0.0
H186 H 0.8401 0.1039 0.61985 0.0
S187 S 0.84823 0.26482 0.47471 0.0
N188 N 0.80164 0.20914 0.46889 0.0
N189 N 0.87944 0.25523 0.52323 0.0
C190 C 0.85215 0.20485 0.53701 0.0
C191 C 0.80993 0.17989 0.5075 0.0
C192 C 0.79412 0.1418 0.9864 0.0
C193 C 0.81303 0.1089 0.9497 0.0
C194 C 0.8348 0.17054 0.01374 0.0
C195 C 0.896 0.16702 0.00564 0.0
H196 H 0.74771 0.14303 0.99545 0.0
H197 H 0.81828 0.19265 0.04286 0.0
S198 S 0.96811 0.09568 0.90968 0.0
N199 N 0.89688 0.0815 0.90342 0.0
N200 N 0.9732 0.13507 0.95518 0.0
C201 C 0.91527 0.13837 0.9672 0.0
C202 C 0.87382 0.10952 0.93907 0.0
C203 C 0.19629 0.12715 0.04514 0.0
C204 C 0.21269 0.14276 0.00195 0.0
C205 C 0.15765 0.16244 0.06974 0.0
C206 C 0.13413 0.21498 0.05223 0.0
H207 H 0.21062 0.08565 0.0593 0.0
H208 H 0.14388 0.14678 0.10188 0.0
S209 S 0.17193 0.28088 0.94359 0.0
N210 N 0.20879 0.21809 0.94487 0.0
N211 N 0.13659 0.28475 0.99111 0.0
C212 C 0.15427 0.23364 0.01052 0.0
C213 C 0.19336 0.19744 0.98535 0.0
C214 C 0.11269 0.79108 0.94547 0.0
C215 C 0.12686 0.78704 0.9905 0.0
C216 C 0.14158 0.83151 0.91771 0.0
C217 C 0.18567 0.86963 0.93393 0.0
H218 H 0.07724 0.76461 0.93176 0.0
H219 H 0.12732 0.8346 0.88379 0.0
S220 S 0.24561 0.87068 0.04769 0.0
N221 N 0.19279 0.8202 0.0488 0.0
N222 N 0.24683 0.89613 0.99678 0.0
C223 C 0.20296 0.86341 0.9782 0.0
C224 C 0.17369 0.82214 0.00642 0.0
C225 C 0.82568 0.78017 0.97736 0.0
C226 C 0.79323 0.83285 0.98058 0.0
C227 C 0.86163 0.76097 0.012 0.0
C228 C 0.86635 0.79348 0.05135 0.0
H229 H 0.8262 0.75524 0.94698 0.0
H230 H 0.88805 0.72169 0.00694 0.0
S231 S 0.78186 0.92885 0.07922 0.0
N232 N 0.76177 0.91306 0.02838 0.0
N233 N 0.82921 0.8769 0.09354 0.0
C234 C 0.83016 0.84352 0.05641 0.0
C235 C 0.7937 0.86323 0.021 0.0
C236 C 0.07582 0.1504 0.74963 0.0
C237 C 0.09728 0.12912 0.70915 0.0
C238 C 0.09761 0.12894 0.7897 0.0
C239 C 0.1424 0.08591 0.79091 0.0
H240 H 0.0425 0.18472 0.75048 0.0
H241 H 0.08057 0.14784 0.81989 0.0
S242 S 0.21068 0.01229 0.69432 0.0
N243 N 0.16339 0.05967 0.67286 0.0
N244 N 0.20481 0.01992 0.74817 0.0
C245 C 0.1628 0.06265 0.75074 0.0
C246 C 0.1401 0.08404 0.70988 0.0
C247 C 0.11983 0.90416 0.19645 0.0
C248 C 0.07329 0.86274 0.19732 0.0
C249 C 0.14095 0.92989 0.23528 0.0
C250 C 0.11583 0.91588 0.27645 0.0
H251 H 0.14197 0.91494 0.1658 0.0
H252 H 0.17835 0.95983 0.23304 0.0
S253 S 0.98759 0.8158 0.2957 0.0
N254 N -0.00088 0.81282 0.24207 0.0
N255 N 0.03799 0.86179 0.31507 0.0
C256 C 0.06679 0.87723 0.27742 0.0
C257 C 0.04581 0.85045 0.23787 0.0
C258 C 0.94676 0.83845 0.75781 0.0
C259 C 0.91458 0.82131 0.72033 0.0
C260 C 0.91923 0.8672 0.79311 0.0
C261 C 0.85829 0.88006 0.79253 0.0
H262 H 0.99379 0.82974 0.76004 0.0
H263 H 0.94621 0.87938 0.8211 0.0
S264 S 0.75363 0.84474 0.7021 0.0
N265 N 0.81803 0.81947 0.68477 0.0
N266 N 0.76641 0.8734 0.75107 0.0
C267 C 0.82542 0.86315 0.75528 0.0
C268 C 0.85349 0.83385 0.71924 0.0
C269 C 0.9254 0.11498 0.31712 0.0
C270 C 0.86741 0.09372 0.31042 0.0
C271 C 0.95826 0.14026 0.28263 0.0
C272 C 0.93438 0.14561 0.24013 0.0
H273 H 0.94519 0.11366 0.34954 0.0
H274 H 0.00203 0.15736 0.28974 0.0
S275 S 0.78779 0.08944 0.20363 0.0
N276 N 0.78991 0.07438 0.25677 0.0
N277 N 0.85145 0.12203 0.19218 0.0
C278 C 0.87763 0.12183 0.23242 0.0
C279 C 0.84426 0.09587 0.26748 0.0
loop_
_geom_bond_atom_site_label_1
_geom_bond_atom_site_label_2
_geom_bond_distance
_geom_bond_site_symmetry_2
_ccdc_geom_bond_type
C0 O1 1.160 1_455 S
C0 O7 1.185 . S
O1 C0 1.160 1_655 S
O2 Zn3 1.899 1_655 S
O2 C10 1.284 . S
Zn3 O2 1.899 1_455 S
Zn3 O4 2.032 . S
Zn3 O7 2.086 . S
Zn3 O12 1.977 . S
O4 Zn3 2.032 . S
O4 C8 1.278 . S
C5 O6 1.203 . S
C5 O12 1.267 . S
O6 C5 1.203 . S
O7 C0 1.185 . S
O7 Zn3 2.086 . S
C8 O4 1.278 . S
C8 O9 1.211 . S
O9 C8 1.211 . S
C10 O2 1.284 . S
C10 O11 1.273 . S
O11 C10 1.273 . S
O12 Zn3 1.977 . S
O12 C5 1.267 . S
C13 O14 1.160 1_565 S
C13 O20 1.185 . S
O14 C13 1.160 1_545 S
O15 Zn16 1.899 1_545 S
O15 C23 1.284 . S
Zn16 O15 1.899 1_565 S
Zn16 O17 2.032 . S
Zn16 O20 2.086 . S
Zn16 O25 1.977 . S
O17 Zn16 2.032 . S
O17 C21 1.278 . S
C18 O19 1.203 . S
C18 O25 1.267 . S
O19 C18 1.203 . S
O20 C13 1.185 . S
O20 Zn16 2.086 . S
C21 O17 1.278 . S
C21 O22 1.211 . S
O22 C21 1.211 . S
C23 O15 1.284 . S
C23 O24 1.273 . S
O24 C23 1.273 . S
O25 Zn16 1.977 . S
O25 C18 1.267 . S
C26 O27 1.160 1_655 S
C26 O33 1.185 . S
O27 C26 1.160 1_455 S
O28 Zn29 1.899 1_455 S
O28 C36 1.284 . S
Zn29 O28 1.899 1_655 S
Zn29 O30 2.032 . S
Zn29 O33 2.086 . S
Zn29 O38 1.977 . S
O30 Zn29 2.032 . S
O30 C34 1.278 . S
C31 O32 1.203 . S
C31 O38 1.267 . S
O32 C31 1.203 . S
O33 C26 1.185 . S
O33 Zn29 2.086 . S
C34 O30 1.278 . S
C34 O35 1.211 . S
O35 C34 1.211 . S
C36 O28 1.284 . S
C36 O37 1.273 . S
O37 C36 1.273 . S
O38 Zn29 1.977 . S
O38 C31 1.267 . S
C39 O40 1.160 1_545 S
C39 O46 1.185 . S
O40 C39 1.160 1_565 S
O41 Zn42 1.899 1_565 S
O41 C49 1.284 . S
Zn42 O41 1.899 1_545 S
Zn42 O43 2.032 . S
Zn42 O46 2.086 . S
Zn42 O51 1.977 . S
O43 Zn42 2.032 . S
O43 C47 1.278 . S
C44 O45 1.203 . S
C44 O51 1.267 . S
O45 C44 1.203 . S
O46 C39 1.185 . S
O46 Zn42 2.086 . S
C47 O43 1.278 . S
C47 O48 1.211 . S
O48 C47 1.211 . S
C49 O41 1.284 . S
C49 O50 1.273 . S
O50 C49 1.273 . S
O51 Zn42 1.977 . S
O51 C44 1.267 . S
C52 O53 1.160 1_655 S
C52 O59 1.185 . S
O53 C52 1.160 1_455 S
O54 Zn55 1.899 1_455 S
O54 C62 1.284 . S
Zn55 O54 1.899 1_655 S
Zn55 O56 2.032 . S
Zn55 O59 2.086 . S
Zn55 O64 1.977 . S
O56 Zn55 2.032 . S
O56 C60 1.278 . S
C57 O58 1.203 . S
C57 O64 1.267 . S
O58 C57 1.203 . S
O59 C52 1.185 . S
O59 Zn55 2.086 . S
C60 O56 1.278 . S
C60 O61 1.211 . S
O61 C60 1.211 . S
C62 O54 1.284 . S
C62 O63 1.273 . S
O63 C62 1.273 . S
O64 Zn55 1.977 . S
O64 C57 1.267 . S
C65 O66 1.160 1_545 S
C65 O72 1.185 . S
O66 C65 1.160 1_565 S
O67 Zn68 1.899 1_565 S
O67 C75 1.284 . S
Zn68 O67 1.899 1_545 S
Zn68 O69 2.032 . S
Zn68 O72 2.086 . S
Zn68 O77 1.977 . S
O69 Zn68 2.032 . S
O69 C73 1.278 . S
C70 O71 1.203 . S
C70 O77 1.267 . S
O71 C70 1.203 . S
O72 C65 1.185 . S
O72 Zn68 2.086 . S
C73 O69 1.278 . S
C73 O74 1.211 . S
O74 C73 1.211 . S
C75 O67 1.284 . S
C75 O76 1.273 . S
O76 C75 1.273 . S
O77 Zn68 1.977 . S
O77 C70 1.267 . S
C78 O79 1.160 1_455 S
C78 O85 1.185 . S
O79 C78 1.160 1_655 S
O80 Zn81 1.899 1_655 S
O80 C88 1.284 . S
Zn81 O80 1.899 1_455 S
Zn81 O82 2.032 . S
Zn81 O85 2.086 . S
Zn81 O90 1.977 . S
O82 Zn81 2.032 . S
O82 C86 1.278 . S
C83 O84 1.203 . S
C83 O90 1.267 . S
O84 C83 1.203 . S
O85 C78 1.185 . S
O85 Zn81 2.086 . S
C86 O82 1.278 . S
C86 O87 1.211 . S
O87 C86 1.211 . S
C88 O80 1.284 . S
C88 O89 1.273 . S
O89 C88 1.273 . S
O90 Zn81 1.977 . S
O90 C83 1.267 . S
C91 O92 1.160 1_565 S
C91 O98 1.185 . S
O92 C91 1.160 1_545 S
O93 Zn94 1.899 1_545 S
O93 C101 1.284 . S
Zn94 O93 1.899 1_565 S
Zn94 O95 2.032 . S
Zn94 O98 2.086 . S
Zn94 O103 1.977 . S
O95 Zn94 2.032 . S
O95 C99 1.278 . S
C96 O97 1.203 . S
C96 O103 1.267 . S
O97 C96 1.203 . S
O98 C91 1.185 . S
O98 Zn94 2.086 . S
C99 O95 1.278 . S
C99 O100 1.211 . S
O100 C99 1.211 . S
C101 O93 1.284 . S
C101 O102 1.273 . S
O102 C101 1.273 . S
O103 Zn94 1.977 . S
O103 C96 1.267 . S
C104 C105 1.369 . S
C104 C106 1.419 . S
C104 H108 0.930 . S
C105 C104 1.369 . S
C105 C114 1.429 1_655 S
C106 C104 1.419 . S
C106 C107 1.363 1_655 S
C106 H109 0.929 . S
C107 C106 1.363 1_455 S
C107 C113 1.428 . S
H108 C104 0.930 . S
H109 C106 0.929 . S
S110 N111 1.613 . S
S110 N112 1.610 . S
N111 S110 1.613 . S
N111 C114 1.350 . S
N112 S110 1.610 . S
N112 C113 1.351 . S
C113 C107 1.428 . S
C113 N112 1.351 . S
C113 C114 1.434 . S
C114 C105 1.429 1_455 S
C114 N111 1.350 . S
C114 C113 1.434 . S
C115 C116 1.369 . S
C115 C117 1.419 . S
C115 H119 0.930 . S
C116 C115 1.369 . S
C116 C125 1.429 1_545 S
C117 C115 1.419 . S
C117 C118 1.363 1_545 S
C117 H120 0.929 . S
C118 C117 1.363 1_565 S
C118 C124 1.428 . S
H119 C115 0.930 . S
H120 C117 0.929 . S
S121 N122 1.613 . S
S121 N123 1.610 . S
N122 S121 1.613 . S
N122 C125 1.350 . S
N123 S121 1.610 . S
N123 C124 1.351 . S
C124 C118 1.428 . S
C124 N123 1.351 . S
C124 C125 1.434 . S
C125 C116 1.429 1_565 S
C125 N122 1.350 . S
C125 C124 1.434 . S
C126 C127 1.369 1_455 S
C126 C128 1.419 . S
C126 H130 0.930 . S
C127 C126 1.369 1_655 S
C127 C136 1.429 . S
C128 C126 1.419 . S
C128 C129 1.363 . S
C128 H131 0.929 . S
C129 C128 1.363 . S
C129 C135 1.428 1_455 S
H130 C126 0.930 . S
H131 C128 0.929 . S
S132 N133 1.613 . S
S132 N134 1.610 . S
N133 S132 1.613 . S
N133 C136 1.350 . S
N134 S132 1.610 . S
N134 C135 1.351 . S
C135 C129 1.428 1_655 S
C135 N134 1.351 . S
C135 C136 1.434 . S
C136 C127 1.429 . S
C136 N133 1.350 . S
C136 C135 1.434 . S
C137 C138 1.369 1_565 S
C137 C139 1.419 . S
C137 H141 0.930 . S
C138 C137 1.369 1_545 S
C138 C147 1.429 . S
C139 C137 1.419 . S
C139 C140 1.363 . S
C139 H142 0.929 . S
C140 C139 1.363 . S
C140 C146 1.428 1_565 S
H141 C137 0.930 . S
H142 C139 0.929 . S
S143 N144 1.613 . S
S143 N145 1.610 . S
N144 S143 1.613 . S
N144 C147 1.350 . S
N145 S143 1.610 . S
N145 C146 1.351 . S
C146 C140 1.428 1_545 S
C146 N145 1.351 . S
C146 C147 1.434 . S
C147 C138 1.429 . S
C147 N144 1.350 . S
C147 C146 1.434 . S
C148 C149 1.369 . S
C148 C150 1.419 . S
C148 H152 0.930 . S
C149 C148 1.369 . S
C149 C158 1.429 . S
C150 C148 1.419 . S
C150 C151 1.363 . S
C150 H153 0.929 . S
C151 C150 1.363 . S
C151 C157 1.428 . S
H152 C148 0.930 . S
H153 C150 0.929 . S
S154 N155 1.613 . S
S154 N156 1.610 . S
N155 S154 1.613 . S
N155 C158 1.350 . S
N156 S154 1.610 . S
N156 C157 1.351 . S
C157 C151 1.428 . S
C157 N156 1.351 . S
C157 C158 1.434 . S
C158 C149 1.429 . S
C158 N155 1.350 . S
C158 C157 1.434 . S
C159 C160 1.369 . S
C159 C161 1.419 . S
C159 H163 0.930 . S
C160 C159 1.369 . S
C160 C169 1.429 . S
C161 C159 1.419 . S
C161 C162 1.363 . S
C161 H164 0.929 . S
C162 C161 1.363 . S
C162 C168 1.428 . S
H163 C159 0.930 . S
H164 C161 0.929 . S
S165 N166 1.613 . S
S165 N167 1.610 . S
N166 S165 1.613 . S
N166 C169 1.350 . S
N167 S165 1.610 . S
N167 C168 1.351 . S
C168 C162 1.428 . S
C168 N167 1.351 . S
C168 C169 1.434 . S
C169 C160 1.429 . S
C169 N166 1.350 . S
C169 C168 1.434 . S
C170 C171 1.369 . S
C170 C172 1.419 . S
C170 H174 0.930 . S
C171 C170 1.369 . S
C171 C180 1.429 . S
C172 C170 1.419 . S
C172 C173 1.363 . S
C172 H175 0.929 . S
C173 C172 1.363 . S
C173 C179 1.428 . S
H174 C170 0.930 . S
H175 C172 0.929 . S
S176 N177 1.613 . S
S176 N178 1.610 . S
N177 S176 1.613 . S
N177 C180 1.350 . S
N178 S176 1.610 . S
N178 C179 1.351 . S
C179 C173 1.428 . S
C179 N178 1.351 . S
C179 C180 1.434 . S
C180 C171 1.429 . S
C180 N177 1.350 . S
C180 C179 1.434 . S
C181 C182 1.369 . S
C181 C183 1.419 . S
C181 H185 0.930 . S
C182 C181 1.369 . S
C182 C191 1.429 . S
C183 C181 1.419 . S
C183 C184 1.363 . S
C183 H186 0.929 . S
C184 C183 1.363 . S
C184 C190 1.428 . S
H185 C181 0.930 . S
H186 C183 0.929 . S
S187 N188 1.613 . S
S187 N189 1.610 . S
N188 S187 1.613 . S
N188 C191 1.350 . S
N189 S187 1.610 . S
N189 C190 1.351 . S
C190 C184 1.428 . S
C190 N189 1.351 . S
C190 C191 1.434 . S
C191 C182 1.429 . S
C191 N188 1.350 . S
C191 C190 1.434 . S
C192 C193 1.369 . S
C192 C194 1.419 . S
C192 H196 0.930 . S
C193 C192 1.369 . S
C193 C202 1.429 . S
C194 C192 1.419 . S
C194 C195 1.363 1_556 S
C194 H197 0.929 . S
C195 C194 1.363 1_554 S
C195 C201 1.428 . S
H196 C192 0.930 . S
H197 C194 0.929 . S
S198 N199 1.613 1_554 S
S198 N200 1.610 . S
N199 S198 1.613 1_556 S
N199 C202 1.350 . S
N200 S198 1.610 . S
N200 C201 1.351 . S
C201 C195 1.428 . S
C201 N200 1.351 . S
C201 C202 1.434 1_554 S
C202 C193 1.429 . S
C202 N199 1.350 . S
C202 C201 1.434 1_556 S
C203 C204 1.369 . S
C203 C205 1.419 1_556 S
C203 H207 0.930 . S
C204 C203 1.369 . S
C204 C213 1.429 1_556 S
C205 C203 1.419 1_554 S
C205 C206 1.363 . S
C205 H208 0.929 . S
C206 C205 1.363 . S
C206 C212 1.428 . S
H207 C203 0.930 . S
H208 C205 0.929 . S
S209 N210 1.613 . S
S209 N211 1.610 . S
N210 S209 1.613 . S
N210 C213 1.350 . S
N211 S209 1.610 . S
N211 C212 1.351 . S
C212 C206 1.428 . S
C212 N211 1.351 . S
C212 C213 1.434 . S
C213 C204 1.429 1_554 S
C213 N210 1.350 . S
C213 C212 1.434 . S
C214 C215 1.369 1_556 S
C214 C216 1.419 . S
C214 H218 0.930 . S
C215 C214 1.369 1_554 S
C215 C224 1.429 . S
C216 C214 1.419 . S
C216 C217 1.363 . S
C216 H219 0.929 . S
C217 C216 1.363 . S
C217 C223 1.428 . S
H218 C214 0.930 . S
H219 C216 0.929 . S
S220 N221 1.613 . S
S220 N222 1.610 1_554 S
N221 S220 1.613 . S
N221 C224 1.350 . S
N222 S220 1.610 1_556 S
N222 C223 1.351 . S
C223 C217 1.428 . S
C223 N222 1.351 . S
C223 C224 1.434 1_556 S
C224 C215 1.429 . S
C224 N221 1.350 . S
C224 C223 1.434 1_554 S
C225 C226 1.369 . S
C225 C227 1.419 1_556 S
C225 H229 0.930 . S
C226 C225 1.369 . S
C226 C235 1.429 1_556 S
C227 C225 1.419 1_554 S
C227 C228 1.363 . S
C227 H230 0.929 . S
C228 C227 1.363 . S
C228 C234 1.428 . S
H229 C225 0.930 . S
H230 C227 0.929 . S
S231 N232 1.613 . S
S231 N233 1.610 . S
N232 S231 1.613 . S
N232 C235 1.350 . S
N233 S231 1.610 . S
N233 C234 1.351 . S
C234 C228 1.428 . S
C234 N233 1.351 . S
C234 C235 1.434 . S
C235 C226 1.429 1_554 S
C235 N232 1.350 . S
C235 C234 1.434 . S
C236 C237 1.369 . S
C236 C238 1.419 . S
C236 H240 0.930 . S
C237 C236 1.369 . S
C237 C246 1.429 . S
C238 C236 1.419 . S
C238 C239 1.363 . S
C238 H241 0.929 . S
C239 C238 1.363 . S
C239 C245 1.428 . S
H240 C236 0.930 . S
H241 C238 0.929 . S
S242 N243 1.613 . S
S242 N244 1.610 . S
N243 S242 1.613 . S
N243 C246 1.350 . S
N244 S242 1.610 . S
N244 C245 1.351 . S
C245 C239 1.428 . S
C245 N244 1.351 . S
C245 C246 1.434 . S
C246 C237 1.429 . S
C246 N243 1.350 . S
C246 C245 1.434 . S
C247 C248 1.369 . S
C247 C249 1.419 . S
C247 H251 0.930 . S
C248 C247 1.369 . S
C248 C257 1.429 . S
C249 C247 1.419 . S
C249 C250 1.363 . S
C249 H252 0.929 . S
C250 C249 1.363 . S
C250 C256 1.428 . S
H251 C247 0.930 . S
H252 C249 0.929 . S
S253 N254 1.613 . S
S253 N255 1.610 . S
N254 S253 1.613 . S
N254 C257 1.350 . S
N255 S253 1.610 . S
N255 C256 1.351 . S
C256 C250 1.428 . S
C256 N255 1.351 . S
C256 C257 1.434 . S
C257 C248 1.429 . S
C257 N254 1.350 . S
C257 C256 1.434 . S
C258 C259 1.369 . S
C258 C260 1.419 . S
C258 H262 0.930 . S
C259 C258 1.369 . S
C259 C268 1.429 . S
C260 C258 1.419 . S
C260 C261 1.363 . S
C260 H263 0.929 . S
C261 C260 1.363 . S
C261 C267 1.428 . S
H262 C258 0.930 . S
H263 C260 0.929 . S
S264 N265 1.613 . S
S264 N266 1.610 . S
N265 S264 1.613 . S
N265 C268 1.350 . S
N266 S264 1.610 . S
N266 C267 1.351 . S
C267 C261 1.428 . S
C267 N266 1.351 . S
C267 C268 1.434 . S
C268 C259 1.429 . S
C268 N265 1.350 . S
C268 C267 1.434 . S
C269 C270 1.369 . S
C269 C271 1.419 . S
C269 H273 0.930 . S
C270 C269 1.369 . S
C270 C279 1.429 . S
C271 C269 1.419 . S
C271 C272 1.363 . S
C271 H274 0.929 . S
C272 C271 1.363 . S
C272 C278 1.428 . S
H273 C269 0.930 . S
H274 C271 0.929 . S
S275 N276 1.613 . S
S275 N277 1.610 . S
N276 S275 1.613 . S
N276 C279 1.350 . S
N277 S275 1.610 . S
N277 C278 1.351 . S
C278 C272 1.428 . S
C278 N277 1.351 . S
C278 C279 1.434 . S
C279 C270 1.429 . S
C279 N276 1.350 . S
C279 C278 1.434 . S
C105 C26 1.319 . S
C107 C0 1.331 . S
C116 C39 1.325 . S
C118 C13 1.329 . S
C127 C52 1.330 . S
C129 C78 1.321 . S
C138 C65 1.327 . S
C140 C91 1.327 . S
C149 C23 1.114 . S
C151 C5 1.033 . S
C160 C18 1.017 . S
C162 C36 1.111 . S
C171 C49 1.109 . S
C173 C31 1.031 . S
C182 C44 1.031 . S
C184 C10 1.109 . S
C193 C101 1.109 . S
C195 C57 1.021 . S
C204 C70 1.033 . S
C206 C62 1.114 . S
C215 C83 1.032 . S
C217 C75 1.110 . S
C226 C96 1.022 . S
C228 C88 1.114 . S
C237 C8 1.599 . S
C239 C73 1.610 . S
C248 C86 1.611 . S
C250 C21 1.601 . S
C259 C34 1.599 . S
C261 C99 1.610 . S
C270 C47 1.611 . S
C272 C60 1.600 . S
