# Generated by pormake.
# Topology snl, (6)-cn, num edge types: 1
# Building blocks:
#     Node 0, Type 0, BuildingBlock: BETFEN_clean_sbu_0, # of connection points: 6
#     Node 1, Type 0, BuildingBlock: BETFEN_clean_sbu_0, # of connection points: 6
#     Node 2, Type 0, BuildingBlock: BETFEN_clean_sbu_0, # of connection points: 6
#     Node 3, Type 0, BuildingBlock: BETFEN_clean_sbu_0, # of connection points: 6
#     Node 4, Type 0, BuildingBlock: BETFEN_clean_sbu_0, # of connection points: 6
#     Node 5, Type 0, BuildingBlock: BETFEN_clean_sbu_0, # of connection points: 6
#     Node 6, Type 0, BuildingBlock: BETFEN_clean_sbu_0, # of connection points: 6
#     Node 7, Type 0, BuildingBlock: BETFEN_clean_sbu_0, # of connection points: 6
#     Node 8, Type 0, BuildingBlock: BETFEN_clean_sbu_0, # of connection points: 6
#     Node 9, Type 0, BuildingBlock: BETFEN_clean_sbu_0, # of connection points: 6
#     Node 10, Type 0, BuildingBlock: BETFEN_clean_sbu_0, # of connection points: 6
#     Node 11, Type 0, BuildingBlock: BETFEN_clean_sbu_0, # of connection points: 6
#     Node 12, Type 0, BuildingBlock: BETFEN_clean_sbu_0, # of connection points: 6
#     Node 13, Type 0, BuildingBlock: BETFEN_clean_sbu_0, # of connection points: 6
#     Node 14, Type 0, BuildingBlock: BETFEN_clean_sbu_0, # of connection points: 6
#     Node 15, Type 0, BuildingBlock: BETFEN_clean_sbu_0, # of connection points: 6
#     Edge 16, Type (0, 0), BuildingBlock: UVAHIK_clean_linker_0, # of connection points: 2
#     Edge 17, Type (0, 0), BuildingBlock: UVAHIK_clean_linker_0, # of connection points: 2
#     Edge 18, Type (0, 0), BuildingBlock: UVAHIK_clean_linker_0, # of connection points: 2
#     Edge 19, Type (0, 0), BuildingBlock: UVAHIK_clean_linker_0, # of connection points: 2
#     Edge 20, Type (0, 0), BuildingBlock: UVAHIK_clean_linker_0, # of connection points: 2
#     Edge 21, Type (0, 0), BuildingBlock: UVAHIK_clean_linker_0, # of connection points: 2
#     Edge 22, Type (0, 0), BuildingBlock: UVAHIK_clean_linker_0, # of connection points: 2
#     Edge 23, Type (0, 0), BuildingBlock: UVAHIK_clean_linker_0, # of connection points: 2
#     Edge 24, Type (0, 0), BuildingBlock: UVAHIK_clean_linker_0, # of connection points: 2
#     Edge 25, Type (0, 0), BuildingBlock: UVAHIK_clean_linker_0, # of connection points: 2
#     Edge 26, Type (0, 0), BuildingBlock: UVAHIK_clean_linker_0, # of connection points: 2
#     Edge 27, Type (0, 0), BuildingBlock: UVAHIK_clean_linker_0, # of connection points: 2
#     Edge 28, Type (0, 0), BuildingBlock: UVAHIK_clean_linker_0, # of connection points: 2
#     Edge 29, Type (0, 0), BuildingBlock: UVAHIK_clean_linker_0, # of connection points: 2
#     Edge 30, Type (0, 0), BuildingBlock: UVAHIK_clean_linker_0, # of connection points: 2
#     Edge 31, Type (0, 0), BuildingBlock: UVAHIK_clean_linker_0, # of connection points: 2
#     Edge 32, Type (0, 0), BuildingBlock: UVAHIK_clean_linker_0, # of connection points: 2
#     Edge 33, Type (0, 0), BuildingBlock: UVAHIK_clean_linker_0, # of connection points: 2
#     Edge 34, Type (0, 0), BuildingBlock: UVAHIK_clean_linker_0, # of connection points: 2
#     Edge 35, Type (0, 0), BuildingBlock: UVAHIK_clean_linker_0, # of connection points: 2
#     Edge 36, Type (0, 0), BuildingBlock: UVAHIK_clean_linker_0, # of connection points: 2
#     Edge 37, Type (0, 0), BuildingBlock: UVAHIK_clean_linker_0, # of connection points: 2
#     Edge 38, Type (0, 0), BuildingBlock: UVAHIK_clean_linker_0, # of connection points: 2
#     Edge 39, Type (0, 0), BuildingBlock: UVAHIK_clean_linker_0, # of connection points: 2
#     Edge 40, Type (0, 0), BuildingBlock: UVAHIK_clean_linker_0, # of connection points: 2
#     Edge 41, Type (0, 0), BuildingBlock: UVAHIK_clean_linker_0, # of connection points: 2
#     Edge 42, Type (0, 0), BuildingBlock: UVAHIK_clean_linker_0, # of connection points: 2
#     Edge 43, Type (0, 0), BuildingBlock: UVAHIK_clean_linker_0, # of connection points: 2
#     Edge 44, Type (0, 0), BuildingBlock: UVAHIK_clean_linker_0, # of connection points: 2
#     Edge 45, Type (0, 0), BuildingBlock: UVAHIK_clean_linker_0, # of connection points: 2
#     Edge 46, Type (0, 0), BuildingBlock: UVAHIK_clean_linker_0, # of connection points: 2
#     Edge 47, Type (0, 0), BuildingBlock: UVAHIK_clean_linker_0, # of connection points: 2
#     Edge 48, Type (0, 0), BuildingBlock: UVAHIK_clean_linker_0, # of connection points: 2
#     Edge 49, Type (0, 0), BuildingBlock: UVAHIK_clean_linker_0, # of connection points: 2
#     Edge 50, Type (0, 0), BuildingBlock: UVAHIK_clean_linker_0, # of connection points: 2
#     Edge 51, Type (0, 0), BuildingBlock: UVAHIK_clean_linker_0, # of connection points: 2
#     Edge 52, Type (0, 0), BuildingBlock: UVAHIK_clean_linker_0, # of connection points: 2
#     Edge 53, Type (0, 0), BuildingBlock: UVAHIK_clean_linker_0, # of connection points: 2
#     Edge 54, Type (0, 0), BuildingBlock: UVAHIK_clean_linker_0, # of connection points: 2
#     Edge 55, Type (0, 0), BuildingBlock: UVAHIK_clean_linker_0, # of connection points: 2
#     Edge 56, Type (0, 0), BuildingBlock: UVAHIK_clean_linker_0, # of connection points: 2
#     Edge 57, Type (0, 0), BuildingBlock: UVAHIK_clean_linker_0, # of connection points: 2
#     Edge 58, Type (0, 0), BuildingBlock: UVAHIK_clean_linker_0, # of connection points: 2
#     Edge 59, Type (0, 0), BuildingBlock: UVAHIK_clean_linker_0, # of connection points: 2
#     Edge 60, Type (0, 0), BuildingBlock: UVAHIK_clean_linker_0, # of connection points: 2
#     Edge 61, Type (0, 0), BuildingBlock: UVAHIK_clean_linker_0, # of connection points: 2
#     Edge 62, Type (0, 0), BuildingBlock: UVAHIK_clean_linker_0, # of connection points: 2
#     Edge 63, Type (0, 0), BuildingBlock: UVAHIK_clean_linker_0, # of connection points: 2
# Relax obj value: 0.184
# Max RMSD: 0.210
# Mean RMSD: 0.210
data_MOF--net-snl--node1-BETFEN_clean_sbu_0--edge1-UVAHIK_clean_linker_0
_symmetry_space_group_name_H-M    P1
_symmetry_Int_Tables_number       1
_symmetry_cell_setting            triclinic
loop_
_symmetry_equiv_pos_as_xyz
'x, y, z'
_cell_length_a     72.676883
_cell_length_b     75.268736
_cell_length_c     30.508762
_cell_angle_alpha  89.987989
_cell_angle_beta   89.910029
_cell_angle_gamma 89.936002
loop_
_atom_site_label
_atom_site_type_symbol
_atom_site_fract_x
_atom_site_fract_y
_atom_site_fract_z
_atom_type_partial_charge
Pr0 Pr 0.14661 0.62754 0.05058 0.0
Pr1 Pr 0.12825 0.63291 0.13792 0.0
C2 C 0.15687 0.61716 0.96919 0.0
C3 C 0.15272 0.61924 0.92196 0.0
C4 C 0.14946 0.63597 0.90302 0.0
C5 C 0.14665 0.63757 0.8577 0.0
C6 C 0.14698 0.62247 0.83039 0.0
C7 C 0.14995 0.60573 0.84974 0.0
C8 C 0.1528 0.60416 0.89494 0.0
C9 C 0.14683 0.66308 0.07812 0.0
C10 C 0.10167 0.63661 0.05487 0.0
C11 C 0.11746 0.64186 0.21993 0.0
C12 C 0.12185 0.63946 0.26695 0.0
C13 C 0.12537 0.62263 0.2851 0.0
C14 C 0.12855 0.62077 0.33023 0.0
C15 C 0.12835 0.6357 0.35811 0.0
C16 C 0.12508 0.65253 0.33954 0.0
C17 C 0.12185 0.65436 0.29456 0.0
C18 C 0.12823 0.59768 0.10737 0.0
C19 C 0.17318 0.62579 0.13601 0.0
O20 O 0.14506 0.60835 0.99315 0.0
O21 O 0.16416 0.63067 0.98974 0.0
O22 O 0.13324 0.65271 0.08148 0.0
O23 O 0.16062 0.65534 0.05894 0.0
O24 O 0.10479 0.64336 0.0939 0.0
O25 O 0.11461 0.62762 0.03385 0.0
O26 O 0.12881 0.65147 0.19658 0.0
O27 O 0.11079 0.6283 0.19841 0.0
O28 O 0.14181 0.60805 0.10672 0.0
O29 O 0.11398 0.60525 0.12505 0.0
O30 O 0.17115 0.61912 0.09625 0.0
O31 O 0.15945 0.63395 0.15574 0.0
H32 H 0.14924 0.64783 0.92313 0.0
H33 H 0.14416 0.65063 0.84408 0.0
H34 H 0.15055 0.59384 0.82981 0.0
H35 H 0.15538 0.59113 0.90876 0.0
H36 H 0.12554 0.61091 0.26454 0.0
H37 H 0.13125 0.60765 0.34326 0.0
H38 H 0.12457 0.66429 0.35995 0.0
H39 H 0.11908 0.66746 0.28138 0.0
Pr40 Pr 0.64537 0.88961 0.4747 0.0
Pr41 Pr 0.62623 0.88595 0.38844 0.0
C42 C 0.65636 0.89831 0.55666 0.0
C43 C 0.65176 0.89616 0.60387 0.0
C44 C 0.65871 0.88174 0.62807 0.0
C45 C 0.65562 0.88051 0.67329 0.0
C46 C 0.64558 0.89373 0.69557 0.0
C47 C 0.63844 0.90804 0.67123 0.0
C48 C 0.64154 0.90927 0.62601 0.0
C49 C 0.64493 0.85454 0.44378 0.0
C50 C 0.60028 0.88155 0.47257 0.0
C51 C 0.61469 0.87834 0.30631 0.0
C52 C 0.61924 0.88092 0.2592 0.0
C53 C 0.61172 0.8952 0.23545 0.0
C54 C 0.61478 0.89678 0.19026 0.0
C55 C 0.62532 0.88404 0.16761 0.0
C56 C 0.63305 0.86991 0.19152 0.0
C57 C 0.63002 0.86835 0.23668 0.0
C58 C 0.62671 0.92065 0.42223 0.0
C59 C 0.67139 0.89246 0.38816 0.0
O60 O 0.64569 0.90841 0.53276 0.0
O61 O 0.66253 0.88445 0.53535 0.0
O62 O 0.6314 0.86509 0.44242 0.0
O63 O 0.65907 0.86191 0.46225 0.0
O64 O 0.60287 0.8754 0.43272 0.0
O65 O 0.6136 0.88991 0.4936 0.0
O66 O 0.62532 0.86785 0.32927 0.0
O67 O 0.60875 0.89203 0.3287 0.0
O68 O 0.64028 0.9102 0.42109 0.0
O69 O 0.61224 0.91341 0.4049 0.0
O70 O 0.67005 0.89775 0.42931 0.0
O71 O 0.65719 0.88545 0.36774 0.0
H72 H 0.66689 0.87154 0.61228 0.0
H73 H 0.66156 0.86944 0.69099 0.0
H74 H 0.63047 0.91836 0.68713 0.0
H75 H 0.63614 0.92066 0.60852 0.0
H76 H 0.60313 0.90499 0.25157 0.0
H77 H 0.60841 0.90771 0.17285 0.0
H78 H 0.64143 0.85997 0.1753 0.0
H79 H 0.6359 0.85708 0.25378 0.0
Pr80 Pr 0.36557 0.39049 0.55222 0.0
Pr81 Pr 0.38411 0.38531 0.63925 0.0
C82 C 0.35514 0.40067 0.47084 0.0
C83 C 0.35937 0.39864 0.42361 0.0
C84 C 0.36302 0.38196 0.40477 0.0
C85 C 0.36588 0.38037 0.35944 0.0
C86 C 0.36521 0.39543 0.33201 0.0
C87 C 0.36186 0.41212 0.35127 0.0
C88 C 0.35896 0.41368 0.39648 0.0
C89 C 0.36549 0.35501 0.58005 0.0
C90 C 0.41075 0.38208 0.55582 0.0
C91 C 0.39496 0.37644 0.72121 0.0
C92 C 0.39048 0.3787 0.76826 0.0
C93 C 0.38656 0.39544 0.78647 0.0
C94 C 0.38336 0.39721 0.83164 0.0
C95 C 0.38395 0.38229 0.85951 0.0
C96 C 0.3876 0.36554 0.84089 0.0
C97 C 0.39085 0.36379 0.79586 0.0
C98 C 0.38384 0.42052 0.60861 0.0
C99 C 0.33906 0.39227 0.63793 0.0
O100 O 0.36677 0.4097 0.49474 0.0
O101 O 0.3481 0.38705 0.49148 0.0
O102 O 0.37911 0.36538 0.58306 0.0
O103 O 0.35164 0.36274 0.56123 0.0
O104 O 0.40794 0.37549 0.59519 0.0
O105 O 0.39747 0.39056 0.5348 0.0
O106 O 0.38387 0.36663 0.69777 0.0
O107 O 0.40138 0.39016 0.69979 0.0
O108 O 0.37033 0.41006 0.60815 0.0
O109 O 0.39814 0.41306 0.62621 0.0
O110 O 0.34099 0.39878 0.59798 0.0
O111 O 0.3529 0.3843 0.65769 0.0
H112 H 0.3635 0.37013 0.42496 0.0
H113 H 0.36867 0.36735 0.3459 0.0
H114 H 0.361 0.42398 0.33125 0.0
H115 H 0.35608 0.42667 0.41022 0.0
H116 H 0.3861 0.40717 0.76592 0.0
H117 H 0.38037 0.41028 0.8447 0.0
H118 H 0.38842 0.35379 0.86128 0.0
H119 H 0.39393 0.35076 0.78263 0.0
Pr120 Pr 0.86579 0.12809 0.97883 0.0
Pr121 Pr 0.88491 0.13256 0.89259 0.0
C122 C 0.85499 0.11873 0.06059 0.0
C123 C 0.85922 0.12114 0.10788 0.0
C124 C 0.85366 0.1365 0.13065 0.0
C125 C 0.85644 0.13796 0.17595 0.0
C126 C 0.86478 0.12408 0.19971 0.0
C127 C 0.87056 0.10885 0.17672 0.0
C128 C 0.86777 0.10738 0.13147 0.0
C129 C 0.86597 0.16342 0.94958 0.0
C130 C 0.91097 0.13633 0.97657 0.0
C131 C 0.89613 0.14067 0.81035 0.0
C132 C 0.89144 0.1383 0.76328 0.0
C133 C 0.89723 0.12315 0.73999 0.0
C134 C 0.89403 0.12169 0.69484 0.0
C135 C 0.88508 0.13538 0.67174 0.0
C136 C 0.87906 0.1504 0.69522 0.0
C137 C 0.88225 0.15186 0.74033 0.0
C138 C 0.88474 0.09762 0.92478 0.0
C139 C 0.83987 0.12564 0.89262 0.0
O140 O 0.86649 0.10933 0.03704 0.0
O141 O 0.84798 0.13214 0.03905 0.0
O142 O 0.87959 0.15298 0.94758 0.0
O143 O 0.85191 0.1558 0.96786 0.0
O144 O 0.9085 0.14262 0.9368 0.0
O145 O 0.89753 0.12803 0.99744 0.0
O146 O 0.88551 0.151 0.83387 0.0
O147 O 0.90221 0.12692 0.83222 0.0
O148 O 0.87106 0.10793 0.92433 0.0
O149 O 0.89912 0.10511 0.90758 0.0
O150 O 0.84152 0.11942 0.93289 0.0
O151 O 0.85383 0.13348 0.87303 0.0
H152 H 0.84683 0.14728 0.11369 0.0
H153 H 0.85158 0.14979 0.19254 0.0
H154 H 0.87725 0.09799 0.19372 0.0
H155 H 0.87207 0.09531 0.11502 0.0
H156 H 0.90457 0.11254 0.75642 0.0
H157 H 0.89908 0.11004 0.67781 0.0
H158 H 0.87192 0.16111 0.6787 0.0
H159 H 0.87774 0.16378 0.75711 0.0
Pr160 Pr 0.14586 0.38998 0.97873 0.0
Pr161 Pr 0.1272 0.38514 0.89181 0.0
C162 C 0.1564 0.39989 0.06018 0.0
C163 C 0.15215 0.39783 0.10741 0.0
C164 C 0.14931 0.38107 0.12658 0.0
C165 C 0.14643 0.3795 0.1719 0.0
C166 C 0.14628 0.39466 0.199 0.0
C167 C 0.14883 0.41142 0.17945 0.0
C168 C 0.15176 0.41296 0.13424 0.0
C169 C 0.1457 0.35456 0.9504 0.0
C170 C 0.10066 0.38185 0.97541 0.0
C171 C 0.11622 0.37652 0.80981 0.0
C172 C 0.12074 0.37878 0.76275 0.0
C173 C 0.12384 0.3956 0.74413 0.0
C174 C 0.12704 0.39733 0.69897 0.0
C175 C 0.12727 0.38229 0.67149 0.0
C176 C 0.12445 0.36547 0.6905 0.0
C177 C 0.1212 0.36376 0.73553 0.0
C178 C 0.12755 0.42026 0.92303 0.0
C179 C 0.17226 0.39191 0.89288 0.0
O180 O 0.14486 0.40909 0.03639 0.0
O181 O 0.16335 0.38626 0.03937 0.0
O182 O 0.13215 0.36504 0.94767 0.0
O183 O 0.15964 0.36215 0.96915 0.0
O184 O 0.10338 0.37536 0.93591 0.0
O185 O 0.114 0.3902 0.99644 0.0
O186 O 0.1272 0.36653 0.83319 0.0
O187 O 0.10994 0.39028 0.83135 0.0
O188 O 0.14105 0.40976 0.9232 0.0
O189 O 0.11321 0.4129 0.90544 0.0
O190 O 0.1704 0.3983 0.93295 0.0
O191 O 0.15839 0.38405 0.87309 0.0
H192 H 0.14946 0.36916 0.10666 0.0
H193 H 0.14427 0.36641 0.18569 0.0
H194 H 0.14905 0.42336 0.19923 0.0
H195 H 0.15402 0.42602 0.12028 0.0
H196 H 0.12365 0.40743 0.76434 0.0
H197 H 0.12939 0.41046 0.68559 0.0
H198 H 0.12428 0.35361 0.6704 0.0
H199 H 0.11874 0.35066 0.74905 0.0
Pr200 Pr 0.86565 0.89093 0.04722 0.0
Pr201 Pr 0.88499 0.88508 0.14098 0.0
C202 C 0.8553 0.90599 0.97089 0.0
C203 C 0.85745 0.9035 0.92313 0.0
C204 C 0.86254 0.88702 0.90528 0.0
C205 C 0.86465 0.88504 0.85981 0.0
C206 C 0.86179 0.89954 0.83132 0.0
C207 C 0.85673 0.91602 0.8496 0.0
C208 C 0.85459 0.91796 0.89497 0.0
C209 C 0.86957 0.8542 0.06207 0.0
C210 C 0.91037 0.88112 0.05452 0.0
C211 C 0.89531 0.87524 0.22255 0.0
C212 C 0.89074 0.87769 0.26944 0.0
C213 C 0.88463 0.89408 0.28605 0.0
C214 C 0.88115 0.89615 0.33103 0.0
C215 C 0.8836 0.88184 0.36027 0.0
C216 C 0.88946 0.86539 0.34321 0.0
C217 C 0.89299 0.86337 0.29837 0.0
C218 C 0.88542 0.9196 0.1065 0.0
C219 C 0.83949 0.89256 0.13709 0.0
O220 O 0.87004 0.91083 0.9925 0.0
O221 O 0.84521 0.89433 0.99197 0.0
O222 O 0.87447 0.86652 0.08752 0.0
O223 O 0.86209 0.86091 0.02716 0.0
O224 O 0.90733 0.8743 0.09371 0.0
O225 O 0.89771 0.89057 0.03366 0.0
O226 O 0.88374 0.86607 0.19876 0.0
O227 O 0.90248 0.88876 0.20159 0.0
O228 O 0.87203 0.90897 0.10557 0.0
O229 O 0.89925 0.91275 0.12766 0.0
O230 O 0.84008 0.89483 0.09397 0.0
O231 O 0.85419 0.88853 0.1605 0.0
H232 H 0.86496 0.87572 0.92649 0.0
H233 H 0.86878 0.87222 0.84703 0.0
H234 H 0.85416 0.92741 0.82879 0.0
H235 H 0.85067 0.93079 0.90811 0.0
H236 H 0.88267 0.90531 0.26434 0.0
H237 H 0.87643 0.90893 0.34287 0.0
H238 H 0.89173 0.85414 0.36467 0.0
H239 H 0.89773 0.85062 0.2863 0.0
Pr240 Pr 0.36404 0.62825 0.48184 0.0
Pr241 Pr 0.38293 0.63336 0.39489 0.0
C242 C 0.35349 0.61821 0.56331 0.0
C243 C 0.35768 0.62028 0.61055 0.0
C244 C 0.36086 0.63701 0.62953 0.0
C245 C 0.36371 0.6386 0.67484 0.0
C246 C 0.3635 0.62349 0.70214 0.0
C247 C 0.36061 0.60675 0.68276 0.0
C248 C 0.35772 0.60519 0.63756 0.0
C249 C 0.36375 0.66365 0.45337 0.0
C250 C 0.40916 0.63699 0.47875 0.0
C251 C 0.3939 0.64214 0.31288 0.0
C252 C 0.38941 0.63988 0.26583 0.0
C253 C 0.38589 0.6231 0.24743 0.0
C254 C 0.38268 0.62136 0.20228 0.0
C255 C 0.38284 0.63635 0.1746 0.0
C256 C 0.38607 0.65313 0.19341 0.0
C257 C 0.38934 0.65485 0.23841 0.0
C258 C 0.38299 0.59826 0.42623 0.0
C259 C 0.33798 0.62594 0.3956 0.0
O260 O 0.36512 0.6091 0.53946 0.0
O261 O 0.34647 0.63182 0.54254 0.0
O262 O 0.37746 0.65335 0.45075 0.0
O263 O 0.34988 0.65588 0.47209 0.0
O264 O 0.40649 0.64342 0.43918 0.0
O265 O 0.39587 0.62848 0.4997 0.0
O266 O 0.38286 0.65204 0.33637 0.0
O267 O 0.40025 0.62839 0.33432 0.0
O268 O 0.36934 0.60859 0.42629 0.0
O269 O 0.39726 0.60579 0.40865 0.0
O270 O 0.33975 0.61962 0.43578 0.0
O271 O 0.35181 0.63398 0.37598 0.0
H272 H 0.36099 0.64888 0.60945 0.0
H273 H 0.36614 0.65167 0.68846 0.0
H274 H 0.36011 0.59485 0.70267 0.0
H275 H 0.3552 0.59216 0.62375 0.0
H276 H 0.38577 0.61132 0.2678 0.0
H277 H 0.38001 0.60826 0.18909 0.0
H278 H 0.38655 0.66495 0.17317 0.0
H279 H 0.39211 0.66792 0.25177 0.0
Pr280 Pr 0.6472 0.12806 0.55157 0.0
Pr281 Pr 0.62873 0.13314 0.63821 0.0
C282 C 0.65753 0.11814 0.46989 0.0
C283 C 0.65334 0.12058 0.42263 0.0
C284 C 0.65819 0.13624 0.40026 0.0
C285 C 0.65543 0.13773 0.35496 0.0
C286 C 0.64781 0.12359 0.33086 0.0
C287 C 0.6427 0.10805 0.35348 0.0
C288 C 0.64549 0.10655 0.39872 0.0
C289 C 0.64722 0.16359 0.57932 0.0
C290 C 0.60222 0.13676 0.55521 0.0
C291 C 0.61785 0.14176 0.72035 0.0
C292 C 0.6223 0.13918 0.76745 0.0
C293 C 0.61714 0.12364 0.78993 0.0
C294 C 0.62015 0.12202 0.83512 0.0
C295 C 0.62829 0.13594 0.85901 0.0
C296 C 0.63371 0.15135 0.8363 0.0
C297 C 0.6307 0.15297 0.79118 0.0
C298 C 0.62874 0.09794 0.60739 0.0
C299 C 0.67368 0.12607 0.63692 0.0
O300 O 0.64573 0.1092 0.49363 0.0
O301 O 0.66502 0.13136 0.49116 0.0
O302 O 0.63365 0.15319 0.5823 0.0
O303 O 0.66112 0.15586 0.5606 0.0
O304 O 0.60525 0.14356 0.5942 0.0
O305 O 0.61525 0.12784 0.5344 0.0
O306 O 0.62906 0.15153 0.697 0.0
O307 O 0.6111 0.12834 0.69842 0.0
O308 O 0.64236 0.10827 0.60708 0.0
O309 O 0.61445 0.10555 0.62477 0.0
O310 O 0.67171 0.11951 0.59707 0.0
O311 O 0.6599 0.13417 0.65663 0.0
H312 H 0.66444 0.14725 0.41752 0.0
H313 H 0.65975 0.14981 0.33864 0.0
H314 H 0.63656 0.09699 0.33622 0.0
H315 H 0.64174 0.09427 0.41494 0.0
H316 H 0.61045 0.11283 0.77283 0.0
H317 H 0.61559 0.11005 0.85155 0.0
H318 H 0.64025 0.16224 0.85344 0.0
H319 H 0.6347 0.16518 0.77496 0.0
Pr320 Pr 0.88447 0.38572 0.89121 0.0
Pr321 Pr 0.86552 0.39033 0.97772 0.0
C322 C 0.89557 0.37731 0.80908 0.0
C323 C 0.89097 0.37968 0.76198 0.0
C324 C 0.89542 0.39541 0.73944 0.0
C325 C 0.89231 0.39688 0.69425 0.0
C326 C 0.88477 0.38263 0.67042 0.0
C327 C 0.88006 0.36702 0.69319 0.0
C328 C 0.88318 0.36555 0.73831 0.0
C329 C 0.88425 0.42078 0.92284 0.0
C330 C 0.83941 0.39269 0.89175 0.0
C331 C 0.8548 0.39978 0.05946 0.0
C332 C 0.85907 0.39743 0.10672 0.0
C333 C 0.8548 0.38157 0.12895 0.0
C334 C 0.8576 0.38012 0.17425 0.0
C335 C 0.86467 0.39448 0.1985 0.0
C336 C 0.86919 0.41022 0.17601 0.0
C337 C 0.86637 0.41168 0.13078 0.0
C338 C 0.86576 0.355 0.94865 0.0
C339 C 0.91074 0.38212 0.97495 0.0
O340 O 0.88474 0.36721 0.8326 0.0
O341 O 0.90186 0.39099 0.83085 0.0
O342 O 0.87065 0.41039 0.92292 0.0
O343 O 0.89858 0.4133 0.90531 0.0
O344 O 0.84114 0.39894 0.93197 0.0
O345 O 0.85334 0.38484 0.872 0.0
O346 O 0.86629 0.40914 0.03582 0.0
O347 O 0.84779 0.38636 0.03805 0.0
O348 O 0.87936 0.36543 0.94657 0.0
O349 O 0.8517 0.36262 0.96699 0.0
O350 O 0.90816 0.37574 0.93531 0.0
O351 O 0.89732 0.39044 0.99593 0.0
H352 H 0.90163 0.4065 0.75647 0.0
H353 H 0.89632 0.40902 0.67778 0.0
H354 H 0.874 0.35586 0.67611 0.0
H355 H 0.87973 0.3532 0.75459 0.0
H356 H 0.84899 0.37037 0.11157 0.0
H357 H 0.85374 0.36787 0.19045 0.0
H358 H 0.8749 0.42147 0.19339 0.0
H359 H 0.86966 0.42411 0.11468 0.0
Pr360 Pr 0.38265 0.13338 0.63845 0.0
Pr361 Pr 0.36415 0.12809 0.55141 0.0
C362 C 0.3934 0.1424 0.7203 0.0
C363 C 0.38903 0.13987 0.76745 0.0
C364 C 0.39252 0.12369 0.789 0.0
C365 C 0.38955 0.12205 0.83424 0.0
C366 C 0.38309 0.13656 0.85903 0.0
C367 C 0.37931 0.15262 0.83719 0.0
C368 C 0.3823 0.15426 0.79205 0.0
C369 C 0.38245 0.0981 0.60841 0.0
C370 C 0.33768 0.12635 0.63714 0.0
C371 C 0.35382 0.11797 0.47002 0.0
C372 C 0.35796 0.12032 0.42271 0.0
C373 C 0.35467 0.13652 0.40108 0.0
C374 C 0.35739 0.13801 0.35574 0.0
C375 C 0.36341 0.12334 0.3309 0.0
C376 C 0.36698 0.10724 0.35282 0.0
C377 C 0.36423 0.10575 0.39808 0.0
C378 C 0.3642 0.16361 0.57902 0.0
C379 C 0.40916 0.13667 0.55502 0.0
O380 O 0.38195 0.15192 0.697 0.0
O381 O 0.4004 0.12903 0.69849 0.0
O382 O 0.36894 0.10859 0.60749 0.0
O383 O 0.39671 0.10557 0.62611 0.0
O384 O 0.33969 0.11967 0.59738 0.0
O385 O 0.35143 0.13449 0.65672 0.0
O386 O 0.3657 0.10911 0.49367 0.0
O387 O 0.34628 0.13122 0.49119 0.0
O388 O 0.37775 0.15315 0.58196 0.0
O389 O 0.35031 0.15597 0.56017 0.0
O390 O 0.40612 0.14356 0.59395 0.0
O391 O 0.39613 0.12777 0.53429 0.0
H392 H 0.39784 0.11236 0.77115 0.0
H393 H 0.39282 0.10955 0.84997 0.0
H394 H 0.37407 0.164 0.855 0.0
H395 H 0.37958 0.16692 0.77644 0.0
H396 H 0.34971 0.14799 0.41898 0.0
H397 H 0.35429 0.15055 0.34 0.0
H398 H 0.3719 0.09574 0.33498 0.0
H399 H 0.36678 0.09307 0.4138 0.0
Pr400 Pr 0.62443 0.6324 0.38875 0.0
Pr401 Pr 0.64386 0.62844 0.47579 0.0
C402 C 0.61294 0.64068 0.30695 0.0
C403 C 0.61737 0.63854 0.25983 0.0
C404 C 0.62169 0.62192 0.24149 0.0
C405 C 0.62489 0.62026 0.19629 0.0
C406 C 0.62391 0.6352 0.16853 0.0
C407 C 0.61985 0.65184 0.18728 0.0
C408 C 0.6166 0.65346 0.23232 0.0
C409 C 0.62497 0.59767 0.42227 0.0
C410 C 0.66966 0.62546 0.38865 0.0
C411 C 0.65492 0.61933 0.55745 0.0
C412 C 0.6503 0.62103 0.60458 0.0
C413 C 0.64605 0.63752 0.62371 0.0
C414 C 0.64292 0.63885 0.66898 0.0
C415 C 0.64391 0.62372 0.69608 0.0
C416 C 0.64784 0.6072 0.67655 0.0
C417 C 0.65102 0.6059 0.63139 0.0
C418 C 0.64358 0.66338 0.44444 0.0
C419 C 0.59858 0.63649 0.47363 0.0
O420 O 0.6237 0.65095 0.33008 0.0
O421 O 0.60716 0.62675 0.32862 0.0
O422 O 0.63846 0.60819 0.42167 0.0
O423 O 0.61057 0.6048 0.40422 0.0
O424 O 0.66842 0.62031 0.42996 0.0
O425 O 0.65542 0.63242 0.36814 0.0
O426 O 0.64434 0.60924 0.53336 0.0
O427 O 0.66072 0.63348 0.53681 0.0
O428 O 0.62995 0.65295 0.44327 0.0
O429 O 0.65766 0.65598 0.46318 0.0
O430 O 0.60086 0.64239 0.4334 0.0
O431 O 0.61215 0.62853 0.49481 0.0
H432 H 0.62247 0.61018 0.26196 0.0
H433 H 0.6282 0.60729 0.18312 0.0
H434 H 0.61873 0.66359 0.16697 0.0
H435 H 0.6132 0.6664 0.24565 0.0
H436 H 0.64532 0.64942 0.60381 0.0
H437 H 0.63967 0.65175 0.68274 0.0
H438 H 0.64896 0.5953 0.69633 0.0
H439 H 0.65438 0.59305 0.61746 0.0
Pr440 Pr 0.12688 0.8847 0.13795 0.0
Pr441 Pr 0.14572 0.8899 0.05063 0.0
C442 C 0.11601 0.87575 0.2199 0.0
C443 C 0.12048 0.87803 0.26692 0.0
C444 C 0.12422 0.89479 0.28515 0.0
C445 C 0.12744 0.89657 0.33028 0.0
C446 C 0.12706 0.88163 0.35811 0.0
C447 C 0.12358 0.86486 0.33947 0.0
C448 C 0.12031 0.86311 0.29448 0.0
C449 C 0.12694 0.91986 0.10705 0.0
C450 C 0.17185 0.89204 0.13682 0.0
C451 C 0.15625 0.90003 0.96923 0.0
C452 C 0.15207 0.89798 0.922 0.0
C453 C 0.14862 0.88128 0.90313 0.0
C454 C 0.14578 0.87969 0.85782 0.0
C455 C 0.14625 0.89476 0.83043 0.0
C456 C 0.1494 0.91148 0.84971 0.0
C457 C 0.15229 0.91304 0.89491 0.0
C458 C 0.14598 0.85454 0.07916 0.0
C459 C 0.1006 0.88111 0.0541 0.0
O460 O 0.12718 0.86599 0.19639 0.0
O461 O 0.10951 0.88945 0.19852 0.0
O462 O 0.14051 0.90944 0.10643 0.0
O463 O 0.11269 0.9124 0.12495 0.0
O464 O 0.17001 0.89848 0.09677 0.0
O465 O 0.15805 0.88395 0.15645 0.0
O466 O 0.1446 0.90909 0.99311 0.0
O467 O 0.1633 0.88642 0.98992 0.0
O468 O 0.13227 0.86485 0.08176 0.0
O469 O 0.15984 0.86226 0.06027 0.0
O470 O 0.10332 0.87468 0.09366 0.0
O471 O 0.11385 0.88963 0.03302 0.0
H472 H 0.12453 0.90654 0.26464 0.0
H473 H 0.1303 0.90965 0.34335 0.0
H474 H 0.12293 0.85309 0.35983 0.0
H475 H 0.11737 0.85006 0.28125 0.0
H476 H 0.14829 0.86943 0.92329 0.0
H477 H 0.14314 0.86664 0.84427 0.0
H478 H 0.1501 0.92335 0.82973 0.0
H479 H 0.15501 0.92605 0.90866 0.0
Pr480 Pr 0.88312 0.63283 0.14175 0.0
Pr481 Pr 0.86405 0.62689 0.04783 0.0
C482 C 0.89335 0.64291 0.2231 0.0
C483 C 0.8891 0.64042 0.27017 0.0
C484 C 0.88583 0.62353 0.28823 0.0
C485 C 0.88275 0.62158 0.33339 0.0
C486 C 0.88287 0.63646 0.36142 0.0
C487 C 0.88577 0.65336 0.34288 0.0
C488 C 0.88888 0.65529 0.29785 0.0
C489 C 0.88384 0.59827 0.1076 0.0
C490 C 0.83771 0.62521 0.1375 0.0
C491 C 0.85384 0.61181 0.97151 0.0
C492 C 0.85586 0.61439 0.92375 0.0
C493 C 0.85849 0.63133 0.90553 0.0
C494 C 0.8604 0.63341 0.86006 0.0
C495 C 0.85977 0.61857 0.8319 0.0
C496 C 0.85724 0.60163 0.85055 0.0
C497 C 0.85531 0.59958 0.89593 0.0
C498 C 0.86785 0.66364 0.06256 0.0
C499 C 0.90849 0.63709 0.05561 0.0
O500 O 0.88136 0.65172 0.19959 0.0
O501 O 0.90097 0.62966 0.20196 0.0
O502 O 0.87039 0.60885 0.10626 0.0
O503 O 0.89758 0.60519 0.12888 0.0
O504 O 0.8384 0.62296 0.09439 0.0
O505 O 0.85234 0.62927 0.16108 0.0
O506 O 0.86868 0.6071 0.99294 0.0
O507 O 0.84357 0.62328 0.99282 0.0
O508 O 0.87268 0.6513 0.08807 0.0
O509 O 0.86047 0.65693 0.02755 0.0
O510 O 0.9051 0.64411 0.09439 0.0
O511 O 0.8962 0.62718 0.0349 0.0
H512 H 0.88588 0.61183 0.26758 0.0
H513 H 0.88072 0.60835 0.34645 0.0
H514 H 0.88562 0.66517 0.36316 0.0
H515 H 0.89129 0.66845 0.28465 0.0
H516 H 0.85904 0.64296 0.92643 0.0
H517 H 0.86213 0.64667 0.84695 0.0
H518 H 0.85701 0.58986 0.83013 0.0
H519 H 0.85344 0.58638 0.90937 0.0
Pr520 Pr 0.12666 0.1328 0.89384 0.0
Pr521 Pr 0.14564 0.12788 0.98096 0.0
C522 C 0.11564 0.14162 0.81199 0.0
C523 C 0.12011 0.13937 0.76491 0.0
C524 C 0.1237 0.12259 0.74651 0.0
C525 C 0.12691 0.12084 0.70135 0.0
C526 C 0.12668 0.13583 0.67366 0.0
C527 C 0.12337 0.15261 0.69246 0.0
C528 C 0.12011 0.15433 0.73749 0.0
C529 C 0.12689 0.09773 0.92517 0.0
C530 C 0.17173 0.12567 0.89454 0.0
C531 C 0.15632 0.11802 0.06237 0.0
C532 C 0.15205 0.12003 0.10961 0.0
C533 C 0.14871 0.13673 0.12865 0.0
C534 C 0.1458 0.13828 0.17397 0.0
C535 C 0.14611 0.12315 0.2012 0.0
C536 C 0.14915 0.10644 0.18176 0.0
C537 C 0.15211 0.10492 0.13656 0.0
C538 C 0.14552 0.16319 0.95192 0.0
C539 C 0.10043 0.13627 0.97809 0.0
O540 O 0.12669 0.1515 0.83537 0.0
O541 O 0.10931 0.12788 0.83347 0.0
O542 O 0.14044 0.10816 0.92554 0.0
O543 O 0.11262 0.10512 0.90724 0.0
O544 O 0.17002 0.11943 0.93481 0.0
O545 O 0.15781 0.13351 0.8748 0.0
O546 O 0.14491 0.10871 0.03856 0.0
O547 O 0.16309 0.13174 0.04159 0.0
O548 O 0.13191 0.15278 0.94971 0.0
O549 O 0.15949 0.15559 0.97063 0.0
O550 O 0.10302 0.14267 0.93843 0.0
O551 O 0.11381 0.12791 0.99904 0.0
H552 H 0.12387 0.11081 0.7669 0.0
H553 H 0.12964 0.10775 0.68814 0.0
H554 H 0.12284 0.16442 0.67221 0.0
H555 H 0.11729 0.1674 0.75085 0.0
H556 H 0.1485 0.14862 0.10863 0.0
H557 H 0.14326 0.15132 0.18765 0.0
H558 H 0.14973 0.09453 0.20164 0.0
H559 H 0.15475 0.09191 0.12269 0.0
Pr560 Pr 0.62741 0.38537 0.63943 0.0
Pr561 Pr 0.64616 0.39052 0.5525 0.0
C562 C 0.61657 0.37646 0.7214 0.0
C563 C 0.62103 0.37881 0.76852 0.0
C564 C 0.61885 0.39527 0.78976 0.0
C565 C 0.62184 0.3968 0.83499 0.0
C566 C 0.62703 0.38191 0.8601 0.0
C567 C 0.62952 0.36555 0.83855 0.0
C568 C 0.6265 0.36402 0.79341 0.0
C569 C 0.62737 0.42056 0.6087 0.0
C570 C 0.67242 0.39264 0.63833 0.0
C571 C 0.65661 0.40048 0.47096 0.0
C572 C 0.65243 0.39819 0.4237 0.0
C573 C 0.65452 0.3817 0.40254 0.0
C574 C 0.65179 0.38021 0.35722 0.0
C575 C 0.64693 0.39515 0.33194 0.0
C576 C 0.64452 0.41154 0.35343 0.0
C577 C 0.64729 0.41303 0.39867 0.0
C578 C 0.64629 0.35509 0.58074 0.0
C579 C 0.601 0.38203 0.55585 0.0
O580 O 0.62777 0.36672 0.69786 0.0
O581 O 0.60988 0.39002 0.69982 0.0
O582 O 0.641 0.41019 0.60807 0.0
O583 O 0.61316 0.41302 0.62655 0.0
O584 O 0.67054 0.39907 0.5983 0.0
O585 O 0.65861 0.38463 0.6581 0.0
O586 O 0.64487 0.40951 0.4947 0.0
O587 O 0.66394 0.38712 0.49209 0.0
O588 O 0.63261 0.36544 0.58334 0.0
O589 O 0.66019 0.36283 0.56208 0.0
O590 O 0.60375 0.37545 0.59525 0.0
O591 O 0.6143 0.39052 0.53489 0.0
H592 H 0.61453 0.40692 0.77165 0.0
H593 H 0.61959 0.40957 0.85046 0.0
H594 H 0.63378 0.35386 0.85658 0.0
H595 H 0.62821 0.35115 0.77801 0.0
H596 H 0.65857 0.37 0.4208 0.0
H597 H 0.65398 0.36741 0.34183 0.0
H598 H 0.6405 0.42328 0.33527 0.0
H599 H 0.64564 0.42591 0.41406 0.0
Pr600 Pr 0.38132 0.88516 0.39566 0.0
Pr601 Pr 0.36265 0.89051 0.4832 0.0
C602 C 0.39218 0.87603 0.31383 0.0
C603 C 0.38781 0.87836 0.26679 0.0
C604 C 0.38376 0.89511 0.24877 0.0
C605 C 0.38056 0.89693 0.20364 0.0
C606 C 0.38126 0.88206 0.17563 0.0
C607 C 0.38506 0.86531 0.19407 0.0
C608 C 0.38831 0.86351 0.23905 0.0
C609 C 0.3814 0.92034 0.42631 0.0
C610 C 0.33636 0.89256 0.39719 0.0
C611 C 0.3522 0.90073 0.56459 0.0
C612 C 0.35638 0.89869 0.61182 0.0
C613 C 0.36013 0.88202 0.6306 0.0
C614 C 0.36297 0.88043 0.67592 0.0
C615 C 0.36219 0.89547 0.70338 0.0
C616 C 0.35873 0.91215 0.68418 0.0
C617 C 0.35585 0.91372 0.63898 0.0
C618 C 0.36253 0.85508 0.45499 0.0
C619 C 0.40764 0.88158 0.47932 0.0
O620 O 0.38082 0.86646 0.33725 0.0
O621 O 0.39885 0.88963 0.33522 0.0
O622 O 0.3678 0.90998 0.42716 0.0
O623 O 0.39559 0.9128 0.40828 0.0
O624 O 0.33824 0.89901 0.43722 0.0
O625 O 0.35015 0.88447 0.37745 0.0
O626 O 0.36386 0.90973 0.54065 0.0
O627 O 0.34513 0.88711 0.54401 0.0
O628 O 0.37614 0.86545 0.45216 0.0
O629 O 0.34867 0.86276 0.47406 0.0
O630 O 0.40467 0.87483 0.44021 0.0
O631 O 0.39462 0.89049 0.50023 0.0
H632 H 0.38319 0.90679 0.26946 0.0
H633 H 0.37745 0.91 0.19072 0.0
H634 H 0.38596 0.8536 0.17357 0.0
H635 H 0.39148 0.85048 0.25215 0.0
H636 H 0.3607 0.87021 0.61038 0.0
H637 H 0.36584 0.86742 0.68942 0.0
H638 H 0.35778 0.92399 0.70422 0.0
H639 H 0.35289 0.92669 0.62528 0.0
C640 C 0.15297 0.63814 0.75861 0.0
C641 C 0.14465 0.62413 0.78187 0.0
C642 C 0.15129 0.63936 0.71295 0.0
C643 C 0.14042 0.61233 0.61437 0.0
H644 H 0.13395 0.65823 0.55888 0.0
C645 C 0.12298 0.61967 0.42967 0.0
C646 C 0.13111 0.63379 0.40643 0.0
C647 C 0.12492 0.61833 0.47525 0.0
C648 C 0.13598 0.64531 0.57373 0.0
H649 H 0.1276 0.60067 0.77502 0.0
H650 H 0.12463 0.60281 0.69561 0.0
H651 H 0.1365 0.65639 0.63838 0.0
H652 H 0.14816 0.65725 0.41314 0.0
H653 H 0.15159 0.65488 0.49239 0.0
H654 H 0.13988 0.60125 0.54971 0.0
C655 C 0.13276 0.6127 0.71257 0.0
C656 C 0.13744 0.64425 0.61944 0.0
C657 C 0.13445 0.61148 0.75821 0.0
C658 C 0.14145 0.64637 0.42997 0.0
C659 C 0.1434 0.64502 0.47551 0.0
C660 C 0.13897 0.61339 0.56865 0.0
C661 C 0.14123 0.62661 0.68924 0.0
C662 C 0.13967 0.62774 0.64044 0.0
C663 C 0.13505 0.63105 0.49888 0.0
C664 C 0.13672 0.6299 0.54766 0.0
H665 H 0.16117 0.64798 0.77557 0.0
H666 H 0.15823 0.65011 0.69614 0.0
H667 H 0.14243 0.59941 0.62924 0.0
H668 H 0.11471 0.60988 0.41279 0.0
H669 H 0.11808 0.60752 0.4921 0.0
C670 C 0.6308 0.90159 0.09832 0.0
C671 C 0.62775 0.88516 0.11908 0.0
C672 C 0.63275 0.90261 0.05269 0.0
C673 C 0.62213 0.87803 0.95048 0.0
H674 H 0.65887 0.90901 0.89904 0.0
C675 C 0.63959 0.87653 0.76515 0.0
C676 C 0.64303 0.89284 0.74412 0.0
C677 C 0.63758 0.87568 0.81077 0.0
C678 C 0.64838 0.90045 0.91279 0.0
H679 H 0.62418 0.85692 0.10774 0.0
H680 H 0.62788 0.85865 0.02847 0.0
H681 H 0.65575 0.90742 0.97854 0.0
H682 H 0.64719 0.92103 0.75504 0.0
H683 H 0.64331 0.91959 0.83429 0.0
H684 H 0.61472 0.87107 0.88479 0.0
C685 C 0.62862 0.8708 0.04741 0.0
C686 C 0.6466 0.89953 0.95846 0.0
C687 C 0.62673 0.86978 0.093 0.0
C688 C 0.64434 0.90827 0.76996 0.0
C689 C 0.64235 0.90741 0.81557 0.0
C690 C 0.62389 0.87896 0.90483 0.0
C691 C 0.63162 0.88723 0.02661 0.0
C692 C 0.63347 0.88829 0.97793 0.0
C693 C 0.63899 0.8911 0.83663 0.0
C694 C 0.63705 0.89017 0.88534 0.0
H695 H 0.63181 0.91369 0.11738 0.0
H696 H 0.63488 0.9155 0.0378 0.0
H697 H 0.61166 0.86945 0.96427 0.0
H698 H 0.63832 0.8644 0.74633 0.0
H699 H 0.63519 0.86285 0.82582 0.0
C700 C 0.37748 0.40662 0.25965 0.0
C701 C 0.36759 0.39377 0.28348 0.0
C702 C 0.3792 0.40539 0.214 0.0
C703 C 0.37524 0.37366 0.12107 0.0
H704 H 0.37178 0.41654 0.05112 0.0
C705 C 0.37121 0.37133 0.9316 0.0
C706 C 0.38121 0.38414 0.90788 0.0
C707 C 0.36927 0.37265 0.97717 0.0
C708 C 0.37298 0.40445 0.07013 0.0
H709 H 0.35164 0.36956 0.27747 0.0
H710 H 0.35463 0.36741 0.19803 0.0
H711 H 0.36921 0.4184 0.13067 0.0
H712 H 0.39702 0.40842 0.91397 0.0
H713 H 0.39366 0.41073 0.99331 0.0
H714 H 0.37903 0.35971 0.06055 0.0
C715 C 0.36131 0.37833 0.21471 0.0
C716 C 0.37152 0.40551 0.11586 0.0
C717 C 0.35961 0.37955 0.26038 0.0
C718 C 0.389 0.39845 0.93098 0.0
C719 C 0.38708 0.39976 0.97659 0.0
C720 C 0.37671 0.3726 0.07535 0.0
C721 C 0.37106 0.39128 0.19083 0.0
C722 C 0.37264 0.39013 0.14201 0.0
C723 C 0.37728 0.38682 1.00039 0.0
C724 C 0.3756 0.38797 0.04919 0.0
H725 H 0.38407 0.4176 0.27632 0.0
H726 H 0.38709 0.41544 0.19691 0.0
H727 H 0.37646 0.36156 0.14007 0.0
H728 H 0.36476 0.36029 0.91489 0.0
H729 H 0.36134 0.36261 0.99417 0.0
C730 C 0.88511 0.14931 0.59659 0.0
C731 C 0.88251 0.13425 0.62323 0.0
C732 C 0.88308 0.14824 0.55104 0.0
C733 C 0.86222 0.12081 0.46312 0.0
H734 H 0.89674 0.14578 0.38824 0.0
C735 C 0.86402 0.11033 0.27509 0.0
C736 C 0.86701 0.12529 0.24832 0.0
C737 C 0.86588 0.11145 0.32068 0.0
C738 C 0.88683 0.13889 0.40861 0.0
H739 H 0.87545 0.10627 0.62248 0.0
H740 H 0.87216 0.10434 0.54303 0.0
H741 H 0.89991 0.14765 0.46762 0.0
H742 H 0.87451 0.15317 0.24898 0.0
H743 H 0.87739 0.15522 0.32845 0.0
H744 H 0.84914 0.11206 0.40411 0.0
C745 C 0.87564 0.11704 0.55745 0.0
C746 C 0.88866 0.13996 0.45423 0.0
C747 C 0.87772 0.1181 0.60303 0.0
C748 C 0.87193 0.14141 0.26849 0.0
C749 C 0.87379 0.14253 0.31411 0.0
C750 C 0.86039 0.11975 0.41749 0.0
C751 C 0.87835 0.13209 0.5308 0.0
C752 C 0.87638 0.13094 0.48213 0.0
C753 C 0.87076 0.12757 0.34087 0.0
C754 C 0.87268 0.12877 0.38957 0.0
H755 H 0.88902 0.16193 0.61085 0.0
H756 H 0.88508 0.16015 0.53169 0.0
H757 H 0.85234 0.11391 0.48352 0.0
H758 H 0.85999 0.09774 0.26089 0.0
H759 H 0.86363 0.0996 0.34008 0.0
C760 C 0.15256 0.3793 0.27101 0.0
C761 C 0.14389 0.39305 0.24753 0.0
C762 C 0.15083 0.37815 0.31668 0.0
C763 C 0.13899 0.40514 0.41481 0.0
H764 H 0.13378 0.35923 0.47103 0.0
C765 C 0.1215 0.3979 0.59959 0.0
C766 C 0.13 0.38407 0.62311 0.0
C767 C 0.12345 0.39914 0.55398 0.0
C768 C 0.13545 0.37216 0.45598 0.0
H769 H 0.12615 0.41609 0.25398 0.0
H770 H 0.12307 0.41405 0.3334 0.0
H771 H 0.13641 0.36094 0.3915 0.0
H772 H 0.14771 0.361 0.61686 0.0
H773 H 0.15117 0.3632 0.53755 0.0
H774 H 0.13803 0.41637 0.47929 0.0
C775 C 0.13153 0.40433 0.31661 0.0
C776 C 0.13696 0.37314 0.41025 0.0
C777 C 0.13327 0.40549 0.27097 0.0
C778 C 0.14071 0.37166 0.59981 0.0
C779 C 0.14268 0.37291 0.55423 0.0
C780 C 0.13749 0.40417 0.46054 0.0
C781 C 0.14035 0.3907 0.34017 0.0
C782 C 0.13873 0.38964 0.38899 0.0
C783 C 0.13397 0.3866 0.5306 0.0
C784 C 0.1357 0.38766 0.4818 0.0
H785 H 0.16108 0.36964 0.25423 0.0
H786 H 0.15804 0.36762 0.33368 0.0
H787 H 0.14065 0.41807 0.39974 0.0
H788 H 0.11293 0.40755 0.61628 0.0
H789 H 0.11632 0.40972 0.53693 0.0
C790 C 0.85791 0.8822 0.76103 0.0
C791 C 0.86407 0.89755 0.78282 0.0
C792 C 0.85977 0.88052 0.71547 0.0
C793 C 0.86688 0.90717 0.6141 0.0
H794 H 0.88038 0.86178 0.56331 0.0
C795 C 0.88616 0.89951 0.43035 0.0
C796 C 0.88042 0.88404 0.40842 0.0
C797 C 0.88383 0.90125 0.47577 0.0
C798 C 0.87637 0.87452 0.57682 0.0
H799 H 0.87748 0.923 0.77341 0.0
H800 H 0.88075 0.92007 0.69425 0.0
H801 H 0.87712 0.86451 0.64253 0.0
H802 H 0.86715 0.85849 0.41731 0.0
H803 H 0.863 0.86155 0.49624 0.0
H804 H 0.86613 0.91718 0.54839 0.0
C805 C 0.87414 0.90944 0.71225 0.0
C806 C 0.87451 0.87608 0.62238 0.0
C807 C 0.87227 0.91112 0.75776 0.0
C808 C 0.87204 0.87047 0.43311 0.0
C809 C 0.86967 0.87222 0.47849 0.0
C810 C 0.86873 0.9056 0.56853 0.0
C811 C 0.86787 0.89414 0.69039 0.0
C812 C 0.86976 0.89244 0.64171 0.0
C813 C 0.87564 0.88759 0.50056 0.0
C814 C 0.87352 0.88925 0.5492 0.0
H815 H 0.85129 0.87158 0.77908 0.0
H816 H 0.85453 0.86865 0.69981 0.0
H817 H 0.8629 0.91991 0.62764 0.0
H818 H 0.89291 0.91013 0.41259 0.0
H819 H 0.88884 0.91317 0.4916 0.0
C820 C 0.3576 0.63914 0.77404 0.0
C821 C 0.36591 0.62514 0.75067 0.0
C822 C 0.35935 0.64034 0.8197 0.0
C823 C 0.3705 0.61327 0.91818 0.0
H824 H 0.37685 0.65916 0.97374 0.0
C825 C 0.38817 0.62045 0.10282 0.0
C826 C 0.38007 0.63454 0.12623 0.0
C827 C 0.38619 0.61917 0.05723 0.0
C828 C 0.37486 0.64624 0.95889 0.0
H829 H 0.38303 0.60168 0.75736 0.0
H830 H 0.38613 0.6038 0.83673 0.0
H831 H 0.37415 0.65735 0.89426 0.0
H832 H 0.36301 0.65806 0.11977 0.0
H833 H 0.35948 0.65579 0.04052 0.0
H834 H 0.37121 0.60216 0.98282 0.0
C835 C 0.37794 0.61369 0.81987 0.0
C836 C 0.37331 0.64521 0.91318 0.0
C837 C 0.37618 0.61248 0.77424 0.0
C838 C 0.36971 0.64718 0.10282 0.0
C839 C 0.36771 0.64589 0.05727 0.0
C840 C 0.37204 0.61431 0.9639 0.0
C841 C 0.36948 0.62759 0.84332 0.0
C842 C 0.37113 0.6287 0.89213 0.0
C843 C 0.37602 0.63193 0.03374 0.0
C844 C 0.37425 0.63081 0.98494 0.0
H845 H 0.34935 0.64898 0.75718 0.0
H846 H 0.35241 0.65109 0.83659 0.0
H847 H 0.36852 0.60036 0.90331 0.0
H848 H 0.39647 0.61061 0.11957 0.0
H849 H 0.39301 0.60837 0.04027 0.0
C850 C 0.62721 0.14942 0.93457 0.0
C851 C 0.63065 0.13463 0.90754 0.0
C852 C 0.62912 0.1482 0.98011 0.0
C853 C 0.65102 0.12129 0.06756 0.0
H854 H 0.61514 0.14444 0.1425 0.0
C855 C 0.64935 0.11011 0.25529 0.0
C856 C 0.64561 0.12485 0.28227 0.0
C857 C 0.64752 0.1113 0.20971 0.0
C858 C 0.62542 0.13807 0.12211 0.0
H859 H 0.63904 0.10698 0.90758 0.0
H860 H 0.64209 0.10476 0.98705 0.0
H861 H 0.61206 0.14647 0.06312 0.0
H862 H 0.6368 0.15239 0.28202 0.0
H863 H 0.63397 0.15456 0.20257 0.0
H864 H 0.6644 0.11292 0.12654 0.0
C865 C 0.63806 0.11738 0.97293 0.0
C866 C 0.62365 0.13923 0.0765 0.0
C867 C 0.63611 0.11859 0.92734 0.0
C868 C 0.63997 0.14081 0.26234 0.0
C869 C 0.63813 0.142 0.21673 0.0
C870 C 0.65281 0.12015 0.11317 0.0
C871 C 0.63454 0.13216 0.99995 0.0
C872 C 0.63642 0.13086 0.04859 0.0
C873 C 0.64191 0.12726 0.18977 0.0
C874 C 0.64003 0.12852 0.1411 0.0
H875 H 0.62276 0.16194 0.9206 0.0
H876 H 0.62649 0.15991 0.99976 0.0
H877 H 0.66128 0.11491 0.04714 0.0
H878 H 0.65396 0.09766 0.26931 0.0
H879 H 0.65035 0.09961 0.19012 0.0
C880 C 0.86258 0.4078 0.27419 0.0
C881 C 0.86689 0.39324 0.2471 0.0
C882 C 0.86445 0.40663 0.31976 0.0
C883 C 0.88754 0.38057 0.40723 0.0
H884 H 0.85085 0.40242 0.48232 0.0
C885 C 0.88634 0.36918 0.59484 0.0
C886 C 0.88231 0.38383 0.62189 0.0
C887 C 0.88434 0.37032 0.5493 0.0
C888 C 0.86134 0.39641 0.46188 0.0
H889 H 0.87672 0.36602 0.24718 0.0
H890 H 0.87962 0.36386 0.32663 0.0
H891 H 0.84764 0.40435 0.40293 0.0
H892 H 0.87279 0.41115 0.62183 0.0
H893 H 0.8696 0.41322 0.54238 0.0
H894 H 0.90122 0.37262 0.46618 0.0
C895 C 0.87499 0.37629 0.31255 0.0
C896 C 0.8595 0.39752 0.41626 0.0
C897 C 0.87312 0.37746 0.26693 0.0
C898 C 0.87618 0.39964 0.60207 0.0
C899 C 0.87415 0.40077 0.55649 0.0
C900 C 0.88937 0.37945 0.45284 0.0
C901 C 0.87065 0.39086 0.33961 0.0
C902 C 0.87258 0.38962 0.38829 0.0
C903 C 0.87826 0.38614 0.52946 0.0
C904 C 0.8763 0.38736 0.48081 0.0
H905 H 0.85752 0.4201 0.26024 0.0
H906 H 0.86117 0.41819 0.33942 0.0
H907 H 0.89804 0.37457 0.38681 0.0
H908 H 0.89131 0.35685 0.6088 0.0
H909 H 0.88744 0.35871 0.52965 0.0
C910 C 0.3603 0.11053 0.25491 0.0
C911 C 0.36557 0.12468 0.28229 0.0
C912 C 0.36214 0.11178 0.20933 0.0
C913 C 0.38672 0.13675 0.12217 0.0
H914 H 0.34858 0.11759 0.04713 0.0
C915 C 0.38583 0.14932 0.9351 0.0
C916 C 0.38078 0.13514 0.90758 0.0
C917 C 0.38389 0.148 0.98063 0.0
C918 C 0.35947 0.12283 0.06755 0.0
H919 H 0.37713 0.15123 0.28272 0.0
H920 H 0.37999 0.15356 0.20329 0.0
H921 H 0.34538 0.11547 0.12652 0.0
H922 H 0.36953 0.10847 0.90678 0.0
H923 H 0.36646 0.10604 0.98622 0.0
H924 H 0.40079 0.14414 0.06322 0.0
C925 C 0.3746 0.14138 0.21713 0.0
C926 C 0.35764 0.12162 0.11316 0.0
C927 C 0.37276 0.14013 0.26275 0.0
C928 C 0.37371 0.1196 0.92691 0.0
C929 C 0.37176 0.11828 0.97249 0.0
C930 C 0.38854 0.13798 0.07657 0.0
C931 C 0.36931 0.12723 0.18978 0.0
C932 C 0.37124 0.12856 0.14112 0.0
C933 C 0.37686 0.13246 0.99999 0.0
C934 C 0.37494 0.13105 0.04862 0.0
H935 H 0.35449 0.0985 0.26863 0.0
H936 H 0.3581 0.10053 0.18944 0.0
H937 H 0.39762 0.14198 0.14257 0.0
H938 H 0.39153 0.16142 0.92153 0.0
H939 H 0.38778 0.15926 1.00066 0.0
C940 C 0.63643 0.64656 0.09662 0.0
C941 C 0.62672 0.63349 0.12015 0.0
C942 C 0.63843 0.64537 0.05104 0.0
C943 C 0.63552 0.61372 0.95766 0.0
H944 H 0.63114 0.65669 0.88836 0.0
C945 C 0.63168 0.61198 0.76796 0.0
C946 C 0.64131 0.62515 0.74459 0.0
C947 C 0.62977 0.61303 0.8136 0.0
C948 C 0.63261 0.64458 0.90718 0.0
H949 H 0.61149 0.60888 0.11374 0.0
H950 H 0.61494 0.6068 0.03436 0.0
H951 H 0.62837 0.65828 0.96786 0.0
H952 H 0.65659 0.64973 0.75139 0.0
H953 H 0.65328 0.65154 0.83079 0.0
H954 H 0.63976 0.60002 0.89694 0.0
C955 C 0.62125 0.61788 0.05124 0.0
C956 C 0.63104 0.64549 0.95289 0.0
C957 C 0.61928 0.61906 0.09686 0.0
C958 C 0.64884 0.63948 0.76812 0.0
C959 C 0.64694 0.64052 0.81377 0.0
C960 C 0.6371 0.61281 0.91192 0.0
C961 C 0.63075 0.63108 0.02763 0.0
C962 C 0.63248 0.63007 0.97882 0.0
C963 C 0.63745 0.62726 0.8372 0.0
C964 C 0.63568 0.62823 0.88601 0.0
H965 H 0.64263 0.65771 0.11348 0.0
H966 H 0.64614 0.65561 0.03419 0.0
H967 H 0.63699 0.6016 0.97649 0.0
H968 H 0.62545 0.6009 0.75093 0.0
H969 H 0.62209 0.60274 0.83034 0.0
C970 C 0.14001 0.87074 0.42998 0.0
C971 C 0.12984 0.88347 0.40645 0.0
C972 C 0.14201 0.87206 0.47553 0.0
C973 C 0.13806 0.9038 0.56863 0.0
H974 H 0.13523 0.86086 0.63855 0.0
C975 C 0.13379 0.90588 0.75823 0.0
C976 C 0.14385 0.8931 0.78191 0.0
C977 C 0.13204 0.90465 0.7126 0.0
C978 C 0.13627 0.87298 0.61955 0.0
H979 H 0.11376 0.90762 0.41286 0.0
H980 H 0.11721 0.90993 0.49215 0.0
H981 H 0.13256 0.85901 0.55907 0.0
H982 H 0.16007 0.86904 0.77563 0.0
H983 H 0.15704 0.86689 0.69622 0.0
H984 H 0.14175 0.91777 0.62914 0.0
C985 C 0.12389 0.89902 0.4753 0.0
C986 C 0.13475 0.87191 0.57385 0.0
C987 C 0.12192 0.8977 0.42972 0.0
C988 C 0.15198 0.87897 0.75867 0.0
C989 C 0.15025 0.87775 0.71302 0.0
C990 C 0.13958 0.90486 0.61434 0.0
C991 C 0.13387 0.88615 0.49891 0.0
C992 C 0.13562 0.88731 0.5477 0.0
C993 C 0.14032 0.89062 0.68929 0.0
C994 C 0.13869 0.88947 0.64048 0.0
H995 H 0.14657 0.85976 0.41314 0.0
H996 H 0.15009 0.86208 0.49238 0.0
H997 H 0.13909 0.91591 0.54963 0.0
H998 H 0.12708 0.91679 0.77502 0.0
H999 H 0.12401 0.91463 0.69565 0.0
C1000 C 0.85125 0.61031 0.75435 0.0
C1001 C 0.86178 0.62068 0.78338 0.0
C1002 C 0.85335 0.61204 0.7089 0.0
C1003 C 0.88604 0.62821 0.62417 0.0
H1004 H 0.84341 0.62614 0.54808 0.0
C1005 C 0.89063 0.64479 0.43927 0.0
C1006 C 0.88031 0.63443 0.40982 0.0
C1007 C 0.88828 0.64301 0.48461 0.0
C1008 C 0.8555 0.62653 0.56877 0.0
H1009 H 0.88285 0.64102 0.78682 0.0
H1010 H 0.88622 0.64429 0.70771 0.0
H1011 H 0.83942 0.62346 0.62719 0.0
H1012 H 0.85929 0.61408 0.40549 0.0
H1013 H 0.85544 0.61073 0.48455 0.0
H1014 H 0.90212 0.63127 0.56581 0.0
C1015 C 0.87647 0.63464 0.72012 0.0
C1016 C 0.85321 0.62501 0.61423 0.0
C1017 C 0.87437 0.63292 0.76559 0.0
C1018 C 0.8676 0.62218 0.42708 0.0
C1019 C 0.86524 0.6204 0.47249 0.0
C1020 C 0.88833 0.62973 0.57874 0.0
C1021 C 0.86603 0.62418 0.69112 0.0
C1022 C 0.86844 0.62584 0.6426 0.0
C1023 C 0.87555 0.63079 0.50191 0.0
C1024 C 0.87309 0.62895 0.55037 0.0
H1025 H 0.84125 0.6009 0.76672 0.0
H1026 H 0.84519 0.60363 0.6877 0.0
H1027 H 0.89813 0.6286 0.64483 0.0
H1028 H 0.90073 0.6542 0.42734 0.0
H1029 H 0.89633 0.65138 0.50611 0.0
C1030 C 0.13978 0.14667 0.60181 0.0
C1031 C 0.12946 0.13402 0.62529 0.0
C1032 C 0.14178 0.14538 0.55625 0.0
C1033 C 0.13755 0.11382 0.46292 0.0
H1034 H 0.13521 0.15689 0.39337 0.0
C1035 C 0.13345 0.11207 0.2733 0.0
C1036 C 0.14368 0.12476 0.24973 0.0
C1037 C 0.13167 0.11325 0.31894 0.0
C1038 C 0.13611 0.14474 0.41226 0.0
H1039 H 0.11312 0.11008 0.61876 0.0
H1040 H 0.11658 0.10785 0.53943 0.0
H1041 H 0.1325 0.15866 0.47288 0.0
H1042 H 0.16013 0.14863 0.25622 0.0
H1043 H 0.15702 0.15069 0.33564 0.0
H1044 H 0.14114 0.0999 0.40228 0.0
C1045 C 0.12337 0.11865 0.55634 0.0
C1046 C 0.13456 0.14575 0.45798 0.0
C1047 C 0.12139 0.11992 0.60194 0.0
C1048 C 0.15192 0.13877 0.27309 0.0
C1049 C 0.15014 0.13994 0.31875 0.0
C1050 C 0.13909 0.11281 0.41719 0.0
C1051 C 0.1335 0.13142 0.53279 0.0
C1052 C 0.13526 0.13031 0.48399 0.0
C1053 C 0.14006 0.12715 0.34237 0.0
C1054 C 0.13838 0.12825 0.39118 0.0
H1055 H 0.14645 0.15754 0.61872 0.0
H1056 H 0.14997 0.15528 0.53944 0.0
H1057 H 0.13844 0.10167 0.48181 0.0
H1058 H 0.12666 0.10126 0.25641 0.0
H1059 H 0.12352 0.10333 0.33581 0.0
C1060 C 0.65114 0.40742 0.25564 0.0
C1061 C 0.64478 0.39377 0.28333 0.0
C1062 C 0.64928 0.40613 0.21009 0.0
C1063 C 0.62305 0.38262 0.12336 0.0
H1064 H 0.66259 0.39892 0.04801 0.0
C1065 C 0.62318 0.36959 0.93641 0.0
C1066 C 0.62936 0.38329 0.90865 0.0
C1067 C 0.62514 0.37089 0.98193 0.0
C1068 C 0.65132 0.39449 0.06852 0.0
H1069 H 0.6313 0.36808 0.28431 0.0
H1070 H 0.6284 0.36567 0.20491 0.0
H1071 H 0.66583 0.40104 0.12736 0.0
H1072 H 0.64266 0.40906 0.90747 0.0
H1073 H 0.64578 0.41147 0.98687 0.0
H1074 H 0.60854 0.37607 0.06453 0.0
C1075 C 0.63465 0.37749 0.21851 0.0
C1076 C 0.65318 0.39571 0.11411 0.0
C1077 C 0.63651 0.37878 0.26411 0.0
C1078 C 0.63759 0.39832 0.92776 0.0
C1079 C 0.63957 0.39961 0.97334 0.0
C1080 C 0.62119 0.3814 0.07778 0.0
C1081 C 0.64102 0.39115 0.19085 0.0
C1082 C 0.63907 0.38979 0.14219 0.0
C1083 C 0.63333 0.38592 1.00107 0.0
C1084 C 0.6353 0.38731 0.0497 0.0
H1085 H 0.65779 0.41906 0.26911 0.0
H1086 H 0.65417 0.417 0.18996 0.0
H1087 H 0.61176 0.3782 0.14384 0.0
H1088 H 0.61656 0.35791 0.92303 0.0
H1089 H 0.62036 0.35999 1.00212 0.0
C1090 C 0.36854 0.8711 0.10364 0.0
C1091 C 0.37846 0.88395 0.12731 0.0
C1092 C 0.36654 0.87246 0.05811 0.0
C1093 C 0.36995 0.90436 0.96525 0.0
H1094 H 0.37372 0.86156 0.8951 0.0
C1095 C 0.37437 0.90671 0.77569 0.0
C1096 C 0.36457 0.8938 0.7519 0.0
C1097 C 0.3761 0.90546 0.82132 0.0
C1098 C 0.37242 0.87364 0.91416 0.0
H1099 H 0.39406 0.90836 0.12118 0.0
H1100 H 0.39062 0.91074 0.04188 0.0
H1101 H 0.37635 0.85966 0.97458 0.0
H1102 H 0.34881 0.86948 0.75797 0.0
H1103 H 0.35181 0.8673 0.83738 0.0
H1104 H 0.36604 0.91834 0.9048 0.0
C1105 C 0.38414 0.8997 0.05862 0.0
C1106 C 0.37392 0.87255 0.95986 0.0
C1107 C 0.38611 0.89835 0.1042 0.0
C1108 C 0.35669 0.87952 0.77502 0.0
C1109 C 0.35841 0.87828 0.82067 0.0
C1110 C 0.36845 0.90545 0.91954 0.0
C1111 C 0.37443 0.88671 0.03487 0.0
C1112 C 0.37271 0.88789 0.98609 0.0
C1113 C 0.36807 0.89128 0.84451 0.0
C1114 C 0.36968 0.89011 0.89331 0.0
H1115 H 0.36218 0.85999 0.12037 0.0
H1116 H 0.35867 0.86238 0.04114 0.0
H1117 H 0.36866 0.91644 0.98431 0.0
H1118 H 0.38088 0.91774 0.75899 0.0
H1119 H 0.38392 0.91555 0.83837 0.0
C1120 C 0.12939 0.69095 0.09759 0.0
C1121 C 0.1459 0.68257 0.08518 0.0
C1122 C 0.12853 0.7095 0.10196 0.0
C1123 C 0.15812 0.7495 0.11558 0.0
H1124 H 0.11652 0.77497 0.0668 0.0
C1125 C 0.16098 0.82463 0.07949 0.0
C1126 C 0.14518 0.83504 0.08633 0.0
C1127 C 0.16031 0.80615 0.08382 0.0
C1128 C 0.12812 0.76808 0.08121 0.0
H1129 H 0.17449 0.68706 0.06837 0.0
H1130 H 0.17302 0.71924 0.07578 0.0
H1131 H 0.11669 0.74252 0.06645 0.0
H1132 H 0.1163 0.83422 0.10387 0.0
H1133 H 0.11511 0.80182 0.11175 0.0
H1134 H 0.16967 0.775 0.12988 0.0
C1135 C 0.16074 0.71157 0.08255 0.0
C1136 C 0.12822 0.74944 0.081 0.0
C1137 C 0.16157 0.69309 0.07803 0.0
C1138 C 0.12871 0.82655 0.09832 0.0
C1139 C 0.12801 0.80798 0.10255 0.0
C1140 C 0.15802 0.7681 0.11582 0.0
C1141 C 0.1442 0.72008 0.09433 0.0
C1142 C 0.14337 0.73989 0.09754 0.0
C1143 C 0.14381 0.79751 0.09514 0.0
C1144 C 0.14316 0.77768 0.098 0.0
H1145 H 0.11708 0.68319 0.10338 0.0
H1146 H 0.11561 0.71556 0.1115 0.0
H1147 H 0.16985 0.74264 0.12945 0.0
H1148 H 0.17389 0.83076 0.07015 0.0
H1149 H 0.17269 0.79858 0.0772 0.0
C1150 C 0.57161 0.8642 0.48187 0.0
C1151 C 0.58188 0.87938 0.49221 0.0
C1152 C 0.55298 0.86328 0.49234 0.0
C1153 C 0.51405 0.88455 0.55161 0.0
H1154 H 0.48704 0.8674 0.45063 0.0
C1155 C 0.43485 0.89342 0.52056 0.0
C1156 C 0.42618 0.87945 0.49813 0.0
C1157 C 0.4538 0.89263 0.52929 0.0
C1158 C 0.49431 0.87196 0.47948 0.0
H1159 H 0.58117 0.90505 0.52415 0.0
H1160 H 0.54818 0.90371 0.54155 0.0
H1161 H 0.52028 0.8674 0.44913 0.0
H1162 H 0.42987 0.85304 0.47134 0.0
H1163 H 0.46255 0.85138 0.48777 0.0
H1164 H 0.48765 0.88944 0.58133 0.0
C1165 C 0.55465 0.89238 0.52594 0.0
C1166 C 0.51343 0.87195 0.47864 0.0
C1167 C 0.5735 0.89317 0.516 0.0
C1168 C 0.4363 0.8641 0.48809 0.0
C1169 C 0.45503 0.8632 0.4973 0.0
C1170 C 0.49471 0.88458 0.55244 0.0
C1171 C 0.54405 0.87771 0.51254 0.0
C1172 C 0.5236 0.87801 0.51479 0.0
C1173 C 0.4642 0.87778 0.51599 0.0
C1174 C 0.48466 0.87806 0.51648 0.0
H1175 H 0.57784 0.85327 0.46406 0.0
H1176 H 0.54535 0.85156 0.48273 0.0
H1177 H 0.5215 0.88938 0.5799 0.0
H1178 H 0.42732 0.90543 0.52846 0.0
H1179 H 0.46048 0.90406 0.54377 0.0
C1180 C 0.38282 0.327 0.59907 0.0
C1181 C 0.36634 0.33551 0.58717 0.0
C1182 C 0.38353 0.30843 0.60337 0.0
C1183 C 0.35352 0.26866 0.61734 0.0
H1184 H 0.39467 0.24287 0.56716 0.0
C1185 C 0.34959 0.19371 0.57945 0.0
C1186 C 0.36524 0.18309 0.58618 0.0
C1187 C 0.35052 0.21218 0.58406 0.0
C1188 C 0.3832 0.24985 0.58194 0.0
H1189 H 0.33763 0.33126 0.57125 0.0
H1190 H 0.33884 0.29909 0.57847 0.0
H1191 H 0.39493 0.27532 0.56748 0.0
H1192 H 0.39411 0.1835 0.60372 0.0
H1193 H 0.39574 0.21586 0.61199 0.0
H1194 H 0.34165 0.24326 0.63124 0.0
C1195 C 0.35122 0.30664 0.58493 0.0
C1196 C 0.38335 0.26849 0.58214 0.0
C1197 C 0.35054 0.32513 0.5805 0.0
C1198 C 0.38182 0.19135 0.59825 0.0
C1199 C 0.38277 0.20989 0.60272 0.0
C1200 C 0.35337 0.25007 0.61713 0.0
C1201 C 0.36773 0.29799 0.59617 0.0
C1202 C 0.36836 0.27816 0.59918 0.0
C1203 C 0.36713 0.22057 0.5955 0.0
C1204 C 0.36805 0.24038 0.59878 0.0
H1205 H 0.39522 0.33466 0.60449 0.0
H1206 H 0.39643 0.30225 0.61248 0.0
H1207 H 0.34192 0.27561 0.6316 0.0
H1208 H 0.33662 0.18777 0.57007 0.0
H1209 H 0.33825 0.21993 0.57761 0.0
C1210 C 0.93562 0.12614 0.0286 0.0
C1211 C 0.92935 0.13819 0.99673 0.0
C1212 C 0.95395 0.12668 0.04291 0.0
C1213 C 0.99595 0.15488 0.04275 0.0
H1214 H 0.02242 0.11047 0.02903 0.0
C1215 C 0.07 0.15137 0.98261 0.0
C1216 C 0.08199 0.13815 0.99807 0.0
C1217 C 0.05181 0.15208 0.99699 0.0
C1218 C 0.01524 0.12292 0.03412 0.0
H1219 H 0.93696 0.16088 0.95684 0.0
H1220 H 0.96863 0.16193 0.98186 0.0
H1221 H 0.98884 0.11048 0.0287 0.0
H1222 H 0.08454 0.11567 0.04207 0.0
H1223 H 0.0524 0.11676 0.06696 0.0
H1224 H 0.02233 0.16743 0.04592 0.0
C1225 C 0.95955 0.15204 0.99591 0.0
C1226 C 0.99598 0.12292 0.03392 0.0
C1227 C 0.94141 0.15135 0.98125 0.0
C1228 C 0.0756 0.12604 0.02969 0.0
C1229 C 0.05721 0.1266 0.04373 0.0
C1230 C 0.01517 0.15487 0.04297 0.0
C1231 C 0.96617 0.13949 0.02614 0.0
C1232 C 0.98615 0.139 0.03637 0.0
C1233 C 0.04506 0.13947 0.02694 0.0
C1234 C 0.02502 0.13899 0.03678 0.0
H1235 H 0.92663 0.11582 0.041 0.0
H1236 H 0.95866 0.11688 0.06635 0.0
H1237 H 0.98875 0.16744 0.04554 0.0
H1238 H 0.07455 0.16095 0.9584 0.0
H1239 H 0.04278 0.16201 0.98292 0.0
C1240 C 0.1604 0.32452 0.94941 0.0
C1241 C 0.14467 0.33508 0.94318 0.0
C1242 C 0.15954 0.30604 0.9449 0.0
C1243 C 0.12709 0.26823 0.94845 0.0
H1244 H 0.16827 0.2426 0.89791 0.0
C1245 C 0.12793 0.19102 0.93277 0.0
C1246 C 0.14454 0.18265 0.94431 0.0
C1247 C 0.12707 0.20958 0.92811 0.0
C1248 C 0.15669 0.24951 0.91242 0.0
H1249 H 0.11571 0.33454 0.92659 0.0
H1250 H 0.11417 0.30215 0.91851 0.0
H1251 H 0.1683 0.27495 0.8977 0.0
H1252 H 0.1733 0.18713 0.95919 0.0
H1253 H 0.17183 0.21928 0.95132 0.0
H1254 H 0.11562 0.24271 0.96372 0.0
C1255 C 0.12717 0.30819 0.92731 0.0
C1256 C 0.15671 0.26811 0.9123 0.0
C1257 C 0.12806 0.32675 0.93166 0.0
C1258 C 0.1603 0.19316 0.95023 0.0
C1259 C 0.15947 0.21163 0.94543 0.0
C1260 C 0.12707 0.24958 0.94857 0.0
C1261 C 0.1429 0.29757 0.93405 0.0
C1262 C 0.14206 0.27775 0.93098 0.0
C1263 C 0.14284 0.22014 0.93458 0.0
C1264 C 0.14203 0.23996 0.93123 0.0
H1265 H 0.17341 0.33051 0.95836 0.0
H1266 H 0.17188 0.29835 0.95099 0.0
H1267 H 0.11565 0.27517 0.96349 0.0
H1268 H 0.11555 0.18327 0.92793 0.0
H1269 H 0.11407 0.21564 0.9193 0.0
C1270 C 0.0703 0.86581 0.05029 0.0
C1271 C 0.08213 0.87909 0.03447 0.0
C1272 C 0.05206 0.86501 0.03644 0.0
C1273 C 0.0152 0.89404 0.99972 0.0
H1274 H 0.9888 0.84947 0.98981 0.0
C1275 C 0.93563 0.89111 1.00384 0.0
C1276 C 0.92898 0.8791 0.03541 0.0
C1277 C 0.95406 0.89044 0.99033 0.0
C1278 C 0.99597 0.86204 0.99226 0.0
H1279 H 0.08436 0.90153 0.99026 0.0
H1280 H 0.05216 0.90024 0.9662 0.0
H1281 H 0.02238 0.84947 0.98917 0.0
H1282 H 0.93612 0.85634 0.07559 0.0
H1283 H 0.96803 0.85512 0.05204 0.0
H1284 H 0.98878 0.90651 1.00489 0.0
C1285 C 0.05712 0.89045 0.98938 0.0
C1286 C 0.01519 0.86204 0.99187 0.0
C1287 C 0.07554 0.89112 1.00293 0.0
C1288 C 0.94083 0.86586 0.05141 0.0
C1289 C 0.95912 0.86506 0.0376 0.0
C1290 C 0.99594 0.89403 1.00007 0.0
C1291 C 0.0451 0.87755 1.00662 0.0
C1292 C 0.02503 0.87796 0.99737 0.0
C1293 C 0.96608 0.87757 1.00766 0.0
C1294 C 0.98614 0.87795 0.99809 0.0
H1295 H 0.075 0.85628 0.07444 0.0
H1296 H 0.04316 0.85505 0.05084 0.0
H1297 H 0.02235 0.90651 1.00433 0.0
H1298 H 0.92682 0.90148 0.99096 0.0
H1299 H 0.95901 0.90019 0.96703 0.0
C1300 C 0.34869 0.69352 0.45291 0.0
C1301 C 0.36452 0.68314 0.44623 0.0
C1302 C 0.34932 0.71201 0.44857 0.0
C1303 C 0.38142 0.75014 0.45155 0.0
H1304 H 0.33976 0.7755 0.40275 0.0
C1305 C 0.38005 0.82727 0.43549 0.0
C1306 C 0.36349 0.83561 0.44767 0.0
C1307 C 0.38095 0.80872 0.43099 0.0
C1308 C 0.35146 0.76866 0.41678 0.0
H1309 H 0.39343 0.68402 0.42898 0.0
H1310 H 0.39457 0.71643 0.42111 0.0
H1311 H 0.34 0.74315 0.40232 0.0
H1312 H 0.33485 0.83106 0.4639 0.0
H1313 H 0.33639 0.79889 0.45628 0.0
H1314 H 0.39276 0.77572 0.4665 0.0
C1315 C 0.38166 0.71024 0.43018 0.0
C1316 C 0.35161 0.75006 0.41654 0.0
C1317 C 0.381 0.69167 0.4344 0.0
C1318 C 0.34781 0.82506 0.45443 0.0
C1319 C 0.34868 0.80658 0.44978 0.0
C1320 C 0.38128 0.76878 0.45178 0.0
C1321 C 0.36583 0.72068 0.43742 0.0
C1322 C 0.36644 0.74052 0.43456 0.0
C1323 C 0.36527 0.79811 0.43828 0.0
C1324 C 0.36616 0.7783 0.43503 0.0
H1325 H 0.33578 0.68737 0.46211 0.0
H1326 H 0.33692 0.71955 0.45505 0.0
H1327 H 0.393 0.74327 0.46612 0.0
H1328 H 0.39237 0.83505 0.42999 0.0
H1329 H 0.39391 0.80269 0.42165 0.0
C1330 C 0.57331 0.15392 0.54696 0.0
C1331 C 0.58363 0.13874 0.53653 0.0
C1332 C 0.5546 0.1547 0.53743 0.0
C1333 C 0.51543 0.13321 0.48028 0.0
H1334 H 0.48895 0.15042 0.58225 0.0
C1335 C 0.43631 0.12466 0.51348 0.0
C1336 C 0.42775 0.13865 0.53619 0.0
C1337 C 0.45526 0.12534 0.50444 0.0
C1338 C 0.49606 0.14584 0.55313 0.0
H1339 H 0.58284 0.11292 0.50531 0.0
H1340 H 0.54972 0.11406 0.48948 0.0
H1341 H 0.52221 0.15044 0.5824 0.0
H1342 H 0.43162 0.16497 0.56327 0.0
H1343 H 0.46428 0.16644 0.54631 0.0
H1344 H 0.48888 0.12833 0.45159 0.0
C1345 C 0.55623 0.12547 0.5045 0.0
C1346 C 0.5152 0.14586 0.55321 0.0
C1347 C 0.57516 0.1248 0.51354 0.0
C1348 C 0.43797 0.15389 0.54631 0.0
C1349 C 0.4567 0.15468 0.5368 0.0
C1350 C 0.49609 0.13319 0.4802 0.0
C1351 C 0.54563 0.14016 0.51802 0.0
C1352 C 0.52517 0.13978 0.51667 0.0
C1353 C 0.46576 0.14009 0.51771 0.0
C1354 C 0.48622 0.13974 0.51652 0.0
H1355 H 0.57959 0.16496 0.56414 0.0
H1356 H 0.54695 0.16642 0.54713 0.0
H1357 H 0.52273 0.12837 0.45171 0.0
H1358 H 0.4287 0.11273 0.50549 0.0
H1359 H 0.46184 0.1139 0.48965 0.0
C1360 C 0.85119 0.19344 0.94797 0.0
C1361 C 0.86699 0.18292 0.94231 0.0
C1362 C 0.85202 0.21192 0.94342 0.0
C1363 C 0.88436 0.24989 0.94756 0.0
H1364 H 0.84338 0.27535 0.8959 0.0
C1365 C 0.8835 0.32709 0.9306 0.0
C1366 C 0.86681 0.3355 0.9415 0.0
C1367 C 0.8844 0.30852 0.92638 0.0
C1368 C 0.8549 0.26849 0.91074 0.0
H1369 H 0.89607 0.18355 0.92673 0.0
H1370 H 0.89756 0.21594 0.91855 0.0
H1371 H 0.84341 0.243 0.89609 0.0
H1372 H 0.83797 0.33103 0.95571 0.0
H1373 H 0.83952 0.29886 0.94859 0.0
H1374 H 0.89571 0.27546 0.96272 0.0
C1375 C 0.88451 0.20988 0.92694 0.0
C1376 C 0.85492 0.24988 0.91085 0.0
C1377 C 0.88365 0.19131 0.93135 0.0
C1378 C 0.85103 0.32498 0.94724 0.0
C1379 C 0.85191 0.3065 0.94287 0.0
C1380 C 0.88434 0.26854 0.94745 0.0
C1381 C 0.8687 0.22045 0.9331 0.0
C1382 C 0.86949 0.24029 0.92991 0.0
C1383 C 0.86861 0.29795 0.93265 0.0
C1384 C 0.86945 0.27811 0.92969 0.0
H1385 H 0.83814 0.18741 0.9565 0.0
H1386 H 0.83961 0.21957 0.94907 0.0
H1387 H 0.89574 0.243 0.96291 0.0
H1388 H 0.8959 0.33484 0.92593 0.0
H1389 H 0.89746 0.30244 0.91806 0.0
C1390 C 0.6594 0.82441 0.44059 0.0
C1391 C 0.64368 0.83512 0.43591 0.0
C1392 C 0.65832 0.80597 0.43566 0.0
C1393 C 0.62561 0.76842 0.44119 0.0
H1394 H 0.66583 0.74259 0.38701 0.0
C1395 C 0.62583 0.69119 0.42574 0.0
C1396 C 0.64255 0.6828 0.43617 0.0
C1397 C 0.62497 0.70973 0.42082 0.0
C1398 C 0.65452 0.74956 0.40252 0.0
H1399 H 0.61449 0.83486 0.42163 0.0
H1400 H 0.61257 0.80253 0.41283 0.0
H1401 H 0.6661 0.77495 0.38711 0.0
H1402 H 0.67153 0.68723 0.44865 0.0
H1403 H 0.67007 0.71934 0.4403 0.0
H1404 H 0.61419 0.74296 0.45721 0.0
C1405 C 0.62574 0.80843 0.42071 0.0
C1406 C 0.65468 0.76816 0.40258 0.0
C1407 C 0.62685 0.82696 0.42547 0.0
C1408 C 0.65843 0.69327 0.44059 0.0
C1409 C 0.6576 0.71172 0.43551 0.0
C1410 C 0.62545 0.74977 0.44114 0.0
C1411 C 0.64147 0.79767 0.42596 0.0
C1412 C 0.6404 0.77787 0.42261 0.0
C1413 C 0.64086 0.72026 0.42588 0.0
C1414 C 0.64008 0.74008 0.4225 0.0
H1415 H 0.67257 0.83028 0.44868 0.0
H1416 H 0.67067 0.79816 0.44058 0.0
H1417 H 0.61445 0.77541 0.45727 0.0
H1418 H 0.61335 0.68347 0.42209 0.0
H1419 H 0.61188 0.71583 0.41299 0.0
C1420 C 0.86559 0.69471 0.03531 0.0
C1421 C 0.87041 0.68303 0.06932 0.0
C1422 C 0.86796 0.71302 0.03981 0.0
C1423 C 0.87192 0.74957 0.11904 0.0
H1424 H 0.8902 0.77483 0.01712 0.0
C1425 C 0.87886 0.82755 0.10809 0.0
C1426 C 0.87193 0.83478 0.0689 0.0
C1427 C 0.88079 0.80901 0.11289 0.0
C1428 C 0.88503 0.76802 0.0459 0.0
H1429 H 0.88135 0.68147 0.13519 0.0
H1430 H 0.88538 0.71383 0.14338 0.0
H1431 H 0.8898 0.74252 0.01718 0.0
H1432 H 0.86155 0.82824 1.00431 0.0
H1433 H 0.86493 0.79637 1.0125 0.0
H1434 H 0.86675 0.77532 0.14718 0.0
C1435 C 0.87977 0.70866 0.11311 0.0
C1436 C 0.8848 0.74946 0.04593 0.0
C1437 C 0.87752 0.69016 0.1084 0.0
C1438 C 0.86701 0.82316 0.03488 0.0
C1439 C 0.86906 0.80482 0.03948 0.0
C1440 C 0.87214 0.76827 0.119 0.0
C1441 C 0.87518 0.72029 0.07856 0.0
C1442 C 0.87773 0.73996 0.08189 0.0
C1443 C 0.87605 0.79744 0.07835 0.0
C1444 C 0.87818 0.77772 0.08181 0.0
H1445 H 0.86 0.68971 1.00483 0.0
H1446 H 0.86394 0.72154 1.01284 0.0
H1447 H 0.86638 0.74267 0.14726 0.0
H1448 H 0.88275 0.83618 0.13491 0.0
H1449 H 0.88623 0.80375 0.14326 0.0
C1450 C 0.62965 0.19144 0.59836 0.0
C1451 C 0.64623 0.18309 0.58638 0.0
C1452 C 0.62875 0.21 0.60278 0.0
C1453 C 0.65827 0.25003 0.61725 0.0
H1454 H 0.61683 0.27549 0.56765 0.0
C1455 C 0.66126 0.32517 0.58124 0.0
C1456 C 0.64544 0.33559 0.5878 0.0
C1457 C 0.66057 0.30668 0.58555 0.0
C1458 C 0.62838 0.26861 0.58229 0.0
H1459 H 0.6749 0.18761 0.57038 0.0
H1460 H 0.67336 0.21979 0.57785 0.0
H1461 H 0.61702 0.24304 0.56724 0.0
H1462 H 0.61651 0.33478 0.60481 0.0
H1463 H 0.61527 0.30237 0.6126 0.0
H1464 H 0.66975 0.27553 0.63182 0.0
C1465 C 0.66105 0.21211 0.58426 0.0
C1466 C 0.62849 0.24996 0.58204 0.0
C1467 C 0.66192 0.19363 0.5797 0.0
C1468 C 0.62892 0.3271 0.59947 0.0
C1469 C 0.62821 0.30852 0.60365 0.0
C1470 C 0.65815 0.26863 0.61751 0.0
C1471 C 0.64445 0.22059 0.59561 0.0
C1472 C 0.64358 0.24042 0.59888 0.0
C1473 C 0.64402 0.29805 0.59654 0.0
C1474 C 0.64336 0.27821 0.59939 0.0
H1475 H 0.61732 0.18367 0.6038 0.0
H1476 H 0.61578 0.21604 0.61199 0.0
H1477 H 0.66995 0.24317 0.63136 0.0
H1478 H 0.6742 0.33129 0.57217 0.0
H1479 H 0.67296 0.29912 0.57916 0.0
C1480 C 0.94121 0.36709 0.97926 0.0
C1481 C 0.9292 0.3803 0.99476 0.0
C1482 C 0.95941 0.36643 0.99347 0.0
C1483 C 0.99599 0.3956 0.03038 0.0
H1484 H 0.0224 0.35108 0.04253 0.0
C1485 C 0.07568 0.39229 0.02645 0.0
C1486 C 0.08214 0.38011 0.99505 0.0
C1487 C 0.05725 0.39182 0.04022 0.0
C1488 C 0.01523 0.36364 0.03951 0.0
H1489 H 0.92663 0.40281 0.03863 0.0
H1490 H 0.95878 0.4018 0.06323 0.0
H1491 H 0.98883 0.35111 0.04249 0.0
H1492 H 0.07474 0.3573 0.95545 0.0
H1493 H 0.0429 0.3564 0.97952 0.0
H1494 H 0.02243 0.40801 0.02518 0.0
C1495 C 0.95398 0.39194 0.04009 0.0
C1496 C 0.99601 0.36366 0.03949 0.0
C1497 C 0.93559 0.39245 0.02623 0.0
C1498 C 0.07015 0.36693 0.97951 0.0
C1499 C 0.05191 0.36632 0.99362 0.0
C1500 C 0.01526 0.39558 0.0304 0.0
C1501 C 0.96615 0.37907 0.02329 0.0
C1502 C 0.98618 0.37954 0.0331 0.0
C1503 C 0.04511 0.37898 0.02338 0.0
C1504 C 0.02507 0.3795 0.03314 0.0
H1505 H 0.93667 0.35748 0.95515 0.0
H1506 H 0.96845 0.35649 0.9794 0.0
H1507 H 0.98883 0.40805 0.02515 0.0
H1508 H 0.08461 0.40263 0.03889 0.0
H1509 H 0.05241 0.40171 0.06332 0.0
C1510 C 0.43409 0.62681 0.53004 0.0
C1511 C 0.42761 0.6389 0.49849 0.0
C1512 C 0.4525 0.62738 0.54375 0.0
C1513 C 0.49456 0.65558 0.54178 0.0
H1514 H 0.52082 0.61107 0.52782 0.0
C1515 C 0.56814 0.65157 0.47841 0.0
C1516 C 0.58024 0.63849 0.49409 0.0
C1517 C 0.55004 0.65238 0.49343 0.0
C1518 C 0.5137 0.62355 0.53295 0.0
H1519 H 0.43494 0.66169 0.45864 0.0
H1520 H 0.46674 0.66274 0.48255 0.0
H1521 H 0.48723 0.61116 0.52883 0.0
H1522 H 0.58309 0.61636 0.53905 0.0
H1523 H 0.55111 0.6176 0.565 0.0
H1524 H 0.52099 0.66808 0.54351 0.0
C1525 C 0.45777 0.65282 0.49684 0.0
C1526 C 0.49443 0.6236 0.53354 0.0
C1527 C 0.43954 0.65212 0.48281 0.0
C1528 C 0.57406 0.62662 0.52649 0.0
C1529 C 0.55576 0.62727 0.54115 0.0
C1530 C 0.51377 0.65553 0.54114 0.0
C1531 C 0.4646 0.64023 0.52668 0.0
C1532 C 0.48467 0.63971 0.5361 0.0
C1533 C 0.54349 0.64 0.52421 0.0
C1534 C 0.52354 0.6396 0.53487 0.0
H1535 H 0.4252 0.61645 0.5426 0.0
H1536 H 0.45736 0.61754 0.56693 0.0
H1537 H 0.48742 0.66817 0.54466 0.0
H1538 H 0.57253 0.66096 0.45359 0.0
H1539 H 0.54091 0.6622 0.47925 0.0
C1540 C 0.44128 0.3671 0.55198 0.0
C1541 C 0.42931 0.38032 0.53637 0.0
C1542 C 0.45955 0.36648 0.53808 0.0
C1543 C 0.49627 0.39571 0.50168 0.0
H1544 H 0.52273 0.35121 0.48947 0.0
C1545 C 0.57597 0.39249 0.50513 0.0
C1546 C 0.58248 0.38026 0.53634 0.0
C1547 C 0.55754 0.39202 0.49157 0.0
C1548 C 0.51555 0.36377 0.49254 0.0
H1549 H 0.42693 0.40291 0.49267 0.0
H1550 H 0.45918 0.40196 0.46861 0.0
H1551 H 0.48916 0.35123 0.4895 0.0
H1552 H 0.57514 0.35738 0.57582 0.0
H1553 H 0.54329 0.35648 0.55212 0.0
H1554 H 0.52269 0.40814 0.50689 0.0
C1555 C 0.45429 0.39206 0.49159 0.0
C1556 C 0.49632 0.36378 0.49255 0.0
C1557 C 0.43584 0.39253 0.50515 0.0
C1558 C 0.57052 0.36704 0.5519 0.0
C1559 C 0.55227 0.36643 0.53801 0.0
C1560 C 0.51554 0.39571 0.50167 0.0
C1561 C 0.46641 0.37917 0.50849 0.0
C1562 C 0.48647 0.37965 0.49891 0.0
C1563 C 0.54542 0.37913 0.50844 0.0
C1564 C 0.52537 0.37964 0.49888 0.0
H1565 H 0.43665 0.35745 0.57591 0.0
H1566 H 0.46853 0.35653 0.55222 0.0
H1567 H 0.4891 0.40816 0.50691 0.0
H1568 H 0.58488 0.40286 0.49269 0.0
H1569 H 0.55267 0.40193 0.46861 0.0
C1570 C 0.07306 0.65422 0.0467 0.0
C1571 C 0.08311 0.63887 0.03625 0.0
C1572 C 0.05434 0.65527 0.03735 0.0
C1573 C 0.01476 0.6343 0.98071 0.0
H1574 H 0.98871 0.6516 0.08321 0.0
C1575 C 0.93589 0.62558 1.01418 0.0
C1576 C 0.9272 0.63932 0.0376 0.0
C1577 C 0.95481 0.62645 1.00521 0.0
C1578 C 0.99569 0.64702 0.05392 0.0
H1579 H 0.08186 0.61305 1.00514 0.0
H1580 H 0.04874 0.61469 0.98958 0.0
H1581 H 0.02196 0.65147 0.08272 0.0
H1582 H 0.93092 0.66542 0.06614 0.0
H1583 H 0.96358 0.66722 0.04933 0.0
H1584 H 0.98811 0.62957 0.95247 0.0
C1585 C 0.05545 0.626 1.0045 0.0
C1586 C 0.01483 0.64694 0.05365 0.0
C1587 C 0.07438 0.62505 1.01338 0.0
C1588 C 0.93734 0.65451 0.04866 0.0
C1589 C 0.95608 0.65549 0.03923 0.0
C1590 C 0.99542 0.63439 0.98098 0.0
C1591 C 0.04511 0.64086 0.01808 0.0
C1592 C 0.02465 0.64076 0.01697 0.0
C1593 C 0.96523 0.64115 0.01922 0.0
C1594 C 0.9857 0.64094 0.01753 0.0
H1595 H 0.07954 0.66517 0.06379 0.0
H1596 H 0.0469 0.66711 0.04709 0.0
H1597 H 0.02194 0.62941 0.95203 0.0
H1598 H 0.92836 0.61369 1.0054 0.0
H1599 H 0.96145 0.61519 0.98976 0.0
C1600 C 0.11192 0.56987 0.08419 0.0
C1601 C 0.12839 0.57939 0.08914 0.0
C1602 C 0.11199 0.55273 0.06623 0.0
C1603 C 0.14139 0.52125 1.0014 0.0
H1604 H 0.10583 0.4866 0.04218 0.0
C1605 C 0.14455 0.44634 0.95459 0.0
C1606 C 0.12788 0.43848 0.94161 0.0
C1607 C 0.14479 0.46351 0.97239 0.0
C1608 C 0.11577 0.49616 0.03022 0.0
H1609 H 0.15789 0.57839 0.0794 0.0
H1610 H 0.15818 0.54832 0.04959 0.0
H1611 H 0.1061 0.51626 0.07412 0.0
H1612 H 0.0984 0.44239 0.93758 0.0
H1613 H 0.09879 0.47226 0.96924 0.0
H1614 H 0.1513 0.50084 0.95825 0.0
C1615 C 0.14508 0.55415 0.05844 0.0
C1616 C 0.1159 0.51326 0.0484 0.0
C1617 C 0.14496 0.57138 0.07592 0.0
C1618 C 0.11146 0.44811 0.94714 0.0
C1619 C 0.11168 0.46517 0.9655 0.0
C1620 C 0.14141 0.50406 0.98365 0.0
C1621 C 0.12858 0.54454 0.05317 0.0
C1622 C 0.12864 0.52614 0.03414 0.0
C1623 C 0.12835 0.47312 0.97826 0.0
C1624 C 0.12854 0.49133 0.99766 0.0
H1625 H 0.09891 0.57576 0.09369 0.0
H1626 H 0.09894 0.54604 0.062 0.0
H1627 H 0.15122 0.53077 0.9888 0.0
H1628 H 0.15742 0.43922 0.95087 0.0
H1629 H 0.15784 0.46918 0.98222 0.0
C1630 C 0.68886 0.89195 0.31755 0.0
C1631 C 0.68879 0.89458 0.36323 0.0
C1632 C 0.70511 0.89341 0.29342 0.0
C1633 C 0.7551 0.88964 0.30397 0.0
H1634 H 0.75579 0.91306 0.19067 0.0
C1635 C 0.82239 0.89745 0.20707 0.0
C1636 C 0.82196 0.89494 0.16139 0.0
C1637 C 0.80615 0.89873 0.23125 0.0
C1638 C 0.75579 0.90629 0.22198 0.0
H1639 H 0.70582 0.90101 0.41927 0.0
H1640 H 0.73441 0.90342 0.37693 0.0
H1641 H 0.72765 0.91319 0.23452 0.0
H1642 H 0.80402 0.89223 0.10516 0.0
H1643 H 0.77546 0.89408 0.14767 0.0
H1644 H 0.78301 0.88233 0.29125 0.0
C1645 C 0.72177 0.90019 0.35996 0.0
C1646 C 0.73969 0.90643 0.24721 0.0
C1647 C 0.70541 0.89889 0.38417 0.0
C1648 C 0.80481 0.89418 0.14028 0.0
C1649 C 0.78846 0.89531 0.16468 0.0
C1650 C 0.77115 0.88939 0.27866 0.0
C1651 C 0.72179 0.89742 0.3143 0.0
C1652 C 0.73915 0.89807 0.28845 0.0
C1653 C 0.78895 0.89737 0.2106 0.0
C1654 C 0.77173 0.8977 0.23731 0.0
H1655 H 0.67632 0.88867 0.30019 0.0
H1656 H 0.70467 0.89098 0.25845 0.0
H1657 H 0.75504 0.88281 0.33522 0.0
H1658 H 0.83534 0.89838 0.22445 0.0
H1659 H 0.80712 0.90079 0.2663 0.0
C1660 C 0.3999 0.44849 0.58561 0.0
C1661 C 0.38352 0.43882 0.59053 0.0
C1662 C 0.39969 0.46566 0.56784 0.0
C1663 C 0.37007 0.49702 0.50345 0.0
H1664 H 0.40523 0.5319 0.5447 0.0
C1665 C 0.36623 0.57197 0.45753 0.0
C1666 C 0.38283 0.58001 0.44467 0.0
C1667 C 0.36614 0.55476 0.47515 0.0
C1668 C 0.3954 0.52227 0.5326 0.0
H1669 H 0.35401 0.4396 0.58092 0.0
H1670 H 0.35347 0.46972 0.55142 0.0
H1671 H 0.40521 0.50216 0.57626 0.0
H1672 H 0.41236 0.57641 0.44064 0.0
H1673 H 0.41224 0.54647 0.47197 0.0
H1674 H 0.36004 0.51742 0.46053 0.0
C1675 C 0.36662 0.46398 0.56016 0.0
C1676 C 0.39542 0.50513 0.55057 0.0
C1677 C 0.36688 0.44672 0.57746 0.0
C1678 C 0.39934 0.57054 0.45012 0.0
C1679 C 0.39928 0.55344 0.46829 0.0
C1680 C 0.36991 0.51424 0.4859 0.0
C1681 C 0.38304 0.47374 0.55494 0.0
C1682 C 0.38282 0.49217 0.53614 0.0
C1683 C 0.38267 0.5453 0.48092 0.0
C1684 C 0.38264 0.52705 0.50009 0.0
H1685 H 0.41296 0.4427 0.59501 0.0
H1686 H 0.41268 0.47248 0.56364 0.0
H1687 H 0.36036 0.48743 0.49073 0.0
H1688 H 0.35328 0.57896 0.45387 0.0
H1689 H 0.35313 0.54894 0.4849 0.0
C1690 C 0.82054 0.13218 0.82695 0.0
C1691 C 0.82251 0.12357 0.8676 0.0
C1692 C 0.80461 0.13011 0.80209 0.0
C1693 C 0.75568 0.11736 0.81015 0.0
H1694 H 0.75937 0.11723 0.68326 0.0
C1695 C 0.7054 0.1129 0.64656 0.0
C1696 C 0.69117 0.12402 0.66148 0.0
C1697 C 0.72146 0.11069 0.67152 0.0
C1698 C 0.75805 0.11699 0.71862 0.0
H1699 H 0.80915 0.10596 0.91394 0.0
H1700 H 0.78123 0.10214 0.87009 0.0
H1701 H 0.78724 0.11658 0.72741 0.0
H1702 H 0.68287 0.14184 0.71396 0.0
H1703 H 0.71073 0.13834 0.7564 0.0
H1704 H 0.72649 0.11751 0.80137 0.0
C1705 C 0.79203 0.1107 0.85776 0.0
C1706 C 0.77406 0.11686 0.74401 0.0
C1707 C 0.80804 0.11285 0.88289 0.0
C1708 C 0.69345 0.13303 0.7015 0.0
C1709 C 0.70943 0.13089 0.72619 0.0
C1710 C 0.73967 0.11738 0.78476 0.0
C1711 C 0.79016 0.11927 0.81691 0.0
C1712 C 0.7731 0.11747 0.79011 0.0
C1713 C 0.72361 0.1196 0.71183 0.0
C1714 C 0.74064 0.11763 0.73865 0.0
H1715 H 0.83132 0.14067 0.81418 0.0
H1716 H 0.80354 0.13728 0.77142 0.0
H1717 H 0.75436 0.11789 0.84548 0.0
H1718 H 0.70405 0.10571 0.61598 0.0
H1719 H 0.73207 0.10181 0.65954 0.0
C1720 C 0.86743 0.57271 0.0721 0.0
C1721 C 0.88385 0.58028 0.08765 0.0
C1722 C 0.86735 0.55558 0.054 0.0
C1723 C 0.89694 0.52232 1.0002 0.0
H1724 H 0.86017 0.48839 0.03831 0.0
C1725 C 0.90049 0.44846 0.94706 0.0
C1726 C 0.884 0.43908 0.94103 0.0
C1727 C 0.90038 0.46564 0.96482 0.0
C1728 C 0.87038 0.49771 0.02658 0.0
H1729 H 0.91312 0.57594 0.09568 0.0
H1730 H 0.91305 0.54615 0.06334 0.0
H1731 H 0.86002 0.5184 0.0683 0.0
H1732 H 0.85441 0.44039 0.94864 0.0
H1733 H 0.85405 0.47055 0.97796 0.0
H1734 H 0.90707 0.50197 0.95762 0.0
C1735 C 0.90021 0.55342 0.06539 0.0
C1736 C 0.87032 0.51495 0.04405 0.0
C1737 C 0.90024 0.57045 0.0841 0.0
C1738 C 0.86736 0.44728 0.95299 0.0
C1739 C 0.86721 0.46456 0.9702 0.0
C1740 C 0.89686 0.50518 0.98223 0.0
C1741 C 0.88375 0.54572 0.05038 0.0
C1742 C 0.88365 0.52745 0.03126 0.0
C1743 C 0.88373 0.47405 0.97653 0.0
C1744 C 0.88363 0.49252 0.99528 0.0
H1745 H 0.85459 0.57997 0.07425 0.0
H1746 H 0.85447 0.55012 0.04238 0.0
H1747 H 0.90727 0.5317 0.98922 0.0
H1748 H 0.91356 0.44244 0.93857 0.0
H1749 H 0.91345 0.4722 0.96992 0.0
C1750 C 0.20372 0.11304 0.88512 0.0
C1751 C 0.18913 0.12356 0.86953 0.0
C1752 C 0.21975 0.11087 0.85996 0.0
C1753 C 0.25602 0.11767 0.81168 0.0
H1754 H 0.2522 0.1165 0.68487 0.0
C1755 C 0.31778 0.13358 0.70144 0.0
C1756 C 0.32022 0.12429 0.66186 0.0
C1757 C 0.30187 0.13138 0.72643 0.0
C1758 C 0.25356 0.11655 0.72021 0.0
H1759 H 0.18016 0.14026 0.8155 0.0
H1760 H 0.20796 0.1368 0.77268 0.0
H1761 H 0.22439 0.11576 0.72943 0.0
H1762 H 0.3077 0.1054 0.61742 0.0
H1763 H 0.27979 0.10137 0.66151 0.0
H1764 H 0.28519 0.11823 0.80249 0.0
C1765 C 0.20697 0.12982 0.80364 0.0
C1766 C 0.23758 0.11637 0.74583 0.0
C1767 C 0.19102 0.13194 0.82855 0.0
C1768 C 0.3062 0.11281 0.64764 0.0
C1769 C 0.29022 0.11053 0.67291 0.0
C1770 C 0.272 0.11776 0.78607 0.0
C1771 C 0.22152 0.11918 0.81877 0.0
C1772 C 0.23858 0.11736 0.79187 0.0
C1773 C 0.28792 0.11971 0.71281 0.0
C1774 C 0.27097 0.11765 0.73997 0.0
H1775 H 0.20268 0.10635 0.91645 0.0
H1776 H 0.23066 0.10249 0.87254 0.0
H1777 H 0.25735 0.1185 0.84697 0.0
H1778 H 0.32818 0.14267 0.71333 0.0
H1779 H 0.30043 0.13903 0.75629 0.0
C1780 C 0.60916 0.56982 0.44725 0.0
C1781 C 0.62548 0.57954 0.44138 0.0
C1782 C 0.60956 0.5528 0.46588 0.0
C1783 C 0.63971 0.51414 0.48414 0.0
H1784 H 0.60466 0.50182 0.57503 0.0
C1785 C 0.64392 0.44687 0.57682 0.0
C1786 C 0.62743 0.43882 0.59028 0.0
C1787 C 0.6439 0.46409 0.55921 0.0
C1788 C 0.61439 0.50485 0.5492 0.0
H1789 H 0.65504 0.579 0.45033 0.0
H1790 H 0.6558 0.54913 0.48215 0.0
H1791 H 0.60406 0.53144 0.54284 0.0
H1792 H 0.59793 0.44236 0.59509 0.0
H1793 H 0.59772 0.47203 0.56318 0.0
H1794 H 0.64977 0.48749 0.48943 0.0
C1795 C 0.64268 0.55469 0.47239 0.0
C1796 C 0.61408 0.52193 0.53087 0.0
C1797 C 0.64224 0.57182 0.45432 0.0
C1798 C 0.61089 0.44828 0.58542 0.0
C1799 C 0.61082 0.4654 0.56733 0.0
C1800 C 0.63988 0.49697 0.50204 0.0
C1801 C 0.62633 0.54499 0.47856 0.0
C1802 C 0.62674 0.5268 0.49814 0.0
C1803 C 0.62733 0.47364 0.55406 0.0
C1804 C 0.62722 0.49203 0.53493 0.0
H1805 H 0.59603 0.57543 0.43772 0.0
H1806 H 0.59675 0.54564 0.46985 0.0
H1807 H 0.64952 0.51739 0.45862 0.0
H1808 H 0.6569 0.43992 0.58023 0.0
H1809 H 0.65695 0.46997 0.55018 0.0
C1810 C 0.31703 0.88622 0.33153 0.0
C1811 C 0.319 0.89479 0.37224 0.0
C1812 C 0.30122 0.88855 0.3064 0.0
C1813 C 0.27126 0.90249 0.24771 0.0
H1814 H 0.22333 0.90126 0.30325 0.0
C1815 C 0.20322 0.90574 0.14766 0.0
C1816 C 0.18917 0.89429 0.16187 0.0
C1817 C 0.21904 0.90822 0.1733 0.0
C1818 C 0.23661 0.90157 0.28716 0.0
H1819 H 0.3057 0.9125 0.41851 0.0
H1820 H 0.27791 0.91669 0.3742 0.0
H1821 H 0.25092 0.90093 0.34843 0.0
H1822 H 0.18096 0.87615 0.21374 0.0
H1823 H 0.20841 0.88012 0.25734 0.0
H1824 H 0.25698 0.90225 0.18641 0.0
C1825 C 0.28868 0.90804 0.362 0.0
C1826 C 0.25245 0.90162 0.31316 0.0
C1827 C 0.30459 0.90566 0.3874 0.0
C1828 C 0.1914 0.88521 0.20183 0.0
C1829 C 0.20713 0.88762 0.22719 0.0
C1830 C 0.25543 0.90236 0.22171 0.0
C1831 C 0.28687 0.89958 0.32101 0.0
C1832 C 0.26999 0.90165 0.29374 0.0
C1833 C 0.22111 0.89926 0.21358 0.0
C1834 C 0.2379 0.90146 0.24107 0.0
H1835 H 0.32773 0.87762 0.31882 0.0
H1836 H 0.30016 0.88145 0.27564 0.0
H1837 H 0.28455 0.90289 0.23163 0.0
H1838 H 0.20189 0.91299 0.11716 0.0
H1839 H 0.22951 0.91735 0.16188 0.0
C1840 C 0.64396 0.94663 0.45354 0.0
C1841 C 0.62722 0.93883 0.44102 0.0
C1842 C 0.64437 0.96382 0.47123 0.0
C1843 C 0.61569 1.00504 0.4826 0.0
H1844 H 0.65169 0.01705 0.57141 0.0
C1845 C 0.61232 0.07027 0.58371 0.0
C1846 C 0.62885 0.0797 0.58893 0.0
C1847 C 0.61231 0.05319 0.5654 0.0
C1848 C 0.64164 0.01395 0.54638 0.0
H1849 H 0.59774 0.94281 0.43802 0.0
H1850 H 0.5983 0.97246 0.47002 0.0
H1851 H 0.65117 0.98713 0.54078 0.0
H1852 H 0.65836 0.07858 0.57916 0.0
H1853 H 0.6584 0.04861 0.54784 0.0
H1854 H 0.60592 0.03181 0.48919 0.0
C1855 C 0.61125 0.96563 0.46509 0.0
C1856 C 0.64136 0.99677 0.52859 0.0
C1857 C 0.61088 0.94852 0.44696 0.0
C1858 C 0.64541 0.07162 0.5757 0.0
C1859 C 0.64543 0.05444 0.55791 0.0
C1860 C 0.61583 0.02214 0.50079 0.0
C1861 C 0.62801 0.97362 0.47736 0.0
C1862 C 0.62838 0.99202 0.49637 0.0
C1863 C 0.62887 0.04503 0.55234 0.0
C1864 C 0.62881 0.02682 0.53289 0.0
H1865 H 0.65679 0.93949 0.4493 0.0
H1866 H 0.65759 0.9695 0.4795 0.0
H1867 H 0.60572 1.00215 0.45727 0.0
H1868 H 0.59933 0.07616 0.59347 0.0
H1869 H 0.59933 0.04628 0.56192 0.0
C1870 C 0.19197 0.38502 0.82794 0.0
C1871 C 0.18974 0.3939 0.86817 0.0
C1872 C 0.20797 0.3871 0.8032 0.0
C1873 C 0.25669 0.40061 0.811 0.0
H1874 H 0.25324 0.40005 0.68411 0.0
C1875 C 0.30715 0.40507 0.64732 0.0
C1876 C 0.32154 0.39422 0.66255 0.0
C1877 C 0.29103 0.40715 0.67224 0.0
C1878 C 0.25449 0.40048 0.71946 0.0
H1879 H 0.20272 0.41196 0.91393 0.0
H1880 H 0.23076 0.41579 0.87029 0.0
H1881 H 0.22528 0.40047 0.72815 0.0
H1882 H 0.33007 0.37681 0.71559 0.0
H1883 H 0.30212 0.38011 0.75797 0.0
H1884 H 0.2859 0.40087 0.80231 0.0
C1885 C 0.22011 0.40703 0.85819 0.0
C1886 C 0.23843 0.40047 0.7448 0.0
C1887 C 0.20404 0.40487 0.88321 0.0
C1888 C 0.31937 0.3854 0.70287 0.0
C1889 C 0.30333 0.38741 0.72753 0.0
C1890 C 0.27275 0.40071 0.78566 0.0
C1891 C 0.22223 0.39822 0.81771 0.0
C1892 C 0.23931 0.40012 0.79092 0.0
C1893 C 0.28898 0.39841 0.71282 0.0
C1894 C 0.27187 0.40022 0.73955 0.0
H1895 H 0.18134 0.37633 0.81539 0.0
H1896 H 0.20924 0.37974 0.77284 0.0
H1897 H 0.25795 0.40028 0.84635 0.0
H1898 H 0.30842 0.41211 0.61651 0.0
H1899 H 0.2803 0.41581 0.65999 0.0
C1900 C 0.86879 0.94516 0.07137 0.0
C1901 C 0.88525 0.93764 0.0868 0.0
C1902 C 0.86856 0.96237 0.05371 0.0
C1903 C 0.89673 1.00409 0.04782 0.0
H1904 H 0.86251 0.01623 0.95513 0.0
C1905 C 0.90106 0.06997 0.94929 0.0
C1906 C 0.88452 0.0793 0.94291 0.0
C1907 C 0.90098 0.05279 0.96701 0.0
C1908 C 0.87206 0.01308 0.98124 0.0
H1909 H 0.91447 0.94207 0.09476 0.0
H1910 H 0.9143 0.97173 0.06264 0.0
H1911 H 0.86297 0.98608 0.98442 0.0
H1912 H 0.85488 0.07789 0.94995 0.0
H1913 H 0.85472 0.0477 0.98011 0.0
H1914 H 0.90611 0.03105 0.04354 0.0
C1915 C 0.90137 0.96468 0.06534 0.0
C1916 C 0.87229 0.99576 0.99827 0.0
C1917 C 0.90153 0.94757 0.08352 0.0
C1918 C 0.86786 0.07102 0.95438 0.0
C1919 C 0.86775 0.05371 0.9715 0.0
C1920 C 0.89666 0.02132 0.03034 0.0
C1921 C 0.88485 0.97245 0.05044 0.0
C1922 C 0.88462 0.99097 0.03193 0.0
C1923 C 0.88433 0.0444 0.97821 0.0
C1924 C 0.88431 0.02605 0.99688 0.0
H1925 H 0.85599 0.93784 0.07354 0.0
H1926 H 0.85549 0.96784 0.04337 0.0
H1927 H 0.90616 1.00119 0.07429 0.0
H1928 H 0.91412 0.07601 0.94089 0.0
H1929 H 0.91398 0.04595 0.97144 0.0
C1930 C 0.19306 0.63313 0.20005 0.0
C1931 C 0.19063 0.62371 0.16067 0.0
C1932 C 0.20887 0.63084 0.22522 0.0
C1933 C 0.25705 0.61565 0.22004 0.0
H1934 H 0.25266 0.61795 0.3467 0.0
C1935 C 0.30618 0.61298 0.38594 0.0
C1936 C 0.32068 0.62361 0.37043 0.0
C1937 C 0.29029 0.61056 0.36052 0.0
C1938 C 0.25416 0.61701 0.31145 0.0
H1939 H 0.20312 0.60455 0.11669 0.0
H1940 H 0.23089 0.60041 0.1611 0.0
H1941 H 0.22504 0.61757 0.30168 0.0
H1942 H 0.32966 0.64025 0.31625 0.0
H1943 H 0.30212 0.63636 0.27299 0.0
H1944 H 0.28618 0.61491 0.22985 0.0
C1945 C 0.2205 0.60971 0.17222 0.0
C1946 C 0.23831 0.61703 0.28554 0.0
C1947 C 0.2046 0.61206 0.14676 0.0
C1948 C 0.31886 0.63185 0.32927 0.0
C1949 C 0.30307 0.62948 0.3041 0.0
C1950 C 0.27291 0.61554 0.24597 0.0
C1951 C 0.22274 0.61898 0.212 0.0
C1952 C 0.23955 0.61683 0.23945 0.0
C1953 C 0.2886 0.61873 0.31914 0.0
C1954 C 0.27169 0.61668 0.29198 0.0
H1955 H 0.1827 0.64235 0.21169 0.0
H1956 H 0.21028 0.63858 0.25494 0.0
H1957 H 0.25857 0.61551 0.18473 0.0
H1958 H 0.30718 0.60638 0.4174 0.0
H1959 H 0.27943 0.60211 0.37305 0.0
C1960 C 0.39784 0.94804 0.44969 0.0
C1961 C 0.38131 0.93859 0.44469 0.0
C1962 C 0.39784 0.96515 0.46784 0.0
C1963 C 0.36853 1.0044 0.48596 0.0
H1964 H 0.40405 0.01643 0.57578 0.0
C1965 C 0.36555 0.07189 0.57746 0.0
C1966 C 0.38218 0.07978 0.59044 0.0
C1967 C 0.36531 0.05463 0.56019 0.0
C1968 C 0.3942 0.01347 0.55023 0.0
H1969 H 0.35181 0.93968 0.45466 0.0
H1970 H 0.35177 0.96971 0.4856 0.0
H1971 H 0.40403 0.9867 0.5442 0.0
H1972 H 0.41163 0.07591 0.59479 0.0
H1973 H 0.41139 0.04613 0.56342 0.0
H1974 H 0.35896 0.03121 0.49089 0.0
C1975 C 0.36473 0.96387 0.47554 0.0
C1976 C 0.39416 0.99634 0.53226 0.0
C1977 C 0.36476 0.94665 0.45797 0.0
C1978 C 0.39858 0.07011 0.58547 0.0
C1979 C 0.39839 0.05294 0.56769 0.0
C1980 C 0.36872 0.02162 0.50349 0.0
C1981 C 0.38129 0.97331 0.48087 0.0
C1982 C 0.38131 0.99157 0.49997 0.0
C1983 C 0.38174 0.04487 0.55486 0.0
C1984 C 0.38154 0.02644 0.53601 0.0
H1985 H 0.41082 0.94215 0.4399 0.0
H1986 H 0.41081 0.9721 0.47117 0.0
H1987 H 0.35859 1.00122 0.46074 0.0
H1988 H 0.35267 0.079 0.58098 0.0
H1989 H 0.35216 0.04889 0.55154 0.0
C1990 C 0.80303 0.62353 0.14043 0.0
C1991 C 0.82016 0.62278 0.16164 0.0
C1992 C 0.78665 0.6224 0.16474 0.0
C1993 C 0.76925 0.62846 0.27857 0.0
H1994 H 0.72588 0.60445 0.23479 0.0
C1995 C 0.70369 0.61907 0.38452 0.0
C1996 C 0.68702 0.62323 0.36361 0.0
C1997 C 0.72003 0.61773 0.3602 0.0
C1998 C 0.73787 0.61127 0.24737 0.0
H1999 H 0.83347 0.61933 0.22479 0.0
H2000 H 0.80523 0.61693 0.26647 0.0
H2001 H 0.754 0.6046 0.19086 0.0
H2002 H 0.67441 0.6288 0.30051 0.0
H2003 H 0.70272 0.62645 0.2586 0.0
H2004 H 0.75314 0.6351 0.33507 0.0
C2005 C 0.80428 0.61898 0.23141 0.0
C2006 C 0.75397 0.61142 0.2221 0.0
C2007 C 0.82054 0.62026 0.20733 0.0
C2008 C 0.687 0.62565 0.31785 0.0
C2009 C 0.70323 0.62416 0.29363 0.0
C2010 C 0.75322 0.62821 0.3039 0.0
C2011 C 0.7871 0.62035 0.21067 0.0
C2012 C 0.76987 0.62006 0.23733 0.0
C2013 C 0.71997 0.62033 0.31448 0.0
C2014 C 0.73731 0.6197 0.28853 0.0
H2015 H 0.80227 0.62549 0.10531 0.0
H2016 H 0.77366 0.62363 0.14766 0.0
H2017 H 0.78109 0.63556 0.29106 0.0
H2018 H 0.70417 0.61711 0.41967 0.0
H2019 H 0.73271 0.61462 0.37716 0.0
C2020 C 0.14374 0.07149 0.95656 0.0
C2021 C 0.12715 0.07945 0.94347 0.0
C2022 C 0.14392 0.05423 0.9739 0.0
C2023 C 0.11488 0.01322 0.98355 0.0
H2024 H 0.15033 1.00064 0.0732 0.0
C2025 C 0.1107 0.94774 0.08375 0.0
C2026 C 0.12716 0.93814 0.08881 0.0
C2027 C 0.11083 0.96487 0.06573 0.0
C2028 C 0.14043 1.00391 0.04794 0.0
H2029 H 0.09768 0.07571 0.93907 0.0
H2030 H 0.09782 0.04595 0.97054 0.0
H2031 H 0.15016 0.03066 0.04312 0.0
H2032 H 0.15668 0.93901 0.07912 0.0
H2033 H 0.15697 0.96908 0.04839 0.0
H2034 H 0.10488 0.98652 0.98944 0.0
C2035 C 0.11085 0.0527 0.9663 0.0
C2036 C 0.14036 0.02115 0.03046 0.0
C2037 C 0.11072 0.06986 0.94847 0.0
C2038 C 0.14378 0.9461 0.07575 0.0
C2039 C 0.14395 0.96334 0.0583 0.0
C2040 C 0.1148 0.99607 1.00147 0.0
C2041 C 0.12746 0.04455 0.97915 0.0
C2042 C 0.12759 0.02609 0.9979 0.0
C2043 C 0.12746 0.97291 0.05289 0.0
C2044 C 0.12758 0.99119 0.03384 0.0
H2045 H 0.15665 0.07855 0.95304 0.0
H2046 H 0.15705 0.04843 0.98262 0.0
H2047 H 0.10507 0.01626 0.95796 0.0
H2048 H 0.09767 0.94194 0.09339 0.0
H2049 H 0.09792 0.97193 0.06233 0.0
C2050 C 0.70425 0.40554 0.64762 0.0
C2051 C 0.68991 0.39466 0.66292 0.0
C2052 C 0.72037 0.40764 0.67239 0.0
C2053 C 0.75699 0.40108 0.7191 0.0
H2054 H 0.75368 0.40057 0.84603 0.0
C2055 C 0.81985 0.38599 0.82657 0.0
C2056 C 0.82196 0.39471 0.86702 0.0
C2057 C 0.80382 0.388 0.80199 0.0
C2058 C 0.7549 0.40099 0.81067 0.0
H2059 H 0.68147 0.37721 0.71598 0.0
H2060 H 0.70943 0.38051 0.7581 0.0
H2061 H 0.72568 0.40109 0.80241 0.0
H2062 H 0.80873 0.41246 0.9133 0.0
H2063 H 0.78065 0.41619 0.86994 0.0
H2064 H 0.78621 0.40127 0.72737 0.0
C2065 C 0.70817 0.38784 0.72771 0.0
C2066 C 0.73881 0.40104 0.78556 0.0
C2067 C 0.69213 0.38582 0.7032 0.0
C2068 C 0.80752 0.40549 0.88239 0.0
C2069 C 0.79142 0.40758 0.85754 0.0
C2070 C 0.77308 0.40114 0.74422 0.0
C2071 C 0.72249 0.39886 0.7129 0.0
C2072 C 0.73962 0.40067 0.73943 0.0
C2073 C 0.78941 0.3989 0.81689 0.0
C2074 C 0.77226 0.40068 0.79034 0.0
H2075 H 0.70295 0.4126 0.61683 0.0
H2076 H 0.73106 0.41632 0.66007 0.0
H2077 H 0.7582 0.40074 0.68373 0.0
H2078 H 0.8306 0.37746 0.81373 0.0
H2079 H 0.80265 0.38074 0.77147 0.0
loop_
_geom_bond_atom_site_label_1
_geom_bond_atom_site_label_2
_geom_bond_distance
_geom_bond_site_symmetry_2
_ccdc_geom_bond_type
Pr0 C2 2.880 . S
Pr0 O20 2.562 . S
Pr0 O21 2.490 . S
Pr0 O22 2.695 1_556 S
Pr0 O23 2.512 1_556 S
Pr0 O25 2.437 . S
Pr0 O28 2.436 1_556 S
Pr0 O30 2.438 1_556 S
Pr1 C11 2.880 . S
Pr1 O22 2.436 . S
Pr1 O24 2.438 . S
Pr1 O26 2.562 . S
Pr1 O27 2.490 . S
Pr1 O28 2.695 . S
Pr1 O29 2.512 . S
Pr1 O31 2.437 . S
C2 Pr0 2.880 . S
C2 C3 1.491 . S
C2 O20 1.254 . S
C2 O21 1.225 . S
C3 C2 1.491 . S
C3 C4 1.392 . S
C3 C8 1.356 . S
C4 C3 1.392 . S
C4 C5 1.368 . S
C4 H32 0.929 . S
C5 C4 1.368 . S
C5 C6 1.386 . S
C5 H33 0.929 . S
C6 C5 1.386 . S
C6 C7 1.373 . S
C7 C6 1.373 . S
C7 C8 1.409 . S
C7 H34 0.931 . S
C8 C3 1.356 . S
C8 C7 1.409 . S
C8 H35 0.930 . S
C9 O22 1.270 . S
C9 O23 1.248 . S
C10 O24 1.267 . S
C10 O25 1.278 1_554 S
C11 Pr1 2.880 . S
C11 C12 1.491 . S
C11 O26 1.254 . S
C11 O27 1.225 . S
C12 C11 1.491 . S
C12 C13 1.392 . S
C12 C17 1.356 . S
C13 C12 1.392 . S
C13 C14 1.368 . S
C13 H36 0.929 . S
C14 C13 1.368 . S
C14 C15 1.386 . S
C14 H37 0.929 . S
C15 C14 1.386 . S
C15 C16 1.373 . S
C16 C15 1.373 . S
C16 C17 1.409 . S
C16 H38 0.931 . S
C17 C12 1.356 . S
C17 C16 1.409 . S
C17 H39 0.930 . S
C18 O28 1.270 . S
C18 O29 1.248 . S
C19 O30 1.267 . S
C19 O31 1.278 . S
O20 Pr0 2.562 . S
O20 C2 1.254 . S
O21 Pr0 2.490 . S
O21 C2 1.225 . S
O22 Pr0 2.695 1_554 S
O22 Pr1 2.436 . S
O22 C9 1.270 . S
O23 Pr0 2.512 1_554 S
O23 C9 1.248 . S
O24 Pr1 2.438 . S
O24 C10 1.267 . S
O25 Pr0 2.437 . S
O25 C10 1.278 1_556 S
O26 Pr1 2.562 . S
O26 C11 1.254 . S
O27 Pr1 2.490 . S
O27 C11 1.225 . S
O28 Pr0 2.436 1_554 S
O28 Pr1 2.695 . S
O28 C18 1.270 . S
O29 Pr1 2.512 . S
O29 C18 1.248 . S
O30 Pr0 2.438 1_554 S
O30 C19 1.267 . S
O31 Pr1 2.437 . S
O31 C19 1.278 . S
H32 C4 0.929 . S
H33 C5 0.929 . S
H34 C7 0.931 . S
H35 C8 0.930 . S
H36 C13 0.929 . S
H37 C14 0.929 . S
H38 C16 0.931 . S
H39 C17 0.930 . S
Pr40 C42 2.880 . S
Pr40 O60 2.562 . S
Pr40 O61 2.490 . S
Pr40 O62 2.695 . S
Pr40 O63 2.512 . S
Pr40 O65 2.437 . S
Pr40 O68 2.436 . S
Pr40 O70 2.438 . S
Pr41 C51 2.880 . S
Pr41 O62 2.436 . S
Pr41 O64 2.438 . S
Pr41 O66 2.562 . S
Pr41 O67 2.490 . S
Pr41 O68 2.695 . S
Pr41 O69 2.512 . S
Pr41 O71 2.437 . S
C42 Pr40 2.880 . S
C42 C43 1.491 . S
C42 O60 1.254 . S
C42 O61 1.225 . S
C43 C42 1.491 . S
C43 C44 1.392 . S
C43 C48 1.356 . S
C44 C43 1.392 . S
C44 C45 1.368 . S
C44 H72 0.929 . S
C45 C44 1.368 . S
C45 C46 1.386 . S
C45 H73 0.929 . S
C46 C45 1.386 . S
C46 C47 1.373 . S
C47 C46 1.373 . S
C47 C48 1.409 . S
C47 H74 0.931 . S
C48 C43 1.356 . S
C48 C47 1.409 . S
C48 H75 0.930 . S
C49 O62 1.270 . S
C49 O63 1.248 . S
C50 O64 1.267 . S
C50 O65 1.278 . S
C51 Pr41 2.880 . S
C51 C52 1.491 . S
C51 O66 1.254 . S
C51 O67 1.225 . S
C52 C51 1.491 . S
C52 C53 1.392 . S
C52 C57 1.356 . S
C53 C52 1.392 . S
C53 C54 1.368 . S
C53 H76 0.929 . S
C54 C53 1.368 . S
C54 C55 1.386 . S
C54 H77 0.929 . S
C55 C54 1.386 . S
C55 C56 1.373 . S
C56 C55 1.373 . S
C56 C57 1.409 . S
C56 H78 0.931 . S
C57 C52 1.356 . S
C57 C56 1.409 . S
C57 H79 0.930 . S
C58 O68 1.270 . S
C58 O69 1.248 . S
C59 O70 1.267 . S
C59 O71 1.278 . S
O60 Pr40 2.562 . S
O60 C42 1.254 . S
O61 Pr40 2.490 . S
O61 C42 1.225 . S
O62 Pr40 2.695 . S
O62 Pr41 2.436 . S
O62 C49 1.270 . S
O63 Pr40 2.512 . S
O63 C49 1.248 . S
O64 Pr41 2.438 . S
O64 C50 1.267 . S
O65 Pr40 2.437 . S
O65 C50 1.278 . S
O66 Pr41 2.562 . S
O66 C51 1.254 . S
O67 Pr41 2.490 . S
O67 C51 1.225 . S
O68 Pr40 2.436 . S
O68 Pr41 2.695 . S
O68 C58 1.270 . S
O69 Pr41 2.512 . S
O69 C58 1.248 . S
O70 Pr40 2.438 . S
O70 C59 1.267 . S
O71 Pr41 2.437 . S
O71 C59 1.278 . S
H72 C44 0.929 . S
H73 C45 0.929 . S
H74 C47 0.931 . S
H75 C48 0.930 . S
H76 C53 0.929 . S
H77 C54 0.929 . S
H78 C56 0.931 . S
H79 C57 0.930 . S
Pr80 C82 2.880 . S
Pr80 O100 2.562 . S
Pr80 O101 2.490 . S
Pr80 O102 2.695 . S
Pr80 O103 2.512 . S
Pr80 O105 2.437 . S
Pr80 O108 2.436 . S
Pr80 O110 2.438 . S
Pr81 C91 2.880 . S
Pr81 O102 2.436 . S
Pr81 O104 2.438 . S
Pr81 O106 2.562 . S
Pr81 O107 2.490 . S
Pr81 O108 2.695 . S
Pr81 O109 2.512 . S
Pr81 O111 2.437 . S
C82 Pr80 2.880 . S
C82 C83 1.491 . S
C82 O100 1.254 . S
C82 O101 1.225 . S
C83 C82 1.491 . S
C83 C84 1.392 . S
C83 C88 1.356 . S
C84 C83 1.392 . S
C84 C85 1.368 . S
C84 H112 0.929 . S
C85 C84 1.368 . S
C85 C86 1.386 . S
C85 H113 0.929 . S
C86 C85 1.386 . S
C86 C87 1.373 . S
C87 C86 1.373 . S
C87 C88 1.409 . S
C87 H114 0.931 . S
C88 C83 1.356 . S
C88 C87 1.409 . S
C88 H115 0.930 . S
C89 O102 1.270 . S
C89 O103 1.248 . S
C90 O104 1.267 . S
C90 O105 1.278 . S
C91 Pr81 2.880 . S
C91 C92 1.491 . S
C91 O106 1.254 . S
C91 O107 1.225 . S
C92 C91 1.491 . S
C92 C93 1.392 . S
C92 C97 1.356 . S
C93 C92 1.392 . S
C93 C94 1.368 . S
C93 H116 0.929 . S
C94 C93 1.368 . S
C94 C95 1.386 . S
C94 H117 0.929 . S
C95 C94 1.386 . S
C95 C96 1.373 . S
C96 C95 1.373 . S
C96 C97 1.409 . S
C96 H118 0.931 . S
C97 C92 1.356 . S
C97 C96 1.409 . S
C97 H119 0.930 . S
C98 O108 1.270 . S
C98 O109 1.248 . S
C99 O110 1.267 . S
C99 O111 1.278 . S
O100 Pr80 2.562 . S
O100 C82 1.254 . S
O101 Pr80 2.490 . S
O101 C82 1.225 . S
O102 Pr80 2.695 . S
O102 Pr81 2.436 . S
O102 C89 1.270 . S
O103 Pr80 2.512 . S
O103 C89 1.248 . S
O104 Pr81 2.438 . S
O104 C90 1.267 . S
O105 Pr80 2.437 . S
O105 C90 1.278 . S
O106 Pr81 2.562 . S
O106 C91 1.254 . S
O107 Pr81 2.490 . S
O107 C91 1.225 . S
O108 Pr80 2.436 . S
O108 Pr81 2.695 . S
O108 C98 1.270 . S
O109 Pr81 2.512 . S
O109 C98 1.248 . S
O110 Pr80 2.438 . S
O110 C99 1.267 . S
O111 Pr81 2.437 . S
O111 C99 1.278 . S
H112 C84 0.929 . S
H113 C85 0.929 . S
H114 C87 0.931 . S
H115 C88 0.930 . S
H116 C93 0.929 . S
H117 C94 0.929 . S
H118 C96 0.931 . S
H119 C97 0.930 . S
Pr120 C122 2.880 . S
Pr120 O140 2.562 . S
Pr120 O141 2.490 . S
Pr120 O142 2.695 1_554 S
Pr120 O143 2.512 1_554 S
Pr120 O145 2.437 . S
Pr120 O148 2.436 1_554 S
Pr120 O150 2.438 1_554 S
Pr121 C131 2.880 . S
Pr121 O142 2.436 . S
Pr121 O144 2.438 . S
Pr121 O146 2.562 . S
Pr121 O147 2.490 . S
Pr121 O148 2.695 . S
Pr121 O149 2.512 . S
Pr121 O151 2.437 . S
C122 Pr120 2.880 . S
C122 C123 1.491 . S
C122 O140 1.254 . S
C122 O141 1.225 . S
C123 C122 1.491 . S
C123 C124 1.392 . S
C123 C128 1.356 . S
C124 C123 1.392 . S
C124 C125 1.368 . S
C124 H152 0.929 . S
C125 C124 1.368 . S
C125 C126 1.386 . S
C125 H153 0.929 . S
C126 C125 1.386 . S
C126 C127 1.373 . S
C127 C126 1.373 . S
C127 C128 1.409 . S
C127 H154 0.931 . S
C128 C123 1.356 . S
C128 C127 1.409 . S
C128 H155 0.930 . S
C129 O142 1.270 . S
C129 O143 1.248 . S
C130 O144 1.267 . S
C130 O145 1.278 1_556 S
C131 Pr121 2.880 . S
C131 C132 1.491 . S
C131 O146 1.254 . S
C131 O147 1.225 . S
C132 C131 1.491 . S
C132 C133 1.392 . S
C132 C137 1.356 . S
C133 C132 1.392 . S
C133 C134 1.368 . S
C133 H156 0.929 . S
C134 C133 1.368 . S
C134 C135 1.386 . S
C134 H157 0.929 . S
C135 C134 1.386 . S
C135 C136 1.373 . S
C136 C135 1.373 . S
C136 C137 1.409 . S
C136 H158 0.931 . S
C137 C132 1.356 . S
C137 C136 1.409 . S
C137 H159 0.930 . S
C138 O148 1.270 . S
C138 O149 1.248 . S
C139 O150 1.267 . S
C139 O151 1.278 . S
O140 Pr120 2.562 . S
O140 C122 1.254 . S
O141 Pr120 2.490 . S
O141 C122 1.225 . S
O142 Pr120 2.695 1_556 S
O142 Pr121 2.436 . S
O142 C129 1.270 . S
O143 Pr120 2.512 1_556 S
O143 C129 1.248 . S
O144 Pr121 2.438 . S
O144 C130 1.267 . S
O145 Pr120 2.437 . S
O145 C130 1.278 1_554 S
O146 Pr121 2.562 . S
O146 C131 1.254 . S
O147 Pr121 2.490 . S
O147 C131 1.225 . S
O148 Pr120 2.436 1_556 S
O148 Pr121 2.695 . S
O148 C138 1.270 . S
O149 Pr121 2.512 . S
O149 C138 1.248 . S
O150 Pr120 2.438 1_556 S
O150 C139 1.267 . S
O151 Pr121 2.437 . S
O151 C139 1.278 . S
H152 C124 0.929 . S
H153 C125 0.929 . S
H154 C127 0.931 . S
H155 C128 0.930 . S
H156 C133 0.929 . S
H157 C134 0.929 . S
H158 C136 0.931 . S
H159 C137 0.930 . S
Pr160 C162 2.880 . S
Pr160 O180 2.562 . S
Pr160 O181 2.490 . S
Pr160 O182 2.695 1_554 S
Pr160 O183 2.512 1_554 S
Pr160 O185 2.437 . S
Pr160 O188 2.436 1_554 S
Pr160 O190 2.438 1_554 S
Pr161 C171 2.880 . S
Pr161 O182 2.436 . S
Pr161 O184 2.438 . S
Pr161 O186 2.562 . S
Pr161 O187 2.490 . S
Pr161 O188 2.695 . S
Pr161 O189 2.512 . S
Pr161 O191 2.437 . S
C162 Pr160 2.880 . S
C162 C163 1.491 . S
C162 O180 1.254 . S
C162 O181 1.225 . S
C163 C162 1.491 . S
C163 C164 1.392 . S
C163 C168 1.356 . S
C164 C163 1.392 . S
C164 C165 1.368 . S
C164 H192 0.929 . S
C165 C164 1.368 . S
C165 C166 1.386 . S
C165 H193 0.929 . S
C166 C165 1.386 . S
C166 C167 1.373 . S
C167 C166 1.373 . S
C167 C168 1.409 . S
C167 H194 0.931 . S
C168 C163 1.356 . S
C168 C167 1.409 . S
C168 H195 0.930 . S
C169 O182 1.270 . S
C169 O183 1.248 . S
C170 O184 1.267 . S
C170 O185 1.278 1_556 S
C171 Pr161 2.880 . S
C171 C172 1.491 . S
C171 O186 1.254 . S
C171 O187 1.225 . S
C172 C171 1.491 . S
C172 C173 1.392 . S
C172 C177 1.356 . S
C173 C172 1.392 . S
C173 C174 1.368 . S
C173 H196 0.929 . S
C174 C173 1.368 . S
C174 C175 1.386 . S
C174 H197 0.929 . S
C175 C174 1.386 . S
C175 C176 1.373 . S
C176 C175 1.373 . S
C176 C177 1.409 . S
C176 H198 0.931 . S
C177 C172 1.356 . S
C177 C176 1.409 . S
C177 H199 0.930 . S
C178 O188 1.270 . S
C178 O189 1.248 . S
C179 O190 1.267 . S
C179 O191 1.278 . S
O180 Pr160 2.562 . S
O180 C162 1.254 . S
O181 Pr160 2.490 . S
O181 C162 1.225 . S
O182 Pr160 2.695 1_556 S
O182 Pr161 2.436 . S
O182 C169 1.270 . S
O183 Pr160 2.512 1_556 S
O183 C169 1.248 . S
O184 Pr161 2.438 . S
O184 C170 1.267 . S
O185 Pr160 2.437 . S
O185 C170 1.278 1_554 S
O186 Pr161 2.562 . S
O186 C171 1.254 . S
O187 Pr161 2.490 . S
O187 C171 1.225 . S
O188 Pr160 2.436 1_556 S
O188 Pr161 2.695 . S
O188 C178 1.270 . S
O189 Pr161 2.512 . S
O189 C178 1.248 . S
O190 Pr160 2.438 1_556 S
O190 C179 1.267 . S
O191 Pr161 2.437 . S
O191 C179 1.278 . S
H192 C164 0.929 . S
H193 C165 0.929 . S
H194 C167 0.931 . S
H195 C168 0.930 . S
H196 C173 0.929 . S
H197 C174 0.929 . S
H198 C176 0.931 . S
H199 C177 0.930 . S
Pr200 C202 2.880 . S
Pr200 O220 2.562 . S
Pr200 O221 2.490 . S
Pr200 O222 2.695 1_556 S
Pr200 O223 2.512 1_556 S
Pr200 O225 2.437 . S
Pr200 O228 2.436 1_556 S
Pr200 O230 2.438 1_556 S
Pr201 C211 2.880 . S
Pr201 O222 2.436 . S
Pr201 O224 2.438 . S
Pr201 O226 2.562 . S
Pr201 O227 2.490 . S
Pr201 O228 2.695 . S
Pr201 O229 2.512 . S
Pr201 O231 2.437 . S
C202 Pr200 2.880 . S
C202 C203 1.491 . S
C202 O220 1.254 . S
C202 O221 1.225 . S
C203 C202 1.491 . S
C203 C204 1.392 . S
C203 C208 1.356 . S
C204 C203 1.392 . S
C204 C205 1.368 . S
C204 H232 0.929 . S
C205 C204 1.368 . S
C205 C206 1.386 . S
C205 H233 0.929 . S
C206 C205 1.386 . S
C206 C207 1.373 . S
C207 C206 1.373 . S
C207 C208 1.409 . S
C207 H234 0.931 . S
C208 C203 1.356 . S
C208 C207 1.409 . S
C208 H235 0.930 . S
C209 O222 1.270 . S
C209 O223 1.248 . S
C210 O224 1.267 . S
C210 O225 1.278 1_554 S
C211 Pr201 2.880 . S
C211 C212 1.491 . S
C211 O226 1.254 . S
C211 O227 1.225 . S
C212 C211 1.491 . S
C212 C213 1.392 . S
C212 C217 1.356 . S
C213 C212 1.392 . S
C213 C214 1.368 . S
C213 H236 0.929 . S
C214 C213 1.368 . S
C214 C215 1.386 . S
C214 H237 0.929 . S
C215 C214 1.386 . S
C215 C216 1.373 . S
C216 C215 1.373 . S
C216 C217 1.409 . S
C216 H238 0.931 . S
C217 C212 1.356 . S
C217 C216 1.409 . S
C217 H239 0.930 . S
C218 O228 1.270 . S
C218 O229 1.248 . S
C219 O230 1.267 . S
C219 O231 1.278 . S
O220 Pr200 2.562 . S
O220 C202 1.254 . S
O221 Pr200 2.490 . S
O221 C202 1.225 . S
O222 Pr200 2.695 1_554 S
O222 Pr201 2.436 . S
O222 C209 1.270 . S
O223 Pr200 2.512 1_554 S
O223 C209 1.248 . S
O224 Pr201 2.438 . S
O224 C210 1.267 . S
O225 Pr200 2.437 . S
O225 C210 1.278 1_556 S
O226 Pr201 2.562 . S
O226 C211 1.254 . S
O227 Pr201 2.490 . S
O227 C211 1.225 . S
O228 Pr200 2.436 1_554 S
O228 Pr201 2.695 . S
O228 C218 1.270 . S
O229 Pr201 2.512 . S
O229 C218 1.248 . S
O230 Pr200 2.438 1_554 S
O230 C219 1.267 . S
O231 Pr201 2.437 . S
O231 C219 1.278 . S
H232 C204 0.929 . S
H233 C205 0.929 . S
H234 C207 0.931 . S
H235 C208 0.930 . S
H236 C213 0.929 . S
H237 C214 0.929 . S
H238 C216 0.931 . S
H239 C217 0.930 . S
Pr240 C242 2.880 . S
Pr240 O260 2.562 . S
Pr240 O261 2.490 . S
Pr240 O262 2.695 . S
Pr240 O263 2.512 . S
Pr240 O265 2.437 . S
Pr240 O268 2.436 . S
Pr240 O270 2.438 . S
Pr241 C251 2.880 . S
Pr241 O262 2.436 . S
Pr241 O264 2.438 . S
Pr241 O266 2.562 . S
Pr241 O267 2.490 . S
Pr241 O268 2.695 . S
Pr241 O269 2.512 . S
Pr241 O271 2.437 . S
C242 Pr240 2.880 . S
C242 C243 1.491 . S
C242 O260 1.254 . S
C242 O261 1.225 . S
C243 C242 1.491 . S
C243 C244 1.392 . S
C243 C248 1.356 . S
C244 C243 1.392 . S
C244 C245 1.368 . S
C244 H272 0.929 . S
C245 C244 1.368 . S
C245 C246 1.386 . S
C245 H273 0.929 . S
C246 C245 1.386 . S
C246 C247 1.373 . S
C247 C246 1.373 . S
C247 C248 1.409 . S
C247 H274 0.931 . S
C248 C243 1.356 . S
C248 C247 1.409 . S
C248 H275 0.930 . S
C249 O262 1.270 . S
C249 O263 1.248 . S
C250 O264 1.267 . S
C250 O265 1.278 . S
C251 Pr241 2.880 . S
C251 C252 1.491 . S
C251 O266 1.254 . S
C251 O267 1.225 . S
C252 C251 1.491 . S
C252 C253 1.392 . S
C252 C257 1.356 . S
C253 C252 1.392 . S
C253 C254 1.368 . S
C253 H276 0.929 . S
C254 C253 1.368 . S
C254 C255 1.386 . S
C254 H277 0.929 . S
C255 C254 1.386 . S
C255 C256 1.373 . S
C256 C255 1.373 . S
C256 C257 1.409 . S
C256 H278 0.931 . S
C257 C252 1.356 . S
C257 C256 1.409 . S
C257 H279 0.930 . S
C258 O268 1.270 . S
C258 O269 1.248 . S
C259 O270 1.267 . S
C259 O271 1.278 . S
O260 Pr240 2.562 . S
O260 C242 1.254 . S
O261 Pr240 2.490 . S
O261 C242 1.225 . S
O262 Pr240 2.695 . S
O262 Pr241 2.436 . S
O262 C249 1.270 . S
O263 Pr240 2.512 . S
O263 C249 1.248 . S
O264 Pr241 2.438 . S
O264 C250 1.267 . S
O265 Pr240 2.437 . S
O265 C250 1.278 . S
O266 Pr241 2.562 . S
O266 C251 1.254 . S
O267 Pr241 2.490 . S
O267 C251 1.225 . S
O268 Pr240 2.436 . S
O268 Pr241 2.695 . S
O268 C258 1.270 . S
O269 Pr241 2.512 . S
O269 C258 1.248 . S
O270 Pr240 2.438 . S
O270 C259 1.267 . S
O271 Pr241 2.437 . S
O271 C259 1.278 . S
H272 C244 0.929 . S
H273 C245 0.929 . S
H274 C247 0.931 . S
H275 C248 0.930 . S
H276 C253 0.929 . S
H277 C254 0.929 . S
H278 C256 0.931 . S
H279 C257 0.930 . S
Pr280 C282 2.880 . S
Pr280 O300 2.562 . S
Pr280 O301 2.490 . S
Pr280 O302 2.695 . S
Pr280 O303 2.512 . S
Pr280 O305 2.437 . S
Pr280 O308 2.436 . S
Pr280 O310 2.438 . S
Pr281 C291 2.880 . S
Pr281 O302 2.436 . S
Pr281 O304 2.438 . S
Pr281 O306 2.562 . S
Pr281 O307 2.490 . S
Pr281 O308 2.695 . S
Pr281 O309 2.512 . S
Pr281 O311 2.437 . S
C282 Pr280 2.880 . S
C282 C283 1.491 . S
C282 O300 1.254 . S
C282 O301 1.225 . S
C283 C282 1.491 . S
C283 C284 1.392 . S
C283 C288 1.356 . S
C284 C283 1.392 . S
C284 C285 1.368 . S
C284 H312 0.929 . S
C285 C284 1.368 . S
C285 C286 1.386 . S
C285 H313 0.929 . S
C286 C285 1.386 . S
C286 C287 1.373 . S
C287 C286 1.373 . S
C287 C288 1.409 . S
C287 H314 0.931 . S
C288 C283 1.356 . S
C288 C287 1.409 . S
C288 H315 0.930 . S
C289 O302 1.270 . S
C289 O303 1.248 . S
C290 O304 1.267 . S
C290 O305 1.278 . S
C291 Pr281 2.880 . S
C291 C292 1.491 . S
C291 O306 1.254 . S
C291 O307 1.225 . S
C292 C291 1.491 . S
C292 C293 1.392 . S
C292 C297 1.356 . S
C293 C292 1.392 . S
C293 C294 1.368 . S
C293 H316 0.929 . S
C294 C293 1.368 . S
C294 C295 1.386 . S
C294 H317 0.929 . S
C295 C294 1.386 . S
C295 C296 1.373 . S
C296 C295 1.373 . S
C296 C297 1.409 . S
C296 H318 0.931 . S
C297 C292 1.356 . S
C297 C296 1.409 . S
C297 H319 0.930 . S
C298 O308 1.270 . S
C298 O309 1.248 . S
C299 O310 1.267 . S
C299 O311 1.278 . S
O300 Pr280 2.562 . S
O300 C282 1.254 . S
O301 Pr280 2.490 . S
O301 C282 1.225 . S
O302 Pr280 2.695 . S
O302 Pr281 2.436 . S
O302 C289 1.270 . S
O303 Pr280 2.512 . S
O303 C289 1.248 . S
O304 Pr281 2.438 . S
O304 C290 1.267 . S
O305 Pr280 2.437 . S
O305 C290 1.278 . S
O306 Pr281 2.562 . S
O306 C291 1.254 . S
O307 Pr281 2.490 . S
O307 C291 1.225 . S
O308 Pr280 2.436 . S
O308 Pr281 2.695 . S
O308 C298 1.270 . S
O309 Pr281 2.512 . S
O309 C298 1.248 . S
O310 Pr280 2.438 . S
O310 C299 1.267 . S
O311 Pr281 2.437 . S
O311 C299 1.278 . S
H312 C284 0.929 . S
H313 C285 0.929 . S
H314 C287 0.931 . S
H315 C288 0.930 . S
H316 C293 0.929 . S
H317 C294 0.929 . S
H318 C296 0.931 . S
H319 C297 0.930 . S
Pr320 C322 2.880 . S
Pr320 O340 2.562 . S
Pr320 O341 2.490 . S
Pr320 O342 2.695 . S
Pr320 O343 2.512 . S
Pr320 O345 2.437 . S
Pr320 O348 2.436 . S
Pr320 O350 2.438 . S
Pr321 C331 2.880 . S
Pr321 O342 2.436 1_554 S
Pr321 O344 2.438 1_554 S
Pr321 O346 2.562 . S
Pr321 O347 2.490 . S
Pr321 O348 2.695 1_554 S
Pr321 O349 2.512 1_554 S
Pr321 O351 2.437 . S
C322 Pr320 2.880 . S
C322 C323 1.491 . S
C322 O340 1.254 . S
C322 O341 1.225 . S
C323 C322 1.491 . S
C323 C324 1.392 . S
C323 C328 1.356 . S
C324 C323 1.392 . S
C324 C325 1.368 . S
C324 H352 0.929 . S
C325 C324 1.368 . S
C325 C326 1.386 . S
C325 H353 0.929 . S
C326 C325 1.386 . S
C326 C327 1.373 . S
C327 C326 1.373 . S
C327 C328 1.409 . S
C327 H354 0.931 . S
C328 C323 1.356 . S
C328 C327 1.409 . S
C328 H355 0.930 . S
C329 O342 1.270 . S
C329 O343 1.248 . S
C330 O344 1.267 . S
C330 O345 1.278 . S
C331 Pr321 2.880 . S
C331 C332 1.491 . S
C331 O346 1.254 . S
C331 O347 1.225 . S
C332 C331 1.491 . S
C332 C333 1.392 . S
C332 C337 1.356 . S
C333 C332 1.392 . S
C333 C334 1.368 . S
C333 H356 0.929 . S
C334 C333 1.368 . S
C334 C335 1.386 . S
C334 H357 0.929 . S
C335 C334 1.386 . S
C335 C336 1.373 . S
C336 C335 1.373 . S
C336 C337 1.409 . S
C336 H358 0.931 . S
C337 C332 1.356 . S
C337 C336 1.409 . S
C337 H359 0.930 . S
C338 O348 1.270 . S
C338 O349 1.248 . S
C339 O350 1.267 . S
C339 O351 1.278 1_556 S
O340 Pr320 2.562 . S
O340 C322 1.254 . S
O341 Pr320 2.490 . S
O341 C322 1.225 . S
O342 Pr320 2.695 . S
O342 Pr321 2.436 1_556 S
O342 C329 1.270 . S
O343 Pr320 2.512 . S
O343 C329 1.248 . S
O344 Pr321 2.438 1_556 S
O344 C330 1.267 . S
O345 Pr320 2.437 . S
O345 C330 1.278 . S
O346 Pr321 2.562 . S
O346 C331 1.254 . S
O347 Pr321 2.490 . S
O347 C331 1.225 . S
O348 Pr320 2.436 . S
O348 Pr321 2.695 1_556 S
O348 C338 1.270 . S
O349 Pr321 2.512 1_556 S
O349 C338 1.248 . S
O350 Pr320 2.438 . S
O350 C339 1.267 . S
O351 Pr321 2.437 . S
O351 C339 1.278 1_554 S
H352 C324 0.929 . S
H353 C325 0.929 . S
H354 C327 0.931 . S
H355 C328 0.930 . S
H356 C333 0.929 . S
H357 C334 0.929 . S
H358 C336 0.931 . S
H359 C337 0.930 . S
Pr360 C362 2.880 . S
Pr360 O380 2.562 . S
Pr360 O381 2.490 . S
Pr360 O382 2.695 . S
Pr360 O383 2.512 . S
Pr360 O385 2.437 . S
Pr360 O388 2.436 . S
Pr360 O390 2.438 . S
Pr361 C371 2.880 . S
Pr361 O382 2.436 . S
Pr361 O384 2.438 . S
Pr361 O386 2.562 . S
Pr361 O387 2.490 . S
Pr361 O388 2.695 . S
Pr361 O389 2.512 . S
Pr361 O391 2.437 . S
C362 Pr360 2.880 . S
C362 C363 1.491 . S
C362 O380 1.254 . S
C362 O381 1.225 . S
C363 C362 1.491 . S
C363 C364 1.392 . S
C363 C368 1.356 . S
C364 C363 1.392 . S
C364 C365 1.368 . S
C364 H392 0.929 . S
C365 C364 1.368 . S
C365 C366 1.386 . S
C365 H393 0.929 . S
C366 C365 1.386 . S
C366 C367 1.373 . S
C367 C366 1.373 . S
C367 C368 1.409 . S
C367 H394 0.931 . S
C368 C363 1.356 . S
C368 C367 1.409 . S
C368 H395 0.930 . S
C369 O382 1.270 . S
C369 O383 1.248 . S
C370 O384 1.267 . S
C370 O385 1.278 . S
C371 Pr361 2.880 . S
C371 C372 1.491 . S
C371 O386 1.254 . S
C371 O387 1.225 . S
C372 C371 1.491 . S
C372 C373 1.392 . S
C372 C377 1.356 . S
C373 C372 1.392 . S
C373 C374 1.368 . S
C373 H396 0.929 . S
C374 C373 1.368 . S
C374 C375 1.386 . S
C374 H397 0.929 . S
C375 C374 1.386 . S
C375 C376 1.373 . S
C376 C375 1.373 . S
C376 C377 1.409 . S
C376 H398 0.931 . S
C377 C372 1.356 . S
C377 C376 1.409 . S
C377 H399 0.930 . S
C378 O388 1.270 . S
C378 O389 1.248 . S
C379 O390 1.267 . S
C379 O391 1.278 . S
O380 Pr360 2.562 . S
O380 C362 1.254 . S
O381 Pr360 2.490 . S
O381 C362 1.225 . S
O382 Pr360 2.695 . S
O382 Pr361 2.436 . S
O382 C369 1.270 . S
O383 Pr360 2.512 . S
O383 C369 1.248 . S
O384 Pr361 2.438 . S
O384 C370 1.267 . S
O385 Pr360 2.437 . S
O385 C370 1.278 . S
O386 Pr361 2.562 . S
O386 C371 1.254 . S
O387 Pr361 2.490 . S
O387 C371 1.225 . S
O388 Pr360 2.436 . S
O388 Pr361 2.695 . S
O388 C378 1.270 . S
O389 Pr361 2.512 . S
O389 C378 1.248 . S
O390 Pr360 2.438 . S
O390 C379 1.267 . S
O391 Pr361 2.437 . S
O391 C379 1.278 . S
H392 C364 0.929 . S
H393 C365 0.929 . S
H394 C367 0.931 . S
H395 C368 0.930 . S
H396 C373 0.929 . S
H397 C374 0.929 . S
H398 C376 0.931 . S
H399 C377 0.930 . S
Pr400 C402 2.880 . S
Pr400 O420 2.562 . S
Pr400 O421 2.490 . S
Pr400 O422 2.695 . S
Pr400 O423 2.512 . S
Pr400 O425 2.437 . S
Pr400 O428 2.436 . S
Pr400 O430 2.438 . S
Pr401 C411 2.880 . S
Pr401 O422 2.436 . S
Pr401 O424 2.438 . S
Pr401 O426 2.562 . S
Pr401 O427 2.490 . S
Pr401 O428 2.695 . S
Pr401 O429 2.512 . S
Pr401 O431 2.437 . S
C402 Pr400 2.880 . S
C402 C403 1.491 . S
C402 O420 1.254 . S
C402 O421 1.225 . S
C403 C402 1.491 . S
C403 C404 1.392 . S
C403 C408 1.356 . S
C404 C403 1.392 . S
C404 C405 1.368 . S
C404 H432 0.929 . S
C405 C404 1.368 . S
C405 C406 1.386 . S
C405 H433 0.929 . S
C406 C405 1.386 . S
C406 C407 1.373 . S
C407 C406 1.373 . S
C407 C408 1.409 . S
C407 H434 0.931 . S
C408 C403 1.356 . S
C408 C407 1.409 . S
C408 H435 0.930 . S
C409 O422 1.270 . S
C409 O423 1.248 . S
C410 O424 1.267 . S
C410 O425 1.278 . S
C411 Pr401 2.880 . S
C411 C412 1.491 . S
C411 O426 1.254 . S
C411 O427 1.225 . S
C412 C411 1.491 . S
C412 C413 1.392 . S
C412 C417 1.356 . S
C413 C412 1.392 . S
C413 C414 1.368 . S
C413 H436 0.929 . S
C414 C413 1.368 . S
C414 C415 1.386 . S
C414 H437 0.929 . S
C415 C414 1.386 . S
C415 C416 1.373 . S
C416 C415 1.373 . S
C416 C417 1.409 . S
C416 H438 0.931 . S
C417 C412 1.356 . S
C417 C416 1.409 . S
C417 H439 0.930 . S
C418 O428 1.270 . S
C418 O429 1.248 . S
C419 O430 1.267 . S
C419 O431 1.278 . S
O420 Pr400 2.562 . S
O420 C402 1.254 . S
O421 Pr400 2.490 . S
O421 C402 1.225 . S
O422 Pr400 2.695 . S
O422 Pr401 2.436 . S
O422 C409 1.270 . S
O423 Pr400 2.512 . S
O423 C409 1.248 . S
O424 Pr401 2.438 . S
O424 C410 1.267 . S
O425 Pr400 2.437 . S
O425 C410 1.278 . S
O426 Pr401 2.562 . S
O426 C411 1.254 . S
O427 Pr401 2.490 . S
O427 C411 1.225 . S
O428 Pr400 2.436 . S
O428 Pr401 2.695 . S
O428 C418 1.270 . S
O429 Pr401 2.512 . S
O429 C418 1.248 . S
O430 Pr400 2.438 . S
O430 C419 1.267 . S
O431 Pr401 2.437 . S
O431 C419 1.278 . S
H432 C404 0.929 . S
H433 C405 0.929 . S
H434 C407 0.931 . S
H435 C408 0.930 . S
H436 C413 0.929 . S
H437 C414 0.929 . S
H438 C416 0.931 . S
H439 C417 0.930 . S
Pr440 C442 2.880 . S
Pr440 O460 2.562 . S
Pr440 O461 2.490 . S
Pr440 O462 2.695 . S
Pr440 O463 2.512 . S
Pr440 O465 2.437 . S
Pr440 O468 2.436 . S
Pr440 O470 2.438 . S
Pr441 C451 2.880 . S
Pr441 O462 2.436 1_556 S
Pr441 O464 2.438 1_556 S
Pr441 O466 2.562 . S
Pr441 O467 2.490 . S
Pr441 O468 2.695 1_556 S
Pr441 O469 2.512 1_556 S
Pr441 O471 2.437 . S
C442 Pr440 2.880 . S
C442 C443 1.491 . S
C442 O460 1.254 . S
C442 O461 1.225 . S
C443 C442 1.491 . S
C443 C444 1.392 . S
C443 C448 1.356 . S
C444 C443 1.392 . S
C444 C445 1.368 . S
C444 H472 0.929 . S
C445 C444 1.368 . S
C445 C446 1.386 . S
C445 H473 0.929 . S
C446 C445 1.386 . S
C446 C447 1.373 . S
C447 C446 1.373 . S
C447 C448 1.409 . S
C447 H474 0.931 . S
C448 C443 1.356 . S
C448 C447 1.409 . S
C448 H475 0.930 . S
C449 O462 1.270 . S
C449 O463 1.248 . S
C450 O464 1.267 . S
C450 O465 1.278 . S
C451 Pr441 2.880 . S
C451 C452 1.491 . S
C451 O466 1.254 . S
C451 O467 1.225 . S
C452 C451 1.491 . S
C452 C453 1.392 . S
C452 C457 1.356 . S
C453 C452 1.392 . S
C453 C454 1.368 . S
C453 H476 0.929 . S
C454 C453 1.368 . S
C454 C455 1.386 . S
C454 H477 0.929 . S
C455 C454 1.386 . S
C455 C456 1.373 . S
C456 C455 1.373 . S
C456 C457 1.409 . S
C456 H478 0.931 . S
C457 C452 1.356 . S
C457 C456 1.409 . S
C457 H479 0.930 . S
C458 O468 1.270 . S
C458 O469 1.248 . S
C459 O470 1.267 . S
C459 O471 1.278 1_554 S
O460 Pr440 2.562 . S
O460 C442 1.254 . S
O461 Pr440 2.490 . S
O461 C442 1.225 . S
O462 Pr440 2.695 . S
O462 Pr441 2.436 1_554 S
O462 C449 1.270 . S
O463 Pr440 2.512 . S
O463 C449 1.248 . S
O464 Pr441 2.438 1_554 S
O464 C450 1.267 . S
O465 Pr440 2.437 . S
O465 C450 1.278 . S
O466 Pr441 2.562 . S
O466 C451 1.254 . S
O467 Pr441 2.490 . S
O467 C451 1.225 . S
O468 Pr440 2.436 . S
O468 Pr441 2.695 1_554 S
O468 C458 1.270 . S
O469 Pr441 2.512 1_554 S
O469 C458 1.248 . S
O470 Pr440 2.438 . S
O470 C459 1.267 . S
O471 Pr441 2.437 . S
O471 C459 1.278 1_556 S
H472 C444 0.929 . S
H473 C445 0.929 . S
H474 C447 0.931 . S
H475 C448 0.930 . S
H476 C453 0.929 . S
H477 C454 0.929 . S
H478 C456 0.931 . S
H479 C457 0.930 . S
Pr480 C482 2.880 . S
Pr480 O500 2.562 . S
Pr480 O501 2.490 . S
Pr480 O502 2.695 . S
Pr480 O503 2.512 . S
Pr480 O505 2.437 . S
Pr480 O508 2.436 . S
Pr480 O510 2.438 . S
Pr481 C491 2.880 . S
Pr481 O502 2.436 1_556 S
Pr481 O504 2.438 1_556 S
Pr481 O506 2.562 . S
Pr481 O507 2.490 . S
Pr481 O508 2.695 1_556 S
Pr481 O509 2.512 1_556 S
Pr481 O511 2.437 . S
C482 Pr480 2.880 . S
C482 C483 1.491 . S
C482 O500 1.254 . S
C482 O501 1.225 . S
C483 C482 1.491 . S
C483 C484 1.392 . S
C483 C488 1.356 . S
C484 C483 1.392 . S
C484 C485 1.368 . S
C484 H512 0.929 . S
C485 C484 1.368 . S
C485 C486 1.386 . S
C485 H513 0.929 . S
C486 C485 1.386 . S
C486 C487 1.373 . S
C487 C486 1.373 . S
C487 C488 1.409 . S
C487 H514 0.931 . S
C488 C483 1.356 . S
C488 C487 1.409 . S
C488 H515 0.930 . S
C489 O502 1.270 . S
C489 O503 1.248 . S
C490 O504 1.267 . S
C490 O505 1.278 . S
C491 Pr481 2.880 . S
C491 C492 1.491 . S
C491 O506 1.254 . S
C491 O507 1.225 . S
C492 C491 1.491 . S
C492 C493 1.392 . S
C492 C497 1.356 . S
C493 C492 1.392 . S
C493 C494 1.368 . S
C493 H516 0.929 . S
C494 C493 1.368 . S
C494 C495 1.386 . S
C494 H517 0.929 . S
C495 C494 1.386 . S
C495 C496 1.373 . S
C496 C495 1.373 . S
C496 C497 1.409 . S
C496 H518 0.931 . S
C497 C492 1.356 . S
C497 C496 1.409 . S
C497 H519 0.930 . S
C498 O508 1.270 . S
C498 O509 1.248 . S
C499 O510 1.267 . S
C499 O511 1.278 1_554 S
O500 Pr480 2.562 . S
O500 C482 1.254 . S
O501 Pr480 2.490 . S
O501 C482 1.225 . S
O502 Pr480 2.695 . S
O502 Pr481 2.436 1_554 S
O502 C489 1.270 . S
O503 Pr480 2.512 . S
O503 C489 1.248 . S
O504 Pr481 2.438 1_554 S
O504 C490 1.267 . S
O505 Pr480 2.437 . S
O505 C490 1.278 . S
O506 Pr481 2.562 . S
O506 C491 1.254 . S
O507 Pr481 2.490 . S
O507 C491 1.225 . S
O508 Pr480 2.436 . S
O508 Pr481 2.695 1_554 S
O508 C498 1.270 . S
O509 Pr481 2.512 1_554 S
O509 C498 1.248 . S
O510 Pr480 2.438 . S
O510 C499 1.267 . S
O511 Pr481 2.437 . S
O511 C499 1.278 1_556 S
H512 C484 0.929 . S
H513 C485 0.929 . S
H514 C487 0.931 . S
H515 C488 0.930 . S
H516 C493 0.929 . S
H517 C494 0.929 . S
H518 C496 0.931 . S
H519 C497 0.930 . S
Pr520 C522 2.880 . S
Pr520 O540 2.562 . S
Pr520 O541 2.490 . S
Pr520 O542 2.695 . S
Pr520 O543 2.512 . S
Pr520 O545 2.437 . S
Pr520 O548 2.436 . S
Pr520 O550 2.438 . S
Pr521 C531 2.880 . S
Pr521 O542 2.436 1_554 S
Pr521 O544 2.438 1_554 S
Pr521 O546 2.562 . S
Pr521 O547 2.490 . S
Pr521 O548 2.695 1_554 S
Pr521 O549 2.512 1_554 S
Pr521 O551 2.437 . S
C522 Pr520 2.880 . S
C522 C523 1.491 . S
C522 O540 1.254 . S
C522 O541 1.225 . S
C523 C522 1.491 . S
C523 C524 1.392 . S
C523 C528 1.356 . S
C524 C523 1.392 . S
C524 C525 1.368 . S
C524 H552 0.929 . S
C525 C524 1.368 . S
C525 C526 1.386 . S
C525 H553 0.929 . S
C526 C525 1.386 . S
C526 C527 1.373 . S
C527 C526 1.373 . S
C527 C528 1.409 . S
C527 H554 0.931 . S
C528 C523 1.356 . S
C528 C527 1.409 . S
C528 H555 0.930 . S
C529 O542 1.270 . S
C529 O543 1.248 . S
C530 O544 1.267 . S
C530 O545 1.278 . S
C531 Pr521 2.880 . S
C531 C532 1.491 . S
C531 O546 1.254 . S
C531 O547 1.225 . S
C532 C531 1.491 . S
C532 C533 1.392 . S
C532 C537 1.356 . S
C533 C532 1.392 . S
C533 C534 1.368 . S
C533 H556 0.929 . S
C534 C533 1.368 . S
C534 C535 1.386 . S
C534 H557 0.929 . S
C535 C534 1.386 . S
C535 C536 1.373 . S
C536 C535 1.373 . S
C536 C537 1.409 . S
C536 H558 0.931 . S
C537 C532 1.356 . S
C537 C536 1.409 . S
C537 H559 0.930 . S
C538 O548 1.270 . S
C538 O549 1.248 . S
C539 O550 1.267 . S
C539 O551 1.278 1_556 S
O540 Pr520 2.562 . S
O540 C522 1.254 . S
O541 Pr520 2.490 . S
O541 C522 1.225 . S
O542 Pr520 2.695 . S
O542 Pr521 2.436 1_556 S
O542 C529 1.270 . S
O543 Pr520 2.512 . S
O543 C529 1.248 . S
O544 Pr521 2.438 1_556 S
O544 C530 1.267 . S
O545 Pr520 2.437 . S
O545 C530 1.278 . S
O546 Pr521 2.562 . S
O546 C531 1.254 . S
O547 Pr521 2.490 . S
O547 C531 1.225 . S
O548 Pr520 2.436 . S
O548 Pr521 2.695 1_556 S
O548 C538 1.270 . S
O549 Pr521 2.512 1_556 S
O549 C538 1.248 . S
O550 Pr520 2.438 . S
O550 C539 1.267 . S
O551 Pr521 2.437 . S
O551 C539 1.278 1_554 S
H552 C524 0.929 . S
H553 C525 0.929 . S
H554 C527 0.931 . S
H555 C528 0.930 . S
H556 C533 0.929 . S
H557 C534 0.929 . S
H558 C536 0.931 . S
H559 C537 0.930 . S
Pr560 C562 2.880 . S
Pr560 O580 2.562 . S
Pr560 O581 2.490 . S
Pr560 O582 2.695 . S
Pr560 O583 2.512 . S
Pr560 O585 2.437 . S
Pr560 O588 2.436 . S
Pr560 O590 2.438 . S
Pr561 C571 2.880 . S
Pr561 O582 2.436 . S
Pr561 O584 2.438 . S
Pr561 O586 2.562 . S
Pr561 O587 2.490 . S
Pr561 O588 2.695 . S
Pr561 O589 2.512 . S
Pr561 O591 2.437 . S
C562 Pr560 2.880 . S
C562 C563 1.491 . S
C562 O580 1.254 . S
C562 O581 1.225 . S
C563 C562 1.491 . S
C563 C564 1.392 . S
C563 C568 1.356 . S
C564 C563 1.392 . S
C564 C565 1.368 . S
C564 H592 0.929 . S
C565 C564 1.368 . S
C565 C566 1.386 . S
C565 H593 0.929 . S
C566 C565 1.386 . S
C566 C567 1.373 . S
C567 C566 1.373 . S
C567 C568 1.409 . S
C567 H594 0.931 . S
C568 C563 1.356 . S
C568 C567 1.409 . S
C568 H595 0.930 . S
C569 O582 1.270 . S
C569 O583 1.248 . S
C570 O584 1.267 . S
C570 O585 1.278 . S
C571 Pr561 2.880 . S
C571 C572 1.491 . S
C571 O586 1.254 . S
C571 O587 1.225 . S
C572 C571 1.491 . S
C572 C573 1.392 . S
C572 C577 1.356 . S
C573 C572 1.392 . S
C573 C574 1.368 . S
C573 H596 0.929 . S
C574 C573 1.368 . S
C574 C575 1.386 . S
C574 H597 0.929 . S
C575 C574 1.386 . S
C575 C576 1.373 . S
C576 C575 1.373 . S
C576 C577 1.409 . S
C576 H598 0.931 . S
C577 C572 1.356 . S
C577 C576 1.409 . S
C577 H599 0.930 . S
C578 O588 1.270 . S
C578 O589 1.248 . S
C579 O590 1.267 . S
C579 O591 1.278 . S
O580 Pr560 2.562 . S
O580 C562 1.254 . S
O581 Pr560 2.490 . S
O581 C562 1.225 . S
O582 Pr560 2.695 . S
O582 Pr561 2.436 . S
O582 C569 1.270 . S
O583 Pr560 2.512 . S
O583 C569 1.248 . S
O584 Pr561 2.438 . S
O584 C570 1.267 . S
O585 Pr560 2.437 . S
O585 C570 1.278 . S
O586 Pr561 2.562 . S
O586 C571 1.254 . S
O587 Pr561 2.490 . S
O587 C571 1.225 . S
O588 Pr560 2.436 . S
O588 Pr561 2.695 . S
O588 C578 1.270 . S
O589 Pr561 2.512 . S
O589 C578 1.248 . S
O590 Pr560 2.438 . S
O590 C579 1.267 . S
O591 Pr561 2.437 . S
O591 C579 1.278 . S
H592 C564 0.929 . S
H593 C565 0.929 . S
H594 C567 0.931 . S
H595 C568 0.930 . S
H596 C573 0.929 . S
H597 C574 0.929 . S
H598 C576 0.931 . S
H599 C577 0.930 . S
Pr600 C602 2.880 . S
Pr600 O620 2.562 . S
Pr600 O621 2.490 . S
Pr600 O622 2.695 . S
Pr600 O623 2.512 . S
Pr600 O625 2.437 . S
Pr600 O628 2.436 . S
Pr600 O630 2.438 . S
Pr601 C611 2.880 . S
Pr601 O622 2.436 . S
Pr601 O624 2.438 . S
Pr601 O626 2.562 . S
Pr601 O627 2.490 . S
Pr601 O628 2.695 . S
Pr601 O629 2.512 . S
Pr601 O631 2.437 . S
C602 Pr600 2.880 . S
C602 C603 1.491 . S
C602 O620 1.254 . S
C602 O621 1.225 . S
C603 C602 1.491 . S
C603 C604 1.392 . S
C603 C608 1.356 . S
C604 C603 1.392 . S
C604 C605 1.368 . S
C604 H632 0.929 . S
C605 C604 1.368 . S
C605 C606 1.386 . S
C605 H633 0.929 . S
C606 C605 1.386 . S
C606 C607 1.373 . S
C607 C606 1.373 . S
C607 C608 1.409 . S
C607 H634 0.931 . S
C608 C603 1.356 . S
C608 C607 1.409 . S
C608 H635 0.930 . S
C609 O622 1.270 . S
C609 O623 1.248 . S
C610 O624 1.267 . S
C610 O625 1.278 . S
C611 Pr601 2.880 . S
C611 C612 1.491 . S
C611 O626 1.254 . S
C611 O627 1.225 . S
C612 C611 1.491 . S
C612 C613 1.392 . S
C612 C617 1.356 . S
C613 C612 1.392 . S
C613 C614 1.368 . S
C613 H636 0.929 . S
C614 C613 1.368 . S
C614 C615 1.386 . S
C614 H637 0.929 . S
C615 C614 1.386 . S
C615 C616 1.373 . S
C616 C615 1.373 . S
C616 C617 1.409 . S
C616 H638 0.931 . S
C617 C612 1.356 . S
C617 C616 1.409 . S
C617 H639 0.930 . S
C618 O628 1.270 . S
C618 O629 1.248 . S
C619 O630 1.267 . S
C619 O631 1.278 . S
O620 Pr600 2.562 . S
O620 C602 1.254 . S
O621 Pr600 2.490 . S
O621 C602 1.225 . S
O622 Pr600 2.695 . S
O622 Pr601 2.436 . S
O622 C609 1.270 . S
O623 Pr600 2.512 . S
O623 C609 1.248 . S
O624 Pr601 2.438 . S
O624 C610 1.267 . S
O625 Pr600 2.437 . S
O625 C610 1.278 . S
O626 Pr601 2.562 . S
O626 C611 1.254 . S
O627 Pr601 2.490 . S
O627 C611 1.225 . S
O628 Pr600 2.436 . S
O628 Pr601 2.695 . S
O628 C618 1.270 . S
O629 Pr601 2.512 . S
O629 C618 1.248 . S
O630 Pr600 2.438 . S
O630 C619 1.267 . S
O631 Pr601 2.437 . S
O631 C619 1.278 . S
H632 C604 0.929 . S
H633 C605 0.929 . S
H634 C607 0.931 . S
H635 C608 0.930 . S
H636 C613 0.929 . S
H637 C614 0.929 . S
H638 C616 0.931 . S
H639 C617 0.930 . S
C640 C641 1.349 . S
C640 C642 1.327 . S
C640 H665 0.950 . S
C641 C640 1.349 . S
C641 C657 1.349 . S
C642 C640 1.327 . S
C642 C661 1.429 . S
C642 H666 0.950 . S
C643 C660 1.574 . S
C643 C662 1.368 . S
C643 H667 0.949 . S
H644 C648 0.949 . S
C645 C646 1.349 . S
C645 C647 1.327 . S
C645 H668 0.950 . S
C646 C645 1.349 . S
C646 C658 1.349 . S
C647 C645 1.327 . S
C647 C663 1.429 . S
C647 H669 0.950 . S
C648 H644 0.949 . S
C648 C656 1.574 . S
C648 C664 1.368 . S
H649 C657 0.950 . S
H650 C655 0.950 . S
H651 C656 0.949 . S
H652 C658 0.950 . S
H653 C659 0.950 . S
H654 C660 0.949 . S
C655 H650 0.950 . S
C655 C657 1.327 . S
C655 C661 1.429 . S
C656 C648 1.574 . S
C656 H651 0.949 . S
C656 C662 1.368 . S
C657 C641 1.349 . S
C657 H649 0.950 . S
C657 C655 1.327 . S
C658 C646 1.349 . S
C658 H652 0.950 . S
C658 C659 1.327 . S
C659 H653 0.950 . S
C659 C658 1.327 . S
C659 C663 1.429 . S
C660 C643 1.574 . S
C660 H654 0.949 . S
C660 C664 1.368 . S
C661 C642 1.429 . S
C661 C655 1.429 . S
C661 C662 1.523 . S
C662 C643 1.368 . S
C662 C656 1.368 . S
C662 C661 1.523 . S
C663 C647 1.429 . S
C663 C659 1.429 . S
C663 C664 1.523 . S
C664 C648 1.368 . S
C664 C660 1.368 . S
C664 C663 1.523 . S
H665 C640 0.950 . S
H666 C642 0.950 . S
H667 C643 0.949 . S
H668 C645 0.950 . S
H669 C647 0.950 . S
C670 C671 1.349 . S
C670 C672 1.327 . S
C670 H695 0.950 . S
C671 C670 1.349 . S
C671 C687 1.349 . S
C672 C670 1.327 . S
C672 C691 1.429 . S
C672 H696 0.950 . S
C673 C690 1.574 . S
C673 C692 1.368 . S
C673 H697 0.966 . S
H674 C678 0.949 . S
C675 C676 1.349 . S
C675 C677 1.327 . S
C675 H698 0.950 . S
C676 C675 1.349 . S
C676 C688 1.349 . S
C677 C675 1.327 . S
C677 C693 1.429 . S
C677 H699 0.950 . S
C678 H674 0.949 . S
C678 C686 1.574 . S
C678 C694 1.368 . S
H679 C687 0.950 . S
H680 C685 0.950 . S
H681 C686 0.949 . S
H682 C688 0.950 . S
H683 C689 0.950 . S
H684 C690 0.949 . S
C685 H680 0.950 . S
C685 C687 1.327 . S
C685 C691 1.429 . S
C686 C678 1.574 . S
C686 H681 0.949 . S
C686 C692 1.368 . S
C687 C671 1.349 . S
C687 H679 0.950 . S
C687 C685 1.327 . S
C688 C676 1.349 . S
C688 H682 0.950 . S
C688 C689 1.327 . S
C689 H683 0.950 . S
C689 C688 1.327 . S
C689 C693 1.429 . S
C690 C673 1.574 . S
C690 H684 0.949 . S
C690 C694 1.368 . S
C691 C672 1.429 . S
C691 C685 1.429 . S
C691 C692 1.523 1_554 S
C692 C673 1.368 . S
C692 C686 1.368 . S
C692 C691 1.523 1_556 S
C693 C677 1.429 . S
C693 C689 1.429 . S
C693 C694 1.523 . S
C694 C678 1.368 . S
C694 C690 1.368 . S
C694 C693 1.523 . S
H695 C670 0.950 . S
H696 C672 0.950 . S
H697 C673 0.966 . S
H698 C675 0.950 . S
H699 C677 0.950 . S
C700 C701 1.349 . S
C700 C702 1.327 . S
C700 H725 0.950 . S
C701 C700 1.349 . S
C701 C717 1.349 . S
C702 C700 1.327 . S
C702 C721 1.429 . S
C702 H726 0.950 . S
C703 C720 1.574 . S
C703 C722 1.368 . S
C703 H727 0.949 . S
H704 C708 0.954 . S
C705 C706 1.349 . S
C705 C707 1.327 . S
C705 H728 0.950 . S
C706 C705 1.349 . S
C706 C718 1.349 . S
C707 C705 1.327 . S
C707 C723 1.429 . S
C707 H729 0.950 . S
C708 H704 0.954 . S
C708 C716 1.574 . S
C708 C724 1.368 . S
H709 C717 0.950 . S
H710 C715 0.950 . S
H711 C716 0.949 . S
H712 C718 0.950 . S
H713 C719 0.950 . S
H714 C720 0.949 . S
C715 H710 0.950 . S
C715 C717 1.327 . S
C715 C721 1.429 . S
C716 C708 1.574 . S
C716 H711 0.949 . S
C716 C722 1.368 . S
C717 C701 1.349 . S
C717 H709 0.950 . S
C717 C715 1.327 . S
C718 C706 1.349 . S
C718 H712 0.950 . S
C718 C719 1.327 . S
C719 H713 0.950 . S
C719 C718 1.327 . S
C719 C723 1.429 . S
C720 C703 1.574 . S
C720 H714 0.949 . S
C720 C724 1.368 . S
C721 C702 1.429 . S
C721 C715 1.429 . S
C721 C722 1.523 . S
C722 C703 1.368 . S
C722 C716 1.368 . S
C722 C721 1.523 . S
C723 C707 1.429 . S
C723 C719 1.429 . S
C723 C724 1.523 1_556 S
C724 C708 1.368 . S
C724 C720 1.368 . S
C724 C723 1.523 1_554 S
H725 C700 0.950 . S
H726 C702 0.950 . S
H727 C703 0.949 . S
H728 C705 0.950 . S
H729 C707 0.950 . S
C730 C731 1.349 . S
C730 C732 1.327 . S
C730 H755 0.950 . S
C731 C730 1.349 . S
C731 C747 1.349 . S
C732 C730 1.327 . S
C732 C751 1.429 . S
C732 H756 0.950 . S
C733 C750 1.574 . S
C733 C752 1.368 . S
C733 H757 0.949 . S
H734 C738 0.949 . S
C735 C736 1.349 . S
C735 C737 1.327 . S
C735 H758 0.950 . S
C736 C735 1.349 . S
C736 C748 1.349 . S
C737 C735 1.327 . S
C737 C753 1.429 . S
C737 H759 0.950 . S
C738 H734 0.949 . S
C738 C746 1.574 . S
C738 C754 1.368 . S
H739 C747 0.950 . S
H740 C745 0.950 . S
H741 C746 0.949 . S
H742 C748 0.950 . S
H743 C749 0.950 . S
H744 C750 0.949 . S
C745 H740 0.950 . S
C745 C747 1.327 . S
C745 C751 1.429 . S
C746 C738 1.574 . S
C746 H741 0.949 . S
C746 C752 1.368 . S
C747 C731 1.349 . S
C747 H739 0.950 . S
C747 C745 1.327 . S
C748 C736 1.349 . S
C748 H742 0.950 . S
C748 C749 1.327 . S
C749 H743 0.950 . S
C749 C748 1.327 . S
C749 C753 1.429 . S
C750 C733 1.574 . S
C750 H744 0.949 . S
C750 C754 1.368 . S
C751 C732 1.429 . S
C751 C745 1.429 . S
C751 C752 1.523 . S
C752 C733 1.368 . S
C752 C746 1.368 . S
C752 C751 1.523 . S
C753 C737 1.429 . S
C753 C749 1.429 . S
C753 C754 1.523 . S
C754 C738 1.368 . S
C754 C750 1.368 . S
C754 C753 1.523 . S
H755 C730 0.950 . S
H756 C732 0.950 . S
H757 C733 0.949 . S
H758 C735 0.950 . S
H759 C737 0.950 . S
C760 C761 1.349 . S
C760 C762 1.327 . S
C760 H785 0.950 . S
C761 C760 1.349 . S
C761 C777 1.349 . S
C762 C760 1.327 . S
C762 C781 1.429 . S
C762 H786 0.950 . S
C763 C780 1.574 . S
C763 C782 1.368 . S
C763 H787 0.949 . S
H764 C768 0.949 . S
C765 C766 1.349 . S
C765 C767 1.327 . S
C765 H788 0.950 . S
C766 C765 1.349 . S
C766 C778 1.349 . S
C767 C765 1.327 . S
C767 C783 1.429 . S
C767 H789 0.950 . S
C768 H764 0.949 . S
C768 C776 1.574 . S
C768 C784 1.368 . S
H769 C777 0.950 . S
H770 C775 0.950 . S
H771 C776 0.949 . S
H772 C778 0.950 . S
H773 C779 0.950 . S
H774 C780 0.949 . S
C775 H770 0.950 . S
C775 C777 1.327 . S
C775 C781 1.429 . S
C776 C768 1.574 . S
C776 H771 0.949 . S
C776 C782 1.368 . S
C777 C761 1.349 . S
C777 H769 0.950 . S
C777 C775 1.327 . S
C778 C766 1.349 . S
C778 H772 0.950 . S
C778 C779 1.327 . S
C779 H773 0.950 . S
C779 C778 1.327 . S
C779 C783 1.429 . S
C780 C763 1.574 . S
C780 H774 0.949 . S
C780 C784 1.368 . S
C781 C762 1.429 . S
C781 C775 1.429 . S
C781 C782 1.523 . S
C782 C763 1.368 . S
C782 C776 1.368 . S
C782 C781 1.523 . S
C783 C767 1.429 . S
C783 C779 1.429 . S
C783 C784 1.523 . S
C784 C768 1.368 . S
C784 C780 1.368 . S
C784 C783 1.523 . S
H785 C760 0.950 . S
H786 C762 0.950 . S
H787 C763 0.949 . S
H788 C765 0.950 . S
H789 C767 0.950 . S
C790 C791 1.349 . S
C790 C792 1.327 . S
C790 H815 0.950 . S
C791 C790 1.349 . S
C791 C807 1.349 . S
C792 C790 1.327 . S
C792 C811 1.429 . S
C792 H816 0.950 . S
C793 C810 1.574 . S
C793 C812 1.368 . S
C793 H817 0.949 . S
H794 C798 0.949 . S
C795 C796 1.349 . S
C795 C797 1.327 . S
C795 H818 0.950 . S
C796 C795 1.349 . S
C796 C808 1.349 . S
C797 C795 1.327 . S
C797 C813 1.429 . S
C797 H819 0.950 . S
C798 H794 0.949 . S
C798 C806 1.574 . S
C798 C814 1.368 . S
H799 C807 0.950 . S
H800 C805 0.950 . S
H801 C806 0.949 . S
H802 C808 0.950 . S
H803 C809 0.950 . S
H804 C810 0.949 . S
C805 H800 0.950 . S
C805 C807 1.327 . S
C805 C811 1.429 . S
C806 C798 1.574 . S
C806 H801 0.949 . S
C806 C812 1.368 . S
C807 C791 1.349 . S
C807 H799 0.950 . S
C807 C805 1.327 . S
C808 C796 1.349 . S
C808 H802 0.950 . S
C808 C809 1.327 . S
C809 H803 0.950 . S
C809 C808 1.327 . S
C809 C813 1.429 . S
C810 C793 1.574 . S
C810 H804 0.949 . S
C810 C814 1.368 . S
C811 C792 1.429 . S
C811 C805 1.429 . S
C811 C812 1.523 . S
C812 C793 1.368 . S
C812 C806 1.368 . S
C812 C811 1.523 . S
C813 C797 1.429 . S
C813 C809 1.429 . S
C813 C814 1.523 . S
C814 C798 1.368 . S
C814 C810 1.368 . S
C814 C813 1.523 . S
H815 C790 0.950 . S
H816 C792 0.950 . S
H817 C793 0.949 . S
H818 C795 0.950 . S
H819 C797 0.950 . S
C820 C821 1.349 . S
C820 C822 1.327 . S
C820 H845 0.950 . S
C821 C820 1.349 . S
C821 C837 1.349 . S
C822 C820 1.327 . S
C822 C841 1.429 . S
C822 H846 0.950 . S
C823 C840 1.574 . S
C823 C842 1.368 . S
C823 H847 0.949 . S
H824 C828 0.949 . S
C825 C826 1.349 . S
C825 C827 1.327 . S
C825 H848 0.950 . S
C826 C825 1.349 . S
C826 C838 1.349 . S
C827 C825 1.327 . S
C827 C843 1.429 . S
C827 H849 0.950 . S
C828 H824 0.949 . S
C828 C836 1.574 . S
C828 C844 1.368 . S
H829 C837 0.950 . S
H830 C835 0.950 . S
H831 C836 0.949 . S
H832 C838 0.950 . S
H833 C839 0.950 . S
H834 C840 0.953 . S
C835 H830 0.950 . S
C835 C837 1.327 . S
C835 C841 1.429 . S
C836 C828 1.574 . S
C836 H831 0.949 . S
C836 C842 1.368 . S
C837 C821 1.349 . S
C837 H829 0.950 . S
C837 C835 1.327 . S
C838 C826 1.349 . S
C838 H832 0.950 . S
C838 C839 1.327 . S
C839 H833 0.950 . S
C839 C838 1.327 . S
C839 C843 1.429 . S
C840 C823 1.574 . S
C840 H834 0.953 . S
C840 C844 1.368 . S
C841 C822 1.429 . S
C841 C835 1.429 . S
C841 C842 1.523 . S
C842 C823 1.368 . S
C842 C836 1.368 . S
C842 C841 1.523 . S
C843 C827 1.429 . S
C843 C839 1.429 . S
C843 C844 1.523 1_554 S
C844 C828 1.368 . S
C844 C840 1.368 . S
C844 C843 1.523 1_556 S
H845 C820 0.950 . S
H846 C822 0.950 . S
H847 C823 0.949 . S
H848 C825 0.950 . S
H849 C827 0.950 . S
C850 C851 1.349 . S
C850 C852 1.327 . S
C850 H875 0.950 . S
C851 C850 1.349 . S
C851 C867 1.349 . S
C852 C850 1.327 . S
C852 C871 1.429 . S
C852 H876 0.950 . S
C853 C870 1.574 . S
C853 C872 1.368 . S
C853 H877 0.949 . S
H854 C858 0.949 . S
C855 C856 1.349 . S
C855 C857 1.327 . S
C855 H878 0.950 . S
C856 C855 1.349 . S
C856 C868 1.349 . S
C857 C855 1.327 . S
C857 C873 1.429 . S
C857 H879 0.950 . S
C858 H854 0.949 . S
C858 C866 1.574 . S
C858 C874 1.368 . S
H859 C867 0.950 . S
H860 C865 0.950 . S
H861 C866 0.949 . S
H862 C868 0.950 . S
H863 C869 0.950 . S
H864 C870 0.949 . S
C865 H860 0.950 . S
C865 C867 1.327 . S
C865 C871 1.429 . S
C866 C858 1.574 . S
C866 H861 0.949 . S
C866 C872 1.368 . S
C867 C851 1.349 . S
C867 H859 0.950 . S
C867 C865 1.327 . S
C868 C856 1.349 . S
C868 H862 0.950 . S
C868 C869 1.327 . S
C869 H863 0.950 . S
C869 C868 1.327 . S
C869 C873 1.429 . S
C870 C853 1.574 . S
C870 H864 0.949 . S
C870 C874 1.368 . S
C871 C852 1.429 . S
C871 C865 1.429 . S
C871 C872 1.523 1_556 S
C872 C853 1.368 . S
C872 C866 1.368 . S
C872 C871 1.523 1_554 S
C873 C857 1.429 . S
C873 C869 1.429 . S
C873 C874 1.523 . S
C874 C858 1.368 . S
C874 C870 1.368 . S
C874 C873 1.523 . S
H875 C850 0.950 . S
H876 C852 0.950 . S
H877 C853 0.949 . S
H878 C855 0.950 . S
H879 C857 0.950 . S
C880 C881 1.349 . S
C880 C882 1.327 . S
C880 H905 0.950 . S
C881 C880 1.349 . S
C881 C897 1.349 . S
C882 C880 1.327 . S
C882 C901 1.429 . S
C882 H906 0.950 . S
C883 C900 1.574 . S
C883 C902 1.368 . S
C883 H907 0.949 . S
H884 C888 0.949 . S
C885 C886 1.349 . S
C885 C887 1.327 . S
C885 H908 0.950 . S
C886 C885 1.349 . S
C886 C898 1.349 . S
C887 C885 1.327 . S
C887 C903 1.429 . S
C887 H909 0.950 . S
C888 H884 0.949 . S
C888 C896 1.574 . S
C888 C904 1.368 . S
H889 C897 0.950 . S
H890 C895 0.950 . S
H891 C896 0.949 . S
H892 C898 0.950 . S
H893 C899 0.950 . S
H894 C900 0.949 . S
C895 H890 0.950 . S
C895 C897 1.327 . S
C895 C901 1.429 . S
C896 C888 1.574 . S
C896 H891 0.949 . S
C896 C902 1.368 . S
C897 C881 1.349 . S
C897 H889 0.950 . S
C897 C895 1.327 . S
C898 C886 1.349 . S
C898 H892 0.950 . S
C898 C899 1.327 . S
C899 H893 0.950 . S
C899 C898 1.327 . S
C899 C903 1.429 . S
C900 C883 1.574 . S
C900 H894 0.949 . S
C900 C904 1.368 . S
C901 C882 1.429 . S
C901 C895 1.429 . S
C901 C902 1.523 . S
C902 C883 1.368 . S
C902 C896 1.368 . S
C902 C901 1.523 . S
C903 C887 1.429 . S
C903 C899 1.429 . S
C903 C904 1.523 . S
C904 C888 1.368 . S
C904 C900 1.368 . S
C904 C903 1.523 . S
H905 C880 0.950 . S
H906 C882 0.950 . S
H907 C883 0.949 . S
H908 C885 0.950 . S
H909 C887 0.950 . S
C910 C911 1.349 . S
C910 C912 1.327 . S
C910 H935 0.950 . S
C911 C910 1.349 . S
C911 C927 1.349 . S
C912 C910 1.327 . S
C912 C931 1.429 . S
C912 H936 0.950 . S
C913 C930 1.574 . S
C913 C932 1.368 . S
C913 H937 0.949 . S
H914 C918 0.949 . S
C915 C916 1.349 . S
C915 C917 1.327 . S
C915 H938 0.950 . S
C916 C915 1.349 . S
C916 C928 1.349 . S
C917 C915 1.327 . S
C917 C933 1.429 . S
C917 H939 0.950 . S
C918 H914 0.949 . S
C918 C926 1.574 . S
C918 C934 1.368 . S
H919 C927 0.950 . S
H920 C925 0.950 . S
H921 C926 0.949 . S
H922 C928 0.950 . S
H923 C929 0.950 . S
H924 C930 0.965 . S
C925 H920 0.950 . S
C925 C927 1.327 . S
C925 C931 1.429 . S
C926 C918 1.574 . S
C926 H921 0.949 . S
C926 C932 1.368 . S
C927 C911 1.349 . S
C927 H919 0.950 . S
C927 C925 1.327 . S
C928 C916 1.349 . S
C928 H922 0.950 . S
C928 C929 1.327 . S
C929 H923 0.950 . S
C929 C928 1.327 . S
C929 C933 1.429 . S
C930 C913 1.574 . S
C930 H924 0.965 . S
C930 C934 1.368 . S
C931 C912 1.429 . S
C931 C925 1.429 . S
C931 C932 1.523 . S
C932 C913 1.368 . S
C932 C926 1.368 . S
C932 C931 1.523 . S
C933 C917 1.429 . S
C933 C929 1.429 . S
C933 C934 1.523 1_556 S
C934 C918 1.368 . S
C934 C930 1.368 . S
C934 C933 1.523 1_554 S
H935 C910 0.950 . S
H936 C912 0.950 . S
H937 C913 0.949 . S
H938 C915 0.950 . S
H939 C917 0.950 . S
C940 C941 1.349 . S
C940 C942 1.327 . S
C940 H965 0.950 . S
C941 C940 1.349 . S
C941 C957 1.349 . S
C942 C940 1.327 . S
C942 C961 1.429 . S
C942 H966 0.950 . S
C943 C960 1.574 . S
C943 C962 1.368 . S
C943 H967 0.960 . S
H944 C948 0.949 . S
C945 C946 1.349 . S
C945 C947 1.327 . S
C945 H968 0.950 . S
C946 C945 1.349 . S
C946 C958 1.349 . S
C947 C945 1.327 . S
C947 C963 1.429 . S
C947 H969 0.950 . S
C948 H944 0.949 . S
C948 C956 1.574 . S
C948 C964 1.368 . S
H949 C957 0.950 . S
H950 C955 0.950 . S
H951 C956 0.949 . S
H952 C958 0.950 . S
H953 C959 0.950 . S
H954 C960 0.949 . S
C955 H950 0.950 . S
C955 C957 1.327 . S
C955 C961 1.429 . S
C956 C948 1.574 . S
C956 H951 0.949 . S
C956 C962 1.368 . S
C957 C941 1.349 . S
C957 H949 0.950 . S
C957 C955 1.327 . S
C958 C946 1.349 . S
C958 H952 0.950 . S
C958 C959 1.327 . S
C959 H953 0.950 . S
C959 C958 1.327 . S
C959 C963 1.429 . S
C960 C943 1.574 . S
C960 H954 0.949 . S
C960 C964 1.368 . S
C961 C942 1.429 . S
C961 C955 1.429 . S
C961 C962 1.523 1_554 S
C962 C943 1.368 . S
C962 C956 1.368 . S
C962 C961 1.523 1_556 S
C963 C947 1.429 . S
C963 C959 1.429 . S
C963 C964 1.523 . S
C964 C948 1.368 . S
C964 C960 1.368 . S
C964 C963 1.523 . S
H965 C940 0.950 . S
H966 C942 0.950 . S
H967 C943 0.960 . S
H968 C945 0.950 . S
H969 C947 0.950 . S
C970 C971 1.349 . S
C970 C972 1.327 . S
C970 H995 0.950 . S
C971 C970 1.349 . S
C971 C987 1.349 . S
C972 C970 1.327 . S
C972 C991 1.429 . S
C972 H996 0.950 . S
C973 C990 1.574 . S
C973 C992 1.368 . S
C973 H997 0.949 . S
H974 C978 0.949 . S
C975 C976 1.349 . S
C975 C977 1.327 . S
C975 H998 0.950 . S
C976 C975 1.349 . S
C976 C988 1.349 . S
C977 C975 1.327 . S
C977 C993 1.429 . S
C977 H999 0.950 . S
C978 H974 0.949 . S
C978 C986 1.574 . S
C978 C994 1.368 . S
H979 C987 0.950 . S
H980 C985 0.950 . S
H981 C986 0.949 . S
H982 C988 0.950 . S
H983 C989 0.950 . S
H984 C990 0.949 . S
C985 H980 0.950 . S
C985 C987 1.327 . S
C985 C991 1.429 . S
C986 C978 1.574 . S
C986 H981 0.949 . S
C986 C992 1.368 . S
C987 C971 1.349 . S
C987 H979 0.950 . S
C987 C985 1.327 . S
C988 C976 1.349 . S
C988 H982 0.950 . S
C988 C989 1.327 . S
C989 H983 0.950 . S
C989 C988 1.327 . S
C989 C993 1.429 . S
C990 C973 1.574 . S
C990 H984 0.949 . S
C990 C994 1.368 . S
C991 C972 1.429 . S
C991 C985 1.429 . S
C991 C992 1.523 . S
C992 C973 1.368 . S
C992 C986 1.368 . S
C992 C991 1.523 . S
C993 C977 1.429 . S
C993 C989 1.429 . S
C993 C994 1.523 . S
C994 C978 1.368 . S
C994 C990 1.368 . S
C994 C993 1.523 . S
H995 C970 0.950 . S
H996 C972 0.950 . S
H997 C973 0.949 . S
H998 C975 0.950 . S
H999 C977 0.950 . S
C1000 C1001 1.349 . S
C1000 C1002 1.327 . S
C1000 H1025 0.950 . S
C1001 C1000 1.349 . S
C1001 C1017 1.349 . S
C1002 C1000 1.327 . S
C1002 C1021 1.429 . S
C1002 H1026 0.950 . S
C1003 C1020 1.574 . S
C1003 C1022 1.368 . S
C1003 H1027 0.949 . S
H1004 C1008 0.949 . S
C1005 C1006 1.349 . S
C1005 C1007 1.327 . S
C1005 H1028 0.950 . S
C1006 C1005 1.349 . S
C1006 C1018 1.349 . S
C1007 C1005 1.327 . S
C1007 C1023 1.429 . S
C1007 H1029 0.950 . S
C1008 H1004 0.949 . S
C1008 C1016 1.574 . S
C1008 C1024 1.368 . S
H1009 C1017 0.950 . S
H1010 C1015 0.950 . S
H1011 C1016 0.949 . S
H1012 C1018 0.950 . S
H1013 C1019 0.950 . S
H1014 C1020 0.949 . S
C1015 H1010 0.950 . S
C1015 C1017 1.327 . S
C1015 C1021 1.429 . S
C1016 C1008 1.574 . S
C1016 H1011 0.949 . S
C1016 C1022 1.368 . S
C1017 C1001 1.349 . S
C1017 H1009 0.950 . S
C1017 C1015 1.327 . S
C1018 C1006 1.349 . S
C1018 H1012 0.950 . S
C1018 C1019 1.327 . S
C1019 H1013 0.950 . S
C1019 C1018 1.327 . S
C1019 C1023 1.429 . S
C1020 C1003 1.574 . S
C1020 H1014 0.949 . S
C1020 C1024 1.368 . S
C1021 C1002 1.429 . S
C1021 C1015 1.429 . S
C1021 C1022 1.523 . S
C1022 C1003 1.368 . S
C1022 C1016 1.368 . S
C1022 C1021 1.523 . S
C1023 C1007 1.429 . S
C1023 C1019 1.429 . S
C1023 C1024 1.523 . S
C1024 C1008 1.368 . S
C1024 C1020 1.368 . S
C1024 C1023 1.523 . S
H1025 C1000 0.950 . S
H1026 C1002 0.950 . S
H1027 C1003 0.949 . S
H1028 C1005 0.950 . S
H1029 C1007 0.950 . S
C1030 C1031 1.349 . S
C1030 C1032 1.327 . S
C1030 H1055 0.950 . S
C1031 C1030 1.349 . S
C1031 C1047 1.349 . S
C1032 C1030 1.327 . S
C1032 C1051 1.429 . S
C1032 H1056 0.950 . S
C1033 C1050 1.574 . S
C1033 C1052 1.368 . S
C1033 H1057 0.949 . S
H1034 C1038 0.949 . S
C1035 C1036 1.349 . S
C1035 C1037 1.327 . S
C1035 H1058 0.950 . S
C1036 C1035 1.349 . S
C1036 C1048 1.349 . S
C1037 C1035 1.327 . S
C1037 C1053 1.429 . S
C1037 H1059 0.950 . S
C1038 H1034 0.949 . S
C1038 C1046 1.574 . S
C1038 C1054 1.368 . S
H1039 C1047 0.950 . S
H1040 C1045 0.950 . S
H1041 C1046 0.949 . S
H1042 C1048 0.950 . S
H1043 C1049 0.950 . S
H1044 C1050 0.949 . S
C1045 H1040 0.950 . S
C1045 C1047 1.327 . S
C1045 C1051 1.429 . S
C1046 C1038 1.574 . S
C1046 H1041 0.949 . S
C1046 C1052 1.368 . S
C1047 C1031 1.349 . S
C1047 H1039 0.950 . S
C1047 C1045 1.327 . S
C1048 C1036 1.349 . S
C1048 H1042 0.950 . S
C1048 C1049 1.327 . S
C1049 H1043 0.950 . S
C1049 C1048 1.327 . S
C1049 C1053 1.429 . S
C1050 C1033 1.574 . S
C1050 H1044 0.949 . S
C1050 C1054 1.368 . S
C1051 C1032 1.429 . S
C1051 C1045 1.429 . S
C1051 C1052 1.523 . S
C1052 C1033 1.368 . S
C1052 C1046 1.368 . S
C1052 C1051 1.523 . S
C1053 C1037 1.429 . S
C1053 C1049 1.429 . S
C1053 C1054 1.523 . S
C1054 C1038 1.368 . S
C1054 C1050 1.368 . S
C1054 C1053 1.523 . S
H1055 C1030 0.950 . S
H1056 C1032 0.950 . S
H1057 C1033 0.949 . S
H1058 C1035 0.950 . S
H1059 C1037 0.950 . S
C1060 C1061 1.349 . S
C1060 C1062 1.327 . S
C1060 H1085 0.950 . S
C1061 C1060 1.349 . S
C1061 C1077 1.349 . S
C1062 C1060 1.327 . S
C1062 C1081 1.429 . S
C1062 H1086 0.950 . S
C1063 C1080 1.574 . S
C1063 C1082 1.368 . S
C1063 H1087 0.949 . S
H1064 C1068 0.949 . S
C1065 C1066 1.349 . S
C1065 C1067 1.327 . S
C1065 H1088 0.950 . S
C1066 C1065 1.349 . S
C1066 C1078 1.349 . S
C1067 C1065 1.327 . S
C1067 C1083 1.429 . S
C1067 H1089 0.950 . S
C1068 H1064 0.949 . S
C1068 C1076 1.574 . S
C1068 C1084 1.368 . S
H1069 C1077 0.950 . S
H1070 C1075 0.950 . S
H1071 C1076 0.949 . S
H1072 C1078 0.950 . S
H1073 C1079 0.950 . S
H1074 C1080 0.965 . S
C1075 H1070 0.950 . S
C1075 C1077 1.327 . S
C1075 C1081 1.429 . S
C1076 C1068 1.574 . S
C1076 H1071 0.949 . S
C1076 C1082 1.368 . S
C1077 C1061 1.349 . S
C1077 H1069 0.950 . S
C1077 C1075 1.327 . S
C1078 C1066 1.349 . S
C1078 H1072 0.950 . S
C1078 C1079 1.327 . S
C1079 H1073 0.950 . S
C1079 C1078 1.327 . S
C1079 C1083 1.429 . S
C1080 C1063 1.574 . S
C1080 H1074 0.965 . S
C1080 C1084 1.368 . S
C1081 C1062 1.429 . S
C1081 C1075 1.429 . S
C1081 C1082 1.523 . S
C1082 C1063 1.368 . S
C1082 C1076 1.368 . S
C1082 C1081 1.523 . S
C1083 C1067 1.429 . S
C1083 C1079 1.429 . S
C1083 C1084 1.523 1_556 S
C1084 C1068 1.368 . S
C1084 C1080 1.368 . S
C1084 C1083 1.523 1_554 S
H1085 C1060 0.950 . S
H1086 C1062 0.950 . S
H1087 C1063 0.949 . S
H1088 C1065 0.950 . S
H1089 C1067 0.950 . S
C1090 C1091 1.349 . S
C1090 C1092 1.327 . S
C1090 H1115 0.950 . S
C1091 C1090 1.349 . S
C1091 C1107 1.349 . S
C1092 C1090 1.327 . S
C1092 C1111 1.429 . S
C1092 H1116 0.950 . S
C1093 C1110 1.574 . S
C1093 C1112 1.368 . S
C1093 H1117 0.955 . S
H1094 C1098 0.949 . S
C1095 C1096 1.349 . S
C1095 C1097 1.327 . S
C1095 H1118 0.950 . S
C1096 C1095 1.349 . S
C1096 C1108 1.349 . S
C1097 C1095 1.327 . S
C1097 C1113 1.429 . S
C1097 H1119 0.950 . S
C1098 H1094 0.949 . S
C1098 C1106 1.574 . S
C1098 C1114 1.368 . S
H1099 C1107 0.950 . S
H1100 C1105 0.950 . S
H1101 C1106 0.949 . S
H1102 C1108 0.950 . S
H1103 C1109 0.950 . S
H1104 C1110 0.949 . S
C1105 H1100 0.950 . S
C1105 C1107 1.327 . S
C1105 C1111 1.429 . S
C1106 C1098 1.574 . S
C1106 H1101 0.949 . S
C1106 C1112 1.368 . S
C1107 C1091 1.349 . S
C1107 H1099 0.950 . S
C1107 C1105 1.327 . S
C1108 C1096 1.349 . S
C1108 H1102 0.950 . S
C1108 C1109 1.327 . S
C1109 H1103 0.950 . S
C1109 C1108 1.327 . S
C1109 C1113 1.429 . S
C1110 C1093 1.574 . S
C1110 H1104 0.949 . S
C1110 C1114 1.368 . S
C1111 C1092 1.429 . S
C1111 C1105 1.429 . S
C1111 C1112 1.523 1_554 S
C1112 C1093 1.368 . S
C1112 C1106 1.368 . S
C1112 C1111 1.523 1_556 S
C1113 C1097 1.429 . S
C1113 C1109 1.429 . S
C1113 C1114 1.523 . S
C1114 C1098 1.368 . S
C1114 C1110 1.368 . S
C1114 C1113 1.523 . S
H1115 C1090 0.950 . S
H1116 C1092 0.950 . S
H1117 C1093 0.955 . S
H1118 C1095 0.950 . S
H1119 C1097 0.950 . S
C1120 C1121 1.349 . S
C1120 C1122 1.327 . S
C1120 H1145 0.950 . S
C1121 C1120 1.349 . S
C1121 C1137 1.349 . S
C1122 C1120 1.327 . S
C1122 C1141 1.429 . S
C1122 H1146 0.950 . S
C1123 C1140 1.574 . S
C1123 C1142 1.368 . S
C1123 H1147 0.949 . S
H1124 C1128 0.949 . S
C1125 C1126 1.349 . S
C1125 C1127 1.327 . S
C1125 H1148 0.950 . S
C1126 C1125 1.349 . S
C1126 C1138 1.349 . S
C1127 C1125 1.327 . S
C1127 C1143 1.429 . S
C1127 H1149 0.950 . S
C1128 H1124 0.949 . S
C1128 C1136 1.574 . S
C1128 C1144 1.368 . S
H1129 C1137 0.950 . S
H1130 C1135 0.950 . S
H1131 C1136 0.949 . S
H1132 C1138 0.950 . S
H1133 C1139 0.950 . S
H1134 C1140 0.949 . S
C1135 H1130 0.950 . S
C1135 C1137 1.327 . S
C1135 C1141 1.429 . S
C1136 C1128 1.574 . S
C1136 H1131 0.949 . S
C1136 C1142 1.368 . S
C1137 C1121 1.349 . S
C1137 H1129 0.950 . S
C1137 C1135 1.327 . S
C1138 C1126 1.349 . S
C1138 H1132 0.950 . S
C1138 C1139 1.327 . S
C1139 H1133 0.950 . S
C1139 C1138 1.327 . S
C1139 C1143 1.429 . S
C1140 C1123 1.574 . S
C1140 H1134 0.949 . S
C1140 C1144 1.368 . S
C1141 C1122 1.429 . S
C1141 C1135 1.429 . S
C1141 C1142 1.523 . S
C1142 C1123 1.368 . S
C1142 C1136 1.368 . S
C1142 C1141 1.523 . S
C1143 C1127 1.429 . S
C1143 C1139 1.429 . S
C1143 C1144 1.523 . S
C1144 C1128 1.368 . S
C1144 C1140 1.368 . S
C1144 C1143 1.523 . S
H1145 C1120 0.950 . S
H1146 C1122 0.950 . S
H1147 C1123 0.949 . S
H1148 C1125 0.950 . S
H1149 C1127 0.950 . S
C1150 C1151 1.349 . S
C1150 C1152 1.327 . S
C1150 H1175 0.950 . S
C1151 C1150 1.349 . S
C1151 C1167 1.349 . S
C1152 C1150 1.327 . S
C1152 C1171 1.429 . S
C1152 H1176 0.950 . S
C1153 C1170 1.574 . S
C1153 C1172 1.368 . S
C1153 H1177 0.949 . S
H1154 C1158 0.949 . S
C1155 C1156 1.349 . S
C1155 C1157 1.327 . S
C1155 H1178 0.950 . S
C1156 C1155 1.349 . S
C1156 C1168 1.349 . S
C1157 C1155 1.327 . S
C1157 C1173 1.429 . S
C1157 H1179 0.950 . S
C1158 H1154 0.949 . S
C1158 C1166 1.574 . S
C1158 C1174 1.368 . S
H1159 C1167 0.950 . S
H1160 C1165 0.950 . S
H1161 C1166 0.949 . S
H1162 C1168 0.950 . S
H1163 C1169 0.950 . S
H1164 C1170 0.949 . S
C1165 H1160 0.950 . S
C1165 C1167 1.327 . S
C1165 C1171 1.429 . S
C1166 C1158 1.574 . S
C1166 H1161 0.949 . S
C1166 C1172 1.368 . S
C1167 C1151 1.349 . S
C1167 H1159 0.950 . S
C1167 C1165 1.327 . S
C1168 C1156 1.349 . S
C1168 H1162 0.950 . S
C1168 C1169 1.327 . S
C1169 H1163 0.950 . S
C1169 C1168 1.327 . S
C1169 C1173 1.429 . S
C1170 C1153 1.574 . S
C1170 H1164 0.949 . S
C1170 C1174 1.368 . S
C1171 C1152 1.429 . S
C1171 C1165 1.429 . S
C1171 C1172 1.523 . S
C1172 C1153 1.368 . S
C1172 C1166 1.368 . S
C1172 C1171 1.523 . S
C1173 C1157 1.429 . S
C1173 C1169 1.429 . S
C1173 C1174 1.523 . S
C1174 C1158 1.368 . S
C1174 C1170 1.368 . S
C1174 C1173 1.523 . S
H1175 C1150 0.950 . S
H1176 C1152 0.950 . S
H1177 C1153 0.949 . S
H1178 C1155 0.950 . S
H1179 C1157 0.950 . S
C1180 C1181 1.349 . S
C1180 C1182 1.327 . S
C1180 H1205 0.950 . S
C1181 C1180 1.349 . S
C1181 C1197 1.349 . S
C1182 C1180 1.327 . S
C1182 C1201 1.429 . S
C1182 H1206 0.950 . S
C1183 C1200 1.574 . S
C1183 C1202 1.368 . S
C1183 H1207 0.949 . S
H1184 C1188 0.949 . S
C1185 C1186 1.349 . S
C1185 C1187 1.327 . S
C1185 H1208 0.950 . S
C1186 C1185 1.349 . S
C1186 C1198 1.349 . S
C1187 C1185 1.327 . S
C1187 C1203 1.429 . S
C1187 H1209 0.950 . S
C1188 H1184 0.949 . S
C1188 C1196 1.574 . S
C1188 C1204 1.368 . S
H1189 C1197 0.950 . S
H1190 C1195 0.950 . S
H1191 C1196 0.949 . S
H1192 C1198 0.950 . S
H1193 C1199 0.950 . S
H1194 C1200 0.949 . S
C1195 H1190 0.950 . S
C1195 C1197 1.327 . S
C1195 C1201 1.429 . S
C1196 C1188 1.574 . S
C1196 H1191 0.949 . S
C1196 C1202 1.368 . S
C1197 C1181 1.349 . S
C1197 H1189 0.950 . S
C1197 C1195 1.327 . S
C1198 C1186 1.349 . S
C1198 H1192 0.950 . S
C1198 C1199 1.327 . S
C1199 H1193 0.950 . S
C1199 C1198 1.327 . S
C1199 C1203 1.429 . S
C1200 C1183 1.574 . S
C1200 H1194 0.949 . S
C1200 C1204 1.368 . S
C1201 C1182 1.429 . S
C1201 C1195 1.429 . S
C1201 C1202 1.523 . S
C1202 C1183 1.368 . S
C1202 C1196 1.368 . S
C1202 C1201 1.523 . S
C1203 C1187 1.429 . S
C1203 C1199 1.429 . S
C1203 C1204 1.523 . S
C1204 C1188 1.368 . S
C1204 C1200 1.368 . S
C1204 C1203 1.523 . S
H1205 C1180 0.950 . S
H1206 C1182 0.950 . S
H1207 C1183 0.949 . S
H1208 C1185 0.950 . S
H1209 C1187 0.950 . S
C1210 C1211 1.349 . S
C1210 C1212 1.327 . S
C1210 H1235 0.950 . S
C1211 C1210 1.349 . S
C1211 C1227 1.349 1_554 S
C1212 C1210 1.327 . S
C1212 C1231 1.429 . S
C1212 H1236 0.950 . S
C1213 C1230 1.574 1_655 S
C1213 C1232 1.368 1_556 S
C1213 H1237 0.949 . S
H1214 C1218 0.949 . S
C1215 C1216 1.349 1_556 S
C1215 C1217 1.327 . S
C1215 H1238 0.950 . S
C1216 C1215 1.349 1_554 S
C1216 C1228 1.349 . S
C1217 C1215 1.327 . S
C1217 C1233 1.429 1_556 S
C1217 H1239 0.950 . S
C1218 H1214 0.949 . S
C1218 C1226 1.574 1_455 S
C1218 C1234 1.368 . S
H1219 C1227 0.950 . S
H1220 C1225 0.950 . S
H1221 C1226 0.949 . S
H1222 C1228 0.950 . S
H1223 C1229 0.950 . S
H1224 C1230 0.949 . S
C1225 H1220 0.950 . S
C1225 C1227 1.327 . S
C1225 C1231 1.429 1_556 S
C1226 C1218 1.574 1_655 S
C1226 H1221 0.949 . S
C1226 C1232 1.368 . S
C1227 C1211 1.349 1_556 S
C1227 H1219 0.950 . S
C1227 C1225 1.327 . S
C1228 C1216 1.349 . S
C1228 H1222 0.950 . S
C1228 C1229 1.327 . S
C1229 H1223 0.950 . S
C1229 C1228 1.327 . S
C1229 C1233 1.429 . S
C1230 C1213 1.574 1_455 S
C1230 H1224 0.949 . S
C1230 C1234 1.368 1_556 S
C1231 C1212 1.429 . S
C1231 C1225 1.429 1_554 S
C1231 C1232 1.523 . S
C1232 C1213 1.368 1_554 S
C1232 C1226 1.368 . S
C1232 C1231 1.523 . S
C1233 C1217 1.429 1_554 S
C1233 C1229 1.429 . S
C1233 C1234 1.523 . S
C1234 C1218 1.368 . S
C1234 C1230 1.368 1_554 S
C1234 C1233 1.523 . S
H1235 C1210 0.950 . S
H1236 C1212 0.950 . S
H1237 C1213 0.949 . S
H1238 C1215 0.950 . S
H1239 C1217 0.950 . S
C1240 C1241 1.349 . S
C1240 C1242 1.327 . S
C1240 H1265 0.950 . S
C1241 C1240 1.349 . S
C1241 C1257 1.349 . S
C1242 C1240 1.327 . S
C1242 C1261 1.429 . S
C1242 H1266 0.950 . S
C1243 C1260 1.574 . S
C1243 C1262 1.368 . S
C1243 H1267 0.949 . S
H1244 C1248 0.949 . S
C1245 C1246 1.349 . S
C1245 C1247 1.327 . S
C1245 H1268 0.950 . S
C1246 C1245 1.349 . S
C1246 C1258 1.349 . S
C1247 C1245 1.327 . S
C1247 C1263 1.429 . S
C1247 H1269 0.950 . S
C1248 H1244 0.949 . S
C1248 C1256 1.574 . S
C1248 C1264 1.368 . S
H1249 C1257 0.950 . S
H1250 C1255 0.950 . S
H1251 C1256 0.949 . S
H1252 C1258 0.950 . S
H1253 C1259 0.950 . S
H1254 C1260 0.949 . S
C1255 H1250 0.950 . S
C1255 C1257 1.327 . S
C1255 C1261 1.429 . S
C1256 C1248 1.574 . S
C1256 H1251 0.949 . S
C1256 C1262 1.368 . S
C1257 C1241 1.349 . S
C1257 H1249 0.950 . S
C1257 C1255 1.327 . S
C1258 C1246 1.349 . S
C1258 H1252 0.950 . S
C1258 C1259 1.327 . S
C1259 H1253 0.950 . S
C1259 C1258 1.327 . S
C1259 C1263 1.429 . S
C1260 C1243 1.574 . S
C1260 H1254 0.949 . S
C1260 C1264 1.368 . S
C1261 C1242 1.429 . S
C1261 C1255 1.429 . S
C1261 C1262 1.523 . S
C1262 C1243 1.368 . S
C1262 C1256 1.368 . S
C1262 C1261 1.523 . S
C1263 C1247 1.429 . S
C1263 C1259 1.429 . S
C1263 C1264 1.523 . S
C1264 C1248 1.368 . S
C1264 C1260 1.368 . S
C1264 C1263 1.523 . S
H1265 C1240 0.950 . S
H1266 C1242 0.950 . S
H1267 C1243 0.949 . S
H1268 C1245 0.950 . S
H1269 C1247 0.950 . S
C1270 C1271 1.349 1_554 S
C1270 C1272 1.327 . S
C1270 H1295 0.950 . S
C1271 C1270 1.349 1_556 S
C1271 C1287 1.349 . S
C1272 C1270 1.327 . S
C1272 C1291 1.429 1_554 S
C1272 H1296 0.950 . S
C1273 C1290 1.574 1_455 S
C1273 C1292 1.368 . S
C1273 H1297 0.949 . S
H1274 C1278 0.949 . S
C1275 C1276 1.349 . S
C1275 C1277 1.327 . S
C1275 H1298 0.950 . S
C1276 C1275 1.349 . S
C1276 C1288 1.349 1_556 S
C1277 C1275 1.327 . S
C1277 C1293 1.429 . S
C1277 H1299 0.950 . S
C1278 H1274 0.949 . S
C1278 C1286 1.574 1_655 S
C1278 C1294 1.368 1_554 S
H1279 C1287 0.950 . S
H1280 C1285 0.950 . S
H1281 C1286 0.949 . S
H1282 C1288 0.950 . S
H1283 C1289 0.950 . S
H1284 C1290 0.949 . S
C1285 H1280 0.950 . S
C1285 C1287 1.327 . S
C1285 C1291 1.429 . S
C1286 C1278 1.574 1_455 S
C1286 H1281 0.949 . S
C1286 C1292 1.368 1_554 S
C1287 C1271 1.349 . S
C1287 H1279 0.950 . S
C1287 C1285 1.327 . S
C1288 C1276 1.349 1_554 S
C1288 H1282 0.950 . S
C1288 C1289 1.327 . S
C1289 H1283 0.950 . S
C1289 C1288 1.327 . S
C1289 C1293 1.429 1_554 S
C1290 C1273 1.574 1_655 S
C1290 H1284 0.949 . S
C1290 C1294 1.368 . S
C1291 C1272 1.429 1_556 S
C1291 C1285 1.429 . S
C1291 C1292 1.523 . S
C1292 C1273 1.368 . S
C1292 C1286 1.368 1_556 S
C1292 C1291 1.523 . S
C1293 C1277 1.429 . S
C1293 C1289 1.429 1_556 S
C1293 C1294 1.523 . S
C1294 C1278 1.368 1_556 S
C1294 C1290 1.368 . S
C1294 C1293 1.523 . S
H1295 C1270 0.950 . S
H1296 C1272 0.950 . S
H1297 C1273 0.949 . S
H1298 C1275 0.950 . S
H1299 C1277 0.950 . S
C1300 C1301 1.349 . S
C1300 C1302 1.327 . S
C1300 H1325 0.950 . S
C1301 C1300 1.349 . S
C1301 C1317 1.349 . S
C1302 C1300 1.327 . S
C1302 C1321 1.429 . S
C1302 H1326 0.950 . S
C1303 C1320 1.574 . S
C1303 C1322 1.368 . S
C1303 H1327 0.949 . S
H1304 C1308 0.949 . S
C1305 C1306 1.349 . S
C1305 C1307 1.327 . S
C1305 H1328 0.950 . S
C1306 C1305 1.349 . S
C1306 C1318 1.349 . S
C1307 C1305 1.327 . S
C1307 C1323 1.429 . S
C1307 H1329 0.950 . S
C1308 H1304 0.949 . S
C1308 C1316 1.574 . S
C1308 C1324 1.368 . S
H1309 C1317 0.950 . S
H1310 C1315 0.950 . S
H1311 C1316 0.949 . S
H1312 C1318 0.950 . S
H1313 C1319 0.950 . S
H1314 C1320 0.949 . S
C1315 H1310 0.950 . S
C1315 C1317 1.327 . S
C1315 C1321 1.429 . S
C1316 C1308 1.574 . S
C1316 H1311 0.949 . S
C1316 C1322 1.368 . S
C1317 C1301 1.349 . S
C1317 H1309 0.950 . S
C1317 C1315 1.327 . S
C1318 C1306 1.349 . S
C1318 H1312 0.950 . S
C1318 C1319 1.327 . S
C1319 H1313 0.950 . S
C1319 C1318 1.327 . S
C1319 C1323 1.429 . S
C1320 C1303 1.574 . S
C1320 H1314 0.949 . S
C1320 C1324 1.368 . S
C1321 C1302 1.429 . S
C1321 C1315 1.429 . S
C1321 C1322 1.523 . S
C1322 C1303 1.368 . S
C1322 C1316 1.368 . S
C1322 C1321 1.523 . S
C1323 C1307 1.429 . S
C1323 C1319 1.429 . S
C1323 C1324 1.523 . S
C1324 C1308 1.368 . S
C1324 C1320 1.368 . S
C1324 C1323 1.523 . S
H1325 C1300 0.950 . S
H1326 C1302 0.950 . S
H1327 C1303 0.949 . S
H1328 C1305 0.950 . S
H1329 C1307 0.950 . S
C1330 C1331 1.349 . S
C1330 C1332 1.327 . S
C1330 H1355 0.950 . S
C1331 C1330 1.349 . S
C1331 C1347 1.349 . S
C1332 C1330 1.327 . S
C1332 C1351 1.429 . S
C1332 H1356 0.950 . S
C1333 C1350 1.574 . S
C1333 C1352 1.368 . S
C1333 H1357 0.949 . S
H1334 C1338 0.949 . S
C1335 C1336 1.349 . S
C1335 C1337 1.327 . S
C1335 H1358 0.950 . S
C1336 C1335 1.349 . S
C1336 C1348 1.349 . S
C1337 C1335 1.327 . S
C1337 C1353 1.429 . S
C1337 H1359 0.950 . S
C1338 H1334 0.949 . S
C1338 C1346 1.574 . S
C1338 C1354 1.368 . S
H1339 C1347 0.950 . S
H1340 C1345 0.950 . S
H1341 C1346 0.949 . S
H1342 C1348 0.950 . S
H1343 C1349 0.950 . S
H1344 C1350 0.949 . S
C1345 H1340 0.950 . S
C1345 C1347 1.327 . S
C1345 C1351 1.429 . S
C1346 C1338 1.574 . S
C1346 H1341 0.949 . S
C1346 C1352 1.368 . S
C1347 C1331 1.349 . S
C1347 H1339 0.950 . S
C1347 C1345 1.327 . S
C1348 C1336 1.349 . S
C1348 H1342 0.950 . S
C1348 C1349 1.327 . S
C1349 H1343 0.950 . S
C1349 C1348 1.327 . S
C1349 C1353 1.429 . S
C1350 C1333 1.574 . S
C1350 H1344 0.949 . S
C1350 C1354 1.368 . S
C1351 C1332 1.429 . S
C1351 C1345 1.429 . S
C1351 C1352 1.523 . S
C1352 C1333 1.368 . S
C1352 C1346 1.368 . S
C1352 C1351 1.523 . S
C1353 C1337 1.429 . S
C1353 C1349 1.429 . S
C1353 C1354 1.523 . S
C1354 C1338 1.368 . S
C1354 C1350 1.368 . S
C1354 C1353 1.523 . S
H1355 C1330 0.950 . S
H1356 C1332 0.950 . S
H1357 C1333 0.949 . S
H1358 C1335 0.950 . S
H1359 C1337 0.950 . S
C1360 C1361 1.349 . S
C1360 C1362 1.327 . S
C1360 H1385 0.950 . S
C1361 C1360 1.349 . S
C1361 C1377 1.349 . S
C1362 C1360 1.327 . S
C1362 C1381 1.429 . S
C1362 H1386 0.950 . S
C1363 C1380 1.574 . S
C1363 C1382 1.368 . S
C1363 H1387 0.949 . S
H1364 C1368 0.949 . S
C1365 C1366 1.349 . S
C1365 C1367 1.327 . S
C1365 H1388 0.950 . S
C1366 C1365 1.349 . S
C1366 C1378 1.349 . S
C1367 C1365 1.327 . S
C1367 C1383 1.429 . S
C1367 H1389 0.950 . S
C1368 H1364 0.949 . S
C1368 C1376 1.574 . S
C1368 C1384 1.368 . S
H1369 C1377 0.950 . S
H1370 C1375 0.950 . S
H1371 C1376 0.949 . S
H1372 C1378 0.950 . S
H1373 C1379 0.950 . S
H1374 C1380 0.949 . S
C1375 H1370 0.950 . S
C1375 C1377 1.327 . S
C1375 C1381 1.429 . S
C1376 C1368 1.574 . S
C1376 H1371 0.949 . S
C1376 C1382 1.368 . S
C1377 C1361 1.349 . S
C1377 H1369 0.950 . S
C1377 C1375 1.327 . S
C1378 C1366 1.349 . S
C1378 H1372 0.950 . S
C1378 C1379 1.327 . S
C1379 H1373 0.950 . S
C1379 C1378 1.327 . S
C1379 C1383 1.429 . S
C1380 C1363 1.574 . S
C1380 H1374 0.949 . S
C1380 C1384 1.368 . S
C1381 C1362 1.429 . S
C1381 C1375 1.429 . S
C1381 C1382 1.523 . S
C1382 C1363 1.368 . S
C1382 C1376 1.368 . S
C1382 C1381 1.523 . S
C1383 C1367 1.429 . S
C1383 C1379 1.429 . S
C1383 C1384 1.523 . S
C1384 C1368 1.368 . S
C1384 C1380 1.368 . S
C1384 C1383 1.523 . S
H1385 C1360 0.950 . S
H1386 C1362 0.950 . S
H1387 C1363 0.949 . S
H1388 C1365 0.950 . S
H1389 C1367 0.950 . S
C1390 C1391 1.349 . S
C1390 C1392 1.327 . S
C1390 H1415 0.950 . S
C1391 C1390 1.349 . S
C1391 C1407 1.349 . S
C1392 C1390 1.327 . S
C1392 C1411 1.429 . S
C1392 H1416 0.950 . S
C1393 C1410 1.574 . S
C1393 C1412 1.368 . S
C1393 H1417 0.949 . S
H1394 C1398 0.949 . S
C1395 C1396 1.349 . S
C1395 C1397 1.327 . S
C1395 H1418 0.950 . S
C1396 C1395 1.349 . S
C1396 C1408 1.349 . S
C1397 C1395 1.327 . S
C1397 C1413 1.429 . S
C1397 H1419 0.950 . S
C1398 H1394 0.949 . S
C1398 C1406 1.574 . S
C1398 C1414 1.368 . S
H1399 C1407 0.950 . S
H1400 C1405 0.950 . S
H1401 C1406 0.949 . S
H1402 C1408 0.950 . S
H1403 C1409 0.950 . S
H1404 C1410 0.949 . S
C1405 H1400 0.950 . S
C1405 C1407 1.327 . S
C1405 C1411 1.429 . S
C1406 C1398 1.574 . S
C1406 H1401 0.949 . S
C1406 C1412 1.368 . S
C1407 C1391 1.349 . S
C1407 H1399 0.950 . S
C1407 C1405 1.327 . S
C1408 C1396 1.349 . S
C1408 H1402 0.950 . S
C1408 C1409 1.327 . S
C1409 H1403 0.950 . S
C1409 C1408 1.327 . S
C1409 C1413 1.429 . S
C1410 C1393 1.574 . S
C1410 H1404 0.949 . S
C1410 C1414 1.368 . S
C1411 C1392 1.429 . S
C1411 C1405 1.429 . S
C1411 C1412 1.523 . S
C1412 C1393 1.368 . S
C1412 C1406 1.368 . S
C1412 C1411 1.523 . S
C1413 C1397 1.429 . S
C1413 C1409 1.429 . S
C1413 C1414 1.523 . S
C1414 C1398 1.368 . S
C1414 C1410 1.368 . S
C1414 C1413 1.523 . S
H1415 C1390 0.950 . S
H1416 C1392 0.950 . S
H1417 C1393 0.949 . S
H1418 C1395 0.950 . S
H1419 C1397 0.950 . S
C1420 C1421 1.349 . S
C1420 C1422 1.327 . S
C1420 H1445 0.950 . S
C1421 C1420 1.349 . S
C1421 C1437 1.349 . S
C1422 C1420 1.327 . S
C1422 C1441 1.429 . S
C1422 H1446 0.950 . S
C1423 C1440 1.574 . S
C1423 C1442 1.368 . S
C1423 H1447 0.949 . S
H1424 C1428 0.949 . S
C1425 C1426 1.349 . S
C1425 C1427 1.327 . S
C1425 H1448 0.950 . S
C1426 C1425 1.349 . S
C1426 C1438 1.349 . S
C1427 C1425 1.327 . S
C1427 C1443 1.429 . S
C1427 H1449 0.950 . S
C1428 H1424 0.949 . S
C1428 C1436 1.574 . S
C1428 C1444 1.368 . S
H1429 C1437 0.950 . S
H1430 C1435 0.950 . S
H1431 C1436 0.949 . S
H1432 C1438 0.950 . S
H1433 C1439 0.950 . S
H1434 C1440 0.949 . S
C1435 H1430 0.950 . S
C1435 C1437 1.327 . S
C1435 C1441 1.429 . S
C1436 C1428 1.574 . S
C1436 H1431 0.949 . S
C1436 C1442 1.368 . S
C1437 C1421 1.349 . S
C1437 H1429 0.950 . S
C1437 C1435 1.327 . S
C1438 C1426 1.349 . S
C1438 H1432 0.950 . S
C1438 C1439 1.327 . S
C1439 H1433 0.950 . S
C1439 C1438 1.327 . S
C1439 C1443 1.429 . S
C1440 C1423 1.574 . S
C1440 H1434 0.949 . S
C1440 C1444 1.368 . S
C1441 C1422 1.429 . S
C1441 C1435 1.429 . S
C1441 C1442 1.523 . S
C1442 C1423 1.368 . S
C1442 C1436 1.368 . S
C1442 C1441 1.523 . S
C1443 C1427 1.429 . S
C1443 C1439 1.429 . S
C1443 C1444 1.523 . S
C1444 C1428 1.368 . S
C1444 C1440 1.368 . S
C1444 C1443 1.523 . S
H1445 C1420 0.950 . S
H1446 C1422 0.950 . S
H1447 C1423 0.949 . S
H1448 C1425 0.950 . S
H1449 C1427 0.950 . S
C1450 C1451 1.349 . S
C1450 C1452 1.327 . S
C1450 H1475 0.950 . S
C1451 C1450 1.349 . S
C1451 C1467 1.349 . S
C1452 C1450 1.327 . S
C1452 C1471 1.429 . S
C1452 H1476 0.950 . S
C1453 C1470 1.574 . S
C1453 C1472 1.368 . S
C1453 H1477 0.949 . S
H1454 C1458 0.949 . S
C1455 C1456 1.349 . S
C1455 C1457 1.327 . S
C1455 H1478 0.950 . S
C1456 C1455 1.349 . S
C1456 C1468 1.349 . S
C1457 C1455 1.327 . S
C1457 C1473 1.429 . S
C1457 H1479 0.950 . S
C1458 H1454 0.949 . S
C1458 C1466 1.574 . S
C1458 C1474 1.368 . S
H1459 C1467 0.950 . S
H1460 C1465 0.950 . S
H1461 C1466 0.949 . S
H1462 C1468 0.950 . S
H1463 C1469 0.950 . S
H1464 C1470 0.949 . S
C1465 H1460 0.950 . S
C1465 C1467 1.327 . S
C1465 C1471 1.429 . S
C1466 C1458 1.574 . S
C1466 H1461 0.949 . S
C1466 C1472 1.368 . S
C1467 C1451 1.349 . S
C1467 H1459 0.950 . S
C1467 C1465 1.327 . S
C1468 C1456 1.349 . S
C1468 H1462 0.950 . S
C1468 C1469 1.327 . S
C1469 H1463 0.950 . S
C1469 C1468 1.327 . S
C1469 C1473 1.429 . S
C1470 C1453 1.574 . S
C1470 H1464 0.949 . S
C1470 C1474 1.368 . S
C1471 C1452 1.429 . S
C1471 C1465 1.429 . S
C1471 C1472 1.523 . S
C1472 C1453 1.368 . S
C1472 C1466 1.368 . S
C1472 C1471 1.523 . S
C1473 C1457 1.429 . S
C1473 C1469 1.429 . S
C1473 C1474 1.523 . S
C1474 C1458 1.368 . S
C1474 C1470 1.368 . S
C1474 C1473 1.523 . S
H1475 C1450 0.950 . S
H1476 C1452 0.950 . S
H1477 C1453 0.949 . S
H1478 C1455 0.950 . S
H1479 C1457 0.950 . S
C1480 C1481 1.349 1_556 S
C1480 C1482 1.327 . S
C1480 H1505 0.950 . S
C1481 C1480 1.349 1_554 S
C1481 C1497 1.349 . S
C1482 C1480 1.327 . S
C1482 C1501 1.429 1_556 S
C1482 H1506 0.950 . S
C1483 C1500 1.574 1_655 S
C1483 C1502 1.368 . S
C1483 H1507 0.949 . S
H1484 C1488 0.949 . S
C1485 C1486 1.349 . S
C1485 C1487 1.327 . S
C1485 H1508 0.950 . S
C1486 C1485 1.349 . S
C1486 C1498 1.349 1_554 S
C1487 C1485 1.327 . S
C1487 C1503 1.429 . S
C1487 H1509 0.950 . S
C1488 H1484 0.949 . S
C1488 C1496 1.574 1_455 S
C1488 C1504 1.368 1_556 S
H1489 C1497 0.950 . S
H1490 C1495 0.950 . S
H1491 C1496 0.949 . S
H1492 C1498 0.950 . S
H1493 C1499 0.950 . S
H1494 C1500 0.949 . S
C1495 H1490 0.950 . S
C1495 C1497 1.327 . S
C1495 C1501 1.429 . S
C1496 C1488 1.574 1_655 S
C1496 H1491 0.949 . S
C1496 C1502 1.368 1_556 S
C1497 C1481 1.349 . S
C1497 H1489 0.950 . S
C1497 C1495 1.327 . S
C1498 C1486 1.349 1_556 S
C1498 H1492 0.950 . S
C1498 C1499 1.327 . S
C1499 H1493 0.950 . S
C1499 C1498 1.327 . S
C1499 C1503 1.429 1_556 S
C1500 C1483 1.574 1_455 S
C1500 H1494 0.949 . S
C1500 C1504 1.368 . S
C1501 C1482 1.429 1_554 S
C1501 C1495 1.429 . S
C1501 C1502 1.523 . S
C1502 C1483 1.368 . S
C1502 C1496 1.368 1_554 S
C1502 C1501 1.523 . S
C1503 C1487 1.429 . S
C1503 C1499 1.429 1_554 S
C1503 C1504 1.523 . S
C1504 C1488 1.368 1_554 S
C1504 C1500 1.368 . S
C1504 C1503 1.523 . S
H1505 C1480 0.950 . S
H1506 C1482 0.950 . S
H1507 C1483 0.949 . S
H1508 C1485 0.950 . S
H1509 C1487 0.950 . S
C1510 C1511 1.349 . S
C1510 C1512 1.327 . S
C1510 H1535 0.950 . S
C1511 C1510 1.349 . S
C1511 C1527 1.349 . S
C1512 C1510 1.327 . S
C1512 C1531 1.429 . S
C1512 H1536 0.950 . S
C1513 C1530 1.574 . S
C1513 C1532 1.368 . S
C1513 H1537 0.949 . S
H1514 C1518 0.949 . S
C1515 C1516 1.349 . S
C1515 C1517 1.327 . S
C1515 H1538 0.950 . S
C1516 C1515 1.349 . S
C1516 C1528 1.349 . S
C1517 C1515 1.327 . S
C1517 C1533 1.429 . S
C1517 H1539 0.950 . S
C1518 H1514 0.949 . S
C1518 C1526 1.574 . S
C1518 C1534 1.368 . S
H1519 C1527 0.950 . S
H1520 C1525 0.950 . S
H1521 C1526 0.949 . S
H1522 C1528 0.950 . S
H1523 C1529 0.950 . S
H1524 C1530 0.949 . S
C1525 H1520 0.950 . S
C1525 C1527 1.327 . S
C1525 C1531 1.429 . S
C1526 C1518 1.574 . S
C1526 H1521 0.949 . S
C1526 C1532 1.368 . S
C1527 C1511 1.349 . S
C1527 H1519 0.950 . S
C1527 C1525 1.327 . S
C1528 C1516 1.349 . S
C1528 H1522 0.950 . S
C1528 C1529 1.327 . S
C1529 H1523 0.950 . S
C1529 C1528 1.327 . S
C1529 C1533 1.429 . S
C1530 C1513 1.574 . S
C1530 H1524 0.949 . S
C1530 C1534 1.368 . S
C1531 C1512 1.429 . S
C1531 C1525 1.429 . S
C1531 C1532 1.523 . S
C1532 C1513 1.368 . S
C1532 C1526 1.368 . S
C1532 C1531 1.523 . S
C1533 C1517 1.429 . S
C1533 C1529 1.429 . S
C1533 C1534 1.523 . S
C1534 C1518 1.368 . S
C1534 C1530 1.368 . S
C1534 C1533 1.523 . S
H1535 C1510 0.950 . S
H1536 C1512 0.950 . S
H1537 C1513 0.949 . S
H1538 C1515 0.950 . S
H1539 C1517 0.950 . S
C1540 C1541 1.349 . S
C1540 C1542 1.327 . S
C1540 H1565 0.950 . S
C1541 C1540 1.349 . S
C1541 C1557 1.349 . S
C1542 C1540 1.327 . S
C1542 C1561 1.429 . S
C1542 H1566 0.950 . S
C1543 C1560 1.574 . S
C1543 C1562 1.368 . S
C1543 H1567 0.949 . S
H1544 C1548 0.949 . S
C1545 C1546 1.349 . S
C1545 C1547 1.327 . S
C1545 H1568 0.950 . S
C1546 C1545 1.349 . S
C1546 C1558 1.349 . S
C1547 C1545 1.327 . S
C1547 C1563 1.429 . S
C1547 H1569 0.950 . S
C1548 H1544 0.949 . S
C1548 C1556 1.574 . S
C1548 C1564 1.368 . S
H1549 C1557 0.950 . S
H1550 C1555 0.950 . S
H1551 C1556 0.949 . S
H1552 C1558 0.950 . S
H1553 C1559 0.950 . S
H1554 C1560 0.949 . S
C1555 H1550 0.950 . S
C1555 C1557 1.327 . S
C1555 C1561 1.429 . S
C1556 C1548 1.574 . S
C1556 H1551 0.949 . S
C1556 C1562 1.368 . S
C1557 C1541 1.349 . S
C1557 H1549 0.950 . S
C1557 C1555 1.327 . S
C1558 C1546 1.349 . S
C1558 H1552 0.950 . S
C1558 C1559 1.327 . S
C1559 H1553 0.950 . S
C1559 C1558 1.327 . S
C1559 C1563 1.429 . S
C1560 C1543 1.574 . S
C1560 H1554 0.949 . S
C1560 C1564 1.368 . S
C1561 C1542 1.429 . S
C1561 C1555 1.429 . S
C1561 C1562 1.523 . S
C1562 C1543 1.368 . S
C1562 C1556 1.368 . S
C1562 C1561 1.523 . S
C1563 C1547 1.429 . S
C1563 C1559 1.429 . S
C1563 C1564 1.523 . S
C1564 C1548 1.368 . S
C1564 C1560 1.368 . S
C1564 C1563 1.523 . S
H1565 C1540 0.950 . S
H1566 C1542 0.950 . S
H1567 C1543 0.949 . S
H1568 C1545 0.950 . S
H1569 C1547 0.950 . S
C1570 C1571 1.349 1_554 S
C1570 C1572 1.327 . S
C1570 H1595 0.950 . S
C1571 C1570 1.349 1_556 S
C1571 C1587 1.349 . S
C1572 C1570 1.327 . S
C1572 C1591 1.429 1_554 S
C1572 H1596 0.950 . S
C1573 C1590 1.574 1_455 S
C1573 C1592 1.368 . S
C1573 H1597 0.949 . S
H1574 C1578 0.949 . S
C1575 C1576 1.349 . S
C1575 C1577 1.327 . S
C1575 H1598 0.950 . S
C1576 C1575 1.349 . S
C1576 C1588 1.349 1_556 S
C1577 C1575 1.327 . S
C1577 C1593 1.429 . S
C1577 H1599 0.950 . S
C1578 H1574 0.949 . S
C1578 C1586 1.574 1_655 S
C1578 C1594 1.368 1_554 S
H1579 C1587 0.950 . S
H1580 C1585 0.950 . S
H1581 C1586 0.949 . S
H1582 C1588 0.950 . S
H1583 C1589 0.950 . S
H1584 C1590 0.949 . S
C1585 H1580 0.950 . S
C1585 C1587 1.327 . S
C1585 C1591 1.429 . S
C1586 C1578 1.574 1_455 S
C1586 H1581 0.949 . S
C1586 C1592 1.368 1_554 S
C1587 C1571 1.349 . S
C1587 H1579 0.950 . S
C1587 C1585 1.327 . S
C1588 C1576 1.349 1_554 S
C1588 H1582 0.950 . S
C1588 C1589 1.327 . S
C1589 H1583 0.950 . S
C1589 C1588 1.327 . S
C1589 C1593 1.429 1_554 S
C1590 C1573 1.574 1_655 S
C1590 H1584 0.949 . S
C1590 C1594 1.368 . S
C1591 C1572 1.429 1_556 S
C1591 C1585 1.429 . S
C1591 C1592 1.523 . S
C1592 C1573 1.368 . S
C1592 C1586 1.368 1_556 S
C1592 C1591 1.523 . S
C1593 C1577 1.429 . S
C1593 C1589 1.429 1_556 S
C1593 C1594 1.523 . S
C1594 C1578 1.368 1_556 S
C1594 C1590 1.368 . S
C1594 C1593 1.523 . S
H1595 C1570 0.950 . S
H1596 C1572 0.950 . S
H1597 C1573 0.949 . S
H1598 C1575 0.950 . S
H1599 C1577 0.950 . S
C1600 C1601 1.349 . S
C1600 C1602 1.327 . S
C1600 H1625 0.950 . S
C1601 C1600 1.349 . S
C1601 C1617 1.349 . S
C1602 C1600 1.327 . S
C1602 C1621 1.429 . S
C1602 H1626 0.950 . S
C1603 C1620 1.574 . S
C1603 C1622 1.368 1_556 S
C1603 H1627 0.949 . S
H1604 C1608 0.949 . S
C1605 C1606 1.349 . S
C1605 C1607 1.327 . S
C1605 H1628 0.950 . S
C1606 C1605 1.349 . S
C1606 C1618 1.349 . S
C1607 C1605 1.327 . S
C1607 C1623 1.429 . S
C1607 H1629 0.950 . S
C1608 H1604 0.949 . S
C1608 C1616 1.574 . S
C1608 C1624 1.368 1_554 S
H1609 C1617 0.950 1_556 S
H1610 C1615 0.950 . S
H1611 C1616 0.949 . S
H1612 C1618 0.950 1_554 S
H1613 C1619 0.950 . S
H1614 C1620 0.949 . S
C1615 H1610 0.950 . S
C1615 C1617 1.327 1_556 S
C1615 C1621 1.429 1_556 S
C1616 C1608 1.574 . S
C1616 H1611 0.949 . S
C1616 C1622 1.368 . S
C1617 C1601 1.349 . S
C1617 H1609 0.950 1_554 S
C1617 C1615 1.327 1_554 S
C1618 C1606 1.349 . S
C1618 H1612 0.950 1_556 S
C1618 C1619 1.327 1_556 S
C1619 H1613 0.950 . S
C1619 C1618 1.327 1_554 S
C1619 C1623 1.429 1_554 S
C1620 C1603 1.574 . S
C1620 H1614 0.949 . S
C1620 C1624 1.368 . S
C1621 C1602 1.429 . S
C1621 C1615 1.429 1_554 S
C1621 C1622 1.523 . S
C1622 C1603 1.368 1_554 S
C1622 C1616 1.368 . S
C1622 C1621 1.523 . S
C1623 C1607 1.429 . S
C1623 C1619 1.429 1_556 S
C1623 C1624 1.523 . S
C1624 C1608 1.368 1_556 S
C1624 C1620 1.368 . S
C1624 C1623 1.523 . S
H1625 C1600 0.950 . S
H1626 C1602 0.950 . S
H1627 C1603 0.949 . S
H1628 C1605 0.950 . S
H1629 C1607 0.950 . S
C1630 C1631 1.349 . S
C1630 C1632 1.327 . S
C1630 H1655 0.950 . S
C1631 C1630 1.349 . S
C1631 C1647 1.349 . S
C1632 C1630 1.327 . S
C1632 C1651 1.429 . S
C1632 H1656 0.950 . S
C1633 C1650 1.574 . S
C1633 C1652 1.368 . S
C1633 H1657 0.949 . S
H1634 C1638 0.949 . S
C1635 C1636 1.349 . S
C1635 C1637 1.327 . S
C1635 H1658 0.950 . S
C1636 C1635 1.349 . S
C1636 C1648 1.349 . S
C1637 C1635 1.327 . S
C1637 C1653 1.429 . S
C1637 H1659 0.950 . S
C1638 H1634 0.949 . S
C1638 C1646 1.574 . S
C1638 C1654 1.368 . S
H1639 C1647 0.950 . S
H1640 C1645 0.950 . S
H1641 C1646 0.949 . S
H1642 C1648 0.950 . S
H1643 C1649 0.950 . S
H1644 C1650 0.949 . S
C1645 H1640 0.950 . S
C1645 C1647 1.327 . S
C1645 C1651 1.429 . S
C1646 C1638 1.574 . S
C1646 H1641 0.949 . S
C1646 C1652 1.368 . S
C1647 C1631 1.349 . S
C1647 H1639 0.950 . S
C1647 C1645 1.327 . S
C1648 C1636 1.349 . S
C1648 H1642 0.950 . S
C1648 C1649 1.327 . S
C1649 H1643 0.950 . S
C1649 C1648 1.327 . S
C1649 C1653 1.429 . S
C1650 C1633 1.574 . S
C1650 H1644 0.949 . S
C1650 C1654 1.368 . S
C1651 C1632 1.429 . S
C1651 C1645 1.429 . S
C1651 C1652 1.523 . S
C1652 C1633 1.368 . S
C1652 C1646 1.368 . S
C1652 C1651 1.523 . S
C1653 C1637 1.429 . S
C1653 C1649 1.429 . S
C1653 C1654 1.523 . S
C1654 C1638 1.368 . S
C1654 C1650 1.368 . S
C1654 C1653 1.523 . S
H1655 C1630 0.950 . S
H1656 C1632 0.950 . S
H1657 C1633 0.949 . S
H1658 C1635 0.950 . S
H1659 C1637 0.950 . S
C1660 C1661 1.349 . S
C1660 C1662 1.327 . S
C1660 H1685 0.950 . S
C1661 C1660 1.349 . S
C1661 C1677 1.349 . S
C1662 C1660 1.327 . S
C1662 C1681 1.429 . S
C1662 H1686 0.950 . S
C1663 C1680 1.574 . S
C1663 C1682 1.368 . S
C1663 H1687 0.949 . S
H1664 C1668 0.949 . S
C1665 C1666 1.349 . S
C1665 C1667 1.327 . S
C1665 H1688 0.950 . S
C1666 C1665 1.349 . S
C1666 C1678 1.349 . S
C1667 C1665 1.327 . S
C1667 C1683 1.429 . S
C1667 H1689 0.950 . S
C1668 H1664 0.949 . S
C1668 C1676 1.574 . S
C1668 C1684 1.368 . S
H1669 C1677 0.950 . S
H1670 C1675 0.950 . S
H1671 C1676 0.949 . S
H1672 C1678 0.950 . S
H1673 C1679 0.950 . S
H1674 C1680 0.949 . S
C1675 H1670 0.950 . S
C1675 C1677 1.327 . S
C1675 C1681 1.429 . S
C1676 C1668 1.574 . S
C1676 H1671 0.949 . S
C1676 C1682 1.368 . S
C1677 C1661 1.349 . S
C1677 H1669 0.950 . S
C1677 C1675 1.327 . S
C1678 C1666 1.349 . S
C1678 H1672 0.950 . S
C1678 C1679 1.327 . S
C1679 H1673 0.950 . S
C1679 C1678 1.327 . S
C1679 C1683 1.429 . S
C1680 C1663 1.574 . S
C1680 H1674 0.949 . S
C1680 C1684 1.368 . S
C1681 C1662 1.429 . S
C1681 C1675 1.429 . S
C1681 C1682 1.523 . S
C1682 C1663 1.368 . S
C1682 C1676 1.368 . S
C1682 C1681 1.523 . S
C1683 C1667 1.429 . S
C1683 C1679 1.429 . S
C1683 C1684 1.523 . S
C1684 C1668 1.368 . S
C1684 C1680 1.368 . S
C1684 C1683 1.523 . S
H1685 C1660 0.950 . S
H1686 C1662 0.950 . S
H1687 C1663 0.949 . S
H1688 C1665 0.950 . S
H1689 C1667 0.950 . S
C1690 C1691 1.349 . S
C1690 C1692 1.327 . S
C1690 H1715 0.950 . S
C1691 C1690 1.349 . S
C1691 C1707 1.349 . S
C1692 C1690 1.327 . S
C1692 C1711 1.429 . S
C1692 H1716 0.950 . S
C1693 C1710 1.574 . S
C1693 C1712 1.368 . S
C1693 H1717 0.949 . S
H1694 C1698 0.949 . S
C1695 C1696 1.349 . S
C1695 C1697 1.327 . S
C1695 H1718 0.950 . S
C1696 C1695 1.349 . S
C1696 C1708 1.349 . S
C1697 C1695 1.327 . S
C1697 C1713 1.429 . S
C1697 H1719 0.950 . S
C1698 H1694 0.949 . S
C1698 C1706 1.574 . S
C1698 C1714 1.368 . S
H1699 C1707 0.950 . S
H1700 C1705 0.950 . S
H1701 C1706 0.949 . S
H1702 C1708 0.950 . S
H1703 C1709 0.950 . S
H1704 C1710 0.949 . S
C1705 H1700 0.950 . S
C1705 C1707 1.327 . S
C1705 C1711 1.429 . S
C1706 C1698 1.574 . S
C1706 H1701 0.949 . S
C1706 C1712 1.368 . S
C1707 C1691 1.349 . S
C1707 H1699 0.950 . S
C1707 C1705 1.327 . S
C1708 C1696 1.349 . S
C1708 H1702 0.950 . S
C1708 C1709 1.327 . S
C1709 H1703 0.950 . S
C1709 C1708 1.327 . S
C1709 C1713 1.429 . S
C1710 C1693 1.574 . S
C1710 H1704 0.949 . S
C1710 C1714 1.368 . S
C1711 C1692 1.429 . S
C1711 C1705 1.429 . S
C1711 C1712 1.523 . S
C1712 C1693 1.368 . S
C1712 C1706 1.368 . S
C1712 C1711 1.523 . S
C1713 C1697 1.429 . S
C1713 C1709 1.429 . S
C1713 C1714 1.523 . S
C1714 C1698 1.368 . S
C1714 C1710 1.368 . S
C1714 C1713 1.523 . S
H1715 C1690 0.950 . S
H1716 C1692 0.950 . S
H1717 C1693 0.949 . S
H1718 C1695 0.950 . S
H1719 C1697 0.950 . S
C1720 C1721 1.349 . S
C1720 C1722 1.327 . S
C1720 H1745 0.950 . S
C1721 C1720 1.349 . S
C1721 C1737 1.349 1_554 S
C1722 C1720 1.327 . S
C1722 C1741 1.429 . S
C1722 H1746 0.950 . S
C1723 C1740 1.574 . S
C1723 C1742 1.368 1_556 S
C1723 H1747 0.949 . S
H1724 C1728 0.949 . S
C1725 C1726 1.349 . S
C1725 C1727 1.327 . S
C1725 H1748 0.950 . S
C1726 C1725 1.349 . S
C1726 C1738 1.349 1_556 S
C1727 C1725 1.327 . S
C1727 C1743 1.429 . S
C1727 H1749 0.950 . S
C1728 H1724 0.949 . S
C1728 C1736 1.574 . S
C1728 C1744 1.368 1_554 S
H1729 C1737 0.950 . S
H1730 C1735 0.950 . S
H1731 C1736 0.949 . S
H1732 C1738 0.950 . S
H1733 C1739 0.950 . S
H1734 C1740 0.949 . S
C1735 H1730 0.950 . S
C1735 C1737 1.327 . S
C1735 C1741 1.429 1_556 S
C1736 C1728 1.574 . S
C1736 H1731 0.949 . S
C1736 C1742 1.368 . S
C1737 C1721 1.349 1_556 S
C1737 H1729 0.950 . S
C1737 C1735 1.327 . S
C1738 C1726 1.349 1_554 S
C1738 H1732 0.950 . S
C1738 C1739 1.327 . S
C1739 H1733 0.950 . S
C1739 C1738 1.327 . S
C1739 C1743 1.429 1_554 S
C1740 C1723 1.574 . S
C1740 H1734 0.949 . S
C1740 C1744 1.368 . S
C1741 C1722 1.429 . S
C1741 C1735 1.429 1_554 S
C1741 C1742 1.523 . S
C1742 C1723 1.368 1_554 S
C1742 C1736 1.368 . S
C1742 C1741 1.523 . S
C1743 C1727 1.429 . S
C1743 C1739 1.429 1_556 S
C1743 C1744 1.523 . S
C1744 C1728 1.368 1_556 S
C1744 C1740 1.368 . S
C1744 C1743 1.523 . S
H1745 C1720 0.950 . S
H1746 C1722 0.950 . S
H1747 C1723 0.949 . S
H1748 C1725 0.950 . S
H1749 C1727 0.950 . S
C1750 C1751 1.349 . S
C1750 C1752 1.327 . S
C1750 H1775 0.950 . S
C1751 C1750 1.349 . S
C1751 C1767 1.349 . S
C1752 C1750 1.327 . S
C1752 C1771 1.429 . S
C1752 H1776 0.950 . S
C1753 C1770 1.574 . S
C1753 C1772 1.368 . S
C1753 H1777 0.949 . S
H1754 C1758 0.949 . S
C1755 C1756 1.349 . S
C1755 C1757 1.327 . S
C1755 H1778 0.950 . S
C1756 C1755 1.349 . S
C1756 C1768 1.349 . S
C1757 C1755 1.327 . S
C1757 C1773 1.429 . S
C1757 H1779 0.950 . S
C1758 H1754 0.949 . S
C1758 C1766 1.574 . S
C1758 C1774 1.368 . S
H1759 C1767 0.950 . S
H1760 C1765 0.950 . S
H1761 C1766 0.949 . S
H1762 C1768 0.950 . S
H1763 C1769 0.950 . S
H1764 C1770 0.949 . S
C1765 H1760 0.950 . S
C1765 C1767 1.327 . S
C1765 C1771 1.429 . S
C1766 C1758 1.574 . S
C1766 H1761 0.949 . S
C1766 C1772 1.368 . S
C1767 C1751 1.349 . S
C1767 H1759 0.950 . S
C1767 C1765 1.327 . S
C1768 C1756 1.349 . S
C1768 H1762 0.950 . S
C1768 C1769 1.327 . S
C1769 H1763 0.950 . S
C1769 C1768 1.327 . S
C1769 C1773 1.429 . S
C1770 C1753 1.574 . S
C1770 H1764 0.949 . S
C1770 C1774 1.368 . S
C1771 C1752 1.429 . S
C1771 C1765 1.429 . S
C1771 C1772 1.523 . S
C1772 C1753 1.368 . S
C1772 C1766 1.368 . S
C1772 C1771 1.523 . S
C1773 C1757 1.429 . S
C1773 C1769 1.429 . S
C1773 C1774 1.523 . S
C1774 C1758 1.368 . S
C1774 C1770 1.368 . S
C1774 C1773 1.523 . S
H1775 C1750 0.950 . S
H1776 C1752 0.950 . S
H1777 C1753 0.949 . S
H1778 C1755 0.950 . S
H1779 C1757 0.950 . S
C1780 C1781 1.349 . S
C1780 C1782 1.327 . S
C1780 H1805 0.950 . S
C1781 C1780 1.349 . S
C1781 C1797 1.349 . S
C1782 C1780 1.327 . S
C1782 C1801 1.429 . S
C1782 H1806 0.950 . S
C1783 C1800 1.574 . S
C1783 C1802 1.368 . S
C1783 H1807 0.949 . S
H1784 C1788 0.949 . S
C1785 C1786 1.349 . S
C1785 C1787 1.327 . S
C1785 H1808 0.950 . S
C1786 C1785 1.349 . S
C1786 C1798 1.349 . S
C1787 C1785 1.327 . S
C1787 C1803 1.429 . S
C1787 H1809 0.950 . S
C1788 H1784 0.949 . S
C1788 C1796 1.574 . S
C1788 C1804 1.368 . S
H1789 C1797 0.950 . S
H1790 C1795 0.950 . S
H1791 C1796 0.949 . S
H1792 C1798 0.950 . S
H1793 C1799 0.950 . S
H1794 C1800 0.949 . S
C1795 H1790 0.950 . S
C1795 C1797 1.327 . S
C1795 C1801 1.429 . S
C1796 C1788 1.574 . S
C1796 H1791 0.949 . S
C1796 C1802 1.368 . S
C1797 C1781 1.349 . S
C1797 H1789 0.950 . S
C1797 C1795 1.327 . S
C1798 C1786 1.349 . S
C1798 H1792 0.950 . S
C1798 C1799 1.327 . S
C1799 H1793 0.950 . S
C1799 C1798 1.327 . S
C1799 C1803 1.429 . S
C1800 C1783 1.574 . S
C1800 H1794 0.949 . S
C1800 C1804 1.368 . S
C1801 C1782 1.429 . S
C1801 C1795 1.429 . S
C1801 C1802 1.523 . S
C1802 C1783 1.368 . S
C1802 C1796 1.368 . S
C1802 C1801 1.523 . S
C1803 C1787 1.429 . S
C1803 C1799 1.429 . S
C1803 C1804 1.523 . S
C1804 C1788 1.368 . S
C1804 C1800 1.368 . S
C1804 C1803 1.523 . S
H1805 C1780 0.950 . S
H1806 C1782 0.950 . S
H1807 C1783 0.949 . S
H1808 C1785 0.950 . S
H1809 C1787 0.950 . S
C1810 C1811 1.349 . S
C1810 C1812 1.327 . S
C1810 H1835 0.950 . S
C1811 C1810 1.349 . S
C1811 C1827 1.349 . S
C1812 C1810 1.327 . S
C1812 C1831 1.429 . S
C1812 H1836 0.950 . S
C1813 C1830 1.574 . S
C1813 C1832 1.368 . S
C1813 H1837 0.949 . S
H1814 C1818 0.949 . S
C1815 C1816 1.349 . S
C1815 C1817 1.327 . S
C1815 H1838 0.950 . S
C1816 C1815 1.349 . S
C1816 C1828 1.349 . S
C1817 C1815 1.327 . S
C1817 C1833 1.429 . S
C1817 H1839 0.950 . S
C1818 H1814 0.949 . S
C1818 C1826 1.574 . S
C1818 C1834 1.368 . S
H1819 C1827 0.950 . S
H1820 C1825 0.950 . S
H1821 C1826 0.949 . S
H1822 C1828 0.950 . S
H1823 C1829 0.950 . S
H1824 C1830 0.949 . S
C1825 H1820 0.950 . S
C1825 C1827 1.327 . S
C1825 C1831 1.429 . S
C1826 C1818 1.574 . S
C1826 H1821 0.949 . S
C1826 C1832 1.368 . S
C1827 C1811 1.349 . S
C1827 H1819 0.950 . S
C1827 C1825 1.327 . S
C1828 C1816 1.349 . S
C1828 H1822 0.950 . S
C1828 C1829 1.327 . S
C1829 H1823 0.950 . S
C1829 C1828 1.327 . S
C1829 C1833 1.429 . S
C1830 C1813 1.574 . S
C1830 H1824 0.949 . S
C1830 C1834 1.368 . S
C1831 C1812 1.429 . S
C1831 C1825 1.429 . S
C1831 C1832 1.523 . S
C1832 C1813 1.368 . S
C1832 C1826 1.368 . S
C1832 C1831 1.523 . S
C1833 C1817 1.429 . S
C1833 C1829 1.429 . S
C1833 C1834 1.523 . S
C1834 C1818 1.368 . S
C1834 C1830 1.368 . S
C1834 C1833 1.523 . S
H1835 C1810 0.950 . S
H1836 C1812 0.950 . S
H1837 C1813 0.949 . S
H1838 C1815 0.950 . S
H1839 C1817 0.950 . S
C1840 C1841 1.349 . S
C1840 C1842 1.327 . S
C1840 H1865 0.950 . S
C1841 C1840 1.349 . S
C1841 C1857 1.349 . S
C1842 C1840 1.327 . S
C1842 C1861 1.429 . S
C1842 H1866 0.950 . S
C1843 C1860 1.574 1_565 S
C1843 C1862 1.368 . S
C1843 H1867 0.949 . S
H1844 C1848 0.949 . S
C1845 C1846 1.349 . S
C1845 C1847 1.327 . S
C1845 H1868 0.950 . S
C1846 C1845 1.349 . S
C1846 C1858 1.349 . S
C1847 C1845 1.327 . S
C1847 C1863 1.429 . S
C1847 H1869 0.950 . S
C1848 H1844 0.949 . S
C1848 C1856 1.574 1_545 S
C1848 C1864 1.368 . S
H1849 C1857 0.950 . S
H1850 C1855 0.950 . S
H1851 C1856 0.949 . S
H1852 C1858 0.950 . S
H1853 C1859 0.950 . S
H1854 C1860 0.949 . S
C1855 H1850 0.950 . S
C1855 C1857 1.327 . S
C1855 C1861 1.429 . S
C1856 C1848 1.574 1_565 S
C1856 H1851 0.949 . S
C1856 C1862 1.368 . S
C1857 C1841 1.349 . S
C1857 H1849 0.950 . S
C1857 C1855 1.327 . S
C1858 C1846 1.349 . S
C1858 H1852 0.950 . S
C1858 C1859 1.327 . S
C1859 H1853 0.950 . S
C1859 C1858 1.327 . S
C1859 C1863 1.429 . S
C1860 C1843 1.574 1_545 S
C1860 H1854 0.949 . S
C1860 C1864 1.368 . S
C1861 C1842 1.429 . S
C1861 C1855 1.429 . S
C1861 C1862 1.523 . S
C1862 C1843 1.368 . S
C1862 C1856 1.368 . S
C1862 C1861 1.523 . S
C1863 C1847 1.429 . S
C1863 C1859 1.429 . S
C1863 C1864 1.523 . S
C1864 C1848 1.368 . S
C1864 C1860 1.368 . S
C1864 C1863 1.523 . S
H1865 C1840 0.950 . S
H1866 C1842 0.950 . S
H1867 C1843 0.949 . S
H1868 C1845 0.950 . S
H1869 C1847 0.950 . S
C1870 C1871 1.349 . S
C1870 C1872 1.327 . S
C1870 H1895 0.950 . S
C1871 C1870 1.349 . S
C1871 C1887 1.349 . S
C1872 C1870 1.327 . S
C1872 C1891 1.429 . S
C1872 H1896 0.950 . S
C1873 C1890 1.574 . S
C1873 C1892 1.368 . S
C1873 H1897 0.949 . S
H1874 C1878 0.949 . S
C1875 C1876 1.349 . S
C1875 C1877 1.327 . S
C1875 H1898 0.950 . S
C1876 C1875 1.349 . S
C1876 C1888 1.349 . S
C1877 C1875 1.327 . S
C1877 C1893 1.429 . S
C1877 H1899 0.950 . S
C1878 H1874 0.949 . S
C1878 C1886 1.574 . S
C1878 C1894 1.368 . S
H1879 C1887 0.950 . S
H1880 C1885 0.950 . S
H1881 C1886 0.949 . S
H1882 C1888 0.950 . S
H1883 C1889 0.950 . S
H1884 C1890 0.949 . S
C1885 H1880 0.950 . S
C1885 C1887 1.327 . S
C1885 C1891 1.429 . S
C1886 C1878 1.574 . S
C1886 H1881 0.949 . S
C1886 C1892 1.368 . S
C1887 C1871 1.349 . S
C1887 H1879 0.950 . S
C1887 C1885 1.327 . S
C1888 C1876 1.349 . S
C1888 H1882 0.950 . S
C1888 C1889 1.327 . S
C1889 H1883 0.950 . S
C1889 C1888 1.327 . S
C1889 C1893 1.429 . S
C1890 C1873 1.574 . S
C1890 H1884 0.949 . S
C1890 C1894 1.368 . S
C1891 C1872 1.429 . S
C1891 C1885 1.429 . S
C1891 C1892 1.523 . S
C1892 C1873 1.368 . S
C1892 C1886 1.368 . S
C1892 C1891 1.523 . S
C1893 C1877 1.429 . S
C1893 C1889 1.429 . S
C1893 C1894 1.523 . S
C1894 C1878 1.368 . S
C1894 C1890 1.368 . S
C1894 C1893 1.523 . S
H1895 C1870 0.950 . S
H1896 C1872 0.950 . S
H1897 C1873 0.949 . S
H1898 C1875 0.950 . S
H1899 C1877 0.950 . S
C1900 C1901 1.349 1_556 S
C1900 C1902 1.327 . S
C1900 H1925 0.950 . S
C1901 C1900 1.349 1_554 S
C1901 C1917 1.349 . S
C1902 C1900 1.327 . S
C1902 C1921 1.429 1_556 S
C1902 H1926 0.950 . S
C1903 C1920 1.574 1_565 S
C1903 C1922 1.368 . S
C1903 H1927 0.949 . S
H1904 C1908 0.949 . S
C1905 C1906 1.349 1_554 S
C1905 C1907 1.327 . S
C1905 H1928 0.950 . S
C1906 C1905 1.349 1_556 S
C1906 C1918 1.349 . S
C1907 C1905 1.327 . S
C1907 C1923 1.429 1_554 S
C1907 H1929 0.950 . S
C1908 H1904 0.949 . S
C1908 C1916 1.574 1_545 S
C1908 C1924 1.368 . S
H1909 C1917 0.950 . S
H1910 C1915 0.950 . S
H1911 C1916 0.949 . S
H1912 C1918 0.950 . S
H1913 C1919 0.950 . S
H1914 C1920 0.949 . S
C1915 H1910 0.950 . S
C1915 C1917 1.327 . S
C1915 C1921 1.429 . S
C1916 C1908 1.574 1_565 S
C1916 H1911 0.949 . S
C1916 C1922 1.368 1_556 S
C1917 C1901 1.349 . S
C1917 H1909 0.950 . S
C1917 C1915 1.327 . S
C1918 C1906 1.349 . S
C1918 H1912 0.950 . S
C1918 C1919 1.327 . S
C1919 H1913 0.950 . S
C1919 C1918 1.327 . S
C1919 C1923 1.429 . S
C1920 C1903 1.574 1_545 S
C1920 H1914 0.949 . S
C1920 C1924 1.368 1_554 S
C1921 C1902 1.429 1_554 S
C1921 C1915 1.429 . S
C1921 C1922 1.523 . S
C1922 C1903 1.368 . S
C1922 C1916 1.368 1_554 S
C1922 C1921 1.523 . S
C1923 C1907 1.429 1_556 S
C1923 C1919 1.429 . S
C1923 C1924 1.523 . S
C1924 C1908 1.368 . S
C1924 C1920 1.368 1_556 S
C1924 C1923 1.523 . S
H1925 C1900 0.950 . S
H1926 C1902 0.950 . S
H1927 C1903 0.949 . S
H1928 C1905 0.950 . S
H1929 C1907 0.950 . S
C1930 C1931 1.349 . S
C1930 C1932 1.327 . S
C1930 H1955 0.950 . S
C1931 C1930 1.349 . S
C1931 C1947 1.349 . S
C1932 C1930 1.327 . S
C1932 C1951 1.429 . S
C1932 H1956 0.950 . S
C1933 C1950 1.574 . S
C1933 C1952 1.368 . S
C1933 H1957 0.949 . S
H1934 C1938 0.949 . S
C1935 C1936 1.349 . S
C1935 C1937 1.327 . S
C1935 H1958 0.950 . S
C1936 C1935 1.349 . S
C1936 C1948 1.349 . S
C1937 C1935 1.327 . S
C1937 C1953 1.429 . S
C1937 H1959 0.950 . S
C1938 H1934 0.949 . S
C1938 C1946 1.574 . S
C1938 C1954 1.368 . S
H1939 C1947 0.950 . S
H1940 C1945 0.950 . S
H1941 C1946 0.949 . S
H1942 C1948 0.950 . S
H1943 C1949 0.950 . S
H1944 C1950 0.949 . S
C1945 H1940 0.950 . S
C1945 C1947 1.327 . S
C1945 C1951 1.429 . S
C1946 C1938 1.574 . S
C1946 H1941 0.949 . S
C1946 C1952 1.368 . S
C1947 C1931 1.349 . S
C1947 H1939 0.950 . S
C1947 C1945 1.327 . S
C1948 C1936 1.349 . S
C1948 H1942 0.950 . S
C1948 C1949 1.327 . S
C1949 H1943 0.950 . S
C1949 C1948 1.327 . S
C1949 C1953 1.429 . S
C1950 C1933 1.574 . S
C1950 H1944 0.949 . S
C1950 C1954 1.368 . S
C1951 C1932 1.429 . S
C1951 C1945 1.429 . S
C1951 C1952 1.523 . S
C1952 C1933 1.368 . S
C1952 C1946 1.368 . S
C1952 C1951 1.523 . S
C1953 C1937 1.429 . S
C1953 C1949 1.429 . S
C1953 C1954 1.523 . S
C1954 C1938 1.368 . S
C1954 C1950 1.368 . S
C1954 C1953 1.523 . S
H1955 C1930 0.950 . S
H1956 C1932 0.950 . S
H1957 C1933 0.949 . S
H1958 C1935 0.950 . S
H1959 C1937 0.950 . S
C1960 C1961 1.349 . S
C1960 C1962 1.327 . S
C1960 H1985 0.950 . S
C1961 C1960 1.349 . S
C1961 C1977 1.349 . S
C1962 C1960 1.327 . S
C1962 C1981 1.429 . S
C1962 H1986 0.950 . S
C1963 C1980 1.574 1_565 S
C1963 C1982 1.368 . S
C1963 H1987 0.949 . S
H1964 C1968 0.949 . S
C1965 C1966 1.349 . S
C1965 C1967 1.327 . S
C1965 H1988 0.950 . S
C1966 C1965 1.349 . S
C1966 C1978 1.349 . S
C1967 C1965 1.327 . S
C1967 C1983 1.429 . S
C1967 H1989 0.950 . S
C1968 H1964 0.949 . S
C1968 C1976 1.574 1_545 S
C1968 C1984 1.368 . S
H1969 C1977 0.950 . S
H1970 C1975 0.950 . S
H1971 C1976 0.949 . S
H1972 C1978 0.950 . S
H1973 C1979 0.950 . S
H1974 C1980 0.949 . S
C1975 H1970 0.950 . S
C1975 C1977 1.327 . S
C1975 C1981 1.429 . S
C1976 C1968 1.574 1_565 S
C1976 H1971 0.949 . S
C1976 C1982 1.368 . S
C1977 C1961 1.349 . S
C1977 H1969 0.950 . S
C1977 C1975 1.327 . S
C1978 C1966 1.349 . S
C1978 H1972 0.950 . S
C1978 C1979 1.327 . S
C1979 H1973 0.950 . S
C1979 C1978 1.327 . S
C1979 C1983 1.429 . S
C1980 C1963 1.574 1_545 S
C1980 H1974 0.949 . S
C1980 C1984 1.368 . S
C1981 C1962 1.429 . S
C1981 C1975 1.429 . S
C1981 C1982 1.523 . S
C1982 C1963 1.368 . S
C1982 C1976 1.368 . S
C1982 C1981 1.523 . S
C1983 C1967 1.429 . S
C1983 C1979 1.429 . S
C1983 C1984 1.523 . S
C1984 C1968 1.368 . S
C1984 C1980 1.368 . S
C1984 C1983 1.523 . S
H1985 C1960 0.950 . S
H1986 C1962 0.950 . S
H1987 C1963 0.949 . S
H1988 C1965 0.950 . S
H1989 C1967 0.950 . S
C1990 C1991 1.349 . S
C1990 C1992 1.327 . S
C1990 H2015 0.950 . S
C1991 C1990 1.349 . S
C1991 C2007 1.349 . S
C1992 C1990 1.327 . S
C1992 C2011 1.429 . S
C1992 H2016 0.950 . S
C1993 C2010 1.574 . S
C1993 C2012 1.368 . S
C1993 H2017 0.949 . S
H1994 C1998 0.949 . S
C1995 C1996 1.349 . S
C1995 C1997 1.327 . S
C1995 H2018 0.950 . S
C1996 C1995 1.349 . S
C1996 C2008 1.349 . S
C1997 C1995 1.327 . S
C1997 C2013 1.429 . S
C1997 H2019 0.950 . S
C1998 H1994 0.949 . S
C1998 C2006 1.574 . S
C1998 C2014 1.368 . S
H1999 C2007 0.950 . S
H2000 C2005 0.950 . S
H2001 C2006 0.949 . S
H2002 C2008 0.950 . S
H2003 C2009 0.950 . S
H2004 C2010 0.949 . S
C2005 H2000 0.950 . S
C2005 C2007 1.327 . S
C2005 C2011 1.429 . S
C2006 C1998 1.574 . S
C2006 H2001 0.949 . S
C2006 C2012 1.368 . S
C2007 C1991 1.349 . S
C2007 H1999 0.950 . S
C2007 C2005 1.327 . S
C2008 C1996 1.349 . S
C2008 H2002 0.950 . S
C2008 C2009 1.327 . S
C2009 H2003 0.950 . S
C2009 C2008 1.327 . S
C2009 C2013 1.429 . S
C2010 C1993 1.574 . S
C2010 H2004 0.949 . S
C2010 C2014 1.368 . S
C2011 C1992 1.429 . S
C2011 C2005 1.429 . S
C2011 C2012 1.523 . S
C2012 C1993 1.368 . S
C2012 C2006 1.368 . S
C2012 C2011 1.523 . S
C2013 C1997 1.429 . S
C2013 C2009 1.429 . S
C2013 C2014 1.523 . S
C2014 C1998 1.368 . S
C2014 C2010 1.368 . S
C2014 C2013 1.523 . S
H2015 C1990 0.950 . S
H2016 C1992 0.950 . S
H2017 C1993 0.949 . S
H2018 C1995 0.950 . S
H2019 C1997 0.950 . S
C2020 C2021 1.349 1_554 S
C2020 C2022 1.327 . S
C2020 H2045 0.950 . S
C2021 C2020 1.349 1_556 S
C2021 C2037 1.349 . S
C2022 C2020 1.327 . S
C2022 C2041 1.429 1_554 S
C2022 H2046 0.950 . S
C2023 C2040 1.574 1_545 S
C2023 C2042 1.368 . S
C2023 H2047 0.949 . S
H2024 C2028 0.949 . S
C2025 C2026 1.349 1_556 S
C2025 C2027 1.327 . S
C2025 H2048 0.950 . S
C2026 C2025 1.349 1_554 S
C2026 C2038 1.349 . S
C2027 C2025 1.327 . S
C2027 C2043 1.429 1_556 S
C2027 H2049 0.950 . S
C2028 H2024 0.949 . S
C2028 C2036 1.574 1_565 S
C2028 C2044 1.368 . S
H2029 C2037 0.950 . S
H2030 C2035 0.950 . S
H2031 C2036 0.949 . S
H2032 C2038 0.950 . S
H2033 C2039 0.950 . S
H2034 C2040 0.949 . S
C2035 H2030 0.950 . S
C2035 C2037 1.327 . S
C2035 C2041 1.429 . S
C2036 C2028 1.574 1_545 S
C2036 H2031 0.949 . S
C2036 C2042 1.368 1_554 S
C2037 C2021 1.349 . S
C2037 H2029 0.950 . S
C2037 C2035 1.327 . S
C2038 C2026 1.349 . S
C2038 H2032 0.950 . S
C2038 C2039 1.327 . S
C2039 H2033 0.950 . S
C2039 C2038 1.327 . S
C2039 C2043 1.429 . S
C2040 C2023 1.574 1_565 S
C2040 H2034 0.949 . S
C2040 C2044 1.368 1_556 S
C2041 C2022 1.429 1_556 S
C2041 C2035 1.429 . S
C2041 C2042 1.523 . S
C2042 C2023 1.368 . S
C2042 C2036 1.368 1_556 S
C2042 C2041 1.523 . S
C2043 C2027 1.429 1_554 S
C2043 C2039 1.429 . S
C2043 C2044 1.523 . S
C2044 C2028 1.368 . S
C2044 C2040 1.368 1_554 S
C2044 C2043 1.523 . S
H2045 C2020 0.950 . S
H2046 C2022 0.950 . S
H2047 C2023 0.949 . S
H2048 C2025 0.950 . S
H2049 C2027 0.950 . S
C2050 C2051 1.349 . S
C2050 C2052 1.327 . S
C2050 H2075 0.950 . S
C2051 C2050 1.349 . S
C2051 C2067 1.349 . S
C2052 C2050 1.327 . S
C2052 C2071 1.429 . S
C2052 H2076 0.950 . S
C2053 C2070 1.574 . S
C2053 C2072 1.368 . S
C2053 H2077 0.949 . S
H2054 C2058 0.949 . S
C2055 C2056 1.349 . S
C2055 C2057 1.327 . S
C2055 H2078 0.950 . S
C2056 C2055 1.349 . S
C2056 C2068 1.349 . S
C2057 C2055 1.327 . S
C2057 C2073 1.429 . S
C2057 H2079 0.950 . S
C2058 H2054 0.949 . S
C2058 C2066 1.574 . S
C2058 C2074 1.368 . S
H2059 C2067 0.950 . S
H2060 C2065 0.950 . S
H2061 C2066 0.949 . S
H2062 C2068 0.950 . S
H2063 C2069 0.950 . S
H2064 C2070 0.949 . S
C2065 H2060 0.950 . S
C2065 C2067 1.327 . S
C2065 C2071 1.429 . S
C2066 C2058 1.574 . S
C2066 H2061 0.949 . S
C2066 C2072 1.368 . S
C2067 C2051 1.349 . S
C2067 H2059 0.950 . S
C2067 C2065 1.327 . S
C2068 C2056 1.349 . S
C2068 H2062 0.950 . S
C2068 C2069 1.327 . S
C2069 H2063 0.950 . S
C2069 C2068 1.327 . S
C2069 C2073 1.429 . S
C2070 C2053 1.574 . S
C2070 H2064 0.949 . S
C2070 C2074 1.368 . S
C2071 C2052 1.429 . S
C2071 C2065 1.429 . S
C2071 C2072 1.523 . S
C2072 C2053 1.368 . S
C2072 C2066 1.368 . S
C2072 C2071 1.523 . S
C2073 C2057 1.429 . S
C2073 C2069 1.429 . S
C2073 C2074 1.523 . S
C2074 C2058 1.368 . S
C2074 C2070 1.368 . S
C2074 C2073 1.523 . S
H2075 C2050 0.950 . S
H2076 C2052 0.950 . S
H2077 C2053 0.949 . S
H2078 C2055 0.950 . S
H2079 C2057 0.950 . S
C641 C6 1.611 . S
C646 C15 1.611 . S
C671 C55 1.611 . S
C676 C46 1.611 . S
C701 C86 1.611 . S
C706 C95 1.611 . S
C731 C135 1.611 . S
C736 C126 1.611 . S
C761 C166 1.611 . S
C766 C175 1.611 . S
C791 C206 1.611 . S
C796 C215 1.611 . S
C821 C246 1.611 . S
C826 C255 1.611 . S
C851 C295 1.611 . S
C856 C286 1.611 . S
C881 C335 1.611 . S
C886 C326 1.611 . S
C911 C375 1.611 . S
C916 C366 1.611 . S
C941 C406 1.611 . S
C946 C415 1.611 . S
C971 C446 1.611 . S
C976 C455 1.611 . S
C1001 C495 1.611 . S
C1006 C486 1.611 . S
C1031 C526 1.611 . S
C1036 C535 1.611 . S
C1061 C575 1.611 . S
C1066 C566 1.611 . S
C1091 C606 1.611 . S
C1096 C615 1.611 . S
C1121 C9 1.467 . S
C1126 C458 1.467 . S
C1151 C50 2.091 . S
C1156 C619 2.091 . S
C1181 C89 1.467 . S
C1186 C378 1.467 . S
C1211 C130 2.091 1_554 S
C1216 C539 2.091 1_554 S
C1241 C169 1.467 . S
C1246 C538 1.467 . S
C1271 C459 2.091 1_556 S
C1276 C210 2.091 1_556 S
C1301 C249 1.467 . S
C1306 C618 1.467 . S
C1331 C290 2.091 . S
C1336 C379 2.091 . S
C1361 C129 1.467 . S
C1366 C338 1.467 . S
C1391 C49 1.467 . S
C1396 C418 1.467 . S
C1421 C498 1.467 . S
C1426 C209 1.467 . S
C1451 C289 1.467 . S
C1456 C578 1.467 . S
C1481 C339 2.091 1_554 S
C1486 C170 2.091 1_554 S
C1511 C250 2.091 . S
C1516 C419 2.091 . S
C1541 C90 2.091 . S
C1546 C579 2.091 . S
C1571 C10 2.091 1_556 S
C1576 C499 2.091 1_556 S
C1601 C18 1.503 . S
C1606 C178 1.503 . S
C1631 C59 2.014 . S
C1636 C219 2.014 . S
C1661 C98 1.503 . S
C1666 C258 1.503 . S
C1691 C139 2.014 . S
C1696 C299 2.014 . S
C1721 C489 1.503 . S
C1726 C329 1.503 . S
C1751 C530 2.014 . S
C1756 C370 2.014 . S
C1781 C409 1.503 . S
C1786 C569 1.503 . S
C1811 C610 2.014 . S
C1816 C450 2.014 . S
C1841 C58 1.503 . S
C1846 C298 1.503 . S
C1871 C179 2.014 . S
C1876 C99 2.014 . S
C1901 C218 1.503 . S
C1906 C138 1.503 . S
C1931 C19 2.014 . S
C1936 C259 2.014 . S
C1961 C609 1.503 . S
C1966 C369 1.503 . S
C1991 C490 2.014 . S
C1996 C410 2.014 . S
C2021 C529 1.503 . S
C2026 C449 1.503 . S
C2051 C570 2.014 . S
C2056 C330 2.014 . S
