# Generated by pormake.
# Topology why, (6)-cn, num edge types: 1
# Building blocks:
#     Node 0, Type 0, BuildingBlock: PAMTOO_clean_sbu_0, # of connection points: 6
#     Node 1, Type 0, BuildingBlock: PAMTOO_clean_sbu_0, # of connection points: 6
#     Node 2, Type 0, BuildingBlock: PAMTOO_clean_sbu_0, # of connection points: 6
#     Node 3, Type 0, BuildingBlock: PAMTOO_clean_sbu_0, # of connection points: 6
#     Node 4, Type 0, BuildingBlock: PAMTOO_clean_sbu_0, # of connection points: 6
#     Node 5, Type 0, BuildingBlock: PAMTOO_clean_sbu_0, # of connection points: 6
#     Node 6, Type 0, BuildingBlock: PAMTOO_clean_sbu_0, # of connection points: 6
#     Node 7, Type 0, BuildingBlock: PAMTOO_clean_sbu_0, # of connection points: 6
#     Node 8, Type 0, BuildingBlock: PAMTOO_clean_sbu_0, # of connection points: 6
#     Node 9, Type 0, BuildingBlock: PAMTOO_clean_sbu_0, # of connection points: 6
#     Node 10, Type 0, BuildingBlock: PAMTOO_clean_sbu_0, # of connection points: 6
#     Node 11, Type 0, BuildingBlock: PAMTOO_clean_sbu_0, # of connection points: 6
#     Node 12, Type 0, BuildingBlock: PAMTOO_clean_sbu_0, # of connection points: 6
#     Node 13, Type 0, BuildingBlock: PAMTOO_clean_sbu_0, # of connection points: 6
#     Node 14, Type 0, BuildingBlock: PAMTOO_clean_sbu_0, # of connection points: 6
#     Node 15, Type 0, BuildingBlock: PAMTOO_clean_sbu_0, # of connection points: 6
#     Edge 16, Type (0, 0), BuildingBlock: EZIPEK_clean_linker_0, # of connection points: 2
#     Edge 17, Type (0, 0), BuildingBlock: EZIPEK_clean_linker_0, # of connection points: 2
#     Edge 18, Type (0, 0), BuildingBlock: EZIPEK_clean_linker_0, # of connection points: 2
#     Edge 19, Type (0, 0), BuildingBlock: EZIPEK_clean_linker_0, # of connection points: 2
#     Edge 20, Type (0, 0), BuildingBlock: EZIPEK_clean_linker_0, # of connection points: 2
#     Edge 21, Type (0, 0), BuildingBlock: EZIPEK_clean_linker_0, # of connection points: 2
#     Edge 22, Type (0, 0), BuildingBlock: EZIPEK_clean_linker_0, # of connection points: 2
#     Edge 23, Type (0, 0), BuildingBlock: EZIPEK_clean_linker_0, # of connection points: 2
#     Edge 24, Type (0, 0), BuildingBlock: EZIPEK_clean_linker_0, # of connection points: 2
#     Edge 25, Type (0, 0), BuildingBlock: EZIPEK_clean_linker_0, # of connection points: 2
#     Edge 26, Type (0, 0), BuildingBlock: EZIPEK_clean_linker_0, # of connection points: 2
#     Edge 27, Type (0, 0), BuildingBlock: EZIPEK_clean_linker_0, # of connection points: 2
#     Edge 28, Type (0, 0), BuildingBlock: EZIPEK_clean_linker_0, # of connection points: 2
#     Edge 29, Type (0, 0), BuildingBlock: EZIPEK_clean_linker_0, # of connection points: 2
#     Edge 30, Type (0, 0), BuildingBlock: EZIPEK_clean_linker_0, # of connection points: 2
#     Edge 31, Type (0, 0), BuildingBlock: EZIPEK_clean_linker_0, # of connection points: 2
#     Edge 32, Type (0, 0), BuildingBlock: EZIPEK_clean_linker_0, # of connection points: 2
#     Edge 33, Type (0, 0), BuildingBlock: EZIPEK_clean_linker_0, # of connection points: 2
#     Edge 34, Type (0, 0), BuildingBlock: EZIPEK_clean_linker_0, # of connection points: 2
#     Edge 35, Type (0, 0), BuildingBlock: EZIPEK_clean_linker_0, # of connection points: 2
#     Edge 36, Type (0, 0), BuildingBlock: EZIPEK_clean_linker_0, # of connection points: 2
#     Edge 37, Type (0, 0), BuildingBlock: EZIPEK_clean_linker_0, # of connection points: 2
#     Edge 38, Type (0, 0), BuildingBlock: EZIPEK_clean_linker_0, # of connection points: 2
#     Edge 39, Type (0, 0), BuildingBlock: EZIPEK_clean_linker_0, # of connection points: 2
#     Edge 40, Type (0, 0), BuildingBlock: EZIPEK_clean_linker_0, # of connection points: 2
#     Edge 41, Type (0, 0), BuildingBlock: EZIPEK_clean_linker_0, # of connection points: 2
#     Edge 42, Type (0, 0), BuildingBlock: EZIPEK_clean_linker_0, # of connection points: 2
#     Edge 43, Type (0, 0), BuildingBlock: EZIPEK_clean_linker_0, # of connection points: 2
#     Edge 44, Type (0, 0), BuildingBlock: EZIPEK_clean_linker_0, # of connection points: 2
#     Edge 45, Type (0, 0), BuildingBlock: EZIPEK_clean_linker_0, # of connection points: 2
#     Edge 46, Type (0, 0), BuildingBlock: EZIPEK_clean_linker_0, # of connection points: 2
#     Edge 47, Type (0, 0), BuildingBlock: EZIPEK_clean_linker_0, # of connection points: 2
#     Edge 48, Type (0, 0), BuildingBlock: EZIPEK_clean_linker_0, # of connection points: 2
#     Edge 49, Type (0, 0), BuildingBlock: EZIPEK_clean_linker_0, # of connection points: 2
#     Edge 50, Type (0, 0), BuildingBlock: EZIPEK_clean_linker_0, # of connection points: 2
#     Edge 51, Type (0, 0), BuildingBlock: EZIPEK_clean_linker_0, # of connection points: 2
#     Edge 52, Type (0, 0), BuildingBlock: EZIPEK_clean_linker_0, # of connection points: 2
#     Edge 53, Type (0, 0), BuildingBlock: EZIPEK_clean_linker_0, # of connection points: 2
#     Edge 54, Type (0, 0), BuildingBlock: EZIPEK_clean_linker_0, # of connection points: 2
#     Edge 55, Type (0, 0), BuildingBlock: EZIPEK_clean_linker_0, # of connection points: 2
#     Edge 56, Type (0, 0), BuildingBlock: EZIPEK_clean_linker_0, # of connection points: 2
#     Edge 57, Type (0, 0), BuildingBlock: EZIPEK_clean_linker_0, # of connection points: 2
#     Edge 58, Type (0, 0), BuildingBlock: EZIPEK_clean_linker_0, # of connection points: 2
#     Edge 59, Type (0, 0), BuildingBlock: EZIPEK_clean_linker_0, # of connection points: 2
#     Edge 60, Type (0, 0), BuildingBlock: EZIPEK_clean_linker_0, # of connection points: 2
#     Edge 61, Type (0, 0), BuildingBlock: EZIPEK_clean_linker_0, # of connection points: 2
#     Edge 62, Type (0, 0), BuildingBlock: EZIPEK_clean_linker_0, # of connection points: 2
#     Edge 63, Type (0, 0), BuildingBlock: EZIPEK_clean_linker_0, # of connection points: 2
# Relax obj value: 0.487
# Max RMSD: 0.238
# Mean RMSD: 0.238
data_MOF--net-why--node1-PAMTOO_clean_sbu_0--edge1-EZIPEK_clean_linker_0
_symmetry_space_group_name_H-M    P1
_symmetry_Int_Tables_number       1
_symmetry_cell_setting            triclinic
loop_
_symmetry_equiv_pos_as_xyz
'x, y, z'
_cell_length_a     36.642661
_cell_length_b     36.698721
_cell_length_c     32.546991
_cell_angle_alpha  90.255116
_cell_angle_beta   90.092929
_cell_angle_gamma 89.791827
loop_
_atom_site_label
_atom_site_type_symbol
_atom_site_fract_x
_atom_site_fract_y
_atom_site_fract_z
_atom_type_partial_charge
Dy0 Dy 0.46833 0.27122 0.12313 0.0
Dy1 Dy 0.51587 0.22399 0.07198 0.0
C2 C 0.49057 0.18777 0.16256 0.0
O3 O 0.52255 0.30631 0.12688 0.0
O4 O 0.55822 0.27253 0.08508 0.0
O5 O 0.41639 0.28512 0.15039 0.0
O6 O 0.46497 0.31563 0.16644 0.0
O7 O 0.51994 0.27479 0.03643 0.0
O8 O 0.46737 0.29873 0.061 0.0
O9 O 0.45883 0.22066 0.03507 0.0
O10 O 0.42411 0.25933 0.07255 0.0
O11 O 0.51826 0.18431 0.02317 0.0
O12 O 0.56712 0.1974 0.05773 0.0
C13 C 0.55453 0.3036 0.10712 0.0
O14 O 0.47049 0.21825 0.16522 0.0
O15 O 0.51213 0.18602 0.12977 0.0
C16 C 0.41077 0.34836 0.15631 0.0
C17 C 0.37497 0.4135 0.13567 0.0
C18 C 0.36229 0.39157 0.16811 0.0
C19 C 0.38015 0.35941 0.17847 0.0
C20 C 0.42262 0.36912 0.12266 0.0
C21 C 0.40482 0.40159 0.11233 0.0
C22 C 0.42943 0.31452 0.16739 0.0
C23 C 0.49262 0.29705 0.03238 0.0
C24 C 0.42652 0.23823 0.03914 0.0
C25 C 0.57297 0.1865 0.98585 0.0
C26 C 0.60556 0.1995 0.90926 0.0
C27 C 0.62081 0.21439 0.94509 0.0
C28 C 0.60455 0.20806 0.98319 0.0
C29 C 0.55831 0.17108 0.94989 0.0
C30 C 0.57431 0.17774 0.91186 0.0
C31 C 0.55368 0.18143 0.02514 0.0
H32 H 0.33885 0.39969 0.18618 0.0
H33 H 0.37023 0.34335 0.20396 0.0
H34 H 0.44583 0.36031 0.10477 0.0
H35 H 0.41457 0.41742 0.08662 0.0
H36 H 0.64505 0.23114 0.94345 0.0
H37 H 0.61644 0.22042 1.01034 0.0
H38 H 0.53402 0.15436 0.95111 0.0
H39 H 0.56233 0.16599 0.8844 0.0
Dy40 Dy 0.70887 0.71896 0.37535 0.0
Dy41 Dy 0.75608 0.76617 0.32215 0.0
C42 C 0.79254 0.74132 0.41366 0.0
O43 O 0.67364 0.77361 0.37791 0.0
O44 O 0.70846 0.80895 0.33698 0.0
O45 O 0.70171 0.67079 0.41207 0.0
O46 O 0.65781 0.71035 0.40692 0.0
O47 O 0.70432 0.76364 0.28578 0.0
O48 O 0.6837 0.71116 0.31332 0.0
O49 O 0.76226 0.70946 0.28657 0.0
O50 O 0.72551 0.67482 0.32548 0.0
O51 O 0.79397 0.77213 0.27215 0.0
O52 O 0.78002 0.81885 0.30979 0.0
C53 C 0.67732 0.80564 0.35851 0.0
O54 O 0.75976 0.72636 0.41997 0.0
O55 O 0.79672 0.75757 0.37746 0.0
C56 C 0.64224 0.64862 0.4023 0.0
C57 C 0.59746 0.5905 0.3769 0.0
C58 C 0.62665 0.60166 0.35223 0.0
C59 C 0.64887 0.63046 0.36487 0.0
C60 C 0.61139 0.63973 0.42514 0.0
C61 C 0.58901 0.61121 0.41239 0.0
C62 C 0.66694 0.67723 0.41706 0.0
C63 C 0.68316 0.73516 0.28379 0.0
C64 C 0.7465 0.67679 0.2919 0.0
C65 C 0.7862 0.8276 0.23869 0.0
C66 C 0.7696 0.86044 0.16326 0.0
C67 C 0.74466 0.83673 0.1816 0.0
C68 C 0.75256 0.82123 0.21947 0.0
C69 C 0.81112 0.85164 0.22082 0.0
C70 C 0.80263 0.86842 0.18345 0.0
C71 C 0.79552 0.80745 0.27603 0.0
H72 H 0.63306 0.58763 0.32386 0.0
H73 H 0.6718 0.63776 0.34591 0.0
H74 H 0.60521 0.65409 0.45346 0.0
H75 H 0.5663 0.60405 0.43193 0.0
H76 H 0.71902 0.83034 0.16664 0.0
H77 H 0.73258 0.80374 0.23336 0.0
H78 H 0.83715 0.85702 0.23543 0.0
H79 H 0.8221 0.88689 0.16976 0.0
Dy80 Dy 0.26156 0.96424 0.62752 0.0
Dy81 Dy 0.21664 1.00872 0.56988 0.0
C82 C 0.23921 1.04979 0.65969 0.0
O83 O 0.20792 0.92729 0.62599 0.0
O84 O 0.17297 0.96317 0.58593 0.0
O85 O 0.26231 0.93152 0.68243 0.0
O86 O 0.31313 0.94901 0.65484 0.0
O87 O 0.23045 0.96024 0.53062 0.0
O88 O 0.26111 0.92401 0.5764 0.0
O89 O 0.27256 1.01014 0.53335 0.0
O90 O 0.30725 0.97749 0.5779 0.0
O91 O 0.16318 1.02482 0.54864 0.0
O92 O 0.21133 1.05123 0.52464 0.0
C93 C 0.17572 0.93173 0.60664 0.0
O94 O 0.25597 1.01824 0.66634 0.0
O95 O 0.22166 1.05166 0.6239 0.0
C96 C 0.30716 0.95362 0.72694 0.0
C97 C 0.31968 0.98799 0.80356 0.0
C98 C 0.32232 1.00786 0.76691 0.0
C99 C 0.31641 0.99078 0.72898 0.0
C100 C 0.30332 0.93401 0.76328 0.0
C101 C 0.30949 0.95088 0.80106 0.0
C102 C 0.29725 0.93633 0.68765 0.0
C103 C 0.2482 0.93006 0.53954 0.0
C104 C 0.30498 0.9946 0.54149 0.0
C105 C 0.16306 1.03945 0.479 0.0
C106 C 0.13423 1.02193 0.40171 0.0
C107 C 0.16681 1.00559 0.41491 0.0
C108 C 0.18106 1.01415 0.45352 0.0
C109 C 0.13084 1.05618 0.46551 0.0
C110 C 0.11647 1.04747 0.427 0.0
C111 C 0.17627 1.04641 0.52071 0.0
H112 H 0.32892 1.0365 0.76722 0.0
H113 H 0.3189 1.00677 0.70127 0.0
H114 H 0.2955 0.90556 0.76246 0.0
H115 H 0.30739 0.93418 0.82826 0.0
H116 H 0.1808 0.98591 0.39559 0.0
H117 H 0.20581 1.0007 0.4637 0.0
H118 H 0.11652 1.07549 0.48501 0.0
H119 H 1.09133 1.06033 0.41703 0.0
Dy120 Dy 1.01835 0.51729 0.87435 0.0
Dy121 Dy 0.97265 0.46966 0.82196 0.0
C122 C 0.93507 0.4944 0.91226 0.0
O123 O 1.05448 0.46324 0.87557 0.0
O124 O 1.02034 0.42661 0.83555 0.0
O125 O 1.04155 0.5679 0.8959 0.0
O126 O 1.05303 0.51747 0.92788 0.0
O127 O 1.02418 0.46637 0.78697 0.0
O128 O 1.04825 0.51798 0.81396 0.0
O129 O 0.97036 0.52638 0.78558 0.0
O130 O 1.00481 0.56268 0.8258 0.0
O131 O 0.93261 0.47 0.77333 0.0
O132 O 0.94706 0.4193 0.80322 0.0
C133 C 1.05156 0.43064 0.85705 0.0
O134 O 0.96395 0.51656 0.91399 0.0
O135 O 0.93492 0.47159 0.88034 0.0
C136 C 1.10147 0.55747 0.91916 0.0
C137 C 0.17768 0.56459 0.9139 0.0
C138 C 0.15978 0.56526 0.95226 0.0
C139 C 0.12209 0.56185 0.95482 0.0
C140 C 0.11904 0.5556 0.8808 0.0
C141 C 0.15701 0.55893 0.87817 0.0
C142 C 1.06218 0.55138 0.92269 0.0
C143 C 1.04721 0.49314 0.78489 0.0
C144 C 0.98572 0.55939 0.79094 0.0
C145 C 0.93922 0.41896 0.73119 0.0
C146 C 0.9555 0.39141 0.65284 0.0
C147 C 0.98193 0.39049 0.68396 0.0
C148 C 0.97393 0.40434 0.72286 0.0
C149 C 0.91322 0.42108 0.69961 0.0
C150 C 0.92131 0.40735 0.66052 0.0
C151 C 0.93115 0.4346 0.77173 0.0
H152 H 0.17492 0.56896 0.98054 0.0
H153 H 1.10908 0.56248 0.9847 0.0
H154 H 1.10341 0.55148 0.85296 0.0
H155 H 0.17002 0.55709 0.84842 0.0
H156 H 1.00828 0.37789 0.67851 0.0
H157 H 0.99474 0.40327 0.7465 0.0
H158 H 0.88659 0.43296 0.70534 0.0
H159 H 0.9005 0.4077 0.63685 0.0
Dy160 Dy 0.71419 1.00796 0.97382 0.0
Dy161 Dy 0.76045 0.95903 0.91972 0.0
C162 C 0.74083 0.9325 1.01017 0.0
O163 O 0.77041 1.00968 1.01096 0.0
O164 O 0.80573 0.97499 0.96855 0.0
O165 O 0.70738 1.05361 1.01533 0.0
O166 O 0.66019 1.0238 0.9937 0.0
O167 O 0.7588 1.01226 0.87851 0.0
O168 O 0.72103 1.04697 0.91696 0.0
O169 O 0.70573 0.92496 0.91806 0.0
O170 O 0.6718 0.95963 0.96105 0.0
O171 O 0.80854 0.92679 0.90616 0.0
O172 O 0.7656 0.93286 0.86063 0.0
C173 C 0.80293 0.99342 1.00415 0.0
O174 O 0.72991 0.9656 0.01823 0.0
O175 O 0.7486 0.92223 0.97265 0.0
C176 C 0.66008 1.04204 0.06262 0.0
C177 C 0.63248 1.02571 0.14089 0.0
C178 C 0.66709 1.013 0.12921 0.0
C179 C 0.68073 1.02092 0.0902 0.0
C180 C 0.6258 1.05532 0.07466 0.0
C181 C 0.61208 1.04724 0.11361 0.0
C182 C 0.67262 1.0474 0.02021 0.0
C183 C 0.74067 1.04378 0.88264 0.0
C184 C 0.67442 0.92874 0.93875 0.0
C185 C 0.78957 0.87391 0.87119 0.0
C186 C 0.78182 0.79733 0.8673 0.0
C187 C 0.81666 0.81372 0.87062 0.0
C188 C 0.82041 0.8515 0.8723 0.0
C189 C 0.75476 0.85785 0.87109 0.0
C190 C 0.75093 0.82005 0.86949 0.0
C191 C 0.79378 0.9138 0.87269 0.0
H192 H 0.68324 0.99658 0.15006 0.0
H193 H 0.70711 1.01007 0.08138 0.0
H194 H 0.60937 1.07131 0.05365 0.0
H195 H 0.58536 1.05736 0.12232 0.0
H196 H 0.84149 0.79771 0.86938 0.0
H197 H 0.84749 0.86323 0.87348 0.0
H198 H 0.7303 0.87441 0.87127 0.0
H199 H 0.7237 0.80898 0.8685 0.0
Dy200 Dy 0.47487 0.4664 0.72227 0.0
Dy201 Dy 0.5222 0.51126 0.66805 0.0
C202 C 0.54931 0.49564 0.75882 0.0
O203 O 0.46977 0.52446 0.75511 0.0
O204 O 0.50921 0.55725 0.71725 0.0
O205 O 0.43725 0.46474 0.77304 0.0
O206 O 0.44901 0.4156 0.73839 0.0
O207 O 0.46926 0.50654 0.62593 0.0
O208 O 0.43539 0.46971 0.66525 0.0
O209 O 0.55571 0.45564 0.66545 0.0
O210 O 0.52314 0.4233 0.71156 0.0
O211 O 0.57323 0.51707 0.63615 0.0
O212 O 0.52958 0.55601 0.62601 0.0
C213 C 0.48724 0.55634 0.75022 0.0
O214 O 0.52661 0.46835 0.75792 0.0
O215 O 0.55003 0.51918 0.72868 0.0
C216 C 0.44279 0.41084 0.8099 0.0
C217 C 0.45997 0.37802 0.88497 0.0
C218 C 0.48775 0.39232 0.86044 0.0
C219 C 0.47922 0.40847 0.82302 0.0
C220 C 0.41489 0.3969 0.83459 0.0
C221 C 0.42348 0.38031 0.872 0.0
C222 C 0.43417 0.42942 0.77142 0.0
C223 C 0.43788 0.48854 0.63051 0.0
C224 C 0.55317 0.42521 0.6879 0.0
C225 C 0.5619 0.53467 0.56892 0.0
C226 C 0.56158 0.51998 0.48445 0.0
C227 C 0.58198 0.54919 0.50053 0.0
C228 C 0.58184 0.55673 0.54248 0.0
C229 C 0.54299 0.50429 0.5533 0.0
C230 C 0.54269 0.49702 0.51113 0.0
C231 C 0.56059 0.54291 0.6128 0.0
H232 H 0.51604 0.39033 0.86993 0.0
H233 H 0.50108 0.41896 0.80429 0.0
H234 H 0.38665 0.39874 0.82491 0.0
H235 H 0.40186 0.36895 0.89059 0.0
H236 H 0.59779 0.56644 0.48051 0.0
H237 H 0.59708 0.57981 0.5542 0.0
H238 H 0.52831 0.48644 0.57382 0.0
H239 H 0.52747 0.47397 0.49935 0.0
Dy240 Dy 1.01642 0.22689 0.472 0.0
Dy241 Dy 0.96793 0.27172 0.4198 0.0
C242 C 0.98604 0.30161 0.51026 0.0
O243 O 0.95876 0.22043 0.50615 0.0
O244 O 0.92327 0.25785 0.46864 0.0
O245 O 1.02139 0.18329 0.51601 0.0
O246 O 1.0698 0.20697 0.48945 0.0
O247 O 0.96586 0.21445 0.38552 0.0
O248 O 1.01683 0.19101 0.41169 0.0
O249 O 1.02132 0.30904 0.41833 0.0
O250 O 1.05743 0.27589 0.4607 0.0
O251 O 0.96328 0.29418 0.3587 0.0
O252 O 0.91896 0.30023 0.40218 0.0
C253 C 0.92592 0.23684 0.50185 0.0
O254 O 1.00969 0.27494 0.51347 0.0
O255 O 0.96658 0.30612 0.47677 0.0
C256 C 1.07193 0.19251 0.55926 0.0
C257 C 1.10307 0.20929 0.63577 0.0
C258 C 1.07058 0.22626 0.62356 0.0
C259 C 1.05532 0.21809 0.58544 0.0
C260 C 1.10423 0.17514 0.57164 0.0
C261 C 0.11978 0.18351 0.6098 0.0
C262 C 1.05681 0.18609 0.51813 0.0
C263 C 0.99087 0.18802 0.38328 0.0
C264 C 1.05326 0.3064 0.43859 0.0
C265 C 0.90366 0.28557 0.33465 0.0
C266 C 0.8544 0.25372 0.27945 0.0
C267 C 0.86703 0.23369 0.31307 0.0
C268 C 0.89141 0.24967 0.34074 0.0
C269 C 0.8915 0.30526 0.30066 0.0
C270 C 0.86688 0.28945 0.27332 0.0
C271 C 0.92891 0.30234 0.36391 0.0
H272 H 1.05737 0.24615 0.6433 0.0
H273 H 1.0308 0.2321 0.57615 0.0
H274 H 0.11761 0.1556 0.55161 0.0
H275 H 0.1449 0.17016 0.619 0.0
H276 H 0.85745 0.20621 0.31829 0.0
H277 H 0.90023 0.23423 0.36722 0.0
H278 H 0.90066 0.33291 0.29559 0.0
H279 H 0.85706 0.30538 0.24769 0.0
Dy280 Dy 0.25398 0.76552 0.22367 0.0
Dy281 Dy 0.20897 0.71899 0.16782 0.0
C282 C 0.17692 0.73574 0.25659 0.0
O283 O 0.25679 0.71014 0.26114 0.0
O284 O 0.22341 0.67483 0.21802 0.0
O285 O 0.29859 0.77269 0.26621 0.0
O286 O 0.26877 0.81962 0.24371 0.0
O287 O 0.26237 0.72455 0.1277 0.0
O288 O 0.29613 0.75956 0.16928 0.0
O289 O 0.17067 0.77143 0.16789 0.0
O290 O 0.2057 0.80735 0.20866 0.0
O291 O 0.17983 0.71401 0.11039 0.0
O292 O 0.18942 0.66638 0.14825 0.0
C293 C 0.24103 0.67768 0.25402 0.0
O294 O 0.20838 0.75074 0.26564 0.0
O295 O 0.16917 0.72483 0.21919 0.0
C296 C 0.28802 0.82114 0.31208 0.0
C297 C 0.27484 0.85018 0.39035 0.0
C298 C 0.26017 0.81627 0.37938 0.0
C299 C 0.26651 0.80192 0.34028 0.0
C300 C 0.3032 0.8547 0.32332 0.0
C301 C 0.29661 0.86921 0.36231 0.0
C302 C 0.29264 0.80758 0.27011 0.0
C303 C 0.29397 0.74144 0.13387 0.0
C304 C 0.17428 0.80343 0.18765 0.0
C305 C 0.199 0.66071 0.07731 0.0
C306 C 0.23529 0.63072 1.00896 0.0
C307 C 0.25469 0.63791 0.04518 0.0
C308 C 0.23654 0.65239 0.07933 0.0
C309 C 0.17996 0.65477 0.0408 0.0
C310 C 0.19792 0.63997 1.00695 0.0
C311 C 0.18056 0.6785 0.11196 0.0
H312 H 0.24334 0.80134 0.4008 0.0
H313 H 0.25423 0.77613 0.33188 0.0
H314 H 0.31958 0.86993 0.30172 0.0
H315 H 0.3081 0.89543 0.37051 0.0
H316 H 0.28366 0.6323 0.04717 0.0
H317 H 0.25187 0.6572 0.10727 0.0
H318 H 0.15127 0.66174 0.03839 0.0
H319 H 0.18239 0.63551 0.97907 0.0
Dy320 Dy 0.96673 0.77388 0.62533 0.0
Dy321 Dy 1.01433 0.72769 0.57177 0.0
C322 C 0.98877 0.68921 0.66071 0.0
O323 O 1.02045 0.81061 0.6266 0.0
O324 O 1.05623 0.77597 0.58498 0.0
O325 O 0.96098 0.79695 0.68628 0.0
O326 O 0.91776 0.80312 0.6414 0.0
O327 O 1.00826 0.77622 0.53148 0.0
O328 O 0.96688 0.80886 0.56925 0.0
O329 O 0.95702 0.72276 0.53692 0.0
O330 O 0.92166 0.75847 0.57692 0.0
O331 O 1.01857 0.68422 0.52723 0.0
O332 O 1.06751 0.70773 0.55336 0.0
C333 C 1.05243 0.807 0.60671 0.0
O334 O 0.96679 0.71825 0.6623 0.0
O335 O 1.01217 0.6893 0.62952 0.0
C336 C 0.90075 0.78814 0.708 0.0
C337 C 0.85024 0.75546 0.76059 0.0
C338 C 0.86388 0.73583 0.72703 0.0
C339 C 0.88895 0.75219 0.70071 0.0
C340 C 0.88738 0.80752 0.74178 0.0
C341 C 0.86213 0.7913 0.76784 0.0
C342 C 0.92675 0.80515 0.68001 0.0
C343 C 0.98602 0.80403 0.53562 0.0
C344 C 0.92411 0.73847 0.54263 0.0
C345 C 1.0688 0.69269 0.48326 0.0
C346 C 1.09908 0.70833 0.40627 0.0
C347 C 1.06328 0.71913 0.41521 0.0
C348 C 1.04824 0.71132 0.45347 0.0
C349 C 1.10452 0.68156 0.47407 0.0
C350 C 0.11958 0.68926 0.43567 0.0
C351 C 1.05396 0.68696 0.52462 0.0
H352 H 0.85471 0.70831 0.72091 0.0
H353 H 0.89873 0.73698 0.67434 0.0
H354 H 0.89613 0.83522 0.74771 0.0
H355 H 0.85146 0.80692 0.79342 0.0
H356 H 1.0471 0.73366 0.39266 0.0
H357 H 1.02065 0.72003 0.45988 0.0
H358 H 0.12084 0.66733 0.49674 0.0
H359 H 0.14725 0.68062 0.42894 0.0
Dy360 Dy 0.20988 0.22153 0.8746 0.0
Dy361 Dy 0.25635 0.26819 0.82016 0.0
C362 C 0.29535 0.24188 0.90978 0.0
O363 O 0.17352 0.27524 0.87774 0.0
O364 O 0.20772 0.30988 0.83512 0.0
O365 O 0.19011 0.20943 0.93563 0.0
O366 O 0.17667 0.17426 0.88417 0.0
O367 O 0.21243 0.25255 0.77672 0.0
O368 O 0.17078 0.23257 0.82346 0.0
O369 O 0.25781 0.21323 0.78123 0.0
O370 O 0.22755 0.17698 0.82587 0.0
O371 O 0.30173 0.27591 0.77899 0.0
O372 O 0.27074 0.32246 0.80082 0.0
C373 C 0.1769 0.30681 0.85735 0.0
O374 O 0.26339 0.22533 0.91554 0.0
O375 O 0.29811 0.26011 0.87465 0.0
C376 C 0.19211 0.14608 0.94518 0.0
C377 C 0.21824 1.08159 0.98036 0.0
C378 C 0.24091 1.1017 0.95446 0.0
C379 C 0.2279 0.13398 0.93701 0.0
C380 C 0.16954 0.12594 0.97089 0.0
C381 C 0.1825 1.09384 0.98827 0.0
C382 C 0.17744 0.17785 0.92391 0.0
C383 C 0.17983 0.24067 0.78572 0.0
C384 C 0.24357 0.18028 0.78911 0.0
C385 C 0.29061 0.32367 0.73268 0.0
C386 C 0.27737 0.35159 0.65402 0.0
C387 C 0.26331 0.31751 0.66503 0.0
C388 C 0.26969 0.30372 0.70427 0.0
C389 C 0.30517 0.35742 0.72144 0.0
C390 C 0.29856 0.37135 0.68227 0.0
C391 C 0.29512 0.31064 0.77485 0.0
H392 H 0.26827 1.09229 0.9475 0.0
H393 H 0.2454 0.14909 0.91645 0.0
H394 H 0.14173 0.13459 0.9768 0.0
H395 H 0.16432 1.07815 1.00738 0.0
H396 H 0.24693 0.30198 0.64349 0.0
H397 H 0.25788 0.27777 0.71261 0.0
H398 H 0.32108 0.37324 0.74317 0.0
H399 H 0.30959 0.3977 0.67408 0.0
Dy400 Dy 0.76294 0.46074 0.12687 0.0
Dy401 Dy 0.7168 0.50801 0.07105 0.0
C402 C 0.7428 0.54598 0.16196 0.0
O403 O 0.70839 0.42607 0.1273 0.0
O404 O 0.67409 0.46024 0.08427 0.0
O405 O 0.81151 0.42985 0.14194 0.0
O406 O 0.76747 0.43518 0.18616 0.0
O407 O 0.73116 0.46312 0.02822 0.0
O408 O 0.75275 0.42227 0.07497 0.0
O409 O 0.77272 0.50911 0.03434 0.0
O410 O 0.8084 0.47691 0.07854 0.0
O411 O 0.71188 0.55288 0.02866 0.0
O412 O 0.66354 0.52527 0.05024 0.0
C413 C 0.677 0.42947 0.10647 0.0
O414 O 0.76042 0.51443 0.16744 0.0
O415 O 0.72362 0.5484 0.12721 0.0
C416 C 0.7925 0.37657 0.17541 0.0
C417 C 0.78569 0.29978 0.17535 0.0
C418 C 0.82029 0.3167 0.17263 0.0
C419 C 0.82358 0.35455 0.17292 0.0
C420 C 0.75789 0.36008 0.17518 0.0
C421 C 0.75452 0.32221 0.17487 0.0
C422 C 0.79618 0.41655 0.17475 0.0
C423 C 0.7435 0.43073 0.03742 0.0
C424 C 0.80546 0.49404 0.04227 0.0
C425 C 0.66428 0.54343 0.9815 0.0
C426 C 0.63432 0.52868 0.90391 0.0
C427 C 0.66332 0.50745 0.91869 0.0
C428 C 0.67831 0.51487 0.95726 0.0
C429 C 0.6362 0.56547 0.9661 0.0
C430 C 0.62131 0.55817 0.9274 0.0
C431 C 0.67688 0.54831 0.02391 0.0
H432 H 0.8453 0.30096 0.17259 0.0
H433 H 0.8505 0.36663 0.17188 0.0
H434 H 0.73322 0.37634 0.17593 0.0
H435 H 0.72742 0.31082 0.17551 0.0
H436 H 0.67333 0.48436 0.90111 0.0
H437 H 0.69999 0.49759 0.96868 0.0
H438 H 0.62501 0.58748 0.98452 0.0
H439 H 0.59864 0.57453 0.91648 0.0
Dy440 Dy 0.52042 1.01601 0.37737 0.0
Dy441 Dy 0.47524 0.96941 0.32116 0.0
C442 C 0.43537 0.99348 0.41147 0.0
O443 O 0.55546 0.96127 0.3822 0.0
O444 O 0.52381 0.9278 0.33545 0.0
O445 O 0.52963 1.03409 0.44017 0.0
O446 O 0.5607 1.05689 0.39028 0.0
O447 O 0.52128 0.98342 0.27956 0.0
O448 O 0.56087 1.00652 0.32719 0.0
O449 O 0.47327 1.02458 0.28327 0.0
O450 O 0.50321 1.06068 0.32862 0.0
O451 O 0.43199 0.96344 0.27644 0.0
O452 O 0.45815 0.91577 0.30243 0.0
C453 C 0.55342 0.93036 0.35981 0.0
O454 O 0.4663 1.01197 0.41686 0.0
O455 O 0.43378 0.97457 0.37647 0.0
C456 C 0.53961 1.09762 0.43961 0.0
C457 C 0.5343 0.17344 0.44711 0.0
C458 C 0.55249 0.15273 0.47729 0.0
C459 C 0.5559 0.11507 0.47301 0.0
C460 C 0.51632 0.11751 0.41349 0.0
C461 C 0.51381 0.15538 0.41704 0.0
C462 C 0.55076 1.06049 0.42837 0.0
C463 C 0.55322 0.99681 0.28941 0.0
C464 C 0.48735 1.05752 0.29166 0.0
C465 C 0.44317 0.91398 0.23263 0.0
C466 C 0.45698 0.88328 0.15541 0.0
C467 C 0.48581 0.89734 0.17882 0.0
C468 C 0.47891 0.9128 0.21718 0.0
C469 C 0.41417 0.90103 0.20865 0.0
C470 C 0.42104 0.88577 0.17002 0.0
C471 C 0.43646 0.92827 0.27393 0.0
H472 H 0.5667 0.16597 0.50235 0.0
H473 H 0.57313 1.10008 0.49415 0.0
H474 H 0.50232 1.10413 0.3885 0.0
H475 H 0.49821 0.17059 0.39458 0.0
H476 H 0.51367 0.89536 0.1679 0.0
H477 H 0.50157 0.92294 0.23525 0.0
H478 H 0.38645 0.90201 0.22016 0.0
H479 H 0.39864 0.87468 0.15223 0.0
Dy480 Dy 0.21899 0.508 0.47455 0.0
Dy481 Dy 0.26152 0.46255 0.4151 0.0
C482 C 0.24996 0.42912 0.50393 0.0
O483 O 0.27547 0.5089 0.50954 0.0
O484 O 0.30826 0.47484 0.46435 0.0
O485 O 0.216 0.54794 0.52333 0.0
O486 O 0.16661 0.52859 0.49404 0.0
O487 O 0.25232 0.51554 0.37523 0.0
O488 O 0.22556 0.55163 0.42196 0.0
O489 O 0.20741 0.42674 0.41707 0.0
O490 O 0.17447 0.46254 0.45965 0.0
O491 O 0.26269 0.42411 0.36484 0.0
O492 O 0.3123 0.45152 0.38362 0.0
C493 C 0.30718 0.49233 0.50081 0.0
O494 O 0.23139 0.45885 0.51289 0.0
O495 O 0.26335 0.42351 0.46717 0.0
C496 C 0.16525 0.53845 0.56503 0.0
C497 C 0.13383 0.52202 0.64086 0.0
C498 C 0.1469 0.49389 0.6156 0.0
C499 C 0.16272 0.50208 0.5779 0.0
C500 C 0.15318 0.56664 0.59081 0.0
C501 C 0.13752 0.55845 0.62873 0.0
C502 C 0.18053 0.54677 0.52477 0.0
C503 C 0.23898 0.54841 0.38414 0.0
C504 C 0.17608 0.43133 0.43789 0.0
C505 C 0.30146 0.44552 0.31303 0.0
C506 C 0.31304 0.47351 0.23375 0.0
C507 C 0.2818 0.48348 0.25584 0.0
C508 C 0.2757 0.46893 0.29481 0.0
C509 C 0.33342 0.43682 0.29188 0.0
C510 C 0.33912 0.45058 0.25258 0.0
C511 C 0.29614 0.43238 0.35512 0.0
H512 H 0.1439 0.46565 0.62458 0.0
H513 H 0.17223 0.48003 0.55841 0.0
H514 H 0.15525 0.59482 0.5813 0.0
H515 H 0.12714 0.58032 0.64794 0.0
H516 H 0.26207 0.50219 0.24299 0.0
H517 H 0.25078 0.47583 0.31072 0.0
H518 H 0.3539 0.41933 0.30566 0.0
H519 H 0.36391 0.44288 0.23664 0.0
Dy520 Dy 0.97248 0.96881 0.22509 0.0
Dy521 Dy 1.01891 1.01266 0.1673 0.0
C522 C 1.05164 0.99464 0.25527 0.0
O523 O 0.97239 1.02578 0.26003 0.0
O524 O 1.00541 1.05978 0.21533 0.0
O525 O 0.92741 0.96775 0.2678 0.0
O526 O 0.95476 0.91764 0.25046 0.0
O527 O 0.96316 1.01293 0.13045 0.0
O528 O 0.93283 0.97148 0.16769 0.0
O529 O 1.05189 0.95684 0.16683 0.0
O530 O 1.0192 0.9246 0.21274 0.0
O531 O 1.05545 1.0556 0.14789 0.0
O532 O 1.03596 1.01519 0.1042 0.0
C533 C 0.9884 1.05785 0.25189 0.0
O534 O 1.01941 0.98261 0.26552 0.0
O535 O 1.05924 1.00354 0.21744 0.0
C536 C 0.93713 0.924 0.3191 0.0
C537 C 0.95348 0.89722 0.39756 0.0
C538 C 0.97628 0.92313 0.37945 0.0
C539 C 0.96802 0.93659 0.34047 0.0
C540 C 0.91321 0.8998 0.33822 0.0
C541 C 0.92127 0.88656 0.37737 0.0
C542 C 0.93192 0.93326 0.27573 0.0
C543 C 0.9333 0.99251 0.13433 0.0
C544 C 1.04918 0.92633 0.18905 0.0
C545 C 1.0984 1.02947 0.10225 0.0
C546 C 0.17034 1.00971 0.08037 0.0
C547 C 0.16027 1.04666 0.08588 0.0
C548 C 0.12469 1.05638 0.09657 0.0
C549 C 1.10882 0.99254 0.09941 0.0
C550 C 0.1445 0.98277 0.08902 0.0
C551 C 1.06053 1.03985 0.11228 0.0
H552 H 1.00148 0.93121 0.39434 0.0
H553 H 0.98669 0.95542 0.32626 0.0
H554 H 0.88931 0.88982 0.32214 0.0
H555 H 0.90366 0.86619 0.39081 0.0
H556 H 0.17936 1.06842 0.07984 0.0
H557 H 0.11751 1.08496 0.09934 0.0
H558 H 1.08925 0.97101 0.10416 0.0
H559 H 0.15138 0.95418 0.08683 0.0
Dy560 Dy 0.5133 0.72462 0.97135 0.0
Dy561 Dy 0.46506 0.77063 0.91889 0.0
C562 C 0.48717 0.79884 1.00895 0.0
O563 O 0.45643 0.72084 1.00735 0.0
O564 O 0.42097 0.75819 0.96946 0.0
O565 O 0.51579 0.68602 0.02102 0.0
O566 O 0.56461 0.6988 0.98661 0.0
O567 O 0.46755 0.71702 0.87785 0.0
O568 O 0.51009 0.68607 0.91345 0.0
O569 O 0.51914 0.80642 0.9173 0.0
O570 O 0.55549 0.77277 0.95839 0.0
O571 O 0.41314 0.78668 0.89309 0.0
O572 O 0.46309 0.81167 0.87182 0.0
C573 C 0.42384 0.7376 1.00313 0.0
O574 O 0.51473 0.77643 1.00664 0.0
O575 O 0.46236 0.79934 0.97991 0.0
C576 C 0.57012 0.69007 0.05796 0.0
C577 C 0.60288 0.70398 0.13422 0.0
C578 C 0.59591 0.73272 0.10708 0.0
C579 C 0.57951 0.72582 0.06917 0.0
C580 C 0.57679 0.66138 0.08526 0.0
C581 C 0.59318 0.66829 0.12329 0.0
C582 C 0.55117 0.68308 0.01912 0.0
C583 C 0.4884 0.68714 0.88062 0.0
C584 C 0.55139 0.80375 0.93676 0.0
C585 C 0.41209 0.8493 0.87869 0.0
C586 C 0.38665 0.9208 0.88978 0.0
C587 C 0.38631 0.90436 0.85065 0.0
C588 C 0.39893 0.8689 0.84515 0.0
C589 C 0.41251 0.86548 0.91796 0.0
C590 C 0.40007 0.90126 0.92348 0.0
C591 C 0.42757 0.81301 0.87195 0.0
H592 H 0.60351 0.76035 0.11512 0.0
H593 H 0.57413 0.74837 0.04865 0.0
H594 H 0.56928 0.63373 0.07718 0.0
H595 H 0.59875 0.64586 0.14393 0.0
H596 H 0.37662 0.91921 0.8241 0.0
H597 H 0.39886 0.85696 0.81463 0.0
H598 H 0.42274 0.85055 0.94414 0.0
H599 H 0.40101 0.91362 0.95374 0.0
Dy600 Dy 0.75686 0.26073 0.72506 0.0
Dy601 Dy 0.71162 0.21744 0.6669 0.0
C602 C 0.68041 0.22652 0.75715 0.0
O603 O 0.75952 0.20476 0.76032 0.0
O604 O 0.72711 0.17062 0.71489 0.0
O605 O 0.79773 0.26544 0.77245 0.0
O606 O 0.776 0.31396 0.74359 0.0
O607 O 0.76309 0.22768 0.62491 0.0
O608 O 0.80018 0.25276 0.67176 0.0
O609 O 0.67706 0.27254 0.66566 0.0
O610 O 0.71027 0.30451 0.71134 0.0
O611 O 0.66147 0.20116 0.63794 0.0
O612 O 0.71277 0.18071 0.61451 0.0
C613 C 0.74432 0.17249 0.75157 0.0
O614 O 0.70763 0.24906 0.7641 0.0
O615 O 0.67695 0.20975 0.7219 0.0
C616 C 0.78719 0.31652 0.81431 0.0
C617 C 0.76965 0.34833 0.89013 0.0
C618 C 0.75266 0.31591 0.87787 0.0
C619 C 0.76123 0.30018 0.84001 0.0
C620 C 0.80429 0.34882 0.82668 0.0
C621 C 0.79555 0.36469 0.86446 0.0
C622 C 0.79519 0.30084 0.77389 0.0
C623 C 0.79641 0.23977 0.63367 0.0
C624 C 0.67998 0.30317 0.68809 0.0
C625 C 0.66901 0.202 0.56733 0.0
C626 C 0.63255 0.23514 0.5018 0.0
C627 C 0.6516 0.25671 0.53009 0.0
C628 C 0.67008 0.2401 0.56263 0.0
C629 C 0.65444 0.18042 0.53607 0.0
C630 C 0.63712 0.19699 0.50287 0.0
C631 C 0.67822 0.18593 0.60711 0.0
H632 H 0.73271 0.30299 0.8975 0.0
H633 H 0.7475 0.27537 0.83075 0.0
H634 H 0.82414 0.36185 0.80701 0.0
H635 H 0.80888 0.38974 0.87371 0.0
H636 H 0.64989 0.28615 0.52886 0.0
H637 H 0.68273 0.25703 0.58585 0.0
H638 H 0.65429 0.15099 0.53861 0.0
H639 H 0.62451 0.17979 0.47987 0.0
C640 C 0.57812 0.37538 0.11337 0.0
C641 C 0.58597 0.33645 0.10827 0.0
C642 C 0.65306 0.35872 0.10242 0.0
C643 C 0.64523 0.39734 0.10748 0.0
N644 N 0.59605 0.44025 0.11302 0.0
N645 N 0.63632 0.2942 0.10949 0.0
C646 C 0.60652 0.40453 0.11162 0.0
C647 C 0.62499 0.32949 0.10559 0.0
N648 N 0.54311 0.3854 0.12234 0.0
N649 N 0.68783 0.34932 0.09164 0.0
H650 H 0.61835 0.27269 0.11393 0.0
H651 H 0.6635 0.28664 0.11355 0.0
H652 H 0.70858 0.36834 0.08845 0.0
H653 H 0.69529 0.32337 0.0816 0.0
H654 H 0.53568 0.41102 0.13332 0.0
H655 H 0.52121 0.36768 0.122 0.0
H656 H 0.56941 0.4492 0.10827 0.0
H657 H 0.61456 0.46151 0.1165 0.0
C658 C 0.65303 0.87674 0.36176 0.0
C659 C 0.64539 0.83797 0.36001 0.0
C660 C 0.57779 0.85967 0.36288 0.0
C661 C 0.58543 0.89832 0.3608 0.0
N662 N 0.63459 0.94048 0.35016 0.0
N663 N 0.59565 0.79587 0.35126 0.0
C664 C 0.62432 0.90556 0.35823 0.0
C665 C 0.60634 0.8308 0.35873 0.0
N666 N 0.68826 0.88683 0.36893 0.0
N667 N 0.54265 0.84981 0.37078 0.0
H668 H 0.61416 0.77462 0.34775 0.0
H669 H 0.56888 0.78862 0.34436 0.0
H670 H 0.52171 0.86885 0.37446 0.0
H671 H 0.53498 0.8233 0.37794 0.0
H672 H 0.69595 0.91352 0.37554 0.0
H673 H 0.70927 0.86795 0.37277 0.0
H674 H 0.66117 0.94772 0.34251 0.0
H675 H 0.61584 0.96165 0.34696 0.0
C676 C 0.13533 0.87688 0.64238 0.0
C677 C 0.14273 0.9004 0.60733 0.0
C678 C 1.09157 0.8622 0.5724 0.0
C679 C 1.08396 0.83921 0.60728 0.0
N680 N 1.10478 0.82402 0.6747 0.0
N681 N 0.11515 0.91837 0.54256 0.0
C682 C 1.10761 0.84691 0.64193 0.0
C683 C 0.11717 0.89361 0.57364 0.0
N684 N 0.15276 0.88516 0.67832 0.0
N685 N 1.07521 0.85319 0.5361 0.0
H686 H 0.13209 0.94077 0.53996 0.0
H687 H 1.09413 0.91868 0.52097 0.0
H688 H 1.05693 0.83168 0.53349 0.0
H689 H 1.08254 0.8644 0.50796 0.0
H690 H 0.14706 0.87309 0.70639 0.0
H691 H 0.17048 0.90711 0.68127 0.0
H692 H 0.12312 0.82329 0.69909 0.0
H693 H 1.08523 0.80345 0.6759 0.0
C694 C 0.12318 0.40603 0.86595 0.0
C695 C 1.08433 0.39889 0.85878 0.0
C696 C 1.10645 0.33174 0.85137 0.0
C697 C 0.14488 0.33885 0.85852 0.0
N698 N 0.18799 0.38714 0.86752 0.0
N699 N 1.04181 0.34898 0.857 0.0
C700 C 0.15221 0.37727 0.86435 0.0
C701 C 1.07726 0.36006 0.85452 0.0
N702 N 0.13318 0.44051 0.87699 0.0
N703 N 1.09728 0.29752 0.83861 0.0
H704 H 1.02022 0.36688 0.8622 0.0
H705 H 1.03412 0.32179 0.85947 0.0
H706 H 0.11634 0.2766 0.83563 0.0
H707 H 1.07173 0.29084 0.8268 0.0
H708 H 0.15851 0.44711 0.88938 0.0
H709 H 0.11571 0.46268 0.87724 0.0
H710 H 0.1973 0.4137 0.86405 0.0
H711 H 0.20902 0.36824 0.8711 0.0
C712 C 0.60373 0.90441 0.9337 0.0
C713 C 0.64243 0.89692 0.93745 0.0
C714 C 0.62186 0.82924 0.9379 0.0
C715 C 0.58287 0.83647 0.93582 0.0
N716 N 0.54006 0.88566 0.92339 0.0
N717 N 0.68484 0.84851 0.95218 0.0
C718 C 0.57514 0.87545 0.93168 0.0
C719 C 0.65009 0.85824 0.94165 0.0
N720 N 0.5935 0.94021 0.93291 0.0
N721 N 0.63297 0.79396 0.93284 0.0
H722 H 0.70569 0.86738 0.95602 0.0
H723 H 0.69218 0.82239 0.9615 0.0
H724 H 0.61486 0.77263 0.92778 0.0
H725 H 0.66008 0.78636 0.92834 0.0
H726 H 0.56697 0.94935 0.93795 0.0
H727 H 0.61211 0.96134 0.92954 0.0
H728 H 0.53248 0.91146 0.91337 0.0
H729 H 0.51824 0.86786 0.92322 0.0
C730 C 0.59558 0.37209 0.65217 0.0
C731 C 0.5857 0.39376 0.68779 0.0
C732 C 0.63895 0.359 0.72293 0.0
C733 C 0.64813 0.33586 0.68776 0.0
N734 N 0.63746 0.33084 0.615 0.0
N735 N 0.59736 0.40054 0.75992 0.0
C736 C 0.62645 0.34525 0.65168 0.0
C737 C 0.60747 0.38488 0.72356 0.0
N738 N 0.57392 0.37583 0.61828 0.0
N739 N 0.66157 0.35831 0.75628 0.0
H740 H 0.57683 0.42008 0.76195 0.0
H741 H 0.60693 0.39198 0.78844 0.0
H742 H 0.68306 0.34015 0.75976 0.0
H743 H 0.66097 0.37786 0.77955 0.0
H744 H 0.57482 0.35846 0.59295 0.0
H745 H 0.55259 0.3947 0.61703 0.0
H746 H 0.62686 0.33846 0.58665 0.0
H747 H 0.66046 0.31432 0.61225 0.0
C748 C 1.09305 0.36134 0.47313 0.0
C749 C 1.08439 0.33891 0.43783 0.0
C750 C 0.1343 0.37744 0.40193 0.0
C751 C 0.14289 0.40026 0.43747 0.0
N752 N 0.11733 0.41724 0.50363 0.0
N753 N 1.10303 0.32496 0.36918 0.0
C754 C 0.11848 0.39287 0.47186 0.0
C755 C 1.10679 0.34733 0.40252 0.0
N756 N 1.07784 0.35174 0.50973 0.0
N757 N 0.15029 0.38657 0.36556 0.0
H758 H 1.0836 0.30427 0.36805 0.0
H759 H 0.12062 0.32474 0.34414 0.0
H760 H 0.16766 0.40876 0.36258 0.0
H761 H 0.14355 0.37505 0.33734 0.0
H762 H 1.08609 0.36252 0.5379 0.0
H763 H 1.05941 0.33036 0.51237 0.0
H764 H 1.09712 0.41708 0.52609 0.0
H765 H 0.13414 0.43979 0.50597 0.0
C766 C 0.14881 0.87352 0.18157 0.0
C767 C 0.14196 0.83505 0.18737 0.0
C768 C 1.07419 0.85561 0.1902 0.0
C769 C 1.08131 0.89442 0.18825 0.0
N770 N 0.13078 0.93757 0.19075 0.0
N771 N 1.0944 0.79313 0.20567 0.0
C772 C 0.12018 0.9022 0.18609 0.0
C773 C 1.10351 0.8275 0.19379 0.0
N774 N 0.18309 0.88329 0.16977 0.0
N775 N 1.03879 0.84468 0.18667 0.0
H776 H 1.11369 0.77251 0.20935 0.0
H777 H 1.06849 0.78612 0.21602 0.0
H778 H 1.01726 0.86302 0.18309 0.0
H779 H 1.03119 0.81756 0.18284 0.0
H780 H 0.18966 0.90939 0.15979 0.0
H781 H 0.20406 0.86434 0.16577 0.0
H782 H 0.15788 0.94538 0.19445 0.0
H783 H 1.11238 0.95878 0.19561 0.0
C784 C 0.36613 0.23077 0.93184 0.0
C785 C 0.32901 0.23974 0.94309 0.0
C786 C 0.35467 0.24104 1.01694 0.0
C787 C 0.39271 0.23645 1.00543 0.0
N788 N 0.43177 0.23008 0.94613 0.0
N789 N 0.29175 0.25912 0.99979 0.0
C790 C 0.39721 0.23209 0.96125 0.0
C791 C 0.32471 0.24625 0.98666 0.0
N792 N 0.37198 0.21871 0.89266 0.0
N793 N 0.34607 0.23807 0.05756 0.0
H794 H 0.26987 0.26345 0.97987 0.0
H795 H 0.28727 0.26895 0.02944 0.0
H796 H 0.36538 0.23182 0.07998 0.0
H797 H 0.31936 0.23703 0.06835 0.0
H798 H 0.39645 0.20712 0.88284 0.0
H799 H 0.35113 0.21674 0.87095 0.0
H800 H 0.438 0.23283 0.9151 0.0
H801 H 0.45457 0.22805 0.9648 0.0
C802 C 0.75516 0.61624 0.18475 0.0
C803 C 0.74485 0.5795 0.19539 0.0
C804 C 0.73965 0.60529 0.26906 0.0
C805 C 0.74869 0.64268 0.25842 0.0
N806 N 0.7777 0.67666 0.2038 0.0
N807 N 0.72043 0.54324 0.24981 0.0
C808 C 0.75955 0.646 0.21549 0.0
C809 C 0.73554 0.57554 0.23824 0.0
N810 N 0.76064 0.62348 0.14413 0.0
N811 N 0.73848 0.59662 0.30979 0.0
H812 H 0.71713 0.52145 0.22949 0.0
H813 H 0.7078 0.53923 0.27805 0.0
H814 H 0.74539 0.61494 0.33297 0.0
H815 H 0.736 0.57013 0.32067 0.0
H816 H 0.76168 0.64976 0.13225 0.0
H817 H 0.76143 0.60321 0.12164 0.0
H818 H 0.7902 0.67965 0.17534 0.0
H819 H 0.78495 0.69743 0.22378 0.0
C820 C 0.36358 0.99383 0.43388 0.0
C821 C 0.40184 0.99401 0.44517 0.0
C822 C 0.3768 0.99873 0.51926 0.0
C823 C 0.33873 0.99477 0.50812 0.0
N824 N 0.29994 0.97981 0.45056 0.0
N825 N 0.44176 0.98903 0.50377 0.0
C826 C 0.33362 0.99003 0.4642 0.0
C827 C 0.40722 0.99452 0.48935 0.0
N828 N 0.35494 0.99921 0.39357 0.0
N829 N 0.38457 1.0083 0.55885 0.0
H830 H 0.46397 0.9846 0.48444 0.0
H831 H 0.44771 0.98476 0.53468 0.0
H832 H 0.36434 1.01252 0.58085 0.0
H833 H 0.41052 1.0159 0.56867 0.0
H834 H 0.32833 1.00362 0.38335 0.0
H835 H 0.37457 1.00355 0.37104 0.0
H836 H 0.29495 0.97124 0.42052 0.0
H837 H 0.27793 0.97585 0.47014 0.0
C838 C 0.98351 0.61796 0.68254 0.0
C839 C 0.98678 0.65587 0.69413 0.0
C840 C 0.98583 0.63118 0.76841 0.0
C841 C 0.98365 0.59289 0.75694 0.0
N842 N 0.96764 0.55495 0.69858 0.0
N843 N 0.99687 0.6957 0.75158 0.0
C844 C 0.97926 0.58798 0.71272 0.0
C845 C 0.98917 0.66129 0.73811 0.0
N846 N 0.98479 0.60981 0.64161 0.0
N847 N 0.98114 0.63972 0.80893 0.0
H848 H 0.99926 0.71775 0.73169 0.0
H849 H 1.00433 0.70191 0.78166 0.0
H850 H 0.97555 0.62024 0.83117 0.0
H851 H 0.97788 0.66618 0.81996 0.0
H852 H 0.98925 0.5836 0.63025 0.0
H853 H 0.98405 0.62964 0.61883 0.0
H854 H 0.95968 0.55004 0.66836 0.0
H855 H 0.961 0.53346 0.71755 0.0
C856 C 0.83139 0.98983 0.08182 0.0
C857 C 0.83647 0.99431 0.03789 0.0
C858 C 0.90501 0.99409 0.05666 0.0
C859 C 0.8997 0.99325 0.10077 0.0
N860 N 0.85325 0.99777 0.1527 0.0
N861 N 0.88216 1.00771 0.98726 0.0
C862 C 0.86154 0.99302 0.11216 0.0
C863 C 0.87453 0.9982 0.02678 0.0
N864 N 0.79752 0.98056 0.09544 0.0
N865 N 0.93963 0.98907 0.0423 0.0
H866 H 0.86186 1.01196 0.96533 0.0
H867 H 0.90807 1.01527 0.97744 0.0
H868 H 0.96192 0.98509 0.0617 0.0
H869 H 0.94566 0.98491 1.01138 0.0
H870 H 0.7924 0.97179 0.12527 0.0
H871 H 0.77518 0.97802 0.07601 0.0
H872 H 0.82681 1.00233 0.16329 0.0
H873 H 0.87314 1.0012 0.17528 0.0
C874 C 0.4918 0.65903 0.80301 0.0
C875 C 0.48724 0.65388 0.84674 0.0
C876 C 0.47565 0.58683 0.82683 0.0
C877 C 0.48462 0.59068 0.78343 0.0
N878 N 0.50012 0.63582 0.73268 0.0
N879 N 0.47983 0.6079 0.89839 0.0
C880 C 0.49249 0.62838 0.77277 0.0
C881 C 0.48104 0.61629 0.85762 0.0
N882 N 0.49508 0.69404 0.78955 0.0
N883 N 0.45904 0.55564 0.83952 0.0
H884 H 0.47992 0.62757 0.92156 0.0
H885 H 0.48148 0.58127 0.90925 0.0
H886 H 0.45135 0.53471 0.81998 0.0
H887 H 0.4481 0.55243 0.86878 0.0
H888 H 0.49326 0.70164 0.75886 0.0
H889 H 0.49762 0.71615 0.80954 0.0
H890 H 0.51279 0.65961 0.72301 0.0
H891 H 0.49389 0.61803 0.70875 0.0
C892 C 0.82606 0.2508 0.55814 0.0
C893 C 0.82985 0.2383 0.59999 0.0
C894 C 0.8951 0.22011 0.57725 0.0
C895 C 0.89203 0.23434 0.5356 0.0
N896 N 0.84537 0.24976 0.48612 0.0
N897 N 0.87342 0.21505 0.64856 0.0
C898 C 0.85495 0.24628 0.52647 0.0
C899 C 0.86601 0.22435 0.60886 0.0
N900 N 0.7949 0.26938 0.54844 0.0
N901 N 0.92457 0.19878 0.58644 0.0
H902 H 0.85343 0.2138 0.67119 0.0
H903 H 0.89977 0.21111 0.65976 0.0
H904 H 0.9446 0.1918 0.56538 0.0
H905 H 0.92704 0.18384 0.6134 0.0
H906 H 0.79157 0.28392 0.52128 0.0
H907 H 0.77386 0.27367 0.56944 0.0
H908 H 0.81872 0.25437 0.47624 0.0
H909 H 0.86252 0.24226 0.46208 0.0
C910 C 0.23239 0.57716 0.30751 0.0
C911 C 0.23916 0.58201 0.35097 0.0
C912 C 0.24216 0.65002 0.33198 0.0
C913 C 0.24122 0.64445 0.28778 0.0
N914 N 0.24307 0.59657 0.23668 0.0
N915 N 0.25768 0.62721 0.40063 0.0
C916 C 0.23845 0.60622 0.27683 0.0
C917 C 0.246 0.61969 0.36172 0.0
N918 N 0.21745 0.54505 0.29495 0.0
N919 N 0.23707 0.68448 0.3468 0.0
H920 H 0.26192 0.60702 0.42253 0.0
H921 H 0.26696 0.65286 0.4096 0.0
H922 H 0.23187 0.70669 0.32794 0.0
H923 H 0.23337 0.69018 0.37791 0.0
H924 H 0.20808 0.5407 0.26508 0.0
H925 H 0.21002 0.5248 0.31562 0.0
H926 H 0.24489 0.56951 0.227 0.0
H927 H 0.24965 0.61531 0.21396 0.0
C928 C 0.82345 0.7527 0.48865 0.0
C929 C 0.82595 0.73911 0.44711 0.0
C930 C 0.89216 0.72246 0.46727 0.0
C931 C 0.88955 0.73555 0.50967 0.0
N932 N 0.84363 0.7506 0.56031 0.0
N933 N 0.86372 0.70434 0.40146 0.0
C934 C 0.85263 0.74736 0.51979 0.0
C935 C 0.86084 0.72256 0.43802 0.0
N936 N 0.79292 0.77207 0.49884 0.0
N937 N 0.92477 0.70906 0.45382 0.0
H938 H 0.84263 0.70363 0.37994 0.0
H939 H 0.88536 0.68718 0.39383 0.0
H940 H 0.94578 0.70115 0.47319 0.0
H941 H 0.93144 0.70639 0.42287 0.0
H942 H 0.79053 0.78695 0.52605 0.0
H943 H 0.77144 0.7761 0.47826 0.0
H944 H 0.81715 0.75561 0.5705 0.0
H945 H 0.861 0.7426 0.58393 0.0
C946 C 0.24778 1.10884 0.76664 0.0
C947 C 0.24368 0.14679 0.75551 0.0
C948 C 0.24092 0.12155 0.6815 0.0
C949 C 0.24052 1.0835 0.69301 0.0
N950 N 0.23599 1.0443 0.75211 0.0
N951 N 0.22802 0.1854 0.69817 0.0
C952 C 0.24202 1.07842 0.73717 0.0
C953 C 0.23804 0.15172 0.71175 0.0
N954 N 0.25901 1.10116 0.80565 0.0
N955 N 0.24611 0.12979 0.6411 0.0
H956 H 0.22517 0.20776 0.71755 0.0
H957 H 0.21871 0.19018 0.66839 0.0
H958 H 0.25016 1.10999 0.61855 0.0
H959 H 0.25081 0.15619 0.6308 0.0
H960 H 0.2668 1.07514 0.81499 0.0
H961 H 0.26469 0.1214 0.82726 0.0
H962 H 0.23281 1.03884 0.78329 0.0
H963 H 0.22988 1.02213 0.7333 0.0
C964 C 0.87682 0.50124 0.01987 0.0
C965 C 0.83902 0.49498 1.00887 0.0
C966 C 0.86378 0.49253 0.93475 0.0
C967 C 0.90188 0.49514 0.94605 0.0
N968 N 0.94231 0.49561 1.00433 0.0
N969 N 0.80073 0.4769 0.95203 0.0
C970 C 0.90737 0.4979 0.99005 0.0
C971 C 0.83403 0.48866 0.9652 0.0
N972 N 0.88399 0.51225 0.05913 0.0
N973 N 0.85507 0.49562 0.89413 0.0
H974 H 0.77874 0.47342 0.97168 0.0
H975 H 0.79603 0.46692 0.92248 0.0
H976 H 0.87461 0.49963 0.87139 0.0
H977 H 0.82837 0.49839 0.88352 0.0
H978 H 0.90945 0.52148 0.06877 0.0
H979 H 0.86353 0.51583 0.081 0.0
H980 H 0.94881 0.49293 0.03533 0.0
H981 H 0.96469 0.4926 0.98489 0.0
C982 C 0.48122 0.12904 0.26953 0.0
C983 C 0.48697 1.09117 0.25838 0.0
C984 C 0.49062 0.1163 0.18459 0.0
C985 C 0.48886 0.15444 0.19616 0.0
N986 N 0.48934 0.19426 0.25511 0.0
N987 N 0.50556 1.053 0.20159 0.0
C988 C 0.48593 0.15965 0.2402 0.0
C989 C 0.49386 1.08635 0.21484 0.0
N990 N 0.46924 0.13631 0.30836 0.0
N991 N 0.48723 1.10774 0.14393 0.0
H992 H 0.50883 1.03091 0.22112 0.0
H993 H 0.5158 1.04837 0.17217 0.0
H994 H 0.48317 0.12732 0.1213 0.0
H995 H 0.48407 1.08113 0.13324 0.0
H996 H 0.46071 0.16206 0.31802 0.0
H997 H 0.46377 0.11578 0.32944 0.0
H998 H 0.49198 0.20023 0.28629 0.0
H999 H 0.49348 0.21663 0.23611 0.0
C1000 C 0.37935 0.49394 0.52256 0.0
C1001 C 0.3412 0.49166 0.53388 0.0
C1002 C 0.36631 0.49127 0.60801 0.0
C1003 C 0.40447 0.48974 0.59666 0.0
N1004 N 0.44395 0.48204 0.53825 0.0
N1005 N 0.30225 0.47895 0.59177 0.0
C1006 C 0.4097 0.48917 0.5525 0.0
C1007 C 0.33613 0.48789 0.57786 0.0
N1008 N 0.38729 0.5023 0.48279 0.0
N1009 N 0.35804 0.49794 0.64821 0.0
H1010 H 0.28001 0.47516 0.57237 0.0
H1011 H 0.29721 0.4711 0.62196 0.0
H1012 H 0.37791 0.50214 0.67064 0.0
H1013 H 0.33165 0.50357 0.65834 0.0
H1014 H 0.41349 0.50863 0.47279 0.0
H1015 H 0.36713 0.50676 0.46075 0.0
H1016 H 0.44978 0.47712 0.50741 0.0
H1017 H 0.46578 0.47685 0.55788 0.0
C1018 C 0.97942 0.15926 0.3064 0.0
C1019 C 0.98967 0.15453 0.34923 0.0
C1020 C 0.99743 1.08666 0.32874 0.0
C1021 C 0.98855 1.09159 0.2856 0.0
N1022 N 0.97322 0.13663 0.23513 0.0
N1023 N 1.0102 1.11007 0.39829 0.0
C1024 C 0.98023 0.12914 0.27543 0.0
C1025 C 0.99914 0.11713 0.35903 0.0
N1026 N 0.96836 0.1932 0.29459 0.0
N1027 N 1.00403 1.05194 0.34178 0.0
H1028 H 1.00669 0.12843 0.42241 0.0
H1029 H 1.02396 1.08652 0.40707 0.0
H1030 H 1.00714 1.03004 0.3218 0.0
H1031 H 1.00486 1.04414 0.37244 0.0
H1032 H 0.95486 0.19867 0.26716 0.0
H1033 H 0.97129 0.21618 0.3131 0.0
H1034 H 0.97216 0.16276 0.22297 0.0
H1035 H 0.97004 0.11631 0.21299 0.0
C1036 C 0.32247 0.74502 0.05681 0.0
C1037 C 0.3275 0.73954 0.10045 0.0
C1038 C 0.39512 0.72889 0.08106 0.0
C1039 C 0.39041 0.73575 0.03726 0.0
N1040 N 0.34334 0.73804 0.98558 0.0
N1041 N 0.37314 0.73032 0.15248 0.0
C1042 C 0.35228 0.74078 0.02621 0.0
C1043 C 0.36517 0.73281 0.11161 0.0
N1044 N 0.28895 0.75677 0.04401 0.0
N1045 N 0.4278 0.71528 0.09416 0.0
H1046 H 0.3532 0.72821 0.17507 0.0
H1047 H 0.39943 0.73268 0.16434 0.0
H1048 H 0.44944 0.70951 0.07483 0.0
H1049 H 0.43242 0.70524 0.12356 0.0
H1050 H 0.28374 0.76632 1.0145 0.0
H1051 H 0.26716 0.76074 0.06407 0.0
H1052 H 0.3166 0.73677 0.97481 0.0
H1053 H 0.36236 0.73181 0.96288 0.0
C1054 C 0.74543 1.10066 0.7741 0.0
C1055 C 0.7444 0.13896 0.78512 0.0
C1056 C 0.74557 0.11467 0.85953 0.0
C1057 C 0.74248 1.0766 0.84852 0.0
N1058 N 0.73283 1.0366 0.79081 0.0
N1059 N 0.73503 0.17892 0.84353 0.0
C1060 C 0.74074 1.07085 0.80448 0.0
C1061 C 0.74234 0.14464 0.82931 0.0
N1062 N 0.75273 1.09196 0.73417 0.0
N1063 N 0.75342 0.12295 0.89949 0.0
H1064 H 0.73088 0.20114 0.82441 0.0
H1065 H 0.72848 0.1845 0.87406 0.0
H1066 H 0.75711 1.10309 0.9219 0.0
H1067 H 0.76044 0.14905 0.90934 0.0
H1068 H 0.75808 1.06548 0.72419 0.0
H1069 H 0.75755 1.11163 0.71187 0.0
H1070 H 0.72672 1.03062 0.76026 0.0
H1071 H 0.72859 1.01484 0.81068 0.0
C1072 C 0.63974 0.17719 0.84768 0.0
C1073 C 0.62239 0.20629 0.8687 0.0
C1074 C 0.63765 0.24775 0.81257 0.0
C1075 C 0.65476 0.21843 0.79137 0.0
N1076 N 0.65908 0.1528 0.78247 0.0
N1077 N 0.59783 0.26732 0.86809 0.0
C1078 C 0.65163 0.18234 0.80674 0.0
C1079 C 0.6193 0.24111 0.85027 0.0
N1080 N 0.64629 0.14497 0.86741 0.0
N1081 N 0.6385 0.28184 0.7961 0.0
H1082 H 0.58405 0.26334 0.89571 0.0
H1083 H 0.5914 0.29205 0.85429 0.0
H1084 H 0.64716 0.28633 0.7661 0.0
H1085 H 0.63118 0.30539 0.81205 0.0
H1086 H 0.66248 0.12427 0.85507 0.0
H1087 H 0.6386 0.14024 0.89776 0.0
H1088 H 0.65396 0.12611 0.79154 0.0
H1089 H 0.66616 0.15449 0.7517 0.0
C1090 C 0.72918 0.89762 0.11709 0.0
C1091 C 0.76113 0.87623 0.12249 0.0
C1092 C 0.77937 0.88879 0.05175 0.0
C1093 C 0.7459 0.90773 0.04544 0.0
N1094 N 0.68446 0.91981 0.06856 0.0
N1095 N 0.81059 0.84248 0.09111 0.0
C1096 C 0.71928 0.90866 0.07701 0.0
C1097 C 0.78434 0.86893 0.08859 0.0
N1098 N 0.70921 0.90893 0.15024 0.0
N1099 N 0.80745 0.89144 0.02436 0.0
H1100 H 0.81439 0.82647 0.11717 0.0
H1101 H 0.82584 0.83389 0.06583 0.0
H1102 H 0.80606 0.90617 0.99722 0.0
H1103 H 0.83358 0.88155 0.03057 0.0
H1104 H 0.68749 0.92721 0.14791 0.0
H1105 H 0.71659 0.90311 0.18047 0.0
H1106 H 0.6633 0.91828 0.08984 0.0
H1107 H 0.67593 0.92658 0.03895 0.0
C1108 C 1.09555 1.03415 0.2951 0.0
C1109 C 1.07907 0.99958 0.28825 0.0
C1110 C 1.10092 0.97855 0.35522 0.0
C1111 C 0.11834 1.01258 0.36127 0.0
N1112 N 0.14086 1.06864 0.33285 0.0
N1113 N 1.07517 0.93602 0.30624 0.0
C1114 C 0.11853 1.03899 0.32975 0.0
C1115 C 1.08471 0.97083 0.3166 0.0
N1116 N 1.08746 1.0632 0.27053 0.0
N1117 N 1.0983 0.95432 0.38686 0.0
H1118 H 1.06438 0.92929 0.27757 0.0
H1119 H 1.08159 0.91345 0.32419 0.0
H1120 H 1.10983 0.9589 0.41573 0.0
H1121 H 1.08219 0.93101 0.3855 0.0
H1122 H 1.09487 1.08984 0.27778 0.0
H1123 H 1.07094 1.0616 0.24463 0.0
H1124 H 0.1449 1.08688 0.30886 0.0
H1125 H 0.15812 1.07298 0.35792 0.0
C1126 C 0.9834 0.36381 0.54402 0.0
C1127 C 0.97901 0.32535 0.54665 0.0
C1128 C 0.95402 0.33221 0.61619 0.0
C1129 C 0.96163 0.36985 0.61502 0.0
N1130 N 0.98719 0.42168 0.58062 0.0
N1131 N 0.96702 0.27274 0.58962 0.0
C1132 C 0.97728 0.38582 0.57964 0.0
C1133 C 0.96642 0.30952 0.58395 0.0
N1134 N 0.99369 0.37927 0.50772 0.0
N1135 N 0.93412 0.31801 0.64786 0.0
H1136 H 0.97372 0.2542 0.56692 0.0
H1137 H 0.96375 0.26062 0.61827 0.0
H1138 H 0.92521 0.33334 0.67299 0.0
H1139 H 0.9235 0.2917 0.64741 0.0
H1140 H 0.9934 0.40723 0.50251 0.0
H1141 H 1.00108 0.36405 0.48192 0.0
H1142 H 1.00248 0.43412 0.55772 0.0
H1143 H 0.98206 0.43858 0.60584 0.0
C1144 C 0.60343 0.98135 0.18957 0.0
C1145 C 0.6173 1.0167 0.18183 0.0
C1146 C 0.59323 1.0385 0.24763 0.0
C1147 C 0.58 1.00285 0.25595 0.0
N1148 N 0.58138 0.93864 0.24033 0.0
N1149 N 0.63399 1.07601 0.20744 0.0
C1150 C 0.58796 0.97371 0.22858 0.0
C1151 C 0.615 1.04431 0.21223 0.0
N1152 N 0.60352 0.95558 0.15911 0.0
N1153 N 0.5832 1.06742 0.27175 0.0
H1154 H 0.65017 1.08118 0.18178 0.0
H1155 H 0.63652 1.09557 0.23054 0.0
H1156 H 0.56809 1.06498 0.29855 0.0
H1157 H 0.58769 1.09443 0.26354 0.0
H1158 H 0.58999 0.93077 0.16146 0.0
H1159 H 0.61475 0.96004 0.13016 0.0
H1160 H 0.58959 0.91596 0.22331 0.0
H1161 H 0.57104 0.93218 0.26922 0.0
C1162 C 0.482 0.32143 0.91895 0.0
C1163 C 0.46982 0.35793 0.92262 0.0
C1164 C 0.47901 0.35625 0.99708 0.0
C1165 C 0.48881 0.31885 0.99406 0.0
N1166 N 0.50979 0.2689 0.95016 0.0
N1167 N 0.45397 0.41006 0.96414 0.0
C1168 C 0.49352 0.30233 0.95451 0.0
C1169 C 0.46765 0.3754 0.96141 0.0
N1170 N 0.48022 0.30414 0.8816 0.0
N1171 N 0.48371 0.37417 0.03356 0.0
H1172 H 0.44691 0.42546 0.93844 0.0
H1173 H 0.44735 0.42281 0.99178 0.0
H1174 H 0.4952 0.3615 0.05903 0.0
H1175 H 0.48029 0.40211 0.03756 0.0
H1176 H 0.48363 0.27617 0.87763 0.0
H1177 H 0.47227 0.31711 0.85456 0.0
H1178 H 0.51969 0.25908 0.92226 0.0
H1179 H 0.51498 0.25079 0.97381 0.0
C1180 C 0.14971 0.26209 0.72165 0.0
C1181 C 0.15416 0.23426 0.75134 0.0
C1182 C 0.1185 0.19265 0.70815 0.0
C1183 C 0.11948 0.2185 0.67602 0.0
N1184 N 0.13996 0.27643 0.64998 0.0
N1185 N 0.14683 0.17079 0.7702 0.0
C1186 C 0.13598 0.25299 0.68218 0.0
C1187 C 0.13929 0.199 0.74423 0.0
N1188 N 0.15803 0.29734 0.73152 0.0
N1189 N 1.09726 0.16226 0.70448 0.0
H1190 H 0.16152 0.17356 0.79733 0.0
H1191 H 0.14088 0.14374 0.76312 0.0
H1192 H 1.08161 0.15664 0.67842 0.0
H1193 H 1.09246 0.14448 0.72874 0.0
H1194 H 0.15241 0.3193 0.71232 0.0
H1195 H 0.16698 0.30502 0.76074 0.0
H1196 H 0.1554 0.30017 0.65173 0.0
H1197 H 0.13053 0.27065 0.62041 0.0
C1198 C 0.29045 0.89085 0.49601 0.0
C1199 C 0.25461 0.90331 0.50588 0.0
C1200 C 0.23184 0.87973 0.44024 0.0
C1201 C 0.26717 0.86623 0.43115 0.0
N1202 N 0.32757 0.85029 0.45444 0.0
N1203 N 0.19006 0.8987 0.49349 0.0
C1204 C 0.29567 0.86902 0.46039 0.0
C1205 C 0.22494 0.89433 0.47979 0.0
N1206 N 0.31992 0.90134 0.51886 0.0
N1207 N 0.20525 0.88004 0.41072 0.0
H1208 H 0.1846 0.90709 0.52343 0.0
H1209 H 0.1672 0.88981 0.47726 0.0
H1210 H 0.20921 0.86981 0.38111 0.0
H1211 H 0.18029 0.89332 0.41456 0.0
H1212 H 0.34676 0.89753 0.50919 0.0
H1213 H 0.31808 0.9159 0.54615 0.0
H1214 H 0.34784 0.84816 0.47679 0.0
H1215 H 0.33229 0.83391 0.42868 0.0
C1216 C 0.12854 0.7517 0.35725 0.0
C1217 C 0.115 0.7164 0.36564 0.0
C1218 C 0.13794 0.694 0.29966 0.0
C1219 C 0.15082 0.72968 0.29063 0.0
N1220 N 0.14933 0.79408 0.30557 0.0
N1221 N 1.09855 0.65652 0.34153 0.0
C1222 C 0.14326 0.75905 0.31787 0.0
C1223 C 0.11705 0.68839 0.33572 0.0
N1224 N 0.12857 0.7778 0.38736 0.0
N1225 N 0.14728 0.66494 0.27545 0.0
H1226 H 1.08327 0.65126 0.36785 0.0
H1227 H 1.09559 0.63672 0.31875 0.0
H1228 H 0.16081 0.66718 0.24762 0.0
H1229 H 0.14352 0.63796 0.28429 0.0
H1230 H 0.14198 0.80265 0.38455 0.0
H1231 H 0.11754 0.77358 0.41648 0.0
H1232 H 0.14128 0.81684 0.32254 0.0
H1233 H 0.15894 0.80041 0.27634 0.0
C1234 C 0.23411 0.37938 0.60315 0.0
C1235 C 0.26969 0.36695 0.61294 0.0
C1236 C 0.29278 0.39072 0.54782 0.0
C1237 C 0.25677 0.40246 0.5375 0.0
N1238 N 0.19232 0.3963 0.54905 0.0
N1239 N 0.33055 0.35191 0.59057 0.0
C1240 C 0.22717 0.39314 0.56333 0.0
C1241 C 0.29829 0.36981 0.58395 0.0
N1242 N 0.20725 0.37946 0.63227 0.0
N1243 N 0.32211 0.40089 0.52479 0.0
H1244 H 0.33549 0.33624 0.61668 0.0
H1245 H 0.351 0.3497 0.56849 0.0
H1246 H 0.32009 0.41405 0.49677 0.0
H1247 H 0.34899 0.39798 0.53477 0.0
H1248 H 0.18198 0.39198 0.62791 0.0
H1249 H 0.21121 0.36983 0.66206 0.0
H1250 H 0.16956 0.38711 0.56507 0.0
H1251 H 0.18697 0.40391 0.51888 0.0
C1252 C 0.60961 0.51098 0.79171 0.0
C1253 C 0.57229 0.50134 0.79593 0.0
C1254 C 0.57945 0.50152 0.87081 0.0
C1255 C 0.61435 0.51733 0.86644 0.0
N1256 N 0.66203 0.54038 0.82285 0.0
N1257 N 0.51999 0.49375 0.841 0.0
C1258 C 0.62938 0.52292 0.82689 0.0
C1259 C 0.55674 0.49799 0.83586 0.0
N1260 N 0.62664 0.50715 0.75461 0.0
N1261 N 0.5681 0.48936 0.90833 0.0
H1262 H 0.50139 0.49275 0.81695 0.0
H1263 H 0.50728 0.49516 0.86958 0.0
H1264 H 0.58407 0.49133 0.93481 0.0
H1265 H 0.54455 0.47393 0.91227 0.0
H1266 H 0.65462 0.51062 0.7507 0.0
H1267 H 0.61361 0.49656 0.72869 0.0
H1268 H 0.67238 0.54867 0.79462 0.0
H1269 H 0.67742 0.54909 0.84801 0.0
C1270 C 0.48221 0.80418 0.08601 0.0
C1271 C 0.48197 0.82126 0.04667 0.0
C1272 C 0.46826 0.88024 0.07955 0.0
C1273 C 0.46512 0.86226 0.11776 0.0
N1274 N 0.46423 0.80697 0.15743 0.0
N1275 N 0.4742 0.87546 1.00564 0.0
C1276 C 0.47089 0.82426 0.12101 0.0
C1277 C 0.47472 0.8593 0.04336 0.0
N1278 N 0.49353 0.76888 0.0906 0.0
N1279 N 0.46592 0.91743 0.07818 0.0
H1280 H 0.48234 0.86206 0.97898 0.0
H1281 H 0.46446 0.90168 1.00029 0.0
H1282 H 0.46 0.9334 0.10394 0.0
H1283 H 0.47199 0.93283 0.05232 0.0
H1284 H 0.50027 0.75763 0.11896 0.0
H1285 H 0.49811 0.75077 0.06661 0.0
H1286 H 0.46261 0.77876 0.16023 0.0
H1287 H 0.45741 0.82067 0.1845 0.0
C1288 C 0.13004 0.50838 0.7161 0.0
C1289 C 1.1124 0.513 0.67772 0.0
C1290 C 1.05352 0.49759 0.70803 0.0
C1291 C 1.07022 0.49705 0.74767 0.0
N1292 N 0.12442 0.50012 0.78971 0.0
N1293 N 1.05748 0.51611 0.63698 0.0
C1294 C 1.10857 0.502 0.75176 0.0
C1295 C 1.07427 0.50849 0.67361 0.0
N1296 N 0.16733 0.5094 0.71807 0.0
N1297 N 1.01799 0.48733 0.7026 0.0
H1298 H 1.07163 0.52277 0.61029 0.0
H1299 H 1.0293 0.51859 0.63365 0.0
H1300 H 0.9996 0.48283 0.72619 0.0
H1301 H 1.00686 0.48123 0.67392 0.0
H1302 H 0.18248 0.50281 0.74405 0.0
H1303 H 0.18363 0.51494 0.69261 0.0
H1304 H 0.15124 0.50747 0.79598 0.0
H1305 H 1.11023 0.49183 0.81567 0.0
C1306 C 0.96626 0.89018 0.47357 0.0
C1307 C 0.96652 0.87577 0.43312 0.0
C1308 C 0.97885 0.81516 0.45952 0.0
C1309 C 0.98101 0.82934 0.50027 0.0
N1310 N 0.98711 0.88264 0.54373 0.0
N1311 N 0.98573 0.82764 0.38727 0.0
C1312 C 0.97774 0.86762 0.50673 0.0
C1313 C 0.97724 0.83934 0.42606 0.0
N1314 N 0.95432 0.92496 0.48044 0.0
N1315 N 0.9752 0.77874 0.45238 0.0
H1316 H 0.98511 0.84475 0.36176 0.0
H1317 H 0.99721 0.80211 0.38134 0.0
H1318 H 0.97248 0.7599 0.47571 0.0
H1319 H 0.97016 0.76779 0.42333 0.0
H1320 H 0.9499 0.93558 0.50976 0.0
H1321 H 0.94641 0.94229 0.45669 0.0
H1322 H 0.9883 0.91066 0.5488 0.0
H1323 H 0.99773 0.86734 0.56789 0.0
C1324 C 0.60398 0.71514 0.21035 0.0
C1325 C 0.62301 0.7111 0.1728 0.0
C1326 C 0.68057 0.72585 0.20687 0.0
C1327 C 0.66215 0.7274 0.24551 0.0
N1328 N 0.60692 0.71704 0.28455 0.0
N1329 N 0.67977 0.70497 0.13622 0.0
C1330 C 0.62404 0.71996 0.24745 0.0
C1331 C 0.66138 0.71434 0.17132 0.0
N1332 N 0.56666 0.71543 0.21038 0.0
N1333 N 0.71645 0.73527 0.20358 0.0
H1334 H 0.66673 0.69682 0.1092 0.0
H1335 H 0.70803 0.70201 0.13486 0.0
H1336 H 0.73341 0.74013 0.22844 0.0
H1337 H 0.72916 0.74031 0.17558 0.0
H1338 H 0.55108 0.72261 0.23591 0.0
H1339 H 0.55115 0.71125 0.18387 0.0
H1340 H 0.5804 0.70738 0.28784 0.0
H1341 H 0.61983 0.72158 0.31255 0.0
C1342 C 0.78292 0.3873 0.99669 0.0
C1343 C 0.74837 0.40404 1.00368 0.0
C1344 C 0.72708 0.3831 0.93632 0.0
C1345 C 0.76094 0.36509 0.93031 0.0
N1346 N 0.81698 0.34163 0.95883 0.0
N1347 N 0.68471 0.40902 0.98542 0.0
C1348 C 0.78749 0.36441 0.96191 0.0
C1349 C 0.7195 0.39911 0.97511 0.0
N1350 N 0.81218 0.39504 0.02129 0.0
N1351 N 0.70284 0.38634 0.90456 0.0
H1352 H 0.67802 0.41958 1.01424 0.0
H1353 H 0.66206 0.40315 0.9672 0.0
H1354 H 0.70738 0.375 0.87556 0.0
H1355 H 0.67965 0.4028 0.90598 0.0
H1356 H 0.83878 0.38726 1.01404 0.0
H1357 H 0.81086 0.41178 0.04705 0.0
H1358 H 0.83522 0.33725 0.98291 0.0
H1359 H 0.82118 0.32438 0.93369 0.0
C1360 C 0.31954 0.4493 0.12677 0.0
C1361 C 0.35784 0.44975 0.12972 0.0
C1362 C 0.35387 0.49783 0.18093 0.0
C1363 C 0.31879 0.48443 0.19027 0.0
N1364 N 0.26264 0.45999 0.16316 0.0
N1365 N 0.41056 0.48609 0.14402 0.0
C1366 C 0.29922 0.46544 0.15924 0.0
C1367 C 0.37454 0.47918 0.15047 0.0
N1368 N 0.30383 0.42959 0.09598 0.0
N1369 N 0.36799 0.52508 0.20457 0.0
H1370 H 0.42517 0.47239 0.12119 0.0
H1371 H 0.42547 0.5055 0.16021 0.0
H1372 H 0.35235 0.53727 0.22773 0.0
H1373 H 0.39361 0.53649 0.20008 0.0
H1374 H 0.27582 0.42809 0.09101 0.0
H1375 H 0.31999 0.41651 0.0739 0.0
H1376 H 0.24743 0.44339 0.14366 0.0
H1377 H 0.24732 0.47299 0.1858 0.0
C1378 C 0.54257 0.55274 0.38112 0.0
C1379 C 0.57992 0.55424 0.37113 0.0
C1380 C 0.59327 0.50604 0.41941 0.0
C1381 C 0.56027 0.51521 0.43937 0.0
N1382 N 0.49813 0.53586 0.43329 0.0
N1383 N 0.63123 0.51492 0.35904 0.0
C1384 C 0.53245 0.53369 0.41732 0.0
C1385 C 0.60187 0.52426 0.38242 0.0
N1386 N 0.51879 0.57362 0.35925 0.0
N1387 N 0.61722 0.48283 0.43796 0.0
H1388 H 0.63633 0.52778 0.33114 0.0
H1389 H 0.64783 0.49249 0.36509 0.0
H1390 H 0.61031 0.46917 0.46494 0.0
H1391 H 0.64353 0.47783 0.42722 0.0
H1392 H 0.49082 0.57471 0.3646 0.0
H1393 H 0.5279 0.58878 0.33417 0.0
H1394 H 0.47693 0.5507 0.42013 0.0
H1395 H 0.49093 0.52174 0.4598 0.0
C1396 C 0.31519 0.98892 0.87887 0.0
C1397 C 0.33225 1.00337 0.8438 0.0
C1398 C 0.3913 0.98531 0.8701 0.0
C1399 C 0.37291 0.95864 0.8934 0.0
N1400 N 0.31961 0.94296 0.93249 0.0
N1401 N 0.38481 1.03895 0.82694 0.0
C1402 C 0.33562 0.96407 0.90333 0.0
C1403 C 0.37 1.01005 0.84682 0.0
N1404 N 0.27888 0.99505 0.88426 0.0
N1405 N 0.42838 0.98417 0.86735 0.0
H1406 H 0.36832 1.05799 0.81202 0.0
H1407 H 0.41228 1.04592 0.82904 0.0
H1408 H 0.4437 0.96593 0.88499 0.0
H1409 H 0.44339 1.00043 0.84747 0.0
H1410 H 0.26403 0.98528 0.90907 0.0
H1411 H 0.26449 1.01187 0.86401 0.0
H1412 H 0.29186 0.94361 0.93922 0.0
H1413 H 0.33483 0.92492 0.95038 0.0
C1414 C 0.24607 0.62899 0.93478 0.0
C1415 C 0.25205 0.61204 0.97303 0.0
C1416 C 0.23851 0.55336 0.9418 0.0
C1417 C 0.2174 0.57262 0.91285 0.0
N1418 N 0.21552 0.62456 0.8684 0.0
N1419 N 0.26926 0.55696 1.008 0.0
C1420 C 0.22724 0.60895 0.90395 0.0
C1421 C 0.25483 0.57355 0.97429 0.0
N1422 N 0.25456 0.6649 0.93074 0.0
N1423 N 0.23822 0.51628 0.94062 0.0
H1424 H 0.28202 0.57178 0.03126 0.0
H1425 H 0.26919 0.52892 1.01255 0.0
H1426 H 0.22411 0.50247 0.91738 0.0
H1427 H 0.25313 0.49983 0.96054 0.0
H1428 H 0.25071 0.67979 0.90395 0.0
H1429 H 0.26723 0.67906 0.95476 0.0
H1430 H 0.21959 0.65176 0.86091 0.0
H1431 H 0.20257 0.60927 0.84562 0.0
C1432 C 0.80899 0.73603 0.86101 0.0
C1433 C 0.77855 0.75851 0.8532 0.0
C1434 C 0.78519 0.74905 0.78021 0.0
C1435 C 0.82219 0.74018 0.78791 0.0
N1436 N 0.86648 0.71315 0.83314 0.0
N1437 N 0.72505 0.75583 0.81081 0.0
C1438 C 0.83283 0.72828 0.82757 0.0
C1439 C 0.76199 0.75422 0.81442 0.0
N1440 N 0.817 0.72734 0.90059 0.0
N1441 N 0.77337 0.75514 0.74112 0.0
H1442 H 0.70847 0.75762 0.83681 0.0
H1443 H 0.71141 0.75144 0.78311 0.0
H1444 H 0.79017 0.75061 0.71573 0.0
H1445 H 0.7475 0.76542 0.73439 0.0
H1446 H 0.83899 0.71104 0.90921 0.0
H1447 H 0.79974 0.73567 0.92442 0.0
H1448 H 0.87704 0.70603 0.86171 0.0
H1449 H 0.88363 0.70756 0.80827 0.0
C1450 C 0.76636 0.2539 0.22499 0.0
C1451 C 0.78304 0.26031 0.18678 0.0
C1452 C 0.83748 0.22932 0.21072 0.0
C1453 C 0.82659 0.23916 0.25106 0.0
N1454 N 0.77736 0.2514 0.29833 0.0
N1455 N 0.82212 0.23206 0.13758 0.0
C1456 C 0.78946 0.24729 0.25901 0.0
C1457 C 0.81378 0.23859 0.17765 0.0
N1458 N 0.72938 0.25471 0.2283 0.0
N1459 N 0.87126 0.21469 0.20445 0.0
H1460 H 0.80491 0.24142 0.11422 0.0
H1461 H 0.84437 0.21652 0.128 0.0
H1462 H 0.88827 0.20799 0.2291 0.0
H1463 H 0.88202 0.20898 0.17556 0.0
H1464 H 0.7157 0.24872 0.25548 0.0
H1465 H 0.7129 0.25747 0.20229 0.0
H1466 H 0.75136 0.26114 0.30546 0.0
H1467 H 0.79403 0.24582 0.32357 0.0
C1468 C 0.21147 1.01511 0.98689 0.0
C1469 C 0.23013 1.04699 0.99921 0.0
C1470 C 0.23499 1.02342 0.06876 0.0
C1471 C 0.20526 1.00076 0.05895 0.0
N1472 N 0.18717 0.95665 1.00833 0.0
N1473 N 0.27117 1.07552 0.04709 0.0
C1474 C 0.20145 0.98987 0.01758 0.0
C1475 C 0.24703 1.0484 0.03838 0.0
N1476 N 0.20045 1.01128 0.94709 0.0
N1477 N 0.24733 1.02398 0.10821 0.0
H1478 H 0.27984 1.09366 0.02456 0.0
H1479 H 0.28298 1.07958 0.07583 0.0
H1480 H 0.23622 1.00643 0.13006 0.0
H1481 H 0.26884 1.04005 0.1185 0.0
H1482 H 0.18331 0.99053 0.93692 0.0
H1483 H 0.20831 1.02988 0.92458 0.0
H1484 H 0.18484 0.94669 0.97843 0.0
H1485 H 0.1815 0.93779 0.03128 0.0
C1486 C 0.60305 0.24042 0.43449 0.0
C1487 C 0.60238 0.25002 0.47639 0.0
C1488 C 0.53811 0.23372 0.47968 0.0
C1489 C 0.54338 0.2127 0.44388 0.0
N1490 N 0.57446 0.20987 0.37815 0.0
N1491 N 0.5639 0.27149 0.53208 0.0
C1492 C 0.57289 0.22175 0.41768 0.0
C1493 C 0.56794 0.25324 0.49598 0.0
N1494 N 0.63413 0.24528 0.41239 0.0
N1495 N 0.50597 0.23158 0.5004 0.0
H1496 H 0.58481 0.28651 0.54573 0.0
H1497 H 0.58481 0.28651 0.54573 0.0
H1498 H 0.4842 0.21632 0.48881 0.0
H1499 H 0.50144 0.24542 0.52803 0.0
H1500 H 0.63644 0.23706 0.38174 0.0
H1501 H 0.65683 0.25817 0.42532 0.0
H1502 H 0.5531 0.19607 0.36374 0.0
H1503 H 0.5531 0.19607 0.36374 0.0
loop_
_geom_bond_atom_site_label_1
_geom_bond_atom_site_label_2
_geom_bond_distance
_geom_bond_site_symmetry_2
_ccdc_geom_bond_type
Dy0 O3 2.307 . S
Dy0 O5 2.395 . S
Dy0 O6 2.379 . S
Dy0 O8 2.339 . S
Dy0 O10 2.298 . S
Dy0 O14 2.275 . S
Dy0 C22 2.738 . S
Dy1 O4 2.298 1_556 S
Dy1 O7 2.275 . S
Dy1 O9 2.307 . S
Dy1 O11 2.395 . S
Dy1 O12 2.379 . S
Dy1 O15 2.339 1_556 S
Dy1 C31 2.738 . S
C2 O14 1.254 . S
C2 O15 1.257 . S
O3 Dy0 2.307 . S
O3 C13 1.266 . S
O4 Dy1 2.298 1_554 S
O4 C13 1.236 . S
O5 Dy0 2.395 . S
O5 C22 1.255 . S
O6 Dy0 2.379 . S
O6 C22 1.249 . S
O7 Dy1 2.275 . S
O7 C23 1.254 . S
O8 Dy0 2.339 . S
O8 C23 1.257 1_554 S
O9 Dy1 2.307 . S
O9 C24 1.266 1_556 S
O10 Dy0 2.298 . S
O10 C24 1.236 . S
O11 Dy1 2.395 . S
O11 C31 1.255 . S
O12 Dy1 2.379 . S
O12 C31 1.249 . S
C13 O3 1.266 . S
C13 O4 1.236 . S
O14 Dy0 2.275 . S
O14 C2 1.254 . S
O15 Dy1 2.339 1_554 S
O15 C2 1.257 . S
C16 C19 1.344 . S
C16 C20 1.328 . S
C16 C22 1.516 . S
C17 C18 1.304 . S
C17 C21 1.323 . S
C18 C17 1.304 . S
C18 C19 1.371 . S
C18 H32 0.930 . S
C19 C16 1.344 . S
C19 C18 1.371 . S
C19 H33 0.931 . S
C20 C16 1.328 . S
C20 C21 1.433 . S
C20 H34 0.931 . S
C21 C17 1.323 . S
C21 C20 1.433 . S
C21 H35 0.933 . S
C22 Dy0 2.738 . S
C22 O5 1.255 . S
C22 O6 1.249 . S
C22 C16 1.516 . S
C23 O7 1.254 . S
C23 O8 1.257 1_556 S
C24 O9 1.266 1_554 S
C24 O10 1.236 . S
C25 C28 1.344 . S
C25 C29 1.328 . S
C25 C31 1.516 . S
C26 C27 1.304 . S
C26 C30 1.323 . S
C27 C26 1.304 . S
C27 C28 1.371 . S
C27 H36 0.930 . S
C28 C25 1.344 . S
C28 C27 1.371 . S
C28 H37 0.931 . S
C29 C25 1.328 . S
C29 C30 1.433 . S
C29 H38 0.931 . S
C30 C26 1.323 . S
C30 C29 1.433 . S
C30 H39 0.933 . S
C31 Dy1 2.738 . S
C31 O11 1.255 . S
C31 O12 1.249 . S
C31 C25 1.516 . S
H32 C18 0.930 . S
H33 C19 0.931 . S
H34 C20 0.931 . S
H35 C21 0.933 . S
H36 C27 0.930 . S
H37 C28 0.931 . S
H38 C29 0.931 . S
H39 C30 0.933 . S
Dy40 O43 2.307 . S
Dy40 O45 2.395 . S
Dy40 O46 2.379 . S
Dy40 O48 2.339 . S
Dy40 O50 2.298 . S
Dy40 O54 2.275 . S
Dy40 C62 2.738 . S
Dy41 O44 2.298 . S
Dy41 O47 2.275 . S
Dy41 O49 2.307 . S
Dy41 O51 2.395 . S
Dy41 O52 2.379 . S
Dy41 O55 2.339 . S
Dy41 C71 2.738 . S
C42 O54 1.254 . S
C42 O55 1.257 . S
O43 Dy40 2.307 . S
O43 C53 1.266 . S
O44 Dy41 2.298 . S
O44 C53 1.236 . S
O45 Dy40 2.395 . S
O45 C62 1.255 . S
O46 Dy40 2.379 . S
O46 C62 1.249 . S
O47 Dy41 2.275 . S
O47 C63 1.254 . S
O48 Dy40 2.339 . S
O48 C63 1.257 . S
O49 Dy41 2.307 . S
O49 C64 1.266 . S
O50 Dy40 2.298 . S
O50 C64 1.236 . S
O51 Dy41 2.395 . S
O51 C71 1.255 . S
O52 Dy41 2.379 . S
O52 C71 1.249 . S
C53 O43 1.266 . S
C53 O44 1.236 . S
O54 Dy40 2.275 . S
O54 C42 1.254 . S
O55 Dy41 2.339 . S
O55 C42 1.257 . S
C56 C59 1.344 . S
C56 C60 1.328 . S
C56 C62 1.516 . S
C57 C58 1.304 . S
C57 C61 1.323 . S
C58 C57 1.304 . S
C58 C59 1.371 . S
C58 H72 0.930 . S
C59 C56 1.344 . S
C59 C58 1.371 . S
C59 H73 0.931 . S
C60 C56 1.328 . S
C60 C61 1.433 . S
C60 H74 0.931 . S
C61 C57 1.323 . S
C61 C60 1.433 . S
C61 H75 0.933 . S
C62 Dy40 2.738 . S
C62 O45 1.255 . S
C62 O46 1.249 . S
C62 C56 1.516 . S
C63 O47 1.254 . S
C63 O48 1.257 . S
C64 O49 1.266 . S
C64 O50 1.236 . S
C65 C68 1.344 . S
C65 C69 1.328 . S
C65 C71 1.516 . S
C66 C67 1.304 . S
C66 C70 1.323 . S
C67 C66 1.304 . S
C67 C68 1.371 . S
C67 H76 0.930 . S
C68 C65 1.344 . S
C68 C67 1.371 . S
C68 H77 0.931 . S
C69 C65 1.328 . S
C69 C70 1.433 . S
C69 H78 0.931 . S
C70 C66 1.323 . S
C70 C69 1.433 . S
C70 H79 0.933 . S
C71 Dy41 2.738 . S
C71 O51 1.255 . S
C71 O52 1.249 . S
C71 C65 1.516 . S
H72 C58 0.930 . S
H73 C59 0.931 . S
H74 C60 0.931 . S
H75 C61 0.933 . S
H76 C67 0.930 . S
H77 C68 0.931 . S
H78 C69 0.931 . S
H79 C70 0.933 . S
Dy80 O83 2.307 . S
Dy80 O85 2.395 . S
Dy80 O86 2.379 . S
Dy80 O88 2.339 . S
Dy80 O90 2.298 . S
Dy80 O94 2.275 . S
Dy80 C102 2.738 . S
Dy81 O84 2.298 . S
Dy81 O87 2.275 . S
Dy81 O89 2.307 . S
Dy81 O91 2.395 . S
Dy81 O92 2.379 . S
Dy81 O95 2.339 . S
Dy81 C111 2.738 . S
C82 O94 1.254 . S
C82 O95 1.257 . S
O83 Dy80 2.307 . S
O83 C93 1.266 . S
O84 Dy81 2.298 . S
O84 C93 1.236 . S
O85 Dy80 2.395 . S
O85 C102 1.255 . S
O86 Dy80 2.379 . S
O86 C102 1.249 . S
O87 Dy81 2.275 . S
O87 C103 1.254 . S
O88 Dy80 2.339 . S
O88 C103 1.257 . S
O89 Dy81 2.307 . S
O89 C104 1.266 . S
O90 Dy80 2.298 . S
O90 C104 1.236 . S
O91 Dy81 2.395 . S
O91 C111 1.255 . S
O92 Dy81 2.379 . S
O92 C111 1.249 . S
C93 O83 1.266 . S
C93 O84 1.236 . S
O94 Dy80 2.275 . S
O94 C82 1.254 . S
O95 Dy81 2.339 . S
O95 C82 1.257 . S
C96 C99 1.344 . S
C96 C100 1.328 . S
C96 C102 1.516 . S
C97 C98 1.304 . S
C97 C101 1.323 . S
C98 C97 1.304 . S
C98 C99 1.371 . S
C98 H112 0.930 . S
C99 C96 1.344 . S
C99 C98 1.371 . S
C99 H113 0.931 . S
C100 C96 1.328 . S
C100 C101 1.433 . S
C100 H114 0.931 . S
C101 C97 1.323 . S
C101 C100 1.433 . S
C101 H115 0.933 . S
C102 Dy80 2.738 . S
C102 O85 1.255 . S
C102 O86 1.249 . S
C102 C96 1.516 . S
C103 O87 1.254 . S
C103 O88 1.257 . S
C104 O89 1.266 . S
C104 O90 1.236 . S
C105 C108 1.344 . S
C105 C109 1.328 . S
C105 C111 1.516 . S
C106 C107 1.304 . S
C106 C110 1.323 . S
C107 C106 1.304 . S
C107 C108 1.371 1_655 S
C107 H116 0.930 . S
C108 C105 1.344 . S
C108 C107 1.371 1_455 S
C108 H117 0.931 . S
C109 C105 1.328 . S
C109 C110 1.433 1_455 S
C109 H118 0.931 . S
C110 C106 1.323 . S
C110 C109 1.433 1_655 S
C110 H119 0.933 . S
C111 Dy81 2.738 . S
C111 O91 1.255 . S
C111 O92 1.249 . S
C111 C105 1.516 . S
H112 C98 0.930 . S
H113 C99 0.931 . S
H114 C100 0.931 . S
H115 C101 0.933 . S
H116 C107 0.930 . S
H117 C108 0.931 . S
H118 C109 0.931 . S
H119 C110 0.933 . S
Dy120 O123 2.307 . S
Dy120 O125 2.395 . S
Dy120 O126 2.379 . S
Dy120 O128 2.339 . S
Dy120 O130 2.298 . S
Dy120 O134 2.275 . S
Dy120 C142 2.738 . S
Dy121 O124 2.298 . S
Dy121 O127 2.275 . S
Dy121 O129 2.307 . S
Dy121 O131 2.395 . S
Dy121 O132 2.379 . S
Dy121 O135 2.339 . S
Dy121 C151 2.738 . S
C122 O134 1.254 . S
C122 O135 1.257 . S
O123 Dy120 2.307 . S
O123 C133 1.266 . S
O124 Dy121 2.298 . S
O124 C133 1.236 . S
O125 Dy120 2.395 . S
O125 C142 1.255 . S
O126 Dy120 2.379 . S
O126 C142 1.249 . S
O127 Dy121 2.275 . S
O127 C143 1.254 . S
O128 Dy120 2.339 . S
O128 C143 1.257 . S
O129 Dy121 2.307 . S
O129 C144 1.266 . S
O130 Dy120 2.298 . S
O130 C144 1.236 . S
O131 Dy121 2.395 . S
O131 C151 1.255 . S
O132 Dy121 2.379 . S
O132 C151 1.249 . S
C133 O123 1.266 . S
C133 O124 1.236 . S
O134 Dy120 2.275 . S
O134 C122 1.254 . S
O135 Dy121 2.339 . S
O135 C122 1.257 . S
C136 C139 1.344 . S
C136 C140 1.328 . S
C136 C142 1.516 . S
C137 C138 1.304 . S
C137 C141 1.323 . S
C138 C137 1.304 . S
C138 C139 1.371 . S
C138 H152 0.930 . S
C139 C136 1.344 . S
C139 C138 1.371 . S
C139 H153 0.931 . S
C140 C136 1.328 . S
C140 C141 1.433 . S
C140 H154 0.931 . S
C141 C137 1.323 . S
C141 C140 1.433 . S
C141 H155 0.933 . S
C142 Dy120 2.738 . S
C142 O125 1.255 . S
C142 O126 1.249 . S
C142 C136 1.516 . S
C143 O127 1.254 . S
C143 O128 1.257 . S
C144 O129 1.266 . S
C144 O130 1.236 . S
C145 C148 1.344 . S
C145 C149 1.328 . S
C145 C151 1.516 . S
C146 C147 1.304 . S
C146 C150 1.323 . S
C147 C146 1.304 . S
C147 C148 1.371 . S
C147 H156 0.930 . S
C148 C145 1.344 . S
C148 C147 1.371 . S
C148 H157 0.931 . S
C149 C145 1.328 . S
C149 C150 1.433 . S
C149 H158 0.931 . S
C150 C146 1.323 . S
C150 C149 1.433 . S
C150 H159 0.933 . S
C151 Dy121 2.738 . S
C151 O131 1.255 . S
C151 O132 1.249 . S
C151 C145 1.516 . S
H152 C138 0.930 . S
H153 C139 0.931 . S
H154 C140 0.931 . S
H155 C141 0.933 . S
H156 C147 0.930 . S
H157 C148 0.931 . S
H158 C149 0.931 . S
H159 C150 0.933 . S
Dy160 O163 2.307 . S
Dy160 O165 2.395 . S
Dy160 O166 2.379 . S
Dy160 O168 2.339 1_554 S
Dy160 O170 2.298 1_554 S
Dy160 O174 2.275 . S
Dy160 C182 2.738 . S
Dy161 O164 2.298 . S
Dy161 O167 2.275 . S
Dy161 O169 2.307 . S
Dy161 O171 2.395 . S
Dy161 O172 2.379 . S
Dy161 O175 2.339 . S
Dy161 C191 2.738 . S
C162 O174 1.254 . S
C162 O175 1.257 1_554 S
O163 Dy160 2.307 . S
O163 C173 1.266 1_554 S
O164 Dy161 2.298 . S
O164 C173 1.236 . S
O165 Dy160 2.395 . S
O165 C182 1.255 . S
O166 Dy160 2.379 . S
O166 C182 1.249 . S
O167 Dy161 2.275 . S
O167 C183 1.254 . S
O168 Dy160 2.339 1_556 S
O168 C183 1.257 . S
O169 Dy161 2.307 . S
O169 C184 1.266 . S
O170 Dy160 2.298 1_556 S
O170 C184 1.236 . S
O171 Dy161 2.395 . S
O171 C191 1.255 . S
O172 Dy161 2.379 . S
O172 C191 1.249 . S
C173 O163 1.266 1_556 S
C173 O164 1.236 . S
O174 Dy160 2.275 . S
O174 C162 1.254 . S
O175 Dy161 2.339 . S
O175 C162 1.257 1_556 S
C176 C179 1.344 . S
C176 C180 1.328 . S
C176 C182 1.516 . S
C177 C178 1.304 . S
C177 C181 1.323 . S
C178 C177 1.304 . S
C178 C179 1.371 . S
C178 H192 0.930 . S
C179 C176 1.344 . S
C179 C178 1.371 . S
C179 H193 0.931 . S
C180 C176 1.328 . S
C180 C181 1.433 . S
C180 H194 0.931 . S
C181 C177 1.323 . S
C181 C180 1.433 . S
C181 H195 0.933 . S
C182 Dy160 2.738 . S
C182 O165 1.255 . S
C182 O166 1.249 . S
C182 C176 1.516 . S
C183 O167 1.254 . S
C183 O168 1.257 . S
C184 O169 1.266 . S
C184 O170 1.236 . S
C185 C188 1.344 . S
C185 C189 1.328 . S
C185 C191 1.516 . S
C186 C187 1.304 . S
C186 C190 1.323 . S
C187 C186 1.304 . S
C187 C188 1.371 . S
C187 H196 0.930 . S
C188 C185 1.344 . S
C188 C187 1.371 . S
C188 H197 0.931 . S
C189 C185 1.328 . S
C189 C190 1.433 . S
C189 H198 0.931 . S
C190 C186 1.323 . S
C190 C189 1.433 . S
C190 H199 0.933 . S
C191 Dy161 2.738 . S
C191 O171 1.255 . S
C191 O172 1.249 . S
C191 C185 1.516 . S
H192 C178 0.930 . S
H193 C179 0.931 . S
H194 C180 0.931 . S
H195 C181 0.933 . S
H196 C187 0.930 . S
H197 C188 0.931 . S
H198 C189 0.931 . S
H199 C190 0.933 . S
Dy200 O203 2.307 . S
Dy200 O205 2.395 . S
Dy200 O206 2.379 . S
Dy200 O208 2.339 . S
Dy200 O210 2.298 . S
Dy200 O214 2.275 . S
Dy200 C222 2.738 . S
Dy201 O204 2.298 . S
Dy201 O207 2.275 . S
Dy201 O209 2.307 . S
Dy201 O211 2.395 . S
Dy201 O212 2.379 . S
Dy201 O215 2.339 . S
Dy201 C231 2.738 . S
C202 O214 1.254 . S
C202 O215 1.257 . S
O203 Dy200 2.307 . S
O203 C213 1.266 . S
O204 Dy201 2.298 . S
O204 C213 1.236 . S
O205 Dy200 2.395 . S
O205 C222 1.255 . S
O206 Dy200 2.379 . S
O206 C222 1.249 . S
O207 Dy201 2.275 . S
O207 C223 1.254 . S
O208 Dy200 2.339 . S
O208 C223 1.257 . S
O209 Dy201 2.307 . S
O209 C224 1.266 . S
O210 Dy200 2.298 . S
O210 C224 1.236 . S
O211 Dy201 2.395 . S
O211 C231 1.255 . S
O212 Dy201 2.379 . S
O212 C231 1.249 . S
C213 O203 1.266 . S
C213 O204 1.236 . S
O214 Dy200 2.275 . S
O214 C202 1.254 . S
O215 Dy201 2.339 . S
O215 C202 1.257 . S
C216 C219 1.344 . S
C216 C220 1.328 . S
C216 C222 1.516 . S
C217 C218 1.304 . S
C217 C221 1.323 . S
C218 C217 1.304 . S
C218 C219 1.371 . S
C218 H232 0.930 . S
C219 C216 1.344 . S
C219 C218 1.371 . S
C219 H233 0.931 . S
C220 C216 1.328 . S
C220 C221 1.433 . S
C220 H234 0.931 . S
C221 C217 1.323 . S
C221 C220 1.433 . S
C221 H235 0.933 . S
C222 Dy200 2.738 . S
C222 O205 1.255 . S
C222 O206 1.249 . S
C222 C216 1.516 . S
C223 O207 1.254 . S
C223 O208 1.257 . S
C224 O209 1.266 . S
C224 O210 1.236 . S
C225 C228 1.344 . S
C225 C229 1.328 . S
C225 C231 1.516 . S
C226 C227 1.304 . S
C226 C230 1.323 . S
C227 C226 1.304 . S
C227 C228 1.371 . S
C227 H236 0.930 . S
C228 C225 1.344 . S
C228 C227 1.371 . S
C228 H237 0.931 . S
C229 C225 1.328 . S
C229 C230 1.433 . S
C229 H238 0.931 . S
C230 C226 1.323 . S
C230 C229 1.433 . S
C230 H239 0.933 . S
C231 Dy201 2.738 . S
C231 O211 1.255 . S
C231 O212 1.249 . S
C231 C225 1.516 . S
H232 C218 0.930 . S
H233 C219 0.931 . S
H234 C220 0.931 . S
H235 C221 0.933 . S
H236 C227 0.930 . S
H237 C228 0.931 . S
H238 C229 0.931 . S
H239 C230 0.933 . S
Dy240 O243 2.307 . S
Dy240 O245 2.395 . S
Dy240 O246 2.379 . S
Dy240 O248 2.339 . S
Dy240 O250 2.298 . S
Dy240 O254 2.275 . S
Dy240 C262 2.738 . S
Dy241 O244 2.298 . S
Dy241 O247 2.275 . S
Dy241 O249 2.307 . S
Dy241 O251 2.395 . S
Dy241 O252 2.379 . S
Dy241 O255 2.339 . S
Dy241 C271 2.738 . S
C242 O254 1.254 . S
C242 O255 1.257 . S
O243 Dy240 2.307 . S
O243 C253 1.266 . S
O244 Dy241 2.298 . S
O244 C253 1.236 . S
O245 Dy240 2.395 . S
O245 C262 1.255 . S
O246 Dy240 2.379 . S
O246 C262 1.249 . S
O247 Dy241 2.275 . S
O247 C263 1.254 . S
O248 Dy240 2.339 . S
O248 C263 1.257 . S
O249 Dy241 2.307 . S
O249 C264 1.266 . S
O250 Dy240 2.298 . S
O250 C264 1.236 . S
O251 Dy241 2.395 . S
O251 C271 1.255 . S
O252 Dy241 2.379 . S
O252 C271 1.249 . S
C253 O243 1.266 . S
C253 O244 1.236 . S
O254 Dy240 2.275 . S
O254 C242 1.254 . S
O255 Dy241 2.339 . S
O255 C242 1.257 . S
C256 C259 1.344 . S
C256 C260 1.328 . S
C256 C262 1.516 . S
C257 C258 1.304 . S
C257 C261 1.323 . S
C258 C257 1.304 . S
C258 C259 1.371 1_455 S
C258 H272 0.930 . S
C259 C256 1.344 . S
C259 C258 1.371 1_655 S
C259 H273 0.931 . S
C260 C256 1.328 . S
C260 C261 1.433 1_655 S
C260 H274 0.931 . S
C261 C257 1.323 . S
C261 C260 1.433 1_455 S
C261 H275 0.933 . S
C262 Dy240 2.738 . S
C262 O245 1.255 . S
C262 O246 1.249 . S
C262 C256 1.516 . S
C263 O247 1.254 . S
C263 O248 1.257 . S
C264 O249 1.266 . S
C264 O250 1.236 . S
C265 C268 1.344 . S
C265 C269 1.328 . S
C265 C271 1.516 . S
C266 C267 1.304 . S
C266 C270 1.323 . S
C267 C266 1.304 . S
C267 C268 1.371 . S
C267 H276 0.930 . S
C268 C265 1.344 . S
C268 C267 1.371 . S
C268 H277 0.931 . S
C269 C265 1.328 . S
C269 C270 1.433 . S
C269 H278 0.931 . S
C270 C266 1.323 . S
C270 C269 1.433 . S
C270 H279 0.933 . S
C271 Dy241 2.738 . S
C271 O251 1.255 . S
C271 O252 1.249 . S
C271 C265 1.516 . S
H272 C258 0.930 . S
H273 C259 0.931 . S
H274 C260 0.931 . S
H275 C261 0.933 . S
H276 C267 0.930 . S
H277 C268 0.931 . S
H278 C269 0.931 . S
H279 C270 0.933 . S
Dy280 O283 2.307 . S
Dy280 O285 2.395 . S
Dy280 O286 2.379 . S
Dy280 O288 2.339 . S
Dy280 O290 2.298 . S
Dy280 O294 2.275 . S
Dy280 C302 2.738 . S
Dy281 O284 2.298 . S
Dy281 O287 2.275 . S
Dy281 O289 2.307 . S
Dy281 O291 2.395 . S
Dy281 O292 2.379 . S
Dy281 O295 2.339 . S
Dy281 C311 2.738 . S
C282 O294 1.254 . S
C282 O295 1.257 . S
O283 Dy280 2.307 . S
O283 C293 1.266 . S
O284 Dy281 2.298 . S
O284 C293 1.236 . S
O285 Dy280 2.395 . S
O285 C302 1.255 . S
O286 Dy280 2.379 . S
O286 C302 1.249 . S
O287 Dy281 2.275 . S
O287 C303 1.254 . S
O288 Dy280 2.339 . S
O288 C303 1.257 . S
O289 Dy281 2.307 . S
O289 C304 1.266 . S
O290 Dy280 2.298 . S
O290 C304 1.236 . S
O291 Dy281 2.395 . S
O291 C311 1.255 . S
O292 Dy281 2.379 . S
O292 C311 1.249 . S
C293 O283 1.266 . S
C293 O284 1.236 . S
O294 Dy280 2.275 . S
O294 C282 1.254 . S
O295 Dy281 2.339 . S
O295 C282 1.257 . S
C296 C299 1.344 . S
C296 C300 1.328 . S
C296 C302 1.516 . S
C297 C298 1.304 . S
C297 C301 1.323 . S
C298 C297 1.304 . S
C298 C299 1.371 . S
C298 H312 0.930 . S
C299 C296 1.344 . S
C299 C298 1.371 . S
C299 H313 0.931 . S
C300 C296 1.328 . S
C300 C301 1.433 . S
C300 H314 0.931 . S
C301 C297 1.323 . S
C301 C300 1.433 . S
C301 H315 0.933 . S
C302 Dy280 2.738 . S
C302 O285 1.255 . S
C302 O286 1.249 . S
C302 C296 1.516 . S
C303 O287 1.254 . S
C303 O288 1.257 . S
C304 O289 1.266 . S
C304 O290 1.236 . S
C305 C308 1.344 . S
C305 C309 1.328 . S
C305 C311 1.516 . S
C306 C307 1.304 . S
C306 C310 1.323 . S
C307 C306 1.304 . S
C307 C308 1.371 . S
C307 H316 0.930 . S
C308 C305 1.344 . S
C308 C307 1.371 . S
C308 H317 0.931 . S
C309 C305 1.328 . S
C309 C310 1.433 . S
C309 H318 0.931 . S
C310 C306 1.323 . S
C310 C309 1.433 . S
C310 H319 0.933 . S
C311 Dy281 2.738 . S
C311 O291 1.255 . S
C311 O292 1.249 . S
C311 C305 1.516 . S
H312 C298 0.930 . S
H313 C299 0.931 . S
H314 C300 0.931 . S
H315 C301 0.933 . S
H316 C307 0.930 . S
H317 C308 0.931 . S
H318 C309 0.931 . S
H319 C310 0.933 . S
Dy320 O323 2.307 . S
Dy320 O325 2.395 . S
Dy320 O326 2.379 . S
Dy320 O328 2.339 . S
Dy320 O330 2.298 . S
Dy320 O334 2.275 . S
Dy320 C342 2.738 . S
Dy321 O324 2.298 . S
Dy321 O327 2.275 . S
Dy321 O329 2.307 . S
Dy321 O331 2.395 . S
Dy321 O332 2.379 . S
Dy321 O335 2.339 . S
Dy321 C351 2.738 . S
C322 O334 1.254 . S
C322 O335 1.257 . S
O323 Dy320 2.307 . S
O323 C333 1.266 . S
O324 Dy321 2.298 . S
O324 C333 1.236 . S
O325 Dy320 2.395 . S
O325 C342 1.255 . S
O326 Dy320 2.379 . S
O326 C342 1.249 . S
O327 Dy321 2.275 . S
O327 C343 1.254 . S
O328 Dy320 2.339 . S
O328 C343 1.257 . S
O329 Dy321 2.307 . S
O329 C344 1.266 . S
O330 Dy320 2.298 . S
O330 C344 1.236 . S
O331 Dy321 2.395 . S
O331 C351 1.255 . S
O332 Dy321 2.379 . S
O332 C351 1.249 . S
C333 O323 1.266 . S
C333 O324 1.236 . S
O334 Dy320 2.275 . S
O334 C322 1.254 . S
O335 Dy321 2.339 . S
O335 C322 1.257 . S
C336 C339 1.344 . S
C336 C340 1.328 . S
C336 C342 1.516 . S
C337 C338 1.304 . S
C337 C341 1.323 . S
C338 C337 1.304 . S
C338 C339 1.371 . S
C338 H352 0.930 . S
C339 C336 1.344 . S
C339 C338 1.371 . S
C339 H353 0.931 . S
C340 C336 1.328 . S
C340 C341 1.433 . S
C340 H354 0.931 . S
C341 C337 1.323 . S
C341 C340 1.433 . S
C341 H355 0.933 . S
C342 Dy320 2.738 . S
C342 O325 1.255 . S
C342 O326 1.249 . S
C342 C336 1.516 . S
C343 O327 1.254 . S
C343 O328 1.257 . S
C344 O329 1.266 . S
C344 O330 1.236 . S
C345 C348 1.344 . S
C345 C349 1.328 . S
C345 C351 1.516 . S
C346 C347 1.304 . S
C346 C350 1.323 . S
C347 C346 1.304 . S
C347 C348 1.371 1_455 S
C347 H356 0.930 . S
C348 C345 1.344 . S
C348 C347 1.371 1_655 S
C348 H357 0.931 . S
C349 C345 1.328 . S
C349 C350 1.433 1_655 S
C349 H358 0.931 . S
C350 C346 1.323 . S
C350 C349 1.433 1_455 S
C350 H359 0.933 . S
C351 Dy321 2.738 . S
C351 O331 1.255 . S
C351 O332 1.249 . S
C351 C345 1.516 . S
H352 C338 0.930 . S
H353 C339 0.931 . S
H354 C340 0.931 . S
H355 C341 0.933 . S
H356 C347 0.930 . S
H357 C348 0.931 . S
H358 C349 0.931 . S
H359 C350 0.933 . S
Dy360 O363 2.307 . S
Dy360 O365 2.395 . S
Dy360 O366 2.379 . S
Dy360 O368 2.339 . S
Dy360 O370 2.298 . S
Dy360 O374 2.275 . S
Dy360 C382 2.738 . S
Dy361 O364 2.298 . S
Dy361 O367 2.275 . S
Dy361 O369 2.307 . S
Dy361 O371 2.395 . S
Dy361 O372 2.379 . S
Dy361 O375 2.339 . S
Dy361 C391 2.738 . S
C362 O374 1.254 . S
C362 O375 1.257 . S
O363 Dy360 2.307 . S
O363 C373 1.266 . S
O364 Dy361 2.298 . S
O364 C373 1.236 . S
O365 Dy360 2.395 . S
O365 C382 1.255 . S
O366 Dy360 2.379 . S
O366 C382 1.249 . S
O367 Dy361 2.275 . S
O367 C383 1.254 . S
O368 Dy360 2.339 . S
O368 C383 1.257 . S
O369 Dy361 2.307 . S
O369 C384 1.266 . S
O370 Dy360 2.298 . S
O370 C384 1.236 . S
O371 Dy361 2.395 . S
O371 C391 1.255 . S
O372 Dy361 2.379 . S
O372 C391 1.249 . S
C373 O363 1.266 . S
C373 O364 1.236 . S
O374 Dy360 2.275 . S
O374 C362 1.254 . S
O375 Dy361 2.339 . S
O375 C362 1.257 . S
C376 C379 1.344 . S
C376 C380 1.328 . S
C376 C382 1.516 . S
C377 C378 1.310 . S
C377 C381 1.335 . S
C378 C377 1.310 . S
C378 C379 1.359 1_565 S
C378 H392 0.936 . S
C379 C376 1.344 . S
C379 C378 1.359 1_545 S
C379 H393 0.931 . S
C380 C376 1.328 . S
C380 C381 1.410 1_545 S
C380 H394 0.931 . S
C381 C377 1.335 . S
C381 C380 1.410 1_565 S
C381 H395 0.944 . S
C382 Dy360 2.738 . S
C382 O365 1.255 . S
C382 O366 1.249 . S
C382 C376 1.516 . S
C383 O367 1.254 . S
C383 O368 1.257 . S
C384 O369 1.266 . S
C384 O370 1.236 . S
C385 C388 1.344 . S
C385 C389 1.328 . S
C385 C391 1.516 . S
C386 C387 1.304 . S
C386 C390 1.323 . S
C387 C386 1.304 . S
C387 C388 1.371 . S
C387 H396 0.930 . S
C388 C385 1.344 . S
C388 C387 1.371 . S
C388 H397 0.931 . S
C389 C385 1.328 . S
C389 C390 1.433 . S
C389 H398 0.931 . S
C390 C386 1.323 . S
C390 C389 1.433 . S
C390 H399 0.933 . S
C391 Dy361 2.738 . S
C391 O371 1.255 . S
C391 O372 1.249 . S
C391 C385 1.516 . S
H392 C378 0.936 . S
H393 C379 0.931 . S
H394 C380 0.931 . S
H395 C381 0.944 . S
H396 C387 0.930 . S
H397 C388 0.931 . S
H398 C389 0.931 . S
H399 C390 0.933 . S
Dy400 O403 2.307 . S
Dy400 O405 2.395 . S
Dy400 O406 2.379 . S
Dy400 O408 2.339 . S
Dy400 O410 2.298 . S
Dy400 O414 2.275 . S
Dy400 C422 2.738 . S
Dy401 O404 2.298 1_556 S
Dy401 O407 2.275 . S
Dy401 O409 2.307 . S
Dy401 O411 2.395 . S
Dy401 O412 2.379 . S
Dy401 O415 2.339 1_556 S
Dy401 C431 2.738 . S
C402 O414 1.254 . S
C402 O415 1.257 . S
O403 Dy400 2.307 . S
O403 C413 1.266 . S
O404 Dy401 2.298 1_554 S
O404 C413 1.236 . S
O405 Dy400 2.395 . S
O405 C422 1.255 . S
O406 Dy400 2.379 . S
O406 C422 1.249 . S
O407 Dy401 2.275 . S
O407 C423 1.254 . S
O408 Dy400 2.339 . S
O408 C423 1.257 1_554 S
O409 Dy401 2.307 . S
O409 C424 1.266 1_556 S
O410 Dy400 2.298 . S
O410 C424 1.236 . S
O411 Dy401 2.395 . S
O411 C431 1.255 . S
O412 Dy401 2.379 . S
O412 C431 1.249 . S
C413 O403 1.266 . S
C413 O404 1.236 . S
O414 Dy400 2.275 . S
O414 C402 1.254 . S
O415 Dy401 2.339 1_554 S
O415 C402 1.257 . S
C416 C419 1.344 . S
C416 C420 1.328 . S
C416 C422 1.516 . S
C417 C418 1.304 . S
C417 C421 1.323 . S
C418 C417 1.304 . S
C418 C419 1.371 . S
C418 H432 0.930 . S
C419 C416 1.344 . S
C419 C418 1.371 . S
C419 H433 0.931 . S
C420 C416 1.328 . S
C420 C421 1.433 . S
C420 H434 0.931 . S
C421 C417 1.323 . S
C421 C420 1.433 . S
C421 H435 0.933 . S
C422 Dy400 2.738 . S
C422 O405 1.255 . S
C422 O406 1.249 . S
C422 C416 1.516 . S
C423 O407 1.254 . S
C423 O408 1.257 1_556 S
C424 O409 1.266 1_554 S
C424 O410 1.236 . S
C425 C428 1.344 . S
C425 C429 1.328 . S
C425 C431 1.516 . S
C426 C427 1.304 . S
C426 C430 1.323 . S
C427 C426 1.304 . S
C427 C428 1.371 . S
C427 H436 0.930 . S
C428 C425 1.344 . S
C428 C427 1.371 . S
C428 H437 0.931 . S
C429 C425 1.328 . S
C429 C430 1.433 . S
C429 H438 0.931 . S
C430 C426 1.323 . S
C430 C429 1.433 . S
C430 H439 0.933 . S
C431 Dy401 2.738 . S
C431 O411 1.255 . S
C431 O412 1.249 . S
C431 C425 1.516 . S
H432 C418 0.930 . S
H433 C419 0.931 . S
H434 C420 0.931 . S
H435 C421 0.933 . S
H436 C427 0.930 . S
H437 C428 0.931 . S
H438 C429 0.931 . S
H439 C430 0.933 . S
Dy440 O443 2.307 . S
Dy440 O445 2.395 . S
Dy440 O446 2.379 . S
Dy440 O448 2.339 . S
Dy440 O450 2.298 . S
Dy440 O454 2.275 . S
Dy440 C462 2.738 . S
Dy441 O444 2.298 . S
Dy441 O447 2.275 . S
Dy441 O449 2.307 . S
Dy441 O451 2.395 . S
Dy441 O452 2.379 . S
Dy441 O455 2.339 . S
Dy441 C471 2.738 . S
C442 O454 1.254 . S
C442 O455 1.257 . S
O443 Dy440 2.307 . S
O443 C453 1.266 . S
O444 Dy441 2.298 . S
O444 C453 1.236 . S
O445 Dy440 2.395 . S
O445 C462 1.255 . S
O446 Dy440 2.379 . S
O446 C462 1.249 . S
O447 Dy441 2.275 . S
O447 C463 1.254 . S
O448 Dy440 2.339 . S
O448 C463 1.257 . S
O449 Dy441 2.307 . S
O449 C464 1.266 . S
O450 Dy440 2.298 . S
O450 C464 1.236 . S
O451 Dy441 2.395 . S
O451 C471 1.255 . S
O452 Dy441 2.379 . S
O452 C471 1.249 . S
C453 O443 1.266 . S
C453 O444 1.236 . S
O454 Dy440 2.275 . S
O454 C442 1.254 . S
O455 Dy441 2.339 . S
O455 C442 1.257 . S
C456 C459 1.344 . S
C456 C460 1.328 . S
C456 C462 1.516 . S
C457 C458 1.310 . S
C457 C461 1.335 . S
C458 C457 1.310 . S
C458 C459 1.359 1_545 S
C458 H472 0.936 . S
C459 C456 1.344 . S
C459 C458 1.359 1_565 S
C459 H473 0.931 . S
C460 C456 1.328 . S
C460 C461 1.410 1_565 S
C460 H474 0.931 . S
C461 C457 1.335 . S
C461 C460 1.410 1_545 S
C461 H475 0.944 . S
C462 Dy440 2.738 . S
C462 O445 1.255 . S
C462 O446 1.249 . S
C462 C456 1.516 . S
C463 O447 1.254 . S
C463 O448 1.257 . S
C464 O449 1.266 . S
C464 O450 1.236 . S
C465 C468 1.344 . S
C465 C469 1.328 . S
C465 C471 1.516 . S
C466 C467 1.304 . S
C466 C470 1.323 . S
C467 C466 1.304 . S
C467 C468 1.371 . S
C467 H476 0.930 . S
C468 C465 1.344 . S
C468 C467 1.371 . S
C468 H477 0.931 . S
C469 C465 1.328 . S
C469 C470 1.433 . S
C469 H478 0.931 . S
C470 C466 1.323 . S
C470 C469 1.433 . S
C470 H479 0.933 . S
C471 Dy441 2.738 . S
C471 O451 1.255 . S
C471 O452 1.249 . S
C471 C465 1.516 . S
H472 C458 0.936 . S
H473 C459 0.931 . S
H474 C460 0.931 . S
H475 C461 0.944 . S
H476 C467 0.930 . S
H477 C468 0.931 . S
H478 C469 0.931 . S
H479 C470 0.933 . S
Dy480 O483 2.307 . S
Dy480 O485 2.395 . S
Dy480 O486 2.379 . S
Dy480 O488 2.339 . S
Dy480 O490 2.298 . S
Dy480 O494 2.275 . S
Dy480 C502 2.738 . S
Dy481 O484 2.298 . S
Dy481 O487 2.275 . S
Dy481 O489 2.307 . S
Dy481 O491 2.395 . S
Dy481 O492 2.379 . S
Dy481 O495 2.339 . S
Dy481 C511 2.738 . S
C482 O494 1.254 . S
C482 O495 1.257 . S
O483 Dy480 2.307 . S
O483 C493 1.266 . S
O484 Dy481 2.298 . S
O484 C493 1.236 . S
O485 Dy480 2.395 . S
O485 C502 1.255 . S
O486 Dy480 2.379 . S
O486 C502 1.249 . S
O487 Dy481 2.275 . S
O487 C503 1.254 . S
O488 Dy480 2.339 . S
O488 C503 1.257 . S
O489 Dy481 2.307 . S
O489 C504 1.266 . S
O490 Dy480 2.298 . S
O490 C504 1.236 . S
O491 Dy481 2.395 . S
O491 C511 1.255 . S
O492 Dy481 2.379 . S
O492 C511 1.249 . S
C493 O483 1.266 . S
C493 O484 1.236 . S
O494 Dy480 2.275 . S
O494 C482 1.254 . S
O495 Dy481 2.339 . S
O495 C482 1.257 . S
C496 C499 1.344 . S
C496 C500 1.328 . S
C496 C502 1.516 . S
C497 C498 1.304 . S
C497 C501 1.323 . S
C498 C497 1.304 . S
C498 C499 1.371 1_655 S
C498 H512 0.930 . S
C499 C496 1.344 . S
C499 C498 1.371 1_455 S
C499 H513 0.931 . S
C500 C496 1.328 . S
C500 C501 1.433 1_455 S
C500 H514 0.931 . S
C501 C497 1.323 . S
C501 C500 1.433 1_655 S
C501 H515 0.933 . S
C502 Dy480 2.738 . S
C502 O485 1.255 . S
C502 O486 1.249 . S
C502 C496 1.516 . S
C503 O487 1.254 . S
C503 O488 1.257 . S
C504 O489 1.266 . S
C504 O490 1.236 . S
C505 C508 1.344 . S
C505 C509 1.328 . S
C505 C511 1.516 . S
C506 C507 1.304 . S
C506 C510 1.323 . S
C507 C506 1.304 . S
C507 C508 1.371 . S
C507 H516 0.930 . S
C508 C505 1.344 . S
C508 C507 1.371 . S
C508 H517 0.931 . S
C509 C505 1.328 . S
C509 C510 1.433 . S
C509 H518 0.931 . S
C510 C506 1.323 . S
C510 C509 1.433 . S
C510 H519 0.933 . S
C511 Dy481 2.738 . S
C511 O491 1.255 . S
C511 O492 1.249 . S
C511 C505 1.516 . S
H512 C498 0.930 . S
H513 C499 0.931 . S
H514 C500 0.931 . S
H515 C501 0.933 . S
H516 C507 0.930 . S
H517 C508 0.931 . S
H518 C509 0.931 . S
H519 C510 0.933 . S
Dy520 O523 2.307 . S
Dy520 O525 2.395 . S
Dy520 O526 2.379 . S
Dy520 O528 2.339 . S
Dy520 O530 2.298 . S
Dy520 O534 2.275 . S
Dy520 C542 2.738 . S
Dy521 O524 2.298 . S
Dy521 O527 2.275 . S
Dy521 O529 2.307 . S
Dy521 O531 2.395 . S
Dy521 O532 2.379 . S
Dy521 O535 2.339 . S
Dy521 C551 2.738 . S
C522 O534 1.254 . S
C522 O535 1.257 . S
O523 Dy520 2.307 . S
O523 C533 1.266 . S
O524 Dy521 2.298 . S
O524 C533 1.236 . S
O525 Dy520 2.395 . S
O525 C542 1.255 . S
O526 Dy520 2.379 . S
O526 C542 1.249 . S
O527 Dy521 2.275 . S
O527 C543 1.254 . S
O528 Dy520 2.339 . S
O528 C543 1.257 . S
O529 Dy521 2.307 . S
O529 C544 1.266 . S
O530 Dy520 2.298 . S
O530 C544 1.236 . S
O531 Dy521 2.395 . S
O531 C551 1.255 . S
O532 Dy521 2.379 . S
O532 C551 1.249 . S
C533 O523 1.266 . S
C533 O524 1.236 . S
O534 Dy520 2.275 . S
O534 C522 1.254 . S
O535 Dy521 2.339 . S
O535 C522 1.257 . S
C536 C539 1.344 . S
C536 C540 1.328 . S
C536 C542 1.516 . S
C537 C538 1.304 . S
C537 C541 1.323 . S
C538 C537 1.304 . S
C538 C539 1.371 . S
C538 H552 0.930 . S
C539 C536 1.344 . S
C539 C538 1.371 . S
C539 H553 0.931 . S
C540 C536 1.328 . S
C540 C541 1.433 . S
C540 H554 0.931 . S
C541 C537 1.323 . S
C541 C540 1.433 . S
C541 H555 0.933 . S
C542 Dy520 2.738 . S
C542 O525 1.255 . S
C542 O526 1.249 . S
C542 C536 1.516 . S
C543 O527 1.254 . S
C543 O528 1.257 . S
C544 O529 1.266 . S
C544 O530 1.236 . S
C545 C548 1.344 . S
C545 C549 1.328 . S
C545 C551 1.516 . S
C546 C547 1.310 . S
C546 C550 1.335 . S
C547 C546 1.310 . S
C547 C548 1.359 1_545 S
C547 H556 0.936 . S
C548 C545 1.344 . S
C548 C547 1.359 1_565 S
C548 H557 0.931 . S
C549 C545 1.328 . S
C549 C550 1.410 1_565 S
C549 H558 0.931 . S
C550 C546 1.335 . S
C550 C549 1.410 1_545 S
C550 H559 0.944 . S
C551 Dy521 2.738 . S
C551 O531 1.255 . S
C551 O532 1.249 . S
C551 C545 1.516 . S
H552 C538 0.930 . S
H553 C539 0.931 . S
H554 C540 0.931 . S
H555 C541 0.933 . S
H556 C547 0.936 . S
H557 C548 0.931 . S
H558 C549 0.931 . S
H559 C550 0.944 . S
Dy560 O563 2.307 . S
Dy560 O565 2.395 . S
Dy560 O566 2.379 . S
Dy560 O568 2.339 1_554 S
Dy560 O570 2.298 1_554 S
Dy560 O574 2.275 . S
Dy560 C582 2.738 . S
Dy561 O564 2.298 . S
Dy561 O567 2.275 . S
Dy561 O569 2.307 . S
Dy561 O571 2.395 . S
Dy561 O572 2.379 . S
Dy561 O575 2.339 . S
Dy561 C591 2.738 . S
C562 O574 1.254 . S
C562 O575 1.257 1_554 S
O563 Dy560 2.307 . S
O563 C573 1.266 1_554 S
O564 Dy561 2.298 . S
O564 C573 1.236 . S
O565 Dy560 2.395 . S
O565 C582 1.255 . S
O566 Dy560 2.379 . S
O566 C582 1.249 . S
O567 Dy561 2.275 . S
O567 C583 1.254 . S
O568 Dy560 2.339 1_556 S
O568 C583 1.257 . S
O569 Dy561 2.307 . S
O569 C584 1.266 . S
O570 Dy560 2.298 1_556 S
O570 C584 1.236 . S
O571 Dy561 2.395 . S
O571 C591 1.255 . S
O572 Dy561 2.379 . S
O572 C591 1.249 . S
C573 O563 1.266 1_556 S
C573 O564 1.236 . S
O574 Dy560 2.275 . S
O574 C562 1.254 . S
O575 Dy561 2.339 . S
O575 C562 1.257 1_556 S
C576 C579 1.344 . S
C576 C580 1.328 . S
C576 C582 1.516 . S
C577 C578 1.304 . S
C577 C581 1.323 . S
C578 C577 1.304 . S
C578 C579 1.371 . S
C578 H592 0.930 . S
C579 C576 1.344 . S
C579 C578 1.371 . S
C579 H593 0.931 . S
C580 C576 1.328 . S
C580 C581 1.433 . S
C580 H594 0.931 . S
C581 C577 1.323 . S
C581 C580 1.433 . S
C581 H595 0.933 . S
C582 Dy560 2.738 . S
C582 O565 1.255 . S
C582 O566 1.249 . S
C582 C576 1.516 . S
C583 O567 1.254 . S
C583 O568 1.257 . S
C584 O569 1.266 . S
C584 O570 1.236 . S
C585 C588 1.344 . S
C585 C589 1.328 . S
C585 C591 1.516 . S
C586 C587 1.304 . S
C586 C590 1.323 . S
C587 C586 1.304 . S
C587 C588 1.371 . S
C587 H596 0.930 . S
C588 C585 1.344 . S
C588 C587 1.371 . S
C588 H597 0.931 . S
C589 C585 1.328 . S
C589 C590 1.433 . S
C589 H598 0.931 . S
C590 C586 1.323 . S
C590 C589 1.433 . S
C590 H599 0.933 . S
C591 Dy561 2.738 . S
C591 O571 1.255 . S
C591 O572 1.249 . S
C591 C585 1.516 . S
H592 C578 0.930 . S
H593 C579 0.931 . S
H594 C580 0.931 . S
H595 C581 0.933 . S
H596 C587 0.930 . S
H597 C588 0.931 . S
H598 C589 0.931 . S
H599 C590 0.933 . S
Dy600 O603 2.307 . S
Dy600 O605 2.395 . S
Dy600 O606 2.379 . S
Dy600 O608 2.339 . S
Dy600 O610 2.298 . S
Dy600 O614 2.275 . S
Dy600 C622 2.738 . S
Dy601 O604 2.298 . S
Dy601 O607 2.275 . S
Dy601 O609 2.307 . S
Dy601 O611 2.395 . S
Dy601 O612 2.379 . S
Dy601 O615 2.339 . S
Dy601 C631 2.738 . S
C602 O614 1.254 . S
C602 O615 1.257 . S
O603 Dy600 2.307 . S
O603 C613 1.266 . S
O604 Dy601 2.298 . S
O604 C613 1.236 . S
O605 Dy600 2.395 . S
O605 C622 1.255 . S
O606 Dy600 2.379 . S
O606 C622 1.249 . S
O607 Dy601 2.275 . S
O607 C623 1.254 . S
O608 Dy600 2.339 . S
O608 C623 1.257 . S
O609 Dy601 2.307 . S
O609 C624 1.266 . S
O610 Dy600 2.298 . S
O610 C624 1.236 . S
O611 Dy601 2.395 . S
O611 C631 1.255 . S
O612 Dy601 2.379 . S
O612 C631 1.249 . S
C613 O603 1.266 . S
C613 O604 1.236 . S
O614 Dy600 2.275 . S
O614 C602 1.254 . S
O615 Dy601 2.339 . S
O615 C602 1.257 . S
C616 C619 1.344 . S
C616 C620 1.328 . S
C616 C622 1.516 . S
C617 C618 1.304 . S
C617 C621 1.323 . S
C618 C617 1.304 . S
C618 C619 1.371 . S
C618 H632 0.930 . S
C619 C616 1.344 . S
C619 C618 1.371 . S
C619 H633 0.931 . S
C620 C616 1.328 . S
C620 C621 1.433 . S
C620 H634 0.931 . S
C621 C617 1.323 . S
C621 C620 1.433 . S
C621 H635 0.933 . S
C622 Dy600 2.738 . S
C622 O605 1.255 . S
C622 O606 1.249 . S
C622 C616 1.516 . S
C623 O607 1.254 . S
C623 O608 1.257 . S
C624 O609 1.266 . S
C624 O610 1.236 . S
C625 C628 1.344 . S
C625 C629 1.328 . S
C625 C631 1.516 . S
C626 C627 1.310 . S
C626 C630 1.335 . S
C627 C626 1.310 . S
C627 C628 1.359 1_565 S
C627 H636 0.936 . S
C628 C625 1.344 . S
C628 C627 1.359 1_545 S
C628 H637 0.931 . S
C629 C625 1.328 . S
C629 C630 1.410 1_545 S
C629 H638 0.931 . S
C630 C626 1.335 . S
C630 C629 1.410 1_565 S
C630 H639 0.944 . S
C631 Dy601 2.738 . S
C631 O611 1.255 . S
C631 O612 1.249 . S
C631 C625 1.516 . S
H632 C618 0.930 . S
H633 C619 0.931 . S
H634 C620 0.931 . S
H635 C621 0.933 . S
H636 C627 0.936 . S
H637 C628 0.931 . S
H638 C629 0.931 . S
H639 C630 0.944 . S
C640 C641 1.363 . S
C640 C646 1.379 . S
C640 N648 1.356 . S
C641 C640 1.363 . S
C641 C647 1.363 . S
C642 C643 1.363 . S
C642 C647 1.379 . S
C642 N649 1.356 1_554 S
C643 C642 1.363 . S
C643 C646 1.363 . S
N644 C646 1.356 . S
N644 H656 0.984 . S
N644 H657 0.985 . S
N645 C647 1.356 1_556 S
N645 H650 0.984 . S
N645 H651 0.985 . S
C646 C640 1.379 . S
C646 C643 1.363 . S
C646 N644 1.356 . S
C647 C641 1.363 . S
C647 C642 1.379 . S
C647 N645 1.356 1_554 S
N648 C640 1.356 . S
N648 H654 0.984 . S
N648 H655 0.984 . S
N649 C642 1.356 1_556 S
N649 H652 0.984 . S
N649 H653 0.985 . S
H650 N645 0.984 . S
H651 N645 0.985 . S
H652 N649 0.984 . S
H653 N649 0.985 . S
H654 N648 0.984 . S
H655 N648 0.984 . S
H656 N644 0.984 . S
H657 N644 0.985 . S
C658 C659 1.363 . S
C658 C664 1.379 . S
C658 N666 1.356 . S
C659 C658 1.363 . S
C659 C665 1.363 . S
C660 C661 1.363 . S
C660 C665 1.379 . S
C660 N667 1.356 . S
C661 C660 1.363 . S
C661 C664 1.363 . S
N662 C664 1.356 . S
N662 H674 0.984 . S
N662 H675 0.985 . S
N663 C665 1.356 . S
N663 H668 0.984 . S
N663 H669 0.985 . S
C664 C658 1.379 . S
C664 C661 1.363 . S
C664 N662 1.356 . S
C665 C659 1.363 . S
C665 C660 1.379 . S
C665 N663 1.356 . S
N666 C658 1.356 . S
N666 H672 0.984 . S
N666 H673 0.984 . S
N667 C660 1.356 . S
N667 H670 0.984 . S
N667 H671 0.985 . S
H668 N663 0.984 . S
H669 N663 0.985 . S
H670 N667 0.984 . S
H671 N667 0.985 . S
H672 N666 0.984 . S
H673 N666 0.984 . S
H674 N662 0.984 . S
H675 N662 0.985 . S
C676 C677 1.363 . S
C676 C682 1.379 . S
C676 N684 1.356 . S
C677 C676 1.363 . S
C677 C683 1.363 1_455 S
C678 C679 1.363 . S
C678 C683 1.379 . S
C678 N685 1.356 . S
C679 C678 1.363 . S
C679 C682 1.363 1_655 S
N680 C682 1.356 . S
N680 H692 0.984 . S
N680 H693 0.985 1_455 S
N681 C683 1.356 . S
N681 H686 0.984 1_655 S
N681 H687 0.985 . S
C682 C676 1.379 . S
C682 C679 1.363 1_455 S
C682 N680 1.356 . S
C683 C677 1.363 1_655 S
C683 C678 1.379 . S
C683 N681 1.356 . S
N684 C676 1.356 . S
N684 H690 0.984 . S
N684 H691 0.984 . S
N685 C678 1.356 . S
N685 H688 0.984 . S
N685 H689 0.985 . S
H686 N681 0.984 1_455 S
H687 N681 0.985 . S
H688 N685 0.984 . S
H689 N685 0.985 . S
H690 N684 0.984 . S
H691 N684 0.984 . S
H692 N680 0.984 . S
H693 N680 0.985 1_655 S
C694 C695 1.363 . S
C694 C700 1.379 1_655 S
C694 N702 1.356 . S
C695 C694 1.363 . S
C695 C701 1.363 . S
C696 C697 1.363 . S
C696 C701 1.379 1_455 S
C696 N703 1.356 . S
C697 C696 1.363 . S
C697 C700 1.363 . S
N698 C700 1.356 . S
N698 H710 0.984 . S
N698 H711 0.985 . S
N699 C701 1.356 . S
N699 H704 0.984 . S
N699 H705 0.985 . S
C700 C694 1.379 1_455 S
C700 C697 1.363 . S
C700 N698 1.356 . S
C701 C695 1.363 . S
C701 C696 1.379 1_655 S
C701 N699 1.356 . S
N702 C694 1.356 . S
N702 H708 0.984 . S
N702 H709 0.984 . S
N703 C696 1.356 . S
N703 H706 0.984 . S
N703 H707 0.985 . S
H704 N699 0.984 . S
H705 N699 0.985 . S
H706 N703 0.984 . S
H707 N703 0.985 . S
H708 N702 0.984 . S
H709 N702 0.984 . S
H710 N698 0.984 . S
H711 N698 0.985 . S
C712 C713 1.363 . S
C712 C718 1.379 . S
C712 N720 1.356 . S
C713 C712 1.363 . S
C713 C719 1.363 . S
C714 C715 1.363 . S
C714 C719 1.379 . S
C714 N721 1.356 1_556 S
C715 C714 1.363 . S
C715 C718 1.363 . S
N716 C718 1.356 . S
N716 H728 0.984 . S
N716 H729 0.985 . S
N717 C719 1.356 1_554 S
N717 H722 0.984 . S
N717 H723 0.985 . S
C718 C712 1.379 . S
C718 C715 1.363 . S
C718 N716 1.356 . S
C719 C713 1.363 . S
C719 C714 1.379 . S
C719 N717 1.356 1_556 S
N720 C712 1.356 . S
N720 H726 0.984 . S
N720 H727 0.984 . S
N721 C714 1.356 1_554 S
N721 H724 0.984 . S
N721 H725 0.985 . S
H722 N717 0.984 . S
H723 N717 0.985 . S
H724 N721 0.984 . S
H725 N721 0.985 . S
H726 N720 0.984 . S
H727 N720 0.984 . S
H728 N716 0.984 . S
H729 N716 0.985 . S
C730 C731 1.363 . S
C730 C736 1.379 . S
C730 N738 1.356 . S
C731 C730 1.363 . S
C731 C737 1.363 . S
C732 C733 1.363 . S
C732 C737 1.379 . S
C732 N739 1.356 . S
C733 C732 1.363 . S
C733 C736 1.363 . S
N734 C736 1.356 . S
N734 H746 0.984 . S
N734 H747 0.985 . S
N735 C737 1.356 . S
N735 H740 0.984 . S
N735 H741 0.985 . S
C736 C730 1.379 . S
C736 C733 1.363 . S
C736 N734 1.356 . S
C737 C731 1.363 . S
C737 C732 1.379 . S
C737 N735 1.356 . S
N738 C730 1.356 . S
N738 H744 0.984 . S
N738 H745 0.984 . S
N739 C732 1.356 . S
N739 H742 0.984 . S
N739 H743 0.985 . S
H740 N735 0.984 . S
H741 N735 0.985 . S
H742 N739 0.984 . S
H743 N739 0.985 . S
H744 N738 0.984 . S
H745 N738 0.984 . S
H746 N734 0.984 . S
H747 N734 0.985 . S
C748 C749 1.363 . S
C748 C754 1.379 . S
C748 N756 1.356 . S
C749 C748 1.363 . S
C749 C755 1.363 1_655 S
C750 C751 1.363 . S
C750 C755 1.379 . S
C750 N757 1.356 . S
C751 C750 1.363 . S
C751 C754 1.363 1_455 S
N752 C754 1.356 . S
N752 H764 0.984 . S
N752 H765 0.985 1_655 S
N753 C755 1.356 . S
N753 H758 0.984 1_455 S
N753 H759 0.985 . S
C754 C748 1.379 . S
C754 C751 1.363 1_655 S
C754 N752 1.356 . S
C755 C749 1.363 1_455 S
C755 C750 1.379 . S
C755 N753 1.356 . S
N756 C748 1.356 . S
N756 H762 0.984 . S
N756 H763 0.984 . S
N757 C750 1.356 . S
N757 H760 0.984 . S
N757 H761 0.985 . S
H758 N753 0.984 1_655 S
H759 N753 0.985 . S
H760 N757 0.984 . S
H761 N757 0.985 . S
H762 N756 0.984 . S
H763 N756 0.984 . S
H764 N752 0.984 . S
H765 N752 0.985 1_455 S
C766 C767 1.363 . S
C766 C772 1.379 1_455 S
C766 N774 1.356 . S
C767 C766 1.363 . S
C767 C773 1.363 . S
C768 C769 1.363 . S
C768 C773 1.379 1_655 S
C768 N775 1.356 . S
C769 C768 1.363 . S
C769 C772 1.363 . S
N770 C772 1.356 . S
N770 H782 0.984 . S
N770 H783 0.985 . S
N771 C773 1.356 . S
N771 H776 0.984 . S
N771 H777 0.985 . S
C772 C766 1.379 1_655 S
C772 C769 1.363 . S
C772 N770 1.356 . S
C773 C767 1.363 . S
C773 C768 1.379 1_455 S
C773 N771 1.356 . S
N774 C766 1.356 . S
N774 H780 0.984 . S
N774 H781 0.984 . S
N775 C768 1.356 . S
N775 H778 0.984 . S
N775 H779 0.985 . S
H776 N771 0.984 . S
H777 N771 0.985 . S
H778 N775 0.984 . S
H779 N775 0.985 . S
H780 N774 0.984 . S
H781 N774 0.984 . S
H782 N770 0.984 . S
H783 N770 0.985 . S
C784 C785 1.363 . S
C784 C790 1.379 . S
C784 N792 1.356 . S
C785 C784 1.363 . S
C785 C791 1.363 . S
C786 C787 1.363 . S
C786 C791 1.379 . S
C786 N793 1.356 . S
C787 C786 1.363 . S
C787 C790 1.363 . S
N788 C790 1.356 . S
N788 H800 0.984 . S
N788 H801 0.985 . S
N789 C791 1.356 . S
N789 H794 0.984 . S
N789 H795 0.985 . S
C790 C784 1.379 . S
C790 C787 1.363 . S
C790 N788 1.356 . S
C791 C785 1.363 . S
C791 C786 1.379 . S
C791 N789 1.356 . S
N792 C784 1.356 . S
N792 H798 0.984 . S
N792 H799 0.984 . S
N793 C786 1.356 . S
N793 H796 0.984 . S
N793 H797 0.985 . S
H794 N789 0.984 . S
H795 N789 0.985 . S
H796 N793 0.984 . S
H797 N793 0.985 . S
H798 N792 0.984 . S
H799 N792 0.984 . S
H800 N788 0.984 . S
H801 N788 0.985 . S
C802 C803 1.363 . S
C802 C808 1.379 . S
C802 N810 1.356 . S
C803 C802 1.363 . S
C803 C809 1.363 . S
C804 C805 1.363 . S
C804 C809 1.379 . S
C804 N811 1.356 . S
C805 C804 1.363 . S
C805 C808 1.363 . S
N806 C808 1.356 . S
N806 H818 0.984 . S
N806 H819 0.985 . S
N807 C809 1.356 . S
N807 H812 0.984 . S
N807 H813 0.985 . S
C808 C802 1.379 . S
C808 C805 1.363 . S
C808 N806 1.356 . S
C809 C803 1.363 . S
C809 C804 1.379 . S
C809 N807 1.356 . S
N810 C802 1.356 . S
N810 H816 0.984 . S
N810 H817 0.984 . S
N811 C804 1.356 . S
N811 H814 0.984 . S
N811 H815 0.985 . S
H812 N807 0.984 . S
H813 N807 0.985 . S
H814 N811 0.984 . S
H815 N811 0.985 . S
H816 N810 0.984 . S
H817 N810 0.984 . S
H818 N806 0.984 . S
H819 N806 0.985 . S
C820 C821 1.363 . S
C820 C826 1.379 . S
C820 N828 1.356 . S
C821 C820 1.363 . S
C821 C827 1.363 . S
C822 C823 1.363 . S
C822 C827 1.379 . S
C822 N829 1.356 . S
C823 C822 1.363 . S
C823 C826 1.363 . S
N824 C826 1.356 . S
N824 H836 0.984 . S
N824 H837 0.985 . S
N825 C827 1.356 . S
N825 H830 0.984 . S
N825 H831 0.985 . S
C826 C820 1.379 . S
C826 C823 1.363 . S
C826 N824 1.356 . S
C827 C821 1.363 . S
C827 C822 1.379 . S
C827 N825 1.356 . S
N828 C820 1.356 . S
N828 H834 0.984 . S
N828 H835 0.984 . S
N829 C822 1.356 . S
N829 H832 0.984 . S
N829 H833 0.985 . S
H830 N825 0.984 . S
H831 N825 0.985 . S
H832 N829 0.984 . S
H833 N829 0.985 . S
H834 N828 0.984 . S
H835 N828 0.984 . S
H836 N824 0.984 . S
H837 N824 0.985 . S
C838 C839 1.363 . S
C838 C844 1.379 . S
C838 N846 1.356 . S
C839 C838 1.363 . S
C839 C845 1.363 . S
C840 C841 1.363 . S
C840 C845 1.379 . S
C840 N847 1.356 . S
C841 C840 1.363 . S
C841 C844 1.363 . S
N842 C844 1.356 . S
N842 H854 0.984 . S
N842 H855 0.985 . S
N843 C845 1.356 . S
N843 H848 0.984 . S
N843 H849 0.985 . S
C844 C838 1.379 . S
C844 C841 1.363 . S
C844 N842 1.356 . S
C845 C839 1.363 . S
C845 C840 1.379 . S
C845 N843 1.356 . S
N846 C838 1.356 . S
N846 H852 0.984 . S
N846 H853 0.984 . S
N847 C840 1.356 . S
N847 H850 0.984 . S
N847 H851 0.985 . S
H848 N843 0.984 . S
H849 N843 0.985 . S
H850 N847 0.984 . S
H851 N847 0.985 . S
H852 N846 0.984 . S
H853 N846 0.984 . S
H854 N842 0.984 . S
H855 N842 0.985 . S
C856 C857 1.363 . S
C856 C862 1.379 . S
C856 N864 1.356 . S
C857 C856 1.363 . S
C857 C863 1.363 . S
C858 C859 1.363 . S
C858 C863 1.379 . S
C858 N865 1.356 . S
C859 C858 1.363 . S
C859 C862 1.363 . S
N860 C862 1.356 . S
N860 H872 0.984 . S
N860 H873 0.985 . S
N861 C863 1.356 . S
N861 H866 0.984 . S
N861 H867 0.985 . S
C862 C856 1.379 . S
C862 C859 1.363 . S
C862 N860 1.356 . S
C863 C857 1.363 . S
C863 C858 1.379 . S
C863 N861 1.356 . S
N864 C856 1.356 . S
N864 H870 0.984 . S
N864 H871 0.984 . S
N865 C858 1.356 . S
N865 H868 0.984 . S
N865 H869 0.985 . S
H866 N861 0.984 . S
H867 N861 0.985 . S
H868 N865 0.984 . S
H869 N865 0.985 . S
H870 N864 0.984 . S
H871 N864 0.984 . S
H872 N860 0.984 . S
H873 N860 0.985 . S
C874 C875 1.363 . S
C874 C880 1.379 . S
C874 N882 1.356 . S
C875 C874 1.363 . S
C875 C881 1.363 . S
C876 C877 1.363 . S
C876 C881 1.379 . S
C876 N883 1.356 . S
C877 C876 1.363 . S
C877 C880 1.363 . S
N878 C880 1.356 . S
N878 H890 0.984 . S
N878 H891 0.985 . S
N879 C881 1.356 . S
N879 H884 0.984 . S
N879 H885 0.985 . S
C880 C874 1.379 . S
C880 C877 1.363 . S
C880 N878 1.356 . S
C881 C875 1.363 . S
C881 C876 1.379 . S
C881 N879 1.356 . S
N882 C874 1.356 . S
N882 H888 0.984 . S
N882 H889 0.984 . S
N883 C876 1.356 . S
N883 H886 0.984 . S
N883 H887 0.985 . S
H884 N879 0.984 . S
H885 N879 0.985 . S
H886 N883 0.984 . S
H887 N883 0.985 . S
H888 N882 0.984 . S
H889 N882 0.984 . S
H890 N878 0.984 . S
H891 N878 0.985 . S
C892 C893 1.363 . S
C892 C898 1.379 . S
C892 N900 1.356 . S
C893 C892 1.363 . S
C893 C899 1.363 . S
C894 C895 1.363 . S
C894 C899 1.379 . S
C894 N901 1.356 . S
C895 C894 1.363 . S
C895 C898 1.363 . S
N896 C898 1.356 . S
N896 H908 0.984 . S
N896 H909 0.985 . S
N897 C899 1.356 . S
N897 H902 0.984 . S
N897 H903 0.985 . S
C898 C892 1.379 . S
C898 C895 1.363 . S
C898 N896 1.356 . S
C899 C893 1.363 . S
C899 C894 1.379 . S
C899 N897 1.356 . S
N900 C892 1.356 . S
N900 H906 0.984 . S
N900 H907 0.984 . S
N901 C894 1.356 . S
N901 H904 0.984 . S
N901 H905 0.985 . S
H902 N897 0.984 . S
H903 N897 0.985 . S
H904 N901 0.984 . S
H905 N901 0.985 . S
H906 N900 0.984 . S
H907 N900 0.984 . S
H908 N896 0.984 . S
H909 N896 0.985 . S
C910 C911 1.363 . S
C910 C916 1.379 . S
C910 N918 1.356 . S
C911 C910 1.363 . S
C911 C917 1.363 . S
C912 C913 1.363 . S
C912 C917 1.379 . S
C912 N919 1.356 . S
C913 C912 1.363 . S
C913 C916 1.363 . S
N914 C916 1.356 . S
N914 H926 0.984 . S
N914 H927 0.985 . S
N915 C917 1.356 . S
N915 H920 0.984 . S
N915 H921 0.985 . S
C916 C910 1.379 . S
C916 C913 1.363 . S
C916 N914 1.356 . S
C917 C911 1.363 . S
C917 C912 1.379 . S
C917 N915 1.356 . S
N918 C910 1.356 . S
N918 H924 0.984 . S
N918 H925 0.984 . S
N919 C912 1.356 . S
N919 H922 0.984 . S
N919 H923 0.985 . S
H920 N915 0.984 . S
H921 N915 0.985 . S
H922 N919 0.984 . S
H923 N919 0.985 . S
H924 N918 0.984 . S
H925 N918 0.984 . S
H926 N914 0.984 . S
H927 N914 0.985 . S
C928 C929 1.363 . S
C928 C934 1.379 . S
C928 N936 1.356 . S
C929 C928 1.363 . S
C929 C935 1.363 . S
C930 C931 1.363 . S
C930 C935 1.379 . S
C930 N937 1.356 . S
C931 C930 1.363 . S
C931 C934 1.363 . S
N932 C934 1.356 . S
N932 H944 0.984 . S
N932 H945 0.985 . S
N933 C935 1.356 . S
N933 H938 0.984 . S
N933 H939 0.985 . S
C934 C928 1.379 . S
C934 C931 1.363 . S
C934 N932 1.356 . S
C935 C929 1.363 . S
C935 C930 1.379 . S
C935 N933 1.356 . S
N936 C928 1.356 . S
N936 H942 0.984 . S
N936 H943 0.984 . S
N937 C930 1.356 . S
N937 H940 0.984 . S
N937 H941 0.985 . S
H938 N933 0.984 . S
H939 N933 0.985 . S
H940 N937 0.984 . S
H941 N937 0.985 . S
H942 N936 0.984 . S
H943 N936 0.984 . S
H944 N932 0.984 . S
H945 N932 0.985 . S
C946 C947 1.363 1_565 S
C946 C952 1.379 . S
C946 N954 1.356 . S
C947 C946 1.363 1_545 S
C947 C953 1.363 . S
C948 C949 1.363 . S
C948 C953 1.379 1_565 S
C948 N955 1.356 . S
C949 C948 1.363 . S
C949 C952 1.363 . S
N950 C952 1.356 . S
N950 H962 0.984 . S
N950 H963 0.985 . S
N951 C953 1.356 . S
N951 H956 0.984 . S
N951 H957 0.985 . S
C952 C946 1.379 . S
C952 C949 1.363 . S
C952 N950 1.356 . S
C953 C947 1.363 . S
C953 C948 1.379 1_545 S
C953 N951 1.356 . S
N954 C946 1.356 . S
N954 H960 0.984 . S
N954 H961 0.984 1_565 S
N955 C948 1.356 . S
N955 H958 0.984 . S
N955 H959 0.985 . S
H956 N951 0.984 . S
H957 N951 0.985 . S
H958 N955 0.984 . S
H959 N955 0.985 . S
H960 N954 0.984 . S
H961 N954 0.984 1_545 S
H962 N950 0.984 . S
H963 N950 0.985 . S
C964 C965 1.363 . S
C964 C970 1.379 . S
C964 N972 1.356 . S
C965 C964 1.363 . S
C965 C971 1.363 . S
C966 C967 1.363 . S
C966 C971 1.379 . S
C966 N973 1.356 . S
C967 C966 1.363 . S
C967 C970 1.363 . S
N968 C970 1.356 . S
N968 H980 0.984 . S
N968 H981 0.985 . S
N969 C971 1.356 . S
N969 H974 0.984 . S
N969 H975 0.985 . S
C970 C964 1.379 . S
C970 C967 1.363 . S
C970 N968 1.356 . S
C971 C965 1.363 . S
C971 C966 1.379 . S
C971 N969 1.356 . S
N972 C964 1.356 . S
N972 H978 0.984 . S
N972 H979 0.984 . S
N973 C966 1.356 . S
N973 H976 0.984 . S
N973 H977 0.985 . S
H974 N969 0.984 . S
H975 N969 0.985 . S
H976 N973 0.984 . S
H977 N973 0.985 . S
H978 N972 0.984 . S
H979 N972 0.984 . S
H980 N968 0.984 . S
H981 N968 0.985 . S
C982 C983 1.363 1_545 S
C982 C988 1.379 . S
C982 N990 1.356 . S
C983 C982 1.363 1_565 S
C983 C989 1.363 . S
C984 C985 1.363 . S
C984 C989 1.379 1_545 S
C984 N991 1.356 . S
C985 C984 1.363 . S
C985 C988 1.363 . S
N986 C988 1.356 . S
N986 H998 0.984 . S
N986 H999 0.985 . S
N987 C989 1.356 . S
N987 H992 0.984 . S
N987 H993 0.985 . S
C988 C982 1.379 . S
C988 C985 1.363 . S
C988 N986 1.356 . S
C989 C983 1.363 . S
C989 C984 1.379 1_565 S
C989 N987 1.356 . S
N990 C982 1.356 . S
N990 H996 0.984 . S
N990 H997 0.984 1_545 S
N991 C984 1.356 . S
N991 H994 0.984 . S
N991 H995 0.985 . S
H992 N987 0.984 . S
H993 N987 0.985 . S
H994 N991 0.984 . S
H995 N991 0.985 . S
H996 N990 0.984 . S
H997 N990 0.984 1_565 S
H998 N986 0.984 . S
H999 N986 0.985 . S
C1000 C1001 1.363 . S
C1000 C1006 1.379 . S
C1000 N1008 1.356 . S
C1001 C1000 1.363 . S
C1001 C1007 1.363 . S
C1002 C1003 1.363 . S
C1002 C1007 1.379 . S
C1002 N1009 1.356 . S
C1003 C1002 1.363 . S
C1003 C1006 1.363 . S
N1004 C1006 1.356 . S
N1004 H1016 0.984 . S
N1004 H1017 0.985 . S
N1005 C1007 1.356 . S
N1005 H1010 0.984 . S
N1005 H1011 0.985 . S
C1006 C1000 1.379 . S
C1006 C1003 1.363 . S
C1006 N1004 1.356 . S
C1007 C1001 1.363 . S
C1007 C1002 1.379 . S
C1007 N1005 1.356 . S
N1008 C1000 1.356 . S
N1008 H1014 0.984 . S
N1008 H1015 0.984 . S
N1009 C1002 1.356 . S
N1009 H1012 0.984 . S
N1009 H1013 0.985 . S
H1010 N1005 0.984 . S
H1011 N1005 0.985 . S
H1012 N1009 0.984 . S
H1013 N1009 0.985 . S
H1014 N1008 0.984 . S
H1015 N1008 0.984 . S
H1016 N1004 0.984 . S
H1017 N1004 0.985 . S
C1018 C1019 1.363 . S
C1018 C1024 1.379 . S
C1018 N1026 1.356 . S
C1019 C1018 1.363 . S
C1019 C1025 1.363 . S
C1020 C1021 1.363 . S
C1020 C1025 1.379 1_565 S
C1020 N1027 1.356 . S
C1021 C1020 1.363 . S
C1021 C1024 1.363 1_565 S
N1022 C1024 1.356 . S
N1022 H1034 0.984 . S
N1022 H1035 0.985 1_545 S
N1023 C1025 1.356 . S
N1023 H1028 0.984 . S
N1023 H1029 0.985 . S
C1024 C1018 1.379 . S
C1024 C1021 1.363 1_545 S
C1024 N1022 1.356 . S
C1025 C1019 1.363 . S
C1025 C1020 1.379 1_545 S
C1025 N1023 1.356 . S
N1026 C1018 1.356 . S
N1026 H1032 0.984 . S
N1026 H1033 0.984 . S
N1027 C1020 1.356 . S
N1027 H1030 0.984 . S
N1027 H1031 0.985 . S
H1028 N1023 0.984 . S
H1029 N1023 0.985 . S
H1030 N1027 0.984 . S
H1031 N1027 0.985 . S
H1032 N1026 0.984 . S
H1033 N1026 0.984 . S
H1034 N1022 0.984 . S
H1035 N1022 0.985 1_565 S
C1036 C1037 1.363 . S
C1036 C1042 1.379 . S
C1036 N1044 1.356 . S
C1037 C1036 1.363 . S
C1037 C1043 1.363 . S
C1038 C1039 1.363 . S
C1038 C1043 1.379 . S
C1038 N1045 1.356 . S
C1039 C1038 1.363 . S
C1039 C1042 1.363 . S
N1040 C1042 1.356 . S
N1040 H1052 0.984 . S
N1040 H1053 0.985 . S
N1041 C1043 1.356 . S
N1041 H1046 0.984 . S
N1041 H1047 0.985 . S
C1042 C1036 1.379 . S
C1042 C1039 1.363 . S
C1042 N1040 1.356 . S
C1043 C1037 1.363 . S
C1043 C1038 1.379 . S
C1043 N1041 1.356 . S
N1044 C1036 1.356 . S
N1044 H1050 0.984 . S
N1044 H1051 0.984 . S
N1045 C1038 1.356 . S
N1045 H1048 0.984 . S
N1045 H1049 0.985 . S
H1046 N1041 0.984 . S
H1047 N1041 0.985 . S
H1048 N1045 0.984 . S
H1049 N1045 0.985 . S
H1050 N1044 0.984 . S
H1051 N1044 0.984 . S
H1052 N1040 0.984 . S
H1053 N1040 0.985 . S
C1054 C1055 1.363 1_565 S
C1054 C1060 1.379 . S
C1054 N1062 1.356 . S
C1055 C1054 1.363 1_545 S
C1055 C1061 1.363 . S
C1056 C1057 1.363 . S
C1056 C1061 1.379 1_565 S
C1056 N1063 1.356 . S
C1057 C1056 1.363 . S
C1057 C1060 1.363 . S
N1058 C1060 1.356 . S
N1058 H1070 0.984 . S
N1058 H1071 0.985 . S
N1059 C1061 1.356 . S
N1059 H1064 0.984 . S
N1059 H1065 0.985 . S
C1060 C1054 1.379 . S
C1060 C1057 1.363 . S
C1060 N1058 1.356 . S
C1061 C1055 1.363 . S
C1061 C1056 1.379 1_545 S
C1061 N1059 1.356 . S
N1062 C1054 1.356 . S
N1062 H1068 0.984 . S
N1062 H1069 0.984 1_565 S
N1063 C1056 1.356 . S
N1063 H1066 0.984 . S
N1063 H1067 0.957 1_565 S
H1064 N1059 0.984 . S
H1065 N1059 0.985 . S
H1066 N1063 0.984 . S
H1067 N1063 0.957 1_545 S
H1068 N1062 0.984 . S
H1069 N1062 0.984 1_545 S
H1070 N1058 0.984 . S
H1071 N1058 0.985 . S
C1072 C1073 1.363 . S
C1072 C1078 1.379 . S
C1072 N1080 1.356 . S
C1073 C1072 1.363 . S
C1073 C1079 1.363 . S
C1074 C1075 1.363 . S
C1074 C1079 1.379 . S
C1074 N1081 1.356 . S
C1075 C1074 1.363 . S
C1075 C1078 1.363 . S
N1076 C1078 1.356 . S
N1076 H1088 0.984 . S
N1076 H1089 0.985 . S
N1077 C1079 1.356 . S
N1077 H1082 0.984 . S
N1077 H1083 0.985 . S
C1078 C1072 1.379 . S
C1078 C1075 1.363 . S
C1078 N1076 1.356 . S
C1079 C1073 1.363 . S
C1079 C1074 1.379 . S
C1079 N1077 1.356 . S
N1080 C1072 1.356 . S
N1080 H1086 0.984 . S
N1080 H1087 0.984 . S
N1081 C1074 1.356 . S
N1081 H1084 0.984 . S
N1081 H1085 0.985 . S
H1082 N1077 0.984 . S
H1083 N1077 0.985 . S
H1084 N1081 0.984 . S
H1085 N1081 0.985 . S
H1086 N1080 0.984 . S
H1087 N1080 0.984 . S
H1088 N1076 0.984 . S
H1089 N1076 0.985 . S
C1090 C1091 1.363 . S
C1090 C1096 1.379 . S
C1090 N1098 1.356 . S
C1091 C1090 1.363 . S
C1091 C1097 1.363 . S
C1092 C1093 1.363 . S
C1092 C1097 1.379 . S
C1092 N1099 1.370 . S
C1093 C1092 1.363 . S
C1093 C1096 1.363 . S
N1094 C1096 1.356 . S
N1094 H1106 0.984 . S
N1094 H1107 0.985 . S
N1095 C1097 1.356 . S
N1095 H1100 0.984 . S
N1095 H1101 0.985 . S
C1096 C1090 1.379 . S
C1096 C1093 1.363 . S
C1096 N1094 1.356 . S
C1097 C1091 1.363 . S
C1097 C1092 1.379 . S
C1097 N1095 1.356 . S
N1098 C1090 1.356 . S
N1098 H1104 0.984 . S
N1098 H1105 0.984 . S
N1099 C1092 1.370 . S
N1099 H1102 0.975 1_554 S
N1099 H1103 0.980 1_554 S
H1100 N1095 0.984 . S
H1101 N1095 0.985 . S
H1102 N1099 0.975 1_556 S
H1103 N1099 0.980 1_556 S
H1104 N1098 0.984 . S
H1105 N1098 0.984 . S
H1106 N1094 0.984 . S
H1107 N1094 0.985 . S
C1108 C1109 1.363 . S
C1108 C1114 1.379 . S
C1108 N1116 1.356 . S
C1109 C1108 1.363 . S
C1109 C1115 1.363 . S
C1110 C1111 1.363 . S
C1110 C1115 1.379 . S
C1110 N1117 1.356 . S
C1111 C1110 1.363 . S
C1111 C1114 1.363 . S
N1112 C1114 1.356 . S
N1112 H1124 0.984 . S
N1112 H1125 0.985 . S
N1113 C1115 1.356 . S
N1113 H1118 0.984 . S
N1113 H1119 0.985 . S
C1114 C1108 1.379 . S
C1114 C1111 1.363 . S
C1114 N1112 1.356 . S
C1115 C1109 1.363 . S
C1115 C1110 1.379 . S
C1115 N1113 1.356 . S
N1116 C1108 1.356 . S
N1116 H1122 0.984 . S
N1116 H1123 0.984 . S
N1117 C1110 1.356 . S
N1117 H1120 0.984 . S
N1117 H1121 0.985 . S
H1118 N1113 0.984 . S
H1119 N1113 0.985 . S
H1120 N1117 0.984 . S
H1121 N1117 0.985 . S
H1122 N1116 0.984 . S
H1123 N1116 0.984 . S
H1124 N1112 0.984 . S
H1125 N1112 0.985 . S
C1126 C1127 1.363 . S
C1126 C1132 1.379 . S
C1126 N1134 1.356 . S
C1127 C1126 1.363 . S
C1127 C1133 1.363 . S
C1128 C1129 1.363 . S
C1128 C1133 1.379 . S
C1128 N1135 1.356 . S
C1129 C1128 1.363 . S
C1129 C1132 1.363 . S
N1130 C1132 1.356 . S
N1130 H1142 0.984 . S
N1130 H1143 0.985 . S
N1131 C1133 1.356 . S
N1131 H1136 0.984 . S
N1131 H1137 0.985 . S
C1132 C1126 1.379 . S
C1132 C1129 1.363 . S
C1132 N1130 1.356 . S
C1133 C1127 1.363 . S
C1133 C1128 1.379 . S
C1133 N1131 1.356 . S
N1134 C1126 1.356 . S
N1134 H1140 0.984 . S
N1134 H1141 0.984 . S
N1135 C1128 1.356 . S
N1135 H1138 0.984 . S
N1135 H1139 0.985 . S
H1136 N1131 0.984 . S
H1137 N1131 0.985 . S
H1138 N1135 0.984 . S
H1139 N1135 0.985 . S
H1140 N1134 0.984 . S
H1141 N1134 0.984 . S
H1142 N1130 0.984 . S
H1143 N1130 0.985 . S
C1144 C1145 1.363 . S
C1144 C1150 1.379 . S
C1144 N1152 1.356 . S
C1145 C1144 1.363 . S
C1145 C1151 1.363 . S
C1146 C1147 1.363 . S
C1146 C1151 1.379 . S
C1146 N1153 1.356 . S
C1147 C1146 1.363 . S
C1147 C1150 1.363 . S
N1148 C1150 1.356 . S
N1148 H1160 0.984 . S
N1148 H1161 0.985 . S
N1149 C1151 1.356 . S
N1149 H1154 0.984 . S
N1149 H1155 0.985 . S
C1150 C1144 1.379 . S
C1150 C1147 1.363 . S
C1150 N1148 1.356 . S
C1151 C1145 1.363 . S
C1151 C1146 1.379 . S
C1151 N1149 1.356 . S
N1152 C1144 1.356 . S
N1152 H1158 0.984 . S
N1152 H1159 0.984 . S
N1153 C1146 1.356 . S
N1153 H1156 0.984 . S
N1153 H1157 0.985 . S
H1154 N1149 0.984 . S
H1155 N1149 0.985 . S
H1156 N1153 0.984 . S
H1157 N1153 0.985 . S
H1158 N1152 0.984 . S
H1159 N1152 0.984 . S
H1160 N1148 0.984 . S
H1161 N1148 0.985 . S
C1162 C1163 1.363 . S
C1162 C1168 1.379 . S
C1162 N1170 1.356 . S
C1163 C1162 1.363 . S
C1163 C1169 1.363 . S
C1164 C1165 1.363 . S
C1164 C1169 1.379 . S
C1164 N1171 1.356 . S
C1165 C1164 1.363 . S
C1165 C1168 1.363 . S
N1166 C1168 1.356 . S
N1166 H1178 0.984 . S
N1166 H1179 0.985 . S
N1167 C1169 1.356 . S
N1167 H1172 0.984 . S
N1167 H1173 0.985 . S
C1168 C1162 1.379 . S
C1168 C1165 1.363 . S
C1168 N1166 1.356 . S
C1169 C1163 1.363 . S
C1169 C1164 1.379 . S
C1169 N1167 1.356 . S
N1170 C1162 1.356 . S
N1170 H1176 0.984 . S
N1170 H1177 0.984 . S
N1171 C1164 1.356 . S
N1171 H1174 0.984 . S
N1171 H1175 0.985 . S
H1172 N1167 0.984 . S
H1173 N1167 0.985 . S
H1174 N1171 0.984 . S
H1175 N1171 0.985 . S
H1176 N1170 0.984 . S
H1177 N1170 0.984 . S
H1178 N1166 0.984 . S
H1179 N1166 0.985 . S
C1180 C1181 1.363 . S
C1180 C1186 1.379 . S
C1180 N1188 1.356 . S
C1181 C1180 1.363 . S
C1181 C1187 1.363 . S
C1182 C1183 1.363 . S
C1182 C1187 1.379 . S
C1182 N1189 1.356 . S
C1183 C1182 1.363 . S
C1183 C1186 1.363 . S
N1184 C1186 1.356 . S
N1184 H1196 0.984 . S
N1184 H1197 0.985 . S
N1185 C1187 1.356 . S
N1185 H1190 0.984 . S
N1185 H1191 0.985 . S
C1186 C1180 1.379 . S
C1186 C1183 1.363 . S
C1186 N1184 1.356 . S
C1187 C1181 1.363 . S
C1187 C1182 1.379 . S
C1187 N1185 1.356 . S
N1188 C1180 1.356 . S
N1188 H1194 0.984 . S
N1188 H1195 0.984 . S
N1189 C1182 1.356 . S
N1189 H1192 0.984 . S
N1189 H1193 0.985 1_455 S
H1190 N1185 0.984 . S
H1191 N1185 0.985 . S
H1192 N1189 0.984 . S
H1193 N1189 0.985 1_655 S
H1194 N1188 0.984 . S
H1195 N1188 0.984 . S
H1196 N1184 0.984 . S
H1197 N1184 0.985 . S
C1198 C1199 1.363 . S
C1198 C1204 1.379 . S
C1198 N1206 1.356 . S
C1199 C1198 1.363 . S
C1199 C1205 1.363 . S
C1200 C1201 1.363 . S
C1200 C1205 1.379 . S
C1200 N1207 1.356 . S
C1201 C1200 1.363 . S
C1201 C1204 1.363 . S
N1202 C1204 1.356 . S
N1202 H1214 0.984 . S
N1202 H1215 0.985 . S
N1203 C1205 1.356 . S
N1203 H1208 0.984 . S
N1203 H1209 0.985 . S
C1204 C1198 1.379 . S
C1204 C1201 1.363 . S
C1204 N1202 1.356 . S
C1205 C1199 1.363 . S
C1205 C1200 1.379 . S
C1205 N1203 1.356 . S
N1206 C1198 1.356 . S
N1206 H1212 0.984 . S
N1206 H1213 0.984 . S
N1207 C1200 1.356 . S
N1207 H1210 0.984 . S
N1207 H1211 0.985 . S
H1208 N1203 0.984 . S
H1209 N1203 0.985 . S
H1210 N1207 0.984 . S
H1211 N1207 0.985 . S
H1212 N1206 0.984 . S
H1213 N1206 0.984 . S
H1214 N1202 0.984 . S
H1215 N1202 0.985 . S
C1216 C1217 1.363 . S
C1216 C1222 1.379 . S
C1216 N1224 1.356 . S
C1217 C1216 1.363 . S
C1217 C1223 1.363 . S
C1218 C1219 1.363 . S
C1218 C1223 1.379 . S
C1218 N1225 1.356 . S
C1219 C1218 1.363 . S
C1219 C1222 1.363 . S
N1220 C1222 1.356 . S
N1220 H1232 0.984 . S
N1220 H1233 0.985 . S
N1221 C1223 1.356 . S
N1221 H1226 0.984 . S
N1221 H1227 0.985 . S
C1222 C1216 1.379 . S
C1222 C1219 1.363 . S
C1222 N1220 1.356 . S
C1223 C1217 1.363 . S
C1223 C1218 1.379 . S
C1223 N1221 1.356 . S
N1224 C1216 1.356 . S
N1224 H1230 0.984 1_455 S
N1224 H1231 0.984 . S
N1225 C1218 1.356 . S
N1225 H1228 0.984 . S
N1225 H1229 0.985 . S
H1226 N1221 0.984 . S
H1227 N1221 0.985 . S
H1228 N1225 0.984 . S
H1229 N1225 0.985 . S
H1230 N1224 0.984 1_655 S
H1231 N1224 0.984 . S
H1232 N1220 0.984 . S
H1233 N1220 0.985 . S
C1234 C1235 1.363 . S
C1234 C1240 1.379 . S
C1234 N1242 1.356 . S
C1235 C1234 1.363 . S
C1235 C1241 1.363 . S
C1236 C1237 1.363 . S
C1236 C1241 1.379 . S
C1236 N1243 1.356 . S
C1237 C1236 1.363 . S
C1237 C1240 1.363 . S
N1238 C1240 1.356 . S
N1238 H1250 0.984 . S
N1238 H1251 0.985 . S
N1239 C1241 1.356 . S
N1239 H1244 0.984 . S
N1239 H1245 0.985 . S
C1240 C1234 1.379 . S
C1240 C1237 1.363 . S
C1240 N1238 1.356 . S
C1241 C1235 1.363 . S
C1241 C1236 1.379 . S
C1241 N1239 1.356 . S
N1242 C1234 1.356 . S
N1242 H1248 0.984 . S
N1242 H1249 0.984 . S
N1243 C1236 1.356 . S
N1243 H1246 0.984 . S
N1243 H1247 0.985 . S
H1244 N1239 0.984 . S
H1245 N1239 0.985 . S
H1246 N1243 0.984 . S
H1247 N1243 0.985 . S
H1248 N1242 0.984 . S
H1249 N1242 0.984 . S
H1250 N1238 0.984 . S
H1251 N1238 0.985 . S
C1252 C1253 1.363 . S
C1252 C1258 1.379 . S
C1252 N1260 1.356 . S
C1253 C1252 1.363 . S
C1253 C1259 1.363 . S
C1254 C1255 1.363 . S
C1254 C1259 1.379 . S
C1254 N1261 1.356 . S
C1255 C1254 1.363 . S
C1255 C1258 1.363 . S
N1256 C1258 1.356 . S
N1256 H1268 0.984 . S
N1256 H1269 0.985 . S
N1257 C1259 1.356 . S
N1257 H1262 0.984 . S
N1257 H1263 0.985 . S
C1258 C1252 1.379 . S
C1258 C1255 1.363 . S
C1258 N1256 1.356 . S
C1259 C1253 1.363 . S
C1259 C1254 1.379 . S
C1259 N1257 1.356 . S
N1260 C1252 1.356 . S
N1260 H1266 0.984 . S
N1260 H1267 0.984 . S
N1261 C1254 1.356 . S
N1261 H1264 0.984 . S
N1261 H1265 0.985 . S
H1262 N1257 0.984 . S
H1263 N1257 0.985 . S
H1264 N1261 0.984 . S
H1265 N1261 0.985 . S
H1266 N1260 0.984 . S
H1267 N1260 0.984 . S
H1268 N1256 0.984 . S
H1269 N1256 0.985 . S
C1270 C1271 1.363 . S
C1270 C1276 1.379 . S
C1270 N1278 1.356 . S
C1271 C1270 1.363 . S
C1271 C1277 1.363 . S
C1272 C1273 1.363 . S
C1272 C1277 1.379 . S
C1272 N1279 1.356 . S
C1273 C1272 1.363 . S
C1273 C1276 1.363 . S
N1274 C1276 1.356 . S
N1274 H1286 0.984 . S
N1274 H1287 0.985 . S
N1275 C1277 1.356 . S
N1275 H1280 0.984 . S
N1275 H1281 0.985 . S
C1276 C1270 1.379 . S
C1276 C1273 1.363 . S
C1276 N1274 1.356 . S
C1277 C1271 1.363 . S
C1277 C1272 1.379 . S
C1277 N1275 1.356 . S
N1278 C1270 1.356 . S
N1278 H1284 0.984 . S
N1278 H1285 0.984 . S
N1279 C1272 1.356 . S
N1279 H1282 0.984 . S
N1279 H1283 0.985 . S
H1280 N1275 0.984 . S
H1281 N1275 0.985 . S
H1282 N1279 0.984 . S
H1283 N1279 0.985 . S
H1284 N1278 0.984 . S
H1285 N1278 0.984 . S
H1286 N1274 0.984 . S
H1287 N1274 0.985 . S
C1288 C1289 1.363 . S
C1288 C1294 1.379 . S
C1288 N1296 1.356 1_655 S
C1289 C1288 1.363 . S
C1289 C1295 1.363 . S
C1290 C1291 1.363 . S
C1290 C1295 1.379 . S
C1290 N1297 1.356 . S
C1291 C1290 1.363 . S
C1291 C1294 1.363 . S
N1292 C1294 1.356 . S
N1292 H1304 0.984 1_655 S
N1292 H1305 0.985 . S
N1293 C1295 1.356 . S
N1293 H1298 0.984 . S
N1293 H1299 0.985 . S
C1294 C1288 1.379 . S
C1294 C1291 1.363 . S
C1294 N1292 1.356 . S
C1295 C1289 1.363 . S
C1295 C1290 1.379 . S
C1295 N1293 1.356 . S
N1296 C1288 1.356 1_455 S
N1296 H1302 0.984 . S
N1296 H1303 0.984 . S
N1297 C1290 1.356 . S
N1297 H1300 0.984 . S
N1297 H1301 0.985 . S
H1298 N1293 0.984 . S
H1299 N1293 0.985 . S
H1300 N1297 0.984 . S
H1301 N1297 0.985 . S
H1302 N1296 0.984 . S
H1303 N1296 0.984 . S
H1304 N1292 0.984 1_455 S
H1305 N1292 0.985 . S
C1306 C1307 1.363 . S
C1306 C1312 1.379 . S
C1306 N1314 1.356 . S
C1307 C1306 1.363 . S
C1307 C1313 1.363 . S
C1308 C1309 1.363 . S
C1308 C1313 1.379 . S
C1308 N1315 1.356 . S
C1309 C1308 1.363 . S
C1309 C1312 1.363 . S
N1310 C1312 1.356 . S
N1310 H1322 0.984 . S
N1310 H1323 0.985 . S
N1311 C1313 1.356 . S
N1311 H1316 0.984 . S
N1311 H1317 0.985 . S
C1312 C1306 1.379 . S
C1312 C1309 1.363 . S
C1312 N1310 1.356 . S
C1313 C1307 1.363 . S
C1313 C1308 1.379 . S
C1313 N1311 1.356 . S
N1314 C1306 1.356 . S
N1314 H1320 0.984 . S
N1314 H1321 0.984 . S
N1315 C1308 1.356 . S
N1315 H1318 0.984 . S
N1315 H1319 0.985 . S
H1316 N1311 0.984 . S
H1317 N1311 0.985 . S
H1318 N1315 0.984 . S
H1319 N1315 0.985 . S
H1320 N1314 0.984 . S
H1321 N1314 0.984 . S
H1322 N1310 0.984 . S
H1323 N1310 0.985 . S
C1324 C1325 1.363 . S
C1324 C1330 1.379 . S
C1324 N1332 1.356 . S
C1325 C1324 1.363 . S
C1325 C1331 1.363 . S
C1326 C1327 1.363 . S
C1326 C1331 1.379 . S
C1326 N1333 1.356 . S
C1327 C1326 1.363 . S
C1327 C1330 1.363 . S
N1328 C1330 1.356 . S
N1328 H1340 0.984 . S
N1328 H1341 0.985 . S
N1329 C1331 1.356 . S
N1329 H1334 0.984 . S
N1329 H1335 0.985 . S
C1330 C1324 1.379 . S
C1330 C1327 1.363 . S
C1330 N1328 1.356 . S
C1331 C1325 1.363 . S
C1331 C1326 1.379 . S
C1331 N1329 1.356 . S
N1332 C1324 1.356 . S
N1332 H1338 0.984 . S
N1332 H1339 0.984 . S
N1333 C1326 1.356 . S
N1333 H1336 0.984 . S
N1333 H1337 0.985 . S
H1334 N1329 0.984 . S
H1335 N1329 0.985 . S
H1336 N1333 0.984 . S
H1337 N1333 0.985 . S
H1338 N1332 0.984 . S
H1339 N1332 0.984 . S
H1340 N1328 0.984 . S
H1341 N1328 0.985 . S
C1342 C1343 1.363 . S
C1342 C1348 1.379 . S
C1342 N1350 1.363 . S
C1343 C1342 1.363 . S
C1343 C1349 1.363 . S
C1344 C1345 1.363 . S
C1344 C1349 1.379 . S
C1344 N1351 1.356 . S
C1345 C1344 1.363 . S
C1345 C1348 1.363 . S
N1346 C1348 1.356 . S
N1346 H1358 0.984 . S
N1346 H1359 0.985 . S
N1347 C1349 1.356 . S
N1347 H1352 0.984 . S
N1347 H1353 0.985 . S
C1348 C1342 1.379 . S
C1348 C1345 1.363 . S
C1348 N1346 1.356 . S
C1349 C1343 1.363 . S
C1349 C1344 1.379 . S
C1349 N1347 1.356 . S
N1350 C1342 1.363 . S
N1350 H1356 0.982 1_556 S
N1350 H1357 0.980 1_556 S
N1351 C1344 1.356 . S
N1351 H1354 0.984 . S
N1351 H1355 0.985 . S
H1352 N1347 0.984 . S
H1353 N1347 0.985 . S
H1354 N1351 0.984 . S
H1355 N1351 0.985 . S
H1356 N1350 0.982 1_554 S
H1357 N1350 0.980 1_554 S
H1358 N1346 0.984 . S
H1359 N1346 0.985 . S
C1360 C1361 1.363 . S
C1360 C1366 1.379 . S
C1360 N1368 1.356 . S
C1361 C1360 1.363 . S
C1361 C1367 1.363 . S
C1362 C1363 1.363 . S
C1362 C1367 1.379 . S
C1362 N1369 1.356 . S
C1363 C1362 1.363 . S
C1363 C1366 1.363 . S
N1364 C1366 1.356 . S
N1364 H1376 0.984 . S
N1364 H1377 0.985 . S
N1365 C1367 1.356 . S
N1365 H1370 0.984 . S
N1365 H1371 0.985 . S
C1366 C1360 1.379 . S
C1366 C1363 1.363 . S
C1366 N1364 1.356 . S
C1367 C1361 1.363 . S
C1367 C1362 1.379 . S
C1367 N1365 1.356 . S
N1368 C1360 1.356 . S
N1368 H1374 0.984 . S
N1368 H1375 0.984 . S
N1369 C1362 1.356 . S
N1369 H1372 0.984 . S
N1369 H1373 0.985 . S
H1370 N1365 0.984 . S
H1371 N1365 0.985 . S
H1372 N1369 0.984 . S
H1373 N1369 0.985 . S
H1374 N1368 0.984 . S
H1375 N1368 0.984 . S
H1376 N1364 0.984 . S
H1377 N1364 0.985 . S
C1378 C1379 1.363 . S
C1378 C1384 1.379 . S
C1378 N1386 1.356 . S
C1379 C1378 1.363 . S
C1379 C1385 1.363 . S
C1380 C1381 1.363 . S
C1380 C1385 1.379 . S
C1380 N1387 1.356 . S
C1381 C1380 1.363 . S
C1381 C1384 1.363 . S
N1382 C1384 1.356 . S
N1382 H1394 0.984 . S
N1382 H1395 0.985 . S
N1383 C1385 1.356 . S
N1383 H1388 0.984 . S
N1383 H1389 0.985 . S
C1384 C1378 1.379 . S
C1384 C1381 1.363 . S
C1384 N1382 1.356 . S
C1385 C1379 1.363 . S
C1385 C1380 1.379 . S
C1385 N1383 1.356 . S
N1386 C1378 1.356 . S
N1386 H1392 0.984 . S
N1386 H1393 0.984 . S
N1387 C1380 1.356 . S
N1387 H1390 0.984 . S
N1387 H1391 0.985 . S
H1388 N1383 0.984 . S
H1389 N1383 0.985 . S
H1390 N1387 0.984 . S
H1391 N1387 0.985 . S
H1392 N1386 0.984 . S
H1393 N1386 0.984 . S
H1394 N1382 0.984 . S
H1395 N1382 0.985 . S
C1396 C1397 1.363 . S
C1396 C1402 1.379 . S
C1396 N1404 1.356 . S
C1397 C1396 1.363 . S
C1397 C1403 1.363 . S
C1398 C1399 1.363 . S
C1398 C1403 1.379 . S
C1398 N1405 1.356 . S
C1399 C1398 1.363 . S
C1399 C1402 1.363 . S
N1400 C1402 1.356 . S
N1400 H1412 0.984 . S
N1400 H1413 0.985 . S
N1401 C1403 1.356 . S
N1401 H1406 0.984 . S
N1401 H1407 0.985 . S
C1402 C1396 1.379 . S
C1402 C1399 1.363 . S
C1402 N1400 1.356 . S
C1403 C1397 1.363 . S
C1403 C1398 1.379 . S
C1403 N1401 1.356 . S
N1404 C1396 1.356 . S
N1404 H1410 0.984 . S
N1404 H1411 0.984 . S
N1405 C1398 1.356 . S
N1405 H1408 0.984 . S
N1405 H1409 0.985 . S
H1406 N1401 0.984 . S
H1407 N1401 0.985 . S
H1408 N1405 0.984 . S
H1409 N1405 0.985 . S
H1410 N1404 0.984 . S
H1411 N1404 0.984 . S
H1412 N1400 0.984 . S
H1413 N1400 0.985 . S
C1414 C1415 1.363 1_556 S
C1414 C1420 1.379 . S
C1414 N1422 1.356 . S
C1415 C1414 1.363 1_554 S
C1415 C1421 1.363 1_455 S
C1416 C1417 1.363 1_554 S
C1416 C1421 1.379 . S
C1416 N1423 1.356 . S
C1417 C1416 1.363 1_556 S
C1417 C1420 1.363 1_655 S
N1418 C1420 1.356 . S
N1418 H1430 0.984 . S
N1418 H1431 0.985 1_455 S
N1419 C1421 1.356 . S
N1419 H1424 0.984 1_655 S
N1419 H1425 0.985 . S
C1420 C1414 1.379 . S
C1420 C1417 1.363 1_455 S
C1420 N1418 1.356 . S
C1421 C1415 1.363 1_655 S
C1421 C1416 1.379 . S
C1421 N1419 1.356 . S
N1422 C1414 1.356 . S
N1422 H1428 0.984 . S
N1422 H1429 0.984 1_556 S
N1423 C1416 1.356 . S
N1423 H1426 0.984 1_554 S
N1423 H1427 0.985 . S
H1424 N1419 0.984 1_455 S
H1425 N1419 0.985 . S
H1426 N1423 0.984 1_556 S
H1427 N1423 0.985 . S
H1428 N1422 0.984 . S
H1429 N1422 0.984 1_554 S
H1430 N1418 0.984 . S
H1431 N1418 0.985 1_655 S
C1432 C1433 1.363 . S
C1432 C1438 1.379 . S
C1432 N1440 1.356 . S
C1433 C1432 1.363 . S
C1433 C1439 1.363 . S
C1434 C1435 1.363 . S
C1434 C1439 1.379 . S
C1434 N1441 1.356 . S
C1435 C1434 1.363 . S
C1435 C1438 1.363 . S
N1436 C1438 1.356 . S
N1436 H1448 0.984 . S
N1436 H1449 0.985 . S
N1437 C1439 1.356 . S
N1437 H1442 0.984 . S
N1437 H1443 0.985 . S
C1438 C1432 1.379 . S
C1438 C1435 1.363 . S
C1438 N1436 1.356 . S
C1439 C1433 1.363 . S
C1439 C1434 1.379 . S
C1439 N1437 1.356 . S
N1440 C1432 1.356 . S
N1440 H1446 0.984 . S
N1440 H1447 0.984 . S
N1441 C1434 1.356 . S
N1441 H1444 0.984 . S
N1441 H1445 0.985 . S
H1442 N1437 0.984 . S
H1443 N1437 0.985 . S
H1444 N1441 0.984 . S
H1445 N1441 0.985 . S
H1446 N1440 0.984 . S
H1447 N1440 0.984 . S
H1448 N1436 0.984 . S
H1449 N1436 0.985 . S
C1450 C1451 1.363 . S
C1450 C1456 1.379 . S
C1450 N1458 1.356 . S
C1451 C1450 1.363 . S
C1451 C1457 1.363 . S
C1452 C1453 1.363 . S
C1452 C1457 1.379 . S
C1452 N1459 1.356 . S
C1453 C1452 1.363 . S
C1453 C1456 1.363 . S
N1454 C1456 1.356 . S
N1454 H1466 0.984 . S
N1454 H1467 0.985 . S
N1455 C1457 1.356 . S
N1455 H1460 0.984 . S
N1455 H1461 0.985 . S
C1456 C1450 1.379 . S
C1456 C1453 1.363 . S
C1456 N1454 1.356 . S
C1457 C1451 1.363 . S
C1457 C1452 1.379 . S
C1457 N1455 1.356 . S
N1458 C1450 1.356 . S
N1458 H1464 0.984 . S
N1458 H1465 0.984 . S
N1459 C1452 1.356 . S
N1459 H1462 0.984 . S
N1459 H1463 0.985 . S
H1460 N1455 0.984 . S
H1461 N1455 0.985 . S
H1462 N1459 0.984 . S
H1463 N1459 0.985 . S
H1464 N1458 0.984 . S
H1465 N1458 0.984 . S
H1466 N1454 0.984 . S
H1467 N1454 0.985 . S
C1468 C1469 1.363 1_655 S
C1468 C1474 1.379 . S
C1468 N1476 1.356 . S
C1469 C1468 1.363 1_455 S
C1469 C1475 1.363 1_566 S
C1470 C1471 1.363 1_455 S
C1470 C1475 1.379 . S
C1470 N1477 1.356 . S
C1471 C1470 1.363 1_655 S
C1471 C1474 1.363 1_544 S
N1472 C1474 1.359 . S
N1472 H1484 1.001 . S
N1472 H1485 0.966 1_566 S
N1473 C1475 1.359 . S
N1473 H1478 0.966 1_544 S
N1473 H1479 1.001 . S
C1474 C1468 1.379 . S
C1474 C1471 1.363 1_566 S
C1474 N1472 1.359 . S
C1475 C1469 1.363 1_544 S
C1475 C1470 1.379 . S
C1475 N1473 1.359 . S
N1476 C1468 1.356 . S
N1476 H1482 0.984 . S
N1476 H1483 0.984 1_655 S
N1477 C1470 1.356 . S
N1477 H1480 0.984 1_455 S
N1477 H1481 0.985 . S
H1478 N1473 0.966 1_566 S
H1479 N1473 1.001 . S
H1480 N1477 0.984 1_655 S
H1481 N1477 0.985 . S
H1482 N1476 0.984 . S
H1483 N1476 0.984 1_455 S
H1484 N1472 1.001 . S
H1485 N1472 0.966 1_544 S
C1486 C1487 1.363 . S
C1486 C1492 1.379 . S
C1486 N1494 1.356 . S
C1487 C1486 1.363 . S
C1487 C1493 1.363 1_565 S
C1488 C1489 1.363 . S
C1488 C1493 1.379 . S
C1488 N1495 1.356 . S
C1489 C1488 1.363 . S
C1489 C1492 1.363 1_545 S
N1490 C1492 1.356 . S
N1490 H1502 0.984 . S
N1490 H1503 0.985 1_565 S
N1491 C1493 1.356 . S
N1491 H1496 0.984 1_545 S
N1491 H1497 0.985 . S
C1492 C1486 1.379 . S
C1492 C1489 1.363 1_565 S
C1492 N1490 1.356 . S
C1493 C1487 1.363 1_545 S
C1493 C1488 1.379 . S
C1493 N1491 1.356 . S
N1494 C1486 1.356 . S
N1494 H1500 0.984 . S
N1494 H1501 0.984 . S
N1495 C1488 1.356 . S
N1495 H1498 0.984 . S
N1495 H1499 0.985 . S
H1496 N1491 0.984 1_565 S
H1497 N1491 0.985 . S
H1498 N1495 0.984 . S
H1499 N1495 0.985 . S
H1500 N1494 0.984 . S
H1501 N1494 0.984 . S
H1502 N1490 0.984 . S
H1503 N1490 0.985 1_545 S
C641 C13 3.348 . S
C643 C413 3.348 . S
C659 C53 3.348 . S
C661 C453 3.348 . S
C677 C93 3.348 . S
C679 C333 3.348 . S
C695 C133 3.348 . S
C697 C373 3.348 . S
C713 C184 3.348 . S
C715 C584 3.348 . S
C731 C224 3.348 . S
C733 C624 3.348 . S
C749 C264 3.348 . S
C751 C504 3.348 . S
C767 C304 3.348 . S
C769 C544 3.348 . S
C785 C362 3.805 . S
C787 C24 3.682 1_556 S
C803 C402 3.805 . S
C805 C64 3.682 . S
C821 C442 3.805 . S
C823 C104 3.682 . S
C839 C322 3.805 . S
C841 C144 3.682 . S
C857 C173 3.682 1_554 S
C859 C543 3.805 . S
C875 C583 3.805 . S
C877 C213 3.682 . S
C893 C623 3.805 . S
C895 C253 3.682 . S
C911 C503 3.805 . S
C913 C293 3.682 . S
C929 C42 3.805 . S
C931 C344 3.682 . S
C947 C384 3.682 . S
C949 C82 3.805 . S
C965 C424 3.682 1_556 S
C967 C122 3.805 . S
C983 C464 3.682 . S
C985 C2 3.805 . S
C1001 C493 3.682 . S
C1003 C223 3.805 . S
C1019 C263 3.805 . S
C1021 C533 3.682 . S
C1037 C303 3.805 . S
C1039 C573 3.682 1_554 S
C1055 C613 3.682 . S
C1057 C183 3.805 . S
C1073 C26 0.721 . S
C1075 C602 0.697 . S
C1091 C66 0.721 . S
C1093 C162 0.697 . S
C1109 C522 0.697 . S
C1111 C106 0.721 . S
C1127 C242 0.697 . S
C1129 C146 0.721 . S
C1145 C177 0.721 . S
C1147 C463 0.697 . S
C1163 C217 0.721 . S
C1165 C23 0.697 . S
C1181 C383 0.697 . S
C1183 C257 0.721 . S
C1199 C103 0.697 . S
C1201 C297 0.721 . S
C1217 C346 0.721 . S
C1219 C282 0.697 . S
C1235 C386 0.721 . S
C1237 C482 0.697 . S
C1253 C202 0.697 . S
C1255 C426 0.721 . S
C1271 C562 0.697 . S
C1273 C466 0.721 . S
C1289 C497 0.721 . S
C1291 C143 0.697 . S
C1307 C537 0.721 . S
C1309 C343 0.697 . S
C1325 C577 0.721 . S
C1327 C63 0.697 . S
C1343 C423 0.697 . S
C1345 C617 0.721 . S
C1361 C17 2.048 . S
C1363 C506 2.048 . S
C1379 C57 2.048 . S
C1381 C226 2.048 . S
C1397 C97 2.048 . S
C1399 C586 2.048 . S
C1415 C306 2.048 . S
C1417 C137 2.048 . S
C1433 C186 2.048 . S
C1435 C337 2.048 . S
C1451 C417 2.048 . S
C1453 C266 2.048 . S
C1469 C377 2.048 . S
C1471 C546 2.048 . S
C1487 C626 2.048 . S
C1489 C457 2.048 . S
