# Generated by pormake.
# Topology ukk, (4)-cn, num edge types: 1
# Building blocks:
#     Node 0, Type 0, BuildingBlock: NAWXER_clean_sbu_0, # of connection points: 4
#     Node 1, Type 0, BuildingBlock: NAWXER_clean_sbu_0, # of connection points: 4
#     Node 2, Type 0, BuildingBlock: NAWXER_clean_sbu_0, # of connection points: 4
#     Node 3, Type 0, BuildingBlock: NAWXER_clean_sbu_0, # of connection points: 4
#     Node 4, Type 0, BuildingBlock: NAWXER_clean_sbu_0, # of connection points: 4
#     Node 5, Type 0, BuildingBlock: NAWXER_clean_sbu_0, # of connection points: 4
#     Node 6, Type 0, BuildingBlock: NAWXER_clean_sbu_0, # of connection points: 4
#     Node 7, Type 0, BuildingBlock: NAWXER_clean_sbu_0, # of connection points: 4
#     Node 8, Type 0, BuildingBlock: NAWXER_clean_sbu_0, # of connection points: 4
#     Node 9, Type 0, BuildingBlock: NAWXER_clean_sbu_0, # of connection points: 4
#     Node 10, Type 0, BuildingBlock: NAWXER_clean_sbu_0, # of connection points: 4
#     Node 11, Type 0, BuildingBlock: NAWXER_clean_sbu_0, # of connection points: 4
#     Node 12, Type 0, BuildingBlock: NAWXER_clean_sbu_0, # of connection points: 4
#     Node 13, Type 0, BuildingBlock: NAWXER_clean_sbu_0, # of connection points: 4
#     Node 14, Type 0, BuildingBlock: NAWXER_clean_sbu_0, # of connection points: 4
#     Node 15, Type 0, BuildingBlock: NAWXER_clean_sbu_0, # of connection points: 4
#     Edge 16, Type (0, 0), BuildingBlock: XUDNAN_clean_linker_2, # of connection points: 2
#     Edge 17, Type (0, 0), BuildingBlock: XUDNAN_clean_linker_2, # of connection points: 2
#     Edge 18, Type (0, 0), BuildingBlock: XUDNAN_clean_linker_2, # of connection points: 2
#     Edge 19, Type (0, 0), BuildingBlock: XUDNAN_clean_linker_2, # of connection points: 2
#     Edge 20, Type (0, 0), BuildingBlock: XUDNAN_clean_linker_2, # of connection points: 2
#     Edge 21, Type (0, 0), BuildingBlock: XUDNAN_clean_linker_2, # of connection points: 2
#     Edge 22, Type (0, 0), BuildingBlock: XUDNAN_clean_linker_2, # of connection points: 2
#     Edge 23, Type (0, 0), BuildingBlock: XUDNAN_clean_linker_2, # of connection points: 2
#     Edge 24, Type (0, 0), BuildingBlock: XUDNAN_clean_linker_2, # of connection points: 2
#     Edge 25, Type (0, 0), BuildingBlock: XUDNAN_clean_linker_2, # of connection points: 2
#     Edge 26, Type (0, 0), BuildingBlock: XUDNAN_clean_linker_2, # of connection points: 2
#     Edge 27, Type (0, 0), BuildingBlock: XUDNAN_clean_linker_2, # of connection points: 2
#     Edge 28, Type (0, 0), BuildingBlock: XUDNAN_clean_linker_2, # of connection points: 2
#     Edge 29, Type (0, 0), BuildingBlock: XUDNAN_clean_linker_2, # of connection points: 2
#     Edge 30, Type (0, 0), BuildingBlock: XUDNAN_clean_linker_2, # of connection points: 2
#     Edge 31, Type (0, 0), BuildingBlock: XUDNAN_clean_linker_2, # of connection points: 2
#     Edge 32, Type (0, 0), BuildingBlock: XUDNAN_clean_linker_2, # of connection points: 2
#     Edge 33, Type (0, 0), BuildingBlock: XUDNAN_clean_linker_2, # of connection points: 2
#     Edge 34, Type (0, 0), BuildingBlock: XUDNAN_clean_linker_2, # of connection points: 2
#     Edge 35, Type (0, 0), BuildingBlock: XUDNAN_clean_linker_2, # of connection points: 2
#     Edge 36, Type (0, 0), BuildingBlock: XUDNAN_clean_linker_2, # of connection points: 2
#     Edge 37, Type (0, 0), BuildingBlock: XUDNAN_clean_linker_2, # of connection points: 2
#     Edge 38, Type (0, 0), BuildingBlock: XUDNAN_clean_linker_2, # of connection points: 2
#     Edge 39, Type (0, 0), BuildingBlock: XUDNAN_clean_linker_2, # of connection points: 2
#     Edge 40, Type (0, 0), BuildingBlock: XUDNAN_clean_linker_2, # of connection points: 2
#     Edge 41, Type (0, 0), BuildingBlock: XUDNAN_clean_linker_2, # of connection points: 2
#     Edge 42, Type (0, 0), BuildingBlock: XUDNAN_clean_linker_2, # of connection points: 2
#     Edge 43, Type (0, 0), BuildingBlock: XUDNAN_clean_linker_2, # of connection points: 2
#     Edge 44, Type (0, 0), BuildingBlock: XUDNAN_clean_linker_2, # of connection points: 2
#     Edge 45, Type (0, 0), BuildingBlock: XUDNAN_clean_linker_2, # of connection points: 2
#     Edge 46, Type (0, 0), BuildingBlock: XUDNAN_clean_linker_2, # of connection points: 2
#     Edge 47, Type (0, 0), BuildingBlock: XUDNAN_clean_linker_2, # of connection points: 2
# Relax obj value: 0.021
# Max RMSD: 0.113
# Mean RMSD: 0.113
data_MOF--net-ukk--node1-NAWXER_clean_sbu_0--edge1-XUDNAN_clean_linker_2
_symmetry_space_group_name_H-M    P1
_symmetry_Int_Tables_number       1
_symmetry_cell_setting            triclinic
loop_
_symmetry_equiv_pos_as_xyz
'x, y, z'
_cell_length_a     57.169201
_cell_length_b     57.03521
_cell_length_c     12.272952
_cell_angle_alpha  90.013102
_cell_angle_beta   90.048326
_cell_angle_gamma 89.738168
loop_
_atom_site_label
_atom_site_type_symbol
_atom_site_fract_x
_atom_site_fract_y
_atom_site_fract_z
_atom_type_partial_charge
C0 C 0.372 0.17151 0.1737 0.0
C1 C 0.3768 0.08937 0.29362 0.0
O2 O 0.37361 0.1566 0.09605 0.0
Zn3 Zn 0.37672 0.11983 0.07218 0.0
O4 O 0.37205 0.16434 0.27191 0.0
Zn5 Zn 0.37447 0.13076 0.2398 0.0
O6 O 0.40918 0.1279 0.17701 0.0
O7 O 0.40754 0.11711 0.00463 0.0
O8 O 0.37518 0.10725 0.35541 0.0
O9 O 0.37742 0.09219 0.18999 0.0
O10 O 0.34813 0.11318 0.99105 0.0
O11 O 0.34167 0.12351 0.16181 0.0
C12 C 0.41961 0.12267 0.08785 0.0
C13 C 0.33384 0.11712 0.06848 0.0
C14 C 0.13317 0.59973 0.85765 0.0
C15 C 0.11535 0.67839 0.99714 0.0
O16 O 0.12603 0.60524 0.95231 0.0
Zn17 Zn 0.1231 0.63877 0.92508 0.0
O18 O 0.13526 0.61581 0.78507 0.0
Zn19 Zn 0.12976 0.65334 0.77226 0.0
O20 O 0.15995 0.66384 0.72956 0.0
O21 O 0.15948 0.64904 0.89558 0.0
O22 O 0.12071 0.67888 0.89568 0.0
O23 O 0.11426 0.65873 0.04542 0.0
O24 O 0.09293 0.6404 0.81699 0.0
O25 O 0.10559 0.65605 0.66423 0.0
C26 C 0.17078 0.65852 0.81654 0.0
C27 C 0.089 0.64729 0.71897 0.0
C28 C 0.59418 0.89125 0.01545 0.0
C29 C 0.67687 0.9024 0.93764 0.0
O30 O 0.60696 0.88589 0.09786 0.0
Zn31 Zn 0.64391 0.88492 0.13518 0.0
O32 O 0.60386 0.89812 0.92816 0.0
Zn33 Zn 0.63572 0.89668 0.97697 0.0
O34 O 0.64252 0.85973 0.98977 0.0
O35 O 0.64955 0.85188 0.16265 0.0
O36 O 0.65932 0.90633 0.87671 0.0
O37 O 0.67367 0.89448 0.03449 0.0
O38 O 0.64616 0.90688 0.2552 0.0
O39 O 0.63751 0.92373 0.09849 0.0
C40 C 0.64755 0.84489 0.06475 0.0
C41 C 0.64165 0.92534 0.20092 0.0
C42 C 0.88436 0.42489 0.86277 0.0
C43 C 0.90096 0.34611 5e-05 0.0
O44 O 0.88858 0.41899 0.96076 0.0
Zn45 Zn 0.89381 0.38607 0.93015 0.0
O46 O 0.88524 0.40935 0.78692 0.0
Zn47 Zn 0.89249 0.37198 0.77151 0.0
O48 O 0.8636 0.36152 0.70808 0.0
O49 O 0.85942 0.37517 0.87532 0.0
O50 O 0.89831 0.34606 0.89629 0.0
O51 O 0.90032 0.36549 0.05086 0.0
O52 O 0.92606 0.38793 0.84111 0.0
O53 O 0.92063 0.3708 0.68222 0.0
C54 C 0.85045 0.36628 0.78873 0.0
C55 C 0.93396 0.38159 0.74784 0.0
C56 C 0.43317 0.38248 0.21302 0.0
C57 C 0.35059 0.39019 0.30455 0.0
O58 O 0.42032 0.38303 0.12707 0.0
Zn59 Zn 0.38323 0.3859 0.09058 0.0
O60 O 0.42357 0.384 0.30594 0.0
Zn61 Zn 0.39174 0.38629 0.25735 0.0
O62 O 0.38501 0.35207 0.19215 0.0
O63 O 0.37683 0.35652 0.01787 0.0
O64 O 0.36829 0.38917 0.36699 0.0
O65 O 0.35353 0.3891 0.20088 0.0
O66 O 0.38132 0.4149 0.00709 0.0
O67 O 0.38991 0.42007 0.18053 0.0
C68 C 0.3795 0.34314 0.09983 0.0
C69 C 0.38574 0.42866 0.08586 0.0
C70 C 0.38235 0.59587 0.87936 0.0
C71 C 0.38897 0.67212 0.69612 0.0
O72 O 0.38367 0.59938 0.77727 0.0
Zn73 Zn 0.38501 0.63372 0.7822 0.0
O74 O 0.38193 0.61348 0.94406 0.0
Zn75 Zn 0.38307 0.65063 0.93895 0.0
O76 O 0.35236 0.65992 0.99514 0.0
O77 O 0.35084 0.64468 0.82974 0.0
O78 O 0.38702 0.67353 0.80013 0.0
O79 O 0.38864 0.65207 0.65021 0.0
O80 O 0.41776 0.64088 0.85872 0.0
O81 O 0.41186 0.65706 0.02015 0.0
C82 C 0.3406 0.65426 0.91122 0.0
C83 C 0.42587 0.64968 0.94701 0.0
C84 C 0.67374 0.62698 0.2293 0.0
C85 C 0.59476 0.63933 0.08488 0.0
O86 O 0.67328 0.62732 0.12481 0.0
Zn87 Zn 0.64754 0.63079 0.99798 0.0
O88 O 0.65469 0.62901 0.28197 0.0
Zn89 Zn 0.63375 0.63243 0.15959 0.0
O90 O 0.63403 0.5984 0.08716 0.0
O91 O 0.64894 0.60064 0.92198 0.0
O92 O 0.60048 0.63756 0.18475 0.0
O93 O 0.61051 0.63707 0.0111 0.0
O94 O 0.6574 0.65929 0.92519 0.0
O95 O 0.64414 0.66541 0.09171 0.0
C96 C 0.63997 0.58841 0.9977 0.0
C97 C 0.65269 0.67339 0.00263 0.0
C98 C 0.6308 0.41956 0.83843 0.0
C99 C 0.62135 0.33675 0.74016 0.0
O100 O 0.62579 0.41193 0.74386 0.0
Zn101 Zn 0.62776 0.37833 0.7803 0.0
O102 O 0.63601 0.40507 0.91434 0.0
Zn103 Zn 0.63925 0.36845 0.94031 0.0
O104 O 0.67249 0.36338 0.96504 0.0
O105 O 0.66449 0.37205 0.79402 0.0
O106 O 0.62879 0.34019 0.83735 0.0
O107 O 0.61868 0.35406 0.67575 0.0
O108 O 0.60064 0.37489 0.90324 0.0
O109 O 0.6174 0.36472 0.05878 0.0
C110 C 0.6794 0.36657 0.86786 0.0
C111 C 0.599 0.36974 0.0049 0.0
C112 C 0.87419 0.67753 0.62413 0.0
C113 C 0.87427 0.59275 0.70261 0.0
O114 O 0.87659 0.66406 0.54155 0.0
Zn115 Zn 0.87976 0.62824 0.50075 0.0
O116 O 0.87344 0.66862 0.71931 0.0
Zn117 Zn 0.87595 0.63546 0.67366 0.0
O118 O 0.91119 0.63314 0.61916 0.0
O119 O 0.9115 0.62605 0.44261 0.0
O120 O 0.87395 0.60872 0.77523 0.0
O121 O 0.87654 0.59833 0.60216 0.0
O122 O 0.85201 0.62446 0.40947 0.0
O123 O 0.84406 0.63117 0.58299 0.0
C124 C 0.92261 0.62963 0.53089 0.0
C125 C 0.83704 0.62708 0.48553 0.0
C126 C 0.6297 0.09197 0.39975 0.0
C127 C 0.61682 0.17434 0.48353 0.0
O128 O 0.62494 0.10161 0.49025 0.0
Zn129 Zn 0.62352 0.13325 0.43797 0.0
O130 O 0.63185 0.10477 0.31421 0.0
Zn131 Zn 0.62955 0.14205 0.27652 0.0
O132 O 0.6602 0.14892 0.22432 0.0
O133 O 0.66003 0.14044 0.39927 0.0
O134 O 0.6218 0.1718 0.38216 0.0
O135 O 0.61589 0.15639 0.54425 0.0
O136 O 0.59264 0.13304 0.33327 0.0
O137 O 0.60499 0.14296 0.16975 0.0
C138 C 0.67133 0.14618 0.31292 0.0
C139 C 0.58835 0.13704 0.23211 0.0
C140 C 0.09867 0.39413 0.55508 0.0
C141 C 0.18416 0.39405 0.51079 0.0
O142 O 0.11016 0.39151 0.64365 0.0
Zn143 Zn 0.14497 0.38758 0.69859 0.0
O144 O 0.10944 0.39515 0.46456 0.0
Zn145 Zn 0.14139 0.3928 0.52326 0.0
O146 O 0.14461 0.35742 0.57174 0.0
O147 O 0.14672 0.35475 0.7506 0.0
O148 O 0.1695 0.39571 0.43268 0.0
O149 O 0.17677 0.39097 0.60836 0.0
O150 O 0.14736 0.4153 0.79434 0.0
O151 O 0.14468 0.42391 0.61903 0.0
C152 C 0.14667 0.34486 0.65754 0.0
C153 C 0.1469 0.43054 0.71826 0.0
C154 C 0.39031 0.91927 0.4068 0.0
C155 C 0.39624 0.8336 0.41861 0.0
O156 O 0.3951 0.90644 0.48856 0.0
Zn157 Zn 0.39376 0.87652 0.41286 0.0
O158 O 0.38671 0.90961 0.31392 0.0
Zn159 Zn 0.38605 0.87479 0.2464 0.0
O160 O 0.3549 0.87239 0.19381 0.0
O161 O 0.35666 0.87386 0.37309 0.0
O162 O 0.39152 0.8413 0.32288 0.0
O163 O 0.39911 0.84812 0.49598 0.0
O164 O 0.42402 0.87805 0.30426 0.0
O165 O 0.40969 0.87592 0.13777 0.0
C166 C 0.34454 0.8724 0.28515 0.0
C167 C 0.42722 0.87772 0.20053 0.0
C168 C 0.84374 0.90084 0.7515 0.0
C169 C 0.92811 0.88622 0.73474 0.0
O170 O 0.85163 0.89911 0.6542 0.0
Zn171 Zn 0.88391 0.89255 0.57344 0.0
O172 O 0.85762 0.89823 0.83166 0.0
Zn173 Zn 0.88603 0.89303 0.74702 0.0
O174 O 0.89141 0.92627 0.66582 0.0
O175 O 0.88771 0.92096 0.48833 0.0
O176 O 0.91588 0.88851 0.82071 0.0
O177 O 0.91814 0.88742 0.64118 0.0
O178 O 0.87831 0.86323 0.49968 0.0
O179 O 0.88041 0.85889 0.67786 0.0
C180 C 0.89161 0.93455 0.56842 0.0
C181 C 0.8778 0.84994 0.58281 0.0
C182 C 0.89557 0.10243 0.3975 0.0
C183 C 0.89526 0.18614 0.29967 0.0
O184 O 0.89901 0.11052 0.30227 0.0
Zn185 Zn 0.89375 0.14389 0.3379 0.0
O186 O 0.8895 0.11632 0.47436 0.0
Zn187 Zn 0.88261 0.15225 0.50261 0.0
O188 O 0.8487 0.15387 0.53032 0.0
O189 O 0.8571 0.14671 0.35828 0.0
O190 O 0.88889 0.18159 0.39758 0.0
O191 O 0.89935 0.16934 0.23366 0.0
O192 O 0.92102 0.15118 0.45291 0.0
O193 O 0.90596 0.15834 0.61598 0.0
C194 C 0.8419 0.15054 0.43281 0.0
C195 C 0.92371 0.15634 0.55377 0.0
C196 C 0.16862 0.12194 0.84371 0.0
C197 C 0.08894 0.13969 0.72253 0.0
O198 O 0.16724 0.12375 0.73975 0.0
Zn199 Zn 0.14028 0.12989 0.62053 0.0
O200 O 0.15013 0.12389 0.90041 0.0
Zn201 Zn 0.12821 0.12967 0.78348 0.0
O202 O 0.12629 0.09655 0.70103 0.0
O203 O 0.13981 0.10098 0.53447 0.0
O204 O 0.09558 0.13523 0.81925 0.0
O205 O 0.10365 0.1383 0.64371 0.0
O206 O 0.15094 0.15851 0.55378 0.0
O207 O 0.13883 0.16372 0.72276 0.0
C208 C 0.13108 0.08783 0.60725 0.0
C209 C 0.14706 0.17217 0.6338 0.0
C210 C 0.12406 0.92073 0.4111 0.0
C211 C 0.11862 0.83719 0.31077 0.0
O212 O 0.11881 0.91298 0.31695 0.0
Zn213 Zn 0.12266 0.87938 0.35102 0.0
O214 O 0.13037 0.90639 0.48592 0.0
Zn215 Zn 0.1356 0.86977 0.51095 0.0
O216 O 0.16955 0.86646 0.52945 0.0
O217 O 0.15929 0.8753 0.36124 0.0
O218 O 0.12634 0.84102 0.40726 0.0
O219 O 0.11447 0.85444 0.2476 0.0
O220 O 0.0969 0.87451 0.47585 0.0
O221 O 0.11392 0.86491 0.63159 0.0
C222 C 0.17522 0.87043 0.43101 0.0
C223 C 0.09538 0.86926 0.57726 0.0
H224 H 0.383 0.95076 0.24297 0.0
H225 H 0.39396 0.94649 0.59236 0.0
H226 H 0.39084 0.98979 0.60493 0.0
H227 H 0.41643 1.00244 0.19886 0.0
H228 H 0.39702 0.01361 0.09518 0.0
H229 H 0.39971 0.98248 0.11601 0.0
H230 H 0.35486 0.97961 0.14434 0.0
H231 H 0.35204 0.01076 0.12386 0.0
H232 H 0.34096 0.99755 0.24673 0.0
H233 H 0.3864 0.03446 0.57609 0.0
H234 H 0.38235 0.07528 0.50806 0.0
H235 H 0.37477 0.04863 0.17872 0.0
C236 C 0.38472 0.95882 0.32247 0.0
C237 C 0.38869 0.94517 0.41673 0.0
C238 C 0.39092 0.95656 0.5189 0.0
C239 C 0.38913 0.98115 0.52683 0.0
C240 C 0.38515 0.99405 0.43187 0.0
C241 C 0.38305 0.98316 0.3317 0.0
C242 C 0.37919 1.0007 0.2412 0.0
C243 C 0.39929 0.99975 0.15795 0.0
C244 C 0.35535 0.99692 0.18582 0.0
C245 C 0.37951 0.02327 0.30558 0.0
C246 C 0.38285 0.01924 0.41551 0.0
C247 C 0.38378 0.03774 0.49009 0.0
C248 C 0.38142 0.06086 0.45083 0.0
C249 C 0.3783 0.06521 0.33805 0.0
C250 C 0.37722 0.04603 0.2654 0.0
H251 H 0.04727 0.63807 0.82155 0.0
H252 H 0.07758 0.65047 0.50271 0.0
H253 H 0.0387 0.64551 0.41808 0.0
H254 H 1.0051 0.59449 0.73898 0.0
H255 H 0.98265 0.60518 0.82954 0.0
H256 H 0.01303 0.60882 0.86457 0.0
H257 H 1.00662 0.65364 0.88423 0.0
H258 H 0.97622 0.65012 0.84977 0.0
H259 H 0.99418 0.66992 0.77223 0.0
H260 H 0.99613 0.63896 0.36779 0.0
H261 H 0.9531 0.63427 0.35858 0.0
H262 H 0.95079 0.62763 0.71069 0.0
C263 C 0.04577 0.63963 0.73389 0.0
C264 C 0.06553 0.64456 0.66882 0.0
C265 C 0.06271 0.64673 0.55441 0.0
C266 C 0.0407 0.64385 0.50543 0.0
C267 C 0.02158 0.63897 0.57189 0.0
C268 C 0.02388 0.63708 0.68375 0.0
C269 C 1.00044 0.63269 0.73728 0.0
C270 C 1.00031 0.60888 0.79604 0.0
C271 C 0.99399 0.65279 0.81546 0.0
C272 C 0.98462 0.63247 0.63821 0.0
C273 C 0.99712 0.63587 0.54335 0.0
C274 C 0.98615 0.63632 0.44165 0.0
C275 C 0.96173 0.63356 0.43709 0.0
C276 C 0.94854 0.63066 0.53375 0.0
C277 C 0.96031 0.62991 0.6352 0.0
H278 H 0.63854 0.9681 0.1012 0.0
H279 H 0.64343 0.93549 0.42006 0.0
H280 H 0.64148 0.97468 0.50636 0.0
H281 H 0.67408 0.01846 0.16367 0.0
H282 H 0.65667 0.03813 0.08176 0.0
H283 H 0.65867 1.00756 0.04602 0.0
H284 H 0.61347 1.0044 0.05144 0.0
H285 H 0.61132 0.03494 0.08731 0.0
H286 H 0.59799 0.01309 0.17294 0.0
H287 H 0.63757 0.01763 0.55719 0.0
H288 H 0.63341 0.06069 0.56861 0.0
H289 H 0.63212 0.06482 0.21545 0.0
C290 C 0.63924 0.96912 0.18926 0.0
C291 C 0.64107 0.94868 0.25395 0.0
C292 C 0.64205 0.95089 0.36884 0.0
C293 C 0.64093 0.97307 0.41854 0.0
C294 C 0.639 0.99284 0.35213 0.0
C295 C 0.63831 0.99105 0.23994 0.0
C296 C 0.63621 0.01491 0.18666 0.0
C297 C 0.65769 0.02006 0.11534 0.0
C298 C 0.61339 0.01695 0.12073 0.0
C299 C 0.63564 0.03048 0.28642 0.0
C300 C 0.63721 0.01745 0.38114 0.0
C301 C 0.63647 0.02799 0.48351 0.0
C302 C 0.63405 0.05247 0.48912 0.0
C303 C 0.63253 0.06617 0.39293 0.0
C304 C 0.63343 0.05491 0.29047 0.0
H305 H 0.06146 0.36761 0.48215 0.0
H306 H 0.07968 0.4308 0.65831 0.0
H307 H 0.03851 0.43608 0.71283 0.0
H308 H 1.00098 0.38774 0.39428 0.0
H309 H 0.98879 0.35895 0.41381 0.0
H310 H 0.01892 0.36207 0.37312 0.0
H311 H 0.03175 0.33706 0.53895 0.0
H312 H 1.00177 0.33417 0.58109 0.0
H313 H 0.02311 0.346 0.67404 0.0
H314 H 0.99781 0.43153 0.772 0.0
H315 H 0.95793 0.41931 0.82051 0.0
H316 H 0.96413 0.3594 0.60404 0.0
C317 C 0.05645 0.38303 0.52818 0.0
C318 C 0.07349 0.39916 0.5642 0.0
C319 C 0.06668 0.41859 0.62844 0.0
C320 C 0.04339 0.42168 0.66 0.0
C321 C 0.02705 0.40515 0.62664 0.0
C322 C 0.03307 0.38636 0.56086 0.0
C323 C 0.01223 0.37023 0.54461 0.0
C324 C 1.00479 0.36973 0.42429 0.0
C325 C 0.01754 0.3454 0.58724 0.0
C326 C 0.99396 0.3825 0.61452 0.0
C327 C 1.00299 0.40264 0.66052 0.0
C328 C 0.99034 0.41607 0.73481 0.0
C329 C 0.96776 0.40887 0.76255 0.0
C330 C 0.9579 0.3885 0.71566 0.0
C331 C 0.97113 0.37525 0.63982 0.0
H332 H 0.38348 0.45456 0.89424 0.0
H333 H 0.38697 0.46136 0.24665 0.0
H334 H 0.38572 0.5042 0.22936 0.0
H335 H 0.42037 0.50445 0.8352 0.0
H336 H 0.40388 0.51364 0.71733 0.0
H337 H 0.4046 0.48315 0.7556 0.0
H338 H 0.35934 0.48264 0.76276 0.0
H339 H 0.35848 0.51315 0.72475 0.0
H340 H 0.34413 0.50355 0.84751 0.0
H341 H 0.38374 0.54567 0.17807 0.0
H342 H 0.38281 0.58464 0.09434 0.0
H343 H 0.38153 0.55277 0.7725 0.0
C344 C 0.38396 0.4651 0.9676 0.0
C345 C 0.38532 0.4545 0.0719 0.0
C346 C 0.38602 0.46894 0.16585 0.0
C347 C 0.38524 0.49335 0.15704 0.0
C348 C 0.38389 0.50322 0.05365 0.0
C349 C 0.38339 0.4897 0.96032 0.0
C350 C 0.38237 0.50515 0.85937 0.0
C351 C 0.4041 0.50137 0.78765 0.0
C352 C 0.35973 0.50086 0.7948 0.0
C353 C 0.38236 0.52938 0.91115 0.0
C354 C 0.38312 0.52766 0.02336 0.0
C355 C 0.38318 0.54731 0.09027 0.0
C356 C 0.38262 0.56942 0.04153 0.0
C357 C 0.38211 0.5719 0.92654 0.0
C358 C 0.38192 0.55151 0.8605 0.0
H359 H 0.45432 0.64493 0.12955 0.0
H360 H 0.45508 0.66038 0.78326 0.0
H361 H 0.49801 0.66207 0.7864 0.0
H362 H 0.50594 0.6812 0.20366 0.0
H363 H 0.51682 0.6601 0.30081 0.0
H364 H 0.48583 0.66256 0.2758 0.0
H365 H 0.48427 0.6183 0.22947 0.0
H366 H 0.51524 0.61573 0.25374 0.0
H367 H 0.50316 0.6067 0.12476 0.0
H368 H 0.53998 0.65927 0.82003 0.0
H369 H 0.58008 0.65216 0.88319 0.0
H370 H 0.55413 0.63771 0.20903 0.0
C371 C 0.46361 0.64916 0.05532 0.0
C372 C 0.45143 0.65263 0.95615 0.0
C373 C 0.4641 0.65761 0.85991 0.0
C374 C 0.48848 0.65871 0.86089 0.0
C375 C 0.50006 0.65469 0.95877 0.0
C376 C 0.48822 0.65004 0.05449 0.0
C377 C 0.50538 0.6448 0.14624 0.0
C378 C 0.50337 0.66327 0.23701 0.0
C379 C 0.50179 0.6199 0.19116 0.0
C380 C 0.52854 0.64683 0.08611 0.0
C381 C 0.52487 0.65276 0.97833 0.0
C382 C 0.54317 0.65482 0.90448 0.0
C383 C 0.56592 0.65062 0.94127 0.0
C384 C 0.57034 0.64436 0.05115 0.0
C385 C 0.55134 0.64264 0.12481 0.0
H386 H 0.64401 0.45964 0.7241 0.0
H387 H 0.61159 0.43547 0.02319 0.0
H388 H 0.609 0.47601 0.08946 0.0
H389 H 0.67944 0.50305 0.8501 0.0
H390 H 0.67665 0.52457 0.74325 0.0
H391 H 0.67415 0.49383 0.71176 0.0
H392 H 0.63348 0.50122 0.62497 0.0
H393 H 0.63593 0.53202 0.65558 0.0
H394 H 0.61103 0.51572 0.70341 0.0
H395 H 0.61171 0.51763 0.13032 0.0
H396 H 0.61927 0.55972 0.14484 0.0
H397 H 0.65089 0.55915 0.82266 0.0
C398 C 0.63599 0.46308 0.80241 0.0
C399 C 0.62792 0.44447 0.86859 0.0
C400 C 0.61794 0.44948 0.97156 0.0
C401 C 0.61631 0.47245 0.00984 0.0
C402 C 0.62486 0.49036 0.94455 0.0
C403 C 0.63448 0.48615 0.84305 0.0
C404 C 0.64348 0.50886 0.79349 0.0
C405 C 0.67001 0.50749 0.7735 0.0
C406 C 0.63018 0.5148 0.6881 0.0
C407 C 0.63764 0.52621 0.88385 0.0
C408 C 0.62676 0.51498 0.96945 0.0
C409 C 0.62008 0.52673 0.06364 0.0
C410 C 0.62455 0.55072 0.07107 0.0
C411 C 0.6357 0.56289 0.98497 0.0
C412 C 0.64229 0.5504 0.88976 0.0
H413 H 0.46001 0.38336 0.02731 0.0
H414 H 0.46468 0.37557 0.37858 0.0
H415 H 0.5075 0.37075 0.36397 0.0
H416 H 0.50465 0.34119 0.95853 0.0
H417 H 0.51583 0.35814 0.84631 0.0
H418 H 0.48551 0.36069 0.88438 0.0
H419 H 0.49022 0.40562 0.90664 0.0
H420 H 0.52054 0.40321 0.86842 0.0
H421 H 0.51262 0.41682 0.9958 0.0
H422 H 0.55005 0.3665 0.31052 0.0
H423 H 0.58895 0.3646 0.22271 0.0
H424 H 0.55627 0.37586 0.90739 0.0
C425 C 0.47 0.3806 0.10123 0.0
C426 C 0.45892 0.3798 0.20411 0.0
C427 C 0.47273 0.37627 0.29881 0.0
C428 C 0.49708 0.37346 0.29137 0.0
C429 C 0.50742 0.37431 0.18871 0.0
C430 C 0.49433 0.37789 0.09538 0.0
C431 C 0.50974 0.37847 0.99512 0.0
C432 C 0.50356 0.35843 0.91647 0.0
C433 C 0.50819 0.40246 0.93818 0.0
C434 C 0.53354 0.37467 0.0466 0.0
C435 C 0.53186 0.37219 0.15825 0.0
C436 C 0.55158 0.36845 0.22311 0.0
C437 C 0.5736 0.36736 0.1725 0.0
C438 C 0.57572 0.37012 0.0582 0.0
C439 C 0.55532 0.37374 0.99496 0.0
H440 H 0.8968 0.466 0.9675 0.0
H441 H 0.85742 0.43877 0.69299 0.0
H442 H 0.84735 0.479 0.63729 0.0
H443 H 0.85872 0.51758 0.02328 0.0
H444 H 0.88302 0.53653 0.05376 0.0
H445 H 0.88517 0.50553 0.08105 0.0
H446 H 0.92262 0.50304 0.96295 0.0
H447 H 0.9206 0.53399 0.93549 0.0
H448 H 0.92176 0.51339 0.82419 0.0
H449 H 0.84372 0.52098 0.60219 0.0
H450 H 0.84826 0.56354 0.58232 0.0
H451 H 0.89055 0.56559 0.87608 0.0
C452 C 0.88571 0.46859 0.89691 0.0
C453 C 0.87775 0.44926 0.83478 0.0
C454 C 0.86373 0.4533 0.74157 0.0
C455 C 0.85778 0.47609 0.70969 0.0
C456 C 0.86609 0.49475 0.77146 0.0
C457 C 0.87984 0.49141 0.86278 0.0
C458 C 0.88797 0.51482 0.90848 0.0
C459 C 0.87813 0.51885 0.02349 0.0
C460 C 0.91483 0.5164 0.90768 0.0
C461 C 0.87706 0.53171 0.82691 0.0
C462 C 0.86426 0.51956 0.7498 0.0
C463 C 0.85349 0.53074 0.66248 0.0
C464 C 0.85625 0.55492 0.65179 0.0
C465 C 0.8697 0.56784 0.72773 0.0
C466 C 0.87985 0.55617 0.81801 0.0
H467 H 0.54726 0.13299 0.34642 0.0
H468 H 0.57504 0.13533 0.01762 0.0
H469 H 0.53511 0.1307 0.94362 0.0
H470 H 0.50226 0.09018 0.29674 0.0
H471 H 0.48132 0.10428 0.38506 0.0
H472 H 0.51216 0.10711 0.41183 0.0
H473 H 0.50813 0.15239 0.40774 0.0
H474 H 0.47728 0.14969 0.38126 0.0
H475 H 0.49541 0.1664 0.28995 0.0
H476 H 0.49167 0.12541 0.90553 0.0
H477 H 0.44843 0.1223 0.90769 0.0
H478 H 0.44952 0.12477 0.26113 0.0
C479 C 0.54498 0.13243 0.25885 0.0
C480 C 0.56432 0.13444 0.18792 0.0
C481 C 0.56051 0.13385 0.07373 0.0
C482 C 0.53789 0.13115 0.03084 0.0
C483 C 0.5192 0.12921 0.10306 0.0
C484 C 0.52252 0.12998 0.21466 0.0
C485 C 0.49947 0.12826 0.27474 0.0
C486 C 0.49877 0.10614 0.3463 0.0
C487 C 0.4948 0.15051 0.34238 0.0
C488 C 0.48268 0.12642 0.17966 0.0
C489 C 0.49434 0.12679 0.0812 0.0
C490 C 0.48237 0.12516 0.98226 0.0
C491 C 0.45782 0.12334 0.98419 0.0
C492 C 0.44555 0.1234 0.08437 0.0
C493 C 0.45831 0.12483 0.18299 0.0
H494 H 0.1211 0.55866 0.96506 0.0
H495 H 0.15962 0.58521 0.6866 0.0
H496 H 0.16991 0.5449 0.63383 0.0
H497 H 0.1603 0.5086 0.02472 0.0
H498 H 0.13667 0.48914 0.05898 0.0
H499 H 0.13363 0.52023 0.08192 0.0
H500 H 0.0959 0.52081 0.96506 0.0
H501 H 0.09878 0.48975 0.94211 0.0
H502 H 0.09676 0.50952 0.82788 0.0
H503 H 0.17433 0.50267 0.60323 0.0
H504 H 0.17139 0.45979 0.59107 0.0
H505 H 0.13 0.4586 0.88731 0.0
C506 C 0.13195 0.55594 0.89386 0.0
C507 C 0.13962 0.57518 0.83013 0.0
C508 C 0.15348 0.57086 0.73661 0.0
C509 C 0.15955 0.54799 0.7062 0.0
C510 C 0.15161 0.52947 0.76984 0.0
C511 C 0.13806 0.53304 0.86148 0.0
C512 C 0.13075 0.50969 0.91087 0.0
C513 C 0.14095 0.50675 0.02597 0.0
C514 C 0.10396 0.50731 0.91147 0.0
C515 C 0.14198 0.49256 0.83129 0.0
C516 C 0.15411 0.50455 0.7515 0.0
C517 C 0.16508 0.49305 0.66563 0.0
C518 C 0.16325 0.46868 0.65938 0.0
C519 C 0.15057 0.45586 0.73841 0.0
C520 C 0.14015 0.46792 0.82694 0.0
H521 H 0.46976 0.87706 0.30737 0.0
H522 H 0.43842 0.88327 0.98601 0.0
H523 H 0.47755 0.88733 0.90493 0.0
H524 H 0.51597 0.91875 0.26503 0.0
H525 H 0.53746 0.90221 0.34072 0.0
H526 H 0.50691 0.8998 0.37459 0.0
H527 H 0.50925 0.85475 0.34929 0.0
H528 H 0.5398 0.85702 0.31538 0.0
H529 H 0.51992 0.84289 0.22245 0.0
H530 H 0.51976 0.89151 0.85804 0.0
H531 H 0.56275 0.8943 0.84791 0.0
H532 H 0.56719 0.88442 0.19824 0.0
C533 C 0.47113 0.87927 0.21999 0.0
C534 C 0.45096 0.87986 0.15319 0.0
C535 C 0.45356 0.88271 0.03906 0.0
C536 C 0.47573 0.88507 0.99206 0.0
C537 C 0.49522 0.88444 0.06001 0.0
C538 C 0.49321 0.88151 0.17139 0.0
C539 C 0.51708 0.88125 0.22546 0.0
C540 C 0.51949 0.90172 0.30621 0.0
C541 C 0.52178 0.85757 0.28143 0.0
C542 C 0.53274 0.88455 0.12701 0.0
C543 C 0.51973 0.88645 0.03253 0.0
C544 C 0.53017 0.88997 0.93139 0.0
C545 C 0.55461 0.89156 0.92651 0.0
C546 C 0.56837 0.8895 0.02211 0.0
C547 C 0.55719 0.88591 0.12356 0.0
H548 H 0.88131 0.96248 0.3895 0.0
H549 H 0.91339 0.96366 0.71039 0.0
H550 H 0.92099 1.00581 0.69046 0.0
H551 H 0.92002 1.00655 0.26207 0.0
H552 H 0.89666 0.01992 0.18497 0.0
H553 H 0.89548 0.98917 0.21839 0.0
H554 H 0.85509 0.99538 0.30939 0.0
H555 H 0.85612 0.0261 0.27614 0.0
H556 H 0.85199 0.01704 0.41548 0.0
H557 H 0.92272 0.04754 0.64527 0.0
H558 H 0.9175 0.08785 0.57856 0.0
H559 H 0.8844 0.06158 0.28484 0.0
C560 C 0.89026 0.97159 0.45464 0.0
C561 C 0.89683 0.95972 0.5515 0.0
C562 C 0.90813 0.97233 0.63569 0.0
C563 C 0.91266 0.99628 0.62491 0.0
C564 C 0.90577 1.00752 0.52945 0.0
C565 C 0.89477 0.99574 0.44561 0.0
C566 C 0.88784 0.01265 0.35508 0.0
C567 C 0.90078 1.00671 0.24882 0.0
C568 C 0.86117 0.0128 0.33807 0.0
C569 C 0.89626 0.03576 0.40254 0.0
C570 C 0.90674 0.03216 0.5028 0.0
C571 C 0.91479 0.0506 0.56643 0.0
C572 C 0.91168 0.07344 0.52791 0.0
C573 C 0.90068 0.07778 0.42645 0.0
C574 C 0.89326 0.05867 0.36171 0.0
H575 H 0.949 0.136 0.72118 0.0
H576 H 0.95246 0.18756 0.46244 0.0
H577 H 0.99483 0.19182 0.49281 0.0
H578 H 0.99665 0.16251 0.89811 0.0
H579 H 1.00777 0.13404 0.93614 0.0
H580 H 0.97703 0.13795 0.90817 0.0
H581 H 0.97914 0.10481 0.76428 0.0
H582 H 0.00988 0.10099 0.79058 0.0
H583 H 0.99985 0.10698 0.65407 0.0
H584 H 0.03666 0.18592 0.52704 0.0
H585 H 0.07637 0.17245 0.57469 0.0
H586 H 0.04748 0.12531 0.81657 0.0
C587 C 0.95862 0.14887 0.6746 0.0
C588 C 0.94755 0.16183 0.5909 0.0
C589 C 0.9607 0.17778 0.52789 0.0
C590 C 0.98474 0.1803 0.5445 0.0
C591 C 0.99543 0.16671 0.62462 0.0
C592 C 0.98287 0.15152 0.68994 0.0
C593 C 0.99924 0.13748 0.763 0.0
C594 C 0.99491 0.14335 0.88352 0.0
C595 C 0.99688 0.111 0.74164 0.0
C596 C 0.02286 0.14655 0.72536 0.0
C597 C 0.0201 0.1635 0.64584 0.0
C598 C 0.0391 0.17308 0.59098 0.0
C599 C 0.06156 0.16519 0.61799 0.0
C600 C 0.06494 0.14804 0.69981 0.0
C601 C 0.04535 0.1388 0.75525 0.0
H602 H 0.13905 0.96175 0.30982 0.0
H603 H 0.10046 0.93508 0.58723 0.0
H604 H 0.09611 0.97514 0.65898 0.0
H605 H 0.17138 1.0037 0.45915 0.0
H606 H 0.17104 0.02617 0.35587 0.0
H607 H 0.16905 0.99578 0.31734 0.0
H608 H 0.1305 1.00432 0.21357 0.0
H609 H 0.13246 0.03481 0.25123 0.0
H610 H 0.10656 0.01835 0.28389 0.0
H611 H 0.09823 0.01659 0.70952 0.0
H612 H 0.10635 0.05838 0.7369 0.0
H613 H 0.14436 0.06014 0.43049 0.0
C614 C 0.12922 0.96456 0.38411 0.0
C615 C 0.11986 0.9454 0.44273 0.0
C616 C 0.10767 0.94956 0.54118 0.0
C617 C 0.10507 0.97224 0.58248 0.0
C618 C 0.11489 0.99073 0.52485 0.0
C619 C 0.1267 0.98732 0.42776 0.0
C620 C 0.13686 1.01037 0.38726 0.0
C621 C 0.16367 1.00891 0.37948 0.0
C622 C 0.12594 0.01737 0.27746 0.0
C623 C 0.1292 0.02698 0.47774 0.0
C624 C 0.11641 0.01514 0.55547 0.0
C625 C 0.10805 0.02616 0.64885 0.0
C626 C 0.11287 0.04995 0.6638 0.0
C627 C 0.12599 0.06268 0.58599 0.0
C628 C 0.13414 0.05099 0.49114 0.0
H629 H 0.958 0.88445 0.56318 0.0
H630 H 0.95634 0.87933 0.91587 0.0
H631 H 0.99936 0.8729 0.91722 0.0
H632 H 1.00142 0.84038 0.51552 0.0
H633 H 0.01451 0.85625 0.40436 0.0
H634 H 0.98385 0.85989 0.43344 0.0
H635 H 0.98956 0.90484 0.45087 0.0
H636 H 0.0202 0.90135 0.42147 0.0
H637 H 0.01111 0.91602 0.54455 0.0
H638 H 0.04367 0.86744 0.8753 0.0
H639 H 0.08359 0.86487 0.79574 0.0
H640 H 0.05381 0.8738 0.47293 0.0
C641 C 0.96652 0.88189 0.64115 0.0
C642 C 0.95375 0.88232 0.73945 0.0
C643 C 0.96578 0.87905 0.83941 0.0
C644 C 0.99018 0.87534 0.84088 0.0
C645 C 1.0022 0.875 0.74178 0.0
C646 C 0.99061 0.87827 0.64401 0.0
C647 C 1.00713 0.87775 0.54835 0.0
C648 C 1.00138 0.85735 0.4709 0.0
C649 C 1.00699 0.9014 0.48781 0.0
C650 C 0.02997 0.87368 0.60692 0.0
C651 C 0.02701 0.87206 0.71837 0.0
C652 C 0.04609 0.86866 0.78804 0.0
C653 C 0.06868 0.86716 0.74226 0.0
C654 C 0.07188 0.86916 0.62813 0.0
C655 C 0.05212 0.87222 0.56051 0.0
H656 H 0.38337 0.31011 0.2617 0.0
H657 H 0.36841 0.31796 0.91652 0.0
H658 H 0.36346 0.2751 0.90096 0.0
H659 H 0.41656 0.25719 0.24013 0.0
H660 H 0.40544 0.24473 0.36459 0.0
H661 H 0.40709 0.27608 0.3495 0.0
H662 H 0.36288 0.27969 0.39283 0.0
H663 H 0.36106 0.24833 0.40789 0.0
H664 H 0.3421 0.2633 0.31305 0.0
H665 H 0.3613 0.23164 0.92132 0.0
H666 H 0.36221 0.19011 0.97474 0.0
H667 H 0.37821 0.21005 0.30811 0.0
C668 C 0.37896 0.30286 0.18278 0.0
C669 C 0.37627 0.31745 0.09017 0.0
C670 C 0.37055 0.3072 0.98855 0.0
C671 C 0.36767 0.28287 0.97896 0.0
C672 C 0.37049 0.26904 0.07179 0.0
C673 C 0.37598 0.27863 0.17179 0.0
C674 C 0.37846 0.25978 0.25836 0.0
C675 C 0.40337 0.25943 0.30591 0.0
C676 C 0.36002 0.26297 0.34834 0.0
C677 C 0.37372 0.23802 0.1911 0.0
C678 C 0.36911 0.24385 0.08379 0.0
C679 C 0.36479 0.22687 0.00513 0.0
C680 C 0.3654 0.20329 0.0365 0.0
C681 C 0.37027 0.19676 0.1458 0.0
C682 C 0.37425 0.21445 0.22426 0.0
H683 H 0.20204 0.64234 0.97184 0.0
H684 H 0.19721 0.68493 0.67925 0.0
H685 H 0.23967 0.69146 0.68521 0.0
H686 H 0.24913 0.67634 0.10505 0.0
H687 H 0.26337 0.65056 0.15874 0.0
H688 H 0.23213 0.6508 0.13856 0.0
H689 H 0.23546 0.61366 0.018 0.0
H690 H 0.26665 0.61327 0.03799 0.0
H691 H 0.25477 0.61381 0.90192 0.0
H692 H 0.28238 0.69068 0.71077 0.0
H693 H 0.32369 0.68227 0.7546 0.0
H694 H 0.30225 0.64092 0.03311 0.0
C695 C 0.20989 0.65334 0.91012 0.0
C696 C 0.19622 0.66318 0.82518 0.0
C697 C 0.20723 0.67718 0.74504 0.0
C698 C 0.23137 0.6811 0.74797 0.0
C699 C 0.24435 0.67098 0.83173 0.0
C700 C 0.23411 0.6574 0.91158 0.0
C701 C 0.25251 0.64741 0.98836 0.0
C702 C 0.24907 0.65685 0.10458 0.0
C703 C 0.25233 0.62044 0.98639 0.0
C704 C 0.27468 0.65707 0.9374 0.0
C705 C 0.26941 0.67077 0.84761 0.0
C706 C 0.28674 0.68035 0.78192 0.0
C707 C 0.31011 0.67549 0.80735 0.0
C708 C 0.31599 0.66137 0.89808 0.0
C709 C 0.29811 0.65232 0.96514 0.0
H710 H 0.64678 0.80647 0.20043 0.0
H711 H 0.6561 0.82686 0.86259 0.0
H712 H 0.6611 0.78532 0.81115 0.0
H713 H 0.68804 0.75742 0.20073 0.0
H714 H 0.66987 0.7395 0.28673 0.0
H715 H 0.66869 0.77098 0.29837 0.0
H716 H 0.62392 0.77018 0.26513 0.0
H717 H 0.62497 0.73873 0.25364 0.0
H718 H 0.61267 0.75604 0.14471 0.0
H719 H 0.66394 0.7413 0.79526 0.0
H720 H 0.66215 0.69817 0.8156 0.0
H721 H 0.64986 0.70668 0.16245 0.0
C722 C 0.65015 0.80221 0.11588 0.0
C723 C 0.65115 0.81993 0.03565 0.0
C724 C 0.65523 0.81359 0.92554 0.0
C725 C 0.6582 0.79004 0.89549 0.0
C726 C 0.65694 0.77298 0.97635 0.0
C727 C 0.65289 0.77875 0.08421 0.0
C728 C 0.65099 0.75698 0.15415 0.0
C729 C 0.67057 0.75618 0.24006 0.0
C730 C 0.62669 0.7554 0.2075 0.0
C731 C 0.65436 0.73811 0.06864 0.0
C732 C 0.65803 0.74766 0.96677 0.0
C733 C 0.66116 0.73361 0.87476 0.0
C734 C 0.66016 0.70914 0.88707 0.0
C735 C 0.65584 0.69902 0.99043 0.0
C736 C 0.65319 0.71382 0.08221 0.0
H737 H 0.71815 0.36974 0.00089 0.0
H738 H 0.69694 0.3573 0.66624 0.0
H739 H 0.73832 0.35351 0.61213 0.0
H740 H 0.76704 0.40551 0.9351 0.0
H741 H 0.78527 0.39468 0.04407 0.0
H742 H 0.75394 0.39463 0.05863 0.0
H743 H 0.755 0.35004 0.09895 0.0
H744 H 0.78636 0.34996 0.08438 0.0
H745 H 0.76881 0.33044 0.00309 0.0
H746 H 0.78187 0.3519 0.59279 0.0
H747 H 0.8248 0.35498 0.6077 0.0
H748 H 0.81802 0.37004 0.95317 0.0
C749 C 0.72224 0.36593 0.91656 0.0
C750 C 0.70433 0.36368 0.83787 0.0
C751 C 0.71038 0.35912 0.72791 0.0
C752 C 0.73383 0.35683 0.6964 0.0
C753 C 0.75109 0.35932 0.77558 0.0
C754 C 0.74564 0.36392 0.88327 0.0
C755 C 0.76763 0.36719 0.95069 0.0
C756 C 0.76851 0.39198 -1e-05 0.0
C757 C 0.76956 0.34828 0.03952 0.0
C758 C 0.78621 0.36388 0.86387 0.0
C759 C 0.77629 0.35908 0.76375 0.0
C760 C 0.78987 0.3556 0.67083 0.0
C761 C 0.81425 0.35734 0.68017 0.0
C762 C 0.82482 0.36277 0.78148 0.0
C763 C 0.81052 0.36586 0.87451 0.0
H764 H 0.87947 0.71487 0.76875 0.0
H765 H 0.86342 0.69807 0.43156 0.0
H766 H 0.86122 0.73992 0.38766 0.0
H767 H 0.84167 0.76716 0.78537 0.0
H768 H 0.86203 0.78336 0.86823 0.0
H769 H 0.86118 0.75182 0.8766 0.0
H770 H 0.90543 0.74984 0.83219 0.0
H771 H 0.90639 0.78134 0.82338 0.0
H772 H 0.91617 0.76371 0.71019 0.0
H773 H 0.86261 0.7831 0.37505 0.0
H774 H 0.86692 0.82584 0.39696 0.0
H775 H 0.88182 0.8159 0.7411 0.0
C776 C 0.87522 0.72006 0.68619 0.0
C777 C 0.8717 0.70308 0.60376 0.0
C778 C 0.86638 0.71062 0.4963 0.0
C779 C 0.86499 0.73442 0.47025 0.0
C780 C 0.86891 0.75069 0.55234 0.0
C781 C 0.87384 0.74397 0.65824 0.0
C782 C 0.87806 0.76532 0.72942 0.0
C783 C 0.85963 0.76701 0.82028 0.0
C784 C 0.903 0.76503 0.77655 0.0
C785 C 0.87497 0.78488 0.64645 0.0
C786 C 0.86963 0.77596 0.54498 0.0
C787 C 0.86662 0.79037 0.4543 0.0
C788 C 0.86915 0.81464 0.46749 0.0
C789 C 0.87463 0.82429 0.57063 0.0
C790 C 0.87745 0.80912 0.66127 0.0
H791 H 0.802 0.14465 0.56019 0.0
H792 H 0.82534 0.16012 0.23126 0.0
H793 H 0.78457 0.16203 0.16934 0.0
H794 H 0.75471 0.10717 0.47974 0.0
H795 H 0.73492 0.11684 0.58498 0.0
H796 H 0.76604 0.11792 0.60737 0.0
H797 H 0.76297 0.16223 0.65159 0.0
H798 H 0.73182 0.16127 0.62942 0.0
H799 H 0.74949 0.18178 0.55439 0.0
H800 H 0.74211 0.16151 0.13932 0.0
H801 H 0.69935 0.15757 0.1417 0.0
H802 H 0.70184 0.14146 0.48767 0.0
C803 C 0.79844 0.14866 0.47553 0.0
C804 C 0.81693 0.15223 0.40066 0.0
C805 C 0.81156 0.15716 0.29017 0.0
C806 C 0.78841 0.15839 0.25404 0.0
C807 C 0.77064 0.15454 0.32898 0.0
C808 C 0.77522 0.1497 0.43731 0.0
C809 C 0.75257 0.14535 0.49885 0.0
C810 C 0.75203 0.12033 0.54547 0.0
C811 C 0.74901 0.16376 0.5889 0.0
C812 C 0.73474 0.14841 0.40779 0.0
C813 C 0.74569 0.15386 0.31092 0.0
C814 C 0.73326 0.1573 0.21469 0.0
C815 C 0.70892 0.155 0.21697 0.0
C816 C 0.69712 0.14919 0.31476 0.0
C817 C 0.71029 0.14596 0.41163 0.0
H818 H 0.1369 0.30821 0.80084 0.0
H819 H 0.16503 0.32361 0.48025 0.0
H820 H 0.17012 0.28155 0.44495 0.0
H821 H 0.17434 0.25675 0.85663 0.0
H822 H 0.15131 0.24056 0.92231 0.0
H823 H 0.15131 0.27214 0.92748 0.0
H824 H 0.10957 0.273 0.8452 0.0
H825 H 0.10947 0.24145 0.83968 0.0
H826 H 0.10409 0.25826 0.71779 0.0
H827 H 0.17062 0.23821 0.43807 0.0
H828 H 0.16585 0.19556 0.46025 0.0
H829 H 0.13692 0.20694 0.78329 0.0
C830 C 0.14441 0.30267 0.72404 0.0
C831 C 0.15054 0.31928 0.64338 0.0
C832 C 0.16003 0.31129 0.54317 0.0
C833 C 0.16312 0.28739 0.52229 0.0
C834 C 0.1566 0.27146 0.60217 0.0
C835 C 0.14743 0.27863 0.70107 0.0
C836 C 0.14079 0.25754 0.76992 0.0
C837 C 0.15531 0.25671 0.87534 0.0
C838 C 0.11441 0.25757 0.79456 0.0
C839 C 0.14743 0.2376 0.69353 0.0
C840 C 0.15668 0.2461 0.59764 0.0
C841 C 0.16354 0.23128 0.51311 0.0
C842 C 0.16073 0.20704 0.52643 0.0
C843 C 0.15107 0.1978 0.62346 0.0
C844 C 0.14452 0.21338 0.70833 0.0
H845 H 0.21623 0.87086 0.5531 0.0
H846 H 0.18972 0.86694 0.22159 0.0
H847 H 0.22986 0.86598 0.15159 0.0
H848 H 0.26423 0.90891 0.49236 0.0
H849 H 0.28442 0.89511 0.58557 0.0
H850 H 0.25347 0.89437 0.61259 0.0
H851 H 0.25505 0.84904 0.62348 0.0
H852 H 0.28603 0.84965 0.59672 0.0
H853 H 0.26699 0.83257 0.51093 0.0
H854 H 0.27199 0.86651 0.11456 0.0
H855 H 0.31489 0.86864 0.11228 0.0
H856 H 0.31562 0.87266 0.46598 0.0
C857 C 0.21894 0.86959 0.46599 0.0
C858 C 0.19977 0.86901 0.39298 0.0
C859 C 0.20404 0.86755 0.27936 0.0
C860 C 0.22681 0.86691 0.2385 0.0
C861 C 0.24527 0.86779 0.31201 0.0
C862 C 0.24174 0.86909 0.42325 0.0
C863 C 0.26497 0.87051 0.48312 0.0
C864 C 0.26688 0.8936 0.54718 0.0
C865 C 0.26846 0.84917 0.55799 0.0
C866 C 0.28191 0.86995 0.38781 0.0
C867 C 0.27004 0.86827 0.29016 0.0
C868 C 0.28157 0.86775 0.19043 0.0
C869 C 0.30598 0.869 0.19009 0.0
C870 C 0.3187 0.87081 0.28886 0.0
C871 C 0.30642 0.87123 0.38911 0.0
H872 H 0.21194 0.11962 0.74622 0.0
H873 H 0.17771 0.11678 0.06171 0.0
H874 H 0.21621 0.11302 0.15117 0.0
H875 H 0.25896 0.07792 0.80933 0.0
H876 H 0.28054 0.09394 0.73288 0.0
H877 H 0.25023 0.09505 0.69264 0.0
H878 H 0.2509 0.14039 0.70428 0.0
H879 H 0.28117 0.13942 0.74463 0.0
H880 H 0.26002 0.15428 0.82918 0.0
H881 H 0.25815 0.11196 0.20739 0.0
H882 H 0.30097 0.11327 0.2276 0.0
H883 H 0.30859 0.11627 0.87589 0.0
C884 C 0.2125 0.11794 0.83406 0.0
C885 C 0.19172 0.11845 0.8969 0.0
C886 C 0.1933 0.1164 0.01171 0.0
C887 C 0.21511 0.11422 0.06332 0.0
C888 C 0.23521 0.11402 -0.0009 0.0
C889 C 0.23414 0.11573 0.88698 0.0
C890 C 0.25848 0.11589 0.83747 0.0
C891 C 0.26227 0.09442 0.76372 0.0
C892 C 0.26289 0.13886 0.77524 0.0
C893 C 0.27341 0.11436 0.93949 0.0
C894 C 0.25957 0.11322 0.03165 0.0
C895 C 0.26917 0.11265 0.13582 0.0
C896 C 0.29355 0.11347 0.14636 0.0
C897 C 0.30819 0.11479 0.05335 0.0
C898 C 0.29791 0.11497 0.94845 0.0
H899 H 0.12063 0.81731 0.10428 0.0
H900 H 0.10692 0.80131 0.44392 0.0
H901 H 0.10182 0.75967 0.39753 0.0
H902 H 0.08019 0.77375 0.98578 0.0
H903 H 0.09982 0.76617 0.87629 0.0
H904 H 0.10023 0.79529 0.93338 0.0
H905 H 0.14455 0.79093 0.97296 0.0
H906 H 0.14426 0.76182 0.91624 0.0
H907 H 0.15481 0.76644 0.05298 0.0
H908 H 0.10027 0.71963 0.31871 0.0
H909 H 0.10359 0.68317 0.21206 0.0
H910 H 0.11935 0.72393 0.92254 0.0
C911 C 0.11612 0.80506 0.16823 0.0
C912 C 0.11404 0.8126 0.27771 0.0
C913 C 0.10863 0.79597 0.35958 0.0
C914 C 0.1056 0.77226 0.33403 0.0
C915 C 0.10815 0.76527 0.22607 0.0
C916 C 0.11333 0.78109 0.14425 0.0
C917 C 0.11665 0.76848 0.03619 0.0
C918 C 0.09812 0.7764 0.953 0.0
C919 C 0.14154 0.77214 0.99204 0.0
C920 C 0.11283 0.74319 0.07078 0.0
C921 C 0.1077 0.74184 0.1805 0.0
C922 C 0.10413 0.72044 0.23249 0.0
C923 C 0.10607 0.69978 0.17109 0.0
C924 C 0.11168 0.70057 0.05872 0.0
C925 C 0.11487 0.72267 0.00804 0.0
H926 H 0.71868 0.89251 0.03985 0.0
H927 H 0.68935 0.92095 0.74084 0.0
H928 H 0.72909 0.92594 0.6673 0.0
H929 H 0.77046 0.9303 0.04869 0.0
H930 H 0.78923 0.90729 0.09958 0.0
H931 H 0.75851 0.90732 0.13245 0.0
H932 H 0.75469 0.86537 0.05364 0.0
H933 H 0.78535 0.86521 0.0205 0.0
H934 H 0.76396 0.85967 0.91574 0.0
H935 H 0.77127 0.92551 0.62093 0.0
H936 H 0.8138 0.91988 0.60389 0.0
H937 H 0.81659 0.89219 0.93325 0.0
C938 C 0.72061 0.90005 0.95942 0.0
C939 C 0.70085 0.90638 0.8962 0.0
C940 C 0.70417 0.91598 0.79092 0.0
C941 C 0.72669 0.91895 0.74846 0.0
C942 C 0.74574 0.91233 0.81237 0.0
C943 C 0.74302 0.90315 0.91566 0.0
C944 C 0.76648 0.89655 0.96519 0.0
C945 C 0.77146 0.91125 0.06755 0.0
C946 C 0.76768 0.87013 0.99019 0.0
C947 C 0.78276 0.90307 0.87266 0.0
C948 C 0.77036 0.91225 0.78568 0.0
C949 C 0.78122 0.91857 0.68879 0.0
C950 C 0.8054 0.91522 0.67988 0.0
C951 C 0.81854 0.90567 0.76739 0.0
C952 C 0.80706 0.89982 0.86562 0.0
H953 H 0.89449 0.20683 0.09425 0.0
H954 H 0.90447 0.22183 0.43811 0.0
H955 H 0.90932 0.26362 0.39642 0.0
H956 H 0.93582 0.25086 0.99086 0.0
H957 H 0.91762 0.25883 0.8766 0.0
H958 H 0.91649 0.22952 0.93113 0.0
H959 H 0.87176 0.23374 0.95858 0.0
H960 H 0.87275 0.26304 0.90418 0.0
H961 H 0.86049 0.25797 0.03731 0.0
H962 H 0.91135 0.30378 0.32201 0.0
H963 H 0.90955 0.3406 0.21759 0.0
H964 H 0.89777 0.30092 0.92049 0.0
C965 C 0.89798 0.21892 0.16029 0.0
C966 C 0.89906 0.21101 0.26949 0.0
C967 C 0.90338 0.22742 0.3539 0.0
C968 C 0.90629 0.25124 0.33113 0.0
C969 C 0.90481 0.25856 0.22335 0.0
C970 C 0.90073 0.24301 0.13904 0.0
C971 C 0.89879 0.25597 0.03122 0.0
C972 C 0.91835 0.24834 0.95283 0.0
C973 C 0.8745 0.25247 0.97983 0.0
C974 C 0.90214 0.28113 0.06886 0.0
C975 C 0.90578 0.2821 0.17996 0.0
C976 C 0.90866 0.30329 0.23475 0.0
C977 C 0.90759 0.32414 0.17463 0.0
C978 C 0.90358 0.32374 0.06074 0.0
C979 C 0.90105 0.30185 0.00728 0.0
H980 H 0.20987 0.38959 0.31896 0.0
H981 H 0.21646 0.4033 0.666 0.0
H982 H 0.25908 0.40498 0.64783 0.0
H983 H 0.25998 0.3522 0.29874 0.0
H984 H 0.26925 0.36278 0.16739 0.0
H985 H 0.23878 0.3639 0.20421 0.0
H986 H 0.23788 0.40855 0.16592 0.0
H987 H 0.26835 0.40755 0.12856 0.0
H988 H 0.25856 0.42737 0.23363 0.0
H989 H 0.30059 0.40337 0.59807 0.0
H990 H 0.33964 0.39934 0.51634 0.0
H991 H 0.30782 0.38689 0.19996 0.0
C992 C 0.22031 0.39321 0.3906 0.0
C993 C 0.20973 0.39623 0.49396 0.0
C994 C 0.22405 0.40074 0.58602 0.0
C995 C 0.24835 0.40182 0.5767 0.0
C996 C 0.25827 0.3984 0.47467 0.0
C997 C 0.24485 0.39428 0.38292 0.0
C998 C 0.26039 0.39052 0.28393 0.0
C999 C 0.25689 0.36588 0.23576 0.0
C1000 C 0.25603 0.40964 0.19793 0.0
C1001 C 0.28448 0.39294 0.33526 0.0
C1002 C 0.28269 0.39755 0.44536 0.0
C1003 C 0.30229 0.39991 0.51173 0.0
C1004 C 0.32442 0.39752 0.46448 0.0
C1005 C 0.32687 0.39283 0.35171 0.0
C1006 C 0.30655 0.39061 0.28628 0.0
H1007 H 0.39752 0.81059 0.61548 0.0
H1008 H 0.39689 0.79855 0.26622 0.0
H1009 H 0.3964 0.75582 0.29804 0.0
H1010 H 0.43426 0.76057 0.688 0.0
H1011 H 0.41809 0.75447 0.8107 0.0
H1012 H 0.41979 0.78405 0.76004 0.0
H1013 H 0.37451 0.7867 0.75731 0.0
H1014 H 0.37268 0.75712 0.80754 0.0
H1015 H 0.35804 0.7651 0.68272 0.0
H1016 H 0.39453 0.71411 0.36861 0.0
H1017 H 0.39116 0.67711 0.47288 0.0
H1018 H 0.39244 0.71683 0.77469 0.0
C1019 C 0.39759 0.79899 0.54563 0.0
C1020 C 0.39735 0.80797 0.43835 0.0
C1021 C 0.39711 0.79212 0.34924 0.0
C1022 C 0.39686 0.7678 0.36642 0.0
C1023 C 0.3968 0.75953 0.4732 0.0
C1024 C 0.39719 0.77466 0.56128 0.0
C1025 C 0.39613 0.76135 0.66783 0.0
C1026 C 0.41839 0.76535 0.73561 0.0
C1027 C 0.37403 0.76796 0.73262 0.0
C1028 C 0.39491 0.73641 0.62594 0.0
C1029 C 0.39545 0.73566 0.51354 0.0
C1030 C 0.39418 0.71449 0.45675 0.0
C1031 C 0.39226 0.69356 0.5166 0.0
C1032 C 0.39151 0.694 0.63194 0.0
C1033 C 0.39296 0.71579 0.68662 0.0
H1034 H 0.71788 0.62581 0.1403 0.0
H1035 H 0.68105 0.62405 0.44961 0.0
H1036 H 0.71885 0.62243 0.54653 0.0
H1037 H 0.76545 0.58638 0.2177 0.0
H1038 H 0.7872 0.60254 0.14295 0.0
H1039 H 0.75724 0.60251 0.09715 0.0
H1040 H 0.75656 0.64791 0.10255 0.0
H1041 H 0.78647 0.64809 0.14853 0.0
H1042 H 0.7642 0.66284 0.227 0.0
H1043 H 0.7602 0.62261 0.61015 0.0
H1044 H 0.8027 0.62434 0.63823 0.0
H1045 H 0.81343 0.6259 0.28786 0.0
C1046 C 0.71773 0.62486 0.22842 0.0
C1047 C 0.69643 0.625 0.28736 0.0
C1048 C 0.69707 0.62393 0.40261 0.0
C1049 C 0.71847 0.62299 0.45841 0.0
C1050 C 0.73909 0.62309 0.39788 0.0
C1051 C 0.73895 0.62394 0.28549 0.0
C1052 C 0.76367 0.62449 0.24037 0.0
C1053 C 0.76868 0.60268 0.17041 0.0
C1054 C 0.76797 0.64719 0.17582 0.0
C1055 C 0.77775 0.62405 0.34517 0.0
C1056 C 0.76314 0.62317 0.43482 0.0
C1057 C 0.77182 0.6232 0.54063 0.0
C1058 C 0.79606 0.62425 0.55556 0.0
C1059 C 0.81151 0.62528 0.46524 0.0
C1060 C 0.80214 0.625 0.35852 0.0
H1061 H 0.62654 0.21782 0.39455 0.0
H1062 H 0.59753 0.18404 0.68109 0.0
H1063 H 0.59214 0.22254 0.76774 0.0
H1064 H 0.65904 0.26027 0.53644 0.0
H1065 H 0.65403 0.28376 0.44089 0.0
H1066 H 0.65346 0.25379 0.39501 0.0
H1067 H 0.61182 0.26018 0.31686 0.0
H1068 H 0.61226 0.29022 0.36261 0.0
H1069 H 0.58894 0.27107 0.40457 0.0
H1070 H 0.59312 0.26331 0.83117 0.0
H1071 H 0.60054 0.30497 0.86928 0.0
H1072 H 0.62832 0.31398 0.54314 0.0
C1073 C 0.61867 0.2186 0.47469 0.0
C1074 C 0.6124 0.19786 0.53088 0.0
C1075 C 0.60251 0.19961 0.63638 0.0
C1076 C 0.59926 0.22143 0.68622 0.0
C1077 C 0.60591 0.24145 0.62963 0.0
C1078 C 0.61536 0.24037 0.52619 0.0
C1079 C 0.62239 0.26464 0.4871 0.0
C1080 C 0.6488 0.26567 0.46351 0.0
C1081 C 0.60799 0.27196 0.38683 0.0
C1082 C 0.61596 0.27934 0.586 0.0
C1083 C 0.60629 0.26549 0.66658 0.0
C1084 C 0.60034 0.27443 0.76831 0.0
C1085 C 0.6047 0.29809 0.78926 0.0
C1086 C 0.61481 0.31266 0.70889 0.0
C1087 C 0.62012 0.30329 0.60508 0.0
loop_
_geom_bond_atom_site_label_1
_geom_bond_atom_site_label_2
_geom_bond_distance
_geom_bond_site_symmetry_2
_ccdc_geom_bond_type
C0 O2 1.247 . S
C0 O4 1.258 . S
C1 O8 1.247 . S
C1 O9 1.258 . S
O2 C0 1.247 . S
O2 Zn3 2.028 . S
Zn3 O2 2.028 . S
Zn3 O7 2.035 . S
Zn3 O9 2.035 . S
Zn3 O10 2.028 . S
O4 C0 1.258 . S
O4 Zn5 2.035 . S
Zn5 O4 2.035 . S
Zn5 O6 2.028 . S
Zn5 O8 2.028 . S
Zn5 O11 2.035 . S
O6 Zn5 2.028 . S
O6 C12 1.247 . S
O7 Zn3 2.035 . S
O7 C12 1.258 . S
O8 C1 1.247 . S
O8 Zn5 2.028 . S
O9 C1 1.258 . S
O9 Zn3 2.035 . S
O10 Zn3 2.028 . S
O10 C13 1.247 . S
O11 Zn5 2.035 . S
O11 C13 1.258 . S
C12 O6 1.247 . S
C12 O7 1.258 . S
C13 O10 1.247 . S
C13 O11 1.258 . S
C14 O16 1.247 . S
C14 O18 1.258 . S
C15 O22 1.247 . S
C15 O23 1.258 . S
O16 C14 1.247 . S
O16 Zn17 2.028 . S
Zn17 O16 2.028 . S
Zn17 O21 2.035 . S
Zn17 O23 2.035 . S
Zn17 O24 2.028 . S
O18 C14 1.258 . S
O18 Zn19 2.035 . S
Zn19 O18 2.035 . S
Zn19 O20 2.028 . S
Zn19 O22 2.028 . S
Zn19 O25 2.035 . S
O20 Zn19 2.028 . S
O20 C26 1.247 . S
O21 Zn17 2.035 . S
O21 C26 1.258 . S
O22 C15 1.247 . S
O22 Zn19 2.028 . S
O23 C15 1.258 . S
O23 Zn17 2.035 . S
O24 Zn17 2.028 . S
O24 C27 1.247 . S
O25 Zn19 2.035 . S
O25 C27 1.258 . S
C26 O20 1.247 . S
C26 O21 1.258 . S
C27 O24 1.247 . S
C27 O25 1.258 . S
C28 O30 1.247 . S
C28 O32 1.258 . S
C29 O36 1.247 . S
C29 O37 1.258 . S
O30 C28 1.247 . S
O30 Zn31 2.028 . S
Zn31 O30 2.028 . S
Zn31 O35 2.035 . S
Zn31 O37 2.035 . S
Zn31 O38 2.028 . S
O32 C28 1.258 . S
O32 Zn33 2.035 . S
Zn33 O32 2.035 . S
Zn33 O34 2.028 . S
Zn33 O36 2.028 . S
Zn33 O39 2.035 . S
O34 Zn33 2.028 . S
O34 C40 1.247 . S
O35 Zn31 2.035 . S
O35 C40 1.258 . S
O36 C29 1.247 . S
O36 Zn33 2.028 . S
O37 C29 1.258 . S
O37 Zn31 2.035 . S
O38 Zn31 2.028 . S
O38 C41 1.247 . S
O39 Zn33 2.035 . S
O39 C41 1.258 . S
C40 O34 1.247 . S
C40 O35 1.258 . S
C41 O38 1.247 . S
C41 O39 1.258 . S
C42 O44 1.247 . S
C42 O46 1.258 . S
C43 O50 1.247 . S
C43 O51 1.258 . S
O44 C42 1.247 . S
O44 Zn45 2.028 . S
Zn45 O44 2.028 . S
Zn45 O49 2.035 . S
Zn45 O51 2.035 . S
Zn45 O52 2.028 . S
O46 C42 1.258 . S
O46 Zn47 2.035 . S
Zn47 O46 2.035 . S
Zn47 O48 2.028 . S
Zn47 O50 2.028 . S
Zn47 O53 2.035 . S
O48 Zn47 2.028 . S
O48 C54 1.247 . S
O49 Zn45 2.035 . S
O49 C54 1.258 . S
O50 C43 1.247 . S
O50 Zn47 2.028 . S
O51 C43 1.258 . S
O51 Zn45 2.035 . S
O52 Zn45 2.028 . S
O52 C55 1.247 . S
O53 Zn47 2.035 . S
O53 C55 1.258 . S
C54 O48 1.247 . S
C54 O49 1.258 . S
C55 O52 1.247 . S
C55 O53 1.258 . S
C56 O58 1.247 1_554 S
C56 O60 1.258 . S
C57 O64 1.247 . S
C57 O65 1.258 . S
O58 C56 1.247 1_556 S
O58 Zn59 2.028 . S
Zn59 O58 2.028 . S
Zn59 O63 2.035 1_556 S
Zn59 O65 2.035 1_556 S
Zn59 O66 2.028 . S
O60 C56 1.258 . S
O60 Zn61 2.035 . S
Zn61 O60 2.035 . S
Zn61 O62 2.028 . S
Zn61 O64 2.028 . S
Zn61 O67 2.035 . S
O62 Zn61 2.028 . S
O62 C68 1.247 . S
O63 Zn59 2.035 1_554 S
O63 C68 1.258 . S
O64 C57 1.247 . S
O64 Zn61 2.028 . S
O65 C57 1.258 . S
O65 Zn59 2.035 1_554 S
O66 Zn59 2.028 . S
O66 C69 1.247 1_556 S
O67 Zn61 2.035 . S
O67 C69 1.258 . S
C68 O62 1.247 . S
C68 O63 1.258 . S
C69 O66 1.247 1_554 S
C69 O67 1.258 . S
C70 O72 1.247 . S
C70 O74 1.258 1_556 S
C71 O78 1.247 . S
C71 O79 1.258 . S
O72 C70 1.247 . S
O72 Zn73 2.028 . S
Zn73 O72 2.028 . S
Zn73 O77 2.035 . S
Zn73 O79 2.035 . S
Zn73 O80 2.028 . S
O74 C70 1.258 1_554 S
O74 Zn75 2.035 . S
Zn75 O74 2.035 . S
Zn75 O76 2.028 1_554 S
Zn75 O78 2.028 1_554 S
Zn75 O81 2.035 . S
O76 Zn75 2.028 1_556 S
O76 C82 1.247 . S
O77 Zn73 2.035 . S
O77 C82 1.258 . S
O78 C71 1.247 . S
O78 Zn75 2.028 1_556 S
O79 C71 1.258 . S
O79 Zn73 2.035 . S
O80 Zn73 2.028 . S
O80 C83 1.247 . S
O81 Zn75 2.035 . S
O81 C83 1.256 1_554 S
C82 O76 1.247 . S
C82 O77 1.258 . S
C83 O80 1.247 . S
C83 O81 1.256 1_556 S
C84 O86 1.247 . S
C84 O88 1.258 . S
C85 O92 1.247 . S
C85 O93 1.258 1_554 S
O86 C84 1.247 . S
O86 Zn87 2.028 1_554 S
Zn87 O86 2.028 1_556 S
Zn87 O91 2.035 . S
Zn87 O93 2.035 . S
Zn87 O94 2.028 1_556 S
O88 C84 1.258 . S
O88 Zn89 2.035 . S
Zn89 O88 2.035 . S
Zn89 O90 2.028 . S
Zn89 O92 2.028 . S
Zn89 O95 2.035 . S
O90 Zn89 2.028 . S
O90 C96 1.247 . S
O91 Zn87 2.035 . S
O91 C96 1.256 1_556 S
O92 C85 1.247 . S
O92 Zn89 2.028 . S
O93 C85 1.258 1_556 S
O93 Zn87 2.035 . S
O94 Zn87 2.028 1_554 S
O94 C97 1.247 . S
O95 Zn89 2.035 . S
O95 C97 1.258 . S
C96 O90 1.247 . S
C96 O91 1.256 1_554 S
C97 O94 1.247 . S
C97 O95 1.258 . S
C98 O100 1.247 . S
C98 O102 1.258 1_556 S
C99 O106 1.247 . S
C99 O107 1.258 . S
O100 C98 1.247 . S
O100 Zn101 2.028 . S
Zn101 O100 2.028 . S
Zn101 O105 2.035 . S
Zn101 O107 2.035 . S
Zn101 O108 2.028 . S
O102 C98 1.258 1_554 S
O102 Zn103 2.035 . S
Zn103 O102 2.035 . S
Zn103 O104 2.028 1_554 S
Zn103 O106 2.028 1_554 S
Zn103 O109 2.035 . S
O104 Zn103 2.028 1_556 S
O104 C110 1.247 . S
O105 Zn101 2.035 . S
O105 C110 1.258 . S
O106 C99 1.247 . S
O106 Zn103 2.028 1_556 S
O107 C99 1.258 . S
O107 Zn101 2.035 . S
O108 Zn101 2.028 . S
O108 C111 1.247 . S
O109 Zn103 2.035 . S
O109 C111 1.256 1_554 S
C110 O104 1.247 . S
C110 O105 1.258 . S
C111 O108 1.247 . S
C111 O109 1.256 1_556 S
C112 O114 1.247 . S
C112 O116 1.258 . S
C113 O120 1.247 . S
C113 O121 1.258 . S
O114 C112 1.247 . S
O114 Zn115 2.028 . S
Zn115 O114 2.028 . S
Zn115 O119 2.035 . S
Zn115 O121 2.035 . S
Zn115 O122 2.028 . S
O116 C112 1.258 . S
O116 Zn117 2.035 . S
Zn117 O116 2.035 . S
Zn117 O118 2.028 . S
Zn117 O120 2.028 . S
Zn117 O123 2.035 . S
O118 Zn117 2.028 . S
O118 C124 1.247 . S
O119 Zn115 2.035 . S
O119 C124 1.258 . S
O120 C113 1.247 . S
O120 Zn117 2.028 . S
O121 C113 1.258 . S
O121 Zn115 2.035 . S
O122 Zn115 2.028 . S
O122 C125 1.247 . S
O123 Zn117 2.035 . S
O123 C125 1.258 . S
C124 O118 1.247 . S
C124 O119 1.258 . S
C125 O122 1.247 . S
C125 O123 1.258 . S
C126 O128 1.247 . S
C126 O130 1.258 . S
C127 O134 1.247 . S
C127 O135 1.258 . S
O128 C126 1.247 . S
O128 Zn129 2.028 . S
Zn129 O128 2.028 . S
Zn129 O133 2.035 . S
Zn129 O135 2.035 . S
Zn129 O136 2.028 . S
O130 C126 1.258 . S
O130 Zn131 2.035 . S
Zn131 O130 2.035 . S
Zn131 O132 2.028 . S
Zn131 O134 2.028 . S
Zn131 O137 2.035 . S
O132 Zn131 2.028 . S
O132 C138 1.247 . S
O133 Zn129 2.035 . S
O133 C138 1.258 . S
O134 C127 1.247 . S
O134 Zn131 2.028 . S
O135 C127 1.258 . S
O135 Zn129 2.035 . S
O136 Zn129 2.028 . S
O136 C139 1.247 . S
O137 Zn131 2.035 . S
O137 C139 1.258 . S
C138 O132 1.247 . S
C138 O133 1.258 . S
C139 O136 1.247 . S
C139 O137 1.258 . S
C140 O142 1.247 . S
C140 O144 1.258 . S
C141 O148 1.247 . S
C141 O149 1.258 . S
O142 C140 1.247 . S
O142 Zn143 2.028 . S
Zn143 O142 2.028 . S
Zn143 O147 2.035 . S
Zn143 O149 2.035 . S
Zn143 O150 2.028 . S
O144 C140 1.258 . S
O144 Zn145 2.035 . S
Zn145 O144 2.035 . S
Zn145 O146 2.028 . S
Zn145 O148 2.028 . S
Zn145 O151 2.035 . S
O146 Zn145 2.028 . S
O146 C152 1.247 . S
O147 Zn143 2.035 . S
O147 C152 1.258 . S
O148 C141 1.247 . S
O148 Zn145 2.028 . S
O149 C141 1.258 . S
O149 Zn143 2.035 . S
O150 Zn143 2.028 . S
O150 C153 1.247 . S
O151 Zn145 2.035 . S
O151 C153 1.258 . S
C152 O146 1.247 . S
C152 O147 1.258 . S
C153 O150 1.247 . S
C153 O151 1.258 . S
C154 O156 1.247 . S
C154 O158 1.258 . S
C155 O162 1.247 . S
C155 O163 1.258 . S
O156 C154 1.247 . S
O156 Zn157 2.028 . S
Zn157 O156 2.028 . S
Zn157 O161 2.035 . S
Zn157 O163 2.035 . S
Zn157 O164 2.028 . S
O158 C154 1.258 . S
O158 Zn159 2.035 . S
Zn159 O158 2.035 . S
Zn159 O160 2.028 . S
Zn159 O162 2.028 . S
Zn159 O165 2.035 . S
O160 Zn159 2.028 . S
O160 C166 1.247 . S
O161 Zn157 2.035 . S
O161 C166 1.258 . S
O162 C155 1.247 . S
O162 Zn159 2.028 . S
O163 C155 1.258 . S
O163 Zn157 2.035 . S
O164 Zn157 2.028 . S
O164 C167 1.247 . S
O165 Zn159 2.035 . S
O165 C167 1.258 . S
C166 O160 1.247 . S
C166 O161 1.258 . S
C167 O164 1.247 . S
C167 O165 1.258 . S
C168 O170 1.247 . S
C168 O172 1.258 . S
C169 O176 1.247 . S
C169 O177 1.258 . S
O170 C168 1.247 . S
O170 Zn171 2.028 . S
Zn171 O170 2.028 . S
Zn171 O175 2.035 . S
Zn171 O177 2.035 . S
Zn171 O178 2.028 . S
O172 C168 1.258 . S
O172 Zn173 2.035 . S
Zn173 O172 2.035 . S
Zn173 O174 2.028 . S
Zn173 O176 2.028 . S
Zn173 O179 2.035 . S
O174 Zn173 2.028 . S
O174 C180 1.247 . S
O175 Zn171 2.035 . S
O175 C180 1.258 . S
O176 C169 1.247 . S
O176 Zn173 2.028 . S
O177 C169 1.258 . S
O177 Zn171 2.035 . S
O178 Zn171 2.028 . S
O178 C181 1.247 . S
O179 Zn173 2.035 . S
O179 C181 1.258 . S
C180 O174 1.247 . S
C180 O175 1.258 . S
C181 O178 1.247 . S
C181 O179 1.258 . S
C182 O184 1.247 . S
C182 O186 1.258 . S
C183 O190 1.247 . S
C183 O191 1.258 . S
O184 C182 1.247 . S
O184 Zn185 2.028 . S
Zn185 O184 2.028 . S
Zn185 O189 2.035 . S
Zn185 O191 2.035 . S
Zn185 O192 2.028 . S
O186 C182 1.258 . S
O186 Zn187 2.035 . S
Zn187 O186 2.035 . S
Zn187 O188 2.028 . S
Zn187 O190 2.028 . S
Zn187 O193 2.035 . S
O188 Zn187 2.028 . S
O188 C194 1.247 . S
O189 Zn185 2.035 . S
O189 C194 1.258 . S
O190 C183 1.247 . S
O190 Zn187 2.028 . S
O191 C183 1.258 . S
O191 Zn185 2.035 . S
O192 Zn185 2.028 . S
O192 C195 1.247 . S
O193 Zn187 2.035 . S
O193 C195 1.258 . S
C194 O188 1.247 . S
C194 O189 1.258 . S
C195 O192 1.247 . S
C195 O193 1.258 . S
C196 O198 1.247 . S
C196 O200 1.258 . S
C197 O204 1.247 . S
C197 O205 1.258 . S
O198 C196 1.247 . S
O198 Zn199 2.028 . S
Zn199 O198 2.028 . S
Zn199 O203 2.035 . S
Zn199 O205 2.035 . S
Zn199 O206 2.028 . S
O200 C196 1.258 . S
O200 Zn201 2.035 . S
Zn201 O200 2.035 . S
Zn201 O202 2.028 . S
Zn201 O204 2.028 . S
Zn201 O207 2.035 . S
O202 Zn201 2.028 . S
O202 C208 1.247 . S
O203 Zn199 2.035 . S
O203 C208 1.258 . S
O204 C197 1.247 . S
O204 Zn201 2.028 . S
O205 C197 1.258 . S
O205 Zn199 2.035 . S
O206 Zn199 2.028 . S
O206 C209 1.247 . S
O207 Zn201 2.035 . S
O207 C209 1.258 . S
C208 O202 1.247 . S
C208 O203 1.258 . S
C209 O206 1.247 . S
C209 O207 1.258 . S
C210 O212 1.247 . S
C210 O214 1.258 . S
C211 O218 1.247 . S
C211 O219 1.258 . S
O212 C210 1.247 . S
O212 Zn213 2.028 . S
Zn213 O212 2.028 . S
Zn213 O217 2.035 . S
Zn213 O219 2.035 . S
Zn213 O220 2.028 . S
O214 C210 1.258 . S
O214 Zn215 2.035 . S
Zn215 O214 2.035 . S
Zn215 O216 2.028 . S
Zn215 O218 2.028 . S
Zn215 O221 2.035 . S
O216 Zn215 2.028 . S
O216 C222 1.247 . S
O217 Zn213 2.035 . S
O217 C222 1.258 . S
O218 C211 1.247 . S
O218 Zn215 2.028 . S
O219 C211 1.258 . S
O219 Zn213 2.035 . S
O220 Zn213 2.028 . S
O220 C223 1.247 . S
O221 Zn215 2.035 . S
O221 C223 1.258 . S
C222 O216 1.247 . S
C222 O217 1.258 . S
C223 O220 1.247 . S
C223 O221 1.258 . S
H224 C236 0.930 . S
H225 C238 0.930 . S
H226 C239 0.930 . S
H227 C243 0.959 . S
H228 C243 0.959 1_545 S
H229 C243 0.961 . S
H230 C244 0.960 1_565 S
H231 C244 0.961 . S
H232 C244 0.959 . S
H233 C247 0.929 . S
H234 C248 0.931 . S
H235 C250 0.930 . S
C236 H224 0.930 . S
C236 C237 1.399 . S
C236 C241 1.399 . S
C237 C236 1.399 . S
C237 C238 1.376 . S
C238 H225 0.930 . S
C238 C237 1.376 . S
C238 C239 1.388 . S
C239 H226 0.930 . S
C239 C238 1.388 . S
C239 C240 1.390 . S
C240 C239 1.390 . S
C240 C241 1.394 . S
C240 C246 1.465 1_565 S
C241 C236 1.399 . S
C241 C240 1.394 . S
C241 C242 1.516 . S
C242 C241 1.516 . S
C242 C243 1.502 . S
C242 C244 1.561 1_565 S
C242 C245 1.526 1_565 S
C243 H227 0.959 . S
C243 H228 0.959 1_565 S
C243 H229 0.961 . S
C243 C242 1.502 . S
C244 H230 0.960 1_545 S
C244 H231 0.961 . S
C244 H232 0.959 . S
C244 C242 1.561 1_545 S
C245 C242 1.526 1_545 S
C245 C246 1.396 . S
C245 C250 1.390 . S
C246 C240 1.465 1_545 S
C246 C245 1.396 . S
C246 C247 1.399 . S
C247 H233 0.929 . S
C247 C246 1.399 . S
C247 C248 1.385 . S
C248 H234 0.931 . S
C248 C247 1.385 . S
C248 C249 1.389 . S
C249 C248 1.389 . S
C249 C250 1.387 . S
C250 H235 0.930 . S
C250 C245 1.390 . S
C250 C249 1.387 . S
H251 C263 0.930 . S
H252 C265 0.930 . S
H253 C266 0.930 . S
H254 C270 0.959 . S
H255 C270 0.959 . S
H256 C270 0.961 1_455 S
H257 C271 0.960 1_455 S
H258 C271 0.961 . S
H259 C271 0.959 . S
H260 C274 0.929 . S
H261 C275 0.931 . S
H262 C277 0.930 . S
C263 H251 0.930 . S
C263 C264 1.399 . S
C263 C268 1.399 . S
C264 C263 1.399 . S
C264 C265 1.376 . S
C265 H252 0.930 . S
C265 C264 1.376 . S
C265 C266 1.388 . S
C266 H253 0.930 . S
C266 C265 1.388 . S
C266 C267 1.390 . S
C267 C266 1.390 . S
C267 C268 1.394 . S
C267 C273 1.465 1_455 S
C268 C263 1.399 . S
C268 C267 1.394 . S
C268 C269 1.516 1_455 S
C269 C268 1.516 1_655 S
C269 C270 1.502 . S
C269 C271 1.561 . S
C269 C272 1.526 . S
C270 H254 0.959 . S
C270 H255 0.959 . S
C270 H256 0.961 1_655 S
C270 C269 1.502 . S
C271 H257 0.960 1_655 S
C271 H258 0.961 . S
C271 H259 0.959 . S
C271 C269 1.561 . S
C272 C269 1.526 . S
C272 C273 1.396 . S
C272 C277 1.390 . S
C273 C267 1.465 1_655 S
C273 C272 1.396 . S
C273 C274 1.399 . S
C274 H260 0.929 . S
C274 C273 1.399 . S
C274 C275 1.385 . S
C275 H261 0.931 . S
C275 C274 1.385 . S
C275 C276 1.389 . S
C276 C275 1.389 . S
C276 C277 1.387 . S
C277 H262 0.930 . S
C277 C272 1.390 . S
C277 C276 1.387 . S
H278 C290 0.930 . S
H279 C292 0.930 . S
H280 C293 0.930 . S
H281 C297 0.959 . S
H282 C297 0.959 1_556 S
H283 C297 0.950 1_566 S
H284 C298 0.960 1_566 S
H285 C298 0.961 1_556 S
H286 C298 0.959 . S
H287 C301 0.929 . S
H288 C302 0.931 . S
H289 C304 0.930 . S
C290 H278 0.930 . S
C290 C291 1.399 . S
C290 C295 1.399 . S
C291 C290 1.399 . S
C291 C292 1.376 . S
C292 H279 0.930 . S
C292 C291 1.376 . S
C292 C293 1.388 . S
C293 H280 0.930 . S
C293 C292 1.388 . S
C293 C294 1.390 . S
C294 C293 1.390 . S
C294 C295 1.394 . S
C294 C300 1.465 1_565 S
C295 C290 1.399 . S
C295 C294 1.394 . S
C295 C296 1.516 1_565 S
C296 C295 1.516 1_545 S
C296 C297 1.502 . S
C296 C298 1.561 . S
C296 C299 1.526 . S
C297 H281 0.959 . S
C297 H282 0.959 1_554 S
C297 H283 0.950 1_544 S
C297 C296 1.502 . S
C298 H284 0.960 1_544 S
C298 H285 0.961 1_554 S
C298 H286 0.959 . S
C298 C296 1.561 . S
C299 C296 1.526 . S
C299 C300 1.396 . S
C299 C304 1.390 . S
C300 C294 1.465 1_545 S
C300 C299 1.396 . S
C300 C301 1.399 . S
C301 H287 0.929 . S
C301 C300 1.399 . S
C301 C302 1.385 . S
C302 H288 0.931 . S
C302 C301 1.385 . S
C302 C303 1.389 . S
C303 C302 1.389 . S
C303 C304 1.387 . S
C304 H289 0.930 . S
C304 C299 1.390 . S
C304 C303 1.387 . S
H305 C317 0.930 . S
H306 C319 0.930 . S
H307 C320 0.930 . S
H308 C324 0.952 1_655 S
H309 C324 0.923 1_655 S
H310 C324 0.999 . S
H311 C325 0.960 . S
H312 C325 0.961 1_655 S
H313 C325 0.959 . S
H314 C328 0.929 . S
H315 C329 0.931 . S
H316 C331 0.930 . S
C317 H305 0.930 . S
C317 C318 1.399 . S
C317 C322 1.399 . S
C318 C317 1.399 . S
C318 C319 1.376 . S
C319 H306 0.930 . S
C319 C318 1.376 . S
C319 C320 1.388 . S
C320 H307 0.930 . S
C320 C319 1.388 . S
C320 C321 1.390 . S
C321 C320 1.390 . S
C321 C322 1.394 . S
C321 C327 1.465 1_455 S
C322 C317 1.399 . S
C322 C321 1.394 . S
C322 C323 1.516 . S
C323 C322 1.516 . S
C323 C324 1.509 . S
C323 C325 1.561 . S
C323 C326 1.526 1_455 S
C324 H308 0.952 1_455 S
C324 H309 0.923 1_455 S
C324 H310 0.999 . S
C324 C323 1.509 . S
C325 H311 0.960 . S
C325 H312 0.961 1_455 S
C325 H313 0.959 . S
C325 C323 1.561 . S
C326 C323 1.526 1_655 S
C326 C327 1.396 . S
C326 C331 1.390 . S
C327 C321 1.465 1_655 S
C327 C326 1.396 . S
C327 C328 1.399 . S
C328 H314 0.929 . S
C328 C327 1.399 . S
C328 C329 1.385 . S
C329 H315 0.931 . S
C329 C328 1.385 . S
C329 C330 1.389 . S
C330 C329 1.389 . S
C330 C331 1.387 . S
C331 H316 0.930 . S
C331 C326 1.390 . S
C331 C330 1.387 . S
H332 C344 0.930 . S
H333 C346 0.930 . S
H334 C347 0.930 . S
H335 C351 0.959 . S
H336 C351 0.959 . S
H337 C351 0.961 . S
H338 C352 0.960 . S
H339 C352 0.961 . S
H340 C352 0.959 . S
H341 C355 0.929 . S
H342 C356 0.931 . S
H343 C358 0.930 . S
C344 H332 0.930 . S
C344 C345 1.399 1_556 S
C344 C349 1.399 . S
C345 C344 1.399 1_554 S
C345 C346 1.376 . S
C346 H333 0.930 . S
C346 C345 1.376 . S
C346 C347 1.388 . S
C347 H334 0.930 . S
C347 C346 1.388 . S
C347 C348 1.390 . S
C348 C347 1.390 . S
C348 C349 1.394 1_554 S
C348 C354 1.465 . S
C349 C344 1.399 . S
C349 C348 1.394 1_556 S
C349 C350 1.516 . S
C350 C349 1.516 . S
C350 C351 1.502 . S
C350 C352 1.561 . S
C350 C353 1.526 . S
C351 H335 0.959 . S
C351 H336 0.959 . S
C351 H337 0.961 . S
C351 C350 1.502 . S
C352 H338 0.960 . S
C352 H339 0.961 . S
C352 H340 0.959 . S
C352 C350 1.561 . S
C353 C350 1.526 . S
C353 C354 1.396 1_556 S
C353 C358 1.390 . S
C354 C348 1.465 . S
C354 C353 1.396 1_554 S
C354 C355 1.399 . S
C355 H341 0.929 . S
C355 C354 1.399 . S
C355 C356 1.385 . S
C356 H342 0.931 . S
C356 C355 1.385 . S
C356 C357 1.388 1_554 S
C357 C356 1.388 1_556 S
C357 C358 1.388 . S
C358 H343 0.930 . S
C358 C353 1.390 . S
C358 C357 1.388 . S
H359 C371 0.930 . S
H360 C373 0.930 . S
H361 C374 0.930 . S
H362 C378 0.959 . S
H363 C378 0.959 1_554 S
H364 C378 0.961 . S
H365 C379 0.960 . S
H366 C379 0.961 . S
H367 C379 0.959 . S
H368 C382 0.929 . S
H369 C383 0.931 . S
H370 C385 0.930 . S
C371 H359 0.930 . S
C371 C372 1.399 . S
C371 C376 1.399 . S
C372 C371 1.399 . S
C372 C373 1.376 . S
C373 H360 0.930 . S
C373 C372 1.376 . S
C373 C374 1.388 . S
C374 H361 0.930 . S
C374 C373 1.388 . S
C374 C375 1.390 . S
C375 C374 1.390 . S
C375 C376 1.394 . S
C375 C381 1.465 . S
C376 C371 1.399 . S
C376 C375 1.394 . S
C376 C377 1.516 1_556 S
C377 C376 1.516 1_554 S
C377 C378 1.502 1_554 S
C377 C379 1.561 . S
C377 C380 1.526 . S
C378 H362 0.959 . S
C378 H363 0.959 1_556 S
C378 H364 0.961 . S
C378 C377 1.502 1_556 S
C379 H365 0.960 . S
C379 H366 0.961 . S
C379 H367 0.959 . S
C379 C377 1.561 . S
C380 C377 1.526 . S
C380 C381 1.396 1_554 S
C380 C385 1.390 . S
C381 C375 1.465 . S
C381 C380 1.396 1_556 S
C381 C382 1.399 . S
C382 H368 0.929 . S
C382 C381 1.399 . S
C382 C383 1.385 . S
C383 H369 0.931 . S
C383 C382 1.385 . S
C383 C384 1.389 1_556 S
C384 C383 1.389 1_554 S
C384 C385 1.387 . S
C385 H370 0.930 . S
C385 C380 1.390 . S
C385 C384 1.387 . S
H386 C398 0.930 . S
H387 C400 0.930 . S
H388 C401 0.930 . S
H389 C405 0.959 . S
H390 C405 0.959 . S
H391 C405 0.961 . S
H392 C406 0.960 . S
H393 C406 0.961 . S
H394 C406 0.959 . S
H395 C409 0.929 . S
H396 C410 0.931 . S
H397 C412 0.930 . S
C398 H386 0.930 . S
C398 C399 1.399 . S
C398 C403 1.399 . S
C399 C398 1.399 . S
C399 C400 1.376 1_556 S
C400 H387 0.930 . S
C400 C399 1.376 1_554 S
C400 C401 1.388 . S
C401 H388 0.930 . S
C401 C400 1.388 . S
C401 C402 1.390 . S
C402 C401 1.390 . S
C402 C403 1.394 1_554 S
C402 C408 1.465 . S
C403 C398 1.399 . S
C403 C402 1.394 1_556 S
C403 C404 1.516 . S
C404 C403 1.516 . S
C404 C405 1.502 . S
C404 C406 1.561 . S
C404 C407 1.526 . S
C405 H389 0.959 . S
C405 H390 0.959 . S
C405 H391 0.961 . S
C405 C404 1.502 . S
C406 H392 0.960 . S
C406 H393 0.961 . S
C406 H394 0.959 . S
C406 C404 1.561 . S
C407 C404 1.526 . S
C407 C408 1.396 1_556 S
C407 C412 1.390 . S
C408 C402 1.465 . S
C408 C407 1.396 1_554 S
C408 C409 1.399 . S
C409 H395 0.929 . S
C409 C408 1.399 . S
C409 C410 1.385 . S
C410 H396 0.931 . S
C410 C409 1.385 . S
C410 C411 1.389 . S
C411 C410 1.389 . S
C411 C412 1.387 1_554 S
C412 H397 0.930 . S
C412 C407 1.390 . S
C412 C411 1.387 1_556 S
H413 C425 0.930 . S
H414 C427 0.930 . S
H415 C428 0.930 . S
H416 C432 0.959 . S
H417 C432 0.959 . S
H418 C432 0.961 . S
H419 C433 0.960 . S
H420 C433 0.961 . S
H421 C433 0.959 1_554 S
H422 C436 0.929 . S
H423 C437 0.931 . S
H424 C439 0.930 . S
C425 H413 0.930 . S
C425 C426 1.399 1_556 S
C425 C430 1.399 . S
C426 C425 1.399 1_554 S
C426 C427 1.376 . S
C427 H414 0.930 . S
C427 C426 1.376 . S
C427 C428 1.388 . S
C428 H415 0.930 . S
C428 C427 1.388 . S
C428 C429 1.390 . S
C429 C428 1.390 . S
C429 C430 1.394 1_554 S
C429 C435 1.465 . S
C430 C425 1.399 . S
C430 C429 1.394 1_556 S
C430 C431 1.516 . S
C431 C430 1.516 . S
C431 C432 1.502 . S
C431 C433 1.561 . S
C431 C434 1.526 . S
C432 H416 0.959 . S
C432 H417 0.959 . S
C432 H418 0.961 . S
C432 C431 1.502 . S
C433 H419 0.960 . S
C433 H420 0.961 . S
C433 H421 0.959 1_556 S
C433 C431 1.561 . S
C434 C431 1.526 . S
C434 C435 1.396 1_556 S
C434 C439 1.390 . S
C435 C429 1.465 . S
C435 C434 1.396 1_554 S
C435 C436 1.399 . S
C436 H422 0.929 . S
C436 C435 1.399 . S
C436 C437 1.385 . S
C437 H423 0.931 . S
C437 C436 1.385 . S
C437 C438 1.389 1_554 S
C438 C437 1.389 1_556 S
C438 C439 1.387 . S
C439 H424 0.930 . S
C439 C434 1.390 . S
C439 C438 1.387 . S
H440 C452 0.930 . S
H441 C454 0.930 . S
H442 C455 0.930 . S
H443 C459 0.959 . S
H444 C459 0.959 . S
H445 C459 0.961 . S
H446 C460 0.960 . S
H447 C460 0.961 . S
H448 C460 0.959 . S
H449 C463 0.929 . S
H450 C464 0.931 . S
H451 C466 0.930 . S
C452 H440 0.930 . S
C452 C453 1.399 . S
C452 C457 1.399 . S
C453 C452 1.399 . S
C453 C454 1.376 . S
C454 H441 0.930 . S
C454 C453 1.376 . S
C454 C455 1.388 . S
C455 H442 0.930 . S
C455 C454 1.388 . S
C455 C456 1.390 . S
C456 C455 1.390 . S
C456 C457 1.394 . S
C456 C462 1.465 . S
C457 C452 1.399 . S
C457 C456 1.394 . S
C457 C458 1.516 . S
C458 C457 1.516 . S
C458 C459 1.502 . S
C458 C460 1.561 . S
C458 C461 1.526 . S
C459 H443 0.959 . S
C459 H444 0.959 . S
C459 H445 0.961 . S
C459 C458 1.502 . S
C460 H446 0.960 . S
C460 H447 0.961 . S
C460 H448 0.959 . S
C460 C458 1.561 . S
C461 C458 1.526 . S
C461 C462 1.396 . S
C461 C466 1.390 . S
C462 C456 1.465 . S
C462 C461 1.396 . S
C462 C463 1.399 . S
C463 H449 0.929 . S
C463 C462 1.399 . S
C463 C464 1.385 . S
C464 H450 0.931 . S
C464 C463 1.385 . S
C464 C465 1.389 . S
C465 C464 1.389 . S
C465 C466 1.387 . S
C466 H451 0.930 . S
C466 C461 1.390 . S
C466 C465 1.387 . S
H467 C479 0.930 . S
H468 C481 0.930 . S
H469 C482 0.930 . S
H470 C486 0.959 . S
H471 C486 0.959 . S
H472 C486 0.961 . S
H473 C487 0.960 . S
H474 C487 0.961 . S
H475 C487 0.959 . S
H476 C490 0.929 . S
H477 C491 0.931 . S
H478 C493 0.930 . S
C479 H467 0.930 . S
C479 C480 1.399 . S
C479 C484 1.399 . S
C480 C479 1.399 . S
C480 C481 1.376 . S
C481 H468 0.930 . S
C481 C480 1.376 . S
C481 C482 1.388 . S
C482 H469 0.930 . S
C482 C481 1.388 . S
C482 C483 1.390 . S
C483 C482 1.390 . S
C483 C484 1.394 . S
C483 C489 1.465 . S
C484 C479 1.399 . S
C484 C483 1.394 . S
C484 C485 1.516 . S
C485 C484 1.516 . S
C485 C486 1.502 . S
C485 C487 1.561 . S
C485 C488 1.526 . S
C486 H470 0.959 . S
C486 H471 0.959 . S
C486 H472 0.961 . S
C486 C485 1.502 . S
C487 H473 0.960 . S
C487 H474 0.961 . S
C487 H475 0.959 . S
C487 C485 1.561 . S
C488 C485 1.526 . S
C488 C489 1.396 . S
C488 C493 1.390 . S
C489 C483 1.465 . S
C489 C488 1.396 . S
C489 C490 1.399 . S
C490 H476 0.929 . S
C490 C489 1.399 . S
C490 C491 1.385 . S
C491 H477 0.931 . S
C491 C490 1.385 . S
C491 C492 1.389 . S
C492 C491 1.389 . S
C492 C493 1.387 . S
C493 H478 0.930 . S
C493 C488 1.390 . S
C493 C492 1.387 . S
H494 C506 0.930 . S
H495 C508 0.930 . S
H496 C509 0.930 . S
H497 C513 0.959 . S
H498 C513 0.959 . S
H499 C513 0.961 . S
H500 C514 0.960 . S
H501 C514 0.961 . S
H502 C514 0.959 . S
H503 C517 0.929 . S
H504 C518 0.931 . S
H505 C520 0.930 . S
C506 H494 0.930 . S
C506 C507 1.399 . S
C506 C511 1.399 . S
C507 C506 1.399 . S
C507 C508 1.376 . S
C508 H495 0.930 . S
C508 C507 1.376 . S
C508 C509 1.388 . S
C509 H496 0.930 . S
C509 C508 1.388 . S
C509 C510 1.390 . S
C510 C509 1.390 . S
C510 C511 1.394 . S
C510 C516 1.465 . S
C511 C506 1.399 . S
C511 C510 1.394 . S
C511 C512 1.516 . S
C512 C511 1.516 . S
C512 C513 1.502 . S
C512 C514 1.561 . S
C512 C515 1.526 . S
C513 H497 0.959 . S
C513 H498 0.959 . S
C513 H499 0.961 . S
C513 C512 1.502 . S
C514 H500 0.960 . S
C514 H501 0.961 . S
C514 H502 0.959 . S
C514 C512 1.561 . S
C515 C512 1.526 . S
C515 C516 1.396 . S
C515 C520 1.390 . S
C516 C510 1.465 . S
C516 C515 1.396 . S
C516 C517 1.399 . S
C517 H503 0.929 . S
C517 C516 1.399 . S
C517 C518 1.385 . S
C518 H504 0.931 . S
C518 C517 1.385 . S
C518 C519 1.389 . S
C519 C518 1.389 . S
C519 C520 1.387 . S
C520 H505 0.930 . S
C520 C515 1.390 . S
C520 C519 1.387 . S
H521 C533 0.930 . S
H522 C535 0.930 . S
H523 C536 0.930 . S
H524 C540 0.959 . S
H525 C540 0.959 . S
H526 C540 0.961 . S
H527 C541 0.960 . S
H528 C541 0.961 . S
H529 C541 0.959 . S
H530 C544 0.929 . S
H531 C545 0.931 . S
H532 C547 0.930 . S
C533 H521 0.930 . S
C533 C534 1.399 . S
C533 C538 1.399 . S
C534 C533 1.399 . S
C534 C535 1.376 . S
C535 H522 0.930 . S
C535 C534 1.376 . S
C535 C536 1.388 . S
C536 H523 0.930 . S
C536 C535 1.388 . S
C536 C537 1.390 . S
C537 C536 1.390 . S
C537 C538 1.394 . S
C537 C543 1.465 . S
C538 C533 1.399 . S
C538 C537 1.394 . S
C538 C539 1.516 . S
C539 C538 1.516 . S
C539 C540 1.502 . S
C539 C541 1.561 . S
C539 C542 1.526 . S
C540 H524 0.959 . S
C540 H525 0.959 . S
C540 H526 0.961 . S
C540 C539 1.502 . S
C541 H527 0.960 . S
C541 H528 0.961 . S
C541 H529 0.959 . S
C541 C539 1.561 . S
C542 C539 1.526 . S
C542 C543 1.396 . S
C542 C547 1.390 . S
C543 C537 1.465 . S
C543 C542 1.396 . S
C543 C544 1.399 . S
C544 H530 0.929 . S
C544 C543 1.399 . S
C544 C545 1.385 . S
C545 H531 0.931 . S
C545 C544 1.385 . S
C545 C546 1.389 . S
C546 C545 1.389 . S
C546 C547 1.387 . S
C547 H532 0.930 . S
C547 C542 1.390 . S
C547 C546 1.387 . S
H548 C560 0.930 . S
H549 C562 0.930 . S
H550 C563 0.930 . S
H551 C567 0.955 1_545 S
H552 C567 0.934 1_545 S
H553 C567 0.994 . S
H554 C568 0.960 1_565 S
H555 C568 0.961 . S
H556 C568 0.959 . S
H557 C571 0.929 . S
H558 C572 0.931 . S
H559 C574 0.930 . S
C560 H548 0.930 . S
C560 C561 1.399 . S
C560 C565 1.399 . S
C561 C560 1.399 . S
C561 C562 1.376 . S
C562 H549 0.930 . S
C562 C561 1.376 . S
C562 C563 1.388 . S
C563 H550 0.930 . S
C563 C562 1.388 . S
C563 C564 1.390 . S
C564 C563 1.390 . S
C564 C565 1.394 . S
C564 C570 1.465 1_565 S
C565 C560 1.399 . S
C565 C564 1.394 . S
C565 C566 1.516 1_565 S
C566 C565 1.516 1_545 S
C566 C567 1.498 1_545 S
C566 C568 1.561 . S
C566 C569 1.526 . S
C567 H551 0.955 1_565 S
C567 H552 0.934 1_565 S
C567 H553 0.994 . S
C567 C566 1.498 1_565 S
C568 H554 0.960 1_545 S
C568 H555 0.961 . S
C568 H556 0.959 . S
C568 C566 1.561 . S
C569 C566 1.526 . S
C569 C570 1.396 . S
C569 C574 1.390 . S
C570 C564 1.465 1_545 S
C570 C569 1.396 . S
C570 C571 1.399 . S
C571 H557 0.929 . S
C571 C570 1.399 . S
C571 C572 1.385 . S
C572 H558 0.931 . S
C572 C571 1.385 . S
C572 C573 1.389 . S
C573 C572 1.389 . S
C573 C574 1.387 . S
C574 H559 0.930 . S
C574 C569 1.390 . S
C574 C573 1.387 . S
H575 C587 0.930 . S
H576 C589 0.930 . S
H577 C590 0.930 . S
H578 C594 0.957 1_455 S
H579 C594 0.944 1_455 S
H580 C594 0.980 . S
H581 C595 0.960 1_655 S
H582 C595 0.961 . S
H583 C595 0.959 . S
H584 C598 0.929 . S
H585 C599 0.931 . S
H586 C601 0.930 . S
C587 H575 0.930 . S
C587 C588 1.399 . S
C587 C592 1.399 . S
C588 C587 1.399 . S
C588 C589 1.376 . S
C589 H576 0.930 . S
C589 C588 1.376 . S
C589 C590 1.388 . S
C590 H577 0.930 . S
C590 C589 1.388 . S
C590 C591 1.390 . S
C591 C590 1.390 . S
C591 C592 1.394 . S
C591 C597 1.465 1_655 S
C592 C587 1.399 . S
C592 C591 1.394 . S
C592 C593 1.516 1_655 S
C593 C592 1.516 1_455 S
C593 C594 1.499 1_455 S
C593 C595 1.561 . S
C593 C596 1.526 . S
C594 H578 0.957 1_655 S
C594 H579 0.944 1_655 S
C594 H580 0.980 . S
C594 C593 1.499 1_655 S
C595 H581 0.960 1_455 S
C595 H582 0.961 . S
C595 H583 0.959 . S
C595 C593 1.561 . S
C596 C593 1.526 . S
C596 C597 1.396 . S
C596 C601 1.390 . S
C597 C591 1.465 1_455 S
C597 C596 1.396 . S
C597 C598 1.399 . S
C598 H584 0.929 . S
C598 C597 1.399 . S
C598 C599 1.385 . S
C599 H585 0.931 . S
C599 C598 1.385 . S
C599 C600 1.389 . S
C600 C599 1.389 . S
C600 C601 1.387 . S
C601 H586 0.930 . S
C601 C596 1.390 . S
C601 C600 1.387 . S
H602 C614 0.930 . S
H603 C616 0.930 . S
H604 C617 0.930 . S
H605 C621 0.963 . S
H606 C621 0.916 1_545 S
H607 C621 1.001 . S
H608 C622 0.960 1_565 S
H609 C622 0.961 . S
H610 C622 0.959 . S
H611 C625 0.929 . S
H612 C626 0.931 . S
H613 C628 0.930 . S
C614 H602 0.930 . S
C614 C615 1.399 . S
C614 C619 1.399 . S
C615 C614 1.399 . S
C615 C616 1.376 . S
C616 H603 0.930 . S
C616 C615 1.376 . S
C616 C617 1.388 . S
C617 H604 0.930 . S
C617 C616 1.388 . S
C617 C618 1.390 . S
C618 C617 1.390 . S
C618 C619 1.394 . S
C618 C624 1.465 1_565 S
C619 C614 1.399 . S
C619 C618 1.394 . S
C619 C620 1.516 . S
C620 C619 1.516 . S
C620 C621 1.505 . S
C620 C622 1.561 1_565 S
C620 C623 1.526 1_565 S
C621 H605 0.963 . S
C621 H606 0.916 1_565 S
C621 H607 1.001 . S
C621 C620 1.505 . S
C622 H608 0.960 1_545 S
C622 H609 0.961 . S
C622 H610 0.959 . S
C622 C620 1.561 1_545 S
C623 C620 1.526 1_545 S
C623 C624 1.396 . S
C623 C628 1.390 . S
C624 C618 1.465 1_545 S
C624 C623 1.396 . S
C624 C625 1.399 . S
C625 H611 0.929 . S
C625 C624 1.399 . S
C625 C626 1.385 . S
C626 H612 0.931 . S
C626 C625 1.385 . S
C626 C627 1.389 . S
C627 C626 1.389 . S
C627 C628 1.387 . S
C628 H613 0.930 . S
C628 C623 1.390 . S
C628 C627 1.387 . S
H629 C641 0.930 . S
H630 C643 0.930 . S
H631 C644 0.930 . S
H632 C648 0.959 . S
H633 C648 0.960 1_455 S
H634 C648 0.960 . S
H635 C649 0.960 1_655 S
H636 C649 0.961 . S
H637 C649 0.959 . S
H638 C652 0.929 . S
H639 C653 0.931 . S
H640 C655 0.930 . S
C641 H629 0.930 . S
C641 C642 1.399 . S
C641 C646 1.399 . S
C642 C641 1.399 . S
C642 C643 1.376 . S
C643 H630 0.930 . S
C643 C642 1.376 . S
C643 C644 1.388 . S
C644 H631 0.930 . S
C644 C643 1.388 . S
C644 C645 1.390 . S
C645 C644 1.390 . S
C645 C646 1.394 . S
C645 C651 1.465 1_655 S
C646 C641 1.399 . S
C646 C645 1.394 . S
C646 C647 1.516 . S
C647 C646 1.516 . S
C647 C648 1.502 . S
C647 C649 1.561 1_655 S
C647 C650 1.526 1_655 S
C648 H632 0.959 . S
C648 H633 0.960 1_655 S
C648 H634 0.960 . S
C648 C647 1.502 . S
C649 H635 0.960 1_455 S
C649 H636 0.961 . S
C649 H637 0.959 . S
C649 C647 1.561 1_455 S
C650 C647 1.526 1_455 S
C650 C651 1.396 . S
C650 C655 1.390 . S
C651 C645 1.465 1_455 S
C651 C650 1.396 . S
C651 C652 1.399 . S
C652 H638 0.929 . S
C652 C651 1.399 . S
C652 C653 1.385 . S
C653 H639 0.931 . S
C653 C652 1.385 . S
C653 C654 1.389 . S
C654 C653 1.389 . S
C654 C655 1.387 . S
C655 H640 0.930 . S
C655 C650 1.390 . S
C655 C654 1.387 . S
H656 C668 0.930 . S
H657 C670 0.930 1_556 S
H658 C671 0.930 1_556 S
H659 C675 0.959 . S
H660 C675 0.959 . S
H661 C675 0.961 . S
H662 C676 0.960 . S
H663 C676 0.961 . S
H664 C676 0.959 . S
H665 C679 0.929 . S
H666 C680 0.931 1_556 S
H667 C682 0.930 . S
C668 H656 0.930 . S
C668 C669 1.399 . S
C668 C673 1.399 . S
C669 C668 1.399 . S
C669 C670 1.376 . S
C670 H657 0.930 1_554 S
C670 C669 1.376 . S
C670 C671 1.388 . S
C671 H658 0.930 1_554 S
C671 C670 1.388 . S
C671 C672 1.390 . S
C672 C671 1.390 . S
C672 C673 1.394 . S
C672 C678 1.465 . S
C673 C668 1.399 . S
C673 C672 1.394 . S
C673 C674 1.516 . S
C674 C673 1.516 . S
C674 C675 1.502 . S
C674 C676 1.561 . S
C674 C677 1.526 . S
C675 H659 0.959 . S
C675 H660 0.959 . S
C675 H661 0.961 . S
C675 C674 1.502 . S
C676 H662 0.960 . S
C676 H663 0.961 . S
C676 H664 0.959 . S
C676 C674 1.561 . S
C677 C674 1.526 . S
C677 C678 1.396 . S
C677 C682 1.390 . S
C678 C672 1.465 . S
C678 C677 1.396 . S
C678 C679 1.399 1_554 S
C679 H665 0.929 . S
C679 C678 1.399 1_556 S
C679 C680 1.385 1_556 S
C680 H666 0.931 1_554 S
C680 C679 1.385 1_554 S
C680 C681 1.389 . S
C681 C680 1.389 . S
C681 C682 1.387 . S
C682 H667 0.930 . S
C682 C677 1.390 . S
C682 C681 1.387 . S
H683 C695 0.930 . S
H684 C697 0.930 . S
H685 C698 0.930 . S
H686 C702 0.959 . S
H687 C702 0.959 . S
H688 C702 0.961 . S
H689 C703 0.960 . S
H690 C703 0.961 . S
H691 C703 0.959 . S
H692 C706 0.929 . S
H693 C707 0.931 . S
H694 C709 0.930 . S
C695 H683 0.930 . S
C695 C696 1.399 . S
C695 C700 1.399 . S
C696 C695 1.399 . S
C696 C697 1.376 . S
C697 H684 0.930 . S
C697 C696 1.376 . S
C697 C698 1.388 . S
C698 H685 0.930 . S
C698 C697 1.388 . S
C698 C699 1.390 . S
C699 C698 1.390 . S
C699 C700 1.394 . S
C699 C705 1.465 . S
C700 C695 1.399 . S
C700 C699 1.394 . S
C700 C701 1.516 . S
C701 C700 1.516 . S
C701 C702 1.502 1_556 S
C701 C703 1.561 . S
C701 C704 1.526 . S
C702 H686 0.959 . S
C702 H687 0.959 . S
C702 H688 0.961 . S
C702 C701 1.502 1_554 S
C703 H689 0.960 . S
C703 H690 0.961 . S
C703 H691 0.959 . S
C703 C701 1.561 . S
C704 C701 1.526 . S
C704 C705 1.396 . S
C704 C709 1.390 . S
C705 C699 1.465 . S
C705 C704 1.396 . S
C705 C706 1.399 . S
C706 H692 0.929 . S
C706 C705 1.399 . S
C706 C707 1.385 . S
C707 H693 0.931 . S
C707 C706 1.385 . S
C707 C708 1.389 . S
C708 C707 1.389 . S
C708 C709 1.387 . S
C709 H694 0.930 . S
C709 C704 1.390 . S
C709 C708 1.387 . S
H710 C722 0.930 . S
H711 C724 0.930 . S
H712 C725 0.930 . S
H713 C729 0.959 . S
H714 C729 0.959 . S
H715 C729 0.961 . S
H716 C730 0.960 . S
H717 C730 0.961 . S
H718 C730 0.959 . S
H719 C733 0.929 . S
H720 C734 0.931 . S
H721 C736 0.930 . S
C722 H710 0.930 . S
C722 C723 1.399 . S
C722 C727 1.399 . S
C723 C722 1.399 . S
C723 C724 1.376 . S
C724 H711 0.930 . S
C724 C723 1.376 . S
C724 C725 1.388 . S
C725 H712 0.930 . S
C725 C724 1.388 . S
C725 C726 1.390 . S
C726 C725 1.390 . S
C726 C727 1.394 . S
C726 C732 1.465 . S
C727 C722 1.399 . S
C727 C726 1.394 . S
C727 C728 1.516 . S
C728 C727 1.516 . S
C728 C729 1.502 . S
C728 C730 1.561 . S
C728 C731 1.526 . S
C729 H713 0.959 . S
C729 H714 0.959 . S
C729 H715 0.961 . S
C729 C728 1.502 . S
C730 H716 0.960 . S
C730 H717 0.961 . S
C730 H718 0.959 . S
C730 C728 1.561 . S
C731 C728 1.526 . S
C731 C732 1.396 . S
C731 C736 1.390 . S
C732 C726 1.465 . S
C732 C731 1.396 . S
C732 C733 1.399 . S
C733 H719 0.929 . S
C733 C732 1.399 . S
C733 C734 1.385 . S
C734 H720 0.931 . S
C734 C733 1.385 . S
C734 C735 1.389 . S
C735 C734 1.389 . S
C735 C736 1.387 . S
C736 H721 0.930 . S
C736 C731 1.390 . S
C736 C735 1.387 . S
H737 C749 0.930 1_554 S
H738 C751 0.930 . S
H739 C752 0.930 . S
H740 C756 0.959 . S
H741 C756 0.959 . S
H742 C756 0.961 . S
H743 C757 0.960 . S
H744 C757 0.961 . S
H745 C757 0.959 . S
H746 C760 0.929 . S
H747 C761 0.931 . S
H748 C763 0.930 1_554 S
C749 H737 0.930 1_556 S
C749 C750 1.399 . S
C749 C754 1.399 . S
C750 C749 1.399 . S
C750 C751 1.376 . S
C751 H738 0.930 . S
C751 C750 1.376 . S
C751 C752 1.388 . S
C752 H739 0.930 . S
C752 C751 1.388 . S
C752 C753 1.390 . S
C753 C752 1.390 . S
C753 C754 1.394 . S
C753 C759 1.465 . S
C754 C749 1.399 . S
C754 C753 1.394 . S
C754 C755 1.516 1_556 S
C755 C754 1.516 1_554 S
C755 C756 1.502 . S
C755 C757 1.561 . S
C755 C758 1.526 1_554 S
C756 H740 0.959 . S
C756 H741 0.959 . S
C756 H742 0.961 . S
C756 C755 1.502 . S
C757 H743 0.960 . S
C757 H744 0.961 . S
C757 H745 0.959 . S
C757 C755 1.561 . S
C758 C755 1.526 1_556 S
C758 C759 1.396 . S
C758 C763 1.390 . S
C759 C753 1.465 . S
C759 C758 1.396 . S
C759 C760 1.399 . S
C760 H746 0.929 . S
C760 C759 1.399 . S
C760 C761 1.385 . S
C761 H747 0.931 . S
C761 C760 1.385 . S
C761 C762 1.389 . S
C762 C761 1.389 . S
C762 C763 1.387 . S
C763 H748 0.930 1_556 S
C763 C758 1.390 . S
C763 C762 1.387 . S
H764 C776 0.930 . S
H765 C778 0.930 . S
H766 C779 0.930 . S
H767 C783 0.959 . S
H768 C783 0.959 . S
H769 C783 0.961 . S
H770 C784 0.960 . S
H771 C784 0.961 . S
H772 C784 0.959 . S
H773 C787 0.929 . S
H774 C788 0.931 . S
H775 C790 0.930 . S
C776 H764 0.930 . S
C776 C777 1.399 . S
C776 C781 1.399 . S
C777 C776 1.399 . S
C777 C778 1.376 . S
C778 H765 0.930 . S
C778 C777 1.376 . S
C778 C779 1.388 . S
C779 H766 0.930 . S
C779 C778 1.388 . S
C779 C780 1.390 . S
C780 C779 1.390 . S
C780 C781 1.394 . S
C780 C786 1.465 . S
C781 C776 1.399 . S
C781 C780 1.394 . S
C781 C782 1.516 . S
C782 C781 1.516 . S
C782 C783 1.502 . S
C782 C784 1.561 . S
C782 C785 1.526 . S
C783 H767 0.959 . S
C783 H768 0.959 . S
C783 H769 0.961 . S
C783 C782 1.502 . S
C784 H770 0.960 . S
C784 H771 0.961 . S
C784 H772 0.959 . S
C784 C782 1.561 . S
C785 C782 1.526 . S
C785 C786 1.396 . S
C785 C790 1.390 . S
C786 C780 1.465 . S
C786 C785 1.396 . S
C786 C787 1.399 . S
C787 H773 0.929 . S
C787 C786 1.399 . S
C787 C788 1.385 . S
C788 H774 0.931 . S
C788 C787 1.385 . S
C788 C789 1.389 . S
C789 C788 1.389 . S
C789 C790 1.387 . S
C790 H775 0.930 . S
C790 C785 1.390 . S
C790 C789 1.387 . S
H791 C803 0.930 . S
H792 C805 0.930 . S
H793 C806 0.930 . S
H794 C810 0.959 . S
H795 C810 0.959 . S
H796 C810 0.961 . S
H797 C811 0.960 . S
H798 C811 0.961 . S
H799 C811 0.959 . S
H800 C814 0.929 . S
H801 C815 0.931 . S
H802 C817 0.930 . S
C803 H791 0.930 . S
C803 C804 1.399 . S
C803 C808 1.399 . S
C804 C803 1.399 . S
C804 C805 1.376 . S
C805 H792 0.930 . S
C805 C804 1.376 . S
C805 C806 1.388 . S
C806 H793 0.930 . S
C806 C805 1.388 . S
C806 C807 1.390 . S
C807 C806 1.390 . S
C807 C808 1.394 . S
C807 C813 1.465 . S
C808 C803 1.399 . S
C808 C807 1.394 . S
C808 C809 1.516 . S
C809 C808 1.516 . S
C809 C810 1.502 . S
C809 C811 1.561 . S
C809 C812 1.526 . S
C810 H794 0.959 . S
C810 H795 0.959 . S
C810 H796 0.961 . S
C810 C809 1.502 . S
C811 H797 0.960 . S
C811 H798 0.961 . S
C811 H799 0.959 . S
C811 C809 1.561 . S
C812 C809 1.526 . S
C812 C813 1.396 . S
C812 C817 1.390 . S
C813 C807 1.465 . S
C813 C812 1.396 . S
C813 C814 1.399 . S
C814 H800 0.929 . S
C814 C813 1.399 . S
C814 C815 1.385 . S
C815 H801 0.931 . S
C815 C814 1.385 . S
C815 C816 1.389 . S
C816 C815 1.389 . S
C816 C817 1.387 . S
C817 H802 0.930 . S
C817 C812 1.390 . S
C817 C816 1.387 . S
H818 C830 0.930 . S
H819 C832 0.930 . S
H820 C833 0.930 . S
H821 C837 0.959 . S
H822 C837 0.959 . S
H823 C837 0.961 . S
H824 C838 0.960 . S
H825 C838 0.961 . S
H826 C838 0.959 . S
H827 C841 0.929 . S
H828 C842 0.931 . S
H829 C844 0.930 . S
C830 H818 0.930 . S
C830 C831 1.399 . S
C830 C835 1.399 . S
C831 C830 1.399 . S
C831 C832 1.376 . S
C832 H819 0.930 . S
C832 C831 1.376 . S
C832 C833 1.388 . S
C833 H820 0.930 . S
C833 C832 1.388 . S
C833 C834 1.390 . S
C834 C833 1.390 . S
C834 C835 1.394 . S
C834 C840 1.465 . S
C835 C830 1.399 . S
C835 C834 1.394 . S
C835 C836 1.516 . S
C836 C835 1.516 . S
C836 C837 1.502 . S
C836 C838 1.561 . S
C836 C839 1.526 . S
C837 H821 0.959 . S
C837 H822 0.959 . S
C837 H823 0.961 . S
C837 C836 1.502 . S
C838 H824 0.960 . S
C838 H825 0.961 . S
C838 H826 0.959 . S
C838 C836 1.561 . S
C839 C836 1.526 . S
C839 C840 1.396 . S
C839 C844 1.390 . S
C840 C834 1.465 . S
C840 C839 1.396 . S
C840 C841 1.399 . S
C841 H827 0.929 . S
C841 C840 1.399 . S
C841 C842 1.385 . S
C842 H828 0.931 . S
C842 C841 1.385 . S
C842 C843 1.389 . S
C843 C842 1.389 . S
C843 C844 1.387 . S
C844 H829 0.930 . S
C844 C839 1.390 . S
C844 C843 1.387 . S
H845 C857 0.930 . S
H846 C859 0.930 . S
H847 C860 0.930 . S
H848 C864 0.959 . S
H849 C864 0.959 . S
H850 C864 0.961 . S
H851 C865 0.960 . S
H852 C865 0.961 . S
H853 C865 0.959 . S
H854 C868 0.929 . S
H855 C869 0.931 . S
H856 C871 0.930 . S
C857 H845 0.930 . S
C857 C858 1.399 . S
C857 C862 1.399 . S
C858 C857 1.399 . S
C858 C859 1.376 . S
C859 H846 0.930 . S
C859 C858 1.376 . S
C859 C860 1.388 . S
C860 H847 0.930 . S
C860 C859 1.388 . S
C860 C861 1.390 . S
C861 C860 1.390 . S
C861 C862 1.394 . S
C861 C867 1.465 . S
C862 C857 1.399 . S
C862 C861 1.394 . S
C862 C863 1.516 . S
C863 C862 1.516 . S
C863 C864 1.502 . S
C863 C865 1.561 . S
C863 C866 1.526 . S
C864 H848 0.959 . S
C864 H849 0.959 . S
C864 H850 0.961 . S
C864 C863 1.502 . S
C865 H851 0.960 . S
C865 H852 0.961 . S
C865 H853 0.959 . S
C865 C863 1.561 . S
C866 C863 1.526 . S
C866 C867 1.396 . S
C866 C871 1.390 . S
C867 C861 1.465 . S
C867 C866 1.396 . S
C867 C868 1.399 . S
C868 H854 0.929 . S
C868 C867 1.399 . S
C868 C869 1.385 . S
C869 H855 0.931 . S
C869 C868 1.385 . S
C869 C870 1.389 . S
C870 C869 1.389 . S
C870 C871 1.387 . S
C871 H856 0.930 . S
C871 C866 1.390 . S
C871 C870 1.387 . S
H872 C884 0.930 . S
H873 C886 0.930 . S
H874 C887 0.930 . S
H875 C891 0.959 . S
H876 C891 0.959 . S
H877 C891 0.961 . S
H878 C892 0.960 . S
H879 C892 0.961 . S
H880 C892 0.959 . S
H881 C895 0.929 . S
H882 C896 0.931 . S
H883 C898 0.930 . S
C884 H872 0.930 . S
C884 C885 1.399 . S
C884 C889 1.399 . S
C885 C884 1.399 . S
C885 C886 1.376 . S
C886 H873 0.930 . S
C886 C885 1.376 . S
C886 C887 1.388 . S
C887 H874 0.930 . S
C887 C886 1.388 . S
C887 C888 1.390 . S
C888 C887 1.390 . S
C888 C889 1.394 . S
C888 C894 1.465 . S
C889 C884 1.399 . S
C889 C888 1.394 . S
C889 C890 1.516 . S
C890 C889 1.516 . S
C890 C891 1.502 . S
C890 C892 1.561 . S
C890 C893 1.526 . S
C891 H875 0.959 . S
C891 H876 0.959 . S
C891 H877 0.961 . S
C891 C890 1.502 . S
C892 H878 0.960 . S
C892 H879 0.961 . S
C892 H880 0.959 . S
C892 C890 1.561 . S
C893 C890 1.526 . S
C893 C894 1.396 . S
C893 C898 1.390 . S
C894 C888 1.465 . S
C894 C893 1.396 . S
C894 C895 1.399 1_556 S
C895 H881 0.929 . S
C895 C894 1.399 1_554 S
C895 C896 1.385 . S
C896 H882 0.931 . S
C896 C895 1.385 . S
C896 C897 1.389 . S
C897 C896 1.389 . S
C897 C898 1.387 1_554 S
C898 H883 0.930 . S
C898 C893 1.390 . S
C898 C897 1.387 1_556 S
H899 C911 0.930 . S
H900 C913 0.930 . S
H901 C914 0.930 . S
H902 C918 0.959 1_556 S
H903 C918 0.959 1_556 S
H904 C918 0.961 . S
H905 C919 0.960 . S
H906 C919 0.961 . S
H907 C919 0.959 . S
H908 C922 0.929 . S
H909 C923 0.931 . S
H910 C925 0.930 . S
C911 H899 0.930 . S
C911 C912 1.399 . S
C911 C916 1.399 . S
C912 C911 1.399 . S
C912 C913 1.376 . S
C913 H900 0.930 . S
C913 C912 1.376 . S
C913 C914 1.388 . S
C914 H901 0.930 . S
C914 C913 1.388 . S
C914 C915 1.390 . S
C915 C914 1.390 . S
C915 C916 1.394 . S
C915 C921 1.465 . S
C916 C911 1.399 . S
C916 C915 1.394 . S
C916 C917 1.516 . S
C917 C916 1.516 . S
C917 C918 1.502 . S
C917 C919 1.561 . S
C917 C920 1.526 . S
C918 H902 0.959 1_554 S
C918 H903 0.959 1_554 S
C918 H904 0.961 . S
C918 C917 1.502 . S
C919 H905 0.960 . S
C919 H906 0.961 . S
C919 H907 0.959 . S
C919 C917 1.561 . S
C920 C917 1.526 . S
C920 C921 1.396 . S
C920 C925 1.390 1_554 S
C921 C915 1.465 . S
C921 C920 1.396 . S
C921 C922 1.399 . S
C922 H908 0.929 . S
C922 C921 1.399 . S
C922 C923 1.385 . S
C923 H909 0.931 . S
C923 C922 1.385 . S
C923 C924 1.389 1_554 S
C924 C923 1.389 1_556 S
C924 C925 1.387 . S
C925 H910 0.930 . S
C925 C920 1.390 1_556 S
C925 C924 1.387 . S
H926 C938 0.930 . S
H927 C940 0.930 . S
H928 C941 0.930 . S
H929 C945 0.959 1_554 S
H930 C945 0.959 . S
H931 C945 0.961 1_554 S
H932 C946 0.960 . S
H933 C946 0.961 . S
H934 C946 0.959 . S
H935 C949 0.929 . S
H936 C950 0.931 . S
H937 C952 0.930 . S
C938 H926 0.930 . S
C938 C939 1.399 . S
C938 C943 1.399 1_554 S
C939 C938 1.399 . S
C939 C940 1.376 1_554 S
C940 H927 0.930 . S
C940 C939 1.376 1_556 S
C940 C941 1.388 . S
C941 H928 0.930 . S
C941 C940 1.388 . S
C941 C942 1.390 . S
C942 C941 1.390 . S
C942 C943 1.394 . S
C942 C948 1.465 . S
C943 C938 1.399 1_556 S
C943 C942 1.394 . S
C943 C944 1.516 . S
C944 C943 1.516 . S
C944 C945 1.502 . S
C944 C946 1.561 . S
C944 C947 1.526 . S
C945 H929 0.959 1_556 S
C945 H930 0.959 . S
C945 H931 0.961 1_556 S
C945 C944 1.502 . S
C946 H932 0.960 . S
C946 H933 0.961 . S
C946 H934 0.959 . S
C946 C944 1.561 . S
C947 C944 1.526 . S
C947 C948 1.396 . S
C947 C952 1.390 . S
C948 C942 1.465 . S
C948 C947 1.396 . S
C948 C949 1.399 . S
C949 H935 0.929 . S
C949 C948 1.399 . S
C949 C950 1.385 . S
C950 H936 0.931 . S
C950 C949 1.385 . S
C950 C951 1.389 . S
C951 C950 1.389 . S
C951 C952 1.387 . S
C952 H937 0.930 . S
C952 C947 1.390 . S
C952 C951 1.387 . S
H953 C965 0.930 . S
H954 C967 0.930 . S
H955 C968 0.930 . S
H956 C972 0.959 . S
H957 C972 0.959 . S
H958 C972 0.961 . S
H959 C973 0.960 . S
H960 C973 0.961 . S
H961 C973 0.959 . S
H962 C976 0.929 . S
H963 C977 0.931 . S
H964 C979 0.930 . S
C965 H953 0.930 . S
C965 C966 1.399 . S
C965 C970 1.399 . S
C966 C965 1.399 . S
C966 C967 1.376 . S
C967 H954 0.930 . S
C967 C966 1.376 . S
C967 C968 1.388 . S
C968 H955 0.930 . S
C968 C967 1.388 . S
C968 C969 1.390 . S
C969 C968 1.390 . S
C969 C970 1.394 . S
C969 C975 1.465 . S
C970 C965 1.399 . S
C970 C969 1.394 . S
C970 C971 1.516 . S
C971 C970 1.516 . S
C971 C972 1.502 1_554 S
C971 C973 1.561 1_554 S
C971 C974 1.526 . S
C972 H956 0.959 . S
C972 H957 0.959 . S
C972 H958 0.961 . S
C972 C971 1.502 1_556 S
C973 H959 0.960 . S
C973 H960 0.961 . S
C973 H961 0.959 . S
C973 C971 1.561 1_556 S
C974 C971 1.526 . S
C974 C975 1.396 . S
C974 C979 1.390 1_554 S
C975 C969 1.465 . S
C975 C974 1.396 . S
C975 C976 1.399 . S
C976 H962 0.929 . S
C976 C975 1.399 . S
C976 C977 1.385 . S
C977 H963 0.931 . S
C977 C976 1.385 . S
C977 C978 1.389 1_554 S
C978 C977 1.389 1_556 S
C978 C979 1.387 . S
C979 H964 0.930 . S
C979 C974 1.390 1_556 S
C979 C978 1.387 . S
H980 C992 0.930 . S
H981 C994 0.930 . S
H982 C995 0.930 . S
H983 C999 0.959 . S
H984 C999 0.959 . S
H985 C999 0.961 . S
H986 C1000 0.960 . S
H987 C1000 0.961 . S
H988 C1000 0.959 . S
H989 C1003 0.929 . S
H990 C1004 0.931 . S
H991 C1006 0.930 . S
C992 H980 0.930 . S
C992 C993 1.399 . S
C992 C997 1.399 . S
C993 C992 1.399 . S
C993 C994 1.376 . S
C994 H981 0.930 . S
C994 C993 1.376 . S
C994 C995 1.388 . S
C995 H982 0.930 . S
C995 C994 1.388 . S
C995 C996 1.390 . S
C996 C995 1.390 . S
C996 C997 1.394 . S
C996 C1002 1.465 . S
C997 C992 1.399 . S
C997 C996 1.394 . S
C997 C998 1.516 . S
C998 C997 1.516 . S
C998 C999 1.502 . S
C998 C1000 1.561 . S
C998 C1001 1.526 . S
C999 H983 0.959 . S
C999 H984 0.959 . S
C999 H985 0.961 . S
C999 C998 1.502 . S
C1000 H986 0.960 . S
C1000 H987 0.961 . S
C1000 H988 0.959 . S
C1000 C998 1.561 . S
C1001 C998 1.526 . S
C1001 C1002 1.396 . S
C1001 C1006 1.390 . S
C1002 C996 1.465 . S
C1002 C1001 1.396 . S
C1002 C1003 1.399 . S
C1003 H989 0.929 . S
C1003 C1002 1.399 . S
C1003 C1004 1.385 . S
C1004 H990 0.931 . S
C1004 C1003 1.385 . S
C1004 C1005 1.389 . S
C1005 C1004 1.389 . S
C1005 C1006 1.387 . S
C1006 H991 0.930 . S
C1006 C1001 1.390 . S
C1006 C1005 1.387 . S
H1007 C1019 0.930 . S
H1008 C1021 0.930 . S
H1009 C1022 0.930 . S
H1010 C1026 0.959 . S
H1011 C1026 0.959 . S
H1012 C1026 0.961 . S
H1013 C1027 0.960 . S
H1014 C1027 0.961 . S
H1015 C1027 0.959 . S
H1016 C1030 0.929 . S
H1017 C1031 0.931 . S
H1018 C1033 0.930 . S
C1019 H1007 0.930 . S
C1019 C1020 1.399 . S
C1019 C1024 1.399 . S
C1020 C1019 1.399 . S
C1020 C1021 1.376 . S
C1021 H1008 0.930 . S
C1021 C1020 1.376 . S
C1021 C1022 1.388 . S
C1022 H1009 0.930 . S
C1022 C1021 1.388 . S
C1022 C1023 1.390 . S
C1023 C1022 1.390 . S
C1023 C1024 1.394 . S
C1023 C1029 1.465 . S
C1024 C1019 1.399 . S
C1024 C1023 1.394 . S
C1024 C1025 1.516 . S
C1025 C1024 1.516 . S
C1025 C1026 1.502 . S
C1025 C1027 1.561 . S
C1025 C1028 1.526 . S
C1026 H1010 0.959 . S
C1026 H1011 0.959 . S
C1026 H1012 0.961 . S
C1026 C1025 1.502 . S
C1027 H1013 0.960 . S
C1027 H1014 0.961 . S
C1027 H1015 0.959 . S
C1027 C1025 1.561 . S
C1028 C1025 1.526 . S
C1028 C1029 1.396 . S
C1028 C1033 1.390 . S
C1029 C1023 1.465 . S
C1029 C1028 1.396 . S
C1029 C1030 1.399 . S
C1030 H1016 0.929 . S
C1030 C1029 1.399 . S
C1030 C1031 1.385 . S
C1031 H1017 0.931 . S
C1031 C1030 1.385 . S
C1031 C1032 1.389 . S
C1032 C1031 1.389 . S
C1032 C1033 1.387 . S
C1033 H1018 0.930 . S
C1033 C1028 1.390 . S
C1033 C1032 1.387 . S
H1034 C1046 0.930 . S
H1035 C1048 0.930 . S
H1036 C1049 0.930 . S
H1037 C1053 0.959 . S
H1038 C1053 0.959 . S
H1039 C1053 0.961 . S
H1040 C1054 0.960 . S
H1041 C1054 0.961 . S
H1042 C1054 0.959 . S
H1043 C1057 0.929 . S
H1044 C1058 0.931 . S
H1045 C1060 0.930 . S
C1046 H1034 0.930 . S
C1046 C1047 1.399 . S
C1046 C1051 1.399 . S
C1047 C1046 1.399 . S
C1047 C1048 1.376 . S
C1048 H1035 0.930 . S
C1048 C1047 1.376 . S
C1048 C1049 1.388 . S
C1049 H1036 0.930 . S
C1049 C1048 1.388 . S
C1049 C1050 1.390 . S
C1050 C1049 1.390 . S
C1050 C1051 1.394 . S
C1050 C1056 1.465 . S
C1051 C1046 1.399 . S
C1051 C1050 1.394 . S
C1051 C1052 1.516 . S
C1052 C1051 1.516 . S
C1052 C1053 1.502 . S
C1052 C1054 1.561 . S
C1052 C1055 1.526 . S
C1053 H1037 0.959 . S
C1053 H1038 0.959 . S
C1053 H1039 0.961 . S
C1053 C1052 1.502 . S
C1054 H1040 0.960 . S
C1054 H1041 0.961 . S
C1054 H1042 0.959 . S
C1054 C1052 1.561 . S
C1055 C1052 1.526 . S
C1055 C1056 1.396 . S
C1055 C1060 1.390 . S
C1056 C1050 1.465 . S
C1056 C1055 1.396 . S
C1056 C1057 1.399 . S
C1057 H1043 0.929 . S
C1057 C1056 1.399 . S
C1057 C1058 1.385 . S
C1058 H1044 0.931 . S
C1058 C1057 1.385 . S
C1058 C1059 1.389 . S
C1059 C1058 1.389 . S
C1059 C1060 1.387 . S
C1060 H1045 0.930 . S
C1060 C1055 1.390 . S
C1060 C1059 1.387 . S
H1061 C1073 0.930 . S
H1062 C1075 0.930 . S
H1063 C1076 0.930 . S
H1064 C1080 0.959 . S
H1065 C1080 0.959 . S
H1066 C1080 0.961 . S
H1067 C1081 0.960 . S
H1068 C1081 0.961 . S
H1069 C1081 0.959 . S
H1070 C1084 0.929 . S
H1071 C1085 0.931 . S
H1072 C1087 0.930 . S
C1073 H1061 0.930 . S
C1073 C1074 1.399 . S
C1073 C1078 1.399 . S
C1074 C1073 1.399 . S
C1074 C1075 1.376 . S
C1075 H1062 0.930 . S
C1075 C1074 1.376 . S
C1075 C1076 1.388 . S
C1076 H1063 0.930 . S
C1076 C1075 1.388 . S
C1076 C1077 1.390 . S
C1077 C1076 1.390 . S
C1077 C1078 1.394 . S
C1077 C1083 1.465 . S
C1078 C1073 1.399 . S
C1078 C1077 1.394 . S
C1078 C1079 1.516 . S
C1079 C1078 1.516 . S
C1079 C1080 1.502 . S
C1079 C1081 1.561 . S
C1079 C1082 1.526 . S
C1080 H1064 0.959 . S
C1080 H1065 0.959 . S
C1080 H1066 0.961 . S
C1080 C1079 1.502 . S
C1081 H1067 0.960 . S
C1081 H1068 0.961 . S
C1081 H1069 0.959 . S
C1081 C1079 1.561 . S
C1082 C1079 1.526 . S
C1082 C1083 1.396 . S
C1082 C1087 1.390 . S
C1083 C1077 1.465 . S
C1083 C1082 1.396 . S
C1083 C1084 1.399 . S
C1084 H1070 0.929 . S
C1084 C1083 1.399 . S
C1084 C1085 1.385 . S
C1085 H1071 0.931 . S
C1085 C1084 1.385 . S
C1085 C1086 1.389 . S
C1086 C1085 1.389 . S
C1086 C1087 1.387 . S
C1087 H1072 0.930 . S
C1087 C1082 1.390 . S
C1087 C1086 1.387 . S
C237 C154 1.555 . S
C249 C1 1.552 . S
C264 C27 1.541 . S
C276 C124 1.526 . S
C291 C41 1.553 . S
C303 C126 1.529 . S
C318 C140 1.555 . S
C330 C55 1.553 . S
C345 C69 1.543 . S
C357 C70 1.546 . S
C372 C83 1.556 . S
C384 C85 1.552 . S
C399 C98 1.555 . S
C411 C96 1.551 . S
C426 C56 1.521 . S
C438 C111 1.544 . S
C453 C42 1.552 . S
C465 C113 1.546 . S
C480 C139 1.541 . S
C492 C12 1.522 . S
C507 C14 1.556 . S
C519 C153 1.551 . S
C534 C167 1.555 . S
C546 C28 1.545 . S
C561 C180 1.544 . S
C573 C182 1.550 . S
C588 C195 1.543 . S
C600 C197 1.538 . S
C615 C210 1.556 . S
C627 C208 1.550 . S
C642 C169 1.531 . S
C654 C223 1.542 . S
C669 C68 1.409 . S
C681 C0 1.426 . S
C696 C26 1.400 . S
C708 C82 1.426 . S
C723 C40 1.398 . S
C735 C97 1.394 . S
C750 C110 1.426 . S
C762 C54 1.401 . S
C777 C112 1.406 . S
C789 C181 1.391 . S
C804 C194 1.422 . S
C816 C138 1.392 . S
C831 C152 1.410 . S
C843 C209 1.392 . S
C858 C222 1.409 . S
C870 C166 1.393 . S
C885 C196 1.701 . S
C897 C13 1.714 . S
C912 C211 1.704 . S
C924 C15 1.686 . S
C939 C29 1.682 . S
C951 C168 1.699 . S
C966 C183 1.716 . S
C978 C43 1.689 . S
C993 C141 1.691 . S
C1005 C57 1.685 . S
C1020 C155 1.715 . S
C1032 C71 1.689 . S
C1047 C84 1.683 . S
C1059 C125 1.699 . S
C1074 C127 1.686 . S
C1086 C99 1.716 . S
