# Generated by pormake.
# Topology xfc, (7)-cn, num edge types: 1
# Building blocks:
#     Node 0, Type 0, BuildingBlock: NUHQUE_clean_sbu_2, # of connection points: 7
#     Node 1, Type 0, BuildingBlock: NUHQUE_clean_sbu_2, # of connection points: 7
#     Node 2, Type 0, BuildingBlock: NUHQUE_clean_sbu_2, # of connection points: 7
#     Node 3, Type 0, BuildingBlock: NUHQUE_clean_sbu_2, # of connection points: 7
#     Node 4, Type 0, BuildingBlock: NUHQUE_clean_sbu_2, # of connection points: 7
#     Node 5, Type 0, BuildingBlock: NUHQUE_clean_sbu_2, # of connection points: 7
#     Node 6, Type 0, BuildingBlock: NUHQUE_clean_sbu_2, # of connection points: 7
#     Node 7, Type 0, BuildingBlock: NUHQUE_clean_sbu_2, # of connection points: 7
#     Node 8, Type 0, BuildingBlock: NUHQUE_clean_sbu_2, # of connection points: 7
#     Node 9, Type 0, BuildingBlock: NUHQUE_clean_sbu_2, # of connection points: 7
#     Node 10, Type 0, BuildingBlock: NUHQUE_clean_sbu_2, # of connection points: 7
#     Node 11, Type 0, BuildingBlock: NUHQUE_clean_sbu_2, # of connection points: 7
#     Node 12, Type 0, BuildingBlock: NUHQUE_clean_sbu_2, # of connection points: 7
#     Node 13, Type 0, BuildingBlock: NUHQUE_clean_sbu_2, # of connection points: 7
#     Node 14, Type 0, BuildingBlock: NUHQUE_clean_sbu_2, # of connection points: 7
#     Node 15, Type 0, BuildingBlock: NUHQUE_clean_sbu_2, # of connection points: 7
#     Edge 16, Type (0, 0), BuildingBlock: OJICUG_clean_linker_0, # of connection points: 2
#     Edge 17, Type (0, 0), BuildingBlock: OJICUG_clean_linker_0, # of connection points: 2
#     Edge 18, Type (0, 0), BuildingBlock: OJICUG_clean_linker_0, # of connection points: 2
#     Edge 19, Type (0, 0), BuildingBlock: OJICUG_clean_linker_0, # of connection points: 2
#     Edge 20, Type (0, 0), BuildingBlock: OJICUG_clean_linker_0, # of connection points: 2
#     Edge 21, Type (0, 0), BuildingBlock: OJICUG_clean_linker_0, # of connection points: 2
#     Edge 22, Type (0, 0), BuildingBlock: OJICUG_clean_linker_0, # of connection points: 2
#     Edge 23, Type (0, 0), BuildingBlock: OJICUG_clean_linker_0, # of connection points: 2
#     Edge 24, Type (0, 0), BuildingBlock: OJICUG_clean_linker_0, # of connection points: 2
#     Edge 25, Type (0, 0), BuildingBlock: OJICUG_clean_linker_0, # of connection points: 2
#     Edge 26, Type (0, 0), BuildingBlock: OJICUG_clean_linker_0, # of connection points: 2
#     Edge 27, Type (0, 0), BuildingBlock: OJICUG_clean_linker_0, # of connection points: 2
#     Edge 28, Type (0, 0), BuildingBlock: OJICUG_clean_linker_0, # of connection points: 2
#     Edge 29, Type (0, 0), BuildingBlock: OJICUG_clean_linker_0, # of connection points: 2
#     Edge 30, Type (0, 0), BuildingBlock: OJICUG_clean_linker_0, # of connection points: 2
#     Edge 31, Type (0, 0), BuildingBlock: OJICUG_clean_linker_0, # of connection points: 2
#     Edge 32, Type (0, 0), BuildingBlock: OJICUG_clean_linker_0, # of connection points: 2
#     Edge 33, Type (0, 0), BuildingBlock: OJICUG_clean_linker_0, # of connection points: 2
#     Edge 34, Type (0, 0), BuildingBlock: OJICUG_clean_linker_0, # of connection points: 2
#     Edge 35, Type (0, 0), BuildingBlock: OJICUG_clean_linker_0, # of connection points: 2
#     Edge 36, Type (0, 0), BuildingBlock: OJICUG_clean_linker_0, # of connection points: 2
#     Edge 37, Type (0, 0), BuildingBlock: OJICUG_clean_linker_0, # of connection points: 2
#     Edge 38, Type (0, 0), BuildingBlock: OJICUG_clean_linker_0, # of connection points: 2
#     Edge 39, Type (0, 0), BuildingBlock: OJICUG_clean_linker_0, # of connection points: 2
#     Edge 40, Type (0, 0), BuildingBlock: OJICUG_clean_linker_0, # of connection points: 2
#     Edge 41, Type (0, 0), BuildingBlock: OJICUG_clean_linker_0, # of connection points: 2
#     Edge 42, Type (0, 0), BuildingBlock: OJICUG_clean_linker_0, # of connection points: 2
#     Edge 43, Type (0, 0), BuildingBlock: OJICUG_clean_linker_0, # of connection points: 2
#     Edge 44, Type (0, 0), BuildingBlock: OJICUG_clean_linker_0, # of connection points: 2
#     Edge 45, Type (0, 0), BuildingBlock: OJICUG_clean_linker_0, # of connection points: 2
#     Edge 46, Type (0, 0), BuildingBlock: OJICUG_clean_linker_0, # of connection points: 2
#     Edge 47, Type (0, 0), BuildingBlock: OJICUG_clean_linker_0, # of connection points: 2
#     Edge 48, Type (0, 0), BuildingBlock: OJICUG_clean_linker_0, # of connection points: 2
#     Edge 49, Type (0, 0), BuildingBlock: OJICUG_clean_linker_0, # of connection points: 2
#     Edge 50, Type (0, 0), BuildingBlock: OJICUG_clean_linker_0, # of connection points: 2
#     Edge 51, Type (0, 0), BuildingBlock: OJICUG_clean_linker_0, # of connection points: 2
#     Edge 52, Type (0, 0), BuildingBlock: OJICUG_clean_linker_0, # of connection points: 2
#     Edge 53, Type (0, 0), BuildingBlock: OJICUG_clean_linker_0, # of connection points: 2
#     Edge 54, Type (0, 0), BuildingBlock: OJICUG_clean_linker_0, # of connection points: 2
#     Edge 55, Type (0, 0), BuildingBlock: OJICUG_clean_linker_0, # of connection points: 2
#     Edge 56, Type (0, 0), BuildingBlock: OJICUG_clean_linker_0, # of connection points: 2
#     Edge 57, Type (0, 0), BuildingBlock: OJICUG_clean_linker_0, # of connection points: 2
#     Edge 58, Type (0, 0), BuildingBlock: OJICUG_clean_linker_0, # of connection points: 2
#     Edge 59, Type (0, 0), BuildingBlock: OJICUG_clean_linker_0, # of connection points: 2
#     Edge 60, Type (0, 0), BuildingBlock: OJICUG_clean_linker_0, # of connection points: 2
#     Edge 61, Type (0, 0), BuildingBlock: OJICUG_clean_linker_0, # of connection points: 2
#     Edge 62, Type (0, 0), BuildingBlock: OJICUG_clean_linker_0, # of connection points: 2
#     Edge 63, Type (0, 0), BuildingBlock: OJICUG_clean_linker_0, # of connection points: 2
#     Edge 64, Type (0, 0), BuildingBlock: OJICUG_clean_linker_0, # of connection points: 2
#     Edge 65, Type (0, 0), BuildingBlock: OJICUG_clean_linker_0, # of connection points: 2
#     Edge 66, Type (0, 0), BuildingBlock: OJICUG_clean_linker_0, # of connection points: 2
#     Edge 67, Type (0, 0), BuildingBlock: OJICUG_clean_linker_0, # of connection points: 2
#     Edge 68, Type (0, 0), BuildingBlock: OJICUG_clean_linker_0, # of connection points: 2
#     Edge 69, Type (0, 0), BuildingBlock: OJICUG_clean_linker_0, # of connection points: 2
#     Edge 70, Type (0, 0), BuildingBlock: OJICUG_clean_linker_0, # of connection points: 2
#     Edge 71, Type (0, 0), BuildingBlock: OJICUG_clean_linker_0, # of connection points: 2
# Relax obj value: 0.451
# Max RMSD: 0.231
# Mean RMSD: 0.231
data_MOF--net-xfc--node1-NUHQUE_clean_sbu_2--edge1-OJICUG_clean_linker_0
_symmetry_space_group_name_H-M    P1
_symmetry_Int_Tables_number       1
_symmetry_cell_setting            triclinic
loop_
_symmetry_equiv_pos_as_xyz
'x, y, z'
_cell_length_a     29.605237
_cell_length_b     29.689712
_cell_length_c     35.751332
_cell_angle_alpha  89.880669
_cell_angle_beta   90.393842
_cell_angle_gamma 89.491868
loop_
_atom_site_label
_atom_site_type_symbol
_atom_site_fract_x
_atom_site_fract_y
_atom_site_fract_z
_atom_type_partial_charge
O0 O 0.05808 0.96176 0.20715 0.0
Tb1 Tb 0.02872 0.98512 0.15436 0.0
Eu2 Eu 0.99403 0.00919 0.23345 0.0
C3 C 0.0937 0.93543 0.20893 0.0
O4 O 0.11126 0.92435 0.24152 0.0
C5 C 0.04302 0.07567 0.17793 0.0
O6 O 0.9479 0.06578 0.2153 0.0
C7 C 0.00868 0.00322 0.30502 0.0
C8 C 0.91031 0.06027 0.1961 0.0
O9 O 0.89253 0.02012 0.19306 0.0
C10 C 0.94554 0.93664 0.17754 0.0
C11 C 0.0049 0.97274 0.33785 0.0
C12 C 0.04067 0.94316 0.34782 0.0
C13 C 0.03749 0.91524 0.37955 0.0
C14 C -0.0014 0.91764 0.40146 0.0
C15 C 0.96295 0.94722 0.39249 0.0
C16 C 0.9665 0.97494 0.36076 0.0
O17 O 0.01615 0.05592 0.15441 0.0
O18 O 0.04931 0.05518 0.21027 0.0
O19 O 0.0818 0.00522 0.11627 0.0
O20 O 0.04043 0.94981 0.1019 0.0
C21 C 0.07234 0.97622 0.09032 0.0
O22 O 0.96036 0.94401 0.2121 0.0
O23 O 0.96169 0.95994 0.14977 0.0
O24 O 0.97117 0.02033 0.29048 0.0
O25 O 0.0391 0.99264 0.27974 0.0
H26 H 0.07085 0.9416 0.33088 0.0
H27 H 0.99591 0.89563 0.42552 0.0
H28 H 0.9392 -0.00189 0.35384 0.0
O29 O 0.30829 0.86975 0.42475 0.0
Tb30 Tb 0.27776 0.80388 0.41824 0.0
Eu31 Eu 0.23329 0.71981 0.4708 0.0
C32 C 0.28393 0.90655 0.43075 0.0
O33 O 0.24747 0.90473 0.4512 0.0
C34 C 0.18037 0.80266 0.44111 0.0
O35 O 0.19262 0.65672 0.46456 0.0
C36 C 0.25435 0.7484 0.53738 0.0
C37 C 0.19427 0.63788 0.43125 0.0
O38 O 0.22229 0.6545 0.40659 0.0
C39 C 0.32962 0.71185 0.42827 0.0
C40 C 0.29004 0.74734 0.56697 0.0
C41 C 0.31124 0.78789 0.57805 0.0
C42 C 0.34193 0.78814 0.60835 0.0
C43 C 0.35179 0.74782 0.62682 0.0
C44 C 0.33291 0.70701 0.61545 0.0
C45 C 0.30137 0.7069 0.58588 0.0
O46 O 0.21873 0.82088 0.45077 0.0
O47 O 0.17779 0.75887 0.44194 0.0
O48 O 0.27362 0.82949 0.3612 0.0
O49 O 0.24141 0.76774 0.37368 0.0
C50 C 0.24887 0.79755 0.3477 0.0
O51 O 0.29264 0.69223 0.4397 0.0
O52 O 0.33395 0.75615 0.42768 0.0
O53 O 0.23105 0.7114 0.53123 0.0
O54 O 0.26297 0.77125 0.50665 0.0
H55 H 0.30306 0.81922 0.56383 0.0
H56 H 0.37531 0.74818 0.65022 0.0
H57 H 0.2862 0.6754 0.57744 0.0
O58 O 0.41393 0.03985 0.69744 0.0
Tb59 Tb 0.44773 0.02131 0.64636 0.0
Eu60 Eu 0.50155 0.99355 0.72551 0.0
C61 C 0.37752 0.01913 0.70903 0.0
O62 O 0.36134 0.98535 0.68958 0.0
C63 C 0.45792 0.92749 0.66675 0.0
O64 O 0.56117 0.94764 0.71502 0.0
C65 C 0.48042 0.00451 0.79577 0.0
C66 C 0.58254 0.95093 0.68294 0.0
O67 O 0.5697 0.98211 0.65899 0.0
C68 C 0.53455 0.0751 0.6671 0.0
C69 C 0.48323 0.03745 0.82711 0.0
C70 C 0.44423 0.05983 0.84077 0.0
C71 C 0.44767 0.09207 0.86967 0.0
C72 C 0.49028 0.10039 0.88556 0.0
C73 C 0.52897 0.07707 0.87346 0.0
C74 C 0.52498 0.04562 0.84441 0.0
O75 O 0.47717 0.95529 0.6439 0.0
O76 O 0.45425 0.94076 0.70156 0.0
O77 O 0.39638 0.98995 0.61144 0.0
O78 O 0.42279 0.05277 0.59507 0.0
C79 C 0.39599 0.02019 0.58522 0.0
O80 O 0.53414 0.0574 0.70132 0.0
O81 O 0.5065 0.06286 0.64037 0.0
O82 O 0.51797 0.98459 0.78465 0.0
O83 O 0.45348 0.01492 0.76777 0.0
H84 H 0.41146 0.05262 0.82874 0.0
H85 H 0.49329 0.12547 0.9074 0.0
H86 H 0.55467 0.02722 0.83533 0.0
O87 O 0.17451 0.13787 0.96048 0.0
Tb88 Tb 0.19368 0.20282 0.93725 0.0
Eu89 Eu 0.25682 0.27754 0.97775 0.0
C90 C 0.19456 0.0986 0.95389 0.0
O91 O 0.19005 0.06678 0.97912 0.0
C92 C 0.29871 0.19402 0.93536 0.0
O93 O 0.30693 0.33295 0.96911 0.0
C94 C 0.24725 0.24598 0.04524 0.0
C95 C 0.30609 0.35189 0.93578 0.0
O96 O 0.27293 0.3415 0.91285 0.0
C97 C 0.15349 0.29375 0.95819 0.0
C98 C 0.21596 0.24869 0.07783 0.0
C99 C 0.19222 0.21023 0.09005 0.0
C100 C 0.16426 0.2124 0.12189 0.0
C101 C 0.15951 0.2534 0.14076 0.0
C102 C 0.18216 0.29214 0.12903 0.0
C103 C 0.21079 0.28932 0.09781 0.0
O104 O 0.26168 0.1741 0.94614 0.0
O105 O 0.30217 0.23759 0.93947 0.0
O106 O 0.16166 0.20396 0.8815 0.0
O107 O 0.21772 0.24717 0.89388 0.0
C108 C 0.18765 0.23605 0.86879 0.0
O109 O 0.19388 0.31146 0.95618 0.0
O110 O 0.14938 0.25051 0.96566 0.0
O111 O 0.27091 0.28218 0.03726 0.0
O112 O 0.23315 0.22438 1.01519 0.0
H113 H 0.19585 0.17866 0.07516 0.0
H114 H 0.13585 0.25551 0.1637 0.0
H115 H 0.22884 0.31902 0.08895 0.0
O116 O 0.12639 0.06887 0.8334 0.0
Tb117 Tb 0.0741 0.03182 0.8623 0.0
Eu118 Eu 0.99746 0.97248 0.83131 0.0
C119 C 0.1628 0.0485 0.82051 0.0
O120 O 0.1588 0.00822 0.80581 0.0
C121 C 0.08261 0.92913 0.86811 0.0
O122 O 0.93778 0.92732 0.83844 0.0
C123 C 0.03301 0.98265 0.76561 0.0
C124 C 0.91827 0.93043 0.87135 0.0
O125 O 0.93332 0.96071 0.89499 0.0
C126 C 0.97613 0.07329 0.85843 0.0
C127 C 0.03171 0.01222 0.73221 0.0
C128 C 0.07127 0.03421 0.72059 0.0
C129 C 0.07055 0.06336 0.6894 0.0
C130 C 0.02953 0.06961 0.66981 0.0
C131 C 0.98958 0.04879 0.68149 0.0
C132 C 0.99129 0.01938 0.7123 0.0
O133 O 0.10212 0.96413 0.85266 0.0
O134 O 0.03854 0.92835 0.86941 0.0
O135 O 0.10346 0.04701 0.91707 0.0
O136 O 0.04469 0.00557 0.91297 0.0
C137 C 0.07451 0.02264 0.93555 0.0
O138 O 0.96048 0.03267 0.85322 0.0
O139 O 0.01947 0.08169 0.85425 0.0
O140 O 0.99786 0.95671 0.77194 0.0
O141 O 0.05015 0.00033 0.79623 0.0
H142 H 0.10222 0.02947 0.73653 0.0
H143 H 0.0283 0.09215 0.64601 0.0
H144 H 0.96084 0.00263 0.72122 0.0
O145 O 0.18709 0.83736 0.06839 0.0
Tb146 Tb 0.20791 0.79891 0.11764 0.0
Eu147 Eu 0.26751 0.72009 0.08947 0.0
C148 C 0.16377 0.8748 0.07028 0.0
O149 O 0.15511 0.89802 0.03976 0.0
C150 C 0.3111 0.80631 0.12652 0.0
O151 O 0.31383 0.66105 0.09969 0.0
C152 C 0.25938 0.74706 1.02027 0.0
C153 C 0.31078 0.64175 0.13275 0.0
O154 O 0.27933 0.65607 0.1557 0.0
C155 C 0.16529 0.70429 0.11638 0.0
C156 C 0.22954 0.74465 0.98659 0.0
C157 C 0.20958 0.78435 0.97169 0.0
C158 C 0.18137 0.78243 0.93983 0.0
C159 C 0.17418 0.74081 0.9225 0.0
C160 C 0.19411 0.70105 0.93631 0.0
C161 C 0.22177 0.70326 0.96845 0.0
O162 O 0.27544 0.82711 0.11268 0.0
O163 O 0.3129 0.76219 0.12595 0.0
O164 O 0.18793 0.82981 0.17039 0.0
O165 O 0.22533 0.76665 0.16988 0.0
C166 C 0.20645 0.79746 0.19087 0.0
O167 O 0.20627 0.68745 0.11391 0.0
O168 O 0.1574 0.74688 0.10836 0.0
O169 O 0.28186 0.71041 1.03035 0.0
O170 O 0.2445 0.77043 0.04896 0.0
H171 H 0.21518 0.81645 0.98528 0.0
H172 H 0.15162 0.73936 0.89852 0.0
H173 H 0.23722 0.67268 0.97932 0.0
O174 O 0.41886 0.92395 0.32141 0.0
Tb175 Tb 0.45717 0.9478 0.3701 0.0
Eu176 Eu 0.54458 -0.00116 0.32709 0.0
C177 C 0.37602 0.93098 0.31193 0.0
O178 O 0.36276 0.91608 0.27909 0.0
C179 C 0.46779 0.05022 0.36629 0.0
O180 O 0.60431 0.04466 0.33201 0.0
C181 C 0.50575 0.98925 0.26189 0.0
C182 C 0.62736 0.04064 0.36348 0.0
O183 O 0.61849 0.00622 0.38528 0.0
C184 C 0.55837 0.90301 0.37009 0.0
C185 C 0.50427 0.95669 0.23024 0.0
C186 C 0.46308 0.9368 0.21878 0.0
C187 C 0.46246 0.90445 0.18983 0.0
C188 C 0.50304 0.89324 0.172 0.0
C189 C 0.54397 0.91304 0.18253 0.0
C190 C 0.54423 0.94484 0.21153 0.0
O191 O 0.44629 0.01721 0.35016 0.0
O192 O 0.51164 0.04738 0.36693 0.0
O193 O 0.41428 0.92888 0.41767 0.0
O194 O 0.46049 0.98376 0.42222 0.0
C195 C 0.42932 0.96127 0.43918 0.0
O196 O 0.57598 0.93529 0.34962 0.0
O197 O 0.51491 0.90123 0.37834 0.0
O198 O 0.54355 0.01172 0.26715 0.0
O199 O 0.48735 0.97617 0.2934 0.0
H200 H 0.43199 0.94558 0.23291 0.0
H201 H 0.50281 0.86781 0.15028 0.0
H202 H 0.57586 0.96012 0.21973 0.0
O203 O 0.31361 0.17414 0.73228 0.0
Tb204 Tb 0.2947 0.21854 0.68735 0.0
Eu205 Eu 0.27103 0.24847 0.59632 0.0
C206 C 0.28284 0.15269 0.75177 0.0
O207 O 0.23984 0.16076 0.74511 0.0
C208 C 0.22625 0.16727 0.64259 0.0
O209 O 0.21885 0.30412 0.60038 0.0
C210 C 0.29063 0.21652 0.53049 0.0
C211 C 0.2206 0.33053 0.62996 0.0
O212 O 0.2561 0.32787 0.65205 0.0
C213 C 0.35947 0.28146 0.64398 0.0
C214 C 0.32273 0.22095 0.49879 0.0
C215 C 0.34415 0.18249 0.48326 0.0
C216 C 0.37351 0.18692 0.4525 0.0
C217 C 0.38058 0.22964 0.43717 0.0
C218 C 0.35861 0.2679 0.45139 0.0
C219 C 0.33017 0.26336 0.48244 0.0
O220 O 0.26542 0.16135 0.65902 0.0
O221 O 0.21859 0.20423 0.62329 0.0
O222 O 0.28139 0.26752 0.73075 0.0
O223 O 0.22768 0.24898 0.69501 0.0
C224 C 0.23828 0.27217 0.72469 0.0
O225 O 0.32826 0.29136 0.61872 0.0
O226 O 0.35693 0.24529 0.66498 0.0
O227 O 0.26206 0.25019 0.53607 0.0
O228 O 0.30605 0.19843 0.56186 0.0
H229 H 0.33813 0.14943 0.49504 0.0
H230 H 0.40354 0.23296 0.41384 0.0
H231 H 0.31314 0.29288 0.49345 0.0
O232 O 0.69178 0.32704 0.57204 0.0
Tb233 Tb 0.7232 0.28685 0.61661 0.0
Eu234 Eu 0.77785 0.20875 0.58586 0.0
C235 C 0.67091 0.36526 0.57813 0.0
O236 O 0.65315 0.38815 0.55014 0.0
C237 C 0.82532 0.29347 0.62048 0.0
O238 O 0.82732 0.15125 0.59046 0.0
C239 C 0.76233 0.24135 0.51898 0.0
C240 C 0.82692 0.12983 0.62269 0.0
O241 O 0.79557 0.14087 0.64692 0.0
C242 C 0.6781 0.19222 0.61611 0.0
C243 C 0.7293 0.24103 0.48719 0.0
C244 C 0.70588 0.28087 0.47632 0.0
C245 C 0.67514 0.28065 0.44585 0.0
C246 C 0.6688 0.24031 0.42613 0.0
C247 C 0.6923 0.20067 0.43589 0.0
C248 C 0.72253 0.20146 0.46639 0.0
O249 O 0.79007 0.31389 0.60568 0.0
O250 O 0.82556 0.24939 0.62164 0.0
O251 O 0.71406 0.32003 0.6703 0.0
O252 O 0.74427 0.25385 0.66822 0.0
C253 C 0.73249 0.28726 0.68988 0.0
O254 O 0.71856 0.17443 0.61265 0.0
O255 O 0.67123 0.2354 0.60957 0.0
O256 O 0.78634 0.20448 0.52548 0.0
O257 O 0.74995 0.26178 0.54985 0.0
H258 H 0.71123 0.31178 0.49173 0.0
H259 H 0.64493 0.2398 0.40304 0.0
H260 H 0.74116 0.17114 0.47377 0.0
O261 O 0.78205 0.66582 0.1093 0.0
Tb262 Tb 0.77856 0.69915 0.16416 0.0
Eu263 Eu 0.74891 0.74717 0.08146 0.0
C264 C 0.77361 0.62362 0.09983 0.0
O265 O 0.77548 0.61275 0.06426 0.0
C266 C 0.6835 0.70206 0.14156 0.0
O267 O 0.69931 0.80391 0.09078 0.0
C268 C 0.76242 0.72639 1.01146 0.0
C269 C 0.70134 0.82507 0.12301 0.0
O270 O 0.73382 0.81432 0.14653 0.0
C271 C 0.82632 0.78801 0.13981 0.0
C272 C 0.79474 0.73058 0.97996 0.0
C273 C 0.81677 0.69169 0.96589 0.0
C274 C 0.84723 0.69513 0.93599 0.0
C275 C 0.85475 0.7371 0.91971 0.0
C276 C 0.83247 0.77588 0.93241 0.0
C277 C 0.8027 0.77256 0.9628 0.0
O278 O 0.70993 0.7225 0.16516 0.0
O279 O 0.69709 0.69891 0.10662 0.0
O280 O 0.82125 0.67157 0.20951 0.0
O281 O 0.74976 0.67006 0.21429 0.0
C282 C 0.78761 0.66124 0.23127 0.0
O283 O 0.81183 0.78248 0.1049 0.0
O284 O 0.81263 0.76269 0.16758 0.0
O285 O 0.73958 0.7624 1.02211 0.0
O286 O 0.77511 0.70072 0.03962 0.0
H287 H 0.81068 0.65901 0.97837 0.0
H288 H 0.879 0.7395 0.89719 0.0
H289 H 0.78571 0.80258 0.97289 0.0
O290 O 0.83075 0.34752 0.95484 0.0
Tb291 Tb 0.80307 0.29595 0.91791 0.0
Eu292 Eu 0.7509 0.21639 0.96358 0.0
C293 C 0.81795 0.39006 0.95902 0.0
O294 O 0.8347 0.41173 0.98792 0.0
C295 C 0.70054 0.29853 0.92912 0.0
O296 O 0.7011 0.16016 0.96218 0.0
C297 C 0.76944 0.25052 1.02891 0.0
C298 C 0.69989 0.13774 0.93057 0.0
O299 O 0.7317 0.14534 0.90596 0.0
C300 C 0.84737 0.19953 0.92466 0.0
C301 C 0.80339 0.25128 0.05977 0.0
C302 C 0.8204 0.29294 0.07265 0.0
C303 C 0.85111 0.29423 0.10289 0.0
C304 C 0.86361 0.25406 0.12064 0.0
C305 C 0.84766 0.21235 0.10826 0.0
C306 C 0.8174 0.2111 0.07779 0.0
O307 O 0.73766 0.31761 0.94078 0.0
O308 O 0.69937 0.25467 0.92925 0.0
O309 O 0.81691 0.31914 0.86055 0.0
O310 O 0.76828 0.26721 0.87011 0.0
C311 C 0.78773 0.29191 0.84479 0.0
O312 O 0.80863 0.18209 0.93456 0.0
O313 O 0.85452 0.24321 0.92703 0.0
O314 O 0.74616 0.21327 1.02412 0.0
O315 O 0.78006 0.27044 0.99725 0.0
H316 H 0.81 0.32409 0.05911 0.0
H317 H 0.88584 0.25558 0.14484 0.0
H318 H 0.80505 0.17892 0.06805 0.0
O319 O 0.71785 0.64783 0.50306 0.0
Tb320 Tb 0.73824 0.69061 0.45651 0.0
Eu321 Eu 0.78328 0.78091 0.493 0.0
C322 C 0.69061 0.61399 0.49815 0.0
O323 O 0.68229 0.58619 0.52579 0.0
C324 C 0.83834 0.69975 0.46301 0.0
O325 O 0.81725 0.84834 0.49075 0.0
C326 C 0.76263 0.74856 0.55858 0.0
C327 C 0.8124 0.87053 0.45902 0.0
O328 O 0.78618 0.85331 0.43312 0.0
C329 C 0.6869 0.78509 0.44829 0.0
C330 C 0.72804 0.75219 0.58849 0.0
C331 C 0.70755 0.71277 0.60264 0.0
C332 C 0.67411 0.71571 0.63048 0.0
C333 C 0.66256 0.75807 0.64474 0.0
C334 C 0.68264 0.79748 0.63147 0.0
C335 C 0.7151 0.79444 0.60302 0.0
O336 O 0.80482 0.68149 0.48078 0.0
O337 O 0.83673 0.74357 0.45987 0.0
O338 O 0.73639 0.64458 0.40894 0.0
O339 O 0.77289 0.70635 0.40474 0.0
C340 C 0.76221 0.66919 0.3877 0.0
O341 O 0.72218 0.8064 0.46168 0.0
O342 O 0.68332 0.74079 0.45008 0.0
O343 O 0.79032 0.78263 0.55378 0.0
O344 O 0.74945 0.73044 0.52689 0.0
H345 H 0.71684 0.68011 0.59142 0.0
H346 H 0.63666 0.7604 0.66598 0.0
H347 H 0.73024 0.82492 0.5923 0.0
O348 O 0.62077 0.4422 0.73921 0.0
Tb349 Tb 0.57307 0.46839 0.69758 0.0
Eu350 Eu 0.49011 0.51861 0.72981 0.0
C351 C 0.65564 0.41742 0.73004 0.0
O352 O 0.68596 0.406 0.75538 0.0
C353 C 0.57502 0.57027 0.70037 0.0
O354 O 0.43137 0.56669 0.72672 0.0
C355 C 0.51833 0.49684 0.7968 0.0
C356 C 0.39578 0.55815 0.7057 0.0
O357 O 0.38675 0.51646 0.69637 0.0
C358 C 0.48018 0.42114 0.69528 0.0
C359 C 0.5152 0.46053 0.82559 0.0
C360 C 0.55441 0.43686 0.83766 0.0
C361 C 0.55169 0.40316 0.86545 0.0
C362 C 0.50974 0.39407 0.88161 0.0
C363 C 0.47065 0.41799 0.87091 0.0
C364 C 0.47358 0.45085 0.84264 0.0
O365 O 0.59576 0.53483 0.71408 0.0
O366 O 0.5309 0.56996 0.69838 0.0
O367 O 0.60471 0.46296 0.64256 0.0
O368 O 0.53871 0.49287 0.64752 0.0
C369 C 0.57094 0.482 0.6244 0.0
O370 O 0.46136 0.46113 0.69731 0.0
O371 O 0.52284 0.41523 0.705 0.0
O372 O 0.48187 0.52145 0.79013 0.0
O373 O 0.54146 0.48793 0.76636 0.0
H374 H 0.58682 0.44434 0.82527 0.0
H375 H 0.50764 0.36796 0.90276 0.0
H376 H 0.44345 0.4694 0.8344 0.0
O377 O 0.87857 0.57418 0.20249 0.0
Tb378 Tb 0.93738 0.54562 0.1748 0.0
Eu379 Eu 0.01394 0.49058 0.22356 0.0
C380 C 0.84616 0.5477 0.21473 0.0
O381 O 0.85647 0.5142 0.2373 0.0
C382 C 0.93667 0.44292 0.17906 0.0
O383 O 0.07763 0.44864 0.22176 0.0
C384 C 0.97657 0.50787 0.28797 0.0
C385 C 0.09823 0.44975 0.18918 0.0
O386 O 0.08261 0.47786 0.16368 0.0
C387 C 0.03329 0.58819 0.18738 0.0
C388 C 0.98304 0.53754 0.32131 0.0
C389 C 0.94657 0.56272 0.3367 0.0
C390 C 0.95359 0.59044 0.36839 0.0
C391 C 0.99652 0.59178 0.38476 0.0
C392 C 0.03268 0.56662 0.37055 0.0
C393 C 0.02587 0.53995 0.33864 0.0
O394 O 0.9143 0.47854 0.18985 0.0
O395 O 0.98021 0.44184 0.18447 0.0
O396 O 0.91014 0.56126 0.11902 0.0
O397 O 0.96891 0.51943 0.12438 0.0
C398 C 0.94044 0.53783 0.10086 0.0
O399 O 0.0498 0.54952 0.19916 0.0
O400 O 0.98937 0.59613 0.18617 0.0
O401 O 0.00705 0.4758 0.28275 0.0
O402 O 0.9632 0.52712 0.25645 0.0
H403 H 0.91332 0.56118 0.32393 0.0
H404 H 0.00191 0.61366 0.40861 0.0
H405 H 0.05405 0.52094 0.3274 0.0
O406 O 0.58752 0.5705 0.34644 0.0
Tb407 Tb 0.55864 0.53468 0.39365 0.0
Eu408 Eu 0.49122 0.48349 0.34566 0.0
C409 C 0.622 0.59704 0.35055 0.0
O410 O 0.63537 0.62214 0.32253 0.0
C411 C 0.57489 0.43486 0.38544 0.0
O412 O 0.43565 0.43392 0.35392 0.0
C413 C 0.52015 0.49472 0.27771 0.0
C414 C 0.41733 0.43474 0.38731 0.0
O415 O 0.42872 0.46738 0.4102 0.0
C416 C 0.46406 0.58096 0.38075 0.0
C417 C 0.51563 0.52698 0.24575 0.0
C418 C 0.55342 0.5514 0.23282 0.0
C419 C 0.54944 0.5801 0.20135 0.0
C420 C 0.50747 0.58466 0.18352 0.0
C421 C 0.46954 0.56139 0.19606 0.0
C422 C 0.47382 0.53249 0.22707 0.0
O423 O 0.59464 0.47329 0.37938 0.0
O424 O 0.53104 0.43273 0.38065 0.0
O425 O 0.59066 0.54636 0.44758 0.0
O426 O 0.52925 0.50753 0.44429 0.0
C427 C 0.56092 0.5231 0.46648 0.0
O428 O 0.45007 0.54352 0.36498 0.0
O429 O 0.50632 0.5862 0.39087 0.0
O430 O 0.4846 0.47028 0.28612 0.0
O431 O 0.54265 0.50834 0.30745 0.0
H432 H 0.58581 0.54767 0.24685 0.0
H433 H 0.5039 0.60845 0.1606 0.0
H434 H 0.44443 0.51439 0.23659 0.0
O435 O 0.87463 0.43628 0.8558 0.0
Tb436 Tb 0.9388 0.46429 0.87356 0.0
Eu437 Eu 0.03211 0.50427 0.83003 0.0
C438 C 0.8422 0.46147 0.84064 0.0
O439 O 0.85246 0.49791 0.82195 0.0
C440 C 0.95054 0.56149 0.85545 0.0
O441 O 0.09591 0.54387 0.83863 0.0
C442 C 0.00585 0.48265 0.76256 0.0
C443 C 0.11057 0.54474 0.87353 0.0
O444 O 0.09007 0.51926 0.89809 0.0
C445 C 0.03019 0.41046 0.87761 0.0
C446 C 0.00879 0.44666 0.73342 0.0
C447 C 0.96929 0.42507 0.72004 0.0
C448 C 0.97201 0.39177 0.69188 0.0
C449 C 0.0144 0.38112 0.67681 0.0
C450 C 0.05382 0.40279 0.68885 0.0
C451 C 0.05069 0.43535 0.7173 0.0
O452 O 0.93178 0.5257 0.84143 0.0
O453 O 0.99439 0.56076 0.85808 0.0
O454 O 0.90517 0.47373 0.92733 0.0
O455 O 0.97363 0.49364 0.92177 0.0
C456 C 0.93954 0.4916 0.94442 0.0
O457 O 0.05302 0.44559 0.86598 0.0
O458 O 0.98611 0.40676 0.87208 0.0
O459 O 0.04257 0.50605 0.7699 0.0
O460 O 0.98181 0.47423 0.79261 0.0
H461 H 0.93671 0.4338 0.73175 0.0
H462 H 0.01664 0.35533 0.65549 0.0
H463 H 0.08096 0.45241 0.72651 0.0
C464 C 0.09637 0.03894 1.0016 0.0
C465 C 0.07852 0.00951 0.97495 0.0
H466 H 0.11045 0.05036 0.05955 0.0
C467 C 0.06363 0.96679 0.98609 0.0
H468 H 0.10656 0.07252 0.99365 0.0
C469 C 0.06503 0.95428 1.02368 0.0
C470 C 0.08156 0.98425 0.05061 0.0
H471 H 0.05005 0.94336 0.9658 0.0
H472 H 0.05143 0.92199 0.03186 0.0
C473 C 0.09846 0.02619 0.0392 0.0
C474 C 0.23096 0.75593 0.28892 0.0
C475 C 0.23198 0.79644 0.30888 0.0
H476 H 0.22237 0.72479 0.23534 0.0
C477 C 0.21957 0.83676 0.29068 0.0
H478 H 0.24025 0.72446 0.30243 0.0
C479 C 0.20838 0.83696 0.25258 0.0
C480 C 0.21036 0.79687 0.23201 0.0
H481 H 0.21905 0.86825 0.30583 0.0
H482 H 0.20037 0.86867 0.2389 0.0
C483 C 0.22081 0.75623 0.25063 0.0
C484 C 0.38937 0.94799 0.49994 0.0
C485 C 0.40959 0.97717 0.47434 0.0
H486 H 0.36726 0.93976 0.5565 0.0
C487 C 0.41351 0.02306 0.4831 0.0
H488 H 0.38509 0.91269 0.49333 0.0
C489 C 0.40219 0.03881 0.51837 0.0
C490 C 0.38791 0.00861 0.54584 0.0
H491 H 0.42777 0.04651 0.46334 0.0
H492 H 0.40908 0.07366 0.52517 0.0
C493 C 0.3787 0.96368 0.53579 0.0
C494 C 0.17595 0.24451 0.76404 0.0
C495 C 0.20823 0.27791 0.75686 0.0
H496 H 0.14471 0.20375 0.80616 0.0
C497 C 0.22367 0.30462 0.78648 0.0
H498 H 0.16353 0.22336 0.74161 0.0
C499 C 0.2133 0.29313 0.82322 0.0
C500 C 0.18702 0.25506 0.83073 0.0
H501 H 0.24844 0.33062 0.78162 0.0
H502 H 0.22917 0.31166 0.84575 0.0
C503 C 0.16568 0.23279 0.801 0.0
C504 C 0.78418 0.32717 0.78078 0.0
C505 C 0.775 0.29087 0.80474 0.0
H506 H 0.77574 0.35529 0.72564 0.0
C507 C 0.75109 0.25381 0.79064 0.0
H508 H 0.80312 0.35582 0.79069 0.0
C509 C 0.73695 0.25285 0.75326 0.0
C510 C 0.74483 0.28969 0.72973 0.0
H511 H 0.74366 0.22529 0.80844 0.0
H512 H 0.71948 0.22348 0.7428 0.0
C513 C 0.76837 0.32698 0.74371 0.0
C514 C 0.81998 0.67659 0.29421 0.0
C515 C 0.78978 0.65241 0.2717 0.0
H516 H 0.83378 0.70213 0.34916 0.0
C517 C 0.7547 0.62838 0.28868 0.0
H518 H 0.84679 0.696 0.28171 0.0
C519 C 0.74854 0.63031 0.32729 0.0
C520 C 0.77539 0.65861 0.34912 0.0
H521 H 0.73014 0.61042 0.27201 0.0
H522 H 0.72064 0.61251 0.33957 0.0
C523 C 0.81226 0.68042 0.33266 0.0
C524 C 0.52444 0.50796 0.52785 0.0
C525 C 0.56394 0.51307 0.5069 0.0
H526 H 0.49593 0.49493 0.58171 0.0
C527 C 0.60609 0.50666 0.52454 0.0
H528 H 0.49156 0.51238 0.51479 0.0
C529 C 0.60863 0.49534 0.56265 0.0
C530 C 0.56904 0.49134 0.58379 0.0
H531 H 0.63697 0.50946 0.50867 0.0
H532 H 0.64146 0.49044 0.57567 0.0
C533 C 0.52698 0.49792 0.56606 0.0
C534 C 0.97994 0.51196 0.04325 0.0
C535 C 0.94093 0.52969 0.06011 0.0
H536 H 0.01024 0.487 0.99292 0.0
C537 C 0.90203 0.53685 0.03812 0.0
H538 H 0.01047 0.50627 0.05953 0.0
C539 C 0.90144 0.5243 1.00038 0.0
C540 C 0.94029 0.50602 0.98378 0.0
H541 H 0.87177 0.55106 0.05021 0.0
H542 H 0.87078 0.52917 0.98411 0.0
C543 C 0.97984 0.50093 1.00524 0.0
C544 C 0.10727 0.15144 0.11105 0.0
C545 C 0.13723 0.17349 0.13526 0.0
H546 H 0.05333 0.10437 0.1056 0.0
C547 C 0.13663 0.16247 0.17363 0.0
H548 H 0.10646 0.15966 0.08151 0.0
C549 C 0.10615 0.13084 0.1876 0.0
C550 C 0.07513 0.10984 0.16361 0.0
H551 H 0.15927 0.17911 0.193 0.0
H552 H 0.10646 0.12332 0.21726 0.0
C553 C 0.07638 0.12024 0.12508 0.0
C554 C 0.06549 0.84079 0.40486 0.0
C555 C 0.07481 0.88435 0.39133 0.0
H556 H 0.09139 0.78099 0.43153 0.0
C557 C 0.11945 0.8996 0.39251 0.0
H558 H 0.03148 0.82767 0.40371 0.0
C559 C 0.15352 0.87279 0.40843 0.0
C560 C 0.14395 0.8303 0.42367 0.0
H561 H 0.12785 0.93286 0.38234 0.0
H562 H 0.18738 0.88542 0.4086 0.0
C563 C 0.09973 0.81402 0.42081 0.0
C564 C 0.3955 0.852 0.59784 0.0
C565 C 0.36585 0.82906 0.6215 0.0
H566 H 0.44869 0.90029 0.59367 0.0
C567 C 0.36588 0.83963 0.65987 0.0
H568 H 0.39679 0.84396 0.56832 0.0
C569 C 0.396 0.8711 0.67456 0.0
C570 C 0.42686 0.89299 0.65124 0.0
H571 H 0.34359 0.82213 0.67881 0.0
H572 H 0.39533 0.87791 0.7043 0.0
C573 C 0.42577 0.8836 0.61257 0.0
C574 C 0.37488 0.18947 0.90455 0.0
C575 C 0.33628 0.16753 0.91794 0.0
H576 H 0.43959 0.18306 0.87842 0.0
C577 C 0.33363 0.12045 0.91339 0.0
H578 H 0.37816 0.22564 0.90714 0.0
C579 C 0.36868 0.09603 0.89616 0.0
C580 C 0.40768 0.11799 0.8837 0.0
H581 H 0.30479 0.10223 0.92362 0.0
H582 H 0.366 0.05979 0.8938 0.0
C583 C 0.41009 0.16506 0.88786 0.0
C584 C 0.10975 0.82034 0.91953 0.0
C585 C 0.15673 0.82258 0.92483 0.0
H586 H 0.05008 0.85146 0.89739 0.0
C587 C 0.17962 0.86082 0.91192 0.0
H588 H 0.09119 0.79131 0.92923 0.0
C589 C 0.15595 0.89545 0.89301 0.0
C590 C 0.109 0.89256 0.88698 0.0
H591 H 0.2159 0.86321 0.91534 0.0
H592 H 0.17438 0.92428 0.88306 0.0
C593 C 0.08625 0.85479 0.90101 0.0
C594 C 0.38209 0.9031 0.16514 0.0
C595 C 0.42081 0.88003 0.17813 0.0
H596 H 0.31722 0.89814 0.13805 0.0
C597 C 0.4221 0.83277 0.17537 0.0
H598 H 0.38029 0.9395 0.1666 0.0
C599 C 0.38655 0.80921 0.1588 0.0
C600 C 0.3485 0.83215 0.14437 0.0
H601 H 0.45138 0.81398 0.18527 0.0
H602 H 0.38932 0.77289 0.15685 0.0
C603 C 0.3463 0.8794 0.14834 0.0
C604 C 0.37274 0.11768 0.4123 0.0
C605 C 0.39689 0.14799 0.43472 0.0
H606 H 0.37591 0.06485 0.37168 0.0
C607 C 0.44436 0.14606 0.43437 0.0
H608 H 0.33619 0.11941 0.41112 0.0
C609 C 0.46723 0.1146 0.41207 0.0
C610 C 0.44322 0.08458 0.38909 0.0
H611 H 0.4638 0.16976 0.45077 0.0
H612 H 0.50382 0.11407 0.41267 0.0
C613 C 0.39563 0.0866 0.38951 0.0
C614 C 0.10633 0.13353 0.66401 0.0
C615 C 0.1114 0.08944 0.6781 0.0
H616 H 0.13782 0.19165 0.6412 0.0
C617 C 0.1554 0.07102 0.68074 0.0
H618 H 0.07353 0.14989 0.66283 0.0
C619 C 0.19299 0.09589 0.66903 0.0
C620 C 0.18726 0.13937 0.65392 0.0
H621 H 0.16083 0.03722 0.69137 0.0
H622 H 0.22641 0.08099 0.6715 0.0
C623 C 0.14348 0.15779 0.65168 0.0
C624 C 0.87336 0.86038 0.86146 0.0
C625 C 0.88707 0.89557 0.88487 0.0
H626 H 0.84325 0.7953 0.85806 0.0
C627 C 0.87506 0.89452 0.92291 0.0
H628 H 0.88147 0.86059 0.83196 0.0
C629 C 0.85389 0.85689 0.93799 0.0
C630 C 0.84393 0.81982 0.91524 0.0
H631 H 0.88467 0.92142 0.94168 0.0
H632 H 0.84846 0.85556 0.96791 0.0
C633 C 0.85164 0.82297 0.87648 0.0
C634 C 0.86789 0.08734 0.6726 0.0
C635 C 0.8655 0.10155 0.63513 0.0
H636 H 0.90881 0.06089 0.71671 0.0
C637 C 0.9023 0.09285 0.61157 0.0
H638 H 0.8401 0.09333 0.69155 0.0
C639 C 0.94181 0.07292 0.62594 0.0
C640 C 0.94544 0.06196 0.66423 0.0
H641 H 0.90127 0.10304 0.58247 0.0
H642 H 0.97003 0.06758 0.60731 0.0
C643 C 0.90742 0.0682 0.68704 0.0
C644 C 0.66606 0.07803 0.41702 0.0
C645 C 0.65241 0.07919 0.37926 0.0
H646 H 0.68784 0.11526 0.46464 0.0
C647 C 0.6574 0.11932 0.35896 0.0
H648 H 0.66284 0.04763 0.43355 0.0
C649 C 0.67292 0.15824 0.37677 0.0
C650 C 0.68304 0.15798 0.41538 0.0
H651 H 0.64755 0.1212 0.32976 0.0
H652 H 0.67555 0.1889 0.3605 0.0
C653 C 0.68076 0.11697 0.43492 0.0
C654 C 0.6267 0.86382 0.11268 0.0
C655 C 0.66393 0.85411 0.13591 0.0
H656 H 0.55989 0.89165 0.1089 0.0
C657 C 0.66336 0.86873 0.17328 0.0
H658 H 0.62636 0.85335 0.08368 0.0
C659 C 0.62516 0.88971 0.1879 0.0
C660 C 0.58679 0.89719 0.16536 0.0
H661 H 0.69159 0.86193 0.19195 0.0
H662 H 0.62497 0.89776 0.21742 0.0
C663 C 0.58855 0.88544 0.12724 0.0
C664 C 0.83373 0.13586 0.13704 0.0
C665 C 0.86348 0.17087 0.12791 0.0
H666 H 0.82513 0.07305 0.16615 0.0
C667 C 0.90858 0.16789 0.14028 0.0
H668 H 0.79874 0.13724 0.12805 0.0
C669 C 0.92302 0.13246 0.16294 0.0
C670 C 0.89321 0.09809 0.173 0.0
H671 H 0.93283 0.19347 0.13287 0.0
H672 H 0.95791 0.1319 0.17225 0.0
C673 C 0.84863 0.09948 0.15919 0.0
C674 C 0.61209 0.08885 0.86652 0.0
C675 C 0.57404 0.08725 0.88974 0.0
H676 H 0.68182 0.10445 0.86155 0.0
C677 C 0.57922 0.09741 0.92798 0.0
H678 H 0.60944 0.08194 0.83687 0.0
C679 C 0.62096 0.11141 0.94211 0.0
C680 C 0.65831 0.11495 0.91832 0.0
H681 H 0.55083 0.09553 0.94683 0.0
H682 H 0.62353 0.12098 0.97126 0.0
C683 C 0.65376 0.10204 0.88072 0.0
C684 C 0.65616 0.84642 0.68417 0.0
C685 C 0.66613 0.84145 0.64593 0.0
H686 H 0.62167 0.88489 0.72595 0.0
C687 C 0.65394 0.8762 0.62108 0.0
H688 H 0.66597 0.82058 0.70414 0.0
C689 C 0.62904 0.91331 0.63369 0.0
C690 C 0.61558 0.91617 0.67132 0.0
H691 H 0.66093 0.87331 0.59147 0.0
H692 H 0.61811 0.93838 0.61343 0.0
C693 C 0.63084 0.88324 0.6967 0.0
C694 C 0.92107 0.9333 0.45225 0.0
C695 C 0.92024 0.94402 0.41381 0.0
H696 H 0.88675 0.90103 0.49738 0.0
C697 C 0.87894 0.94229 0.3944 0.0
H698 H 0.952 0.9361 0.46841 0.0
C699 C 0.8413 0.92356 0.41136 0.0
C700 C 0.84465 0.90544 0.44767 0.0
H701 H 0.87672 0.95073 0.36496 0.0
H702 H 0.81113 0.91895 0.39452 0.0
C703 C 0.8836 0.91361 0.46901 0.0
C704 C 0.60195 0.67766 0.6476 0.0
C705 C 0.64936 0.67581 0.64496 0.0
H706 H 0.54171 0.64671 0.66747 0.0
C707 C 0.67234 0.63838 0.66021 0.0
H708 H 0.58321 0.70596 0.63594 0.0
C709 C 0.64841 0.60433 0.67875 0.0
C710 C 0.60102 0.60698 0.68225 0.0
H711 H 0.70883 0.63622 0.65892 0.0
H712 H 0.66708 0.57603 0.69043 0.0
C713 C 0.57815 0.64381 0.66596 0.0
C714 C 0.62911 0.39851 0.89509 0.0
C715 C 0.59191 0.37692 0.87869 0.0
H716 H 0.69136 0.39095 0.92556 0.0
C717 C 0.59078 0.32957 0.87902 0.0
H718 H 0.63042 0.43494 0.89594 0.0
C719 C 0.62583 0.30433 0.89551 0.0
C720 C 0.66277 0.32576 0.91257 0.0
H721 H 0.56234 0.31203 0.86682 0.0
H722 H 0.62378 0.26793 0.89502 0.0
C723 C 0.66392 0.37322 0.91218 0.0
C724 C 0.93983 0.37386 0.13904 0.0
C725 C 0.91386 0.40637 0.1579 0.0
H726 H 0.94003 0.31385 0.10589 0.0
C727 C 0.8664 0.40423 0.15513 0.0
H728 H 0.97639 0.37468 0.1401 0.0
C729 C 0.84551 0.36959 0.13479 0.0
C730 C 0.87172 0.3364 0.11705 0.0
H731 H 0.84535 0.4285 0.16953 0.0
H732 H 0.809 0.36746 0.1345 0.0
C733 C 0.91904 0.33935 0.11896 0.0
C734 C 0.89892 0.69183 0.41404 0.0
C735 C 0.86622 0.67185 0.43689 0.0
H736 H 0.95102 0.68174 0.37337 0.0
C737 C 0.85852 0.62522 0.43289 0.0
H738 H 0.90541 0.7276 0.41586 0.0
C739 C 0.88403 0.59909 0.40779 0.0
C740 C 0.91791 0.61889 0.38613 0.0
H741 H 0.83312 0.60869 0.44954 0.0
H742 H 0.87896 0.56302 0.40682 0.0
C743 C 0.92449 0.66569 0.38915 0.0
C744 C 0.64667 0.39988 0.41194 0.0
C745 C 0.60078 0.39594 0.40164 0.0
H746 H 0.70602 0.36699 0.43448 0.0
C747 C 0.57918 0.35482 0.40853 0.0
H748 H 0.66431 0.43124 0.40756 0.0
C749 C 0.60294 0.31834 0.42425 0.0
C750 C 0.6491 0.32172 0.43362 0.0
H751 H 0.5438 0.3506 0.40158 0.0
H752 H 0.58515 0.28707 0.42872 0.0
C753 C 0.6705 0.36325 0.42784 0.0
C754 C 0.9339 0.31994 0.67316 0.0
C755 C 0.93169 0.36706 0.67726 0.0
H756 H 0.90299 0.26029 0.65191 0.0
C757 C 0.89331 0.38998 0.66331 0.0
H758 H 0.9628 0.30114 0.68378 0.0
C759 C 0.85883 0.3664 0.64454 0.0
C760 C 0.86193 0.31935 0.63948 0.0
H761 H 0.89071 0.42627 0.66573 0.0
H762 H 0.82991 0.38506 0.63384 0.0
C763 C 0.89962 0.29649 0.65463 0.0
C764 C 0.85065 0.62533 0.89701 0.0
C765 C 0.87237 0.65603 0.92069 0.0
H766 H 0.8584 0.57268 0.85669 0.0
C767 C 0.91972 0.65486 0.92341 0.0
H768 H 0.81427 0.62649 0.89363 0.0
C769 C 0.94501 0.62418 0.90231 0.0
C770 C 0.92351 0.5942 0.87768 0.0
H771 H 0.93724 0.67889 0.94093 0.0
H772 H 0.98147 0.62445 0.90495 0.0
C773 C 0.87601 0.59484 0.87561 0.0
C774 C 0.6104 0.63765 0.21052 0.0
C775 C 0.58742 0.60774 0.18697 0.0
H776 H 0.65724 0.69196 0.21459 0.0
C777 C 0.5962 0.60915 0.14828 0.0
H778 H 0.60377 0.63796 0.24028 0.0
C779 C 0.6266 0.64021 0.13338 0.0
C780 C 0.64888 0.67091 0.15677 0.0
H781 H 0.57878 0.5866 0.12938 0.0
H782 H 0.6326 0.64012 0.10354 0.0
C783 C 0.64053 0.66905 0.19559 0.0
C784 C 0.37148 0.31695 0.39514 0.0
C785 C 0.36672 0.31263 0.43415 0.0
H786 H 0.39091 0.35924 0.3495 0.0
C787 C 0.37284 0.35076 0.45672 0.0
H788 H 0.3658 0.2885 0.37685 0.0
C789 C 0.3862 0.39147 0.44094 0.0
C790 C 0.39427 0.39479 0.40231 0.0
H791 H 0.36968 0.34865 0.48684 0.0
H792 H 0.39263 0.41959 0.45942 0.0
C793 C 0.3854 0.35758 0.37939 0.0
C794 C 0.3873 0.58047 0.20082 0.0
C795 C 0.42501 0.57136 0.17842 0.0
H796 H 0.32114 0.60935 0.20372 0.0
C797 C 0.42159 0.57853 0.13955 0.0
H798 H 0.38882 0.57547 0.23083 0.0
C799 C 0.38305 0.59882 0.12402 0.0
C800 C 0.34703 0.61173 0.14703 0.0
H801 H 0.44978 0.57082 0.12142 0.0
H802 H 0.38253 0.60652 0.09439 0.0
C803 C 0.34859 0.60028 0.18524 0.0
C804 C 0.15478 0.61575 0.86427 0.0
C805 C 0.14134 0.58015 0.8874 0.0
H806 H 0.18363 0.68154 0.86144 0.0
C807 C 0.15225 0.58173 0.92577 0.0
H808 H 0.14728 0.61538 0.83458 0.0
C809 C 0.17219 0.61985 0.94129 0.0
C810 C 0.18216 0.65719 0.91876 0.0
H811 H 0.14282 0.55463 0.9444 0.0
H812 H 0.17684 0.62111 0.97134 0.0
C813 C 0.17522 0.65382 0.87979 0.0
C814 C 0.1418 0.36029 0.61985 0.0
C815 C 0.17994 0.35509 0.64299 0.0
H816 H 0.07266 0.38122 0.61565 0.0
C817 C 0.17751 0.36965 0.68038 0.0
H818 H 0.14272 0.34973 0.59088 0.0
C819 C 0.1371 0.38642 0.69494 0.0
C820 C 0.09822 0.38985 0.67231 0.0
H821 H 0.20625 0.36608 0.69909 0.0
H822 H 0.13593 0.39474 0.72439 0.0
C823 C 0.10153 0.37792 0.63424 0.0
C824 C 0.3941 0.66026 0.64395 0.0
C825 C 0.34805 0.66535 0.63497 0.0
H826 H 0.44449 0.62362 0.67431 0.0
C827 C 0.31732 0.63316 0.64807 0.0
H828 H 0.41887 0.68363 0.63336 0.0
C829 C 0.33243 0.5977 0.67119 0.0
C830 C 0.37809 0.59492 0.68205 0.0
H831 H 0.28166 0.63625 0.64153 0.0
H832 H 0.30843 0.57329 0.68134 0.0
C833 C 0.40877 0.62603 0.66765 0.0
C834 C 0.12251 0.59588 0.44164 0.0
C835 C 0.15812 0.60778 0.41805 0.0
H836 H 0.05497 0.57133 0.44508 0.0
C837 C 0.15542 0.59675 0.37983 0.0
H838 H 0.12392 0.6032 0.47129 0.0
C839 C 0.11567 0.57949 0.36467 0.0
C840 C 0.07813 0.57234 0.38758 0.0
H841 H 0.18263 0.60481 0.36092 0.0
H842 H 0.11325 0.57545 0.33463 0.0
C843 C 0.08295 0.57792 0.42654 0.0
C844 C 0.13979 0.37675 0.20043 0.0
C845 C 0.12997 0.41384 0.17733 0.0
H846 H 0.16619 0.30952 0.20367 0.0
C847 C 0.14538 0.41345 0.14017 0.0
H848 H 0.12896 0.37628 0.2293 0.0
C849 C 0.16548 0.37495 0.12518 0.0
C850 C 0.17142 0.3361 0.14718 0.0
H851 H 0.13899 0.44176 0.12167 0.0
H852 H 0.17309 0.37475 0.09561 0.0
C853 C 0.16073 0.33836 0.18555 0.0
C854 C 0.42463 0.39741 0.92733 0.0
C855 C 0.42673 0.4073 0.88882 0.0
H856 H 0.38475 0.37257 0.97261 0.0
C857 C 0.38716 0.40388 0.86716 0.0
H858 H 0.45426 0.40067 0.94503 0.0
C859 C 0.3472 0.38847 0.88312 0.0
C860 C 0.34591 0.37585 0.92107 0.0
H861 H 0.38754 0.41097 0.83743 0.0
H862 H 0.3179 0.38446 0.86516 0.0
C863 C 0.38469 0.38171 0.94326 0.0
C864 C 0.10902 0.86879 0.12139 0.0
C865 C 0.14674 0.88988 0.10606 0.0
H866 H 0.06221 0.86763 0.16686 0.0
C867 C 0.16832 0.92471 0.12532 0.0
H868 H 0.09236 0.84165 0.10667 0.0
C869 C 0.15182 0.93876 0.15985 0.0
C870 C 0.11338 0.91841 0.1747 0.0
H871 H 0.19771 0.94091 0.11366 0.0
H872 H 0.16824 0.9661 0.17448 0.0
C873 C 0.09209 0.88334 0.15556 0.0
C874 C 0.29681 0.93009 0.33488 0.0
C875 C 0.34105 0.94625 0.33866 0.0
H876 H 0.238 0.90945 0.36426 0.0
C877 C 0.35155 0.9708 0.37082 0.0
H878 H 0.2859 0.91359 0.30946 0.0
C879 C 0.32383 0.96867 0.40214 0.0
C880 C 0.28651 0.94063 0.40124 0.0
H881 H 0.38319 0.98683 0.37387 0.0
H882 H 0.33565 0.98211 0.42847 0.0
C883 C 0.26896 0.92833 0.36622 0.0
C884 C 0.27632 0.07081 0.7534 0.0
C885 C 0.29736 0.10943 0.76769 0.0
H886 H 0.28682 0.0102 0.72217 0.0
C887 C 0.343 0.10674 0.7778 0.0
H888 H 0.24047 0.07115 0.74707 0.0
C889 C 0.36993 0.07445 0.76067 0.0
C890 C 0.35028 0.0409 0.73832 0.0
H891 H 0.35947 0.13546 0.79048 0.0
H892 H 0.40592 0.07992 0.76102 0.0
C893 C 0.30306 0.03632 0.73838 0.0
C894 C 0.2164 0.11703 0.8875 0.0
C895 C 0.21258 0.08576 0.91665 0.0
H896 H 0.20666 0.12867 0.82895 0.0
C897 C 0.21724 0.03978 0.90777 0.0
H898 H 0.21883 0.15209 0.89307 0.0
C899 C 0.21391 0.02595 0.87055 0.0
C900 C 0.20322 0.05794 0.84287 0.0
H901 H 0.21735 0.01418 0.9294 0.0
H902 H 0.21024 0.9904 0.86491 0.0
C903 C 0.21188 0.10328 0.85042 0.0
C904 C 0.89893 0.09576 0.8797 0.0
C905 C 0.94391 0.10818 0.87288 0.0
H906 H 0.83458 0.11368 0.90152 0.0
C907 C 0.95741 0.15187 0.8833 0.0
H908 H 0.88685 0.06259 0.87233 0.0
C909 C 0.92656 0.18199 0.90031 0.0
C910 C 0.88187 0.16869 0.9078 0.0
H911 H 0.99182 0.16257 0.8788 0.0
H912 H 0.9378 0.21537 0.9079 0.0
C913 C 0.86871 0.12522 0.89697 0.0
C914 C 0.59567 0.17124 0.61876 0.0
C915 C 0.64067 0.16355 0.62998 0.0
H916 H 0.52689 0.14887 0.62133 0.0
C917 C 0.64988 0.1283 0.65543 0.0
H918 H 0.58745 0.19819 0.59935 0.0
C919 C 0.61506 0.10116 0.6691 0.0
C920 C 0.57032 0.10775 0.65683 0.0
H921 H 0.68414 0.12181 0.66499 0.0
H922 H 0.62343 0.07387 0.68816 0.0
C923 C 0.56102 0.14311 0.63149 0.0
C924 C 0.66667 0.85306 0.41032 0.0
C925 C 0.65258 0.81297 0.42755 0.0
H926 H 0.64916 0.91135 0.37836 0.0
C927 C 0.60687 0.80082 0.42383 0.0
H928 H 0.70157 0.86341 0.41187 0.0
C929 C 0.57591 0.82931 0.40463 0.0
C930 C 0.59039 0.86974 0.38777 0.0
H931 H 0.59488 0.77001 0.43647 0.0
H932 H 0.54071 0.81985 0.4032 0.0
C933 C 0.6364 0.8806 0.39056 0.0
C934 C 0.89923 0.89263 0.13131 0.0
C935 C 0.91388 0.89934 0.16854 0.0
H936 H 0.86075 0.8526 0.09295 0.0
C937 C 0.89963 0.86896 0.19605 0.0
H938 H 0.9095 0.91526 0.10921 0.0
C939 C 0.87172 0.83272 0.18655 0.0
C940 C 0.85722 0.82588 0.14926 0.0
H941 H 0.91035 0.87286 0.22488 0.0
H942 H 0.86149 0.81006 0.20864 0.0
C943 C 0.87132 0.85646 0.12182 0.0
C944 C 0.69603 0.42012 0.66986 0.0
C945 C 0.66058 0.40347 0.6915 0.0
H946 H 0.72627 0.42141 0.61546 0.0
C947 C 0.62778 0.3756 0.67548 0.0
H948 H 0.72126 0.44196 0.68207 0.0
C949 C 0.63055 0.3641 0.63784 0.0
C950 C 0.66584 0.38088 0.61616 0.0
H951 H 0.60025 0.36271 0.69207 0.0
H952 H 0.60558 0.34185 0.62578 0.0
C953 C 0.69853 0.40897 0.63205 0.0
C954 C 0.77779 0.39662 0.89674 0.0
C955 C 0.7952 0.41674 0.92907 0.0
H956 H 0.77211 0.40095 0.83729 0.0
C957 C 0.80035 0.46383 0.92866 0.0
H958 H 0.76786 0.36241 0.89636 0.0
C959 C 0.80121 0.48652 0.89439 0.0
C960 C 0.79981 0.4611 0.86132 0.0
H961 H 0.81047 0.48189 0.95358 0.0
H962 H 0.8139 0.52058 0.89407 0.0
C963 C 0.77861 0.41947 0.86272 0.0
C964 C 0.77026 0.56836 0.19284 0.0
C965 C 0.80881 0.54153 0.18836 0.0
H966 H 0.72709 0.61745 0.16589 0.0
C967 C 0.82028 0.52728 0.1523 0.0
H968 H 0.75805 0.57583 0.22046 0.0
C969 C 0.80263 0.55033 0.1216 0.0
C970 C 0.77388 0.58731 0.12745 0.0
H971 H 0.84861 0.50479 0.14788 0.0
H972 H 0.81665 0.5436 0.09433 0.0
C973 C 0.75322 0.5924 0.16213 0.0
C974 C 0.62846 0.63889 0.40944 0.0
C975 C 0.64139 0.6021 0.38754 0.0
H976 H 0.63293 0.67006 0.46325 0.0
C977 C 0.66871 0.56764 0.40261 0.0
H978 H 0.60654 0.66509 0.39817 0.0
C979 C 0.68364 0.57037 0.43965 0.0
C980 C 0.67081 0.60744 0.46146 0.0
H981 H 0.67811 0.53868 0.38588 0.0
H982 H 0.70557 0.54424 0.45099 0.0
C983 C 0.64307 0.64147 0.44641 0.0
C984 C 0.35225 0.63992 0.39783 0.0
C985 C 0.36534 0.68135 0.41346 0.0
H986 H 0.3725 0.57665 0.3749 0.0
C987 C 0.41158 0.6912 0.41572 0.0
H988 H 0.31688 0.63141 0.39503 0.0
C989 C 0.44397 0.65912 0.40426 0.0
C990 C 0.43057 0.61703 0.38974 0.0
H991 H 0.4227 0.72283 0.42751 0.0
H992 H 0.47944 0.66698 0.40743 0.0
C993 C 0.38427 0.60842 0.38599 0.0
C994 C 0.11188 0.60833 0.16942 0.0
C995 C 0.06602 0.62092 0.17137 0.0
H996 H 0.17779 0.62341 0.15016 0.0
C997 C 0.05245 0.66189 0.15451 0.0
H998 H 0.12406 0.57711 0.18174 0.0
C999 C 0.08417 0.68926 0.13611 0.0
C1000 C 0.12982 0.6757 0.13364 0.0
H1001 H 0.01738 0.6725 0.1551 0.0
H1002 H 0.07295 0.72075 0.12368 0.0
C1003 C 0.14298 0.63493 0.15074 0.0
C1004 C 0.07955 0.30307 0.92233 0.0
C1005 C 0.11481 0.32148 0.9441 0.0
H1006 H 0.02443 0.31666 0.88376 0.0
C1007 C 0.11783 0.36846 0.94672 0.0
H1008 H 0.07668 0.26691 0.91937 0.0
C1009 C 0.0888 0.39639 0.92622 0.0
C1010 C 0.05557 0.37848 0.90234 0.0
H1011 H 0.14429 0.38381 0.96332 0.0
H1012 H 0.09341 0.43246 0.92829 0.0
C1013 C 0.0499 0.33146 0.90168 0.0
C1014 C 0.38855 0.36027 0.64164 0.0
C1015 C 0.39473 0.31531 0.65299 0.0
H1016 H 0.41021 0.42846 0.64646 0.0
C1017 C 0.43172 0.30468 0.67661 0.0
H1018 H 0.36047 0.36991 0.62368 0.0
C1019 C 0.46084 0.33856 0.6895 0.0
C1020 C 0.45283 0.3838 0.67972 0.0
H1021 H 0.43748 0.27036 0.68594 0.0
H1022 H 0.48842 0.32963 0.70823 0.0
C1023 C 0.41691 0.39402 0.65508 0.0
loop_
_geom_bond_atom_site_label_1
_geom_bond_atom_site_label_2
_geom_bond_distance
_geom_bond_site_symmetry_2
_ccdc_geom_bond_type
O0 Tb1 2.292 . S
O0 C3 1.255 . S
Tb1 O0 2.292 . S
Tb1 O17 2.326 1_565 S
Tb1 O19 2.500 1_565 S
Tb1 O20 2.473 1_565 S
Tb1 O23 2.324 1_455 S
Eu2 O6 2.292 . S
Eu2 C7 2.852 . S
Eu2 O18 2.324 1_655 S
Eu2 O22 2.326 . S
Eu2 O24 2.500 . S
Eu2 O25 2.473 1_655 S
C3 O0 1.255 . S
C3 O4 1.247 . S
O4 C3 1.247 . S
C5 O17 1.242 . S
C5 O18 1.258 . S
O6 Eu2 2.292 . S
O6 C8 1.255 . S
C7 Eu2 2.852 . S
C7 C11 1.503 . S
C7 O24 1.273 . S
C7 O25 1.257 1_655 S
C8 O6 1.255 . S
C8 O9 1.247 . S
O9 C8 1.247 . S
C10 O22 1.242 . S
C10 O23 1.258 1_545 S
C11 C7 1.503 . S
C11 C12 1.379 1_655 S
C11 C16 1.392 . S
C12 C11 1.379 1_455 S
C12 C13 1.404 1_545 S
C12 H26 0.929 . S
C13 C12 1.404 1_565 S
C13 C14 1.389 1_455 S
C14 C13 1.389 1_655 S
C14 C15 1.399 1_565 S
C14 H27 0.931 . S
C15 C14 1.399 1_545 S
C15 C16 1.390 . S
C16 C11 1.392 . S
C16 C15 1.390 . S
C16 H28 0.929 . S
O17 Tb1 2.326 1_545 S
O17 C5 1.242 . S
O18 Eu2 2.324 1_455 S
O18 C5 1.258 . S
O19 Tb1 2.500 1_545 S
O19 C21 1.273 . S
O20 Tb1 2.473 1_545 S
O20 C21 1.257 . S
C21 O19 1.273 . S
C21 O20 1.257 . S
O22 Eu2 2.326 . S
O22 C10 1.242 . S
O23 Tb1 2.324 1_655 S
O23 C10 1.258 1_565 S
O24 Eu2 2.500 . S
O24 C7 1.273 . S
O25 Eu2 2.473 1_455 S
O25 C7 1.257 1_455 S
H26 C12 0.929 . S
H27 C14 0.931 . S
H28 C16 0.929 . S
O29 Tb30 2.292 . S
O29 C32 1.255 . S
Tb30 O29 2.292 . S
Tb30 O46 2.326 . S
Tb30 O48 2.500 . S
Tb30 O49 2.473 . S
Tb30 O52 2.324 . S
Eu31 O35 2.292 . S
Eu31 C36 2.852 . S
Eu31 O47 2.324 . S
Eu31 O51 2.326 . S
Eu31 O53 2.500 . S
Eu31 O54 2.473 . S
C32 O29 1.255 . S
C32 O33 1.247 . S
O33 C32 1.247 . S
C34 O46 1.242 . S
C34 O47 1.258 . S
O35 Eu31 2.292 . S
O35 C37 1.255 . S
C36 Eu31 2.852 . S
C36 C40 1.503 . S
C36 O53 1.273 . S
C36 O54 1.257 . S
C37 O35 1.255 . S
C37 O38 1.247 . S
O38 C37 1.247 . S
C39 O51 1.242 . S
C39 O52 1.258 . S
C40 C36 1.503 . S
C40 C41 1.379 . S
C40 C45 1.392 . S
C41 C40 1.379 . S
C41 C42 1.404 . S
C41 H55 0.929 . S
C42 C41 1.404 . S
C42 C43 1.389 . S
C43 C42 1.389 . S
C43 C44 1.399 . S
C43 H56 0.931 . S
C44 C43 1.399 . S
C44 C45 1.390 . S
C45 C40 1.392 . S
C45 C44 1.390 . S
C45 H57 0.929 . S
O46 Tb30 2.326 . S
O46 C34 1.242 . S
O47 Eu31 2.324 . S
O47 C34 1.258 . S
O48 Tb30 2.500 . S
O48 C50 1.273 . S
O49 Tb30 2.473 . S
O49 C50 1.257 . S
C50 O48 1.273 . S
C50 O49 1.257 . S
O51 Eu31 2.326 . S
O51 C39 1.242 . S
O52 Tb30 2.324 . S
O52 C39 1.258 . S
O53 Eu31 2.500 . S
O53 C36 1.273 . S
O54 Eu31 2.473 . S
O54 C36 1.257 . S
H55 C41 0.929 . S
H56 C43 0.931 . S
H57 C45 0.929 . S
O58 Tb59 2.292 . S
O58 C61 1.255 . S
Tb59 O58 2.292 . S
Tb59 O75 2.326 1_545 S
Tb59 O77 2.500 1_545 S
Tb59 O78 2.473 1_545 S
Tb59 O81 2.324 . S
Eu60 O64 2.292 . S
Eu60 C65 2.852 . S
Eu60 O76 2.324 . S
Eu60 O80 2.326 . S
Eu60 O82 2.500 . S
Eu60 O83 2.473 . S
C61 O58 1.255 . S
C61 O62 1.247 . S
O62 C61 1.247 . S
C63 O75 1.242 . S
C63 O76 1.258 . S
O64 Eu60 2.292 . S
O64 C66 1.255 . S
C65 Eu60 2.852 . S
C65 C69 1.503 . S
C65 O82 1.273 . S
C65 O83 1.257 . S
C66 O64 1.255 . S
C66 O67 1.247 . S
O67 C66 1.247 . S
C68 O80 1.242 . S
C68 O81 1.258 1_565 S
C69 C65 1.503 . S
C69 C70 1.379 . S
C69 C74 1.392 . S
C70 C69 1.379 . S
C70 C71 1.404 1_565 S
C70 H84 0.929 . S
C71 C70 1.404 1_545 S
C71 C72 1.389 . S
C72 C71 1.389 . S
C72 C73 1.399 1_545 S
C72 H85 0.931 . S
C73 C72 1.399 1_565 S
C73 C74 1.390 . S
C74 C69 1.392 . S
C74 C73 1.390 . S
C74 H86 0.929 . S
O75 Tb59 2.326 1_565 S
O75 C63 1.242 . S
O76 Eu60 2.324 . S
O76 C63 1.258 . S
O77 Tb59 2.500 1_565 S
O77 C79 1.273 . S
O78 Tb59 2.473 1_565 S
O78 C79 1.257 . S
C79 O77 1.273 . S
C79 O78 1.257 . S
O80 Eu60 2.326 . S
O80 C68 1.242 . S
O81 Tb59 2.324 . S
O81 C68 1.258 1_545 S
O82 Eu60 2.500 . S
O82 C65 1.273 . S
O83 Eu60 2.473 . S
O83 C65 1.257 . S
H84 C70 0.929 . S
H85 C72 0.931 . S
H86 C74 0.929 . S
O87 Tb88 2.292 . S
O87 C90 1.255 . S
Tb88 O87 2.292 . S
Tb88 O104 2.326 . S
Tb88 O106 2.500 . S
Tb88 O107 2.473 . S
Tb88 O110 2.324 . S
Eu89 O93 2.292 . S
Eu89 C94 2.852 1_556 S
Eu89 O105 2.324 . S
Eu89 O109 2.326 . S
Eu89 O111 2.484 1_556 S
Eu89 O112 2.473 . S
C90 O87 1.255 . S
C90 O91 1.247 . S
O91 C90 1.247 . S
C92 O104 1.242 . S
C92 O105 1.258 . S
O93 Eu89 2.292 . S
O93 C95 1.255 . S
C94 Eu89 2.852 1_554 S
C94 C98 1.503 . S
C94 O111 1.276 . S
C94 O112 1.257 1_554 S
C95 O93 1.255 . S
C95 O96 1.247 . S
O96 C95 1.247 . S
C97 O109 1.242 . S
C97 O110 1.258 . S
C98 C94 1.503 . S
C98 C99 1.379 . S
C98 C103 1.392 . S
C99 C98 1.379 . S
C99 C100 1.404 . S
C99 H113 0.929 . S
C100 C99 1.404 . S
C100 C101 1.389 . S
C101 C100 1.389 . S
C101 C102 1.399 . S
C101 H114 0.931 . S
C102 C101 1.399 . S
C102 C103 1.390 . S
C103 C98 1.392 . S
C103 C102 1.390 . S
C103 H115 0.929 . S
O104 Tb88 2.326 . S
O104 C92 1.242 . S
O105 Eu89 2.324 . S
O105 C92 1.258 . S
O106 Tb88 2.500 . S
O106 C108 1.273 . S
O107 Tb88 2.473 . S
O107 C108 1.257 . S
C108 O106 1.273 . S
C108 O107 1.257 . S
O109 Eu89 2.326 . S
O109 C97 1.242 . S
O110 Tb88 2.324 . S
O110 C97 1.258 . S
O111 Eu89 2.484 1_554 S
O111 C94 1.276 . S
O112 Eu89 2.473 . S
O112 C94 1.257 1_556 S
H113 C99 0.929 . S
H114 C101 0.931 . S
H115 C103 0.929 . S
O116 Tb117 2.292 . S
O116 C119 1.255 . S
Tb117 O116 2.292 . S
Tb117 O133 2.326 1_545 S
Tb117 O135 2.500 1_545 S
Tb117 O136 2.473 1_545 S
Tb117 O139 2.324 1_455 S
Eu118 O122 2.292 . S
Eu118 C123 2.852 . S
Eu118 O134 2.324 1_655 S
Eu118 O138 2.326 . S
Eu118 O140 2.500 . S
Eu118 O141 2.473 1_655 S
C119 O116 1.255 . S
C119 O120 1.247 . S
O120 C119 1.247 . S
C121 O133 1.242 . S
C121 O134 1.258 . S
O122 Eu118 2.292 . S
O122 C124 1.255 . S
C123 Eu118 2.852 . S
C123 C127 1.503 . S
C123 O140 1.273 . S
C123 O141 1.257 1_655 S
C124 O122 1.255 . S
C124 O125 1.247 . S
O125 C124 1.247 . S
C126 O138 1.242 . S
C126 O139 1.258 1_565 S
C127 C123 1.503 . S
C127 C128 1.379 1_655 S
C127 C132 1.392 . S
C128 C127 1.379 1_455 S
C128 C129 1.404 1_565 S
C128 H142 0.929 . S
C129 C128 1.404 1_545 S
C129 C130 1.389 1_455 S
C130 C129 1.389 1_655 S
C130 C131 1.399 1_545 S
C130 H143 0.931 . S
C131 C130 1.399 1_565 S
C131 C132 1.390 . S
C132 C127 1.392 . S
C132 C131 1.390 . S
C132 H144 0.929 . S
O133 Tb117 2.326 1_565 S
O133 C121 1.242 . S
O134 Eu118 2.324 1_455 S
O134 C121 1.258 . S
O135 Tb117 2.500 1_565 S
O135 C137 1.273 . S
O136 Tb117 2.473 1_565 S
O136 C137 1.257 . S
C137 O135 1.273 . S
C137 O136 1.257 . S
O138 Eu118 2.326 . S
O138 C126 1.242 . S
O139 Tb117 2.324 1_655 S
O139 C126 1.258 1_545 S
O140 Eu118 2.500 . S
O140 C123 1.273 . S
O141 Eu118 2.473 1_455 S
O141 C123 1.257 1_455 S
H142 C128 0.929 . S
H143 C130 0.931 . S
H144 C132 0.929 . S
O145 Tb146 2.292 . S
O145 C148 1.255 . S
Tb146 O145 2.292 . S
Tb146 O162 2.326 . S
Tb146 O164 2.500 . S
Tb146 O165 2.473 . S
Tb146 O168 2.324 . S
Eu147 O151 2.292 . S
Eu147 C152 2.852 1_554 S
Eu147 O163 2.324 . S
Eu147 O167 2.326 . S
Eu147 O169 2.484 1_554 S
Eu147 O170 2.473 . S
C148 O145 1.255 . S
C148 O149 1.247 . S
O149 C148 1.247 . S
C150 O162 1.242 . S
C150 O163 1.258 . S
O151 Eu147 2.292 . S
O151 C153 1.255 . S
C152 Eu147 2.852 1_556 S
C152 C156 1.503 . S
C152 O169 1.276 . S
C152 O170 1.257 1_556 S
C153 O151 1.255 . S
C153 O154 1.247 . S
O154 C153 1.247 . S
C155 O167 1.242 . S
C155 O168 1.258 . S
C156 C152 1.503 . S
C156 C157 1.379 . S
C156 C161 1.392 . S
C157 C156 1.379 . S
C157 C158 1.404 . S
C157 H171 0.929 . S
C158 C157 1.404 . S
C158 C159 1.389 . S
C159 C158 1.389 . S
C159 C160 1.399 . S
C159 H172 0.931 . S
C160 C159 1.399 . S
C160 C161 1.390 . S
C161 C156 1.392 . S
C161 C160 1.390 . S
C161 H173 0.929 . S
O162 Tb146 2.326 . S
O162 C150 1.242 . S
O163 Eu147 2.324 . S
O163 C150 1.258 . S
O164 Tb146 2.500 . S
O164 C166 1.273 . S
O165 Tb146 2.473 . S
O165 C166 1.257 . S
C166 O164 1.273 . S
C166 O165 1.257 . S
O167 Eu147 2.326 . S
O167 C155 1.242 . S
O168 Tb146 2.324 . S
O168 C155 1.258 . S
O169 Eu147 2.484 1_556 S
O169 C152 1.276 . S
O170 Eu147 2.473 . S
O170 C152 1.257 1_554 S
H171 C157 0.929 . S
H172 C159 0.931 . S
H173 C161 0.929 . S
O174 Tb175 2.292 . S
O174 C177 1.255 . S
Tb175 O174 2.292 . S
Tb175 O191 2.326 1_565 S
Tb175 O193 2.500 1_565 S
Tb175 O194 2.473 1_565 S
Tb175 O197 2.324 . S
Eu176 O180 2.292 . S
Eu176 C181 2.852 . S
Eu176 O192 2.324 . S
Eu176 O196 2.326 . S
Eu176 O198 2.500 . S
Eu176 O199 2.473 . S
C177 O174 1.255 . S
C177 O178 1.247 . S
O178 C177 1.247 . S
C179 O191 1.242 . S
C179 O192 1.258 . S
O180 Eu176 2.292 . S
O180 C182 1.255 . S
C181 Eu176 2.852 . S
C181 C185 1.503 . S
C181 O198 1.273 . S
C181 O199 1.257 . S
C182 O180 1.255 . S
C182 O183 1.247 . S
O183 C182 1.247 . S
C184 O196 1.242 . S
C184 O197 1.258 1_545 S
C185 C181 1.503 . S
C185 C186 1.379 . S
C185 C190 1.392 . S
C186 C185 1.379 . S
C186 C187 1.404 1_545 S
C186 H200 0.929 . S
C187 C186 1.404 1_565 S
C187 C188 1.389 . S
C188 C187 1.389 . S
C188 C189 1.399 1_565 S
C188 H201 0.931 . S
C189 C188 1.399 1_545 S
C189 C190 1.390 . S
C190 C185 1.392 . S
C190 C189 1.390 . S
C190 H202 0.929 . S
O191 Tb175 2.326 1_545 S
O191 C179 1.242 . S
O192 Eu176 2.324 . S
O192 C179 1.258 . S
O193 Tb175 2.500 1_545 S
O193 C195 1.273 . S
O194 Tb175 2.473 1_545 S
O194 C195 1.257 . S
C195 O193 1.273 . S
C195 O194 1.257 . S
O196 Eu176 2.326 . S
O196 C184 1.242 . S
O197 Tb175 2.324 . S
O197 C184 1.258 1_565 S
O198 Eu176 2.500 . S
O198 C181 1.273 . S
O199 Eu176 2.473 . S
O199 C181 1.257 . S
H200 C186 0.929 . S
H201 C188 0.931 . S
H202 C190 0.929 . S
O203 Tb204 2.292 . S
O203 C206 1.255 . S
Tb204 O203 2.292 . S
Tb204 O220 2.326 . S
Tb204 O222 2.500 . S
Tb204 O223 2.473 . S
Tb204 O226 2.324 . S
Eu205 O209 2.292 . S
Eu205 C210 2.852 . S
Eu205 O221 2.324 . S
Eu205 O225 2.326 . S
Eu205 O227 2.500 . S
Eu205 O228 2.473 . S
C206 O203 1.255 . S
C206 O207 1.247 . S
O207 C206 1.247 . S
C208 O220 1.242 . S
C208 O221 1.258 . S
O209 Eu205 2.292 . S
O209 C211 1.255 . S
C210 Eu205 2.852 . S
C210 C214 1.503 . S
C210 O227 1.273 . S
C210 O228 1.257 . S
C211 O209 1.255 . S
C211 O212 1.247 . S
O212 C211 1.247 . S
C213 O225 1.242 . S
C213 O226 1.258 . S
C214 C210 1.503 . S
C214 C215 1.379 . S
C214 C219 1.392 . S
C215 C214 1.379 . S
C215 C216 1.404 . S
C215 H229 0.929 . S
C216 C215 1.404 . S
C216 C217 1.389 . S
C217 C216 1.389 . S
C217 C218 1.399 . S
C217 H230 0.931 . S
C218 C217 1.399 . S
C218 C219 1.390 . S
C219 C214 1.392 . S
C219 C218 1.390 . S
C219 H231 0.929 . S
O220 Tb204 2.326 . S
O220 C208 1.242 . S
O221 Eu205 2.324 . S
O221 C208 1.258 . S
O222 Tb204 2.500 . S
O222 C224 1.273 . S
O223 Tb204 2.473 . S
O223 C224 1.257 . S
C224 O222 1.273 . S
C224 O223 1.257 . S
O225 Eu205 2.326 . S
O225 C213 1.242 . S
O226 Tb204 2.324 . S
O226 C213 1.258 . S
O227 Eu205 2.500 . S
O227 C210 1.273 . S
O228 Eu205 2.473 . S
O228 C210 1.257 . S
H229 C215 0.929 . S
H230 C217 0.931 . S
H231 C219 0.929 . S
O232 Tb233 2.292 . S
O232 C235 1.255 . S
Tb233 O232 2.292 . S
Tb233 O249 2.326 . S
Tb233 O251 2.500 . S
Tb233 O252 2.473 . S
Tb233 O255 2.324 . S
Eu234 O238 2.292 . S
Eu234 C239 2.852 . S
Eu234 O250 2.324 . S
Eu234 O254 2.326 . S
Eu234 O256 2.500 . S
Eu234 O257 2.473 . S
C235 O232 1.255 . S
C235 O236 1.247 . S
O236 C235 1.247 . S
C237 O249 1.242 . S
C237 O250 1.258 . S
O238 Eu234 2.292 . S
O238 C240 1.255 . S
C239 Eu234 2.852 . S
C239 C243 1.503 . S
C239 O256 1.273 . S
C239 O257 1.257 . S
C240 O238 1.255 . S
C240 O241 1.247 . S
O241 C240 1.247 . S
C242 O254 1.242 . S
C242 O255 1.258 . S
C243 C239 1.503 . S
C243 C244 1.379 . S
C243 C248 1.392 . S
C244 C243 1.379 . S
C244 C245 1.404 . S
C244 H258 0.929 . S
C245 C244 1.404 . S
C245 C246 1.389 . S
C246 C245 1.389 . S
C246 C247 1.399 . S
C246 H259 0.931 . S
C247 C246 1.399 . S
C247 C248 1.390 . S
C248 C243 1.392 . S
C248 C247 1.390 . S
C248 H260 0.929 . S
O249 Tb233 2.326 . S
O249 C237 1.242 . S
O250 Eu234 2.324 . S
O250 C237 1.258 . S
O251 Tb233 2.500 . S
O251 C253 1.273 . S
O252 Tb233 2.473 . S
O252 C253 1.257 . S
C253 O251 1.273 . S
C253 O252 1.257 . S
O254 Eu234 2.326 . S
O254 C242 1.242 . S
O255 Tb233 2.324 . S
O255 C242 1.258 . S
O256 Eu234 2.500 . S
O256 C239 1.273 . S
O257 Eu234 2.473 . S
O257 C239 1.257 . S
H258 C244 0.929 . S
H259 C246 0.931 . S
H260 C248 0.929 . S
O261 Tb262 2.292 . S
O261 C264 1.255 . S
Tb262 O261 2.292 . S
Tb262 O278 2.326 . S
Tb262 O280 2.500 . S
Tb262 O281 2.473 . S
Tb262 O284 2.324 . S
Eu263 O267 2.292 . S
Eu263 C268 2.852 1_554 S
Eu263 O279 2.324 . S
Eu263 O283 2.326 . S
Eu263 O285 2.484 1_554 S
Eu263 O286 2.473 . S
C264 O261 1.255 . S
C264 O265 1.247 . S
O265 C264 1.247 . S
C266 O278 1.242 . S
C266 O279 1.258 . S
O267 Eu263 2.292 . S
O267 C269 1.255 . S
C268 Eu263 2.852 1_556 S
C268 C272 1.503 . S
C268 O285 1.276 . S
C268 O286 1.257 1_556 S
C269 O267 1.255 . S
C269 O270 1.247 . S
O270 C269 1.247 . S
C271 O283 1.242 . S
C271 O284 1.258 . S
C272 C268 1.503 . S
C272 C273 1.379 . S
C272 C277 1.392 . S
C273 C272 1.379 . S
C273 C274 1.404 . S
C273 H287 0.929 . S
C274 C273 1.404 . S
C274 C275 1.389 . S
C275 C274 1.389 . S
C275 C276 1.399 . S
C275 H288 0.931 . S
C276 C275 1.399 . S
C276 C277 1.390 . S
C277 C272 1.392 . S
C277 C276 1.390 . S
C277 H289 0.929 . S
O278 Tb262 2.326 . S
O278 C266 1.242 . S
O279 Eu263 2.324 . S
O279 C266 1.258 . S
O280 Tb262 2.500 . S
O280 C282 1.273 . S
O281 Tb262 2.473 . S
O281 C282 1.257 . S
C282 O280 1.273 . S
C282 O281 1.257 . S
O283 Eu263 2.326 . S
O283 C271 1.242 . S
O284 Tb262 2.324 . S
O284 C271 1.258 . S
O285 Eu263 2.484 1_556 S
O285 C268 1.276 . S
O286 Eu263 2.473 . S
O286 C268 1.257 1_554 S
H287 C273 0.929 . S
H288 C275 0.931 . S
H289 C277 0.929 . S
O290 Tb291 2.292 . S
O290 C293 1.255 . S
Tb291 O290 2.292 . S
Tb291 O307 2.326 . S
Tb291 O309 2.500 . S
Tb291 O310 2.473 . S
Tb291 O313 2.324 . S
Eu292 O296 2.292 . S
Eu292 C297 2.852 1_556 S
Eu292 O308 2.324 . S
Eu292 O312 2.326 . S
Eu292 O314 2.484 1_556 S
Eu292 O315 2.473 . S
C293 O290 1.255 . S
C293 O294 1.247 . S
O294 C293 1.247 . S
C295 O307 1.242 . S
C295 O308 1.258 . S
O296 Eu292 2.292 . S
O296 C298 1.255 . S
C297 Eu292 2.852 1_554 S
C297 C301 1.503 . S
C297 O314 1.276 . S
C297 O315 1.257 1_554 S
C298 O296 1.255 . S
C298 O299 1.247 . S
O299 C298 1.247 . S
C300 O312 1.242 . S
C300 O313 1.258 . S
C301 C297 1.503 . S
C301 C302 1.379 . S
C301 C306 1.392 . S
C302 C301 1.379 . S
C302 C303 1.404 . S
C302 H316 0.929 . S
C303 C302 1.404 . S
C303 C304 1.389 . S
C304 C303 1.389 . S
C304 C305 1.399 . S
C304 H317 0.931 . S
C305 C304 1.399 . S
C305 C306 1.390 . S
C306 C301 1.392 . S
C306 C305 1.390 . S
C306 H318 0.929 . S
O307 Tb291 2.326 . S
O307 C295 1.242 . S
O308 Eu292 2.324 . S
O308 C295 1.258 . S
O309 Tb291 2.500 . S
O309 C311 1.273 . S
O310 Tb291 2.473 . S
O310 C311 1.257 . S
C311 O309 1.273 . S
C311 O310 1.257 . S
O312 Eu292 2.326 . S
O312 C300 1.242 . S
O313 Tb291 2.324 . S
O313 C300 1.258 . S
O314 Eu292 2.484 1_554 S
O314 C297 1.276 . S
O315 Eu292 2.473 . S
O315 C297 1.257 1_556 S
H316 C302 0.929 . S
H317 C304 0.931 . S
H318 C306 0.929 . S
O319 Tb320 2.292 . S
O319 C322 1.255 . S
Tb320 O319 2.292 . S
Tb320 O336 2.326 . S
Tb320 O338 2.500 . S
Tb320 O339 2.473 . S
Tb320 O342 2.324 . S
Eu321 O325 2.292 . S
Eu321 C326 2.852 . S
Eu321 O337 2.324 . S
Eu321 O341 2.326 . S
Eu321 O343 2.500 . S
Eu321 O344 2.473 . S
C322 O319 1.255 . S
C322 O323 1.247 . S
O323 C322 1.247 . S
C324 O336 1.242 . S
C324 O337 1.258 . S
O325 Eu321 2.292 . S
O325 C327 1.255 . S
C326 Eu321 2.852 . S
C326 C330 1.503 . S
C326 O343 1.273 . S
C326 O344 1.257 . S
C327 O325 1.255 . S
C327 O328 1.247 . S
O328 C327 1.247 . S
C329 O341 1.242 . S
C329 O342 1.258 . S
C330 C326 1.503 . S
C330 C331 1.379 . S
C330 C335 1.392 . S
C331 C330 1.379 . S
C331 C332 1.404 . S
C331 H345 0.929 . S
C332 C331 1.404 . S
C332 C333 1.389 . S
C333 C332 1.389 . S
C333 C334 1.399 . S
C333 H346 0.931 . S
C334 C333 1.399 . S
C334 C335 1.390 . S
C335 C330 1.392 . S
C335 C334 1.390 . S
C335 H347 0.929 . S
O336 Tb320 2.326 . S
O336 C324 1.242 . S
O337 Eu321 2.324 . S
O337 C324 1.258 . S
O338 Tb320 2.500 . S
O338 C340 1.273 . S
O339 Tb320 2.473 . S
O339 C340 1.257 . S
C340 O338 1.273 . S
C340 O339 1.257 . S
O341 Eu321 2.326 . S
O341 C329 1.242 . S
O342 Tb320 2.324 . S
O342 C329 1.258 . S
O343 Eu321 2.500 . S
O343 C326 1.273 . S
O344 Eu321 2.473 . S
O344 C326 1.257 . S
H345 C331 0.929 . S
H346 C333 0.931 . S
H347 C335 0.929 . S
O348 Tb349 2.292 . S
O348 C351 1.255 . S
Tb349 O348 2.292 . S
Tb349 O365 2.326 . S
Tb349 O367 2.500 . S
Tb349 O368 2.473 . S
Tb349 O371 2.324 . S
Eu350 O354 2.292 . S
Eu350 C355 2.852 . S
Eu350 O366 2.324 . S
Eu350 O370 2.326 . S
Eu350 O372 2.500 . S
Eu350 O373 2.473 . S
C351 O348 1.255 . S
C351 O352 1.247 . S
O352 C351 1.247 . S
C353 O365 1.242 . S
C353 O366 1.258 . S
O354 Eu350 2.292 . S
O354 C356 1.255 . S
C355 Eu350 2.852 . S
C355 C359 1.503 . S
C355 O372 1.273 . S
C355 O373 1.257 . S
C356 O354 1.255 . S
C356 O357 1.247 . S
O357 C356 1.247 . S
C358 O370 1.242 . S
C358 O371 1.258 . S
C359 C355 1.503 . S
C359 C360 1.379 . S
C359 C364 1.392 . S
C360 C359 1.379 . S
C360 C361 1.404 . S
C360 H374 0.929 . S
C361 C360 1.404 . S
C361 C362 1.389 . S
C362 C361 1.389 . S
C362 C363 1.399 . S
C362 H375 0.931 . S
C363 C362 1.399 . S
C363 C364 1.390 . S
C364 C359 1.392 . S
C364 C363 1.390 . S
C364 H376 0.929 . S
O365 Tb349 2.326 . S
O365 C353 1.242 . S
O366 Eu350 2.324 . S
O366 C353 1.258 . S
O367 Tb349 2.500 . S
O367 C369 1.273 . S
O368 Tb349 2.473 . S
O368 C369 1.257 . S
C369 O367 1.273 . S
C369 O368 1.257 . S
O370 Eu350 2.326 . S
O370 C358 1.242 . S
O371 Tb349 2.324 . S
O371 C358 1.258 . S
O372 Eu350 2.500 . S
O372 C355 1.273 . S
O373 Eu350 2.473 . S
O373 C355 1.257 . S
H374 C360 0.929 . S
H375 C362 0.931 . S
H376 C364 0.929 . S
O377 Tb378 2.292 . S
O377 C380 1.255 . S
Tb378 O377 2.292 . S
Tb378 O394 2.326 . S
Tb378 O396 2.500 . S
Tb378 O397 2.473 1_655 S
Tb378 O400 2.324 1_655 S
Eu379 O383 2.292 . S
Eu379 C384 2.852 . S
Eu379 O395 2.324 1_455 S
Eu379 O399 2.326 . S
Eu379 O401 2.500 . S
Eu379 O402 2.473 1_455 S
C380 O377 1.255 . S
C380 O381 1.247 . S
O381 C380 1.247 . S
C382 O394 1.242 . S
C382 O395 1.258 . S
O383 Eu379 2.292 . S
O383 C385 1.255 . S
C384 Eu379 2.852 . S
C384 C388 1.503 . S
C384 O401 1.273 . S
C384 O402 1.257 1_455 S
C385 O383 1.255 . S
C385 O386 1.247 . S
O386 C385 1.247 . S
C387 O399 1.242 . S
C387 O400 1.258 . S
C388 C384 1.503 . S
C388 C389 1.379 1_455 S
C388 C393 1.392 . S
C389 C388 1.379 1_655 S
C389 C390 1.404 . S
C389 H403 0.929 . S
C390 C389 1.404 . S
C390 C391 1.389 1_655 S
C391 C390 1.389 1_455 S
C391 C392 1.399 . S
C391 H404 0.931 . S
C392 C391 1.399 . S
C392 C393 1.390 . S
C393 C388 1.392 . S
C393 C392 1.390 . S
C393 H405 0.929 . S
O394 Tb378 2.326 . S
O394 C382 1.242 . S
O395 Eu379 2.324 1_655 S
O395 C382 1.258 . S
O396 Tb378 2.500 . S
O396 C398 1.273 . S
O397 Tb378 2.473 1_455 S
O397 C398 1.257 1_455 S
C398 O396 1.273 . S
C398 O397 1.257 1_655 S
O399 Eu379 2.326 . S
O399 C387 1.242 . S
O400 Tb378 2.324 1_455 S
O400 C387 1.258 . S
O401 Eu379 2.500 . S
O401 C384 1.273 . S
O402 Eu379 2.473 1_655 S
O402 C384 1.257 1_655 S
H403 C389 0.929 . S
H404 C391 0.931 . S
H405 C393 0.929 . S
O406 Tb407 2.292 . S
O406 C409 1.255 . S
Tb407 O406 2.292 . S
Tb407 O423 2.326 . S
Tb407 O425 2.500 . S
Tb407 O426 2.473 . S
Tb407 O429 2.324 . S
Eu408 O412 2.292 . S
Eu408 C413 2.852 . S
Eu408 O424 2.324 . S
Eu408 O428 2.326 . S
Eu408 O430 2.500 . S
Eu408 O431 2.473 . S
C409 O406 1.255 . S
C409 O410 1.247 . S
O410 C409 1.247 . S
C411 O423 1.242 . S
C411 O424 1.258 . S
O412 Eu408 2.292 . S
O412 C414 1.255 . S
C413 Eu408 2.852 . S
C413 C417 1.503 . S
C413 O430 1.273 . S
C413 O431 1.257 . S
C414 O412 1.255 . S
C414 O415 1.247 . S
O415 C414 1.247 . S
C416 O428 1.242 . S
C416 O429 1.258 . S
C417 C413 1.503 . S
C417 C418 1.379 . S
C417 C422 1.392 . S
C418 C417 1.379 . S
C418 C419 1.404 . S
C418 H432 0.929 . S
C419 C418 1.404 . S
C419 C420 1.389 . S
C420 C419 1.389 . S
C420 C421 1.399 . S
C420 H433 0.931 . S
C421 C420 1.399 . S
C421 C422 1.390 . S
C422 C417 1.392 . S
C422 C421 1.390 . S
C422 H434 0.929 . S
O423 Tb407 2.326 . S
O423 C411 1.242 . S
O424 Eu408 2.324 . S
O424 C411 1.258 . S
O425 Tb407 2.500 . S
O425 C427 1.273 . S
O426 Tb407 2.473 . S
O426 C427 1.257 . S
C427 O425 1.273 . S
C427 O426 1.257 . S
O428 Eu408 2.326 . S
O428 C416 1.242 . S
O429 Tb407 2.324 . S
O429 C416 1.258 . S
O430 Eu408 2.500 . S
O430 C413 1.273 . S
O431 Eu408 2.473 . S
O431 C413 1.257 . S
H432 C418 0.929 . S
H433 C420 0.931 . S
H434 C422 0.929 . S
O435 Tb436 2.292 . S
O435 C438 1.255 . S
Tb436 O435 2.292 . S
Tb436 O452 2.326 . S
Tb436 O454 2.500 . S
Tb436 O455 2.473 1_655 S
Tb436 O458 2.324 1_655 S
Eu437 O441 2.292 . S
Eu437 C442 2.852 . S
Eu437 O453 2.324 1_455 S
Eu437 O457 2.326 . S
Eu437 O459 2.500 . S
Eu437 O460 2.473 1_455 S
C438 O435 1.255 . S
C438 O439 1.247 . S
O439 C438 1.247 . S
C440 O452 1.242 . S
C440 O453 1.258 . S
O441 Eu437 2.292 . S
O441 C443 1.255 . S
C442 Eu437 2.852 . S
C442 C446 1.503 . S
C442 O459 1.273 . S
C442 O460 1.257 1_455 S
C443 O441 1.255 . S
C443 O444 1.247 . S
O444 C443 1.247 . S
C445 O457 1.242 . S
C445 O458 1.258 . S
C446 C442 1.503 . S
C446 C447 1.379 1_455 S
C446 C451 1.392 . S
C447 C446 1.379 1_655 S
C447 C448 1.404 . S
C447 H461 0.929 . S
C448 C447 1.404 . S
C448 C449 1.389 1_655 S
C449 C448 1.389 1_455 S
C449 C450 1.399 . S
C449 H462 0.931 . S
C450 C449 1.399 . S
C450 C451 1.390 . S
C451 C446 1.392 . S
C451 C450 1.390 . S
C451 H463 0.929 . S
O452 Tb436 2.326 . S
O452 C440 1.242 . S
O453 Eu437 2.324 1_655 S
O453 C440 1.258 . S
O454 Tb436 2.500 . S
O454 C456 1.273 . S
O455 Tb436 2.473 1_455 S
O455 C456 1.257 1_455 S
C456 O454 1.273 . S
C456 O455 1.257 1_655 S
O457 Eu437 2.326 . S
O457 C445 1.242 . S
O458 Tb436 2.324 1_455 S
O458 C445 1.258 . S
O459 Eu437 2.500 . S
O459 C442 1.273 . S
O460 Eu437 2.473 1_655 S
O460 C442 1.257 1_655 S
H461 C447 0.929 . S
H462 C449 0.931 . S
H463 C451 0.929 . S
C464 C465 1.387 . S
C464 H468 0.950 . S
C464 C473 1.390 1_566 S
C465 C464 1.387 . S
C465 C467 1.387 1_455 S
H466 C473 0.950 . S
C467 C465 1.387 1_655 S
C467 C469 1.390 1_566 S
C467 H471 0.950 . S
H468 C464 0.950 . S
C469 C467 1.390 1_544 S
C469 C470 1.387 1_655 S
C469 H472 0.950 . S
C470 C469 1.387 1_455 S
C470 C473 1.387 . S
H471 C467 0.950 . S
H472 C469 0.950 . S
C473 C464 1.390 1_544 S
C473 H466 0.950 . S
C473 C470 1.387 . S
C474 C475 1.387 . S
C474 H478 0.950 . S
C474 C483 1.390 . S
C475 C474 1.387 . S
C475 C477 1.387 . S
H476 C483 0.950 . S
C477 C475 1.387 . S
C477 C479 1.390 . S
C477 H481 0.950 . S
H478 C474 0.950 . S
C479 C477 1.390 . S
C479 C480 1.387 . S
C479 H482 0.950 . S
C480 C479 1.387 . S
C480 C483 1.387 . S
H481 C477 0.950 . S
H482 C479 0.950 . S
C483 C474 1.390 . S
C483 H476 0.950 . S
C483 C480 1.387 . S
C484 C485 1.387 . S
C484 H488 0.950 . S
C484 C493 1.390 1_545 S
C485 C484 1.387 . S
C485 C487 1.387 . S
H486 C493 0.950 . S
C487 C485 1.387 . S
C487 C489 1.390 1_545 S
C487 H491 0.950 . S
H488 C484 0.950 . S
C489 C487 1.390 1_565 S
C489 C490 1.387 . S
C489 H492 0.950 . S
C490 C489 1.387 . S
C490 C493 1.387 . S
H491 C487 0.950 . S
H492 C489 0.950 . S
C493 C484 1.390 1_565 S
C493 H486 0.950 . S
C493 C490 1.387 . S
C494 C495 1.387 . S
C494 H498 0.950 . S
C494 C503 1.390 . S
C495 C494 1.387 . S
C495 C497 1.387 . S
H496 C503 0.950 . S
C497 C495 1.387 . S
C497 C499 1.390 . S
C497 H501 0.950 . S
H498 C494 0.950 . S
C499 C497 1.390 . S
C499 C500 1.387 . S
C499 H502 0.950 . S
C500 C499 1.387 . S
C500 C503 1.387 . S
H501 C497 0.950 . S
H502 C499 0.950 . S
C503 C494 1.390 . S
C503 H496 0.950 . S
C503 C500 1.387 . S
C504 C505 1.387 . S
C504 H508 0.950 . S
C504 C513 1.390 . S
C505 C504 1.387 . S
C505 C507 1.387 . S
H506 C513 0.950 . S
C507 C505 1.387 . S
C507 C509 1.390 . S
C507 H511 0.950 . S
H508 C504 0.950 . S
C509 C507 1.390 . S
C509 C510 1.387 . S
C509 H512 0.950 . S
C510 C509 1.387 . S
C510 C513 1.387 . S
H511 C507 0.950 . S
H512 C509 0.950 . S
C513 C504 1.390 . S
C513 H506 0.950 . S
C513 C510 1.387 . S
C514 C515 1.387 . S
C514 H518 0.950 . S
C514 C523 1.390 . S
C515 C514 1.387 . S
C515 C517 1.387 . S
H516 C523 0.950 . S
C517 C515 1.387 . S
C517 C519 1.390 . S
C517 H521 0.950 . S
H518 C514 0.950 . S
C519 C517 1.390 . S
C519 C520 1.387 . S
C519 H522 0.950 . S
C520 C519 1.387 . S
C520 C523 1.387 . S
H521 C517 0.950 . S
H522 C519 0.950 . S
C523 C514 1.390 . S
C523 H516 0.950 . S
C523 C520 1.387 . S
C524 C525 1.387 . S
C524 H528 0.950 . S
C524 C533 1.390 . S
C525 C524 1.387 . S
C525 C527 1.387 . S
H526 C533 0.950 . S
C527 C525 1.387 . S
C527 C529 1.390 . S
C527 H531 0.950 . S
H528 C524 0.950 . S
C529 C527 1.390 . S
C529 C530 1.387 . S
C529 H532 0.950 . S
C530 C529 1.387 . S
C530 C533 1.387 . S
H531 C527 0.950 . S
H532 C529 0.950 . S
C533 C524 1.390 . S
C533 H526 0.950 . S
C533 C530 1.387 . S
C534 C535 1.387 1_455 S
C534 H538 0.950 . S
C534 C543 1.390 1_554 S
C535 C534 1.387 1_655 S
C535 C537 1.387 . S
H536 C543 0.950 . S
C537 C535 1.387 . S
C537 C539 1.390 1_554 S
C537 H541 0.950 . S
H538 C534 0.950 . S
C539 C537 1.390 1_556 S
C539 C540 1.387 . S
C539 H542 0.950 . S
C540 C539 1.387 . S
C540 C543 1.387 1_655 S
H541 C537 0.950 . S
H542 C539 0.950 . S
C543 C534 1.390 1_556 S
C543 H536 0.950 . S
C543 C540 1.387 1_455 S
C544 C545 1.387 . S
C544 H548 0.950 . S
C544 C553 1.390 . S
C545 C544 1.387 . S
C545 C547 1.387 . S
H546 C553 0.950 . S
C547 C545 1.387 . S
C547 C549 1.390 . S
C547 H551 0.950 . S
H548 C544 0.950 . S
C549 C547 1.390 . S
C549 C550 1.387 . S
C549 H552 0.950 . S
C550 C549 1.387 . S
C550 C553 1.387 . S
H551 C547 0.950 . S
H552 C549 0.950 . S
C553 C544 1.390 . S
C553 H546 0.950 . S
C553 C550 1.387 . S
C554 C555 1.387 . S
C554 H558 0.950 . S
C554 C563 1.390 . S
C555 C554 1.387 . S
C555 C557 1.387 . S
H556 C563 0.950 . S
C557 C555 1.387 . S
C557 C559 1.390 . S
C557 H561 0.950 . S
H558 C554 0.950 . S
C559 C557 1.390 . S
C559 C560 1.387 . S
C559 H562 0.950 . S
C560 C559 1.387 . S
C560 C563 1.387 . S
H561 C557 0.950 . S
H562 C559 0.950 . S
C563 C554 1.390 . S
C563 H556 0.950 . S
C563 C560 1.387 . S
C564 C565 1.387 . S
C564 H568 0.950 . S
C564 C573 1.390 . S
C565 C564 1.387 . S
C565 C567 1.387 . S
H566 C573 0.950 . S
C567 C565 1.387 . S
C567 C569 1.390 . S
C567 H571 0.950 . S
H568 C564 0.950 . S
C569 C567 1.390 . S
C569 C570 1.387 . S
C569 H572 0.950 . S
C570 C569 1.387 . S
C570 C573 1.387 . S
H571 C567 0.950 . S
H572 C569 0.950 . S
C573 C564 1.390 . S
C573 H566 0.950 . S
C573 C570 1.387 . S
C574 C575 1.387 . S
C574 H578 0.950 . S
C574 C583 1.390 . S
C575 C574 1.387 . S
C575 C577 1.387 . S
H576 C583 0.950 . S
C577 C575 1.387 . S
C577 C579 1.390 . S
C577 H581 0.950 . S
H578 C574 0.950 . S
C579 C577 1.390 . S
C579 C580 1.387 . S
C579 H582 0.950 . S
C580 C579 1.387 . S
C580 C583 1.387 . S
H581 C577 0.950 . S
H582 C579 0.950 . S
C583 C574 1.390 . S
C583 H576 0.950 . S
C583 C580 1.387 . S
C584 C585 1.387 . S
C584 H588 0.950 . S
C584 C593 1.390 . S
C585 C584 1.387 . S
C585 C587 1.387 . S
H586 C593 0.950 . S
C587 C585 1.387 . S
C587 C589 1.390 . S
C587 H591 0.950 . S
H588 C584 0.950 . S
C589 C587 1.390 . S
C589 C590 1.387 . S
C589 H592 0.950 . S
C590 C589 1.387 . S
C590 C593 1.387 . S
H591 C587 0.950 . S
H592 C589 0.950 . S
C593 C584 1.390 . S
C593 H586 0.950 . S
C593 C590 1.387 . S
C594 C595 1.387 . S
C594 H598 0.950 . S
C594 C603 1.390 . S
C595 C594 1.387 . S
C595 C597 1.387 . S
H596 C603 0.950 . S
C597 C595 1.387 . S
C597 C599 1.390 . S
C597 H601 0.950 . S
H598 C594 0.950 . S
C599 C597 1.390 . S
C599 C600 1.387 . S
C599 H602 0.950 . S
C600 C599 1.387 . S
C600 C603 1.387 . S
H601 C597 0.950 . S
H602 C599 0.950 . S
C603 C594 1.390 . S
C603 H596 0.950 . S
C603 C600 1.387 . S
C604 C605 1.387 . S
C604 H608 0.950 . S
C604 C613 1.390 . S
C605 C604 1.387 . S
C605 C607 1.387 . S
H606 C613 0.950 . S
C607 C605 1.387 . S
C607 C609 1.390 . S
C607 H611 0.950 . S
H608 C604 0.950 . S
C609 C607 1.390 . S
C609 C610 1.387 . S
C609 H612 0.950 . S
C610 C609 1.387 . S
C610 C613 1.387 . S
H611 C607 0.950 . S
H612 C609 0.950 . S
C613 C604 1.390 . S
C613 H606 0.950 . S
C613 C610 1.387 . S
C614 C615 1.387 . S
C614 H618 0.950 . S
C614 C623 1.390 . S
C615 C614 1.387 . S
C615 C617 1.387 . S
H616 C623 0.950 . S
C617 C615 1.387 . S
C617 C619 1.390 . S
C617 H621 0.950 . S
H618 C614 0.950 . S
C619 C617 1.390 . S
C619 C620 1.387 . S
C619 H622 0.950 . S
C620 C619 1.387 . S
C620 C623 1.387 . S
H621 C617 0.950 . S
H622 C619 0.950 . S
C623 C614 1.390 . S
C623 H616 0.950 . S
C623 C620 1.387 . S
C624 C625 1.387 . S
C624 H628 0.950 . S
C624 C633 1.390 . S
C625 C624 1.387 . S
C625 C627 1.387 . S
H626 C633 0.950 . S
C627 C625 1.387 . S
C627 C629 1.390 . S
C627 H631 0.950 . S
H628 C624 0.950 . S
C629 C627 1.390 . S
C629 C630 1.387 . S
C629 H632 0.950 . S
C630 C629 1.387 . S
C630 C633 1.387 . S
H631 C627 0.950 . S
H632 C629 0.950 . S
C633 C624 1.390 . S
C633 H626 0.950 . S
C633 C630 1.387 . S
C634 C635 1.387 . S
C634 H638 0.950 . S
C634 C643 1.390 . S
C635 C634 1.387 . S
C635 C637 1.387 . S
H636 C643 0.950 . S
C637 C635 1.387 . S
C637 C639 1.390 . S
C637 H641 0.950 . S
H638 C634 0.950 . S
C639 C637 1.390 . S
C639 C640 1.388 . S
C639 H642 0.950 1_545 S
C640 C639 1.388 . S
C640 C643 1.390 . S
H641 C637 0.950 . S
H642 C639 0.950 1_565 S
C643 C634 1.390 . S
C643 H636 0.950 . S
C643 C640 1.390 . S
C644 C645 1.387 . S
C644 H648 0.950 . S
C644 C653 1.390 . S
C645 C644 1.387 . S
C645 C647 1.387 . S
H646 C653 0.950 . S
C647 C645 1.387 . S
C647 C649 1.390 . S
C647 H651 0.950 . S
H648 C644 0.950 . S
C649 C647 1.390 . S
C649 C650 1.387 . S
C649 H652 0.950 . S
C650 C649 1.387 . S
C650 C653 1.387 . S
H651 C647 0.950 . S
H652 C649 0.950 . S
C653 C644 1.390 . S
C653 H646 0.950 . S
C653 C650 1.387 . S
C654 C655 1.387 . S
C654 H658 0.950 . S
C654 C663 1.390 1_565 S
C655 C654 1.387 . S
C655 C657 1.387 . S
H656 C663 0.950 . S
C657 C655 1.387 . S
C657 C659 1.390 . S
C657 H661 0.950 . S
H658 C654 0.950 . S
C659 C657 1.390 . S
C659 C660 1.393 . S
C659 H662 0.950 . S
C660 C659 1.393 . S
C660 C663 1.386 1_565 S
H661 C657 0.950 . S
H662 C659 0.950 . S
C663 C654 1.390 1_545 S
C663 H656 0.950 . S
C663 C660 1.386 1_545 S
C664 C665 1.387 . S
C664 H668 0.950 . S
C664 C673 1.390 . S
C665 C664 1.387 . S
C665 C667 1.387 . S
H666 C673 0.950 . S
C667 C665 1.387 . S
C667 C669 1.390 . S
C667 H671 0.950 . S
H668 C664 0.950 . S
C669 C667 1.390 . S
C669 C670 1.387 . S
C669 H672 0.950 . S
C670 C669 1.387 . S
C670 C673 1.387 . S
H671 C667 0.950 . S
H672 C669 0.950 . S
C673 C664 1.390 . S
C673 H666 0.950 . S
C673 C670 1.387 . S
C674 C675 1.389 . S
C674 H678 0.950 . S
C674 C683 1.390 . S
C675 C674 1.389 . S
C675 C677 1.389 . S
H676 C683 0.950 . S
C677 C675 1.389 . S
C677 C679 1.390 . S
C677 H681 0.950 . S
H678 C674 0.950 . S
C679 C677 1.390 . S
C679 C680 1.387 . S
C679 H682 0.950 . S
C680 C679 1.387 . S
C680 C683 1.387 . S
H681 C677 0.950 . S
H682 C679 0.950 . S
C683 C674 1.390 . S
C683 H676 0.950 . S
C683 C680 1.387 . S
C684 C685 1.387 . S
C684 H688 0.950 . S
C684 C693 1.390 . S
C685 C684 1.387 . S
C685 C687 1.387 . S
H686 C693 0.950 . S
C687 C685 1.387 . S
C687 C689 1.390 . S
C687 H691 0.950 . S
H688 C684 0.950 . S
C689 C687 1.390 . S
C689 C690 1.387 . S
C689 H692 0.950 . S
C690 C689 1.387 . S
C690 C693 1.387 . S
H691 C687 0.950 . S
H692 C689 0.950 . S
C693 C684 1.390 . S
C693 H686 0.950 . S
C693 C690 1.387 . S
C694 C695 1.386 1_545 S
C694 H698 0.950 . S
C694 C703 1.390 1_545 S
C695 C694 1.386 1_565 S
C695 C697 1.393 . S
H696 C703 0.950 . S
C697 C695 1.393 . S
C697 C699 1.390 . S
C697 H701 0.950 . S
H698 C694 0.950 . S
C699 C697 1.390 . S
C699 C700 1.387 . S
C699 H702 0.950 . S
C700 C699 1.387 . S
C700 C703 1.387 . S
H701 C697 0.950 . S
H702 C699 0.950 . S
C703 C694 1.390 1_565 S
C703 H696 0.950 . S
C703 C700 1.387 . S
C704 C705 1.387 . S
C704 H708 0.950 . S
C704 C713 1.390 . S
C705 C704 1.387 . S
C705 C707 1.387 . S
H706 C713 0.950 . S
C707 C705 1.387 . S
C707 C709 1.390 . S
C707 H711 0.950 . S
H708 C704 0.950 . S
C709 C707 1.390 . S
C709 C710 1.387 . S
C709 H712 0.950 . S
C710 C709 1.387 . S
C710 C713 1.387 . S
H711 C707 0.950 . S
H712 C709 0.950 . S
C713 C704 1.390 . S
C713 H706 0.950 . S
C713 C710 1.387 . S
C714 C715 1.387 . S
C714 H718 0.950 . S
C714 C723 1.390 . S
C715 C714 1.387 . S
C715 C717 1.387 . S
H716 C723 0.950 . S
C717 C715 1.387 . S
C717 C719 1.390 . S
C717 H721 0.950 . S
H718 C714 0.950 . S
C719 C717 1.390 . S
C719 C720 1.387 . S
C719 H722 0.950 . S
C720 C719 1.387 . S
C720 C723 1.387 . S
H721 C717 0.950 . S
H722 C719 0.950 . S
C723 C714 1.390 . S
C723 H716 0.950 . S
C723 C720 1.387 . S
C724 C725 1.387 . S
C724 H728 0.950 . S
C724 C733 1.390 . S
C725 C724 1.387 . S
C725 C727 1.387 . S
H726 C733 0.950 . S
C727 C725 1.387 . S
C727 C729 1.390 . S
C727 H731 0.950 . S
H728 C724 0.950 . S
C729 C727 1.390 . S
C729 C730 1.387 . S
C729 H732 0.950 . S
C730 C729 1.387 . S
C730 C733 1.387 . S
H731 C727 0.950 . S
H732 C729 0.950 . S
C733 C724 1.390 . S
C733 H726 0.950 . S
C733 C730 1.387 . S
C734 C735 1.387 . S
C734 H738 0.950 . S
C734 C743 1.390 . S
C735 C734 1.387 . S
C735 C737 1.387 . S
H736 C743 0.950 . S
C737 C735 1.387 . S
C737 C739 1.390 . S
C737 H741 0.950 . S
H738 C734 0.950 . S
C739 C737 1.390 . S
C739 C740 1.387 . S
C739 H742 0.950 . S
C740 C739 1.387 . S
C740 C743 1.387 . S
H741 C737 0.950 . S
H742 C739 0.950 . S
C743 C734 1.390 . S
C743 H736 0.950 . S
C743 C740 1.387 . S
C744 C745 1.387 . S
C744 H748 0.950 . S
C744 C753 1.390 . S
C745 C744 1.387 . S
C745 C747 1.387 . S
H746 C753 0.950 . S
C747 C745 1.387 . S
C747 C749 1.390 . S
C747 H751 0.950 . S
H748 C744 0.950 . S
C749 C747 1.390 . S
C749 C750 1.387 . S
C749 H752 0.950 . S
C750 C749 1.387 . S
C750 C753 1.387 . S
H751 C747 0.950 . S
H752 C749 0.950 . S
C753 C744 1.390 . S
C753 H746 0.950 . S
C753 C750 1.387 . S
C754 C755 1.387 . S
C754 H758 0.950 . S
C754 C763 1.390 . S
C755 C754 1.387 . S
C755 C757 1.387 . S
H756 C763 0.950 . S
C757 C755 1.387 . S
C757 C759 1.390 . S
C757 H761 0.950 . S
H758 C754 0.950 . S
C759 C757 1.390 . S
C759 C760 1.387 . S
C759 H762 0.950 . S
C760 C759 1.387 . S
C760 C763 1.387 . S
H761 C757 0.950 . S
H762 C759 0.950 . S
C763 C754 1.390 . S
C763 H756 0.950 . S
C763 C760 1.387 . S
C764 C765 1.387 . S
C764 H768 0.950 . S
C764 C773 1.390 . S
C765 C764 1.387 . S
C765 C767 1.387 . S
H766 C773 0.950 . S
C767 C765 1.387 . S
C767 C769 1.390 . S
C767 H771 0.950 . S
H768 C764 0.950 . S
C769 C767 1.390 . S
C769 C770 1.387 . S
C769 H772 0.950 . S
C770 C769 1.387 . S
C770 C773 1.387 . S
H771 C767 0.950 . S
H772 C769 0.950 . S
C773 C764 1.390 . S
C773 H766 0.950 . S
C773 C770 1.387 . S
C774 C775 1.387 . S
C774 H778 0.950 . S
C774 C783 1.390 . S
C775 C774 1.387 . S
C775 C777 1.387 . S
H776 C783 0.950 . S
C777 C775 1.387 . S
C777 C779 1.390 . S
C777 H781 0.950 . S
H778 C774 0.950 . S
C779 C777 1.390 . S
C779 C780 1.387 . S
C779 H782 0.950 . S
C780 C779 1.387 . S
C780 C783 1.387 . S
H781 C777 0.950 . S
H782 C779 0.950 . S
C783 C774 1.390 . S
C783 H776 0.950 . S
C783 C780 1.387 . S
C784 C785 1.387 . S
C784 H788 0.950 . S
C784 C793 1.390 . S
C785 C784 1.387 . S
C785 C787 1.387 . S
H786 C793 0.950 . S
C787 C785 1.387 . S
C787 C789 1.390 . S
C787 H791 0.950 . S
H788 C784 0.950 . S
C789 C787 1.390 . S
C789 C790 1.387 . S
C789 H792 0.950 . S
C790 C789 1.387 . S
C790 C793 1.387 . S
H791 C787 0.950 . S
H792 C789 0.950 . S
C793 C784 1.390 . S
C793 H786 0.950 . S
C793 C790 1.387 . S
C794 C795 1.387 . S
C794 H798 0.950 . S
C794 C803 1.390 . S
C795 C794 1.387 . S
C795 C797 1.387 . S
H796 C803 0.950 . S
C797 C795 1.387 . S
C797 C799 1.390 . S
C797 H801 0.950 . S
H798 C794 0.950 . S
C799 C797 1.390 . S
C799 C800 1.387 . S
C799 H802 0.950 . S
C800 C799 1.387 . S
C800 C803 1.387 . S
H801 C797 0.950 . S
H802 C799 0.950 . S
C803 C794 1.390 . S
C803 H796 0.950 . S
C803 C800 1.387 . S
C804 C805 1.387 . S
C804 H808 0.950 . S
C804 C813 1.390 . S
C805 C804 1.387 . S
C805 C807 1.387 . S
H806 C813 0.950 . S
C807 C805 1.387 . S
C807 C809 1.390 . S
C807 H811 0.950 . S
H808 C804 0.950 . S
C809 C807 1.390 . S
C809 C810 1.387 . S
C809 H812 0.950 . S
C810 C809 1.387 . S
C810 C813 1.387 . S
H811 C807 0.950 . S
H812 C809 0.950 . S
C813 C804 1.390 . S
C813 H806 0.950 . S
C813 C810 1.387 . S
C814 C815 1.387 . S
C814 H818 0.950 . S
C814 C823 1.390 . S
C815 C814 1.387 . S
C815 C817 1.387 . S
H816 C823 0.950 . S
C817 C815 1.387 . S
C817 C819 1.390 . S
C817 H821 0.950 . S
H818 C814 0.950 . S
C819 C817 1.390 . S
C819 C820 1.387 . S
C819 H822 0.950 . S
C820 C819 1.387 . S
C820 C823 1.387 . S
H821 C817 0.950 . S
H822 C819 0.950 . S
C823 C814 1.390 . S
C823 H816 0.950 . S
C823 C820 1.387 . S
C824 C825 1.387 . S
C824 H828 0.950 . S
C824 C833 1.390 . S
C825 C824 1.387 . S
C825 C827 1.387 . S
H826 C833 0.950 . S
C827 C825 1.387 . S
C827 C829 1.390 . S
C827 H831 0.950 . S
H828 C824 0.950 . S
C829 C827 1.390 . S
C829 C830 1.387 . S
C829 H832 0.950 . S
C830 C829 1.387 . S
C830 C833 1.387 . S
H831 C827 0.950 . S
H832 C829 0.950 . S
C833 C824 1.390 . S
C833 H826 0.950 . S
C833 C830 1.387 . S
C834 C835 1.387 . S
C834 H838 0.950 . S
C834 C843 1.390 . S
C835 C834 1.387 . S
C835 C837 1.387 . S
H836 C843 0.950 . S
C837 C835 1.387 . S
C837 C839 1.390 . S
C837 H841 0.950 . S
H838 C834 0.950 . S
C839 C837 1.390 . S
C839 C840 1.387 . S
C839 H842 0.950 . S
C840 C839 1.387 . S
C840 C843 1.387 . S
H841 C837 0.950 . S
H842 C839 0.950 . S
C843 C834 1.390 . S
C843 H836 0.950 . S
C843 C840 1.387 . S
C844 C845 1.387 . S
C844 H848 0.950 . S
C844 C853 1.390 . S
C845 C844 1.387 . S
C845 C847 1.387 . S
H846 C853 0.950 . S
C847 C845 1.387 . S
C847 C849 1.390 . S
C847 H851 0.950 . S
H848 C844 0.950 . S
C849 C847 1.390 . S
C849 C850 1.387 . S
C849 H852 0.950 . S
C850 C849 1.387 . S
C850 C853 1.387 . S
H851 C847 0.950 . S
H852 C849 0.950 . S
C853 C844 1.390 . S
C853 H846 0.950 . S
C853 C850 1.387 . S
C854 C855 1.387 . S
C854 H858 0.950 . S
C854 C863 1.390 . S
C855 C854 1.387 . S
C855 C857 1.387 . S
H856 C863 0.950 . S
C857 C855 1.387 . S
C857 C859 1.390 . S
C857 H861 0.950 . S
H858 C854 0.950 . S
C859 C857 1.390 . S
C859 C860 1.387 . S
C859 H862 0.950 . S
C860 C859 1.387 . S
C860 C863 1.387 . S
H861 C857 0.950 . S
H862 C859 0.950 . S
C863 C854 1.390 . S
C863 H856 0.950 . S
C863 C860 1.387 . S
C864 C865 1.387 . S
C864 H868 0.950 . S
C864 C873 1.390 . S
C865 C864 1.387 . S
C865 C867 1.387 . S
H866 C873 0.950 . S
C867 C865 1.387 . S
C867 C869 1.390 . S
C867 H871 0.950 . S
H868 C864 0.950 . S
C869 C867 1.390 . S
C869 C870 1.387 . S
C869 H872 0.950 1_565 S
C870 C869 1.387 . S
C870 C873 1.387 . S
H871 C867 0.950 . S
H872 C869 0.950 1_545 S
C873 C864 1.390 . S
C873 H866 0.950 . S
C873 C870 1.387 . S
C874 C875 1.387 . S
C874 H878 0.950 . S
C874 C883 1.390 . S
C875 C874 1.387 . S
C875 C877 1.387 . S
H876 C883 0.950 . S
C877 C875 1.387 . S
C877 C879 1.390 . S
C877 H881 0.950 1_565 S
H878 C874 0.950 . S
C879 C877 1.390 . S
C879 C880 1.387 . S
C879 H882 0.950 . S
C880 C879 1.387 . S
C880 C883 1.387 . S
H881 C877 0.950 1_545 S
H882 C879 0.950 . S
C883 C874 1.390 . S
C883 H876 0.950 . S
C883 C880 1.387 . S
C884 C885 1.387 . S
C884 H888 0.950 . S
C884 C893 1.390 . S
C885 C884 1.387 . S
C885 C887 1.387 . S
H886 C893 0.950 1_565 S
C887 C885 1.387 . S
C887 C889 1.390 . S
C887 H891 0.950 . S
H888 C884 0.950 . S
C889 C887 1.390 . S
C889 C890 1.387 . S
C889 H892 0.950 . S
C890 C889 1.387 . S
C890 C893 1.387 . S
H891 C887 0.950 . S
H892 C889 0.950 . S
C893 C884 1.390 . S
C893 H886 0.950 1_545 S
C893 C890 1.387 . S
C894 C895 1.387 . S
C894 H898 0.950 . S
C894 C903 1.390 . S
C895 C894 1.387 . S
C895 C897 1.387 . S
H896 C903 0.950 . S
C897 C895 1.387 . S
C897 C899 1.390 . S
C897 H901 0.950 . S
H898 C894 0.950 . S
C899 C897 1.390 . S
C899 C900 1.387 . S
C899 H902 0.950 1_545 S
C900 C899 1.387 . S
C900 C903 1.387 . S
H901 C897 0.950 . S
H902 C899 0.950 1_565 S
C903 C894 1.390 . S
C903 H896 0.950 . S
C903 C900 1.387 . S
C904 C905 1.387 . S
C904 H908 0.950 . S
C904 C913 1.390 . S
C905 C904 1.387 . S
C905 C907 1.387 . S
H906 C913 0.950 . S
C907 C905 1.387 . S
C907 C909 1.390 . S
C907 H911 0.950 . S
H908 C904 0.950 . S
C909 C907 1.390 . S
C909 C910 1.387 . S
C909 H912 0.950 . S
C910 C909 1.387 . S
C910 C913 1.387 . S
H911 C907 0.950 . S
H912 C909 0.950 . S
C913 C904 1.390 . S
C913 H906 0.950 . S
C913 C910 1.387 . S
C914 C915 1.387 . S
C914 H918 0.950 . S
C914 C923 1.390 . S
C915 C914 1.387 . S
C915 C917 1.387 . S
H916 C923 0.950 . S
C917 C915 1.387 . S
C917 C919 1.390 . S
C917 H921 0.950 . S
H918 C914 0.950 . S
C919 C917 1.390 . S
C919 C920 1.387 . S
C919 H922 0.950 . S
C920 C919 1.387 . S
C920 C923 1.387 . S
H921 C917 0.950 . S
H922 C919 0.950 . S
C923 C914 1.390 . S
C923 H916 0.950 . S
C923 C920 1.387 . S
C924 C925 1.387 . S
C924 H928 0.950 . S
C924 C933 1.390 . S
C925 C924 1.387 . S
C925 C927 1.387 . S
H926 C933 0.950 . S
C927 C925 1.387 . S
C927 C929 1.390 . S
C927 H931 0.950 . S
H928 C924 0.950 . S
C929 C927 1.390 . S
C929 C930 1.387 . S
C929 H932 0.950 . S
C930 C929 1.387 . S
C930 C933 1.387 . S
H931 C927 0.950 . S
H932 C929 0.950 . S
C933 C924 1.390 . S
C933 H926 0.950 . S
C933 C930 1.387 . S
C934 C935 1.387 . S
C934 H938 0.950 . S
C934 C943 1.390 . S
C935 C934 1.387 . S
C935 C937 1.387 . S
H936 C943 0.950 . S
C937 C935 1.387 . S
C937 C939 1.390 . S
C937 H941 0.950 . S
H938 C934 0.950 . S
C939 C937 1.390 . S
C939 C940 1.387 . S
C939 H942 0.950 . S
C940 C939 1.387 . S
C940 C943 1.387 . S
H941 C937 0.950 . S
H942 C939 0.950 . S
C943 C934 1.390 . S
C943 H936 0.950 . S
C943 C940 1.387 . S
C944 C945 1.387 . S
C944 H948 0.950 . S
C944 C953 1.390 . S
C945 C944 1.387 . S
C945 C947 1.387 . S
H946 C953 0.950 . S
C947 C945 1.387 . S
C947 C949 1.390 . S
C947 H951 0.950 . S
H948 C944 0.950 . S
C949 C947 1.390 . S
C949 C950 1.387 . S
C949 H952 0.950 . S
C950 C949 1.387 . S
C950 C953 1.387 . S
H951 C947 0.950 . S
H952 C949 0.950 . S
C953 C944 1.390 . S
C953 H946 0.950 . S
C953 C950 1.387 . S
C954 C955 1.387 . S
C954 H958 0.950 . S
C954 C963 1.390 . S
C955 C954 1.387 . S
C955 C957 1.387 . S
H956 C963 0.950 . S
C957 C955 1.387 . S
C957 C959 1.390 . S
C957 H961 0.950 . S
H958 C954 0.950 . S
C959 C957 1.390 . S
C959 C960 1.387 . S
C959 H962 0.950 . S
C960 C959 1.387 . S
C960 C963 1.387 . S
H961 C957 0.950 . S
H962 C959 0.950 . S
C963 C954 1.390 . S
C963 H956 0.950 . S
C963 C960 1.387 . S
C964 C965 1.387 . S
C964 H968 0.950 . S
C964 C973 1.390 . S
C965 C964 1.387 . S
C965 C967 1.387 . S
H966 C973 0.950 . S
C967 C965 1.387 . S
C967 C969 1.390 . S
C967 H971 0.950 . S
H968 C964 0.950 . S
C969 C967 1.390 . S
C969 C970 1.387 . S
C969 H972 0.950 . S
C970 C969 1.387 . S
C970 C973 1.387 . S
H971 C967 0.950 . S
H972 C969 0.950 . S
C973 C964 1.390 . S
C973 H966 0.950 . S
C973 C970 1.387 . S
C974 C975 1.387 . S
C974 H978 0.950 . S
C974 C983 1.390 . S
C975 C974 1.387 . S
C975 C977 1.387 . S
H976 C983 0.950 . S
C977 C975 1.387 . S
C977 C979 1.390 . S
C977 H981 0.950 . S
H978 C974 0.950 . S
C979 C977 1.390 . S
C979 C980 1.387 . S
C979 H982 0.950 . S
C980 C979 1.387 . S
C980 C983 1.387 . S
H981 C977 0.950 . S
H982 C979 0.950 . S
C983 C974 1.390 . S
C983 H976 0.950 . S
C983 C980 1.387 . S
C984 C985 1.387 . S
C984 H988 0.950 . S
C984 C993 1.390 . S
C985 C984 1.387 . S
C985 C987 1.387 . S
H986 C993 0.950 . S
C987 C985 1.387 . S
C987 C989 1.390 . S
C987 H991 0.950 . S
H988 C984 0.950 . S
C989 C987 1.390 . S
C989 C990 1.387 . S
C989 H992 0.950 . S
C990 C989 1.387 . S
C990 C993 1.387 . S
H991 C987 0.950 . S
H992 C989 0.950 . S
C993 C984 1.390 . S
C993 H986 0.950 . S
C993 C990 1.387 . S
C994 C995 1.387 . S
C994 H998 0.950 . S
C994 C1003 1.390 . S
C995 C994 1.387 . S
C995 C997 1.387 . S
H996 C1003 0.950 . S
C997 C995 1.387 . S
C997 C999 1.390 . S
C997 H1001 0.950 . S
H998 C994 0.950 . S
C999 C997 1.390 . S
C999 C1000 1.387 . S
C999 H1002 0.950 . S
C1000 C999 1.387 . S
C1000 C1003 1.387 . S
H1001 C997 0.950 . S
H1002 C999 0.950 . S
C1003 C994 1.390 . S
C1003 H996 0.950 . S
C1003 C1000 1.387 . S
C1004 C1005 1.387 . S
C1004 H1008 0.950 . S
C1004 C1013 1.390 . S
C1005 C1004 1.387 . S
C1005 C1007 1.387 . S
H1006 C1013 0.950 . S
C1007 C1005 1.387 . S
C1007 C1009 1.390 . S
C1007 H1011 0.950 . S
H1008 C1004 0.950 . S
C1009 C1007 1.390 . S
C1009 C1010 1.387 . S
C1009 H1012 0.950 . S
C1010 C1009 1.387 . S
C1010 C1013 1.387 . S
H1011 C1007 0.950 . S
H1012 C1009 0.950 . S
C1013 C1004 1.390 . S
C1013 H1006 0.950 . S
C1013 C1010 1.387 . S
C1014 C1015 1.387 . S
C1014 H1018 0.950 . S
C1014 C1023 1.390 . S
C1015 C1014 1.387 . S
C1015 C1017 1.387 . S
H1016 C1023 0.950 . S
C1017 C1015 1.387 . S
C1017 C1019 1.390 . S
C1017 H1021 0.950 . S
H1018 C1014 0.950 . S
C1019 C1017 1.390 . S
C1019 C1020 1.387 . S
C1019 H1022 0.950 . S
C1020 C1019 1.387 . S
C1020 C1023 1.387 . S
H1021 C1017 0.950 . S
H1022 C1019 0.950 . S
C1023 C1014 1.390 . S
C1023 H1016 0.950 . S
C1023 C1020 1.387 . S
C465 C137 1.502 . S
C470 C21 1.502 . S
C475 C50 1.496 . S
C480 C166 1.496 . S
C485 C195 1.502 . S
C490 C79 1.502 . S
C495 C224 1.499 . S
C500 C108 1.499 . S
C505 C311 1.502 . S
C510 C253 1.502 . S
C515 C282 1.496 . S
C520 C340 1.496 . S
C525 C427 1.496 . S
C530 C369 1.496 . S
C535 C398 1.496 . S
C540 C456 1.496 . S
C545 C100 2.051 . S
C550 C5 2.063 . S
C555 C13 2.050 . S
C560 C34 2.062 . S
C565 C42 2.051 . S
C570 C63 2.061 . S
C575 C92 2.063 . S
C580 C71 2.050 . S
C585 C158 2.051 . S
C590 C121 2.061 . S
C595 C187 2.052 . S
C600 C150 2.063 . S
C605 C216 2.052 . S
C610 C179 2.062 . S
C615 C129 2.050 . S
C620 C208 2.062 . S
C625 C124 1.307 . S
C630 C276 1.336 . S
C635 C240 1.302 . S
C640 C131 1.339 1_545 S
C645 C182 1.301 . S
C650 C247 1.340 . S
C655 C269 1.302 . S
C660 C189 1.334 1_565 S
C665 C305 1.336 . S
C670 C8 1.304 . S
C675 C73 1.339 1_545 S
C680 C298 1.301 . S
C685 C334 1.336 . S
C690 C66 1.306 . S
C695 C15 1.334 1_565 S
C700 C327 1.302 . S
C705 C332 2.050 . S
C710 C353 2.063 . S
C715 C361 2.051 . S
C720 C295 2.063 . S
C725 C382 2.062 . S
C730 C303 2.050 . S
C735 C324 2.062 . S
C740 C390 2.050 . S
C745 C411 2.062 . S
C750 C245 2.052 . S
C755 C448 2.050 . S
C760 C237 2.061 . S
C765 C274 2.051 . S
C770 C440 2.063 . S
C775 C419 2.050 . S
C780 C266 2.063 . S
C785 C218 1.336 . S
C790 C414 1.307 . S
C795 C421 1.339 . S
C800 C153 1.301 . S
C805 C443 1.304 . S
C810 C160 1.336 . S
C815 C211 1.302 . S
C820 C450 1.337 . S
C825 C44 1.337 . S
C830 C356 1.307 . S
C835 C37 1.307 . S
C840 C392 1.336 . S
C845 C385 1.306 . S
C850 C102 1.336 . S
C855 C363 1.338 . S
C860 C95 1.301 . S
C865 C148 0.845 . S
C870 C3 0.847 . S
C875 C177 0.848 . S
C880 C32 0.843 . S
C885 C206 0.847 . S
C890 C61 0.842 . S
C895 C90 0.843 . S
C900 C119 0.848 . S
C905 C126 3.201 1_545 S
C910 C300 3.201 . S
C915 C242 3.201 . S
C920 C68 3.199 1_545 S
C925 C329 3.200 . S
C930 C184 3.201 1_565 S
C935 C10 3.201 1_565 S
C940 C271 3.200 . S
C945 C351 0.846 . S
C950 C235 0.843 . S
C955 C293 0.842 . S
C960 C438 0.847 . S
C965 C380 0.847 . S
C970 C264 0.842 . S
C975 C409 0.848 . S
C980 C322 0.845 . S
C985 C39 3.201 . S
C990 C416 3.200 . S
C995 C387 3.201 . S
C1000 C155 3.200 . S
C1005 C97 3.200 . S
C1010 C445 3.199 . S
C1015 C213 3.200 . S
C1020 C358 3.201 . S
