# Generated by pormake.
# Topology vmq, (7)-cn, num edge types: 1
# Building blocks:
#     Node 0, Type 0, BuildingBlock: HICVOG_clean_sbu_0, # of connection points: 7
#     Node 1, Type 0, BuildingBlock: HICVOG_clean_sbu_0, # of connection points: 7
#     Node 2, Type 0, BuildingBlock: HICVOG_clean_sbu_0, # of connection points: 7
#     Node 3, Type 0, BuildingBlock: HICVOG_clean_sbu_0, # of connection points: 7
#     Node 4, Type 0, BuildingBlock: HICVOG_clean_sbu_0, # of connection points: 7
#     Node 5, Type 0, BuildingBlock: HICVOG_clean_sbu_0, # of connection points: 7
#     Node 6, Type 0, BuildingBlock: HICVOG_clean_sbu_0, # of connection points: 7
#     Node 7, Type 0, BuildingBlock: HICVOG_clean_sbu_0, # of connection points: 7
#     Edge 8, Type (0, 0), BuildingBlock: OJICUG_clean_linker_0, # of connection points: 2
#     Edge 9, Type (0, 0), BuildingBlock: OJICUG_clean_linker_0, # of connection points: 2
#     Edge 10, Type (0, 0), BuildingBlock: OJICUG_clean_linker_0, # of connection points: 2
#     Edge 11, Type (0, 0), BuildingBlock: OJICUG_clean_linker_0, # of connection points: 2
#     Edge 12, Type (0, 0), BuildingBlock: OJICUG_clean_linker_0, # of connection points: 2
#     Edge 13, Type (0, 0), BuildingBlock: OJICUG_clean_linker_0, # of connection points: 2
#     Edge 14, Type (0, 0), BuildingBlock: OJICUG_clean_linker_0, # of connection points: 2
#     Edge 15, Type (0, 0), BuildingBlock: OJICUG_clean_linker_0, # of connection points: 2
#     Edge 16, Type (0, 0), BuildingBlock: OJICUG_clean_linker_0, # of connection points: 2
#     Edge 17, Type (0, 0), BuildingBlock: OJICUG_clean_linker_0, # of connection points: 2
#     Edge 18, Type (0, 0), BuildingBlock: OJICUG_clean_linker_0, # of connection points: 2
#     Edge 19, Type (0, 0), BuildingBlock: OJICUG_clean_linker_0, # of connection points: 2
#     Edge 20, Type (0, 0), BuildingBlock: OJICUG_clean_linker_0, # of connection points: 2
#     Edge 21, Type (0, 0), BuildingBlock: OJICUG_clean_linker_0, # of connection points: 2
#     Edge 22, Type (0, 0), BuildingBlock: OJICUG_clean_linker_0, # of connection points: 2
#     Edge 23, Type (0, 0), BuildingBlock: OJICUG_clean_linker_0, # of connection points: 2
#     Edge 24, Type (0, 0), BuildingBlock: OJICUG_clean_linker_0, # of connection points: 2
#     Edge 25, Type (0, 0), BuildingBlock: OJICUG_clean_linker_0, # of connection points: 2
#     Edge 26, Type (0, 0), BuildingBlock: OJICUG_clean_linker_0, # of connection points: 2
#     Edge 27, Type (0, 0), BuildingBlock: OJICUG_clean_linker_0, # of connection points: 2
#     Edge 28, Type (0, 0), BuildingBlock: OJICUG_clean_linker_0, # of connection points: 2
#     Edge 29, Type (0, 0), BuildingBlock: OJICUG_clean_linker_0, # of connection points: 2
#     Edge 30, Type (0, 0), BuildingBlock: OJICUG_clean_linker_0, # of connection points: 2
#     Edge 31, Type (0, 0), BuildingBlock: OJICUG_clean_linker_0, # of connection points: 2
#     Edge 32, Type (0, 0), BuildingBlock: OJICUG_clean_linker_0, # of connection points: 2
#     Edge 33, Type (0, 0), BuildingBlock: OJICUG_clean_linker_0, # of connection points: 2
#     Edge 34, Type (0, 0), BuildingBlock: OJICUG_clean_linker_0, # of connection points: 2
#     Edge 35, Type (0, 0), BuildingBlock: OJICUG_clean_linker_0, # of connection points: 2
# Relax obj value: 0.332
# Max RMSD: 0.280
# Mean RMSD: 0.280
data_MOF--net-vmq--node1-HICVOG_clean_sbu_0--edge1-OJICUG_clean_linker_0
_symmetry_space_group_name_H-M    P1
_symmetry_Int_Tables_number       1
_symmetry_cell_setting            triclinic
loop_
_symmetry_equiv_pos_as_xyz
'x, y, z'
_cell_length_a     36.698057
_cell_length_b     15.290767
_cell_length_c     27.431462
_cell_angle_alpha  90.022728
_cell_angle_beta   107.87261
_cell_angle_gamma 89.709421
loop_
_atom_site_label
_atom_site_type_symbol
_atom_site_fract_x
_atom_site_fract_y
_atom_site_fract_z
_atom_type_partial_charge
Zn0 Zn 0.4346 0.16871 0.11958 0.0
C1 C 0.49129 0.99762 0.05755 0.0
N2 N 0.51562 0.99248 0.10486 0.0
C3 C 0.4988 0.04072 0.13248 0.0
N4 N 0.46475 0.07406 0.10333 0.0
N5 N 0.45972 0.04416 0.05642 0.0
C6 C 0.39413 1.00683 0.89315 0.0
O7 O 0.36055 0.03494 0.89446 0.0
O8 O 0.42711 0.14498 0.18943 0.0
Zn9 Zn 0.41134 0.02674 0.00301 0.0
N10 N 0.46118 0.27928 0.11615 0.0
C11 C 0.51677 0.35185 0.10944 0.0
C12 C 0.49795 0.27551 0.11484 0.0
C13 C 0.44195 0.35719 0.10993 0.0
N14 N 0.49766 0.42911 0.1032 0.0
C15 C 0.46048 0.43472 0.10255 0.0
O16 O 0.37192 0.12494 -0.00669 0.0
C17 C 0.36117 0.17462 0.02371 0.0
O18 O 0.38188 0.18651 0.06976 0.0
H19 H 0.5127 0.21369 0.11757 0.0
H20 H 0.41254 0.35797 0.11014 0.0
C21 C 0.40623 0.8474 0.03616 0.0
C22 C 0.38695 0.7744 0.04792 0.0
C23 C 0.32986 0.85934 0.02857 0.0
C24 C 0.34905 0.93095 0.01713 0.0
N25 N 0.38681 0.92396 0.02113 0.0
N26 N 0.34912 0.78317 0.04351 0.0
H27 H 0.43597 0.84343 0.03765 0.0
C28 C 0.40777 0.07883 0.1947 0.0
O29 O 0.3912 0.03071 0.15435 0.0
O30 O 0.42112 0.99912 0.93512 0.0
H31 H 0.33372 0.99146 0.00467 0.0
H32 H 0.54616 0.34957 0.10907 0.0
H33 H 0.29977 0.86402 0.02534 0.0
Zn34 Zn 0.65625 0.06004 0.47481 0.0
C35 C 0.5735 0.08241 0.34355 0.0
N36 N 0.55247 0.03831 0.36708 0.0
C37 C 0.57484 0.0396 0.41588 0.0
N38 N 0.6083 0.08146 0.42165 0.0
N39 N 0.60685 0.11003 0.37572 0.0
C40 C 0.66111 0.1208 0.28172 0.0
O41 O 0.68218 0.07994 0.32297 0.0
O42 O 0.64799 0.0296 0.5432 0.0
Zn43 Zn 0.63584 0.20328 0.35884 0.0
N44 N 0.68032 0.95797 0.45449 0.0
C45 C 0.73658 0.89449 0.44323 0.0
C46 C 0.71768 0.96534 0.45652 0.0
C47 C 0.66105 0.88162 0.43972 0.0
N48 N 0.71752 0.81845 0.42873 0.0
C49 C 0.68013 0.80923 0.42639 0.0
O50 O 0.68935 0.21677 0.40725 0.0
C51 C 0.70842 0.20409 0.45405 0.0
O52 O 0.69575 0.15699 0.48367 0.0
H53 H 0.73298 0.02549 0.46885 0.0
H54 H 0.63164 0.87724 0.4397 0.0
C55 C 0.62764 0.39143 0.36777 0.0
C56 C 0.6086 0.46893 0.37474 0.0
C57 C 0.5531 0.38543 0.36926 0.0
C58 C 0.57246 0.30919 0.36432 0.0
N59 N 0.60906 0.31327 0.36259 0.0
N60 N 0.57157 0.46298 0.3746 0.0
H61 H 0.65691 0.39241 0.36703 0.0
C62 C 0.66684 0.06676 0.58475 0.0
O63 O 0.6911 0.12872 0.58315 0.0
O64 O 0.63833 0.18079 0.28666 0.0
H65 H 0.55846 0.24726 0.36307 0.0
H66 H 0.76631 0.89957 0.4448 0.0
H67 H 0.52385 0.38283 0.37016 0.0
Zn68 Zn 0.63626 0.85657 0.85908 0.0
C69 C 0.57809 0.02524 0.92019 0.0
N70 N 0.55461 0.03249 0.87246 0.0
C71 C 0.57216 0.98583 0.84502 0.0
N72 N 0.60578 0.95132 0.87474 0.0
N73 N 0.60978 0.97879 0.92183 0.0
C74 C 0.67574 0.02078 0.08429 0.0
O75 O 0.70941 0.99473 0.08221 0.0
O76 O 0.64374 0.88072 0.78924 0.0
Zn77 Zn 0.65782 0.99772 0.97502 0.0
N78 N 0.6091 0.74669 0.86261 0.0
C79 C 0.55262 0.67792 0.86917 0.0
C80 C 0.57211 0.75261 0.86288 0.0
C81 C 0.62781 0.66805 0.87048 0.0
N82 N 0.5712 0.60003 0.87708 0.0
C83 C 0.60846 0.59214 0.87839 0.0
O84 O 0.6974 0.90039 0.98528 0.0
C85 C 0.70927 0.85176 0.95548 0.0
O86 O 0.68942 0.83955 0.90902 0.0
H87 H 0.5577 0.81495 0.85898 0.0
H88 H 0.65776 0.66584 0.87281 0.0
C89 C 0.6621 0.17676 0.9421 0.0
C90 C 0.6806 0.25013 0.92925 0.0
C91 C 0.73731 0.16492 0.9439 0.0
C92 C 0.71904 0.09336 0.9572 0.0
N93 N 0.6818 0.1003 0.95591 0.0
N94 N 0.7178 0.24118 0.93039 0.0
H95 H 0.63239 0.17939 0.94083 0.0
C96 C 0.65664 0.95534 0.7825 0.0
O97 O 0.66676 1.01002 0.82125 0.0
O98 O 0.64815 0.02619 0.04281 0.0
H99 H 0.73458 0.0328 0.96855 0.0
H100 H 0.52313 0.68204 0.86896 0.0
H101 H 0.76689 0.16013 0.94461 0.0
Zn102 Zn 0.43593 0.82222 0.62001 0.0
C103 C 0.49526 0.98712 0.56079 0.0
N104 N 0.51808 0.98902 0.60936 0.0
C105 C 0.49783 0.94382 0.6335 0.0
N106 N 0.46446 0.91509 0.60191 0.0
N107 N 0.46218 0.94397 0.55573 0.0
C108 C 0.39491 0.97784 0.39269 0.0
O109 O 0.36311 0.94128 0.39477 0.0
O110 O 0.43357 0.84623 0.6922 0.0
Zn111 Zn 0.41366 0.96482 0.50321 0.0
N112 N 0.46259 0.71187 0.61649 0.0
C113 C 0.51831 0.63919 0.60941 0.0
C114 C 0.49911 0.71563 0.61446 0.0
C115 C 0.44387 0.63385 0.61132 0.0
N116 N 0.49971 0.5618 0.60411 0.0
C117 C 0.4627 0.55616 0.60413 0.0
O118 O 0.37411 0.86778 0.4953 0.0
C119 C 0.36251 0.81998 0.52569 0.0
O120 O 0.38254 0.80753 0.57209 0.0
H121 H 0.51312 0.77749 0.61544 0.0
H122 H 0.41461 0.63313 0.61213 0.0
C123 C 0.40938 0.14385 0.53822 0.0
C124 C 0.39035 0.2167 0.55123 0.0
C125 C 0.33354 0.13245 0.53344 0.0
C126 C 0.3524 0.06115 0.52053 0.0
N127 N 0.3899 0.06779 0.52318 0.0
N128 N 0.35281 0.20816 0.54824 0.0
H129 H 0.4389 0.14764 0.53871 0.0
C130 C 0.41089 0.90676 0.69676 0.0
O131 O 0.39006 0.94738 0.65527 0.0
O132 O 0.42131 0.99301 0.43432 0.0
H133 H 0.33697 1.00119 0.50801 0.0
H134 H 0.54751 0.64153 0.60831 0.0
H135 H 0.30369 0.12796 0.53135 0.0
Zn136 Zn 0.93492 0.7002 0.12519 0.0
C137 C 0.99698 0.53701 0.06918 0.0
N138 N 1.01782 0.53071 0.11858 0.0
C139 C 0.99608 0.57366 0.14177 0.0
N140 N 0.9638 0.60566 0.1089 0.0
N141 N 0.96369 0.58084 0.06282 0.0
C142 C 0.89793 0.53122 0.90023 0.0
O143 O 0.86411 0.55456 0.90302 0.0
O144 O 0.9323 0.67818 0.19754 0.0
Zn145 Zn 0.91626 0.55989 0.00873 0.0
N146 N 0.96189 0.8091 0.12086 0.0
C147 C 1.01785 0.87798 0.11284 0.0
C148 C 0.99829 0.80293 0.11852 0.0
C149 C 0.94362 0.88817 0.11543 0.0
N150 N 0.99972 0.95644 0.10733 0.0
C151 C 0.96284 0.96448 0.10769 0.0
O152 O 0.87595 0.65759 -0.00107 0.0
C153 C 0.8629 0.70374 0.02881 0.0
O154 O 0.88167 0.71471 0.07588 0.0
H155 H 1.01195 0.74016 0.1198 0.0
H156 H 0.91443 0.89079 0.1165 0.0
C157 C 0.91149 0.38008 0.04265 0.0
C158 C 0.89225 0.30774 0.05534 0.0
C159 C 0.83575 0.3943 0.0382 0.0
C160 C 0.85479 0.46502 0.02556 0.0
N161 N 0.89225 0.45706 0.02806 0.0
N162 N 0.85478 0.31776 0.05255 0.0
H163 H 0.94099 0.37524 0.04309 0.0
C164 C 0.91023 0.61723 0.20268 0.0
O165 O 0.88957 0.57596 0.16151 0.0
O166 O 0.92619 0.53037 0.94114 0.0
H167 H 0.83951 0.52558 0.01338 0.0
H168 H 0.04696 0.87373 0.11149 0.0
H169 H 0.80594 0.39992 0.03627 0.0
Zn170 Zn 0.13549 0.66686 0.36418 0.0
C171 C 0.08126 0.49358 0.42774 0.0
N172 N 0.05593 0.49 0.38113 0.0
C173 C 0.07172 0.5393 0.35298 0.0
N174 N 0.10596 0.57229 0.38121 0.0
N175 N 0.11216 0.5412 0.42812 0.0
C176 C 0.16199 0.54581 0.5844 0.0
O177 O 0.17325 0.62473 0.57694 0.0
O178 O 0.14217 0.64469 0.29404 0.0
Zn179 Zn 0.16146 0.52103 0.47876 0.0
N180 N 0.10867 0.77704 0.36795 0.0
C181 C 0.05354 0.85079 0.37624 0.0
C182 C 0.07222 0.77396 0.37045 0.0
C183 C 0.12769 0.85454 0.37299 0.0
N184 N 0.07251 0.92772 0.38151 0.0
C185 C 0.10937 0.93252 0.38075 0.0
O186 O 0.20027 0.61778 0.48791 0.0
C187 C 0.21023 0.66978 0.45813 0.0
O188 O 0.18887 0.68443 0.41267 0.0
H189 H 0.05765 0.71238 0.36836 0.0
H190 H 0.15679 0.85455 0.37153 0.0
C191 C 0.16534 0.34319 0.44389 0.0
C192 C 0.18338 0.27078 0.42887 0.0
C193 C 0.23933 0.35617 0.44078 0.0
C194 C 0.22135 0.42735 0.45546 0.0
N195 N 0.18477 0.41972 0.45682 0.0
N196 N 0.22007 0.27989 0.42803 0.0
H197 H 0.13659 0.33874 0.44648 0.0
C198 C 0.16505 0.58502 0.28919 0.0
O199 O 0.18496 0.54141 0.33003 0.0
O200 O 0.15484 0.4909 0.54785 0.0
H201 H 0.23668 0.48799 0.46608 0.0
H202 H 1.02441 0.84915 0.37764 0.0
H203 H 0.26848 0.3613 0.43975 0.0
Zn204 Zn 0.13595 0.34735 0.86392 0.0
C205 C 0.0821 0.52164 0.92948 0.0
N206 N 0.05654 0.5257 0.88314 0.0
C207 C 0.07196 0.4758 0.85471 0.0
N208 N 0.1062 0.44135 0.88261 0.0
N209 N 0.11281 0.47256 0.92963 0.0
C210 C 0.1818 0.49967 0.09116 0.0
O211 O 0.21409 0.46528 0.08882 0.0
O212 O 0.143 0.37318 0.79418 0.0
Zn213 Zn 0.16233 0.48985 0.98045 0.0
N214 N 0.10913 0.23653 0.86548 0.0
C215 C 0.05309 0.16236 0.8692 0.0
C216 C 0.07193 0.23931 0.86493 0.0
C217 C 0.1287 0.15904 0.87228 0.0
N218 N 0.07258 0.08553 0.87616 0.0
C219 C 0.11015 0.08087 0.87856 0.0
O220 O 0.20123 0.39185 0.98787 0.0
C221 C 0.21083 0.33979 0.95763 0.0
O222 O 0.1892 0.32667 0.91221 0.0
H223 H 0.05687 0.30078 0.86174 0.0
H224 H 0.15839 0.15911 0.87337 0.0
C225 C 0.16616 0.66926 0.94627 0.0
C226 C 0.18499 0.74253 0.93394 0.0
C227 C 0.24231 0.65856 0.95241 0.0
C228 C 0.22357 0.58667 0.96443 0.0
N229 N 0.18592 0.59306 0.96117 0.0
N230 N 0.22272 0.7344 0.93765 0.0
H231 H 0.13654 0.67286 0.94536 0.0
C232 C 0.15118 0.45063 0.78431 0.0
O233 O 0.15654 0.51054 0.82015 0.0
O234 O 0.15526 0.51537 0.0497 0.0
H235 H 0.23914 0.52641 0.97679 0.0
H236 H 1.02339 0.16383 0.86815 0.0
H237 H 0.2723 0.65438 0.95508 0.0
Zn238 Zn 0.91656 0.48083 0.50892 0.0
C239 C 0.99724 0.46079 0.64199 0.0
N240 N 1.01933 0.50101 0.61843 0.0
C241 C 0.99756 0.49817 0.56931 0.0
N242 N 0.96354 0.45912 0.56358 0.0
N243 N 0.96392 0.43363 0.6096 0.0
C244 C 0.90964 0.42156 0.70273 0.0
O245 O 0.88884 0.46295 0.66152 0.0
O246 O 0.92691 0.50962 0.44147 0.0
Zn247 Zn 0.93485 0.33977 0.62532 0.0
N248 N 0.892 0.58396 0.52755 0.0
C249 C 0.83494 0.64803 0.53591 0.0
C250 C 0.85429 0.57698 0.52371 0.0
C251 C 0.91118 0.66029 0.54294 0.0
N252 N 0.85392 0.72395 0.55111 0.0
C253 C 0.89163 0.733 0.55518 0.0
O254 O 0.88162 0.32819 0.57599 0.0
C255 C 0.86321 0.33936 0.52879 0.0
O256 O 0.8767 0.38397 0.49893 0.0
H257 H 0.83906 0.51695 0.51081 0.0
H258 H 0.94088 0.66431 0.54434 0.0
C259 C 0.94327 0.15127 0.61573 0.0
C260 C 0.96219 0.07434 0.60753 0.0
C261 C 1.01674 0.15929 0.61016 0.0
C262 C 0.99743 0.23497 0.61621 0.0
N263 N 0.96145 0.22991 0.62016 0.0
N264 N 0.99871 0.08128 0.60572 0.0
H265 H 0.91435 0.1494 0.61788 0.0
C266 C 0.89875 0.50863 0.40043 0.0
O267 O 0.86495 0.48582 0.40311 0.0
O268 O 0.9321 0.36087 0.69768 0.0
H269 H 1.01096 0.29728 0.61651 0.0
H270 H 0.80493 0.6432 0.53294 0.0
H271 H 0.04554 0.16272 0.6076 0.0
C272 C 0.57238 0.02174 0.26168 0.0
C273 C 0.56174 0.08958 0.28848 0.0
H274 H 0.55951 0.95133 0.19191 0.0
C275 C 0.53176 0.14612 0.26351 0.0
H276 H 0.59489 0.9761 0.28102 0.0
C277 C 0.51178 0.13309 0.21209 0.0
C278 C 0.5201 0.06082 0.18604 0.0
H279 H 0.52243 0.19754 0.28407 0.0
H280 H 0.48995 0.17921 0.1935 0.0
C281 C 0.55157 1.007 0.21096 0.0
C282 C 0.53945 0.88075 0.71391 0.0
C283 C 0.50994 0.93822 0.68863 0.0
H284 H 0.58064 0.84665 0.78426 0.0
C285 C 0.50002 1.00769 0.715 0.0
H286 H 0.54836 0.82823 0.69369 0.0
C287 C 0.52087 0.02253 0.76568 0.0
C288 C 0.55159 0.96712 0.79106 0.0
H289 H 0.47795 0.05411 0.69538 0.0
H290 H 0.51341 0.07912 0.78448 0.0
C291 C 0.55937 0.89381 0.76534 0.0
C292 C 0.99811 0.515 0.22441 0.0
C293 C 1.0078 0.5825 0.19674 0.0
H294 H 1.0119 0.44702 0.29506 0.0
C295 C 0.03701 0.64086 0.22096 0.0
H296 H 0.97623 0.46805 0.2057 0.0
C297 C 0.05726 0.62986 0.27251 0.0
C298 C 0.04986 0.55804 0.29945 0.0
H299 H 0.04568 0.69197 0.19972 0.0
H300 H 0.07868 0.67689 0.29048 0.0
C301 C 1.01909 0.5025 0.2753 0.0
C302 C 0.05816 0.39291 0.77155 0.0
C303 C 0.05046 0.46165 0.80056 0.0
H304 H 0.04762 0.33918 0.69674 0.0
C305 C 1.02003 0.51965 0.77764 0.0
H306 H 0.07918 0.34387 0.78845 0.0
C307 C 0.99963 0.5125 0.72624 0.0
C308 C 1.00968 0.4483 0.69673 0.0
H309 H 1.01256 0.57294 0.79887 0.0
H310 H 0.97782 0.5609 0.70881 0.0
C311 C 0.03872 0.38783 0.7194 0.0
C312 C 0.44556 0.68068 0.08803 0.0
C313 C 0.40594 0.68794 0.06356 0.0
H314 H 0.49339 0.59583 0.12019 0.0
C315 C 0.38391 0.61098 0.05455 0.0
H316 H 0.46347 0.73813 0.09709 0.0
C317 C 0.40109 0.52891 0.06827 0.0
C318 C 0.44085 0.52152 0.09182 0.0
H319 H 0.35331 0.6138 0.03571 0.0
H320 H 0.3832 0.4715 0.05873 0.0
C321 C 0.46273 0.59867 0.10181 0.0
C322 C 0.6841 0.6461 0.42023 0.0
C323 C 0.66155 0.72273 0.41153 0.0
H324 H 0.68574 0.50675 0.41659 0.0
C325 C 0.62186 0.71509 0.38815 0.0
H326 H 0.71478 0.64931 0.43832 0.0
C327 C 0.60515 0.63287 0.37501 0.0
C328 C 0.6276 0.55599 0.38466 0.0
H329 H 0.60357 0.77242 0.37948 0.0
H330 H 0.57443 0.62964 0.35741 0.0
C331 C 0.6674 0.56387 0.40724 0.0
C332 C 0.61332 0.44452 0.91937 0.0
C333 C 0.62739 0.50499 0.89091 0.0
H334 H 0.61894 0.31907 0.95482 0.0
C335 C 0.65865 0.48012 0.87451 0.0
H336 H 0.58953 0.46146 0.93317 0.0
C337 C 0.67541 0.39717 0.88654 0.0
C338 C 0.66134 0.33676 0.91512 0.0
H339 H 0.66991 0.52387 0.85172 0.0
H340 H 0.69936 0.38025 0.87307 0.0
C341 C 0.6301 0.36192 0.93152 0.0
C342 C 0.3868 0.37991 0.55801 0.0
C343 C 0.40916 0.30297 0.56645 0.0
H344 H 0.38547 0.51926 0.56218 0.0
C345 C 0.44887 0.31012 0.58993 0.0
H346 H 0.35612 0.37715 0.53987 0.0
C347 C 0.46576 0.39212 0.60339 0.0
C348 C 0.4435 0.4693 0.59398 0.0
H349 H 0.46703 0.2526 0.59844 0.0
H350 H 0.49649 0.39495 0.62102 0.0
C351 C 0.40369 0.4619 0.57135 0.0
C352 C 0.95042 0.21123 0.09316 0.0
C353 C 0.91071 0.2205 0.07013 0.0
H354 H 0.99761 0.12391 0.12381 0.0
C355 C 0.88793 0.14472 0.06192 0.0
H356 H 0.96892 0.26776 0.10146 0.0
C357 C 0.90437 0.06189 0.07515 0.0
C358 C 0.94416 0.0524 0.09743 0.0
H359 H 0.85723 0.14902 0.04411 0.0
H360 H 0.88582 1.00551 0.06623 0.0
C361 C 0.96687 0.12836 0.10648 0.0
C362 C 0.12432 0.17816 0.3937 0.0
C363 C 0.16424 0.18467 0.41524 0.0
H364 H 0.0761 0.09417 0.36516 0.0
C365 C 0.18633 0.10744 0.42312 0.0
H366 H 0.10636 0.23605 0.38572 0.0
C367 C 0.16897 0.02566 0.41106 0.0
C368 C 0.12895 0.01894 0.39021 0.0
H369 H 0.21717 0.10991 0.43978 0.0
H370 H 0.18704 0.96804 0.41971 0.0
C371 C 0.10696 0.09645 0.38145 0.0
C372 C 0.10853 0.91676 0.87993 0.0
C373 C 0.13009 0.99441 0.88989 0.0
H374 H 0.10836 0.77721 0.88486 0.0
C375 C 0.16985 0.98776 0.91373 0.0
H376 H 0.07789 0.9189 0.86137 0.0
C377 C 0.18734 0.90603 0.92755 0.0
C378 C 0.16564 0.82863 0.91844 0.0
H379 H 0.18756 0.04545 0.92335 0.0
H380 H 0.21794 0.9038 0.9465 0.0
C381 C 0.12601 0.83508 0.8939 0.0
C382 C 0.88724 0.89605 0.56241 0.0
C383 C 0.91002 0.81971 0.57062 0.0
H384 H 0.88519 0.03539 0.56669 0.0
C385 C 0.9497 0.82799 0.59396 0.0
H386 H 0.85656 0.89255 0.54442 0.0
C387 C 0.96616 0.91044 0.60729 0.0
C388 C 0.94347 0.98695 0.59799 0.0
H389 H 0.96821 0.77105 0.60237 0.0
H390 H 0.99689 0.91421 0.62467 0.0
C391 C 0.90369 0.97847 0.57571 0.0
C392 C 0.31205 0.27855 0.03774 0.0
C393 C 0.32293 0.21792 0.00603 0.0
H394 H 0.26849 0.3639 0.04769 0.0
C395 C 0.29636 0.19695 0.95847 0.0
H396 H 0.3317 0.29645 0.07464 0.0
C397 C 0.25987 0.23552 0.94309 0.0
C398 C 0.24902 0.29615 0.97485 0.0
H399 H 0.30358 0.15011 0.93323 0.0
H400 H 0.24018 0.21775 0.90619 0.0
C401 C 0.27563 0.3171 0.02236 0.0
C402 C 0.76238 0.29369 0.44219 0.0
C403 C 0.7477 0.24055 0.4736 0.0
H404 H 0.81019 0.36591 0.43457 0.0
C405 C 0.7716 0.21925 0.52295 0.0
H406 H 0.74486 0.31136 0.4039 0.0
C407 C 0.80917 0.25019 0.54041 0.0
C408 C 0.82388 0.30329 0.50902 0.0
H409 H 0.76145 0.17797 0.54809 0.0
H410 H 0.82666 0.23242 0.57869 0.0
C411 C 0.79999 0.32463 0.45966 0.0
C412 C 0.76214 0.75716 0.94287 0.0
C413 C 0.74825 0.81212 0.9745 0.0
H414 H 0.809 0.6804 0.93477 0.0
C415 C 0.77267 0.83189 0.02372 0.0
H416 H 0.74423 0.74059 0.90466 0.0
C417 C 0.80989 0.79772 0.04085 0.0
C418 C 0.82382 0.74274 0.00929 0.0
H419 H 0.7632 0.87442 0.04907 0.0
H420 H 0.82775 0.81454 0.07905 0.0
C421 C 0.79943 0.72294 0.96003 0.0
C422 C 0.26082 0.76831 0.44399 0.0
C423 C 0.2488 0.71022 0.47576 0.0
H424 H 0.30601 0.84803 0.43447 0.0
C425 C 0.27472 0.68793 0.52364 0.0
H426 H 0.24167 0.78687 0.4068 0.0
C427 C 0.31166 0.72262 0.53934 0.0
C428 C 0.32374 0.78061 0.50762 0.0
H429 H 0.26664 0.64298 0.549 0.0
H430 H 0.33075 0.70378 0.57652 0.0
C431 C 0.29784 0.80304 0.45972 0.0
C432 C 0.37133 1.004 0.79731 0.0
C433 C 0.39966 0.98249 0.84336 0.0
H434 H 0.35281 0.99745 0.71553 0.0
C435 C 0.43235 0.93614 0.84094 0.0
H436 H 0.34587 0.03988 0.7976 0.0
C437 C 0.4361 0.91054 0.79347 0.0
C438 C 0.40751 0.93199 0.74752 0.0
H439 H 0.45479 0.91872 0.87569 0.0
H440 H 0.46147 0.87472 0.79272 0.0
C441 C 0.37533 0.97967 0.75011 0.0
C442 C 0.68262 0.08372 0.67981 0.0
C443 C 0.66308 0.03842 0.63484 0.0
H444 H 0.69594 0.09304 0.76119 0.0
C445 C 0.64108 0.96509 0.63874 0.0
H446 H 0.69978 0.14051 0.67835 0.0
C447 C 0.63923 0.93711 0.68667 0.0
C448 C 0.659 0.98248 0.73158 0.0
H449 H 0.62556 0.92883 0.60486 0.0
H450 H 0.62205 0.88052 0.68849 0.0
C451 C 0.68046 0.05639 0.72745 0.0
C452 C 0.635 0.11693 0.18513 0.0
C453 C 0.66405 0.0959 0.23071 0.0
H454 H 0.61541 0.10822 0.10294 0.0
C455 C 0.69618 0.0487 0.22751 0.0
H456 H 0.60967 0.15242 0.18636 0.0
C457 C 0.69964 0.02433 0.18004 0.0
C458 C 0.67081 0.04527 0.13437 0.0
H459 H 0.71904 0.03127 0.26181 0.0
H460 H 0.72506 0.98877 0.17926 0.0
C461 C 0.6382 0.0912 0.1374 0.0
C462 C 0.37269 0.97277 0.29681 0.0
C463 C 0.3991 1.00308 0.34238 0.0
H464 H 0.35487 0.97251 0.21484 0.0
C465 C 0.42864 0.05889 0.33906 0.0
H466 H 0.34966 0.92954 0.29788 0.0
C467 C 0.43123 0.08479 0.29115 0.0
C468 C 0.40476 0.05416 0.24565 0.0
H469 H 0.44948 0.08336 0.37342 0.0
H470 H 0.45422 0.12792 0.28977 0.0
C471 C 0.37567 0.99741 0.24911 0.0
C472 C 0.93653 0.42734 0.79932 0.0
C473 C 0.90728 0.44795 0.75384 0.0
H474 H 0.95714 0.4393 0.88138 0.0
C475 C 0.87568 0.49709 0.75718 0.0
H476 H 0.96141 0.39013 0.79801 0.0
C477 C 0.873 0.52406 0.80463 0.0
C478 C 0.90216 0.50405 0.85016 0.0
H479 H 0.85266 0.51423 0.72299 0.0
H480 H 0.84797 0.56111 0.80553 0.0
C481 C 0.93419 0.45594 0.84701 0.0
C482 C 0.14573 0.43745 0.64367 0.0
C483 C 0.15828 0.5212 0.63505 0.0
H484 H 0.13363 0.34926 0.69749 0.0
C485 C 0.1679 0.58138 0.6757 0.0
H486 H 0.13784 0.38967 0.61311 0.0
C487 C 0.16552 0.55826 0.72392 0.0
C488 C 0.15351 0.47426 0.73285 0.0
H489 H 0.17757 0.64651 0.67047 0.0
H490 H 0.17335 0.60634 0.75433 0.0
C491 C 0.1434 0.41421 0.69208 0.0
C492 C 0.14146 0.59189 0.19288 0.0
C493 C 0.16897 0.56373 0.23829 0.0
H494 H 0.12352 0.59267 0.1107 0.0
C495 C 0.20025 0.51362 0.23474 0.0
H496 H 0.11684 0.62998 0.19433 0.0
C497 C 0.20427 0.49301 0.187 0.0
C498 C 0.17685 0.52101 0.14155 0.0
H499 H 0.22192 0.49085 0.26894 0.0
H500 H 0.22891 0.45479 0.18581 0.0
C501 C 0.14522 0.57023 0.14498 0.0
C502 C 0.87643 0.54256 0.2573 0.0
C503 C 0.90805 0.59071 0.25384 0.0
H504 H 0.84874 0.47968 0.30579 0.0
C505 C 0.93745 0.61034 0.29924 0.0
H506 H 0.85333 0.52612 0.22317 0.0
C507 C 0.93515 0.58206 0.347 0.0
C508 C 0.90304 0.53516 0.35029 0.0
H509 H 0.9624 0.64655 0.29781 0.0
H510 H 0.95818 0.59804 0.38131 0.0
C511 C 0.87381 0.51586 0.30481 0.0
C512 C 0.50468 0.07087 0.98503 0.0
C513 C 0.50826 0.99637 0.01592 0.0
H514 H 0.52654 0.1417 0.93294 0.0
C515 C 0.53786 0.93605 0.01881 0.0
H516 H 0.48315 0.12029 0.98381 0.0
C517 C 0.56371 0.9503 0.99165 0.0
C518 C 0.56022 0.025 0.96093 0.0
H519 H 0.54187 0.87955 0.0438 0.0
H520 H 0.58535 0.90109 -0.00698 0.0
C521 C 0.53049 0.08506 0.95781 0.0
C522 C 0.56266 0.07914 0.49674 0.0
C523 C 0.55816 0.02003 0.45644 0.0
H524 H 0.54406 0.11752 0.5602 0.0
C525 C 0.52994 0.95501 0.44774 0.0
H526 H 0.58306 0.13212 0.50269 0.0
C527 C 0.5068 0.94841 0.47938 0.0
C528 C 0.51136 1.00742 0.51976 0.0
H529 H 0.5254 0.91014 0.41586 0.0
H530 H 0.48652 0.89521 0.47355 0.0
C531 C 0.53947 0.07268 0.52829 0.0
C532 C 0.04504 0.46453 0.03668 0.0
C533 C 1.01674 0.52945 0.03066 0.0
H534 H 0.08995 0.41306 0.01024 0.0
C535 C 1.01504 0.59912 -0.00301 0.0
H536 H 0.04762 0.41181 0.06395 0.0
C537 C 0.04071 0.60265 0.96879 0.0
C538 C 0.06798 0.53579 0.9731 0.0
H539 H 0.99463 0.65202 -0.00648 0.0
H540 H 0.0378 0.65504 0.94122 0.0
C541 C 0.07029 0.4672 0.00775 0.0
C542 C 0.07017 0.5555 0.50487 0.0
C543 C 0.0664 0.48505 0.47102 0.0
H544 H 0.04953 0.61682 0.5615 0.0
C545 C 0.038 0.42207 0.46769 0.0
H546 H 0.0906 0.6071 0.50635 0.0
C547 C 1.01299 0.43072 0.49659 0.0
C548 C 1.01647 0.50176 0.52987 0.0
H549 H 1.03392 0.36854 0.44064 0.0
H550 H 0.99178 0.38046 0.49411 0.0
C551 C 0.04564 0.56316 0.53458 0.0
loop_
_geom_bond_atom_site_label_1
_geom_bond_atom_site_label_2
_geom_bond_distance
_geom_bond_site_symmetry_2
_ccdc_geom_bond_type
Zn0 N4 2.020 . S
Zn0 O8 2.019 . S
Zn0 N10 2.119 . S
Zn0 O18 1.975 . S
C1 N2 1.334 . S
C1 N5 1.336 . S
N2 C1 1.334 . S
N2 C3 1.334 . S
C3 N2 1.334 . S
C3 N4 1.336 . S
N4 Zn0 2.020 . S
N4 C3 1.336 . S
N4 N5 1.354 . S
N5 C1 1.336 . S
N5 N4 1.354 . S
N5 Zn9 2.012 1_554 S
C6 O7 1.244 . S
C6 O30 1.257 1_545 S
O7 C6 1.244 . S
O8 Zn0 2.019 . S
O8 C28 1.257 . S
Zn9 N5 2.012 1_556 S
Zn9 O16 1.972 1_556 S
Zn9 N25 2.113 1_546 S
Zn9 O30 2.031 1_545 S
N10 Zn0 2.119 . S
N10 C12 1.334 . S
N10 C13 1.328 . S
C11 C12 1.391 . S
C11 N14 1.329 . S
C11 H32 0.930 1_554 S
C12 N10 1.334 . S
C12 C11 1.391 . S
C12 H19 0.930 . S
C13 N10 1.328 . S
C13 C15 1.392 . S
C13 H20 0.930 . S
N14 C11 1.329 . S
N14 C15 1.331 . S
C15 C13 1.392 . S
C15 N14 1.331 . S
O16 Zn9 1.972 1_554 S
O16 C17 1.252 . S
C17 O16 1.252 . S
C17 O18 1.252 . S
O18 Zn0 1.975 . S
O18 C17 1.252 . S
H19 C12 0.930 . S
H20 C13 0.930 . S
C21 C22 1.392 1_556 S
C21 N25 1.328 1_556 S
C21 H27 0.930 . S
C22 C21 1.392 1_554 S
C22 N26 1.331 . S
C23 C24 1.391 . S
C23 N26 1.329 . S
C23 H33 0.930 . S
C24 C23 1.391 . S
C24 N25 1.334 . S
C24 H31 0.930 . S
N25 Zn9 2.113 1_564 S
N25 C21 1.328 1_554 S
N25 C24 1.334 . S
N26 C22 1.331 . S
N26 C23 1.329 . S
H27 C21 0.930 . S
C28 O8 1.257 . S
C28 O29 1.244 . S
O29 C28 1.244 . S
O30 C6 1.257 1_565 S
O30 Zn9 2.031 1_565 S
H31 C24 0.930 . S
H32 C11 0.930 1_556 S
H33 C23 0.930 . S
Zn34 N38 2.020 . S
Zn34 O42 2.019 1_545 S
Zn34 N44 2.119 1_545 S
Zn34 O52 1.975 . S
C35 N36 1.334 . S
C35 N39 1.336 . S
N36 C35 1.334 . S
N36 C37 1.334 . S
C37 N36 1.334 . S
C37 N38 1.336 . S
N38 Zn34 2.020 . S
N38 C37 1.336 . S
N38 N39 1.354 . S
N39 C35 1.336 . S
N39 N38 1.354 . S
N39 Zn43 2.020 . S
C40 O41 1.244 . S
C40 O64 1.257 . S
O41 C40 1.244 . S
O42 Zn34 2.019 1_565 S
O42 C62 1.257 1_565 S
Zn43 N39 2.020 . S
Zn43 O50 1.975 . S
Zn43 N59 2.119 . S
Zn43 O64 2.019 . S
N44 Zn34 2.119 1_565 S
N44 C46 1.334 . S
N44 C47 1.328 . S
C45 C46 1.391 . S
C45 N48 1.329 . S
C45 H66 0.930 . S
C46 N44 1.334 . S
C46 C45 1.391 . S
C46 H53 0.930 . S
C47 N44 1.328 . S
C47 C49 1.392 . S
C47 H54 0.930 . S
N48 C45 1.329 . S
N48 C49 1.331 . S
C49 C47 1.392 . S
C49 N48 1.331 . S
O50 Zn43 1.975 . S
O50 C51 1.252 . S
C51 O50 1.252 . S
C51 O52 1.252 . S
O52 Zn34 1.975 . S
O52 C51 1.252 . S
H53 C46 0.930 . S
H54 C47 0.930 . S
C55 C56 1.392 . S
C55 N59 1.328 . S
C55 H61 0.930 . S
C56 C55 1.392 . S
C56 N60 1.331 . S
C57 C58 1.391 . S
C57 N60 1.329 . S
C57 H67 0.930 . S
C58 C57 1.391 . S
C58 N59 1.334 . S
C58 H65 0.930 . S
N59 Zn43 2.119 . S
N59 C55 1.328 . S
N59 C58 1.334 . S
N60 C56 1.331 . S
N60 C57 1.329 . S
H61 C55 0.930 . S
C62 O42 1.257 1_545 S
C62 O63 1.244 . S
O63 C62 1.244 . S
O64 C40 1.257 . S
O64 Zn43 2.019 . S
H65 C58 0.930 . S
H66 C45 0.930 . S
H67 C57 0.930 . S
Zn68 N72 2.020 . S
Zn68 O76 2.019 . S
Zn68 N78 2.119 . S
Zn68 O86 1.975 . S
C69 N70 1.334 . S
C69 N73 1.336 . S
N70 C69 1.334 . S
N70 C71 1.334 . S
C71 N70 1.334 . S
C71 N72 1.336 . S
N72 Zn68 2.020 . S
N72 C71 1.336 . S
N72 N73 1.354 . S
N73 C69 1.336 . S
N73 N72 1.354 . S
N73 Zn77 2.012 1_556 S
C74 O75 1.244 . S
C74 O98 1.257 1_565 S
O75 C74 1.244 . S
O76 Zn68 2.019 . S
O76 C96 1.257 . S
Zn77 N73 2.012 1_554 S
Zn77 O84 1.972 1_554 S
Zn77 N93 2.113 1_564 S
Zn77 O98 2.031 1_565 S
N78 Zn68 2.119 . S
N78 C80 1.334 . S
N78 C81 1.328 . S
C79 C80 1.391 . S
C79 N82 1.329 . S
C79 H100 0.930 1_556 S
C80 N78 1.334 . S
C80 C79 1.391 . S
C80 H87 0.930 . S
C81 N78 1.328 . S
C81 C83 1.392 . S
C81 H88 0.930 . S
N82 C79 1.329 . S
N82 C83 1.331 . S
C83 C81 1.392 . S
C83 N82 1.331 . S
O84 Zn77 1.972 1_556 S
O84 C85 1.252 . S
C85 O84 1.252 . S
C85 O86 1.252 . S
O86 Zn68 1.975 . S
O86 C85 1.252 . S
H87 C80 0.930 . S
H88 C81 0.930 . S
C89 C90 1.392 1_554 S
C89 N93 1.328 1_554 S
C89 H95 0.930 . S
C90 C89 1.392 1_556 S
C90 N94 1.331 . S
C91 C92 1.391 . S
C91 N94 1.329 . S
C91 H101 0.930 . S
C92 C91 1.391 . S
C92 N93 1.334 . S
C92 H99 0.930 . S
N93 Zn77 2.113 1_546 S
N93 C89 1.328 1_556 S
N93 C92 1.334 . S
N94 C90 1.331 . S
N94 C91 1.329 . S
H95 C89 0.930 . S
C96 O76 1.257 . S
C96 O97 1.244 . S
O97 C96 1.244 . S
O98 C74 1.257 1_545 S
O98 Zn77 2.031 1_545 S
H99 C92 0.930 . S
H100 C79 0.930 1_554 S
H101 C91 0.930 . S
Zn102 N106 2.020 . S
Zn102 O110 2.019 . S
Zn102 N112 2.119 . S
Zn102 O120 1.975 . S
C103 N104 1.334 . S
C103 N107 1.336 . S
N104 C103 1.334 . S
N104 C105 1.334 . S
C105 N104 1.334 . S
C105 N106 1.336 . S
N106 Zn102 2.020 . S
N106 C105 1.336 . S
N106 N107 1.354 . S
N107 C103 1.336 . S
N107 N106 1.354 . S
N107 Zn111 2.020 . S
C108 O109 1.244 . S
C108 O132 1.257 1_565 S
O109 C108 1.244 . S
O110 Zn102 2.019 . S
O110 C130 1.257 . S
Zn111 N107 2.020 . S
Zn111 O118 1.975 . S
Zn111 N127 2.119 1_565 S
Zn111 O132 2.019 1_565 S
N112 Zn102 2.119 . S
N112 C114 1.334 . S
N112 C115 1.328 . S
C113 C114 1.391 . S
C113 N116 1.329 . S
C113 H134 0.930 . S
C114 N112 1.334 . S
C114 C113 1.391 . S
C114 H121 0.930 . S
C115 N112 1.328 . S
C115 C117 1.392 . S
C115 H122 0.930 . S
N116 C113 1.329 . S
N116 C117 1.331 . S
C117 C115 1.392 . S
C117 N116 1.331 . S
O118 Zn111 1.975 . S
O118 C119 1.252 . S
C119 O118 1.252 . S
C119 O120 1.252 . S
O120 Zn102 1.975 . S
O120 C119 1.252 . S
H121 C114 0.930 . S
H122 C115 0.930 . S
C123 C124 1.392 . S
C123 N127 1.328 . S
C123 H129 0.930 . S
C124 C123 1.392 . S
C124 N128 1.331 . S
C125 C126 1.391 . S
C125 N128 1.329 . S
C125 H135 0.930 . S
C126 C125 1.391 . S
C126 N127 1.334 . S
C126 H133 0.930 . S
N127 Zn111 2.119 1_545 S
N127 C123 1.328 . S
N127 C126 1.334 . S
N128 C124 1.331 . S
N128 C125 1.329 . S
H129 C123 0.930 . S
C130 O110 1.257 . S
C130 O131 1.244 . S
O131 C130 1.244 . S
O132 C108 1.257 1_545 S
O132 Zn111 2.019 1_545 S
H133 C126 0.930 . S
H134 C113 0.930 . S
H135 C125 0.930 . S
Zn136 N140 2.020 . S
Zn136 O144 2.019 . S
Zn136 N146 2.119 . S
Zn136 O154 1.975 . S
C137 N138 1.334 . S
C137 N141 1.336 . S
N138 C137 1.334 . S
N138 C139 1.334 . S
C139 N138 1.334 . S
C139 N140 1.336 . S
N140 Zn136 2.020 . S
N140 C139 1.336 . S
N140 N141 1.354 . S
N141 C137 1.336 . S
N141 N140 1.354 . S
N141 Zn145 2.012 1_554 S
C142 O143 1.244 . S
C142 O166 1.257 . S
O143 C142 1.244 . S
O144 Zn136 2.019 . S
O144 C164 1.257 . S
Zn145 N141 2.012 1_556 S
Zn145 O152 1.972 1_556 S
Zn145 N161 2.113 1_556 S
Zn145 O166 2.031 . S
N146 Zn136 2.119 . S
N146 C148 1.334 . S
N146 C149 1.328 . S
C147 C148 1.391 . S
C147 N150 1.329 . S
C147 H168 0.930 1_554 S
C148 N146 1.334 . S
C148 C147 1.391 . S
C148 H155 0.930 . S
C149 N146 1.328 . S
C149 C151 1.392 . S
C149 H156 0.930 . S
N150 C147 1.329 . S
N150 C151 1.331 . S
C151 C149 1.392 . S
C151 N150 1.331 . S
O152 Zn145 1.972 1_554 S
O152 C153 1.252 . S
C153 O152 1.252 . S
C153 O154 1.252 . S
O154 Zn136 1.975 . S
O154 C153 1.252 . S
H155 C148 0.930 . S
H156 C149 0.930 . S
C157 C158 1.392 1_556 S
C157 N161 1.328 1_556 S
C157 H163 0.930 . S
C158 C157 1.392 1_554 S
C158 N162 1.331 . S
C159 C160 1.391 . S
C159 N162 1.329 . S
C159 H169 0.930 . S
C160 C159 1.391 . S
C160 N161 1.334 . S
C160 H167 0.930 . S
N161 Zn145 2.113 1_554 S
N161 C157 1.328 1_554 S
N161 C160 1.334 . S
N162 C158 1.331 . S
N162 C159 1.329 . S
H163 C157 0.930 . S
C164 O144 1.257 . S
C164 O165 1.244 . S
O165 C164 1.244 . S
O166 C142 1.257 . S
O166 Zn145 2.031 . S
H167 C160 0.930 . S
H168 C147 0.930 1_556 S
H169 C159 0.930 . S
Zn170 N174 2.020 . S
Zn170 O178 2.019 . S
Zn170 N180 2.119 . S
Zn170 O188 1.975 . S
C171 N172 1.334 . S
C171 N175 1.336 . S
N172 C171 1.334 . S
N172 C173 1.334 . S
C173 N172 1.334 . S
C173 N174 1.336 . S
N174 Zn170 2.020 . S
N174 C173 1.336 . S
N174 N175 1.354 . S
N175 C171 1.336 . S
N175 N174 1.354 . S
N175 Zn179 2.020 . S
C176 O177 1.244 . S
C176 O200 1.257 . S
O177 C176 1.244 . S
O178 Zn170 2.019 . S
O178 C198 1.257 . S
Zn179 N175 2.020 . S
Zn179 O186 1.975 . S
Zn179 N195 2.119 . S
Zn179 O200 2.019 . S
N180 Zn170 2.119 . S
N180 C182 1.334 . S
N180 C183 1.328 . S
C181 C182 1.391 . S
C181 N184 1.329 . S
C181 H202 0.930 . S
C182 N180 1.334 . S
C182 C181 1.391 . S
C182 H189 0.930 . S
C183 N180 1.328 . S
C183 C185 1.392 . S
C183 H190 0.930 . S
N184 C181 1.329 . S
N184 C185 1.331 . S
C185 C183 1.392 . S
C185 N184 1.331 . S
O186 Zn179 1.975 . S
O186 C187 1.252 . S
C187 O186 1.252 . S
C187 O188 1.252 . S
O188 Zn170 1.975 . S
O188 C187 1.252 . S
H189 C182 0.930 . S
H190 C183 0.930 . S
C191 C192 1.392 . S
C191 N195 1.328 . S
C191 H197 0.930 . S
C192 C191 1.392 . S
C192 N196 1.331 . S
C193 C194 1.391 . S
C193 N196 1.329 . S
C193 H203 0.930 . S
C194 C193 1.391 . S
C194 N195 1.334 . S
C194 H201 0.930 . S
N195 Zn179 2.119 . S
N195 C191 1.328 . S
N195 C194 1.334 . S
N196 C192 1.331 . S
N196 C193 1.329 . S
H197 C191 0.930 . S
C198 O178 1.257 . S
C198 O199 1.244 . S
O199 C198 1.244 . S
O200 C176 1.257 . S
O200 Zn179 2.019 . S
H201 C194 0.930 . S
H202 C181 0.930 . S
H203 C193 0.930 . S
Zn204 N208 2.020 . S
Zn204 O212 2.019 . S
Zn204 N214 2.119 . S
Zn204 O222 1.975 . S
C205 N206 1.334 . S
C205 N209 1.336 . S
N206 C205 1.334 . S
N206 C207 1.334 . S
C207 N206 1.334 . S
C207 N208 1.336 . S
N208 Zn204 2.020 . S
N208 C207 1.336 . S
N208 N209 1.354 . S
N209 C205 1.336 . S
N209 N208 1.354 . S
N209 Zn213 2.012 1_556 S
C210 O211 1.244 . S
C210 O234 1.257 . S
O211 C210 1.244 . S
O212 Zn204 2.019 . S
O212 C232 1.257 . S
Zn213 N209 2.012 1_554 S
Zn213 O220 1.972 1_554 S
Zn213 N229 2.113 1_554 S
Zn213 O234 2.031 . S
N214 Zn204 2.119 . S
N214 C216 1.334 . S
N214 C217 1.328 . S
C215 C216 1.391 . S
C215 N218 1.329 . S
C215 H236 0.930 1_556 S
C216 N214 1.334 . S
C216 C215 1.391 . S
C216 H223 0.930 . S
C217 N214 1.328 . S
C217 C219 1.392 . S
C217 H224 0.930 . S
N218 C215 1.329 . S
N218 C219 1.331 . S
C219 C217 1.392 . S
C219 N218 1.331 . S
O220 Zn213 1.972 1_556 S
O220 C221 1.252 . S
C221 O220 1.252 . S
C221 O222 1.252 . S
O222 Zn204 1.975 . S
O222 C221 1.252 . S
H223 C216 0.930 . S
H224 C217 0.930 . S
C225 C226 1.392 1_554 S
C225 N229 1.328 1_554 S
C225 H231 0.930 . S
C226 C225 1.392 1_556 S
C226 N230 1.331 . S
C227 C228 1.391 . S
C227 N230 1.329 . S
C227 H237 0.930 . S
C228 C227 1.391 . S
C228 N229 1.334 . S
C228 H235 0.930 . S
N229 Zn213 2.113 1_556 S
N229 C225 1.328 1_556 S
N229 C228 1.334 . S
N230 C226 1.331 . S
N230 C227 1.329 . S
H231 C225 0.930 . S
C232 O212 1.257 . S
C232 O233 1.244 . S
O233 C232 1.244 . S
O234 C210 1.257 . S
O234 Zn213 2.031 . S
H235 C228 0.930 . S
H236 C215 0.930 1_554 S
H237 C227 0.930 . S
Zn238 N242 2.020 . S
Zn238 O246 2.019 . S
Zn238 N248 2.119 . S
Zn238 O256 1.975 . S
C239 N240 1.334 . S
C239 N243 1.336 . S
N240 C239 1.334 . S
N240 C241 1.334 . S
C241 N240 1.334 . S
C241 N242 1.336 . S
N242 Zn238 2.020 . S
N242 C241 1.336 . S
N242 N243 1.354 . S
N243 C239 1.336 . S
N243 N242 1.354 . S
N243 Zn247 2.020 . S
C244 O245 1.244 . S
C244 O268 1.257 . S
O245 C244 1.244 . S
O246 Zn238 2.019 . S
O246 C266 1.257 . S
Zn247 N243 2.020 . S
Zn247 O254 1.975 . S
Zn247 N263 2.119 . S
Zn247 O268 2.019 . S
N248 Zn238 2.119 . S
N248 C250 1.334 . S
N248 C251 1.328 . S
C249 C250 1.391 . S
C249 N252 1.329 . S
C249 H270 0.930 . S
C250 N248 1.334 . S
C250 C249 1.391 . S
C250 H257 0.930 . S
C251 N248 1.328 . S
C251 C253 1.392 . S
C251 H258 0.930 . S
N252 C249 1.329 . S
N252 C253 1.331 . S
C253 C251 1.392 . S
C253 N252 1.331 . S
O254 Zn247 1.975 . S
O254 C255 1.252 . S
C255 O254 1.252 . S
C255 O256 1.252 . S
O256 Zn238 1.975 . S
O256 C255 1.252 . S
H257 C250 0.930 . S
H258 C251 0.930 . S
C259 C260 1.392 . S
C259 N263 1.328 . S
C259 H265 0.930 . S
C260 C259 1.392 . S
C260 N264 1.331 . S
C261 C262 1.391 . S
C261 N264 1.329 . S
C261 H271 0.930 . S
C262 C261 1.391 . S
C262 N263 1.334 . S
C262 H269 0.930 . S
N263 Zn247 2.119 . S
N263 C259 1.328 . S
N263 C262 1.334 . S
N264 C260 1.331 . S
N264 C261 1.329 . S
H265 C259 0.930 . S
C266 O246 1.257 . S
C266 O267 1.244 . S
O267 C266 1.244 . S
O268 C244 1.257 . S
O268 Zn247 2.019 . S
H269 C262 0.930 . S
H270 C249 0.930 . S
H271 C261 0.930 . S
C272 C273 1.387 . S
C272 H276 0.950 1_545 S
C272 C281 1.390 . S
C273 C272 1.387 . S
C273 C275 1.387 . S
H274 C281 0.950 1_565 S
C275 C273 1.387 . S
C275 C277 1.390 . S
C275 H279 0.950 . S
H276 C272 0.950 1_565 S
C277 C275 1.390 . S
C277 C278 1.387 . S
C277 H280 0.950 . S
C278 C277 1.387 . S
C278 C281 1.387 . S
H279 C275 0.950 . S
H280 C277 0.950 . S
C281 C272 1.390 . S
C281 H274 0.950 1_545 S
C281 C278 1.387 . S
C282 C283 1.387 . S
C282 H286 0.950 . S
C282 C291 1.390 . S
C283 C282 1.387 . S
C283 C285 1.387 . S
H284 C291 0.950 . S
C285 C283 1.387 . S
C285 C287 1.390 . S
C285 H289 0.950 1_565 S
H286 C282 0.950 . S
C287 C285 1.390 . S
C287 C288 1.387 . S
C287 H290 0.950 1_565 S
C288 C287 1.387 . S
C288 C291 1.387 . S
H289 C285 0.950 1_545 S
H290 C287 0.950 1_545 S
C291 C282 1.390 . S
C291 H284 0.950 . S
C291 C288 1.387 . S
C292 C293 1.387 . S
C292 H296 0.950 . S
C292 C301 1.390 1_655 S
C293 C292 1.387 . S
C293 C295 1.387 . S
H294 C301 0.950 . S
C295 C293 1.387 . S
C295 C297 1.390 1_655 S
C295 H299 0.950 . S
H296 C292 0.950 . S
C297 C295 1.390 1_455 S
C297 C298 1.387 . S
C297 H300 0.950 . S
C298 C297 1.387 . S
C298 C301 1.387 . S
H299 C295 0.950 . S
H300 C297 0.950 . S
C301 C292 1.390 1_455 S
C301 H294 0.950 . S
C301 C298 1.387 . S
C302 C303 1.387 . S
C302 H306 0.950 . S
C302 C311 1.390 1_455 S
C303 C302 1.387 . S
C303 C305 1.387 . S
H304 C311 0.950 . S
C305 C303 1.387 . S
C305 C307 1.390 1_455 S
C305 H309 0.950 . S
H306 C302 0.950 . S
C307 C305 1.390 1_655 S
C307 C308 1.387 . S
C307 H310 0.950 . S
C308 C307 1.387 . S
C308 C311 1.387 . S
H309 C305 0.950 . S
H310 C307 0.950 . S
C311 C302 1.390 1_655 S
C311 H304 0.950 . S
C311 C308 1.387 . S
C312 C313 1.387 . S
C312 H316 0.950 . S
C312 C321 1.390 . S
C313 C312 1.387 . S
C313 C315 1.387 . S
H314 C321 0.950 . S
C315 C313 1.387 . S
C315 C317 1.390 . S
C315 H319 0.950 1_554 S
H316 C312 0.950 . S
C317 C315 1.390 . S
C317 C318 1.387 . S
C317 H320 0.950 . S
C318 C317 1.387 . S
C318 C321 1.387 . S
H319 C315 0.950 1_556 S
H320 C317 0.950 . S
C321 C312 1.390 . S
C321 H314 0.950 . S
C321 C318 1.387 . S
C322 C323 1.387 . S
C322 H326 0.950 . S
C322 C331 1.390 . S
C323 C322 1.387 . S
C323 C325 1.387 . S
H324 C331 0.950 . S
C325 C323 1.387 . S
C325 C327 1.390 . S
C325 H329 0.950 . S
H326 C322 0.950 . S
C327 C325 1.390 . S
C327 C328 1.387 . S
C327 H330 0.950 . S
C328 C327 1.387 . S
C328 C331 1.387 . S
H329 C325 0.950 . S
H330 C327 0.950 . S
C331 C322 1.390 . S
C331 H324 0.950 . S
C331 C328 1.387 . S
C332 C333 1.387 . S
C332 H336 0.950 . S
C332 C341 1.390 . S
C333 C332 1.387 . S
C333 C335 1.387 . S
H334 C341 0.950 1_554 S
C335 C333 1.387 . S
C335 C337 1.390 . S
C335 H339 0.950 . S
H336 C332 0.950 . S
C337 C335 1.390 . S
C337 C338 1.387 . S
C337 H340 0.950 . S
C338 C337 1.387 . S
C338 C341 1.387 . S
H339 C335 0.950 . S
H340 C337 0.950 . S
C341 C332 1.390 . S
C341 H334 0.950 1_556 S
C341 C338 1.387 . S
C342 C343 1.387 . S
C342 H346 0.950 . S
C342 C351 1.390 . S
C343 C342 1.387 . S
C343 C345 1.387 . S
H344 C351 0.950 . S
C345 C343 1.387 . S
C345 C347 1.390 . S
C345 H349 0.950 . S
H346 C342 0.950 . S
C347 C345 1.390 . S
C347 C348 1.387 . S
C347 H350 0.950 . S
C348 C347 1.387 . S
C348 C351 1.387 . S
H349 C345 0.950 . S
H350 C347 0.950 . S
C351 C342 1.390 . S
C351 H344 0.950 . S
C351 C348 1.387 . S
C352 C353 1.387 . S
C352 H356 0.950 . S
C352 C361 1.390 . S
C353 C352 1.387 . S
C353 C355 1.387 . S
H354 C361 0.950 . S
C355 C353 1.387 . S
C355 C357 1.390 . S
C355 H359 0.950 1_554 S
H356 C352 0.950 . S
C357 C355 1.390 . S
C357 C358 1.387 . S
C357 H360 0.950 1_545 S
C358 C357 1.387 . S
C358 C361 1.387 . S
H359 C355 0.950 1_556 S
H360 C357 0.950 1_565 S
C361 C352 1.390 . S
C361 H354 0.950 . S
C361 C358 1.387 . S
C362 C363 1.387 . S
C362 H366 0.950 . S
C362 C371 1.390 . S
C363 C362 1.387 . S
C363 C365 1.387 . S
H364 C371 0.950 . S
C365 C363 1.387 . S
C365 C367 1.390 . S
C365 H369 0.950 . S
H366 C362 0.950 . S
C367 C365 1.390 . S
C367 C368 1.387 . S
C367 H370 0.950 1_545 S
C368 C367 1.387 . S
C368 C371 1.387 . S
H369 C365 0.950 . S
H370 C367 0.950 1_565 S
C371 C362 1.390 . S
C371 H364 0.950 . S
C371 C368 1.387 . S
C372 C373 1.387 . S
C372 H376 0.950 . S
C372 C381 1.390 . S
C373 C372 1.387 . S
C373 C375 1.387 . S
H374 C381 0.950 . S
C375 C373 1.387 . S
C375 C377 1.390 . S
C375 H379 0.950 1_565 S
H376 C372 0.950 . S
C377 C375 1.390 . S
C377 C378 1.387 . S
C377 H380 0.950 1_556 S
C378 C377 1.387 . S
C378 C381 1.387 . S
H379 C375 0.950 1_545 S
H380 C377 0.950 1_554 S
C381 C372 1.390 . S
C381 H374 0.950 . S
C381 C378 1.387 . S
C382 C383 1.387 . S
C382 H386 0.950 . S
C382 C391 1.390 . S
C383 C382 1.387 . S
C383 C385 1.387 . S
H384 C391 0.950 . S
C385 C383 1.387 . S
C385 C387 1.390 . S
C385 H389 0.950 . S
H386 C382 0.950 . S
C387 C385 1.390 . S
C387 C388 1.387 . S
C387 H390 0.950 . S
C388 C387 1.387 . S
C388 C391 1.387 . S
H389 C385 0.950 . S
H390 C387 0.950 . S
C391 C382 1.390 . S
C391 H384 0.950 . S
C391 C388 1.387 . S
C392 C393 1.387 . S
C392 H396 0.950 . S
C392 C401 1.390 . S
C393 C392 1.387 . S
C393 C395 1.387 1_554 S
H394 C401 0.950 . S
C395 C393 1.387 1_556 S
C395 C397 1.390 . S
C395 H399 0.950 . S
H396 C392 0.950 . S
C397 C395 1.390 . S
C397 C398 1.387 . S
C397 H400 0.950 . S
C398 C397 1.387 . S
C398 C401 1.387 1_556 S
H399 C395 0.950 . S
H400 C397 0.950 . S
C401 C392 1.390 . S
C401 H394 0.950 . S
C401 C398 1.387 1_554 S
C402 C403 1.387 . S
C402 H406 0.950 . S
C402 C411 1.390 . S
C403 C402 1.387 . S
C403 C405 1.387 . S
H404 C411 0.950 . S
C405 C403 1.387 . S
C405 C407 1.390 . S
C405 H409 0.950 . S
H406 C402 0.950 . S
C407 C405 1.390 . S
C407 C408 1.387 . S
C407 H410 0.950 . S
C408 C407 1.387 . S
C408 C411 1.387 . S
H409 C405 0.950 . S
H410 C407 0.950 . S
C411 C402 1.390 . S
C411 H404 0.950 . S
C411 C408 1.387 . S
C412 C413 1.387 . S
C412 H416 0.950 . S
C412 C421 1.390 . S
C413 C412 1.387 . S
C413 C415 1.387 1_556 S
H414 C421 0.950 . S
C415 C413 1.387 1_554 S
C415 C417 1.390 . S
C415 H419 0.950 . S
H416 C412 0.950 . S
C417 C415 1.390 . S
C417 C418 1.387 . S
C417 H420 0.950 . S
C418 C417 1.387 . S
C418 C421 1.387 1_554 S
H419 C415 0.950 . S
H420 C417 0.950 . S
C421 C412 1.390 . S
C421 H414 0.950 . S
C421 C418 1.387 1_556 S
C422 C423 1.387 . S
C422 H426 0.950 . S
C422 C431 1.390 . S
C423 C422 1.387 . S
C423 C425 1.387 . S
H424 C431 0.950 . S
C425 C423 1.387 . S
C425 C427 1.390 . S
C425 H429 0.950 . S
H426 C422 0.950 . S
C427 C425 1.390 . S
C427 C428 1.387 . S
C427 H430 0.950 . S
C428 C427 1.387 . S
C428 C431 1.387 . S
H429 C425 0.950 . S
H430 C427 0.950 . S
C431 C422 1.390 . S
C431 H424 0.950 . S
C431 C428 1.387 . S
C432 C433 1.387 1_565 S
C432 H436 0.950 . S
C432 C441 1.390 . S
C433 C432 1.387 1_545 S
C433 C435 1.387 1_545 S
H434 C441 0.950 . S
C435 C433 1.387 1_565 S
C435 C437 1.390 . S
C435 H439 0.950 . S
H436 C432 0.950 . S
C437 C435 1.390 . S
C437 C438 1.387 . S
C437 H440 0.950 . S
C438 C437 1.387 . S
C438 C441 1.387 . S
H439 C435 0.950 . S
H440 C437 0.950 . S
C441 C432 1.390 . S
C441 H434 0.950 . S
C441 C438 1.387 . S
C442 C443 1.387 . S
C442 H446 0.950 . S
C442 C451 1.390 1_545 S
C443 C442 1.387 . S
C443 C445 1.387 1_545 S
H444 C451 0.950 . S
C445 C443 1.387 1_565 S
C445 C447 1.390 . S
C445 H449 0.950 . S
H446 C442 0.950 . S
C447 C445 1.390 . S
C447 C448 1.387 . S
C447 H450 0.950 . S
C448 C447 1.387 . S
C448 C451 1.387 . S
H449 C445 0.950 . S
H450 C447 0.950 . S
C451 C442 1.390 1_565 S
C451 H444 0.950 . S
C451 C448 1.387 . S
C452 C453 1.387 . S
C452 H456 0.950 . S
C452 C461 1.390 . S
C453 C452 1.387 . S
C453 C455 1.387 . S
H454 C461 0.950 . S
C455 C453 1.387 . S
C455 C457 1.390 . S
C455 H459 0.950 . S
H456 C452 0.950 . S
C457 C455 1.390 . S
C457 C458 1.387 1_545 S
C457 H460 0.950 . S
C458 C457 1.387 1_565 S
C458 C461 1.387 1_565 S
H459 C455 0.950 . S
H460 C457 0.950 . S
C461 C452 1.390 . S
C461 H454 0.950 . S
C461 C458 1.387 1_545 S
C462 C463 1.387 1_545 S
C462 H466 0.950 . S
C462 C471 1.390 . S
C463 C462 1.387 1_565 S
C463 C465 1.387 1_565 S
H464 C471 0.950 . S
C465 C463 1.387 1_545 S
C465 C467 1.390 . S
C465 H469 0.950 1_545 S
H466 C462 0.950 . S
C467 C465 1.390 . S
C467 C468 1.387 . S
C467 H470 0.950 . S
C468 C467 1.387 . S
C468 C471 1.387 . S
H469 C465 0.950 1_565 S
H470 C467 0.950 . S
C471 C462 1.390 . S
C471 H464 0.950 . S
C471 C468 1.387 . S
C472 C473 1.387 . S
C472 H476 0.950 . S
C472 C481 1.390 . S
C473 C472 1.387 . S
C473 C475 1.387 . S
H474 C481 0.950 . S
C475 C473 1.387 . S
C475 C477 1.390 . S
C475 H479 0.950 . S
H476 C472 0.950 . S
C477 C475 1.390 . S
C477 C478 1.387 . S
C477 H480 0.950 . S
C478 C477 1.387 . S
C478 C481 1.387 . S
H479 C475 0.950 . S
H480 C477 0.950 . S
C481 C472 1.390 . S
C481 H474 0.950 . S
C481 C478 1.387 . S
C482 C483 1.387 . S
C482 H486 0.950 . S
C482 C491 1.390 . S
C483 C482 1.387 . S
C483 C485 1.387 . S
H484 C491 0.950 . S
C485 C483 1.387 . S
C485 C487 1.390 . S
C485 H489 0.950 . S
H486 C482 0.950 . S
C487 C485 1.390 . S
C487 C488 1.387 . S
C487 H490 0.950 . S
C488 C487 1.387 . S
C488 C491 1.387 . S
H489 C485 0.950 . S
H490 C487 0.950 . S
C491 C482 1.390 . S
C491 H484 0.950 . S
C491 C488 1.387 . S
C492 C493 1.387 . S
C492 H496 0.950 . S
C492 C501 1.390 . S
C493 C492 1.387 . S
C493 C495 1.387 . S
H494 C501 0.950 . S
C495 C493 1.387 . S
C495 C497 1.390 . S
C495 H499 0.950 . S
H496 C492 0.950 . S
C497 C495 1.390 . S
C497 C498 1.387 . S
C497 H500 0.950 . S
C498 C497 1.387 . S
C498 C501 1.387 . S
H499 C495 0.950 . S
H500 C497 0.950 . S
C501 C492 1.390 . S
C501 H494 0.950 . S
C501 C498 1.387 . S
C502 C503 1.387 . S
C502 H506 0.950 . S
C502 C511 1.390 . S
C503 C502 1.387 . S
C503 C505 1.387 . S
H504 C511 0.950 . S
C505 C503 1.387 . S
C505 C507 1.390 . S
C505 H509 0.950 . S
H506 C502 0.950 . S
C507 C505 1.390 . S
C507 C508 1.387 . S
C507 H510 0.950 . S
C508 C507 1.387 . S
C508 C511 1.387 . S
H509 C505 0.950 . S
H510 C507 0.950 . S
C511 C502 1.390 . S
C511 H504 0.950 . S
C511 C508 1.387 . S
C512 C513 1.387 . S
C512 H516 0.950 . S
C512 C521 1.390 1_554 S
C513 C512 1.387 . S
C513 C515 1.387 1_545 S
H514 C521 0.950 . S
C515 C513 1.387 1_565 S
C515 C517 1.390 1_554 S
C515 H519 0.950 . S
H516 C512 0.950 . S
C517 C515 1.390 1_556 S
C517 C518 1.387 . S
C517 H520 0.950 . S
C518 C517 1.387 . S
C518 C521 1.387 1_565 S
H519 C515 0.950 . S
H520 C517 0.950 . S
C521 C512 1.390 1_556 S
C521 H514 0.950 . S
C521 C518 1.387 1_545 S
C522 C523 1.387 . S
C522 H526 0.950 . S
C522 C531 1.390 . S
C523 C522 1.387 . S
C523 C525 1.387 1_545 S
H524 C531 0.950 . S
C525 C523 1.387 1_565 S
C525 C527 1.390 . S
C525 H529 0.950 . S
H526 C522 0.950 . S
C527 C525 1.390 . S
C527 C528 1.387 . S
C527 H530 0.950 . S
C528 C527 1.387 . S
C528 C531 1.387 1_565 S
H529 C525 0.950 . S
H530 C527 0.950 . S
C531 C522 1.390 . S
C531 H524 0.950 . S
C531 C528 1.387 1_545 S
C532 C533 1.387 . S
C532 H536 0.950 . S
C532 C541 1.390 1_654 S
C533 C532 1.387 . S
C533 C535 1.387 . S
H534 C541 0.950 . S
C535 C533 1.387 . S
C535 C537 1.390 1_654 S
C535 H539 0.950 . S
H536 C532 0.950 . S
C537 C535 1.390 1_456 S
C537 C538 1.387 . S
C537 H540 0.950 . S
C538 C537 1.387 . S
C538 C541 1.387 . S
H539 C535 0.950 . S
H540 C537 0.950 . S
C541 C532 1.390 1_456 S
C541 H534 0.950 . S
C541 C538 1.387 . S
C542 C543 1.387 . S
C542 H546 0.950 . S
C542 C551 1.390 1_455 S
C543 C542 1.387 . S
C543 C545 1.387 . S
H544 C551 0.950 . S
C545 C543 1.387 . S
C545 C547 1.390 1_455 S
C545 H549 0.950 . S
H546 C542 0.950 . S
C547 C545 1.390 1_655 S
C547 C548 1.387 . S
C547 H550 0.950 . S
C548 C547 1.387 . S
C548 C551 1.387 . S
H549 C545 0.950 . S
H550 C547 0.950 . S
C551 C542 1.390 1_655 S
C551 H544 0.950 . S
C551 C548 1.387 . S
C273 C35 1.770 . S
C278 C3 1.770 . S
C283 C105 1.770 . S
C288 C71 1.770 . S
C293 C139 1.770 . S
C298 C173 1.770 . S
C303 C207 1.770 . S
C308 C239 1.770 . S
C313 C22 1.617 . S
C318 C15 1.633 . S
C323 C49 1.612 . S
C328 C56 1.628 . S
C333 C83 1.631 . S
C338 C90 1.615 . S
C343 C124 1.617 . S
C348 C117 1.632 . S
C353 C158 1.617 . S
C358 C151 1.633 1_545 S
C363 C192 1.617 . S
C368 C185 1.633 1_545 S
C373 C219 1.630 1_565 S
C378 C226 1.614 . S
C383 C253 1.618 . S
C388 C260 1.633 1_565 S
C393 C17 1.886 . S
C398 C221 1.886 . S
C403 C51 1.886 . S
C408 C255 1.886 . S
C413 C85 1.883 . S
C418 C153 1.883 . S
C423 C187 1.886 . S
C428 C119 1.886 . S
C433 C6 1.679 . S
C438 C130 1.643 . S
C443 C62 1.679 . S
C448 C96 1.643 . S
C453 C40 1.643 . S
C458 C74 1.679 . S
C463 C108 1.682 . S
C468 C28 1.647 . S
C473 C244 1.647 . S
C478 C142 1.682 . S
C483 C176 1.680 . S
C488 C232 1.644 . S
C493 C198 1.643 . S
C498 C210 1.679 . S
C503 C164 1.647 . S
C508 C266 1.682 . S
C513 C1 1.892 . S
C518 C69 1.892 . S
C523 C37 1.892 . S
C528 C103 1.892 . S
C533 C137 1.890 . S
C538 C205 1.890 . S
C543 C171 1.892 . S
C548 C241 1.892 . S
