# Generated by pormake.
# Topology svx, (7)-cn, num edge types: 1
# Building blocks:
#     Node 0, Type 0, BuildingBlock: NUHQUE_clean_sbu_2, # of connection points: 7
#     Node 1, Type 0, BuildingBlock: NUHQUE_clean_sbu_2, # of connection points: 7
#     Node 2, Type 0, BuildingBlock: NUHQUE_clean_sbu_2, # of connection points: 7
#     Node 3, Type 0, BuildingBlock: NUHQUE_clean_sbu_2, # of connection points: 7
#     Node 4, Type 0, BuildingBlock: NUHQUE_clean_sbu_2, # of connection points: 7
#     Node 5, Type 0, BuildingBlock: NUHQUE_clean_sbu_2, # of connection points: 7
#     Node 6, Type 0, BuildingBlock: NUHQUE_clean_sbu_2, # of connection points: 7
#     Node 7, Type 0, BuildingBlock: NUHQUE_clean_sbu_2, # of connection points: 7
#     Node 8, Type 0, BuildingBlock: NUHQUE_clean_sbu_2, # of connection points: 7
#     Node 9, Type 0, BuildingBlock: NUHQUE_clean_sbu_2, # of connection points: 7
#     Node 10, Type 0, BuildingBlock: NUHQUE_clean_sbu_2, # of connection points: 7
#     Node 11, Type 0, BuildingBlock: NUHQUE_clean_sbu_2, # of connection points: 7
#     Node 12, Type 0, BuildingBlock: NUHQUE_clean_sbu_2, # of connection points: 7
#     Node 13, Type 0, BuildingBlock: NUHQUE_clean_sbu_2, # of connection points: 7
#     Node 14, Type 0, BuildingBlock: NUHQUE_clean_sbu_2, # of connection points: 7
#     Node 15, Type 0, BuildingBlock: NUHQUE_clean_sbu_2, # of connection points: 7
#     Node 16, Type 0, BuildingBlock: NUHQUE_clean_sbu_2, # of connection points: 7
#     Node 17, Type 0, BuildingBlock: NUHQUE_clean_sbu_2, # of connection points: 7
#     Node 18, Type 0, BuildingBlock: NUHQUE_clean_sbu_2, # of connection points: 7
#     Node 19, Type 0, BuildingBlock: NUHQUE_clean_sbu_2, # of connection points: 7
#     Node 20, Type 0, BuildingBlock: NUHQUE_clean_sbu_2, # of connection points: 7
#     Node 21, Type 0, BuildingBlock: NUHQUE_clean_sbu_2, # of connection points: 7
#     Node 22, Type 0, BuildingBlock: NUHQUE_clean_sbu_2, # of connection points: 7
#     Node 23, Type 0, BuildingBlock: NUHQUE_clean_sbu_2, # of connection points: 7
#     Node 24, Type 0, BuildingBlock: NUHQUE_clean_sbu_2, # of connection points: 7
#     Node 25, Type 0, BuildingBlock: NUHQUE_clean_sbu_2, # of connection points: 7
#     Node 26, Type 0, BuildingBlock: NUHQUE_clean_sbu_2, # of connection points: 7
#     Node 27, Type 0, BuildingBlock: NUHQUE_clean_sbu_2, # of connection points: 7
#     Node 28, Type 0, BuildingBlock: NUHQUE_clean_sbu_2, # of connection points: 7
#     Node 29, Type 0, BuildingBlock: NUHQUE_clean_sbu_2, # of connection points: 7
#     Node 30, Type 0, BuildingBlock: NUHQUE_clean_sbu_2, # of connection points: 7
#     Node 31, Type 0, BuildingBlock: NUHQUE_clean_sbu_2, # of connection points: 7
#     Node 32, Type 0, BuildingBlock: NUHQUE_clean_sbu_2, # of connection points: 7
#     Node 33, Type 0, BuildingBlock: NUHQUE_clean_sbu_2, # of connection points: 7
#     Node 34, Type 0, BuildingBlock: NUHQUE_clean_sbu_2, # of connection points: 7
#     Node 35, Type 0, BuildingBlock: NUHQUE_clean_sbu_2, # of connection points: 7
#     Node 36, Type 0, BuildingBlock: NUHQUE_clean_sbu_2, # of connection points: 7
#     Node 37, Type 0, BuildingBlock: NUHQUE_clean_sbu_2, # of connection points: 7
#     Node 38, Type 0, BuildingBlock: NUHQUE_clean_sbu_2, # of connection points: 7
#     Node 39, Type 0, BuildingBlock: NUHQUE_clean_sbu_2, # of connection points: 7
#     Node 40, Type 0, BuildingBlock: NUHQUE_clean_sbu_2, # of connection points: 7
#     Node 41, Type 0, BuildingBlock: NUHQUE_clean_sbu_2, # of connection points: 7
#     Node 42, Type 0, BuildingBlock: NUHQUE_clean_sbu_2, # of connection points: 7
#     Node 43, Type 0, BuildingBlock: NUHQUE_clean_sbu_2, # of connection points: 7
#     Node 44, Type 0, BuildingBlock: NUHQUE_clean_sbu_2, # of connection points: 7
#     Node 45, Type 0, BuildingBlock: NUHQUE_clean_sbu_2, # of connection points: 7
#     Node 46, Type 0, BuildingBlock: NUHQUE_clean_sbu_2, # of connection points: 7
#     Node 47, Type 0, BuildingBlock: NUHQUE_clean_sbu_2, # of connection points: 7
#     Edge 48, Type (0, 0), BuildingBlock: OJICUG_clean_linker_0, # of connection points: 2
#     Edge 49, Type (0, 0), BuildingBlock: OJICUG_clean_linker_0, # of connection points: 2
#     Edge 50, Type (0, 0), BuildingBlock: OJICUG_clean_linker_0, # of connection points: 2
#     Edge 51, Type (0, 0), BuildingBlock: OJICUG_clean_linker_0, # of connection points: 2
#     Edge 52, Type (0, 0), BuildingBlock: OJICUG_clean_linker_0, # of connection points: 2
#     Edge 53, Type (0, 0), BuildingBlock: OJICUG_clean_linker_0, # of connection points: 2
#     Edge 54, Type (0, 0), BuildingBlock: OJICUG_clean_linker_0, # of connection points: 2
#     Edge 55, Type (0, 0), BuildingBlock: OJICUG_clean_linker_0, # of connection points: 2
#     Edge 56, Type (0, 0), BuildingBlock: OJICUG_clean_linker_0, # of connection points: 2
#     Edge 57, Type (0, 0), BuildingBlock: OJICUG_clean_linker_0, # of connection points: 2
#     Edge 58, Type (0, 0), BuildingBlock: OJICUG_clean_linker_0, # of connection points: 2
#     Edge 59, Type (0, 0), BuildingBlock: OJICUG_clean_linker_0, # of connection points: 2
#     Edge 60, Type (0, 0), BuildingBlock: OJICUG_clean_linker_0, # of connection points: 2
#     Edge 61, Type (0, 0), BuildingBlock: OJICUG_clean_linker_0, # of connection points: 2
#     Edge 62, Type (0, 0), BuildingBlock: OJICUG_clean_linker_0, # of connection points: 2
#     Edge 63, Type (0, 0), BuildingBlock: OJICUG_clean_linker_0, # of connection points: 2
#     Edge 64, Type (0, 0), BuildingBlock: OJICUG_clean_linker_0, # of connection points: 2
#     Edge 65, Type (0, 0), BuildingBlock: OJICUG_clean_linker_0, # of connection points: 2
#     Edge 66, Type (0, 0), BuildingBlock: OJICUG_clean_linker_0, # of connection points: 2
#     Edge 67, Type (0, 0), BuildingBlock: OJICUG_clean_linker_0, # of connection points: 2
#     Edge 68, Type (0, 0), BuildingBlock: OJICUG_clean_linker_0, # of connection points: 2
#     Edge 69, Type (0, 0), BuildingBlock: OJICUG_clean_linker_0, # of connection points: 2
#     Edge 70, Type (0, 0), BuildingBlock: OJICUG_clean_linker_0, # of connection points: 2
#     Edge 71, Type (0, 0), BuildingBlock: OJICUG_clean_linker_0, # of connection points: 2
#     Edge 72, Type (0, 0), BuildingBlock: OJICUG_clean_linker_0, # of connection points: 2
#     Edge 73, Type (0, 0), BuildingBlock: OJICUG_clean_linker_0, # of connection points: 2
#     Edge 74, Type (0, 0), BuildingBlock: OJICUG_clean_linker_0, # of connection points: 2
#     Edge 75, Type (0, 0), BuildingBlock: OJICUG_clean_linker_0, # of connection points: 2
#     Edge 76, Type (0, 0), BuildingBlock: OJICUG_clean_linker_0, # of connection points: 2
#     Edge 77, Type (0, 0), BuildingBlock: OJICUG_clean_linker_0, # of connection points: 2
#     Edge 78, Type (0, 0), BuildingBlock: OJICUG_clean_linker_0, # of connection points: 2
#     Edge 79, Type (0, 0), BuildingBlock: OJICUG_clean_linker_0, # of connection points: 2
#     Edge 80, Type (0, 0), BuildingBlock: OJICUG_clean_linker_0, # of connection points: 2
#     Edge 81, Type (0, 0), BuildingBlock: OJICUG_clean_linker_0, # of connection points: 2
#     Edge 82, Type (0, 0), BuildingBlock: OJICUG_clean_linker_0, # of connection points: 2
#     Edge 83, Type (0, 0), BuildingBlock: OJICUG_clean_linker_0, # of connection points: 2
#     Edge 84, Type (0, 0), BuildingBlock: OJICUG_clean_linker_0, # of connection points: 2
#     Edge 85, Type (0, 0), BuildingBlock: OJICUG_clean_linker_0, # of connection points: 2
#     Edge 86, Type (0, 0), BuildingBlock: OJICUG_clean_linker_0, # of connection points: 2
#     Edge 87, Type (0, 0), BuildingBlock: OJICUG_clean_linker_0, # of connection points: 2
#     Edge 88, Type (0, 0), BuildingBlock: OJICUG_clean_linker_0, # of connection points: 2
#     Edge 89, Type (0, 0), BuildingBlock: OJICUG_clean_linker_0, # of connection points: 2
#     Edge 90, Type (0, 0), BuildingBlock: OJICUG_clean_linker_0, # of connection points: 2
#     Edge 91, Type (0, 0), BuildingBlock: OJICUG_clean_linker_0, # of connection points: 2
#     Edge 92, Type (0, 0), BuildingBlock: OJICUG_clean_linker_0, # of connection points: 2
#     Edge 93, Type (0, 0), BuildingBlock: OJICUG_clean_linker_0, # of connection points: 2
#     Edge 94, Type (0, 0), BuildingBlock: OJICUG_clean_linker_0, # of connection points: 2
#     Edge 95, Type (0, 0), BuildingBlock: OJICUG_clean_linker_0, # of connection points: 2
#     Edge 96, Type (0, 0), BuildingBlock: OJICUG_clean_linker_0, # of connection points: 2
#     Edge 97, Type (0, 0), BuildingBlock: OJICUG_clean_linker_0, # of connection points: 2
#     Edge 98, Type (0, 0), BuildingBlock: OJICUG_clean_linker_0, # of connection points: 2
#     Edge 99, Type (0, 0), BuildingBlock: OJICUG_clean_linker_0, # of connection points: 2
#     Edge 100, Type (0, 0), BuildingBlock: OJICUG_clean_linker_0, # of connection points: 2
#     Edge 101, Type (0, 0), BuildingBlock: OJICUG_clean_linker_0, # of connection points: 2
#     Edge 102, Type (0, 0), BuildingBlock: OJICUG_clean_linker_0, # of connection points: 2
#     Edge 103, Type (0, 0), BuildingBlock: OJICUG_clean_linker_0, # of connection points: 2
#     Edge 104, Type (0, 0), BuildingBlock: OJICUG_clean_linker_0, # of connection points: 2
#     Edge 105, Type (0, 0), BuildingBlock: OJICUG_clean_linker_0, # of connection points: 2
#     Edge 106, Type (0, 0), BuildingBlock: OJICUG_clean_linker_0, # of connection points: 2
#     Edge 107, Type (0, 0), BuildingBlock: OJICUG_clean_linker_0, # of connection points: 2
#     Edge 108, Type (0, 0), BuildingBlock: OJICUG_clean_linker_0, # of connection points: 2
#     Edge 109, Type (0, 0), BuildingBlock: OJICUG_clean_linker_0, # of connection points: 2
#     Edge 110, Type (0, 0), BuildingBlock: OJICUG_clean_linker_0, # of connection points: 2
#     Edge 111, Type (0, 0), BuildingBlock: OJICUG_clean_linker_0, # of connection points: 2
#     Edge 112, Type (0, 0), BuildingBlock: OJICUG_clean_linker_0, # of connection points: 2
#     Edge 113, Type (0, 0), BuildingBlock: OJICUG_clean_linker_0, # of connection points: 2
#     Edge 114, Type (0, 0), BuildingBlock: OJICUG_clean_linker_0, # of connection points: 2
#     Edge 115, Type (0, 0), BuildingBlock: OJICUG_clean_linker_0, # of connection points: 2
#     Edge 116, Type (0, 0), BuildingBlock: OJICUG_clean_linker_0, # of connection points: 2
#     Edge 117, Type (0, 0), BuildingBlock: OJICUG_clean_linker_0, # of connection points: 2
#     Edge 118, Type (0, 0), BuildingBlock: OJICUG_clean_linker_0, # of connection points: 2
#     Edge 119, Type (0, 0), BuildingBlock: OJICUG_clean_linker_0, # of connection points: 2
#     Edge 120, Type (0, 0), BuildingBlock: OJICUG_clean_linker_0, # of connection points: 2
#     Edge 121, Type (0, 0), BuildingBlock: OJICUG_clean_linker_0, # of connection points: 2
#     Edge 122, Type (0, 0), BuildingBlock: OJICUG_clean_linker_0, # of connection points: 2
#     Edge 123, Type (0, 0), BuildingBlock: OJICUG_clean_linker_0, # of connection points: 2
#     Edge 124, Type (0, 0), BuildingBlock: OJICUG_clean_linker_0, # of connection points: 2
#     Edge 125, Type (0, 0), BuildingBlock: OJICUG_clean_linker_0, # of connection points: 2
#     Edge 126, Type (0, 0), BuildingBlock: OJICUG_clean_linker_0, # of connection points: 2
#     Edge 127, Type (0, 0), BuildingBlock: OJICUG_clean_linker_0, # of connection points: 2
#     Edge 128, Type (0, 0), BuildingBlock: OJICUG_clean_linker_0, # of connection points: 2
#     Edge 129, Type (0, 0), BuildingBlock: OJICUG_clean_linker_0, # of connection points: 2
#     Edge 130, Type (0, 0), BuildingBlock: OJICUG_clean_linker_0, # of connection points: 2
#     Edge 131, Type (0, 0), BuildingBlock: OJICUG_clean_linker_0, # of connection points: 2
#     Edge 132, Type (0, 0), BuildingBlock: OJICUG_clean_linker_0, # of connection points: 2
#     Edge 133, Type (0, 0), BuildingBlock: OJICUG_clean_linker_0, # of connection points: 2
#     Edge 134, Type (0, 0), BuildingBlock: OJICUG_clean_linker_0, # of connection points: 2
#     Edge 135, Type (0, 0), BuildingBlock: OJICUG_clean_linker_0, # of connection points: 2
#     Edge 136, Type (0, 0), BuildingBlock: OJICUG_clean_linker_0, # of connection points: 2
#     Edge 137, Type (0, 0), BuildingBlock: OJICUG_clean_linker_0, # of connection points: 2
#     Edge 138, Type (0, 0), BuildingBlock: OJICUG_clean_linker_0, # of connection points: 2
#     Edge 139, Type (0, 0), BuildingBlock: OJICUG_clean_linker_0, # of connection points: 2
#     Edge 140, Type (0, 0), BuildingBlock: OJICUG_clean_linker_0, # of connection points: 2
#     Edge 141, Type (0, 0), BuildingBlock: OJICUG_clean_linker_0, # of connection points: 2
#     Edge 142, Type (0, 0), BuildingBlock: OJICUG_clean_linker_0, # of connection points: 2
#     Edge 143, Type (0, 0), BuildingBlock: OJICUG_clean_linker_0, # of connection points: 2
#     Edge 144, Type (0, 0), BuildingBlock: OJICUG_clean_linker_0, # of connection points: 2
#     Edge 145, Type (0, 0), BuildingBlock: OJICUG_clean_linker_0, # of connection points: 2
#     Edge 146, Type (0, 0), BuildingBlock: OJICUG_clean_linker_0, # of connection points: 2
#     Edge 147, Type (0, 0), BuildingBlock: OJICUG_clean_linker_0, # of connection points: 2
#     Edge 148, Type (0, 0), BuildingBlock: OJICUG_clean_linker_0, # of connection points: 2
#     Edge 149, Type (0, 0), BuildingBlock: OJICUG_clean_linker_0, # of connection points: 2
#     Edge 150, Type (0, 0), BuildingBlock: OJICUG_clean_linker_0, # of connection points: 2
#     Edge 151, Type (0, 0), BuildingBlock: OJICUG_clean_linker_0, # of connection points: 2
#     Edge 152, Type (0, 0), BuildingBlock: OJICUG_clean_linker_0, # of connection points: 2
#     Edge 153, Type (0, 0), BuildingBlock: OJICUG_clean_linker_0, # of connection points: 2
#     Edge 154, Type (0, 0), BuildingBlock: OJICUG_clean_linker_0, # of connection points: 2
#     Edge 155, Type (0, 0), BuildingBlock: OJICUG_clean_linker_0, # of connection points: 2
#     Edge 156, Type (0, 0), BuildingBlock: OJICUG_clean_linker_0, # of connection points: 2
#     Edge 157, Type (0, 0), BuildingBlock: OJICUG_clean_linker_0, # of connection points: 2
#     Edge 158, Type (0, 0), BuildingBlock: OJICUG_clean_linker_0, # of connection points: 2
#     Edge 159, Type (0, 0), BuildingBlock: OJICUG_clean_linker_0, # of connection points: 2
#     Edge 160, Type (0, 0), BuildingBlock: OJICUG_clean_linker_0, # of connection points: 2
#     Edge 161, Type (0, 0), BuildingBlock: OJICUG_clean_linker_0, # of connection points: 2
#     Edge 162, Type (0, 0), BuildingBlock: OJICUG_clean_linker_0, # of connection points: 2
#     Edge 163, Type (0, 0), BuildingBlock: OJICUG_clean_linker_0, # of connection points: 2
#     Edge 164, Type (0, 0), BuildingBlock: OJICUG_clean_linker_0, # of connection points: 2
#     Edge 165, Type (0, 0), BuildingBlock: OJICUG_clean_linker_0, # of connection points: 2
#     Edge 166, Type (0, 0), BuildingBlock: OJICUG_clean_linker_0, # of connection points: 2
#     Edge 167, Type (0, 0), BuildingBlock: OJICUG_clean_linker_0, # of connection points: 2
#     Edge 168, Type (0, 0), BuildingBlock: OJICUG_clean_linker_0, # of connection points: 2
#     Edge 169, Type (0, 0), BuildingBlock: OJICUG_clean_linker_0, # of connection points: 2
#     Edge 170, Type (0, 0), BuildingBlock: OJICUG_clean_linker_0, # of connection points: 2
#     Edge 171, Type (0, 0), BuildingBlock: OJICUG_clean_linker_0, # of connection points: 2
#     Edge 172, Type (0, 0), BuildingBlock: OJICUG_clean_linker_0, # of connection points: 2
#     Edge 173, Type (0, 0), BuildingBlock: OJICUG_clean_linker_0, # of connection points: 2
#     Edge 174, Type (0, 0), BuildingBlock: OJICUG_clean_linker_0, # of connection points: 2
#     Edge 175, Type (0, 0), BuildingBlock: OJICUG_clean_linker_0, # of connection points: 2
#     Edge 176, Type (0, 0), BuildingBlock: OJICUG_clean_linker_0, # of connection points: 2
#     Edge 177, Type (0, 0), BuildingBlock: OJICUG_clean_linker_0, # of connection points: 2
#     Edge 178, Type (0, 0), BuildingBlock: OJICUG_clean_linker_0, # of connection points: 2
#     Edge 179, Type (0, 0), BuildingBlock: OJICUG_clean_linker_0, # of connection points: 2
#     Edge 180, Type (0, 0), BuildingBlock: OJICUG_clean_linker_0, # of connection points: 2
#     Edge 181, Type (0, 0), BuildingBlock: OJICUG_clean_linker_0, # of connection points: 2
#     Edge 182, Type (0, 0), BuildingBlock: OJICUG_clean_linker_0, # of connection points: 2
#     Edge 183, Type (0, 0), BuildingBlock: OJICUG_clean_linker_0, # of connection points: 2
#     Edge 184, Type (0, 0), BuildingBlock: OJICUG_clean_linker_0, # of connection points: 2
#     Edge 185, Type (0, 0), BuildingBlock: OJICUG_clean_linker_0, # of connection points: 2
#     Edge 186, Type (0, 0), BuildingBlock: OJICUG_clean_linker_0, # of connection points: 2
#     Edge 187, Type (0, 0), BuildingBlock: OJICUG_clean_linker_0, # of connection points: 2
#     Edge 188, Type (0, 0), BuildingBlock: OJICUG_clean_linker_0, # of connection points: 2
#     Edge 189, Type (0, 0), BuildingBlock: OJICUG_clean_linker_0, # of connection points: 2
#     Edge 190, Type (0, 0), BuildingBlock: OJICUG_clean_linker_0, # of connection points: 2
#     Edge 191, Type (0, 0), BuildingBlock: OJICUG_clean_linker_0, # of connection points: 2
#     Edge 192, Type (0, 0), BuildingBlock: OJICUG_clean_linker_0, # of connection points: 2
#     Edge 193, Type (0, 0), BuildingBlock: OJICUG_clean_linker_0, # of connection points: 2
#     Edge 194, Type (0, 0), BuildingBlock: OJICUG_clean_linker_0, # of connection points: 2
#     Edge 195, Type (0, 0), BuildingBlock: OJICUG_clean_linker_0, # of connection points: 2
#     Edge 196, Type (0, 0), BuildingBlock: OJICUG_clean_linker_0, # of connection points: 2
#     Edge 197, Type (0, 0), BuildingBlock: OJICUG_clean_linker_0, # of connection points: 2
#     Edge 198, Type (0, 0), BuildingBlock: OJICUG_clean_linker_0, # of connection points: 2
#     Edge 199, Type (0, 0), BuildingBlock: OJICUG_clean_linker_0, # of connection points: 2
#     Edge 200, Type (0, 0), BuildingBlock: OJICUG_clean_linker_0, # of connection points: 2
#     Edge 201, Type (0, 0), BuildingBlock: OJICUG_clean_linker_0, # of connection points: 2
#     Edge 202, Type (0, 0), BuildingBlock: OJICUG_clean_linker_0, # of connection points: 2
#     Edge 203, Type (0, 0), BuildingBlock: OJICUG_clean_linker_0, # of connection points: 2
#     Edge 204, Type (0, 0), BuildingBlock: OJICUG_clean_linker_0, # of connection points: 2
#     Edge 205, Type (0, 0), BuildingBlock: OJICUG_clean_linker_0, # of connection points: 2
#     Edge 206, Type (0, 0), BuildingBlock: OJICUG_clean_linker_0, # of connection points: 2
#     Edge 207, Type (0, 0), BuildingBlock: OJICUG_clean_linker_0, # of connection points: 2
#     Edge 208, Type (0, 0), BuildingBlock: OJICUG_clean_linker_0, # of connection points: 2
#     Edge 209, Type (0, 0), BuildingBlock: OJICUG_clean_linker_0, # of connection points: 2
#     Edge 210, Type (0, 0), BuildingBlock: OJICUG_clean_linker_0, # of connection points: 2
#     Edge 211, Type (0, 0), BuildingBlock: OJICUG_clean_linker_0, # of connection points: 2
#     Edge 212, Type (0, 0), BuildingBlock: OJICUG_clean_linker_0, # of connection points: 2
#     Edge 213, Type (0, 0), BuildingBlock: OJICUG_clean_linker_0, # of connection points: 2
#     Edge 214, Type (0, 0), BuildingBlock: OJICUG_clean_linker_0, # of connection points: 2
#     Edge 215, Type (0, 0), BuildingBlock: OJICUG_clean_linker_0, # of connection points: 2
# Relax obj value: 0.311
# Max RMSD: 0.248
# Mean RMSD: 0.248
data_MOF--net-svx--node1-NUHQUE_clean_sbu_2--edge1-OJICUG_clean_linker_0
_symmetry_space_group_name_H-M    P1
_symmetry_Int_Tables_number       1
_symmetry_cell_setting            triclinic
loop_
_symmetry_equiv_pos_as_xyz
'x, y, z'
_cell_length_a     49.860605
_cell_length_b     49.941755
_cell_length_c     49.982001
_cell_angle_alpha  89.993496
_cell_angle_beta   90.060012
_cell_angle_gamma 89.992123
loop_
_atom_site_label
_atom_site_type_symbol
_atom_site_fract_x
_atom_site_fract_y
_atom_site_fract_z
_atom_type_partial_charge
O0 O 0.14365 0.33573 0.37357 0.0
Tb1 Tb 0.1248 0.36376 0.34654 0.0
Eu2 Eu 0.12799 0.38812 0.28742 0.0
C3 C 0.1492 0.31093 0.36703 0.0
O4 O 0.14564 0.3029 0.34226 0.0
C5 C 0.08847 0.33838 0.3008 0.0
O6 O 0.13238 0.41782 0.25238 0.0
C7 C 0.16931 0.35622 0.28599 0.0
C8 C 0.15246 0.43533 0.25328 0.0
O9 O 0.16796 0.43513 0.27454 0.0
C10 C 0.15318 0.41655 0.33807 0.0
C11 C 0.19786 0.35449 0.29386 0.0
C12 C 0.20458 0.33975 0.31694 0.0
C13 C 0.23133 0.33418 0.32328 0.0
C14 C 0.2516 0.34452 0.30685 0.0
C15 C 0.24548 0.35847 0.2832 0.0
C16 C 0.21846 0.36362 0.27688 0.0
O17 O 0.10579 0.33367 0.3203 0.0
O18 O 0.08962 0.36151 0.28729 0.0
O19 O 0.10574 0.37147 0.38458 0.0
O20 O 0.09042 0.39111 0.34991 0.0
C21 C 0.08813 0.38842 0.37576 0.0
O22 O 0.1354 0.42061 0.31892 0.0
O23 O 0.15835 0.39173 0.3448 0.0
O24 O 0.16238 0.37148 0.26574 0.0
O25 O 0.15202 0.35692 0.30557 0.0
H26 H 0.18894 0.33107 0.32916 0.0
H27 H 0.27219 0.33867 0.31069 0.0
H28 H 0.21355 0.37335 0.25813 0.0
O29 O 0.5827 0.68688 0.9697 0.0
Tb30 Tb 0.61296 0.7097 0.99059 0.0
Eu31 Eu 0.63582 0.71044 0.05206 0.0
C32 C 0.55744 0.68666 0.97694 0.0
O33 O 0.55069 0.69607 1.00053 0.0
C34 C 0.58801 0.7515 1.03435 0.0
O35 O 0.66504 0.70671 0.08767 0.0
C36 C 0.60435 0.66888 0.05339 0.0
C37 C 0.68282 0.68686 0.08704 0.0
O38 O 0.68296 0.67135 0.06582 0.0
C39 C 0.66577 0.6842 1.00317 0.0
C40 C 0.603 0.64049 0.04502 0.0
C41 C 0.58802 0.63393 1.02207 0.0
C42 C 0.58279 0.60727 1.01531 0.0
C43 C 0.59364 0.58691 1.03129 0.0
C44 C 0.6078 0.59282 0.0549 0.0
C45 C 0.61272 0.61976 0.06153 0.0
O46 O 0.5853 0.73584 1.01307 0.0
O47 O 0.60847 0.74822 0.05148 0.0
O48 O 0.61773 0.7195 0.94869 0.0
O49 O 0.64101 0.74088 0.97737 0.0
C50 C 0.63607 0.73761 0.95194 0.0
O51 O 0.66894 0.70344 1.02097 0.0
O52 O 0.64116 0.67722 0.9975 0.0
O53 O 0.62006 0.67555 0.07339 0.0
O54 O 0.60414 0.68669 1.03422 0.0
H55 H 0.57884 0.6496 1.01037 0.0
H56 H 0.58799 0.56635 1.02721 0.0
H57 H 0.62265 0.6245 0.08023 0.0
O58 O 0.94869 0.26083 0.36691 0.0
Tb59 Tb 0.96857 0.2288 0.34583 0.0
Eu60 Eu 0.96615 0.20367 0.28708 0.0
C61 C 0.93387 0.25632 0.38818 0.0
O62 O 0.92882 0.23154 0.39544 0.0
C63 C 1.00676 0.25253 0.30039 0.0
O64 O 0.96156 0.17382 0.25222 0.0
C65 C 0.92533 0.23621 0.28539 0.0
C66 C 0.9411 0.15676 0.25299 0.0
O67 O 0.92535 0.15752 0.27403 0.0
C68 C 0.94018 0.17601 0.33764 0.0
C69 C 0.89702 0.23826 0.29395 0.0
C70 C 0.89093 0.25353 0.31686 0.0
C71 C 0.8643 0.25862 0.32408 0.0
C72 C 0.84365 0.24763 0.30853 0.0
C73 C 0.84914 0.23339 0.28492 0.0
C74 C 0.87598 0.22847 0.27786 0.0
O75 O 0.98961 0.25773 0.31987 0.0
O76 O 1.00502 0.22947 0.28684 0.0
O77 O 0.98535 0.22232 0.3853 0.0
O78 O 1.00185 0.20077 0.35235 0.0
C79 C 1.00274 0.20435 0.37818 0.0
O80 O 0.95828 0.17166 0.3189 0.0
O81 O 0.93489 0.20096 0.3438 0.0
O82 O 0.93162 0.22025 0.2655 0.0
O83 O 0.94309 0.23593 0.30457 0.0
H84 H 0.9069 0.26283 0.32829 0.0
H85 H 0.82309 0.25318 0.31297 0.0
H86 H 0.88037 0.21833 0.2592 0.0
O87 O 0.50255 0.89188 0.96419 0.0
Tb88 Tb 0.47399 0.87279 0.99046 0.0
Eu89 Eu 0.45371 0.87537 0.05223 0.0
C90 C 0.52727 0.89718 0.97143 0.0
O91 O 0.53477 0.89278 0.99624 0.0
C92 C 0.50131 0.83424 1.03451 0.0
O93 O 0.42423 0.88032 0.08749 0.0
C94 C 0.48613 0.91617 0.05306 0.0
C95 C 0.40747 0.90107 0.08689 0.0
O96 O 0.40865 0.9171 0.06608 0.0
C97 C 0.42356 0.90235 1.00353 0.0
C98 C 0.4875 0.94483 0.04572 0.0
C99 C 0.50168 0.95204 1.02247 0.0
C100 C 0.50665 0.97889 1.01634 0.0
C101 C 0.49629 0.99878 1.03318 0.0
C102 C 0.4829 0.99219 0.05701 0.0
C103 C 0.47838 0.96507 0.06314 0.0
O104 O 0.50409 0.85053 1.01378 0.0
O105 O 0.48046 0.837 0.05124 0.0
O106 O 0.46369 0.85754 0.95123 0.0
O107 O 0.44484 0.84017 0.98529 0.0
C108 C 0.44626 0.84001 0.95923 0.0
O109 O 0.42004 0.88375 1.02195 0.0
O110 O 0.44819 0.90735 0.99619 0.0
O111 O 0.47177 0.90895 0.07387 0.0
O112 O 0.48452 0.89922 1.03318 0.0
H113 H 0.51036 0.93673 1.00989 0.0
H114 H 0.50166 1.01949 1.02944 0.0
H115 H 0.46906 0.95982 0.082 0.0
O116 O 0.14896 0.76543 0.22577 0.0
Tb117 Tb 0.12756 0.73218 0.24337 0.0
Eu118 Eu 0.12699 0.70472 0.30226 0.0
C119 C 0.16485 0.76207 0.20504 0.0
O120 O 0.1722 0.73771 0.19835 0.0
C121 C 0.08684 0.75396 0.28842 0.0
O122 O 0.13068 0.67444 0.33688 0.0
C123 C 0.16846 0.73633 0.30508 0.0
C124 C 0.15078 0.65695 0.33603 0.0
O125 O 0.16645 0.6574 0.31492 0.0
C126 C 0.15307 0.67763 0.25159 0.0
C127 C 0.19673 0.73777 0.29628 0.0
C128 C 0.20297 0.7528 0.27326 0.0
C129 C 0.22962 0.7574 0.26583 0.0
C130 C 0.25018 0.74619 0.28135 0.0
C131 C 0.24459 0.73221 0.3051 0.0
C132 C 0.2177 0.72769 0.31228 0.0
O133 O 0.10436 0.7596 0.26933 0.0
O134 O 0.08843 0.73085 0.30191 0.0
O135 O 0.11574 0.72962 0.20181 0.0
O136 O 0.09417 0.70652 0.23047 0.0
C137 C 0.09687 0.71214 0.20512 0.0
O138 O 0.13437 0.67347 0.26975 0.0
O139 O 0.15968 0.70251 0.24633 0.0
O140 O 0.16191 0.71974 0.32435 0.0
O141 O 0.15048 0.73735 0.28612 0.0
H142 H 0.18713 0.76239 0.26198 0.0
H143 H 0.27077 0.75146 0.2768 0.0
H144 H 0.21321 0.71774 0.33102 0.0
O145 O 1.00407 0.6978 0.12234 0.0
Tb146 Tb 0.9764 0.71675 0.09504 0.0
Eu147 Eu 0.95247 0.71315 1.03581 0.0
C148 C 1.02916 0.69288 0.11636 0.0
O149 O 1.03767 0.69678 0.09181 0.0
C150 C 1.00193 0.75284 0.0492 0.0
O151 O 0.92278 0.70842 1.00083 0.0
C152 C 0.98465 0.67208 1.03471 0.0
C153 C 0.9055 0.68819 1.00186 0.0
O154 O 0.90602 0.67275 1.02314 0.0
C155 C 0.92395 0.68796 0.08615 0.0
C156 C 0.98642 0.64367 1.04285 0.0
C157 C 1.00125 0.63721 0.06597 0.0
C158 C 1.00664 0.61056 0.07267 0.0
C159 C 0.99613 0.59016 0.05652 0.0
C160 C 0.98215 0.59602 1.0328 0.0
C161 C 0.97711 0.62292 1.02616 0.0
O162 O 1.00656 0.73585 0.06897 0.0
O163 O 0.97887 0.75153 1.03552 0.0
O164 O 0.96895 0.73548 0.13328 0.0
O165 O 0.94868 0.7508 0.09896 0.0
C166 C 0.95168 0.75294 0.12481 0.0
O167 O 0.91982 0.70579 0.06713 0.0
O168 O 0.94882 0.68297 0.09292 0.0
O169 O 0.96932 0.67874 1.0144 0.0
O170 O 0.9839 0.68952 0.05414 0.0
H171 H 1.01009 0.65295 0.07795 0.0
H172 H 1.00186 0.56962 0.06064 0.0
H173 H 0.96732 0.62762 1.00737 0.0
O174 O 0.9464 0.83082 0.22061 0.0
Tb175 Tb 0.96621 0.86239 0.24258 0.0
Eu176 Eu 0.96347 0.88775 0.30157 0.0
C177 C 0.93245 0.83575 0.1988 0.0
O178 O 0.92802 0.86067 0.19161 0.0
C179 C 1.00359 0.83847 0.2884 0.0
O180 O 0.95871 0.91762 0.33645 0.0
C181 C 0.92254 0.85534 0.30295 0.0
C182 C 0.93868 0.9352 0.33539 0.0
O183 O 0.92335 0.93506 0.314 0.0
C184 C 0.93836 0.91575 0.25056 0.0
C185 C 0.89409 0.85323 0.29485 0.0
C186 C 0.8877 0.83812 0.27189 0.0
C187 C 0.86099 0.83271 0.26518 0.0
C188 C 0.84053 0.84329 0.28122 0.0
C189 C 0.84635 0.85741 0.30484 0.0
C190 C 0.87327 0.86259 0.31145 0.0
O191 O 0.98602 0.83321 0.26927 0.0
O192 O 1.00223 0.86172 0.30169 0.0
O193 O 0.98403 0.86853 0.20359 0.0
O194 O 1.00086 0.88897 0.2371 0.0
C195 C 1.00217 0.88549 0.21127 0.0
O196 O 0.95608 0.91989 0.26975 0.0
O197 O 0.93305 0.89092 0.24394 0.0
O198 O 0.92914 0.87082 0.32314 0.0
O199 O 0.93991 0.85619 0.28348 0.0
H200 H 0.90354 0.82915 0.26006 0.0
H201 H 0.81996 0.83753 0.27713 0.0
H202 H 0.87794 0.87257 0.33013 0.0
O203 O 0.07949 0.89185 0.11466 0.0
Tb204 Tb 0.1117 0.87217 0.09358 0.0
Eu205 Eu 0.13659 0.87461 1.03432 0.0
C206 C 0.08387 0.90645 0.1361 0.0
O207 O 0.10865 0.91196 0.1432 0.0
C208 C 0.0879 0.8341 0.04805 0.0
O209 O 0.16612 0.87911 0.99919 0.0
C210 C 0.10402 0.91537 1.03266 0.0
C211 C 0.18312 0.89959 0.99991 0.0
O212 O 0.18243 0.91524 1.02102 0.0
C213 C 0.16445 0.90057 0.08484 0.0
C214 C 0.10233 0.94373 1.04098 0.0
C215 C 0.08767 0.95015 0.06421 0.0
C216 C 0.083 0.97685 0.07132 0.0
C217 C 0.0938 0.99724 0.05536 0.0
C218 C 0.10743 0.99142 1.03147 0.0
C219 C 0.1119 0.96452 1.02448 0.0
O220 O 0.08275 0.85123 0.06753 0.0
O221 O 0.1109 0.83579 1.03437 0.0
O222 O 0.11801 0.85595 0.13329 0.0
O223 O 0.13954 0.83881 0.10068 0.0
C224 C 0.13587 0.83833 0.12652 0.0
O225 O 0.16877 0.88256 0.06602 0.0
O226 O 0.1395 0.9058 0.09117 0.0
O227 O 0.11968 0.90882 1.01261 0.0
O228 O 0.10449 0.89781 0.05199 0.0
H229 H 0.07851 0.9344 0.076 0.0
H230 H 0.08858 1.01785 0.05978 0.0
H231 H 0.12155 0.95988 1.00562 0.0
O232 O 0.36813 0.14319 0.33 0.0
Tb233 Tb 0.34594 0.12446 0.36195 0.0
Eu234 Eu 0.28595 0.12647 0.38454 0.0
C235 C 0.38999 0.15723 0.33438 0.0
O236 O 0.39716 0.16276 0.35907 0.0
C237 C 0.30121 0.08706 0.33522 0.0
O238 O 0.25075 0.1306 0.41415 0.0
C239 C 0.2852 0.16802 0.35303 0.0
C240 C 0.25157 0.15073 0.43157 0.0
O241 O 0.27263 0.16652 0.43099 0.0
C242 C 0.33581 0.15227 0.41408 0.0
C243 C 0.29396 0.19626 0.35148 0.0
C244 C 0.31708 0.20236 0.33647 0.0
C245 C 0.32436 0.22893 0.33142 0.0
C246 C 0.30879 0.24955 0.34238 0.0
C247 C 0.28506 0.24408 0.3565 0.0
C248 C 0.27785 0.21727 0.36125 0.0
O249 O 0.32091 0.10444 0.33182 0.0
O250 O 0.28584 0.08855 0.35717 0.0
O251 O 0.38516 0.10795 0.37062 0.0
O252 O 0.35082 0.08936 0.38796 0.0
C253 C 0.37693 0.08901 0.38636 0.0
O254 O 0.31721 0.13377 0.41754 0.0
O255 O 0.34261 0.15799 0.38947 0.0
O256 O 0.2649 0.16155 0.36843 0.0
O257 O 0.30435 0.15022 0.35339 0.0
H258 H 0.32856 0.18642 0.32722 0.0
H259 H 0.31331 0.27007 0.33688 0.0
H260 H 0.25906 0.21288 0.37121 0.0
O261 O 0.39147 0.47248 1.00877 0.0
Tb262 Tb 0.37209 0.49382 0.97655 0.0
Eu263 Eu 0.37547 0.5531 0.95195 0.0
C264 C 0.40588 0.45086 1.00449 0.0
O265 O 0.41133 0.44362 0.97982 0.0
C266 C 0.33458 0.53986 1.00051 0.0
O267 O 0.38048 0.58839 0.92261 0.0
C268 C 0.41617 0.55391 0.98468 0.0
C269 C 0.40093 0.58764 0.90556 0.0
O270 O 0.41644 0.56638 0.90601 0.0
C271 C 0.40074 0.50226 0.9239 0.0
C272 C 0.44444 0.5452 0.98681 0.0
C273 C 0.45041 0.5223 1.0022 0.0
C274 C 0.47701 0.51496 1.00737 0.0
C275 C 0.49774 0.53035 0.99635 0.0
C276 C 0.49237 0.55394 0.982 0.0
C277 C 0.46557 0.56115 0.977 0.0
O278 O 0.35135 0.51997 1.00554 0.0
O279 O 0.33657 0.55365 0.97763 0.0
O280 O 0.35543 0.4543 0.97006 0.0
O281 O 0.33852 0.48727 0.94881 0.0
C282 C 0.33781 0.46139 0.95231 0.0
O283 O 0.38305 0.52147 0.91966 0.0
O284 O 0.40582 0.49567 0.94878 0.0
O285 O 0.41006 0.57413 0.96904 0.0
O286 O 0.39834 0.5348 0.98394 0.0
H287 H 0.43437 0.511 1.0115 0.0
H288 H 0.51826 0.52582 1.00195 0.0
H289 H 0.46128 0.5798 0.96677 0.0
O290 O 0.72408 0.44732 0.32874 0.0
Tb291 Tb 0.7458 0.4665 0.36081 0.0
Eu292 Eu 0.80406 0.46451 0.38691 0.0
C293 C 0.70223 0.4333 0.33325 0.0
O294 O 0.69515 0.42805 0.35802 0.0
C295 C 0.79148 0.50413 0.33736 0.0
O296 O 0.83858 0.46018 0.4172 0.0
C297 C 0.8066 0.42345 0.35487 0.0
C298 C 0.83749 0.43993 0.43442 0.0
O299 O 0.81628 0.42434 0.43366 0.0
C300 C 0.75308 0.43857 0.41411 0.0
C301 C 0.79865 0.395 0.35318 0.0
C302 C 0.77539 0.38831 0.3386 0.0
C303 C 0.76876 0.36155 0.33362 0.0
C304 C 0.78519 0.34133 0.34413 0.0
C305 C 0.80906 0.34746 0.35778 0.0
C306 C 0.81559 0.37443 0.3625 0.0
O307 O 0.77265 0.48633 0.33187 0.0
O308 O 0.80433 0.5031 0.36086 0.0
O309 O 0.7066 0.48404 0.36693 0.0
O310 O 0.74012 0.50118 0.3872 0.0
C311 C 0.71421 0.50229 0.38376 0.0
O312 O 0.77185 0.45666 0.41855 0.0
O313 O 0.74693 0.43324 0.38917 0.0
O314 O 0.82646 0.43038 0.37069 0.0
O315 O 0.78697 0.44071 0.35503 0.0
H316 H 0.76322 0.40393 0.32968 0.0
H317 H 0.78113 0.32071 0.33867 0.0
H318 H 0.83446 0.37933 0.37211 0.0
O319 O 0.68735 0.12137 1.00802 0.0
Tb320 Tb 0.71048 0.10093 0.97768 0.0
Eu321 Eu 0.71249 1.03932 0.95463 0.0
C322 C 0.68753 0.11415 1.03324 0.0
O323 O 0.6975 0.09074 1.03991 0.0
C324 C 0.75342 0.05774 1.00218 0.0
O325 O 0.70938 1.00398 0.92514 0.0
C326 C 0.67081 1.0373 0.98585 0.0
C327 C 0.68928 1.00429 0.90762 0.0
O328 O 0.67308 1.02504 0.90795 0.0
C329 C 0.68552 0.0878 0.92469 0.0
C330 C 0.64228 0.04538 0.98702 0.0
C331 C 0.63545 0.06839 1.00174 0.0
C332 C 0.60867 0.07494 1.00679 0.0
C333 C 0.58846 0.05872 0.99597 0.0
C334 C 0.59464 1.03508 0.982 0.0
C335 C 0.62171 1.02862 0.97732 0.0
O336 O 0.73735 0.07875 1.00498 0.0
O337 O 0.75033 1.04054 0.98182 0.0
O338 O 0.71937 0.14311 0.97331 0.0
O339 O 0.74134 0.11512 0.94979 0.0
C340 C 0.73751 0.14044 0.95496 0.0
O341 O 0.70511 0.07033 0.92168 0.0
O342 O 0.67832 0.09352 0.94918 0.0
O343 O 0.67782 1.01739 0.97021 0.0
O344 O 0.68841 0.0567 0.98619 0.0
H345 H 0.651 0.08031 1.01088 0.0
H346 H 0.56781 0.06266 1.00148 0.0
H347 H 0.62666 1.0099 0.96754 0.0
O348 O 0.36684 0.94848 0.2581 0.0
Tb349 Tb 0.34519 0.96672 0.22543 0.0
Eu350 Eu 0.28564 0.96296 0.20136 0.0
C351 C 0.38867 0.93425 0.25419 0.0
O352 O 0.39598 0.92826 0.22966 0.0
C353 C 0.29916 1.00424 0.24961 0.0
O354 O 0.25049 0.9579 0.17182 0.0
C355 C 0.28493 0.92236 0.23398 0.0
C356 C 0.25161 0.93773 0.1545 0.0
O357 O 0.27305 0.92245 0.15491 0.0
C358 C 0.33659 0.93764 0.17329 0.0
C359 C 0.29362 0.89414 0.23586 0.0
C360 C 0.31678 0.88803 0.25083 0.0
C361 C 0.32392 0.86142 0.25602 0.0
C362 C 0.3081 0.84081 0.24534 0.0
C363 C 0.2843 0.84637 0.23133 0.0
C364 C 0.27731 0.87317 0.22632 0.0
O365 O 0.31955 0.98798 0.25432 0.0
O366 O 0.28454 1.00159 0.22729 0.0
O367 O 0.38452 0.98333 0.21772 0.0
O368 O 0.35064 1.00113 0.19865 0.0
C369 C 0.37667 1.00174 0.20116 0.0
O370 O 0.31741 0.95538 0.16902 0.0
O371 O 0.34319 0.93273 0.19816 0.0
O372 O 0.26461 0.9285 0.21843 0.0
O373 O 0.30408 0.94019 0.23333 0.0
H374 H 0.32841 0.90397 0.2599 0.0
H375 H 0.31248 0.8203 0.25099 0.0
H376 H 0.25849 0.8776 0.2164 0.0
O377 O 0.19762 0.46749 0.08512 0.0
Tb378 Tb 0.21703 0.49462 0.11265 0.0
Eu379 Eu 0.21383 0.55448 0.13622 0.0
C380 C 0.19311 0.47334 0.05996 0.0
O381 O 0.19737 0.49782 0.05135 0.0
C382 C 0.25342 0.54023 0.08673 0.0
O383 O 0.20953 0.59016 0.16522 0.0
C384 C 0.17238 0.55517 0.10444 0.0
C385 C 0.18934 0.5896 0.18256 0.0
O386 O 0.17378 0.56837 0.18248 0.0
C387 C 0.18888 0.50417 0.16532 0.0
C388 C 0.14396 0.54676 0.10287 0.0
C389 C 0.13761 0.52348 0.08828 0.0
C390 C 0.11095 0.51655 0.083 0.0
C391 C 0.09043 0.53262 0.09344 0.0
C392 C 0.09615 0.55648 0.10722 0.0
C393 C 0.12308 0.56338 0.1121 0.0
O394 O 0.23635 0.52042 0.08239 0.0
O395 O 0.25211 0.55428 0.10953 0.0
O396 O 0.23518 0.45602 0.11997 0.0
O397 O 0.25138 0.49008 0.13995 0.0
C398 C 0.25303 0.46417 0.13698 0.0
O399 O 0.20667 0.52336 0.16914 0.0
O400 O 0.18359 0.49725 0.14061 0.0
O401 O 0.17899 0.57557 0.11963 0.0
O402 O 0.19006 0.5359 0.10508 0.0
H403 H 0.15344 0.51155 0.07951 0.0
H404 H 0.06987 0.52834 0.08779 0.0
H405 H 0.12767 0.58227 0.12172 0.0
O406 O 0.72304 0.64238 0.26009 0.0
Tb407 Tb 0.74511 0.62319 0.22832 0.0
Eu408 Eu 0.80343 0.626 0.20275 0.0
C409 C 0.7011 0.65619 0.25531 0.0
O410 O 0.69404 0.66111 0.23046 0.0
C411 C 0.79117 0.58634 0.25233 0.0
O412 O 0.83809 0.63051 0.17272 0.0
C413 C 0.80514 0.66729 0.23457 0.0
C414 C 0.83676 0.65049 0.15521 0.0
O415 O 0.8153 0.66575 0.15561 0.0
C416 C 0.7522 0.65089 0.17495 0.0
C417 C 0.79677 0.69564 0.23621 0.0
C418 C 0.77359 0.70204 0.251 0.0
C419 C 0.76666 0.72872 0.25604 0.0
C420 C 0.78268 0.74914 0.24533 0.0
C421 C 0.80648 0.74333 0.23146 0.0
C422 C 0.81332 0.71644 0.2267 0.0
O423 O 0.77202 0.60385 0.25759 0.0
O424 O 0.80417 0.58751 0.22896 0.0
O425 O 0.70619 0.60509 0.22198 0.0
O426 O 0.74006 0.58835 0.202 0.0
C427 C 0.71415 0.5869 0.20525 0.0
O428 O 0.77131 0.6331 0.17078 0.0
O429 O 0.74586 0.6563 0.1998 0.0
O430 O 0.82516 0.66062 0.21889 0.0
O431 O 0.78578 0.64973 0.23437 0.0
H432 H 0.76176 0.68626 0.26007 0.0
H433 H 0.77841 0.76971 0.25082 0.0
H434 H 0.83215 0.71179 0.21694 0.0
O435 O 0.90339 0.1212 0.08188 0.0
Tb436 Tb 0.88029 0.10068 0.11219 0.0
Eu437 Eu 0.87829 1.03894 0.13507 0.0
C438 C 0.90324 0.11404 0.05664 0.0
O439 O 0.89325 0.09066 0.0499 0.0
C440 C 0.83725 0.0576 0.08774 0.0
O441 O 0.88195 1.0034 0.16429 0.0
C442 C 0.9196 1.0369 0.10338 0.0
C443 C 0.90213 1.00384 0.18172 0.0
O444 O 0.91798 1.02484 0.18153 0.0
C445 C 0.90553 0.08737 0.16504 0.0
C446 C 0.94822 0.04457 0.10208 0.0
C447 C 0.95527 0.0677 0.08766 0.0
C448 C 0.9821 0.07393 0.0825 0.0
C449 C 1.00215 0.05723 0.09288 0.0
C450 C 0.99571 1.03346 0.10653 0.0
C451 C 0.9686 1.02735 0.11133 0.0
O452 O 0.85342 0.07852 0.08487 0.0
O453 O 0.84029 1.04041 0.10812 0.0
O454 O 0.87141 0.14285 0.11663 0.0
O455 O 0.84951 0.11485 0.14019 0.0
C456 C 0.85332 0.14017 0.13503 0.0
O457 O 0.88598 0.06984 0.16812 0.0
O458 O 0.91258 0.09318 0.14053 0.0
O459 O 0.91248 1.01683 0.11876 0.0
O460 O 0.9023 0.05657 0.10359 0.0
H461 H 0.93982 0.08002 0.07885 0.0
H462 H 1.02283 0.06095 0.08729 0.0
H463 H 0.96345 1.00854 0.12084 0.0
O464 O 0.3301 0.36722 0.14199 0.0
Tb465 Tb 0.36165 0.34494 0.12248 0.0
Eu466 Eu 0.38693 0.28581 0.12527 0.0
C467 C 0.33517 0.38897 0.15595 0.0
O468 O 0.36018 0.39588 0.16056 0.0
C469 C 0.33773 0.29922 0.08516 0.0
O470 O 0.41659 0.2507 0.13015 0.0
C471 C 0.35451 0.28455 0.16609 0.0
C472 C 0.43391 0.25168 0.15038 0.0
O473 O 0.43357 0.27307 0.16567 0.0
C474 C 0.41492 0.33665 0.15062 0.0
C475 C 0.35289 0.29287 0.19442 0.0
C476 C 0.33816 0.31607 0.20084 0.0
C477 C 0.33338 0.3231 0.22751 0.0
C478 C 0.34418 0.30709 0.24788 0.0
C479 C 0.35793 0.28324 0.24204 0.0
C480 C 0.36252 0.27636 0.21516 0.0
O481 O 0.33241 0.31829 0.10271 0.0
O482 O 0.361 0.2859 0.08653 0.0
O483 O 0.3681 0.38391 0.10465 0.0
O484 O 0.38834 0.35022 0.08796 0.0
C485 C 0.38502 0.37609 0.08658 0.0
O486 O 0.41916 0.31753 0.13289 0.0
O487 O 0.39003 0.34331 0.15574 0.0
O488 O 0.3699 0.26427 0.1595 0.0
O489 O 0.35525 0.30393 0.14862 0.0
H490 H 0.32902 0.3279 0.18509 0.0
H491 H 0.33885 0.31142 0.26847 0.0
H492 H 0.37226 0.25752 0.2105 0.0
O493 O 0.33216 0.72123 0.43778 0.0
Tb494 Tb 0.36253 0.74174 0.46085 0.0
Eu495 Eu 0.38566 0.8034 0.46242 0.0
C496 C 0.3069 0.72851 0.43768 0.0
O497 O 0.30015 0.75188 0.44766 0.0
C498 C 0.33812 0.78507 0.50351 0.0
O499 O 0.41517 0.83877 0.45839 0.0
C500 C 0.35409 0.80517 0.42098 0.0
C501 C 0.43253 0.83804 0.43821 0.0
O502 O 0.43213 0.81687 0.42261 0.0
C503 C 0.41534 0.75468 0.43554 0.0
C504 C 0.35306 0.79692 0.39257 0.0
C505 C 0.33872 0.77363 0.38584 0.0
C506 C 0.33389 0.76677 0.35915 0.0
C507 C 0.34458 0.783 0.33893 0.0
C508 C 0.35815 0.80691 0.34501 0.0
C509 C 0.36259 0.81368 0.37198 0.0
O510 O 0.33522 0.76402 0.48755 0.0
O511 O 0.35854 0.80227 0.5003 0.0
O512 O 0.36698 0.69962 0.46997 0.0
O513 O 0.39086 0.72772 0.49145 0.0
C514 C 0.38562 0.70238 0.48784 0.0
O515 O 0.4186 0.77221 0.455 0.0
O516 O 0.39071 0.74912 0.42852 0.0
O517 O 0.36968 0.82519 0.42788 0.0
O518 O 0.35388 0.78586 0.43864 0.0
H519 H 0.32969 0.76168 0.40138 0.0
H520 H 0.33925 0.7788 0.31831 0.0
H521 H 0.37205 0.8326 0.37683 0.0
O522 O 0.97724 0.51352 0.89914 0.0
Tb523 Tb 0.99392 0.48036 0.87692 0.0
Eu524 Eu 0.05342 0.45306 0.87658 0.0
C525 C 0.95695 0.5102 0.91561 0.0
O526 O 0.94983 0.4858 0.92243 0.0
C527 C 1.03917 0.50178 0.83604 0.0
O528 O 0.0886 0.42331 0.88016 0.0
C529 C 0.05634 0.48522 0.91753 0.0
C530 C 0.08788 0.4056 0.9 0.0
O531 O 0.06657 0.40549 0.91543 0.0
C532 C 1.00253 0.42595 0.90268 0.0
C533 C 0.04784 0.48725 0.9458 0.0
C534 C 1.02491 0.5025 0.95195 0.0
C535 C 1.01758 0.50744 0.9785 0.0
C536 C 1.03324 0.49653 0.99909 0.0
C537 C 0.057 0.48243 0.99357 0.0
C538 C 0.06404 0.47751 0.96677 0.0
O539 O 1.01981 0.50743 0.85326 0.0
O540 O 0.05291 0.47883 0.83791 0.0
O541 O 0.97969 0.454 0.8447 0.0
O542 O 0.95209 0.47915 0.86533 0.0
C543 C 0.95455 0.46079 0.84721 0.0
O544 O 1.02096 0.42169 0.88424 0.0
O545 O 0.99714 0.45085 0.90907 0.0
O546 O 0.07564 0.46855 0.91115 0.0
O547 O 1.03715 0.48584 0.89976 0.0
H548 H 1.01359 0.51197 0.93609 0.0
H549 H 1.02875 0.50202 1.01959 0.0
H550 H 0.08278 0.46745 0.96234 0.0
O551 O 0.76019 0.86644 0.44596 0.0
Tb552 Tb 0.72861 0.84425 0.46542 0.0
Eu553 Eu 0.70361 0.78536 0.46203 0.0
C554 C 0.75517 0.88815 0.43193 0.0
O555 O 0.73018 0.89519 0.42742 0.0
C556 C 0.75311 0.79813 0.50186 0.0
O557 O 0.67405 0.75021 0.4573 0.0
C558 C 0.73578 0.78447 0.42099 0.0
C559 C 0.6565 0.75124 0.43728 0.0
O560 O 0.65664 0.77268 0.42204 0.0
C561 C 0.67528 0.83636 0.43732 0.0
C562 C 0.73748 0.79293 0.3927 0.0
C563 C 0.75244 0.81602 0.38638 0.0
C564 C 0.75746 0.82303 0.35973 0.0
C565 C 0.74664 0.80713 0.33929 0.0
C566 C 0.73265 0.78339 0.34503 0.0
C567 C 0.72783 0.77653 0.37188 0.0
O568 O 0.75814 0.8175 0.48456 0.0
O569 O 0.72985 0.78481 0.50054 0.0
O570 O 0.72218 0.88302 0.48372 0.0
O571 O 0.70219 0.84908 0.50021 0.0
C572 C 0.70544 0.87494 0.50186 0.0
O573 O 0.67117 0.81704 0.45486 0.0
O574 O 0.70015 0.84312 0.43222 0.0
O575 O 0.7204 0.76416 0.42748 0.0
O576 O 0.73508 0.80375 0.43858 0.0
H577 H 0.7616 0.82774 0.4022 0.0
H578 H 0.75214 0.81142 0.31875 0.0
H579 H 0.71793 0.75776 0.37646 0.0
O580 O 0.61634 0.57873 0.39095 0.0
Tb581 Tb 0.59434 0.61079 0.37208 0.0
Eu582 Eu 0.53582 0.63637 0.3753 0.0
C583 C 0.63816 0.58331 0.40502 0.0
O584 O 0.64514 0.60811 0.41035 0.0
C585 C 0.54817 0.58712 0.33506 0.0
O586 O 0.50116 0.66652 0.38011 0.0
C587 C 0.53476 0.60405 0.41624 0.0
C588 C 0.50234 0.68371 0.4004 0.0
O589 O 0.52359 0.68283 0.41595 0.0
C590 C 0.58704 0.66391 0.40023 0.0
C591 C 0.54393 0.60192 0.44431 0.0
C592 C 0.56662 0.58605 0.44996 0.0
C593 C 0.57432 0.58081 0.47638 0.0
C594 C 0.5595 0.59227 0.49726 0.0
C595 C 0.53612 0.60716 0.49223 0.0
C596 C 0.52858 0.61223 0.46559 0.0
O597 O 0.56755 0.58172 0.35229 0.0
O598 O 0.53498 0.61041 0.33663 0.0
O599 O 0.63336 0.61743 0.35439 0.0
O600 O 0.59952 0.63739 0.33749 0.0
C601 C 0.62546 0.63426 0.33626 0.0
O602 O 0.56794 0.66826 0.38247 0.0
O603 O 0.59334 0.63897 0.40546 0.0
O604 O 0.51479 0.62012 0.41028 0.0
O605 O 0.55364 0.6042 0.39822 0.0
H606 H 0.57747 0.57642 0.43381 0.0
H607 H 0.56425 0.58662 0.51768 0.0
H608 H 0.51007 0.62288 0.46155 0.0
O609 O 0.25858 0.72034 0.65256 0.0
Tb610 Tb 0.22803 0.74074 0.62959 0.0
Eu611 Eu 0.20483 0.80245 0.62833 0.0
C612 C 0.28382 0.72771 0.65249 0.0
O613 O 0.29038 0.7512 0.64266 0.0
C614 C 0.25243 0.78446 0.58721 0.0
O615 O 0.17525 0.83778 0.63233 0.0
C616 C 0.23637 0.8039 0.66983 0.0
C617 C 0.15768 0.83697 0.65233 0.0
O618 O 0.15794 0.81577 0.66788 0.0
C619 C 0.175 0.75353 0.65473 0.0
C620 C 0.23753 0.79558 0.69823 0.0
C621 C 0.25225 0.77249 0.70491 0.0
C622 C 0.2572 0.76568 0.73159 0.0
C623 C 0.24633 0.78174 0.75183 0.0
C624 C 0.23247 0.80551 0.7458 0.0
C625 C 0.22784 0.8122 0.71884 0.0
O626 O 0.25526 0.76327 0.603 0.0
O627 O 0.23201 0.80163 0.5905 0.0
O628 O 0.20009 0.72652 0.59873 0.0
O629 O 0.22395 0.69859 0.62046 0.0
C630 C 0.20549 0.70122 0.60239 0.0
O631 O 0.17185 0.77125 0.6354 0.0
O632 O 0.19959 0.7478 0.66179 0.0
O633 O 0.22081 0.82398 0.66302 0.0
O634 O 0.23648 0.78463 0.65212 0.0
H635 H 0.26145 0.76071 0.68934 0.0
H636 H 0.25178 0.77761 0.77243 0.0
H637 H 0.21814 0.83101 0.71403 0.0
O638 O 0.96704 0.58385 0.69695 0.0
Tb639 Tb 0.99387 0.61166 0.71644 0.0
Eu640 Eu 0.05324 0.63596 0.7137 0.0
C641 C 0.97359 0.55906 0.69139 0.0
O642 O 0.99821 0.55079 0.69579 0.0
C643 C 1.03935 0.58652 0.75337 0.0
O644 O 0.08815 0.6659 0.70949 0.0
C645 C 0.05469 0.60416 0.67242 0.0
C646 C 0.08739 0.683 0.6891 0.0
O647 O 0.06644 0.6821 0.67317 0.0
C648 C 1.00294 0.66428 0.688 0.0
C649 C 0.04631 0.60272 0.64405 0.0
C650 C 1.02334 0.58766 0.63755 0.0
C651 C 1.01638 0.58267 0.6109 0.0
C652 C 1.03211 0.59384 0.59056 0.0
C653 C 0.05569 0.60811 0.59641 0.0
C654 C 0.06261 0.61272 0.62332 0.0
O655 O 1.01988 0.58171 0.73602 0.0
O656 O 0.05305 0.60956 0.75209 0.0
O657 O 0.95546 0.61919 0.73499 0.0
O658 O 0.98985 0.63942 0.75032 0.0
C659 C 0.96394 0.63648 0.7524 0.0
O660 O 1.02175 0.6684 0.70609 0.0
O661 O 0.99627 0.63944 0.68285 0.0
O662 O 0.07488 0.61962 0.67919 0.0
O663 O 1.03532 0.60445 0.68996 0.0
H664 H 1.01168 0.57836 0.65321 0.0
H665 H 1.02784 0.58842 0.56998 0.0
H666 H 0.0813 0.62276 0.628 0.0
O667 O 0.11692 1.00905 0.69804 0.0
Tb668 Tb 0.09572 0.97676 0.71738 0.0
Eu669 Eu 1.03648 0.95178 0.71434 0.0
C670 C 0.13858 1.00482 0.68367 0.0
O671 O 0.14587 0.98014 0.67819 0.0
C672 C 0.04981 1.00056 0.755 0.0
O673 O 1.00144 0.92206 0.70905 0.0
C674 C 1.03501 0.98444 0.67374 0.0
C675 C 1.00253 0.90497 0.68868 0.0
O676 O 1.024 0.90549 0.67347 0.0
C677 C 0.0875 0.92406 0.68877 0.0
C678 C 1.04312 0.9862 0.64536 0.0
C679 C 0.06633 1.00089 0.63881 0.0
C680 C 0.07314 1.00578 0.61209 0.0
C681 C 0.05693 0.99509 0.59181 0.0
C682 C 1.03306 0.9814 0.59778 0.0
C683 C 1.02636 0.97675 0.62469 0.0
O684 O 0.06944 1.00571 0.73801 0.0
O685 O 1.03618 0.97752 0.75319 0.0
O686 O 0.13535 0.97046 0.734 0.0
O687 O 0.10247 0.94902 0.75083 0.0
C688 C 0.12836 0.95265 0.75156 0.0
O689 O 0.0684 0.9197 0.70652 0.0
O690 O 0.09392 0.94899 0.68371 0.0
O691 O 1.01474 0.96904 0.68035 0.0
O692 O 0.05453 0.98363 0.69114 0.0
H693 H 0.07832 1.00993 0.6545 0.0
H694 H 0.06111 1.00047 0.5712 0.0
H695 H 1.0075 0.96707 0.62944 0.0
O696 O 0.65387 0.83258 0.87219 0.0
Tb697 Tb 0.63168 0.86237 0.84986 0.0
Eu698 Eu 0.63027 0.88567 0.78861 0.0
C699 C 0.65519 0.80736 0.86503 0.0
O700 O 0.64713 0.80029 0.84102 0.0
C701 C 0.5903 0.83717 0.80625 0.0
O702 O 0.63371 0.91521 0.75327 0.0
C703 C 0.67195 0.85428 0.78686 0.0
C704 C 0.65354 0.93305 0.75381 0.0
O705 O 0.66935 0.93312 0.77485 0.0
C706 C 0.65647 0.91577 0.83763 0.0
C707 C 0.70055 0.85272 0.79459 0.0
C708 C 0.70748 0.83777 0.81746 0.0
C709 C 0.73428 0.8322 0.82358 0.0
C710 C 0.7544 0.84276 0.80713 0.0
C711 C 0.74809 0.85691 0.78364 0.0
C712 C 0.72102 0.86209 0.77758 0.0
O713 O 0.60731 0.83389 0.82642 0.0
O714 O 0.59246 0.85832 0.78985 0.0
O715 O 0.62063 0.86819 0.89128 0.0
O716 O 0.59827 0.88862 0.86121 0.0
C717 C 0.60125 0.88491 0.88688 0.0
O718 O 0.63727 0.91869 0.8197 0.0
O719 O 0.66369 0.89131 0.8436 0.0
O720 O 0.66484 0.86967 0.76678 0.0
O721 O 0.65464 0.85454 0.80646 0.0
H722 H 0.69196 0.82886 0.8296 0.0
H723 H 0.77503 0.83689 0.81075 0.0
H724 H 0.71595 0.87196 0.75894 0.0
O725 O 0.07746 0.19058 0.47561 0.0
Tb726 Tb 0.11144 0.2113 0.49264 0.0
Eu727 Eu 0.13614 0.21095 0.55304 0.0
C728 C 0.08014 0.17431 0.45511 0.0
O729 O 0.10425 0.16628 0.44817 0.0
C730 C 0.08853 0.25254 0.53737 0.0
O731 O 0.16577 0.20677 0.58816 0.0
C732 C 0.10398 0.16996 0.55474 0.0
C733 C 0.18335 0.18678 0.58725 0.0
O734 O 0.18318 0.17136 0.56595 0.0
C735 C 0.16467 0.18496 0.50302 0.0
C736 C 0.10252 0.1416 0.54639 0.0
C737 C 0.08776 0.13502 0.52328 0.0
C738 C 0.08292 0.10829 0.51641 0.0
C739 C 0.09371 0.088 0.53255 0.0
C740 C 0.1075 0.09399 0.55634 0.0
C741 C 0.11218 0.12094 0.56299 0.0
O742 O 0.08432 0.23659 0.51661 0.0
O743 O 0.10992 0.24931 0.55325 0.0
O744 O 0.11587 0.22168 0.4508 0.0
O745 O 0.13769 0.24415 0.47979 0.0
C746 C 0.13308 0.24078 0.45431 0.0
O747 O 0.16847 0.20363 0.5213 0.0
O748 O 0.13988 0.17854 0.49732 0.0
O749 O 0.11985 0.17652 0.57466 0.0
O750 O 0.10392 0.1877 0.53552 0.0
H751 H 0.07851 0.1507 0.51149 0.0
H752 H 0.08829 0.06738 0.52841 0.0
H753 H 0.12194 0.12572 0.58178 0.0
O754 O 0.44087 0.76233 0.8652 0.0
Tb755 Tb 0.4631 0.72897 0.84883 0.0
Eu756 Eu 0.46439 0.70493 0.78784 0.0
C757 C 0.42338 0.7591 0.88464 0.0
O758 O 0.41606 0.73477 0.89147 0.0
C759 C 0.50613 0.7521 0.80523 0.0
O760 O 0.46062 0.67533 0.75266 0.0
C761 C 0.42313 0.73675 0.78598 0.0
C762 C 0.44034 0.65804 0.75319 0.0
O763 O 0.4244 0.65856 0.77409 0.0
C764 C 0.43741 0.67585 0.83688 0.0
C765 C 0.39482 0.73797 0.7947 0.0
C766 C 0.3885 0.75283 0.81775 0.0
C767 C 0.36185 0.75717 0.82528 0.0
C768 C 0.34133 0.74596 0.8097 0.0
C769 C 0.347 0.73218 0.78584 0.0
C770 C 0.37392 0.72785 0.77864 0.0
O771 O 0.49032 0.75555 0.82629 0.0
O772 O 0.50262 0.73149 0.78842 0.0
O773 O 0.49375 0.70105 0.86347 0.0
O774 O 0.47216 0.72536 0.89106 0.0
C775 C 0.49001 0.70667 0.88867 0.0
O776 O 0.45676 0.67241 0.81924 0.0
O777 O 0.43059 0.70051 0.84255 0.0
O778 O 0.42963 0.72074 0.7662 0.0
O779 O 0.44112 0.73722 0.80501 0.0
H780 H 0.40429 0.76255 0.82895 0.0
H781 H 0.32071 0.75105 0.8143 0.0
H782 H 0.37846 0.71803 0.75984 0.0
O783 O 1.00909 0.39398 0.47021 0.0
Tb784 Tb 0.9774 0.3748 0.49249 0.0
Eu785 Eu 0.95482 0.37617 0.55238 0.0
C786 C 1.00438 0.40817 0.44855 0.0
O787 O 0.97951 0.41313 0.44136 0.0
C788 C 1.00365 0.33643 0.53657 0.0
O789 O 0.92483 0.38032 0.58714 0.0
C790 C 0.98676 0.41738 0.55379 0.0
C791 C 0.908 0.40097 0.58653 0.0
O792 O 0.90942 0.41727 0.56595 0.0
C793 C 0.92532 0.4028 0.50306 0.0
C794 C 0.98818 0.44583 0.54578 0.0
C795 C 1.00278 0.45253 0.5226 0.0
C796 C 1.00758 0.47929 0.51586 0.0
C797 C 0.99683 0.4995 0.53209 0.0
C798 C 0.98314 0.4934 0.55588 0.0
C799 C 0.97862 0.46641 0.56253 0.0
O800 O 1.00739 0.35412 0.51723 0.0
O801 O 0.98172 0.33797 0.55195 0.0
O802 O 0.96847 0.35827 0.45343 0.0
O803 O 0.95079 0.34012 0.48778 0.0
C804 C 0.95238 0.33963 0.46174 0.0
O805 O 0.92177 0.38409 0.52137 0.0
O806 O 0.94999 0.40843 0.49625 0.0
O807 O 0.97163 0.41043 0.57413 0.0
O808 O 0.986 0.40011 0.53422 0.0
H809 H 1.01188 0.4369 0.51058 0.0
H810 H 1.00215 0.52014 0.52795 0.0
H811 H 0.96898 0.46153 0.58133 0.0
O812 O 0.64859 0.26247 0.72434 0.0
Tb813 Tb 0.62785 0.22861 0.74154 0.0
Eu814 Eu 0.62694 0.20429 0.80206 0.0
C815 C 0.66496 0.25979 0.7039 0.0
O816 O 0.67317 0.23574 0.69706 0.0
C817 C 0.58612 0.2524 0.78564 0.0
O818 O 0.63064 0.1746 0.83713 0.0
C819 C 0.66857 0.23563 0.80386 0.0
C820 C 0.65079 0.15717 0.83647 0.0
O821 O 0.66659 0.15758 0.81546 0.0
C822 C 0.65334 0.1753 0.75258 0.0
C823 C 0.69687 0.23647 0.79511 0.0
C824 C 0.70335 0.25072 0.7717 0.0
C825 C 0.73007 0.25501 0.76437 0.0
C826 C 0.75047 0.24414 0.78036 0.0
C827 C 0.74461 0.23084 0.80444 0.0
C828 C 0.71765 0.2267 0.81154 0.0
O829 O 0.60238 0.25603 0.76498 0.0
O830 O 0.58897 0.23127 0.80191 0.0
O831 O 0.61819 0.22348 0.69962 0.0
O832 O 0.59489 0.20253 0.72855 0.0
C833 C 0.59883 0.20655 0.70307 0.0
O834 O 0.63413 0.17189 0.7704 0.0
O835 O 0.66029 0.19995 0.74702 0.0
O836 O 0.6619 0.21971 0.82366 0.0
O837 O 0.65055 0.23633 0.78487 0.0
H838 H 0.68763 0.26006 0.76003 0.0
H839 H 0.77113 0.24918 0.77586 0.0
H840 H 0.71297 0.21733 0.83052 0.0
O841 O 0.50476 0.197 0.62161 0.0
Tb842 Tb 0.47708 0.21635 0.59461 0.0
Eu843 Eu 0.45268 0.21288 0.53567 0.0
C844 C 0.52955 0.19114 0.61516 0.0
O845 O 0.53782 0.19492 0.59051 0.0
C846 C 0.50258 0.25235 0.54885 0.0
O847 O 0.4227 0.20843 0.50083 0.0
C848 C 0.48449 0.17152 0.53424 0.0
C849 C 0.40532 0.18826 0.50178 0.0
O850 O 0.40586 0.17267 0.52294 0.0
C851 C 0.42434 0.18775 0.58625 0.0
C852 C 0.48602 0.14304 0.54225 0.0
C853 C 0.50068 0.13634 0.56541 0.0
C854 C 0.50586 0.10961 0.57199 0.0
C855 C 0.49527 0.08938 0.55569 0.0
C856 C 0.48144 0.09546 0.53195 0.0
C857 C 0.47665 0.12244 0.52539 0.0
O858 O 0.50729 0.23513 0.5684 0.0
O859 O 0.47937 0.25118 0.53537 0.0
O860 O 0.47 0.2357 0.63264 0.0
O861 O 0.44945 0.25047 0.59824 0.0
C862 C 0.45269 0.25306 0.62401 0.0
O863 O 0.42016 0.20552 0.56716 0.0
O864 O 0.44922 0.18274 0.59294 0.0
O865 O 0.46917 0.17844 0.51401 0.0
O866 O 0.48399 0.18889 0.55375 0.0
H867 H 0.50954 0.15193 0.57754 0.0
H868 H 0.50083 0.06877 0.55973 0.0
H869 H 0.46699 0.1273 0.50658 0.0
O870 O 0.44605 0.33251 0.71866 0.0
Tb871 Tb 0.46506 0.36443 0.74081 0.0
Eu872 Eu 0.46246 0.38658 0.8014 0.0
C873 C 0.43213 0.33689 0.69673 0.0
O874 O 0.42707 0.36161 0.68926 0.0
C875 C 0.50279 0.33812 0.78556 0.0
O876 O 0.45758 0.41559 0.83701 0.0
C877 C 0.42145 0.35432 0.80151 0.0
C878 C 0.43735 0.43294 0.8363 0.0
O879 O 0.42186 0.4328 0.81502 0.0
C880 C 0.43702 0.41661 0.7515 0.0
C881 C 0.393 0.35257 0.7934 0.0
C882 C 0.3865 0.33762 0.77039 0.0
C883 C 0.35975 0.33228 0.76376 0.0
C884 C 0.33937 0.34288 0.7799 0.0
C885 C 0.34532 0.35691 0.80355 0.0
C886 C 0.37228 0.36199 0.81007 0.0
O887 O 0.48552 0.33449 0.76577 0.0
O888 O 0.5008 0.3598 0.80123 0.0
O889 O 0.48172 0.37297 0.70174 0.0
O890 O 0.5001 0.39058 0.73602 0.0
C891 C 0.5006 0.38883 0.70999 0.0
O892 O 0.45506 0.41995 0.77059 0.0
O893 O 0.43154 0.39207 0.7442 0.0
O894 O 0.42809 0.36899 0.82229 0.0
O895 O 0.43881 0.35583 0.78205 0.0
H896 H 0.40229 0.32864 0.75848 0.0
H897 H 0.31878 0.33715 0.7759 0.0
H898 H 0.37704 0.37188 0.82878 0.0
O899 O 0.58004 0.3917 0.61514 0.0
Tb900 Tb 0.61218 0.37181 0.59417 0.0
Eu901 Eu 0.63737 0.37448 0.53511 0.0
C902 C 0.58449 0.40635 0.63655 0.0
O903 O 0.60929 0.41129 0.64397 0.0
C904 C 0.58855 0.33391 0.54846 0.0
O905 O 0.66718 0.37954 0.50021 0.0
C906 C 0.60455 0.41501 0.53327 0.0
C907 C 0.68416 0.40004 0.50117 0.0
O908 O 0.68345 0.4155 0.52242 0.0
C909 C 0.66508 0.40038 0.58596 0.0
C910 C 0.60273 0.4435 0.54107 0.0
C911 C 0.58824 0.45025 0.5643 0.0
C912 C 0.58348 0.47704 0.57097 0.0
C913 C 0.594 0.49721 0.55454 0.0
C914 C 0.60743 0.49103 0.53064 0.0
C915 C 0.612 0.46404 0.52409 0.0
O916 O 0.58327 0.35115 0.56783 0.0
O917 O 0.6117 0.33557 0.53502 0.0
O918 O 0.61815 0.35492 0.63366 0.0
O919 O 0.64003 0.33841 0.60094 0.0
C920 C 0.63612 0.33746 0.62672 0.0
O921 O 0.66948 0.38258 0.56693 0.0
O922 O 0.64012 0.40542 0.5924 0.0
O923 O 0.61994 0.40821 0.51309 0.0
O924 O 0.6055 0.39784 0.55294 0.0
H925 H 0.5793 0.43466 0.57647 0.0
H926 H 0.58872 0.51788 0.55865 0.0
H927 H 0.62149 0.45912 0.50522 0.0
O928 O 0.86938 0.64102 0.83118 0.0
Tb929 Tb 0.84795 0.62161 0.86329 0.0
Eu930 Eu 0.78707 0.62484 0.885 0.0
C931 C 0.89057 0.65608 0.83555 0.0
O932 O 0.89765 0.66176 0.86023 0.0
C933 C 0.80292 0.58284 0.83787 0.0
O934 O 0.75185 0.62994 0.91445 0.0
C935 C 0.7871 0.66532 0.85222 0.0
C936 C 0.75262 0.65049 0.93136 0.0
O937 O 0.77357 0.66641 0.93031 0.0
C938 C 0.83662 0.65094 0.91435 0.0
C939 C 0.79606 0.69347 0.85029 0.0
C940 C 0.81896 0.69932 0.83487 0.0
C941 C 0.8265 0.72584 0.82982 0.0
C942 C 0.81132 0.74661 0.84105 0.0
C943 C 0.78776 0.74138 0.85552 0.0
C944 C 0.78035 0.71465 0.86037 0.0
O945 O 0.82404 0.5985 0.83431 0.0
O946 O 0.78674 0.58621 0.859 0.0
O947 O 0.8878 0.60655 0.87194 0.0
O948 O 0.85444 0.58899 0.89201 0.0
C949 C 0.88049 0.589 0.88964 0.0
O950 O 0.81795 0.63262 0.91811 0.0
O951 O 0.84363 0.65598 0.88967 0.0
O952 O 0.76652 0.65941 0.86749 0.0
O953 O 0.8061 0.64732 0.8532 0.0
H954 H 0.83009 0.68325 0.82542 0.0
H955 H 0.81598 0.7671 0.83555 0.0
H956 H 0.76171 0.71047 0.87069 0.0
O957 O 0.89136 0.97161 0.50725 0.0
Tb958 Tb 0.87298 0.99379 0.47503 0.0
Eu959 Eu 0.87688 0.05414 0.45307 0.0
C960 C 0.90557 0.94985 0.503 0.0
O961 O 0.91137 0.94277 0.47836 0.0
C962 C 0.83555 1.03908 0.50089 0.0
O963 O 0.8824 0.08976 0.42422 0.0
C964 C 0.91752 0.05354 0.48578 0.0
C965 C 0.9028 0.08887 0.40712 0.0
O966 O 0.91814 0.06748 0.4075 0.0
C967 C 0.90203 1.00406 0.42332 0.0
C968 C 0.94577 0.04481 0.48765 0.0
C969 C 0.95183 1.02197 0.50306 0.0
C970 C 0.97847 1.01477 0.50825 0.0
C971 C 0.99914 1.03021 0.49715 0.0
C972 C 0.99364 0.0537 0.48267 0.0
C973 C 0.96681 0.06073 0.47764 0.0
O974 O 0.85196 1.01861 0.50469 0.0
O975 O 0.83827 0.05473 0.4793 0.0
O976 O 0.85653 0.95465 0.46627 0.0
O977 O 0.83828 0.98891 0.44842 0.0
C978 C 0.83784 0.96285 0.45016 0.0
O979 O 0.88425 1.02334 0.4197 0.0
O980 O 0.90701 0.99672 0.44795 0.0
O981 O 0.91145 0.07441 0.47097 0.0
O982 O 0.89971 1.03445 0.48426 0.0
H983 H 0.93582 1.01065 0.51241 0.0
H984 H 1.01968 1.02582 0.50279 0.0
H985 H 0.96242 0.07931 0.46733 0.0
O986 O 0.22727 0.94025 0.82493 0.0
Tb987 Tb 0.24477 0.96184 0.8581 0.0
Eu988 Eu 0.30323 0.96324 0.88627 0.0
C989 C 0.20659 0.92425 0.82832 0.0
O990 O 0.19984 0.91707 0.8527 0.0
C991 C 0.28984 1.00277 0.83668 0.0
O992 O 0.33735 0.95965 0.91712 0.0
C993 C 0.30684 0.92175 0.85494 0.0
C994 C 0.33596 0.93982 0.93481 0.0
O995 O 0.3146 0.92443 0.93427 0.0
C996 C 0.25252 0.93666 0.91269 0.0
C997 C 0.29809 0.8935 0.85366 0.0
C998 C 0.27507 0.88709 0.83864 0.0
C999 C 0.2677 0.86044 0.8342 0.0
C1000 C 0.28334 0.84003 0.84552 0.0
C1001 C 0.30711 0.84584 0.85952 0.0
C1002 C 0.31416 0.87273 0.86393 0.0
O1003 O 0.27095 0.98504 0.8309 0.0
O1004 O 0.30301 1.00154 0.86 0.0
O1005 O 0.20311 0.9736 0.86036 0.0
O1006 O 0.2317 0.99511 0.88369 0.0
C1007 C 0.20633 0.9924 0.87789 0.0
O1008 O 0.27024 0.95577 0.91698 0.0
O1009 O 0.2477 0.92984 0.8878 0.0
O1010 O 0.32585 0.92849 0.8718 0.0
O1011 O 0.2878 0.93958 0.85346 0.0
H1012 H 0.26372 0.9028 0.82893 0.0
H1013 H 0.27887 0.81942 0.84036 0.0
H1014 H 0.33291 0.87737 0.8739 0.0
O1015 O 0.18838 0.62106 0.50762 0.0
Tb1016 Tb 0.21147 0.60089 0.47707 0.0
Eu1017 Eu 0.21334 0.53918 0.45411 0.0
C1018 C 0.18882 0.61381 0.53283 0.0
O1019 O 0.19915 0.59052 0.53942 0.0
C1020 C 0.25462 0.5577 0.50139 0.0
O1021 O 0.20956 0.50375 0.42475 0.0
C1022 C 0.17196 0.53736 0.48572 0.0
C1023 C 0.18944 0.50435 0.40726 0.0
O1024 O 0.17367 0.52542 0.40749 0.0
C1025 C 0.18627 0.5877 0.42418 0.0
C1026 C 0.14344 0.54539 0.48701 0.0
C1027 C 0.13665 0.56829 0.5019 0.0
C1028 C 0.10989 0.5749 0.50692 0.0
C1029 C 0.08965 0.55878 0.496 0.0
C1030 C 0.09581 0.5352 0.48191 0.0
C1031 C 0.12286 0.52873 0.4772 0.0
O1032 O 0.23874 0.57887 0.50413 0.0
O1033 O 0.25131 0.54038 0.48115 0.0
O1034 O 0.22002 0.64314 0.4728 0.0
O1035 O 0.242 0.6154 0.449 0.0
C1036 C 0.23803 0.64067 0.45429 0.0
O1037 O 0.20582 0.57018 0.42111 0.0
O1038 O 0.17919 0.59346 0.44869 0.0
O1039 O 0.17888 0.51733 0.47019 0.0
O1040 O 0.18951 0.55681 0.48572 0.0
H1041 H 0.15222 0.5801 0.51116 0.0
H1042 H 0.06899 0.56275 0.50149 0.0
H1043 H 0.12779 0.51006 0.46731 0.0
O1044 O 0.87103 0.43705 0.75602 0.0
Tb1045 Tb 0.84853 0.45895 0.72617 0.0
Eu1046 Eu 0.78716 0.46094 0.70272 0.0
C1047 C 0.86474 0.4372 0.78148 0.0
O1048 O 0.84088 0.44554 0.78885 0.0
C1049 C 0.80478 0.50038 0.75159 0.0
O1050 O 0.75168 0.45726 0.67326 0.0
C1051 C 0.78562 0.41912 0.73375 0.0
C1052 C 0.75252 0.43741 0.65551 0.0
O1053 O 0.77386 0.42199 0.65554 0.0
C1054 C 0.83603 0.43435 0.67311 0.0
C1055 C 0.79447 0.3909 0.73476 0.0
C1056 C 0.81763 0.38454 0.74957 0.0
C1057 C 0.82479 0.35793 0.7545 0.0
C1058 C 0.80903 0.33745 0.74351 0.0
C1059 C 0.78526 0.34319 0.72946 0.0
C1060 C 0.77827 0.37007 0.72481 0.0
O1061 O 0.82531 0.48371 0.75445 0.0
O1062 O 0.78821 0.49836 0.73052 0.0
O1063 O 0.86075 0.49194 0.6998 0.0
O1064 O 0.89031 0.46872 0.72006 0.0
C1065 C 0.88641 0.48814 0.70333 0.0
O1066 O 0.81862 0.45399 0.67004 0.0
O1067 O 0.8414 0.42692 0.69761 0.0
O1068 O 0.76574 0.42577 0.71786 0.0
O1069 O 0.8046 0.43712 0.73443 0.0
H1070 H 0.82918 0.40031 0.75887 0.0
H1071 H 0.81339 0.31689 0.74897 0.0
H1072 H 0.75945 0.37467 0.71495 0.0
O1073 O 0.69651 0.97091 0.58057 0.0
Tb1074 Tb 0.71523 0.99268 0.6129 0.0
Eu1075 Eu 0.71256 0.05291 0.63563 0.0
C1076 C 0.68274 0.94883 0.58456 0.0
O1077 O 0.6772 0.94127 0.60913 0.0
C1078 C 0.75256 1.0378 0.58673 0.0
O1079 O 0.70808 0.08825 0.66499 0.0
C1080 C 0.67113 0.05329 0.60385 0.0
C1081 C 0.68781 0.08759 0.68226 0.0
O1082 O 0.67207 0.0665 0.68181 0.0
C1083 C 0.68754 1.00262 0.66537 0.0
C1084 C 0.64273 0.04496 0.60221 0.0
C1085 C 0.63637 1.02177 0.58744 0.0
C1086 C 0.60966 1.01492 0.58219 0.0
C1087 C 0.58918 1.03099 0.59272 0.0
C1088 C 0.59495 0.05478 0.60658 0.0
C1089 C 0.62188 0.06156 0.61152 0.0
O1090 O 0.73531 1.01801 0.58307 0.0
O1091 O 0.75068 0.05325 0.60856 0.0
O1092 O 0.73181 0.95343 0.62092 0.0
O1093 O 0.75057 0.98747 0.6386 0.0
C1094 C 0.75091 0.96143 0.63663 0.0
O1095 O 0.70554 1.02175 0.66875 0.0
O1096 O 0.68189 0.99554 0.6408 0.0
O1097 O 0.67775 0.07386 0.61883 0.0
O1098 O 0.68873 1.03395 0.6048 0.0
H1099 H 0.65222 1.0099 0.57852 0.0
H1100 H 0.56861 1.02678 0.58706 0.0
H1101 H 0.62652 0.08039 0.62127 0.0
O1102 O 0.22273 0.14269 0.75963 0.0
Tb1103 Tb 0.2448 0.12277 0.72826 0.0
Eu1104 Eu 0.30361 0.12521 0.70269 0.0
C1105 C 0.20103 0.15676 0.7545 0.0
O1106 O 0.19402 0.16116 0.72954 0.0
C1107 C 0.29064 0.08547 0.75214 0.0
O1108 O 0.33842 0.12988 0.67277 0.0
C1109 C 0.30505 0.16643 0.7346 0.0
C1110 C 0.33713 0.14991 0.65529 0.0
O1111 O 0.31562 0.16511 0.65564 0.0
C1112 C 0.25259 0.15026 0.67486 0.0
C1113 C 0.29638 0.19468 0.73616 0.0
C1114 C 0.27325 0.2009 0.75111 0.0
C1115 C 0.26602 0.22752 0.75602 0.0
C1116 C 0.2817 0.24806 0.74504 0.0
C1117 C 0.30544 0.24244 0.73099 0.0
C1118 C 0.31256 0.2156 0.72633 0.0
O1119 O 0.27155 0.10306 0.75742 0.0
O1120 O 0.30385 0.08669 0.72887 0.0
O1121 O 0.20575 0.10486 0.72207 0.0
O1122 O 0.23941 0.08816 0.70172 0.0
C1123 C 0.21353 0.08677 0.70516 0.0
O1124 O 0.27156 0.13233 0.67072 0.0
O1125 O 0.24626 0.15579 0.69968 0.0
O1126 O 0.32512 0.15992 0.71892 0.0
O1127 O 0.28586 0.1487 0.73441 0.0
H1128 H 0.2617 0.18503 0.76038 0.0
H1129 H 0.27725 0.26861 0.75044 0.0
H1130 H 0.33134 0.2111 0.7164 0.0
O1131 O 0.40418 0.62198 0.58183 0.0
Tb1132 Tb 0.38098 0.60133 0.61197 0.0
Eu1133 Eu 0.3789 0.53983 0.6351 0.0
C1134 C 0.40431 0.61476 0.55662 0.0
O1135 O 0.39465 0.59124 0.54987 0.0
C1136 C 0.33824 0.55814 0.58727 0.0
O1137 O 0.38232 0.50458 0.66473 0.0
C1138 C 0.4205 0.53759 0.60377 0.0
C1139 C 0.4023 0.50511 0.68239 0.0
O1140 O 0.41822 0.52607 0.68224 0.0
C1141 C 0.4059 0.58841 0.66502 0.0
C1142 C 0.44913 0.54525 0.60247 0.0
C1143 C 0.45618 0.56835 0.588 0.0
C1144 C 0.483 0.57445 0.58263 0.0
C1145 C 0.50305 0.55771 0.59296 0.0
C1146 C 0.49662 0.53402 0.60672 0.0
C1147 C 0.46951 0.52798 0.61165 0.0
O1148 O 0.35452 0.57898 0.58441 0.0
O1149 O 0.34108 0.5411 0.60781 0.0
O1150 O 0.37168 0.64342 0.61633 0.0
O1151 O 0.34995 0.61522 0.63982 0.0
C1152 C 0.35355 0.64057 0.63467 0.0
O1153 O 0.38632 0.57091 0.66802 0.0
O1154 O 0.41313 0.59412 0.64054 0.0
O1155 O 0.41329 0.51764 0.61927 0.0
O1156 O 0.40317 0.55725 0.60372 0.0
H1157 H 0.44073 0.58071 0.57925 0.0
H1158 H 0.52371 0.56134 0.58723 0.0
H1159 H 0.46434 0.5092 0.62121 0.0
O1160 O 0.8296 0.86518 0.64046 0.0
Tb1161 Tb 0.86173 0.8436 0.6212 0.0
Eu1162 Eu 0.88775 0.78534 0.62394 0.0
C1163 C 0.83416 0.88691 0.6546 0.0
O1164 O 0.85901 0.89421 0.65949 0.0
C1165 C 0.83834 0.79766 0.58401 0.0
O1166 O 0.91778 0.75067 0.62881 0.0
C1167 C 0.85544 0.78329 0.66478 0.0
C1168 C 0.93484 0.75177 0.64922 0.0
O1169 O 0.93411 0.77308 0.66462 0.0
C1170 C 0.91518 0.83646 0.64949 0.0
C1171 C 0.85401 0.79118 0.69324 0.0
C1172 C 0.83958 0.81444 0.70009 0.0
C1173 C 0.83505 0.82113 0.72689 0.0
C1174 C 0.84581 0.8047 0.74696 0.0
C1175 C 0.8593 0.78081 0.74067 0.0
C1176 C 0.86361 0.77427 0.71367 0.0
O1177 O 0.83274 0.81652 0.60167 0.0
O1178 O 0.86191 0.7849 0.58521 0.0
O1179 O 0.86762 0.88258 0.6032 0.0
O1180 O 0.88809 0.84902 0.58646 0.0
C1181 C 0.88447 0.87485 0.58501 0.0
O1182 O 0.91967 0.81737 0.63178 0.0
O1183 O 0.89019 0.84288 0.65447 0.0
O1184 O 0.87086 0.76317 0.65782 0.0
O1185 O 0.85602 0.80294 0.6476 0.0
H1186 H 0.83047 0.82661 0.68458 0.0
H1187 H 0.84069 0.8088 0.76765 0.0
H1188 H 0.87314 0.75541 0.70867 0.0
O1189 O 0.8322 0.2207 0.93776 0.0
Tb1190 Tb 0.86275 0.24121 0.96062 0.0
Eu1191 Eu 0.88579 0.30308 0.96187 0.0
C1192 C 0.80692 0.22794 0.93794 0.0
O1193 O 0.80025 0.25134 0.94793 0.0
C1194 C 0.83831 0.28481 1.0031 0.0
O1195 O 0.91497 0.33877 0.95824 0.0
C1196 C 0.85436 0.30438 0.92028 0.0
C1197 C 0.93257 0.33826 0.93826 0.0
O1198 O 0.93252 0.31713 0.9226 0.0
C1199 C 0.9156 0.25428 0.93534 0.0
C1200 C 0.85334 0.2956 0.89201 0.0
C1201 C 0.83858 0.27246 0.88562 0.0
C1202 C 0.83393 0.26512 0.85902 0.0
C1203 C 0.84509 0.28074 0.83859 0.0
C1204 C 0.85896 0.30456 0.8443 0.0
C1205 C 0.86332 0.31177 0.87117 0.0
O1206 O 0.83556 0.26355 0.98739 0.0
O1207 O 0.85859 0.30213 0.99969 0.0
O1208 O 0.8672 0.19904 0.96955 0.0
O1209 O 0.8909 0.22705 0.99134 0.0
C1210 C 0.88569 0.20172 0.98759 0.0
O1211 O 0.91881 0.27195 0.95468 0.0
O1212 O 0.89098 0.24862 0.92833 0.0
O1213 O 0.87014 0.32435 0.92686 0.0
O1214 O 0.8539 0.28541 0.9383 0.0
H1215 H 0.82914 0.26104 0.90131 0.0
H1216 H 0.83986 0.2762 0.81802 0.0
H1217 H 0.87306 0.33063 0.87572 0.0
O1218 O 0.47322 1.01068 0.3919 0.0
Tb1219 Tb 0.49489 0.9786 0.37267 0.0
Eu1220 Eu 0.55342 0.95249 0.37563 0.0
C1221 C 0.45139 1.00615 0.40591 0.0
O1222 O 0.44405 0.98136 0.41077 0.0
C1223 C 0.54116 1.0021 0.33579 0.0
O1224 O 0.58843 0.92268 0.38014 0.0
C1225 C 0.55503 0.98461 0.41667 0.0
C1226 C 0.58731 0.90499 0.39999 0.0
O1227 O 0.56577 0.90498 0.41511 0.0
C1228 C 0.50201 0.92522 0.40075 0.0
C1229 C 0.54633 0.98642 0.44487 0.0
C1230 C 0.52323 1.0015 0.45094 0.0
C1231 C 0.51599 1.00659 0.4775 0.0
C1232 C 0.53166 0.99571 0.49812 0.0
C1233 C 0.55539 0.98156 0.49263 0.0
C1234 C 0.56248 0.97668 0.46585 0.0
O1235 O 0.522 1.00755 0.3532 0.0
O1236 O 0.5541 0.97864 0.33708 0.0
O1237 O 0.45583 0.97273 0.35465 0.0
O1238 O 0.48941 0.95225 0.33793 0.0
C1239 C 0.46354 0.95587 0.33647 0.0
O1240 O 0.52115 0.92075 0.38308 0.0
O1241 O 0.49571 0.95018 0.40588 0.0
O1242 O 0.57495 0.96864 0.41035 0.0
O1243 O 0.53588 0.98453 0.39889 0.0
H1244 H 0.5117 1.01072 0.43501 0.0
H1245 H 0.5272 1.00125 0.51862 0.0
H1246 H 0.58125 0.96666 0.46146 0.0
O1247 O 0.26419 0.36288 0.93991 0.0
Tb1248 Tb 0.23115 0.34555 0.96186 0.0
Eu1249 Eu 0.20404 0.28638 0.96204 0.0
C1250 C 0.26067 0.38358 0.92402 0.0
O1251 O 0.23617 0.39043 0.91712 0.0
C1252 C 0.25316 0.3002 1.00216 0.0
O1253 O 0.17384 0.25171 0.95801 0.0
C1254 C 0.23598 0.28373 0.9209 0.0
C1255 C 0.15617 0.25283 0.9381 0.0
O1256 O 0.15641 0.27419 0.92277 0.0
C1257 C 0.17646 0.33711 0.93633 0.0
C1258 C 0.23755 0.29194 0.89252 0.0
C1259 C 0.25252 0.31491 0.88591 0.0
C1260 C 0.25714 0.32188 0.8592 0.0
C1261 C 0.24607 0.30592 0.83895 0.0
C1262 C 0.23219 0.28218 0.84495 0.0
C1263 C 0.22765 0.27545 0.87189 0.0
O1264 O 0.25871 0.3194 0.98475 0.0
O1265 O 0.23005 0.28666 1.00057 0.0
O1266 O 0.22929 0.38716 0.97374 0.0
O1267 O 0.20571 0.35882 0.9952 0.0
C1268 C 0.21178 0.3841 0.99259 0.0
O1269 O 0.17243 0.31868 0.95478 0.0
O1270 O 0.20132 0.34275 0.92988 0.0
O1271 O 0.21984 0.26413 0.92769 0.0
O1272 O 0.23628 0.30311 0.9384 0.0
H1273 H 0.26202 0.32655 0.90153 0.0
H1274 H 0.25131 0.31015 0.81832 0.0
H1275 H 0.21779 0.25671 0.87667 0.0
O1276 O 0.12336 0.08502 0.89164 0.0
Tb1277 Tb 0.09624 0.11266 0.87239 0.0
Eu1278 Eu 1.03693 0.13644 0.87579 0.0
C1279 C 0.11732 0.05993 0.89632 0.0
O1280 O 0.09278 0.05141 0.89195 0.0
C1281 C 0.05044 0.08685 0.83611 0.0
O1282 O 1.00195 0.16627 0.88036 0.0
C1283 C 1.03616 0.1046 0.91708 0.0
C1284 C 1.00287 0.1834 0.90072 0.0
O1285 O 1.02396 0.18253 0.91646 0.0
C1286 C 0.08733 0.16517 0.90086 0.0
C1287 C 1.04487 0.10283 0.94533 0.0
C1288 C 0.06768 0.08733 0.95142 0.0
C1289 C 0.07484 0.08194 0.97795 0.0
C1290 C 0.05949 0.09312 0.99857 0.0
C1291 C 1.03606 0.1078 0.99313 0.0
C1292 C 1.02895 0.11285 0.96635 0.0
O1293 O 0.07039 0.08242 0.853 0.0
O1294 O 1.03652 0.10975 0.83754 0.0
O1295 O 0.13471 0.12017 0.854 0.0
O1296 O 0.10038 0.14033 0.83842 0.0
C1297 C 0.12631 0.13741 0.83651 0.0
O1298 O 0.06831 0.16914 0.88293 0.0
O1299 O 0.09406 0.14037 0.90603 0.0
O1300 O 1.01587 0.12009 0.91068 0.0
O1301 O 0.0553 0.105 0.8993 0.0
H1302 H 0.079 0.078 0.93552 0.0
H1303 H 0.06388 0.08739 1.01904 0.0
H1304 H 1.01036 0.12322 0.96197 0.0
O1305 O 0.7588 0.22065 0.15238 0.0
Tb1306 Tb 0.72832 0.24116 0.12939 0.0
Eu1307 Eu 0.70537 0.30302 0.12814 0.0
C1308 C 0.78409 0.2278 0.15216 0.0
O1309 O 0.79083 0.25114 0.14208 0.0
C1310 C 0.75273 0.28473 0.08688 0.0
O1311 O 0.67583 0.33838 0.13217 0.0
C1312 C 0.7372 0.30446 0.16942 0.0
C1313 C 0.65835 0.33765 0.15226 0.0
O1314 O 0.65873 0.31653 0.16793 0.0
C1315 C 0.67545 0.25423 0.15465 0.0
C1316 C 0.73872 0.2963 0.19785 0.0
C1317 C 0.75378 0.27341 0.20447 0.0
C1318 C 0.75898 0.2667 0.23114 0.0
C1319 C 0.74808 0.2827 0.25142 0.0
C1320 C 0.73389 0.30628 0.24543 0.0
C1321 C 0.72898 0.31286 0.21849 0.0
O1322 O 0.75555 0.26357 0.10271 0.0
O1323 O 0.73238 0.30199 0.09019 0.0
O1324 O 0.72403 0.19901 0.12028 0.0
O1325 O 0.70015 0.22704 0.09869 0.0
C1326 C 0.70546 0.20172 0.10232 0.0
O1327 O 0.67231 0.27195 0.13534 0.0
O1328 O 0.70003 0.24843 0.16166 0.0
O1329 O 0.72166 0.32457 0.16267 0.0
O1330 O 0.73704 0.28509 0.15182 0.0
H1331 H 0.763 0.2617 0.18886 0.0
H1332 H 0.75371 0.27866 0.27199 0.0
H1333 H 0.719 0.33153 0.21371 0.0
O1334 O 0.47345 0.07922 0.19733 0.0
Tb1335 Tb 0.49544 0.11108 0.21655 0.0
Eu1336 Eu 0.55389 0.13658 0.21374 0.0
C1337 C 0.45186 0.084 0.18298 0.0
O1338 O 0.44483 0.10886 0.17803 0.0
C1339 C 0.54139 0.08717 0.25366 0.0
O1340 O 0.58871 0.16657 0.20933 0.0
C1341 C 0.55532 0.10426 0.17283 0.0
C1342 C 0.58776 0.18385 0.1891 0.0
O1343 O 0.56662 0.18316 0.17341 0.0
C1344 C 0.50287 0.16424 0.18838 0.0
C1345 C 0.54651 0.10212 0.14467 0.0
C1346 C 0.52385 0.0863 0.13875 0.0
C1347 C 0.51644 0.08114 0.11224 0.0
C1348 C 0.53153 0.09256 0.09153 0.0
C1349 C 0.55489 0.10737 0.09685 0.0
C1350 C 0.56214 0.1124 0.12358 0.0
O1351 O 0.52214 0.08186 0.23626 0.0
O1352 O 0.55451 0.11052 0.25234 0.0
O1353 O 0.45653 0.11778 0.2345 0.0
O1354 O 0.49054 0.13769 0.25114 0.0
C1355 C 0.46461 0.13459 0.25259 0.0
O1356 O 0.52189 0.16858 0.20623 0.0
O1357 O 0.49651 0.13932 0.18319 0.0
O1358 O 0.57527 0.12027 0.17902 0.0
O1359 O 0.53621 0.10453 0.19059 0.0
H1360 H 0.5128 0.07668 0.15476 0.0
H1361 H 0.52697 0.08698 0.07106 0.0
H1362 H 0.58063 0.12299 0.12783 0.0
O1363 O 0.61688 0.50999 0.19693 0.0
Tb1364 Tb 0.595 0.47805 0.2161 0.0
Eu1365 Eu 0.53651 0.45227 0.21338 0.0
C1366 C 0.63887 0.50539 0.18318 0.0
O1367 O 0.64607 0.48058 0.17821 0.0
C1368 C 0.54891 0.50197 0.25297 0.0
O1369 O 0.50163 0.42237 0.20881 0.0
C1370 C 0.53456 0.48422 0.17223 0.0
C1371 C 0.50271 0.40497 0.18871 0.0
O1372 O 0.52415 0.40528 0.17345 0.0
C1373 C 0.58784 0.4247 0.18825 0.0
C1374 C 0.5426 0.4857 0.14381 0.0
C1375 C 0.56601 0.50001 0.13711 0.0
C1376 C 0.57268 0.50487 0.11036 0.0
C1377 C 0.55615 0.49446 0.09017 0.0
C1378 C 0.53214 0.48108 0.09631 0.0
C1379 C 0.52557 0.4765 0.12327 0.0
O1380 O 0.56805 0.50723 0.23546 0.0
O1381 O 0.53591 0.47855 0.25184 0.0
O1382 O 0.63408 0.47194 0.23395 0.0
O1383 O 0.60047 0.45166 0.25083 0.0
C1384 C 0.62637 0.45509 0.25213 0.0
O1385 O 0.5687 0.42037 0.20597 0.0
O1386 O 0.5941 0.44962 0.18293 0.0
O1387 O 0.5145 0.46866 0.1791 0.0
O1388 O 0.5541 0.4839 0.18959 0.0
H1389 H 0.57826 0.50885 0.15272 0.0
H1390 H 0.56025 0.49983 0.06955 0.0
H1391 H 0.5066 0.46712 0.12816 0.0
C1392 C 0.15724 0.30021 0.41512 0.0
C1393 C 0.15246 0.29133 0.38879 0.0
H1394 H 0.15504 0.29077 0.45695 0.0
C1395 C 0.14599 0.26437 0.38436 0.0
H1396 H 0.16257 0.32086 0.41907 0.0
C1397 C 0.14136 0.24741 0.406 0.0
C1398 C 0.14361 0.25703 0.4323 0.0
H1399 H 0.14235 0.2569 0.36434 0.0
H1400 H 0.13456 0.22717 0.40213 0.0
C1401 C 0.15296 0.28307 0.43679 0.0
C1402 C 0.49538 0.7006 0.93748 0.0
C1403 C 0.50453 0.69527 0.91147 0.0
H1404 H 0.50477 0.70099 0.97915 0.0
C1405 C 0.52867 0.68146 0.90783 0.0
H1406 H 0.47645 0.71075 0.94075 0.0
C1407 C 0.54494 0.6758 0.92988 0.0
C1408 C 0.53714 0.68392 0.95571 0.0
H1409 H 0.53586 0.67679 0.88792 0.0
H1410 H 0.56449 0.66701 0.92642 0.0
C1411 C 0.51148 0.69478 0.9595 0.0
C1412 C 0.93327 0.29419 0.45312 0.0
C1413 C 0.94033 0.31973 0.44384 0.0
H1414 H 0.92513 0.25348 0.44227 0.0
C1415 C 0.93922 0.32527 0.41637 0.0
H1416 H 0.93382 0.28961 0.4743 0.0
C1417 C 0.93398 0.30488 0.39815 0.0
C1418 C 0.93012 0.27855 0.40714 0.0
H1419 H 0.94408 0.34503 0.40882 0.0
H1420 H 0.93506 0.30936 0.37696 0.0
C1421 C 0.9282 0.27361 0.43479 0.0
C1422 C 0.53918 0.90584 0.92371 0.0
C1423 C 0.5474 0.90157 0.95034 0.0
H1424 H 0.55024 0.90417 0.88226 0.0
C1425 C 0.57461 0.89697 0.95578 0.0
H1426 H 0.51835 0.9098 0.91897 0.0
C1427 C 0.59264 0.89351 0.9348 0.0
C1428 C 0.58382 0.89504 0.90816 0.0
H1429 H 0.58161 0.89388 0.97606 0.0
H1430 H 0.61316 0.88803 0.93942 0.0
C1431 C 0.55737 0.90269 0.9027 0.0
C1432 C 0.14867 0.82768 0.17308 0.0
C1433 C 0.14932 0.82076 0.14589 0.0
H1434 H 0.15454 0.81473 0.21335 0.0
C1435 C 0.16076 0.79633 0.13814 0.0
H1436 H 0.1405 0.84674 0.17949 0.0
C1437 C 0.16877 0.77782 0.15764 0.0
C1438 C 0.16548 0.78374 0.185 0.0
H1439 H 0.16174 0.79078 0.11721 0.0
H1440 H 0.17541 0.75818 0.15127 0.0
C1441 C 0.1569 0.80943 0.19246 0.0
C1442 C 0.07515 0.69796 0.13479 0.0
C1443 C 0.04834 0.69047 0.13863 0.0
H1444 H 0.11148 0.711 0.15331 0.0
C1445 C 1.03898 0.68569 0.16479 0.0
H1446 H 0.08299 0.70164 0.11492 0.0
C1447 C 0.05542 0.69093 0.18684 0.0
C1448 C 0.0812 0.70124 0.18286 0.0
H1449 H 1.01842 0.67962 0.16828 0.0
H1450 H 0.04735 0.68874 0.20683 0.0
C1451 C 0.09137 0.70354 0.15677 0.0
C1452 C 0.92757 0.81899 0.15181 0.0
C1453 C 0.92897 0.81375 0.17946 0.0
H1454 H 0.93368 0.80328 0.11222 0.0
C1455 C 0.93239 0.7873 0.18823 0.0
H1456 H 0.92485 0.83922 0.14448 0.0
C1457 C 0.93771 0.76705 0.1699 0.0
C1458 C 0.93929 0.77281 0.1425 0.0
H1459 H 0.93306 0.78258 0.20939 0.0
H1460 H 0.94226 0.74717 0.17734 0.0
C1461 C 0.93268 0.79851 0.13334 0.0
C1462 C 1.01563 0.89793 0.16548 0.0
C1463 C 1.02161 0.89755 0.19289 0.0
H1464 H 1.03069 0.90239 0.12581 0.0
C1465 C 0.04698 0.90585 0.20171 0.0
H1466 H 0.99596 0.89213 0.15829 0.0
C1467 C 0.06707 0.9116 0.183 0.0
C1468 C 0.06177 0.90918 0.15544 0.0
H1469 H 0.05186 0.9059 0.22283 0.0
H1470 H 0.08716 0.91574 0.19015 0.0
C1471 C 1.03548 0.90392 0.14691 0.0
C1472 C 0.40064 0.15435 0.2861 0.0
C1473 C 0.4094 0.15942 0.3123 0.0
H1474 H 0.41163 0.14232 0.24663 0.0
C1475 C 0.4371 0.16118 0.31751 0.0
H1476 H 0.37945 0.15333 0.28139 0.0
C1477 C 0.45563 0.15502 0.29739 0.0
C1478 C 0.44652 0.14695 0.2721 0.0
H1479 H 0.44441 0.16514 0.33753 0.0
H1480 H 0.47682 0.15459 0.30217 0.0
C1481 C 0.41904 0.14794 0.26624 0.0
C1482 C 0.3975 0.42182 0.0728 0.0
C1483 C 0.39707 0.39436 0.06703 0.0
H1484 H 0.40193 0.46144 0.05749 0.0
C1485 C 0.40525 0.38538 1.04175 0.0
H1486 H 0.39178 0.42914 0.0924 0.0
C1487 C 0.41094 0.40398 1.02156 0.0
C1488 C 0.40857 0.4316 1.02666 0.0
H1489 H 0.40525 0.36422 1.03702 0.0
H1490 H 0.41499 0.39671 1.00155 0.0
C1491 C 0.40341 0.44029 0.05285 0.0
C1492 C 0.655 0.42878 0.31675 0.0
C1493 C 0.68262 0.43096 0.31131 0.0
H1494 H 0.615 0.43481 0.3018 0.0
C1495 C 0.691 0.43623 0.28505 0.0
H1496 H 0.64796 0.42464 0.33682 0.0
C1497 C 0.67228 0.4424 0.26537 0.0
C1498 C 0.64485 0.44297 0.27147 0.0
H1499 H 0.71213 0.43758 0.28014 0.0
H1500 H 0.67939 0.44816 0.24571 0.0
C1501 C 0.63614 0.43471 0.29682 0.0
C1502 C 0.69422 0.13113 0.07954 0.0
C1503 C 0.68431 0.13526 0.0536 0.0
H1504 H 0.70884 0.14938 0.11535 0.0
C1505 C 0.67648 0.16125 0.04586 0.0
H1506 H 0.70015 0.11136 0.08623 0.0
C1507 C 0.68148 0.18309 0.06262 0.0
C1508 C 0.69436 0.17911 0.0872 0.0
H1509 H 0.66842 0.16501 1.02609 0.0
H1510 H 0.67711 0.20312 0.05553 0.0
C1511 C 0.69938 0.15293 0.09614 0.0
C1512 C 0.39915 0.93797 0.30251 0.0
C1513 C 0.40791 0.93215 0.27648 0.0
H1514 H 0.41024 0.95016 0.34191 0.0
C1515 C 0.43558 0.92947 0.27156 0.0
H1516 H 0.37796 0.93971 0.30702 0.0
C1517 C 0.45417 0.93534 0.29176 0.0
C1518 C 0.44516 0.94403 0.31686 0.0
H1519 H 0.4429 0.92492 0.25168 0.0
H1520 H 0.47539 0.93499 0.28717 0.0
C1521 C 0.41761 0.94405 0.32245 0.0
C1522 C 0.19084 0.40269 1.03397 0.0
C1523 C 0.20121 0.40653 1.00825 0.0
H1524 H 0.17959 0.42142 0.0708 0.0
C1525 C 0.20384 0.43261 0.99808 0.0
H1526 H 0.18842 0.38271 1.04204 0.0
C1527 C 0.1984 0.45469 1.0142 0.0
C1528 C 0.19076 0.45097 1.04092 0.0
H1529 H 0.21136 0.43599 0.97802 0.0
H1530 H 0.20227 0.47452 1.00632 0.0
C1531 C 0.18577 0.42484 0.05031 0.0
C1532 C 0.67117 0.64761 0.32317 0.0
C1533 C 0.64377 0.64658 0.31695 0.0
H1534 H 0.71098 0.6528 0.3085 0.0
C1535 C 0.635 0.65445 0.29148 0.0
H1536 H 0.67832 0.64215 0.34292 0.0
C1537 C 0.65381 0.66041 0.27156 0.0
C1538 C 0.68144 0.65863 0.27714 0.0
H1539 H 0.61387 0.65398 0.28642 0.0
H1540 H 0.64675 0.6642 0.25141 0.0
C1541 C 0.68985 0.65381 0.3035 0.0
C1542 C 0.91436 0.16116 0.04413 0.0
C1543 C 0.90657 0.13519 1.03632 0.0
H1544 H 0.9138 0.20304 1.03453 0.0
C1545 C 0.89683 0.13109 1.01031 0.0
H1546 H 0.92231 0.16489 0.06397 0.0
C1547 C 0.89178 0.15293 0.9937 0.0
C1548 C 0.89674 0.17909 1.00271 0.0
H1549 H 0.89094 0.11134 1.00356 0.0
H1550 H 0.88244 0.14941 0.97444 0.0
C1551 C 0.90948 0.18303 1.02737 0.0
C1552 C 0.31887 0.43616 0.16096 0.0
C1553 C 0.31333 0.40855 0.15933 0.0
H1554 H 0.30358 0.47601 0.15515 0.0
C1555 C 0.28676 0.4001 0.15568 0.0
H1556 H 0.33919 0.44324 0.16387 0.0
C1557 C 0.26669 0.41872 0.15044 0.0
C1558 C 0.27276 0.4461 0.14914 0.0
H1559 H 0.28181 0.37899 0.15481 0.0
H1560 H 0.24672 0.41153 0.14577 0.0
C1561 C 0.29858 0.45492 0.15592 0.0
C1562 C 0.26047 0.71144 0.44377 0.0
C1563 C 0.28651 0.70748 0.43396 0.0
H1564 H 0.22463 0.6929 0.45803 0.0
C1565 C 0.29433 0.68163 0.4258 0.0
H1566 H 0.25372 0.73111 0.44993 0.0
C1567 C 0.27761 0.65969 0.43048 0.0
C1568 C 0.25297 0.66344 0.44335 0.0
H1569 H 0.31418 0.67803 0.41777 0.0
H1570 H 0.2848 0.63974 0.42591 0.0
C1571 C 0.24389 0.68953 0.44859 0.0
C1572 C 0.94574 0.55827 0.91042 0.0
C1573 C 0.93759 0.53239 0.91774 0.0
H1574 H 0.93368 0.59652 0.89555 0.0
C1575 C 0.91005 0.52706 0.92092 0.0
H1576 H 0.96682 0.56309 0.90823 0.0
C1577 C 0.89099 0.54635 0.91369 0.0
C1578 C 0.89938 0.571 0.90321 0.0
H1579 H 0.90316 0.5073 0.92662 0.0
H1580 H 0.86989 0.54121 0.91428 0.0
C1581 C 0.92678 0.57734 0.903 0.0
C1582 C 0.79216 0.95376 0.43163 0.0
C1583 C 0.81798 0.94479 0.43824 0.0
H1584 H 0.75144 0.94238 0.42395 0.0
C1585 C 0.82389 0.91738 0.43689 0.0
H1586 H 0.78728 0.97488 0.4324 0.0
C1587 C 0.80367 0.8989 0.4318 0.0
C1588 C 0.77712 0.90754 0.42833 0.0
H1589 H 0.84386 0.91007 0.44142 0.0
H1590 H 0.80848 0.87775 0.43265 0.0
C1591 C 0.77173 0.93516 0.42671 0.0
C1592 C 0.70429 0.547 0.40402 0.0
C1593 C 0.69565 0.5216 0.39576 0.0
H1594 H 0.69238 0.58702 0.41395 0.0
C1595 C 0.66823 0.51543 0.39617 0.0
H1596 H 0.72542 0.55202 0.40403 0.0
C1597 C 0.64945 0.5351 0.40218 0.0
C1598 C 0.65779 0.5614 0.40746 0.0
H1599 H 0.66117 0.49573 0.3904 0.0
H1600 H 0.62834 0.53014 0.40072 0.0
C1601 C 0.68538 0.56691 0.4098 0.0
C1602 C 0.3471 0.68931 0.64081 0.0
C1603 C 0.33826 0.66307 0.64572 0.0
H1604 H 0.33694 0.73082 0.64009 0.0
C1605 C 0.31364 0.65894 0.65849 0.0
H1606 H 0.36635 0.69298 0.63145 0.0
C1607 C 0.29672 0.68068 0.66348 0.0
C1608 C 0.30434 0.70672 0.65574 0.0
H1609 H 0.30663 0.63886 0.66279 0.0
H1610 H 0.27691 0.6768 0.67146 0.0
C1611 C 0.33034 0.71101 0.64595 0.0
C1612 C 0.92543 0.54879 0.68237 0.0
C1613 C 0.95183 0.53968 0.68667 0.0
H1614 H 0.88351 0.53919 0.68404 0.0
C1615 C 0.95632 0.51232 0.6911 0.0
H1616 H 0.92141 0.56976 0.67851 0.0
C1617 C 0.93466 0.49504 0.69447 0.0
C1618 C 0.90828 0.50478 0.69304 0.0
H1619 H 0.9764 0.50464 0.6942 0.0
H1620 H 0.93858 0.47439 0.69989 0.0
C1621 C 0.90373 0.53137 0.68546 0.0
C1622 C 0.16769 0.07308 0.69269 0.0
C1623 C 0.19519 0.06728 0.69307 0.0
H1624 H 0.128 0.05783 0.68808 0.0
C1625 C 0.20416 1.04204 0.68467 0.0
H1626 H 0.16037 0.09264 0.69857 0.0
C1627 C 0.18553 1.0219 0.67879 0.0
C1628 C 0.15787 1.02701 0.68118 0.0
H1629 H 0.22536 1.0373 0.68462 0.0
H1630 H 0.1928 1.00191 0.67455 0.0
C1631 C 0.14918 0.05318 0.68657 0.0
C1632 C 0.6489 0.7609 0.88183 0.0
C1633 C 0.65798 0.7871 0.88631 0.0
H1634 H 0.63466 0.72466 0.89954 0.0
C1635 C 0.66462 0.79503 0.91255 0.0
H1636 H 0.64386 0.75408 0.86188 0.0
C1637 C 0.65939 0.77808 0.93418 0.0
C1638 C 0.64738 0.75313 0.92974 0.0
H1639 H 0.67199 0.81503 0.91658 0.0
H1640 H 0.66288 0.78525 0.95433 0.0
C1641 C 0.64345 0.74412 0.90342 0.0
C1642 C 1.01404 0.19118 0.42447 0.0
C1643 C 1.02049 0.19063 0.39718 0.0
H1644 H 1.02768 0.18493 0.46446 0.0
C1645 C 1.04467 0.17893 0.38892 0.0
H1646 H 0.99517 0.19953 0.43126 0.0
C1647 C 0.06345 0.1706 0.40804 0.0
C1648 C 0.05806 0.17382 0.4355 0.0
H1649 H 0.04983 0.17802 0.36789 0.0
H1650 H 0.08294 0.16381 0.40129 0.0
C1651 C 1.03256 0.18262 0.44346 0.0
C1652 C 0.42347 0.7964 0.94976 0.0
C1653 C 0.43274 0.82138 0.94092 0.0
H1654 H 0.41248 0.75655 0.9383 0.0
C1655 C 0.43243 0.82729 0.91348 0.0
H1656 H 0.42334 0.79154 0.97088 0.0
C1657 C 0.42597 0.80753 0.89492 0.0
C1658 C 0.42001 0.78148 0.90353 0.0
H1659 H 0.43897 0.84666 0.90624 0.0
H1660 H 0.42792 0.81205 0.8738 0.0
C1661 C 0.41711 0.77647 0.93109 0.0
C1662 C 1.0216 0.4126 0.40171 0.0
C1663 C 1.02656 0.41155 0.42943 0.0
H1664 H 1.0378 0.40607 0.36239 0.0
C1665 C 0.05297 0.40828 0.43856 0.0
H1666 H 1.00141 0.41518 0.39414 0.0
C1667 C 0.07346 0.40278 0.42054 0.0
C1668 C 0.06798 0.40086 0.3931 0.0
H1669 H 0.05746 0.40787 0.45978 0.0
H1670 H 0.0933 0.39837 0.42827 0.0
C1671 C 1.04233 0.40732 0.38355 0.0
C1672 C 0.65672 0.30731 0.69223 0.0
C1673 C 0.66559 0.28185 0.68431 0.0
H1674 H 0.64015 0.34475 0.67991 0.0
C1675 C 0.66916 0.27652 0.65688 0.0
H1676 H 0.65415 0.31215 0.71321 0.0
C1677 C 0.66116 0.29537 0.6377 0.0
C1678 C 0.64946 0.31956 0.64586 0.0
H1679 H 0.67599 0.25707 0.65016 0.0
H1680 H 0.66237 0.29028 0.61667 0.0
C1681 C 0.64852 0.3259 0.67317 0.0
C1682 C 0.59284 0.19786 0.65476 0.0
C1683 C 0.58284 0.19587 0.68093 0.0
H1684 H 0.58381 0.19695 0.61299 0.0
C1685 C 0.55665 0.18675 0.68512 0.0
H1686 H 0.61323 0.20444 0.65114 0.0
C1687 C 0.53971 0.18259 0.66325 0.0
C1688 C 0.54893 0.18733 0.63704 0.0
H1689 H 0.54867 0.18483 0.70518 0.0
H1690 H 0.51891 0.17752 0.66695 0.0
C1691 C 0.57606 0.19339 0.63292 0.0
C1692 C 0.43891 0.26785 0.66895 0.0
C1693 C 0.44029 0.27315 0.64145 0.0
H1694 H 0.43396 0.28395 0.70816 0.0
C1695 C 0.4332 0.29857 0.63186 0.0
H1696 H 0.44381 0.24818 0.67673 0.0
C1697 C 0.42773 0.31928 0.64998 0.0
C1698 C 0.42921 0.31454 0.67771 0.0
H1699 H 0.43403 0.30297 0.61065 0.0
H1700 H 0.4246 0.33932 0.64231 0.0
C1701 C 0.4332 0.2883 0.68693 0.0
C1702 C 0.51528 0.40125 0.66452 0.0
C1703 C 0.52071 0.40046 0.69204 0.0
H1704 H 0.53138 0.40491 0.62515 0.0
C1705 C 0.54629 0.40748 0.70135 0.0
H1706 H 0.4955 0.3964 0.65692 0.0
C1707 C 0.567 0.41228 0.68307 0.0
C1708 C 0.56214 0.41011 0.65541 0.0
H1709 H 0.5508 0.40717 0.72256 0.0
H1710 H 0.58713 0.41538 0.69062 0.0
C1711 C 0.53579 0.4062 0.64634 0.0
C1712 C 0.90054 0.65568 0.78707 0.0
C1713 C 0.90962 0.65961 0.81334 0.0
H1714 H 0.91108 0.64524 0.74703 0.0
C1715 C 0.93737 0.66138 0.81826 0.0
H1716 H 0.87928 0.65471 0.78262 0.0
C1717 C 0.95569 0.6561 0.79769 0.0
C1718 C 0.94627 0.64894 0.77224 0.0
H1719 H 0.94491 0.66448 0.83835 0.0
H1720 H 0.97692 0.65539 0.80224 0.0
C1721 C 0.91873 0.65019 0.76673 0.0
C1722 C 0.90259 0.93914 0.55128 0.0
C1723 C 0.90791 0.93049 0.52511 0.0
H1724 H 0.89087 0.92793 0.59078 0.0
C1725 C 0.91027 0.90288 0.51996 0.0
H1726 H 0.9011 0.96027 0.55596 0.0
C1727 C 0.90455 0.88425 0.54012 0.0
C1728 C 0.89631 0.89318 0.56541 0.0
H1729 H 0.91443 0.89565 0.49996 0.0
H1730 H 0.90462 0.86308 0.53538 0.0
C1731 C 0.89664 0.92064 0.57119 0.0
C1732 C 0.17488 0.93957 0.76244 0.0
C1733 C 0.14761 0.9392 0.76928 0.0
H1734 H 0.21517 0.93363 0.7756 0.0
C1735 C 0.13968 0.92812 0.79379 0.0
H1736 H 0.18141 0.94745 0.74332 0.0
C1737 C 0.15913 0.92024 0.81245 0.0
C1738 C 0.18658 0.92331 0.8066 0.0
H1739 H 0.11869 0.92737 0.79928 0.0
H1740 H 0.15264 0.91394 0.83214 0.0
C1741 C 0.1942 0.93147 0.78084 0.0
C1742 C 0.19506 0.63063 0.57925 0.0
C1743 C 0.18528 0.63479 0.55326 0.0
H1744 H 0.20924 0.64886 0.61524 0.0
C1745 C 0.17723 0.66074 0.54561 0.0
H1746 H 0.20114 0.6109 0.58589 0.0
C1747 C 0.18189 0.68254 0.56249 0.0
C1748 C 0.19466 0.67858 0.58713 0.0
H1749 H 0.16924 0.66451 0.52579 0.0
H1750 H 0.17736 0.70256 0.55546 0.0
C1751 C 0.19988 0.65241 0.59599 0.0
C1752 C 0.91294 0.42922 0.79271 0.0
C1753 C 0.88691 0.43643 0.801 0.0
H1754 H 0.95516 0.43137 0.80103 0.0
C1755 C 0.88339 0.44793 0.82635 0.0
H1756 H 0.91624 0.4201 0.77332 0.0
C1757 C 0.90561 0.4547 0.84183 0.0
C1758 C 0.93167 0.44971 0.83244 0.0
H1759 H 0.86366 0.4536 0.83341 0.0
H1760 H 0.90239 0.46498 0.86066 0.0
C1761 C 0.93522 0.43575 0.80841 0.0
C1762 C 0.6927 0.92047 0.51612 0.0
C1763 C 0.6933 0.89295 0.5216 0.0
H1764 H 0.68757 0.95988 0.53172 0.0
C1765 C 0.68493 0.88365 0.54671 0.0
H1766 H 0.69855 0.92805 0.49666 0.0
C1767 C 0.67878 0.90199 0.56701 0.0
C1768 C 0.68083 0.92969 0.5622 0.0
H1769 H 0.68505 0.86244 0.55121 0.0
H1770 H 0.67451 0.89448 0.58689 0.0
C1771 C 0.6863 0.93868 0.53617 0.0
C1772 C 0.13516 0.15653 0.79112 0.0
C1773 C 0.14416 0.14989 0.81686 0.0
H1774 H 0.14663 0.1644 0.75055 0.0
C1775 C 0.17158 0.15158 0.82288 0.0
H1776 H 0.11403 0.15547 0.78618 0.0
C1777 C 0.1901 0.15696 0.80281 0.0
C1778 C 0.1815 0.16034 0.7763 0.0
H1779 H 0.17889 0.14703 0.8428 0.0
H1780 H 0.21127 0.15633 0.8077 0.0
C1781 C 0.15382 0.1617 0.77083 0.0
C1782 C 0.40985 0.6838 0.52741 0.0
C1783 C 0.39692 0.6798 0.50286 0.0
H1784 H 0.42313 0.6657 0.56386 0.0
C1785 C 0.39208 0.65362 0.49385 0.0
H1786 H 0.41409 0.70384 0.53455 0.0
C1787 C 0.39746 0.6318 0.51036 0.0
C1788 C 0.4074 0.63593 0.5363 0.0
H1789 H 0.38261 0.65006 0.47466 0.0
H1790 H 0.39166 0.61201 0.50363 0.0
C1791 C 0.41505 0.66194 0.54409 0.0
C1792 C 0.76526 0.9157 0.64865 0.0
C1793 C 0.77092 0.94319 0.64807 0.0
H1794 H 0.78095 0.87612 0.65231 0.0
C1795 C 0.79655 0.95223 0.65528 0.0
H1796 H 0.74544 0.90831 0.64364 0.0
C1797 C 0.81705 0.9337 0.66018 0.0
C1798 C 0.81196 0.90607 0.65792 0.0
H1799 H 0.80123 0.97341 0.65514 0.0
H1800 H 0.83722 0.94103 0.66353 0.0
C1801 C 0.78557 0.89728 0.65369 0.0
C1802 C 0.79423 0.18096 0.92655 0.0
C1803 C 0.78649 0.20691 0.93446 0.0
H1804 H 0.78449 0.13911 0.9269 0.0
C1805 C 0.76044 0.21104 0.94418 0.0
H1806 H 0.81408 0.17721 0.91861 0.0
C1807 C 0.74373 0.18924 0.94909 0.0
C1808 C 0.75269 0.16308 0.94403 0.0
H1809 H 0.75374 0.23079 0.95016 0.0
H1810 H 0.72444 0.19277 0.95842 0.0
C1811 C 0.77738 0.15912 0.93131 0.0
C1812 C 0.38592 1.04359 0.40543 0.0
C1813 C 0.39504 0.06915 0.39825 0.0
H1814 H 0.39706 1.00305 0.41402 0.0
C1815 C 0.42255 0.07487 0.39932 0.0
H1816 H 0.36471 1.03888 0.40492 0.0
C1817 C 0.44095 0.05465 0.40479 0.0
C1818 C 0.43213 1.0283 0.40894 0.0
H1819 H 0.42999 0.09464 0.39437 0.0
H1820 H 0.46215 0.05928 0.40377 0.0
C1821 C 0.40443 1.02318 0.41074 0.0
C1822 C 0.29535 0.45029 0.92792 0.0
C1823 C 0.31999 0.44228 0.93883 0.0
H1824 H 0.25681 0.43749 0.91391 0.0
C1825 C 0.32684 0.41505 0.93902 0.0
H1826 H 0.28985 0.47126 0.9273 0.0
C1827 C 0.30833 0.39583 0.93094 0.0
C1828 C 0.28246 0.40351 0.92298 0.0
H1829 H 0.34605 0.40846 0.94677 0.0
H1830 H 0.31359 0.37487 0.93299 0.0
C1831 C 0.27659 0.43095 0.92006 0.0
C1832 C 0.15784 0.99782 0.88617 0.0
C1833 C 0.18396 1.008 0.88866 0.0
H1834 H 0.11589 1.00617 0.88771 0.0
C1835 C 0.1879 1.03374 0.89898 0.0
H1836 H 0.15441 0.97773 0.87871 0.0
C1837 C 0.16577 0.05015 0.90402 0.0
C1838 C 0.13958 1.04079 0.89901 0.0
H1839 H 0.20793 1.04181 0.90132 0.0
H1840 H 0.16924 0.07068 0.91009 0.0
C1841 C 0.13578 1.01401 0.89155 0.0
C1842 C 0.81346 0.15887 0.15867 0.0
C1843 C 0.83818 0.1628 0.14602 0.0
H1844 H 0.77677 0.17701 0.17133 0.0
C1845 C 0.84721 0.18896 0.14105 0.0
H1846 H 0.8063 0.13886 0.163 0.0
C1847 C 0.83055 0.21079 0.14599 0.0
C1848 C 0.80447 0.20669 0.15563 0.0
H1849 H 0.86653 0.19247 0.13178 0.0
H1850 H 0.83731 0.23054 0.14009 0.0
C1851 C 0.79665 0.18074 0.16346 0.0
C1852 C 0.38616 0.04702 0.18209 0.0
C1853 C 0.39502 1.0214 0.18938 0.0
H1854 H 0.39769 0.08752 0.17385 0.0
C1855 C 0.4225 1.01548 0.18874 0.0
H1856 H 0.36498 0.05188 0.18231 0.0
C1857 C 0.4411 1.03558 0.18364 0.0
C1858 C 0.43251 0.062 0.17947 0.0
H1859 H 0.42973 0.99565 0.1938 0.0
H1860 H 0.46226 1.0308 0.18501 0.0
C1861 C 0.40488 0.06733 0.17718 0.0
C1862 C 0.6861 0.52196 0.17912 0.0
C1863 C 0.65844 0.52736 0.18087 0.0
H1864 H 0.72596 0.53707 0.18557 0.0
C1865 C 0.64989 0.55367 0.18578 0.0
H1866 H 0.69325 0.50185 0.17527 0.0
C1867 C 0.66847 0.57347 0.19203 0.0
C1868 C 0.6959 0.56742 0.19303 0.0
H1869 H 0.62874 0.55854 0.18679 0.0
H1870 H 0.66122 0.59317 0.19751 0.0
C1871 C 0.7048 0.542 0.18512 0.0
C1872 C 1.02065 0.30132 0.29302 0.0
C1873 C 1.02792 0.27392 0.29476 0.0
H1874 H 1.03338 0.34275 0.29231 0.0
C1875 C 0.0556 0.26825 0.29583 0.0
H1876 H 0.99963 0.30677 0.2927 0.0
C1877 C 0.07502 0.28909 0.29648 0.0
C1878 C 0.06773 0.31652 0.29521 0.0
H1879 H 0.06225 0.2477 0.29789 0.0
H1880 H 0.09593 0.28369 0.29882 0.0
C1881 C 1.04012 0.32214 0.29275 0.0
C1882 C 0.53322 0.80159 0.06097 0.0
C1883 C 0.52279 0.81229 1.03677 0.0
H1884 H 0.5622 0.77493 0.07986 0.0
C1885 C 0.53495 0.80316 1.01295 0.0
H1886 H 0.5249 0.80808 0.07988 0.0
C1887 C 0.55603 0.7844 1.01293 0.0
C1888 C 0.56681 0.77368 1.03676 0.0
H1889 H 0.52801 0.81052 0.99376 0.0
H1890 H 0.56402 0.77823 0.99375 0.0
C1891 C 0.55502 0.78277 0.06097 0.0
C1892 C 0.05239 0.82317 0.29555 0.0
C1893 C 1.02483 0.81705 0.29387 0.0
H1894 H 0.09313 0.80849 0.29489 0.0
C1895 C 1.018 0.78948 0.29317 0.0
H1896 H 0.05877 0.84389 0.29554 0.0
C1897 C 1.03779 0.76898 0.29364 0.0
C1898 C 0.06538 0.77513 0.29391 0.0
H1899 H 0.99714 0.7837 0.29146 0.0
H1900 H 1.03145 0.7483 0.29211 0.0
C1901 C 0.07221 0.80267 0.2951 0.0
C1902 C 1.01824 0.8009 1.04043 0.0
C1903 C 1.02384 0.77338 1.04339 0.0
H1904 H 1.0337 0.84128 1.03983 0.0
C1905 C 0.05127 0.76606 0.04489 0.0
H1906 H 0.99761 0.80764 1.03978 0.0
C1907 C 0.07217 0.78538 1.04404 0.0
C1908 C 0.06652 0.81298 1.04251 0.0
H1909 H 0.05663 0.74521 0.04758 0.0
H1910 H 0.09273 0.77875 0.04632 0.0
C1911 C 1.03911 0.82029 1.0405 0.0
C1912 C 0.31791 0.04478 0.27276 0.0
C1913 C 0.29605 1.02736 0.2693 0.0
H1914 H 0.33653 0.07612 0.295 0.0
C1915 C 0.2748 1.02972 0.28803 0.0
H1916 H 0.33502 1.04333 0.25948 0.0
C1917 C 0.27576 0.0488 0.30946 0.0
C1918 C 0.29799 0.06618 0.31282 0.0
H1919 H 0.25789 1.0162 0.28673 0.0
H1920 H 0.25925 0.04971 0.32347 0.0
C1921 C 0.31878 0.06371 0.29364 0.0
C1922 C 0.30165 0.54827 0.07016 0.0
C1923 C 0.27401 0.54567 0.06473 0.0
H1924 H 0.34205 0.54824 0.05458 0.0
C1925 C 0.26657 0.54406 1.03738 0.0
H1926 H 0.30851 0.54896 0.09072 0.0
C1927 C 0.28585 0.54452 1.01644 0.0
C1928 C 0.31356 0.54574 1.02194 0.0
H1929 H 0.24563 0.54159 1.03212 0.0
H1930 H 0.27908 0.5422 0.99598 0.0
C1931 C 0.32099 0.54781 0.04926 0.0
C1932 C 0.79758 0.51817 0.28852 0.0
C1933 C 0.79705 0.52525 0.31599 0.0
H1934 H 0.79738 0.5312 0.24723 0.0
C1935 C 0.79744 0.55285 0.32191 0.0
H1936 H 0.79687 0.49724 0.28289 0.0
C1937 C 0.7969 0.57242 0.30126 0.0
C1938 C 0.79689 0.56533 0.27379 0.0
H1939 H 0.79643 0.55938 0.34255 0.0
H1940 H 0.79566 0.59333 0.30688 0.0
C1941 C 0.79797 0.53775 0.26788 0.0
C1942 C 0.7857 1.03126 1.03424 0.0
C1943 C 0.77573 0.05552 1.02325 0.0
H1944 H 0.812 1.01229 0.06345 0.0
C1945 C 0.78585 0.07939 1.03453 0.0
H1946 H 0.77839 1.01234 1.02662 0.0
C1947 C 0.80493 0.07936 0.05533 0.0
C1948 C 0.81491 0.05546 0.06669 0.0
H1949 H 0.77902 0.09861 1.02712 0.0
H1950 H 0.81188 0.09856 0.06268 0.0
C1951 C 0.8048 1.03124 0.05577 0.0
C1952 C 0.28881 0.29366 0.07067 0.0
C1953 C 0.31641 0.2939 0.06385 0.0
H1954 H 0.24754 0.29423 0.05725 0.0
C1955 C 0.32258 0.2935 1.03634 0.0
H1956 H 0.283 0.29441 0.09153 0.0
C1957 C 0.30205 0.29425 1.01659 0.0
C1958 C 0.27445 0.29452 1.02341 0.0
H1959 H 0.34333 0.2943 1.03001 0.0
H1960 H 0.30787 0.29543 0.99575 0.0
C1961 C 0.26828 0.29348 0.05091 0.0
C1962 C 0.28422 0.81118 0.55479 0.0
C1963 C 0.27358 0.78686 0.56498 0.0
H1964 H 0.31314 0.83035 0.52832 0.0
C1965 C 0.28528 0.76308 0.55511 0.0
H1966 H 0.27627 0.83006 0.56187 0.0
C1967 C 0.30612 0.76324 0.53611 0.0
C1968 C 0.31711 0.7872 0.52588 0.0
H1969 H 0.27817 0.7438 0.56207 0.0
H1970 H 0.31377 0.74409 0.52938 0.0
C1971 C 0.30578 0.81135 0.53573 0.0
C1972 C 0.04714 0.57088 0.80182 0.0
C1973 C 1.0447 0.5649 0.77435 0.0
H1974 H 0.04704 0.55607 0.84241 0.0
C1975 C 1.04326 0.53739 0.76745 0.0
H1976 H 0.04773 0.59158 0.80825 0.0
C1977 C 1.04373 0.51681 0.7871 0.0
C1978 C 1.04477 0.52286 0.81463 0.0
H1979 H 1.04095 0.53173 0.74666 0.0
H1980 H 1.0416 0.49619 0.78075 0.0
C1981 C 0.04669 0.55034 0.82152 0.0
C1982 C 0.82302 0.79334 0.5352 0.0
C1983 C 0.81711 0.79204 0.56273 0.0
H1984 H 0.80788 0.7965 0.49488 0.0
C1985 C 0.78965 0.78995 0.56975 0.0
H1986 H 0.84363 0.79563 0.52878 0.0
C1987 C 0.76895 0.78966 0.55014 0.0
C1988 C 0.77481 0.79242 0.52269 0.0
H1989 H 0.78403 0.78938 0.59067 0.0
H1990 H 0.74826 0.78897 0.55666 0.0
C1991 C 0.80231 0.79395 0.51567 0.0
C1992 C 0.54353 0.57177 0.28627 0.0
C1993 C 0.54248 0.56588 0.31383 0.0
H1994 H 0.5466 0.55667 0.24596 0.0
C1995 C 0.54078 0.53843 0.32088 0.0
H1996 H 0.54556 0.59237 0.27981 0.0
C1997 C 0.5406 0.51775 0.3013 0.0
C1998 C 0.54311 0.5236 0.27382 0.0
H1999 H 0.54044 0.53282 0.34181 0.0
H2000 H 0.54021 0.49709 0.30786 0.0
C2001 C 0.54426 0.55109 0.26676 0.0
C2002 C 1.04191 0.04933 0.76873 0.0
C2003 C 1.04412 1.02198 0.77608 0.0
H2004 H 1.0409 0.09082 0.78124 0.0
C2005 C 0.04575 1.01649 0.80371 0.0
H2006 H 1.04118 0.05466 0.74774 0.0
C2007 C 0.04647 1.03745 0.82296 0.0
C2008 C 1.04472 0.06483 0.81559 0.0
H2009 H 0.04821 0.99601 0.81041 0.0
H2010 H 0.04924 1.03218 0.8438 0.0
C2011 C 1.04171 0.07026 0.78806 0.0
C2012 C 0.562 0.80039 0.82683 0.0
C2013 C 0.56851 0.81552 0.80381 0.0
H2014 H 0.53844 0.76945 0.84503 0.0
C2015 C 0.55486 0.80835 0.77993 0.0
H2016 H 0.57157 0.80478 0.84579 0.0
C2017 C 0.53564 0.78695 0.77942 0.0
C2018 C 0.52912 0.77229 0.80287 0.0
H2019 H 0.55913 0.8191 0.76161 0.0
H2020 H 0.52532 0.78248 0.76089 0.0
C2021 C 0.5428 0.7797 0.82642 0.0
C2022 C 0.05265 0.28065 0.56303 0.0
C2023 C 0.06865 0.27562 0.54011 0.0
H2024 H 1.0194 0.30295 0.58035 0.0
C2025 C 0.06259 0.29062 0.51704 0.0
H2026 H 0.05605 0.26915 0.58108 0.0
C2027 C 1.04187 0.30975 0.51661 0.0
C2028 C 1.02542 0.31484 0.53909 0.0
H2029 H 0.07383 0.28724 0.4988 0.0
H2030 H 1.03845 0.32033 0.498 0.0
C2031 C 1.03125 0.29984 0.56249 0.0
C2032 C 0.55563 0.28597 0.81214 0.0
C2033 C 0.56359 0.27308 0.78811 0.0
H2034 H 0.5311 0.31689 0.83076 0.0
C2035 C 0.55167 0.28253 0.76433 0.0
H2036 H 0.56453 0.27984 0.83093 0.0
C2037 C 0.53277 0.30345 0.76423 0.0
C2038 C 0.52477 0.31675 0.78785 0.0
H2039 H 0.5571 0.27366 0.7453 0.0
H2040 H 0.52448 0.30944 0.74509 0.0
C2041 C 0.53668 0.30762 0.812 0.0
C2042 C 0.53969 0.32003 0.54102 0.0
C2043 C 0.56713 0.31278 0.54281 0.0
H2044 H 0.49819 0.30733 0.54027 0.0
C2045 C 0.57281 0.28514 0.54389 0.0
H2046 H 0.53423 0.34102 0.54068 0.0
C2047 C 0.55193 0.26576 0.54453 0.0
C2048 C 0.52446 0.27303 0.54323 0.0
H2049 H 0.59339 0.27851 0.54598 0.0
H2050 H 0.55734 0.24489 0.54689 0.0
C2051 C 0.51884 0.3006 0.54074 0.0
C2052 C 0.824 0.52581 0.79119 0.0
C2053 C 0.80192 0.52143 0.7739 0.0
H2054 H 0.84123 0.54742 0.82406 0.0
C2055 C 0.77855 0.53671 0.77931 0.0
H2056 H 0.84258 0.51498 0.78828 0.0
C2057 C 0.77769 0.55558 0.80096 0.0
C2058 C 0.80025 0.55995 0.81775 0.0
H2059 H 0.76096 0.53418 0.76685 0.0
H2060 H 0.75973 0.56738 0.80392 0.0
C2061 C 0.82324 0.54458 0.8122 0.0
C2062 C 0.78706 0.06458 0.55722 0.0
C2063 C 0.77422 1.04047 0.56508 0.0
H2064 H 0.81566 0.08382 0.53048 0.0
C2065 C 0.78121 1.01727 0.55045 0.0
H2066 H 0.78235 0.08303 0.56757 0.0
C2067 C 0.80002 1.01774 0.52949 0.0
C2068 C 0.81286 1.0415 0.52133 0.0
H2069 H 0.77227 0.99815 0.55545 0.0
H2070 H 0.80475 0.999 0.51963 0.0
C2071 C 0.80594 0.06512 0.53554 0.0
C2072 C 0.29603 1.01705 0.78793 0.0
C2073 C 0.29553 1.02399 0.81544 0.0
H2074 H 0.2961 1.03032 0.74673 0.0
C2075 C 0.29631 0.05153 0.82153 0.0
H2076 H 0.29506 0.99616 0.78218 0.0
C2077 C 0.2961 0.07123 0.801 0.0
C2078 C 0.29605 0.06429 0.77349 0.0
H2079 H 0.29539 0.05795 0.8422 0.0
H2080 H 0.29515 0.09212 0.80673 0.0
C2081 C 0.29674 1.03674 0.76741 0.0
C2082 C 0.28804 0.57946 0.53263 0.0
C2083 C 0.27706 0.55554 0.52234 0.0
H2084 H 0.31462 0.59886 0.56007 0.0
C2085 C 0.28613 0.53142 0.53438 0.0
H2086 H 0.28188 0.59858 0.52441 0.0
C2087 C 0.30516 0.5316 0.55598 0.0
C2088 C 0.31613 0.55588 0.56594 0.0
H2089 H 0.27808 0.51247 0.52759 0.0
H2090 H 0.31159 0.51274 0.56452 0.0
C2091 C 0.30706 0.57962 0.55349 0.0
C2092 C 0.8062 0.26318 1.03572 0.0
C2093 C 0.81729 0.28707 1.02543 0.0
H2094 H 0.77821 0.24392 0.06176 0.0
C2095 C 0.80608 0.31129 1.03524 0.0
H2096 H 0.81376 0.24398 1.02904 0.0
C2097 C 0.78454 0.31126 0.05433 0.0
C2098 C 0.77382 0.287 0.06459 0.0
H2099 H 0.81352 0.33024 1.0278 0.0
H2100 H 0.7767 0.33019 0.0614 0.0
C2101 C 0.78539 0.26315 0.05475 0.0
C2102 C 0.54771 1.01757 0.28719 0.0
C2103 C 0.54699 1.0235 0.31475 0.0
H2104 H 0.54629 1.03262 0.24672 0.0
C2105 C 0.54734 0.05099 0.32184 0.0
H2106 H 0.54684 0.99692 0.28065 0.0
C2107 C 0.54785 0.07166 0.30228 0.0
C2108 C 0.5471 0.06574 0.27471 0.0
H2109 H 0.54635 0.05662 0.34274 0.0
H2110 H 0.54708 0.09232 0.30881 0.0
C2111 C 0.54731 1.03824 0.26763 0.0
C2112 C 0.2614 0.31485 0.35847 0.0
C2113 C 0.23839 0.31251 0.3424 0.0
H2114 H 0.29416 0.29418 0.37694 0.0
C2115 C 0.22661 0.28711 0.33921 0.0
H2116 H 0.27064 0.33423 0.36164 0.0
C2117 C 0.24015 0.26416 0.34783 0.0
C2118 C 0.26558 0.26636 0.3598 0.0
H2119 H 0.20879 0.28464 0.32705 0.0
H2120 H 0.23238 0.24479 0.34189 0.0
C2121 C 0.27483 0.29191 0.36727 0.0
C2122 C 0.51256 0.59868 0.99071 0.0
C2123 C 0.51472 0.57333 0.97869 0.0
H2124 H 0.5331 0.62983 1.01163 0.0
C2125 C 0.54028 0.56404 0.97124 0.0
H2126 H 0.49318 0.60646 0.99663 0.0
C2127 C 0.56328 0.57737 0.98007 0.0
C2128 C 0.56099 0.60027 0.99624 0.0
H2129 H 0.54249 0.54476 0.96155 0.0
H2130 H 0.58267 0.56813 0.97685 0.0
C2131 C 0.53558 0.61209 0.99942 0.0
C2132 C 0.86823 0.30596 0.33932 0.0
C2133 C 0.85738 0.28027 0.34324 0.0
H2134 H 0.86119 0.34812 0.34154 0.0
C2135 C 0.83498 0.27747 0.36005 0.0
H2136 H 0.88555 0.30879 0.32655 0.0
C2137 C 0.82103 0.3001 0.36879 0.0
C2138 C 0.82927 0.32579 0.3607 0.0
H2139 H 0.82646 0.25786 0.36377 0.0
H2140 H 0.80207 0.29739 0.379 0.0
C2141 C 0.85423 0.32861 0.34799 0.0
C2142 C 0.52452 1.00937 0.98084 0.0
C2143 C 0.52779 0.9865 0.99687 0.0
H2144 H 0.54397 1.04259 0.96204 0.0
C2145 C 0.55359 0.97546 0.99969 0.0
H2146 H 0.5048 1.01803 0.97798 0.0
C2147 C 0.57605 0.98964 0.99078 0.0
C2148 C 0.57291 1.01494 0.97887 0.0
H2149 H 0.55676 0.95775 1.01181 0.0
H2150 H 0.59574 0.98245 0.99649 0.0
C2151 C 0.54696 1.02339 0.97169 0.0
C2152 C 0.25931 0.77602 0.22998 0.0
C2153 C 0.23668 0.77887 0.24648 0.0
H2154 H 0.29222 0.796 0.21108 0.0
C2155 C 0.22546 0.8045 0.24977 0.0
H2156 H 0.26806 0.75645 0.22666 0.0
C2157 C 0.23927 0.82713 0.24084 0.0
C2158 C 0.26444 0.82439 0.22851 0.0
H2159 H 0.20794 0.8074 0.26224 0.0
H2160 H 0.23197 0.84667 0.24682 0.0
C2161 C 0.2731 0.79866 0.22101 0.0
C2162 C 0.04837 0.56751 0.11759 0.0
C2163 C 0.07408 0.57628 0.11002 0.0
H2164 H 1.00605 0.57209 0.11175 0.0
C2165 C 0.07663 0.60136 0.09753 0.0
H2166 H 0.04585 0.54844 0.12763 0.0
C2167 C 0.05382 0.61498 0.08858 0.0
C2168 C 1.02824 0.60361 0.09195 0.0
H2169 H 0.09614 0.60873 0.09149 0.0
H2170 H 0.05654 0.63248 0.07606 0.0
C2171 C 1.02558 0.58101 0.10846 0.0
C2172 C 0.86528 0.78552 0.24959 0.0
C2173 C 0.854 0.81108 0.24601 0.0
H2174 H 0.85884 0.74328 0.24708 0.0
C2175 C 0.83132 0.8137 0.22951 0.0
H2176 H 0.88281 0.78283 0.26212 0.0
C2177 C 0.81763 0.79093 0.22067 0.0
C2178 C 0.82635 0.76529 0.22844 0.0
H2179 H 0.82246 0.83321 0.22607 0.0
H2180 H 0.7985 0.79346 0.21067 0.0
C2181 C 0.85151 0.76274 0.24087 0.0
C2182 C 1.0431 1.0207 0.11683 0.0
C2183 C 1.01709 1.01291 0.10919 0.0
H2184 H 0.08521 1.01464 0.11097 0.0
C2185 C 1.01361 0.98801 0.09656 0.0
H2186 H 0.04632 1.0396 0.12699 0.0
C2187 C 1.0359 0.97365 0.08749 0.0
C2188 C 0.06186 0.9841 0.09092 0.0
H2189 H 0.99385 0.98138 0.09046 0.0
H2190 H 1.03253 0.9564 0.07479 0.0
C2191 C 0.06537 1.00643 0.10765 0.0
C2192 C 0.34836 0.23834 0.26141 0.0
C2193 C 0.36099 0.26337 0.26395 0.0
H2194 H 0.32697 0.20723 0.28149 0.0
C2195 C 0.36901 0.27195 0.28953 0.0
H2196 H 0.34196 0.23112 0.24198 0.0
C2197 C 0.36026 0.25827 0.3123 0.0
C2198 C 0.34352 0.23578 0.30972 0.0
H2199 H 0.37917 0.29097 0.29202 0.0
H2200 H 0.36394 0.26703 0.33179 0.0
C2201 C 0.33969 0.22461 0.28418 0.0
C2202 C 0.47309 0.50005 0.05477 0.0
C2203 C 0.48383 0.49586 1.02911 0.0
H2204 H 0.48021 0.49798 0.0969 0.0
C2205 C 0.5061 0.47883 1.02637 0.0
H2206 H 0.45589 0.51302 0.05755 0.0
C2207 C 0.52002 0.47007 0.04902 0.0
C2208 C 0.5119 0.47835 0.07466 0.0
H2209 H 0.51454 0.47492 1.00679 0.0
H2210 H 0.53889 0.45965 0.04635 0.0
C2211 C 0.48706 0.49136 0.07743 0.0
C2212 C 0.72357 0.31779 0.293 0.0
C2213 C 0.73087 0.32632 0.26719 0.0
H2214 H 0.72981 0.32288 0.3351 0.0
C2215 C 0.74311 0.35149 0.26423 0.0
H2216 H 0.7137 0.29866 0.29582 0.0
C2217 C 0.75221 0.36542 0.28674 0.0
C2218 C 0.7492 0.35429 0.3124 0.0
H2219 H 0.74894 0.35869 0.24464 0.0
H2220 H 0.76462 0.38296 0.28369 0.0
C2221 C 0.73283 0.33161 0.31549 0.0
C2222 C 0.61339 0.09115 0.05376 0.0
C2223 C 0.60142 0.09404 1.02842 0.0
H2224 H 0.60781 0.09388 0.09605 0.0
C2225 C 0.57818 0.1098 1.02612 0.0
H2226 H 0.6314 0.07928 0.05626 0.0
C2227 C 0.56469 0.11838 0.04906 0.0
C2228 C 0.57419 0.11111 0.07455 0.0
H2229 H 0.56883 0.11283 1.00677 0.0
H2230 H 0.54519 0.12769 0.04685 0.0
C2231 C 0.59984 0.09964 0.07671 0.0
C2232 C 0.36006 0.83221 0.2749 0.0
C2233 C 0.34323 0.85461 0.27762 0.0
H2234 H 0.37931 0.79958 0.29498 0.0
C2235 C 0.33946 0.86567 0.30321 0.0
H2236 H 0.36365 0.82354 0.25535 0.0
C2237 C 0.34832 0.85189 0.32591 0.0
C2238 C 0.36108 0.82694 0.32323 0.0
H2239 H 0.32667 0.88298 0.30597 0.0
H2240 H 0.34195 0.859 0.34537 0.0
C2241 C 0.36905 0.81853 0.29759 0.0
C2242 C 0.10197 0.49151 1.01326 0.0
C2243 C 0.07668 0.47933 1.0157 0.0
H2244 H 0.13325 0.51271 1.0334 0.0
C2245 C 0.06771 0.47185 1.0413 0.0
H2246 H 0.10951 0.49746 0.99383 0.0
C2247 C 0.08126 0.48081 0.0641 0.0
C2248 C 0.10405 0.49716 0.06153 0.0
H2249 H 0.04849 0.46203 1.04373 0.0
H2250 H 0.07221 0.47762 0.08353 0.0
C2251 C 0.1156 0.50035 1.03607 0.0
C2252 C 0.72199 0.77221 0.29742 0.0
C2253 C 0.72963 0.76355 0.3231 0.0
H2254 H 0.72754 0.76727 0.25522 0.0
C2255 C 0.74197 0.73839 0.32578 0.0
H2256 H 0.71205 0.79134 0.29482 0.0
C2257 C 0.75076 0.72457 0.3031 0.0
C2258 C 0.74734 0.73579 0.27752 0.0
H2259 H 0.74807 0.73109 0.34527 0.0
H2260 H 0.76326 0.70705 0.30592 0.0
C2261 C 0.73088 0.75847 0.27475 0.0
C2262 C 1.02599 0.11821 1.041 0.0
C2263 C 1.01661 0.11127 1.01536 0.0
H2264 H 1.02189 0.11181 0.08317 0.0
C2265 C 0.99103 0.09969 1.01297 0.0
H2266 H 1.04543 0.1276 1.04339 0.0
C2267 C 0.97748 0.09078 1.03576 0.0
C2268 C 0.9894 0.09331 0.06116 0.0
H2269 H 0.98314 0.09419 0.99353 0.0
H2270 H 0.95952 0.07888 1.03306 0.0
C2271 C 1.01256 0.1091 0.06377 0.0
C2272 C 0.28627 0.33937 0.22393 0.0
C2273 C 0.31213 0.34266 0.23469 0.0
H2274 H 0.24414 0.34255 0.2311 0.0
C2275 C 0.31544 0.35932 0.25711 0.0
H2276 H 0.28306 0.32673 0.20661 0.0
C2277 C 0.29303 0.3686 0.27109 0.0
C2278 C 0.26708 0.36113 0.26294 0.0
H2279 H 0.3352 0.36254 0.26556 0.0
H2280 H 0.29606 0.37869 0.29004 0.0
C2281 C 0.26385 0.34854 0.23799 0.0
C2282 C 0.26425 0.74096 0.35004 0.0
C2283 C 0.26679 0.72903 0.32471 0.0
H2284 H 0.28419 0.76218 0.38135 0.0
C2285 C 0.29254 0.72188 0.31569 0.0
H2286 H 0.24473 0.74661 0.35768 0.0
C2287 C 0.31529 0.73112 0.32916 0.0
C2288 C 0.31254 0.74728 0.352 0.0
H2289 H 0.29506 0.71217 0.29647 0.0
H2290 H 0.3348 0.72822 0.32009 0.0
C2291 C 0.28701 0.75001 0.36363 0.0
C2292 C 0.99212 0.57707 0.98787 0.0
C2293 C 0.97941 0.57422 1.01279 0.0
H2294 H 1.01411 0.55745 0.9569 0.0
C2295 C 0.97184 0.54844 1.02124 0.0
H2296 H 0.99815 0.59664 0.98074 0.0
C2297 C 0.9812 0.52587 1.00764 0.0
C2298 C 0.99805 0.52883 0.98532 0.0
H2299 H 0.96162 0.54571 1.04017 0.0
H2300 H 0.97788 0.50627 1.01633 0.0
C2301 C 1.00138 0.55448 0.97419 0.0
C2302 C 0.80467 0.83896 0.36374 0.0
C2303 C 0.77896 0.84238 0.35267 0.0
H2304 H 0.84691 0.84178 0.35704 0.0
C2305 C 0.77605 0.85891 0.33009 0.0
H2306 H 0.80759 0.82642 0.38119 0.0
C2307 C 0.79869 0.86788 0.31628 0.0
C2308 C 0.82448 0.86029 0.3248 0.0
H2309 H 0.75642 0.86225 0.3214 0.0
H2310 H 0.79595 0.87785 0.29721 0.0
C2311 C 0.82732 0.84786 0.34987 0.0
C2312 C 0.61048 0.56106 0.50501 0.0
C2313 C 0.59312 0.55868 0.48296 0.0
H2314 H 0.62972 0.54065 0.53744 0.0
C2315 C 0.58842 0.5331 0.47216 0.0
H2316 H 0.6148 0.58057 0.51347 0.0
C2317 C 0.59697 0.51023 0.48588 0.0
C2318 C 0.61033 0.51272 0.51053 0.0
H2319 H 0.5752 0.53058 0.45513 0.0
H2320 H 0.59 0.49087 0.47902 0.0
C2321 C 0.61907 0.53821 0.51869 0.0
C2322 C 0.30437 0.74967 0.72725 0.0
C2323 C 0.27884 0.74649 0.73877 0.0
H2324 H 0.34668 0.74692 0.73333 0.0
C2325 C 0.27629 0.73029 0.76161 0.0
H2326 H 0.30703 0.7619 0.70954 0.0
C2327 C 0.29915 0.72144 0.77518 0.0
C2328 C 0.32481 0.72894 0.76622 0.0
H2329 H 0.2568 0.72707 0.77062 0.0
H2330 H 0.29672 0.71167 0.79438 0.0
C2331 C 0.32723 0.74097 0.74091 0.0
C2332 C 0.98074 0.56357 0.58119 0.0
C2333 C 0.99736 0.5609 0.60376 0.0
H2334 H 0.96192 0.54343 0.54837 0.0
C2335 C 1.00114 0.53528 0.61483 0.0
H2336 H 0.9771 0.58312 0.57252 0.0
C2337 C 0.99254 0.51254 0.60094 0.0
C2338 C 0.98001 0.51519 0.57588 0.0
H2339 H 1.01373 0.53254 0.6323 0.0
H2340 H 0.9989 0.49307 0.60811 0.0
C2341 C 0.97201 0.54084 0.5674 0.0
C2342 C 0.11795 0.04644 0.56814 0.0
C2343 C 0.1104 0.07226 0.57645 0.0
H2344 H 0.11225 1.00429 0.57364 0.0
C2345 C 0.09813 0.0753 0.60157 0.0
H2346 H 0.12786 1.04355 0.54907 0.0
C2347 C 0.0893 0.05282 0.6157 0.0
C2348 C 0.09261 1.02707 0.60482 0.0
H2349 H 0.09211 0.09491 0.60862 0.0
H2350 H 0.07686 0.05589 0.63319 0.0
C2351 C 0.10901 1.02396 0.58219 0.0
C2352 C 0.74293 0.76192 0.84757 0.0
C2353 C 0.76856 0.76385 0.85916 0.0
H2354 H 0.71143 0.78275 0.82738 0.0
C2355 C 0.77816 0.78927 0.8666 0.0
H2356 H 0.7349 0.74265 0.84167 0.0
C2357 C 0.76478 0.81237 0.85816 0.0
C2358 C 0.7415 0.81032 0.84242 0.0
H2359 H 0.79765 0.79131 0.87598 0.0
H2360 H 0.77422 0.83166 0.86131 0.0
C2361 C 0.72946 0.78504 0.83928 0.0
C2362 C 1.03593 0.11255 0.49989 0.0
C2363 C 0.06151 0.10105 0.49701 0.0
H2364 H 0.99365 0.10633 0.49686 0.0
C2365 C 0.06425 0.07808 0.48101 0.0
H2366 H 1.03311 0.13034 0.51197 0.0
C2367 C 1.0415 0.06432 0.47218 0.0
C2368 C 1.01577 0.07332 0.47939 0.0
H2369 H 0.0838 0.06908 0.47802 0.0
H2370 H 1.04406 0.04499 0.46267 0.0
C2371 C 1.01318 0.09875 0.49113 0.0
C2372 C 0.31826 0.79818 0.87019 0.0
C2373 C 0.32698 0.82392 0.86278 0.0
H2374 H 0.32322 0.756 0.86433 0.0
C2375 C 0.3523 0.82668 0.85077 0.0
H2376 H 0.29907 0.79552 0.87997 0.0
C2377 C 0.36612 0.80407 0.84182 0.0
C2378 C 0.35476 0.77847 0.8448 0.0
H2379 H 0.35971 0.84621 0.84493 0.0
H2380 H 0.38374 0.80704 0.82952 0.0
C2381 C 0.33205 0.77556 0.86118 0.0
C2382 C 0.04826 0.52342 0.47123 0.0
C2383 C 0.07413 0.51505 0.47874 0.0
H2384 H 1.00604 0.51795 0.47697 0.0
C2385 C 0.07719 0.48985 0.49089 0.0
H2386 H 1.04536 0.54255 0.46143 0.0
C2387 C 0.05467 0.47571 0.49968 0.0
C2388 C 1.02888 0.48666 0.49647 0.0
H2389 H 0.09684 0.48277 0.49687 0.0
H2390 H 0.05777 0.45816 0.51205 0.0
C2391 C 1.02575 0.50936 0.48016 0.0
C2392 C 0.76011 0.27295 0.72846 0.0
C2393 C 0.73731 0.27608 0.74467 0.0
H2394 H 0.79324 0.2926 0.70963 0.0
C2395 C 0.72604 0.30175 0.74738 0.0
H2396 H 0.76889 0.25332 0.72556 0.0
C2397 C 0.74 0.32423 0.73833 0.0
C2398 C 0.76535 0.32128 0.72643 0.0
H2399 H 0.70837 0.30487 0.75958 0.0
H2400 H 0.73263 0.34384 0.74397 0.0
C2401 C 0.77401 0.29544 0.7193 0.0
C2402 C 0.57569 0.09983 0.5971 0.0
C2403 C 0.57295 0.07467 0.60939 0.0
H2404 H 0.55588 0.13123 0.57578 0.0
C2405 C 0.54715 0.06599 0.61677 0.0
H2406 H 0.59527 0.10715 0.59121 0.0
C2407 C 0.52448 0.0797 0.60765 0.0
C2408 C 0.52734 0.10241 0.59132 0.0
H2409 H 0.54448 0.04688 0.62668 0.0
H2410 H 0.50488 0.07087 0.61079 0.0
C2411 C 0.553 0.11366 0.58815 0.0
C2412 C 0.36417 0.2851 0.7482 0.0
C2413 C 0.35266 0.31058 0.74471 0.0
H2414 H 0.358 0.24283 0.74591 0.0
C2415 C 0.32974 0.313 0.7285 0.0
H2416 H 0.38189 0.28255 0.7605 0.0
C2417 C 0.31608 0.29011 0.71995 0.0
C2418 C 0.32508 0.26456 0.72768 0.0
H2419 H 0.32071 0.33244 0.72511 0.0
H2420 H 0.2968 0.29247 0.71021 0.0
C2421 C 0.35044 0.26221 0.73975 0.0
C2422 C 0.56625 0.50694 0.60722 0.0
C2423 C 0.56253 0.4845 0.59069 0.0
H2424 H 0.54745 0.54018 0.62665 0.0
C2425 C 0.53653 0.47404 0.58763 0.0
H2426 H 0.58614 0.51516 0.61025 0.0
C2427 C 0.51436 0.48846 0.59686 0.0
C2428 C 0.51799 0.51343 0.60932 0.0
H2429 H 0.53303 0.4567 0.57508 0.0
H2430 H 0.49453 0.4818 0.59101 0.0
C2431 C 0.54409 0.52124 0.61663 0.0
C2432 C 0.86253 0.75487 0.81054 0.0
C2433 C 0.84549 0.7326 0.80796 0.0
H2434 H 0.88137 0.78767 0.7904 0.0
C2435 C 0.84111 0.7218 0.78234 0.0
H2436 H 0.86661 0.76332 0.83009 0.0
C2437 C 0.84953 0.73576 0.7596 0.0
C2438 C 0.86245 0.76063 0.76227 0.0
H2439 H 0.82816 0.70459 0.77966 0.0
H2440 H 0.84274 0.72887 0.7402 0.0
C2441 C 0.871 0.76878 0.78782 0.0
C2442 C 1.02148 0.97023 0.5504 0.0
C2443 C 1.01304 0.97843 0.57596 0.0
H2444 H 1.01642 0.97508 0.50812 0.0
C2445 C 0.9881 0.99129 0.57848 0.0
H2446 H 1.04045 0.95994 0.54793 0.0
C2447 C 0.97431 0.99992 0.55568 0.0
C2448 C 0.98534 0.99581 0.53012 0.0
H2449 H 0.98101 0.99785 0.59788 0.0
H2450 H 0.957 1.01277 0.55831 0.0
C2451 C 1.00776 0.97894 0.52761 0.0
C2452 C 0.25151 0.86436 0.78713 0.0
C2453 C 0.24827 0.85329 0.8128 0.0
H2454 H 0.24825 0.8577 0.74504 0.0
C2455 C 0.23152 0.83088 0.81584 0.0
H2456 H 0.26417 0.88172 0.7841 0.0
C2457 C 0.22213 0.81718 0.79332 0.0
C2458 C 0.22964 0.82559 0.76754 0.0
H2459 H 0.22823 0.82225 0.83545 0.0
H2460 H 0.21197 0.79821 0.79613 0.0
C2461 C 0.24226 0.85057 0.76462 0.0
C2462 C 0.07984 0.61023 0.52601 0.0
C2463 C 0.1027 0.59399 0.52856 0.0
H2464 H 0.04709 0.62891 0.54641 0.0
C2465 C 0.11434 0.5908 0.55401 0.0
H2466 H 0.07075 0.61344 0.50658 0.0
C2467 C 0.10073 0.59955 0.57683 0.0
C2468 C 0.07539 0.61161 0.57442 0.0
H2469 H 0.13207 0.57854 0.55666 0.0
H2470 H 0.10835 0.59357 0.59624 0.0
C2471 C 0.06635 0.61915 0.54883 0.0
C2472 C 0.8606 0.32844 0.77374 0.0
C2473 C 0.84401 0.35105 0.77618 0.0
H2474 H 0.87981 0.29608 0.79429 0.0
C2475 C 0.84068 0.36269 0.80159 0.0
H2476 H 0.86395 0.31936 0.75434 0.0
C2477 C 0.84967 0.34931 0.82447 0.0
C2478 C 0.86212 0.32417 0.82217 0.0
H2479 H 0.82815 0.38021 0.80418 0.0
H2480 H 0.84359 0.35689 0.84384 0.0
C2481 C 0.86976 0.31517 0.79661 0.0
C2482 C 0.60037 0.99047 0.51233 0.0
C2483 C 0.57505 0.97837 0.51475 0.0
H2484 H 0.6318 1.01139 0.53252 0.0
C2485 C 0.5661 0.97075 0.54032 0.0
H2486 H 0.60788 0.99654 0.49293 0.0
C2487 C 0.5798 0.97942 0.56314 0.0
C2488 C 0.60266 0.99567 0.56063 0.0
H2489 H 0.54684 0.961 0.54272 0.0
H2490 H 0.57081 0.9761 0.58258 0.0
C2491 C 0.61413 0.99905 0.53515 0.0
C2492 C 0.24155 0.23714 0.82584 0.0
C2493 C 0.22902 0.26221 0.82316 0.0
H2494 H 0.26299 0.20592 0.80598 0.0
C2495 C 0.22116 0.27073 0.7975 0.0
H2496 H 0.24781 0.22995 0.84532 0.0
C2497 C 0.23006 0.25699 0.77482 0.0
C2498 C 0.24674 0.23448 0.77757 0.0
H2499 H 0.21107 0.28977 0.79489 0.0
H2500 H 0.22654 0.26572 0.75528 0.0
C2501 C 0.25034 0.22333 0.80316 0.0
C2502 C 0.52695 0.61783 0.54024 0.0
C2503 C 0.51709 0.6109 0.51478 0.0
H2504 H 0.52332 0.61182 0.58251 0.0
C2505 C 0.49132 0.59969 0.51283 0.0
H2506 H 0.54656 0.62695 0.5423 0.0
C2507 C 0.47796 0.59112 0.53586 0.0
C2508 C 0.49026 0.59363 0.56108 0.0
H2509 H 0.48306 0.59421 0.49354 0.0
H2510 H 0.45979 0.57947 0.53347 0.0
C2511 C 0.51369 0.60911 0.56326 0.0
C2512 C 0.79562 0.86675 0.77118 0.0
C2513 C 0.76951 0.85963 0.76319 0.0
H2514 H 0.83766 0.86015 0.76531 0.0
C2515 C 0.76594 0.84731 0.73816 0.0
H2516 H 0.79892 0.87665 0.79019 0.0
C2517 C 0.78813 0.83799 0.72385 0.0
C2518 C 0.8141 0.84084 0.73446 0.0
H2519 H 0.7461 0.84162 0.73137 0.0
H2520 H 0.78462 0.82555 0.70644 0.0
C2521 C 0.8178 0.85726 0.75698 0.0
C2522 C 0.78669 0.24928 0.86316 0.0
C2523 C 0.81234 0.24585 0.85197 0.0
H2524 H 0.74445 0.24654 0.85668 0.0
C2525 C 0.81509 0.22926 0.82943 0.0
H2526 H 0.78387 0.26181 0.88063 0.0
C2527 C 0.79236 0.22026 0.81575 0.0
C2528 C 0.76662 0.22797 0.82432 0.0
H2529 H 0.83467 0.22583 0.8207 0.0
H2530 H 0.79497 0.21017 0.79675 0.0
C2531 C 0.76396 0.24042 0.8494 0.0
C2532 C 0.47975 1.02536 0.5066 0.0
C2533 C 0.49666 1.02817 0.4843 0.0
H2534 H 0.46035 0.04535 0.53914 0.0
C2535 C 0.50037 0.05381 0.47328 0.0
H2536 H 0.47619 1.00578 0.51523 0.0
C2537 C 0.49137 0.07648 0.48701 0.0
C2538 C 0.47854 0.07372 0.51187 0.0
H2539 H 0.51321 0.05664 0.45604 0.0
H2540 H 0.49768 0.09599 0.47996 0.0
C2541 C 0.47063 0.04801 0.52024 0.0
C2542 C 0.32672 0.34729 0.84873 0.0
C2543 C 0.32358 0.35966 0.82366 0.0
H2544 H 0.30745 0.32572 0.88022 0.0
C2545 C 0.29765 0.36702 0.81533 0.0
H2546 H 0.34641 0.34142 0.85577 0.0
C2547 C 0.2752 0.35781 0.8293 0.0
C2548 C 0.27845 0.34133 0.85186 0.0
H2549 H 0.29469 0.37697 0.7963 0.0
H2550 H 0.25548 0.36097 0.82075 0.0
C2551 C 0.30427 0.33819 0.86277 0.0
C2552 C 0.11043 0.06193 1.00714 0.0
C2553 C 0.0936 0.0598 0.98467 0.0
H2554 H 0.12923 1.04109 1.03956 0.0
C2555 C 0.08938 1.03438 0.9733 0.0
H2556 H 0.11439 0.08131 1.01605 0.0
C2557 C 0.09782 1.01133 0.9868 0.0
C2558 C 0.11061 1.01347 1.01178 0.0
H2559 H 0.07661 1.03204 0.95591 0.0
H2560 H 0.09117 0.99205 0.97943 0.0
C2561 C 0.11896 1.0389 1.02056 0.0
C2562 C 0.82916 0.24217 0.24011 0.0
C2563 C 0.82688 0.2301 0.26541 0.0
H2564 H 0.80876 0.26311 0.20887 0.0
C2565 C 0.80128 0.22259 0.27453 0.0
H2566 H 0.84858 0.24813 0.23246 0.0
C2567 C 0.77834 0.23141 0.26108 0.0
C2568 C 0.78074 0.24763 0.23823 0.0
H2569 H 0.79898 0.21285 0.29376 0.0
H2570 H 0.75891 0.22816 0.27019 0.0
C2571 C 0.80621 0.25086 0.22658 0.0
C2572 C 0.5022 1.03345 0.11595 0.0
C2573 C 0.49756 0.05916 0.10544 0.0
H2574 H 0.50045 0.9913 0.10861 0.0
C2575 C 0.48015 0.06187 0.08348 0.0
H2576 H 0.51547 1.03069 0.1329 0.0
C2577 C 0.47137 1.03921 0.06961 0.0
C2578 C 0.48005 1.01358 0.07745 0.0
H2579 H 0.47592 0.08149 0.07523 0.0
H2580 H 0.46065 1.0419 0.05094 0.0
C2581 C 0.49351 1.01076 0.10201 0.0
C2582 C 0.60862 0.52271 0.08033 0.0
C2583 C 0.59237 0.52593 0.10305 0.0
H2584 H 0.62766 0.54221 0.04729 0.0
C2585 C 0.58956 0.55166 0.11414 0.0
H2586 H 0.6115 0.50304 0.07164 0.0
C2587 C 0.59868 0.5741 0.10013 0.0
C2588 C 0.61077 0.57103 0.07492 0.0
H2589 H 0.57726 0.55481 0.13171 0.0
H2590 H 0.59298 0.59374 0.10733 0.0
C2591 C 0.61791 0.54514 0.06643 0.0
C2592 C 0.14936 0.451 0.20468 0.0
C2593 C 0.15927 0.45429 0.23084 0.0
H2594 H 0.15082 0.46393 0.16364 0.0
C2595 C 0.17771 0.4753 0.23537 0.0
H2596 H 0.13526 0.43509 0.20029 0.0
C2597 C 0.18654 0.49194 0.21446 0.0
C2598 C 0.17745 0.48809 0.18812 0.0
H2599 H 0.1858 0.47871 0.2552 0.0
H2600 H 0.2011 0.50742 0.21887 0.0
C2601 C 0.15841 0.46757 0.18362 0.0
C2602 C 0.71481 0.68077 0.15694 0.0
C2603 C 0.7358 0.66227 0.15231 0.0
H2604 H 0.68184 0.70339 0.14031 0.0
C2605 C 0.73999 0.65367 0.12588 0.0
H2606 H 0.7109 0.68796 0.177 0.0
C2607 C 0.72327 0.66242 0.10498 0.0
C2608 C 0.7018 0.68029 0.10959 0.0
H2609 H 0.75585 0.63957 0.12135 0.0
H2610 H 0.727 0.65471 0.08508 0.0
C2611 C 0.69812 0.68975 0.13586 0.0
C2612 C 0.93674 0.12301 0.18392 0.0
C2613 C 0.9165 0.10358 0.18797 0.0
H2614 H 0.96063 0.15479 0.2009 0.0
C2615 C 0.90589 0.10098 0.21386 0.0
H2616 H 0.9455 0.12568 0.16429 0.0
C2617 C 0.91451 0.11776 0.23477 0.0
C2618 C 0.93421 0.1377 0.23065 0.0
H2619 H 0.89037 0.08636 0.21791 0.0
H2620 H 0.9053 0.11531 0.25423 0.0
C2621 C 0.94553 0.13976 0.20497 0.0
C2622 C 0.35003 0.93527 0.12447 0.0
C2623 C 0.35319 0.92613 0.15087 0.0
H2624 H 0.36428 0.93456 0.08408 0.0
C2625 C 0.37354 0.90699 0.15583 0.0
H2626 H 0.33472 0.9499 0.1197 0.0
C2627 C 0.3906 0.89788 0.13514 0.0
C2628 C 0.38801 0.90786 0.10894 0.0
H2629 H 0.37667 0.89937 0.17588 0.0
H2630 H 0.40635 0.88371 0.13988 0.0
C2631 C 0.36717 0.92642 0.10396 0.0
C2632 C 0.15526 0.62356 0.40528 0.0
C2633 C 0.17527 0.60388 0.40122 0.0
H2634 H 0.13157 0.65549 0.38827 0.0
C2635 C 0.18564 0.601 0.37526 0.0
H2636 H 0.14669 0.62646 0.42497 0.0
C2637 C 0.17701 0.61771 0.3543 0.0
C2638 C 0.15755 0.63789 0.35842 0.0
H2639 H 0.20097 0.58618 0.37119 0.0
H2640 H 0.18604 0.61503 0.33479 0.0
C2641 C 0.14647 0.64025 0.38419 0.0
C2642 C 0.86567 0.66251 0.98422 0.0
C2643 C 0.88647 0.68115 0.97956 0.0
H2644 H 0.83369 0.63877 0.96788 0.0
C2645 C 0.88951 0.69108 0.9534 0.0
H2646 H 0.86247 0.65442 1.00407 0.0
C2647 C 0.87291 0.68184 0.93244 0.0
C2648 C 0.85262 0.66259 0.93706 0.0
H2649 H 0.90525 0.70533 0.94894 0.0
H2650 H 0.87635 0.68943 0.91244 0.0
C2651 C 0.84899 0.65349 0.9634 0.0
C2652 C 0.93251 0.96751 0.40501 0.0
C2653 C 0.91348 0.98805 0.40047 0.0
H2654 H 0.95569 0.93502 0.38842 0.0
C2655 C 0.90442 0.99188 0.37412 0.0
H2656 H 0.94006 0.96386 0.425 0.0
C2657 C 0.91329 0.9752 0.35322 0.0
C2658 C 0.93174 0.95418 0.3578 0.0
H2659 H 0.88986 1.00735 0.36968 0.0
H2660 H 0.90524 0.97859 0.33338 0.0
C2661 C 0.9416 0.95091 0.38398 0.0
C2662 C 0.21607 0.90558 0.93052 0.0
C2663 C 0.23606 0.92514 0.93514 0.0
H2664 H 0.18387 0.88185 0.94703 0.0
C2665 C 0.23926 0.93461 0.96142 0.0
H2666 H 0.21294 0.89772 0.91057 0.0
C2667 C 0.22257 0.9256 0.98217 0.0
C2668 C 0.20209 0.90662 0.97757 0.0
H2669 H 0.25435 0.94953 0.96595 0.0
H2670 H 0.22555 0.93396 1.00195 0.0
C2671 C 0.19938 0.89637 0.95146 0.0
C2672 C 0.21345 0.18416 0.489 0.0
C2673 C 0.18726 0.17418 0.48618 0.0
H2674 H 0.25379 0.1846 0.47441 0.0
C2675 C 0.18264 0.15488 0.46597 0.0
H2676 H 0.21795 0.19895 0.5042 0.0
C2677 C 0.20344 0.14639 0.44872 0.0
C2678 C 0.22942 0.15713 0.45105 0.0
H2679 H 0.16276 0.14664 0.4631 0.0
H2680 H 0.19895 0.13203 0.43312 0.0
C2681 C 0.23408 0.17587 0.47173 0.0
C2682 C 0.40625 0.65719 0.87272 0.0
C2683 C 0.42619 0.65299 0.85305 0.0
H2684 H 0.38236 0.64024 0.90449 0.0
C2685 C 0.43629 0.6269 0.85005 0.0
H2686 H 0.3979 0.67699 0.87571 0.0
C2687 C 0.42745 0.60594 0.86663 0.0
C2688 C 0.40803 0.61016 0.88677 0.0
H2689 H 0.45156 0.62271 0.83523 0.0
H2690 H 0.43627 0.58632 0.86383 0.0
C2691 C 0.39723 0.63608 0.88928 0.0
C2692 C 0.87615 0.40493 0.49057 0.0
C2693 C 0.90245 0.41441 0.48721 0.0
H2694 H 0.83543 0.40556 0.47692 0.0
C2695 C 0.90693 0.43401 0.46728 0.0
H2696 H 0.87177 0.38994 0.50561 0.0
C2697 C 0.88589 0.44322 0.45073 0.0
C2698 C 0.85979 0.43292 0.45349 0.0
H2699 H 0.9269 0.4419 0.46404 0.0
H2700 H 0.89027 0.45773 0.43525 0.0
C2701 C 0.85524 0.41394 0.47396 0.0
C2702 C 0.6866 0.93502 0.87403 0.0
C2703 C 0.66686 0.93884 0.85402 0.0
H2704 H 0.70943 0.95232 0.90641 0.0
C2705 C 0.65611 0.96467 0.85101 0.0
H2706 H 0.69544 0.91544 0.87703 0.0
C2707 C 0.66408 0.9857 0.86793 0.0
C2708 C 0.68323 0.98181 0.88844 0.0
H2709 H 0.64097 0.96855 0.83594 0.0
H2710 H 0.65477 1.0051 0.86513 0.0
C2711 C 0.69473 0.95621 0.89093 0.0
C2712 C 0.18209 0.93115 0.12167 0.0
C2713 C 0.18697 0.91219 0.10122 0.0
H2714 H 0.19833 0.95441 0.15428 0.0
C2715 C 0.21347 0.90332 0.09767 0.0
H2716 H 0.16196 0.93855 0.12508 0.0
C2717 C 0.2342 0.9123 0.1145 0.0
C2718 C 0.22931 0.93068 0.13542 0.0
H2719 H 0.21818 0.88883 0.08225 0.0
H2720 H 0.25417 0.9044 0.11129 0.0
C2721 C 0.20298 0.94037 0.13845 0.0
C2722 C 0.15514 0.62868 0.23882 0.0
C2723 C 0.16441 0.655 0.23517 0.0
H2724 H 0.15575 0.58795 0.22557 0.0
C2725 C 0.18356 0.65947 0.21478 0.0
H2726 H 0.14053 0.62424 0.25421 0.0
C2727 C 0.19257 0.63836 0.19817 0.0
C2728 C 0.18252 0.6122 0.20136 0.0
H2729 H 0.19125 0.67944 0.21128 0.0
H2730 H 0.20677 0.64269 0.18238 0.0
C2731 C 0.16394 0.60775 0.22221 0.0
C2732 C 0.90623 0.65724 0.12267 0.0
C2733 C 0.90136 0.67623 0.10224 0.0
H2734 H 0.88997 0.6339 0.15517 0.0
C2735 C 0.87484 0.68499 0.09849 0.0
H2736 H 0.92636 0.64991 0.12621 0.0
C2737 C 0.85409 0.6759 0.11519 0.0
C2738 C 0.85899 0.65754 0.13613 0.0
H2739 H 0.87017 0.69949 0.08306 0.0
H2740 H 0.8341 0.68373 0.11189 0.0
C2741 C 0.88533 0.64793 0.13931 0.0
C2742 C 0.92675 0.98585 0.22196 0.0
C2743 C 0.90869 0.98129 0.20064 0.0
H2744 H 0.94982 0.96938 0.2543 0.0
C2745 C 0.89911 0.95503 0.19699 0.0
H2746 H 0.93456 1.00574 0.22566 0.0
C2747 C 0.90817 0.9339 0.21354 0.0
C2748 C 0.92686 0.93847 0.23437 0.0
H2749 H 0.88534 0.95063 0.18082 0.0
H2750 H 0.9009 0.91385 0.20964 0.0
C2751 C 0.93557 0.96489 0.23856 0.0
C2752 C 0.4905 0.2133 0.18513 0.0
C2753 C 0.48662 0.18678 0.17656 0.0
H2754 H 0.47734 0.25407 0.1836 0.0
C2755 C 0.46605 0.18195 0.15765 0.0
H2756 H 0.50603 0.21798 0.19956 0.0
C2757 C 0.44948 0.20291 0.14819 0.0
C2758 C 0.45284 0.22927 0.15757 0.0
H2759 H 0.46239 0.16182 0.15047 0.0
H2760 H 0.43353 0.1983 0.13421 0.0
C2761 C 0.47388 0.23409 0.17591 0.0
C2762 C 0.48959 0.8762 0.40416 0.0
C2763 C 0.48564 0.90277 0.41252 0.0
H2764 H 0.47639 0.83546 0.40574 0.0
C2765 C 0.46488 0.90771 0.43118 0.0
H2766 H 0.50526 0.87142 0.38995 0.0
C2767 C 0.44819 0.88681 0.44055 0.0
C2768 C 0.45162 0.8604 0.43133 0.0
H2769 H 0.46115 0.92788 0.4382 0.0
H2770 H 0.43208 0.8915 0.45429 0.0
C2771 C 0.47286 0.85548 0.4133 0.0
C2772 C 0.15805 0.37389 0.90599 0.0
C2773 C 0.15366 0.35332 0.92495 0.0
H2774 H 0.14108 0.40631 0.88292 0.0
C2775 C 0.12727 0.34932 0.93397 0.0
H2776 H 0.17806 0.37765 0.89848 0.0
C2777 C 0.1062 0.36579 0.92512 0.0
C2778 C 0.11058 0.38683 0.90675 0.0
H2779 H 0.12291 0.33378 0.94844 0.0
H2780 H 0.08635 0.3622 0.93314 0.0
C2781 C 0.1368 0.39035 0.89694 0.0
C2782 C 0.61628 0.73369 0.41219 0.0
C2783 C 0.6375 0.72886 0.4303 0.0
H2784 H 0.58385 0.7176 0.38894 0.0
C2785 C 0.64093 0.70252 0.43971 0.0
H2786 H 0.61276 0.75366 0.40449 0.0
C2787 C 0.62422 0.68157 0.4305 0.0
C2788 C 0.60346 0.68641 0.4118 0.0
H2789 H 0.65702 0.69791 0.45354 0.0
H2790 H 0.62793 0.66145 0.43769 0.0
C2791 C 0.59952 0.71291 0.4032 0.0
C2792 C 0.46405 0.74017 0.43545 0.0
C2793 C 0.43808 0.73805 0.42474 0.0
H2794 H 0.50424 0.72509 0.43622 0.0
C2795 C 0.43371 0.71867 0.40455 0.0
H2796 H 0.46833 0.75472 0.45094 0.0
C2797 C 0.45451 0.70153 0.39589 0.0
C2798 C 0.48027 0.70313 0.40728 0.0
H2799 H 0.41401 0.71636 0.39572 0.0
H2800 H 0.4502 0.68657 0.3808 0.0
C2801 C 0.48471 0.72299 0.42695 0.0
C2802 C 0.11711 0.85437 0.67693 0.0
C2803 C 0.13844 0.85929 0.65899 0.0
H2804 H 0.08445 0.87031 0.69994 0.0
C2805 C 0.14176 0.88564 0.64959 0.0
H2806 H 0.11365 0.83439 0.68461 0.0
C2807 C 0.12487 0.90651 0.65867 0.0
C2808 C 0.10402 0.90159 0.67723 0.0
H2809 H 0.15791 0.89033 0.63591 0.0
H2810 H 0.12852 0.92665 0.65152 0.0
C2811 C 0.10018 0.87507 0.68578 0.0
C2812 C 0.10538 0.72237 0.66298 0.0
C2813 C 0.10962 0.70234 0.68252 0.0
H2814 H 0.12206 0.75412 0.63924 0.0
C2815 C 0.13532 0.70046 0.69399 0.0
H2816 H 0.0859 0.72469 0.65367 0.0
C2817 C 0.15628 0.71749 0.68548 0.0
C2818 C 0.15212 0.73703 0.6654 0.0
H2819 H 0.13948 0.68536 0.70899 0.0
H2820 H 0.17595 0.71496 0.69434 0.0
C2821 C 0.1262 0.73943 0.65464 0.0
C2822 C 0.96433 0.84868 0.65331 0.0
C2823 C 0.93769 0.85256 0.6616 0.0
H2824 H 1.00518 0.86174 0.65534 0.0
C2825 C 0.93271 0.87301 0.68055 0.0
H2826 H 0.96913 0.83324 0.63887 0.0
C2827 C 0.95364 0.88946 0.69031 0.0
C2828 C 0.98013 0.88611 0.6812 0.0
H2829 H 0.91248 0.87668 0.68753 0.0
H2830 H 0.94891 0.90532 0.7043 0.0
C2831 C 0.9851 0.86519 0.66283 0.0
C2832 C 0.65785 0.96561 0.68413 0.0
C2833 C 0.67672 0.98637 0.68836 0.0
H2834 H 0.63543 0.93277 0.70109 0.0
C2835 C 0.68624 0.99023 0.71454 0.0
H2836 H 0.64996 0.96193 0.66428 0.0
C2837 C 0.67799 0.97339 0.73555 0.0
C2838 C 0.65973 0.95215 0.73129 0.0
H2839 H 0.70068 1.00587 0.71875 0.0
H2840 H 0.68639 0.97684 0.75524 0.0
C2841 C 0.6494 0.94883 0.70529 0.0
C2842 C 0.21564 0.18058 0.65689 0.0
C2843 C 0.23629 0.16173 0.65224 0.0
H2844 H 0.18295 0.2036 0.64033 0.0
C2845 C 0.2402 0.15287 0.62586 0.0
H2846 H 0.21197 0.18797 0.67692 0.0
C2847 C 0.22349 0.16174 0.605 0.0
C2848 C 0.20235 0.17998 0.60965 0.0
H2849 H 0.25581 0.13848 0.62133 0.0
H2850 H 0.22697 0.15384 0.58512 0.0
C2851 C 0.19897 0.18967 0.63587 0.0
C2852 C 0.43666 0.62439 0.68403 0.0
C2853 C 0.41665 0.60471 0.68799 0.0
H2854 H 0.46011 0.65644 0.70115 0.0
C2855 C 0.40601 0.60191 0.71384 0.0
H2856 H 0.44543 0.62722 0.66442 0.0
C2857 C 0.41437 0.61874 0.7348 0.0
C2858 C 0.43382 0.63893 0.73079 0.0
H2859 H 0.39067 0.58709 0.71783 0.0
H2860 H 0.40515 0.61612 0.75423 0.0
C2861 C 0.44519 0.6412 0.70514 0.0
C2862 C 0.87214 0.40355 0.65455 0.0
C2863 C 0.85287 0.42393 0.65042 0.0
H2864 H 0.90441 0.38004 0.63797 0.0
C2865 C 0.8511 0.43526 0.62476 0.0
H2866 H 0.87417 0.39424 0.67403 0.0
C2867 C 0.86853 0.42718 0.6042 0.0
C2868 C 0.8883 0.40734 0.60843 0.0
H2869 H 0.83663 0.45092 0.62067 0.0
H2870 H 0.8667 0.43692 0.58492 0.0
C2871 C 0.88954 0.39529 0.63384 0.0
C2872 C 0.68522 0.10113 0.87583 0.0
C2873 C 0.6747 0.10403 0.90173 0.0
H2874 H 0.68592 0.11519 0.83539 0.0
C2875 C 0.65472 0.12376 0.9057 0.0
H2876 H 0.70052 0.08627 0.87184 0.0
C2877 C 0.64613 0.1405 0.88458 0.0
C2878 C 0.65738 0.13812 0.85889 0.0
H2879 H 0.64605 0.12666 0.92534 0.0
H2880 H 0.63124 0.15578 0.88858 0.0
C2881 C 0.67678 0.11789 0.85485 0.0
C2882 C 0.37211 0.18297 0.43251 0.0
C2883 C 0.35196 0.16352 0.43692 0.0
H2884 H 0.40449 0.20633 0.44916 0.0
C2885 C 0.34865 0.15388 0.46311 0.0
H2886 H 0.37534 0.19098 0.41263 0.0
C2887 C 0.36549 0.1626 0.48396 0.0
C2888 C 0.38614 0.18146 0.47949 0.0
H2889 H 0.33347 0.13899 0.46744 0.0
H2890 H 0.36251 0.15411 0.50367 0.0
C2891 C 0.38888 0.19189 0.4535 0.0
C2892 C 0.43096 0.46513 0.90604 0.0
C2893 C 0.41223 0.4859 0.90132 0.0
H2894 H 0.45393 0.43238 0.88958 0.0
C2895 C 0.40348 0.48983 0.87488 0.0
H2896 H 0.43826 0.4614 0.92611 0.0
C2897 C 0.41234 0.47309 0.85406 0.0
C2898 C 0.4305 0.45188 0.85877 0.0
H2899 H 0.38917 0.50549 0.87027 0.0
H2900 H 0.40452 0.47663 0.83415 0.0
C2901 C 0.44007 0.44845 0.88505 0.0
C2902 C 0.71656 0.40744 0.43166 0.0
C2903 C 0.73686 0.42662 0.43655 0.0
H2904 H 0.68425 0.38367 0.44788 0.0
C2905 C 0.74051 0.4353 0.46305 0.0
H2906 H 0.71307 0.40017 0.41155 0.0
C2907 C 0.72391 0.42595 0.48375 0.0
C2908 C 0.70312 0.40736 0.47887 0.0
H2909 H 0.75584 0.44993 0.46778 0.0
H2910 H 0.72718 0.43374 0.50371 0.0
C2911 C 0.7 0.39785 0.45254 0.0
C2912 C 0.71432 0.68486 0.98821 0.0
C2913 C 0.6885 0.67377 0.98631 0.0
H2914 H 0.75433 0.68627 0.97276 0.0
C2915 C 0.68424 0.6536 0.96688 0.0
H2916 H 0.71852 0.70036 1.00278 0.0
C2917 C 0.70499 0.64529 0.94951 0.0
C2918 C 0.73058 0.65706 0.9509 0.0
H2919 H 0.66465 0.64449 0.96472 0.0
H2920 H 0.70076 0.63018 0.93456 0.0
C2921 C 0.73492 0.67673 0.97079 0.0
C2922 C 0.92843 0.10639 0.36731 0.0
C2923 C 0.90995 0.11122 0.38816 0.0
H2924 H 0.95201 0.12239 0.33515 0.0
C2925 C 0.90024 0.13752 0.39119 0.0
H2926 H 0.93637 0.08646 0.36409 0.0
C2927 C 0.9095 0.1584 0.37445 0.0
C2928 C 0.92855 0.15355 0.35405 0.0
H2929 H 0.88611 0.14214 0.40697 0.0
H2930 H 0.90207 0.17848 0.37785 0.0
C2931 C 0.93746 0.12709 0.35053 0.0
C2932 C 0.37432 0.90498 0.9913 0.0
C2933 C 0.40071 0.91414 0.98778 0.0
H2934 H 0.33358 0.90593 0.97772 0.0
C2935 C 0.40533 0.93357 0.9677 0.0
H2936 H 0.36984 0.89014 1.00644 0.0
C2937 C 0.38436 0.94286 0.95112 0.0
C2938 C 0.35816 0.93285 0.954 0.0
H2939 H 0.42537 0.94122 0.96435 0.0
H2940 H 0.38887 0.9572 0.93551 0.0
C2941 C 0.35346 0.9141 0.97466 0.0
C2942 C 0.19252 0.45566 0.39167 0.0
C2943 C 0.18284 0.48191 0.38823 0.0
H2944 H 0.19083 0.41456 0.37878 0.0
C2945 C 0.1647 0.48654 0.36699 0.0
H2946 H 0.20638 0.45119 0.40776 0.0
C2947 C 0.15588 0.46567 0.35029 0.0
C2948 C 0.16469 0.43925 0.35428 0.0
H2949 H 0.15681 0.50644 0.36345 0.0
H2950 H 0.14154 0.4702 0.33463 0.0
C2951 C 0.18348 0.43462 0.37502 0.0
C2952 C 0.735 0.41283 0.61503 0.0
C2953 C 0.73009 0.43067 0.63642 0.0
H2954 H 0.719 0.38973 0.5825 0.0
C2955 C 0.70363 0.43982 0.63996 0.0
H2956 H 0.75505 0.40533 0.61141 0.0
C2957 C 0.68268 0.43058 0.62322 0.0
C2958 C 0.68761 0.4121 0.60232 0.0
H2959 H 0.69893 0.45342 0.65616 0.0
H2960 H 0.66247 0.43754 0.62703 0.0
C2961 C 0.71422 0.40381 0.59827 0.0
C2962 C 0.68377 0.15676 0.71607 0.0
C2963 C 0.66407 0.15252 0.73599 0.0
H2964 H 0.70699 0.13996 0.68372 0.0
C2965 C 0.65371 0.12652 0.73878 0.0
H2966 H 0.6923 0.17649 0.71321 0.0
C2967 C 0.66205 0.10568 0.72179 0.0
C2968 C 0.68122 0.10995 0.70141 0.0
H2969 H 0.63861 0.1223 0.75377 0.0
H2970 H 0.65305 0.08613 0.72446 0.0
C2971 C 0.69229 0.13577 0.6991 0.0
C2972 C 0.40666 0.15696 0.6228 0.0
C2973 C 0.40175 0.17596 0.60237 0.0
H2974 H 0.39045 0.13352 0.65527 0.0
C2975 C 0.37521 0.18463 0.59864 0.0
H2976 H 0.42682 0.14969 0.62635 0.0
C2977 C 0.35446 0.17545 0.61532 0.0
C2978 C 0.35939 0.15706 0.63625 0.0
H2979 H 0.37049 0.19913 0.58322 0.0
H2980 H 0.33445 0.18322 0.61201 0.0
C2981 C 0.38577 0.14756 0.63942 0.0
C2982 C 0.40694 0.43542 0.71485 0.0
C2983 C 0.42596 0.43965 0.73546 0.0
H2984 H 0.38424 0.4524 0.6822 0.0
C2985 C 0.43543 0.46586 0.73933 0.0
H2986 H 0.39908 0.41555 0.71118 0.0
C2987 C 0.427 0.48689 0.72259 0.0
C2988 C 0.40861 0.48261 0.70147 0.0
H2989 H 0.44998 0.47006 0.75487 0.0
H2990 H 0.43537 0.50661 0.72601 0.0
C2991 C 0.3983 0.4566 0.69818 0.0
C2992 C 0.97437 0.73419 0.67537 0.0
C2993 C 0.95372 0.72945 0.6566 0.0
H2994 H 1.00603 0.71793 0.69958 0.0
C2995 C 0.95058 0.70317 0.64694 0.0
H2996 H 0.97764 0.75412 0.68327 0.0
C2997 C 0.96695 0.68218 0.65658 0.0
C2998 C 0.98708 0.68691 0.67597 0.0
H2999 H 0.93492 0.69864 0.63261 0.0
H3000 H 0.96344 0.6621 0.6492 0.0
C3001 C 0.99081 0.71336 0.68479 0.0
C3002 C 0.94842 0.38697 0.94162 0.0
C3003 C 0.95164 0.36077 0.93173 0.0
H3004 H 0.96171 0.428 0.94031 0.0
C3005 C 0.97278 0.35618 0.91349 0.0
H3006 H 0.93241 0.39141 0.95555 0.0
C3007 C 0.98961 0.37702 0.90484 0.0
C3008 C 0.98592 0.40338 0.91392 0.0
H3009 H 0.97618 0.33634 0.90543 0.0
H3010 H 1.0052 0.37247 0.89046 0.0
C3011 C 0.96525 0.40799 0.93276 0.0
C3012 C 0.63617 0.88967 0.39765 0.0
C3013 C 0.60981 0.88612 0.40703 0.0
H3014 H 0.67737 0.87699 0.39975 0.0
C3015 C 0.60511 0.86495 0.42519 0.0
H3016 H 0.64069 0.90572 0.38379 0.0
C3017 C 0.62604 0.84838 0.43425 0.0
C3018 C 0.65256 0.85247 0.42568 0.0
H3019 H 0.58513 0.86135 0.43287 0.0
H3020 H 0.62147 0.83276 0.44856 0.0
C3021 C 0.65725 0.87317 0.40693 0.0
C3022 C 0.11609 0.23516 0.91282 0.0
C3023 C 0.13716 0.23046 0.93116 0.0
H3024 H 0.08394 0.21885 0.8893 0.0
C3025 C 0.14053 0.20419 0.94076 0.0
H3026 H 0.11263 0.25508 0.90498 0.0
C3027 C 0.12396 0.18318 0.93149 0.0
C3028 C 0.1034 0.18786 0.91253 0.0
H3029 H 0.15649 0.19968 0.95476 0.0
H3030 H 0.12765 0.16311 0.93883 0.0
C3031 C 0.09947 0.2143 0.90377 0.0
C3032 C 0.96433 0.23992 0.93538 0.0
C3033 C 0.93839 0.23766 0.92464 0.0
H3034 H 1.00457 0.22497 0.93628 0.0
C3035 C 0.93411 0.21816 0.90454 0.0
H3036 H 0.96855 0.25456 0.9508 0.0
C3037 C 0.95498 0.20104 0.89599 0.0
C3038 C 0.98071 0.20278 0.90742 0.0
H3039 H 0.91442 0.21575 0.8957 0.0
H3040 H 0.95074 0.186 0.88097 0.0
C3041 C 0.98506 0.22276 0.92699 0.0
C3042 C 0.62521 0.40708 0.15818 0.0
C3043 C 0.60447 0.40222 0.17687 0.0
H3044 H 0.65824 0.39088 0.1354 0.0
C3045 C 0.60083 0.37575 0.18569 0.0
H3046 H 0.62871 0.42717 0.15082 0.0
C3047 C 0.61783 0.35507 0.17695 0.0
C3048 C 0.63905 0.35994 0.15886 0.0
H3049 H 0.58519 0.37104 0.19996 0.0
H3050 H 0.61452 0.33515 0.18483 0.0
C3051 C 0.64218 0.38623 0.14921 0.0
C3052 C 0.60577 0.22321 0.16296 0.0
C3053 C 0.61001 0.20313 0.18245 0.0
H3054 H 0.62248 0.25498 0.13926 0.0
C3055 C 0.63575 0.20115 0.19384 0.0
H3056 H 0.58627 0.22559 0.15371 0.0
C3057 C 0.65672 0.21815 0.18534 0.0
C3058 C 0.65255 0.23775 0.16532 0.0
H3059 H 0.6399 0.18601 0.2088 0.0
H3060 H 0.6764 0.21555 0.19415 0.0
C3061 C 0.62661 0.24024 0.15462 0.0
C3062 C 0.48502 0.36511 0.16322 0.0
C3063 C 0.48026 0.38613 0.18153 0.0
H3064 H 0.46875 0.33312 0.13954 0.0
C3065 C 0.45388 0.38961 0.19087 0.0
H3066 H 0.50503 0.36158 0.15556 0.0
C3067 C 0.43283 0.37319 0.18139 0.0
C3068 C 0.43759 0.35266 0.16248 0.0
H3069 H 0.44932 0.40555 0.20483 0.0
H3070 H 0.41268 0.37696 0.18853 0.0
C3071 C 0.46413 0.34863 0.15397 0.0
loop_
_geom_bond_atom_site_label_1
_geom_bond_atom_site_label_2
_geom_bond_distance
_geom_bond_site_symmetry_2
_ccdc_geom_bond_type
O0 Tb1 2.292 . S
O0 C3 1.255 . S
Tb1 O0 2.292 . S
Tb1 O17 2.326 . S
Tb1 O19 2.500 . S
Tb1 O20 2.473 . S
Tb1 O23 2.324 . S
Eu2 O6 2.292 . S
Eu2 C7 2.852 . S
Eu2 O18 2.324 . S
Eu2 O22 2.326 . S
Eu2 O24 2.500 . S
Eu2 O25 2.473 . S
C3 O0 1.255 . S
C3 O4 1.247 . S
O4 C3 1.247 . S
C5 O17 1.242 . S
C5 O18 1.258 . S
O6 Eu2 2.292 . S
O6 C8 1.255 . S
C7 Eu2 2.852 . S
C7 C11 1.503 . S
C7 O24 1.273 . S
C7 O25 1.257 . S
C8 O6 1.255 . S
C8 O9 1.247 . S
O9 C8 1.247 . S
C10 O22 1.242 . S
C10 O23 1.258 . S
C11 C7 1.503 . S
C11 C12 1.379 . S
C11 C16 1.392 . S
C12 C11 1.379 . S
C12 C13 1.404 . S
C12 H26 0.929 . S
C13 C12 1.404 . S
C13 C14 1.389 . S
C14 C13 1.389 . S
C14 C15 1.399 . S
C14 H27 0.931 . S
C15 C14 1.399 . S
C15 C16 1.390 . S
C16 C11 1.392 . S
C16 C15 1.390 . S
C16 H28 0.929 . S
O17 Tb1 2.326 . S
O17 C5 1.242 . S
O18 Eu2 2.324 . S
O18 C5 1.258 . S
O19 Tb1 2.500 . S
O19 C21 1.273 . S
O20 Tb1 2.473 . S
O20 C21 1.257 . S
C21 O19 1.273 . S
C21 O20 1.257 . S
O22 Eu2 2.326 . S
O22 C10 1.242 . S
O23 Tb1 2.324 . S
O23 C10 1.258 . S
O24 Eu2 2.500 . S
O24 C7 1.273 . S
O25 Eu2 2.473 . S
O25 C7 1.257 . S
H26 C12 0.929 . S
H27 C14 0.931 . S
H28 C16 0.929 . S
O29 Tb30 2.292 . S
O29 C32 1.255 . S
Tb30 O29 2.292 . S
Tb30 O46 2.326 . S
Tb30 O48 2.500 . S
Tb30 O49 2.473 . S
Tb30 O52 2.324 . S
Eu31 O35 2.292 1_556 S
Eu31 C36 2.852 . S
Eu31 O47 2.324 . S
Eu31 O51 2.326 . S
Eu31 O53 2.500 1_556 S
Eu31 O54 2.473 . S
C32 O29 1.255 . S
C32 O33 1.247 . S
O33 C32 1.247 . S
C34 O46 1.242 . S
C34 O47 1.258 . S
O35 Eu31 2.292 1_554 S
O35 C37 1.255 . S
C36 Eu31 2.852 . S
C36 C40 1.503 . S
C36 O53 1.273 1_556 S
C36 O54 1.257 . S
C37 O35 1.255 . S
C37 O38 1.247 1_554 S
O38 C37 1.247 1_556 S
C39 O51 1.242 . S
C39 O52 1.258 . S
C40 C36 1.503 . S
C40 C41 1.379 . S
C40 C45 1.366 1_556 S
C41 C40 1.379 . S
C41 C42 1.404 . S
C41 H55 0.929 . S
C42 C41 1.404 . S
C42 C43 1.389 . S
C43 C42 1.389 . S
C43 C44 1.407 . S
C43 H56 0.931 . S
C44 C43 1.407 . S
C44 C45 1.388 1_556 S
C45 C40 1.366 1_554 S
C45 C44 1.388 1_554 S
C45 H57 0.958 . S
O46 Tb30 2.326 . S
O46 C34 1.242 . S
O47 Eu31 2.324 . S
O47 C34 1.258 . S
O48 Tb30 2.500 . S
O48 C50 1.273 . S
O49 Tb30 2.473 . S
O49 C50 1.257 . S
C50 O48 1.273 . S
C50 O49 1.257 . S
O51 Eu31 2.326 . S
O51 C39 1.242 . S
O52 Tb30 2.324 . S
O52 C39 1.258 . S
O53 Eu31 2.500 1_554 S
O53 C36 1.273 1_554 S
O54 Eu31 2.473 . S
O54 C36 1.257 . S
H55 C41 0.929 . S
H56 C43 0.931 . S
H57 C45 0.958 . S
O58 Tb59 2.292 . S
O58 C61 1.255 . S
Tb59 O58 2.292 . S
Tb59 O75 2.326 . S
Tb59 O77 2.500 . S
Tb59 O78 2.473 . S
Tb59 O81 2.324 . S
Eu60 O64 2.292 . S
Eu60 C65 2.852 . S
Eu60 O76 2.324 . S
Eu60 O80 2.326 . S
Eu60 O82 2.500 . S
Eu60 O83 2.473 . S
C61 O58 1.255 . S
C61 O62 1.247 . S
O62 C61 1.247 . S
C63 O75 1.242 . S
C63 O76 1.258 . S
O64 Eu60 2.292 . S
O64 C66 1.255 . S
C65 Eu60 2.852 . S
C65 C69 1.503 . S
C65 O82 1.273 . S
C65 O83 1.257 . S
C66 O64 1.255 . S
C66 O67 1.247 . S
O67 C66 1.247 . S
C68 O80 1.242 . S
C68 O81 1.258 . S
C69 C65 1.503 . S
C69 C70 1.379 . S
C69 C74 1.392 . S
C70 C69 1.379 . S
C70 C71 1.404 . S
C70 H84 0.929 . S
C71 C70 1.404 . S
C71 C72 1.389 . S
C72 C71 1.389 . S
C72 C73 1.399 . S
C72 H85 0.931 . S
C73 C72 1.399 . S
C73 C74 1.390 . S
C74 C69 1.392 . S
C74 C73 1.390 . S
C74 H86 0.929 . S
O75 Tb59 2.326 . S
O75 C63 1.242 . S
O76 Eu60 2.324 . S
O76 C63 1.258 . S
O77 Tb59 2.500 . S
O77 C79 1.273 . S
O78 Tb59 2.473 . S
O78 C79 1.257 . S
C79 O77 1.273 . S
C79 O78 1.257 . S
O80 Eu60 2.326 . S
O80 C68 1.242 . S
O81 Tb59 2.324 . S
O81 C68 1.258 . S
O82 Eu60 2.500 . S
O82 C65 1.273 . S
O83 Eu60 2.473 . S
O83 C65 1.257 . S
H84 C70 0.929 . S
H85 C72 0.931 . S
H86 C74 0.929 . S
O87 Tb88 2.292 . S
O87 C90 1.255 . S
Tb88 O87 2.292 . S
Tb88 O104 2.326 . S
Tb88 O106 2.500 . S
Tb88 O107 2.473 . S
Tb88 O110 2.324 . S
Eu89 O93 2.292 1_556 S
Eu89 C94 2.852 . S
Eu89 O105 2.324 . S
Eu89 O109 2.326 . S
Eu89 O111 2.500 1_556 S
Eu89 O112 2.473 . S
C90 O87 1.255 . S
C90 O91 1.247 . S
O91 C90 1.247 . S
C92 O104 1.242 . S
C92 O105 1.258 . S
O93 Eu89 2.292 1_554 S
O93 C95 1.255 . S
C94 Eu89 2.852 . S
C94 C98 1.503 . S
C94 O111 1.273 1_556 S
C94 O112 1.257 . S
C95 O93 1.255 . S
C95 O96 1.247 1_554 S
O96 C95 1.247 1_556 S
C97 O109 1.242 . S
C97 O110 1.258 . S
C98 C94 1.503 . S
C98 C99 1.379 . S
C98 C103 1.366 1_556 S
C99 C98 1.379 . S
C99 C100 1.404 . S
C99 H113 0.929 . S
C100 C99 1.404 . S
C100 C101 1.389 . S
C101 C100 1.389 . S
C101 C102 1.407 . S
C101 H114 0.931 . S
C102 C101 1.407 . S
C102 C103 1.388 1_556 S
C103 C98 1.366 1_554 S
C103 C102 1.388 1_554 S
C103 H115 0.958 . S
O104 Tb88 2.326 . S
O104 C92 1.242 . S
O105 Eu89 2.324 . S
O105 C92 1.258 . S
O106 Tb88 2.500 . S
O106 C108 1.273 . S
O107 Tb88 2.473 . S
O107 C108 1.257 . S
C108 O106 1.273 . S
C108 O107 1.257 . S
O109 Eu89 2.326 . S
O109 C97 1.242 . S
O110 Tb88 2.324 . S
O110 C97 1.258 . S
O111 Eu89 2.500 1_554 S
O111 C94 1.273 1_554 S
O112 Eu89 2.473 . S
O112 C94 1.257 . S
H113 C99 0.929 . S
H114 C101 0.931 . S
H115 C103 0.958 . S
O116 Tb117 2.292 . S
O116 C119 1.255 . S
Tb117 O116 2.292 . S
Tb117 O133 2.326 . S
Tb117 O135 2.500 . S
Tb117 O136 2.473 . S
Tb117 O139 2.324 . S
Eu118 O122 2.292 . S
Eu118 C123 2.852 . S
Eu118 O134 2.324 . S
Eu118 O138 2.326 . S
Eu118 O140 2.500 . S
Eu118 O141 2.473 . S
C119 O116 1.255 . S
C119 O120 1.247 . S
O120 C119 1.247 . S
C121 O133 1.242 . S
C121 O134 1.258 . S
O122 Eu118 2.292 . S
O122 C124 1.255 . S
C123 Eu118 2.852 . S
C123 C127 1.503 . S
C123 O140 1.273 . S
C123 O141 1.257 . S
C124 O122 1.255 . S
C124 O125 1.247 . S
O125 C124 1.247 . S
C126 O138 1.242 . S
C126 O139 1.258 . S
C127 C123 1.503 . S
C127 C128 1.379 . S
C127 C132 1.392 . S
C128 C127 1.379 . S
C128 C129 1.404 . S
C128 H142 0.929 . S
C129 C128 1.404 . S
C129 C130 1.389 . S
C130 C129 1.389 . S
C130 C131 1.399 . S
C130 H143 0.931 . S
C131 C130 1.399 . S
C131 C132 1.390 . S
C132 C127 1.392 . S
C132 C131 1.390 . S
C132 H144 0.929 . S
O133 Tb117 2.326 . S
O133 C121 1.242 . S
O134 Eu118 2.324 . S
O134 C121 1.258 . S
O135 Tb117 2.500 . S
O135 C137 1.273 . S
O136 Tb117 2.473 . S
O136 C137 1.257 . S
C137 O135 1.273 . S
C137 O136 1.257 . S
O138 Eu118 2.326 . S
O138 C126 1.242 . S
O139 Tb117 2.324 . S
O139 C126 1.258 . S
O140 Eu118 2.500 . S
O140 C123 1.273 . S
O141 Eu118 2.473 . S
O141 C123 1.257 . S
H142 C128 0.929 . S
H143 C130 0.931 . S
H144 C132 0.929 . S
O145 Tb146 2.292 . S
O145 C148 1.255 . S
Tb146 O145 2.292 . S
Tb146 O162 2.326 . S
Tb146 O164 2.500 . S
Tb146 O165 2.473 . S
Tb146 O168 2.324 . S
Eu147 O151 2.292 1_554 S
Eu147 C152 2.852 . S
Eu147 O163 2.324 . S
Eu147 O167 2.326 . S
Eu147 O169 2.500 1_554 S
Eu147 O170 2.473 . S
C148 O145 1.255 . S
C148 O149 1.247 . S
O149 C148 1.247 . S
C150 O162 1.242 . S
C150 O163 1.258 . S
O151 Eu147 2.292 1_556 S
O151 C153 1.255 . S
C152 Eu147 2.852 . S
C152 C156 1.503 . S
C152 O169 1.273 1_554 S
C152 O170 1.257 . S
C153 O151 1.255 . S
C153 O154 1.247 1_556 S
O154 C153 1.247 1_554 S
C155 O167 1.242 . S
C155 O168 1.258 . S
C156 C152 1.503 . S
C156 C157 1.379 . S
C156 C161 1.366 1_554 S
C157 C156 1.379 . S
C157 C158 1.404 . S
C157 H171 0.929 . S
C158 C157 1.404 . S
C158 C159 1.389 . S
C159 C158 1.389 . S
C159 C160 1.407 . S
C159 H172 0.931 . S
C160 C159 1.407 . S
C160 C161 1.388 1_554 S
C161 C156 1.366 1_556 S
C161 C160 1.388 1_556 S
C161 H173 0.958 . S
O162 Tb146 2.326 . S
O162 C150 1.242 . S
O163 Eu147 2.324 . S
O163 C150 1.258 . S
O164 Tb146 2.500 . S
O164 C166 1.273 . S
O165 Tb146 2.473 . S
O165 C166 1.257 . S
C166 O164 1.273 . S
C166 O165 1.257 . S
O167 Eu147 2.326 . S
O167 C155 1.242 . S
O168 Tb146 2.324 . S
O168 C155 1.258 . S
O169 Eu147 2.500 1_556 S
O169 C152 1.273 1_556 S
O170 Eu147 2.473 . S
O170 C152 1.257 . S
H171 C157 0.929 . S
H172 C159 0.931 . S
H173 C161 0.958 . S
O174 Tb175 2.292 . S
O174 C177 1.255 . S
Tb175 O174 2.292 . S
Tb175 O191 2.326 . S
Tb175 O193 2.500 . S
Tb175 O194 2.473 . S
Tb175 O197 2.324 . S
Eu176 O180 2.292 . S
Eu176 C181 2.852 . S
Eu176 O192 2.324 . S
Eu176 O196 2.326 . S
Eu176 O198 2.500 . S
Eu176 O199 2.473 . S
C177 O174 1.255 . S
C177 O178 1.247 . S
O178 C177 1.247 . S
C179 O191 1.242 . S
C179 O192 1.258 . S
O180 Eu176 2.292 . S
O180 C182 1.255 . S
C181 Eu176 2.852 . S
C181 C185 1.503 . S
C181 O198 1.273 . S
C181 O199 1.257 . S
C182 O180 1.255 . S
C182 O183 1.247 . S
O183 C182 1.247 . S
C184 O196 1.242 . S
C184 O197 1.258 . S
C185 C181 1.503 . S
C185 C186 1.379 . S
C185 C190 1.392 . S
C186 C185 1.379 . S
C186 C187 1.404 . S
C186 H200 0.929 . S
C187 C186 1.404 . S
C187 C188 1.389 . S
C188 C187 1.389 . S
C188 C189 1.399 . S
C188 H201 0.931 . S
C189 C188 1.399 . S
C189 C190 1.390 . S
C190 C185 1.392 . S
C190 C189 1.390 . S
C190 H202 0.929 . S
O191 Tb175 2.326 . S
O191 C179 1.242 . S
O192 Eu176 2.324 . S
O192 C179 1.258 . S
O193 Tb175 2.500 . S
O193 C195 1.273 . S
O194 Tb175 2.473 . S
O194 C195 1.257 . S
C195 O193 1.273 . S
C195 O194 1.257 . S
O196 Eu176 2.326 . S
O196 C184 1.242 . S
O197 Tb175 2.324 . S
O197 C184 1.258 . S
O198 Eu176 2.500 . S
O198 C181 1.273 . S
O199 Eu176 2.473 . S
O199 C181 1.257 . S
H200 C186 0.929 . S
H201 C188 0.931 . S
H202 C190 0.929 . S
O203 Tb204 2.292 . S
O203 C206 1.255 . S
Tb204 O203 2.292 . S
Tb204 O220 2.326 . S
Tb204 O222 2.500 . S
Tb204 O223 2.473 . S
Tb204 O226 2.324 . S
Eu205 O209 2.292 1_554 S
Eu205 C210 2.852 . S
Eu205 O221 2.324 . S
Eu205 O225 2.326 . S
Eu205 O227 2.500 1_554 S
Eu205 O228 2.473 . S
C206 O203 1.255 . S
C206 O207 1.247 . S
O207 C206 1.247 . S
C208 O220 1.242 . S
C208 O221 1.258 . S
O209 Eu205 2.292 1_556 S
O209 C211 1.255 . S
C210 Eu205 2.852 . S
C210 C214 1.503 . S
C210 O227 1.273 1_554 S
C210 O228 1.257 . S
C211 O209 1.255 . S
C211 O212 1.247 1_556 S
O212 C211 1.247 1_554 S
C213 O225 1.242 . S
C213 O226 1.258 . S
C214 C210 1.503 . S
C214 C215 1.379 . S
C214 C219 1.366 1_554 S
C215 C214 1.379 . S
C215 C216 1.404 . S
C215 H229 0.929 . S
C216 C215 1.404 . S
C216 C217 1.389 . S
C217 C216 1.389 . S
C217 C218 1.407 . S
C217 H230 0.931 . S
C218 C217 1.407 . S
C218 C219 1.388 1_554 S
C219 C214 1.366 1_556 S
C219 C218 1.388 1_556 S
C219 H231 0.958 . S
O220 Tb204 2.326 . S
O220 C208 1.242 . S
O221 Eu205 2.324 . S
O221 C208 1.258 . S
O222 Tb204 2.500 . S
O222 C224 1.273 . S
O223 Tb204 2.473 . S
O223 C224 1.257 . S
C224 O222 1.273 . S
C224 O223 1.257 . S
O225 Eu205 2.326 . S
O225 C213 1.242 . S
O226 Tb204 2.324 . S
O226 C213 1.258 . S
O227 Eu205 2.500 1_556 S
O227 C210 1.273 1_556 S
O228 Eu205 2.473 . S
O228 C210 1.257 . S
H229 C215 0.929 . S
H230 C217 0.931 . S
H231 C219 0.958 . S
O232 Tb233 2.292 . S
O232 C235 1.255 . S
Tb233 O232 2.292 . S
Tb233 O249 2.326 . S
Tb233 O251 2.500 . S
Tb233 O252 2.473 . S
Tb233 O255 2.324 . S
Eu234 O238 2.292 . S
Eu234 C239 2.852 . S
Eu234 O250 2.324 . S
Eu234 O254 2.326 . S
Eu234 O256 2.500 . S
Eu234 O257 2.473 . S
C235 O232 1.255 . S
C235 O236 1.247 . S
O236 C235 1.247 . S
C237 O249 1.242 . S
C237 O250 1.258 . S
O238 Eu234 2.292 . S
O238 C240 1.255 . S
C239 Eu234 2.852 . S
C239 C243 1.503 . S
C239 O256 1.273 . S
C239 O257 1.257 . S
C240 O238 1.255 . S
C240 O241 1.247 . S
O241 C240 1.247 . S
C242 O254 1.242 . S
C242 O255 1.258 . S
C243 C239 1.503 . S
C243 C244 1.379 . S
C243 C248 1.392 . S
C244 C243 1.379 . S
C244 C245 1.404 . S
C244 H258 0.929 . S
C245 C244 1.404 . S
C245 C246 1.389 . S
C246 C245 1.389 . S
C246 C247 1.399 . S
C246 H259 0.931 . S
C247 C246 1.399 . S
C247 C248 1.390 . S
C248 C243 1.392 . S
C248 C247 1.390 . S
C248 H260 0.929 . S
O249 Tb233 2.326 . S
O249 C237 1.242 . S
O250 Eu234 2.324 . S
O250 C237 1.258 . S
O251 Tb233 2.500 . S
O251 C253 1.273 . S
O252 Tb233 2.473 . S
O252 C253 1.257 . S
C253 O251 1.273 . S
C253 O252 1.257 . S
O254 Eu234 2.326 . S
O254 C242 1.242 . S
O255 Tb233 2.324 . S
O255 C242 1.258 . S
O256 Eu234 2.500 . S
O256 C239 1.273 . S
O257 Eu234 2.473 . S
O257 C239 1.257 . S
H258 C244 0.929 . S
H259 C246 0.931 . S
H260 C248 0.929 . S
O261 Tb262 2.292 . S
O261 C264 1.255 . S
Tb262 O261 2.292 . S
Tb262 O278 2.326 . S
Tb262 O280 2.500 . S
Tb262 O281 2.473 . S
Tb262 O284 2.324 . S
Eu263 O267 2.292 . S
Eu263 C268 2.852 . S
Eu263 O279 2.324 . S
Eu263 O283 2.326 . S
Eu263 O285 2.500 . S
Eu263 O286 2.473 . S
C264 O261 1.255 . S
C264 O265 1.247 . S
O265 C264 1.247 . S
C266 O278 1.242 . S
C266 O279 1.258 . S
O267 Eu263 2.292 . S
O267 C269 1.255 . S
C268 Eu263 2.852 . S
C268 C272 1.503 . S
C268 O285 1.273 . S
C268 O286 1.257 . S
C269 O267 1.255 . S
C269 O270 1.247 . S
O270 C269 1.247 . S
C271 O283 1.242 . S
C271 O284 1.258 . S
C272 C268 1.503 . S
C272 C273 1.379 . S
C272 C277 1.392 . S
C273 C272 1.379 . S
C273 C274 1.404 . S
C273 H287 0.929 . S
C274 C273 1.404 . S
C274 C275 1.389 . S
C275 C274 1.389 . S
C275 C276 1.399 . S
C275 H288 0.931 . S
C276 C275 1.399 . S
C276 C277 1.390 . S
C277 C272 1.392 . S
C277 C276 1.390 . S
C277 H289 0.929 . S
O278 Tb262 2.326 . S
O278 C266 1.242 . S
O279 Eu263 2.324 . S
O279 C266 1.258 . S
O280 Tb262 2.500 . S
O280 C282 1.273 . S
O281 Tb262 2.473 . S
O281 C282 1.257 . S
C282 O280 1.273 . S
C282 O281 1.257 . S
O283 Eu263 2.326 . S
O283 C271 1.242 . S
O284 Tb262 2.324 . S
O284 C271 1.258 . S
O285 Eu263 2.500 . S
O285 C268 1.273 . S
O286 Eu263 2.473 . S
O286 C268 1.257 . S
H287 C273 0.929 . S
H288 C275 0.931 . S
H289 C277 0.929 . S
O290 Tb291 2.292 . S
O290 C293 1.255 . S
Tb291 O290 2.292 . S
Tb291 O307 2.326 . S
Tb291 O309 2.500 . S
Tb291 O310 2.473 . S
Tb291 O313 2.324 . S
Eu292 O296 2.292 . S
Eu292 C297 2.852 . S
Eu292 O308 2.324 . S
Eu292 O312 2.326 . S
Eu292 O314 2.500 . S
Eu292 O315 2.473 . S
C293 O290 1.255 . S
C293 O294 1.247 . S
O294 C293 1.247 . S
C295 O307 1.242 . S
C295 O308 1.258 . S
O296 Eu292 2.292 . S
O296 C298 1.255 . S
C297 Eu292 2.852 . S
C297 C301 1.503 . S
C297 O314 1.273 . S
C297 O315 1.257 . S
C298 O296 1.255 . S
C298 O299 1.247 . S
O299 C298 1.247 . S
C300 O312 1.242 . S
C300 O313 1.258 . S
C301 C297 1.503 . S
C301 C302 1.379 . S
C301 C306 1.392 . S
C302 C301 1.379 . S
C302 C303 1.404 . S
C302 H316 0.929 . S
C303 C302 1.404 . S
C303 C304 1.389 . S
C304 C303 1.389 . S
C304 C305 1.399 . S
C304 H317 0.931 . S
C305 C304 1.399 . S
C305 C306 1.390 . S
C306 C301 1.392 . S
C306 C305 1.390 . S
C306 H318 0.929 . S
O307 Tb291 2.326 . S
O307 C295 1.242 . S
O308 Eu292 2.324 . S
O308 C295 1.258 . S
O309 Tb291 2.500 . S
O309 C311 1.273 . S
O310 Tb291 2.473 . S
O310 C311 1.257 . S
C311 O309 1.273 . S
C311 O310 1.257 . S
O312 Eu292 2.326 . S
O312 C300 1.242 . S
O313 Tb291 2.324 . S
O313 C300 1.258 . S
O314 Eu292 2.500 . S
O314 C297 1.273 . S
O315 Eu292 2.473 . S
O315 C297 1.257 . S
H316 C302 0.929 . S
H317 C304 0.931 . S
H318 C306 0.929 . S
O319 Tb320 2.292 . S
O319 C322 1.255 . S
Tb320 O319 2.292 . S
Tb320 O336 2.326 . S
Tb320 O338 2.500 . S
Tb320 O339 2.473 . S
Tb320 O342 2.324 . S
Eu321 O325 2.292 1_545 S
Eu321 C326 2.852 . S
Eu321 O337 2.324 . S
Eu321 O341 2.326 . S
Eu321 O343 2.500 1_545 S
Eu321 O344 2.473 . S
C322 O319 1.255 . S
C322 O323 1.247 . S
O323 C322 1.247 . S
C324 O336 1.242 . S
C324 O337 1.258 . S
O325 Eu321 2.292 1_565 S
O325 C327 1.255 . S
C326 Eu321 2.852 . S
C326 C330 1.503 . S
C326 O343 1.273 1_545 S
C326 O344 1.257 . S
C327 O325 1.255 . S
C327 O328 1.247 1_565 S
O328 C327 1.247 1_545 S
C329 O341 1.242 . S
C329 O342 1.258 . S
C330 C326 1.503 . S
C330 C331 1.379 . S
C330 C335 1.366 1_545 S
C331 C330 1.379 . S
C331 C332 1.404 . S
C331 H345 0.929 . S
C332 C331 1.404 . S
C332 C333 1.389 . S
C333 C332 1.389 . S
C333 C334 1.407 . S
C333 H346 0.931 . S
C334 C333 1.407 . S
C334 C335 1.388 1_545 S
C335 C330 1.366 1_565 S
C335 C334 1.388 1_565 S
C335 H347 0.958 . S
O336 Tb320 2.326 . S
O336 C324 1.242 . S
O337 Eu321 2.324 . S
O337 C324 1.258 . S
O338 Tb320 2.500 . S
O338 C340 1.273 . S
O339 Tb320 2.473 . S
O339 C340 1.257 . S
C340 O338 1.273 . S
C340 O339 1.257 . S
O341 Eu321 2.326 . S
O341 C329 1.242 . S
O342 Tb320 2.324 . S
O342 C329 1.258 . S
O343 Eu321 2.500 1_565 S
O343 C326 1.273 1_565 S
O344 Eu321 2.473 . S
O344 C326 1.257 . S
H345 C331 0.929 . S
H346 C333 0.931 . S
H347 C335 0.958 . S
O348 Tb349 2.292 . S
O348 C351 1.255 . S
Tb349 O348 2.292 . S
Tb349 O365 2.326 . S
Tb349 O367 2.500 . S
Tb349 O368 2.473 . S
Tb349 O371 2.324 . S
Eu350 O354 2.292 . S
Eu350 C355 2.852 . S
Eu350 O366 2.324 . S
Eu350 O370 2.326 . S
Eu350 O372 2.500 . S
Eu350 O373 2.473 . S
C351 O348 1.255 . S
C351 O352 1.247 . S
O352 C351 1.247 . S
C353 O365 1.242 . S
C353 O366 1.258 . S
O354 Eu350 2.292 . S
O354 C356 1.255 . S
C355 Eu350 2.852 . S
C355 C359 1.503 . S
C355 O372 1.273 . S
C355 O373 1.257 . S
C356 O354 1.255 . S
C356 O357 1.247 . S
O357 C356 1.247 . S
C358 O370 1.242 . S
C358 O371 1.258 . S
C359 C355 1.503 . S
C359 C360 1.379 . S
C359 C364 1.392 . S
C360 C359 1.379 . S
C360 C361 1.404 . S
C360 H374 0.929 . S
C361 C360 1.404 . S
C361 C362 1.389 . S
C362 C361 1.389 . S
C362 C363 1.399 . S
C362 H375 0.931 . S
C363 C362 1.399 . S
C363 C364 1.390 . S
C364 C359 1.392 . S
C364 C363 1.390 . S
C364 H376 0.929 . S
O365 Tb349 2.326 . S
O365 C353 1.242 . S
O366 Eu350 2.324 . S
O366 C353 1.258 . S
O367 Tb349 2.500 . S
O367 C369 1.273 . S
O368 Tb349 2.473 . S
O368 C369 1.257 . S
C369 O367 1.273 . S
C369 O368 1.257 . S
O370 Eu350 2.326 . S
O370 C358 1.242 . S
O371 Tb349 2.324 . S
O371 C358 1.258 . S
O372 Eu350 2.500 . S
O372 C355 1.273 . S
O373 Eu350 2.473 . S
O373 C355 1.257 . S
H374 C360 0.929 . S
H375 C362 0.931 . S
H376 C364 0.929 . S
O377 Tb378 2.292 . S
O377 C380 1.255 . S
Tb378 O377 2.292 . S
Tb378 O394 2.326 . S
Tb378 O396 2.500 . S
Tb378 O397 2.473 . S
Tb378 O400 2.324 . S
Eu379 O383 2.292 . S
Eu379 C384 2.852 . S
Eu379 O395 2.324 . S
Eu379 O399 2.326 . S
Eu379 O401 2.500 . S
Eu379 O402 2.473 . S
C380 O377 1.255 . S
C380 O381 1.247 . S
O381 C380 1.247 . S
C382 O394 1.242 . S
C382 O395 1.258 . S
O383 Eu379 2.292 . S
O383 C385 1.255 . S
C384 Eu379 2.852 . S
C384 C388 1.503 . S
C384 O401 1.273 . S
C384 O402 1.257 . S
C385 O383 1.255 . S
C385 O386 1.247 . S
O386 C385 1.247 . S
C387 O399 1.242 . S
C387 O400 1.258 . S
C388 C384 1.503 . S
C388 C389 1.379 . S
C388 C393 1.392 . S
C389 C388 1.379 . S
C389 C390 1.404 . S
C389 H403 0.929 . S
C390 C389 1.404 . S
C390 C391 1.389 . S
C391 C390 1.389 . S
C391 C392 1.399 . S
C391 H404 0.931 . S
C392 C391 1.399 . S
C392 C393 1.390 . S
C393 C388 1.392 . S
C393 C392 1.390 . S
C393 H405 0.929 . S
O394 Tb378 2.326 . S
O394 C382 1.242 . S
O395 Eu379 2.324 . S
O395 C382 1.258 . S
O396 Tb378 2.500 . S
O396 C398 1.273 . S
O397 Tb378 2.473 . S
O397 C398 1.257 . S
C398 O396 1.273 . S
C398 O397 1.257 . S
O399 Eu379 2.326 . S
O399 C387 1.242 . S
O400 Tb378 2.324 . S
O400 C387 1.258 . S
O401 Eu379 2.500 . S
O401 C384 1.273 . S
O402 Eu379 2.473 . S
O402 C384 1.257 . S
H403 C389 0.929 . S
H404 C391 0.931 . S
H405 C393 0.929 . S
O406 Tb407 2.292 . S
O406 C409 1.255 . S
Tb407 O406 2.292 . S
Tb407 O423 2.326 . S
Tb407 O425 2.500 . S
Tb407 O426 2.473 . S
Tb407 O429 2.324 . S
Eu408 O412 2.292 . S
Eu408 C413 2.852 . S
Eu408 O424 2.324 . S
Eu408 O428 2.326 . S
Eu408 O430 2.500 . S
Eu408 O431 2.473 . S
C409 O406 1.255 . S
C409 O410 1.247 . S
O410 C409 1.247 . S
C411 O423 1.242 . S
C411 O424 1.258 . S
O412 Eu408 2.292 . S
O412 C414 1.255 . S
C413 Eu408 2.852 . S
C413 C417 1.503 . S
C413 O430 1.273 . S
C413 O431 1.257 . S
C414 O412 1.255 . S
C414 O415 1.247 . S
O415 C414 1.247 . S
C416 O428 1.242 . S
C416 O429 1.258 . S
C417 C413 1.503 . S
C417 C418 1.379 . S
C417 C422 1.392 . S
C418 C417 1.379 . S
C418 C419 1.404 . S
C418 H432 0.929 . S
C419 C418 1.404 . S
C419 C420 1.389 . S
C420 C419 1.389 . S
C420 C421 1.399 . S
C420 H433 0.931 . S
C421 C420 1.399 . S
C421 C422 1.390 . S
C422 C417 1.392 . S
C422 C421 1.390 . S
C422 H434 0.929 . S
O423 Tb407 2.326 . S
O423 C411 1.242 . S
O424 Eu408 2.324 . S
O424 C411 1.258 . S
O425 Tb407 2.500 . S
O425 C427 1.273 . S
O426 Tb407 2.473 . S
O426 C427 1.257 . S
C427 O425 1.273 . S
C427 O426 1.257 . S
O428 Eu408 2.326 . S
O428 C416 1.242 . S
O429 Tb407 2.324 . S
O429 C416 1.258 . S
O430 Eu408 2.500 . S
O430 C413 1.273 . S
O431 Eu408 2.473 . S
O431 C413 1.257 . S
H432 C418 0.929 . S
H433 C420 0.931 . S
H434 C422 0.929 . S
O435 Tb436 2.292 . S
O435 C438 1.255 . S
Tb436 O435 2.292 . S
Tb436 O452 2.326 . S
Tb436 O454 2.500 . S
Tb436 O455 2.473 . S
Tb436 O458 2.324 . S
Eu437 O441 2.292 1_545 S
Eu437 C442 2.852 . S
Eu437 O453 2.324 . S
Eu437 O457 2.326 . S
Eu437 O459 2.500 1_545 S
Eu437 O460 2.473 . S
C438 O435 1.255 . S
C438 O439 1.247 . S
O439 C438 1.247 . S
C440 O452 1.242 . S
C440 O453 1.258 . S
O441 Eu437 2.292 1_565 S
O441 C443 1.255 . S
C442 Eu437 2.852 . S
C442 C446 1.503 . S
C442 O459 1.273 1_545 S
C442 O460 1.257 . S
C443 O441 1.255 . S
C443 O444 1.247 1_565 S
O444 C443 1.247 1_545 S
C445 O457 1.242 . S
C445 O458 1.258 . S
C446 C442 1.503 . S
C446 C447 1.379 . S
C446 C451 1.366 1_545 S
C447 C446 1.379 . S
C447 C448 1.404 . S
C447 H461 0.929 . S
C448 C447 1.404 . S
C448 C449 1.389 . S
C449 C448 1.389 . S
C449 C450 1.407 . S
C449 H462 0.931 . S
C450 C449 1.407 . S
C450 C451 1.388 1_545 S
C451 C446 1.366 1_565 S
C451 C450 1.388 1_565 S
C451 H463 0.958 . S
O452 Tb436 2.326 . S
O452 C440 1.242 . S
O453 Eu437 2.324 . S
O453 C440 1.258 . S
O454 Tb436 2.500 . S
O454 C456 1.273 . S
O455 Tb436 2.473 . S
O455 C456 1.257 . S
C456 O454 1.273 . S
C456 O455 1.257 . S
O457 Eu437 2.326 . S
O457 C445 1.242 . S
O458 Tb436 2.324 . S
O458 C445 1.258 . S
O459 Eu437 2.500 1_565 S
O459 C442 1.273 1_565 S
O460 Eu437 2.473 . S
O460 C442 1.257 . S
H461 C447 0.929 . S
H462 C449 0.931 . S
H463 C451 0.958 . S
O464 Tb465 2.292 . S
O464 C467 1.255 . S
Tb465 O464 2.292 . S
Tb465 O481 2.326 . S
Tb465 O483 2.500 . S
Tb465 O484 2.473 . S
Tb465 O487 2.324 . S
Eu466 O470 2.292 . S
Eu466 C471 2.852 . S
Eu466 O482 2.324 . S
Eu466 O486 2.326 . S
Eu466 O488 2.500 . S
Eu466 O489 2.473 . S
C467 O464 1.255 . S
C467 O468 1.247 . S
O468 C467 1.247 . S
C469 O481 1.242 . S
C469 O482 1.258 . S
O470 Eu466 2.292 . S
O470 C472 1.255 . S
C471 Eu466 2.852 . S
C471 C475 1.503 . S
C471 O488 1.273 . S
C471 O489 1.257 . S
C472 O470 1.255 . S
C472 O473 1.247 . S
O473 C472 1.247 . S
C474 O486 1.242 . S
C474 O487 1.258 . S
C475 C471 1.503 . S
C475 C476 1.379 . S
C475 C480 1.392 . S
C476 C475 1.379 . S
C476 C477 1.404 . S
C476 H490 0.929 . S
C477 C476 1.404 . S
C477 C478 1.389 . S
C478 C477 1.389 . S
C478 C479 1.399 . S
C478 H491 0.931 . S
C479 C478 1.399 . S
C479 C480 1.390 . S
C480 C475 1.392 . S
C480 C479 1.390 . S
C480 H492 0.929 . S
O481 Tb465 2.326 . S
O481 C469 1.242 . S
O482 Eu466 2.324 . S
O482 C469 1.258 . S
O483 Tb465 2.500 . S
O483 C485 1.273 . S
O484 Tb465 2.473 . S
O484 C485 1.257 . S
C485 O483 1.273 . S
C485 O484 1.257 . S
O486 Eu466 2.326 . S
O486 C474 1.242 . S
O487 Tb465 2.324 . S
O487 C474 1.258 . S
O488 Eu466 2.500 . S
O488 C471 1.273 . S
O489 Eu466 2.473 . S
O489 C471 1.257 . S
H490 C476 0.929 . S
H491 C478 0.931 . S
H492 C480 0.929 . S
O493 Tb494 2.292 . S
O493 C496 1.255 . S
Tb494 O493 2.292 . S
Tb494 O510 2.326 . S
Tb494 O512 2.500 . S
Tb494 O513 2.473 . S
Tb494 O516 2.324 . S
Eu495 O499 2.292 . S
Eu495 C500 2.852 . S
Eu495 O511 2.324 . S
Eu495 O515 2.326 . S
Eu495 O517 2.500 . S
Eu495 O518 2.473 . S
C496 O493 1.255 . S
C496 O497 1.247 . S
O497 C496 1.247 . S
C498 O510 1.242 . S
C498 O511 1.258 . S
O499 Eu495 2.292 . S
O499 C501 1.255 . S
C500 Eu495 2.852 . S
C500 C504 1.503 . S
C500 O517 1.273 . S
C500 O518 1.257 . S
C501 O499 1.255 . S
C501 O502 1.247 . S
O502 C501 1.247 . S
C503 O515 1.242 . S
C503 O516 1.258 . S
C504 C500 1.503 . S
C504 C505 1.379 . S
C504 C509 1.392 . S
C505 C504 1.379 . S
C505 C506 1.404 . S
C505 H519 0.929 . S
C506 C505 1.404 . S
C506 C507 1.389 . S
C507 C506 1.389 . S
C507 C508 1.399 . S
C507 H520 0.931 . S
C508 C507 1.399 . S
C508 C509 1.390 . S
C509 C504 1.392 . S
C509 C508 1.390 . S
C509 H521 0.929 . S
O510 Tb494 2.326 . S
O510 C498 1.242 . S
O511 Eu495 2.324 . S
O511 C498 1.258 . S
O512 Tb494 2.500 . S
O512 C514 1.273 . S
O513 Tb494 2.473 . S
O513 C514 1.257 . S
C514 O512 1.273 . S
C514 O513 1.257 . S
O515 Eu495 2.326 . S
O515 C503 1.242 . S
O516 Tb494 2.324 . S
O516 C503 1.258 . S
O517 Eu495 2.500 . S
O517 C500 1.273 . S
O518 Eu495 2.473 . S
O518 C500 1.257 . S
H519 C505 0.929 . S
H520 C507 0.931 . S
H521 C509 0.929 . S
O522 Tb523 2.292 . S
O522 C525 1.255 . S
Tb523 O522 2.292 . S
Tb523 O539 2.326 . S
Tb523 O541 2.500 . S
Tb523 O542 2.473 . S
Tb523 O545 2.324 . S
Eu524 O528 2.292 1_655 S
Eu524 C529 2.852 . S
Eu524 O540 2.324 . S
Eu524 O544 2.326 . S
Eu524 O546 2.500 1_655 S
Eu524 O547 2.473 . S
C525 O522 1.255 . S
C525 O526 1.247 . S
O526 C525 1.247 . S
C527 O539 1.242 . S
C527 O540 1.258 . S
O528 Eu524 2.292 1_455 S
O528 C530 1.255 . S
C529 Eu524 2.852 . S
C529 C533 1.503 . S
C529 O546 1.273 1_655 S
C529 O547 1.257 . S
C530 O528 1.255 . S
C530 O531 1.247 1_455 S
O531 C530 1.247 1_655 S
C532 O544 1.242 . S
C532 O545 1.258 . S
C533 C529 1.503 . S
C533 C534 1.379 . S
C533 C538 1.366 1_655 S
C534 C533 1.379 . S
C534 C535 1.404 . S
C534 H548 0.929 . S
C535 C534 1.404 . S
C535 C536 1.389 . S
C536 C535 1.389 . S
C536 C537 1.407 . S
C536 H549 0.931 . S
C537 C536 1.407 . S
C537 C538 1.388 1_655 S
C538 C533 1.366 1_455 S
C538 C537 1.388 1_455 S
C538 H550 0.958 . S
O539 Tb523 2.326 . S
O539 C527 1.242 . S
O540 Eu524 2.324 . S
O540 C527 1.258 . S
O541 Tb523 2.500 . S
O541 C543 1.273 . S
O542 Tb523 2.473 . S
O542 C543 1.257 . S
C543 O541 1.273 . S
C543 O542 1.257 . S
O544 Eu524 2.326 . S
O544 C532 1.242 . S
O545 Tb523 2.324 . S
O545 C532 1.258 . S
O546 Eu524 2.500 1_455 S
O546 C529 1.273 1_455 S
O547 Eu524 2.473 . S
O547 C529 1.257 . S
H548 C534 0.929 . S
H549 C536 0.931 . S
H550 C538 0.958 . S
O551 Tb552 2.292 . S
O551 C554 1.255 . S
Tb552 O551 2.292 . S
Tb552 O568 2.326 . S
Tb552 O570 2.500 . S
Tb552 O571 2.473 . S
Tb552 O574 2.324 . S
Eu553 O557 2.292 . S
Eu553 C558 2.852 . S
Eu553 O569 2.324 . S
Eu553 O573 2.326 . S
Eu553 O575 2.500 . S
Eu553 O576 2.473 . S
C554 O551 1.255 . S
C554 O555 1.247 . S
O555 C554 1.247 . S
C556 O568 1.242 . S
C556 O569 1.258 . S
O557 Eu553 2.292 . S
O557 C559 1.255 . S
C558 Eu553 2.852 . S
C558 C562 1.503 . S
C558 O575 1.273 . S
C558 O576 1.257 . S
C559 O557 1.255 . S
C559 O560 1.247 . S
O560 C559 1.247 . S
C561 O573 1.242 . S
C561 O574 1.258 . S
C562 C558 1.503 . S
C562 C563 1.379 . S
C562 C567 1.392 . S
C563 C562 1.379 . S
C563 C564 1.404 . S
C563 H577 0.929 . S
C564 C563 1.404 . S
C564 C565 1.389 . S
C565 C564 1.389 . S
C565 C566 1.399 . S
C565 H578 0.931 . S
C566 C565 1.399 . S
C566 C567 1.390 . S
C567 C562 1.392 . S
C567 C566 1.390 . S
C567 H579 0.929 . S
O568 Tb552 2.326 . S
O568 C556 1.242 . S
O569 Eu553 2.324 . S
O569 C556 1.258 . S
O570 Tb552 2.500 . S
O570 C572 1.273 . S
O571 Tb552 2.473 . S
O571 C572 1.257 . S
C572 O570 1.273 . S
C572 O571 1.257 . S
O573 Eu553 2.326 . S
O573 C561 1.242 . S
O574 Tb552 2.324 . S
O574 C561 1.258 . S
O575 Eu553 2.500 . S
O575 C558 1.273 . S
O576 Eu553 2.473 . S
O576 C558 1.257 . S
H577 C563 0.929 . S
H578 C565 0.931 . S
H579 C567 0.929 . S
O580 Tb581 2.292 . S
O580 C583 1.255 . S
Tb581 O580 2.292 . S
Tb581 O597 2.326 . S
Tb581 O599 2.500 . S
Tb581 O600 2.473 . S
Tb581 O603 2.324 . S
Eu582 O586 2.292 . S
Eu582 C587 2.852 . S
Eu582 O598 2.324 . S
Eu582 O602 2.326 . S
Eu582 O604 2.500 . S
Eu582 O605 2.473 . S
C583 O580 1.255 . S
C583 O584 1.247 . S
O584 C583 1.247 . S
C585 O597 1.242 . S
C585 O598 1.258 . S
O586 Eu582 2.292 . S
O586 C588 1.255 . S
C587 Eu582 2.852 . S
C587 C591 1.503 . S
C587 O604 1.273 . S
C587 O605 1.257 . S
C588 O586 1.255 . S
C588 O589 1.247 . S
O589 C588 1.247 . S
C590 O602 1.242 . S
C590 O603 1.258 . S
C591 C587 1.503 . S
C591 C592 1.379 . S
C591 C596 1.392 . S
C592 C591 1.379 . S
C592 C593 1.404 . S
C592 H606 0.929 . S
C593 C592 1.404 . S
C593 C594 1.389 . S
C594 C593 1.389 . S
C594 C595 1.399 . S
C594 H607 0.931 . S
C595 C594 1.399 . S
C595 C596 1.390 . S
C596 C591 1.392 . S
C596 C595 1.390 . S
C596 H608 0.929 . S
O597 Tb581 2.326 . S
O597 C585 1.242 . S
O598 Eu582 2.324 . S
O598 C585 1.258 . S
O599 Tb581 2.500 . S
O599 C601 1.273 . S
O600 Tb581 2.473 . S
O600 C601 1.257 . S
C601 O599 1.273 . S
C601 O600 1.257 . S
O602 Eu582 2.326 . S
O602 C590 1.242 . S
O603 Tb581 2.324 . S
O603 C590 1.258 . S
O604 Eu582 2.500 . S
O604 C587 1.273 . S
O605 Eu582 2.473 . S
O605 C587 1.257 . S
H606 C592 0.929 . S
H607 C594 0.931 . S
H608 C596 0.929 . S
O609 Tb610 2.292 . S
O609 C612 1.255 . S
Tb610 O609 2.292 . S
Tb610 O626 2.326 . S
Tb610 O628 2.500 . S
Tb610 O629 2.473 . S
Tb610 O632 2.324 . S
Eu611 O615 2.292 . S
Eu611 C616 2.852 . S
Eu611 O627 2.324 . S
Eu611 O631 2.326 . S
Eu611 O633 2.500 . S
Eu611 O634 2.473 . S
C612 O609 1.255 . S
C612 O613 1.247 . S
O613 C612 1.247 . S
C614 O626 1.242 . S
C614 O627 1.258 . S
O615 Eu611 2.292 . S
O615 C617 1.255 . S
C616 Eu611 2.852 . S
C616 C620 1.503 . S
C616 O633 1.273 . S
C616 O634 1.257 . S
C617 O615 1.255 . S
C617 O618 1.247 . S
O618 C617 1.247 . S
C619 O631 1.242 . S
C619 O632 1.258 . S
C620 C616 1.503 . S
C620 C621 1.379 . S
C620 C625 1.392 . S
C621 C620 1.379 . S
C621 C622 1.404 . S
C621 H635 0.929 . S
C622 C621 1.404 . S
C622 C623 1.389 . S
C623 C622 1.389 . S
C623 C624 1.399 . S
C623 H636 0.931 . S
C624 C623 1.399 . S
C624 C625 1.390 . S
C625 C620 1.392 . S
C625 C624 1.390 . S
C625 H637 0.929 . S
O626 Tb610 2.326 . S
O626 C614 1.242 . S
O627 Eu611 2.324 . S
O627 C614 1.258 . S
O628 Tb610 2.500 . S
O628 C630 1.273 . S
O629 Tb610 2.473 . S
O629 C630 1.257 . S
C630 O628 1.273 . S
C630 O629 1.257 . S
O631 Eu611 2.326 . S
O631 C619 1.242 . S
O632 Tb610 2.324 . S
O632 C619 1.258 . S
O633 Eu611 2.500 . S
O633 C616 1.273 . S
O634 Eu611 2.473 . S
O634 C616 1.257 . S
H635 C621 0.929 . S
H636 C623 0.931 . S
H637 C625 0.929 . S
O638 Tb639 2.292 . S
O638 C641 1.255 . S
Tb639 O638 2.292 . S
Tb639 O655 2.326 . S
Tb639 O657 2.500 . S
Tb639 O658 2.473 . S
Tb639 O661 2.324 . S
Eu640 O644 2.292 1_655 S
Eu640 C645 2.852 . S
Eu640 O656 2.324 . S
Eu640 O660 2.326 . S
Eu640 O662 2.500 1_655 S
Eu640 O663 2.473 . S
C641 O638 1.255 . S
C641 O642 1.247 . S
O642 C641 1.247 . S
C643 O655 1.242 . S
C643 O656 1.258 . S
O644 Eu640 2.292 1_455 S
O644 C646 1.255 . S
C645 Eu640 2.852 . S
C645 C649 1.503 . S
C645 O662 1.273 1_655 S
C645 O663 1.257 . S
C646 O644 1.255 . S
C646 O647 1.247 1_455 S
O647 C646 1.247 1_655 S
C648 O660 1.242 . S
C648 O661 1.258 . S
C649 C645 1.503 . S
C649 C650 1.379 . S
C649 C654 1.366 1_655 S
C650 C649 1.379 . S
C650 C651 1.404 . S
C650 H664 0.929 . S
C651 C650 1.404 . S
C651 C652 1.389 . S
C652 C651 1.389 . S
C652 C653 1.407 . S
C652 H665 0.931 . S
C653 C652 1.407 . S
C653 C654 1.388 1_655 S
C654 C649 1.366 1_455 S
C654 C653 1.388 1_455 S
C654 H666 0.958 . S
O655 Tb639 2.326 . S
O655 C643 1.242 . S
O656 Eu640 2.324 . S
O656 C643 1.258 . S
O657 Tb639 2.500 . S
O657 C659 1.273 . S
O658 Tb639 2.473 . S
O658 C659 1.257 . S
C659 O657 1.273 . S
C659 O658 1.257 . S
O660 Eu640 2.326 . S
O660 C648 1.242 . S
O661 Tb639 2.324 . S
O661 C648 1.258 . S
O662 Eu640 2.500 1_455 S
O662 C645 1.273 1_455 S
O663 Eu640 2.473 . S
O663 C645 1.257 . S
H664 C650 0.929 . S
H665 C652 0.931 . S
H666 C654 0.958 . S
O667 Tb668 2.292 . S
O667 C670 1.255 . S
Tb668 O667 2.292 . S
Tb668 O684 2.326 . S
Tb668 O686 2.500 . S
Tb668 O687 2.473 . S
Tb668 O690 2.324 . S
Eu669 O673 2.292 1_455 S
Eu669 C674 2.852 . S
Eu669 O685 2.324 . S
Eu669 O689 2.326 . S
Eu669 O691 2.500 1_455 S
Eu669 O692 2.473 . S
C670 O667 1.255 . S
C670 O671 1.247 . S
O671 C670 1.247 . S
C672 O684 1.242 . S
C672 O685 1.258 . S
O673 Eu669 2.292 1_655 S
O673 C675 1.255 . S
C674 Eu669 2.852 . S
C674 C678 1.503 . S
C674 O691 1.273 1_455 S
C674 O692 1.257 . S
C675 O673 1.255 . S
C675 O676 1.247 1_655 S
O676 C675 1.247 1_455 S
C677 O689 1.242 . S
C677 O690 1.258 . S
C678 C674 1.503 . S
C678 C679 1.379 . S
C678 C683 1.366 1_455 S
C679 C678 1.379 . S
C679 C680 1.404 . S
C679 H693 0.929 . S
C680 C679 1.404 . S
C680 C681 1.389 . S
C681 C680 1.389 . S
C681 C682 1.407 . S
C681 H694 0.931 . S
C682 C681 1.407 . S
C682 C683 1.388 1_455 S
C683 C678 1.366 1_655 S
C683 C682 1.388 1_655 S
C683 H695 0.958 . S
O684 Tb668 2.326 . S
O684 C672 1.242 . S
O685 Eu669 2.324 . S
O685 C672 1.258 . S
O686 Tb668 2.500 . S
O686 C688 1.273 . S
O687 Tb668 2.473 . S
O687 C688 1.257 . S
C688 O686 1.273 . S
C688 O687 1.257 . S
O689 Eu669 2.326 . S
O689 C677 1.242 . S
O690 Tb668 2.324 . S
O690 C677 1.258 . S
O691 Eu669 2.500 1_655 S
O691 C674 1.273 1_655 S
O692 Eu669 2.473 . S
O692 C674 1.257 . S
H693 C679 0.929 . S
H694 C681 0.931 . S
H695 C683 0.958 . S
O696 Tb697 2.292 . S
O696 C699 1.255 . S
Tb697 O696 2.292 . S
Tb697 O713 2.326 . S
Tb697 O715 2.500 . S
Tb697 O716 2.473 . S
Tb697 O719 2.324 . S
Eu698 O702 2.292 . S
Eu698 C703 2.852 . S
Eu698 O714 2.324 . S
Eu698 O718 2.326 . S
Eu698 O720 2.500 . S
Eu698 O721 2.473 . S
C699 O696 1.255 . S
C699 O700 1.247 . S
O700 C699 1.247 . S
C701 O713 1.242 . S
C701 O714 1.258 . S
O702 Eu698 2.292 . S
O702 C704 1.255 . S
C703 Eu698 2.852 . S
C703 C707 1.503 . S
C703 O720 1.273 . S
C703 O721 1.257 . S
C704 O702 1.255 . S
C704 O705 1.247 . S
O705 C704 1.247 . S
C706 O718 1.242 . S
C706 O719 1.258 . S
C707 C703 1.503 . S
C707 C708 1.379 . S
C707 C712 1.392 . S
C708 C707 1.379 . S
C708 C709 1.404 . S
C708 H722 0.929 . S
C709 C708 1.404 . S
C709 C710 1.389 . S
C710 C709 1.389 . S
C710 C711 1.399 . S
C710 H723 0.931 . S
C711 C710 1.399 . S
C711 C712 1.390 . S
C712 C707 1.392 . S
C712 C711 1.390 . S
C712 H724 0.929 . S
O713 Tb697 2.326 . S
O713 C701 1.242 . S
O714 Eu698 2.324 . S
O714 C701 1.258 . S
O715 Tb697 2.500 . S
O715 C717 1.273 . S
O716 Tb697 2.473 . S
O716 C717 1.257 . S
C717 O715 1.273 . S
C717 O716 1.257 . S
O718 Eu698 2.326 . S
O718 C706 1.242 . S
O719 Tb697 2.324 . S
O719 C706 1.258 . S
O720 Eu698 2.500 . S
O720 C703 1.273 . S
O721 Eu698 2.473 . S
O721 C703 1.257 . S
H722 C708 0.929 . S
H723 C710 0.931 . S
H724 C712 0.929 . S
O725 Tb726 2.292 . S
O725 C728 1.255 . S
Tb726 O725 2.292 . S
Tb726 O742 2.326 . S
Tb726 O744 2.500 . S
Tb726 O745 2.473 . S
Tb726 O748 2.324 . S
Eu727 O731 2.292 . S
Eu727 C732 2.852 . S
Eu727 O743 2.324 . S
Eu727 O747 2.326 . S
Eu727 O749 2.500 . S
Eu727 O750 2.473 . S
C728 O725 1.255 . S
C728 O729 1.247 . S
O729 C728 1.247 . S
C730 O742 1.242 . S
C730 O743 1.258 . S
O731 Eu727 2.292 . S
O731 C733 1.255 . S
C732 Eu727 2.852 . S
C732 C736 1.503 . S
C732 O749 1.273 . S
C732 O750 1.257 . S
C733 O731 1.255 . S
C733 O734 1.247 . S
O734 C733 1.247 . S
C735 O747 1.242 . S
C735 O748 1.258 . S
C736 C732 1.503 . S
C736 C737 1.379 . S
C736 C741 1.392 . S
C737 C736 1.379 . S
C737 C738 1.404 . S
C737 H751 0.929 . S
C738 C737 1.404 . S
C738 C739 1.389 . S
C739 C738 1.389 . S
C739 C740 1.399 . S
C739 H752 0.931 . S
C740 C739 1.399 . S
C740 C741 1.390 . S
C741 C736 1.392 . S
C741 C740 1.390 . S
C741 H753 0.929 . S
O742 Tb726 2.326 . S
O742 C730 1.242 . S
O743 Eu727 2.324 . S
O743 C730 1.258 . S
O744 Tb726 2.500 . S
O744 C746 1.273 . S
O745 Tb726 2.473 . S
O745 C746 1.257 . S
C746 O744 1.273 . S
C746 O745 1.257 . S
O747 Eu727 2.326 . S
O747 C735 1.242 . S
O748 Tb726 2.324 . S
O748 C735 1.258 . S
O749 Eu727 2.500 . S
O749 C732 1.273 . S
O750 Eu727 2.473 . S
O750 C732 1.257 . S
H751 C737 0.929 . S
H752 C739 0.931 . S
H753 C741 0.929 . S
O754 Tb755 2.292 . S
O754 C757 1.255 . S
Tb755 O754 2.292 . S
Tb755 O771 2.326 . S
Tb755 O773 2.500 . S
Tb755 O774 2.473 . S
Tb755 O777 2.324 . S
Eu756 O760 2.292 . S
Eu756 C761 2.852 . S
Eu756 O772 2.324 . S
Eu756 O776 2.326 . S
Eu756 O778 2.500 . S
Eu756 O779 2.473 . S
C757 O754 1.255 . S
C757 O758 1.247 . S
O758 C757 1.247 . S
C759 O771 1.242 . S
C759 O772 1.258 . S
O760 Eu756 2.292 . S
O760 C762 1.255 . S
C761 Eu756 2.852 . S
C761 C765 1.503 . S
C761 O778 1.273 . S
C761 O779 1.257 . S
C762 O760 1.255 . S
C762 O763 1.247 . S
O763 C762 1.247 . S
C764 O776 1.242 . S
C764 O777 1.258 . S
C765 C761 1.503 . S
C765 C766 1.379 . S
C765 C770 1.392 . S
C766 C765 1.379 . S
C766 C767 1.404 . S
C766 H780 0.929 . S
C767 C766 1.404 . S
C767 C768 1.389 . S
C768 C767 1.389 . S
C768 C769 1.399 . S
C768 H781 0.931 . S
C769 C768 1.399 . S
C769 C770 1.390 . S
C770 C765 1.392 . S
C770 C769 1.390 . S
C770 H782 0.929 . S
O771 Tb755 2.326 . S
O771 C759 1.242 . S
O772 Eu756 2.324 . S
O772 C759 1.258 . S
O773 Tb755 2.500 . S
O773 C775 1.273 . S
O774 Tb755 2.473 . S
O774 C775 1.257 . S
C775 O773 1.273 . S
C775 O774 1.257 . S
O776 Eu756 2.326 . S
O776 C764 1.242 . S
O777 Tb755 2.324 . S
O777 C764 1.258 . S
O778 Eu756 2.500 . S
O778 C761 1.273 . S
O779 Eu756 2.473 . S
O779 C761 1.257 . S
H780 C766 0.929 . S
H781 C768 0.931 . S
H782 C770 0.929 . S
O783 Tb784 2.292 . S
O783 C786 1.255 . S
Tb784 O783 2.292 . S
Tb784 O800 2.326 . S
Tb784 O802 2.500 . S
Tb784 O803 2.473 . S
Tb784 O806 2.324 . S
Eu785 O789 2.292 . S
Eu785 C790 2.852 . S
Eu785 O801 2.324 . S
Eu785 O805 2.326 . S
Eu785 O807 2.500 . S
Eu785 O808 2.473 . S
C786 O783 1.255 . S
C786 O787 1.247 . S
O787 C786 1.247 . S
C788 O800 1.242 . S
C788 O801 1.258 . S
O789 Eu785 2.292 . S
O789 C791 1.255 . S
C790 Eu785 2.852 . S
C790 C794 1.503 . S
C790 O807 1.273 . S
C790 O808 1.257 . S
C791 O789 1.255 . S
C791 O792 1.247 . S
O792 C791 1.247 . S
C793 O805 1.242 . S
C793 O806 1.258 . S
C794 C790 1.503 . S
C794 C795 1.379 . S
C794 C799 1.392 . S
C795 C794 1.379 . S
C795 C796 1.404 . S
C795 H809 0.929 . S
C796 C795 1.404 . S
C796 C797 1.389 . S
C797 C796 1.389 . S
C797 C798 1.399 . S
C797 H810 0.931 . S
C798 C797 1.399 . S
C798 C799 1.390 . S
C799 C794 1.392 . S
C799 C798 1.390 . S
C799 H811 0.929 . S
O800 Tb784 2.326 . S
O800 C788 1.242 . S
O801 Eu785 2.324 . S
O801 C788 1.258 . S
O802 Tb784 2.500 . S
O802 C804 1.273 . S
O803 Tb784 2.473 . S
O803 C804 1.257 . S
C804 O802 1.273 . S
C804 O803 1.257 . S
O805 Eu785 2.326 . S
O805 C793 1.242 . S
O806 Tb784 2.324 . S
O806 C793 1.258 . S
O807 Eu785 2.500 . S
O807 C790 1.273 . S
O808 Eu785 2.473 . S
O808 C790 1.257 . S
H809 C795 0.929 . S
H810 C797 0.931 . S
H811 C799 0.929 . S
O812 Tb813 2.292 . S
O812 C815 1.255 . S
Tb813 O812 2.292 . S
Tb813 O829 2.326 . S
Tb813 O831 2.500 . S
Tb813 O832 2.473 . S
Tb813 O835 2.324 . S
Eu814 O818 2.292 . S
Eu814 C819 2.852 . S
Eu814 O830 2.324 . S
Eu814 O834 2.326 . S
Eu814 O836 2.500 . S
Eu814 O837 2.473 . S
C815 O812 1.255 . S
C815 O816 1.247 . S
O816 C815 1.247 . S
C817 O829 1.242 . S
C817 O830 1.258 . S
O818 Eu814 2.292 . S
O818 C820 1.255 . S
C819 Eu814 2.852 . S
C819 C823 1.503 . S
C819 O836 1.273 . S
C819 O837 1.257 . S
C820 O818 1.255 . S
C820 O821 1.247 . S
O821 C820 1.247 . S
C822 O834 1.242 . S
C822 O835 1.258 . S
C823 C819 1.503 . S
C823 C824 1.379 . S
C823 C828 1.392 . S
C824 C823 1.379 . S
C824 C825 1.404 . S
C824 H838 0.929 . S
C825 C824 1.404 . S
C825 C826 1.389 . S
C826 C825 1.389 . S
C826 C827 1.399 . S
C826 H839 0.931 . S
C827 C826 1.399 . S
C827 C828 1.390 . S
C828 C823 1.392 . S
C828 C827 1.390 . S
C828 H840 0.929 . S
O829 Tb813 2.326 . S
O829 C817 1.242 . S
O830 Eu814 2.324 . S
O830 C817 1.258 . S
O831 Tb813 2.500 . S
O831 C833 1.273 . S
O832 Tb813 2.473 . S
O832 C833 1.257 . S
C833 O831 1.273 . S
C833 O832 1.257 . S
O834 Eu814 2.326 . S
O834 C822 1.242 . S
O835 Tb813 2.324 . S
O835 C822 1.258 . S
O836 Eu814 2.500 . S
O836 C819 1.273 . S
O837 Eu814 2.473 . S
O837 C819 1.257 . S
H838 C824 0.929 . S
H839 C826 0.931 . S
H840 C828 0.929 . S
O841 Tb842 2.292 . S
O841 C844 1.255 . S
Tb842 O841 2.292 . S
Tb842 O858 2.326 . S
Tb842 O860 2.500 . S
Tb842 O861 2.473 . S
Tb842 O864 2.324 . S
Eu843 O847 2.292 . S
Eu843 C848 2.852 . S
Eu843 O859 2.324 . S
Eu843 O863 2.326 . S
Eu843 O865 2.500 . S
Eu843 O866 2.473 . S
C844 O841 1.255 . S
C844 O845 1.247 . S
O845 C844 1.247 . S
C846 O858 1.242 . S
C846 O859 1.258 . S
O847 Eu843 2.292 . S
O847 C849 1.255 . S
C848 Eu843 2.852 . S
C848 C852 1.503 . S
C848 O865 1.273 . S
C848 O866 1.257 . S
C849 O847 1.255 . S
C849 O850 1.247 . S
O850 C849 1.247 . S
C851 O863 1.242 . S
C851 O864 1.258 . S
C852 C848 1.503 . S
C852 C853 1.379 . S
C852 C857 1.392 . S
C853 C852 1.379 . S
C853 C854 1.404 . S
C853 H867 0.929 . S
C854 C853 1.404 . S
C854 C855 1.389 . S
C855 C854 1.389 . S
C855 C856 1.399 . S
C855 H868 0.931 . S
C856 C855 1.399 . S
C856 C857 1.390 . S
C857 C852 1.392 . S
C857 C856 1.390 . S
C857 H869 0.929 . S
O858 Tb842 2.326 . S
O858 C846 1.242 . S
O859 Eu843 2.324 . S
O859 C846 1.258 . S
O860 Tb842 2.500 . S
O860 C862 1.273 . S
O861 Tb842 2.473 . S
O861 C862 1.257 . S
C862 O860 1.273 . S
C862 O861 1.257 . S
O863 Eu843 2.326 . S
O863 C851 1.242 . S
O864 Tb842 2.324 . S
O864 C851 1.258 . S
O865 Eu843 2.500 . S
O865 C848 1.273 . S
O866 Eu843 2.473 . S
O866 C848 1.257 . S
H867 C853 0.929 . S
H868 C855 0.931 . S
H869 C857 0.929 . S
O870 Tb871 2.292 . S
O870 C873 1.255 . S
Tb871 O870 2.292 . S
Tb871 O887 2.326 . S
Tb871 O889 2.500 . S
Tb871 O890 2.473 . S
Tb871 O893 2.324 . S
Eu872 O876 2.292 . S
Eu872 C877 2.852 . S
Eu872 O888 2.324 . S
Eu872 O892 2.326 . S
Eu872 O894 2.500 . S
Eu872 O895 2.473 . S
C873 O870 1.255 . S
C873 O874 1.247 . S
O874 C873 1.247 . S
C875 O887 1.242 . S
C875 O888 1.258 . S
O876 Eu872 2.292 . S
O876 C878 1.255 . S
C877 Eu872 2.852 . S
C877 C881 1.503 . S
C877 O894 1.273 . S
C877 O895 1.257 . S
C878 O876 1.255 . S
C878 O879 1.247 . S
O879 C878 1.247 . S
C880 O892 1.242 . S
C880 O893 1.258 . S
C881 C877 1.503 . S
C881 C882 1.379 . S
C881 C886 1.392 . S
C882 C881 1.379 . S
C882 C883 1.404 . S
C882 H896 0.929 . S
C883 C882 1.404 . S
C883 C884 1.389 . S
C884 C883 1.389 . S
C884 C885 1.399 . S
C884 H897 0.931 . S
C885 C884 1.399 . S
C885 C886 1.390 . S
C886 C881 1.392 . S
C886 C885 1.390 . S
C886 H898 0.929 . S
O887 Tb871 2.326 . S
O887 C875 1.242 . S
O888 Eu872 2.324 . S
O888 C875 1.258 . S
O889 Tb871 2.500 . S
O889 C891 1.273 . S
O890 Tb871 2.473 . S
O890 C891 1.257 . S
C891 O889 1.273 . S
C891 O890 1.257 . S
O892 Eu872 2.326 . S
O892 C880 1.242 . S
O893 Tb871 2.324 . S
O893 C880 1.258 . S
O894 Eu872 2.500 . S
O894 C877 1.273 . S
O895 Eu872 2.473 . S
O895 C877 1.257 . S
H896 C882 0.929 . S
H897 C884 0.931 . S
H898 C886 0.929 . S
O899 Tb900 2.292 . S
O899 C902 1.255 . S
Tb900 O899 2.292 . S
Tb900 O916 2.326 . S
Tb900 O918 2.500 . S
Tb900 O919 2.473 . S
Tb900 O922 2.324 . S
Eu901 O905 2.292 . S
Eu901 C906 2.852 . S
Eu901 O917 2.324 . S
Eu901 O921 2.326 . S
Eu901 O923 2.500 . S
Eu901 O924 2.473 . S
C902 O899 1.255 . S
C902 O903 1.247 . S
O903 C902 1.247 . S
C904 O916 1.242 . S
C904 O917 1.258 . S
O905 Eu901 2.292 . S
O905 C907 1.255 . S
C906 Eu901 2.852 . S
C906 C910 1.503 . S
C906 O923 1.273 . S
C906 O924 1.257 . S
C907 O905 1.255 . S
C907 O908 1.247 . S
O908 C907 1.247 . S
C909 O921 1.242 . S
C909 O922 1.258 . S
C910 C906 1.503 . S
C910 C911 1.379 . S
C910 C915 1.392 . S
C911 C910 1.379 . S
C911 C912 1.404 . S
C911 H925 0.929 . S
C912 C911 1.404 . S
C912 C913 1.389 . S
C913 C912 1.389 . S
C913 C914 1.399 . S
C913 H926 0.931 . S
C914 C913 1.399 . S
C914 C915 1.390 . S
C915 C910 1.392 . S
C915 C914 1.390 . S
C915 H927 0.929 . S
O916 Tb900 2.326 . S
O916 C904 1.242 . S
O917 Eu901 2.324 . S
O917 C904 1.258 . S
O918 Tb900 2.500 . S
O918 C920 1.273 . S
O919 Tb900 2.473 . S
O919 C920 1.257 . S
C920 O918 1.273 . S
C920 O919 1.257 . S
O921 Eu901 2.326 . S
O921 C909 1.242 . S
O922 Tb900 2.324 . S
O922 C909 1.258 . S
O923 Eu901 2.500 . S
O923 C906 1.273 . S
O924 Eu901 2.473 . S
O924 C906 1.257 . S
H925 C911 0.929 . S
H926 C913 0.931 . S
H927 C915 0.929 . S
O928 Tb929 2.292 . S
O928 C931 1.255 . S
Tb929 O928 2.292 . S
Tb929 O945 2.326 . S
Tb929 O947 2.500 . S
Tb929 O948 2.473 . S
Tb929 O951 2.324 . S
Eu930 O934 2.292 . S
Eu930 C935 2.852 . S
Eu930 O946 2.324 . S
Eu930 O950 2.326 . S
Eu930 O952 2.500 . S
Eu930 O953 2.473 . S
C931 O928 1.255 . S
C931 O932 1.247 . S
O932 C931 1.247 . S
C933 O945 1.242 . S
C933 O946 1.258 . S
O934 Eu930 2.292 . S
O934 C936 1.255 . S
C935 Eu930 2.852 . S
C935 C939 1.503 . S
C935 O952 1.273 . S
C935 O953 1.257 . S
C936 O934 1.255 . S
C936 O937 1.247 . S
O937 C936 1.247 . S
C938 O950 1.242 . S
C938 O951 1.258 . S
C939 C935 1.503 . S
C939 C940 1.379 . S
C939 C944 1.392 . S
C940 C939 1.379 . S
C940 C941 1.404 . S
C940 H954 0.929 . S
C941 C940 1.404 . S
C941 C942 1.389 . S
C942 C941 1.389 . S
C942 C943 1.399 . S
C942 H955 0.931 . S
C943 C942 1.399 . S
C943 C944 1.390 . S
C944 C939 1.392 . S
C944 C943 1.390 . S
C944 H956 0.929 . S
O945 Tb929 2.326 . S
O945 C933 1.242 . S
O946 Eu930 2.324 . S
O946 C933 1.258 . S
O947 Tb929 2.500 . S
O947 C949 1.273 . S
O948 Tb929 2.473 . S
O948 C949 1.257 . S
C949 O947 1.273 . S
C949 O948 1.257 . S
O950 Eu930 2.326 . S
O950 C938 1.242 . S
O951 Tb929 2.324 . S
O951 C938 1.258 . S
O952 Eu930 2.500 . S
O952 C935 1.273 . S
O953 Eu930 2.473 . S
O953 C935 1.257 . S
H954 C940 0.929 . S
H955 C942 0.931 . S
H956 C944 0.929 . S
O957 Tb958 2.292 . S
O957 C960 1.255 . S
Tb958 O957 2.292 . S
Tb958 O974 2.326 . S
Tb958 O976 2.500 . S
Tb958 O977 2.473 . S
Tb958 O980 2.324 . S
Eu959 O963 2.292 1_565 S
Eu959 C964 2.852 . S
Eu959 O975 2.324 . S
Eu959 O979 2.326 . S
Eu959 O981 2.500 1_565 S
Eu959 O982 2.473 . S
C960 O957 1.255 . S
C960 O961 1.247 . S
O961 C960 1.247 . S
C962 O974 1.242 . S
C962 O975 1.258 . S
O963 Eu959 2.292 1_545 S
O963 C965 1.255 . S
C964 Eu959 2.852 . S
C964 C968 1.503 . S
C964 O981 1.273 1_565 S
C964 O982 1.257 . S
C965 O963 1.255 . S
C965 O966 1.247 1_545 S
O966 C965 1.247 1_565 S
C967 O979 1.242 . S
C967 O980 1.258 . S
C968 C964 1.503 . S
C968 C969 1.379 . S
C968 C973 1.366 1_565 S
C969 C968 1.379 . S
C969 C970 1.404 . S
C969 H983 0.929 . S
C970 C969 1.404 . S
C970 C971 1.389 . S
C971 C970 1.389 . S
C971 C972 1.407 . S
C971 H984 0.931 . S
C972 C971 1.407 . S
C972 C973 1.388 1_565 S
C973 C968 1.366 1_545 S
C973 C972 1.388 1_545 S
C973 H985 0.958 . S
O974 Tb958 2.326 . S
O974 C962 1.242 . S
O975 Eu959 2.324 . S
O975 C962 1.258 . S
O976 Tb958 2.500 . S
O976 C978 1.273 . S
O977 Tb958 2.473 . S
O977 C978 1.257 . S
C978 O976 1.273 . S
C978 O977 1.257 . S
O979 Eu959 2.326 . S
O979 C967 1.242 . S
O980 Tb958 2.324 . S
O980 C967 1.258 . S
O981 Eu959 2.500 1_545 S
O981 C964 1.273 1_545 S
O982 Eu959 2.473 . S
O982 C964 1.257 . S
H983 C969 0.929 . S
H984 C971 0.931 . S
H985 C973 0.958 . S
O986 Tb987 2.292 . S
O986 C989 1.255 . S
Tb987 O986 2.292 . S
Tb987 O1003 2.326 . S
Tb987 O1005 2.500 . S
Tb987 O1006 2.473 . S
Tb987 O1009 2.324 . S
Eu988 O992 2.292 . S
Eu988 C993 2.852 . S
Eu988 O1004 2.324 . S
Eu988 O1008 2.326 . S
Eu988 O1010 2.500 . S
Eu988 O1011 2.473 . S
C989 O986 1.255 . S
C989 O990 1.247 . S
O990 C989 1.247 . S
C991 O1003 1.242 . S
C991 O1004 1.258 . S
O992 Eu988 2.292 . S
O992 C994 1.255 . S
C993 Eu988 2.852 . S
C993 C997 1.503 . S
C993 O1010 1.273 . S
C993 O1011 1.257 . S
C994 O992 1.255 . S
C994 O995 1.247 . S
O995 C994 1.247 . S
C996 O1008 1.242 . S
C996 O1009 1.258 . S
C997 C993 1.503 . S
C997 C998 1.379 . S
C997 C1002 1.392 . S
C998 C997 1.379 . S
C998 C999 1.404 . S
C998 H1012 0.929 . S
C999 C998 1.404 . S
C999 C1000 1.389 . S
C1000 C999 1.389 . S
C1000 C1001 1.399 . S
C1000 H1013 0.931 . S
C1001 C1000 1.399 . S
C1001 C1002 1.390 . S
C1002 C997 1.392 . S
C1002 C1001 1.390 . S
C1002 H1014 0.929 . S
O1003 Tb987 2.326 . S
O1003 C991 1.242 . S
O1004 Eu988 2.324 . S
O1004 C991 1.258 . S
O1005 Tb987 2.500 . S
O1005 C1007 1.273 . S
O1006 Tb987 2.473 . S
O1006 C1007 1.257 . S
C1007 O1005 1.273 . S
C1007 O1006 1.257 . S
O1008 Eu988 2.326 . S
O1008 C996 1.242 . S
O1009 Tb987 2.324 . S
O1009 C996 1.258 . S
O1010 Eu988 2.500 . S
O1010 C993 1.273 . S
O1011 Eu988 2.473 . S
O1011 C993 1.257 . S
H1012 C998 0.929 . S
H1013 C1000 0.931 . S
H1014 C1002 0.929 . S
O1015 Tb1016 2.292 . S
O1015 C1018 1.255 . S
Tb1016 O1015 2.292 . S
Tb1016 O1032 2.326 . S
Tb1016 O1034 2.500 . S
Tb1016 O1035 2.473 . S
Tb1016 O1038 2.324 . S
Eu1017 O1021 2.292 . S
Eu1017 C1022 2.852 . S
Eu1017 O1033 2.324 . S
Eu1017 O1037 2.326 . S
Eu1017 O1039 2.500 . S
Eu1017 O1040 2.473 . S
C1018 O1015 1.255 . S
C1018 O1019 1.247 . S
O1019 C1018 1.247 . S
C1020 O1032 1.242 . S
C1020 O1033 1.258 . S
O1021 Eu1017 2.292 . S
O1021 C1023 1.255 . S
C1022 Eu1017 2.852 . S
C1022 C1026 1.503 . S
C1022 O1039 1.273 . S
C1022 O1040 1.257 . S
C1023 O1021 1.255 . S
C1023 O1024 1.247 . S
O1024 C1023 1.247 . S
C1025 O1037 1.242 . S
C1025 O1038 1.258 . S
C1026 C1022 1.503 . S
C1026 C1027 1.379 . S
C1026 C1031 1.392 . S
C1027 C1026 1.379 . S
C1027 C1028 1.404 . S
C1027 H1041 0.929 . S
C1028 C1027 1.404 . S
C1028 C1029 1.389 . S
C1029 C1028 1.389 . S
C1029 C1030 1.399 . S
C1029 H1042 0.931 . S
C1030 C1029 1.399 . S
C1030 C1031 1.390 . S
C1031 C1026 1.392 . S
C1031 C1030 1.390 . S
C1031 H1043 0.929 . S
O1032 Tb1016 2.326 . S
O1032 C1020 1.242 . S
O1033 Eu1017 2.324 . S
O1033 C1020 1.258 . S
O1034 Tb1016 2.500 . S
O1034 C1036 1.273 . S
O1035 Tb1016 2.473 . S
O1035 C1036 1.257 . S
C1036 O1034 1.273 . S
C1036 O1035 1.257 . S
O1037 Eu1017 2.326 . S
O1037 C1025 1.242 . S
O1038 Tb1016 2.324 . S
O1038 C1025 1.258 . S
O1039 Eu1017 2.500 . S
O1039 C1022 1.273 . S
O1040 Eu1017 2.473 . S
O1040 C1022 1.257 . S
H1041 C1027 0.929 . S
H1042 C1029 0.931 . S
H1043 C1031 0.929 . S
O1044 Tb1045 2.292 . S
O1044 C1047 1.255 . S
Tb1045 O1044 2.292 . S
Tb1045 O1061 2.326 . S
Tb1045 O1063 2.500 . S
Tb1045 O1064 2.473 . S
Tb1045 O1067 2.324 . S
Eu1046 O1050 2.292 . S
Eu1046 C1051 2.852 . S
Eu1046 O1062 2.324 . S
Eu1046 O1066 2.326 . S
Eu1046 O1068 2.500 . S
Eu1046 O1069 2.473 . S
C1047 O1044 1.255 . S
C1047 O1048 1.247 . S
O1048 C1047 1.247 . S
C1049 O1061 1.242 . S
C1049 O1062 1.258 . S
O1050 Eu1046 2.292 . S
O1050 C1052 1.255 . S
C1051 Eu1046 2.852 . S
C1051 C1055 1.503 . S
C1051 O1068 1.273 . S
C1051 O1069 1.257 . S
C1052 O1050 1.255 . S
C1052 O1053 1.247 . S
O1053 C1052 1.247 . S
C1054 O1066 1.242 . S
C1054 O1067 1.258 . S
C1055 C1051 1.503 . S
C1055 C1056 1.379 . S
C1055 C1060 1.392 . S
C1056 C1055 1.379 . S
C1056 C1057 1.404 . S
C1056 H1070 0.929 . S
C1057 C1056 1.404 . S
C1057 C1058 1.389 . S
C1058 C1057 1.389 . S
C1058 C1059 1.399 . S
C1058 H1071 0.931 . S
C1059 C1058 1.399 . S
C1059 C1060 1.390 . S
C1060 C1055 1.392 . S
C1060 C1059 1.390 . S
C1060 H1072 0.929 . S
O1061 Tb1045 2.326 . S
O1061 C1049 1.242 . S
O1062 Eu1046 2.324 . S
O1062 C1049 1.258 . S
O1063 Tb1045 2.500 . S
O1063 C1065 1.273 . S
O1064 Tb1045 2.473 . S
O1064 C1065 1.257 . S
C1065 O1063 1.273 . S
C1065 O1064 1.257 . S
O1066 Eu1046 2.326 . S
O1066 C1054 1.242 . S
O1067 Tb1045 2.324 . S
O1067 C1054 1.258 . S
O1068 Eu1046 2.500 . S
O1068 C1051 1.273 . S
O1069 Eu1046 2.473 . S
O1069 C1051 1.257 . S
H1070 C1056 0.929 . S
H1071 C1058 0.931 . S
H1072 C1060 0.929 . S
O1073 Tb1074 2.292 . S
O1073 C1076 1.255 . S
Tb1074 O1073 2.292 . S
Tb1074 O1090 2.326 . S
Tb1074 O1092 2.500 . S
Tb1074 O1093 2.473 . S
Tb1074 O1096 2.324 . S
Eu1075 O1079 2.292 1_565 S
Eu1075 C1080 2.852 . S
Eu1075 O1091 2.324 . S
Eu1075 O1095 2.326 . S
Eu1075 O1097 2.500 1_565 S
Eu1075 O1098 2.473 . S
C1076 O1073 1.255 . S
C1076 O1077 1.247 . S
O1077 C1076 1.247 . S
C1078 O1090 1.242 . S
C1078 O1091 1.258 . S
O1079 Eu1075 2.292 1_545 S
O1079 C1081 1.255 . S
C1080 Eu1075 2.852 . S
C1080 C1084 1.503 . S
C1080 O1097 1.273 1_565 S
C1080 O1098 1.257 . S
C1081 O1079 1.255 . S
C1081 O1082 1.247 1_545 S
O1082 C1081 1.247 1_565 S
C1083 O1095 1.242 . S
C1083 O1096 1.258 . S
C1084 C1080 1.503 . S
C1084 C1085 1.379 . S
C1084 C1089 1.366 1_565 S
C1085 C1084 1.379 . S
C1085 C1086 1.404 . S
C1085 H1099 0.929 . S
C1086 C1085 1.404 . S
C1086 C1087 1.389 . S
C1087 C1086 1.389 . S
C1087 C1088 1.407 . S
C1087 H1100 0.931 . S
C1088 C1087 1.407 . S
C1088 C1089 1.388 1_565 S
C1089 C1084 1.366 1_545 S
C1089 C1088 1.388 1_545 S
C1089 H1101 0.958 . S
O1090 Tb1074 2.326 . S
O1090 C1078 1.242 . S
O1091 Eu1075 2.324 . S
O1091 C1078 1.258 . S
O1092 Tb1074 2.500 . S
O1092 C1094 1.273 . S
O1093 Tb1074 2.473 . S
O1093 C1094 1.257 . S
C1094 O1092 1.273 . S
C1094 O1093 1.257 . S
O1095 Eu1075 2.326 . S
O1095 C1083 1.242 . S
O1096 Tb1074 2.324 . S
O1096 C1083 1.258 . S
O1097 Eu1075 2.500 1_545 S
O1097 C1080 1.273 1_545 S
O1098 Eu1075 2.473 . S
O1098 C1080 1.257 . S
H1099 C1085 0.929 . S
H1100 C1087 0.931 . S
H1101 C1089 0.958 . S
O1102 Tb1103 2.292 . S
O1102 C1105 1.255 . S
Tb1103 O1102 2.292 . S
Tb1103 O1119 2.326 . S
Tb1103 O1121 2.500 . S
Tb1103 O1122 2.473 . S
Tb1103 O1125 2.324 . S
Eu1104 O1108 2.292 . S
Eu1104 C1109 2.852 . S
Eu1104 O1120 2.324 . S
Eu1104 O1124 2.326 . S
Eu1104 O1126 2.500 . S
Eu1104 O1127 2.473 . S
C1105 O1102 1.255 . S
C1105 O1106 1.247 . S
O1106 C1105 1.247 . S
C1107 O1119 1.242 . S
C1107 O1120 1.258 . S
O1108 Eu1104 2.292 . S
O1108 C1110 1.255 . S
C1109 Eu1104 2.852 . S
C1109 C1113 1.503 . S
C1109 O1126 1.273 . S
C1109 O1127 1.257 . S
C1110 O1108 1.255 . S
C1110 O1111 1.247 . S
O1111 C1110 1.247 . S
C1112 O1124 1.242 . S
C1112 O1125 1.258 . S
C1113 C1109 1.503 . S
C1113 C1114 1.379 . S
C1113 C1118 1.392 . S
C1114 C1113 1.379 . S
C1114 C1115 1.404 . S
C1114 H1128 0.929 . S
C1115 C1114 1.404 . S
C1115 C1116 1.389 . S
C1116 C1115 1.389 . S
C1116 C1117 1.399 . S
C1116 H1129 0.931 . S
C1117 C1116 1.399 . S
C1117 C1118 1.390 . S
C1118 C1113 1.392 . S
C1118 C1117 1.390 . S
C1118 H1130 0.929 . S
O1119 Tb1103 2.326 . S
O1119 C1107 1.242 . S
O1120 Eu1104 2.324 . S
O1120 C1107 1.258 . S
O1121 Tb1103 2.500 . S
O1121 C1123 1.273 . S
O1122 Tb1103 2.473 . S
O1122 C1123 1.257 . S
C1123 O1121 1.273 . S
C1123 O1122 1.257 . S
O1124 Eu1104 2.326 . S
O1124 C1112 1.242 . S
O1125 Tb1103 2.324 . S
O1125 C1112 1.258 . S
O1126 Eu1104 2.500 . S
O1126 C1109 1.273 . S
O1127 Eu1104 2.473 . S
O1127 C1109 1.257 . S
H1128 C1114 0.929 . S
H1129 C1116 0.931 . S
H1130 C1118 0.929 . S
O1131 Tb1132 2.292 . S
O1131 C1134 1.255 . S
Tb1132 O1131 2.292 . S
Tb1132 O1148 2.326 . S
Tb1132 O1150 2.500 . S
Tb1132 O1151 2.473 . S
Tb1132 O1154 2.324 . S
Eu1133 O1137 2.292 . S
Eu1133 C1138 2.852 . S
Eu1133 O1149 2.324 . S
Eu1133 O1153 2.326 . S
Eu1133 O1155 2.500 . S
Eu1133 O1156 2.473 . S
C1134 O1131 1.255 . S
C1134 O1135 1.247 . S
O1135 C1134 1.247 . S
C1136 O1148 1.242 . S
C1136 O1149 1.258 . S
O1137 Eu1133 2.292 . S
O1137 C1139 1.255 . S
C1138 Eu1133 2.852 . S
C1138 C1142 1.503 . S
C1138 O1155 1.273 . S
C1138 O1156 1.257 . S
C1139 O1137 1.255 . S
C1139 O1140 1.247 . S
O1140 C1139 1.247 . S
C1141 O1153 1.242 . S
C1141 O1154 1.258 . S
C1142 C1138 1.503 . S
C1142 C1143 1.379 . S
C1142 C1147 1.392 . S
C1143 C1142 1.379 . S
C1143 C1144 1.404 . S
C1143 H1157 0.929 . S
C1144 C1143 1.404 . S
C1144 C1145 1.389 . S
C1145 C1144 1.389 . S
C1145 C1146 1.399 . S
C1145 H1158 0.931 . S
C1146 C1145 1.399 . S
C1146 C1147 1.390 . S
C1147 C1142 1.392 . S
C1147 C1146 1.390 . S
C1147 H1159 0.929 . S
O1148 Tb1132 2.326 . S
O1148 C1136 1.242 . S
O1149 Eu1133 2.324 . S
O1149 C1136 1.258 . S
O1150 Tb1132 2.500 . S
O1150 C1152 1.273 . S
O1151 Tb1132 2.473 . S
O1151 C1152 1.257 . S
C1152 O1150 1.273 . S
C1152 O1151 1.257 . S
O1153 Eu1133 2.326 . S
O1153 C1141 1.242 . S
O1154 Tb1132 2.324 . S
O1154 C1141 1.258 . S
O1155 Eu1133 2.500 . S
O1155 C1138 1.273 . S
O1156 Eu1133 2.473 . S
O1156 C1138 1.257 . S
H1157 C1143 0.929 . S
H1158 C1145 0.931 . S
H1159 C1147 0.929 . S
O1160 Tb1161 2.292 . S
O1160 C1163 1.255 . S
Tb1161 O1160 2.292 . S
Tb1161 O1177 2.326 . S
Tb1161 O1179 2.500 . S
Tb1161 O1180 2.473 . S
Tb1161 O1183 2.324 . S
Eu1162 O1166 2.292 . S
Eu1162 C1167 2.852 . S
Eu1162 O1178 2.324 . S
Eu1162 O1182 2.326 . S
Eu1162 O1184 2.500 . S
Eu1162 O1185 2.473 . S
C1163 O1160 1.255 . S
C1163 O1164 1.247 . S
O1164 C1163 1.247 . S
C1165 O1177 1.242 . S
C1165 O1178 1.258 . S
O1166 Eu1162 2.292 . S
O1166 C1168 1.255 . S
C1167 Eu1162 2.852 . S
C1167 C1171 1.503 . S
C1167 O1184 1.273 . S
C1167 O1185 1.257 . S
C1168 O1166 1.255 . S
C1168 O1169 1.247 . S
O1169 C1168 1.247 . S
C1170 O1182 1.242 . S
C1170 O1183 1.258 . S
C1171 C1167 1.503 . S
C1171 C1172 1.379 . S
C1171 C1176 1.392 . S
C1172 C1171 1.379 . S
C1172 C1173 1.404 . S
C1172 H1186 0.929 . S
C1173 C1172 1.404 . S
C1173 C1174 1.389 . S
C1174 C1173 1.389 . S
C1174 C1175 1.399 . S
C1174 H1187 0.931 . S
C1175 C1174 1.399 . S
C1175 C1176 1.390 . S
C1176 C1171 1.392 . S
C1176 C1175 1.390 . S
C1176 H1188 0.929 . S
O1177 Tb1161 2.326 . S
O1177 C1165 1.242 . S
O1178 Eu1162 2.324 . S
O1178 C1165 1.258 . S
O1179 Tb1161 2.500 . S
O1179 C1181 1.273 . S
O1180 Tb1161 2.473 . S
O1180 C1181 1.257 . S
C1181 O1179 1.273 . S
C1181 O1180 1.257 . S
O1182 Eu1162 2.326 . S
O1182 C1170 1.242 . S
O1183 Tb1161 2.324 . S
O1183 C1170 1.258 . S
O1184 Eu1162 2.500 . S
O1184 C1167 1.273 . S
O1185 Eu1162 2.473 . S
O1185 C1167 1.257 . S
H1186 C1172 0.929 . S
H1187 C1174 0.931 . S
H1188 C1176 0.929 . S
O1189 Tb1190 2.292 . S
O1189 C1192 1.255 . S
Tb1190 O1189 2.292 . S
Tb1190 O1206 2.326 . S
Tb1190 O1208 2.500 . S
Tb1190 O1209 2.473 . S
Tb1190 O1212 2.324 . S
Eu1191 O1195 2.292 . S
Eu1191 C1196 2.852 . S
Eu1191 O1207 2.324 . S
Eu1191 O1211 2.326 . S
Eu1191 O1213 2.500 . S
Eu1191 O1214 2.473 . S
C1192 O1189 1.255 . S
C1192 O1193 1.247 . S
O1193 C1192 1.247 . S
C1194 O1206 1.242 . S
C1194 O1207 1.258 . S
O1195 Eu1191 2.292 . S
O1195 C1197 1.255 . S
C1196 Eu1191 2.852 . S
C1196 C1200 1.503 . S
C1196 O1213 1.273 . S
C1196 O1214 1.257 . S
C1197 O1195 1.255 . S
C1197 O1198 1.247 . S
O1198 C1197 1.247 . S
C1199 O1211 1.242 . S
C1199 O1212 1.258 . S
C1200 C1196 1.503 . S
C1200 C1201 1.379 . S
C1200 C1205 1.392 . S
C1201 C1200 1.379 . S
C1201 C1202 1.404 . S
C1201 H1215 0.929 . S
C1202 C1201 1.404 . S
C1202 C1203 1.389 . S
C1203 C1202 1.389 . S
C1203 C1204 1.399 . S
C1203 H1216 0.931 . S
C1204 C1203 1.399 . S
C1204 C1205 1.390 . S
C1205 C1200 1.392 . S
C1205 C1204 1.390 . S
C1205 H1217 0.929 . S
O1206 Tb1190 2.326 . S
O1206 C1194 1.242 . S
O1207 Eu1191 2.324 . S
O1207 C1194 1.258 . S
O1208 Tb1190 2.500 . S
O1208 C1210 1.273 . S
O1209 Tb1190 2.473 . S
O1209 C1210 1.257 . S
C1210 O1208 1.273 . S
C1210 O1209 1.257 . S
O1211 Eu1191 2.326 . S
O1211 C1199 1.242 . S
O1212 Tb1190 2.324 . S
O1212 C1199 1.258 . S
O1213 Eu1191 2.500 . S
O1213 C1196 1.273 . S
O1214 Eu1191 2.473 . S
O1214 C1196 1.257 . S
H1215 C1201 0.929 . S
H1216 C1203 0.931 . S
H1217 C1205 0.929 . S
O1218 Tb1219 2.292 . S
O1218 C1221 1.255 . S
Tb1219 O1218 2.292 . S
Tb1219 O1235 2.326 . S
Tb1219 O1237 2.500 . S
Tb1219 O1238 2.473 . S
Tb1219 O1241 2.324 . S
Eu1220 O1224 2.292 . S
Eu1220 C1225 2.852 . S
Eu1220 O1236 2.324 . S
Eu1220 O1240 2.326 . S
Eu1220 O1242 2.500 . S
Eu1220 O1243 2.473 . S
C1221 O1218 1.255 . S
C1221 O1222 1.247 . S
O1222 C1221 1.247 . S
C1223 O1235 1.242 . S
C1223 O1236 1.258 . S
O1224 Eu1220 2.292 . S
O1224 C1226 1.255 . S
C1225 Eu1220 2.852 . S
C1225 C1229 1.503 . S
C1225 O1242 1.273 . S
C1225 O1243 1.257 . S
C1226 O1224 1.255 . S
C1226 O1227 1.247 . S
O1227 C1226 1.247 . S
C1228 O1240 1.242 . S
C1228 O1241 1.258 . S
C1229 C1225 1.503 . S
C1229 C1230 1.379 . S
C1229 C1234 1.392 . S
C1230 C1229 1.379 . S
C1230 C1231 1.404 . S
C1230 H1244 0.929 . S
C1231 C1230 1.404 . S
C1231 C1232 1.389 . S
C1232 C1231 1.389 . S
C1232 C1233 1.399 . S
C1232 H1245 0.931 . S
C1233 C1232 1.399 . S
C1233 C1234 1.390 . S
C1234 C1229 1.392 . S
C1234 C1233 1.390 . S
C1234 H1246 0.929 . S
O1235 Tb1219 2.326 . S
O1235 C1223 1.242 . S
O1236 Eu1220 2.324 . S
O1236 C1223 1.258 . S
O1237 Tb1219 2.500 . S
O1237 C1239 1.273 . S
O1238 Tb1219 2.473 . S
O1238 C1239 1.257 . S
C1239 O1237 1.273 . S
C1239 O1238 1.257 . S
O1240 Eu1220 2.326 . S
O1240 C1228 1.242 . S
O1241 Tb1219 2.324 . S
O1241 C1228 1.258 . S
O1242 Eu1220 2.500 . S
O1242 C1225 1.273 . S
O1243 Eu1220 2.473 . S
O1243 C1225 1.257 . S
H1244 C1230 0.929 . S
H1245 C1232 0.931 . S
H1246 C1234 0.929 . S
O1247 Tb1248 2.292 . S
O1247 C1250 1.255 . S
Tb1248 O1247 2.292 . S
Tb1248 O1264 2.326 . S
Tb1248 O1266 2.500 . S
Tb1248 O1267 2.473 . S
Tb1248 O1270 2.324 . S
Eu1249 O1253 2.292 . S
Eu1249 C1254 2.852 . S
Eu1249 O1265 2.324 . S
Eu1249 O1269 2.326 . S
Eu1249 O1271 2.500 . S
Eu1249 O1272 2.473 . S
C1250 O1247 1.255 . S
C1250 O1251 1.247 . S
O1251 C1250 1.247 . S
C1252 O1264 1.242 . S
C1252 O1265 1.258 . S
O1253 Eu1249 2.292 . S
O1253 C1255 1.255 . S
C1254 Eu1249 2.852 . S
C1254 C1258 1.503 . S
C1254 O1271 1.273 . S
C1254 O1272 1.257 . S
C1255 O1253 1.255 . S
C1255 O1256 1.247 . S
O1256 C1255 1.247 . S
C1257 O1269 1.242 . S
C1257 O1270 1.258 . S
C1258 C1254 1.503 . S
C1258 C1259 1.379 . S
C1258 C1263 1.392 . S
C1259 C1258 1.379 . S
C1259 C1260 1.404 . S
C1259 H1273 0.929 . S
C1260 C1259 1.404 . S
C1260 C1261 1.389 . S
C1261 C1260 1.389 . S
C1261 C1262 1.399 . S
C1261 H1274 0.931 . S
C1262 C1261 1.399 . S
C1262 C1263 1.390 . S
C1263 C1258 1.392 . S
C1263 C1262 1.390 . S
C1263 H1275 0.929 . S
O1264 Tb1248 2.326 . S
O1264 C1252 1.242 . S
O1265 Eu1249 2.324 . S
O1265 C1252 1.258 . S
O1266 Tb1248 2.500 . S
O1266 C1268 1.273 . S
O1267 Tb1248 2.473 . S
O1267 C1268 1.257 . S
C1268 O1266 1.273 . S
C1268 O1267 1.257 . S
O1269 Eu1249 2.326 . S
O1269 C1257 1.242 . S
O1270 Tb1248 2.324 . S
O1270 C1257 1.258 . S
O1271 Eu1249 2.500 . S
O1271 C1254 1.273 . S
O1272 Eu1249 2.473 . S
O1272 C1254 1.257 . S
H1273 C1259 0.929 . S
H1274 C1261 0.931 . S
H1275 C1263 0.929 . S
O1276 Tb1277 2.292 . S
O1276 C1279 1.255 . S
Tb1277 O1276 2.292 . S
Tb1277 O1293 2.326 . S
Tb1277 O1295 2.500 . S
Tb1277 O1296 2.473 . S
Tb1277 O1299 2.324 . S
Eu1278 O1282 2.292 1_455 S
Eu1278 C1283 2.852 . S
Eu1278 O1294 2.324 . S
Eu1278 O1298 2.326 . S
Eu1278 O1300 2.500 1_455 S
Eu1278 O1301 2.473 . S
C1279 O1276 1.255 . S
C1279 O1280 1.247 . S
O1280 C1279 1.247 . S
C1281 O1293 1.242 . S
C1281 O1294 1.258 . S
O1282 Eu1278 2.292 1_655 S
O1282 C1284 1.255 . S
C1283 Eu1278 2.852 . S
C1283 C1287 1.503 . S
C1283 O1300 1.273 1_455 S
C1283 O1301 1.257 . S
C1284 O1282 1.255 . S
C1284 O1285 1.247 1_655 S
O1285 C1284 1.247 1_455 S
C1286 O1298 1.242 . S
C1286 O1299 1.258 . S
C1287 C1283 1.503 . S
C1287 C1288 1.379 . S
C1287 C1292 1.366 1_455 S
C1288 C1287 1.379 . S
C1288 C1289 1.404 . S
C1288 H1302 0.929 . S
C1289 C1288 1.404 . S
C1289 C1290 1.389 . S
C1290 C1289 1.389 . S
C1290 C1291 1.407 . S
C1290 H1303 0.931 . S
C1291 C1290 1.407 . S
C1291 C1292 1.388 1_455 S
C1292 C1287 1.366 1_655 S
C1292 C1291 1.388 1_655 S
C1292 H1304 0.958 . S
O1293 Tb1277 2.326 . S
O1293 C1281 1.242 . S
O1294 Eu1278 2.324 . S
O1294 C1281 1.258 . S
O1295 Tb1277 2.500 . S
O1295 C1297 1.273 . S
O1296 Tb1277 2.473 . S
O1296 C1297 1.257 . S
C1297 O1295 1.273 . S
C1297 O1296 1.257 . S
O1298 Eu1278 2.326 . S
O1298 C1286 1.242 . S
O1299 Tb1277 2.324 . S
O1299 C1286 1.258 . S
O1300 Eu1278 2.500 1_655 S
O1300 C1283 1.273 1_655 S
O1301 Eu1278 2.473 . S
O1301 C1283 1.257 . S
H1302 C1288 0.929 . S
H1303 C1290 0.931 . S
H1304 C1292 0.958 . S
O1305 Tb1306 2.292 . S
O1305 C1308 1.255 . S
Tb1306 O1305 2.292 . S
Tb1306 O1322 2.326 . S
Tb1306 O1324 2.500 . S
Tb1306 O1325 2.473 . S
Tb1306 O1328 2.324 . S
Eu1307 O1311 2.292 . S
Eu1307 C1312 2.852 . S
Eu1307 O1323 2.324 . S
Eu1307 O1327 2.326 . S
Eu1307 O1329 2.500 . S
Eu1307 O1330 2.473 . S
C1308 O1305 1.255 . S
C1308 O1309 1.247 . S
O1309 C1308 1.247 . S
C1310 O1322 1.242 . S
C1310 O1323 1.258 . S
O1311 Eu1307 2.292 . S
O1311 C1313 1.255 . S
C1312 Eu1307 2.852 . S
C1312 C1316 1.503 . S
C1312 O1329 1.273 . S
C1312 O1330 1.257 . S
C1313 O1311 1.255 . S
C1313 O1314 1.247 . S
O1314 C1313 1.247 . S
C1315 O1327 1.242 . S
C1315 O1328 1.258 . S
C1316 C1312 1.503 . S
C1316 C1317 1.379 . S
C1316 C1321 1.392 . S
C1317 C1316 1.379 . S
C1317 C1318 1.404 . S
C1317 H1331 0.929 . S
C1318 C1317 1.404 . S
C1318 C1319 1.389 . S
C1319 C1318 1.389 . S
C1319 C1320 1.399 . S
C1319 H1332 0.931 . S
C1320 C1319 1.399 . S
C1320 C1321 1.390 . S
C1321 C1316 1.392 . S
C1321 C1320 1.390 . S
C1321 H1333 0.929 . S
O1322 Tb1306 2.326 . S
O1322 C1310 1.242 . S
O1323 Eu1307 2.324 . S
O1323 C1310 1.258 . S
O1324 Tb1306 2.500 . S
O1324 C1326 1.273 . S
O1325 Tb1306 2.473 . S
O1325 C1326 1.257 . S
C1326 O1324 1.273 . S
C1326 O1325 1.257 . S
O1327 Eu1307 2.326 . S
O1327 C1315 1.242 . S
O1328 Tb1306 2.324 . S
O1328 C1315 1.258 . S
O1329 Eu1307 2.500 . S
O1329 C1312 1.273 . S
O1330 Eu1307 2.473 . S
O1330 C1312 1.257 . S
H1331 C1317 0.929 . S
H1332 C1319 0.931 . S
H1333 C1321 0.929 . S
O1334 Tb1335 2.292 . S
O1334 C1337 1.255 . S
Tb1335 O1334 2.292 . S
Tb1335 O1351 2.326 . S
Tb1335 O1353 2.500 . S
Tb1335 O1354 2.473 . S
Tb1335 O1357 2.324 . S
Eu1336 O1340 2.292 . S
Eu1336 C1341 2.852 . S
Eu1336 O1352 2.324 . S
Eu1336 O1356 2.326 . S
Eu1336 O1358 2.500 . S
Eu1336 O1359 2.473 . S
C1337 O1334 1.255 . S
C1337 O1338 1.247 . S
O1338 C1337 1.247 . S
C1339 O1351 1.242 . S
C1339 O1352 1.258 . S
O1340 Eu1336 2.292 . S
O1340 C1342 1.255 . S
C1341 Eu1336 2.852 . S
C1341 C1345 1.503 . S
C1341 O1358 1.273 . S
C1341 O1359 1.257 . S
C1342 O1340 1.255 . S
C1342 O1343 1.247 . S
O1343 C1342 1.247 . S
C1344 O1356 1.242 . S
C1344 O1357 1.258 . S
C1345 C1341 1.503 . S
C1345 C1346 1.379 . S
C1345 C1350 1.392 . S
C1346 C1345 1.379 . S
C1346 C1347 1.404 . S
C1346 H1360 0.929 . S
C1347 C1346 1.404 . S
C1347 C1348 1.389 . S
C1348 C1347 1.389 . S
C1348 C1349 1.399 . S
C1348 H1361 0.931 . S
C1349 C1348 1.399 . S
C1349 C1350 1.390 . S
C1350 C1345 1.392 . S
C1350 C1349 1.390 . S
C1350 H1362 0.929 . S
O1351 Tb1335 2.326 . S
O1351 C1339 1.242 . S
O1352 Eu1336 2.324 . S
O1352 C1339 1.258 . S
O1353 Tb1335 2.500 . S
O1353 C1355 1.273 . S
O1354 Tb1335 2.473 . S
O1354 C1355 1.257 . S
C1355 O1353 1.273 . S
C1355 O1354 1.257 . S
O1356 Eu1336 2.326 . S
O1356 C1344 1.242 . S
O1357 Tb1335 2.324 . S
O1357 C1344 1.258 . S
O1358 Eu1336 2.500 . S
O1358 C1341 1.273 . S
O1359 Eu1336 2.473 . S
O1359 C1341 1.257 . S
H1360 C1346 0.929 . S
H1361 C1348 0.931 . S
H1362 C1350 0.929 . S
O1363 Tb1364 2.292 . S
O1363 C1366 1.255 . S
Tb1364 O1363 2.292 . S
Tb1364 O1380 2.326 . S
Tb1364 O1382 2.500 . S
Tb1364 O1383 2.473 . S
Tb1364 O1386 2.324 . S
Eu1365 O1369 2.292 . S
Eu1365 C1370 2.852 . S
Eu1365 O1381 2.324 . S
Eu1365 O1385 2.326 . S
Eu1365 O1387 2.500 . S
Eu1365 O1388 2.473 . S
C1366 O1363 1.255 . S
C1366 O1367 1.247 . S
O1367 C1366 1.247 . S
C1368 O1380 1.242 . S
C1368 O1381 1.258 . S
O1369 Eu1365 2.292 . S
O1369 C1371 1.255 . S
C1370 Eu1365 2.852 . S
C1370 C1374 1.503 . S
C1370 O1387 1.273 . S
C1370 O1388 1.257 . S
C1371 O1369 1.255 . S
C1371 O1372 1.247 . S
O1372 C1371 1.247 . S
C1373 O1385 1.242 . S
C1373 O1386 1.258 . S
C1374 C1370 1.503 . S
C1374 C1375 1.379 . S
C1374 C1379 1.392 . S
C1375 C1374 1.379 . S
C1375 C1376 1.404 . S
C1375 H1389 0.929 . S
C1376 C1375 1.404 . S
C1376 C1377 1.389 . S
C1377 C1376 1.389 . S
C1377 C1378 1.399 . S
C1377 H1390 0.931 . S
C1378 C1377 1.399 . S
C1378 C1379 1.390 . S
C1379 C1374 1.392 . S
C1379 C1378 1.390 . S
C1379 H1391 0.929 . S
O1380 Tb1364 2.326 . S
O1380 C1368 1.242 . S
O1381 Eu1365 2.324 . S
O1381 C1368 1.258 . S
O1382 Tb1364 2.500 . S
O1382 C1384 1.273 . S
O1383 Tb1364 2.473 . S
O1383 C1384 1.257 . S
C1384 O1382 1.273 . S
C1384 O1383 1.257 . S
O1385 Eu1365 2.326 . S
O1385 C1373 1.242 . S
O1386 Tb1364 2.324 . S
O1386 C1373 1.258 . S
O1387 Eu1365 2.500 . S
O1387 C1370 1.273 . S
O1388 Eu1365 2.473 . S
O1388 C1370 1.257 . S
H1389 C1375 0.929 . S
H1390 C1377 0.931 . S
H1391 C1379 0.929 . S
C1392 C1393 1.387 . S
C1392 H1396 0.950 . S
C1392 C1401 1.390 . S
C1393 C1392 1.387 . S
C1393 C1395 1.387 . S
H1394 C1401 0.950 . S
C1395 C1393 1.387 . S
C1395 C1397 1.390 . S
C1395 H1399 0.950 . S
H1396 C1392 0.950 . S
C1397 C1395 1.390 . S
C1397 C1398 1.387 . S
C1397 H1400 0.950 . S
C1398 C1397 1.387 . S
C1398 C1401 1.387 . S
H1399 C1395 0.950 . S
H1400 C1397 0.950 . S
C1401 C1392 1.390 . S
C1401 H1394 0.950 . S
C1401 C1398 1.387 . S
C1402 C1403 1.387 . S
C1402 H1406 0.950 . S
C1402 C1411 1.390 . S
C1403 C1402 1.387 . S
C1403 C1405 1.387 . S
H1404 C1411 0.950 . S
C1405 C1403 1.387 . S
C1405 C1407 1.390 . S
C1405 H1409 0.950 . S
H1406 C1402 0.950 . S
C1407 C1405 1.390 . S
C1407 C1408 1.387 . S
C1407 H1410 0.950 . S
C1408 C1407 1.387 . S
C1408 C1411 1.387 . S
H1409 C1405 0.950 . S
H1410 C1407 0.950 . S
C1411 C1402 1.390 . S
C1411 H1404 0.950 . S
C1411 C1408 1.387 . S
C1412 C1413 1.387 . S
C1412 H1416 0.950 . S
C1412 C1421 1.390 . S
C1413 C1412 1.387 . S
C1413 C1415 1.387 . S
H1414 C1421 0.950 . S
C1415 C1413 1.387 . S
C1415 C1417 1.390 . S
C1415 H1419 0.950 . S
H1416 C1412 0.950 . S
C1417 C1415 1.390 . S
C1417 C1418 1.387 . S
C1417 H1420 0.950 . S
C1418 C1417 1.387 . S
C1418 C1421 1.387 . S
H1419 C1415 0.950 . S
H1420 C1417 0.950 . S
C1421 C1412 1.390 . S
C1421 H1414 0.950 . S
C1421 C1418 1.387 . S
C1422 C1423 1.387 . S
C1422 H1426 0.950 . S
C1422 C1431 1.390 . S
C1423 C1422 1.387 . S
C1423 C1425 1.387 . S
H1424 C1431 0.950 . S
C1425 C1423 1.387 . S
C1425 C1427 1.390 . S
C1425 H1429 0.950 . S
H1426 C1422 0.950 . S
C1427 C1425 1.390 . S
C1427 C1428 1.387 . S
C1427 H1430 0.950 . S
C1428 C1427 1.387 . S
C1428 C1431 1.387 . S
H1429 C1425 0.950 . S
H1430 C1427 0.950 . S
C1431 C1422 1.390 . S
C1431 H1424 0.950 . S
C1431 C1428 1.387 . S
C1432 C1433 1.387 . S
C1432 H1436 0.950 . S
C1432 C1441 1.390 . S
C1433 C1432 1.387 . S
C1433 C1435 1.387 . S
H1434 C1441 0.950 . S
C1435 C1433 1.387 . S
C1435 C1437 1.390 . S
C1435 H1439 0.950 . S
H1436 C1432 0.950 . S
C1437 C1435 1.390 . S
C1437 C1438 1.387 . S
C1437 H1440 0.950 . S
C1438 C1437 1.387 . S
C1438 C1441 1.387 . S
H1439 C1435 0.950 . S
H1440 C1437 0.950 . S
C1441 C1432 1.390 . S
C1441 H1434 0.950 . S
C1441 C1438 1.387 . S
C1442 C1443 1.387 1_455 S
C1442 H1446 0.950 . S
C1442 C1451 1.390 . S
C1443 C1442 1.387 1_655 S
C1443 C1445 1.387 . S
H1444 C1451 0.950 . S
C1445 C1443 1.387 . S
C1445 C1447 1.390 1_655 S
C1445 H1449 0.950 . S
H1446 C1442 0.950 . S
C1447 C1445 1.390 1_455 S
C1447 C1448 1.387 . S
C1447 H1450 0.950 . S
C1448 C1447 1.387 . S
C1448 C1451 1.387 . S
H1449 C1445 0.950 . S
H1450 C1447 0.950 . S
C1451 C1442 1.390 . S
C1451 H1444 0.950 . S
C1451 C1448 1.387 . S
C1452 C1453 1.387 . S
C1452 H1456 0.950 . S
C1452 C1461 1.390 . S
C1453 C1452 1.387 . S
C1453 C1455 1.387 . S
H1454 C1461 0.950 . S
C1455 C1453 1.387 . S
C1455 C1457 1.390 . S
C1455 H1459 0.950 . S
H1456 C1452 0.950 . S
C1457 C1455 1.390 . S
C1457 C1458 1.387 . S
C1457 H1460 0.950 . S
C1458 C1457 1.387 . S
C1458 C1461 1.387 . S
H1459 C1455 0.950 . S
H1460 C1457 0.950 . S
C1461 C1452 1.390 . S
C1461 H1454 0.950 . S
C1461 C1458 1.387 . S
C1462 C1463 1.387 . S
C1462 H1466 0.950 . S
C1462 C1471 1.390 1_655 S
C1463 C1462 1.387 . S
C1463 C1465 1.387 . S
H1464 C1471 0.950 . S
C1465 C1463 1.387 . S
C1465 C1467 1.390 . S
C1465 H1469 0.950 . S
H1466 C1462 0.950 . S
C1467 C1465 1.390 . S
C1467 C1468 1.387 1_655 S
C1467 H1470 0.950 1_655 S
C1468 C1467 1.387 1_455 S
C1468 C1471 1.387 . S
H1469 C1465 0.950 . S
H1470 C1467 0.950 1_455 S
C1471 C1462 1.390 1_455 S
C1471 H1464 0.950 . S
C1471 C1468 1.387 . S
C1472 C1473 1.387 . S
C1472 H1476 0.950 . S
C1472 C1481 1.390 . S
C1473 C1472 1.387 . S
C1473 C1475 1.387 . S
H1474 C1481 0.950 . S
C1475 C1473 1.387 . S
C1475 C1477 1.390 . S
C1475 H1479 0.950 . S
H1476 C1472 0.950 . S
C1477 C1475 1.390 . S
C1477 C1478 1.387 . S
C1477 H1480 0.950 . S
C1478 C1477 1.387 . S
C1478 C1481 1.387 . S
H1479 C1475 0.950 . S
H1480 C1477 0.950 . S
C1481 C1472 1.390 . S
C1481 H1474 0.950 . S
C1481 C1478 1.387 . S
C1482 C1483 1.387 . S
C1482 H1486 0.950 . S
C1482 C1491 1.387 . S
C1483 C1482 1.387 . S
C1483 C1485 1.387 . S
H1484 C1491 0.951 1_556 S
C1485 C1483 1.387 . S
C1485 C1487 1.387 . S
C1485 H1489 0.950 . S
H1486 C1482 0.950 . S
C1487 C1485 1.387 . S
C1487 C1488 1.389 1_554 S
C1487 H1490 0.951 1_554 S
C1488 C1487 1.389 1_556 S
C1488 C1491 1.389 1_556 S
H1489 C1485 0.950 . S
H1490 C1487 0.951 1_556 S
C1491 C1482 1.387 . S
C1491 H1484 0.951 1_554 S
C1491 C1488 1.389 1_554 S
C1492 C1493 1.387 . S
C1492 H1496 0.950 . S
C1492 C1501 1.390 . S
C1493 C1492 1.387 . S
C1493 C1495 1.387 . S
H1494 C1501 0.950 . S
C1495 C1493 1.387 . S
C1495 C1497 1.390 . S
C1495 H1499 0.950 . S
H1496 C1492 0.950 . S
C1497 C1495 1.390 . S
C1497 C1498 1.387 . S
C1497 H1500 0.950 . S
C1498 C1497 1.387 . S
C1498 C1501 1.387 . S
H1499 C1495 0.950 . S
H1500 C1497 0.950 . S
C1501 C1492 1.390 . S
C1501 H1494 0.950 . S
C1501 C1498 1.387 . S
C1502 C1503 1.387 1_554 S
C1502 H1506 0.950 . S
C1502 C1511 1.390 . S
C1503 C1502 1.387 1_556 S
C1503 C1505 1.387 . S
H1504 C1511 0.950 . S
C1505 C1503 1.387 . S
C1505 C1507 1.390 1_556 S
C1505 H1509 0.950 . S
H1506 C1502 0.950 . S
C1507 C1505 1.390 1_554 S
C1507 C1508 1.387 . S
C1507 H1510 0.950 . S
C1508 C1507 1.387 . S
C1508 C1511 1.387 . S
H1509 C1505 0.950 . S
H1510 C1507 0.950 . S
C1511 C1502 1.390 . S
C1511 H1504 0.950 . S
C1511 C1508 1.387 . S
C1512 C1513 1.387 . S
C1512 H1516 0.950 . S
C1512 C1521 1.390 . S
C1513 C1512 1.387 . S
C1513 C1515 1.387 . S
H1514 C1521 0.950 . S
C1515 C1513 1.387 . S
C1515 C1517 1.390 . S
C1515 H1519 0.950 . S
H1516 C1512 0.950 . S
C1517 C1515 1.390 . S
C1517 C1518 1.387 . S
C1517 H1520 0.950 . S
C1518 C1517 1.387 . S
C1518 C1521 1.387 . S
H1519 C1515 0.950 . S
H1520 C1517 0.950 . S
C1521 C1512 1.390 . S
C1521 H1514 0.950 . S
C1521 C1518 1.387 . S
C1522 C1523 1.387 . S
C1522 H1526 0.950 . S
C1522 C1531 1.390 1_556 S
C1523 C1522 1.387 . S
C1523 C1525 1.387 . S
H1524 C1531 0.950 . S
C1525 C1523 1.387 . S
C1525 C1527 1.390 . S
C1525 H1529 0.950 . S
H1526 C1522 0.950 . S
C1527 C1525 1.390 . S
C1527 C1528 1.387 1_556 S
C1527 H1530 0.950 . S
C1528 C1527 1.387 1_554 S
C1528 C1531 1.387 . S
H1529 C1525 0.950 . S
H1530 C1527 0.950 . S
C1531 C1522 1.390 1_554 S
C1531 H1524 0.950 . S
C1531 C1528 1.387 . S
C1532 C1533 1.387 . S
C1532 H1536 0.950 . S
C1532 C1541 1.390 . S
C1533 C1532 1.387 . S
C1533 C1535 1.387 . S
H1534 C1541 0.950 . S
C1535 C1533 1.387 . S
C1535 C1537 1.390 . S
C1535 H1539 0.950 . S
H1536 C1532 0.950 . S
C1537 C1535 1.390 . S
C1537 C1538 1.387 . S
C1537 H1540 0.950 . S
C1538 C1537 1.387 . S
C1538 C1541 1.387 . S
H1539 C1535 0.950 . S
H1540 C1537 0.950 . S
C1541 C1532 1.390 . S
C1541 H1534 0.950 . S
C1541 C1538 1.387 . S
C1542 C1543 1.387 . S
C1542 H1546 0.950 . S
C1542 C1551 1.390 1_554 S
C1543 C1542 1.387 . S
C1543 C1545 1.387 1_554 S
H1544 C1551 0.950 . S
C1545 C1543 1.387 1_556 S
C1545 C1547 1.390 . S
C1545 H1549 0.950 . S
H1546 C1542 0.950 . S
C1547 C1545 1.390 . S
C1547 C1548 1.387 . S
C1547 H1550 0.950 . S
C1548 C1547 1.387 . S
C1548 C1551 1.387 . S
H1549 C1545 0.950 . S
H1550 C1547 0.950 . S
C1551 C1542 1.390 1_556 S
C1551 H1544 0.950 . S
C1551 C1548 1.387 . S
C1552 C1553 1.387 . S
C1552 H1556 0.950 . S
C1552 C1561 1.390 . S
C1553 C1552 1.387 . S
C1553 C1555 1.387 . S
H1554 C1561 0.950 . S
C1555 C1553 1.387 . S
C1555 C1557 1.390 . S
C1555 H1559 0.950 . S
H1556 C1552 0.950 . S
C1557 C1555 1.390 . S
C1557 C1558 1.387 . S
C1557 H1560 0.950 . S
C1558 C1557 1.387 . S
C1558 C1561 1.387 . S
H1559 C1555 0.950 . S
H1560 C1557 0.950 . S
C1561 C1552 1.390 . S
C1561 H1554 0.950 . S
C1561 C1558 1.387 . S
C1562 C1563 1.387 . S
C1562 H1566 0.950 . S
C1562 C1571 1.390 . S
C1563 C1562 1.387 . S
C1563 C1565 1.387 . S
H1564 C1571 0.950 . S
C1565 C1563 1.387 . S
C1565 C1567 1.390 . S
C1565 H1569 0.950 . S
H1566 C1562 0.950 . S
C1567 C1565 1.390 . S
C1567 C1568 1.387 . S
C1567 H1570 0.950 . S
C1568 C1567 1.387 . S
C1568 C1571 1.387 . S
H1569 C1565 0.950 . S
H1570 C1567 0.950 . S
C1571 C1562 1.390 . S
C1571 H1564 0.950 . S
C1571 C1568 1.387 . S
C1572 C1573 1.387 . S
C1572 H1576 0.950 . S
C1572 C1581 1.390 . S
C1573 C1572 1.387 . S
C1573 C1575 1.387 . S
H1574 C1581 0.950 . S
C1575 C1573 1.387 . S
C1575 C1577 1.390 . S
C1575 H1579 0.950 . S
H1576 C1572 0.950 . S
C1577 C1575 1.390 . S
C1577 C1578 1.387 . S
C1577 H1580 0.950 . S
C1578 C1577 1.387 . S
C1578 C1581 1.387 . S
H1579 C1575 0.950 . S
H1580 C1577 0.950 . S
C1581 C1572 1.390 . S
C1581 H1574 0.950 . S
C1581 C1578 1.387 . S
C1582 C1583 1.387 . S
C1582 H1586 0.950 . S
C1582 C1591 1.390 . S
C1583 C1582 1.387 . S
C1583 C1585 1.387 . S
H1584 C1591 0.950 . S
C1585 C1583 1.387 . S
C1585 C1587 1.390 . S
C1585 H1589 0.950 . S
H1586 C1582 0.950 . S
C1587 C1585 1.390 . S
C1587 C1588 1.387 . S
C1587 H1590 0.950 . S
C1588 C1587 1.387 . S
C1588 C1591 1.387 . S
H1589 C1585 0.950 . S
H1590 C1587 0.950 . S
C1591 C1582 1.390 . S
C1591 H1584 0.950 . S
C1591 C1588 1.387 . S
C1592 C1593 1.387 . S
C1592 H1596 0.950 . S
C1592 C1601 1.390 . S
C1593 C1592 1.387 . S
C1593 C1595 1.387 . S
H1594 C1601 0.950 . S
C1595 C1593 1.387 . S
C1595 C1597 1.390 . S
C1595 H1599 0.950 . S
H1596 C1592 0.950 . S
C1597 C1595 1.390 . S
C1597 C1598 1.387 . S
C1597 H1600 0.950 . S
C1598 C1597 1.387 . S
C1598 C1601 1.387 . S
H1599 C1595 0.950 . S
H1600 C1597 0.950 . S
C1601 C1592 1.390 . S
C1601 H1594 0.950 . S
C1601 C1598 1.387 . S
C1602 C1603 1.387 . S
C1602 H1606 0.950 . S
C1602 C1611 1.390 . S
C1603 C1602 1.387 . S
C1603 C1605 1.387 . S
H1604 C1611 0.950 . S
C1605 C1603 1.387 . S
C1605 C1607 1.390 . S
C1605 H1609 0.950 . S
H1606 C1602 0.950 . S
C1607 C1605 1.390 . S
C1607 C1608 1.387 . S
C1607 H1610 0.950 . S
C1608 C1607 1.387 . S
C1608 C1611 1.387 . S
H1609 C1605 0.950 . S
H1610 C1607 0.950 . S
C1611 C1602 1.390 . S
C1611 H1604 0.950 . S
C1611 C1608 1.387 . S
C1612 C1613 1.387 . S
C1612 H1616 0.950 . S
C1612 C1621 1.390 . S
C1613 C1612 1.387 . S
C1613 C1615 1.387 . S
H1614 C1621 0.950 . S
C1615 C1613 1.387 . S
C1615 C1617 1.390 . S
C1615 H1619 0.950 . S
H1616 C1612 0.950 . S
C1617 C1615 1.390 . S
C1617 C1618 1.387 . S
C1617 H1620 0.950 . S
C1618 C1617 1.387 . S
C1618 C1621 1.387 . S
H1619 C1615 0.950 . S
H1620 C1617 0.950 . S
C1621 C1612 1.390 . S
C1621 H1614 0.950 . S
C1621 C1618 1.387 . S
C1622 C1623 1.387 . S
C1622 H1626 0.950 . S
C1622 C1631 1.390 1_545 S
C1623 C1622 1.387 . S
C1623 C1625 1.387 . S
H1624 C1631 0.950 . S
C1625 C1623 1.387 . S
C1625 C1627 1.390 . S
C1625 H1629 0.950 . S
H1626 C1622 0.950 . S
C1627 C1625 1.390 . S
C1627 C1628 1.387 1_545 S
C1627 H1630 0.950 . S
C1628 C1627 1.387 1_565 S
C1628 C1631 1.387 . S
H1629 C1625 0.950 . S
H1630 C1627 0.950 . S
C1631 C1622 1.390 1_565 S
C1631 H1624 0.950 . S
C1631 C1628 1.387 . S
C1632 C1633 1.387 . S
C1632 H1636 0.950 . S
C1632 C1641 1.390 . S
C1633 C1632 1.387 . S
C1633 C1635 1.387 . S
H1634 C1641 0.950 . S
C1635 C1633 1.387 . S
C1635 C1637 1.390 . S
C1635 H1639 0.950 . S
H1636 C1632 0.950 . S
C1637 C1635 1.390 . S
C1637 C1638 1.387 . S
C1637 H1640 0.950 . S
C1638 C1637 1.387 . S
C1638 C1641 1.387 . S
H1639 C1635 0.950 . S
H1640 C1637 0.950 . S
C1641 C1632 1.390 . S
C1641 H1634 0.950 . S
C1641 C1638 1.387 . S
C1642 C1643 1.387 . S
C1642 H1646 0.950 . S
C1642 C1651 1.390 . S
C1643 C1642 1.387 . S
C1643 C1645 1.387 . S
H1644 C1651 0.950 1_455 S
C1645 C1643 1.387 . S
C1645 C1647 1.390 1_655 S
C1645 H1649 0.950 . S
H1646 C1642 0.950 . S
C1647 C1645 1.390 1_455 S
C1647 C1648 1.387 . S
C1647 H1650 0.950 . S
C1648 C1647 1.387 . S
C1648 C1651 1.387 1_455 S
H1649 C1645 0.950 . S
H1650 C1647 0.950 . S
C1651 C1642 1.390 . S
C1651 H1644 0.950 1_655 S
C1651 C1648 1.387 1_655 S
C1652 C1653 1.387 . S
C1652 H1656 0.950 . S
C1652 C1661 1.390 . S
C1653 C1652 1.387 . S
C1653 C1655 1.387 . S
H1654 C1661 0.950 . S
C1655 C1653 1.387 . S
C1655 C1657 1.390 . S
C1655 H1659 0.950 . S
H1656 C1652 0.950 . S
C1657 C1655 1.390 . S
C1657 C1658 1.387 . S
C1657 H1660 0.950 . S
C1658 C1657 1.387 . S
C1658 C1661 1.387 . S
H1659 C1655 0.950 . S
H1660 C1657 0.950 . S
C1661 C1652 1.390 . S
C1661 H1654 0.950 . S
C1661 C1658 1.387 . S
C1662 C1663 1.387 1_455 S
C1662 H1666 0.950 . S
C1662 C1671 1.390 . S
C1663 C1662 1.387 1_655 S
C1663 C1665 1.387 . S
H1664 C1671 0.950 . S
C1665 C1663 1.387 . S
C1665 C1667 1.390 1_655 S
C1665 H1669 0.950 . S
H1666 C1662 0.950 . S
C1667 C1665 1.390 1_455 S
C1667 C1668 1.387 . S
C1667 H1670 0.950 . S
C1668 C1667 1.387 . S
C1668 C1671 1.387 . S
H1669 C1665 0.950 . S
H1670 C1667 0.950 . S
C1671 C1662 1.390 . S
C1671 H1664 0.950 . S
C1671 C1668 1.387 . S
C1672 C1673 1.387 . S
C1672 H1676 0.950 . S
C1672 C1681 1.390 . S
C1673 C1672 1.387 . S
C1673 C1675 1.387 . S
H1674 C1681 0.950 . S
C1675 C1673 1.387 . S
C1675 C1677 1.390 . S
C1675 H1679 0.950 . S
H1676 C1672 0.950 . S
C1677 C1675 1.390 . S
C1677 C1678 1.387 . S
C1677 H1680 0.950 . S
C1678 C1677 1.387 . S
C1678 C1681 1.387 . S
H1679 C1675 0.950 . S
H1680 C1677 0.950 . S
C1681 C1672 1.390 . S
C1681 H1674 0.950 . S
C1681 C1678 1.387 . S
C1682 C1683 1.387 . S
C1682 H1686 0.950 . S
C1682 C1691 1.390 . S
C1683 C1682 1.387 . S
C1683 C1685 1.387 . S
H1684 C1691 0.950 . S
C1685 C1683 1.387 . S
C1685 C1687 1.390 . S
C1685 H1689 0.950 . S
H1686 C1682 0.950 . S
C1687 C1685 1.390 . S
C1687 C1688 1.387 . S
C1687 H1690 0.950 . S
C1688 C1687 1.387 . S
C1688 C1691 1.387 . S
H1689 C1685 0.950 . S
H1690 C1687 0.950 . S
C1691 C1682 1.390 . S
C1691 H1684 0.950 . S
C1691 C1688 1.387 . S
C1692 C1693 1.387 . S
C1692 H1696 0.950 . S
C1692 C1701 1.390 . S
C1693 C1692 1.387 . S
C1693 C1695 1.387 . S
H1694 C1701 0.950 . S
C1695 C1693 1.387 . S
C1695 C1697 1.390 . S
C1695 H1699 0.950 . S
H1696 C1692 0.950 . S
C1697 C1695 1.390 . S
C1697 C1698 1.387 . S
C1697 H1700 0.950 . S
C1698 C1697 1.387 . S
C1698 C1701 1.387 . S
H1699 C1695 0.950 . S
H1700 C1697 0.950 . S
C1701 C1692 1.390 . S
C1701 H1694 0.950 . S
C1701 C1698 1.387 . S
C1702 C1703 1.387 . S
C1702 H1706 0.950 . S
C1702 C1711 1.390 . S
C1703 C1702 1.387 . S
C1703 C1705 1.387 . S
H1704 C1711 0.950 . S
C1705 C1703 1.387 . S
C1705 C1707 1.390 . S
C1705 H1709 0.950 . S
H1706 C1702 0.950 . S
C1707 C1705 1.390 . S
C1707 C1708 1.387 . S
C1707 H1710 0.950 . S
C1708 C1707 1.387 . S
C1708 C1711 1.387 . S
H1709 C1705 0.950 . S
H1710 C1707 0.950 . S
C1711 C1702 1.390 . S
C1711 H1704 0.950 . S
C1711 C1708 1.387 . S
C1712 C1713 1.387 . S
C1712 H1716 0.950 . S
C1712 C1721 1.390 . S
C1713 C1712 1.387 . S
C1713 C1715 1.387 . S
H1714 C1721 0.950 . S
C1715 C1713 1.387 . S
C1715 C1717 1.390 . S
C1715 H1719 0.950 . S
H1716 C1712 0.950 . S
C1717 C1715 1.390 . S
C1717 C1718 1.387 . S
C1717 H1720 0.950 . S
C1718 C1717 1.387 . S
C1718 C1721 1.387 . S
H1719 C1715 0.950 . S
H1720 C1717 0.950 . S
C1721 C1712 1.390 . S
C1721 H1714 0.950 . S
C1721 C1718 1.387 . S
C1722 C1723 1.387 . S
C1722 H1726 0.950 . S
C1722 C1731 1.390 . S
C1723 C1722 1.387 . S
C1723 C1725 1.387 . S
H1724 C1731 0.950 . S
C1725 C1723 1.387 . S
C1725 C1727 1.390 . S
C1725 H1729 0.950 . S
H1726 C1722 0.950 . S
C1727 C1725 1.390 . S
C1727 C1728 1.387 . S
C1727 H1730 0.950 . S
C1728 C1727 1.387 . S
C1728 C1731 1.387 . S
H1729 C1725 0.950 . S
H1730 C1727 0.950 . S
C1731 C1722 1.390 . S
C1731 H1724 0.950 . S
C1731 C1728 1.387 . S
C1732 C1733 1.387 . S
C1732 H1736 0.950 . S
C1732 C1741 1.390 . S
C1733 C1732 1.387 . S
C1733 C1735 1.387 . S
H1734 C1741 0.950 . S
C1735 C1733 1.387 . S
C1735 C1737 1.390 . S
C1735 H1739 0.950 . S
H1736 C1732 0.950 . S
C1737 C1735 1.390 . S
C1737 C1738 1.387 . S
C1737 H1740 0.950 . S
C1738 C1737 1.387 . S
C1738 C1741 1.387 . S
H1739 C1735 0.950 . S
H1740 C1737 0.950 . S
C1741 C1732 1.390 . S
C1741 H1734 0.950 . S
C1741 C1738 1.387 . S
C1742 C1743 1.387 . S
C1742 H1746 0.950 . S
C1742 C1751 1.390 . S
C1743 C1742 1.387 . S
C1743 C1745 1.387 . S
H1744 C1751 0.950 . S
C1745 C1743 1.387 . S
C1745 C1747 1.390 . S
C1745 H1749 0.950 . S
H1746 C1742 0.950 . S
C1747 C1745 1.390 . S
C1747 C1748 1.387 . S
C1747 H1750 0.950 . S
C1748 C1747 1.387 . S
C1748 C1751 1.387 . S
H1749 C1745 0.950 . S
H1750 C1747 0.950 . S
C1751 C1742 1.390 . S
C1751 H1744 0.950 . S
C1751 C1748 1.387 . S
C1752 C1753 1.387 . S
C1752 H1756 0.950 . S
C1752 C1761 1.390 . S
C1753 C1752 1.387 . S
C1753 C1755 1.387 . S
H1754 C1761 0.950 . S
C1755 C1753 1.387 . S
C1755 C1757 1.390 . S
C1755 H1759 0.950 . S
H1756 C1752 0.950 . S
C1757 C1755 1.390 . S
C1757 C1758 1.387 . S
C1757 H1760 0.950 . S
C1758 C1757 1.387 . S
C1758 C1761 1.387 . S
H1759 C1755 0.950 . S
H1760 C1757 0.950 . S
C1761 C1752 1.390 . S
C1761 H1754 0.950 . S
C1761 C1758 1.387 . S
C1762 C1763 1.387 . S
C1762 H1766 0.950 . S
C1762 C1771 1.390 . S
C1763 C1762 1.387 . S
C1763 C1765 1.387 . S
H1764 C1771 0.950 . S
C1765 C1763 1.387 . S
C1765 C1767 1.390 . S
C1765 H1769 0.950 . S
H1766 C1762 0.950 . S
C1767 C1765 1.390 . S
C1767 C1768 1.387 . S
C1767 H1770 0.950 . S
C1768 C1767 1.387 . S
C1768 C1771 1.387 . S
H1769 C1765 0.950 . S
H1770 C1767 0.950 . S
C1771 C1762 1.390 . S
C1771 H1764 0.950 . S
C1771 C1768 1.387 . S
C1772 C1773 1.387 . S
C1772 H1776 0.950 . S
C1772 C1781 1.390 . S
C1773 C1772 1.387 . S
C1773 C1775 1.387 . S
H1774 C1781 0.950 . S
C1775 C1773 1.387 . S
C1775 C1777 1.390 . S
C1775 H1779 0.950 . S
H1776 C1772 0.950 . S
C1777 C1775 1.390 . S
C1777 C1778 1.387 . S
C1777 H1780 0.950 . S
C1778 C1777 1.387 . S
C1778 C1781 1.387 . S
H1779 C1775 0.950 . S
H1780 C1777 0.950 . S
C1781 C1772 1.390 . S
C1781 H1774 0.950 . S
C1781 C1778 1.387 . S
C1782 C1783 1.387 . S
C1782 H1786 0.950 . S
C1782 C1791 1.390 . S
C1783 C1782 1.387 . S
C1783 C1785 1.387 . S
H1784 C1791 0.950 . S
C1785 C1783 1.387 . S
C1785 C1787 1.390 . S
C1785 H1789 0.950 . S
H1786 C1782 0.950 . S
C1787 C1785 1.390 . S
C1787 C1788 1.387 . S
C1787 H1790 0.950 . S
C1788 C1787 1.387 . S
C1788 C1791 1.387 . S
H1789 C1785 0.950 . S
H1790 C1787 0.950 . S
C1791 C1782 1.390 . S
C1791 H1784 0.950 . S
C1791 C1788 1.387 . S
C1792 C1793 1.387 . S
C1792 H1796 0.950 . S
C1792 C1801 1.390 . S
C1793 C1792 1.387 . S
C1793 C1795 1.387 . S
H1794 C1801 0.950 . S
C1795 C1793 1.387 . S
C1795 C1797 1.390 . S
C1795 H1799 0.950 . S
H1796 C1792 0.950 . S
C1797 C1795 1.390 . S
C1797 C1798 1.387 . S
C1797 H1800 0.950 . S
C1798 C1797 1.387 . S
C1798 C1801 1.387 . S
H1799 C1795 0.950 . S
H1800 C1797 0.950 . S
C1801 C1792 1.390 . S
C1801 H1794 0.950 . S
C1801 C1798 1.387 . S
C1802 C1803 1.387 . S
C1802 H1806 0.950 . S
C1802 C1811 1.390 . S
C1803 C1802 1.387 . S
C1803 C1805 1.387 . S
H1804 C1811 0.950 . S
C1805 C1803 1.387 . S
C1805 C1807 1.390 . S
C1805 H1809 0.950 . S
H1806 C1802 0.950 . S
C1807 C1805 1.390 . S
C1807 C1808 1.387 . S
C1807 H1810 0.950 . S
C1808 C1807 1.387 . S
C1808 C1811 1.387 . S
H1809 C1805 0.950 . S
H1810 C1807 0.950 . S
C1811 C1802 1.390 . S
C1811 H1804 0.950 . S
C1811 C1808 1.387 . S
C1812 C1813 1.387 . S
C1812 H1816 0.950 . S
C1812 C1821 1.390 . S
C1813 C1812 1.387 . S
C1813 C1815 1.387 . S
H1814 C1821 0.950 . S
C1815 C1813 1.387 . S
C1815 C1817 1.390 1_545 S
C1815 H1819 0.950 . S
H1816 C1812 0.950 . S
C1817 C1815 1.390 1_565 S
C1817 C1818 1.387 . S
C1817 H1820 0.950 . S
C1818 C1817 1.387 . S
C1818 C1821 1.387 1_565 S
H1819 C1815 0.950 . S
H1820 C1817 0.950 . S
C1821 C1812 1.390 . S
C1821 H1814 0.950 . S
C1821 C1818 1.387 1_545 S
C1822 C1823 1.387 . S
C1822 H1826 0.950 . S
C1822 C1831 1.390 . S
C1823 C1822 1.387 . S
C1823 C1825 1.387 . S
H1824 C1831 0.950 . S
C1825 C1823 1.387 . S
C1825 C1827 1.390 . S
C1825 H1829 0.950 . S
H1826 C1822 0.950 . S
C1827 C1825 1.390 . S
C1827 C1828 1.387 . S
C1827 H1830 0.950 . S
C1828 C1827 1.387 . S
C1828 C1831 1.387 . S
H1829 C1825 0.950 . S
H1830 C1827 0.950 . S
C1831 C1822 1.390 . S
C1831 H1824 0.950 . S
C1831 C1828 1.387 . S
C1832 C1833 1.387 . S
C1832 H1836 0.950 . S
C1832 C1841 1.390 . S
C1833 C1832 1.387 . S
C1833 C1835 1.387 . S
H1834 C1841 0.950 . S
C1835 C1833 1.387 . S
C1835 C1837 1.390 1_565 S
C1835 H1839 0.950 . S
H1836 C1832 0.950 . S
C1837 C1835 1.390 1_545 S
C1837 C1838 1.387 . S
C1837 H1840 0.950 . S
C1838 C1837 1.387 . S
C1838 C1841 1.387 1_545 S
H1839 C1835 0.950 . S
H1840 C1837 0.950 . S
C1841 C1832 1.390 . S
C1841 H1834 0.950 . S
C1841 C1838 1.387 1_565 S
C1842 C1843 1.387 . S
C1842 H1846 0.950 . S
C1842 C1851 1.390 . S
C1843 C1842 1.387 . S
C1843 C1845 1.387 . S
H1844 C1851 0.950 . S
C1845 C1843 1.387 . S
C1845 C1847 1.390 . S
C1845 H1849 0.950 . S
H1846 C1842 0.950 . S
C1847 C1845 1.390 . S
C1847 C1848 1.387 . S
C1847 H1850 0.950 . S
C1848 C1847 1.387 . S
C1848 C1851 1.387 . S
H1849 C1845 0.950 . S
H1850 C1847 0.950 . S
C1851 C1842 1.390 . S
C1851 H1844 0.950 . S
C1851 C1848 1.387 . S
C1852 C1853 1.387 . S
C1852 H1856 0.950 . S
C1852 C1861 1.391 . S
C1853 C1852 1.387 . S
C1853 C1855 1.387 . S
H1854 C1861 0.949 1_545 S
C1855 C1853 1.387 . S
C1855 C1857 1.391 . S
C1855 H1859 0.950 . S
H1856 C1852 0.950 . S
C1857 C1855 1.391 . S
C1857 C1858 1.387 1_565 S
C1857 H1860 0.949 1_565 S
C1858 C1857 1.387 1_545 S
C1858 C1861 1.387 1_545 S
H1859 C1855 0.950 . S
H1860 C1857 0.949 1_545 S
C1861 C1852 1.391 . S
C1861 H1854 0.949 1_565 S
C1861 C1858 1.387 1_565 S
C1862 C1863 1.387 . S
C1862 H1866 0.950 . S
C1862 C1871 1.390 . S
C1863 C1862 1.387 . S
C1863 C1865 1.387 . S
H1864 C1871 0.950 . S
C1865 C1863 1.387 . S
C1865 C1867 1.390 . S
C1865 H1869 0.950 . S
H1866 C1862 0.950 . S
C1867 C1865 1.390 . S
C1867 C1868 1.387 . S
C1867 H1870 0.950 . S
C1868 C1867 1.387 . S
C1868 C1871 1.387 . S
H1869 C1865 0.950 . S
H1870 C1867 0.950 . S
C1871 C1862 1.390 . S
C1871 H1864 0.950 . S
C1871 C1868 1.387 . S
C1872 C1873 1.387 . S
C1872 H1876 0.950 . S
C1872 C1881 1.390 1_655 S
C1873 C1872 1.387 . S
C1873 C1875 1.387 . S
H1874 C1881 0.950 . S
C1875 C1873 1.387 . S
C1875 C1877 1.390 1_655 S
C1875 H1879 0.950 . S
H1876 C1872 0.950 . S
C1877 C1875 1.390 1_455 S
C1877 C1878 1.387 . S
C1877 H1880 0.950 . S
C1878 C1877 1.387 . S
C1878 C1881 1.387 . S
H1879 C1875 0.950 . S
H1880 C1877 0.950 . S
C1881 C1872 1.390 1_455 S
C1881 H1874 0.950 . S
C1881 C1878 1.387 . S
C1882 C1883 1.387 . S
C1882 H1886 0.950 . S
C1882 C1891 1.390 . S
C1883 C1882 1.387 . S
C1883 C1885 1.387 . S
H1884 C1891 0.950 . S
C1885 C1883 1.387 . S
C1885 C1887 1.390 . S
C1885 H1889 0.950 . S
H1886 C1882 0.950 . S
C1887 C1885 1.390 . S
C1887 C1888 1.387 . S
C1887 H1890 0.950 . S
C1888 C1887 1.387 . S
C1888 C1891 1.387 . S
H1889 C1885 0.950 . S
H1890 C1887 0.950 . S
C1891 C1882 1.390 . S
C1891 H1884 0.950 . S
C1891 C1888 1.387 . S
C1892 C1893 1.387 . S
C1892 H1896 0.950 . S
C1892 C1901 1.390 1_655 S
C1893 C1892 1.387 . S
C1893 C1895 1.387 . S
H1894 C1901 0.950 . S
C1895 C1893 1.387 . S
C1895 C1897 1.390 1_655 S
C1895 H1899 0.950 . S
H1896 C1892 0.950 . S
C1897 C1895 1.390 1_455 S
C1897 C1898 1.387 . S
C1897 H1900 0.950 . S
C1898 C1897 1.387 . S
C1898 C1901 1.387 . S
H1899 C1895 0.950 . S
H1900 C1897 0.950 . S
C1901 C1892 1.390 1_455 S
C1901 H1894 0.950 . S
C1901 C1898 1.387 . S
C1902 C1903 1.387 . S
C1902 H1906 0.950 . S
C1902 C1911 1.390 . S
C1903 C1902 1.387 . S
C1903 C1905 1.387 1_655 S
H1904 C1911 0.950 . S
C1905 C1903 1.387 1_455 S
C1905 C1907 1.390 . S
C1905 H1909 0.950 . S
H1906 C1902 0.950 . S
C1907 C1905 1.390 . S
C1907 C1908 1.387 . S
C1907 H1910 0.950 . S
C1908 C1907 1.387 . S
C1908 C1911 1.387 1_455 S
H1909 C1905 0.950 . S
H1910 C1907 0.950 . S
C1911 C1902 1.390 . S
C1911 H1904 0.950 . S
C1911 C1908 1.387 1_655 S
C1912 C1913 1.387 . S
C1912 H1916 0.950 . S
C1912 C1921 1.390 1_565 S
C1913 C1912 1.387 . S
C1913 C1915 1.387 . S
H1914 C1921 0.950 . S
C1915 C1913 1.387 . S
C1915 C1917 1.390 1_565 S
C1915 H1919 0.950 . S
H1916 C1912 0.950 . S
C1917 C1915 1.390 1_545 S
C1917 C1918 1.387 . S
C1917 H1920 0.950 . S
C1918 C1917 1.387 . S
C1918 C1921 1.387 . S
H1919 C1915 0.950 . S
H1920 C1917 0.950 . S
C1921 C1912 1.390 1_545 S
C1921 H1914 0.950 . S
C1921 C1918 1.387 . S
C1922 C1923 1.387 . S
C1922 H1926 0.950 . S
C1922 C1931 1.390 1_554 S
C1923 C1922 1.387 . S
C1923 C1925 1.387 . S
H1924 C1931 0.950 . S
C1925 C1923 1.387 . S
C1925 C1927 1.390 1_554 S
C1925 H1929 0.950 . S
H1926 C1922 0.950 . S
C1927 C1925 1.390 1_556 S
C1927 C1928 1.387 . S
C1927 H1930 0.950 . S
C1928 C1927 1.387 . S
C1928 C1931 1.387 . S
H1929 C1925 0.950 . S
H1930 C1927 0.950 . S
C1931 C1922 1.390 1_556 S
C1931 H1924 0.950 . S
C1931 C1928 1.387 . S
C1932 C1933 1.387 . S
C1932 H1936 0.950 . S
C1932 C1941 1.390 . S
C1933 C1932 1.387 . S
C1933 C1935 1.387 . S
H1934 C1941 0.950 . S
C1935 C1933 1.387 . S
C1935 C1937 1.390 . S
C1935 H1939 0.950 . S
H1936 C1932 0.950 . S
C1937 C1935 1.390 . S
C1937 C1938 1.387 . S
C1937 H1940 0.950 . S
C1938 C1937 1.387 . S
C1938 C1941 1.387 . S
H1939 C1935 0.950 . S
H1940 C1937 0.950 . S
C1941 C1932 1.390 . S
C1941 H1934 0.950 . S
C1941 C1938 1.387 . S
C1942 C1943 1.387 1_554 S
C1942 H1946 0.950 . S
C1942 C1951 1.390 . S
C1943 C1942 1.387 1_556 S
C1943 C1945 1.387 . S
H1944 C1951 0.950 . S
C1945 C1943 1.387 . S
C1945 C1947 1.390 . S
C1945 H1949 0.950 . S
H1946 C1942 0.950 . S
C1947 C1945 1.390 . S
C1947 C1948 1.387 1_556 S
C1947 H1950 0.950 . S
C1948 C1947 1.387 1_554 S
C1948 C1951 1.387 . S
H1949 C1945 0.950 . S
H1950 C1947 0.950 . S
C1951 C1942 1.390 . S
C1951 H1944 0.950 . S
C1951 C1948 1.387 . S
C1952 C1953 1.387 . S
C1952 H1956 0.950 . S
C1952 C1961 1.390 1_554 S
C1953 C1952 1.387 . S
C1953 C1955 1.387 . S
H1954 C1961 0.950 . S
C1955 C1953 1.387 . S
C1955 C1957 1.390 1_554 S
C1955 H1959 0.950 . S
H1956 C1952 0.950 . S
C1957 C1955 1.390 1_556 S
C1957 C1958 1.387 . S
C1957 H1960 0.950 . S
C1958 C1957 1.387 . S
C1958 C1961 1.387 . S
H1959 C1955 0.950 . S
H1960 C1957 0.950 . S
C1961 C1952 1.390 1_556 S
C1961 H1954 0.950 . S
C1961 C1958 1.387 . S
C1962 C1963 1.387 . S
C1962 H1966 0.950 . S
C1962 C1971 1.390 . S
C1963 C1962 1.387 . S
C1963 C1965 1.387 . S
H1964 C1971 0.950 . S
C1965 C1963 1.387 . S
C1965 C1967 1.390 . S
C1965 H1969 0.950 . S
H1966 C1962 0.950 . S
C1967 C1965 1.390 . S
C1967 C1968 1.387 . S
C1967 H1970 0.950 . S
C1968 C1967 1.387 . S
C1968 C1971 1.387 . S
H1969 C1965 0.950 . S
H1970 C1967 0.950 . S
C1971 C1962 1.390 . S
C1971 H1964 0.950 . S
C1971 C1968 1.387 . S
C1972 C1973 1.387 . S
C1972 H1976 0.950 . S
C1972 C1981 1.390 . S
C1973 C1972 1.387 . S
C1973 C1975 1.387 . S
H1974 C1981 0.950 . S
C1975 C1973 1.387 . S
C1975 C1977 1.390 . S
C1975 H1979 0.950 . S
H1976 C1972 0.950 . S
C1977 C1975 1.390 . S
C1977 C1978 1.387 . S
C1977 H1980 0.950 . S
C1978 C1977 1.387 . S
C1978 C1981 1.387 . S
H1979 C1975 0.950 . S
H1980 C1977 0.950 . S
C1981 C1972 1.390 . S
C1981 H1974 0.950 . S
C1981 C1978 1.387 . S
C1982 C1983 1.387 . S
C1982 H1986 0.950 . S
C1982 C1991 1.390 . S
C1983 C1982 1.387 . S
C1983 C1985 1.387 . S
H1984 C1991 0.950 . S
C1985 C1983 1.387 . S
C1985 C1987 1.390 . S
C1985 H1989 0.950 . S
H1986 C1982 0.950 . S
C1987 C1985 1.390 . S
C1987 C1988 1.387 . S
C1987 H1990 0.950 . S
C1988 C1987 1.387 . S
C1988 C1991 1.387 . S
H1989 C1985 0.950 . S
H1990 C1987 0.950 . S
C1991 C1982 1.390 . S
C1991 H1984 0.950 . S
C1991 C1988 1.387 . S
C1992 C1993 1.387 . S
C1992 H1996 0.950 . S
C1992 C2001 1.390 . S
C1993 C1992 1.387 . S
C1993 C1995 1.387 . S
H1994 C2001 0.950 . S
C1995 C1993 1.387 . S
C1995 C1997 1.390 . S
C1995 H1999 0.950 . S
H1996 C1992 0.950 . S
C1997 C1995 1.390 . S
C1997 C1998 1.387 . S
C1997 H2000 0.950 . S
C1998 C1997 1.387 . S
C1998 C2001 1.387 . S
H1999 C1995 0.950 . S
H2000 C1997 0.950 . S
C2001 C1992 1.390 . S
C2001 H1994 0.950 . S
C2001 C1998 1.387 . S
C2002 C2003 1.387 . S
C2002 H2006 0.950 . S
C2002 C2011 1.390 1_565 S
C2003 C2002 1.387 . S
C2003 C2005 1.387 . S
H2004 C2011 0.950 . S
C2005 C2003 1.387 . S
C2005 C2007 1.390 1_565 S
C2005 H2009 0.950 . S
H2006 C2002 0.950 . S
C2007 C2005 1.390 1_545 S
C2007 C2008 1.387 . S
C2007 H2010 0.950 . S
C2008 C2007 1.387 . S
C2008 C2011 1.387 . S
H2009 C2005 0.950 . S
H2010 C2007 0.950 . S
C2011 C2002 1.390 1_545 S
C2011 H2004 0.950 . S
C2011 C2008 1.387 . S
C2012 C2013 1.387 . S
C2012 H2016 0.950 . S
C2012 C2021 1.390 . S
C2013 C2012 1.387 . S
C2013 C2015 1.387 . S
H2014 C2021 0.950 . S
C2015 C2013 1.387 . S
C2015 C2017 1.390 . S
C2015 H2019 0.950 . S
H2016 C2012 0.950 . S
C2017 C2015 1.390 . S
C2017 C2018 1.387 . S
C2017 H2020 0.950 . S
C2018 C2017 1.387 . S
C2018 C2021 1.387 . S
H2019 C2015 0.950 . S
H2020 C2017 0.950 . S
C2021 C2012 1.390 . S
C2021 H2014 0.950 . S
C2021 C2018 1.387 . S
C2022 C2023 1.387 . S
C2022 H2026 0.950 . S
C2022 C2031 1.390 1_455 S
C2023 C2022 1.387 . S
C2023 C2025 1.387 . S
H2024 C2031 0.950 . S
C2025 C2023 1.387 . S
C2025 C2027 1.390 1_455 S
C2025 H2029 0.950 . S
H2026 C2022 0.950 . S
C2027 C2025 1.390 1_655 S
C2027 C2028 1.387 . S
C2027 H2030 0.950 . S
C2028 C2027 1.387 . S
C2028 C2031 1.387 . S
H2029 C2025 0.950 . S
H2030 C2027 0.950 . S
C2031 C2022 1.390 1_655 S
C2031 H2024 0.950 . S
C2031 C2028 1.387 . S
C2032 C2033 1.387 . S
C2032 H2036 0.950 . S
C2032 C2041 1.390 . S
C2033 C2032 1.387 . S
C2033 C2035 1.387 . S
H2034 C2041 0.950 . S
C2035 C2033 1.387 . S
C2035 C2037 1.390 . S
C2035 H2039 0.950 . S
H2036 C2032 0.950 . S
C2037 C2035 1.390 . S
C2037 C2038 1.387 . S
C2037 H2040 0.950 . S
C2038 C2037 1.387 . S
C2038 C2041 1.387 . S
H2039 C2035 0.950 . S
H2040 C2037 0.950 . S
C2041 C2032 1.390 . S
C2041 H2034 0.950 . S
C2041 C2038 1.387 . S
C2042 C2043 1.387 . S
C2042 H2046 0.950 . S
C2042 C2051 1.390 . S
C2043 C2042 1.387 . S
C2043 C2045 1.387 . S
H2044 C2051 0.950 . S
C2045 C2043 1.387 . S
C2045 C2047 1.390 . S
C2045 H2049 0.950 . S
H2046 C2042 0.950 . S
C2047 C2045 1.390 . S
C2047 C2048 1.387 . S
C2047 H2050 0.950 . S
C2048 C2047 1.387 . S
C2048 C2051 1.387 . S
H2049 C2045 0.950 . S
H2050 C2047 0.950 . S
C2051 C2042 1.390 . S
C2051 H2044 0.950 . S
C2051 C2048 1.387 . S
C2052 C2053 1.387 . S
C2052 H2056 0.950 . S
C2052 C2061 1.390 . S
C2053 C2052 1.387 . S
C2053 C2055 1.387 . S
H2054 C2061 0.950 . S
C2055 C2053 1.387 . S
C2055 C2057 1.390 . S
C2055 H2059 0.950 . S
H2056 C2052 0.950 . S
C2057 C2055 1.390 . S
C2057 C2058 1.387 . S
C2057 H2060 0.950 . S
C2058 C2057 1.387 . S
C2058 C2061 1.387 . S
H2059 C2055 0.950 . S
H2060 C2057 0.950 . S
C2061 C2052 1.390 . S
C2061 H2054 0.950 . S
C2061 C2058 1.387 . S
C2062 C2063 1.387 . S
C2062 H2066 0.950 . S
C2062 C2071 1.390 . S
C2063 C2062 1.387 . S
C2063 C2065 1.387 . S
H2064 C2071 0.950 . S
C2065 C2063 1.387 . S
C2065 C2067 1.390 . S
C2065 H2069 0.950 . S
H2066 C2062 0.950 . S
C2067 C2065 1.390 . S
C2067 C2068 1.387 . S
C2067 H2070 0.950 . S
C2068 C2067 1.387 . S
C2068 C2071 1.387 . S
H2069 C2065 0.950 . S
H2070 C2067 0.950 . S
C2071 C2062 1.390 . S
C2071 H2064 0.950 . S
C2071 C2068 1.387 . S
C2072 C2073 1.387 . S
C2072 H2076 0.950 . S
C2072 C2081 1.390 1_565 S
C2073 C2072 1.387 . S
C2073 C2075 1.387 . S
H2074 C2081 0.950 . S
C2075 C2073 1.387 . S
C2075 C2077 1.390 1_565 S
C2075 H2079 0.950 . S
H2076 C2072 0.950 . S
C2077 C2075 1.390 1_545 S
C2077 C2078 1.387 . S
C2077 H2080 0.950 . S
C2078 C2077 1.387 . S
C2078 C2081 1.387 . S
H2079 C2075 0.950 . S
H2080 C2077 0.950 . S
C2081 C2072 1.390 1_545 S
C2081 H2074 0.950 . S
C2081 C2078 1.387 . S
C2082 C2083 1.387 . S
C2082 H2086 0.950 . S
C2082 C2091 1.390 . S
C2083 C2082 1.387 . S
C2083 C2085 1.387 . S
H2084 C2091 0.950 . S
C2085 C2083 1.387 . S
C2085 C2087 1.390 . S
C2085 H2089 0.950 . S
H2086 C2082 0.950 . S
C2087 C2085 1.390 . S
C2087 C2088 1.387 . S
C2087 H2090 0.950 . S
C2088 C2087 1.387 . S
C2088 C2091 1.387 . S
H2089 C2085 0.950 . S
H2090 C2087 0.950 . S
C2091 C2082 1.390 . S
C2091 H2084 0.950 . S
C2091 C2088 1.387 . S
C2092 C2093 1.387 . S
C2092 H2096 0.950 . S
C2092 C2101 1.390 1_556 S
C2093 C2092 1.387 . S
C2093 C2095 1.387 . S
H2094 C2101 0.950 . S
C2095 C2093 1.387 . S
C2095 C2097 1.390 1_556 S
C2095 H2099 0.950 . S
H2096 C2092 0.950 . S
C2097 C2095 1.390 1_554 S
C2097 C2098 1.387 . S
C2097 H2100 0.950 . S
C2098 C2097 1.387 . S
C2098 C2101 1.387 . S
H2099 C2095 0.950 . S
H2100 C2097 0.950 . S
C2101 C2092 1.390 1_554 S
C2101 H2094 0.950 . S
C2101 C2098 1.387 . S
C2102 C2103 1.387 . S
C2102 H2106 0.950 . S
C2102 C2111 1.390 1_565 S
C2103 C2102 1.387 . S
C2103 C2105 1.387 . S
H2104 C2111 0.950 . S
C2105 C2103 1.387 . S
C2105 C2107 1.390 1_565 S
C2105 H2109 0.950 . S
H2106 C2102 0.950 . S
C2107 C2105 1.390 1_545 S
C2107 C2108 1.387 . S
C2107 H2110 0.950 . S
C2108 C2107 1.387 . S
C2108 C2111 1.387 . S
H2109 C2105 0.950 . S
H2110 C2107 0.950 . S
C2111 C2102 1.390 1_545 S
C2111 H2104 0.950 . S
C2111 C2108 1.387 . S
C2112 C2113 1.387 . S
C2112 H2116 0.950 . S
C2112 C2121 1.390 . S
C2113 C2112 1.387 . S
C2113 C2115 1.387 . S
H2114 C2121 0.950 . S
C2115 C2113 1.387 . S
C2115 C2117 1.390 . S
C2115 H2119 0.950 . S
H2116 C2112 0.950 . S
C2117 C2115 1.390 . S
C2117 C2118 1.387 . S
C2117 H2120 0.950 . S
C2118 C2117 1.387 . S
C2118 C2121 1.387 . S
H2119 C2115 0.950 . S
H2120 C2117 0.950 . S
C2121 C2112 1.390 . S
C2121 H2114 0.950 . S
C2121 C2118 1.387 . S
C2122 C2123 1.387 . S
C2122 H2126 0.950 . S
C2122 C2131 1.390 . S
C2123 C2122 1.387 . S
C2123 C2125 1.387 . S
H2124 C2131 0.950 . S
C2125 C2123 1.387 . S
C2125 C2127 1.390 . S
C2125 H2129 0.950 . S
H2126 C2122 0.950 . S
C2127 C2125 1.390 . S
C2127 C2128 1.387 . S
C2127 H2130 0.950 . S
C2128 C2127 1.387 . S
C2128 C2131 1.387 . S
H2129 C2125 0.950 . S
H2130 C2127 0.950 . S
C2131 C2122 1.390 . S
C2131 H2124 0.950 . S
C2131 C2128 1.387 . S
C2132 C2133 1.387 . S
C2132 H2136 0.950 . S
C2132 C2141 1.390 . S
C2133 C2132 1.387 . S
C2133 C2135 1.387 . S
H2134 C2141 0.950 . S
C2135 C2133 1.387 . S
C2135 C2137 1.390 . S
C2135 H2139 0.950 . S
H2136 C2132 0.950 . S
C2137 C2135 1.390 . S
C2137 C2138 1.387 . S
C2137 H2140 0.950 . S
C2138 C2137 1.387 . S
C2138 C2141 1.387 . S
H2139 C2135 0.950 . S
H2140 C2137 0.950 . S
C2141 C2132 1.390 . S
C2141 H2134 0.950 . S
C2141 C2138 1.387 . S
C2142 C2143 1.387 . S
C2142 H2146 0.950 . S
C2142 C2151 1.390 . S
C2143 C2142 1.387 . S
C2143 C2145 1.387 . S
H2144 C2151 0.950 . S
C2145 C2143 1.387 . S
C2145 C2147 1.390 . S
C2145 H2149 0.950 . S
H2146 C2142 0.950 . S
C2147 C2145 1.390 . S
C2147 C2148 1.387 . S
C2147 H2150 0.950 1_565 S
C2148 C2147 1.387 . S
C2148 C2151 1.387 . S
H2149 C2145 0.950 . S
H2150 C2147 0.950 1_545 S
C2151 C2142 1.390 . S
C2151 H2144 0.950 . S
C2151 C2148 1.387 . S
C2152 C2153 1.387 . S
C2152 H2156 0.950 . S
C2152 C2161 1.390 . S
C2153 C2152 1.387 . S
C2153 C2155 1.387 . S
H2154 C2161 0.950 . S
C2155 C2153 1.387 . S
C2155 C2157 1.390 . S
C2155 H2159 0.950 . S
H2156 C2152 0.950 . S
C2157 C2155 1.390 . S
C2157 C2158 1.387 . S
C2157 H2160 0.950 . S
C2158 C2157 1.387 . S
C2158 C2161 1.387 . S
H2159 C2155 0.950 . S
H2160 C2157 0.950 . S
C2161 C2152 1.390 . S
C2161 H2154 0.950 . S
C2161 C2158 1.387 . S
C2162 C2163 1.387 . S
C2162 H2166 0.950 . S
C2162 C2171 1.390 1_455 S
C2163 C2162 1.387 . S
C2163 C2165 1.387 . S
H2164 C2171 0.950 . S
C2165 C2163 1.387 . S
C2165 C2167 1.390 1_455 S
C2165 H2169 0.950 . S
H2166 C2162 0.950 . S
C2167 C2165 1.390 1_655 S
C2167 C2168 1.387 . S
C2167 H2170 0.950 . S
C2168 C2167 1.387 . S
C2168 C2171 1.387 . S
H2169 C2165 0.950 . S
H2170 C2167 0.950 . S
C2171 C2162 1.390 1_655 S
C2171 H2164 0.950 . S
C2171 C2168 1.387 . S
C2172 C2173 1.387 . S
C2172 H2176 0.950 . S
C2172 C2181 1.390 . S
C2173 C2172 1.387 . S
C2173 C2175 1.387 . S
H2174 C2181 0.950 . S
C2175 C2173 1.387 . S
C2175 C2177 1.390 . S
C2175 H2179 0.950 . S
H2176 C2172 0.950 . S
C2177 C2175 1.390 . S
C2177 C2178 1.387 . S
C2177 H2180 0.950 . S
C2178 C2177 1.387 . S
C2178 C2181 1.387 . S
H2179 C2175 0.950 . S
H2180 C2177 0.950 . S
C2181 C2172 1.390 . S
C2181 H2174 0.950 . S
C2181 C2178 1.387 . S
C2182 C2183 1.387 1_455 S
C2182 H2186 0.950 1_565 S
C2182 C2191 1.390 . S
C2183 C2182 1.387 1_655 S
C2183 C2185 1.387 . S
H2184 C2191 0.950 . S
C2185 C2183 1.387 . S
C2185 C2187 1.390 . S
C2185 H2189 0.950 . S
H2186 C2182 0.950 1_545 S
C2187 C2185 1.390 . S
C2187 C2188 1.387 1_655 S
C2187 H2190 0.950 . S
C2188 C2187 1.387 1_455 S
C2188 C2191 1.387 . S
H2189 C2185 0.950 . S
H2190 C2187 0.950 . S
C2191 C2182 1.390 . S
C2191 H2184 0.950 . S
C2191 C2188 1.387 . S
C2192 C2193 1.387 . S
C2192 H2196 0.950 . S
C2192 C2201 1.390 . S
C2193 C2192 1.387 . S
C2193 C2195 1.387 . S
H2194 C2201 0.950 . S
C2195 C2193 1.387 . S
C2195 C2197 1.390 . S
C2195 H2199 0.950 . S
H2196 C2192 0.950 . S
C2197 C2195 1.390 . S
C2197 C2198 1.387 . S
C2197 H2200 0.950 . S
C2198 C2197 1.387 . S
C2198 C2201 1.387 . S
H2199 C2195 0.950 . S
H2200 C2197 0.950 . S
C2201 C2192 1.390 . S
C2201 H2194 0.950 . S
C2201 C2198 1.387 . S
C2202 C2203 1.402 . S
C2202 H2206 0.954 . S
C2202 C2211 1.372 1_556 S
C2203 C2202 1.402 . S
C2203 C2205 1.387 . S
H2204 C2211 0.950 . S
C2205 C2203 1.387 . S
C2205 C2207 1.390 1_556 S
C2205 H2209 0.950 . S
H2206 C2202 0.954 . S
C2207 C2205 1.390 1_554 S
C2207 C2208 1.387 . S
C2207 H2210 0.950 . S
C2208 C2207 1.387 . S
C2208 C2211 1.387 . S
H2209 C2205 0.950 . S
H2210 C2207 0.950 . S
C2211 C2202 1.372 1_554 S
C2211 H2204 0.950 . S
C2211 C2208 1.387 . S
C2212 C2213 1.387 . S
C2212 H2216 0.950 . S
C2212 C2221 1.390 . S
C2213 C2212 1.387 . S
C2213 C2215 1.387 . S
H2214 C2221 0.950 . S
C2215 C2213 1.387 . S
C2215 C2217 1.390 . S
C2215 H2219 0.950 . S
H2216 C2212 0.950 . S
C2217 C2215 1.390 . S
C2217 C2218 1.387 . S
C2217 H2220 0.950 . S
C2218 C2217 1.387 . S
C2218 C2221 1.387 . S
H2219 C2215 0.950 . S
H2220 C2217 0.950 . S
C2221 C2212 1.390 . S
C2221 H2214 0.950 . S
C2221 C2218 1.387 . S
C2222 C2223 1.387 1_554 S
C2222 H2226 0.950 . S
C2222 C2231 1.390 . S
C2223 C2222 1.387 1_556 S
C2223 C2225 1.387 . S
H2224 C2231 0.950 . S
C2225 C2223 1.387 . S
C2225 C2227 1.390 . S
C2225 H2229 0.950 . S
H2226 C2222 0.950 . S
C2227 C2225 1.390 . S
C2227 C2228 1.387 1_556 S
C2227 H2230 0.950 . S
C2228 C2227 1.387 1_554 S
C2228 C2231 1.387 . S
H2229 C2225 0.950 . S
H2230 C2227 0.950 . S
C2231 C2222 1.390 . S
C2231 H2224 0.950 . S
C2231 C2228 1.387 . S
C2232 C2233 1.387 . S
C2232 H2236 0.950 . S
C2232 C2241 1.390 . S
C2233 C2232 1.387 . S
C2233 C2235 1.387 . S
H2234 C2241 0.950 . S
C2235 C2233 1.387 . S
C2235 C2237 1.390 . S
C2235 H2239 0.950 . S
H2236 C2232 0.950 . S
C2237 C2235 1.390 . S
C2237 C2238 1.387 . S
C2237 H2240 0.950 . S
C2238 C2237 1.387 . S
C2238 C2241 1.387 . S
H2239 C2235 0.950 . S
H2240 C2237 0.950 . S
C2241 C2232 1.390 . S
C2241 H2234 0.950 . S
C2241 C2238 1.387 . S
C2242 C2243 1.387 . S
C2242 H2246 0.950 1_455 S
C2242 C2251 1.390 1_556 S
C2243 C2242 1.387 . S
C2243 C2245 1.387 . S
H2244 C2251 0.950 . S
C2245 C2243 1.387 . S
C2245 C2247 1.390 1_556 S
C2245 H2249 0.950 . S
H2246 C2242 0.950 1_655 S
C2247 C2245 1.390 1_554 S
C2247 C2248 1.387 . S
C2247 H2250 0.950 . S
C2248 C2247 1.387 . S
C2248 C2251 1.387 . S
H2249 C2245 0.950 . S
H2250 C2247 0.950 . S
C2251 C2242 1.390 1_554 S
C2251 H2244 0.950 . S
C2251 C2248 1.387 . S
C2252 C2253 1.387 . S
C2252 H2256 0.950 . S
C2252 C2261 1.390 . S
C2253 C2252 1.387 . S
C2253 C2255 1.387 . S
H2254 C2261 0.950 . S
C2255 C2253 1.387 . S
C2255 C2257 1.390 . S
C2255 H2259 0.950 . S
H2256 C2252 0.950 . S
C2257 C2255 1.390 . S
C2257 C2258 1.387 . S
C2257 H2260 0.950 . S
C2258 C2257 1.387 . S
C2258 C2261 1.387 . S
H2259 C2255 0.950 . S
H2260 C2257 0.950 . S
C2261 C2252 1.390 . S
C2261 H2254 0.950 . S
C2261 C2258 1.387 . S
C2262 C2263 1.387 . S
C2262 H2266 0.950 . S
C2262 C2271 1.390 1_556 S
C2263 C2262 1.387 . S
C2263 C2265 1.387 . S
H2264 C2271 0.950 . S
C2265 C2263 1.387 . S
C2265 C2267 1.390 . S
C2265 H2269 0.950 . S
H2266 C2262 0.950 . S
C2267 C2265 1.390 . S
C2267 C2268 1.387 1_556 S
C2267 H2270 0.950 . S
C2268 C2267 1.387 1_554 S
C2268 C2271 1.387 . S
H2269 C2265 0.950 . S
H2270 C2267 0.950 . S
C2271 C2262 1.390 1_554 S
C2271 H2264 0.950 . S
C2271 C2268 1.387 . S
C2272 C2273 1.387 . S
C2272 H2276 0.950 . S
C2272 C2281 1.390 . S
C2273 C2272 1.387 . S
C2273 C2275 1.387 . S
H2274 C2281 0.950 . S
C2275 C2273 1.387 . S
C2275 C2277 1.390 . S
C2275 H2279 0.950 . S
H2276 C2272 0.950 . S
C2277 C2275 1.390 . S
C2277 C2278 1.387 . S
C2277 H2280 0.950 . S
C2278 C2277 1.387 . S
C2278 C2281 1.387 . S
H2279 C2275 0.950 . S
H2280 C2277 0.950 . S
C2281 C2272 1.390 . S
C2281 H2274 0.950 . S
C2281 C2278 1.387 . S
C2282 C2283 1.387 . S
C2282 H2286 0.950 . S
C2282 C2291 1.390 . S
C2283 C2282 1.387 . S
C2283 C2285 1.387 . S
H2284 C2291 0.950 . S
C2285 C2283 1.387 . S
C2285 C2287 1.390 . S
C2285 H2289 0.950 . S
H2286 C2282 0.950 . S
C2287 C2285 1.390 . S
C2287 C2288 1.387 . S
C2287 H2290 0.950 . S
C2288 C2287 1.387 . S
C2288 C2291 1.387 . S
H2289 C2285 0.950 . S
H2290 C2287 0.950 . S
C2291 C2282 1.390 . S
C2291 H2284 0.950 . S
C2291 C2288 1.387 . S
C2292 C2293 1.387 . S
C2292 H2296 0.950 1_556 S
C2292 C2301 1.390 . S
C2293 C2292 1.387 . S
C2293 C2295 1.387 . S
H2294 C2301 0.950 . S
C2295 C2293 1.387 . S
C2295 C2297 1.390 . S
C2295 H2299 0.950 . S
H2296 C2292 0.950 1_554 S
C2297 C2295 1.390 . S
C2297 C2298 1.387 . S
C2297 H2300 0.950 . S
C2298 C2297 1.387 . S
C2298 C2301 1.387 . S
H2299 C2295 0.950 . S
H2300 C2297 0.950 . S
C2301 C2292 1.390 . S
C2301 H2294 0.950 . S
C2301 C2298 1.387 . S
C2302 C2303 1.387 . S
C2302 H2306 0.950 . S
C2302 C2311 1.390 . S
C2303 C2302 1.387 . S
C2303 C2305 1.387 . S
H2304 C2311 0.950 . S
C2305 C2303 1.387 . S
C2305 C2307 1.390 . S
C2305 H2309 0.950 . S
H2306 C2302 0.950 . S
C2307 C2305 1.390 . S
C2307 C2308 1.387 . S
C2307 H2310 0.950 . S
C2308 C2307 1.387 . S
C2308 C2311 1.387 . S
H2309 C2305 0.950 . S
H2310 C2307 0.950 . S
C2311 C2302 1.390 . S
C2311 H2304 0.950 . S
C2311 C2308 1.387 . S
C2312 C2313 1.387 . S
C2312 H2316 0.950 . S
C2312 C2321 1.390 . S
C2313 C2312 1.387 . S
C2313 C2315 1.387 . S
H2314 C2321 0.950 . S
C2315 C2313 1.387 . S
C2315 C2317 1.390 . S
C2315 H2319 0.950 . S
H2316 C2312 0.950 . S
C2317 C2315 1.390 . S
C2317 C2318 1.387 . S
C2317 H2320 0.950 . S
C2318 C2317 1.387 . S
C2318 C2321 1.387 . S
H2319 C2315 0.950 . S
H2320 C2317 0.950 . S
C2321 C2312 1.390 . S
C2321 H2314 0.950 . S
C2321 C2318 1.387 . S
C2322 C2323 1.387 . S
C2322 H2326 0.950 . S
C2322 C2331 1.390 . S
C2323 C2322 1.387 . S
C2323 C2325 1.387 . S
H2324 C2331 0.950 . S
C2325 C2323 1.387 . S
C2325 C2327 1.390 . S
C2325 H2329 0.950 . S
H2326 C2322 0.950 . S
C2327 C2325 1.390 . S
C2327 C2328 1.387 . S
C2327 H2330 0.950 . S
C2328 C2327 1.387 . S
C2328 C2331 1.387 . S
H2329 C2325 0.950 . S
H2330 C2327 0.950 . S
C2331 C2322 1.390 . S
C2331 H2324 0.950 . S
C2331 C2328 1.387 . S
C2332 C2333 1.387 . S
C2332 H2336 0.950 . S
C2332 C2341 1.390 . S
C2333 C2332 1.387 . S
C2333 C2335 1.387 . S
H2334 C2341 0.950 . S
C2335 C2333 1.387 . S
C2335 C2337 1.390 . S
C2335 H2339 0.950 . S
H2336 C2332 0.950 . S
C2337 C2335 1.390 . S
C2337 C2338 1.387 . S
C2337 H2340 0.950 . S
C2338 C2337 1.387 . S
C2338 C2341 1.387 . S
H2339 C2335 0.950 . S
H2340 C2337 0.950 . S
C2341 C2332 1.390 . S
C2341 H2334 0.950 . S
C2341 C2338 1.387 . S
C2342 C2343 1.387 1_565 S
C2342 H2346 0.950 . S
C2342 C2351 1.390 . S
C2343 C2342 1.387 1_545 S
C2343 C2345 1.387 . S
H2344 C2351 0.950 . S
C2345 C2343 1.387 . S
C2345 C2347 1.390 . S
C2345 H2349 0.950 . S
H2346 C2342 0.950 . S
C2347 C2345 1.390 . S
C2347 C2348 1.387 1_545 S
C2347 H2350 0.950 . S
C2348 C2347 1.387 1_565 S
C2348 C2351 1.387 . S
H2349 C2345 0.950 . S
H2350 C2347 0.950 . S
C2351 C2342 1.390 . S
C2351 H2344 0.950 . S
C2351 C2348 1.387 . S
C2352 C2353 1.387 . S
C2352 H2356 0.950 . S
C2352 C2361 1.390 . S
C2353 C2352 1.387 . S
C2353 C2355 1.387 . S
H2354 C2361 0.950 . S
C2355 C2353 1.387 . S
C2355 C2357 1.390 . S
C2355 H2359 0.950 . S
H2356 C2352 0.950 . S
C2357 C2355 1.390 . S
C2357 C2358 1.387 . S
C2357 H2360 0.950 . S
C2358 C2357 1.387 . S
C2358 C2361 1.387 . S
H2359 C2355 0.950 . S
H2360 C2357 0.950 . S
C2361 C2352 1.390 . S
C2361 H2354 0.950 . S
C2361 C2358 1.387 . S
C2362 C2363 1.387 . S
C2362 H2366 0.950 . S
C2362 C2371 1.390 1_455 S
C2363 C2362 1.387 . S
C2363 C2365 1.410 . S
H2364 C2371 0.950 1_565 S
C2365 C2363 1.410 . S
C2365 C2367 1.362 1_455 S
C2365 H2369 0.957 . S
H2366 C2362 0.950 . S
C2367 C2365 1.362 1_655 S
C2367 C2368 1.387 . S
C2367 H2370 0.950 . S
C2368 C2367 1.387 . S
C2368 C2371 1.387 . S
H2369 C2365 0.957 . S
H2370 C2367 0.950 . S
C2371 C2362 1.390 1_655 S
C2371 H2364 0.950 1_545 S
C2371 C2368 1.387 . S
C2372 C2373 1.387 . S
C2372 H2376 0.950 . S
C2372 C2381 1.390 . S
C2373 C2372 1.387 . S
C2373 C2375 1.387 . S
H2374 C2381 0.950 . S
C2375 C2373 1.387 . S
C2375 C2377 1.390 . S
C2375 H2379 0.950 . S
H2376 C2372 0.950 . S
C2377 C2375 1.390 . S
C2377 C2378 1.387 . S
C2377 H2380 0.950 . S
C2378 C2377 1.387 . S
C2378 C2381 1.387 . S
H2379 C2375 0.950 . S
H2380 C2377 0.950 . S
C2381 C2372 1.390 . S
C2381 H2374 0.950 . S
C2381 C2378 1.387 . S
C2382 C2383 1.387 . S
C2382 H2386 0.950 . S
C2382 C2391 1.390 1_455 S
C2383 C2382 1.387 . S
C2383 C2385 1.387 . S
H2384 C2391 0.950 . S
C2385 C2383 1.387 . S
C2385 C2387 1.390 1_455 S
C2385 H2389 0.950 . S
H2386 C2382 0.950 . S
C2387 C2385 1.390 1_655 S
C2387 C2388 1.387 . S
C2387 H2390 0.950 . S
C2388 C2387 1.387 . S
C2388 C2391 1.387 . S
H2389 C2385 0.950 . S
H2390 C2387 0.950 . S
C2391 C2382 1.390 1_655 S
C2391 H2384 0.950 . S
C2391 C2388 1.387 . S
C2392 C2393 1.387 . S
C2392 H2396 0.950 . S
C2392 C2401 1.390 . S
C2393 C2392 1.387 . S
C2393 C2395 1.387 . S
H2394 C2401 0.950 . S
C2395 C2393 1.387 . S
C2395 C2397 1.390 . S
C2395 H2399 0.950 . S
H2396 C2392 0.950 . S
C2397 C2395 1.390 . S
C2397 C2398 1.387 . S
C2397 H2400 0.950 . S
C2398 C2397 1.387 . S
C2398 C2401 1.387 . S
H2399 C2395 0.950 . S
H2400 C2397 0.950 . S
C2401 C2392 1.390 . S
C2401 H2394 0.950 . S
C2401 C2398 1.387 . S
C2402 C2403 1.387 . S
C2402 H2406 0.950 1_545 S
C2402 C2411 1.390 . S
C2403 C2402 1.387 . S
C2403 C2405 1.387 . S
H2404 C2411 0.950 . S
C2405 C2403 1.387 . S
C2405 C2407 1.390 . S
C2405 H2409 0.950 . S
H2406 C2402 0.950 1_565 S
C2407 C2405 1.390 . S
C2407 C2408 1.387 . S
C2407 H2410 0.950 . S
C2408 C2407 1.387 . S
C2408 C2411 1.387 . S
H2409 C2405 0.950 . S
H2410 C2407 0.950 . S
C2411 C2402 1.390 . S
C2411 H2404 0.950 . S
C2411 C2408 1.387 . S
C2412 C2413 1.387 . S
C2412 H2416 0.950 . S
C2412 C2421 1.390 . S
C2413 C2412 1.387 . S
C2413 C2415 1.387 . S
H2414 C2421 0.950 . S
C2415 C2413 1.387 . S
C2415 C2417 1.390 . S
C2415 H2419 0.950 . S
H2416 C2412 0.950 . S
C2417 C2415 1.390 . S
C2417 C2418 1.387 . S
C2417 H2420 0.950 . S
C2418 C2417 1.387 . S
C2418 C2421 1.387 . S
H2419 C2415 0.950 . S
H2420 C2417 0.950 . S
C2421 C2412 1.390 . S
C2421 H2414 0.950 . S
C2421 C2418 1.387 . S
C2422 C2423 1.387 . S
C2422 H2426 0.950 . S
C2422 C2431 1.390 . S
C2423 C2422 1.387 . S
C2423 C2425 1.387 . S
H2424 C2431 0.950 . S
C2425 C2423 1.387 . S
C2425 C2427 1.390 . S
C2425 H2429 0.950 . S
H2426 C2422 0.950 . S
C2427 C2425 1.390 . S
C2427 C2428 1.387 . S
C2427 H2430 0.950 . S
C2428 C2427 1.387 . S
C2428 C2431 1.387 . S
H2429 C2425 0.950 . S
H2430 C2427 0.950 . S
C2431 C2422 1.390 . S
C2431 H2424 0.950 . S
C2431 C2428 1.387 . S
C2432 C2433 1.387 . S
C2432 H2436 0.950 . S
C2432 C2441 1.390 . S
C2433 C2432 1.387 . S
C2433 C2435 1.387 . S
H2434 C2441 0.950 . S
C2435 C2433 1.387 . S
C2435 C2437 1.390 . S
C2435 H2439 0.950 . S
H2436 C2432 0.950 . S
C2437 C2435 1.390 . S
C2437 C2438 1.387 . S
C2437 H2440 0.950 . S
C2438 C2437 1.387 . S
C2438 C2441 1.387 . S
H2439 C2435 0.950 . S
H2440 C2437 0.950 . S
C2441 C2432 1.390 . S
C2441 H2434 0.950 . S
C2441 C2438 1.387 . S
C2442 C2443 1.387 . S
C2442 H2446 0.950 . S
C2442 C2451 1.390 . S
C2443 C2442 1.387 . S
C2443 C2445 1.387 . S
H2444 C2451 0.950 . S
C2445 C2443 1.387 . S
C2445 C2447 1.390 . S
C2445 H2449 0.950 . S
H2446 C2442 0.950 . S
C2447 C2445 1.390 . S
C2447 C2448 1.387 . S
C2447 H2450 0.950 . S
C2448 C2447 1.387 . S
C2448 C2451 1.387 . S
H2449 C2445 0.950 . S
H2450 C2447 0.950 . S
C2451 C2442 1.390 . S
C2451 H2444 0.950 . S
C2451 C2448 1.387 . S
C2452 C2453 1.387 . S
C2452 H2456 0.950 . S
C2452 C2461 1.390 . S
C2453 C2452 1.387 . S
C2453 C2455 1.387 . S
H2454 C2461 0.950 . S
C2455 C2453 1.387 . S
C2455 C2457 1.390 . S
C2455 H2459 0.950 . S
H2456 C2452 0.950 . S
C2457 C2455 1.390 . S
C2457 C2458 1.387 . S
C2457 H2460 0.950 . S
C2458 C2457 1.387 . S
C2458 C2461 1.387 . S
H2459 C2455 0.950 . S
H2460 C2457 0.950 . S
C2461 C2452 1.390 . S
C2461 H2454 0.950 . S
C2461 C2458 1.387 . S
C2462 C2463 1.387 . S
C2462 H2466 0.950 . S
C2462 C2471 1.390 . S
C2463 C2462 1.387 . S
C2463 C2465 1.387 . S
H2464 C2471 0.950 1_655 S
C2465 C2463 1.387 . S
C2465 C2467 1.390 . S
C2465 H2469 0.950 . S
H2466 C2462 0.950 . S
C2467 C2465 1.390 . S
C2467 C2468 1.387 . S
C2467 H2470 0.950 . S
C2468 C2467 1.387 . S
C2468 C2471 1.387 . S
H2469 C2465 0.950 . S
H2470 C2467 0.950 . S
C2471 C2462 1.390 . S
C2471 H2464 0.950 1_455 S
C2471 C2468 1.387 . S
C2472 C2473 1.387 . S
C2472 H2476 0.950 . S
C2472 C2481 1.390 . S
C2473 C2472 1.387 . S
C2473 C2475 1.387 . S
H2474 C2481 0.950 . S
C2475 C2473 1.387 . S
C2475 C2477 1.390 . S
C2475 H2479 0.950 . S
H2476 C2472 0.950 . S
C2477 C2475 1.390 . S
C2477 C2478 1.387 . S
C2477 H2480 0.950 . S
C2478 C2477 1.387 . S
C2478 C2481 1.387 . S
H2479 C2475 0.950 . S
H2480 C2477 0.950 . S
C2481 C2472 1.390 . S
C2481 H2474 0.950 . S
C2481 C2478 1.387 . S
C2482 C2483 1.387 . S
C2482 H2486 0.950 . S
C2482 C2491 1.390 . S
C2483 C2482 1.387 . S
C2483 C2485 1.387 . S
H2484 C2491 0.950 . S
C2485 C2483 1.387 . S
C2485 C2487 1.390 . S
C2485 H2489 0.950 . S
H2486 C2482 0.950 . S
C2487 C2485 1.390 . S
C2487 C2488 1.387 . S
C2487 H2490 0.950 . S
C2488 C2487 1.387 . S
C2488 C2491 1.387 . S
H2489 C2485 0.950 . S
H2490 C2487 0.950 . S
C2491 C2482 1.390 . S
C2491 H2484 0.950 . S
C2491 C2488 1.387 . S
C2492 C2493 1.387 . S
C2492 H2496 0.950 . S
C2492 C2501 1.390 . S
C2493 C2492 1.387 . S
C2493 C2495 1.387 . S
H2494 C2501 0.950 . S
C2495 C2493 1.387 . S
C2495 C2497 1.390 . S
C2495 H2499 0.950 . S
H2496 C2492 0.950 . S
C2497 C2495 1.390 . S
C2497 C2498 1.387 . S
C2497 H2500 0.950 . S
C2498 C2497 1.387 . S
C2498 C2501 1.387 . S
H2499 C2495 0.950 . S
H2500 C2497 0.950 . S
C2501 C2492 1.390 . S
C2501 H2494 0.950 . S
C2501 C2498 1.387 . S
C2502 C2503 1.387 . S
C2502 H2506 0.950 . S
C2502 C2511 1.390 . S
C2503 C2502 1.387 . S
C2503 C2505 1.387 . S
H2504 C2511 0.950 . S
C2505 C2503 1.387 . S
C2505 C2507 1.390 . S
C2505 H2509 0.950 . S
H2506 C2502 0.950 . S
C2507 C2505 1.390 . S
C2507 C2508 1.387 . S
C2507 H2510 0.950 . S
C2508 C2507 1.387 . S
C2508 C2511 1.387 . S
H2509 C2505 0.950 . S
H2510 C2507 0.950 . S
C2511 C2502 1.390 . S
C2511 H2504 0.950 . S
C2511 C2508 1.387 . S
C2512 C2513 1.387 . S
C2512 H2516 0.950 . S
C2512 C2521 1.390 . S
C2513 C2512 1.387 . S
C2513 C2515 1.387 . S
H2514 C2521 0.950 . S
C2515 C2513 1.387 . S
C2515 C2517 1.390 . S
C2515 H2519 0.950 . S
H2516 C2512 0.950 . S
C2517 C2515 1.390 . S
C2517 C2518 1.387 . S
C2517 H2520 0.950 . S
C2518 C2517 1.387 . S
C2518 C2521 1.387 . S
H2519 C2515 0.950 . S
H2520 C2517 0.950 . S
C2521 C2512 1.390 . S
C2521 H2514 0.950 . S
C2521 C2518 1.387 . S
C2522 C2523 1.387 . S
C2522 H2526 0.950 . S
C2522 C2531 1.390 . S
C2523 C2522 1.387 . S
C2523 C2525 1.387 . S
H2524 C2531 0.950 . S
C2525 C2523 1.387 . S
C2525 C2527 1.390 . S
C2525 H2529 0.950 . S
H2526 C2522 0.950 . S
C2527 C2525 1.390 . S
C2527 C2528 1.387 . S
C2527 H2530 0.950 . S
C2528 C2527 1.387 . S
C2528 C2531 1.387 . S
H2529 C2525 0.950 . S
H2530 C2527 0.950 . S
C2531 C2522 1.390 . S
C2531 H2524 0.950 . S
C2531 C2528 1.387 . S
C2532 C2533 1.387 . S
C2532 H2536 0.950 . S
C2532 C2541 1.390 1_565 S
C2533 C2532 1.387 . S
C2533 C2535 1.387 . S
H2534 C2541 0.950 . S
C2535 C2533 1.387 . S
C2535 C2537 1.390 1_565 S
C2535 H2539 0.950 . S
H2536 C2532 0.950 . S
C2537 C2535 1.390 1_545 S
C2537 C2538 1.387 . S
C2537 H2540 0.950 . S
C2538 C2537 1.387 . S
C2538 C2541 1.387 . S
H2539 C2535 0.950 . S
H2540 C2537 0.950 . S
C2541 C2532 1.390 1_545 S
C2541 H2534 0.950 . S
C2541 C2538 1.387 . S
C2542 C2543 1.387 . S
C2542 H2546 0.950 . S
C2542 C2551 1.390 . S
C2543 C2542 1.387 . S
C2543 C2545 1.387 . S
H2544 C2551 0.950 . S
C2545 C2543 1.387 . S
C2545 C2547 1.390 . S
C2545 H2549 0.950 . S
H2546 C2542 0.950 . S
C2547 C2545 1.390 . S
C2547 C2548 1.387 . S
C2547 H2550 0.950 . S
C2548 C2547 1.387 . S
C2548 C2551 1.387 . S
H2549 C2545 0.950 . S
H2550 C2547 0.950 . S
C2551 C2542 1.390 . S
C2551 H2544 0.950 . S
C2551 C2548 1.387 . S
C2552 C2553 1.387 . S
C2552 H2556 0.950 . S
C2552 C2561 1.390 . S
C2553 C2552 1.387 . S
C2553 C2555 1.387 1_545 S
H2554 C2561 0.950 1_554 S
C2555 C2553 1.387 1_565 S
C2555 C2557 1.390 . S
C2555 H2559 0.950 . S
H2556 C2552 0.950 . S
C2557 C2555 1.390 . S
C2557 C2558 1.387 . S
C2557 H2560 0.950 . S
C2558 C2557 1.387 . S
C2558 C2561 1.387 1_565 S
H2559 C2555 0.950 . S
H2560 C2557 0.950 . S
C2561 C2552 1.390 . S
C2561 H2554 0.950 1_556 S
C2561 C2558 1.387 1_545 S
C2562 C2563 1.387 . S
C2562 H2566 0.950 . S
C2562 C2571 1.390 . S
C2563 C2562 1.387 . S
C2563 C2565 1.387 . S
H2564 C2571 0.950 . S
C2565 C2563 1.387 . S
C2565 C2567 1.390 . S
C2565 H2569 0.950 . S
H2566 C2562 0.950 . S
C2567 C2565 1.390 . S
C2567 C2568 1.387 . S
C2567 H2570 0.950 . S
C2568 C2567 1.387 . S
C2568 C2571 1.387 . S
H2569 C2565 0.950 . S
H2570 C2567 0.950 . S
C2571 C2562 1.390 . S
C2571 H2564 0.950 . S
C2571 C2568 1.387 . S
C2572 C2573 1.387 1_565 S
C2572 H2576 0.950 . S
C2572 C2581 1.390 . S
C2573 C2572 1.387 1_545 S
C2573 C2575 1.387 . S
H2574 C2581 0.950 . S
C2575 C2573 1.387 . S
C2575 C2577 1.390 1_545 S
C2575 H2579 0.950 . S
H2576 C2572 0.950 . S
C2577 C2575 1.390 1_565 S
C2577 C2578 1.387 . S
C2577 H2580 0.950 . S
C2578 C2577 1.387 . S
C2578 C2581 1.387 . S
H2579 C2575 0.950 . S
H2580 C2577 0.950 . S
C2581 C2572 1.390 . S
C2581 H2574 0.950 . S
C2581 C2578 1.387 . S
C2582 C2583 1.387 . S
C2582 H2586 0.950 . S
C2582 C2591 1.390 . S
C2583 C2582 1.387 . S
C2583 C2585 1.387 . S
H2584 C2591 0.950 1_556 S
C2585 C2583 1.387 . S
C2585 C2587 1.390 . S
C2585 H2589 0.950 . S
H2586 C2582 0.950 . S
C2587 C2585 1.390 . S
C2587 C2588 1.387 . S
C2587 H2590 0.950 . S
C2588 C2587 1.387 . S
C2588 C2591 1.387 . S
H2589 C2585 0.950 . S
H2590 C2587 0.950 . S
C2591 C2582 1.390 . S
C2591 H2584 0.950 1_554 S
C2591 C2588 1.387 . S
C2592 C2593 1.387 . S
C2592 H2596 0.950 . S
C2592 C2601 1.390 . S
C2593 C2592 1.387 . S
C2593 C2595 1.387 . S
H2594 C2601 0.950 . S
C2595 C2593 1.387 . S
C2595 C2597 1.390 . S
C2595 H2599 0.950 . S
H2596 C2592 0.950 . S
C2597 C2595 1.390 . S
C2597 C2598 1.387 . S
C2597 H2600 0.950 . S
C2598 C2597 1.387 . S
C2598 C2601 1.387 . S
H2599 C2595 0.950 . S
H2600 C2597 0.950 . S
C2601 C2592 1.390 . S
C2601 H2594 0.950 . S
C2601 C2598 1.387 . S
C2602 C2603 1.387 . S
C2602 H2606 0.950 . S
C2602 C2611 1.390 . S
C2603 C2602 1.387 . S
C2603 C2605 1.387 . S
H2604 C2611 0.950 . S
C2605 C2603 1.387 . S
C2605 C2607 1.390 . S
C2605 H2609 0.950 . S
H2606 C2602 0.950 . S
C2607 C2605 1.390 . S
C2607 C2608 1.387 . S
C2607 H2610 0.950 . S
C2608 C2607 1.387 . S
C2608 C2611 1.387 . S
H2609 C2605 0.950 . S
H2610 C2607 0.950 . S
C2611 C2602 1.390 . S
C2611 H2604 0.950 . S
C2611 C2608 1.387 . S
C2612 C2613 1.387 . S
C2612 H2616 0.950 . S
C2612 C2621 1.390 . S
C2613 C2612 1.387 . S
C2613 C2615 1.387 . S
H2614 C2621 0.950 . S
C2615 C2613 1.387 . S
C2615 C2617 1.390 . S
C2615 H2619 0.950 . S
H2616 C2612 0.950 . S
C2617 C2615 1.390 . S
C2617 C2618 1.387 . S
C2617 H2620 0.950 . S
C2618 C2617 1.387 . S
C2618 C2621 1.387 . S
H2619 C2615 0.950 . S
H2620 C2617 0.950 . S
C2621 C2612 1.390 . S
C2621 H2614 0.950 . S
C2621 C2618 1.387 . S
C2622 C2623 1.387 . S
C2622 H2626 0.950 . S
C2622 C2631 1.390 . S
C2623 C2622 1.387 . S
C2623 C2625 1.387 . S
H2624 C2631 0.950 . S
C2625 C2623 1.387 . S
C2625 C2627 1.390 . S
C2625 H2629 0.950 . S
H2626 C2622 0.950 . S
C2627 C2625 1.390 . S
C2627 C2628 1.387 . S
C2627 H2630 0.950 . S
C2628 C2627 1.387 . S
C2628 C2631 1.387 . S
H2629 C2625 0.950 . S
H2630 C2627 0.950 . S
C2631 C2622 1.390 . S
C2631 H2624 0.950 . S
C2631 C2628 1.387 . S
C2632 C2633 1.387 . S
C2632 H2636 0.950 . S
C2632 C2641 1.390 . S
C2633 C2632 1.387 . S
C2633 C2635 1.387 . S
H2634 C2641 0.950 . S
C2635 C2633 1.387 . S
C2635 C2637 1.390 . S
C2635 H2639 0.950 . S
H2636 C2632 0.950 . S
C2637 C2635 1.390 . S
C2637 C2638 1.387 . S
C2637 H2640 0.950 . S
C2638 C2637 1.387 . S
C2638 C2641 1.387 . S
H2639 C2635 0.950 . S
H2640 C2637 0.950 . S
C2641 C2632 1.390 . S
C2641 H2634 0.950 . S
C2641 C2638 1.387 . S
C2642 C2643 1.387 . S
C2642 H2646 0.950 . S
C2642 C2651 1.390 . S
C2643 C2642 1.387 . S
C2643 C2645 1.387 . S
H2644 C2651 0.950 . S
C2645 C2643 1.387 . S
C2645 C2647 1.390 . S
C2645 H2649 0.950 . S
H2646 C2642 0.950 . S
C2647 C2645 1.390 . S
C2647 C2648 1.387 . S
C2647 H2650 0.950 . S
C2648 C2647 1.387 . S
C2648 C2651 1.387 . S
H2649 C2645 0.950 . S
H2650 C2647 0.950 . S
C2651 C2642 1.390 . S
C2651 H2644 0.950 . S
C2651 C2648 1.387 . S
C2652 C2653 1.387 . S
C2652 H2656 0.950 . S
C2652 C2661 1.390 . S
C2653 C2652 1.387 . S
C2653 C2655 1.387 . S
H2654 C2661 0.950 . S
C2655 C2653 1.387 . S
C2655 C2657 1.390 . S
C2655 H2659 0.950 . S
H2656 C2652 0.950 . S
C2657 C2655 1.390 . S
C2657 C2658 1.387 . S
C2657 H2660 0.950 . S
C2658 C2657 1.387 . S
C2658 C2661 1.387 . S
H2659 C2655 0.950 . S
H2660 C2657 0.950 . S
C2661 C2652 1.390 . S
C2661 H2654 0.950 . S
C2661 C2658 1.387 . S
C2662 C2663 1.387 . S
C2662 H2666 0.950 . S
C2662 C2671 1.390 . S
C2663 C2662 1.387 . S
C2663 C2665 1.387 . S
H2664 C2671 0.950 . S
C2665 C2663 1.387 . S
C2665 C2667 1.390 . S
C2665 H2669 0.950 . S
H2666 C2662 0.950 . S
C2667 C2665 1.390 . S
C2667 C2668 1.387 . S
C2667 H2670 0.950 . S
C2668 C2667 1.387 . S
C2668 C2671 1.387 . S
H2669 C2665 0.950 . S
H2670 C2667 0.950 . S
C2671 C2662 1.390 . S
C2671 H2664 0.950 . S
C2671 C2668 1.387 . S
C2672 C2673 1.387 . S
C2672 H2676 0.950 . S
C2672 C2681 1.390 . S
C2673 C2672 1.387 . S
C2673 C2675 1.387 . S
H2674 C2681 0.950 . S
C2675 C2673 1.387 . S
C2675 C2677 1.390 . S
C2675 H2679 0.950 . S
H2676 C2672 0.950 . S
C2677 C2675 1.390 . S
C2677 C2678 1.387 . S
C2677 H2680 0.950 . S
C2678 C2677 1.387 . S
C2678 C2681 1.387 . S
H2679 C2675 0.950 . S
H2680 C2677 0.950 . S
C2681 C2672 1.390 . S
C2681 H2674 0.950 . S
C2681 C2678 1.387 . S
C2682 C2683 1.387 . S
C2682 H2686 0.950 . S
C2682 C2691 1.390 . S
C2683 C2682 1.387 . S
C2683 C2685 1.387 . S
H2684 C2691 0.950 . S
C2685 C2683 1.387 . S
C2685 C2687 1.390 . S
C2685 H2689 0.950 . S
H2686 C2682 0.950 . S
C2687 C2685 1.390 . S
C2687 C2688 1.387 . S
C2687 H2690 0.950 . S
C2688 C2687 1.387 . S
C2688 C2691 1.387 . S
H2689 C2685 0.950 . S
H2690 C2687 0.950 . S
C2691 C2682 1.390 . S
C2691 H2684 0.950 . S
C2691 C2688 1.387 . S
C2692 C2693 1.387 . S
C2692 H2696 0.950 . S
C2692 C2701 1.390 . S
C2693 C2692 1.387 . S
C2693 C2695 1.387 . S
H2694 C2701 0.950 . S
C2695 C2693 1.387 . S
C2695 C2697 1.390 . S
C2695 H2699 0.950 . S
H2696 C2692 0.950 . S
C2697 C2695 1.390 . S
C2697 C2698 1.387 . S
C2697 H2700 0.950 . S
C2698 C2697 1.387 . S
C2698 C2701 1.387 . S
H2699 C2695 0.950 . S
H2700 C2697 0.950 . S
C2701 C2692 1.390 . S
C2701 H2694 0.950 . S
C2701 C2698 1.387 . S
C2702 C2703 1.387 . S
C2702 H2706 0.950 . S
C2702 C2711 1.390 . S
C2703 C2702 1.387 . S
C2703 C2705 1.387 . S
H2704 C2711 0.950 . S
C2705 C2703 1.387 . S
C2705 C2707 1.390 . S
C2705 H2709 0.950 . S
H2706 C2702 0.950 . S
C2707 C2705 1.390 . S
C2707 C2708 1.387 . S
C2707 H2710 0.950 . S
C2708 C2707 1.387 . S
C2708 C2711 1.387 . S
H2709 C2705 0.950 . S
H2710 C2707 0.950 . S
C2711 C2702 1.390 . S
C2711 H2704 0.950 . S
C2711 C2708 1.387 . S
C2712 C2713 1.387 . S
C2712 H2716 0.950 . S
C2712 C2721 1.390 . S
C2713 C2712 1.387 . S
C2713 C2715 1.387 . S
H2714 C2721 0.950 . S
C2715 C2713 1.387 . S
C2715 C2717 1.390 . S
C2715 H2719 0.950 . S
H2716 C2712 0.950 . S
C2717 C2715 1.390 . S
C2717 C2718 1.387 . S
C2717 H2720 0.950 . S
C2718 C2717 1.387 . S
C2718 C2721 1.387 . S
H2719 C2715 0.950 . S
H2720 C2717 0.950 . S
C2721 C2712 1.390 . S
C2721 H2714 0.950 . S
C2721 C2718 1.387 . S
C2722 C2723 1.387 . S
C2722 H2726 0.950 . S
C2722 C2731 1.390 . S
C2723 C2722 1.387 . S
C2723 C2725 1.387 . S
H2724 C2731 0.950 . S
C2725 C2723 1.387 . S
C2725 C2727 1.390 . S
C2725 H2729 0.950 . S
H2726 C2722 0.950 . S
C2727 C2725 1.390 . S
C2727 C2728 1.387 . S
C2727 H2730 0.950 . S
C2728 C2727 1.387 . S
C2728 C2731 1.387 . S
H2729 C2725 0.950 . S
H2730 C2727 0.950 . S
C2731 C2722 1.390 . S
C2731 H2724 0.950 . S
C2731 C2728 1.387 . S
C2732 C2733 1.387 . S
C2732 H2736 0.950 . S
C2732 C2741 1.390 . S
C2733 C2732 1.387 . S
C2733 C2735 1.387 . S
H2734 C2741 0.950 . S
C2735 C2733 1.387 . S
C2735 C2737 1.390 . S
C2735 H2739 0.950 . S
H2736 C2732 0.950 . S
C2737 C2735 1.390 . S
C2737 C2738 1.387 . S
C2737 H2740 0.950 . S
C2738 C2737 1.387 . S
C2738 C2741 1.387 . S
H2739 C2735 0.950 . S
H2740 C2737 0.950 . S
C2741 C2732 1.390 . S
C2741 H2734 0.950 . S
C2741 C2738 1.387 . S
C2742 C2743 1.387 . S
C2742 H2746 0.950 . S
C2742 C2751 1.390 . S
C2743 C2742 1.387 . S
C2743 C2745 1.387 . S
H2744 C2751 0.950 . S
C2745 C2743 1.387 . S
C2745 C2747 1.390 . S
C2745 H2749 0.950 . S
H2746 C2742 0.950 . S
C2747 C2745 1.390 . S
C2747 C2748 1.387 . S
C2747 H2750 0.950 . S
C2748 C2747 1.387 . S
C2748 C2751 1.387 . S
H2749 C2745 0.950 . S
H2750 C2747 0.950 . S
C2751 C2742 1.390 . S
C2751 H2744 0.950 . S
C2751 C2748 1.387 . S
C2752 C2753 1.387 . S
C2752 H2756 0.950 . S
C2752 C2761 1.390 . S
C2753 C2752 1.387 . S
C2753 C2755 1.387 . S
H2754 C2761 0.950 . S
C2755 C2753 1.387 . S
C2755 C2757 1.390 . S
C2755 H2759 0.950 . S
H2756 C2752 0.950 . S
C2757 C2755 1.390 . S
C2757 C2758 1.387 . S
C2757 H2760 0.950 . S
C2758 C2757 1.387 . S
C2758 C2761 1.387 . S
H2759 C2755 0.950 . S
H2760 C2757 0.950 . S
C2761 C2752 1.390 . S
C2761 H2754 0.950 . S
C2761 C2758 1.387 . S
C2762 C2763 1.387 . S
C2762 H2766 0.950 . S
C2762 C2771 1.390 . S
C2763 C2762 1.387 . S
C2763 C2765 1.387 . S
H2764 C2771 0.950 . S
C2765 C2763 1.387 . S
C2765 C2767 1.390 . S
C2765 H2769 0.950 . S
H2766 C2762 0.950 . S
C2767 C2765 1.390 . S
C2767 C2768 1.387 . S
C2767 H2770 0.950 . S
C2768 C2767 1.387 . S
C2768 C2771 1.387 . S
H2769 C2765 0.950 . S
H2770 C2767 0.950 . S
C2771 C2762 1.390 . S
C2771 H2764 0.950 . S
C2771 C2768 1.387 . S
C2772 C2773 1.387 . S
C2772 H2776 0.950 . S
C2772 C2781 1.390 . S
C2773 C2772 1.387 . S
C2773 C2775 1.387 . S
H2774 C2781 0.950 . S
C2775 C2773 1.387 . S
C2775 C2777 1.390 . S
C2775 H2779 0.950 . S
H2776 C2772 0.950 . S
C2777 C2775 1.390 . S
C2777 C2778 1.387 . S
C2777 H2780 0.950 . S
C2778 C2777 1.387 . S
C2778 C2781 1.387 . S
H2779 C2775 0.950 . S
H2780 C2777 0.950 . S
C2781 C2772 1.390 . S
C2781 H2774 0.950 . S
C2781 C2778 1.387 . S
C2782 C2783 1.387 . S
C2782 H2786 0.950 . S
C2782 C2791 1.390 . S
C2783 C2782 1.387 . S
C2783 C2785 1.387 . S
H2784 C2791 0.950 . S
C2785 C2783 1.387 . S
C2785 C2787 1.390 . S
C2785 H2789 0.950 . S
H2786 C2782 0.950 . S
C2787 C2785 1.390 . S
C2787 C2788 1.387 . S
C2787 H2790 0.950 . S
C2788 C2787 1.387 . S
C2788 C2791 1.387 . S
H2789 C2785 0.950 . S
H2790 C2787 0.950 . S
C2791 C2782 1.390 . S
C2791 H2784 0.950 . S
C2791 C2788 1.387 . S
C2792 C2793 1.387 . S
C2792 H2796 0.950 . S
C2792 C2801 1.390 . S
C2793 C2792 1.387 . S
C2793 C2795 1.387 . S
H2794 C2801 0.950 . S
C2795 C2793 1.387 . S
C2795 C2797 1.390 . S
C2795 H2799 0.950 . S
H2796 C2792 0.950 . S
C2797 C2795 1.390 . S
C2797 C2798 1.387 . S
C2797 H2800 0.950 . S
C2798 C2797 1.387 . S
C2798 C2801 1.387 . S
H2799 C2795 0.950 . S
H2800 C2797 0.950 . S
C2801 C2792 1.390 . S
C2801 H2794 0.950 . S
C2801 C2798 1.387 . S
C2802 C2803 1.387 . S
C2802 H2806 0.950 . S
C2802 C2811 1.390 . S
C2803 C2802 1.387 . S
C2803 C2805 1.387 . S
H2804 C2811 0.950 . S
C2805 C2803 1.387 . S
C2805 C2807 1.390 . S
C2805 H2809 0.950 . S
H2806 C2802 0.950 . S
C2807 C2805 1.390 . S
C2807 C2808 1.387 . S
C2807 H2810 0.950 . S
C2808 C2807 1.387 . S
C2808 C2811 1.387 . S
H2809 C2805 0.950 . S
H2810 C2807 0.950 . S
C2811 C2802 1.390 . S
C2811 H2804 0.950 . S
C2811 C2808 1.387 . S
C2812 C2813 1.387 . S
C2812 H2816 0.950 . S
C2812 C2821 1.390 . S
C2813 C2812 1.387 . S
C2813 C2815 1.387 . S
H2814 C2821 0.950 . S
C2815 C2813 1.387 . S
C2815 C2817 1.390 . S
C2815 H2819 0.950 . S
H2816 C2812 0.950 . S
C2817 C2815 1.390 . S
C2817 C2818 1.387 . S
C2817 H2820 0.950 . S
C2818 C2817 1.387 . S
C2818 C2821 1.387 . S
H2819 C2815 0.950 . S
H2820 C2817 0.950 . S
C2821 C2812 1.390 . S
C2821 H2814 0.950 . S
C2821 C2818 1.387 . S
C2822 C2823 1.387 . S
C2822 H2826 0.950 . S
C2822 C2831 1.390 . S
C2823 C2822 1.387 . S
C2823 C2825 1.387 . S
H2824 C2831 0.950 . S
C2825 C2823 1.387 . S
C2825 C2827 1.390 . S
C2825 H2829 0.950 . S
H2826 C2822 0.950 . S
C2827 C2825 1.390 . S
C2827 C2828 1.387 . S
C2827 H2830 0.950 . S
C2828 C2827 1.387 . S
C2828 C2831 1.387 . S
H2829 C2825 0.950 . S
H2830 C2827 0.950 . S
C2831 C2822 1.390 . S
C2831 H2824 0.950 . S
C2831 C2828 1.387 . S
C2832 C2833 1.387 . S
C2832 H2836 0.950 . S
C2832 C2841 1.390 . S
C2833 C2832 1.387 . S
C2833 C2835 1.387 . S
H2834 C2841 0.950 . S
C2835 C2833 1.387 . S
C2835 C2837 1.390 . S
C2835 H2839 0.950 . S
H2836 C2832 0.950 . S
C2837 C2835 1.390 . S
C2837 C2838 1.387 . S
C2837 H2840 0.950 . S
C2838 C2837 1.387 . S
C2838 C2841 1.387 . S
H2839 C2835 0.950 . S
H2840 C2837 0.950 . S
C2841 C2832 1.390 . S
C2841 H2834 0.950 . S
C2841 C2838 1.387 . S
C2842 C2843 1.387 . S
C2842 H2846 0.950 . S
C2842 C2851 1.390 . S
C2843 C2842 1.387 . S
C2843 C2845 1.387 . S
H2844 C2851 0.950 . S
C2845 C2843 1.387 . S
C2845 C2847 1.390 . S
C2845 H2849 0.950 . S
H2846 C2842 0.950 . S
C2847 C2845 1.390 . S
C2847 C2848 1.387 . S
C2847 H2850 0.950 . S
C2848 C2847 1.387 . S
C2848 C2851 1.387 . S
H2849 C2845 0.950 . S
H2850 C2847 0.950 . S
C2851 C2842 1.390 . S
C2851 H2844 0.950 . S
C2851 C2848 1.387 . S
C2852 C2853 1.387 . S
C2852 H2856 0.950 . S
C2852 C2861 1.390 . S
C2853 C2852 1.387 . S
C2853 C2855 1.387 . S
H2854 C2861 0.950 . S
C2855 C2853 1.387 . S
C2855 C2857 1.390 . S
C2855 H2859 0.950 . S
H2856 C2852 0.950 . S
C2857 C2855 1.390 . S
C2857 C2858 1.387 . S
C2857 H2860 0.950 . S
C2858 C2857 1.387 . S
C2858 C2861 1.387 . S
H2859 C2855 0.950 . S
H2860 C2857 0.950 . S
C2861 C2852 1.390 . S
C2861 H2854 0.950 . S
C2861 C2858 1.387 . S
C2862 C2863 1.387 . S
C2862 H2866 0.950 . S
C2862 C2871 1.390 . S
C2863 C2862 1.387 . S
C2863 C2865 1.387 . S
H2864 C2871 0.950 . S
C2865 C2863 1.387 . S
C2865 C2867 1.390 . S
C2865 H2869 0.950 . S
H2866 C2862 0.950 . S
C2867 C2865 1.390 . S
C2867 C2868 1.387 . S
C2867 H2870 0.950 . S
C2868 C2867 1.387 . S
C2868 C2871 1.387 . S
H2869 C2865 0.950 . S
H2870 C2867 0.950 . S
C2871 C2862 1.390 . S
C2871 H2864 0.950 . S
C2871 C2868 1.387 . S
C2872 C2873 1.387 . S
C2872 H2876 0.950 . S
C2872 C2881 1.390 . S
C2873 C2872 1.387 . S
C2873 C2875 1.387 . S
H2874 C2881 0.950 . S
C2875 C2873 1.387 . S
C2875 C2877 1.390 . S
C2875 H2879 0.950 . S
H2876 C2872 0.950 . S
C2877 C2875 1.390 . S
C2877 C2878 1.387 . S
C2877 H2880 0.950 . S
C2878 C2877 1.387 . S
C2878 C2881 1.387 . S
H2879 C2875 0.950 . S
H2880 C2877 0.950 . S
C2881 C2872 1.390 . S
C2881 H2874 0.950 . S
C2881 C2878 1.387 . S
C2882 C2883 1.387 . S
C2882 H2886 0.950 . S
C2882 C2891 1.390 . S
C2883 C2882 1.387 . S
C2883 C2885 1.387 . S
H2884 C2891 0.950 . S
C2885 C2883 1.387 . S
C2885 C2887 1.390 . S
C2885 H2889 0.950 . S
H2886 C2882 0.950 . S
C2887 C2885 1.390 . S
C2887 C2888 1.387 . S
C2887 H2890 0.950 . S
C2888 C2887 1.387 . S
C2888 C2891 1.387 . S
H2889 C2885 0.950 . S
H2890 C2887 0.950 . S
C2891 C2882 1.390 . S
C2891 H2884 0.950 . S
C2891 C2888 1.387 . S
C2892 C2893 1.387 . S
C2892 H2896 0.950 . S
C2892 C2901 1.390 . S
C2893 C2892 1.387 . S
C2893 C2895 1.387 . S
H2894 C2901 0.950 . S
C2895 C2893 1.387 . S
C2895 C2897 1.390 . S
C2895 H2899 0.950 . S
H2896 C2892 0.950 . S
C2897 C2895 1.390 . S
C2897 C2898 1.387 . S
C2897 H2900 0.950 . S
C2898 C2897 1.387 . S
C2898 C2901 1.387 . S
H2899 C2895 0.950 . S
H2900 C2897 0.950 . S
C2901 C2892 1.390 . S
C2901 H2894 0.950 . S
C2901 C2898 1.387 . S
C2902 C2903 1.387 . S
C2902 H2906 0.950 . S
C2902 C2911 1.390 . S
C2903 C2902 1.387 . S
C2903 C2905 1.387 . S
H2904 C2911 0.950 . S
C2905 C2903 1.387 . S
C2905 C2907 1.390 . S
C2905 H2909 0.950 . S
H2906 C2902 0.950 . S
C2907 C2905 1.390 . S
C2907 C2908 1.387 . S
C2907 H2910 0.950 . S
C2908 C2907 1.387 . S
C2908 C2911 1.387 . S
H2909 C2905 0.950 . S
H2910 C2907 0.950 . S
C2911 C2902 1.390 . S
C2911 H2904 0.950 . S
C2911 C2908 1.387 . S
C2912 C2913 1.387 . S
C2912 H2916 0.950 . S
C2912 C2921 1.390 . S
C2913 C2912 1.387 . S
C2913 C2915 1.387 . S
H2914 C2921 0.950 . S
C2915 C2913 1.387 . S
C2915 C2917 1.390 . S
C2915 H2919 0.950 . S
H2916 C2912 0.950 . S
C2917 C2915 1.390 . S
C2917 C2918 1.387 . S
C2917 H2920 0.950 . S
C2918 C2917 1.387 . S
C2918 C2921 1.387 . S
H2919 C2915 0.950 . S
H2920 C2917 0.950 . S
C2921 C2912 1.390 . S
C2921 H2914 0.950 . S
C2921 C2918 1.387 . S
C2922 C2923 1.387 . S
C2922 H2926 0.950 . S
C2922 C2931 1.390 . S
C2923 C2922 1.387 . S
C2923 C2925 1.387 . S
H2924 C2931 0.950 . S
C2925 C2923 1.387 . S
C2925 C2927 1.390 . S
C2925 H2929 0.950 . S
H2926 C2922 0.950 . S
C2927 C2925 1.390 . S
C2927 C2928 1.387 . S
C2927 H2930 0.950 . S
C2928 C2927 1.387 . S
C2928 C2931 1.387 . S
H2929 C2925 0.950 . S
H2930 C2927 0.950 . S
C2931 C2922 1.390 . S
C2931 H2924 0.950 . S
C2931 C2928 1.387 . S
C2932 C2933 1.387 . S
C2932 H2936 0.950 . S
C2932 C2941 1.390 . S
C2933 C2932 1.387 . S
C2933 C2935 1.387 . S
H2934 C2941 0.950 . S
C2935 C2933 1.387 . S
C2935 C2937 1.390 . S
C2935 H2939 0.950 . S
H2936 C2932 0.950 . S
C2937 C2935 1.390 . S
C2937 C2938 1.387 . S
C2937 H2940 0.950 . S
C2938 C2937 1.387 . S
C2938 C2941 1.387 . S
H2939 C2935 0.950 . S
H2940 C2937 0.950 . S
C2941 C2932 1.390 . S
C2941 H2934 0.950 . S
C2941 C2938 1.387 . S
C2942 C2943 1.387 . S
C2942 H2946 0.950 . S
C2942 C2951 1.390 . S
C2943 C2942 1.387 . S
C2943 C2945 1.387 . S
H2944 C2951 0.950 . S
C2945 C2943 1.387 . S
C2945 C2947 1.390 . S
C2945 H2949 0.950 . S
H2946 C2942 0.950 . S
C2947 C2945 1.390 . S
C2947 C2948 1.387 . S
C2947 H2950 0.950 . S
C2948 C2947 1.387 . S
C2948 C2951 1.387 . S
H2949 C2945 0.950 . S
H2950 C2947 0.950 . S
C2951 C2942 1.390 . S
C2951 H2944 0.950 . S
C2951 C2948 1.387 . S
C2952 C2953 1.387 . S
C2952 H2956 0.950 . S
C2952 C2961 1.390 . S
C2953 C2952 1.387 . S
C2953 C2955 1.387 . S
H2954 C2961 0.950 . S
C2955 C2953 1.387 . S
C2955 C2957 1.390 . S
C2955 H2959 0.950 . S
H2956 C2952 0.950 . S
C2957 C2955 1.390 . S
C2957 C2958 1.387 . S
C2957 H2960 0.950 . S
C2958 C2957 1.387 . S
C2958 C2961 1.387 . S
H2959 C2955 0.950 . S
H2960 C2957 0.950 . S
C2961 C2952 1.390 . S
C2961 H2954 0.950 . S
C2961 C2958 1.387 . S
C2962 C2963 1.387 . S
C2962 H2966 0.950 . S
C2962 C2971 1.390 . S
C2963 C2962 1.387 . S
C2963 C2965 1.387 . S
H2964 C2971 0.950 . S
C2965 C2963 1.387 . S
C2965 C2967 1.390 . S
C2965 H2969 0.950 . S
H2966 C2962 0.950 . S
C2967 C2965 1.390 . S
C2967 C2968 1.387 . S
C2967 H2970 0.950 . S
C2968 C2967 1.387 . S
C2968 C2971 1.387 . S
H2969 C2965 0.950 . S
H2970 C2967 0.950 . S
C2971 C2962 1.390 . S
C2971 H2964 0.950 . S
C2971 C2968 1.387 . S
C2972 C2973 1.387 . S
C2972 H2976 0.950 . S
C2972 C2981 1.390 . S
C2973 C2972 1.387 . S
C2973 C2975 1.387 . S
H2974 C2981 0.950 . S
C2975 C2973 1.387 . S
C2975 C2977 1.390 . S
C2975 H2979 0.950 . S
H2976 C2972 0.950 . S
C2977 C2975 1.390 . S
C2977 C2978 1.387 . S
C2977 H2980 0.950 . S
C2978 C2977 1.387 . S
C2978 C2981 1.387 . S
H2979 C2975 0.950 . S
H2980 C2977 0.950 . S
C2981 C2972 1.390 . S
C2981 H2974 0.950 . S
C2981 C2978 1.387 . S
C2982 C2983 1.387 . S
C2982 H2986 0.950 . S
C2982 C2991 1.390 . S
C2983 C2982 1.387 . S
C2983 C2985 1.387 . S
H2984 C2991 0.950 . S
C2985 C2983 1.387 . S
C2985 C2987 1.390 . S
C2985 H2989 0.950 . S
H2986 C2982 0.950 . S
C2987 C2985 1.390 . S
C2987 C2988 1.387 . S
C2987 H2990 0.950 . S
C2988 C2987 1.387 . S
C2988 C2991 1.387 . S
H2989 C2985 0.950 . S
H2990 C2987 0.950 . S
C2991 C2982 1.390 . S
C2991 H2984 0.950 . S
C2991 C2988 1.387 . S
C2992 C2993 1.387 . S
C2992 H2996 0.950 . S
C2992 C3001 1.390 . S
C2993 C2992 1.387 . S
C2993 C2995 1.387 . S
H2994 C3001 0.950 . S
C2995 C2993 1.387 . S
C2995 C2997 1.390 . S
C2995 H2999 0.950 . S
H2996 C2992 0.950 . S
C2997 C2995 1.390 . S
C2997 C2998 1.387 . S
C2997 H3000 0.950 . S
C2998 C2997 1.387 . S
C2998 C3001 1.387 . S
H2999 C2995 0.950 . S
H3000 C2997 0.950 . S
C3001 C2992 1.390 . S
C3001 H2994 0.950 . S
C3001 C2998 1.387 . S
C3002 C3003 1.387 . S
C3002 H3006 0.950 . S
C3002 C3011 1.390 . S
C3003 C3002 1.387 . S
C3003 C3005 1.387 . S
H3004 C3011 0.950 . S
C3005 C3003 1.387 . S
C3005 C3007 1.390 . S
C3005 H3009 0.950 . S
H3006 C3002 0.950 . S
C3007 C3005 1.390 . S
C3007 C3008 1.387 . S
C3007 H3010 0.950 . S
C3008 C3007 1.387 . S
C3008 C3011 1.387 . S
H3009 C3005 0.950 . S
H3010 C3007 0.950 . S
C3011 C3002 1.390 . S
C3011 H3004 0.950 . S
C3011 C3008 1.387 . S
C3012 C3013 1.387 . S
C3012 H3016 0.950 . S
C3012 C3021 1.390 . S
C3013 C3012 1.387 . S
C3013 C3015 1.387 . S
H3014 C3021 0.950 . S
C3015 C3013 1.387 . S
C3015 C3017 1.390 . S
C3015 H3019 0.950 . S
H3016 C3012 0.950 . S
C3017 C3015 1.390 . S
C3017 C3018 1.387 . S
C3017 H3020 0.950 . S
C3018 C3017 1.387 . S
C3018 C3021 1.387 . S
H3019 C3015 0.950 . S
H3020 C3017 0.950 . S
C3021 C3012 1.390 . S
C3021 H3014 0.950 . S
C3021 C3018 1.387 . S
C3022 C3023 1.387 . S
C3022 H3026 0.950 . S
C3022 C3031 1.390 . S
C3023 C3022 1.387 . S
C3023 C3025 1.387 . S
H3024 C3031 0.950 . S
C3025 C3023 1.387 . S
C3025 C3027 1.390 . S
C3025 H3029 0.950 . S
H3026 C3022 0.950 . S
C3027 C3025 1.390 . S
C3027 C3028 1.387 . S
C3027 H3030 0.950 . S
C3028 C3027 1.387 . S
C3028 C3031 1.387 . S
H3029 C3025 0.950 . S
H3030 C3027 0.950 . S
C3031 C3022 1.390 . S
C3031 H3024 0.950 . S
C3031 C3028 1.387 . S
C3032 C3033 1.387 . S
C3032 H3036 0.950 . S
C3032 C3041 1.390 . S
C3033 C3032 1.387 . S
C3033 C3035 1.387 . S
H3034 C3041 0.950 . S
C3035 C3033 1.387 . S
C3035 C3037 1.390 . S
C3035 H3039 0.950 . S
H3036 C3032 0.950 . S
C3037 C3035 1.390 . S
C3037 C3038 1.387 . S
C3037 H3040 0.950 . S
C3038 C3037 1.387 . S
C3038 C3041 1.387 . S
H3039 C3035 0.950 . S
H3040 C3037 0.950 . S
C3041 C3032 1.390 . S
C3041 H3034 0.950 . S
C3041 C3038 1.387 . S
C3042 C3043 1.387 . S
C3042 H3046 0.950 . S
C3042 C3051 1.390 . S
C3043 C3042 1.387 . S
C3043 C3045 1.387 . S
H3044 C3051 0.950 . S
C3045 C3043 1.387 . S
C3045 C3047 1.390 . S
C3045 H3049 0.950 . S
H3046 C3042 0.950 . S
C3047 C3045 1.390 . S
C3047 C3048 1.387 . S
C3047 H3050 0.950 . S
C3048 C3047 1.387 . S
C3048 C3051 1.387 . S
H3049 C3045 0.950 . S
H3050 C3047 0.950 . S
C3051 C3042 1.390 . S
C3051 H3044 0.950 . S
C3051 C3048 1.387 . S
C3052 C3053 1.387 . S
C3052 H3056 0.950 . S
C3052 C3061 1.390 . S
C3053 C3052 1.387 . S
C3053 C3055 1.387 . S
H3054 C3061 0.950 . S
C3055 C3053 1.387 . S
C3055 C3057 1.390 . S
C3055 H3059 0.950 . S
H3056 C3052 0.950 . S
C3057 C3055 1.390 . S
C3057 C3058 1.387 . S
C3057 H3060 0.950 . S
C3058 C3057 1.387 . S
C3058 C3061 1.387 . S
H3059 C3055 0.950 . S
H3060 C3057 0.950 . S
C3061 C3052 1.390 . S
C3061 H3054 0.950 . S
C3061 C3058 1.387 . S
C3062 C3063 1.387 . S
C3062 H3066 0.950 . S
C3062 C3071 1.390 . S
C3063 C3062 1.387 . S
C3063 C3065 1.387 . S
H3064 C3071 0.950 . S
C3065 C3063 1.387 . S
C3065 C3067 1.390 . S
C3065 H3069 0.950 . S
H3066 C3062 0.950 . S
C3067 C3065 1.390 . S
C3067 C3068 1.387 . S
C3067 H3070 0.950 . S
C3068 C3067 1.387 . S
C3068 C3071 1.387 . S
H3069 C3065 0.950 . S
H3070 C3067 0.950 . S
C3071 C3062 1.390 . S
C3071 H3064 0.950 . S
C3071 C3068 1.387 . S
C1393 C3 0.768 . S
C1398 C746 0.765 . S
C1403 C775 0.768 . S
C1408 C32 0.768 . S
C1413 C804 0.764 . S
C1418 C61 0.769 . S
C1423 C90 0.775 . S
C1428 C717 0.773 . S
C1433 C224 0.772 . S
C1438 C119 0.770 . S
C1443 C148 0.767 . S
C1448 C137 0.765 . S
C1453 C177 0.773 . S
C1458 C166 0.766 . S
C1463 C195 0.765 . S
C1468 C206 0.771 . S
C1473 C235 0.769 . S
C1478 C1355 0.771 . S
C1483 C485 0.764 . S
C1488 C264 0.771 . S
C1493 C293 0.774 . S
C1498 C1384 0.767 . S
C1503 C322 0.768 . S
C1508 C1326 0.765 . S
C1513 C351 0.769 . S
C1518 C1239 0.771 . S
C1523 C1268 0.773 . S
C1528 C380 0.775 . S
C1533 C601 0.771 . S
C1538 C409 0.769 . S
C1543 C438 0.775 . S
C1548 C1210 0.773 . S
C1553 C467 0.770 . S
C1558 C398 0.764 . S
C1563 C496 0.772 . S
C1568 C1036 0.773 . S
C1573 C525 0.774 . S
C1578 C949 0.767 . S
C1583 C978 0.766 . S
C1588 C554 0.774 . S
C1593 C311 0.771 . S
C1598 C583 0.769 . S
C1603 C1152 0.773 . S
C1608 C612 0.773 . S
C1613 C641 0.775 . S
C1618 C1065 0.769 . S
C1623 C1123 0.767 . S
C1628 C670 0.774 . S
C1633 C699 0.773 . S
C1638 C50 0.773 . S
C1643 C79 0.764 . S
C1648 C728 0.770 . S
C1653 C108 0.765 . S
C1658 C757 0.768 . S
C1663 C786 0.770 . S
C1668 C21 0.771 . S
C1673 C815 0.773 . S
C1678 C920 0.773 . S
C1683 C833 0.765 . S
C1688 C844 0.767 . S
C1693 C862 0.772 . S
C1698 C873 0.770 . S
C1703 C891 0.766 . S
C1708 C902 0.774 . S
C1713 C931 0.769 . S
C1718 C659 0.771 . S
C1723 C960 0.769 . S
C1728 C1181 0.764 . S
C1733 C688 0.771 . S
C1738 C989 0.769 . S
C1743 C1018 0.768 . S
C1748 C630 0.768 . S
C1753 C1047 0.768 . S
C1758 C543 0.768 . S
C1763 C572 0.766 . S
C1768 C1076 0.773 . S
C1773 C1297 0.767 . S
C1778 C1105 0.774 . S
C1783 C514 0.773 . S
C1788 C1134 0.775 . S
C1793 C1094 0.771 . S
C1798 C1163 0.770 . S
C1803 C1192 0.770 . S
C1808 C340 0.764 . S
C1813 C253 0.772 . S
C1818 C1221 0.771 . S
C1823 C282 0.765 . S
C1828 C1250 0.772 . S
C1833 C1007 0.765 . S
C1838 C1279 0.768 . S
C1843 C456 0.765 . S
C1848 C1308 0.767 . S
C1853 C369 0.773 . S
C1858 C1337 0.773 . S
C1863 C1366 0.769 . S
C1868 C427 0.771 . S
C1873 C63 3.128 . S
C1878 C5 3.128 . S
C1883 C92 3.129 . S
C1888 C34 3.129 . S
C1893 C179 3.128 . S
C1898 C121 3.128 . S
C1903 C150 3.128 . S
C1908 C208 3.129 . S
C1913 C353 3.129 . S
C1918 C237 3.129 . S
C1923 C382 3.129 . S
C1928 C266 3.129 . S
C1933 C295 3.128 . S
C1938 C411 3.128 . S
C1943 C324 3.129 . S
C1948 C440 3.128 . S
C1953 C469 3.129 . S
C1958 C1252 3.129 . S
C1963 C614 3.128 . S
C1968 C498 3.128 . S
C1973 C643 3.129 . S
C1978 C527 3.129 . S
C1983 C1165 3.129 . S
C1988 C556 3.129 . S
C1993 C585 3.128 . S
C1998 C1368 3.128 . S
C2003 C672 3.129 . S
C2008 C1281 3.129 . S
C2013 C701 3.129 . S
C2018 C759 3.128 . S
C2023 C730 3.129 . S
C2028 C788 3.129 . S
C2033 C817 3.128 . S
C2038 C875 3.128 . S
C2043 C904 3.129 . S
C2048 C846 3.129 . S
C2053 C1049 3.129 . S
C2058 C933 3.129 . S
C2063 C1078 3.129 . S
C2068 C962 3.129 . S
C2073 C991 3.128 . S
C2078 C1107 3.128 . S
C2083 C1020 3.129 . S
C2088 C1136 3.128 . S
C2093 C1194 3.129 . S
C2098 C1310 3.129 . S
C2103 C1223 3.129 . S
C2108 C1339 3.129 . S
C2113 C13 1.213 . S
C2118 C247 1.140 . S
C2123 C276 1.140 . S
C2128 C42 1.213 . S
C2133 C71 1.215 . S
C2138 C305 1.141 . S
C2143 C100 1.215 . S
C2148 C334 1.134 1_565 S
C2153 C129 1.213 . S
C2158 C363 1.140 . S
C2163 C392 1.141 . S
C2168 C158 1.215 . S
C2173 C187 1.216 . S
C2178 C421 1.137 . S
C2183 C450 1.130 1_565 S
C2188 C216 1.216 . S
C2193 C479 1.137 . S
C2198 C245 1.216 . S
C2203 C274 1.213 . S
C2208 C1378 1.139 . S
C2213 C1320 1.139 . S
C2218 C303 1.213 . S
C2223 C332 1.213 . S
C2228 C1349 1.142 . S
C2233 C361 1.213 . S
C2238 C508 1.139 . S
C2243 C537 1.131 1_455 S
C2248 C390 1.214 . S
C2253 C566 1.138 . S
C2258 C419 1.214 . S
C2263 C1291 1.132 1_655 S
C2268 C448 1.216 . S
C2273 C477 1.216 . S
C2278 C15 1.138 . S
C2283 C131 1.137 . S
C2288 C506 1.216 . S
C2293 C160 1.131 1_556 S
C2298 C535 1.214 . S
C2303 C564 1.215 . S
C2308 C189 1.141 . S
C2313 C593 1.216 . S
C2318 C914 1.137 . S
C2323 C622 1.216 . S
C2328 C769 1.137 . S
C2333 C651 1.216 . S
C2338 C798 1.137 . S
C2343 C740 1.137 . S
C2348 C680 1.216 . S
C2353 C943 1.141 . S
C2358 C709 1.215 . S
C2363 C738 1.214 . S
C2368 C972 1.130 1_545 S
C2373 C1001 1.138 . S
C2378 C767 1.214 . S
C2383 C1030 1.141 . S
C2388 C796 1.215 . S
C2393 C825 1.214 . S
C2398 C1059 1.138 . S
C2403 C1088 1.131 1_545 S
C2408 C854 1.214 . S
C2413 C883 1.215 . S
C2418 C1117 1.137 . S
C2423 C912 1.216 . S
C2428 C1146 1.137 . S
C2433 C941 1.213 . S
C2438 C1175 1.142 . S
C2443 C682 1.132 1_655 S
C2448 C970 1.216 . S
C2453 C999 1.216 . S
C2458 C624 1.137 . S
C2463 C1028 1.215 . S
C2468 C653 1.130 1_455 S
C2473 C1057 1.213 . S
C2478 C1204 1.142 . S
C2483 C1233 1.140 . S
C2488 C1086 1.213 . S
C2493 C1262 1.139 . S
C2498 C1115 1.216 . S
C2503 C595 1.139 . S
C2508 C1144 1.216 . S
C2513 C711 1.137 . S
C2518 C1173 1.214 . S
C2523 C1202 1.216 . S
C2528 C827 1.137 . S
C2533 C1231 1.215 . S
C2538 C856 1.141 . S
C2543 C885 1.141 . S
C2548 C1260 1.215 . S
C2553 C1289 1.216 . S
C2558 C218 1.130 1_556 S
C2563 C73 1.139 . S
C2568 C1318 1.216 . S
C2573 C1347 1.213 . S
C2578 C102 1.133 1_554 S
C2583 C1376 1.216 . S
C2588 C44 1.130 1_554 S
C2593 C8 2.464 . S
C2598 C387 2.443 . S
C2603 C416 2.442 . S
C2608 C37 2.462 . S
C2613 C445 2.443 . S
C2618 C66 2.464 . S
C2623 C358 2.443 . S
C2628 C95 2.462 . S
C2633 C1025 2.443 . S
C2638 C124 2.462 . S
C2643 C153 2.464 . S
C2648 C938 2.442 . S
C2653 C967 2.442 . S
C2658 C182 2.464 . S
C2663 C996 2.441 . S
C2668 C211 2.464 . S
C2673 C735 2.443 . S
C2678 C240 2.462 . S
C2683 C764 2.442 . S
C2688 C269 2.464 . S
C2693 C793 2.442 . S
C2698 C298 2.462 . S
C2703 C706 2.442 . S
C2708 C327 2.462 . S
C2713 C213 2.443 . S
C2718 C356 2.464 . S
C2723 C126 2.443 . S
C2728 C385 2.463 . S
C2733 C155 2.443 . S
C2738 C414 2.463 . S
C2743 C443 2.463 . S
C2748 C184 2.443 . S
C2753 C1344 2.442 . S
C2758 C472 2.464 . S
C2763 C1228 2.441 . S
C2768 C501 2.464 . S
C2773 C1257 2.442 . S
C2778 C530 2.462 . S
C2783 C559 2.464 . S
C2788 C590 2.441 . S
C2793 C503 2.443 . S
C2798 C588 2.464 . S
C2803 C617 2.464 . S
C2808 C677 2.442 . S
C2813 C646 2.464 . S
C2818 C619 2.443 . S
C2823 C1170 2.442 . S
C2828 C675 2.464 . S
C2833 C1083 2.443 . S
C2838 C704 2.464 . S
C2843 C1112 2.442 . S
C2848 C733 2.464 . S
C2853 C1141 2.443 . S
C2858 C762 2.463 . S
C2863 C1054 2.442 . S
C2868 C791 2.464 . S
C2873 C329 2.442 . S
C2878 C820 2.464 . S
C2883 C242 2.442 . S
C2888 C849 2.464 . S
C2893 C271 2.443 . S
C2898 C878 2.464 . S
C2903 C300 2.441 . S
C2908 C907 2.464 . S
C2913 C39 2.442 . S
C2918 C936 2.462 . S
C2923 C965 2.463 . S
C2928 C68 2.443 . S
C2933 C97 2.442 . S
C2938 C994 2.464 . S
C2943 C1023 2.463 . S
C2948 C10 2.441 . S
C2953 C1052 2.464 . S
C2958 C909 2.442 . S
C2963 C822 2.441 . S
C2968 C1081 2.463 . S
C2973 C851 2.442 . S
C2978 C1110 2.464 . S
C2983 C880 2.442 . S
C2988 C1139 2.462 . S
C2993 C1168 2.464 . S
C2998 C648 2.442 . S
C3003 C1197 2.462 . S
C3008 C532 2.443 . S
C3013 C1226 2.462 . S
C3018 C561 2.442 . S
C3023 C1255 2.464 . S
C3028 C1286 2.441 . S
C3033 C1199 2.443 . S
C3038 C1284 2.464 . S
C3043 C1373 2.442 . S
C3048 C1313 2.464 . S
C3053 C1342 2.464 . S
C3058 C1315 2.442 . S
C3063 C1371 2.462 . S
C3068 C474 2.443 . S
