# Generated by pormake.
# Topology som, (6)-cn, num edge types: 1
# Building blocks:
#     Node 0, Type 0, BuildingBlock: BETDEL_clean_sbu_0, # of connection points: 6
#     Node 1, Type 0, BuildingBlock: BETDEL_clean_sbu_0, # of connection points: 6
#     Node 2, Type 0, BuildingBlock: BETDEL_clean_sbu_0, # of connection points: 6
#     Node 3, Type 0, BuildingBlock: BETDEL_clean_sbu_0, # of connection points: 6
#     Node 4, Type 0, BuildingBlock: BETDEL_clean_sbu_0, # of connection points: 6
#     Node 5, Type 0, BuildingBlock: BETDEL_clean_sbu_0, # of connection points: 6
#     Node 6, Type 0, BuildingBlock: BETDEL_clean_sbu_0, # of connection points: 6
#     Node 7, Type 0, BuildingBlock: BETDEL_clean_sbu_0, # of connection points: 6
#     Node 8, Type 0, BuildingBlock: BETDEL_clean_sbu_0, # of connection points: 6
#     Node 9, Type 0, BuildingBlock: BETDEL_clean_sbu_0, # of connection points: 6
#     Node 10, Type 0, BuildingBlock: BETDEL_clean_sbu_0, # of connection points: 6
#     Node 11, Type 0, BuildingBlock: BETDEL_clean_sbu_0, # of connection points: 6
#     Node 12, Type 0, BuildingBlock: BETDEL_clean_sbu_0, # of connection points: 6
#     Node 13, Type 0, BuildingBlock: BETDEL_clean_sbu_0, # of connection points: 6
#     Node 14, Type 0, BuildingBlock: BETDEL_clean_sbu_0, # of connection points: 6
#     Node 15, Type 0, BuildingBlock: BETDEL_clean_sbu_0, # of connection points: 6
#     Node 16, Type 0, BuildingBlock: BETDEL_clean_sbu_0, # of connection points: 6
#     Node 17, Type 0, BuildingBlock: BETDEL_clean_sbu_0, # of connection points: 6
#     Node 18, Type 0, BuildingBlock: BETDEL_clean_sbu_0, # of connection points: 6
#     Node 19, Type 0, BuildingBlock: BETDEL_clean_sbu_0, # of connection points: 6
#     Node 20, Type 0, BuildingBlock: BETDEL_clean_sbu_0, # of connection points: 6
#     Node 21, Type 0, BuildingBlock: BETDEL_clean_sbu_0, # of connection points: 6
#     Node 22, Type 0, BuildingBlock: BETDEL_clean_sbu_0, # of connection points: 6
#     Node 23, Type 0, BuildingBlock: BETDEL_clean_sbu_0, # of connection points: 6
#     Node 24, Type 0, BuildingBlock: BETDEL_clean_sbu_0, # of connection points: 6
#     Node 25, Type 0, BuildingBlock: BETDEL_clean_sbu_0, # of connection points: 6
#     Node 26, Type 0, BuildingBlock: BETDEL_clean_sbu_0, # of connection points: 6
#     Node 27, Type 0, BuildingBlock: BETDEL_clean_sbu_0, # of connection points: 6
#     Node 28, Type 0, BuildingBlock: BETDEL_clean_sbu_0, # of connection points: 6
#     Node 29, Type 0, BuildingBlock: BETDEL_clean_sbu_0, # of connection points: 6
#     Node 30, Type 0, BuildingBlock: BETDEL_clean_sbu_0, # of connection points: 6
#     Node 31, Type 0, BuildingBlock: BETDEL_clean_sbu_0, # of connection points: 6
#     Edge 32, Type (0, 0), BuildingBlock: OJICUG_clean_linker_0, # of connection points: 2
#     Edge 33, Type (0, 0), BuildingBlock: OJICUG_clean_linker_0, # of connection points: 2
#     Edge 34, Type (0, 0), BuildingBlock: OJICUG_clean_linker_0, # of connection points: 2
#     Edge 35, Type (0, 0), BuildingBlock: OJICUG_clean_linker_0, # of connection points: 2
#     Edge 36, Type (0, 0), BuildingBlock: OJICUG_clean_linker_0, # of connection points: 2
#     Edge 37, Type (0, 0), BuildingBlock: OJICUG_clean_linker_0, # of connection points: 2
#     Edge 38, Type (0, 0), BuildingBlock: OJICUG_clean_linker_0, # of connection points: 2
#     Edge 39, Type (0, 0), BuildingBlock: OJICUG_clean_linker_0, # of connection points: 2
#     Edge 40, Type (0, 0), BuildingBlock: OJICUG_clean_linker_0, # of connection points: 2
#     Edge 41, Type (0, 0), BuildingBlock: OJICUG_clean_linker_0, # of connection points: 2
#     Edge 42, Type (0, 0), BuildingBlock: OJICUG_clean_linker_0, # of connection points: 2
#     Edge 43, Type (0, 0), BuildingBlock: OJICUG_clean_linker_0, # of connection points: 2
#     Edge 44, Type (0, 0), BuildingBlock: OJICUG_clean_linker_0, # of connection points: 2
#     Edge 45, Type (0, 0), BuildingBlock: OJICUG_clean_linker_0, # of connection points: 2
#     Edge 46, Type (0, 0), BuildingBlock: OJICUG_clean_linker_0, # of connection points: 2
#     Edge 47, Type (0, 0), BuildingBlock: OJICUG_clean_linker_0, # of connection points: 2
#     Edge 48, Type (0, 0), BuildingBlock: OJICUG_clean_linker_0, # of connection points: 2
#     Edge 49, Type (0, 0), BuildingBlock: OJICUG_clean_linker_0, # of connection points: 2
#     Edge 50, Type (0, 0), BuildingBlock: OJICUG_clean_linker_0, # of connection points: 2
#     Edge 51, Type (0, 0), BuildingBlock: OJICUG_clean_linker_0, # of connection points: 2
#     Edge 52, Type (0, 0), BuildingBlock: OJICUG_clean_linker_0, # of connection points: 2
#     Edge 53, Type (0, 0), BuildingBlock: OJICUG_clean_linker_0, # of connection points: 2
#     Edge 54, Type (0, 0), BuildingBlock: OJICUG_clean_linker_0, # of connection points: 2
#     Edge 55, Type (0, 0), BuildingBlock: OJICUG_clean_linker_0, # of connection points: 2
#     Edge 56, Type (0, 0), BuildingBlock: OJICUG_clean_linker_0, # of connection points: 2
#     Edge 57, Type (0, 0), BuildingBlock: OJICUG_clean_linker_0, # of connection points: 2
#     Edge 58, Type (0, 0), BuildingBlock: OJICUG_clean_linker_0, # of connection points: 2
#     Edge 59, Type (0, 0), BuildingBlock: OJICUG_clean_linker_0, # of connection points: 2
#     Edge 60, Type (0, 0), BuildingBlock: OJICUG_clean_linker_0, # of connection points: 2
#     Edge 61, Type (0, 0), BuildingBlock: OJICUG_clean_linker_0, # of connection points: 2
#     Edge 62, Type (0, 0), BuildingBlock: OJICUG_clean_linker_0, # of connection points: 2
#     Edge 63, Type (0, 0), BuildingBlock: OJICUG_clean_linker_0, # of connection points: 2
#     Edge 64, Type (0, 0), BuildingBlock: OJICUG_clean_linker_0, # of connection points: 2
#     Edge 65, Type (0, 0), BuildingBlock: OJICUG_clean_linker_0, # of connection points: 2
#     Edge 66, Type (0, 0), BuildingBlock: OJICUG_clean_linker_0, # of connection points: 2
#     Edge 67, Type (0, 0), BuildingBlock: OJICUG_clean_linker_0, # of connection points: 2
#     Edge 68, Type (0, 0), BuildingBlock: OJICUG_clean_linker_0, # of connection points: 2
#     Edge 69, Type (0, 0), BuildingBlock: OJICUG_clean_linker_0, # of connection points: 2
#     Edge 70, Type (0, 0), BuildingBlock: OJICUG_clean_linker_0, # of connection points: 2
#     Edge 71, Type (0, 0), BuildingBlock: OJICUG_clean_linker_0, # of connection points: 2
#     Edge 72, Type (0, 0), BuildingBlock: OJICUG_clean_linker_0, # of connection points: 2
#     Edge 73, Type (0, 0), BuildingBlock: OJICUG_clean_linker_0, # of connection points: 2
#     Edge 74, Type (0, 0), BuildingBlock: OJICUG_clean_linker_0, # of connection points: 2
#     Edge 75, Type (0, 0), BuildingBlock: OJICUG_clean_linker_0, # of connection points: 2
#     Edge 76, Type (0, 0), BuildingBlock: OJICUG_clean_linker_0, # of connection points: 2
#     Edge 77, Type (0, 0), BuildingBlock: OJICUG_clean_linker_0, # of connection points: 2
#     Edge 78, Type (0, 0), BuildingBlock: OJICUG_clean_linker_0, # of connection points: 2
#     Edge 79, Type (0, 0), BuildingBlock: OJICUG_clean_linker_0, # of connection points: 2
#     Edge 80, Type (0, 0), BuildingBlock: OJICUG_clean_linker_0, # of connection points: 2
#     Edge 81, Type (0, 0), BuildingBlock: OJICUG_clean_linker_0, # of connection points: 2
#     Edge 82, Type (0, 0), BuildingBlock: OJICUG_clean_linker_0, # of connection points: 2
#     Edge 83, Type (0, 0), BuildingBlock: OJICUG_clean_linker_0, # of connection points: 2
#     Edge 84, Type (0, 0), BuildingBlock: OJICUG_clean_linker_0, # of connection points: 2
#     Edge 85, Type (0, 0), BuildingBlock: OJICUG_clean_linker_0, # of connection points: 2
#     Edge 86, Type (0, 0), BuildingBlock: OJICUG_clean_linker_0, # of connection points: 2
#     Edge 87, Type (0, 0), BuildingBlock: OJICUG_clean_linker_0, # of connection points: 2
#     Edge 88, Type (0, 0), BuildingBlock: OJICUG_clean_linker_0, # of connection points: 2
#     Edge 89, Type (0, 0), BuildingBlock: OJICUG_clean_linker_0, # of connection points: 2
#     Edge 90, Type (0, 0), BuildingBlock: OJICUG_clean_linker_0, # of connection points: 2
#     Edge 91, Type (0, 0), BuildingBlock: OJICUG_clean_linker_0, # of connection points: 2
#     Edge 92, Type (0, 0), BuildingBlock: OJICUG_clean_linker_0, # of connection points: 2
#     Edge 93, Type (0, 0), BuildingBlock: OJICUG_clean_linker_0, # of connection points: 2
#     Edge 94, Type (0, 0), BuildingBlock: OJICUG_clean_linker_0, # of connection points: 2
#     Edge 95, Type (0, 0), BuildingBlock: OJICUG_clean_linker_0, # of connection points: 2
#     Edge 96, Type (0, 0), BuildingBlock: OJICUG_clean_linker_0, # of connection points: 2
#     Edge 97, Type (0, 0), BuildingBlock: OJICUG_clean_linker_0, # of connection points: 2
#     Edge 98, Type (0, 0), BuildingBlock: OJICUG_clean_linker_0, # of connection points: 2
#     Edge 99, Type (0, 0), BuildingBlock: OJICUG_clean_linker_0, # of connection points: 2
#     Edge 100, Type (0, 0), BuildingBlock: OJICUG_clean_linker_0, # of connection points: 2
#     Edge 101, Type (0, 0), BuildingBlock: OJICUG_clean_linker_0, # of connection points: 2
#     Edge 102, Type (0, 0), BuildingBlock: OJICUG_clean_linker_0, # of connection points: 2
#     Edge 103, Type (0, 0), BuildingBlock: OJICUG_clean_linker_0, # of connection points: 2
#     Edge 104, Type (0, 0), BuildingBlock: OJICUG_clean_linker_0, # of connection points: 2
#     Edge 105, Type (0, 0), BuildingBlock: OJICUG_clean_linker_0, # of connection points: 2
#     Edge 106, Type (0, 0), BuildingBlock: OJICUG_clean_linker_0, # of connection points: 2
#     Edge 107, Type (0, 0), BuildingBlock: OJICUG_clean_linker_0, # of connection points: 2
#     Edge 108, Type (0, 0), BuildingBlock: OJICUG_clean_linker_0, # of connection points: 2
#     Edge 109, Type (0, 0), BuildingBlock: OJICUG_clean_linker_0, # of connection points: 2
#     Edge 110, Type (0, 0), BuildingBlock: OJICUG_clean_linker_0, # of connection points: 2
#     Edge 111, Type (0, 0), BuildingBlock: OJICUG_clean_linker_0, # of connection points: 2
#     Edge 112, Type (0, 0), BuildingBlock: OJICUG_clean_linker_0, # of connection points: 2
#     Edge 113, Type (0, 0), BuildingBlock: OJICUG_clean_linker_0, # of connection points: 2
#     Edge 114, Type (0, 0), BuildingBlock: OJICUG_clean_linker_0, # of connection points: 2
#     Edge 115, Type (0, 0), BuildingBlock: OJICUG_clean_linker_0, # of connection points: 2
#     Edge 116, Type (0, 0), BuildingBlock: OJICUG_clean_linker_0, # of connection points: 2
#     Edge 117, Type (0, 0), BuildingBlock: OJICUG_clean_linker_0, # of connection points: 2
#     Edge 118, Type (0, 0), BuildingBlock: OJICUG_clean_linker_0, # of connection points: 2
#     Edge 119, Type (0, 0), BuildingBlock: OJICUG_clean_linker_0, # of connection points: 2
#     Edge 120, Type (0, 0), BuildingBlock: OJICUG_clean_linker_0, # of connection points: 2
#     Edge 121, Type (0, 0), BuildingBlock: OJICUG_clean_linker_0, # of connection points: 2
#     Edge 122, Type (0, 0), BuildingBlock: OJICUG_clean_linker_0, # of connection points: 2
#     Edge 123, Type (0, 0), BuildingBlock: OJICUG_clean_linker_0, # of connection points: 2
#     Edge 124, Type (0, 0), BuildingBlock: OJICUG_clean_linker_0, # of connection points: 2
#     Edge 125, Type (0, 0), BuildingBlock: OJICUG_clean_linker_0, # of connection points: 2
#     Edge 126, Type (0, 0), BuildingBlock: OJICUG_clean_linker_0, # of connection points: 2
#     Edge 127, Type (0, 0), BuildingBlock: OJICUG_clean_linker_0, # of connection points: 2
# Relax obj value: 0.058
# Max RMSD: 0.110
# Mean RMSD: 0.110
data_MOF--net-som--node1-BETDEL_clean_sbu_0--edge1-OJICUG_clean_linker_0
_symmetry_space_group_name_H-M    P1
_symmetry_Int_Tables_number       1
_symmetry_cell_setting            triclinic
loop_
_symmetry_equiv_pos_as_xyz
'x, y, z'
_cell_length_a     13.954043
_cell_length_b     42.947917
_cell_length_c     80.530748
_cell_angle_alpha  90.013388
_cell_angle_beta   89.962578
_cell_angle_gamma 90.036334
loop_
_atom_site_label
_atom_site_type_symbol
_atom_site_fract_x
_atom_site_fract_y
_atom_site_fract_z
_atom_type_partial_charge
Dy0 Dy 0.94298 0.49633 0.08739 0.0
C1 C 0.34576 0.46978 0.09311 0.0
C2 C 0.74751 0.49797 0.0862 0.0
Dy3 Dy 0.15553 0.47284 0.0859 0.0
O4 O 0.79959 0.51038 0.09779 0.0
O5 O 0.80253 0.48643 0.07473 0.0
O6 O 0.98234 0.52053 0.11128 0.0
O7 O 0.04767 0.47806 0.10509 0.0
C8 C 0.04574 0.49989 0.1155 0.0
C9 C 0.08987 0.47777 0.05476 0.0
O10 O 0.08261 0.42717 0.09179 0.0
O11 O 0.92538 0.44492 0.08908 0.0
O12 O 0.30006 0.4503 0.08357 0.0
O13 O 0.28582 0.48948 0.09962 0.0
O14 O 0.17448 0.46744 0.05843 0.0
O15 O 0.04489 0.48369 0.06804 0.0
O16 O 1.00676 0.53852 0.07625 0.0
O17 O 0.16119 0.52556 0.08474 0.0
C18 C 0.9882 0.42226 0.09129 0.0
C19 C 0.09746 0.54595 0.07899 0.0
Dy20 Dy 0.36905 0.72411 0.08838 0.0
C21 C 0.96672 0.75059 0.09427 0.0
C22 C 0.56473 0.72245 0.08746 0.0
Dy23 Dy 0.157 0.74769 0.08692 0.0
O24 O 0.51205 0.71056 0.09914 0.0
O25 O 0.51023 0.73348 0.07579 0.0
O26 O 0.32791 0.69967 0.11217 0.0
O27 O 0.26453 0.74243 0.10603 0.0
C28 C 0.26538 0.7206 0.1164 0.0
C29 C 0.22174 0.7434 0.05579 0.0
O30 O 0.22957 0.79333 0.09279 0.0
O31 O 0.3867 0.77561 0.08988 0.0
O32 O 1.01228 0.77016 0.08477 0.0
O33 O 1.02684 0.73084 0.10068 0.0
O34 O 0.13775 0.75402 0.05965 0.0
O35 O 0.26787 0.73706 0.0689 0.0
O36 O 0.30588 0.68203 0.07706 0.0
O37 O 0.15103 0.69499 0.08535 0.0
C38 C 0.32387 0.79828 0.09211 0.0
C39 C 0.21495 0.67464 0.07959 0.0
Dy40 Dy 0.93327 0.72405 0.20411 0.0
C41 C 0.33558 0.75081 0.19796 0.0
C42 C 0.73742 0.72232 0.20499 0.0
Dy43 Dy 0.14518 0.74794 0.20535 0.0
O44 O 0.79022 0.71049 0.19332 0.0
O45 O 0.79192 0.73328 0.21669 0.0
O46 O 0.97416 0.6996 0.18031 0.0
O47 O 0.03709 0.74251 0.18635 0.0
C48 C 0.03622 0.72064 0.17599 0.0
C49 C 0.08169 0.74375 0.23655 0.0
O50 O 0.0718 0.7935 0.19957 0.0
O51 O 0.91506 0.77551 0.20273 0.0
O52 O 0.29007 0.77045 0.20742 0.0
O53 O 0.27528 0.73107 0.19157 0.0
O54 O 0.16539 0.75446 0.23256 0.0
O55 O 0.03496 0.73724 0.22351 0.0
O56 O 0.997 0.68207 0.2154 0.0
O57 O 0.15146 0.69524 0.20696 0.0
C58 C 0.97745 0.79829 0.20041 0.0
C59 C 0.08792 0.67481 0.21279 0.0
Dy60 Dy 0.36102 0.49654 0.20501 0.0
C61 C 0.95818 0.46989 0.19933 0.0
C62 C 0.55653 0.4982 0.20613 0.0
Dy63 Dy 0.14841 0.47305 0.20656 0.0
O64 O 0.50438 0.51028 0.19445 0.0
O65 O 0.50157 0.48699 0.2177 0.0
O66 O 0.3216 0.52061 0.18111 0.0
O67 O 0.25621 0.47814 0.18735 0.0
C68 C 0.25818 0.49993 0.17691 0.0
C69 C 0.2142 0.47818 0.23768 0.0
O70 O 0.22116 0.4273 0.20084 0.0
O71 O 0.37845 0.44509 0.20349 0.0
O72 O 1.00377 0.45054 0.20894 0.0
O73 O 1.01822 0.48951 0.19277 0.0
O74 O 0.12949 0.46785 0.23405 0.0
O75 O 0.25914 0.48403 0.22439 0.0
O76 O 0.29739 0.53887 0.21604 0.0
O77 O 0.14279 0.52576 0.20765 0.0
C78 C 0.31554 0.4224 0.20138 0.0
C79 C 0.20661 0.54623 0.21333 0.0
Dy80 Dy 0.90191 0.50012 0.95589 0.0
C81 C 0.31039 0.47454 0.95582 0.0
C82 C 0.71177 0.50298 0.94858 0.0
Dy83 Dy 0.11498 0.47614 0.95462 0.0
O84 O 0.75732 0.52269 0.958 0.0
O85 O 0.77183 0.48315 0.94222 0.0
O86 O 0.88354 0.50623 0.98335 0.0
O87 O 1.01268 0.48963 0.97375 0.0
C88 C 0.96821 0.49595 0.98702 0.0
C89 C 1.0112 0.47168 0.92665 0.0
O90 O 0.05035 0.43479 0.96635 0.0
O91 O 0.89636 0.44762 0.9575 0.0
O92 O 0.25831 0.46167 0.94436 0.0
O93 O 0.25538 0.4865 0.96716 0.0
O94 O 0.07469 0.45114 0.93099 0.0
O95 O 1.01014 0.49386 0.93685 0.0
O96 O 0.97551 0.54536 0.94975 0.0
O97 O 0.13268 0.52736 0.95242 0.0
C98 C 0.95964 0.42745 0.96359 0.0
C99 C 0.06998 0.55001 0.95016 0.0
Dy100 Dy 0.89605 0.22557 0.95802 0.0
C101 C 0.49629 0.25007 0.95764 0.0
C102 C 0.09106 0.22359 0.95458 0.0
Dy103 Dy 0.69197 0.24765 0.9559 0.0
O104 O 0.04282 0.21126 0.96669 0.0
O105 O 0.03225 0.23553 0.94384 0.0
O106 O 0.87117 0.20328 0.98253 0.0
O107 O 0.7957 0.24418 0.97643 0.0
C108 C 0.8064 0.22305 0.98728 0.0
C109 C 0.7921 0.2502 0.92746 0.0
O110 O 0.74946 0.29225 0.96516 0.0
O111 O 0.90611 0.27825 0.95907 0.0
O112 O 0.54743 0.25951 0.94515 0.0
O113 O 0.55242 0.2409 0.96953 0.0
O114 O 0.73009 0.27122 0.93177 0.0
O115 O 0.79374 0.22852 0.93795 0.0
O116 O 0.82869 0.18041 0.94991 0.0
O117 O 0.67516 0.19626 0.95673 0.0
C118 C 0.84086 0.29944 0.96322 0.0
C119 C 0.73625 0.17437 0.95235 0.0
Dy120 Dy 0.90446 0.22244 0.83729 0.0
C121 C 0.31269 0.24757 0.83785 0.0
C122 C 0.71436 0.21945 0.84468 0.0
Dy123 Dy 0.11718 0.24599 0.83887 0.0
O124 O 0.75978 0.1999 0.83515 0.0
O125 O 0.77451 0.23921 0.85109 0.0
O126 O 0.88586 0.21664 0.80988 0.0
O127 O 1.01569 0.233 0.81946 0.0
C128 C 0.97073 0.22681 0.80621 0.0
C129 C 1.01254 0.24966 0.86683 0.0
O130 O 0.05448 0.28779 0.82728 0.0
O131 O 0.8994 0.27513 0.83563 0.0
O132 O 0.26033 0.26005 0.84939 0.0
O133 O 0.25796 0.236 0.82636 0.0
O134 O 0.07583 0.27042 0.86265 0.0
O135 O 1.01188 0.2278 0.85646 0.0
O136 O 0.97765 0.17677 0.84295 0.0
O137 O 0.13504 0.19469 0.84055 0.0
C138 C 0.96368 0.2953 0.82978 0.0
C139 C 0.07214 0.17199 0.84253 0.0
Dy140 Dy 0.90712 0.49695 0.83613 0.0
C141 C 0.49866 0.47168 0.83619 0.0
C142 C 0.09721 0.49996 0.84349 0.0
Dy143 Dy 0.6942 0.47332 0.83731 0.0
O144 O 0.05166 0.51961 0.83406 0.0
O145 O 0.03711 0.48011 0.84986 0.0
O146 O 0.92715 0.50282 0.80875 0.0
O147 O 0.79701 0.48633 0.81811 0.0
C148 C 0.84262 0.49257 0.80493 0.0
C149 C 0.79661 0.46994 0.8655 0.0
O150 O 0.75805 0.43144 0.82596 0.0
O151 O 0.91212 0.44424 0.83478 0.0
O152 O 0.55088 0.45898 0.84767 0.0
O153 O 0.55357 0.48349 0.82478 0.0
O154 O 0.7336 0.44915 0.86127 0.0
O155 O 0.79813 0.49166 0.85506 0.0
O156 O 0.83361 0.54247 0.84205 0.0
O157 O 0.67661 0.52464 0.8389 0.0
C158 C 0.84852 0.42397 0.82882 0.0
C159 C 0.73922 0.5473 0.84131 0.0
Dy160 Dy 0.94243 -0.0037 0.58839 0.0
C161 C 0.34501 0.96937 0.59374 0.0
C162 C 0.74687 -0.00198 0.58752 0.0
Dy163 Dy 0.15487 0.97295 0.58644 0.0
O164 O 0.79945 0.00893 0.59947 0.0
O165 O 0.8014 -0.01203 0.57559 0.0
O166 O 0.98344 0.01987 0.61235 0.0
O167 O 0.04775 0.97739 0.60578 0.0
C168 C 0.04653 -0.00103 0.61635 0.0
C169 C 0.08897 0.979 0.55544 0.0
O170 O 0.08196 0.92674 0.59098 0.0
O171 O 0.92459 0.94485 0.58919 0.0
O172 O 0.29948 0.95059 0.5838 0.0
O173 O 0.28492 -0.01137 0.60058 0.0
O174 O 0.17397 0.96884 0.55898 0.0
O175 O 0.04379 0.98449 0.56877 0.0
O176 O 1.00547 0.03902 0.57767 0.0
O177 O 0.1607 0.02571 0.5856 0.0
C178 C 0.98748 0.92199 0.59055 0.0
C179 C 0.09649 0.04631 0.58022 0.0
Dy180 Dy 0.37011 0.22451 0.58884 0.0
C181 C 0.96731 0.25144 0.59484 0.0
C182 C 0.56575 0.22274 0.58783 0.0
Dy183 Dy 0.15757 0.24828 0.58751 0.0
O184 O 0.51316 0.21096 0.59955 0.0
O185 O 0.51114 0.23368 0.57615 0.0
O186 O 0.33018 0.20038 0.61272 0.0
O187 O 0.26587 0.24302 0.60656 0.0
C188 C 0.26743 0.22121 0.61698 0.0
C189 C 0.22255 0.24346 0.55635 0.0
O190 O 0.23155 0.29397 0.59305 0.0
O191 O 0.38837 0.2759 0.59013 0.0
O192 O 1.013 0.27082 0.58524 0.0
O193 O 1.02735 0.23182 0.60137 0.0
O194 O 0.13798 0.25375 0.5601 0.0
O195 O 0.26781 0.23735 0.56957 0.0
O196 O 0.3059 0.18235 0.57773 0.0
O197 O 0.15154 0.19553 0.58624 0.0
C198 C 0.32604 0.29871 0.5923 0.0
C199 C 0.21507 0.17505 0.58048 0.0
Dy200 Dy 0.94598 0.22418 0.70588 0.0
C201 C 0.349 0.25118 0.69997 0.0
C202 C 0.75038 0.22244 0.707 0.0
Dy203 Dy 0.15866 0.24808 0.70723 0.0
O204 O 0.8027 0.21041 0.69532 0.0
O205 O 0.80525 0.2336 0.7186 0.0
O206 O 0.98568 0.20011 0.68195 0.0
O207 O 0.05035 0.24268 0.68819 0.0
C208 C 0.04874 0.22091 0.67775 0.0
C209 C 0.09321 0.24322 0.73838 0.0
O210 O 0.08482 0.29359 0.70134 0.0
O211 O 0.92792 0.27557 0.70434 0.0
O212 O 0.30333 0.27062 0.70954 0.0
O213 O 0.28892 0.23154 0.69344 0.0
O214 O 0.17769 0.25366 0.73467 0.0
O215 O 0.04822 0.23711 0.72513 0.0
O216 O 1.01044 0.182 0.7169 0.0
O217 O 0.1647 0.19536 0.70838 0.0
C218 C 0.99034 0.29834 0.70202 0.0
C219 C 0.10128 0.17479 0.71411 0.0
Dy220 Dy 0.3755 -0.00307 0.70442 0.0
C221 C 0.97342 0.97025 0.69841 0.0
C222 C 0.57136 -0.00137 0.70534 0.0
Dy223 Dy 0.16377 0.97315 0.70579 0.0
O224 O 0.51874 0.01061 0.6937 0.0
O225 O 0.51668 -0.01246 0.71698 0.0
O226 O 0.33493 0.02095 0.68049 0.0
O227 O 0.27181 0.97817 0.68671 0.0
C228 C 0.27296 -0.00015 0.67624 0.0
C229 C 0.22715 0.97765 0.73698 0.0
O230 O 0.237 0.92749 0.70015 0.0
O231 O 0.39379 0.94548 0.7032 0.0
O232 O 1.01884 0.95068 0.70792 0.0
O233 O 0.03378 -0.01007 0.69198 0.0
O234 O 0.14346 0.9669 0.73302 0.0
O235 O 0.27396 0.98401 0.72391 0.0
O236 O 0.31199 0.03906 0.71563 0.0
O237 O 0.15749 0.02586 0.70728 0.0
C238 C 0.33134 0.92269 0.70098 0.0
C239 C 0.22105 0.04631 0.71306 0.0
Dy240 Dy 0.9025 -0.0014 0.45647 0.0
C241 C 0.30752 0.98068 0.45159 0.0
C242 C 0.71481 -0.0012 0.44765 0.0
Dy243 Dy 0.11371 0.97723 0.45464 0.0
O244 O 0.77514 0.97661 0.44451 0.0
O245 O 0.75832 0.02205 0.45486 0.0
O246 O 0.88039 0.00419 0.48378 0.0
O247 O 1.01319 -0.0112 0.4746 0.0
C248 C 0.96558 -0.00549 0.48766 0.0
C249 C 1.0103 0.97318 0.42651 0.0
O250 O 0.05647 0.93335 0.46495 0.0
O251 O 0.90029 0.94591 0.45749 0.0
O252 O 0.24653 -0.00117 0.44437 0.0
O253 O 0.26302 0.95984 0.46052 0.0
O254 O 0.07462 0.9529 0.43066 0.0
O255 O 1.00822 -0.00519 0.43696 0.0
O256 O 0.97832 0.04394 0.45111 0.0
O257 O 0.12177 0.02686 0.46223 0.0
C258 C 0.96566 0.92561 0.46269 0.0
C259 C 0.0674 0.04938 0.4563 0.0
Dy260 Dy 0.90544 0.72352 0.45589 0.0
C261 C 0.49713 0.74899 0.45537 0.0
C262 C 0.09563 0.72022 0.44859 0.0
Dy263 Dy 0.6927 0.74722 0.45437 0.0
O264 O 0.04996 0.70101 0.45829 0.0
O265 O 0.03563 0.73973 0.44195 0.0
O266 O 0.9242 0.71845 0.48335 0.0
O267 O 0.79466 0.73467 0.47371 0.0
C268 C 0.83954 0.72879 0.487 0.0
C269 C 0.79634 0.75021 0.4263 0.0
O270 O 0.75721 0.78951 0.46534 0.0
O271 O 0.9117 0.77624 0.45693 0.0
O272 O 0.54968 0.76058 0.44359 0.0
O273 O 0.55173 0.73825 0.4671 0.0
O274 O 0.73333 0.77107 0.43041 0.0
O275 O 0.79729 0.72856 0.43681 0.0
O276 O 0.83184 0.67781 0.45033 0.0
O277 O 0.67482 0.69576 0.45317 0.0
C278 C 0.84814 0.79677 0.46262 0.0
C279 C 0.7374 0.67299 0.45104 0.0
Dy280 Dy 0.91059 0.72588 0.33517 0.0
C281 C 0.31042 0.75067 0.33533 0.0
C282 C 0.71547 0.72375 0.33865 0.0
Dy283 Dy 0.11457 0.7482 0.33703 0.0
O284 O 0.76376 0.71135 0.32657 0.0
O285 O 0.77435 0.73579 0.34936 0.0
O286 O 0.93467 0.70372 0.31061 0.0
O287 O 1.00988 0.74476 0.31664 0.0
C288 C 0.99886 0.72365 0.30579 0.0
C289 C 1.01589 0.75042 0.36562 0.0
O290 O 0.05629 0.79293 0.32804 0.0
O291 O 0.90006 0.77861 0.33428 0.0
O292 O 0.25916 0.75993 0.34784 0.0
O293 O 0.2543 0.74171 0.32339 0.0
O294 O 0.07738 0.77156 0.36125 0.0
O295 O 1.01385 0.72879 0.3551 0.0
O296 O 0.97887 0.68074 0.34317 0.0
O297 O 0.13145 0.69681 0.3359 0.0
C298 C 0.96486 0.79998 0.33013 0.0
C299 C 0.07114 0.67479 0.34045 0.0
Dy300 Dy 0.90121 0.00115 0.33656 0.0
C301 C 0.49249 0.97535 0.3367 0.0
C302 C 0.09139 0.00423 0.34383 0.0
Dy303 Dy 0.68794 0.97709 0.33787 0.0
O304 O 0.04585 0.02369 0.33427 0.0
O305 O 0.03127 0.98458 0.35035 0.0
O306 O 0.91978 0.00672 0.30908 0.0
O307 O 0.79064 -0.0098 0.31873 0.0
C308 C 0.8352 -0.00372 0.30544 0.0
C309 C 0.79132 0.97345 0.36589 0.0
O310 O 0.7531 0.93522 0.32667 0.0
O311 O 0.90705 0.94856 0.33539 0.0
O312 O 0.54462 0.96316 0.34835 0.0
O313 O 0.54747 -0.01333 0.32516 0.0
O314 O 0.72795 0.95274 0.3617 0.0
O315 O 0.79246 -0.00467 0.35552 0.0
O316 O 0.82743 0.04645 0.34258 0.0
O317 O 0.67032 0.02845 0.3397 0.0
C318 C 0.84389 0.92807 0.32953 0.0
C319 C 0.73298 0.05115 0.34202 0.0
Dy320 Dy 0.44806 0.4966 0.58734 0.0
C321 C 0.85091 0.46964 0.59329 0.0
C322 C 0.25247 0.49832 0.58621 0.0
Dy323 Dy 0.66066 0.47273 0.58602 0.0
O324 O 0.30474 0.51053 0.59784 0.0
O325 O 0.30739 0.48699 0.57466 0.0
O326 O 0.48769 0.52078 0.61124 0.0
O327 O 0.55225 0.47819 0.60506 0.0
C328 C 0.55064 0.49999 0.61547 0.0
C329 C 0.59536 0.4774 0.55487 0.0
O330 O 0.58654 0.4272 0.59191 0.0
O331 O 0.42973 0.44522 0.58894 0.0
O332 O 0.80524 0.45016 0.58375 0.0
O333 O 0.79087 0.48931 0.5998 0.0
O334 O 0.67986 0.46704 0.55858 0.0
O335 O 0.55037 0.48359 0.56811 0.0
O336 O 0.51286 0.53862 0.57618 0.0
O337 O 0.66695 0.52548 0.5848 0.0
C338 C 0.49202 0.42245 0.59125 0.0
C339 C 0.6036 0.54596 0.579 0.0
Dy340 Dy 0.86459 0.72696 0.58802 0.0
C341 C 0.46588 0.74774 0.59481 0.0
C342 C 0.05843 0.73027 0.591 0.0
Dy343 Dy 0.65385 0.74778 0.58613 0.0
O344 O 0.99762 0.74843 0.59827 0.0
O345 O 1.01374 0.70952 0.58205 0.0
O346 O 0.82615 0.70206 0.61182 0.0
O347 O 0.75836 0.74395 0.60583 0.0
C348 C 0.76132 0.72205 0.61613 0.0
C349 C 0.71729 0.74432 0.55492 0.0
O350 O 0.72782 0.79331 0.59174 0.0
O351 O 0.87264 0.77684 0.58088 0.0
O352 O 0.52603 0.72543 0.59778 0.0
O353 O 0.50962 0.77117 0.58781 0.0
O354 O 0.63193 0.75376 0.55885 0.0
O355 O 0.76509 0.73852 0.56794 0.0
O356 O 0.80886 0.6831 0.57742 0.0
O357 O 0.65235 0.69509 0.5849 0.0
C358 C 0.81706 0.79911 0.58675 0.0
C359 C 0.71827 0.67506 0.57961 0.0
Dy360 Dy 0.4477 0.72452 0.70583 0.0
C361 C 0.85071 0.75102 0.69997 0.0
C362 C 0.25222 0.72288 0.70697 0.0
Dy363 Dy 0.6605 0.74787 0.70724 0.0
O364 O 0.30445 0.71056 0.69536 0.0
O365 O 0.30709 0.73434 0.71847 0.0
O366 O 0.48689 0.70038 0.6819 0.0
O367 O 0.55238 0.74282 0.68813 0.0
C368 C 0.55032 0.72105 0.67769 0.0
C369 C 0.59501 0.74312 0.73838 0.0
O370 O 0.58785 0.79358 0.7014 0.0
O371 O 0.4305 0.77594 0.70425 0.0
O372 O 0.80498 0.77049 0.70951 0.0
O373 O 0.79079 0.73127 0.69349 0.0
O374 O 0.67979 0.75331 0.73468 0.0
O375 O 0.54986 0.73714 0.72514 0.0
O376 O 0.51108 0.68223 0.71689 0.0
O377 O 0.66558 0.69512 0.70833 0.0
C378 C 0.4935 0.79856 0.702 0.0
C379 C 0.60163 0.67473 0.71407 0.0
Dy380 Dy 0.87086 0.49627 0.70444 0.0
C381 C 0.46818 0.4697 0.69837 0.0
C382 C 0.06648 0.49791 0.70543 0.0
Dy383 Dy 0.65828 0.4728 0.70577 0.0
O384 O 1.01406 0.51017 0.69385 0.0
O385 O 1.01175 0.48654 0.71699 0.0
O386 O 0.83123 0.52059 0.68059 0.0
O387 O 0.76655 0.47796 0.68669 0.0
C388 C 0.76835 0.49981 0.6763 0.0
C389 C 0.72276 0.4773 0.73693 0.0
O390 O 0.73155 0.42703 0.70019 0.0
O391 O 0.88863 0.4449 0.70303 0.0
O392 O 0.51369 0.45018 0.70789 0.0
O393 O 0.5283 0.48947 0.69196 0.0
O394 O 0.63813 0.46712 0.73314 0.0
O395 O 0.76853 0.48345 0.72375 0.0
O396 O 0.80761 0.53831 0.71578 0.0
O397 O 0.65304 0.52555 0.70723 0.0
C398 C 0.82595 0.42218 0.70088 0.0
C399 C 0.71696 0.54582 0.71309 0.0
Dy400 Dy 0.40694 0.49801 0.45595 0.0
C401 C 0.81516 0.47307 0.45534 0.0
C402 C 0.21695 0.50122 0.44858 0.0
Dy403 Dy 0.61967 0.47472 0.45436 0.0
O404 O 0.26247 0.52057 0.45822 0.0
O405 O 0.27697 0.48155 0.44206 0.0
O406 O 0.3876 0.50327 0.48338 0.0
O407 O 0.51769 0.48716 0.47379 0.0
C408 C 0.47239 0.49309 0.48705 0.0
C409 C 0.51619 0.47183 0.42627 0.0
O410 O 0.55666 0.43241 0.46548 0.0
O411 O 0.40181 0.44522 0.45713 0.0
O412 O 0.76274 0.46104 0.44368 0.0
O413 O 0.76051 0.48423 0.46696 0.0
O414 O 0.57918 0.45095 0.43034 0.0
O415 O 0.51508 0.49335 0.43684 0.0
O416 O 0.47998 0.54387 0.45042 0.0
O417 O 0.63723 0.52615 0.45316 0.0
C418 C 0.46597 0.42488 0.46282 0.0
C419 C 0.57437 0.54883 0.45109 0.0
Dy420 Dy 0.40989 0.22246 0.45737 0.0
C421 C 1.00183 0.24747 0.45671 0.0
C422 C 0.60008 0.21898 0.45004 0.0
Dy423 Dy 0.19742 0.24578 0.45575 0.0
O424 O 0.55437 0.19993 0.45981 0.0
O425 O 0.54012 0.23845 0.44335 0.0
O426 O 0.42992 0.21793 0.48479 0.0
O427 O 0.2994 0.23373 0.47524 0.0
C428 C 0.34507 0.22804 0.48848 0.0
C429 C 0.30086 0.24872 0.42766 0.0
O430 O 0.26043 0.28833 0.46658 0.0
O431 O 0.41522 0.27526 0.45828 0.0
O432 O 0.05441 0.25905 0.44494 0.0
O433 O 0.05641 0.23676 0.46846 0.0
O434 O 0.23781 0.26955 0.4318 0.0
O435 O 0.30215 0.22705 0.43817 0.0
O436 O 0.33667 0.1763 0.45265 0.0
O437 O 0.1794 0.19443 0.45467 0.0
C438 C 0.3511 0.29578 0.46382 0.0
C439 C 0.24213 0.17159 0.45311 0.0
Dy440 Dy 0.41026 0.22597 0.33592 0.0
C441 C 0.80992 0.25036 0.33602 0.0
C442 C 0.2152 0.22392 0.33948 0.0
Dy443 Dy 0.61408 0.24801 0.3378 0.0
O444 O 0.2634 0.21105 0.32753 0.0
O445 O 0.27413 0.23643 0.35003 0.0
O446 O 0.43368 0.20395 0.31131 0.0
O447 O 0.50954 0.24484 0.31737 0.0
C448 C 0.49812 0.22378 0.3065 0.0
C449 C 0.51595 0.24997 0.36648 0.0
O450 O 0.55639 0.29278 0.32876 0.0
O451 O 0.40006 0.27872 0.33503 0.0
O452 O 0.75879 0.26038 0.34837 0.0
O453 O 0.75368 0.24066 0.32426 0.0
O454 O 0.57751 0.2711 0.36213 0.0
O455 O 0.51348 0.22848 0.35588 0.0
O456 O 0.47799 0.1807 0.34385 0.0
O457 O 0.63077 0.19663 0.33663 0.0
C458 C 0.4651 0.29998 0.33085 0.0
C459 C 0.57017 0.17465 0.34112 0.0
Dy460 Dy 0.40321 0.50132 0.3365 0.0
C461 C 0.99473 0.47559 0.3368 0.0
C462 C 0.59347 0.50441 0.34372 0.0
Dy463 Dy 0.19018 0.47736 0.33795 0.0
O464 O 0.54792 0.5238 0.33413 0.0
O465 O 0.53335 0.48481 0.35029 0.0
O466 O 0.4216 0.50675 0.30901 0.0
O467 O 0.29241 0.49032 0.3187 0.0
C468 C 0.33694 0.49636 0.30539 0.0
C469 C 0.29405 0.47361 0.36593 0.0
O470 O 0.25489 0.4354 0.32679 0.0
O471 O 0.409 0.44872 0.33539 0.0
O472 O 0.04687 0.46363 0.34851 0.0
O473 O 0.0497 0.48671 0.3252 0.0
O474 O 0.23059 0.45293 0.36173 0.0
O475 O 0.29507 0.49555 0.35558 0.0
O476 O 0.32962 0.54673 0.34241 0.0
O477 O 0.17246 0.52869 0.33974 0.0
C478 C 0.34566 0.42821 0.32962 0.0
C479 C 0.23514 0.55141 0.34193 0.0
Dy480 Dy 0.43938 -0.00315 0.08787 0.0
C481 C 0.84158 0.97039 0.0938 0.0
C482 C 0.24367 -0.00148 0.08679 0.0
Dy483 Dy 0.65119 0.97328 0.08653 0.0
O484 O 0.29604 0.01083 0.09837 0.0
O485 O 0.29853 -0.01293 0.07527 0.0
O486 O 0.47891 0.02115 0.11173 0.0
O487 O 0.54321 0.97847 0.10565 0.0
C488 C 0.54152 0.00032 0.11604 0.0
C489 C 0.58769 0.97798 0.05531 0.0
O490 O 0.57863 0.92764 0.09241 0.0
O491 O 0.42159 0.94536 0.08944 0.0
O492 O 0.79592 0.95076 0.08435 0.0
O493 O 0.78148 -0.00986 0.10022 0.0
O494 O 0.67135 0.96722 0.05924 0.0
O495 O 0.54105 0.98414 0.0684 0.0
O496 O 0.50322 0.03907 0.07675 0.0
O497 O 0.65742 0.02594 0.08527 0.0
C498 C 0.48435 0.92269 0.09173 0.0
C499 C 0.594 0.04639 0.07948 0.0
Dy500 Dy 0.86901 0.22395 0.08894 0.0
C501 C 0.46682 0.25076 0.09499 0.0
C502 C 0.06484 0.22223 0.08807 0.0
Dy503 Dy 0.6572 0.24788 0.0876 0.0
O504 O 1.01202 0.21045 0.09975 0.0
O505 O 1.01038 0.23313 0.07636 0.0
O506 O 0.82771 0.19956 0.11274 0.0
O507 O 0.76499 0.24245 0.10665 0.0
C508 C 0.76562 0.22059 0.11702 0.0
C509 C 0.7212 0.24351 0.05643 0.0
O510 O 0.73074 0.29344 0.09333 0.0
O511 O 0.88744 0.2754 0.09029 0.0
O512 O 0.51235 0.27034 0.08548 0.0
O513 O 0.52708 0.23106 0.1014 0.0
O514 O 0.63749 0.25426 0.06036 0.0
O515 O 0.76761 0.23707 0.0695 0.0
O516 O 0.80519 0.18199 0.07761 0.0
O517 O 0.65063 0.1952 0.08596 0.0
C518 C 0.82513 0.2982 0.09253 0.0
C519 C 0.71413 0.17477 0.08015 0.0
Dy520 Dy 0.4334 0.22403 0.20474 0.0
C521 C 0.83564 0.25065 0.19866 0.0
C522 C 0.23757 0.22233 0.20565 0.0
Dy523 Dy 0.64524 0.24781 0.20604 0.0
O524 O 0.29031 0.21038 0.194 0.0
O525 O 0.29211 0.2334 0.21731 0.0
O526 O 0.47432 0.19959 0.18093 0.0
O527 O 0.53738 0.24245 0.187 0.0
C528 C 0.53649 0.2206 0.17663 0.0
C529 C 0.5816 0.24366 0.23724 0.0
O530 O 0.57212 0.29339 0.2002 0.0
O531 O 0.41527 0.27548 0.2033 0.0
O532 O 0.79013 0.27031 0.20811 0.0
O533 O 0.77536 0.23088 0.19229 0.0
O534 O 0.66536 0.25433 0.23325 0.0
O535 O 0.53486 0.23717 0.2242 0.0
O536 O 0.4968 0.182 0.21604 0.0
O537 O 0.65134 0.1951 0.20762 0.0
C538 C 0.47778 0.29823 0.20099 0.0
C539 C 0.58768 0.17469 0.21342 0.0
Dy540 Dy 0.86007 -0.00351 0.20517 0.0
C541 C 0.4571 0.96982 0.19941 0.0
C542 C 0.05555 -0.00185 0.20631 0.0
Dy543 Dy 0.6473 0.97291 0.20665 0.0
O544 O 1.00343 0.01037 0.19468 0.0
O545 O 1.00058 -0.0132 0.21784 0.0
O546 O 0.82049 0.02076 0.18132 0.0
O547 O 0.75524 0.97825 0.1875 0.0
C548 C 0.75705 0.0001 0.17711 0.0
C549 C 0.71316 0.97778 0.23776 0.0
O550 O 0.72026 0.92726 0.20077 0.0
O551 O 0.87753 0.94506 0.20349 0.0
O552 O 0.50267 0.95038 0.20896 0.0
O553 O 0.51716 -0.0105 0.19289 0.0
O554 O 0.62848 0.96744 0.23412 0.0
O555 O 0.75803 0.98375 0.22448 0.0
O556 O 0.79635 0.03866 0.21635 0.0
O557 O 0.64173 0.02563 0.20792 0.0
C558 C 0.81467 0.92238 0.2013 0.0
C559 C 0.70557 0.04604 0.21366 0.0
Dy560 Dy 0.41463 -0.00023 0.95699 0.0
C561 C 0.81443 0.97484 0.95636 0.0
C562 C 0.2195 0.00199 0.9537 0.0
Dy563 Dy 0.61871 0.97748 0.95469 0.0
O564 O 0.26786 0.01332 0.96606 0.0
O565 O 0.27827 -0.009 0.94265 0.0
O566 O 0.43997 0.02106 0.98175 0.0
O567 O 0.51455 0.98023 0.97521 0.0
C568 C 0.50412 0.00094 0.9863 0.0
C569 C 0.51879 0.9757 0.92627 0.0
O570 O 0.55997 0.93245 0.96318 0.0
O571 O 0.40384 0.94715 0.95717 0.0
O572 O 0.76331 0.9667 0.94362 0.0
O573 O 0.75823 0.98277 0.96851 0.0
O574 O 0.58078 0.95457 0.93041 0.0
O575 O 0.51712 -0.00283 0.9369 0.0
O576 O 0.48243 0.04509 0.94931 0.0
O577 O 0.63562 0.02884 0.95607 0.0
C578 C 0.46844 0.9256 0.96102 0.0
C579 C 0.57488 0.05093 0.95185 0.0
Dy580 Dy 0.39732 0.72357 0.95744 0.0
C581 C 0.9973 0.7489 0.95687 0.0
C582 C 0.59255 0.72112 0.95425 0.0
Dy583 Dy 0.19314 0.7462 0.95543 0.0
O584 O 0.54387 0.71041 0.96673 0.0
O585 O 0.53402 0.73157 0.94302 0.0
O586 O 0.37178 0.70192 0.9821 0.0
O587 O 0.298 0.74305 0.97578 0.0
C588 C 0.30816 0.72214 0.98676 0.0
C589 C 0.29233 0.74796 0.92694 0.0
O590 O 0.25267 0.79115 0.96381 0.0
O591 O 0.40838 0.7762 0.95755 0.0
O592 O 0.04891 0.75579 0.94399 0.0
O593 O 0.05306 0.74224 0.96928 0.0
O594 O 0.23102 0.76924 0.93118 0.0
O595 O 0.29395 0.72646 0.93753 0.0
O596 O 0.3283 0.67856 0.94953 0.0
O597 O 0.1766 0.69488 0.95717 0.0
C598 C 0.3442 0.79785 0.96149 0.0
C599 C 0.23614 0.67279 0.95244 0.0
Dy600 Dy 0.40636 0.72115 0.83729 0.0
C601 C 0.81505 0.74691 0.83767 0.0
C602 C 0.21615 0.71781 0.84458 0.0
Dy603 Dy 0.61949 0.74508 0.83868 0.0
O604 O 0.26178 0.69863 0.83486 0.0
O605 O 0.27622 0.73729 0.85125 0.0
O606 O 0.3872 0.71621 0.80982 0.0
O607 O 0.51671 0.73252 0.81944 0.0
C608 C 0.47177 0.72664 0.80616 0.0
C609 C 0.51645 0.74773 0.86681 0.0
O610 O 0.55465 0.7874 0.82794 0.0
O611 O 0.40065 0.77385 0.83655 0.0
O612 O 0.76253 0.75833 0.84949 0.0
O613 O 0.76041 0.73633 0.82589 0.0
O614 O 0.57939 0.76867 0.86274 0.0
O615 O 0.51526 0.72621 0.85624 0.0
O616 O 0.48035 0.6756 0.84284 0.0
O617 O 0.63717 0.69368 0.83974 0.0
C618 C 0.46391 0.79453 0.83089 0.0
C619 C 0.57477 0.6709 0.84199 0.0
Dy620 Dy 0.39819 -0.00265 0.83553 0.0
C621 C 0.99851 0.97263 0.8361 0.0
C622 C 0.59331 -0.00036 0.83899 0.0
Dy623 Dy 0.19442 0.97515 0.83767 0.0
O624 O 0.54513 0.01149 0.82676 0.0
O625 O 0.53432 -0.01191 0.84985 0.0
O626 O 0.37411 0.01879 0.81083 0.0
O627 O 0.29893 0.97786 0.81716 0.0
C628 C 0.31009 -0.0013 0.80615 0.0
C629 C 0.29333 0.97414 0.86626 0.0
O630 O 0.25229 0.92998 0.82922 0.0
O631 O 0.40867 0.94452 0.83515 0.0
O632 O 0.04983 0.96423 0.84876 0.0
O633 O 0.05459 0.98074 0.82397 0.0
O634 O 0.23215 0.95274 0.86213 0.0
O635 O 0.2951 -0.00469 0.85549 0.0
O636 O 0.3295 0.04274 0.84317 0.0
O637 O 0.17726 0.02647 0.83589 0.0
C638 C 0.34373 0.92298 0.83131 0.0
C639 C 0.23729 0.04864 0.84034 0.0
C640 C 0.84723 0.3862 0.09359 0.0
C641 C 0.94767 0.39045 0.09309 0.0
H642 H 0.72965 0.35404 0.09389 0.0
C643 C 1.00676 0.36414 0.09357 0.0
H644 H 0.79895 0.40594 0.09338 0.0
C645 C 0.96645 0.33431 0.09391 0.0
C646 C 0.86598 0.33005 0.09379 0.0
H647 H 0.08403 0.36649 0.09327 0.0
H648 H 1.01466 0.31456 0.09392 0.0
C649 C 0.80694 0.35639 0.09394 0.0
C650 C 0.34388 0.88633 0.09363 0.0
C651 C 0.44422 0.8908 0.09335 0.0
H652 H 0.22704 0.85388 0.09354 0.0
C653 C 0.50387 0.86461 0.0938 0.0
H654 H 0.29525 0.90597 0.09342 0.0
C655 C 0.46424 0.83469 0.09391 0.0
C656 C 0.36391 0.83021 0.09357 0.0
H657 H 0.5811 0.86713 0.09366 0.0
H658 H 0.51288 0.81504 0.09391 0.0
C659 C 0.30426 0.85641 0.09374 0.0
C660 C 0.95558 0.8863 0.19905 0.0
C661 C 0.85515 0.89055 0.19956 0.0
H662 H 0.07308 0.85415 0.19884 0.0
C663 C 0.796 0.86422 0.19921 0.0
H664 H 1.00389 0.90605 0.19917 0.0
C665 C 0.83623 0.83439 0.19897 0.0
C666 C 0.93669 0.83014 0.19908 0.0
H667 H 0.71874 0.86656 0.19953 0.0
H668 H 0.78796 0.81463 0.19905 0.0
C669 C 0.99579 0.85649 0.1988 0.0
C670 C 0.29663 0.36422 0.19955 0.0
C671 C 0.35589 0.39053 0.19978 0.0
H672 H 0.28836 0.31464 0.19961 0.0
C673 C 0.4563 0.38623 0.19928 0.0
H674 H 0.21938 0.3666 0.19986 0.0
C675 C 0.49639 0.35639 0.19917 0.0
C676 C 0.43717 0.33008 0.19956 0.0
H677 H 0.5047 0.40596 0.19931 0.0
H678 H 0.57366 0.35402 0.19921 0.0
C679 C 0.33672 0.33437 0.19944 0.0
C680 C 0.21056 0.58569 0.94681 0.0
C681 C 0.1106 0.58168 0.94868 0.0
H682 H 0.32906 0.61754 0.94654 0.0
C683 C 0.05259 0.60798 0.95053 0.0
H684 H 0.2576 0.56587 0.94519 0.0
C685 C 0.09394 0.63751 0.95133 0.0
C686 C 0.19429 0.64143 0.95025 0.0
H687 H 0.97571 0.60572 0.95198 0.0
H688 H 0.04678 0.65724 0.95315 0.0
C689 C 0.25197 0.61528 0.94757 0.0
C690 C 0.75573 0.11656 0.94991 0.0
C691 C 0.69632 0.14274 0.95032 0.0
H692 H 0.76368 0.067 0.94998 0.0
C693 C 0.59593 0.13856 0.94978 0.0
H694 H 0.83298 0.11901 0.95024 0.0
C695 C 0.55576 0.10878 0.94964 0.0
C696 C 0.61512 0.08259 0.95011 0.0
H697 H 0.5478 0.15834 0.94985 0.0
H698 H 0.47849 0.10635 0.94973 0.0
C699 C 0.71555 0.08678 0.94985 0.0
C700 C 0.2127 0.13604 0.84549 0.0
C701 C 0.11265 0.14018 0.84379 0.0
H702 H 0.33089 0.10407 0.84575 0.0
C703 C 0.05441 0.11386 0.84206 0.0
H704 H 0.26007 0.15583 0.847 0.0
C705 C 0.09547 0.08424 0.84132 0.0
C706 C 0.19583 0.08018 0.84234 0.0
H707 H 0.9775 0.11615 0.84074 0.0
H708 H 0.04802 0.06453 0.83964 0.0
C709 C 0.2538 0.10637 0.84479 0.0
C710 C 0.55711 0.61276 0.84363 0.0
C711 C 0.61586 0.63917 0.84337 0.0
H712 H 0.54979 0.56322 0.84333 0.0
C713 C 0.71641 0.63512 0.8436 0.0
H714 H 0.4798 0.61498 0.84353 0.0
C715 C 0.75712 0.60539 0.84343 0.0
C716 C 0.69833 0.579 0.84304 0.0
H717 H 0.7644 0.65495 0.84355 0.0
H718 H 0.83442 0.60317 0.84318 0.0
C719 C 0.59781 0.58304 0.84347 0.0
C720 C 1.00223 0.86408 0.58686 0.0
C721 C 0.94672 0.89008 0.59102 0.0
H722 H 1.00466 0.81524 0.58201 0.0
C723 C 0.84804 0.88582 0.59426 0.0
H724 H 0.07796 0.86652 0.5842 0.0
C725 C 0.80547 0.85641 0.59298 0.0
C726 C 0.86035 0.83057 0.5883 0.0
H727 H 0.8029 0.90536 0.5976 0.0
H728 H 0.72949 0.85404 0.59544 0.0
C729 C 0.95951 0.83471 0.58545 0.0
C730 C 0.46793 0.33456 0.59394 0.0
C731 C 0.36735 0.33052 0.59359 0.0
H732 H 0.58632 0.36644 0.59353 0.0
C733 C 0.30893 0.357 0.59356 0.0
H734 H 0.51572 0.3147 0.5941 0.0
C735 C 0.34998 0.38671 0.59327 0.0
C736 C 0.45059 0.39073 0.593 0.0
H737 H 0.2316 0.35482 0.59333 0.0
H738 H 0.30217 0.40656 0.59291 0.0
C739 C 0.50899 0.36428 0.59365 0.0
C740 C 1.0079 0.35645 0.69942 0.0
C741 C 0.94918 0.33006 0.70025 0.0
H742 H 1.01527 0.40601 0.69877 0.0
C743 C 0.84862 0.33416 0.70012 0.0
H744 H 0.08521 0.35422 0.69942 0.0
C745 C 0.80795 0.36391 0.69978 0.0
C746 C 0.86673 0.39033 0.69958 0.0
H747 H 0.80059 0.31436 0.70062 0.0
H748 H 0.73067 0.36617 0.70013 0.0
C749 C 0.96723 0.38619 0.69908 0.0
C750 C 0.35285 0.83468 0.69974 0.0
C751 C 0.45324 0.8304 0.70027 0.0
H752 H 0.2355 0.86689 0.69948 0.0
C753 C 0.51254 0.8567 0.6999 0.0
H754 H 0.30443 0.81496 0.69986 0.0
C755 C 0.47245 0.88654 0.69963 0.0
C756 C 0.372 0.89083 0.69972 0.0
H757 H 0.58978 0.85431 0.70023 0.0
H758 H 0.5208 0.90627 0.6997 0.0
C759 C 0.31277 0.86451 0.69947 0.0
C760 C 0.21097 0.08444 0.45809 0.0
C761 C 0.11203 0.08066 0.45489 0.0
H762 H 0.33032 0.11585 0.45975 0.0
C763 C 0.05872 0.10664 0.44994 0.0
H764 H 0.25495 0.06484 0.46174 0.0
C765 C 0.1025 0.13586 0.44876 0.0
C766 C 0.20083 0.13979 0.45239 0.0
H767 H 0.98302 0.10454 0.44719 0.0
H768 H 0.0585 0.15554 0.44522 0.0
C769 C 0.25492 0.11364 0.45679 0.0
C770 C 0.5961 0.63687 0.44947 0.0
C771 C 0.69659 0.64114 0.44963 0.0
H772 H 0.47852 0.60467 0.44974 0.0
C773 C 0.75564 0.61482 0.44922 0.0
H774 H 0.54785 0.65661 0.44966 0.0
C775 C 0.71534 0.58499 0.44923 0.0
C776 C 0.61488 0.58071 0.44965 0.0
H777 H 0.83292 0.61717 0.44928 0.0
H778 H 0.76363 0.56526 0.44922 0.0
C779 C 0.55579 0.60704 0.44947 0.0
C780 C 0.25323 0.60949 0.34242 0.0
C781 C 0.19452 0.58315 0.34343 0.0
H782 H 0.26031 0.65893 0.34079 0.0
C783 C 0.09427 0.58727 0.34473 0.0
H784 H 0.33034 0.60722 0.34145 0.0
C785 C 0.05352 0.61699 0.3443 0.0
C786 C 0.11208 0.64323 0.34251 0.0
H787 H 0.04654 0.56745 0.34569 0.0
H788 H 0.9763 0.61931 0.34487 0.0
C789 C 0.21252 0.63917 0.34195 0.0
C790 C 0.59216 0.08703 0.34478 0.0
C791 C 0.69245 0.08286 0.34365 0.0
H792 H 0.47447 0.11918 0.34493 0.0
C793 C 0.75147 0.10917 0.34301 0.0
H794 H 0.54419 0.06723 0.34546 0.0
C795 C 0.71107 0.13889 0.34272 0.0
C796 C 0.61065 0.14302 0.34308 0.0
H797 H 0.82862 0.10686 0.34221 0.0
H798 H 0.75909 0.15865 0.34184 0.0
C799 C 0.55171 0.1168 0.34452 0.0
C800 C 0.12568 0.52835 0.1388 0.0
C801 C 0.10046 0.50012 0.13115 0.0
H802 H 0.19802 0.55037 0.15923 0.0
C803 C 0.12703 0.47194 0.13867 0.0
H804 H 0.10606 0.55036 0.13318 0.0
C805 C 0.17653 0.47194 0.15376 0.0
C806 C 0.2033 0.50014 0.16128 0.0
H807 H 0.10804 0.44988 0.13303 0.0
H808 H 0.1954 0.44989 0.15941 0.0
C809 C 0.17824 0.52835 0.15362 0.0
C810 C 0.17771 0.74831 0.13888 0.0
C811 C 0.20695 0.72013 0.13165 0.0
H812 H 0.10277 0.7704 0.15889 0.0
C813 C 0.17957 0.6919 0.13907 0.0
H814 H 0.19812 0.77038 0.1334 0.0
C815 C 0.12233 0.6919 0.15338 0.0
C816 C 0.09458 0.72015 0.16074 0.0
H817 H 0.20107 0.66989 0.13365 0.0
H818 H 0.10114 0.66991 0.15885 0.0
C819 C 0.12345 0.74832 0.15345 0.0
C820 C 0.87708 0.44205 0.88895 0.0
C821 C 0.85128 0.47005 0.88115 0.0
H822 H 0.95062 0.42065 0.90943 0.0
C823 C 0.87776 0.49846 0.88847 0.0
H824 H 0.85754 0.41988 0.88349 0.0
C825 C 0.92793 0.4989 0.90348 0.0
C826 C 0.95544 0.47094 0.91112 0.0
H827 H 0.85835 0.52036 0.8827 0.0
H828 H 0.9468 0.52112 0.90895 0.0
C829 C 0.93029 0.44249 0.9037 0.0
C830 C 0.92951 0.27835 0.88976 0.0
C831 C 0.95522 0.25007 0.88222 0.0
H832 H 0.85494 0.30052 0.90991 0.0
C833 C 0.92636 0.22195 0.88958 0.0
H834 H 0.95077 0.30031 0.88427 0.0
C835 C 0.87446 0.22205 0.90444 0.0
C836 C 0.84757 0.25029 0.91187 0.0
H837 H 0.94554 0.19984 0.88401 0.0
H838 H 0.85421 0.20003 0.91 0.0
C839 C 0.87464 0.27846 0.90435 0.0
C840 C 0.13148 0.02781 0.63899 0.0
C841 C 0.10534 -0.00053 0.63155 0.0
H842 H 0.20782 0.05016 0.65889 0.0
C843 C 0.13518 0.97142 0.63882 0.0
H844 H 0.10948 0.04974 0.63355 0.0
C845 C 0.18848 0.97165 0.65351 0.0
C846 C 0.21581 -4e-05 0.66085 0.0
H847 H 0.11569 0.94928 0.63332 0.0
H848 H 0.20952 0.94967 0.65901 0.0
C849 C 0.18777 0.02806 0.6534 0.0
C850 C 0.18353 0.24899 0.63992 0.0
C851 C 0.21115 0.22085 0.63247 0.0
H852 H 0.1127 0.27095 0.66045 0.0
C853 C 0.18516 0.19258 0.63999 0.0
H854 H 0.20303 0.27108 0.63436 0.0
C855 C 0.13088 0.1925 0.65464 0.0
C856 C 0.10481 0.22069 0.66223 0.0
H857 H 0.20553 0.1706 0.63442 0.0
H858 H 0.11063 0.17046 0.66017 0.0
C859 C 0.13228 0.24892 0.65484 0.0
C860 C 0.92642 0.00112 0.40369 0.0
C861 C 0.95465 0.97291 0.41098 0.0
H862 H 0.85483 0.02329 0.38334 0.0
C863 C 0.92928 0.94471 0.40333 0.0
H864 H 0.94542 0.02316 0.40936 0.0
C865 C 0.87478 0.94478 0.38872 0.0
C866 C 0.84795 0.97305 0.38131 0.0
H867 H 0.95011 0.92269 0.40879 0.0
H868 H 0.85483 0.9228 0.38309 0.0
C869 C 0.87501 0.0012 0.38881 0.0
C870 C 0.93377 0.77873 0.38872 0.0
C871 C 0.9607 0.75053 0.38123 0.0
H872 H 0.85799 0.80069 0.40879 0.0
C873 C 0.93398 0.72232 0.38872 0.0
H874 H 0.95335 0.80077 0.38311 0.0
C875 C 0.88234 0.72229 0.40361 0.0
C876 C 0.85362 0.75046 0.41092 0.0
H877 H 0.95415 0.70028 0.38318 0.0
H878 H 0.86321 0.70022 0.40923 0.0
C879 C 0.87918 0.77869 0.40332 0.0
C880 C 0.63386 0.47206 0.6384 0.0
C881 C 0.60654 0.50027 0.63099 0.0
H882 H 0.70425 0.44993 0.6589 0.0
C883 C 0.63259 0.52847 0.63858 0.0
H884 H 0.61431 0.45001 0.6328 0.0
C885 C 0.68667 0.52843 0.65324 0.0
C886 C 0.71247 0.50017 0.66078 0.0
H887 H 0.61245 0.5505 0.63303 0.0
H888 H 0.70699 0.55042 0.65881 0.0
C889 C 0.6849 0.47202 0.65333 0.0
C890 C 0.67992 0.74955 0.63943 0.0
C891 C 0.70736 0.72149 0.63186 0.0
H892 H 0.61106 0.77128 0.66022 0.0
C893 C 0.68323 0.69314 0.63948 0.0
H894 H 0.69801 0.7717 0.6338 0.0
C895 C 0.6308 0.69289 0.65433 0.0
C896 C 0.60484 0.721 0.66202 0.0
H897 H 0.70351 0.67123 0.63381 0.0
H898 H 0.6118 0.67079 0.65992 0.0
C899 C 0.63061 0.74931 0.65454 0.0
C900 C 0.38015 0.50083 0.38882 0.0
C901 C 0.35162 0.47288 0.38126 0.0
H902 H 0.45239 0.52228 0.40934 0.0
C903 C 0.37776 0.44443 0.38855 0.0
H904 H 0.36058 0.52306 0.38344 0.0
C905 C 0.43289 0.44398 0.40309 0.0
C906 C 0.4597 0.47197 0.41081 0.0
H907 H 0.35672 0.42259 0.38289 0.0
H908 H 0.45311 0.4218 0.40846 0.0
C909 C 0.43226 0.50038 0.40363 0.0
C910 C 0.38592 0.2211 0.40471 0.0
C911 C 0.35766 0.24914 0.41222 0.0
H912 H 0.45606 0.19946 0.38399 0.0
C913 C 0.38263 0.2775 0.40469 0.0
H914 H 0.36722 0.19894 0.41027 0.0
C915 C 0.43598 0.2778 0.38996 0.0
C916 C 0.46224 0.24975 0.38225 0.0
H917 H 0.36179 0.2994 0.4103 0.0
H918 H 0.455 0.29994 0.3844 0.0
C919 C 0.43631 0.22139 0.38969 0.0
C920 C 0.67623 0.0287 0.15396 0.0
C921 C 0.70142 0.00044 0.16156 0.0
H922 H 0.60313 0.05079 0.13364 0.0
C923 C 0.67378 0.97229 0.15411 0.0
H924 H 0.69664 0.05069 0.15953 0.0
C925 C 0.62335 0.97235 0.13912 0.0
C926 C 0.59671 0.00056 0.13164 0.0
H927 H 0.69269 0.95021 0.15972 0.0
H928 H 0.60378 0.9503 0.13351 0.0
C929 C 0.62276 0.02876 0.13923 0.0
C930 C 0.67809 0.2483 0.13952 0.0
C931 C 0.70714 0.22013 0.13226 0.0
H932 H 0.60334 0.27038 0.15956 0.0
C933 C 0.67956 0.19189 0.13965 0.0
H934 H 0.69864 0.27038 0.13406 0.0
C935 C 0.62235 0.19189 0.15398 0.0
C936 C 0.59481 0.22013 0.16137 0.0
H937 H 0.7009 0.16989 0.13421 0.0
H938 H 0.60103 0.16989 0.15943 0.0
C939 C 0.62386 0.2483 0.1541 0.0
C940 C 0.37781 0.94644 0.88928 0.0
C941 C 0.35023 0.97445 0.88168 0.0
H942 H 0.45545 0.92496 0.90925 0.0
C943 C 0.3782 0.00284 0.88885 0.0
H944 H 0.35738 0.92427 0.88392 0.0
C945 C 0.43157 0.00324 0.90355 0.0
C946 C 0.46077 0.97524 0.91098 0.0
H947 H 0.35761 0.02474 0.88321 0.0
H948 H 0.45147 0.02543 0.90895 0.0
C949 C 0.43405 0.94683 0.90368 0.0
C950 C 0.43244 0.77623 0.88963 0.0
C951 C 0.45838 0.748 0.88209 0.0
H952 H 0.35678 0.7983 0.90967 0.0
C953 C 0.42895 0.71982 0.88932 0.0
H954 H 0.45416 0.79823 0.88422 0.0
C955 C 0.37612 0.71985 0.90407 0.0
C956 C 0.34894 0.74806 0.91149 0.0
H957 H 0.44837 0.69776 0.88373 0.0
H958 H 0.35533 0.69781 0.90955 0.0
C959 C 0.37668 0.77627 0.9041 0.0
C960 C 0.08722 0.63394 0.07704 0.0
C961 C 0.18493 0.64186 0.0774 0.0
H962 H 0.98285 0.59742 0.07698 0.0
C963 C 0.25358 0.61794 0.07684 0.0
H964 H 0.03255 0.65183 0.07735 0.0
C965 C 0.2251 0.58674 0.0768 0.0
C966 C 0.12739 0.5788 0.07708 0.0
H967 H 0.32947 0.62323 0.07711 0.0
H968 H 0.27977 0.56884 0.07694 0.0
C969 C 0.05873 0.60273 0.07676 0.0
C970 C 0.21618 0.63426 0.21519 0.0
C971 C 0.11836 0.64206 0.21496 0.0
H972 H 0.32088 0.59788 0.21513 0.0
C973 C 0.04998 0.61804 0.21561 0.0
H974 H 0.27066 0.65223 0.21479 0.0
C975 C 0.07875 0.58688 0.21563 0.0
C976 C 0.17652 0.57907 0.21523 0.0
H977 H 0.97403 0.62323 0.21544 0.0
H978 H 1.02423 0.56891 0.21557 0.0
C979 C 0.24497 0.60309 0.21544 0.0
C980 C 0.80261 0.35604 0.96545 0.0
C981 C 0.87109 0.33209 0.96524 0.0
H982 H 0.77706 0.40509 0.96516 0.0
C983 C 0.96884 0.33978 0.96604 0.0
H984 H 0.7267 0.35085 0.96489 0.0
C985 C 0.99769 0.37089 0.96636 0.0
C986 C 0.9293 0.39483 0.96568 0.0
H987 H 1.02328 0.32181 0.96604 0.0
H988 H 0.07365 0.37609 0.96644 0.0
C989 C 0.83147 0.38712 0.96557 0.0
C990 C 0.80888 0.3673 0.82653 0.0
C991 C 0.87798 0.39112 0.82691 0.0
H992 H 0.78181 0.31826 0.82719 0.0
C993 C 0.97554 0.38308 0.82677 0.0
H994 H 0.73308 0.37272 0.82665 0.0
C995 C 1.00345 0.35185 0.82691 0.0
C996 C 0.93432 0.32805 0.82744 0.0
H997 H 0.03049 0.4009 0.82696 0.0
H998 H 0.07923 0.34646 0.8273 0.0
C999 C 0.83678 0.33608 0.82692 0.0
C1000 C 0.22435 0.08706 0.57792 0.0
C1001 C 0.1266 0.07919 0.57838 0.0
H1002 H 0.32902 0.12348 0.57795 0.0
C1003 C 0.05813 0.10318 0.57819 0.0
H1004 H 0.2789 0.06912 0.57795 0.0
C1005 C 0.08687 0.13437 0.57837 0.0
C1006 C 0.18467 0.14223 0.57849 0.0
H1007 H 0.98223 0.09793 0.57856 0.0
H1008 H 0.03235 0.1523 0.57875 0.0
C1009 C 0.25308 0.11824 0.57785 0.0
C1010 C 0.22962 0.13424 0.71612 0.0
C1011 C 0.13176 0.14197 0.7159 0.0
H1012 H 0.33464 0.09798 0.71566 0.0
C1013 C 0.06355 0.11787 0.71612 0.0
H1014 H 0.28398 0.15226 0.71604 0.0
C1015 C 0.09259 0.08673 0.71572 0.0
C1016 C 0.19045 0.07903 0.71532 0.0
H1017 H 0.98757 0.12302 0.71594 0.0
H1018 H 0.03824 0.06872 0.71535 0.0
C1019 C 0.25866 0.1031 0.71595 0.0
C1020 C 0.9765 0.83753 0.46438 0.0
C1021 C 0.8787 0.82959 0.46457 0.0
H1022 H 0.0809 0.87408 0.46389 0.0
C1023 C 0.81027 0.85352 0.4655 0.0
H1024 H 0.03108 0.81964 0.46376 0.0
C1025 C 0.83881 0.88471 0.46541 0.0
C1026 C 0.93646 0.89267 0.46461 0.0
H1027 H 0.73435 0.84826 0.46566 0.0
H1028 H 0.78409 0.9026 0.46561 0.0
C1029 C 1.00511 0.86875 0.46451 0.0
C1030 C 0.83612 0.84018 0.32752 0.0
C1031 C 0.93402 0.83265 0.32825 0.0
H1032 H 0.73072 0.87631 0.32707 0.0
C1033 C 1.00205 0.85677 0.32801 0.0
H1034 H 0.78195 0.8221 0.32757 0.0
C1035 C 0.97268 0.88782 0.32784 0.0
C1036 C 0.87473 0.89538 0.32771 0.0
H1037 H 0.07805 0.85174 0.32853 0.0
H1038 H 1.02684 0.9059 0.32818 0.0
C1039 C 0.80675 0.87126 0.32715 0.0
C1040 C 0.56483 0.60264 0.57617 0.0
C1041 C 0.63371 0.57885 0.57715 0.0
H1042 H 0.53754 0.65165 0.57621 0.0
C1043 C 0.7313 0.58701 0.57757 0.0
H1044 H 0.48904 0.59721 0.57583 0.0
C1045 C 0.7592 0.61831 0.57762 0.0
C1046 C 0.69001 0.64207 0.57748 0.0
H1047 H 0.78622 0.56924 0.57825 0.0
H1048 H 0.83481 0.62383 0.57843 0.0
C1049 C 0.59264 0.63389 0.57645 0.0
C1050 C 0.58982 0.58671 0.71563 0.0
C1051 C 0.6874 0.57865 0.7153 0.0
H1052 H 0.48611 0.62338 0.7158 0.0
C1053 C 0.75645 0.60247 0.71594 0.0
H1054 H 0.53486 0.5689 0.71524 0.0
C1055 C 0.72853 0.63372 0.71608 0.0
C1056 C 0.63098 0.6418 0.71583 0.0
H1057 H 0.83225 0.59707 0.71569 0.0
H1058 H 0.78351 0.65154 0.71603 0.0
C1059 C 0.5619 0.61796 0.71602 0.0
C1060 C 0.50572 0.36822 0.46553 0.0
C1061 C 0.43656 0.39199 0.46492 0.0
H1062 H 0.533 0.31917 0.46562 0.0
C1063 C 0.33903 0.38383 0.46527 0.0
H1064 H 0.58149 0.37368 0.46527 0.0
C1065 C 0.31126 0.35256 0.46566 0.0
C1066 C 0.38043 0.32876 0.46547 0.0
H1067 H 0.28398 0.40159 0.46491 0.0
H1068 H 0.23549 0.34707 0.46547 0.0
C1069 C 0.47794 0.33694 0.46568 0.0
C1070 C 0.33684 0.34031 0.32806 0.0
C1071 C 0.43465 0.33267 0.32884 0.0
H1072 H 0.2319 0.37656 0.3274 0.0
C1073 C 0.50298 0.35669 0.32847 0.0
H1074 H 0.28246 0.3223 0.3282 0.0
C1075 C 0.474 0.38778 0.32812 0.0
C1076 C 0.37614 0.39546 0.32794 0.0
H1077 H 0.57891 0.35157 0.32902 0.0
H1078 H 0.52837 0.40579 0.32837 0.0
C1079 C 0.30787 0.37141 0.32751 0.0
C1080 C 0.72237 0.08688 0.07721 0.0
C1081 C 0.62449 0.07917 0.07753 0.0
H1082 H 0.82752 0.12313 0.07751 0.0
C1083 C 0.55633 0.10324 0.07725 0.0
H1084 H 0.77666 0.06886 0.0773 0.0
C1085 C 0.58549 0.13438 0.07756 0.0
C1086 C 0.6834 0.14207 0.07789 0.0
H1087 H 0.48035 0.09809 0.07751 0.0
H1088 H 0.53122 0.15239 0.07792 0.0
C1089 C 0.75152 0.11801 0.07727 0.0
C1090 C 0.7156 0.13404 0.21579 0.0
C1091 C 0.61786 0.1419 0.21554 0.0
H1092 H 0.82007 0.0976 0.21568 0.0
C1093 C 0.5493 0.11793 0.21609 0.0
H1094 H 0.77021 0.15197 0.21547 0.0
C1095 C 0.57787 0.08674 0.21603 0.0
C1096 C 0.6756 0.07887 0.21566 0.0
H1097 H 0.47339 0.12317 0.2159 0.0
H1098 H 0.52325 0.06881 0.2159 0.0
C1099 C 0.74419 0.10285 0.21597 0.0
C1100 C 0.47416 0.83777 0.96285 0.0
C1101 C 0.37598 0.83048 0.96278 0.0
H1102 H 0.58051 0.87361 0.96251 0.0
C1103 C 0.30858 0.85474 0.96311 0.0
H1104 H 0.52789 0.81957 0.96268 0.0
C1105 C 0.33875 0.88569 0.9629 0.0
C1106 C 0.43691 0.89298 0.96252 0.0
H1107 H 0.2324 0.84987 0.96305 0.0
H1108 H 0.285 0.90388 0.96279 0.0
C1109 C 0.50436 0.86874 0.9628 0.0
C1110 C 0.33533 0.83499 0.82956 0.0
C1111 C 0.43321 0.82732 0.82929 0.0
H1112 H 0.23029 0.87119 0.83025 0.0
C1113 C 0.50132 0.85141 0.82864 0.0
H1114 H 0.28103 0.81697 0.82999 0.0
C1115 C 0.47223 0.88253 0.82896 0.0
C1116 C 0.37441 0.89019 0.82972 0.0
H1117 H 0.57731 0.84629 0.82846 0.0
H1118 H 0.52655 0.90057 0.82888 0.0
C1119 C 0.30623 0.8661 0.82968 0.0
C1120 C 0.58966 0.50565 0.10034 0.0
C1121 C 0.64421 0.49135 0.08782 0.0
H1122 H 0.45185 0.5097 0.11198 0.0
C1123 C 0.6014 0.46845 0.07783 0.0
H1124 H 0.6214 0.52308 0.10836 0.0
C1125 C 0.50549 0.46016 0.08021 0.0
C1126 C 0.45023 0.47493 0.09248 0.0
H1127 H 0.64231 0.45667 0.06827 0.0
H1128 H 0.47391 0.44283 0.07211 0.0
C1129 C 0.49319 0.4977 0.10256 0.0
C1130 C 0.71109 0.7518 0.07902 0.0
C1131 C 0.66806 0.72908 0.08911 0.0
H1132 H 0.83873 0.77728 0.0732 0.0
C1133 C 0.72247 0.71494 0.10169 0.0
H1134 H 0.67032 0.76347 0.06942 0.0
C1135 C 0.81905 0.72284 0.10385 0.0
C1136 C 0.8622 0.74544 0.09368 0.0
H1137 H 0.69056 0.69765 0.10977 0.0
H1138 H 0.8603 0.71095 0.11332 0.0
C1139 C 0.80704 0.76007 0.08137 0.0
C1140 C 0.59111 0.7518 0.21336 0.0
C1141 C 0.6341 0.72902 0.2033 0.0
H1142 H 0.46365 0.7774 0.2191 0.0
C1143 C 0.57969 0.71491 0.1907 0.0
H1144 H 0.63185 0.76346 0.22297 0.0
C1145 C 0.48321 0.72289 0.18848 0.0
C1146 C 0.44011 0.74555 0.19861 0.0
H1147 H 0.61153 0.69757 0.18264 0.0
H1148 H 0.442 0.71101 0.179 0.0
C1149 C 0.49527 0.76015 0.21095 0.0
C1150 C 0.81082 0.49763 0.18975 0.0
C1151 C 0.85372 0.47505 0.19994 0.0
H1152 H 0.68268 0.5229 0.18383 0.0
C1153 C 0.79842 0.46049 0.21228 0.0
H1154 H 0.8522 0.50946 0.18027 0.0
C1155 C 0.70254 0.46882 0.21463 0.0
C1156 C 0.6598 0.49154 0.20452 0.0
H1157 H 0.82994 0.4433 0.22046 0.0
H1158 H 0.6616 0.45721 0.22424 0.0
C1159 C 0.71438 0.50561 0.19193 0.0
C1160 C 0.5646 0.47461 0.93939 0.0
C1161 C 0.60734 0.49776 0.94925 0.0
H1162 H 0.43668 0.44885 0.93386 0.0
C1163 C 0.55195 0.51288 0.96138 0.0
H1164 H 0.60605 0.46234 0.93008 0.0
C1165 C 0.45616 0.50454 0.96386 0.0
C1166 C 0.4136 0.48124 0.9541 0.0
H1167 H 0.58334 0.53053 0.96931 0.0
H1168 H 0.41516 0.5166 0.9733 0.0
C1169 C 0.46825 0.4666 0.9417 0.0
C1170 C 0.33823 0.25299 0.94304 0.0
C1171 C 0.39189 0.2445 0.95708 0.0
H1172 H 0.20067 0.25265 0.93112 0.0
C1173 C 0.34656 0.22819 0.97 0.0
H1174 H 0.37169 0.2653 0.93282 0.0
C1175 C 0.24938 0.2205 0.9689 0.0
C1176 C 0.19553 0.2291 0.9549 0.0
H1177 H 0.38644 0.22104 0.98089 0.0
H1178 H 0.21613 0.20817 0.97913 0.0
C1179 C 0.24076 0.24546 0.94198 0.0
C1180 C 0.56708 0.24744 0.85416 0.0
C1181 C 0.60989 0.22457 0.84412 0.0
H1182 H 0.43895 0.27289 0.85994 0.0
C1183 C 0.55445 0.20965 0.83194 0.0
H1184 H 0.60857 0.25956 0.86352 0.0
C1185 C 0.45857 0.2179 0.82958 0.0
C1186 C 0.41592 0.24092 0.83951 0.0
H1187 H 0.58587 0.19222 0.82388 0.0
H1188 H 0.41757 0.20601 0.82008 0.0
C1189 C 0.47059 0.25536 0.85197 0.0
C1190 C 0.24452 0.47169 0.85267 0.0
C1191 C 0.20166 0.49477 0.8428 0.0
H1192 H 0.37255 0.44604 0.85821 0.0
C1193 C 0.25695 0.50984 0.83064 0.0
H1194 H 0.20317 0.45945 0.86201 0.0
C1195 C 0.35273 0.50155 0.82815 0.0
C1196 C 0.39543 0.47833 0.83793 0.0
H1197 H 0.22547 0.52743 0.8227 0.0
H1198 H 0.39364 0.51358 0.81868 0.0
C1199 C 0.34088 0.46372 0.85035 0.0
C1200 C 0.50468 0.9609 0.58061 0.0
C1201 C 0.44951 0.97453 0.59326 0.0
H1202 H 0.64139 0.95847 0.56857 0.0
C1203 C 0.49262 -0.00371 0.60394 0.0
H1204 H 0.473 0.94436 0.57206 0.0
C1205 C 0.58917 0.00437 0.60193 0.0
C1206 C 0.64358 -0.00874 0.58903 0.0
H1207 H 0.45136 0.00741 0.61367 0.0
H1208 H 0.62107 0.021 0.6104 0.0
C1209 C 0.6006 0.96936 0.57844 0.0
C1210 C 0.72329 0.21557 0.60215 0.0
C1211 C 0.66902 0.22948 0.58949 0.0
H1212 H 0.8608 0.21191 0.61392 0.0
C1213 C 0.71203 0.25215 0.57937 0.0
H1214 H 0.6914 0.19832 0.61027 0.0
C1215 C 0.80781 0.26058 0.58176 0.0
C1216 C 0.86283 0.24618 0.59418 0.0
H1217 H 0.67135 0.26366 0.5697 0.0
H1218 H 0.83951 0.27774 0.57357 0.0
C1219 C 0.81968 0.22364 0.60438 0.0
C1220 C 0.59272 0.21516 0.69274 0.0
C1221 C 0.64714 0.22919 0.70536 0.0
H1222 H 0.45517 0.21144 0.68099 0.0
C1223 C 0.60433 0.25197 0.71543 0.0
H1224 H 0.62445 0.19782 0.68466 0.0
C1225 C 0.50859 0.26041 0.71302 0.0
C1226 C 0.45344 0.24591 0.70065 0.0
H1227 H 0.64514 0.26357 0.72506 0.0
H1228 H 0.47702 0.27765 0.72118 0.0
C1229 C 0.4964 0.22325 0.6905 0.0
C1230 C 0.8259 -0.00184 0.68891 0.0
C1231 C 0.86887 0.97549 0.69904 0.0
H1232 H 0.69764 0.02346 0.68304 0.0
C1233 C 0.8135 0.96086 0.71135 0.0
H1234 H 0.86728 0.01006 0.67945 0.0
C1235 C 0.71759 0.96917 0.71372 0.0
C1236 C 0.67473 -0.00804 0.70367 0.0
H1237 H 0.845 0.9436 0.71949 0.0
H1238 H 0.67669 0.95749 0.72331 0.0
C1239 C 0.72936 0.00611 0.6911 0.0
C1240 C 0.57273 0.9641 0.44952 0.0
C1241 C 0.61044 -0.00576 0.4474 0.0
H1242 H 0.44651 0.93623 0.45311 0.0
C1243 C 0.54802 0.0197 0.44658 0.0
H1244 H 0.6198 0.94411 0.45042 0.0
C1245 C 0.4491 0.01501 0.4477 0.0
C1246 C 0.41165 0.98498 0.45028 0.0
H1247 H 0.57565 0.04311 0.44511 0.0
H1248 H 0.40193 0.03499 0.44693 0.0
C1249 C 0.47404 0.95956 0.45123 0.0
C1250 C 0.33959 0.75589 0.44101 0.0
C1251 C 0.39389 0.74222 0.45376 0.0
H1252 H 0.20203 0.75931 0.42925 0.0
C1253 C 0.35092 0.71976 0.46401 0.0
H1254 H 0.37146 0.77296 0.43279 0.0
C1255 C 0.25513 0.71129 0.46168 0.0
C1256 C 0.20009 0.72545 0.44919 0.0
H1257 H 0.39163 0.70845 0.47374 0.0
H1258 H 0.22345 0.69431 0.46998 0.0
C1259 C 0.2432 0.74778 0.43885 0.0
C1260 C 0.46837 0.75348 0.35001 0.0
C1261 C 0.41479 0.74497 0.33595 0.0
H1262 H 0.60573 0.75307 0.362 0.0
C1263 C 0.46015 0.7285 0.3231 0.0
H1264 H 0.43492 0.76591 0.36019 0.0
C1265 C 0.55722 0.72069 0.32427 0.0
C1266 C 0.61099 0.72934 0.33828 0.0
H1267 H 0.42036 0.72131 0.3122 0.0
H1268 H 0.59046 0.70824 0.31408 0.0
C1269 C 0.56573 0.74584 0.35114 0.0
C1270 C 0.23854 0.97617 0.35324 0.0
C1271 C 0.19578 -0.00106 0.34315 0.0
H1272 H 0.36638 0.95061 0.35899 0.0
C1273 C 0.25103 0.0135 0.3308 0.0
H1274 H 0.1972 0.96432 0.36272 0.0
C1275 C 0.34671 0.00502 0.32836 0.0
C1276 C 0.38931 0.98212 0.33837 0.0
H1277 H 0.2196 0.03083 0.32269 0.0
H1278 H 0.38762 0.01666 0.31875 0.0
C1279 C 0.33479 0.96803 0.35096 0.0
C1280 C 0.09471 0.50571 0.60046 0.0
C1281 C 0.14919 0.49158 0.58787 0.0
H1282 H 0.95707 0.50952 0.61219 0.0
C1283 C 0.10638 0.46871 0.57786 0.0
H1284 H 0.12644 0.52312 0.6085 0.0
C1285 C 1.01058 0.46029 0.58028 0.0
C1286 C 0.95538 0.4749 0.59262 0.0
H1287 H 0.14722 0.45704 0.56825 0.0
H1288 H 0.97903 0.44299 0.57216 0.0
C1289 C 0.99834 0.49764 0.60272 0.0
C1290 C 0.32337 0.71327 0.59283 0.0
C1291 C 0.36149 0.74332 0.59508 0.0
H1292 H 0.19674 0.68565 0.58918 0.0
C1293 C 0.29944 0.76885 0.59609 0.0
H1294 H 0.37016 0.69324 0.59179 0.0
C1295 C 0.20045 0.76434 0.59501 0.0
C1296 C 0.16259 0.73441 0.59229 0.0
H1297 H 0.32741 0.7922 0.59767 0.0
H1298 H 0.15356 0.78437 0.59592 0.0
C1299 C 0.2246 0.70891 0.59116 0.0
C1300 C 1.01028 0.7607 0.71288 0.0
C1301 C 0.95515 0.7459 0.70061 0.0
H1302 H 0.14694 0.76423 0.72485 0.0
C1303 C 0.99818 0.72313 0.69055 0.0
H1304 H 0.97865 0.77805 0.72097 0.0
C1305 C 0.09459 0.71519 0.69279 0.0
C1306 C 0.14899 0.72951 0.70532 0.0
H1307 H 0.95694 0.71111 0.68112 0.0
H1308 H 0.1264 0.69775 0.68478 0.0
C1309 C 0.10613 0.75243 0.71529 0.0
C1310 C 0.21255 0.46831 0.71368 0.0
C1311 C 0.16974 0.49125 0.70373 0.0
H1312 H 0.33994 0.44265 0.71933 0.0
C1313 C 0.22425 0.50558 0.69121 0.0
H1314 H 0.17168 0.45648 0.72323 0.0
C1315 C 0.32071 0.49765 0.68896 0.0
C1316 C 0.36368 0.47484 0.699 0.0
H1317 H 0.1925 0.52305 0.68322 0.0
H1318 H 0.36204 0.50968 0.67955 0.0
C1319 C 0.3084 0.46002 0.71126 0.0
C1320 C 0.97291 0.46561 0.44111 0.0
C1321 C 0.91843 0.47971 0.4537 0.0
H1322 H 0.11078 0.46168 0.42947 0.0
C1323 C 0.96129 0.50243 0.4638 0.0
H1324 H 0.9411 0.44832 0.43301 0.0
C1325 C 0.05721 0.51072 0.46147 0.0
C1326 C 0.11246 0.49612 0.44914 0.0
H1327 H 0.92042 0.51407 0.47341 0.0
H1328 H 0.08881 0.52791 0.46965 0.0
C1329 C 0.06944 0.47354 0.43895 0.0
C1330 C 0.84429 0.25442 0.44237 0.0
C1331 C 0.89856 0.24075 0.45511 0.0
H1332 H 0.70667 0.25793 0.43064 0.0
C1333 C 0.8555 0.21835 0.4654 0.0
H1334 H 0.87624 0.27145 0.43413 0.0
C1335 C 0.75962 0.20996 0.46309 0.0
C1336 C 0.7046 0.22414 0.45061 0.0
H1337 H 0.89618 0.20704 0.47513 0.0
H1338 H 0.72787 0.19303 0.47141 0.0
C1339 C 0.74781 0.24639 0.44023 0.0
C1340 C 0.05658 0.21986 0.32529 0.0
C1341 C 0.11067 0.22941 0.3391 0.0
H1342 H 0.91938 0.21962 0.31334 0.0
C1343 C 0.06566 0.24666 0.3517 0.0
H1344 H 0.08962 0.2068 0.31531 0.0
C1345 C 0.96821 0.25416 0.35052 0.0
C1346 C 0.91432 0.24474 0.33666 0.0
H1347 H 0.10591 0.2546 0.3624 0.0
H1348 H 0.93496 0.2672 0.3605 0.0
C1349 C 0.95942 0.22751 0.32407 0.0
C1350 C 0.83695 0.4684 0.35105 0.0
C1351 C 0.89152 0.48234 0.33841 0.0
H1352 H 0.69928 0.46479 0.36279 0.0
C1353 C 0.84888 0.50507 0.3283 0.0
H1354 H 0.86857 0.45112 0.35916 0.0
C1355 C 0.75314 0.51354 0.33068 0.0
C1356 C 0.69787 0.49912 0.34307 0.0
H1357 H 0.88981 0.51659 0.31865 0.0
H1358 H 0.7217 0.53073 0.32249 0.0
C1359 C 0.74064 0.47653 0.35327 0.0
C1360 C 1.00138 0.96071 0.08091 0.0
C1361 C 0.94613 0.97557 0.09315 0.0
H1362 H 0.1382 0.95709 0.06897 0.0
C1363 C 0.98919 -0.0016 0.10318 0.0
H1364 H 0.96977 0.94332 0.07285 0.0
C1365 C 0.08574 0.0063 0.10095 0.0
C1366 C 0.14028 -0.00809 0.08845 0.0
H1367 H 0.9479 0.01048 0.11258 0.0
H1368 H 0.11755 0.02378 0.10893 0.0
C1369 C 0.09734 0.96896 0.07851 0.0
C1370 C 0.21119 0.25168 0.07965 0.0
C1371 C 0.16819 0.22895 0.08974 0.0
H1372 H 0.33871 0.27725 0.07385 0.0
C1373 C 0.22263 0.2149 0.10235 0.0
H1374 H 0.17043 0.26329 0.07003 0.0
C1375 C 0.31915 0.22289 0.10454 0.0
C1376 C 0.36227 0.2455 0.09436 0.0
H1377 H 0.19077 0.19761 0.11044 0.0
H1378 H 0.36039 0.21106 0.11402 0.0
C1379 C 0.30708 0.26004 0.08202 0.0
C1380 C 0.9954 0.26013 0.2116 0.0
C1381 C 0.94017 0.24543 0.1993 0.0
H1382 H 0.13207 0.26356 0.22357 0.0
C1383 C 0.98325 0.22271 0.1892 0.0
H1384 H 0.96379 0.27742 0.21972 0.0
C1385 C 0.07977 0.21478 0.19141 0.0
C1386 C 0.13424 0.22899 0.20397 0.0
H1387 H 0.94199 0.21076 0.17975 0.0
H1388 H 0.11159 0.1974 0.18337 0.0
C1389 C 0.09128 0.25183 0.21399 0.0
C1390 C 0.29737 0.96033 0.21234 0.0
C1391 C 0.35266 0.975 0.20003 0.0
H1392 H 0.16058 0.95695 0.2243 0.0
C1393 C 0.3098 -0.0023 0.18992 0.0
H1394 H 0.32887 0.94305 0.22046 0.0
C1395 C 0.21338 0.00569 0.19213 0.0
C1396 C 0.15881 -0.0085 0.20469 0.0
H1397 H 0.35117 0.00963 0.18047 0.0
H1398 H 0.1817 0.02307 0.18409 0.0
C1399 C 0.20152 0.96866 0.21472 0.0
C1400 C 0.97234 0.97342 0.9416 0.0
C1401 C 0.91882 0.98055 0.95589 0.0
H1402 H 0.10966 0.97501 0.9296 0.0
C1403 C 0.96426 -0.0043 0.96919 0.0
H1404 H 0.93882 0.96204 0.93109 0.0
C1405 C 0.06137 0.0036 0.96821 0.0
C1406 C 0.11505 -0.00365 0.95396 0.0
H1407 H 0.92451 0.00181 0.98028 0.0
H1408 H 0.0947 0.01501 0.97873 0.0
C1409 C 0.06972 0.98115 0.94066 0.0
C1410 C 0.84035 0.74872 0.94183 0.0
C1411 C 0.89295 0.74307 0.9564 0.0
H1412 H 0.70387 0.74581 0.92963 0.0
C1413 C 0.84672 0.7292 0.97001 0.0
H1414 H 0.8745 0.75907 0.93108 0.0
C1415 C 0.74974 0.7211 0.96907 0.0
C1416 C 0.69696 0.72689 0.95454 0.0
H1417 H 0.88575 0.72424 0.98133 0.0
H1418 H 0.71577 0.71072 0.97983 0.0
C1419 C 0.74308 0.74082 0.94093 0.0
C1420 C 0.05677 0.70909 0.83138 0.0
C1421 C 0.11174 0.72312 0.84393 0.0
H1422 H 0.92044 0.70644 0.81923 0.0
C1423 C 0.06871 0.74541 0.85429 0.0
H1424 H 0.08842 0.69214 0.82306 0.0
C1425 C 0.97246 0.75361 0.85209 0.0
C1426 C 0.91823 0.74008 0.83929 0.0
H1427 H 0.10982 0.75685 0.86394 0.0
H1428 H 0.94063 0.77066 0.86033 0.0
C1429 C 0.96112 0.71766 0.829 0.0
C1430 C 0.7431 0.9784 0.85185 0.0
C1431 C 0.69782 -0.00593 0.83871 0.0
H1432 H 0.87396 0.95898 0.86124 0.0
C1433 C 0.75164 0.00185 0.82455 0.0
H1434 H 0.70308 0.97185 0.86285 0.0
C1435 C 0.84875 -0.006 0.82351 0.0
C1436 C 0.89411 0.97837 0.83664 0.0
H1437 H 0.7184 0.01363 0.81416 0.0
H1438 H 0.88855 0.00051 0.81249 0.0
C1439 C 0.84051 0.97074 0.85086 0.0
C1440 C 0.11814 0.4738 0.0243 0.0
C1441 C 0.05701 0.48217 0.03752 0.0
H1442 H 0.13849 0.47167 0.99788 0.0
C1443 C 0.96774 0.49536 0.03398 0.0
H1444 H 0.18778 0.46363 0.0267 0.0
C1445 C 0.94008 0.50005 1.01748 0.0
C1446 C 1.00117 0.49165 1.00426 0.0
H1447 H 0.91969 0.50215 0.04391 0.0
H1448 H 0.87042 0.51021 1.01508 0.0
C1449 C 0.09046 0.47848 1.00781 0.0
C1450 C 0.22079 0.75021 1.00921 0.0
C1451 C 0.28723 0.72746 1.00451 0.0
H1452 H 0.14941 0.77316 0.02922 0.0
C1453 C 0.33718 0.71097 1.01693 0.0
H1454 H 0.18196 0.76339 0.99992 0.0
C1455 C 0.32025 0.71706 0.03379 0.0
C1456 C 0.25201 0.73933 0.0384 0.0
H1457 H 0.38965 0.69345 1.01365 0.0
H1458 H 0.358 0.70372 0.04314 0.0
C1459 C 0.20287 0.75591 0.02597 0.0
C1460 C 0.96842 0.71186 0.27572 0.0
C1461 C 1.01894 0.72862 0.28799 0.0
H1462 H 0.94627 0.70413 0.24958 0.0
C1463 C 0.08503 0.75133 0.28308 0.0
H1464 H 0.91621 0.69434 0.27918 0.0
C1465 C 0.10196 0.75677 0.26626 0.0
C1466 C 0.05225 0.73993 0.25399 0.0
H1467 H 0.12428 0.76472 0.29224 0.0
H1468 H 0.15513 0.77402 0.26286 0.0
C1469 C 0.98441 0.71766 0.25881 0.0
C1470 C 0.18621 0.47428 0.26816 0.0
C1471 C 0.2473 0.48256 0.25491 0.0
H1472 H 0.16615 0.47221 0.2946 0.0
C1473 C 0.33687 0.49561 0.25843 0.0
H1474 H 0.11635 0.46421 0.26579 0.0
C1475 C 0.36483 0.50026 0.27491 0.0
C1476 C 0.30376 0.49197 0.28816 0.0
H1477 H 0.38492 0.50232 0.24848 0.0
H1478 H 0.4347 0.51033 0.27728 0.0
C1479 C 0.21419 0.47893 0.28465 0.0
C1480 C 0.71879 0.2506 1.00986 0.0
C1481 C 0.78547 0.22801 1.00505 0.0
H1482 H 0.64771 0.2733 0.02998 0.0
C1483 C 0.83588 0.21145 1.0174 0.0
H1484 H 0.6796 0.26384 1.00064 0.0
C1485 C 0.81927 0.21735 0.03429 0.0
C1486 C 0.75094 0.23952 0.03901 0.0
H1487 H 0.88853 0.19404 1.01402 0.0
H1488 H 0.85743 0.20399 0.04357 0.0
C1489 C 0.70126 0.25613 0.02665 0.0
C1490 C 0.94265 0.22216 0.77579 0.0
C1491 C 1.0039 0.23071 0.78896 0.0
H1492 H 0.92239 0.21947 0.74938 0.0
C1493 C 0.0936 0.24354 0.78533 0.0
H1494 H 0.87268 0.21224 0.77825 0.0
C1495 C 0.12152 0.24774 0.7688 0.0
C1496 C 0.06024 0.23921 0.75564 0.0
H1497 H 0.14176 0.25045 0.79522 0.0
H1498 H 0.19148 0.25768 0.76634 0.0
C1499 C 0.97057 0.22635 0.75927 0.0
C1500 C 0.72043 0.47632 0.78387 0.0
C1501 C 0.81024 0.4889 0.78763 0.0
H1502 H 0.62303 0.46269 0.76472 0.0
C1503 C 0.87226 0.49748 0.77457 0.0
H1504 H 0.67169 0.46941 0.79367 0.0
C1505 C 0.84494 0.49358 0.758 0.0
C1506 C 0.75513 0.48101 0.75424 0.0
H1507 H 0.94233 0.50721 0.77715 0.0
H1508 H 0.89369 0.50049 0.74819 0.0
C1509 C 0.69311 0.47242 0.7673 0.0
C1510 C 0.96436 -0.00516 0.53465 0.0
C1511 C 0.0555 0.98309 0.53823 0.0
H1512 H 0.86484 0.00776 0.51565 0.0
C1513 C 0.1177 0.97542 0.52505 0.0
H1514 H 0.91541 0.00102 0.54456 0.0
C1515 C 0.08932 0.97933 0.50856 0.0
C1516 C 0.99816 -0.00901 0.50495 0.0
H1517 H 0.18874 0.96634 0.52747 0.0
H1518 H 0.13838 0.9731 0.49866 0.0
C1519 C 0.9359 -0.00126 0.51812 0.0
C1520 C 0.22176 0.24414 0.50941 0.0
C1521 C 0.31209 0.23187 0.50574 0.0
H1522 H 0.12327 0.25752 0.52846 0.0
C1523 C 0.37387 0.22358 0.51887 0.0
H1524 H 0.17315 0.25081 0.49955 0.0
C1525 C 0.34581 0.22744 0.53541 0.0
C1526 C 0.2555 0.23971 0.53908 0.0
H1527 H 0.44431 0.21407 0.51638 0.0
H1528 H 0.39441 0.22075 0.54527 0.0
C1529 C 0.19372 0.24803 0.52596 0.0
C1530 C 0.34062 0.00994 0.77603 0.0
C1531 C 0.2901 -0.00664 0.78837 0.0
H1532 H 0.3627 0.01735 0.74986 0.0
C1533 C 0.22398 0.97058 0.78356 0.0
H1534 H 0.39283 0.0275 0.7794 0.0
C1535 C 0.20694 0.96496 0.76676 0.0
C1536 C 0.25662 0.98164 0.75441 0.0
H1537 H 0.18472 0.95733 0.79278 0.0
H1538 H 0.1537 0.94768 0.76342 0.0
C1539 C 0.32455 0.00394 0.75914 0.0
C1540 C 0.71558 0.74486 0.50791 0.0
C1541 C 0.80633 0.73284 0.50425 0.0
H1542 H 0.61668 0.75802 0.52698 0.0
C1543 C 0.86849 0.72496 0.51738 0.0
H1544 H 0.66667 0.75122 0.49804 0.0
C1545 C 0.84048 0.72894 0.5339 0.0
C1546 C 0.74969 0.74085 0.53759 0.0
H1547 H 0.93925 0.71569 0.51491 0.0
H1548 H 0.8895 0.72254 0.54375 0.0
C1549 C 0.68746 0.7488 0.52446 0.0
C1550 C 0.68509 0.97386 0.26822 0.0
C1551 C 0.74616 0.9822 0.25499 0.0
H1552 H 0.66489 0.97185 0.29465 0.0
C1553 C 0.83549 -0.00459 0.2585 0.0
H1554 H 0.6154 0.96367 0.26585 0.0
C1555 C 0.86326 0.00017 0.27498 0.0
C1556 C 0.8022 -0.00817 0.28822 0.0
H1557 H 0.88348 0.00217 0.24855 0.0
H1558 H 0.93295 0.01036 0.27735 0.0
C1559 C 0.71288 0.97861 0.28471 0.0
C1560 C 0.62368 0.47274 0.52444 0.0
C1561 C 0.56227 0.48121 0.53761 0.0
H1562 H 0.64388 0.46991 0.49803 0.0
C1563 C 0.47225 0.49375 0.53399 0.0
H1564 H 0.69388 0.46304 0.5269 0.0
C1565 C 0.44414 0.49773 0.51747 0.0
C1566 C 0.50555 0.48927 0.5043 0.0
H1567 H 0.42395 0.50057 0.54388 0.0
H1568 H 0.37392 0.50743 0.51501 0.0
C1569 C 0.59557 0.47673 0.50792 0.0
C1570 C 0.44356 0.72244 0.77574 0.0
C1571 C 0.50495 0.73075 0.78892 0.0
H1572 H 0.42345 0.7199 0.74932 0.0
C1573 C 0.595 0.74337 0.78533 0.0
H1574 H 0.37332 0.71269 0.77817 0.0
C1575 C 0.62318 0.74755 0.76882 0.0
C1576 C 0.5618 0.73921 0.75563 0.0
H1577 H 0.64329 0.75007 0.79524 0.0
H1578 H 0.69343 0.75728 0.76638 0.0
C1579 C 0.47173 0.72662 0.75922 0.0
C1580 C 0.58473 0.25134 0.28378 0.0
C1581 C 0.5183 0.22873 0.28869 0.0
H1582 H 0.65533 0.27387 0.26356 0.0
C1583 C 0.46763 0.21202 0.27642 0.0
H1584 H 0.62412 0.26468 0.29294 0.0
C1585 C 0.48384 0.21776 0.25951 0.0
C1586 C 0.55204 0.23991 0.25468 0.0
H1587 H 0.41516 0.19459 0.27987 0.0
H1588 H 0.44557 0.20426 0.25028 0.0
C1589 C 0.60188 0.2567 0.26696 0.0
C1590 C 0.60846 0.96639 0.02539 0.0
C1591 C 0.55842 0.98253 0.0379 0.0
H1592 H 0.63069 0.95962 0.99931 0.0
C1593 C 0.4901 0.00483 0.03337 0.0
H1594 H 0.66203 0.94914 0.02857 0.0
C1595 C 0.47387 0.01133 1.01654 0.0
C1596 C 0.5246 -0.00475 1.00403 0.0
H1597 H 0.45164 0.01784 0.04277 0.0
H1598 H 0.42125 0.02885 1.01332 0.0
C1599 C 0.59123 0.9725 1.00864 0.0
loop_
_geom_bond_atom_site_label_1
_geom_bond_atom_site_label_2
_geom_bond_distance
_geom_bond_site_symmetry_2
_ccdc_geom_bond_type
Dy0 O4 2.398 . S
Dy0 O5 2.491 . S
Dy0 O6 2.403 . S
Dy0 O7 2.664 1_655 S
Dy0 O11 2.326 . S
Dy0 O15 2.310 . S
Dy0 O16 2.351 1_655 S
C1 O12 1.185 . S
C1 O13 1.355 . S
C2 O4 1.185 . S
C2 O5 1.355 . S
Dy3 O7 2.310 . S
Dy3 O10 2.351 . S
Dy3 O12 2.398 . S
Dy3 O13 2.491 . S
Dy3 O14 2.403 . S
Dy3 O15 2.664 1_455 S
Dy3 O17 2.326 . S
O4 Dy0 2.398 . S
O4 C2 1.185 . S
O5 Dy0 2.491 . S
O5 C2 1.355 . S
O6 Dy0 2.403 . S
O6 C8 1.254 1_655 S
O7 Dy0 2.664 1_455 S
O7 Dy3 2.310 . S
O7 C8 1.268 . S
C8 O6 1.254 1_455 S
C8 O7 1.268 . S
C9 O14 1.254 . S
C9 O15 1.268 1_455 S
O10 Dy3 2.351 . S
O10 C18 1.249 1_455 S
O11 Dy0 2.326 . S
O11 C18 1.267 . S
O12 C1 1.185 . S
O12 Dy3 2.398 . S
O13 C1 1.355 . S
O13 Dy3 2.491 . S
O14 Dy3 2.403 . S
O14 C9 1.254 . S
O15 Dy0 2.310 . S
O15 Dy3 2.664 1_655 S
O15 C9 1.268 1_655 S
O16 Dy0 2.351 1_455 S
O16 C19 1.249 . S
O17 Dy3 2.326 . S
O17 C19 1.267 . S
C18 O10 1.249 1_655 S
C18 O11 1.267 . S
C19 O16 1.249 . S
C19 O17 1.267 . S
Dy20 O24 2.398 . S
Dy20 O25 2.491 . S
Dy20 O26 2.403 . S
Dy20 O27 2.664 . S
Dy20 O31 2.326 . S
Dy20 O35 2.310 . S
Dy20 O36 2.351 . S
C21 O32 1.185 . S
C21 O33 1.355 . S
C22 O24 1.185 . S
C22 O25 1.355 . S
Dy23 O27 2.310 . S
Dy23 O30 2.351 . S
Dy23 O32 2.398 1_455 S
Dy23 O33 2.491 1_455 S
Dy23 O34 2.403 . S
Dy23 O35 2.664 . S
Dy23 O37 2.326 . S
O24 Dy20 2.398 . S
O24 C22 1.185 . S
O25 Dy20 2.491 . S
O25 C22 1.355 . S
O26 Dy20 2.403 . S
O26 C28 1.254 . S
O27 Dy20 2.664 . S
O27 Dy23 2.310 . S
O27 C28 1.268 . S
C28 O26 1.254 . S
C28 O27 1.268 . S
C29 O34 1.254 . S
C29 O35 1.268 . S
O30 Dy23 2.351 . S
O30 C38 1.249 . S
O31 Dy20 2.326 . S
O31 C38 1.267 . S
O32 C21 1.185 . S
O32 Dy23 2.398 1_655 S
O33 C21 1.355 . S
O33 Dy23 2.491 1_655 S
O34 Dy23 2.403 . S
O34 C29 1.254 . S
O35 Dy20 2.310 . S
O35 Dy23 2.664 . S
O35 C29 1.268 . S
O36 Dy20 2.351 . S
O36 C39 1.249 . S
O37 Dy23 2.326 . S
O37 C39 1.267 . S
C38 O30 1.249 . S
C38 O31 1.267 . S
C39 O36 1.249 . S
C39 O37 1.267 . S
Dy40 O44 2.398 . S
Dy40 O45 2.491 . S
Dy40 O46 2.403 . S
Dy40 O47 2.664 1_655 S
Dy40 O51 2.326 . S
Dy40 O55 2.310 . S
Dy40 O56 2.351 1_655 S
C41 O52 1.185 . S
C41 O53 1.355 . S
C42 O44 1.185 . S
C42 O45 1.355 . S
Dy43 O47 2.310 . S
Dy43 O50 2.351 . S
Dy43 O52 2.398 . S
Dy43 O53 2.491 . S
Dy43 O54 2.403 . S
Dy43 O55 2.664 1_455 S
Dy43 O57 2.326 . S
O44 Dy40 2.398 . S
O44 C42 1.185 . S
O45 Dy40 2.491 . S
O45 C42 1.355 . S
O46 Dy40 2.403 . S
O46 C48 1.254 1_655 S
O47 Dy40 2.664 1_455 S
O47 Dy43 2.310 . S
O47 C48 1.268 . S
C48 O46 1.254 1_455 S
C48 O47 1.268 . S
C49 O54 1.254 . S
C49 O55 1.268 1_455 S
O50 Dy43 2.351 . S
O50 C58 1.249 1_455 S
O51 Dy40 2.326 . S
O51 C58 1.267 . S
O52 C41 1.185 . S
O52 Dy43 2.398 . S
O53 C41 1.355 . S
O53 Dy43 2.491 . S
O54 Dy43 2.403 . S
O54 C49 1.254 . S
O55 Dy40 2.310 . S
O55 Dy43 2.664 1_655 S
O55 C49 1.268 1_655 S
O56 Dy40 2.351 1_455 S
O56 C59 1.249 . S
O57 Dy43 2.326 . S
O57 C59 1.267 . S
C58 O50 1.249 1_655 S
C58 O51 1.267 . S
C59 O56 1.249 . S
C59 O57 1.267 . S
Dy60 O64 2.398 . S
Dy60 O65 2.491 . S
Dy60 O66 2.403 . S
Dy60 O67 2.664 . S
Dy60 O71 2.326 . S
Dy60 O75 2.310 . S
Dy60 O76 2.351 . S
C61 O72 1.185 . S
C61 O73 1.355 . S
C62 O64 1.185 . S
C62 O65 1.355 . S
Dy63 O67 2.310 . S
Dy63 O70 2.351 . S
Dy63 O72 2.398 1_455 S
Dy63 O73 2.491 1_455 S
Dy63 O74 2.403 . S
Dy63 O75 2.664 . S
Dy63 O77 2.326 . S
O64 Dy60 2.398 . S
O64 C62 1.185 . S
O65 Dy60 2.491 . S
O65 C62 1.355 . S
O66 Dy60 2.403 . S
O66 C68 1.254 . S
O67 Dy60 2.664 . S
O67 Dy63 2.310 . S
O67 C68 1.268 . S
C68 O66 1.254 . S
C68 O67 1.268 . S
C69 O74 1.254 . S
C69 O75 1.268 . S
O70 Dy63 2.351 . S
O70 C78 1.249 . S
O71 Dy60 2.326 . S
O71 C78 1.267 . S
O72 C61 1.185 . S
O72 Dy63 2.398 1_655 S
O73 C61 1.355 . S
O73 Dy63 2.491 1_655 S
O74 Dy63 2.403 . S
O74 C69 1.254 . S
O75 Dy60 2.310 . S
O75 Dy63 2.664 . S
O75 C69 1.268 . S
O76 Dy60 2.351 . S
O76 C79 1.249 . S
O77 Dy63 2.326 . S
O77 C79 1.267 . S
C78 O70 1.249 . S
C78 O71 1.267 . S
C79 O76 1.249 . S
C79 O77 1.267 . S
Dy80 O84 2.398 . S
Dy80 O85 2.491 . S
Dy80 O86 2.403 . S
Dy80 O87 2.664 1_655 S
Dy80 O91 2.326 . S
Dy80 O95 2.310 . S
Dy80 O96 2.351 . S
C81 O92 1.185 . S
C81 O93 1.355 . S
C82 O84 1.185 . S
C82 O85 1.355 . S
Dy83 O87 2.310 . S
Dy83 O90 2.351 1_455 S
Dy83 O92 2.398 . S
Dy83 O93 2.491 . S
Dy83 O94 2.403 . S
Dy83 O95 2.664 1_455 S
Dy83 O97 2.326 . S
O84 Dy80 2.398 . S
O84 C82 1.185 . S
O85 Dy80 2.491 . S
O85 C82 1.355 . S
O86 Dy80 2.403 . S
O86 C88 1.254 . S
O87 Dy80 2.664 1_455 S
O87 Dy83 2.310 . S
O87 C88 1.268 1_455 S
C88 O86 1.254 . S
C88 O87 1.268 1_655 S
C89 O94 1.254 1_655 S
C89 O95 1.268 . S
O90 Dy83 2.351 1_655 S
O90 C98 1.249 . S
O91 Dy80 2.326 . S
O91 C98 1.267 . S
O92 C81 1.185 . S
O92 Dy83 2.398 . S
O93 C81 1.355 . S
O93 Dy83 2.491 . S
O94 Dy83 2.403 . S
O94 C89 1.254 1_455 S
O95 Dy80 2.310 . S
O95 Dy83 2.664 1_655 S
O95 C89 1.268 . S
O96 Dy80 2.351 . S
O96 C99 1.249 1_655 S
O97 Dy83 2.326 . S
O97 C99 1.267 . S
C98 O90 1.249 . S
C98 O91 1.267 . S
C99 O96 1.249 1_455 S
C99 O97 1.267 . S
Dy100 O104 2.398 1_655 S
Dy100 O105 2.491 1_655 S
Dy100 O106 2.403 . S
Dy100 O107 2.664 . S
Dy100 O111 2.326 . S
Dy100 O115 2.310 . S
Dy100 O116 2.351 . S
C101 O112 1.185 . S
C101 O113 1.355 . S
C102 O104 1.185 . S
C102 O105 1.355 . S
Dy103 O107 2.310 . S
Dy103 O110 2.351 . S
Dy103 O112 2.398 . S
Dy103 O113 2.491 . S
Dy103 O114 2.403 . S
Dy103 O115 2.664 . S
Dy103 O117 2.326 . S
O104 Dy100 2.398 1_455 S
O104 C102 1.185 . S
O105 Dy100 2.491 1_455 S
O105 C102 1.355 . S
O106 Dy100 2.403 . S
O106 C108 1.254 . S
O107 Dy100 2.664 . S
O107 Dy103 2.310 . S
O107 C108 1.268 . S
C108 O106 1.254 . S
C108 O107 1.268 . S
C109 O114 1.254 . S
C109 O115 1.268 . S
O110 Dy103 2.351 . S
O110 C118 1.249 . S
O111 Dy100 2.326 . S
O111 C118 1.267 . S
O112 C101 1.185 . S
O112 Dy103 2.398 . S
O113 C101 1.355 . S
O113 Dy103 2.491 . S
O114 Dy103 2.403 . S
O114 C109 1.254 . S
O115 Dy100 2.310 . S
O115 Dy103 2.664 . S
O115 C109 1.268 . S
O116 Dy100 2.351 . S
O116 C119 1.249 . S
O117 Dy103 2.326 . S
O117 C119 1.267 . S
C118 O110 1.249 . S
C118 O111 1.267 . S
C119 O116 1.249 . S
C119 O117 1.267 . S
Dy120 O124 2.398 . S
Dy120 O125 2.491 . S
Dy120 O126 2.403 . S
Dy120 O127 2.664 1_655 S
Dy120 O131 2.326 . S
Dy120 O135 2.310 . S
Dy120 O136 2.351 . S
C121 O132 1.185 . S
C121 O133 1.355 . S
C122 O124 1.185 . S
C122 O125 1.355 . S
Dy123 O127 2.310 . S
Dy123 O130 2.351 1_455 S
Dy123 O132 2.398 . S
Dy123 O133 2.491 . S
Dy123 O134 2.403 . S
Dy123 O135 2.664 1_455 S
Dy123 O137 2.326 . S
O124 Dy120 2.398 . S
O124 C122 1.185 . S
O125 Dy120 2.491 . S
O125 C122 1.355 . S
O126 Dy120 2.403 . S
O126 C128 1.254 . S
O127 Dy120 2.664 1_455 S
O127 Dy123 2.310 . S
O127 C128 1.268 1_455 S
C128 O126 1.254 . S
C128 O127 1.268 1_655 S
C129 O134 1.254 1_655 S
C129 O135 1.268 . S
O130 Dy123 2.351 1_655 S
O130 C138 1.249 . S
O131 Dy120 2.326 . S
O131 C138 1.267 . S
O132 C121 1.185 . S
O132 Dy123 2.398 . S
O133 C121 1.355 . S
O133 Dy123 2.491 . S
O134 Dy123 2.403 . S
O134 C129 1.254 1_455 S
O135 Dy120 2.310 . S
O135 Dy123 2.664 1_655 S
O135 C129 1.268 . S
O136 Dy120 2.351 . S
O136 C139 1.249 1_655 S
O137 Dy123 2.326 . S
O137 C139 1.267 . S
C138 O130 1.249 . S
C138 O131 1.267 . S
C139 O136 1.249 1_455 S
C139 O137 1.267 . S
Dy140 O144 2.398 1_655 S
Dy140 O145 2.491 1_655 S
Dy140 O146 2.403 . S
Dy140 O147 2.664 . S
Dy140 O151 2.326 . S
Dy140 O155 2.310 . S
Dy140 O156 2.351 . S
C141 O152 1.185 . S
C141 O153 1.355 . S
C142 O144 1.185 . S
C142 O145 1.355 . S
Dy143 O147 2.310 . S
Dy143 O150 2.351 . S
Dy143 O152 2.398 . S
Dy143 O153 2.491 . S
Dy143 O154 2.403 . S
Dy143 O155 2.664 . S
Dy143 O157 2.326 . S
O144 Dy140 2.398 1_455 S
O144 C142 1.185 . S
O145 Dy140 2.491 1_455 S
O145 C142 1.355 . S
O146 Dy140 2.403 . S
O146 C148 1.254 . S
O147 Dy140 2.664 . S
O147 Dy143 2.310 . S
O147 C148 1.268 . S
C148 O146 1.254 . S
C148 O147 1.268 . S
C149 O154 1.254 . S
C149 O155 1.268 . S
O150 Dy143 2.351 . S
O150 C158 1.249 . S
O151 Dy140 2.326 . S
O151 C158 1.267 . S
O152 C141 1.185 . S
O152 Dy143 2.398 . S
O153 C141 1.355 . S
O153 Dy143 2.491 . S
O154 Dy143 2.403 . S
O154 C149 1.254 . S
O155 Dy140 2.310 . S
O155 Dy143 2.664 . S
O155 C149 1.268 . S
O156 Dy140 2.351 . S
O156 C159 1.249 . S
O157 Dy143 2.326 . S
O157 C159 1.267 . S
C158 O150 1.249 . S
C158 O151 1.267 . S
C159 O156 1.249 . S
C159 O157 1.267 . S
Dy160 O164 2.398 . S
Dy160 O165 2.491 1_545 S
Dy160 O166 2.403 . S
Dy160 O167 2.664 1_645 S
Dy160 O171 2.326 1_545 S
Dy160 O175 2.310 1_545 S
Dy160 O176 2.351 1_655 S
C161 O172 1.185 1_545 S
C161 O173 1.355 . S
C162 O164 1.185 1_565 S
C162 O165 1.355 . S
Dy163 O167 2.310 . S
Dy163 O170 2.351 . S
Dy163 O172 2.398 . S
Dy163 O173 2.491 1_565 S
Dy163 O174 2.403 . S
Dy163 O175 2.664 1_455 S
Dy163 O177 2.326 1_565 S
O164 Dy160 2.398 . S
O164 C162 1.185 1_545 S
O165 Dy160 2.491 1_565 S
O165 C162 1.355 . S
O166 Dy160 2.403 . S
O166 C168 1.254 1_655 S
O167 Dy160 2.664 1_465 S
O167 Dy163 2.310 . S
O167 C168 1.268 1_565 S
C168 O166 1.254 1_455 S
C168 O167 1.268 1_545 S
C169 O174 1.254 . S
C169 O175 1.268 1_455 S
O170 Dy163 2.351 . S
O170 C178 1.249 1_455 S
O171 Dy160 2.326 1_565 S
O171 C178 1.267 . S
O172 C161 1.185 1_565 S
O172 Dy163 2.398 . S
O173 C161 1.355 . S
O173 Dy163 2.491 1_545 S
O174 Dy163 2.403 . S
O174 C169 1.254 . S
O175 Dy160 2.310 1_565 S
O175 Dy163 2.664 1_655 S
O175 C169 1.268 1_655 S
O176 Dy160 2.351 1_455 S
O176 C179 1.249 . S
O177 Dy163 2.326 1_545 S
O177 C179 1.267 . S
C178 O170 1.249 1_655 S
C178 O171 1.267 . S
C179 O176 1.249 . S
C179 O177 1.267 . S
Dy180 O184 2.398 . S
Dy180 O185 2.491 . S
Dy180 O186 2.403 . S
Dy180 O187 2.664 . S
Dy180 O191 2.326 . S
Dy180 O195 2.310 . S
Dy180 O196 2.351 . S
C181 O192 1.185 . S
C181 O193 1.355 . S
C182 O184 1.185 . S
C182 O185 1.355 . S
Dy183 O187 2.310 . S
Dy183 O190 2.351 . S
Dy183 O192 2.398 1_455 S
Dy183 O193 2.491 1_455 S
Dy183 O194 2.403 . S
Dy183 O195 2.664 . S
Dy183 O197 2.326 . S
O184 Dy180 2.398 . S
O184 C182 1.185 . S
O185 Dy180 2.491 . S
O185 C182 1.355 . S
O186 Dy180 2.403 . S
O186 C188 1.254 . S
O187 Dy180 2.664 . S
O187 Dy183 2.310 . S
O187 C188 1.268 . S
C188 O186 1.254 . S
C188 O187 1.268 . S
C189 O194 1.254 . S
C189 O195 1.268 . S
O190 Dy183 2.351 . S
O190 C198 1.249 . S
O191 Dy180 2.326 . S
O191 C198 1.267 . S
O192 C181 1.185 . S
O192 Dy183 2.398 1_655 S
O193 C181 1.355 . S
O193 Dy183 2.491 1_655 S
O194 Dy183 2.403 . S
O194 C189 1.254 . S
O195 Dy180 2.310 . S
O195 Dy183 2.664 . S
O195 C189 1.268 . S
O196 Dy180 2.351 . S
O196 C199 1.249 . S
O197 Dy183 2.326 . S
O197 C199 1.267 . S
C198 O190 1.249 . S
C198 O191 1.267 . S
C199 O196 1.249 . S
C199 O197 1.267 . S
Dy200 O204 2.398 . S
Dy200 O205 2.491 . S
Dy200 O206 2.403 . S
Dy200 O207 2.664 1_655 S
Dy200 O211 2.326 . S
Dy200 O215 2.310 . S
Dy200 O216 2.351 1_655 S
C201 O212 1.185 . S
C201 O213 1.355 . S
C202 O204 1.185 . S
C202 O205 1.355 . S
Dy203 O207 2.310 . S
Dy203 O210 2.351 . S
Dy203 O212 2.398 . S
Dy203 O213 2.491 . S
Dy203 O214 2.403 . S
Dy203 O215 2.664 1_455 S
Dy203 O217 2.326 . S
O204 Dy200 2.398 . S
O204 C202 1.185 . S
O205 Dy200 2.491 . S
O205 C202 1.355 . S
O206 Dy200 2.403 . S
O206 C208 1.254 1_655 S
O207 Dy200 2.664 1_455 S
O207 Dy203 2.310 . S
O207 C208 1.268 . S
C208 O206 1.254 1_455 S
C208 O207 1.268 . S
C209 O214 1.254 . S
C209 O215 1.268 1_455 S
O210 Dy203 2.351 . S
O210 C218 1.249 1_455 S
O211 Dy200 2.326 . S
O211 C218 1.267 . S
O212 C201 1.185 . S
O212 Dy203 2.398 . S
O213 C201 1.355 . S
O213 Dy203 2.491 . S
O214 Dy203 2.403 . S
O214 C209 1.254 . S
O215 Dy200 2.310 . S
O215 Dy203 2.664 1_655 S
O215 C209 1.268 1_655 S
O216 Dy200 2.351 1_455 S
O216 C219 1.249 . S
O217 Dy203 2.326 . S
O217 C219 1.267 . S
C218 O210 1.249 1_655 S
C218 O211 1.267 . S
C219 O216 1.249 . S
C219 O217 1.267 . S
Dy220 O224 2.398 . S
Dy220 O225 2.491 1_545 S
Dy220 O226 2.403 . S
Dy220 O227 2.664 1_545 S
Dy220 O231 2.326 1_545 S
Dy220 O235 2.310 1_545 S
Dy220 O236 2.351 . S
C221 O232 1.185 1_545 S
C221 O233 1.355 . S
C222 O224 1.185 1_565 S
C222 O225 1.355 . S
Dy223 O227 2.310 . S
Dy223 O230 2.351 . S
Dy223 O232 2.398 1_455 S
Dy223 O233 2.491 1_465 S
Dy223 O234 2.403 . S
Dy223 O235 2.664 . S
Dy223 O237 2.326 1_565 S
O224 Dy220 2.398 . S
O224 C222 1.185 1_545 S
O225 Dy220 2.491 1_565 S
O225 C222 1.355 . S
O226 Dy220 2.403 . S
O226 C228 1.254 . S
O227 Dy220 2.664 1_565 S
O227 Dy223 2.310 . S
O227 C228 1.268 1_565 S
C228 O226 1.254 . S
C228 O227 1.268 1_545 S
C229 O234 1.254 . S
C229 O235 1.268 . S
O230 Dy223 2.351 . S
O230 C238 1.249 . S
O231 Dy220 2.326 1_565 S
O231 C238 1.267 . S
O232 C221 1.185 1_565 S
O232 Dy223 2.398 1_655 S
O233 C221 1.355 . S
O233 Dy223 2.491 1_645 S
O234 Dy223 2.403 . S
O234 C229 1.254 . S
O235 Dy220 2.310 1_565 S
O235 Dy223 2.664 . S
O235 C229 1.268 . S
O236 Dy220 2.351 . S
O236 C239 1.249 . S
O237 Dy223 2.326 1_545 S
O237 C239 1.267 . S
C238 O230 1.249 . S
C238 O231 1.267 . S
C239 O236 1.249 . S
C239 O237 1.267 . S
Dy240 O244 2.398 . S
Dy240 O245 2.491 1_545 S
Dy240 O246 2.403 . S
Dy240 O247 2.664 1_655 S
Dy240 O251 2.326 1_545 S
Dy240 O255 2.310 . S
Dy240 O256 2.351 . S
C241 O252 1.185 1_545 S
C241 O253 1.355 . S
C242 O244 1.185 1_565 S
C242 O245 1.355 . S
Dy243 O247 2.310 1_565 S
Dy243 O250 2.351 1_455 S
Dy243 O252 2.398 . S
Dy243 O253 2.491 1_565 S
Dy243 O254 2.403 . S
Dy243 O255 2.664 1_465 S
Dy243 O257 2.326 1_565 S
O244 Dy240 2.398 . S
O244 C242 1.185 1_545 S
O245 Dy240 2.491 1_565 S
O245 C242 1.355 . S
O246 Dy240 2.403 . S
O246 C248 1.254 . S
O247 Dy240 2.664 1_455 S
O247 Dy243 2.310 1_545 S
O247 C248 1.268 1_455 S
C248 O246 1.254 . S
C248 O247 1.268 1_655 S
C249 O254 1.254 1_655 S
C249 O255 1.268 1_565 S
O250 Dy243 2.351 1_655 S
O250 C258 1.249 . S
O251 Dy240 2.326 1_565 S
O251 C258 1.267 . S
O252 C241 1.185 1_565 S
O252 Dy243 2.398 . S
O253 C241 1.355 . S
O253 Dy243 2.491 1_545 S
O254 Dy243 2.403 . S
O254 C249 1.254 1_455 S
O255 Dy240 2.310 . S
O255 Dy243 2.664 1_645 S
O255 C249 1.268 1_545 S
O256 Dy240 2.351 . S
O256 C259 1.249 1_655 S
O257 Dy243 2.326 1_545 S
O257 C259 1.267 . S
C258 O250 1.249 . S
C258 O251 1.267 . S
C259 O256 1.249 1_455 S
C259 O257 1.267 . S
Dy260 O264 2.398 1_655 S
Dy260 O265 2.491 1_655 S
Dy260 O266 2.403 . S
Dy260 O267 2.664 . S
Dy260 O271 2.326 . S
Dy260 O275 2.310 . S
Dy260 O276 2.351 . S
C261 O272 1.185 . S
C261 O273 1.355 . S
C262 O264 1.185 . S
C262 O265 1.355 . S
Dy263 O267 2.310 . S
Dy263 O270 2.351 . S
Dy263 O272 2.398 . S
Dy263 O273 2.491 . S
Dy263 O274 2.403 . S
Dy263 O275 2.664 . S
Dy263 O277 2.326 . S
O264 Dy260 2.398 1_455 S
O264 C262 1.185 . S
O265 Dy260 2.491 1_455 S
O265 C262 1.355 . S
O266 Dy260 2.403 . S
O266 C268 1.254 . S
O267 Dy260 2.664 . S
O267 Dy263 2.310 . S
O267 C268 1.268 . S
C268 O266 1.254 . S
C268 O267 1.268 . S
C269 O274 1.254 . S
C269 O275 1.268 . S
O270 Dy263 2.351 . S
O270 C278 1.249 . S
O271 Dy260 2.326 . S
O271 C278 1.267 . S
O272 C261 1.185 . S
O272 Dy263 2.398 . S
O273 C261 1.355 . S
O273 Dy263 2.491 . S
O274 Dy263 2.403 . S
O274 C269 1.254 . S
O275 Dy260 2.310 . S
O275 Dy263 2.664 . S
O275 C269 1.268 . S
O276 Dy260 2.351 . S
O276 C279 1.249 . S
O277 Dy263 2.326 . S
O277 C279 1.267 . S
C278 O270 1.249 . S
C278 O271 1.267 . S
C279 O276 1.249 . S
C279 O277 1.267 . S
Dy280 O284 2.398 . S
Dy280 O285 2.491 . S
Dy280 O286 2.403 . S
Dy280 O287 2.664 1_655 S
Dy280 O291 2.326 . S
Dy280 O295 2.310 . S
Dy280 O296 2.351 . S
C281 O292 1.185 . S
C281 O293 1.355 . S
C282 O284 1.185 . S
C282 O285 1.355 . S
Dy283 O287 2.310 . S
Dy283 O290 2.351 1_455 S
Dy283 O292 2.398 . S
Dy283 O293 2.491 . S
Dy283 O294 2.403 . S
Dy283 O295 2.664 1_455 S
Dy283 O297 2.326 . S
O284 Dy280 2.398 . S
O284 C282 1.185 . S
O285 Dy280 2.491 . S
O285 C282 1.355 . S
O286 Dy280 2.403 . S
O286 C288 1.254 . S
O287 Dy280 2.664 1_455 S
O287 Dy283 2.310 . S
O287 C288 1.268 1_455 S
C288 O286 1.254 . S
C288 O287 1.268 1_655 S
C289 O294 1.254 1_655 S
C289 O295 1.268 . S
O290 Dy283 2.351 1_655 S
O290 C298 1.249 . S
O291 Dy280 2.326 . S
O291 C298 1.267 . S
O292 C281 1.185 . S
O292 Dy283 2.398 . S
O293 C281 1.355 . S
O293 Dy283 2.491 . S
O294 Dy283 2.403 . S
O294 C289 1.254 1_455 S
O295 Dy280 2.310 . S
O295 Dy283 2.664 1_655 S
O295 C289 1.268 . S
O296 Dy280 2.351 . S
O296 C299 1.249 1_655 S
O297 Dy283 2.326 . S
O297 C299 1.267 . S
C298 O290 1.249 . S
C298 O291 1.267 . S
C299 O296 1.249 1_455 S
C299 O297 1.267 . S
Dy300 O304 2.398 1_655 S
Dy300 O305 2.491 1_645 S
Dy300 O306 2.403 . S
Dy300 O307 2.664 . S
Dy300 O311 2.326 1_545 S
Dy300 O315 2.310 . S
Dy300 O316 2.351 . S
C301 O312 1.185 1_545 S
C301 O313 1.355 . S
C302 O304 1.185 1_565 S
C302 O305 1.355 . S
Dy303 O307 2.310 1_565 S
Dy303 O310 2.351 . S
Dy303 O312 2.398 . S
Dy303 O313 2.491 1_565 S
Dy303 O314 2.403 . S
Dy303 O315 2.664 1_565 S
Dy303 O317 2.326 1_565 S
O304 Dy300 2.398 1_455 S
O304 C302 1.185 1_545 S
O305 Dy300 2.491 1_465 S
O305 C302 1.355 . S
O306 Dy300 2.403 . S
O306 C308 1.254 . S
O307 Dy300 2.664 . S
O307 Dy303 2.310 1_545 S
O307 C308 1.268 . S
C308 O306 1.254 . S
C308 O307 1.268 . S
C309 O314 1.254 . S
C309 O315 1.268 1_565 S
O310 Dy303 2.351 . S
O310 C318 1.249 . S
O311 Dy300 2.326 1_565 S
O311 C318 1.267 . S
O312 C301 1.185 1_565 S
O312 Dy303 2.398 . S
O313 C301 1.355 . S
O313 Dy303 2.491 1_545 S
O314 Dy303 2.403 . S
O314 C309 1.254 . S
O315 Dy300 2.310 . S
O315 Dy303 2.664 1_545 S
O315 C309 1.268 1_545 S
O316 Dy300 2.351 . S
O316 C319 1.249 . S
O317 Dy303 2.326 1_545 S
O317 C319 1.267 . S
C318 O310 1.249 . S
C318 O311 1.267 . S
C319 O316 1.249 . S
C319 O317 1.267 . S
Dy320 O324 2.398 . S
Dy320 O325 2.491 . S
Dy320 O326 2.403 . S
Dy320 O327 2.664 . S
Dy320 O331 2.326 . S
Dy320 O335 2.310 . S
Dy320 O336 2.351 . S
C321 O332 1.185 . S
C321 O333 1.355 . S
C322 O324 1.185 . S
C322 O325 1.355 . S
Dy323 O327 2.310 . S
Dy323 O330 2.351 . S
Dy323 O332 2.398 . S
Dy323 O333 2.491 . S
Dy323 O334 2.403 . S
Dy323 O335 2.664 . S
Dy323 O337 2.326 . S
O324 Dy320 2.398 . S
O324 C322 1.185 . S
O325 Dy320 2.491 . S
O325 C322 1.355 . S
O326 Dy320 2.403 . S
O326 C328 1.254 . S
O327 Dy320 2.664 . S
O327 Dy323 2.310 . S
O327 C328 1.268 . S
C328 O326 1.254 . S
C328 O327 1.268 . S
C329 O334 1.254 . S
C329 O335 1.268 . S
O330 Dy323 2.351 . S
O330 C338 1.249 . S
O331 Dy320 2.326 . S
O331 C338 1.267 . S
O332 C321 1.185 . S
O332 Dy323 2.398 . S
O333 C321 1.355 . S
O333 Dy323 2.491 . S
O334 Dy323 2.403 . S
O334 C329 1.254 . S
O335 Dy320 2.310 . S
O335 Dy323 2.664 . S
O335 C329 1.268 . S
O336 Dy320 2.351 . S
O336 C339 1.249 . S
O337 Dy323 2.326 . S
O337 C339 1.267 . S
C338 O330 1.249 . S
C338 O331 1.267 . S
C339 O336 1.249 . S
C339 O337 1.267 . S
Dy340 O344 2.398 . S
Dy340 O345 2.491 . S
Dy340 O346 2.403 . S
Dy340 O347 2.664 . S
Dy340 O351 2.326 . S
Dy340 O355 2.310 . S
Dy340 O356 2.351 . S
C341 O352 1.185 . S
C341 O353 1.355 . S
C342 O344 1.185 1_455 S
C342 O345 1.355 1_455 S
Dy343 O347 2.310 . S
Dy343 O350 2.351 . S
Dy343 O352 2.398 . S
Dy343 O353 2.491 . S
Dy343 O354 2.403 . S
Dy343 O355 2.664 . S
Dy343 O357 2.326 . S
O344 Dy340 2.398 . S
O344 C342 1.185 1_655 S
O345 Dy340 2.491 . S
O345 C342 1.355 1_655 S
O346 Dy340 2.403 . S
O346 C348 1.254 . S
O347 Dy340 2.664 . S
O347 Dy343 2.310 . S
O347 C348 1.268 . S
C348 O346 1.254 . S
C348 O347 1.268 . S
C349 O354 1.254 . S
C349 O355 1.268 . S
O350 Dy343 2.351 . S
O350 C358 1.249 . S
O351 Dy340 2.326 . S
O351 C358 1.267 . S
O352 C341 1.185 . S
O352 Dy343 2.398 . S
O353 C341 1.355 . S
O353 Dy343 2.491 . S
O354 Dy343 2.403 . S
O354 C349 1.254 . S
O355 Dy340 2.310 . S
O355 Dy343 2.664 . S
O355 C349 1.268 . S
O356 Dy340 2.351 . S
O356 C359 1.249 . S
O357 Dy343 2.326 . S
O357 C359 1.267 . S
C358 O350 1.249 . S
C358 O351 1.267 . S
C359 O356 1.249 . S
C359 O357 1.267 . S
Dy360 O364 2.398 . S
Dy360 O365 2.491 . S
Dy360 O366 2.403 . S
Dy360 O367 2.664 . S
Dy360 O371 2.326 . S
Dy360 O375 2.310 . S
Dy360 O376 2.351 . S
C361 O372 1.185 . S
C361 O373 1.355 . S
C362 O364 1.185 . S
C362 O365 1.355 . S
Dy363 O367 2.310 . S
Dy363 O370 2.351 . S
Dy363 O372 2.398 . S
Dy363 O373 2.491 . S
Dy363 O374 2.403 . S
Dy363 O375 2.664 . S
Dy363 O377 2.326 . S
O364 Dy360 2.398 . S
O364 C362 1.185 . S
O365 Dy360 2.491 . S
O365 C362 1.355 . S
O366 Dy360 2.403 . S
O366 C368 1.254 . S
O367 Dy360 2.664 . S
O367 Dy363 2.310 . S
O367 C368 1.268 . S
C368 O366 1.254 . S
C368 O367 1.268 . S
C369 O374 1.254 . S
C369 O375 1.268 . S
O370 Dy363 2.351 . S
O370 C378 1.249 . S
O371 Dy360 2.326 . S
O371 C378 1.267 . S
O372 C361 1.185 . S
O372 Dy363 2.398 . S
O373 C361 1.355 . S
O373 Dy363 2.491 . S
O374 Dy363 2.403 . S
O374 C369 1.254 . S
O375 Dy360 2.310 . S
O375 Dy363 2.664 . S
O375 C369 1.268 . S
O376 Dy360 2.351 . S
O376 C379 1.249 . S
O377 Dy363 2.326 . S
O377 C379 1.267 . S
C378 O370 1.249 . S
C378 O371 1.267 . S
C379 O376 1.249 . S
C379 O377 1.267 . S
Dy380 O384 2.398 . S
Dy380 O385 2.491 . S
Dy380 O386 2.403 . S
Dy380 O387 2.664 . S
Dy380 O391 2.326 . S
Dy380 O395 2.310 . S
Dy380 O396 2.351 . S
C381 O392 1.185 . S
C381 O393 1.355 . S
C382 O384 1.185 1_455 S
C382 O385 1.355 1_455 S
Dy383 O387 2.310 . S
Dy383 O390 2.351 . S
Dy383 O392 2.398 . S
Dy383 O393 2.491 . S
Dy383 O394 2.403 . S
Dy383 O395 2.664 . S
Dy383 O397 2.326 . S
O384 Dy380 2.398 . S
O384 C382 1.185 1_655 S
O385 Dy380 2.491 . S
O385 C382 1.355 1_655 S
O386 Dy380 2.403 . S
O386 C388 1.254 . S
O387 Dy380 2.664 . S
O387 Dy383 2.310 . S
O387 C388 1.268 . S
C388 O386 1.254 . S
C388 O387 1.268 . S
C389 O394 1.254 . S
C389 O395 1.268 . S
O390 Dy383 2.351 . S
O390 C398 1.249 . S
O391 Dy380 2.326 . S
O391 C398 1.267 . S
O392 C381 1.185 . S
O392 Dy383 2.398 . S
O393 C381 1.355 . S
O393 Dy383 2.491 . S
O394 Dy383 2.403 . S
O394 C389 1.254 . S
O395 Dy380 2.310 . S
O395 Dy383 2.664 . S
O395 C389 1.268 . S
O396 Dy380 2.351 . S
O396 C399 1.249 . S
O397 Dy383 2.326 . S
O397 C399 1.267 . S
C398 O390 1.249 . S
C398 O391 1.267 . S
C399 O396 1.249 . S
C399 O397 1.267 . S
Dy400 O404 2.398 . S
Dy400 O405 2.491 . S
Dy400 O406 2.403 . S
Dy400 O407 2.664 . S
Dy400 O411 2.326 . S
Dy400 O415 2.310 . S
Dy400 O416 2.351 . S
C401 O412 1.185 . S
C401 O413 1.355 . S
C402 O404 1.185 . S
C402 O405 1.355 . S
Dy403 O407 2.310 . S
Dy403 O410 2.351 . S
Dy403 O412 2.398 . S
Dy403 O413 2.491 . S
Dy403 O414 2.403 . S
Dy403 O415 2.664 . S
Dy403 O417 2.326 . S
O404 Dy400 2.398 . S
O404 C402 1.185 . S
O405 Dy400 2.491 . S
O405 C402 1.355 . S
O406 Dy400 2.403 . S
O406 C408 1.254 . S
O407 Dy400 2.664 . S
O407 Dy403 2.310 . S
O407 C408 1.268 . S
C408 O406 1.254 . S
C408 O407 1.268 . S
C409 O414 1.254 . S
C409 O415 1.268 . S
O410 Dy403 2.351 . S
O410 C418 1.249 . S
O411 Dy400 2.326 . S
O411 C418 1.267 . S
O412 C401 1.185 . S
O412 Dy403 2.398 . S
O413 C401 1.355 . S
O413 Dy403 2.491 . S
O414 Dy403 2.403 . S
O414 C409 1.254 . S
O415 Dy400 2.310 . S
O415 Dy403 2.664 . S
O415 C409 1.268 . S
O416 Dy400 2.351 . S
O416 C419 1.249 . S
O417 Dy403 2.326 . S
O417 C419 1.267 . S
C418 O410 1.249 . S
C418 O411 1.267 . S
C419 O416 1.249 . S
C419 O417 1.267 . S
Dy420 O424 2.398 . S
Dy420 O425 2.491 . S
Dy420 O426 2.403 . S
Dy420 O427 2.664 . S
Dy420 O431 2.326 . S
Dy420 O435 2.310 . S
Dy420 O436 2.351 . S
C421 O432 1.185 1_655 S
C421 O433 1.355 1_655 S
C422 O424 1.185 . S
C422 O425 1.355 . S
Dy423 O427 2.310 . S
Dy423 O430 2.351 . S
Dy423 O432 2.398 . S
Dy423 O433 2.491 . S
Dy423 O434 2.403 . S
Dy423 O435 2.664 . S
Dy423 O437 2.326 . S
O424 Dy420 2.398 . S
O424 C422 1.185 . S
O425 Dy420 2.491 . S
O425 C422 1.355 . S
O426 Dy420 2.403 . S
O426 C428 1.254 . S
O427 Dy420 2.664 . S
O427 Dy423 2.310 . S
O427 C428 1.268 . S
C428 O426 1.254 . S
C428 O427 1.268 . S
C429 O434 1.254 . S
C429 O435 1.268 . S
O430 Dy423 2.351 . S
O430 C438 1.249 . S
O431 Dy420 2.326 . S
O431 C438 1.267 . S
O432 C421 1.185 1_455 S
O432 Dy423 2.398 . S
O433 C421 1.355 1_455 S
O433 Dy423 2.491 . S
O434 Dy423 2.403 . S
O434 C429 1.254 . S
O435 Dy420 2.310 . S
O435 Dy423 2.664 . S
O435 C429 1.268 . S
O436 Dy420 2.351 . S
O436 C439 1.249 . S
O437 Dy423 2.326 . S
O437 C439 1.267 . S
C438 O430 1.249 . S
C438 O431 1.267 . S
C439 O436 1.249 . S
C439 O437 1.267 . S
Dy440 O444 2.398 . S
Dy440 O445 2.491 . S
Dy440 O446 2.403 . S
Dy440 O447 2.664 . S
Dy440 O451 2.326 . S
Dy440 O455 2.310 . S
Dy440 O456 2.351 . S
C441 O452 1.185 . S
C441 O453 1.355 . S
C442 O444 1.185 . S
C442 O445 1.355 . S
Dy443 O447 2.310 . S
Dy443 O450 2.351 . S
Dy443 O452 2.398 . S
Dy443 O453 2.491 . S
Dy443 O454 2.403 . S
Dy443 O455 2.664 . S
Dy443 O457 2.326 . S
O444 Dy440 2.398 . S
O444 C442 1.185 . S
O445 Dy440 2.491 . S
O445 C442 1.355 . S
O446 Dy440 2.403 . S
O446 C448 1.254 . S
O447 Dy440 2.664 . S
O447 Dy443 2.310 . S
O447 C448 1.268 . S
C448 O446 1.254 . S
C448 O447 1.268 . S
C449 O454 1.254 . S
C449 O455 1.268 . S
O450 Dy443 2.351 . S
O450 C458 1.249 . S
O451 Dy440 2.326 . S
O451 C458 1.267 . S
O452 C441 1.185 . S
O452 Dy443 2.398 . S
O453 C441 1.355 . S
O453 Dy443 2.491 . S
O454 Dy443 2.403 . S
O454 C449 1.254 . S
O455 Dy440 2.310 . S
O455 Dy443 2.664 . S
O455 C449 1.268 . S
O456 Dy440 2.351 . S
O456 C459 1.249 . S
O457 Dy443 2.326 . S
O457 C459 1.267 . S
C458 O450 1.249 . S
C458 O451 1.267 . S
C459 O456 1.249 . S
C459 O457 1.267 . S
Dy460 O464 2.398 . S
Dy460 O465 2.491 . S
Dy460 O466 2.403 . S
Dy460 O467 2.664 . S
Dy460 O471 2.326 . S
Dy460 O475 2.310 . S
Dy460 O476 2.351 . S
C461 O472 1.185 1_655 S
C461 O473 1.355 1_655 S
C462 O464 1.185 . S
C462 O465 1.355 . S
Dy463 O467 2.310 . S
Dy463 O470 2.351 . S
Dy463 O472 2.398 . S
Dy463 O473 2.491 . S
Dy463 O474 2.403 . S
Dy463 O475 2.664 . S
Dy463 O477 2.326 . S
O464 Dy460 2.398 . S
O464 C462 1.185 . S
O465 Dy460 2.491 . S
O465 C462 1.355 . S
O466 Dy460 2.403 . S
O466 C468 1.254 . S
O467 Dy460 2.664 . S
O467 Dy463 2.310 . S
O467 C468 1.268 . S
C468 O466 1.254 . S
C468 O467 1.268 . S
C469 O474 1.254 . S
C469 O475 1.268 . S
O470 Dy463 2.351 . S
O470 C478 1.249 . S
O471 Dy460 2.326 . S
O471 C478 1.267 . S
O472 C461 1.185 1_455 S
O472 Dy463 2.398 . S
O473 C461 1.355 1_455 S
O473 Dy463 2.491 . S
O474 Dy463 2.403 . S
O474 C469 1.254 . S
O475 Dy460 2.310 . S
O475 Dy463 2.664 . S
O475 C469 1.268 . S
O476 Dy460 2.351 . S
O476 C479 1.249 . S
O477 Dy463 2.326 . S
O477 C479 1.267 . S
C478 O470 1.249 . S
C478 O471 1.267 . S
C479 O476 1.249 . S
C479 O477 1.267 . S
Dy480 O484 2.398 . S
Dy480 O485 2.491 1_545 S
Dy480 O486 2.403 . S
Dy480 O487 2.664 1_545 S
Dy480 O491 2.326 1_545 S
Dy480 O495 2.310 1_545 S
Dy480 O496 2.351 . S
C481 O492 1.185 1_545 S
C481 O493 1.355 . S
C482 O484 1.185 1_565 S
C482 O485 1.355 . S
Dy483 O487 2.310 . S
Dy483 O490 2.351 . S
Dy483 O492 2.398 . S
Dy483 O493 2.491 1_565 S
Dy483 O494 2.403 . S
Dy483 O495 2.664 . S
Dy483 O497 2.326 1_565 S
O484 Dy480 2.398 . S
O484 C482 1.185 1_545 S
O485 Dy480 2.491 1_565 S
O485 C482 1.355 . S
O486 Dy480 2.403 . S
O486 C488 1.254 . S
O487 Dy480 2.664 1_565 S
O487 Dy483 2.310 . S
O487 C488 1.268 1_565 S
C488 O486 1.254 . S
C488 O487 1.268 1_545 S
C489 O494 1.254 . S
C489 O495 1.268 . S
O490 Dy483 2.351 . S
O490 C498 1.249 . S
O491 Dy480 2.326 1_565 S
O491 C498 1.267 . S
O492 C481 1.185 1_565 S
O492 Dy483 2.398 . S
O493 C481 1.355 . S
O493 Dy483 2.491 1_545 S
O494 Dy483 2.403 . S
O494 C489 1.254 . S
O495 Dy480 2.310 1_565 S
O495 Dy483 2.664 . S
O495 C489 1.268 . S
O496 Dy480 2.351 . S
O496 C499 1.249 . S
O497 Dy483 2.326 1_545 S
O497 C499 1.267 . S
C498 O490 1.249 . S
C498 O491 1.267 . S
C499 O496 1.249 . S
C499 O497 1.267 . S
Dy500 O504 2.398 . S
Dy500 O505 2.491 . S
Dy500 O506 2.403 . S
Dy500 O507 2.664 . S
Dy500 O511 2.326 . S
Dy500 O515 2.310 . S
Dy500 O516 2.351 . S
C501 O512 1.185 . S
C501 O513 1.355 . S
C502 O504 1.185 1_455 S
C502 O505 1.355 1_455 S
Dy503 O507 2.310 . S
Dy503 O510 2.351 . S
Dy503 O512 2.398 . S
Dy503 O513 2.491 . S
Dy503 O514 2.403 . S
Dy503 O515 2.664 . S
Dy503 O517 2.326 . S
O504 Dy500 2.398 . S
O504 C502 1.185 1_655 S
O505 Dy500 2.491 . S
O505 C502 1.355 1_655 S
O506 Dy500 2.403 . S
O506 C508 1.254 . S
O507 Dy500 2.664 . S
O507 Dy503 2.310 . S
O507 C508 1.268 . S
C508 O506 1.254 . S
C508 O507 1.268 . S
C509 O514 1.254 . S
C509 O515 1.268 . S
O510 Dy503 2.351 . S
O510 C518 1.249 . S
O511 Dy500 2.326 . S
O511 C518 1.267 . S
O512 C501 1.185 . S
O512 Dy503 2.398 . S
O513 C501 1.355 . S
O513 Dy503 2.491 . S
O514 Dy503 2.403 . S
O514 C509 1.254 . S
O515 Dy500 2.310 . S
O515 Dy503 2.664 . S
O515 C509 1.268 . S
O516 Dy500 2.351 . S
O516 C519 1.249 . S
O517 Dy503 2.326 . S
O517 C519 1.267 . S
C518 O510 1.249 . S
C518 O511 1.267 . S
C519 O516 1.249 . S
C519 O517 1.267 . S
Dy520 O524 2.398 . S
Dy520 O525 2.491 . S
Dy520 O526 2.403 . S
Dy520 O527 2.664 . S
Dy520 O531 2.326 . S
Dy520 O535 2.310 . S
Dy520 O536 2.351 . S
C521 O532 1.185 . S
C521 O533 1.355 . S
C522 O524 1.185 . S
C522 O525 1.355 . S
Dy523 O527 2.310 . S
Dy523 O530 2.351 . S
Dy523 O532 2.398 . S
Dy523 O533 2.491 . S
Dy523 O534 2.403 . S
Dy523 O535 2.664 . S
Dy523 O537 2.326 . S
O524 Dy520 2.398 . S
O524 C522 1.185 . S
O525 Dy520 2.491 . S
O525 C522 1.355 . S
O526 Dy520 2.403 . S
O526 C528 1.254 . S
O527 Dy520 2.664 . S
O527 Dy523 2.310 . S
O527 C528 1.268 . S
C528 O526 1.254 . S
C528 O527 1.268 . S
C529 O534 1.254 . S
C529 O535 1.268 . S
O530 Dy523 2.351 . S
O530 C538 1.249 . S
O531 Dy520 2.326 . S
O531 C538 1.267 . S
O532 C521 1.185 . S
O532 Dy523 2.398 . S
O533 C521 1.355 . S
O533 Dy523 2.491 . S
O534 Dy523 2.403 . S
O534 C529 1.254 . S
O535 Dy520 2.310 . S
O535 Dy523 2.664 . S
O535 C529 1.268 . S
O536 Dy520 2.351 . S
O536 C539 1.249 . S
O537 Dy523 2.326 . S
O537 C539 1.267 . S
C538 O530 1.249 . S
C538 O531 1.267 . S
C539 O536 1.249 . S
C539 O537 1.267 . S
Dy540 O544 2.398 . S
Dy540 O545 2.491 1_545 S
Dy540 O546 2.403 . S
Dy540 O547 2.664 1_545 S
Dy540 O551 2.326 1_545 S
Dy540 O555 2.310 1_545 S
Dy540 O556 2.351 . S
C541 O552 1.185 1_545 S
C541 O553 1.355 . S
C542 O544 1.185 1_465 S
C542 O545 1.355 1_455 S
Dy543 O547 2.310 . S
Dy543 O550 2.351 . S
Dy543 O552 2.398 . S
Dy543 O553 2.491 1_565 S
Dy543 O554 2.403 . S
Dy543 O555 2.664 . S
Dy543 O557 2.326 1_565 S
O544 Dy540 2.398 . S
O544 C542 1.185 1_645 S
O545 Dy540 2.491 1_565 S
O545 C542 1.355 1_655 S
O546 Dy540 2.403 . S
O546 C548 1.254 . S
O547 Dy540 2.664 1_565 S
O547 Dy543 2.310 . S
O547 C548 1.268 1_565 S
C548 O546 1.254 . S
C548 O547 1.268 1_545 S
C549 O554 1.254 . S
C549 O555 1.268 . S
O550 Dy543 2.351 . S
O550 C558 1.249 . S
O551 Dy540 2.326 1_565 S
O551 C558 1.267 . S
O552 C541 1.185 1_565 S
O552 Dy543 2.398 . S
O553 C541 1.355 . S
O553 Dy543 2.491 1_545 S
O554 Dy543 2.403 . S
O554 C549 1.254 . S
O555 Dy540 2.310 1_565 S
O555 Dy543 2.664 . S
O555 C549 1.268 . S
O556 Dy540 2.351 . S
O556 C559 1.249 . S
O557 Dy543 2.326 1_545 S
O557 C559 1.267 . S
C558 O550 1.249 . S
C558 O551 1.267 . S
C559 O556 1.249 . S
C559 O557 1.267 . S
Dy560 O564 2.398 . S
Dy560 O565 2.491 1_545 S
Dy560 O566 2.403 . S
Dy560 O567 2.664 . S
Dy560 O571 2.326 1_545 S
Dy560 O575 2.310 . S
Dy560 O576 2.351 . S
C561 O572 1.185 1_545 S
C561 O573 1.355 . S
C562 O564 1.185 1_565 S
C562 O565 1.355 . S
Dy563 O567 2.310 1_565 S
Dy563 O570 2.351 . S
Dy563 O572 2.398 . S
Dy563 O573 2.491 1_565 S
Dy563 O574 2.403 . S
Dy563 O575 2.664 1_565 S
Dy563 O577 2.326 1_565 S
O564 Dy560 2.398 . S
O564 C562 1.185 1_545 S
O565 Dy560 2.491 1_565 S
O565 C562 1.355 . S
O566 Dy560 2.403 . S
O566 C568 1.254 . S
O567 Dy560 2.664 . S
O567 Dy563 2.310 1_545 S
O567 C568 1.268 . S
C568 O566 1.254 . S
C568 O567 1.268 . S
C569 O574 1.254 . S
C569 O575 1.268 1_565 S
O570 Dy563 2.351 . S
O570 C578 1.249 . S
O571 Dy560 2.326 1_565 S
O571 C578 1.267 . S
O572 C561 1.185 1_565 S
O572 Dy563 2.398 . S
O573 C561 1.355 . S
O573 Dy563 2.491 1_545 S
O574 Dy563 2.403 . S
O574 C569 1.254 . S
O575 Dy560 2.310 . S
O575 Dy563 2.664 1_545 S
O575 C569 1.268 1_545 S
O576 Dy560 2.351 . S
O576 C579 1.249 . S
O577 Dy563 2.326 1_545 S
O577 C579 1.267 . S
C578 O570 1.249 . S
C578 O571 1.267 . S
C579 O576 1.249 . S
C579 O577 1.267 . S
Dy580 O584 2.398 . S
Dy580 O585 2.491 . S
Dy580 O586 2.403 . S
Dy580 O587 2.664 . S
Dy580 O591 2.326 . S
Dy580 O595 2.310 . S
Dy580 O596 2.351 . S
C581 O592 1.185 1_655 S
C581 O593 1.355 1_655 S
C582 O584 1.185 . S
C582 O585 1.355 . S
Dy583 O587 2.310 . S
Dy583 O590 2.351 . S
Dy583 O592 2.398 . S
Dy583 O593 2.491 . S
Dy583 O594 2.403 . S
Dy583 O595 2.664 . S
Dy583 O597 2.326 . S
O584 Dy580 2.398 . S
O584 C582 1.185 . S
O585 Dy580 2.491 . S
O585 C582 1.355 . S
O586 Dy580 2.403 . S
O586 C588 1.254 . S
O587 Dy580 2.664 . S
O587 Dy583 2.310 . S
O587 C588 1.268 . S
C588 O586 1.254 . S
C588 O587 1.268 . S
C589 O594 1.254 . S
C589 O595 1.268 . S
O590 Dy583 2.351 . S
O590 C598 1.249 . S
O591 Dy580 2.326 . S
O591 C598 1.267 . S
O592 C581 1.185 1_455 S
O592 Dy583 2.398 . S
O593 C581 1.355 1_455 S
O593 Dy583 2.491 . S
O594 Dy583 2.403 . S
O594 C589 1.254 . S
O595 Dy580 2.310 . S
O595 Dy583 2.664 . S
O595 C589 1.268 . S
O596 Dy580 2.351 . S
O596 C599 1.249 . S
O597 Dy583 2.326 . S
O597 C599 1.267 . S
C598 O590 1.249 . S
C598 O591 1.267 . S
C599 O596 1.249 . S
C599 O597 1.267 . S
Dy600 O604 2.398 . S
Dy600 O605 2.491 . S
Dy600 O606 2.403 . S
Dy600 O607 2.664 . S
Dy600 O611 2.326 . S
Dy600 O615 2.310 . S
Dy600 O616 2.351 . S
C601 O612 1.185 . S
C601 O613 1.355 . S
C602 O604 1.185 . S
C602 O605 1.355 . S
Dy603 O607 2.310 . S
Dy603 O610 2.351 . S
Dy603 O612 2.398 . S
Dy603 O613 2.491 . S
Dy603 O614 2.403 . S
Dy603 O615 2.664 . S
Dy603 O617 2.326 . S
O604 Dy600 2.398 . S
O604 C602 1.185 . S
O605 Dy600 2.491 . S
O605 C602 1.355 . S
O606 Dy600 2.403 . S
O606 C608 1.254 . S
O607 Dy600 2.664 . S
O607 Dy603 2.310 . S
O607 C608 1.268 . S
C608 O606 1.254 . S
C608 O607 1.268 . S
C609 O614 1.254 . S
C609 O615 1.268 . S
O610 Dy603 2.351 . S
O610 C618 1.249 . S
O611 Dy600 2.326 . S
O611 C618 1.267 . S
O612 C601 1.185 . S
O612 Dy603 2.398 . S
O613 C601 1.355 . S
O613 Dy603 2.491 . S
O614 Dy603 2.403 . S
O614 C609 1.254 . S
O615 Dy600 2.310 . S
O615 Dy603 2.664 . S
O615 C609 1.268 . S
O616 Dy600 2.351 . S
O616 C619 1.249 . S
O617 Dy603 2.326 . S
O617 C619 1.267 . S
C618 O610 1.249 . S
C618 O611 1.267 . S
C619 O616 1.249 . S
C619 O617 1.267 . S
Dy620 O624 2.398 . S
Dy620 O625 2.491 1_545 S
Dy620 O626 2.403 . S
Dy620 O627 2.664 . S
Dy620 O631 2.326 1_545 S
Dy620 O635 2.310 . S
Dy620 O636 2.351 . S
C621 O632 1.185 1_645 S
C621 O633 1.355 1_655 S
C622 O624 1.185 1_565 S
C622 O625 1.355 . S
Dy623 O627 2.310 1_565 S
Dy623 O630 2.351 . S
Dy623 O632 2.398 . S
Dy623 O633 2.491 1_565 S
Dy623 O634 2.403 . S
Dy623 O635 2.664 1_565 S
Dy623 O637 2.326 1_565 S
O624 Dy620 2.398 . S
O624 C622 1.185 1_545 S
O625 Dy620 2.491 1_565 S
O625 C622 1.355 . S
O626 Dy620 2.403 . S
O626 C628 1.254 . S
O627 Dy620 2.664 . S
O627 Dy623 2.310 1_545 S
O627 C628 1.268 . S
C628 O626 1.254 . S
C628 O627 1.268 . S
C629 O634 1.254 . S
C629 O635 1.268 1_565 S
O630 Dy623 2.351 . S
O630 C638 1.249 . S
O631 Dy620 2.326 1_565 S
O631 C638 1.267 . S
O632 C621 1.185 1_465 S
O632 Dy623 2.398 . S
O633 C621 1.355 1_455 S
O633 Dy623 2.491 1_545 S
O634 Dy623 2.403 . S
O634 C629 1.254 . S
O635 Dy620 2.310 . S
O635 Dy623 2.664 1_545 S
O635 C629 1.268 1_545 S
O636 Dy620 2.351 . S
O636 C639 1.249 . S
O637 Dy623 2.326 1_545 S
O637 C639 1.267 . S
C638 O630 1.249 . S
C638 O631 1.267 . S
C639 O636 1.249 . S
C639 O637 1.267 . S
C640 C641 1.387 . S
C640 H644 0.950 . S
C640 C649 1.390 . S
C641 C640 1.387 . S
C641 C643 1.387 . S
H642 C649 0.950 . S
C643 C641 1.387 . S
C643 C645 1.390 . S
C643 H647 0.950 . S
H644 C640 0.950 . S
C645 C643 1.390 . S
C645 C646 1.387 . S
C645 H648 0.950 . S
C646 C645 1.387 . S
C646 C649 1.387 . S
H647 C643 0.950 . S
H648 C645 0.950 . S
C649 C640 1.390 . S
C649 H642 0.950 . S
C649 C646 1.387 . S
C650 C651 1.387 . S
C650 H654 0.950 . S
C650 C659 1.390 . S
C651 C650 1.387 . S
C651 C653 1.387 . S
H652 C659 0.950 . S
C653 C651 1.387 . S
C653 C655 1.390 . S
C653 H657 0.950 . S
H654 C650 0.950 . S
C655 C653 1.390 . S
C655 C656 1.387 . S
C655 H658 0.950 . S
C656 C655 1.387 . S
C656 C659 1.387 . S
H657 C653 0.950 . S
H658 C655 0.950 . S
C659 C650 1.390 . S
C659 H652 0.950 . S
C659 C656 1.387 . S
C660 C661 1.387 . S
C660 H664 0.950 . S
C660 C669 1.390 . S
C661 C660 1.387 . S
C661 C663 1.387 . S
H662 C669 0.950 . S
C663 C661 1.387 . S
C663 C665 1.390 . S
C663 H667 0.950 . S
H664 C660 0.950 . S
C665 C663 1.390 . S
C665 C666 1.387 . S
C665 H668 0.950 . S
C666 C665 1.387 . S
C666 C669 1.387 . S
H667 C663 0.950 . S
H668 C665 0.950 . S
C669 C660 1.390 . S
C669 H662 0.950 . S
C669 C666 1.387 . S
C670 C671 1.387 . S
C670 H674 0.950 . S
C670 C679 1.390 . S
C671 C670 1.387 . S
C671 C673 1.387 . S
H672 C679 0.950 . S
C673 C671 1.387 . S
C673 C675 1.390 . S
C673 H677 0.950 . S
H674 C670 0.950 . S
C675 C673 1.390 . S
C675 C676 1.387 . S
C675 H678 0.950 . S
C676 C675 1.387 . S
C676 C679 1.387 . S
H677 C673 0.950 . S
H678 C675 0.950 . S
C679 C670 1.390 . S
C679 H672 0.950 . S
C679 C676 1.387 . S
C680 C681 1.387 . S
C680 H684 0.950 . S
C680 C689 1.390 . S
C681 C680 1.387 . S
C681 C683 1.387 . S
H682 C689 0.950 . S
C683 C681 1.387 . S
C683 C685 1.390 . S
C683 H687 0.950 . S
H684 C680 0.950 . S
C685 C683 1.390 . S
C685 C686 1.387 . S
C685 H688 0.950 . S
C686 C685 1.387 . S
C686 C689 1.387 . S
H687 C683 0.950 . S
H688 C685 0.950 . S
C689 C680 1.390 . S
C689 H682 0.950 . S
C689 C686 1.387 . S
C690 C691 1.387 . S
C690 H694 0.950 . S
C690 C699 1.390 . S
C691 C690 1.387 . S
C691 C693 1.387 . S
H692 C699 0.950 . S
C693 C691 1.387 . S
C693 C695 1.390 . S
C693 H697 0.950 . S
H694 C690 0.950 . S
C695 C693 1.390 . S
C695 C696 1.387 . S
C695 H698 0.950 . S
C696 C695 1.387 . S
C696 C699 1.387 . S
H697 C693 0.950 . S
H698 C695 0.950 . S
C699 C690 1.390 . S
C699 H692 0.950 . S
C699 C696 1.387 . S
C700 C701 1.387 . S
C700 H704 0.950 . S
C700 C709 1.390 . S
C701 C700 1.387 . S
C701 C703 1.387 . S
H702 C709 0.950 . S
C703 C701 1.387 . S
C703 C705 1.390 . S
C703 H707 0.950 . S
H704 C700 0.950 . S
C705 C703 1.390 . S
C705 C706 1.387 . S
C705 H708 0.950 . S
C706 C705 1.387 . S
C706 C709 1.387 . S
H707 C703 0.950 . S
H708 C705 0.950 . S
C709 C700 1.390 . S
C709 H702 0.950 . S
C709 C706 1.387 . S
C710 C711 1.387 . S
C710 H714 0.950 . S
C710 C719 1.390 . S
C711 C710 1.387 . S
C711 C713 1.387 . S
H712 C719 0.950 . S
C713 C711 1.387 . S
C713 C715 1.390 . S
C713 H717 0.950 . S
H714 C710 0.950 . S
C715 C713 1.390 . S
C715 C716 1.387 . S
C715 H718 0.950 . S
C716 C715 1.387 . S
C716 C719 1.387 . S
H717 C713 0.950 . S
H718 C715 0.950 . S
C719 C710 1.390 . S
C719 H712 0.950 . S
C719 C716 1.387 . S
C720 C721 1.387 . S
C720 H724 0.950 . S
C720 C729 1.390 . S
C721 C720 1.387 . S
C721 C723 1.387 . S
H722 C729 0.950 . S
C723 C721 1.387 . S
C723 C725 1.390 . S
C723 H727 0.950 . S
H724 C720 0.950 . S
C725 C723 1.390 . S
C725 C726 1.387 . S
C725 H728 0.950 . S
C726 C725 1.387 . S
C726 C729 1.387 . S
H727 C723 0.950 . S
H728 C725 0.950 . S
C729 C720 1.390 . S
C729 H722 0.950 . S
C729 C726 1.387 . S
C730 C731 1.387 . S
C730 H734 0.950 . S
C730 C739 1.390 . S
C731 C730 1.387 . S
C731 C733 1.387 . S
H732 C739 0.950 . S
C733 C731 1.387 . S
C733 C735 1.390 . S
C733 H737 0.950 . S
H734 C730 0.950 . S
C735 C733 1.390 . S
C735 C736 1.387 . S
C735 H738 0.950 . S
C736 C735 1.387 . S
C736 C739 1.387 . S
H737 C733 0.950 . S
H738 C735 0.950 . S
C739 C730 1.390 . S
C739 H732 0.950 . S
C739 C736 1.387 . S
C740 C741 1.387 . S
C740 H744 0.950 . S
C740 C749 1.390 . S
C741 C740 1.387 . S
C741 C743 1.387 . S
H742 C749 0.950 . S
C743 C741 1.387 . S
C743 C745 1.390 . S
C743 H747 0.950 . S
H744 C740 0.950 . S
C745 C743 1.390 . S
C745 C746 1.387 . S
C745 H748 0.950 . S
C746 C745 1.387 . S
C746 C749 1.387 . S
H747 C743 0.950 . S
H748 C745 0.950 . S
C749 C740 1.390 . S
C749 H742 0.950 . S
C749 C746 1.387 . S
C750 C751 1.387 . S
C750 H754 0.950 . S
C750 C759 1.390 . S
C751 C750 1.387 . S
C751 C753 1.387 . S
H752 C759 0.950 . S
C753 C751 1.387 . S
C753 C755 1.390 . S
C753 H757 0.950 . S
H754 C750 0.950 . S
C755 C753 1.390 . S
C755 C756 1.387 . S
C755 H758 0.950 . S
C756 C755 1.387 . S
C756 C759 1.387 . S
H757 C753 0.950 . S
H758 C755 0.950 . S
C759 C750 1.390 . S
C759 H752 0.950 . S
C759 C756 1.387 . S
C760 C761 1.387 . S
C760 H764 0.950 . S
C760 C769 1.390 . S
C761 C760 1.387 . S
C761 C763 1.387 . S
H762 C769 0.950 . S
C763 C761 1.387 . S
C763 C765 1.390 . S
C763 H767 0.950 . S
H764 C760 0.950 . S
C765 C763 1.390 . S
C765 C766 1.387 . S
C765 H768 0.950 . S
C766 C765 1.387 . S
C766 C769 1.387 . S
H767 C763 0.950 . S
H768 C765 0.950 . S
C769 C760 1.390 . S
C769 H762 0.950 . S
C769 C766 1.387 . S
C770 C771 1.387 . S
C770 H774 0.950 . S
C770 C779 1.390 . S
C771 C770 1.387 . S
C771 C773 1.387 . S
H772 C779 0.950 . S
C773 C771 1.387 . S
C773 C775 1.390 . S
C773 H777 0.950 . S
H774 C770 0.950 . S
C775 C773 1.390 . S
C775 C776 1.387 . S
C775 H778 0.950 . S
C776 C775 1.387 . S
C776 C779 1.387 . S
H777 C773 0.950 . S
H778 C775 0.950 . S
C779 C770 1.390 . S
C779 H772 0.950 . S
C779 C776 1.387 . S
C780 C781 1.387 . S
C780 H784 0.950 . S
C780 C789 1.390 . S
C781 C780 1.387 . S
C781 C783 1.387 . S
H782 C789 0.950 . S
C783 C781 1.387 . S
C783 C785 1.390 . S
C783 H787 0.950 . S
H784 C780 0.950 . S
C785 C783 1.390 . S
C785 C786 1.387 . S
C785 H788 0.950 . S
C786 C785 1.387 . S
C786 C789 1.387 . S
H787 C783 0.950 . S
H788 C785 0.950 . S
C789 C780 1.390 . S
C789 H782 0.950 . S
C789 C786 1.387 . S
C790 C791 1.387 . S
C790 H794 0.950 . S
C790 C799 1.390 . S
C791 C790 1.387 . S
C791 C793 1.387 . S
H792 C799 0.950 . S
C793 C791 1.387 . S
C793 C795 1.390 . S
C793 H797 0.950 . S
H794 C790 0.950 . S
C795 C793 1.390 . S
C795 C796 1.387 . S
C795 H798 0.950 . S
C796 C795 1.387 . S
C796 C799 1.387 . S
H797 C793 0.950 . S
H798 C795 0.950 . S
C799 C790 1.390 . S
C799 H792 0.950 . S
C799 C796 1.387 . S
C800 C801 1.387 . S
C800 H804 0.950 . S
C800 C809 1.390 . S
C801 C800 1.387 . S
C801 C803 1.387 . S
H802 C809 0.950 . S
C803 C801 1.387 . S
C803 C805 1.390 . S
C803 H807 0.950 . S
H804 C800 0.950 . S
C805 C803 1.390 . S
C805 C806 1.387 . S
C805 H808 0.950 . S
C806 C805 1.387 . S
C806 C809 1.387 . S
H807 C803 0.950 . S
H808 C805 0.950 . S
C809 C800 1.390 . S
C809 H802 0.950 . S
C809 C806 1.387 . S
C810 C811 1.387 . S
C810 H814 0.950 . S
C810 C819 1.390 . S
C811 C810 1.387 . S
C811 C813 1.387 . S
H812 C819 0.950 . S
C813 C811 1.387 . S
C813 C815 1.390 . S
C813 H817 0.950 . S
H814 C810 0.950 . S
C815 C813 1.390 . S
C815 C816 1.387 . S
C815 H818 0.950 . S
C816 C815 1.387 . S
C816 C819 1.387 . S
H817 C813 0.950 . S
H818 C815 0.950 . S
C819 C810 1.390 . S
C819 H812 0.950 . S
C819 C816 1.387 . S
C820 C821 1.387 . S
C820 H824 0.950 . S
C820 C829 1.390 . S
C821 C820 1.387 . S
C821 C823 1.387 . S
H822 C829 0.950 . S
C823 C821 1.387 . S
C823 C825 1.390 . S
C823 H827 0.950 . S
H824 C820 0.950 . S
C825 C823 1.390 . S
C825 C826 1.387 . S
C825 H828 0.950 . S
C826 C825 1.387 . S
C826 C829 1.387 . S
H827 C823 0.950 . S
H828 C825 0.950 . S
C829 C820 1.390 . S
C829 H822 0.950 . S
C829 C826 1.387 . S
C830 C831 1.387 . S
C830 H834 0.950 . S
C830 C839 1.390 . S
C831 C830 1.387 . S
C831 C833 1.387 . S
H832 C839 0.950 . S
C833 C831 1.387 . S
C833 C835 1.390 . S
C833 H837 0.950 . S
H834 C830 0.950 . S
C835 C833 1.390 . S
C835 C836 1.387 . S
C835 H838 0.950 . S
C836 C835 1.387 . S
C836 C839 1.387 . S
H837 C833 0.950 . S
H838 C835 0.950 . S
C839 C830 1.390 . S
C839 H832 0.950 . S
C839 C836 1.387 . S
C840 C841 1.387 1_545 S
C840 H844 0.950 . S
C840 C849 1.390 . S
C841 C840 1.387 1_565 S
C841 C843 1.387 . S
H842 C849 0.950 . S
C843 C841 1.387 . S
C843 C845 1.390 . S
C843 H847 0.950 . S
H844 C840 0.950 . S
C845 C843 1.390 . S
C845 C846 1.387 . S
C845 H848 0.950 . S
C846 C845 1.387 . S
C846 C849 1.387 1_565 S
H847 C843 0.950 . S
H848 C845 0.950 . S
C849 C840 1.390 . S
C849 H842 0.950 . S
C849 C846 1.387 1_545 S
C850 C851 1.387 . S
C850 H854 0.950 . S
C850 C859 1.390 . S
C851 C850 1.387 . S
C851 C853 1.387 . S
H852 C859 0.950 . S
C853 C851 1.387 . S
C853 C855 1.390 . S
C853 H857 0.950 . S
H854 C850 0.950 . S
C855 C853 1.390 . S
C855 C856 1.387 . S
C855 H858 0.950 . S
C856 C855 1.387 . S
C856 C859 1.387 . S
H857 C853 0.950 . S
H858 C855 0.950 . S
C859 C850 1.390 . S
C859 H852 0.950 . S
C859 C856 1.387 . S
C860 C861 1.387 . S
C860 H864 0.950 . S
C860 C869 1.390 . S
C861 C860 1.387 . S
C861 C863 1.387 1_545 S
H862 C869 0.950 . S
C863 C861 1.387 1_565 S
C863 C865 1.390 . S
C863 H867 0.950 . S
H864 C860 0.950 . S
C865 C863 1.390 . S
C865 C866 1.387 1_565 S
C865 H868 0.950 . S
C866 C865 1.387 1_545 S
C866 C869 1.387 . S
H867 C863 0.950 . S
H868 C865 0.950 . S
C869 C860 1.390 . S
C869 H862 0.950 . S
C869 C866 1.387 . S
C870 C871 1.387 . S
C870 H874 0.950 . S
C870 C879 1.390 . S
C871 C870 1.387 . S
C871 C873 1.387 . S
H872 C879 0.950 . S
C873 C871 1.387 . S
C873 C875 1.390 . S
C873 H877 0.950 . S
H874 C870 0.950 . S
C875 C873 1.390 . S
C875 C876 1.387 . S
C875 H878 0.950 . S
C876 C875 1.387 . S
C876 C879 1.387 . S
H877 C873 0.950 . S
H878 C875 0.950 . S
C879 C870 1.390 . S
C879 H872 0.950 . S
C879 C876 1.387 . S
C880 C881 1.387 . S
C880 H884 0.950 . S
C880 C889 1.390 . S
C881 C880 1.387 . S
C881 C883 1.387 . S
H882 C889 0.950 . S
C883 C881 1.387 . S
C883 C885 1.390 . S
C883 H887 0.950 . S
H884 C880 0.950 . S
C885 C883 1.390 . S
C885 C886 1.387 . S
C885 H888 0.950 . S
C886 C885 1.387 . S
C886 C889 1.387 . S
H887 C883 0.950 . S
H888 C885 0.950 . S
C889 C880 1.390 . S
C889 H882 0.950 . S
C889 C886 1.387 . S
C890 C891 1.387 . S
C890 H894 0.950 . S
C890 C899 1.390 . S
C891 C890 1.387 . S
C891 C893 1.387 . S
H892 C899 0.950 . S
C893 C891 1.387 . S
C893 C895 1.390 . S
C893 H897 0.950 . S
H894 C890 0.950 . S
C895 C893 1.390 . S
C895 C896 1.387 . S
C895 H898 0.950 . S
C896 C895 1.387 . S
C896 C899 1.387 . S
H897 C893 0.950 . S
H898 C895 0.950 . S
C899 C890 1.390 . S
C899 H892 0.950 . S
C899 C896 1.387 . S
C900 C901 1.387 . S
C900 H904 0.950 . S
C900 C909 1.390 . S
C901 C900 1.387 . S
C901 C903 1.387 . S
H902 C909 0.950 . S
C903 C901 1.387 . S
C903 C905 1.390 . S
C903 H907 0.950 . S
H904 C900 0.950 . S
C905 C903 1.390 . S
C905 C906 1.387 . S
C905 H908 0.950 . S
C906 C905 1.387 . S
C906 C909 1.387 . S
H907 C903 0.950 . S
H908 C905 0.950 . S
C909 C900 1.390 . S
C909 H902 0.950 . S
C909 C906 1.387 . S
C910 C911 1.387 . S
C910 H914 0.950 . S
C910 C919 1.390 . S
C911 C910 1.387 . S
C911 C913 1.387 . S
H912 C919 0.950 . S
C913 C911 1.387 . S
C913 C915 1.390 . S
C913 H917 0.950 . S
H914 C910 0.950 . S
C915 C913 1.390 . S
C915 C916 1.387 . S
C915 H918 0.950 . S
C916 C915 1.387 . S
C916 C919 1.387 . S
H917 C913 0.950 . S
H918 C915 0.950 . S
C919 C910 1.390 . S
C919 H912 0.950 . S
C919 C916 1.387 . S
C920 C921 1.387 1_545 S
C920 H924 0.950 . S
C920 C929 1.390 . S
C921 C920 1.387 1_565 S
C921 C923 1.387 . S
H922 C929 0.950 . S
C923 C921 1.387 . S
C923 C925 1.390 . S
C923 H927 0.950 . S
H924 C920 0.950 . S
C925 C923 1.390 . S
C925 C926 1.387 . S
C925 H928 0.950 . S
C926 C925 1.387 . S
C926 C929 1.387 1_565 S
H927 C923 0.950 . S
H928 C925 0.950 . S
C929 C920 1.390 . S
C929 H922 0.950 . S
C929 C926 1.387 1_545 S
C930 C931 1.387 . S
C930 H934 0.950 . S
C930 C939 1.390 . S
C931 C930 1.387 . S
C931 C933 1.387 . S
H932 C939 0.950 . S
C933 C931 1.387 . S
C933 C935 1.390 . S
C933 H937 0.950 . S
H934 C930 0.950 . S
C935 C933 1.390 . S
C935 C936 1.387 . S
C935 H938 0.950 . S
C936 C935 1.387 . S
C936 C939 1.387 . S
H937 C933 0.950 . S
H938 C935 0.950 . S
C939 C930 1.390 . S
C939 H932 0.950 . S
C939 C936 1.387 . S
C940 C941 1.387 1_565 S
C940 H944 0.950 . S
C940 C949 1.390 . S
C941 C940 1.387 1_545 S
C941 C943 1.387 . S
H942 C949 0.950 . S
C943 C941 1.387 . S
C943 C945 1.390 . S
C943 H947 0.950 . S
H944 C940 0.950 . S
C945 C943 1.390 . S
C945 C946 1.387 . S
C945 H948 0.950 . S
C946 C945 1.387 . S
C946 C949 1.387 1_545 S
H947 C943 0.950 . S
H948 C945 0.950 . S
C949 C940 1.390 . S
C949 H942 0.950 . S
C949 C946 1.387 1_565 S
C950 C951 1.387 . S
C950 H954 0.950 . S
C950 C959 1.390 . S
C951 C950 1.387 . S
C951 C953 1.387 . S
H952 C959 0.950 . S
C953 C951 1.387 . S
C953 C955 1.390 . S
C953 H957 0.950 . S
H954 C950 0.950 . S
C955 C953 1.390 . S
C955 C956 1.387 . S
C955 H958 0.950 . S
C956 C955 1.387 . S
C956 C959 1.387 . S
H957 C953 0.950 . S
H958 C955 0.950 . S
C959 C950 1.390 . S
C959 H952 0.950 . S
C959 C956 1.387 . S
C960 C961 1.387 . S
C960 H964 0.950 . S
C960 C969 1.390 . S
C961 C960 1.387 . S
C961 C963 1.387 . S
H962 C969 0.950 . S
C963 C961 1.387 . S
C963 C965 1.390 . S
C963 H967 0.950 . S
H964 C960 0.950 . S
C965 C963 1.390 . S
C965 C966 1.387 . S
C965 H968 0.950 . S
C966 C965 1.387 . S
C966 C969 1.387 . S
H967 C963 0.950 . S
H968 C965 0.950 . S
C969 C960 1.390 . S
C969 H962 0.950 . S
C969 C966 1.387 . S
C970 C971 1.387 . S
C970 H974 0.950 . S
C970 C979 1.390 . S
C971 C970 1.387 . S
C971 C973 1.387 . S
H972 C979 0.950 . S
C973 C971 1.387 . S
C973 C975 1.390 . S
C973 H977 0.950 . S
H974 C970 0.950 . S
C975 C973 1.390 . S
C975 C976 1.387 . S
C975 H978 0.950 . S
C976 C975 1.387 . S
C976 C979 1.387 . S
H977 C973 0.950 . S
H978 C975 0.950 . S
C979 C970 1.390 . S
C979 H972 0.950 . S
C979 C976 1.387 . S
C980 C981 1.387 . S
C980 H984 0.950 . S
C980 C989 1.390 . S
C981 C980 1.387 . S
C981 C983 1.387 . S
H982 C989 0.950 . S
C983 C981 1.387 . S
C983 C985 1.390 . S
C983 H987 0.950 . S
H984 C980 0.950 . S
C985 C983 1.390 . S
C985 C986 1.387 . S
C985 H988 0.950 . S
C986 C985 1.387 . S
C986 C989 1.387 . S
H987 C983 0.950 . S
H988 C985 0.950 . S
C989 C980 1.390 . S
C989 H982 0.950 . S
C989 C986 1.387 . S
C990 C991 1.387 . S
C990 H994 0.950 . S
C990 C999 1.390 . S
C991 C990 1.387 . S
C991 C993 1.387 . S
H992 C999 0.950 . S
C993 C991 1.387 . S
C993 C995 1.390 . S
C993 H997 0.950 . S
H994 C990 0.950 . S
C995 C993 1.390 . S
C995 C996 1.387 . S
C995 H998 0.950 . S
C996 C995 1.387 . S
C996 C999 1.387 . S
H997 C993 0.950 . S
H998 C995 0.950 . S
C999 C990 1.390 . S
C999 H992 0.950 . S
C999 C996 1.387 . S
C1000 C1001 1.387 . S
C1000 H1004 0.950 . S
C1000 C1009 1.390 . S
C1001 C1000 1.387 . S
C1001 C1003 1.387 . S
H1002 C1009 0.950 . S
C1003 C1001 1.387 . S
C1003 C1005 1.390 . S
C1003 H1007 0.950 . S
H1004 C1000 0.950 . S
C1005 C1003 1.390 . S
C1005 C1006 1.387 . S
C1005 H1008 0.950 . S
C1006 C1005 1.387 . S
C1006 C1009 1.387 . S
H1007 C1003 0.950 . S
H1008 C1005 0.950 . S
C1009 C1000 1.390 . S
C1009 H1002 0.950 . S
C1009 C1006 1.387 . S
C1010 C1011 1.387 . S
C1010 H1014 0.950 . S
C1010 C1019 1.390 . S
C1011 C1010 1.387 . S
C1011 C1013 1.387 . S
H1012 C1019 0.950 . S
C1013 C1011 1.387 . S
C1013 C1015 1.390 . S
C1013 H1017 0.950 . S
H1014 C1010 0.950 . S
C1015 C1013 1.390 . S
C1015 C1016 1.387 . S
C1015 H1018 0.950 . S
C1016 C1015 1.387 . S
C1016 C1019 1.387 . S
H1017 C1013 0.950 . S
H1018 C1015 0.950 . S
C1019 C1010 1.390 . S
C1019 H1012 0.950 . S
C1019 C1016 1.387 . S
C1020 C1021 1.387 . S
C1020 H1024 0.950 . S
C1020 C1029 1.390 . S
C1021 C1020 1.387 . S
C1021 C1023 1.387 . S
H1022 C1029 0.950 . S
C1023 C1021 1.387 . S
C1023 C1025 1.390 . S
C1023 H1027 0.950 . S
H1024 C1020 0.950 . S
C1025 C1023 1.390 . S
C1025 C1026 1.387 . S
C1025 H1028 0.950 . S
C1026 C1025 1.387 . S
C1026 C1029 1.387 . S
H1027 C1023 0.950 . S
H1028 C1025 0.950 . S
C1029 C1020 1.390 . S
C1029 H1022 0.950 . S
C1029 C1026 1.387 . S
C1030 C1031 1.387 . S
C1030 H1034 0.950 . S
C1030 C1039 1.390 . S
C1031 C1030 1.387 . S
C1031 C1033 1.387 . S
H1032 C1039 0.950 . S
C1033 C1031 1.387 . S
C1033 C1035 1.390 . S
C1033 H1037 0.950 . S
H1034 C1030 0.950 . S
C1035 C1033 1.390 . S
C1035 C1036 1.387 . S
C1035 H1038 0.950 . S
C1036 C1035 1.387 . S
C1036 C1039 1.387 . S
H1037 C1033 0.950 . S
H1038 C1035 0.950 . S
C1039 C1030 1.390 . S
C1039 H1032 0.950 . S
C1039 C1036 1.387 . S
C1040 C1041 1.387 . S
C1040 H1044 0.950 . S
C1040 C1049 1.390 . S
C1041 C1040 1.387 . S
C1041 C1043 1.387 . S
H1042 C1049 0.950 . S
C1043 C1041 1.387 . S
C1043 C1045 1.390 . S
C1043 H1047 0.950 . S
H1044 C1040 0.950 . S
C1045 C1043 1.390 . S
C1045 C1046 1.387 . S
C1045 H1048 0.950 . S
C1046 C1045 1.387 . S
C1046 C1049 1.387 . S
H1047 C1043 0.950 . S
H1048 C1045 0.950 . S
C1049 C1040 1.390 . S
C1049 H1042 0.950 . S
C1049 C1046 1.387 . S
C1050 C1051 1.387 . S
C1050 H1054 0.950 . S
C1050 C1059 1.390 . S
C1051 C1050 1.387 . S
C1051 C1053 1.387 . S
H1052 C1059 0.950 . S
C1053 C1051 1.387 . S
C1053 C1055 1.390 . S
C1053 H1057 0.950 . S
H1054 C1050 0.950 . S
C1055 C1053 1.390 . S
C1055 C1056 1.387 . S
C1055 H1058 0.950 . S
C1056 C1055 1.387 . S
C1056 C1059 1.387 . S
H1057 C1053 0.950 . S
H1058 C1055 0.950 . S
C1059 C1050 1.390 . S
C1059 H1052 0.950 . S
C1059 C1056 1.387 . S
C1060 C1061 1.387 . S
C1060 H1064 0.950 . S
C1060 C1069 1.390 . S
C1061 C1060 1.387 . S
C1061 C1063 1.387 . S
H1062 C1069 0.950 . S
C1063 C1061 1.387 . S
C1063 C1065 1.390 . S
C1063 H1067 0.950 . S
H1064 C1060 0.950 . S
C1065 C1063 1.390 . S
C1065 C1066 1.387 . S
C1065 H1068 0.950 . S
C1066 C1065 1.387 . S
C1066 C1069 1.387 . S
H1067 C1063 0.950 . S
H1068 C1065 0.950 . S
C1069 C1060 1.390 . S
C1069 H1062 0.950 . S
C1069 C1066 1.387 . S
C1070 C1071 1.387 . S
C1070 H1074 0.950 . S
C1070 C1079 1.390 . S
C1071 C1070 1.387 . S
C1071 C1073 1.387 . S
H1072 C1079 0.950 . S
C1073 C1071 1.387 . S
C1073 C1075 1.390 . S
C1073 H1077 0.950 . S
H1074 C1070 0.950 . S
C1075 C1073 1.390 . S
C1075 C1076 1.387 . S
C1075 H1078 0.950 . S
C1076 C1075 1.387 . S
C1076 C1079 1.387 . S
H1077 C1073 0.950 . S
H1078 C1075 0.950 . S
C1079 C1070 1.390 . S
C1079 H1072 0.950 . S
C1079 C1076 1.387 . S
C1080 C1081 1.387 . S
C1080 H1084 0.950 . S
C1080 C1089 1.390 . S
C1081 C1080 1.387 . S
C1081 C1083 1.387 . S
H1082 C1089 0.950 . S
C1083 C1081 1.387 . S
C1083 C1085 1.390 . S
C1083 H1087 0.950 . S
H1084 C1080 0.950 . S
C1085 C1083 1.390 . S
C1085 C1086 1.387 . S
C1085 H1088 0.950 . S
C1086 C1085 1.387 . S
C1086 C1089 1.387 . S
H1087 C1083 0.950 . S
H1088 C1085 0.950 . S
C1089 C1080 1.390 . S
C1089 H1082 0.950 . S
C1089 C1086 1.387 . S
C1090 C1091 1.387 . S
C1090 H1094 0.950 . S
C1090 C1099 1.390 . S
C1091 C1090 1.387 . S
C1091 C1093 1.387 . S
H1092 C1099 0.950 . S
C1093 C1091 1.387 . S
C1093 C1095 1.390 . S
C1093 H1097 0.950 . S
H1094 C1090 0.950 . S
C1095 C1093 1.390 . S
C1095 C1096 1.387 . S
C1095 H1098 0.950 . S
C1096 C1095 1.387 . S
C1096 C1099 1.387 . S
H1097 C1093 0.950 . S
H1098 C1095 0.950 . S
C1099 C1090 1.390 . S
C1099 H1092 0.950 . S
C1099 C1096 1.387 . S
C1100 C1101 1.387 . S
C1100 H1104 0.950 . S
C1100 C1109 1.390 . S
C1101 C1100 1.387 . S
C1101 C1103 1.387 . S
H1102 C1109 0.950 . S
C1103 C1101 1.387 . S
C1103 C1105 1.390 . S
C1103 H1107 0.950 . S
H1104 C1100 0.950 . S
C1105 C1103 1.390 . S
C1105 C1106 1.387 . S
C1105 H1108 0.950 . S
C1106 C1105 1.387 . S
C1106 C1109 1.387 . S
H1107 C1103 0.950 . S
H1108 C1105 0.950 . S
C1109 C1100 1.390 . S
C1109 H1102 0.950 . S
C1109 C1106 1.387 . S
C1110 C1111 1.387 . S
C1110 H1114 0.950 . S
C1110 C1119 1.390 . S
C1111 C1110 1.387 . S
C1111 C1113 1.387 . S
H1112 C1119 0.950 . S
C1113 C1111 1.387 . S
C1113 C1115 1.390 . S
C1113 H1117 0.950 . S
H1114 C1110 0.950 . S
C1115 C1113 1.390 . S
C1115 C1116 1.387 . S
C1115 H1118 0.950 . S
C1116 C1115 1.387 . S
C1116 C1119 1.387 . S
H1117 C1113 0.950 . S
H1118 C1115 0.950 . S
C1119 C1110 1.390 . S
C1119 H1112 0.950 . S
C1119 C1116 1.387 . S
C1120 C1121 1.387 . S
C1120 H1124 0.950 . S
C1120 C1129 1.390 . S
C1121 C1120 1.387 . S
C1121 C1123 1.387 . S
H1122 C1129 0.950 . S
C1123 C1121 1.387 . S
C1123 C1125 1.390 . S
C1123 H1127 0.950 . S
H1124 C1120 0.950 . S
C1125 C1123 1.390 . S
C1125 C1126 1.387 . S
C1125 H1128 0.950 . S
C1126 C1125 1.387 . S
C1126 C1129 1.387 . S
H1127 C1123 0.950 . S
H1128 C1125 0.950 . S
C1129 C1120 1.390 . S
C1129 H1122 0.950 . S
C1129 C1126 1.387 . S
C1130 C1131 1.387 . S
C1130 H1134 0.950 . S
C1130 C1139 1.390 . S
C1131 C1130 1.387 . S
C1131 C1133 1.387 . S
H1132 C1139 0.950 . S
C1133 C1131 1.387 . S
C1133 C1135 1.390 . S
C1133 H1137 0.950 . S
H1134 C1130 0.950 . S
C1135 C1133 1.390 . S
C1135 C1136 1.387 . S
C1135 H1138 0.950 . S
C1136 C1135 1.387 . S
C1136 C1139 1.387 . S
H1137 C1133 0.950 . S
H1138 C1135 0.950 . S
C1139 C1130 1.390 . S
C1139 H1132 0.950 . S
C1139 C1136 1.387 . S
C1140 C1141 1.387 . S
C1140 H1144 0.950 . S
C1140 C1149 1.390 . S
C1141 C1140 1.387 . S
C1141 C1143 1.387 . S
H1142 C1149 0.950 . S
C1143 C1141 1.387 . S
C1143 C1145 1.390 . S
C1143 H1147 0.950 . S
H1144 C1140 0.950 . S
C1145 C1143 1.390 . S
C1145 C1146 1.387 . S
C1145 H1148 0.950 . S
C1146 C1145 1.387 . S
C1146 C1149 1.387 . S
H1147 C1143 0.950 . S
H1148 C1145 0.950 . S
C1149 C1140 1.390 . S
C1149 H1142 0.950 . S
C1149 C1146 1.387 . S
C1150 C1151 1.387 . S
C1150 H1154 0.950 . S
C1150 C1159 1.390 . S
C1151 C1150 1.387 . S
C1151 C1153 1.387 . S
H1152 C1159 0.950 . S
C1153 C1151 1.387 . S
C1153 C1155 1.390 . S
C1153 H1157 0.950 . S
H1154 C1150 0.950 . S
C1155 C1153 1.390 . S
C1155 C1156 1.387 . S
C1155 H1158 0.950 . S
C1156 C1155 1.387 . S
C1156 C1159 1.387 . S
H1157 C1153 0.950 . S
H1158 C1155 0.950 . S
C1159 C1150 1.390 . S
C1159 H1152 0.950 . S
C1159 C1156 1.387 . S
C1160 C1161 1.387 . S
C1160 H1164 0.950 . S
C1160 C1169 1.390 . S
C1161 C1160 1.387 . S
C1161 C1163 1.387 . S
H1162 C1169 0.950 . S
C1163 C1161 1.387 . S
C1163 C1165 1.390 . S
C1163 H1167 0.950 . S
H1164 C1160 0.950 . S
C1165 C1163 1.390 . S
C1165 C1166 1.387 . S
C1165 H1168 0.950 . S
C1166 C1165 1.387 . S
C1166 C1169 1.387 . S
H1167 C1163 0.950 . S
H1168 C1165 0.950 . S
C1169 C1160 1.390 . S
C1169 H1162 0.950 . S
C1169 C1166 1.387 . S
C1170 C1171 1.387 . S
C1170 H1174 0.950 . S
C1170 C1179 1.390 . S
C1171 C1170 1.387 . S
C1171 C1173 1.387 . S
H1172 C1179 0.950 . S
C1173 C1171 1.387 . S
C1173 C1175 1.390 . S
C1173 H1177 0.950 . S
H1174 C1170 0.950 . S
C1175 C1173 1.390 . S
C1175 C1176 1.387 . S
C1175 H1178 0.950 . S
C1176 C1175 1.387 . S
C1176 C1179 1.387 . S
H1177 C1173 0.950 . S
H1178 C1175 0.950 . S
C1179 C1170 1.390 . S
C1179 H1172 0.950 . S
C1179 C1176 1.387 . S
C1180 C1181 1.387 . S
C1180 H1184 0.950 . S
C1180 C1189 1.390 . S
C1181 C1180 1.387 . S
C1181 C1183 1.387 . S
H1182 C1189 0.950 . S
C1183 C1181 1.387 . S
C1183 C1185 1.390 . S
C1183 H1187 0.950 . S
H1184 C1180 0.950 . S
C1185 C1183 1.390 . S
C1185 C1186 1.387 . S
C1185 H1188 0.950 . S
C1186 C1185 1.387 . S
C1186 C1189 1.387 . S
H1187 C1183 0.950 . S
H1188 C1185 0.950 . S
C1189 C1180 1.390 . S
C1189 H1182 0.950 . S
C1189 C1186 1.387 . S
C1190 C1191 1.387 . S
C1190 H1194 0.950 . S
C1190 C1199 1.390 . S
C1191 C1190 1.387 . S
C1191 C1193 1.387 . S
H1192 C1199 0.950 . S
C1193 C1191 1.387 . S
C1193 C1195 1.390 . S
C1193 H1197 0.950 . S
H1194 C1190 0.950 . S
C1195 C1193 1.390 . S
C1195 C1196 1.387 . S
C1195 H1198 0.950 . S
C1196 C1195 1.387 . S
C1196 C1199 1.387 . S
H1197 C1193 0.950 . S
H1198 C1195 0.950 . S
C1199 C1190 1.390 . S
C1199 H1192 0.950 . S
C1199 C1196 1.387 . S
C1200 C1201 1.387 1_565 S
C1200 H1204 0.950 . S
C1200 C1209 1.390 . S
C1201 C1200 1.387 1_545 S
C1201 C1203 1.387 . S
H1202 C1209 0.950 . S
C1203 C1201 1.387 . S
C1203 C1205 1.390 . S
C1203 H1207 0.950 . S
H1204 C1200 0.950 . S
C1205 C1203 1.390 . S
C1205 C1206 1.387 1_545 S
C1205 H1208 0.950 . S
C1206 C1205 1.387 1_565 S
C1206 C1209 1.387 . S
H1207 C1203 0.950 . S
H1208 C1205 0.950 . S
C1209 C1200 1.390 . S
C1209 H1202 0.950 . S
C1209 C1206 1.387 . S
C1210 C1211 1.387 . S
C1210 H1214 0.950 . S
C1210 C1219 1.390 . S
C1211 C1210 1.387 . S
C1211 C1213 1.387 . S
H1212 C1219 0.950 . S
C1213 C1211 1.387 . S
C1213 C1215 1.390 . S
C1213 H1217 0.950 . S
H1214 C1210 0.950 . S
C1215 C1213 1.390 . S
C1215 C1216 1.387 . S
C1215 H1218 0.950 . S
C1216 C1215 1.387 . S
C1216 C1219 1.387 . S
H1217 C1213 0.950 . S
H1218 C1215 0.950 . S
C1219 C1210 1.390 . S
C1219 H1212 0.950 . S
C1219 C1216 1.387 . S
C1220 C1221 1.387 . S
C1220 H1224 0.950 . S
C1220 C1229 1.390 . S
C1221 C1220 1.387 . S
C1221 C1223 1.387 . S
H1222 C1229 0.950 . S
C1223 C1221 1.387 . S
C1223 C1225 1.390 . S
C1223 H1227 0.950 . S
H1224 C1220 0.950 . S
C1225 C1223 1.390 . S
C1225 C1226 1.387 . S
C1225 H1228 0.950 . S
C1226 C1225 1.387 . S
C1226 C1229 1.387 . S
H1227 C1223 0.950 . S
H1228 C1225 0.950 . S
C1229 C1220 1.390 . S
C1229 H1222 0.950 . S
C1229 C1226 1.387 . S
C1230 C1231 1.387 . S
C1230 H1234 0.950 . S
C1230 C1239 1.390 . S
C1231 C1230 1.387 . S
C1231 C1233 1.387 1_545 S
H1232 C1239 0.950 . S
C1233 C1231 1.387 1_565 S
C1233 C1235 1.390 . S
C1233 H1237 0.950 . S
H1234 C1230 0.950 . S
C1235 C1233 1.390 . S
C1235 C1236 1.387 . S
C1235 H1238 0.950 . S
C1236 C1235 1.387 . S
C1236 C1239 1.387 1_565 S
H1237 C1233 0.950 . S
H1238 C1235 0.950 . S
C1239 C1230 1.390 . S
C1239 H1232 0.950 . S
C1239 C1236 1.387 1_545 S
C1240 C1241 1.387 . S
C1240 H1244 0.950 . S
C1240 C1249 1.390 . S
C1241 C1240 1.387 . S
C1241 C1243 1.387 1_565 S
H1242 C1249 0.950 . S
C1243 C1241 1.387 1_545 S
C1243 C1245 1.390 . S
C1243 H1247 0.950 . S
H1244 C1240 0.950 . S
C1245 C1243 1.390 . S
C1245 C1246 1.387 . S
C1245 H1248 0.950 . S
C1246 C1245 1.387 . S
C1246 C1249 1.387 1_545 S
H1247 C1243 0.950 . S
H1248 C1245 0.950 . S
C1249 C1240 1.390 . S
C1249 H1242 0.950 . S
C1249 C1246 1.387 1_565 S
C1250 C1251 1.387 . S
C1250 H1254 0.950 . S
C1250 C1259 1.390 . S
C1251 C1250 1.387 . S
C1251 C1253 1.387 . S
H1252 C1259 0.950 . S
C1253 C1251 1.387 . S
C1253 C1255 1.390 . S
C1253 H1257 0.950 . S
H1254 C1250 0.950 . S
C1255 C1253 1.390 . S
C1255 C1256 1.387 . S
C1255 H1258 0.950 . S
C1256 C1255 1.387 . S
C1256 C1259 1.387 . S
H1257 C1253 0.950 . S
H1258 C1255 0.950 . S
C1259 C1250 1.390 . S
C1259 H1252 0.950 . S
C1259 C1256 1.387 . S
C1260 C1261 1.387 . S
C1260 H1264 0.950 . S
C1260 C1269 1.390 . S
C1261 C1260 1.387 . S
C1261 C1263 1.387 . S
H1262 C1269 0.950 . S
C1263 C1261 1.387 . S
C1263 C1265 1.390 . S
C1263 H1267 0.950 . S
H1264 C1260 0.950 . S
C1265 C1263 1.390 . S
C1265 C1266 1.387 . S
C1265 H1268 0.950 . S
C1266 C1265 1.387 . S
C1266 C1269 1.387 . S
H1267 C1263 0.950 . S
H1268 C1265 0.950 . S
C1269 C1260 1.390 . S
C1269 H1262 0.950 . S
C1269 C1266 1.387 . S
C1270 C1271 1.387 . S
C1270 H1274 0.950 . S
C1270 C1279 1.390 . S
C1271 C1270 1.387 . S
C1271 C1273 1.387 1_565 S
H1272 C1279 0.950 . S
C1273 C1271 1.387 1_545 S
C1273 C1275 1.390 . S
C1273 H1277 0.950 . S
H1274 C1270 0.950 . S
C1275 C1273 1.390 . S
C1275 C1276 1.387 . S
C1275 H1278 0.950 . S
C1276 C1275 1.387 . S
C1276 C1279 1.387 1_545 S
H1277 C1273 0.950 . S
H1278 C1275 0.950 . S
C1279 C1270 1.390 . S
C1279 H1272 0.950 . S
C1279 C1276 1.387 1_565 S
C1280 C1281 1.387 . S
C1280 H1284 0.950 . S
C1280 C1289 1.390 1_455 S
C1281 C1280 1.387 . S
C1281 C1283 1.387 . S
H1282 C1289 0.950 . S
C1283 C1281 1.387 . S
C1283 C1285 1.390 1_455 S
C1283 H1287 0.950 . S
H1284 C1280 0.950 . S
C1285 C1283 1.390 1_655 S
C1285 C1286 1.387 . S
C1285 H1288 0.950 . S
C1286 C1285 1.387 . S
C1286 C1289 1.387 . S
H1287 C1283 0.950 . S
H1288 C1285 0.950 . S
C1289 C1280 1.390 1_655 S
C1289 H1282 0.950 . S
C1289 C1286 1.387 . S
C1290 C1291 1.387 . S
C1290 H1294 0.950 . S
C1290 C1299 1.390 . S
C1291 C1290 1.387 . S
C1291 C1293 1.387 . S
H1292 C1299 0.950 . S
C1293 C1291 1.387 . S
C1293 C1295 1.390 . S
C1293 H1297 0.950 . S
H1294 C1290 0.950 . S
C1295 C1293 1.390 . S
C1295 C1296 1.387 . S
C1295 H1298 0.950 . S
C1296 C1295 1.387 . S
C1296 C1299 1.387 . S
H1297 C1293 0.950 . S
H1298 C1295 0.950 . S
C1299 C1290 1.390 . S
C1299 H1292 0.950 . S
C1299 C1296 1.387 . S
C1300 C1301 1.387 . S
C1300 H1304 0.950 . S
C1300 C1309 1.390 1_655 S
C1301 C1300 1.387 . S
C1301 C1303 1.387 . S
H1302 C1309 0.950 . S
C1303 C1301 1.387 . S
C1303 C1305 1.390 1_655 S
C1303 H1307 0.950 . S
H1304 C1300 0.950 . S
C1305 C1303 1.390 1_455 S
C1305 C1306 1.387 . S
C1305 H1308 0.950 . S
C1306 C1305 1.387 . S
C1306 C1309 1.387 . S
H1307 C1303 0.950 . S
H1308 C1305 0.950 . S
C1309 C1300 1.390 1_455 S
C1309 H1302 0.950 . S
C1309 C1306 1.387 . S
C1310 C1311 1.387 . S
C1310 H1314 0.950 . S
C1310 C1319 1.390 . S
C1311 C1310 1.387 . S
C1311 C1313 1.387 . S
H1312 C1319 0.950 . S
C1313 C1311 1.387 . S
C1313 C1315 1.390 . S
C1313 H1317 0.950 . S
H1314 C1310 0.950 . S
C1315 C1313 1.390 . S
C1315 C1316 1.387 . S
C1315 H1318 0.950 . S
C1316 C1315 1.387 . S
C1316 C1319 1.387 . S
H1317 C1313 0.950 . S
H1318 C1315 0.950 . S
C1319 C1310 1.390 . S
C1319 H1312 0.950 . S
C1319 C1316 1.387 . S
C1320 C1321 1.387 . S
C1320 H1324 0.950 . S
C1320 C1329 1.390 1_655 S
C1321 C1320 1.387 . S
C1321 C1323 1.387 . S
H1322 C1329 0.950 . S
C1323 C1321 1.387 . S
C1323 C1325 1.390 1_655 S
C1323 H1327 0.950 . S
H1324 C1320 0.950 . S
C1325 C1323 1.390 1_455 S
C1325 C1326 1.387 . S
C1325 H1328 0.950 . S
C1326 C1325 1.387 . S
C1326 C1329 1.387 . S
H1327 C1323 0.950 . S
H1328 C1325 0.950 . S
C1329 C1320 1.390 1_455 S
C1329 H1322 0.950 . S
C1329 C1326 1.387 . S
C1330 C1331 1.387 . S
C1330 H1334 0.950 . S
C1330 C1339 1.390 . S
C1331 C1330 1.387 . S
C1331 C1333 1.387 . S
H1332 C1339 0.950 . S
C1333 C1331 1.387 . S
C1333 C1335 1.390 . S
C1333 H1337 0.950 . S
H1334 C1330 0.950 . S
C1335 C1333 1.390 . S
C1335 C1336 1.387 . S
C1335 H1338 0.950 . S
C1336 C1335 1.387 . S
C1336 C1339 1.387 . S
H1337 C1333 0.950 . S
H1338 C1335 0.950 . S
C1339 C1330 1.390 . S
C1339 H1332 0.950 . S
C1339 C1336 1.387 . S
C1340 C1341 1.387 . S
C1340 H1344 0.950 . S
C1340 C1349 1.390 1_455 S
C1341 C1340 1.387 . S
C1341 C1343 1.387 . S
H1342 C1349 0.950 . S
C1343 C1341 1.387 . S
C1343 C1345 1.390 1_455 S
C1343 H1347 0.950 . S
H1344 C1340 0.950 . S
C1345 C1343 1.390 1_655 S
C1345 C1346 1.387 . S
C1345 H1348 0.950 . S
C1346 C1345 1.387 . S
C1346 C1349 1.387 . S
H1347 C1343 0.950 . S
H1348 C1345 0.950 . S
C1349 C1340 1.390 1_655 S
C1349 H1342 0.950 . S
C1349 C1346 1.387 . S
C1350 C1351 1.387 . S
C1350 H1354 0.950 . S
C1350 C1359 1.390 . S
C1351 C1350 1.387 . S
C1351 C1353 1.387 . S
H1352 C1359 0.950 . S
C1353 C1351 1.387 . S
C1353 C1355 1.390 . S
C1353 H1357 0.950 . S
H1354 C1350 0.950 . S
C1355 C1353 1.390 . S
C1355 C1356 1.387 . S
C1355 H1358 0.950 . S
C1356 C1355 1.387 . S
C1356 C1359 1.387 . S
H1357 C1353 0.950 . S
H1358 C1355 0.950 . S
C1359 C1350 1.390 . S
C1359 H1352 0.950 . S
C1359 C1356 1.387 . S
C1360 C1361 1.387 1_565 S
C1360 H1364 0.950 . S
C1360 C1369 1.390 1_655 S
C1361 C1360 1.387 1_545 S
C1361 C1363 1.387 . S
H1362 C1369 0.950 . S
C1363 C1361 1.387 . S
C1363 C1365 1.390 1_655 S
C1363 H1367 0.950 . S
H1364 C1360 0.950 . S
C1365 C1363 1.390 1_455 S
C1365 C1366 1.387 1_545 S
C1365 H1368 0.950 . S
C1366 C1365 1.387 1_565 S
C1366 C1369 1.387 . S
H1367 C1363 0.950 . S
H1368 C1365 0.950 . S
C1369 C1360 1.390 1_455 S
C1369 H1362 0.950 . S
C1369 C1366 1.387 . S
C1370 C1371 1.387 . S
C1370 H1374 0.950 . S
C1370 C1379 1.390 . S
C1371 C1370 1.387 . S
C1371 C1373 1.387 . S
H1372 C1379 0.950 . S
C1373 C1371 1.387 . S
C1373 C1375 1.390 . S
C1373 H1377 0.950 . S
H1374 C1370 0.950 . S
C1375 C1373 1.390 . S
C1375 C1376 1.387 . S
C1375 H1378 0.950 . S
C1376 C1375 1.387 . S
C1376 C1379 1.387 . S
H1377 C1373 0.950 . S
H1378 C1375 0.950 . S
C1379 C1370 1.390 . S
C1379 H1372 0.950 . S
C1379 C1376 1.387 . S
C1380 C1381 1.387 . S
C1380 H1384 0.950 . S
C1380 C1389 1.390 1_655 S
C1381 C1380 1.387 . S
C1381 C1383 1.387 . S
H1382 C1389 0.950 . S
C1383 C1381 1.387 . S
C1383 C1385 1.390 1_655 S
C1383 H1387 0.950 . S
H1384 C1380 0.950 . S
C1385 C1383 1.390 1_455 S
C1385 C1386 1.387 . S
C1385 H1388 0.950 . S
C1386 C1385 1.387 . S
C1386 C1389 1.387 . S
H1387 C1383 0.950 . S
H1388 C1385 0.950 . S
C1389 C1380 1.390 1_455 S
C1389 H1382 0.950 . S
C1389 C1386 1.387 . S
C1390 C1391 1.387 1_565 S
C1390 H1394 0.950 . S
C1390 C1399 1.390 . S
C1391 C1390 1.387 1_545 S
C1391 C1393 1.387 . S
H1392 C1399 0.950 . S
C1393 C1391 1.387 . S
C1393 C1395 1.390 . S
C1393 H1397 0.950 . S
H1394 C1390 0.950 . S
C1395 C1393 1.390 . S
C1395 C1396 1.387 1_545 S
C1395 H1398 0.950 . S
C1396 C1395 1.387 1_565 S
C1396 C1399 1.387 . S
H1397 C1393 0.950 . S
H1398 C1395 0.950 . S
C1399 C1390 1.390 . S
C1399 H1392 0.950 . S
C1399 C1396 1.387 . S
C1400 C1401 1.387 1_565 S
C1400 H1404 0.950 . S
C1400 C1409 1.390 1_655 S
C1401 C1400 1.387 1_545 S
C1401 C1403 1.387 . S
H1402 C1409 0.950 . S
C1403 C1401 1.387 . S
C1403 C1405 1.390 1_655 S
C1403 H1407 0.950 . S
H1404 C1400 0.950 . S
C1405 C1403 1.390 1_455 S
C1405 C1406 1.387 1_545 S
C1405 H1408 0.950 . S
C1406 C1405 1.387 1_565 S
C1406 C1409 1.387 . S
H1407 C1403 0.950 . S
H1408 C1405 0.950 . S
C1409 C1400 1.390 1_455 S
C1409 H1402 0.950 . S
C1409 C1406 1.387 . S
C1410 C1411 1.387 . S
C1410 H1414 0.950 . S
C1410 C1419 1.390 . S
C1411 C1410 1.387 . S
C1411 C1413 1.387 . S
H1412 C1419 0.950 . S
C1413 C1411 1.387 . S
C1413 C1415 1.390 . S
C1413 H1417 0.950 . S
H1414 C1410 0.950 . S
C1415 C1413 1.390 . S
C1415 C1416 1.387 . S
C1415 H1418 0.950 . S
C1416 C1415 1.387 . S
C1416 C1419 1.387 . S
H1417 C1413 0.950 . S
H1418 C1415 0.950 . S
C1419 C1410 1.390 . S
C1419 H1412 0.950 . S
C1419 C1416 1.387 . S
C1420 C1421 1.387 . S
C1420 H1424 0.950 . S
C1420 C1429 1.390 1_455 S
C1421 C1420 1.387 . S
C1421 C1423 1.387 . S
H1422 C1429 0.950 . S
C1423 C1421 1.387 . S
C1423 C1425 1.390 1_455 S
C1423 H1427 0.950 . S
H1424 C1420 0.950 . S
C1425 C1423 1.390 1_655 S
C1425 C1426 1.387 . S
C1425 H1428 0.950 . S
C1426 C1425 1.387 . S
C1426 C1429 1.387 . S
H1427 C1423 0.950 . S
H1428 C1425 0.950 . S
C1429 C1420 1.390 1_655 S
C1429 H1422 0.950 . S
C1429 C1426 1.387 . S
C1430 C1431 1.387 1_545 S
C1430 H1434 0.950 . S
C1430 C1439 1.390 . S
C1431 C1430 1.387 1_565 S
C1431 C1433 1.387 . S
H1432 C1439 0.950 . S
C1433 C1431 1.387 . S
C1433 C1435 1.390 . S
C1433 H1437 0.950 . S
H1434 C1430 0.950 . S
C1435 C1433 1.390 . S
C1435 C1436 1.387 1_565 S
C1435 H1438 0.950 . S
C1436 C1435 1.387 1_545 S
C1436 C1439 1.387 . S
H1437 C1433 0.950 . S
H1438 C1435 0.950 . S
C1439 C1430 1.390 . S
C1439 H1432 0.950 . S
C1439 C1436 1.387 . S
C1440 C1441 1.387 . S
C1440 H1444 0.950 . S
C1440 C1449 1.390 1_554 S
C1441 C1440 1.387 . S
C1441 C1443 1.387 1_455 S
H1442 C1449 0.950 . S
C1443 C1441 1.387 1_655 S
C1443 C1445 1.390 1_554 S
C1443 H1447 0.950 . S
H1444 C1440 0.950 . S
C1445 C1443 1.390 1_556 S
C1445 C1446 1.387 . S
C1445 H1448 0.950 . S
C1446 C1445 1.387 . S
C1446 C1449 1.387 1_655 S
H1447 C1443 0.950 . S
H1448 C1445 0.950 . S
C1449 C1440 1.390 1_556 S
C1449 H1442 0.950 . S
C1449 C1446 1.387 1_455 S
C1450 C1451 1.387 . S
C1450 H1454 0.950 . S
C1450 C1459 1.390 1_556 S
C1451 C1450 1.387 . S
C1451 C1453 1.387 . S
H1452 C1459 0.950 . S
C1453 C1451 1.387 . S
C1453 C1455 1.390 1_556 S
C1453 H1457 0.950 . S
H1454 C1450 0.950 . S
C1455 C1453 1.390 1_554 S
C1455 C1456 1.387 . S
C1455 H1458 0.950 . S
C1456 C1455 1.387 . S
C1456 C1459 1.387 . S
H1457 C1453 0.950 . S
H1458 C1455 0.950 . S
C1459 C1450 1.390 1_554 S
C1459 H1452 0.950 . S
C1459 C1456 1.387 . S
C1460 C1461 1.387 . S
C1460 H1464 0.950 . S
C1460 C1469 1.390 . S
C1461 C1460 1.387 . S
C1461 C1463 1.387 1_655 S
H1462 C1469 0.950 . S
C1463 C1461 1.387 1_455 S
C1463 C1465 1.390 . S
C1463 H1467 0.950 . S
H1464 C1460 0.950 . S
C1465 C1463 1.390 . S
C1465 C1466 1.387 . S
C1465 H1468 0.950 . S
C1466 C1465 1.387 . S
C1466 C1469 1.387 1_455 S
H1467 C1463 0.950 . S
H1468 C1465 0.950 . S
C1469 C1460 1.390 . S
C1469 H1462 0.950 . S
C1469 C1466 1.387 1_655 S
C1470 C1471 1.387 . S
C1470 H1474 0.950 . S
C1470 C1479 1.390 . S
C1471 C1470 1.387 . S
C1471 C1473 1.387 . S
H1472 C1479 0.950 . S
C1473 C1471 1.387 . S
C1473 C1475 1.390 . S
C1473 H1477 0.950 . S
H1474 C1470 0.950 . S
C1475 C1473 1.390 . S
C1475 C1476 1.387 . S
C1475 H1478 0.950 . S
C1476 C1475 1.387 . S
C1476 C1479 1.387 . S
H1477 C1473 0.950 . S
H1478 C1475 0.950 . S
C1479 C1470 1.390 . S
C1479 H1472 0.950 . S
C1479 C1476 1.387 . S
C1480 C1481 1.387 . S
C1480 H1484 0.950 . S
C1480 C1489 1.390 1_556 S
C1481 C1480 1.387 . S
C1481 C1483 1.387 . S
H1482 C1489 0.950 . S
C1483 C1481 1.387 . S
C1483 C1485 1.390 1_556 S
C1483 H1487 0.950 . S
H1484 C1480 0.950 . S
C1485 C1483 1.390 1_554 S
C1485 C1486 1.387 . S
C1485 H1488 0.950 . S
C1486 C1485 1.387 . S
C1486 C1489 1.387 . S
H1487 C1483 0.950 . S
H1488 C1485 0.950 . S
C1489 C1480 1.390 1_554 S
C1489 H1482 0.950 . S
C1489 C1486 1.387 . S
C1490 C1491 1.387 . S
C1490 H1494 0.950 . S
C1490 C1499 1.390 . S
C1491 C1490 1.387 . S
C1491 C1493 1.387 1_655 S
H1492 C1499 0.950 . S
C1493 C1491 1.387 1_455 S
C1493 C1495 1.390 . S
C1493 H1497 0.950 . S
H1494 C1490 0.950 . S
C1495 C1493 1.390 . S
C1495 C1496 1.387 . S
C1495 H1498 0.950 . S
C1496 C1495 1.387 . S
C1496 C1499 1.387 1_455 S
H1497 C1493 0.950 . S
H1498 C1495 0.950 . S
C1499 C1490 1.390 . S
C1499 H1492 0.950 . S
C1499 C1496 1.387 1_655 S
C1500 C1501 1.387 . S
C1500 H1504 0.950 . S
C1500 C1509 1.390 . S
C1501 C1500 1.387 . S
C1501 C1503 1.387 . S
H1502 C1509 0.950 . S
C1503 C1501 1.387 . S
C1503 C1505 1.390 . S
C1503 H1507 0.950 . S
H1504 C1500 0.950 . S
C1505 C1503 1.390 . S
C1505 C1506 1.387 . S
C1505 H1508 0.950 . S
C1506 C1505 1.387 . S
C1506 C1509 1.387 . S
H1507 C1503 0.950 . S
H1508 C1505 0.950 . S
C1509 C1500 1.390 . S
C1509 H1502 0.950 . S
C1509 C1506 1.387 . S
C1510 C1511 1.387 1_655 S
C1510 H1514 0.950 . S
C1510 C1519 1.390 . S
C1511 C1510 1.387 1_455 S
C1511 C1513 1.387 1_565 S
H1512 C1519 0.950 . S
C1513 C1511 1.387 1_545 S
C1513 C1515 1.390 . S
C1513 H1517 0.950 . S
H1514 C1510 0.950 . S
C1515 C1513 1.390 . S
C1515 C1516 1.387 1_455 S
C1515 H1518 0.950 . S
C1516 C1515 1.387 1_655 S
C1516 C1519 1.387 1_545 S
H1517 C1513 0.950 . S
H1518 C1515 0.950 . S
C1519 C1510 1.390 . S
C1519 H1512 0.950 . S
C1519 C1516 1.387 1_565 S
C1520 C1521 1.387 . S
C1520 H1524 0.950 . S
C1520 C1529 1.390 . S
C1521 C1520 1.387 . S
C1521 C1523 1.387 . S
H1522 C1529 0.950 . S
C1523 C1521 1.387 . S
C1523 C1525 1.390 . S
C1523 H1527 0.950 . S
H1524 C1520 0.950 . S
C1525 C1523 1.390 . S
C1525 C1526 1.387 . S
C1525 H1528 0.950 . S
C1526 C1525 1.387 . S
C1526 C1529 1.387 . S
H1527 C1523 0.950 . S
H1528 C1525 0.950 . S
C1529 C1520 1.390 . S
C1529 H1522 0.950 . S
C1529 C1526 1.387 . S
C1530 C1531 1.387 . S
C1530 H1534 0.950 . S
C1530 C1539 1.390 . S
C1531 C1530 1.387 . S
C1531 C1533 1.387 1_545 S
H1532 C1539 0.950 . S
C1533 C1531 1.387 1_565 S
C1533 C1535 1.390 . S
C1533 H1537 0.950 . S
H1534 C1530 0.950 . S
C1535 C1533 1.390 . S
C1535 C1536 1.387 . S
C1535 H1538 0.950 . S
C1536 C1535 1.387 . S
C1536 C1539 1.387 1_565 S
H1537 C1533 0.950 . S
H1538 C1535 0.950 . S
C1539 C1530 1.390 . S
C1539 H1532 0.950 . S
C1539 C1536 1.387 1_545 S
C1540 C1541 1.387 . S
C1540 H1544 0.950 . S
C1540 C1549 1.390 . S
C1541 C1540 1.387 . S
C1541 C1543 1.387 . S
H1542 C1549 0.950 . S
C1543 C1541 1.387 . S
C1543 C1545 1.390 . S
C1543 H1547 0.950 . S
H1544 C1540 0.950 . S
C1545 C1543 1.390 . S
C1545 C1546 1.387 . S
C1545 H1548 0.950 . S
C1546 C1545 1.387 . S
C1546 C1549 1.387 . S
H1547 C1543 0.950 . S
H1548 C1545 0.950 . S
C1549 C1540 1.390 . S
C1549 H1542 0.950 . S
C1549 C1546 1.387 . S
C1550 C1551 1.387 . S
C1550 H1554 0.950 . S
C1550 C1559 1.390 . S
C1551 C1550 1.387 . S
C1551 C1553 1.387 1_565 S
H1552 C1559 0.950 . S
C1553 C1551 1.387 1_545 S
C1553 C1555 1.390 . S
C1553 H1557 0.950 . S
H1554 C1550 0.950 . S
C1555 C1553 1.390 . S
C1555 C1556 1.387 . S
C1555 H1558 0.950 . S
C1556 C1555 1.387 . S
C1556 C1559 1.387 1_545 S
H1557 C1553 0.950 . S
H1558 C1555 0.950 . S
C1559 C1550 1.390 . S
C1559 H1552 0.950 . S
C1559 C1556 1.387 1_565 S
C1560 C1561 1.387 . S
C1560 H1564 0.950 . S
C1560 C1569 1.390 . S
C1561 C1560 1.387 . S
C1561 C1563 1.387 . S
H1562 C1569 0.950 . S
C1563 C1561 1.387 . S
C1563 C1565 1.390 . S
C1563 H1567 0.950 . S
H1564 C1560 0.950 . S
C1565 C1563 1.390 . S
C1565 C1566 1.387 . S
C1565 H1568 0.950 . S
C1566 C1565 1.387 . S
C1566 C1569 1.387 . S
H1567 C1563 0.950 . S
H1568 C1565 0.950 . S
C1569 C1560 1.390 . S
C1569 H1562 0.950 . S
C1569 C1566 1.387 . S
C1570 C1571 1.387 . S
C1570 H1574 0.950 . S
C1570 C1579 1.390 . S
C1571 C1570 1.387 . S
C1571 C1573 1.387 . S
H1572 C1579 0.950 . S
C1573 C1571 1.387 . S
C1573 C1575 1.390 . S
C1573 H1577 0.950 . S
H1574 C1570 0.950 . S
C1575 C1573 1.390 . S
C1575 C1576 1.387 . S
C1575 H1578 0.950 . S
C1576 C1575 1.387 . S
C1576 C1579 1.387 . S
H1577 C1573 0.950 . S
H1578 C1575 0.950 . S
C1579 C1570 1.390 . S
C1579 H1572 0.950 . S
C1579 C1576 1.387 . S
C1580 C1581 1.387 . S
C1580 H1584 0.950 . S
C1580 C1589 1.390 . S
C1581 C1580 1.387 . S
C1581 C1583 1.387 . S
H1582 C1589 0.950 . S
C1583 C1581 1.387 . S
C1583 C1585 1.390 . S
C1583 H1587 0.950 . S
H1584 C1580 0.950 . S
C1585 C1583 1.390 . S
C1585 C1586 1.387 . S
C1585 H1588 0.950 . S
C1586 C1585 1.387 . S
C1586 C1589 1.387 . S
H1587 C1583 0.950 . S
H1588 C1585 0.950 . S
C1589 C1580 1.390 . S
C1589 H1582 0.950 . S
C1589 C1586 1.387 . S
C1590 C1591 1.387 . S
C1590 H1594 0.950 . S
C1590 C1599 1.390 1_554 S
C1591 C1590 1.387 . S
C1591 C1593 1.387 1_565 S
H1592 C1599 0.950 . S
C1593 C1591 1.387 1_545 S
C1593 C1595 1.390 1_554 S
C1593 H1597 0.950 . S
H1594 C1590 0.950 . S
C1595 C1593 1.390 1_556 S
C1595 C1596 1.387 . S
C1595 H1598 0.950 . S
C1596 C1595 1.387 . S
C1596 C1599 1.387 1_545 S
H1597 C1593 0.950 . S
H1598 C1595 0.950 . S
C1599 C1590 1.390 1_556 S
C1599 H1592 0.950 . S
C1599 C1596 1.387 1_565 S
C641 C18 1.561 . S
C646 C518 1.561 . S
C651 C498 1.560 . S
C656 C38 1.560 . S
C661 C558 1.560 . S
C666 C58 1.560 . S
C671 C78 1.561 . S
C676 C538 1.561 . S
C681 C99 1.561 . S
C686 C599 1.561 . S
C691 C119 1.561 . S
C696 C579 1.561 . S
C701 C139 1.561 . S
C706 C639 1.561 . S
C711 C619 1.560 . S
C716 C159 1.560 . S
C721 C178 1.561 . S
C726 C358 1.561 . S
C731 C198 1.561 . S
C736 C338 1.561 . S
C741 C218 1.560 . S
C746 C398 1.560 . S
C751 C378 1.561 . S
C756 C238 1.561 . S
C761 C259 1.560 . S
C766 C439 1.560 . S
C771 C279 1.561 . S
C776 C419 1.561 . S
C781 C479 1.560 . S
C786 C299 1.560 . S
C791 C319 1.561 . S
C796 C459 1.561 . S
C801 C8 1.574 . S
C806 C68 1.574 . S
C811 C28 1.574 . S
C816 C48 1.574 . S
C821 C149 1.574 . S
C826 C89 1.574 . S
C831 C129 1.574 . S
C836 C109 1.574 . S
C841 C168 1.574 1_565 S
C846 C228 1.574 1_565 S
C851 C188 1.574 . S
C856 C208 1.574 . S
C861 C249 1.574 1_545 S
C866 C309 1.574 1_545 S
C871 C289 1.574 . S
C876 C269 1.574 . S
C881 C328 1.574 . S
C886 C388 1.574 . S
C891 C348 1.574 . S
C896 C368 1.574 . S
C901 C469 1.574 . S
C906 C409 1.574 . S
C911 C429 1.574 . S
C916 C449 1.574 . S
C921 C548 1.574 1_565 S
C926 C488 1.574 1_565 S
C931 C508 1.574 . S
C936 C528 1.574 . S
C941 C629 1.574 1_545 S
C946 C569 1.574 1_545 S
C951 C609 1.574 . S
C956 C589 1.574 . S
C961 C39 1.525 . S
C966 C19 1.525 . S
C971 C59 1.525 . S
C976 C79 1.525 . S
C981 C118 1.528 . S
C986 C98 1.528 . S
C991 C158 1.525 . S
C996 C138 1.525 . S
C1001 C179 1.528 . S
C1006 C199 1.528 . S
C1011 C219 1.528 . S
C1016 C239 1.528 . S
C1021 C278 1.525 . S
C1026 C258 1.525 . S
C1031 C298 1.525 . S
C1036 C318 1.525 . S
C1041 C339 1.525 . S
C1046 C359 1.525 . S
C1051 C399 1.525 . S
C1056 C379 1.525 . S
C1061 C418 1.525 . S
C1066 C438 1.525 . S
C1071 C458 1.528 . S
C1076 C478 1.528 . S
C1081 C499 1.528 . S
C1086 C519 1.528 . S
C1091 C539 1.528 . S
C1096 C559 1.528 . S
C1101 C598 1.525 . S
C1106 C578 1.525 . S
C1111 C618 1.525 . S
C1116 C638 1.525 . S
C1121 C2 1.587 . S
C1126 C1 1.587 . S
C1131 C22 1.584 . S
C1136 C21 1.584 . S
C1141 C42 1.584 . S
C1146 C41 1.584 . S
C1151 C61 1.587 . S
C1156 C62 1.587 . S
C1161 C82 1.584 . S
C1166 C81 1.584 . S
C1171 C101 1.584 . S
C1176 C102 1.584 . S
C1181 C122 1.584 . S
C1186 C121 1.584 . S
C1191 C142 1.584 . S
C1196 C141 1.584 . S
C1201 C161 1.584 . S
C1206 C162 1.584 . S
C1211 C182 1.587 . S
C1216 C181 1.587 . S
C1221 C202 1.587 . S
C1226 C201 1.587 . S
C1231 C221 1.587 . S
C1236 C222 1.587 . S
C1241 C242 1.587 . S
C1246 C241 1.587 . S
C1251 C261 1.584 . S
C1256 C262 1.584 . S
C1261 C281 1.584 . S
C1266 C282 1.584 . S
C1271 C302 1.584 . S
C1276 C301 1.584 . S
C1281 C322 1.587 . S
C1286 C321 1.587 . S
C1291 C341 1.585 . S
C1296 C342 1.585 . S
C1301 C361 1.584 . S
C1306 C362 1.584 . S
C1311 C382 1.584 . S
C1316 C381 1.584 . S
C1321 C401 1.584 . S
C1326 C402 1.584 . S
C1331 C421 1.584 . S
C1336 C422 1.584 . S
C1341 C442 1.586 . S
C1346 C441 1.586 . S
C1351 C461 1.584 . S
C1356 C462 1.584 . S
C1361 C481 1.584 . S
C1366 C482 1.584 . S
C1371 C502 1.584 . S
C1376 C501 1.584 . S
C1381 C521 1.584 . S
C1386 C522 1.584 . S
C1391 C541 1.584 . S
C1396 C542 1.584 . S
C1401 C561 1.584 . S
C1406 C562 1.584 . S
C1411 C581 1.584 . S
C1416 C582 1.584 . S
C1421 C602 1.587 . S
C1426 C601 1.587 . S
C1431 C622 1.584 . S
C1436 C621 1.584 . S
C1441 C9 1.464 . S
C1446 C88 1.464 . S
C1451 C588 1.461 . S
C1456 C29 1.461 . S
C1461 C288 1.464 . S
C1466 C49 1.464 . S
C1471 C69 1.464 . S
C1476 C468 1.464 . S
C1481 C108 1.462 . S
C1486 C509 1.462 . S
C1491 C128 1.462 . S
C1496 C209 1.462 . S
C1501 C148 1.464 . S
C1506 C389 1.464 . S
C1511 C169 1.461 . S
C1516 C248 1.461 . S
C1521 C428 1.462 . S
C1526 C189 1.462 . S
C1531 C628 1.464 . S
C1536 C229 1.464 . S
C1541 C268 1.464 . S
C1546 C349 1.464 . S
C1551 C549 1.461 . S
C1556 C308 1.461 . S
C1561 C329 1.464 . S
C1566 C408 1.464 . S
C1571 C608 1.461 . S
C1576 C369 1.461 . S
C1581 C448 1.461 . S
C1586 C529 1.461 . S
C1591 C489 1.461 . S
C1596 C568 1.461 . S
