# Generated by pormake.
# Topology swi, (7)-cn, num edge types: 1
# Building blocks:
#     Node 0, Type 0, BuildingBlock: HICVOG_clean_sbu_0, # of connection points: 7
#     Node 1, Type 0, BuildingBlock: HICVOG_clean_sbu_0, # of connection points: 7
#     Node 2, Type 0, BuildingBlock: HICVOG_clean_sbu_0, # of connection points: 7
#     Node 3, Type 0, BuildingBlock: HICVOG_clean_sbu_0, # of connection points: 7
#     Node 4, Type 0, BuildingBlock: HICVOG_clean_sbu_0, # of connection points: 7
#     Node 5, Type 0, BuildingBlock: HICVOG_clean_sbu_0, # of connection points: 7
#     Node 6, Type 0, BuildingBlock: HICVOG_clean_sbu_0, # of connection points: 7
#     Node 7, Type 0, BuildingBlock: HICVOG_clean_sbu_0, # of connection points: 7
#     Node 8, Type 0, BuildingBlock: HICVOG_clean_sbu_0, # of connection points: 7
#     Node 9, Type 0, BuildingBlock: HICVOG_clean_sbu_0, # of connection points: 7
#     Node 10, Type 0, BuildingBlock: HICVOG_clean_sbu_0, # of connection points: 7
#     Node 11, Type 0, BuildingBlock: HICVOG_clean_sbu_0, # of connection points: 7
#     Edge 12, Type (0, 0), BuildingBlock: AJUNOK_clean_linker_0, # of connection points: 2
#     Edge 13, Type (0, 0), BuildingBlock: AJUNOK_clean_linker_0, # of connection points: 2
#     Edge 14, Type (0, 0), BuildingBlock: AJUNOK_clean_linker_0, # of connection points: 2
#     Edge 15, Type (0, 0), BuildingBlock: AJUNOK_clean_linker_0, # of connection points: 2
#     Edge 16, Type (0, 0), BuildingBlock: AJUNOK_clean_linker_0, # of connection points: 2
#     Edge 17, Type (0, 0), BuildingBlock: AJUNOK_clean_linker_0, # of connection points: 2
#     Edge 18, Type (0, 0), BuildingBlock: AJUNOK_clean_linker_0, # of connection points: 2
#     Edge 19, Type (0, 0), BuildingBlock: AJUNOK_clean_linker_0, # of connection points: 2
#     Edge 20, Type (0, 0), BuildingBlock: AJUNOK_clean_linker_0, # of connection points: 2
#     Edge 21, Type (0, 0), BuildingBlock: AJUNOK_clean_linker_0, # of connection points: 2
#     Edge 22, Type (0, 0), BuildingBlock: AJUNOK_clean_linker_0, # of connection points: 2
#     Edge 23, Type (0, 0), BuildingBlock: AJUNOK_clean_linker_0, # of connection points: 2
#     Edge 24, Type (0, 0), BuildingBlock: AJUNOK_clean_linker_0, # of connection points: 2
#     Edge 25, Type (0, 0), BuildingBlock: AJUNOK_clean_linker_0, # of connection points: 2
#     Edge 26, Type (0, 0), BuildingBlock: AJUNOK_clean_linker_0, # of connection points: 2
#     Edge 27, Type (0, 0), BuildingBlock: AJUNOK_clean_linker_0, # of connection points: 2
#     Edge 28, Type (0, 0), BuildingBlock: AJUNOK_clean_linker_0, # of connection points: 2
#     Edge 29, Type (0, 0), BuildingBlock: AJUNOK_clean_linker_0, # of connection points: 2
#     Edge 30, Type (0, 0), BuildingBlock: AJUNOK_clean_linker_0, # of connection points: 2
#     Edge 31, Type (0, 0), BuildingBlock: AJUNOK_clean_linker_0, # of connection points: 2
#     Edge 32, Type (0, 0), BuildingBlock: AJUNOK_clean_linker_0, # of connection points: 2
#     Edge 33, Type (0, 0), BuildingBlock: AJUNOK_clean_linker_0, # of connection points: 2
#     Edge 34, Type (0, 0), BuildingBlock: AJUNOK_clean_linker_0, # of connection points: 2
#     Edge 35, Type (0, 0), BuildingBlock: AJUNOK_clean_linker_0, # of connection points: 2
#     Edge 36, Type (0, 0), BuildingBlock: AJUNOK_clean_linker_0, # of connection points: 2
#     Edge 37, Type (0, 0), BuildingBlock: AJUNOK_clean_linker_0, # of connection points: 2
#     Edge 38, Type (0, 0), BuildingBlock: AJUNOK_clean_linker_0, # of connection points: 2
#     Edge 39, Type (0, 0), BuildingBlock: AJUNOK_clean_linker_0, # of connection points: 2
#     Edge 40, Type (0, 0), BuildingBlock: AJUNOK_clean_linker_0, # of connection points: 2
#     Edge 41, Type (0, 0), BuildingBlock: AJUNOK_clean_linker_0, # of connection points: 2
#     Edge 42, Type (0, 0), BuildingBlock: AJUNOK_clean_linker_0, # of connection points: 2
#     Edge 43, Type (0, 0), BuildingBlock: AJUNOK_clean_linker_0, # of connection points: 2
#     Edge 44, Type (0, 0), BuildingBlock: AJUNOK_clean_linker_0, # of connection points: 2
#     Edge 45, Type (0, 0), BuildingBlock: AJUNOK_clean_linker_0, # of connection points: 2
#     Edge 46, Type (0, 0), BuildingBlock: AJUNOK_clean_linker_0, # of connection points: 2
#     Edge 47, Type (0, 0), BuildingBlock: AJUNOK_clean_linker_0, # of connection points: 2
#     Edge 48, Type (0, 0), BuildingBlock: AJUNOK_clean_linker_0, # of connection points: 2
#     Edge 49, Type (0, 0), BuildingBlock: AJUNOK_clean_linker_0, # of connection points: 2
#     Edge 50, Type (0, 0), BuildingBlock: AJUNOK_clean_linker_0, # of connection points: 2
#     Edge 51, Type (0, 0), BuildingBlock: AJUNOK_clean_linker_0, # of connection points: 2
#     Edge 52, Type (0, 0), BuildingBlock: AJUNOK_clean_linker_0, # of connection points: 2
#     Edge 53, Type (0, 0), BuildingBlock: AJUNOK_clean_linker_0, # of connection points: 2
# Relax obj value: 0.319
# Max RMSD: 0.248
# Mean RMSD: 0.248
data_MOF--net-swi--node1-HICVOG_clean_sbu_0--edge1-AJUNOK_clean_linker_0
_symmetry_space_group_name_H-M    P1
_symmetry_Int_Tables_number       1
_symmetry_cell_setting            triclinic
loop_
_symmetry_equiv_pos_as_xyz
'x, y, z'
_cell_length_a     30.759088
_cell_length_b     30.428555
_cell_length_c     30.411984
_cell_angle_alpha  90.081562
_cell_angle_beta   90.303085
_cell_angle_gamma 119.93316
loop_
_atom_site_label
_atom_site_type_symbol
_atom_site_fract_x
_atom_site_fract_y
_atom_site_fract_z
_atom_type_partial_charge
Zn0 Zn 0.40475 0.09214 0.9885 0.0
C1 C 0.51291 0.13699 0.08433 0.0
N2 N 0.52378 0.10405 0.06601 0.0
C3 C 0.4887 0.08137 1.0347 0.0
N4 N 0.45591 0.09943 1.03367 0.0
N5 N 0.47136 0.13354 0.06613 0.0
C6 C 0.51162 0.26532 0.07607 0.0
O7 O 0.49263 0.24406 1.03781 0.0
O8 O 0.34274 0.02206 0.98673 0.0
Zn9 Zn 0.44119 0.16778 0.09602 0.0
N10 N 0.43461 0.10694 0.92975 0.0
C11 C 0.47616 0.09171 0.87089 0.0
C12 C 0.45523 0.08027 0.91276 0.0
C13 C 0.43262 0.14362 0.90562 0.0
N14 N 0.47487 0.12885 0.84724 0.0
C15 C 0.45368 0.15561 0.86321 0.0
O16 O 0.3929 0.17834 0.06088 0.0
C17 C 0.37271 0.16981 1.02308 0.0
O18 O 0.37741 0.14079 0.99572 0.0
H19 H 0.45472 0.0498 0.93105 0.0
H20 H 0.41335 0.16185 0.91903 0.0
C21 C 0.41384 0.1629 0.18634 0.0
C22 C 0.39055 0.13907 0.22603 0.0
C23 C 0.36243 0.05891 0.19162 0.0
C24 C 0.38533 0.08287 0.15248 0.0
N25 N 0.41042 0.13428 0.1506 0.0
N26 N 0.36545 0.0874 0.22719 0.0
H27 H 0.43493 0.20374 0.18366 0.0
C28 C 0.30934 0.00547 1.01638 0.0
O29 O 0.31475 0.03482 0.05014 0.0
O30 O 0.49526 0.23868 0.11047 0.0
H31 H 0.38314 0.0608 0.12377 0.0
H32 H 0.49285 0.07084 0.85706 0.0
H33 H 0.34223 0.01797 0.19371 0.0
Zn34 Zn 0.2786 0.45783 0.08914 0.0
C35 C 0.40586 0.49719 1.02047 0.0
N36 N 0.42316 0.5322 0.05248 0.0
C37 C 0.38239 0.5226 0.07492 0.0
N38 N 0.34158 0.48141 0.05875 0.0
N39 N 0.35534 0.46528 1.02355 0.0
C40 C 0.30625 0.31135 0.97238 0.0
O41 O 0.28165 0.30806 0.93596 0.0
O42 O 0.26548 0.51543 0.09119 0.0
Zn43 Zn 0.30875 0.40804 0.98495 0.0
N44 N 0.28063 0.43661 0.14914 0.0
C45 C 0.30649 0.39401 0.19908 0.0
C46 C 0.30609 0.41162 0.15692 0.0
C47 C 0.25548 0.44497 0.18201 0.0
N48 N 0.28086 0.40156 0.23166 0.0
C49 C 0.25471 0.42625 0.22471 0.0
O50 O 0.23299 0.38037 0.99406 0.0
C51 C 0.20265 0.37888 1.02328 0.0
O52 O 0.2184 0.40432 0.05862 0.0
H53 H 0.32567 0.40525 0.13043 0.0
H54 H 0.23702 0.4664 0.1747 0.0
C55 C 0.28905 0.43464 0.89876 0.0
C56 C 0.29386 0.44006 0.85259 0.0
C57 C 0.36443 0.42814 0.85652 0.0
C58 C 0.35785 0.42034 0.90165 0.0
N59 N 0.32111 0.42478 0.92226 0.0
N60 N 0.3321 0.43718 0.83311 0.0
H61 H 0.25938 0.4367 0.91585 0.0
C62 C 0.26005 0.52847 0.0529 0.0
O63 O 0.26351 0.5038 1.01882 0.0
O64 O 0.3205 0.34978 0.99736 0.0
H65 H 0.38057 0.40868 0.91955 0.0
H66 H 0.32669 0.37411 0.20586 0.0
H67 H 0.39379 0.42501 0.8399 0.0
Zn68 Zn 0.90108 0.31404 1.00634 0.0
C69 C 0.8454 0.38138 0.08665 0.0
N70 N 0.88208 0.4247 0.07042 0.0
C71 C 0.90837 0.40991 0.0457 0.0
N72 N 0.88884 0.35872 0.04637 0.0
N73 N 0.85058 0.34182 0.07405 0.0
C74 C 0.71425 0.25711 0.09123 0.0
O75 O 0.72672 0.25261 0.05092 0.0
O76 O 0.96906 0.32062 1.01829 0.0
Zn77 Zn 0.81252 0.27714 0.10297 0.0
N78 N 0.89981 0.33302 0.94499 0.0
C79 C 0.93696 0.38883 0.8847 0.0
C80 C 0.93765 0.37701 0.92882 0.0
C81 C 0.86204 0.29943 0.91821 0.0
N82 N 0.89926 0.3554 0.85812 0.0
C83 C 0.86145 0.31027 0.87303 0.0
O84 O 0.79639 0.21812 0.06464 0.0
C85 C 0.81025 0.20566 1.02986 0.0
O86 O 0.84776 0.23816 1.00792 0.0
H87 H 0.96864 0.40216 0.94969 0.0
H88 H 0.83392 0.26431 0.93225 0.0
C89 C 0.81516 0.24614 0.1905 0.0
C90 C 0.83684 0.24113 0.22969 0.0
C91 C 0.91761 0.29174 0.19836 0.0
C92 C 0.89572 0.29573 0.15936 0.0
N93 N 0.845 0.27294 0.15627 0.0
N94 N 0.88784 0.26472 0.23243 0.0
H95 H 0.77501 0.22976 0.18722 0.0
C96 C 0.99073 0.30651 0.99065 0.0
O97 O 0.96752 0.28528 0.95361 0.0
O98 O 0.74621 0.26839 0.1218 0.0
H99 H 0.91883 0.31689 0.13185 0.0
H100 H 0.96666 0.42394 0.87142 0.0
H101 H 0.95798 0.30991 0.20153 0.0
Zn102 Zn 0.54424 0.82618 0.10062 0.0
C103 C 0.50276 0.9152 1.04128 0.0
N104 N 0.46685 0.89261 0.07159 0.0
C105 C 0.47235 0.85439 0.08593 0.0
N106 N 0.51349 0.85704 0.06829 0.0
N107 N 0.53152 0.89285 1.03781 0.0
C108 C 0.67453 0.9977 0.97083 0.0
O109 O 0.68155 0.97695 0.93568 0.0
O110 O 0.49041 0.75819 0.12064 0.0
Zn111 Zn 0.58067 0.89847 0.99232 0.0
N112 N 0.57794 0.86407 0.15268 0.0
C113 C 0.62818 0.94044 0.1926 0.0
C114 C 0.60257 0.91554 0.15417 0.0
C115 C 0.5775 0.83644 0.1879 0.0
N116 N 0.62784 0.91277 0.22784 0.0
C117 C 0.60264 0.86113 0.22669 0.0
O118 O 0.61364 0.85355 1.00172 0.0
C119 C 0.61591 0.82462 1.03099 0.0
O120 O 0.59156 0.81516 0.06644 0.0
H121 H 0.60278 0.93689 0.12567 0.0
H122 H 0.55867 0.79554 0.18521 0.0
C123 C 0.56028 0.85365 0.90402 0.0
C124 C 0.53331 0.83618 0.86385 0.0
C125 C 0.48348 0.87209 0.88474 0.0
C126 C 0.50971 0.88845 0.92426 0.0
N127 N 0.54763 0.87917 0.93363 0.0
N128 N 0.49561 0.84621 0.85578 0.0
H129 H 0.59071 0.84689 0.91194 0.0
C130 C 0.47041 0.72756 0.08892 0.0
O131 O 0.48726 0.74285 0.04902 0.0
O132 O 0.63655 0.97152 0.99494 0.0
H133 H 0.49904 0.90765 0.9472 0.0
H134 H 0.64838 0.98141 0.19434 0.0
H135 H 0.4531 0.87921 0.87738 0.0
Zn136 Zn 0.67943 0.59088 0.97642 0.0
C137 C 0.59749 0.47417 0.06181 0.0
N138 N 0.55745 0.46853 1.04028 0.0
C139 C 0.57587 0.5063 1.01094 0.0
N140 N 0.62701 0.53584 1.01448 0.0
N141 N 0.63907 0.5156 0.04795 0.0
C142 C 0.71779 0.45858 0.06914 0.0
O143 O 0.72354 0.47796 1.02958 0.0
O144 O 0.67462 0.65447 0.98005 0.0
Zn145 Zn 0.69829 0.53764 0.08368 0.0
N146 N 0.67028 0.5713 0.91415 0.0
C147 C 0.62166 0.55184 0.84837 0.0
C148 C 0.62691 0.56099 0.89351 0.0
C149 C 0.70919 0.57352 0.89092 0.0
N150 N 0.66039 0.55417 0.82531 0.0
C151 C 0.70439 0.56475 0.8451 0.0
O152 O 0.7615 0.58459 0.05516 0.0
C153 C 0.7808 0.61105 1.02124 0.0
O154 O 0.75382 0.61405 0.99069 0.0
H155 H 0.59716 0.56137 0.91157 0.0
H156 H 0.74396 0.58389 0.90772 0.0
C157 C 0.72426 0.5662 0.17197 0.0
C158 C 0.72759 0.59055 0.21221 0.0
C159 C 0.67132 0.61593 0.1837 0.0
C160 C 0.66935 0.59277 0.14348 0.0
N161 N 0.69585 0.56839 0.13853 0.0
N162 N 0.70031 0.61437 0.21693 0.0
H163 H 0.74366 0.54522 0.16699 0.0
C164 C 0.69003 0.68417 1.01302 0.0
O165 O 0.7097 0.67311 0.04671 0.0
O166 O 0.70528 0.47781 0.10007 0.0
H167 H 0.64716 0.59432 0.11644 0.0
H168 H 0.58734 0.54379 0.8316 0.0
H169 H 0.65031 0.63537 0.18837 0.0
Zn170 Zn 0.16655 0.70392 0.07704 0.0
C171 C 0.0821 0.59376 0.98941 0.0
N172 N 0.12494 0.5934 0.98276 0.0
C173 C 0.15728 0.62918 1.0103 0.0
N174 N 0.13602 0.6524 1.03145 0.0
N175 N 0.09086 0.63477 1.01397 0.0
C176 C 0.995 0.68451 1.01757 0.0
O177 O 0.02272 0.70424 0.05301 0.0
O178 O 0.23433 0.71455 0.09302 0.0
Zn179 Zn 0.08399 0.68632 0.98011 0.0
N180 N 0.13137 0.69151 0.1323 0.0
C181 C 0.06095 0.65691 0.17979 0.0
C182 C 0.08151 0.65987 0.13821 0.0
C183 C 0.16141 0.72019 0.16606 0.0
N184 N 0.09092 0.68648 0.21328 0.0
C185 C 0.14092 0.71891 0.20757 0.0
O186 O 0.13506 0.76172 0.99429 0.0
C187 C 0.16809 0.78945 1.02292 0.0
O188 O 0.18003 0.77062 0.05479 0.0
H189 H 0.05806 0.63749 0.111 0.0
H190 H 0.20112 0.74376 0.1602 0.0
C191 C 0.12902 0.70999 0.89238 0.0
C192 C 0.12983 0.69977 0.84714 0.0
C193 C 0.05478 0.62074 0.85617 0.0
C194 C 0.05347 0.63178 0.90025 0.0
N195 N 0.09088 0.6755 0.91788 0.0
N196 N 0.09268 0.65479 0.83088 0.0
H197 H 0.15729 0.74517 0.90702 0.0
C198 C 0.26761 0.73297 0.06361 0.0
O199 O 0.25569 0.74269 1.02468 0.0
O200 O 0.01352 0.67398 0.98479 0.0
H201 H 0.02256 0.60579 0.92019 0.0
H202 H 0.02133 0.63176 0.18525 0.0
H203 H 0.02553 0.58572 0.84192 0.0
Zn204 Zn 0.82312 0.53956 0.49293 0.0
C205 C 0.92565 0.51563 0.55204 0.0
N206 N 0.90165 0.47293 0.52814 0.0
C207 C 0.86169 0.47432 0.51262 0.0
N208 N 0.86184 0.51661 0.52563 0.0
N209 N 0.90107 0.54248 0.55199 0.0
C210 C 0.99568 0.67762 0.56594 0.0
O211 O 0.9654 0.66707 0.53201 0.0
O212 O 0.75427 0.4811 0.48092 0.0
Zn213 Zn 0.90477 0.59289 0.59576 0.0
N214 N 0.85434 0.56779 0.43715 0.0
C215 C 0.92744 0.61365 0.3939 0.0
C216 C 0.905 0.59114 0.43357 0.0
C217 C 0.825 0.56581 0.40265 0.0
N218 N 0.89826 0.6121 0.35956 0.0
C219 C 0.84732 0.5888 0.36244 0.0
O220 O 0.86026 0.6246 0.58332 0.0
C221 C 0.82728 0.62152 0.55591 0.0
O222 O 0.81317 0.59136 0.52338 0.0
H223 H 0.9277 0.59255 0.46142 0.0
H224 H 0.78477 0.54629 0.40684 0.0
C225 C 0.86224 0.57615 0.6849 0.0
C226 C 0.83789 0.54599 0.72208 0.0
C227 C 0.84607 0.47893 0.69102 0.0
C228 C 0.86759 0.5078 0.65367 0.0
N229 N 0.87751 0.5566 0.65173 0.0
N230 N 0.83141 0.49843 0.72399 0.0
H231 H 0.86748 0.61391 0.6817 0.0
C232 C 0.72799 0.46432 0.51527 0.0
O233 O 0.74814 0.48562 0.55325 0.0
O234 O 0.97829 0.65079 0.60047 0.0
H235 H 0.87451 0.49041 0.62591 0.0
H236 H 0.96778 0.63255 0.39046 0.0
H237 H 0.83903 0.44043 0.69302 0.0
Zn238 Zn 0.31272 0.89845 0.60202 0.0
C239 C 0.39985 0.88866 0.50448 0.0
N240 N 0.43747 0.9232 0.52889 0.0
C241 C 0.41468 0.93194 0.56242 0.0
N242 N 0.36376 0.90468 0.55842 0.0
N243 N 0.35518 0.87852 0.5211 0.0
C244 C 0.28317 0.75019 0.52836 0.0
O245 O 0.28781 0.78129 0.56041 0.0
O246 O 0.32443 0.97051 0.61348 0.0
Zn247 Zn 0.29371 0.83351 0.48992 0.0
N248 N 0.32128 0.86826 0.65604 0.0
C249 C 0.36548 0.83641 0.69767 0.0
C250 C 0.36059 0.85983 0.66015 0.0
C251 C 0.28479 0.85102 0.68721 0.0
N252 N 0.32904 0.81905 0.72853 0.0
C253 C 0.2881 0.82472 0.72407 0.0
O254 O 0.23068 0.82035 0.5188 0.0
C255 C 0.21034 0.82573 0.55294 0.0
O256 O 0.237 0.85245 0.58543 0.0
H257 H 0.38716 0.86953 0.63407 0.0
H258 H 0.2528 0.85632 0.68255 0.0
C259 C 0.2657 0.82548 0.39756 0.0
C260 C 0.26329 0.84545 0.35617 0.0
C261 C 0.31765 0.92861 0.38435 0.0
C262 C 0.31942 0.90859 0.42494 0.0
N263 N 0.29352 0.85762 0.43083 0.0
N264 N 0.28967 0.89682 0.35137 0.0
H265 H 0.24588 0.78517 0.40372 0.0
C266 C 0.31317 0.99044 0.58176 0.0
O267 O 0.29407 0.96308 0.54597 0.0
O268 O 0.28656 0.76516 0.48895 0.0
H269 H 0.34064 0.93348 0.45188 0.0
H270 H 0.39705 0.83026 0.70143 0.0
H271 H 0.33791 0.96916 0.37914 0.0
Zn272 Zn 0.4524 0.28465 0.50812 0.0
C273 C 0.49411 0.41554 0.57339 0.0
N274 N 0.53215 0.4293 0.54536 0.0
C275 C 0.5236 0.38617 0.52695 0.0
N276 N 0.48058 0.34704 0.54161 0.0
N277 N 0.46184 0.36394 0.57248 0.0
C278 C 0.31632 0.30935 0.57492 0.0
O279 O 0.32535 0.28682 0.54226 0.0
O280 O 0.5074 0.2719 0.48914 0.0
Zn281 Zn 0.40683 0.31488 0.61315 0.0
N282 N 0.41946 0.28708 0.45463 0.0
C283 C 0.37273 0.31454 0.41178 0.0
C284 C 0.39677 0.31542 0.45111 0.0
C285 C 0.41936 0.25808 0.42048 0.0
N286 N 0.37224 0.2852 0.37777 0.0
C287 C 0.39459 0.2563 0.38095 0.0
O288 O 0.38139 0.23698 0.60508 0.0
C289 C 0.38215 0.20691 0.57607 0.0
O290 O 0.40625 0.2233 0.54066 0.0
H291 H 0.39746 0.33847 0.47851 0.0
H292 H 0.43924 0.23738 0.42418 0.0
C293 C 0.43065 0.29359 0.70037 0.0
C294 C 0.44734 0.305 0.74458 0.0
C295 C 0.46276 0.389 0.73365 0.0
C296 C 0.44558 0.37709 0.6905 0.0
N297 N 0.43071 0.33009 0.67424 0.0
N298 N 0.4633 0.35296 0.75939 0.0
H299 H 0.41664 0.25605 0.68686 0.0
C300 C 0.52658 0.25966 0.52031 0.0
O301 O 0.51052 0.25822 0.56051 0.0
O302 O 0.34503 0.32304 0.6085 0.0
H303 H 0.44345 0.40495 0.67043 0.0
H304 H 0.35453 0.33696 0.40829 0.0
H305 H 0.47509 0.42649 0.74681 0.0
Zn306 Zn 0.0961 0.40774 0.60182 0.0
C307 C 0.1724 0.54643 0.57778 0.0
N308 N 0.13862 0.54802 0.60426 0.0
C309 C 0.09779 0.50221 0.59913 0.0
N310 N 0.10908 0.47182 0.5747 0.0
N311 N 0.15406 0.50099 0.55795 0.0
C312 C 0.28442 0.55673 0.52548 0.0
O313 O 0.2731 0.53935 0.5658 0.0
O314 O 0.02496 0.35339 0.5873 0.0
Zn315 Zn 0.1838 0.48036 0.51165 0.0
N316 N 0.0988 0.4182 0.66514 0.0
C317 C 0.05862 0.4256 0.72902 0.0
C318 C 0.0587 0.41791 0.6839 0.0
C319 C 0.13887 0.42525 0.68989 0.0
N320 N 0.09852 0.43281 0.75374 0.0
C321 C 0.1391 0.43312 0.73566 0.0
O322 O 0.19642 0.426 0.53234 0.0
C323 C 0.18166 0.39133 0.56105 0.0
O324 O 0.14634 0.38274 0.58778 0.0
H325 H 0.02684 0.41123 0.66385 0.0
H326 H 0.16926 0.42329 0.67409 0.0
C327 C 0.17272 0.45916 0.4208 0.0
C328 C 0.14837 0.44132 0.37979 0.0
C329 C 0.07172 0.42416 0.41361 0.0
C330 C 0.09616 0.44121 0.45408 0.0
N331 N 0.14611 0.45827 0.45684 0.0
N332 N 0.09815 0.42437 0.3778 0.0
H333 H 0.21255 0.4739 0.42458 0.0
C334 C -6e-05 0.3139 0.61059 0.0
O335 O 0.02216 0.30567 0.644 0.0
O336 O 0.25143 0.53718 0.49552 0.0
H337 H 0.07555 0.44055 0.48302 0.0
H338 H 0.02689 0.42542 0.7444 0.0
H339 H 0.03189 0.41038 0.41074 0.0
Zn340 Zn 0.70466 0.16479 0.51358 0.0
C341 C 0.58079 0.08331 0.58709 0.0
N342 N 0.56377 0.10255 0.55629 0.0
C343 C 0.60434 0.13358 0.53361 0.0
N344 N 0.64483 0.13241 0.54879 0.0
N345 N 0.63145 0.10205 0.58371 0.0
C346 C 0.69574 0.01618 0.59758 0.0
O347 O 0.72147 0.04773 0.56594 0.0
O348 O 0.71667 0.23238 0.49353 0.0
Zn349 Zn 0.68196 0.09999 0.62516 0.0
N350 N 0.69974 0.12729 0.46053 0.0
C351 C 0.66915 0.05075 0.4197 0.0
C352 C 0.67182 0.07594 0.45889 0.0
C353 C 0.72517 0.15459 0.42464 0.0
N354 N 0.69462 0.07799 0.3839 0.0
C355 C 0.72289 0.12958 0.38497 0.0
O356 O 0.75677 0.15115 0.61247 0.0
C357 C 0.78488 0.17917 0.58165 0.0
O358 O 0.7668 0.18243 0.54521 0.0
H359 H 0.6518 0.05489 0.4877 0.0
H360 H 0.74635 0.19548 0.4271 0.0
C361 C 0.71159 0.15275 0.7089 0.0
C362 C 0.70438 0.16489 0.75218 0.0
C363 C 0.61821 0.10165 0.74633 0.0
C364 C 0.62588 0.08984 0.70392 0.0
N365 N 0.67191 0.11634 0.68541 0.0
N366 N 0.65734 0.13863 0.76925 0.0
H367 H 0.74832 0.17036 0.69433 0.0
C368 C 0.73163 0.26602 0.52332 0.0
O369 O 0.73407 0.25326 0.56414 0.0
O370 O 0.6754 0.03027 0.6264 0.0
H371 H 0.59557 0.05906 0.6864 0.0
H372 H 0.64701 0.00984 0.41772 0.0
H373 H 0.58156 0.08107 0.76125 0.0
Zn374 Zn 0.59859 0.6922 0.61115 0.0
C375 C 0.48255 0.63073 0.52259 0.0
N376 N 0.47005 0.58676 0.54167 0.0
C377 C 0.50653 0.59855 0.57147 0.0
N378 N 0.54154 0.64913 0.5706 0.0
N379 N 0.52588 0.66809 0.53879 0.0
C380 C 0.5095 0.79081 0.47488 0.0
O381 O 0.5564 0.82487 0.46692 0.0
O382 O 0.65523 0.67648 0.60366 0.0
Zn383 Zn 0.55432 0.73173 0.50826 0.0
N384 N 0.57644 0.67672 0.67205 0.0
C385 C 0.55703 0.62336 0.73458 0.0
C386 C 0.57095 0.63371 0.69067 0.0
C387 C 0.57031 0.71093 0.69629 0.0
N388 N 0.55063 0.65726 0.75862 0.0
C389 C 0.55695 0.70119 0.74101 0.0
O390 O 0.60227 0.78909 0.54403 0.0
C391 C 0.62807 0.80264 0.57908 0.0
O392 O 0.62844 0.77046 0.60582 0.0
H393 H 0.57865 0.60831 0.67206 0.0
H394 H 0.57785 0.74603 0.68112 0.0
C395 C 0.58053 0.74668 0.41692 0.0
C396 C 0.61028 0.75172 0.38041 0.0
C397 C 0.65095 0.71657 0.42191 0.0
C398 C 0.62206 0.71286 0.4585 0.0
N399 N 0.58805 0.72884 0.4555 0.0
N400 N 0.64512 0.73678 0.38401 0.0
H401 H 0.55316 0.75886 0.41502 0.0
C402 C 0.6923 0.7011 0.57822 0.0
O403 O 0.69481 0.73874 0.55514 0.0
O404 O 0.49978 0.74867 0.49192 0.0
H405 H 0.62732 0.69835 0.48928 0.0
H406 H 0.55238 0.58915 0.74974 0.0
H407 H 0.67858 0.70456 0.42389 0.0
C408 C 0.24521 0.92781 0.0553 0.0
C409 C 0.2682 0.95168 1.01566 0.0
C410 C 0.21074 0.87566 0.05677 0.0
C411 C 0.19691 0.84538 1.01855 0.0
H412 H 0.25559 0.94899 0.08591 0.0
H413 H 0.19592 0.85856 0.08843 0.0
S414 S 0.24344 0.88965 0.90591 0.0
N415 N 0.27274 0.94125 0.93672 0.0
N416 N 0.20714 0.84336 0.93962 0.0
C417 C 0.21755 0.86908 0.97834 0.0
C418 C 0.25343 0.92216 0.97688 0.0
C419 C 0.33305 0.26934 1.02786 0.0
C420 C 0.31843 0.27147 0.98444 0.0
C421 C 0.34789 0.23455 1.04019 0.0
C422 C 0.34927 0.20037 1.00962 0.0
H423 H 0.33377 0.29531 0.05265 0.0
H424 H 0.35983 0.23572 0.07396 0.0
S425 S 0.31202 0.18863 0.89188 0.0
N426 N 0.30416 0.23504 0.91088 0.0
N427 N 0.33185 0.16922 0.93413 0.0
C428 C 0.3329 0.20075 0.96631 0.0
C429 C 0.31762 0.23638 0.95371 0.0
C430 C 0.06481 0.3351 1.04068 0.0
C431 C 0.04311 0.31785 0.99893 0.0
C432 C 0.11562 0.35203 0.0485 0.0
C433 C 0.1474 0.35247 1.01495 0.0
H434 H 0.04275 0.33706 0.06747 0.0
H435 H 0.13032 0.36652 0.08104 0.0
S436 S 0.10736 0.30368 0.9013 0.0
N437 N 0.05601 0.29688 0.92461 0.0
N438 N 0.1517 0.32858 0.93941 0.0
C439 C 0.12547 0.33204 0.97374 0.0
C440 C 0.07338 0.31477 0.96572 0.0
C441 C 0.70705 0.06763 1.02638 0.0
C442 C 0.71128 0.05068 0.9844 0.0
C443 C 0.74004 0.11705 1.04076 0.0
C444 C 0.77902 0.15235 1.01389 0.0
H445 H 0.67779 0.04256 0.04866 0.0
H446 H 0.7343 0.12763 0.07333 0.0
S447 S 0.80681 0.12748 0.90079 0.0
N448 N 0.75794 0.07323 0.91588 0.0
N449 N 0.82018 0.16648 0.94298 0.0
C450 C 0.78428 0.13591 0.9719 0.0
C451 C 0.75042 0.08513 0.95716 0.0
C452 C 0.6738 0.74336 0.05735 0.0
C453 C 0.67935 0.72652 1.01591 0.0
C454 C 0.65644 0.77779 0.0614 0.0
C455 C 0.64415 0.79724 1.02421 0.0
H456 H 0.68042 0.72795 0.08708 0.0
H457 H 0.65069 0.78763 0.09428 0.0
S458 S 0.66134 0.77227 0.90806 0.0
N459 N 0.67768 0.7367 0.93674 0.0
N460 N 0.64531 0.80198 0.94441 0.0
C461 C 0.65346 0.78391 0.98248 0.0
C462 C 0.67082 0.74829 0.97834 0.0
C463 C 0.91649 0.66642 0.05647 0.0
C464 C 0.94154 0.67126 1.01674 0.0
C465 C 0.86496 0.64921 0.0571 0.0
C466 C 0.83627 0.63671 1.01801 0.0
H467 H 0.93636 0.67414 0.08758 0.0
H468 H 0.84717 0.64442 0.08877 0.0
S469 S 0.88481 0.64763 0.90484 0.0
N470 N 0.93446 0.66558 0.93683 0.0
N471 N 0.83758 0.63382 0.93824 0.0
C472 C 0.86127 0.64396 0.97786 0.0
C473 C 0.91384 0.66093 0.97718 0.0
C474 C 0.07877 0.74233 0.60018 0.0
C475 C 0.04948 0.71841 0.56249 0.0
C476 C 0.13008 0.77951 0.597 0.0
C477 C 0.15435 0.79378 0.556 0.0
H478 H 0.06194 0.73206 0.63242 0.0
H479 H 0.15126 0.79589 0.62695 0.0
S480 S 0.09353 0.74538 0.44687 0.0
N481 N 0.04826 0.71412 0.48259 0.0
N482 N 0.14349 0.78325 0.47656 0.0
C483 C 0.12474 0.77154 0.51799 0.0
C484 C 0.07276 0.7341 0.52123 0.0
C485 C 0.34919 0.07639 0.61964 0.0
C486 C 0.32452 0.04451 0.58316 0.0
C487 C 0.36442 0.12863 0.61913 0.0
C488 C 0.35571 0.15091 0.58205 0.0
H489 H 0.35846 0.06135 0.64818 0.0
H490 H 0.38565 0.15217 0.64681 0.0
S491 S 0.28899 0.08437 0.47972 0.0
N492 N 0.28903 0.0396 0.51023 0.0
N493 N 0.31809 0.13676 0.5094 0.0
C494 C 0.32911 0.11912 0.54644 0.0
C495 C 0.31341 0.06629 0.54694 0.0
C496 C 0.2563 0.33333 0.60858 0.0
C497 C 0.27692 0.32398 0.57079 0.0
C498 C 0.22272 0.35203 0.60534 0.0
C499 C 0.2093 0.36295 0.5642 0.0
H500 H 0.2671 0.3273 0.64099 0.0
H501 H 0.20929 0.36043 0.63528 0.0
S502 S 0.2507 0.34306 0.45518 0.0
N503 N 0.27924 0.32494 0.49084 0.0
N504 N 0.21723 0.36072 0.48486 0.0
C505 C 0.22835 0.35222 0.5262 0.0
C506 C 0.26181 0.33253 0.52944 0.0
C507 C 0.86606 0.20302 0.62123 0.0
C508 C 0.83971 0.2133 0.58875 0.0
C509 C 0.91793 0.23531 0.62767 0.0
C510 C 0.9454 0.2794 0.60216 0.0
H511 H 0.84661 0.16962 0.6416 0.0
H512 H 0.93652 0.22563 0.65303 0.0
S513 S 0.89316 0.32593 0.51521 0.0
N514 N 0.84481 0.27257 0.53227 0.0
N515 N 0.9414 0.33271 0.54453 0.0
C516 C 0.91924 0.29052 0.57007 0.0
C517 C 0.8667 0.25768 0.56337 0.0
C518 C 0.67639 0.89136 0.55284 0.0
C519 C 0.65531 0.85782 0.58841 0.0
C520 C 0.69167 0.9429 0.55689 0.0
C521 C 0.68577 0.96307 0.59656 0.0
H522 H 0.67898 0.87712 0.52084 0.0
H523 H 0.70578 0.96644 0.52791 0.0
S524 S 0.63777 0.89254 0.70109 0.0
N525 N 0.63342 0.84924 0.66573 0.0
N526 N 0.66166 0.94629 0.6735 0.0
C527 C 0.66743 0.9306 0.63322 0.0
C528 C 0.65243 0.87797 0.62915 0.0
C529 C 0.77777 0.64704 0.60408 0.0
C530 C 0.80027 0.64972 0.56329 0.0
C531 C 0.74329 0.66434 0.60888 0.0
C532 C 0.73111 0.68602 0.57335 0.0
H533 H 0.78472 0.62897 0.63176 0.0
H534 H 0.72551 0.66003 0.64047 0.0
S535 S 0.78208 0.70397 0.46037 0.0
N536 N 0.80912 0.67674 0.48719 0.0
N537 N 0.74604 0.71088 0.49653 0.0
C538 C 0.75518 0.69091 0.53298 0.0
C539 C 0.78928 0.6723 0.52788 0.0
C540 C 0.39649 0.24413 0.29963 0.0
C541 C 0.39357 0.22531 0.34241 0.0
C542 C 0.39588 0.21651 0.26239 0.0
C543 C 0.39229 0.16859 0.26613 0.0
H544 H 0.39958 0.28085 0.29479 0.0
H545 H 0.39726 0.23275 0.23045 0.0
S546 S 0.37987 0.10021 0.37073 0.0
N547 N 0.3834 0.15389 0.38622 0.0
N548 N 0.38413 0.10288 0.31662 0.0
C549 C 0.38852 0.14891 0.30881 0.0
C550 C 0.38884 0.17699 0.34677 0.0
C551 C 0.2209 0.43849 0.34288 0.0
C552 C 0.17567 0.4396 0.33934 0.0
C553 C 0.24607 0.43541 0.30566 0.0
C554 C 0.22739 0.43272 0.26274 0.0
H555 H 0.23692 0.4386 0.37462 0.0
H556 H 0.28058 0.43467 0.31081 0.0
S557 S 0.10863 0.43076 0.23454 0.0
N558 N 0.11274 0.43668 0.28857 0.0
N559 N 0.15876 0.42839 0.2191 0.0
C560 C 0.18183 0.43301 0.25844 0.0
C561 C 0.15634 0.43681 0.29648 0.0
C562 C 0.82376 0.23011 0.3111 0.0
C563 C 0.80608 0.21217 0.2683 0.0
C564 C 0.79668 0.20376 0.34844 0.0
C565 C 0.75059 0.15796 0.34478 0.0
H566 H 0.85897 0.26508 0.31588 0.0
H567 H 0.81284 0.21913 0.38038 0.0
S568 S 0.68861 0.09301 0.24019 0.0
N569 N 0.74039 0.14418 0.22452 0.0
N570 N 0.68893 0.09546 0.29442 0.0
C571 C 0.73264 0.13931 0.3021 0.0
C572 C 0.76032 0.16618 0.26402 0.0
C573 C 0.6511 0.81822 0.32294 0.0
C574 C 0.60725 0.77712 0.33996 0.0
C575 C 0.64912 0.84559 0.28663 0.0
C576 C 0.60336 0.83202 0.26543 0.0
H577 H 0.68708 0.8301 0.3385 0.0
H578 H 0.68372 0.8773 0.27477 0.0
S579 S 0.47794 0.72654 0.29664 0.0
N580 N 0.51684 0.72368 0.33264 0.0
N581 N 0.51309 0.77469 0.26413 0.0
C582 C 0.55928 0.79052 0.28178 0.0
C583 C 0.56123 0.76316 0.31912 0.0
C584 C 0.74223 0.58717 0.293 0.0
C585 C 0.75909 0.59017 0.24959 0.0
C586 C 0.77051 0.58648 0.32914 0.0
C587 C 0.81708 0.58868 0.32357 0.0
H588 H 0.70659 0.58506 0.29921 0.0
H589 H 0.75582 0.58517 0.36165 0.0
S590 S 0.88044 0.60132 0.21669 0.0
N591 N 0.82752 0.59951 0.2033 0.0
N592 N 0.87953 0.59601 0.27071 0.0
C593 C 0.83484 0.59267 0.28025 0.0
C594 C 0.80618 0.59381 0.24346 0.0
C595 C 0.16283 0.73353 0.28822 0.0
C596 C 0.17247 0.75187 0.24481 0.0
C597 C 0.19217 0.7633 0.3239 0.0
C598 C 0.23281 0.81297 0.31789 0.0
H599 H 0.13238 0.69558 0.29475 0.0
H600 H 0.1819 0.74711 0.3564 0.0
S601 S 0.27105 0.88082 0.2108 0.0
N602 N 0.22289 0.82477 0.19834 0.0
N603 N 0.27951 0.87946 0.26426 0.0
C604 C 0.24222 0.83199 0.27447 0.0
C605 C 0.21188 0.80189 0.23833 0.0
C606 C 0.56535 0.74023 0.81523 0.0
C607 C 0.55249 0.73808 0.77042 0.0
C608 C 0.56017 0.77261 0.84488 0.0
C609 C 0.5426 0.8051 0.83111 0.0
H610 H 0.5791 0.71611 0.82784 0.0
H611 H 0.56821 0.77051 0.87918 0.0
S612 S 0.50043 0.81231 0.71775 0.0
N613 N 0.51787 0.76918 0.71432 0.0
N614 N 0.51108 0.83222 0.76927 0.0
C615 C 0.52957 0.80349 0.78626 0.0
C616 C 0.53397 0.76971 0.75613 0.0
C617 C 0.75185 0.58701 0.77429 0.0
C618 C 0.74551 0.56746 0.81727 0.0
C619 C 0.78513 0.58402 0.74459 0.0
C620 C 0.81325 0.56089 0.75651 0.0
H621 H 0.72953 0.6033 0.7629 0.0
H622 H 0.78621 0.59692 0.71124 0.0
S623 S 0.81362 0.50696 0.86594 0.0
N624 N 0.77246 0.52641 0.87079 0.0
N625 N 0.83544 0.52155 0.81539 0.0
C626 C 0.80935 0.54367 0.80013 0.0
C627 C 0.77548 0.54677 0.83041 0.0
C628 C 0.21824 0.77008 0.83082 0.0
C629 C 0.16897 0.73603 0.81631 0.0
C630 C 0.25616 0.80036 0.80091 0.0
C631 C 0.24625 0.79827 0.75548 0.0
H632 H 0.22842 0.77198 0.86516 0.0
H633 H 0.29388 0.82471 0.81331 0.0
S634 S 0.12435 0.7152 0.70021 0.0
N635 N 0.1127 0.703 0.75297 0.0
N636 N 0.18423 0.75861 0.6973 0.0
C637 C 0.19722 0.76522 0.7406 0.0
C638 C 0.15863 0.73448 0.77086 0.0
C639 C 0.44958 0.188 0.78846 0.0
C640 C 0.45151 0.19442 0.83446 0.0
C641 C 0.448 0.22326 0.75976 0.0
C642 C 0.44776 0.26673 0.77557 0.0
H643 H 0.44926 0.15519 0.7742 0.0
H644 H 0.44798 0.21633 0.72489 0.0
S645 S 0.4553 0.30346 0.89353 0.0
N646 N 0.45672 0.25002 0.89447 0.0
N647 N 0.4504 0.31435 0.84114 0.0
C648 C 0.4499 0.2738 0.82172 0.0
C649 C 0.45246 0.23824 0.85094 0.0
C650 C 0.2052 0.41927 0.83616 0.0
C651 C 0.25608 0.44376 0.82413 0.0
C652 C 0.16824 0.41682 0.80746 0.0
C653 C 0.18029 0.43853 0.76527 0.0
H654 H 0.19325 0.40006 0.86733 0.0
H655 H 0.12953 0.39634 0.81808 0.0
S656 S 0.30872 0.51298 0.71967 0.0
N657 N 0.31708 0.49402 0.76824 0.0
N658 N 0.24768 0.49006 0.71464 0.0
C659 C 0.23124 0.46503 0.75336 0.0
C660 C 0.26899 0.46744 0.78264 0.0
C661 C 0.77765 0.23107 0.8562 0.0
C662 C 0.82197 0.27375 0.84121 0.0
C663 C 0.74107 0.19659 0.82701 0.0
C664 C 0.74593 0.20288 0.78108 0.0
H665 H 0.76987 0.22363 0.89077 0.0
H666 H 0.70838 0.1644 0.84098 0.0
S667 S 0.85236 0.31009 0.72356 0.0
N668 N 0.86756 0.32073 0.77615 0.0
N669 N 0.79737 0.25756 0.72185 0.0
C670 C 0.78924 0.24592 0.76525 0.0
C671 C 0.82725 0.28083 0.79507 0.0
C672 C 0.63396 0.24904 0.06722 0.0
C673 C 0.66195 0.24264 0.10052 0.0
C674 C 0.58175 0.22017 0.06679 0.0
C675 C 0.55576 0.18446 0.0999 0.0
H676 H 0.65252 0.27214 1.03878 0.0
H677 H 0.56257 0.2201 1.03681 0.0
S678 S 0.61159 0.16188 0.19926 0.0
N679 N 0.66022 0.20496 0.17145 0.0
N680 N 0.56132 0.15052 0.1704 0.0
C681 C 0.58302 0.18325 0.13653 0.0
C682 C 0.6365 0.21255 0.13696 0.0
C683 C 0.39892 0.64847 0.06139 0.0
C684 C 0.43223 0.67437 0.09598 0.0
C685 C 0.37454 0.59587 0.05896 0.0
C686 C 0.3814 0.56714 0.09157 0.0
H687 H 0.396 0.669 1.03349 0.0
H688 H 0.35676 0.57852 1.02796 0.0
S689 S 0.45665 0.61685 0.19351 0.0
N690 N 0.4649 0.66797 0.16727 0.0
N691 N 0.41794 0.56794 0.16258 0.0
C692 C 0.4093 0.59227 0.12921 0.0
C693 C 0.43481 0.64634 0.13161 0.0
C694 C 0.78719 0.40165 0.12529 0.0
C695 C 0.79648 0.37808 0.08981 0.0
C696 C 0.75614 0.42287 0.11995 0.0
C697 C 0.73483 0.42209 0.07862 0.0
H698 H 0.80814 0.40852 0.15572 0.0
H699 H 0.75342 0.44464 0.14693 0.0
S700 S 0.74218 0.35824 0.97747 0.0
N701 N 0.77753 0.35003 1.01374 0.0
N702 N 0.7189 0.38917 1.00392 0.0
C703 C 0.7393 0.39355 1.04456 0.0
C704 C 0.77035 0.3717 0.0501 0.0
C705 C 0.3921 0.79749 0.12255 0.0
C706 C 0.42524 0.8059 0.08786 0.0
C707 C 0.34004 0.76857 0.1159 0.0
C708 C 0.32007 0.74855 0.07407 0.0
H709 H 0.4062 0.81779 0.15336 0.0
H710 H 0.31555 0.76653 0.14228 0.0
S711 S 0.39105 0.75377 0.97445 0.0
N712 N 0.43432 0.78682 1.01181 0.0
N713 N 0.33692 0.73257 0.99968 0.0
C714 C 0.35278 0.75194 1.04073 0.0
C715 C 0.40544 0.78058 0.04758 0.0
C716 C 0.54957 0.34891 0.11503 0.0
C717 C 0.54839 0.31995 0.0784 0.0
C718 C 0.57289 0.40198 0.1124 0.0
C719 C 0.59662 0.42718 0.07356 0.0
H720 H 0.52819 0.33038 0.14418 0.0
H721 H 0.56803 0.42273 0.13908 0.0
S722 S 0.60942 0.36886 0.97087 0.0
N723 N 0.57834 0.32071 1.00445 0.0
N724 N 0.62114 0.41985 0.99933 0.0
C725 C 0.60026 0.39888 1.03867 0.0
C726 C 0.57638 0.34525 1.04116 0.0
C727 C 0.22084 0.57805 0.07886 0.0
C728 C 0.24767 0.56879 0.04639 0.0
C729 C 0.19674 0.60549 0.06886 0.0
C730 C 0.1997 0.62494 1.02644 0.0
H731 H 0.21425 0.55991 0.11068 0.0
H732 H 0.17134 0.60662 0.09281 0.0
S733 S 0.27526 0.62165 0.93366 0.0
N734 N 0.28374 0.58938 0.9731 0.0
N735 N 0.23788 0.64068 0.95443 0.0
C736 C 0.23157 0.62147 0.99573 0.0
C737 C 0.25584 0.5934 1.00571 0.0
C738 C 0.78389 0.4049 0.54129 0.0
C739 C 0.8157 0.42609 0.50503 0.0
C740 C 0.75237 0.35263 0.54472 0.0
C741 C 0.75235 0.31977 0.51234 0.0
H742 H 0.78731 0.42826 0.56949 0.0
H743 H 0.73111 0.33767 0.57468 0.0
S744 S 0.82532 0.35685 0.40897 0.0
N745 N 0.8425 0.4111 0.43456 0.0
N746 N 0.78286 0.3121 0.44065 0.0
C747 C 0.78054 0.34064 0.47398 0.0
C748 C 0.81273 0.39412 0.47058 0.0
C749 C 0.4026 0.80978 0.50894 0.0
C750 C 0.40912 0.85081 0.48284 0.0
C751 C 0.43148 0.78649 0.50267 0.0
C752 C 0.47007 0.80514 0.47152 0.0
H753 H 0.38047 0.80029 0.53851 0.0
H754 H 0.42738 0.75775 0.52585 0.0
S755 S 0.49928 0.90808 0.3916 0.0
N756 N 0.45333 0.90541 0.4215 0.0
N757 N 0.50954 0.86319 0.41064 0.0
C758 C 0.47456 0.84346 0.44285 0.0
C759 C 0.4438 0.86606 0.44843 0.0
C760 C 0.64603 0.42602 0.47509 0.0
C761 C 0.67387 0.4273 0.51248 0.0
C762 C 0.5937 0.40436 0.47717 0.0
C763 C 0.56801 0.38252 0.51629 0.0
H764 H 0.66503 0.44653 0.44569 0.0
H765 H 0.57413 0.40966 0.44979 0.0
S766 S 0.62305 0.36876 0.62057 0.0
N767 N 0.67126 0.39798 0.58719 0.0
N768 N 0.57347 0.35863 0.59142 0.0
C769 C 0.59492 0.37824 0.55194 0.0
C770 C 0.64788 0.40032 0.54993 0.0
C771 C 0.24201 0.65935 0.50655 0.0
C772 C 0.26792 0.6973 0.53842 0.0
C773 C 0.21496 0.60832 0.51863 0.0
C774 C 0.21435 0.59401 0.56257 0.0
H775 H 0.23873 0.66928 0.47299 0.0
H776 H 0.19109 0.58055 0.49428 0.0
S777 S 0.28369 0.6777 0.65652 0.0
N778 N 0.29727 0.71642 0.61436 0.0
N779 N 0.24635 0.62019 0.63673 0.0
C780 C 0.24406 0.63096 0.59369 0.0
C781 C 0.27122 0.68282 0.58162 0.0
C782 C 0.5972 0.24898 0.54446 0.0
C783 C 0.56153 0.24101 0.51197 0.0
C784 C 0.61887 0.21832 0.54652 0.0
C785 C 0.60605 0.17902 0.5159 0.0
H786 H 0.60443 0.27536 0.57116 0.0
H787 H 0.64009 0.22079 0.57587 0.0
S788 S 0.52102 0.14849 0.42009 0.0
N789 N 0.51954 0.19618 0.44473 0.0
N790 N 0.56054 0.13796 0.44902 0.0
C791 C 0.57511 0.17472 0.48022 0.0
C792 C 0.55287 0.20612 0.47802 0.0
C793 C 0.41034 0.6066 0.47429 0.0
C794 C 0.44157 0.63836 0.50804 0.0
C795 C 0.35816 0.58456 0.47721 0.0
C796 C 0.3365 0.59329 0.51437 0.0
H797 H 0.42563 0.59307 0.44908 0.0
H798 H 0.33489 0.55589 0.45323 0.0
S799 S 0.40308 0.68421 0.60494 0.0
N800 N 0.44805 0.6868 0.57376 0.0
N801 N 0.34999 0.64351 0.58038 0.0
C802 C 0.36761 0.63087 0.54452 0.0
C803 C 0.4205 0.6545 0.54071 0.0
C804 C 0.53827 0.04526 1.00485 0.0
C805 C 0.49043 0.04129 1.00841 0.0
C806 C 0.54397 0.00251 1.00963 0.0
C807 C 0.50164 0.95449 1.01371 0.0
H808 H 0.57193 0.08219 1.00654 0.0
H809 H 0.58099 0.00808 1.01593 0.0
S810 S 0.36878 0.92169 1.00336 0.0
N811 N 0.4008 0.98426 1.00487 0.0
N812 N 0.41118 0.90363 1.00423 0.0
C813 C 0.4542 0.94941 1.00528 0.0
C814 C 0.44841 0.99296 1.00477 0.0
C815 C 0.44721 0.45618 0.98135 0.0
C816 C 0.44231 0.49897 0.98784 0.0
C817 C 0.49457 0.46145 0.97376 0.0
C818 C 0.53893 0.50874 0.98086 0.0
H819 H 0.41605 0.41875 0.98795 0.0
H820 H 0.49668 0.42692 0.97293 0.0
S821 S 0.54447 0.63297 0.98316 0.0
N822 N 0.48395 0.59093 0.98247 0.0
N823 N 0.57354 0.59973 0.98216 0.0
C824 C 0.53396 0.55193 0.9798 0.0
C825 C 0.48525 0.54692 0.98061 0.0
C826 C 0.94643 0.4884 1.0019 0.0
C827 C 0.95114 0.44852 1.02064 0.0
C828 C 0.98854 0.53512 0.99154 0.0
C829 C 0.03714 0.54305 0.99749 0.0
H830 H 0.90968 0.48477 0.99833 0.0
H831 H 0.98273 0.56559 0.98061 0.0
S832 S 0.06957 0.4514 0.04845 0.0
N833 N 0.00772 0.42118 0.04772 0.0
N834 N 0.08723 0.50655 1.02505 0.0
C835 C 0.0422 0.5025 1.01508 0.0
C836 C -0.00083 0.45576 1.02712 0.0
C837 C 0.97793 0.50831 0.61137 0.0
C838 C 0.97498 0.5293 0.57084 0.0
C839 C 0.0171 0.49836 0.62058 0.0
C840 C 0.05278 0.50595 0.58851 0.0
H841 H 0.94875 0.49685 0.63546 0.0
H842 H 0.01883 0.48387 0.6526 0.0
S843 S 0.06416 0.56381 0.47862 0.0
N844 N 0.01409 0.56168 0.50035 0.0
N845 N 0.0852 0.53961 0.51598 0.0
C846 C 0.05124 0.52858 0.54857 0.0
C847 C 0.01314 0.54113 0.54028 0.0
C848 C 0.49913 0.04777 0.62265 0.0
C849 C 0.54277 0.04391 0.61613 0.0
C850 C 0.45133 0.00671 0.61247 0.0
C851 C 0.44597 0.95969 0.60111 0.0
H852 H 0.50263 0.08495 0.62527 0.0
H853 H 0.42092 0.01421 0.60675 0.0
S854 S 0.54434 0.92353 0.60792 0.0
N855 N 0.57488 0.98575 0.61427 0.0
N856 N 0.48441 0.90665 0.60465 0.0
C857 C 0.48711 0.95238 0.60981 0.0
C858 C 0.53619 0.99507 0.61536 0.0
C859 C 0.54653 0.55063 0.60144 0.0
C860 C 0.50438 0.55648 0.59799 0.0
C861 C 0.54112 0.50206 0.60448 0.0
C862 C 0.49374 0.45745 0.59864 0.0
H863 H 0.58366 0.58283 0.59688 0.0
H864 H 0.57515 0.49974 0.60384 0.0
S865 S 0.37146 0.45325 0.60008 0.0
N866 N 0.41338 0.51415 0.60346 0.0
N867 N 0.40393 0.4235 0.5976 0.0
C868 C 0.45138 0.46304 0.60079 0.0
C869 C 0.45677 0.51249 0.60315 0.0
loop_
_geom_bond_atom_site_label_1
_geom_bond_atom_site_label_2
_geom_bond_distance
_geom_bond_site_symmetry_2
_ccdc_geom_bond_type
Zn0 N4 2.020 . S
Zn0 O8 2.019 . S
Zn0 N10 2.119 . S
Zn0 O18 1.975 . S
C1 N2 1.334 . S
C1 N5 1.336 . S
N2 C1 1.334 . S
N2 C3 1.334 1_554 S
C3 N2 1.334 1_556 S
C3 N4 1.336 . S
N4 Zn0 2.020 . S
N4 C3 1.336 . S
N4 N5 1.354 1_556 S
N5 C1 1.336 . S
N5 N4 1.354 1_554 S
N5 Zn9 2.020 . S
C6 O7 1.244 1_554 S
C6 O30 1.257 . S
O7 C6 1.244 1_556 S
O8 Zn0 2.019 . S
O8 C28 1.257 . S
Zn9 N5 2.020 . S
Zn9 O16 1.975 . S
Zn9 N25 2.119 . S
Zn9 O30 2.019 . S
N10 Zn0 2.119 . S
N10 C12 1.334 . S
N10 C13 1.328 . S
C11 C12 1.391 . S
C11 N14 1.329 . S
C11 H32 0.930 . S
C12 N10 1.334 . S
C12 C11 1.391 . S
C12 H19 0.930 . S
C13 N10 1.328 . S
C13 C15 1.392 . S
C13 H20 0.930 . S
N14 C11 1.329 . S
N14 C15 1.331 . S
C15 C13 1.392 . S
C15 N14 1.331 . S
O16 Zn9 1.975 . S
O16 C17 1.252 1_554 S
C17 O16 1.252 1_556 S
C17 O18 1.252 . S
O18 Zn0 1.975 . S
O18 C17 1.252 . S
H19 C12 0.930 . S
H20 C13 0.930 . S
C21 C22 1.392 . S
C21 N25 1.328 . S
C21 H27 0.930 . S
C22 C21 1.392 . S
C22 N26 1.331 . S
C23 C24 1.391 . S
C23 N26 1.329 . S
C23 H33 0.930 . S
C24 C23 1.391 . S
C24 N25 1.334 . S
C24 H31 0.930 . S
N25 Zn9 2.119 . S
N25 C21 1.328 . S
N25 C24 1.334 . S
N26 C22 1.331 . S
N26 C23 1.329 . S
H27 C21 0.930 . S
C28 O8 1.257 . S
C28 O29 1.244 1_556 S
O29 C28 1.244 1_554 S
O30 C6 1.257 . S
O30 Zn9 2.019 . S
H31 C24 0.930 . S
H32 C11 0.930 . S
H33 C23 0.930 . S
Zn34 N38 2.020 . S
Zn34 O42 2.019 . S
Zn34 N44 2.119 . S
Zn34 O52 1.975 . S
C35 N36 1.334 1_556 S
C35 N39 1.336 . S
N36 C35 1.334 1_554 S
N36 C37 1.334 . S
C37 N36 1.334 . S
C37 N38 1.336 . S
N38 Zn34 2.020 . S
N38 C37 1.336 . S
N38 N39 1.354 1_554 S
N39 C35 1.336 . S
N39 N38 1.354 1_556 S
N39 Zn43 2.020 . S
C40 O41 1.244 1_556 S
C40 O64 1.257 . S
O41 C40 1.244 1_554 S
O42 Zn34 2.019 . S
O42 C62 1.257 . S
Zn43 N39 2.020 . S
Zn43 O50 1.975 . S
Zn43 N59 2.119 . S
Zn43 O64 2.019 . S
N44 Zn34 2.119 . S
N44 C46 1.334 . S
N44 C47 1.328 . S
C45 C46 1.391 . S
C45 N48 1.329 . S
C45 H66 0.930 . S
C46 N44 1.334 . S
C46 C45 1.391 . S
C46 H53 0.930 . S
C47 N44 1.328 . S
C47 C49 1.392 . S
C47 H54 0.930 . S
N48 C45 1.329 . S
N48 C49 1.331 . S
C49 C47 1.392 . S
C49 N48 1.331 . S
O50 Zn43 1.975 . S
O50 C51 1.252 . S
C51 O50 1.252 . S
C51 O52 1.252 1_556 S
O52 Zn34 1.975 . S
O52 C51 1.252 1_554 S
H53 C46 0.930 . S
H54 C47 0.930 . S
C55 C56 1.392 . S
C55 N59 1.328 . S
C55 H61 0.930 . S
C56 C55 1.392 . S
C56 N60 1.331 . S
C57 C58 1.391 . S
C57 N60 1.329 . S
C57 H67 0.930 . S
C58 C57 1.391 . S
C58 N59 1.334 . S
C58 H65 0.930 . S
N59 Zn43 2.119 . S
N59 C55 1.328 . S
N59 C58 1.334 . S
N60 C56 1.331 . S
N60 C57 1.329 . S
H61 C55 0.930 . S
C62 O42 1.257 . S
C62 O63 1.244 1_554 S
O63 C62 1.244 1_556 S
O64 C40 1.257 . S
O64 Zn43 2.019 . S
H65 C58 0.930 . S
H66 C45 0.930 . S
H67 C57 0.930 . S
Zn68 N72 2.020 . S
Zn68 O76 2.019 . S
Zn68 N78 2.119 . S
Zn68 O86 1.975 . S
C69 N70 1.334 . S
C69 N73 1.336 . S
N70 C69 1.334 . S
N70 C71 1.334 1_554 S
C71 N70 1.334 1_556 S
C71 N72 1.336 . S
N72 Zn68 2.020 . S
N72 C71 1.336 . S
N72 N73 1.354 1_556 S
N73 C69 1.336 . S
N73 N72 1.354 1_554 S
N73 Zn77 2.020 . S
C74 O75 1.244 1_554 S
C74 O98 1.257 . S
O75 C74 1.244 1_556 S
O76 Zn68 2.019 . S
O76 C96 1.257 . S
Zn77 N73 2.020 . S
Zn77 O84 1.975 . S
Zn77 N93 2.119 . S
Zn77 O98 2.019 . S
N78 Zn68 2.119 . S
N78 C80 1.334 . S
N78 C81 1.328 . S
C79 C80 1.391 . S
C79 N82 1.329 . S
C79 H100 0.930 . S
C80 N78 1.334 . S
C80 C79 1.391 . S
C80 H87 0.930 . S
C81 N78 1.328 . S
C81 C83 1.392 . S
C81 H88 0.930 . S
N82 C79 1.329 . S
N82 C83 1.331 . S
C83 C81 1.392 . S
C83 N82 1.331 . S
O84 Zn77 1.975 . S
O84 C85 1.252 1_554 S
C85 O84 1.252 1_556 S
C85 O86 1.252 . S
O86 Zn68 1.975 . S
O86 C85 1.252 . S
H87 C80 0.930 . S
H88 C81 0.930 . S
C89 C90 1.392 . S
C89 N93 1.328 . S
C89 H95 0.930 . S
C90 C89 1.392 . S
C90 N94 1.331 . S
C91 C92 1.391 . S
C91 N94 1.329 . S
C91 H101 0.930 . S
C92 C91 1.391 . S
C92 N93 1.334 . S
C92 H99 0.930 . S
N93 Zn77 2.119 . S
N93 C89 1.328 . S
N93 C92 1.334 . S
N94 C90 1.331 . S
N94 C91 1.329 . S
H95 C89 0.930 . S
C96 O76 1.257 . S
C96 O97 1.244 1_556 S
O97 C96 1.244 1_554 S
O98 C74 1.257 . S
O98 Zn77 2.019 . S
H99 C92 0.930 . S
H100 C79 0.930 . S
H101 C91 0.930 . S
Zn102 N106 2.020 . S
Zn102 O110 2.019 . S
Zn102 N112 2.119 . S
Zn102 O120 1.975 . S
C103 N104 1.334 1_556 S
C103 N107 1.336 . S
N104 C103 1.334 1_554 S
N104 C105 1.334 . S
C105 N104 1.334 . S
C105 N106 1.336 . S
N106 Zn102 2.020 . S
N106 C105 1.336 . S
N106 N107 1.354 1_554 S
N107 C103 1.336 . S
N107 N106 1.354 1_556 S
N107 Zn111 2.020 . S
C108 O109 1.244 1_556 S
C108 O132 1.257 . S
O109 C108 1.244 1_554 S
O110 Zn102 2.019 . S
O110 C130 1.257 . S
Zn111 N107 2.020 . S
Zn111 O118 1.975 . S
Zn111 N127 2.119 . S
Zn111 O132 2.019 . S
N112 Zn102 2.119 . S
N112 C114 1.334 . S
N112 C115 1.328 . S
C113 C114 1.391 . S
C113 N116 1.329 . S
C113 H134 0.930 . S
C114 N112 1.334 . S
C114 C113 1.391 . S
C114 H121 0.930 . S
C115 N112 1.328 . S
C115 C117 1.392 . S
C115 H122 0.930 . S
N116 C113 1.329 . S
N116 C117 1.331 . S
C117 C115 1.392 . S
C117 N116 1.331 . S
O118 Zn111 1.975 . S
O118 C119 1.252 . S
C119 O118 1.252 . S
C119 O120 1.252 1_556 S
O120 Zn102 1.975 . S
O120 C119 1.252 1_554 S
H121 C114 0.930 . S
H122 C115 0.930 . S
C123 C124 1.392 . S
C123 N127 1.328 . S
C123 H129 0.930 . S
C124 C123 1.392 . S
C124 N128 1.331 . S
C125 C126 1.391 . S
C125 N128 1.329 . S
C125 H135 0.930 . S
C126 C125 1.391 . S
C126 N127 1.334 . S
C126 H133 0.930 . S
N127 Zn111 2.119 . S
N127 C123 1.328 . S
N127 C126 1.334 . S
N128 C124 1.331 . S
N128 C125 1.329 . S
H129 C123 0.930 . S
C130 O110 1.257 . S
C130 O131 1.244 1_554 S
O131 C130 1.244 1_556 S
O132 C108 1.257 . S
O132 Zn111 2.019 . S
H133 C126 0.930 . S
H134 C113 0.930 . S
H135 C125 0.930 . S
Zn136 N140 2.020 . S
Zn136 O144 2.019 . S
Zn136 N146 2.119 . S
Zn136 O154 1.975 . S
C137 N138 1.334 . S
C137 N141 1.336 . S
N138 C137 1.334 . S
N138 C139 1.334 1_554 S
C139 N138 1.334 1_556 S
C139 N140 1.336 . S
N140 Zn136 2.020 . S
N140 C139 1.336 . S
N140 N141 1.354 1_556 S
N141 C137 1.336 . S
N141 N140 1.354 1_554 S
N141 Zn145 2.020 . S
C142 O143 1.244 1_554 S
C142 O166 1.257 . S
O143 C142 1.244 1_556 S
O144 Zn136 2.019 . S
O144 C164 1.257 . S
Zn145 N141 2.020 . S
Zn145 O152 1.975 . S
Zn145 N161 2.119 . S
Zn145 O166 2.019 . S
N146 Zn136 2.119 . S
N146 C148 1.334 . S
N146 C149 1.328 . S
C147 C148 1.391 . S
C147 N150 1.329 . S
C147 H168 0.930 . S
C148 N146 1.334 . S
C148 C147 1.391 . S
C148 H155 0.930 . S
C149 N146 1.328 . S
C149 C151 1.392 . S
C149 H156 0.930 . S
N150 C147 1.329 . S
N150 C151 1.331 . S
C151 C149 1.392 . S
C151 N150 1.331 . S
O152 Zn145 1.975 . S
O152 C153 1.252 1_554 S
C153 O152 1.252 1_556 S
C153 O154 1.252 . S
O154 Zn136 1.975 . S
O154 C153 1.252 . S
H155 C148 0.930 . S
H156 C149 0.930 . S
C157 C158 1.392 . S
C157 N161 1.328 . S
C157 H163 0.930 . S
C158 C157 1.392 . S
C158 N162 1.331 . S
C159 C160 1.391 . S
C159 N162 1.329 . S
C159 H169 0.930 . S
C160 C159 1.391 . S
C160 N161 1.334 . S
C160 H167 0.930 . S
N161 Zn145 2.119 . S
N161 C157 1.328 . S
N161 C160 1.334 . S
N162 C158 1.331 . S
N162 C159 1.329 . S
H163 C157 0.930 . S
C164 O144 1.257 . S
C164 O165 1.244 1_556 S
O165 C164 1.244 1_554 S
O166 C142 1.257 . S
O166 Zn145 2.019 . S
H167 C160 0.930 . S
H168 C147 0.930 . S
H169 C159 0.930 . S
Zn170 N174 2.020 . S
Zn170 O178 2.019 . S
Zn170 N180 2.119 . S
Zn170 O188 1.975 . S
C171 N172 1.334 1_556 S
C171 N175 1.336 . S
N172 C171 1.334 1_554 S
N172 C173 1.334 . S
C173 N172 1.334 . S
C173 N174 1.336 . S
N174 Zn170 2.020 . S
N174 C173 1.336 . S
N174 N175 1.354 1_554 S
N175 C171 1.336 . S
N175 N174 1.354 1_556 S
N175 Zn179 2.020 . S
C176 O177 1.244 1_556 S
C176 O200 1.257 . S
O177 C176 1.244 1_554 S
O178 Zn170 2.019 . S
O178 C198 1.257 . S
Zn179 N175 2.020 . S
Zn179 O186 1.975 . S
Zn179 N195 2.119 . S
Zn179 O200 2.019 . S
N180 Zn170 2.119 . S
N180 C182 1.334 . S
N180 C183 1.328 . S
C181 C182 1.391 . S
C181 N184 1.329 . S
C181 H202 0.930 . S
C182 N180 1.334 . S
C182 C181 1.391 . S
C182 H189 0.930 . S
C183 N180 1.328 . S
C183 C185 1.392 . S
C183 H190 0.930 . S
N184 C181 1.329 . S
N184 C185 1.331 . S
C185 C183 1.392 . S
C185 N184 1.331 . S
O186 Zn179 1.975 . S
O186 C187 1.252 . S
C187 O186 1.252 . S
C187 O188 1.252 1_556 S
O188 Zn170 1.975 . S
O188 C187 1.252 1_554 S
H189 C182 0.930 . S
H190 C183 0.930 . S
C191 C192 1.392 . S
C191 N195 1.328 . S
C191 H197 0.930 . S
C192 C191 1.392 . S
C192 N196 1.331 . S
C193 C194 1.391 . S
C193 N196 1.329 . S
C193 H203 0.930 . S
C194 C193 1.391 . S
C194 N195 1.334 . S
C194 H201 0.930 . S
N195 Zn179 2.119 . S
N195 C191 1.328 . S
N195 C194 1.334 . S
N196 C192 1.331 . S
N196 C193 1.329 . S
H197 C191 0.930 . S
C198 O178 1.257 . S
C198 O199 1.244 1_554 S
O199 C198 1.244 1_556 S
O200 C176 1.257 . S
O200 Zn179 2.019 . S
H201 C194 0.930 . S
H202 C181 0.930 . S
H203 C193 0.930 . S
Zn204 N208 2.020 . S
Zn204 O212 2.019 . S
Zn204 N214 2.119 . S
Zn204 O222 1.975 . S
C205 N206 1.334 . S
C205 N209 1.336 . S
N206 C205 1.334 . S
N206 C207 1.334 . S
C207 N206 1.334 . S
C207 N208 1.336 . S
N208 Zn204 2.020 . S
N208 C207 1.336 . S
N208 N209 1.354 . S
N209 C205 1.336 . S
N209 N208 1.354 . S
N209 Zn213 2.020 . S
C210 O211 1.244 . S
C210 O234 1.257 . S
O211 C210 1.244 . S
O212 Zn204 2.019 . S
O212 C232 1.257 . S
Zn213 N209 2.020 . S
Zn213 O220 1.975 . S
Zn213 N229 2.119 . S
Zn213 O234 2.019 . S
N214 Zn204 2.119 . S
N214 C216 1.334 . S
N214 C217 1.328 . S
C215 C216 1.391 . S
C215 N218 1.329 . S
C215 H236 0.930 . S
C216 N214 1.334 . S
C216 C215 1.391 . S
C216 H223 0.930 . S
C217 N214 1.328 . S
C217 C219 1.392 . S
C217 H224 0.930 . S
N218 C215 1.329 . S
N218 C219 1.331 . S
C219 C217 1.392 . S
C219 N218 1.331 . S
O220 Zn213 1.975 . S
O220 C221 1.252 . S
C221 O220 1.252 . S
C221 O222 1.252 . S
O222 Zn204 1.975 . S
O222 C221 1.252 . S
H223 C216 0.930 . S
H224 C217 0.930 . S
C225 C226 1.392 . S
C225 N229 1.328 . S
C225 H231 0.930 . S
C226 C225 1.392 . S
C226 N230 1.331 . S
C227 C228 1.391 . S
C227 N230 1.329 . S
C227 H237 0.930 . S
C228 C227 1.391 . S
C228 N229 1.334 . S
C228 H235 0.930 . S
N229 Zn213 2.119 . S
N229 C225 1.328 . S
N229 C228 1.334 . S
N230 C226 1.331 . S
N230 C227 1.329 . S
H231 C225 0.930 . S
C232 O212 1.257 . S
C232 O233 1.244 . S
O233 C232 1.244 . S
O234 C210 1.257 . S
O234 Zn213 2.019 . S
H235 C228 0.930 . S
H236 C215 0.930 . S
H237 C227 0.930 . S
Zn238 N242 2.020 . S
Zn238 O246 2.019 . S
Zn238 N248 2.119 . S
Zn238 O256 1.975 . S
C239 N240 1.334 . S
C239 N243 1.336 . S
N240 C239 1.334 . S
N240 C241 1.334 . S
C241 N240 1.334 . S
C241 N242 1.336 . S
N242 Zn238 2.020 . S
N242 C241 1.336 . S
N242 N243 1.354 . S
N243 C239 1.336 . S
N243 N242 1.354 . S
N243 Zn247 2.020 . S
C244 O245 1.244 . S
C244 O268 1.257 . S
O245 C244 1.244 . S
O246 Zn238 2.019 . S
O246 C266 1.257 . S
Zn247 N243 2.020 . S
Zn247 O254 1.975 . S
Zn247 N263 2.119 . S
Zn247 O268 2.019 . S
N248 Zn238 2.119 . S
N248 C250 1.334 . S
N248 C251 1.328 . S
C249 C250 1.391 . S
C249 N252 1.329 . S
C249 H270 0.930 . S
C250 N248 1.334 . S
C250 C249 1.391 . S
C250 H257 0.930 . S
C251 N248 1.328 . S
C251 C253 1.392 . S
C251 H258 0.930 . S
N252 C249 1.329 . S
N252 C253 1.331 . S
C253 C251 1.392 . S
C253 N252 1.331 . S
O254 Zn247 1.975 . S
O254 C255 1.252 . S
C255 O254 1.252 . S
C255 O256 1.252 . S
O256 Zn238 1.975 . S
O256 C255 1.252 . S
H257 C250 0.930 . S
H258 C251 0.930 . S
C259 C260 1.392 . S
C259 N263 1.328 . S
C259 H265 0.930 . S
C260 C259 1.392 . S
C260 N264 1.331 . S
C261 C262 1.391 . S
C261 N264 1.329 . S
C261 H271 0.930 . S
C262 C261 1.391 . S
C262 N263 1.334 . S
C262 H269 0.930 . S
N263 Zn247 2.119 . S
N263 C259 1.328 . S
N263 C262 1.334 . S
N264 C260 1.331 . S
N264 C261 1.329 . S
H265 C259 0.930 . S
C266 O246 1.257 . S
C266 O267 1.244 . S
O267 C266 1.244 . S
O268 C244 1.257 . S
O268 Zn247 2.019 . S
H269 C262 0.930 . S
H270 C249 0.930 . S
H271 C261 0.930 . S
Zn272 N276 2.020 . S
Zn272 O280 2.019 . S
Zn272 N282 2.119 . S
Zn272 O290 1.975 . S
C273 N274 1.334 . S
C273 N277 1.336 . S
N274 C273 1.334 . S
N274 C275 1.334 . S
C275 N274 1.334 . S
C275 N276 1.336 . S
N276 Zn272 2.020 . S
N276 C275 1.336 . S
N276 N277 1.354 . S
N277 C273 1.336 . S
N277 N276 1.354 . S
N277 Zn281 2.020 . S
C278 O279 1.244 . S
C278 O302 1.257 . S
O279 C278 1.244 . S
O280 Zn272 2.019 . S
O280 C300 1.257 . S
Zn281 N277 2.020 . S
Zn281 O288 1.975 . S
Zn281 N297 2.119 . S
Zn281 O302 2.019 . S
N282 Zn272 2.119 . S
N282 C284 1.334 . S
N282 C285 1.328 . S
C283 C284 1.391 . S
C283 N286 1.329 . S
C283 H304 0.930 . S
C284 N282 1.334 . S
C284 C283 1.391 . S
C284 H291 0.930 . S
C285 N282 1.328 . S
C285 C287 1.392 . S
C285 H292 0.930 . S
N286 C283 1.329 . S
N286 C287 1.331 . S
C287 C285 1.392 . S
C287 N286 1.331 . S
O288 Zn281 1.975 . S
O288 C289 1.252 . S
C289 O288 1.252 . S
C289 O290 1.252 . S
O290 Zn272 1.975 . S
O290 C289 1.252 . S
H291 C284 0.930 . S
H292 C285 0.930 . S
C293 C294 1.392 . S
C293 N297 1.328 . S
C293 H299 0.930 . S
C294 C293 1.392 . S
C294 N298 1.331 . S
C295 C296 1.391 . S
C295 N298 1.329 . S
C295 H305 0.930 . S
C296 C295 1.391 . S
C296 N297 1.334 . S
C296 H303 0.930 . S
N297 Zn281 2.119 . S
N297 C293 1.328 . S
N297 C296 1.334 . S
N298 C294 1.331 . S
N298 C295 1.329 . S
H299 C293 0.930 . S
C300 O280 1.257 . S
C300 O301 1.244 . S
O301 C300 1.244 . S
O302 C278 1.257 . S
O302 Zn281 2.019 . S
H303 C296 0.930 . S
H304 C283 0.930 . S
H305 C295 0.930 . S
Zn306 N310 2.020 . S
Zn306 O314 2.019 . S
Zn306 N316 2.119 . S
Zn306 O324 1.975 . S
C307 N308 1.334 . S
C307 N311 1.336 . S
N308 C307 1.334 . S
N308 C309 1.334 . S
C309 N308 1.334 . S
C309 N310 1.336 . S
N310 Zn306 2.020 . S
N310 C309 1.336 . S
N310 N311 1.354 . S
N311 C307 1.336 . S
N311 N310 1.354 . S
N311 Zn315 2.020 . S
C312 O313 1.244 . S
C312 O336 1.257 . S
O313 C312 1.244 . S
O314 Zn306 2.019 . S
O314 C334 1.257 . S
Zn315 N311 2.020 . S
Zn315 O322 1.975 . S
Zn315 N331 2.119 . S
Zn315 O336 2.019 . S
N316 Zn306 2.119 . S
N316 C318 1.334 . S
N316 C319 1.328 . S
C317 C318 1.391 . S
C317 N320 1.329 . S
C317 H338 0.930 . S
C318 N316 1.334 . S
C318 C317 1.391 . S
C318 H325 0.930 . S
C319 N316 1.328 . S
C319 C321 1.392 . S
C319 H326 0.930 . S
N320 C317 1.329 . S
N320 C321 1.331 . S
C321 C319 1.392 . S
C321 N320 1.331 . S
O322 Zn315 1.975 . S
O322 C323 1.252 . S
C323 O322 1.252 . S
C323 O324 1.252 . S
O324 Zn306 1.975 . S
O324 C323 1.252 . S
H325 C318 0.930 . S
H326 C319 0.930 . S
C327 C328 1.392 . S
C327 N331 1.328 . S
C327 H333 0.930 . S
C328 C327 1.392 . S
C328 N332 1.331 . S
C329 C330 1.391 . S
C329 N332 1.329 . S
C329 H339 0.930 . S
C330 C329 1.391 . S
C330 N331 1.334 . S
C330 H337 0.930 . S
N331 Zn315 2.119 . S
N331 C327 1.328 . S
N331 C330 1.334 . S
N332 C328 1.331 . S
N332 C329 1.329 . S
H333 C327 0.930 . S
C334 O314 1.257 . S
C334 O335 1.244 . S
O335 C334 1.244 . S
O336 C312 1.257 . S
O336 Zn315 2.019 . S
H337 C330 0.930 . S
H338 C317 0.930 . S
H339 C329 0.930 . S
Zn340 N344 2.020 . S
Zn340 O348 2.019 . S
Zn340 N350 2.119 . S
Zn340 O358 1.975 . S
C341 N342 1.334 . S
C341 N345 1.336 . S
N342 C341 1.334 . S
N342 C343 1.334 . S
C343 N342 1.334 . S
C343 N344 1.336 . S
N344 Zn340 2.020 . S
N344 C343 1.336 . S
N344 N345 1.354 . S
N345 C341 1.336 . S
N345 N344 1.354 . S
N345 Zn349 2.020 . S
C346 O347 1.244 . S
C346 O370 1.257 . S
O347 C346 1.244 . S
O348 Zn340 2.019 . S
O348 C368 1.257 . S
Zn349 N345 2.020 . S
Zn349 O356 1.975 . S
Zn349 N365 2.119 . S
Zn349 O370 2.019 . S
N350 Zn340 2.119 . S
N350 C352 1.334 . S
N350 C353 1.328 . S
C351 C352 1.391 . S
C351 N354 1.329 . S
C351 H372 0.930 . S
C352 N350 1.334 . S
C352 C351 1.391 . S
C352 H359 0.930 . S
C353 N350 1.328 . S
C353 C355 1.392 . S
C353 H360 0.930 . S
N354 C351 1.329 . S
N354 C355 1.331 . S
C355 C353 1.392 . S
C355 N354 1.331 . S
O356 Zn349 1.975 . S
O356 C357 1.252 . S
C357 O356 1.252 . S
C357 O358 1.252 . S
O358 Zn340 1.975 . S
O358 C357 1.252 . S
H359 C352 0.930 . S
H360 C353 0.930 . S
C361 C362 1.392 . S
C361 N365 1.328 . S
C361 H367 0.930 . S
C362 C361 1.392 . S
C362 N366 1.331 . S
C363 C364 1.391 . S
C363 N366 1.329 . S
C363 H373 0.930 . S
C364 C363 1.391 . S
C364 N365 1.334 . S
C364 H371 0.930 . S
N365 Zn349 2.119 . S
N365 C361 1.328 . S
N365 C364 1.334 . S
N366 C362 1.331 . S
N366 C363 1.329 . S
H367 C361 0.930 . S
C368 O348 1.257 . S
C368 O369 1.244 . S
O369 C368 1.244 . S
O370 C346 1.257 . S
O370 Zn349 2.019 . S
H371 C364 0.930 . S
H372 C351 0.930 . S
H373 C363 0.930 . S
Zn374 N378 2.020 . S
Zn374 O382 2.019 . S
Zn374 N384 2.119 . S
Zn374 O392 1.975 . S
C375 N376 1.334 . S
C375 N379 1.336 . S
N376 C375 1.334 . S
N376 C377 1.334 . S
C377 N376 1.334 . S
C377 N378 1.336 . S
N378 Zn374 2.020 . S
N378 C377 1.336 . S
N378 N379 1.354 . S
N379 C375 1.336 . S
N379 N378 1.354 . S
N379 Zn383 2.020 . S
C380 O381 1.244 . S
C380 O404 1.257 . S
O381 C380 1.244 . S
O382 Zn374 2.019 . S
O382 C402 1.257 . S
Zn383 N379 2.020 . S
Zn383 O390 1.975 . S
Zn383 N399 2.119 . S
Zn383 O404 2.019 . S
N384 Zn374 2.119 . S
N384 C386 1.334 . S
N384 C387 1.328 . S
C385 C386 1.391 . S
C385 N388 1.329 . S
C385 H406 0.930 . S
C386 N384 1.334 . S
C386 C385 1.391 . S
C386 H393 0.930 . S
C387 N384 1.328 . S
C387 C389 1.392 . S
C387 H394 0.930 . S
N388 C385 1.329 . S
N388 C389 1.331 . S
C389 C387 1.392 . S
C389 N388 1.331 . S
O390 Zn383 1.975 . S
O390 C391 1.252 . S
C391 O390 1.252 . S
C391 O392 1.252 . S
O392 Zn374 1.975 . S
O392 C391 1.252 . S
H393 C386 0.930 . S
H394 C387 0.930 . S
C395 C396 1.392 . S
C395 N399 1.328 . S
C395 H401 0.930 . S
C396 C395 1.392 . S
C396 N400 1.331 . S
C397 C398 1.391 . S
C397 N400 1.329 . S
C397 H407 0.930 . S
C398 C397 1.391 . S
C398 N399 1.334 . S
C398 H405 0.930 . S
N399 Zn383 2.119 . S
N399 C395 1.328 . S
N399 C398 1.334 . S
N400 C396 1.331 . S
N400 C397 1.329 . S
H401 C395 0.930 . S
C402 O382 1.257 . S
C402 O403 1.244 . S
O403 C402 1.244 . S
O404 C380 1.257 . S
O404 Zn383 2.019 . S
H405 C398 0.930 . S
H406 C385 0.930 . S
H407 C397 0.930 . S
C408 C409 1.369 1_554 S
C408 C410 1.419 . S
C408 H412 0.930 . S
C409 C408 1.369 1_556 S
C409 C418 1.429 . S
C410 C408 1.419 . S
C410 C411 1.363 1_554 S
C410 H413 0.929 . S
C411 C410 1.363 1_556 S
C411 C417 1.428 . S
H412 C408 0.930 . S
H413 C410 0.929 . S
S414 N415 1.613 . S
S414 N416 1.610 . S
N415 S414 1.613 . S
N415 C418 1.350 . S
N416 S414 1.610 . S
N416 C417 1.351 . S
C417 C411 1.428 . S
C417 N416 1.351 . S
C417 C418 1.434 . S
C418 C409 1.429 . S
C418 N415 1.350 . S
C418 C417 1.434 . S
C419 C420 1.369 . S
C419 C421 1.419 . S
C419 H423 0.930 . S
C420 C419 1.369 . S
C420 C429 1.429 . S
C421 C419 1.419 . S
C421 C422 1.363 . S
C421 H424 0.928 1_556 S
C422 C421 1.363 . S
C422 C428 1.428 . S
H423 C419 0.930 . S
H424 C421 0.928 1_554 S
S425 N426 1.613 . S
S425 N427 1.610 . S
N426 S425 1.613 . S
N426 C429 1.350 . S
N427 S425 1.610 . S
N427 C428 1.351 . S
C428 C422 1.428 . S
C428 N427 1.351 . S
C428 C429 1.434 . S
C429 C420 1.429 . S
C429 N426 1.350 . S
C429 C428 1.434 . S
C430 C431 1.369 . S
C430 C432 1.419 1_556 S
C430 H434 0.930 . S
C431 C430 1.369 . S
C431 C440 1.429 . S
C432 C430 1.419 1_554 S
C432 C433 1.363 1_554 S
C432 H435 0.929 . S
C433 C432 1.363 1_556 S
C433 C439 1.428 . S
H434 C430 0.930 . S
H435 C432 0.929 . S
S436 N437 1.613 . S
S436 N438 1.610 . S
N437 S436 1.613 . S
N437 C440 1.350 . S
N438 S436 1.610 . S
N438 C439 1.351 . S
C439 C433 1.428 . S
C439 N438 1.351 . S
C439 C440 1.434 . S
C440 C431 1.429 . S
C440 N437 1.350 . S
C440 C439 1.434 . S
C441 C442 1.362 1_554 S
C441 C443 1.422 . S
C441 H445 0.935 . S
C442 C441 1.362 1_556 S
C442 C451 1.429 . S
C443 C441 1.422 . S
C443 C444 1.363 1_554 S
C443 H446 0.929 . S
C444 C443 1.363 1_556 S
C444 C450 1.428 . S
H445 C441 0.935 . S
H446 C443 0.929 . S
S447 N448 1.613 . S
S447 N449 1.610 . S
N448 S447 1.613 . S
N448 C451 1.350 . S
N449 S447 1.610 . S
N449 C450 1.351 . S
C450 C444 1.428 . S
C450 N449 1.351 . S
C450 C451 1.434 . S
C451 C442 1.429 . S
C451 N448 1.350 . S
C451 C450 1.434 . S
C452 C453 1.369 . S
C452 C454 1.419 1_556 S
C452 H456 0.927 1_556 S
C453 C452 1.369 . S
C453 C462 1.429 . S
C454 C452 1.419 1_554 S
C454 C455 1.363 1_554 S
C454 H457 0.929 . S
C455 C454 1.363 1_556 S
C455 C461 1.428 . S
H456 C452 0.927 1_554 S
H457 C454 0.929 . S
S458 N459 1.613 . S
S458 N460 1.610 . S
N459 S458 1.613 . S
N459 C462 1.350 . S
N460 S458 1.610 . S
N460 C461 1.351 . S
C461 C455 1.428 . S
C461 N460 1.351 . S
C461 C462 1.434 . S
C462 C453 1.429 . S
C462 N459 1.350 . S
C462 C461 1.434 . S
C463 C464 1.369 1_554 S
C463 C465 1.419 . S
C463 H467 0.930 . S
C464 C463 1.369 1_556 S
C464 C473 1.429 . S
C465 C463 1.419 . S
C465 C466 1.363 1_554 S
C465 H468 0.929 . S
C466 C465 1.363 1_556 S
C466 C472 1.428 . S
H467 C463 0.930 . S
H468 C465 0.929 . S
S469 N470 1.613 . S
S469 N471 1.610 . S
N470 S469 1.613 . S
N470 C473 1.350 . S
N471 S469 1.610 . S
N471 C472 1.351 . S
C472 C466 1.428 . S
C472 N471 1.351 . S
C472 C473 1.434 . S
C473 C464 1.429 . S
C473 N470 1.350 . S
C473 C472 1.434 . S
C474 C475 1.369 . S
C474 C476 1.419 . S
C474 H478 0.930 . S
C475 C474 1.369 . S
C475 C484 1.429 . S
C476 C474 1.419 . S
C476 C477 1.363 . S
C476 H479 0.929 . S
C477 C476 1.363 . S
C477 C483 1.428 . S
H478 C474 0.930 . S
H479 C476 0.929 . S
S480 N481 1.613 . S
S480 N482 1.610 . S
N481 S480 1.613 . S
N481 C484 1.350 . S
N482 S480 1.610 . S
N482 C483 1.351 . S
C483 C477 1.428 . S
C483 N482 1.351 . S
C483 C484 1.434 . S
C484 C475 1.429 . S
C484 N481 1.350 . S
C484 C483 1.434 . S
C485 C486 1.369 . S
C485 C487 1.419 . S
C485 H489 0.930 . S
C486 C485 1.369 . S
C486 C495 1.429 . S
C487 C485 1.419 . S
C487 C488 1.363 . S
C487 H490 0.929 . S
C488 C487 1.363 . S
C488 C494 1.428 . S
H489 C485 0.930 . S
H490 C487 0.929 . S
S491 N492 1.613 . S
S491 N493 1.610 . S
N492 S491 1.613 . S
N492 C495 1.350 . S
N493 S491 1.610 . S
N493 C494 1.351 . S
C494 C488 1.428 . S
C494 N493 1.351 . S
C494 C495 1.434 . S
C495 C486 1.429 . S
C495 N492 1.350 . S
C495 C494 1.434 . S
C496 C497 1.369 . S
C496 C498 1.419 . S
C496 H500 0.930 . S
C497 C496 1.369 . S
C497 C506 1.429 . S
C498 C496 1.419 . S
C498 C499 1.363 . S
C498 H501 0.929 . S
C499 C498 1.363 . S
C499 C505 1.428 . S
H500 C496 0.930 . S
H501 C498 0.929 . S
S502 N503 1.613 . S
S502 N504 1.610 . S
N503 S502 1.613 . S
N503 C506 1.350 . S
N504 S502 1.610 . S
N504 C505 1.351 . S
C505 C499 1.428 . S
C505 N504 1.351 . S
C505 C506 1.434 . S
C506 C497 1.429 . S
C506 N503 1.350 . S
C506 C505 1.434 . S
C507 C508 1.369 . S
C507 C509 1.419 . S
C507 H511 0.930 . S
C508 C507 1.369 . S
C508 C517 1.429 . S
C509 C507 1.419 . S
C509 C510 1.363 . S
C509 H512 0.929 . S
C510 C509 1.363 . S
C510 C516 1.428 . S
H511 C507 0.930 . S
H512 C509 0.929 . S
S513 N514 1.613 . S
S513 N515 1.610 . S
N514 S513 1.613 . S
N514 C517 1.350 . S
N515 S513 1.610 . S
N515 C516 1.351 . S
C516 C510 1.428 . S
C516 N515 1.351 . S
C516 C517 1.434 . S
C517 C508 1.429 . S
C517 N514 1.350 . S
C517 C516 1.434 . S
C518 C519 1.369 . S
C518 C520 1.419 . S
C518 H522 0.930 . S
C519 C518 1.369 . S
C519 C528 1.429 . S
C520 C518 1.419 . S
C520 C521 1.363 . S
C520 H523 0.929 . S
C521 C520 1.363 . S
C521 C527 1.428 . S
H522 C518 0.930 . S
H523 C520 0.929 . S
S524 N525 1.613 . S
S524 N526 1.610 . S
N525 S524 1.613 . S
N525 C528 1.350 . S
N526 S524 1.610 . S
N526 C527 1.351 . S
C527 C521 1.428 . S
C527 N526 1.351 . S
C527 C528 1.434 . S
C528 C519 1.429 . S
C528 N525 1.350 . S
C528 C527 1.434 . S
C529 C530 1.369 . S
C529 C531 1.419 . S
C529 H533 0.930 . S
C530 C529 1.369 . S
C530 C539 1.429 . S
C531 C529 1.419 . S
C531 C532 1.363 . S
C531 H534 0.929 . S
C532 C531 1.363 . S
C532 C538 1.428 . S
H533 C529 0.930 . S
H534 C531 0.929 . S
S535 N536 1.613 . S
S535 N537 1.610 . S
N536 S535 1.613 . S
N536 C539 1.350 . S
N537 S535 1.610 . S
N537 C538 1.351 . S
C538 C532 1.428 . S
C538 N537 1.351 . S
C538 C539 1.434 . S
C539 C530 1.429 . S
C539 N536 1.350 . S
C539 C538 1.434 . S
C540 C541 1.369 . S
C540 C542 1.419 . S
C540 H544 0.930 . S
C541 C540 1.369 . S
C541 C550 1.429 . S
C542 C540 1.419 . S
C542 C543 1.363 . S
C542 H545 0.929 . S
C543 C542 1.363 . S
C543 C549 1.428 . S
H544 C540 0.930 . S
H545 C542 0.929 . S
S546 N547 1.613 . S
S546 N548 1.610 . S
N547 S546 1.613 . S
N547 C550 1.350 . S
N548 S546 1.610 . S
N548 C549 1.351 . S
C549 C543 1.428 . S
C549 N548 1.351 . S
C549 C550 1.434 . S
C550 C541 1.429 . S
C550 N547 1.350 . S
C550 C549 1.434 . S
C551 C552 1.369 . S
C551 C553 1.419 . S
C551 H555 0.930 . S
C552 C551 1.369 . S
C552 C561 1.429 . S
C553 C551 1.419 . S
C553 C554 1.363 . S
C553 H556 0.929 . S
C554 C553 1.363 . S
C554 C560 1.428 . S
H555 C551 0.930 . S
H556 C553 0.929 . S
S557 N558 1.613 . S
S557 N559 1.610 . S
N558 S557 1.613 . S
N558 C561 1.350 . S
N559 S557 1.610 . S
N559 C560 1.351 . S
C560 C554 1.428 . S
C560 N559 1.351 . S
C560 C561 1.434 . S
C561 C552 1.429 . S
C561 N558 1.350 . S
C561 C560 1.434 . S
C562 C563 1.369 . S
C562 C564 1.419 . S
C562 H566 0.930 . S
C563 C562 1.369 . S
C563 C572 1.429 . S
C564 C562 1.419 . S
C564 C565 1.363 . S
C564 H567 0.929 . S
C565 C564 1.363 . S
C565 C571 1.428 . S
H566 C562 0.930 . S
H567 C564 0.929 . S
S568 N569 1.613 . S
S568 N570 1.610 . S
N569 S568 1.613 . S
N569 C572 1.350 . S
N570 S568 1.610 . S
N570 C571 1.351 . S
C571 C565 1.428 . S
C571 N570 1.351 . S
C571 C572 1.434 . S
C572 C563 1.429 . S
C572 N569 1.350 . S
C572 C571 1.434 . S
C573 C574 1.369 . S
C573 C575 1.419 . S
C573 H577 0.930 . S
C574 C573 1.369 . S
C574 C583 1.429 . S
C575 C573 1.419 . S
C575 C576 1.363 . S
C575 H578 0.929 . S
C576 C575 1.363 . S
C576 C582 1.428 . S
H577 C573 0.930 . S
H578 C575 0.929 . S
S579 N580 1.613 . S
S579 N581 1.610 . S
N580 S579 1.613 . S
N580 C583 1.350 . S
N581 S579 1.610 . S
N581 C582 1.351 . S
C582 C576 1.428 . S
C582 N581 1.351 . S
C582 C583 1.434 . S
C583 C574 1.429 . S
C583 N580 1.350 . S
C583 C582 1.434 . S
C584 C585 1.369 . S
C584 C586 1.419 . S
C584 H588 0.930 . S
C585 C584 1.369 . S
C585 C594 1.429 . S
C586 C584 1.419 . S
C586 C587 1.363 . S
C586 H589 0.929 . S
C587 C586 1.363 . S
C587 C593 1.428 . S
H588 C584 0.930 . S
H589 C586 0.929 . S
S590 N591 1.613 . S
S590 N592 1.610 . S
N591 S590 1.613 . S
N591 C594 1.350 . S
N592 S590 1.610 . S
N592 C593 1.351 . S
C593 C587 1.428 . S
C593 N592 1.351 . S
C593 C594 1.434 . S
C594 C585 1.429 . S
C594 N591 1.350 . S
C594 C593 1.434 . S
C595 C596 1.369 . S
C595 C597 1.419 . S
C595 H599 0.930 . S
C596 C595 1.369 . S
C596 C605 1.429 . S
C597 C595 1.419 . S
C597 C598 1.363 . S
C597 H600 0.929 . S
C598 C597 1.363 . S
C598 C604 1.428 . S
H599 C595 0.930 . S
H600 C597 0.929 . S
S601 N602 1.613 . S
S601 N603 1.610 . S
N602 S601 1.613 . S
N602 C605 1.350 . S
N603 S601 1.610 . S
N603 C604 1.351 . S
C604 C598 1.428 . S
C604 N603 1.351 . S
C604 C605 1.434 . S
C605 C596 1.429 . S
C605 N602 1.350 . S
C605 C604 1.434 . S
C606 C607 1.369 . S
C606 C608 1.419 . S
C606 H610 0.930 . S
C607 C606 1.369 . S
C607 C616 1.429 . S
C608 C606 1.419 . S
C608 C609 1.363 . S
C608 H611 0.929 . S
C609 C608 1.363 . S
C609 C615 1.428 . S
H610 C606 0.930 . S
H611 C608 0.929 . S
S612 N613 1.613 . S
S612 N614 1.610 . S
N613 S612 1.613 . S
N613 C616 1.350 . S
N614 S612 1.610 . S
N614 C615 1.351 . S
C615 C609 1.428 . S
C615 N614 1.351 . S
C615 C616 1.434 . S
C616 C607 1.429 . S
C616 N613 1.350 . S
C616 C615 1.434 . S
C617 C618 1.369 . S
C617 C619 1.419 . S
C617 H621 0.930 . S
C618 C617 1.369 . S
C618 C627 1.429 . S
C619 C617 1.419 . S
C619 C620 1.363 . S
C619 H622 0.929 . S
C620 C619 1.363 . S
C620 C626 1.428 . S
H621 C617 0.930 . S
H622 C619 0.929 . S
S623 N624 1.613 . S
S623 N625 1.610 . S
N624 S623 1.613 . S
N624 C627 1.350 . S
N625 S623 1.610 . S
N625 C626 1.351 . S
C626 C620 1.428 . S
C626 N625 1.351 . S
C626 C627 1.434 . S
C627 C618 1.429 . S
C627 N624 1.350 . S
C627 C626 1.434 . S
C628 C629 1.369 . S
C628 C630 1.419 . S
C628 H632 0.930 . S
C629 C628 1.369 . S
C629 C638 1.429 . S
C630 C628 1.419 . S
C630 C631 1.363 . S
C630 H633 0.929 . S
C631 C630 1.363 . S
C631 C637 1.428 . S
H632 C628 0.930 . S
H633 C630 0.929 . S
S634 N635 1.613 . S
S634 N636 1.610 . S
N635 S634 1.613 . S
N635 C638 1.350 . S
N636 S634 1.610 . S
N636 C637 1.351 . S
C637 C631 1.428 . S
C637 N636 1.351 . S
C637 C638 1.434 . S
C638 C629 1.429 . S
C638 N635 1.350 . S
C638 C637 1.434 . S
C639 C640 1.369 . S
C639 C641 1.419 . S
C639 H643 0.930 . S
C640 C639 1.369 . S
C640 C649 1.429 . S
C641 C639 1.419 . S
C641 C642 1.363 . S
C641 H644 0.929 . S
C642 C641 1.363 . S
C642 C648 1.428 . S
H643 C639 0.930 . S
H644 C641 0.929 . S
S645 N646 1.613 . S
S645 N647 1.610 . S
N646 S645 1.613 . S
N646 C649 1.350 . S
N647 S645 1.610 . S
N647 C648 1.351 . S
C648 C642 1.428 . S
C648 N647 1.351 . S
C648 C649 1.434 . S
C649 C640 1.429 . S
C649 N646 1.350 . S
C649 C648 1.434 . S
C650 C651 1.369 . S
C650 C652 1.419 . S
C650 H654 0.930 . S
C651 C650 1.369 . S
C651 C660 1.429 . S
C652 C650 1.419 . S
C652 C653 1.363 . S
C652 H655 0.929 . S
C653 C652 1.363 . S
C653 C659 1.428 . S
H654 C650 0.930 . S
H655 C652 0.929 . S
S656 N657 1.613 . S
S656 N658 1.610 . S
N657 S656 1.613 . S
N657 C660 1.350 . S
N658 S656 1.610 . S
N658 C659 1.351 . S
C659 C653 1.428 . S
C659 N658 1.351 . S
C659 C660 1.434 . S
C660 C651 1.429 . S
C660 N657 1.350 . S
C660 C659 1.434 . S
C661 C662 1.369 . S
C661 C663 1.419 . S
C661 H665 0.930 . S
C662 C661 1.369 . S
C662 C671 1.429 . S
C663 C661 1.419 . S
C663 C664 1.363 . S
C663 H666 0.929 . S
C664 C663 1.363 . S
C664 C670 1.428 . S
H665 C661 0.930 . S
H666 C663 0.929 . S
S667 N668 1.613 . S
S667 N669 1.610 . S
N668 S667 1.613 . S
N668 C671 1.350 . S
N669 S667 1.610 . S
N669 C670 1.351 . S
C670 C664 1.428 . S
C670 N669 1.351 . S
C670 C671 1.434 . S
C671 C662 1.429 . S
C671 N668 1.350 . S
C671 C670 1.434 . S
C672 C673 1.369 . S
C672 C674 1.419 . S
C672 H676 0.930 1_554 S
C673 C672 1.369 . S
C673 C682 1.429 . S
C674 C672 1.419 . S
C674 C675 1.363 . S
C674 H677 0.929 . S
C675 C674 1.363 . S
C675 C681 1.428 . S
H676 C672 0.930 1_556 S
H677 C674 0.929 . S
S678 N679 1.613 . S
S678 N680 1.610 . S
N679 S678 1.613 . S
N679 C682 1.350 . S
N680 S678 1.610 . S
N680 C681 1.351 . S
C681 C675 1.428 . S
C681 N680 1.351 . S
C681 C682 1.434 . S
C682 C673 1.429 . S
C682 N679 1.350 . S
C682 C681 1.434 . S
C683 C684 1.369 . S
C683 C685 1.419 . S
C683 H687 0.930 . S
C684 C683 1.369 . S
C684 C693 1.429 . S
C685 C683 1.419 . S
C685 C686 1.363 . S
C685 H688 0.929 . S
C686 C685 1.363 . S
C686 C692 1.428 . S
H687 C683 0.930 . S
H688 C685 0.929 . S
S689 N690 1.613 . S
S689 N691 1.610 . S
N690 S689 1.613 . S
N690 C693 1.350 . S
N691 S689 1.610 . S
N691 C692 1.351 . S
C692 C686 1.428 . S
C692 N691 1.351 . S
C692 C693 1.434 . S
C693 C684 1.429 . S
C693 N690 1.350 . S
C693 C692 1.434 . S
C694 C695 1.369 . S
C694 C696 1.419 . S
C694 H698 0.930 . S
C695 C694 1.369 . S
C695 C704 1.429 1_554 S
C696 C694 1.419 . S
C696 C697 1.363 . S
C696 H699 0.929 . S
C697 C696 1.363 . S
C697 C703 1.428 1_554 S
H698 C694 0.930 . S
H699 C696 0.929 . S
S700 N701 1.613 . S
S700 N702 1.610 . S
N701 S700 1.613 . S
N701 C704 1.350 . S
N702 S700 1.610 . S
N702 C703 1.351 . S
C703 C697 1.428 1_556 S
C703 N702 1.351 . S
C703 C704 1.434 . S
C704 C695 1.429 1_556 S
C704 N701 1.350 . S
C704 C703 1.434 . S
C705 C706 1.369 . S
C705 C707 1.419 . S
C705 H709 0.930 . S
C706 C705 1.369 . S
C706 C715 1.429 . S
C707 C705 1.419 . S
C707 C708 1.363 . S
C707 H710 0.929 . S
C708 C707 1.363 . S
C708 C714 1.428 . S
H709 C705 0.930 . S
H710 C707 0.929 . S
S711 N712 1.613 1_556 S
S711 N713 1.610 . S
N712 S711 1.613 1_554 S
N712 C715 1.350 . S
N713 S711 1.610 . S
N713 C714 1.351 1_556 S
C714 C708 1.428 . S
C714 N713 1.351 1_554 S
C714 C715 1.434 . S
C715 C706 1.429 . S
C715 N712 1.350 . S
C715 C714 1.434 . S
C716 C717 1.369 . S
C716 C718 1.419 . S
C716 H720 0.930 . S
C717 C716 1.369 . S
C717 C726 1.429 . S
C718 C716 1.419 . S
C718 C719 1.363 . S
C718 H721 0.929 . S
C719 C718 1.363 . S
C719 C725 1.428 . S
H720 C716 0.930 . S
H721 C718 0.929 . S
S722 N723 1.613 . S
S722 N724 1.610 . S
N723 S722 1.613 . S
N723 C726 1.350 . S
N724 S722 1.610 . S
N724 C725 1.351 . S
C725 C719 1.428 . S
C725 N724 1.351 . S
C725 C726 1.434 . S
C726 C717 1.429 . S
C726 N723 1.350 . S
C726 C725 1.434 . S
C727 C728 1.369 . S
C727 C729 1.419 . S
C727 H731 0.930 . S
C728 C727 1.369 . S
C728 C737 1.429 . S
C729 C727 1.419 . S
C729 C730 1.363 . S
C729 H732 0.929 . S
C730 C729 1.363 . S
C730 C736 1.428 . S
H731 C727 0.930 . S
H732 C729 0.929 . S
S733 N734 1.613 . S
S733 N735 1.610 . S
N734 S733 1.613 . S
N734 C737 1.350 1_556 S
N735 S733 1.610 . S
N735 C736 1.351 1_556 S
C736 C730 1.428 . S
C736 N735 1.351 1_554 S
C736 C737 1.434 . S
C737 C728 1.429 . S
C737 N734 1.350 1_554 S
C737 C736 1.434 . S
C738 C739 1.369 . S
C738 C740 1.419 . S
C738 H742 0.930 . S
C739 C738 1.369 . S
C739 C748 1.429 . S
C740 C738 1.419 . S
C740 C741 1.363 . S
C740 H743 0.929 . S
C741 C740 1.363 . S
C741 C747 1.428 . S
H742 C738 0.930 . S
H743 C740 0.929 . S
S744 N745 1.613 . S
S744 N746 1.610 . S
N745 S744 1.613 . S
N745 C748 1.350 . S
N746 S744 1.610 . S
N746 C747 1.351 . S
C747 C741 1.428 . S
C747 N746 1.351 . S
C747 C748 1.434 . S
C748 C739 1.429 . S
C748 N745 1.350 . S
C748 C747 1.434 . S
C749 C750 1.369 . S
C749 C751 1.419 . S
C749 H753 0.930 . S
C750 C749 1.369 . S
C750 C759 1.429 . S
C751 C749 1.419 . S
C751 C752 1.363 . S
C751 H754 0.929 . S
C752 C751 1.363 . S
C752 C758 1.428 . S
H753 C749 0.930 . S
H754 C751 0.929 . S
S755 N756 1.613 . S
S755 N757 1.610 . S
N756 S755 1.613 . S
N756 C759 1.350 . S
N757 S755 1.610 . S
N757 C758 1.351 . S
C758 C752 1.428 . S
C758 N757 1.351 . S
C758 C759 1.434 . S
C759 C750 1.429 . S
C759 N756 1.350 . S
C759 C758 1.434 . S
C760 C761 1.369 . S
C760 C762 1.419 . S
C760 H764 0.930 . S
C761 C760 1.369 . S
C761 C770 1.429 . S
C762 C760 1.419 . S
C762 C763 1.363 . S
C762 H765 0.929 . S
C763 C762 1.363 . S
C763 C769 1.428 . S
H764 C760 0.930 . S
H765 C762 0.929 . S
S766 N767 1.613 . S
S766 N768 1.610 . S
N767 S766 1.613 . S
N767 C770 1.350 . S
N768 S766 1.610 . S
N768 C769 1.351 . S
C769 C763 1.428 . S
C769 N768 1.351 . S
C769 C770 1.434 . S
C770 C761 1.429 . S
C770 N767 1.350 . S
C770 C769 1.434 . S
C771 C772 1.369 . S
C771 C773 1.419 . S
C771 H775 0.930 . S
C772 C771 1.369 . S
C772 C781 1.429 . S
C773 C771 1.419 . S
C773 C774 1.363 . S
C773 H776 0.929 . S
C774 C773 1.363 . S
C774 C780 1.428 . S
H775 C771 0.930 . S
H776 C773 0.929 . S
S777 N778 1.613 . S
S777 N779 1.610 . S
N778 S777 1.613 . S
N778 C781 1.350 . S
N779 S777 1.610 . S
N779 C780 1.351 . S
C780 C774 1.428 . S
C780 N779 1.351 . S
C780 C781 1.434 . S
C781 C772 1.429 . S
C781 N778 1.350 . S
C781 C780 1.434 . S
C782 C783 1.369 . S
C782 C784 1.419 . S
C782 H786 0.930 . S
C783 C782 1.369 . S
C783 C792 1.429 . S
C784 C782 1.419 . S
C784 C785 1.363 . S
C784 H787 0.929 . S
C785 C784 1.363 . S
C785 C791 1.428 . S
H786 C782 0.930 . S
H787 C784 0.929 . S
S788 N789 1.613 . S
S788 N790 1.610 . S
N789 S788 1.613 . S
N789 C792 1.350 . S
N790 S788 1.610 . S
N790 C791 1.351 . S
C791 C785 1.428 . S
C791 N790 1.351 . S
C791 C792 1.434 . S
C792 C783 1.429 . S
C792 N789 1.350 . S
C792 C791 1.434 . S
C793 C794 1.369 . S
C793 C795 1.419 . S
C793 H797 0.930 . S
C794 C793 1.369 . S
C794 C803 1.429 . S
C795 C793 1.419 . S
C795 C796 1.363 . S
C795 H798 0.929 . S
C796 C795 1.363 . S
C796 C802 1.428 . S
H797 C793 0.930 . S
H798 C795 0.929 . S
S799 N800 1.613 . S
S799 N801 1.610 . S
N800 S799 1.613 . S
N800 C803 1.350 . S
N801 S799 1.610 . S
N801 C802 1.351 . S
C802 C796 1.428 . S
C802 N801 1.351 . S
C802 C803 1.434 . S
C803 C794 1.429 . S
C803 N800 1.350 . S
C803 C802 1.434 . S
C804 C805 1.369 1_554 S
C804 C806 1.419 . S
C804 H808 0.930 . S
C805 C804 1.369 1_556 S
C805 C814 1.429 1_545 S
C806 C804 1.419 . S
C806 C807 1.363 1_544 S
C806 H809 0.929 . S
C807 C806 1.363 1_566 S
C807 C813 1.428 . S
H808 C804 0.930 . S
H809 C806 0.929 . S
S810 N811 1.613 . S
S810 N812 1.610 . S
N811 S810 1.613 . S
N811 C814 1.350 . S
N812 S810 1.610 . S
N812 C813 1.351 . S
C813 C807 1.428 . S
C813 N812 1.351 . S
C813 C814 1.434 . S
C814 C805 1.429 1_565 S
C814 N811 1.350 . S
C814 C813 1.434 . S
C815 C816 1.369 . S
C815 C817 1.419 . S
C815 H819 0.930 . S
C816 C815 1.369 . S
C816 C825 1.429 . S
C817 C815 1.419 . S
C817 C818 1.363 . S
C817 H820 0.929 . S
C818 C817 1.363 . S
C818 C824 1.428 . S
H819 C815 0.930 . S
H820 C817 0.929 . S
S821 N822 1.613 . S
S821 N823 1.610 . S
N822 S821 1.613 . S
N822 C825 1.350 . S
N823 S821 1.610 . S
N823 C824 1.351 . S
C824 C818 1.428 . S
C824 N823 1.351 . S
C824 C825 1.434 . S
C825 C816 1.429 . S
C825 N822 1.350 . S
C825 C824 1.434 . S
C826 C827 1.369 . S
C826 C828 1.419 . S
C826 H830 0.930 . S
C827 C826 1.369 . S
C827 C836 1.429 1_656 S
C828 C826 1.419 . S
C828 C829 1.363 1_655 S
C828 H831 0.929 . S
C829 C828 1.363 1_455 S
C829 C835 1.428 1_556 S
H830 C826 0.930 . S
H831 C828 0.929 . S
S832 N833 1.613 . S
S832 N834 1.610 . S
N833 S832 1.613 . S
N833 C836 1.350 . S
N834 S832 1.610 . S
N834 C835 1.351 . S
C835 C829 1.428 1_554 S
C835 N834 1.351 . S
C835 C836 1.434 . S
C836 C827 1.429 1_454 S
C836 N833 1.350 . S
C836 C835 1.434 . S
C837 C838 1.369 . S
C837 C839 1.419 1_655 S
C837 H841 0.930 . S
C838 C837 1.369 . S
C838 C847 1.429 . S
C839 C837 1.419 1_455 S
C839 C840 1.363 . S
C839 H842 0.929 . S
C840 C839 1.363 . S
C840 C846 1.428 . S
H841 C837 0.930 . S
H842 C839 0.929 . S
S843 N844 1.613 . S
S843 N845 1.610 1_655 S
N844 S843 1.613 . S
N844 C847 1.350 . S
N845 S843 1.610 1_455 S
N845 C846 1.351 . S
C846 C840 1.428 . S
C846 N845 1.351 . S
C846 C847 1.434 1_455 S
C847 C838 1.429 . S
C847 N844 1.350 . S
C847 C846 1.434 1_655 S
C848 C849 1.369 . S
C848 C850 1.419 . S
C848 H852 0.930 . S
C849 C848 1.369 . S
C849 C858 1.429 1_545 S
C850 C848 1.419 . S
C850 C851 1.363 1_545 S
C850 H853 0.929 . S
C851 C850 1.363 1_565 S
C851 C857 1.428 . S
H852 C848 0.930 . S
H853 C850 0.929 . S
S854 N855 1.613 . S
S854 N856 1.610 . S
N855 S854 1.613 . S
N855 C858 1.350 . S
N856 S854 1.610 . S
N856 C857 1.351 . S
C857 C851 1.428 . S
C857 N856 1.351 . S
C857 C858 1.434 . S
C858 C849 1.429 1_565 S
C858 N855 1.350 . S
C858 C857 1.434 . S
C859 C860 1.369 . S
C859 C861 1.419 . S
C859 H863 0.930 . S
C860 C859 1.369 . S
C860 C869 1.429 . S
C861 C859 1.419 . S
C861 C862 1.363 . S
C861 H864 0.929 . S
C862 C861 1.363 . S
C862 C868 1.428 . S
H863 C859 0.930 . S
H864 C861 0.929 . S
S865 N866 1.613 . S
S865 N867 1.610 . S
N866 S865 1.613 . S
N866 C869 1.350 . S
N867 S865 1.610 . S
N867 C868 1.351 . S
C868 C862 1.428 . S
C868 N867 1.351 . S
C868 C869 1.434 . S
C869 C860 1.429 . S
C869 N866 1.350 . S
C869 C868 1.434 . S
C409 C28 1.009 1_565 S
C411 C187 1.013 . S
C420 C40 1.009 . S
C422 C17 1.018 . S
C431 C96 1.009 1_455 S
C433 C51 1.018 . S
C442 C108 1.010 1_545 S
C444 C85 1.017 . S
C453 C164 1.003 . S
C455 C119 1.012 . S
C464 C176 1.010 1_655 S
C466 C153 1.014 . S
C475 C210 1.005 1_455 S
C477 C255 1.018 . S
C486 C266 1.000 1_545 S
C488 C289 1.016 . S
C497 C278 1.000 . S
C499 C323 1.015 . S
C508 C357 1.013 . S
C510 C334 1.001 1_655 S
C519 C391 1.015 . S
C521 C346 1.009 1_565 S
C530 C221 1.018 . S
C532 C402 1.003 . S
C541 C287 1.591 . S
C543 C22 1.585 . S
C552 C328 1.584 . S
C554 C49 1.590 . S
C563 C90 1.589 . S
C565 C355 1.585 . S
C574 C396 1.590 . S
C576 C117 1.594 . S
C585 C158 1.595 . S
C587 C219 1.588 . S
C596 C185 1.591 . S
C598 C260 1.585 . S
C607 C389 2.162 . S
C609 C124 2.170 . S
C618 C151 2.161 . S
C620 C226 2.169 . S
C629 C192 2.168 . S
C631 C253 2.162 . S
C640 C15 2.161 . S
C642 C294 2.169 . S
C651 C56 2.172 . S
C653 C321 2.164 . S
C662 C83 2.165 . S
C664 C362 2.163 . S
C673 C74 1.168 . S
C675 C1 1.074 . S
C684 C130 1.169 . S
C686 C37 1.062 . S
C695 C69 1.058 . S
C697 C142 1.169 . S
C706 C105 1.068 . S
C708 C198 1.168 . S
C717 C6 1.167 . S
C719 C137 1.074 . S
C728 C62 1.167 . S
C730 C173 1.071 . S
C739 C207 1.071 . S
C741 C368 1.169 . S
C750 C239 1.058 . S
C752 C380 1.169 . S
C761 C232 1.167 . S
C763 C275 1.071 . S
C772 C244 1.168 . S
C774 C307 1.064 . S
C783 C300 1.169 . S
C785 C343 1.068 . S
C794 C375 1.063 . S
C796 C312 1.168 . S
C805 C3 2.211 . S
C807 C103 2.204 . S
C816 C35 2.202 . S
C818 C139 2.209 . S
C827 C71 2.202 . S
C829 C171 2.203 . S
C838 C205 2.200 . S
C840 C309 2.205 . S
C849 C341 2.209 . S
C851 C241 2.202 . S
C860 C377 2.200 . S
C862 C273 2.208 . S
