# Generated by pormake.
# Topology uof, (4)-cn, num edge types: 1
# Building blocks:
#     Node 0, Type 0, BuildingBlock: AZAVOO_clean_sbu_0, # of connection points: 4
#     Node 1, Type 0, BuildingBlock: AZAVOO_clean_sbu_0, # of connection points: 4
#     Node 2, Type 0, BuildingBlock: AZAVOO_clean_sbu_0, # of connection points: 4
#     Node 3, Type 0, BuildingBlock: AZAVOO_clean_sbu_0, # of connection points: 4
#     Node 4, Type 0, BuildingBlock: AZAVOO_clean_sbu_0, # of connection points: 4
#     Node 5, Type 0, BuildingBlock: AZAVOO_clean_sbu_0, # of connection points: 4
#     Node 6, Type 0, BuildingBlock: AZAVOO_clean_sbu_0, # of connection points: 4
#     Node 7, Type 0, BuildingBlock: AZAVOO_clean_sbu_0, # of connection points: 4
#     Node 8, Type 0, BuildingBlock: AZAVOO_clean_sbu_0, # of connection points: 4
#     Node 9, Type 0, BuildingBlock: AZAVOO_clean_sbu_0, # of connection points: 4
#     Node 10, Type 0, BuildingBlock: AZAVOO_clean_sbu_0, # of connection points: 4
#     Node 11, Type 0, BuildingBlock: AZAVOO_clean_sbu_0, # of connection points: 4
#     Edge 12, Type (0, 0), BuildingBlock: KIFKEQ_clean_linker_1, # of connection points: 2
#     Edge 13, Type (0, 0), BuildingBlock: KIFKEQ_clean_linker_1, # of connection points: 2
#     Edge 14, Type (0, 0), BuildingBlock: KIFKEQ_clean_linker_1, # of connection points: 2
#     Edge 15, Type (0, 0), BuildingBlock: KIFKEQ_clean_linker_1, # of connection points: 2
#     Edge 16, Type (0, 0), BuildingBlock: KIFKEQ_clean_linker_1, # of connection points: 2
#     Edge 17, Type (0, 0), BuildingBlock: KIFKEQ_clean_linker_1, # of connection points: 2
#     Edge 18, Type (0, 0), BuildingBlock: KIFKEQ_clean_linker_1, # of connection points: 2
#     Edge 19, Type (0, 0), BuildingBlock: KIFKEQ_clean_linker_1, # of connection points: 2
#     Edge 20, Type (0, 0), BuildingBlock: KIFKEQ_clean_linker_1, # of connection points: 2
#     Edge 21, Type (0, 0), BuildingBlock: KIFKEQ_clean_linker_1, # of connection points: 2
#     Edge 22, Type (0, 0), BuildingBlock: KIFKEQ_clean_linker_1, # of connection points: 2
#     Edge 23, Type (0, 0), BuildingBlock: KIFKEQ_clean_linker_1, # of connection points: 2
#     Edge 24, Type (0, 0), BuildingBlock: KIFKEQ_clean_linker_1, # of connection points: 2
#     Edge 25, Type (0, 0), BuildingBlock: KIFKEQ_clean_linker_1, # of connection points: 2
#     Edge 26, Type (0, 0), BuildingBlock: KIFKEQ_clean_linker_1, # of connection points: 2
#     Edge 27, Type (0, 0), BuildingBlock: KIFKEQ_clean_linker_1, # of connection points: 2
#     Edge 28, Type (0, 0), BuildingBlock: KIFKEQ_clean_linker_1, # of connection points: 2
#     Edge 29, Type (0, 0), BuildingBlock: KIFKEQ_clean_linker_1, # of connection points: 2
#     Edge 30, Type (0, 0), BuildingBlock: KIFKEQ_clean_linker_1, # of connection points: 2
#     Edge 31, Type (0, 0), BuildingBlock: KIFKEQ_clean_linker_1, # of connection points: 2
#     Edge 32, Type (0, 0), BuildingBlock: KIFKEQ_clean_linker_1, # of connection points: 2
#     Edge 33, Type (0, 0), BuildingBlock: KIFKEQ_clean_linker_1, # of connection points: 2
#     Edge 34, Type (0, 0), BuildingBlock: KIFKEQ_clean_linker_1, # of connection points: 2
#     Edge 35, Type (0, 0), BuildingBlock: KIFKEQ_clean_linker_1, # of connection points: 2
# Relax obj value: 0.245
# Max RMSD: 0.197
# Mean RMSD: 0.197
data_MOF--net-uof--node1-AZAVOO_clean_sbu_0--edge1-KIFKEQ_clean_linker_1
_symmetry_space_group_name_H-M    P1
_symmetry_Int_Tables_number       1
_symmetry_cell_setting            triclinic
loop_
_symmetry_equiv_pos_as_xyz
'x, y, z'
_cell_length_a     32.322911
_cell_length_b     32.359741
_cell_length_c     63.221544
_cell_angle_alpha  90.034822
_cell_angle_beta   90.019307
_cell_angle_gamma 119.90968
loop_
_atom_site_label
_atom_site_type_symbol
_atom_site_fract_x
_atom_site_fract_y
_atom_site_fract_z
_atom_type_partial_charge
Mg0 Mg 0.26388 0.34883 0.20627 0.0
O1 O 0.2893 0.2987 0.19372 0.0
O2 O 0.36746 0.33075 0.20022 0.0
Mg3 Mg 0.38946 0.39624 0.22082 0.0
C4 C 0.32844 0.29816 0.19225 0.0
C5 C 0.16534 0.3078 0.18606 0.0
O6 O 0.18842 0.35215 0.1794 0.0
O7 O 0.25901 0.3183 0.23952 0.0
O8 O 0.33678 0.34696 0.2459 0.0
O9 O 0.29197 0.39185 0.17647 0.0
O10 O 0.33353 0.40557 0.20601 0.0
C11 C 0.29295 0.32188 0.25121 0.0
C12 C 0.33214 0.41514 0.18641 0.0
O13 O 0.18676 0.29343 0.19831 0.0
Mg14 Mg 0.91416 0.26473 0.54557 0.0
O15 O 0.98899 0.28717 0.53284 0.0
O16 O 0.03722 0.36414 0.54064 0.0
Mg17 Mg 0.99509 0.38924 0.56038 0.0
C18 C 0.02971 0.3252 0.53214 0.0
C19 C 0.84764 0.16669 0.52881 0.0
O20 O 0.82576 0.19138 0.52629 0.0
O21 O 0.93882 0.25853 0.57896 0.0
O22 O 0.98875 0.33582 0.58567 0.0
O23 O 0.90034 0.29326 0.51574 0.0
O24 O 0.92957 0.33516 0.54512 0.0
C25 C 0.96901 0.29192 0.5909 0.0
C26 C 0.91863 0.33374 0.52549 0.0
O27 O 0.8886 0.18696 0.53747 0.0
Mg28 Mg 0.63742 0.90738 0.87784 0.0
O29 O 0.68891 0.9834 0.86664 0.0
O30 O 0.65623 0.02929 0.87231 0.0
Mg31 Mg 0.58889 0.985 0.8917 0.0
C32 C 0.68969 0.02313 0.86516 0.0
C33 C 0.68079 0.85188 0.85761 0.0
O34 O 0.63703 0.83113 0.85014 0.0
O35 O 0.66498 0.93099 0.91171 0.0
O36 O 0.6363 0.98033 0.91744 0.0
O37 O 0.59794 0.89526 0.84713 0.0
O38 O 0.58062 0.92063 0.87649 0.0
C39 C 0.66078 0.9612 0.92325 0.0
C40 C 0.57367 0.91167 0.8566 0.0
O41 O 0.69376 0.88626 0.87056 0.0
Mg42 Mg 0.73741 0.65382 0.21408 0.0
O43 O 0.71119 0.70397 0.20263 0.0
O44 O 0.63401 0.6725 0.21084 0.0
Mg45 Mg 0.6126 0.60523 0.23001 0.0
C46 C 0.67226 0.70512 0.20237 0.0
C47 C 0.83484 0.69507 0.19334 0.0
O48 O 0.81188 0.65026 0.18727 0.0
O49 O 0.74368 0.68289 0.24782 0.0
O50 O 0.66619 0.65292 0.2552 0.0
O51 O 0.70889 0.61279 0.18396 0.0
O52 O 0.66773 0.59673 0.21375 0.0
C53 C 0.71024 0.67815 0.26016 0.0
C54 C 0.66885 0.58875 0.19389 0.0
O55 O 0.81388 0.70979 0.20568 0.0
Mg56 Mg 0.09881 0.73842 0.54621 0.0
O57 O 0.02099 0.71203 0.53804 0.0
O58 O 0.97681 0.63568 0.54757 0.0
Mg59 Mg 0.02718 0.61385 0.56306 0.0
C60 C 0.98087 0.67359 0.53936 0.0
C61 C 0.15062 0.83489 0.52511 0.0
O62 O 0.17168 0.81184 0.51803 0.0
O63 O 0.08215 0.74488 0.581 0.0
O64 O 0.04204 0.66741 0.5897 0.0
O65 O 0.10573 0.70952 0.51497 0.0
O66 O 0.08684 0.66904 0.54497 0.0
C67 C 0.06028 0.71144 0.59448 0.0
C68 C 0.09211 0.66979 0.52481 0.0
O69 O 0.11702 0.81435 0.53846 0.0
Mg70 Mg 0.35205 0.08908 0.87994 0.0
O71 O 0.30218 0.0139 0.86726 0.0
O72 O 0.33676 0.96915 0.87088 0.0
Mg73 Mg 0.40406 0.01282 0.89045 0.0
C74 C 0.30244 0.9749 0.86458 0.0
C75 C 0.30854 0.14567 0.86177 0.0
O76 O 0.35316 0.16819 0.85539 0.0
O77 O 0.32401 0.06061 0.91344 0.0
O78 O 0.35522 0.01274 0.91655 0.0
O79 O 0.39222 0.10576 0.84914 0.0
O80 O 0.41024 0.07809 0.87751 0.0
C81 C 0.32938 0.02935 0.92356 0.0
C82 C 0.41735 0.08945 0.85786 0.0
O83 O 0.29464 0.10928 0.87357 0.0
Mg84 Mg 0.64382 0.73075 0.45635 0.0
O85 O 0.69512 0.70716 0.46935 0.0
O86 O 0.66751 0.63092 0.46047 0.0
Mg87 Mg 0.6023 0.60775 0.43952 0.0
C88 C 0.69792 0.66914 0.46979 0.0
C89 C 0.67593 0.82633 0.4768 0.0
O90 O 0.63002 0.80067 0.48078 0.0
O91 O 0.6773 0.74005 0.42336 0.0
O92 O 0.65118 0.66353 0.41539 0.0
O93 O 0.59929 0.69928 0.4854 0.0
O94 O 0.58906 0.66023 0.45533 0.0
C95 C 0.67539 0.70789 0.41096 0.0
C96 C 0.57816 0.65972 0.47491 0.0
O97 O 0.69552 0.80775 0.46591 0.0
Mg98 Mg 0.90137 0.64001 0.78601 0.0
O99 O 0.97644 0.68987 0.79904 0.0
O100 O 0.02202 0.65646 0.79437 0.0
Mg101 Mg 0.97925 0.59078 0.77383 0.0
C102 C 0.01572 0.6899 0.8014 0.0
C103 C 0.88323 0.71166 0.81168 0.0
O104 O 0.90286 0.69806 0.82627 0.0
O105 O 0.92975 0.67057 0.7529 0.0
O106 O 0.97923 0.64149 0.74865 0.0
O107 O 0.88459 0.5979 0.81617 0.0
O108 O 0.91358 0.58269 0.78742 0.0
C109 C 0.96168 0.66706 0.7424 0.0
C110 C 0.90199 0.57417 0.80701 0.0
O111 O 0.87941 0.69576 0.79294 0.0
Mg112 Mg 0.26301 0.89635 0.12095 0.0
O113 O 0.28997 0.97489 0.1279 0.0
O114 O 0.36827 0.01696 0.12107 0.0
Mg115 Mg 0.3896 0.96551 0.10649 0.0
C116 C 0.32952 0.01412 0.12755 0.0
C117 C 0.17476 0.88844 0.14427 0.0
O118 O 0.20831 0.91163 0.15842 0.0
O119 O 0.26042 0.91237 0.08576 0.0
O120 O 0.3388 0.9524 0.07876 0.0
O121 O 0.28865 0.89038 0.15322 0.0
O122 O 0.33189 0.9073 0.12409 0.0
C123 C 0.29532 0.93453 0.07297 0.0
C124 C 0.32935 0.90346 0.14432 0.0
O125 O 0.18621 0.87876 0.12646 0.0
Mg126 Mg 0.35791 0.25754 0.44701 0.0
O127 O 0.30745 0.28315 0.45884 0.0
O128 O 0.3391 0.36073 0.45167 0.0
Mg129 Mg 0.40674 0.38298 0.43259 0.0
C130 C 0.30625 0.32196 0.45967 0.0
C131 C 0.2848 0.17057 0.47296 0.0
O132 O 0.29794 0.20502 0.48691 0.0
O133 O 0.32949 0.25329 0.41337 0.0
O134 O 0.35925 0.33102 0.40686 0.0
O135 O 0.39814 0.28375 0.47738 0.0
O136 O 0.41487 0.32693 0.44817 0.0
C137 C 0.33418 0.28727 0.40146 0.0
C138 C 0.42215 0.3245 0.46801 0.0
O139 O 0.3018 0.18083 0.45434 0.0
Mg140 Mg 0.09062 0.35806 0.78763 0.0
O141 O 0.01413 0.30609 0.79835 0.0
O142 O 0.96814 0.33825 0.79164 0.0
Mg143 Mg 0.01284 0.4054 0.77229 0.0
C144 C 0.97419 0.30513 0.79927 0.0
C145 C 0.10718 0.28548 0.81369 0.0
O146 O 0.08515 0.29718 0.8279 0.0
O147 O 0.06859 0.33009 0.75374 0.0
O148 O 0.01914 0.35812 0.74693 0.0
O149 O 0.10148 0.39766 0.81816 0.0
O150 O 0.0765 0.41416 0.78846 0.0
C151 C 0.03889 0.33387 0.74168 0.0
C152 C 0.0847 0.42127 0.80839 0.0
O153 O 0.11316 0.303 0.79519 0.0
Mg154 Mg 0.72913 0.09749 0.11863 0.0
O155 O 0.70503 0.02223 0.13094 0.0
O156 O 0.62718 0.97548 0.12431 0.0
Mg157 Mg 0.60313 0.01926 0.1051 0.0
C158 C 0.66646 0.98211 0.13212 0.0
C159 C 0.81977 0.11468 0.14361 0.0
O160 O 0.78722 0.09436 0.15842 0.0
O161 O 0.73235 0.07218 0.08503 0.0
O162 O 0.65443 0.02331 0.07914 0.0
O163 O 0.70308 0.11182 0.1491 0.0
O164 O 0.65927 0.08414 0.12011 0.0
C165 C 0.69803 0.04215 0.07344 0.0
C166 C 0.66198 0.09439 0.13989 0.0
O167 O 0.80693 0.11961 0.12521 0.0
H168 H 0.8964 0.16359 0.11739 0.0
H169 H 0.85941 0.11478 0.18188 0.0
H170 H 0.98065 0.20595 0.12698 0.0
H171 H 0.94369 0.15788 0.19153 0.0
H172 H 0.10474 0.21503 0.19798 0.0
H173 H 0.02195 0.16335 0.1868 0.0
H174 H 0.0305 0.27704 0.14789 0.0
H175 H 0.11284 0.32814 0.15873 0.0
C176 C 0.90622 0.16156 0.13357 0.0
C177 C 0.8711 0.13617 0.14891 0.0
C178 C 0.95452 0.18608 0.1391 0.0
C179 C 0.96886 0.18576 0.16008 0.0
C180 C 0.93389 0.15863 0.17521 0.0
C181 C 0.88553 0.13413 0.16969 0.0
C182 C 0.08893 0.22884 0.18697 0.0
C183 C 0.11539 0.27573 0.17928 0.0
C184 C 0.04149 0.19931 0.18063 0.0
C185 C 0.0197 0.216 0.16637 0.0
C186 C 0.0464 0.26275 0.1586 0.0
C187 C 0.09358 0.29222 0.16497 0.0
H188 H 0.76021 0.11534 0.51061 0.0
H189 H 0.88305 0.10499 0.52987 0.0
H190 H 0.7214 0.03359 0.49811 0.0
H191 H 0.84344 0.02214 0.51751 0.0
H192 H 0.77132 0.89118 0.47136 0.0
H193 H 0.81496 0.97357 0.48424 0.0
H194 H 0.68624 0.95458 0.51387 0.0
H195 H 0.64276 0.87324 0.50086 0.0
C196 C 0.77894 0.09556 0.51226 0.0
C197 C 0.82467 0.11667 0.52136 0.0
C198 C 0.75652 0.04853 0.50517 0.0
C199 C 0.77915 0.02123 0.50697 0.0
C200 C 0.82521 0.04239 0.5158 0.0
C201 C 0.84774 0.08968 0.52299 0.0
C202 C 0.75246 0.90468 0.48064 0.0
C203 C 0.70347 0.87577 0.48492 0.0
C204 C 0.7775 0.95172 0.48812 0.0
C205 C 0.75394 0.97069 0.49992 0.0
C206 C 0.70524 0.94135 0.5045 0.0
C207 C 0.68035 0.89457 0.4971 0.0
H208 H 0.77344 0.8846 0.87027 0.0
H209 H 0.66336 0.78208 0.82902 0.0
H210 H 0.82741 0.85673 0.85835 0.0
H211 H 0.71673 0.75404 0.81744 0.0
H212 H 0.83377 0.74033 0.78616 0.0
H213 H 0.78901 0.7792 0.7968 0.0
H214 H 0.83554 0.78528 0.86135 0.0
H215 H 0.881 0.74716 0.85068 0.0
C216 C 0.76075 0.85617 0.85869 0.0
C217 C 0.71407 0.83555 0.85062 0.0
C218 C 0.79161 0.84013 0.85191 0.0
C219 C 0.77648 0.80335 0.83684 0.0
C220 C 0.72986 0.783 0.82876 0.0
C221 C 0.69908 0.79886 0.83556 0.0
C222 C 0.83499 0.75049 0.80257 0.0
C223 C 0.86062 0.74019 0.8176 0.0
C224 C 0.80908 0.77252 0.8087 0.0
C225 C 0.80822 0.78482 0.82998 0.0
C226 C 0.83564 0.77653 0.84482 0.0
C227 C 0.86153 0.75443 0.8387 0.0
H228 H 0.89393 0.78982 0.20271 0.0
H229 H 0.88656 0.67337 0.16619 0.0
H230 H 0.97488 0.84218 0.18955 0.0
H231 H 0.96711 0.72513 0.15342 0.0
H232 H 0.09625 0.83537 0.1195 0.0
H233 H 0.01292 0.7932 0.13051 0.0
H234 H 0.05475 0.8518 0.1934 0.0
H235 H 0.138 0.89478 0.1823 0.0
C236 C 0.90953 0.7754 0.1919 0.0
C237 C 0.88381 0.7274 0.18553 0.0
C238 C 0.95591 0.80534 0.18441 0.0
C239 C 0.97735 0.78791 0.17033 0.0
C240 C 0.95139 0.73999 0.16392 0.0
C241 C 0.90526 0.71015 0.17142 0.0
C242 C 0.08765 0.83984 0.1356 0.0
C243 C 0.12386 0.86802 0.15009 0.0
C244 C 0.0399 0.81543 0.14194 0.0
C245 C 0.02725 0.81859 0.16292 0.0
C246 C 0.06322 0.84877 0.17711 0.0
C247 C 0.11101 0.87324 0.17075 0.0
H248 H 0.24968 0.13654 0.51239 0.0
H249 H 0.25486 0.0906 0.44872 0.0
H250 H 0.21207 0.05416 0.52447 0.0
H251 H 0.21639 0.00816 0.46075 0.0
H252 H 0.21877 0.8852 0.49568 0.0
H253 H 0.24428 0.9647 0.48243 0.0
H254 H 0.14127 0.9739 0.52275 0.0
H255 H 0.11598 0.89398 0.53637 0.0
C256 C 0.24206 0.10881 0.50089 0.0
C257 C 0.25589 0.12021 0.47964 0.0
C258 C 0.22025 0.06154 0.50781 0.0
C259 C 0.21181 0.02471 0.49362 0.0
C260 C 0.22329 0.03588 0.47215 0.0
C261 C 0.2451 0.0831 0.46523 0.0
C262 C 0.20139 0.904 0.50174 0.0
C263 C 0.16542 0.88328 0.51714 0.0
C264 C 0.21576 0.94949 0.49397 0.0
C265 C 0.19455 0.97549 0.5014 0.0
C266 C 0.15845 0.95482 0.51679 0.0
C267 C 0.14392 0.90906 0.52456 0.0
H268 H 0.32789 0.2182 0.83457 0.0
H269 H 0.21435 0.11038 0.87263 0.0
H270 H 0.27479 0.24604 0.82244 0.0
H271 H 0.16064 0.13821 0.86017 0.0
H272 H 0.10569 0.2472 0.85248 0.0
H273 H 0.15082 0.20907 0.86371 0.0
H274 H 0.20453 0.22087 0.80015 0.0
H275 H 0.16008 0.25967 0.78896 0.0
C276 C 0.29149 0.20026 0.84032 0.0
C277 C 0.27542 0.16207 0.85462 0.0
C278 C 0.26087 0.21602 0.83319 0.0
C279 C 0.21334 0.19413 0.84019 0.0
C280 C 0.19715 0.15596 0.85456 0.0
C281 C 0.22785 0.13996 0.86165 0.0
C282 C 0.12668 0.24118 0.84083 0.0
C283 C 0.1297 0.25702 0.81987 0.0
C284 C 0.15237 0.21908 0.84726 0.0
C285 C 0.18171 0.21243 0.83289 0.0
C286 C 0.18294 0.22628 0.81171 0.0
C287 C 0.15723 0.24829 0.80526 0.0
H288 H 0.63053 0.61955 0.16394 0.0
H289 H 0.60485 0.49576 0.19986 0.0
H290 H 0.54663 0.57822 0.15254 0.0
H291 H 0.52185 0.45386 0.18791 0.0
H292 H 0.37695 0.38292 0.16088 0.0
H293 H 0.46307 0.42484 0.15397 0.0
H294 H 0.4758 0.55284 0.18142 0.0
H295 H 0.39025 0.51035 0.18902 0.0
C296 C 0.60742 0.58274 0.16853 0.0
C297 C 0.62375 0.56038 0.18255 0.0
C298 C 0.5596 0.55927 0.1621 0.0
C299 C 0.52806 0.51283 0.16923 0.0
C300 C 0.54565 0.48933 0.18189 0.0
C301 C 0.59297 0.51322 0.18877 0.0
C302 C 0.39793 0.42061 0.16448 0.0
C303 C 0.37736 0.44379 0.17527 0.0
C304 C 0.44707 0.44445 0.16062 0.0
C305 C 0.47586 0.49198 0.16715 0.0
C306 C 0.45425 0.51642 0.17595 0.0
C307 C 0.40539 0.49224 0.18028 0.0
H308 H 0.12237 0.60612 0.52815 0.0
H309 H 0.01686 0.63049 0.49792 0.0
H310 H 0.07715 0.52199 0.51829 0.0
H311 H 0.9704 0.5456 0.4886 0.0
H312 H 0.99113 0.37263 0.49734 0.0
H313 H 0.03633 0.45727 0.48762 0.0
H314 H 0.93182 0.48088 0.51951 0.0
H315 H 0.88784 0.39691 0.52974 0.0
C316 C 0.09049 0.59367 0.51859 0.0
C317 C 0.0732 0.62442 0.51352 0.0
C318 C 0.06465 0.54566 0.51292 0.0
C319 C 0.02038 0.52746 0.50266 0.0
C320 C 0.00466 0.55897 0.49633 0.0
C321 C 0.03124 0.60739 0.50155 0.0
C322 C 0.97689 0.39565 0.50139 0.0
C323 C 0.936 0.37868 0.51405 0.0
C324 C 0.00275 0.44392 0.49592 0.0
C325 C 0.98739 0.47539 0.50276 0.0
C326 C 0.94399 0.45722 0.51375 0.0
C327 C 0.91886 0.4093 0.51963 0.0
H328 H 0.51142 0.11958 0.86072 0.0
H329 H 0.38214 0.01846 0.82885 0.0
H330 H 0.54955 0.074 0.85002 0.0
H331 H 0.41966 0.97153 0.81876 0.0
H332 H 0.48005 0.88335 0.85983 0.0
H333 H 0.44269 0.92996 0.84961 0.0
H334 H 0.57344 0.033 0.8192 0.0
H335 H 0.61019 0.98506 0.82881 0.0
C336 C 0.49206 0.08882 0.85054 0.0
C337 C 0.44427 0.07271 0.84534 0.0
C338 C 0.51377 0.06268 0.84443 0.0
C339 C 0.48746 0.01923 0.83359 0.0
C340 C 0.44075 0.0051 0.82696 0.0
C341 C 0.41944 0.03203 0.83261 0.0
C342 C 0.49982 0.9146 0.84999 0.0
C343 C 0.54755 0.93045 0.84482 0.0
C344 C 0.47854 0.94128 0.84413 0.0
C345 C 0.50523 0.98502 0.83359 0.0
C346 C 0.55205 -0.00081 0.82714 0.0
C347 C 0.57293 0.97172 0.83253 0.0
H348 H 0.48476 0.59556 0.46984 0.0
H349 H 0.61251 0.61953 0.50199 0.0
H350 H 0.4466 0.51056 0.47811 0.0
H351 H 0.57506 0.53394 0.50957 0.0
H352 H 0.38639 0.35886 0.49743 0.0
H353 H 0.423 0.44249 0.50867 0.0
H354 H 0.55238 0.47378 0.47575 0.0
H355 H 0.51511 0.39094 0.46388 0.0
C356 C 0.50375 0.58278 0.4795 0.0
C357 C 0.55109 0.61368 0.48555 0.0
C358 C 0.48204 0.53429 0.48424 0.0
C359 C 0.50799 0.51593 0.49449 0.0
C360 C 0.55429 0.54746 0.50184 0.0
C361 C 0.57555 0.59624 0.49759 0.0
C362 C 0.42334 0.38332 0.49344 0.0
C363 C 0.44836 0.36887 0.48002 0.0
C364 C 0.44411 0.43099 0.49977 0.0
C365 C 0.49049 0.46426 0.49316 0.0
C366 C 0.51687 0.4486 0.48134 0.0
C367 C 0.49565 0.40136 0.47453 0.0
H368 H 0.87385 0.48082 0.80293 0.0
H369 H 0.97257 0.60882 0.83624 0.0
H370 H 0.9203 0.44335 0.8133 0.0
H371 H 0.02042 0.57205 0.84597 0.0
H372 H 0.01011 0.38366 0.83557 0.0
H373 H 0.96076 0.4192 0.8447 0.0
H374 H 0.06365 0.55066 0.81482 0.0
H375 H 0.11167 0.51448 0.80503 0.0
C376 C 0.90428 0.5 0.81332 0.0
C377 C 0.91942 0.54725 0.81907 0.0
C378 C 0.93091 0.47868 0.81924 0.0
C379 C 0.97391 0.50489 0.83043 0.0
C380 C 0.98718 0.55104 0.83751 0.0
C381 C 0.95973 0.57191 0.83206 0.0
C382 C 0.02305 0.42081 0.83185 0.0
C383 C 0.06475 0.44674 0.81985 0.0
C384 C 0.99479 0.44099 0.83696 0.0
C385 C 0.00859 0.48767 0.83054 0.0
C386 C 0.05261 0.51489 0.82026 0.0
C387 C 0.0801 0.4943 0.81465 0.0
H388 H 0.36385 0.98127 0.16954 0.0
H389 H 0.39655 0.87724 0.1441 0.0
H390 H 0.44841 0.03369 0.17813 0.0
H391 H 0.48048 0.92851 0.15331 0.0
H392 H 0.63028 0.02804 0.171 0.0
H393 H 0.54684 0.97946 0.18229 0.0
H394 H 0.51006 0.06963 0.14608 0.0
H395 H 0.59276 0.11678 0.13429 0.0
C396 C 0.38872 0.96851 0.16696 0.0
C397 C 0.37402 0.92522 0.15639 0.0
C398 C 0.43701 -0.00145 0.17173 0.0
C399 C 0.47084 0.98505 0.16641 0.0
C400 C 0.45508 0.93948 0.15789 0.0
C401 C 0.40711 0.9101 0.15261 0.0
C402 C 0.60464 0.03861 0.16631 0.0
C403 C 0.61759 0.07621 0.15198 0.0
C404 C 0.55702 0.01077 0.17267 0.0
C405 C 0.52218 0.02098 0.16512 0.0
C406 C 0.53632 0.06145 0.15241 0.0
C407 C 0.58353 0.0884 0.14563 0.0
H408 H 0.40382 0.0918 0.14606 0.0
H409 H 0.25694 0.03372 0.12687 0.0
H410 H 0.40351 0.16099 0.16103 0.0
H411 H 0.25717 0.10403 0.14062 0.0
H412 H 0.25446 0.20736 0.18829 0.0
H413 H 0.2555 0.13977 0.17207 0.0
H414 H 0.40317 0.23141 0.15428 0.0
H415 H 0.40258 0.29828 0.17169 0.0
C416 C 0.37174 0.09434 0.14472 0.0
C417 C 0.33037 0.05743 0.13539 0.0
C418 C 0.37155 0.13413 0.15319 0.0
C419 C 0.33025 0.13829 0.15214 0.0
C420 C 0.2893 0.10172 0.14223 0.0
C421 C 0.28921 0.06152 0.13418 0.0
C422 C 0.28704 0.21298 0.18084 0.0
C423 C 0.32848 0.25793 0.18132 0.0
C424 C 0.28764 0.17429 0.17139 0.0
C425 C 0.32944 0.17989 0.16179 0.0
C426 C 0.3706 0.22534 0.16189 0.0
C427 C 0.37025 0.26381 0.17174 0.0
H428 H 0.0274 0.25219 0.50916 0.0
H429 H 0.12297 0.39609 0.53059 0.0
H430 H 0.09375 0.25119 0.49133 0.0
H431 H 0.18924 0.39452 0.51327 0.0
H432 H 0.28648 0.39477 0.46144 0.0
H433 H 0.21898 0.39474 0.4784 0.0
H434 H 0.16642 0.24974 0.49911 0.0
H435 H 0.23331 0.24921 0.48165 0.0
C436 C 0.06253 0.28351 0.51016 0.0
C437 C 0.06979 0.32424 0.52129 0.0
C438 C 0.10061 0.28283 0.50004 0.0
C439 C 0.14678 0.32279 0.50087 0.0
C440 C 0.154 0.36342 0.51204 0.0
C441 C 0.11597 0.36419 0.52207 0.0
C442 C 0.26057 0.36283 0.4696 0.0
C443 C 0.26537 0.322 0.47017 0.0
C444 C 0.22196 0.36291 0.47942 0.0
C445 C 0.18737 0.32228 0.49015 0.0
C446 C 0.19211 0.28141 0.49073 0.0
C447 C 0.23064 0.28124 0.48082 0.0
H448 H 0.89847 0.30337 0.81895 0.0
H449 H 0.95777 0.2142 0.80212 0.0
H450 H 0.83042 0.23535 0.83523 0.0
H451 H 0.88845 0.14537 0.81724 0.0
H452 H 0.78098 0.04006 0.86368 0.0
H453 H 0.85033 0.10871 0.84851 0.0
H454 H 0.76046 0.16491 0.82775 0.0
H455 H 0.69182 0.09753 0.8441 0.0
C456 C 0.8966 0.26899 0.81856 0.0
C457 C 0.93327 0.26396 0.80928 0.0
C458 C 0.85742 0.22986 0.82775 0.0
C459 C 0.85355 0.18456 0.82748 0.0
C460 C 0.89045 0.17973 0.81813 0.0
C461 C 0.93011 0.21911 0.80934 0.0
C462 C 0.77619 0.06715 0.85584 0.0
C463 C 0.73117 0.06368 0.85512 0.0
C464 C 0.81589 0.10643 0.84701 0.0
C465 C 0.81124 0.14262 0.83687 0.0
C466 C 0.76579 0.13845 0.83585 0.0
C467 C 0.7263 0.09966 0.84507 0.0
H468 H 0.74044 0.98344 0.15383 0.0
H469 H 0.59454 0.88937 0.13429 0.0
H470 H 0.74176 0.9168 0.17104 0.0
H471 H 0.59641 0.82268 0.15099 0.0
H472 H 0.74338 0.77728 0.17941 0.0
H473 H 0.74188 0.84405 0.16244 0.0
H474 H 0.59854 0.79252 0.18551 0.0
H475 H 0.59945 0.72511 0.20199 0.0
C476 C 0.70871 0.94855 0.15312 0.0
C477 C 0.66736 0.94179 0.14268 0.0
C478 C 0.70959 0.91029 0.16288 0.0
C479 C 0.66921 0.86441 0.16237 0.0
C480 C 0.62789 0.85769 0.15195 0.0
C481 C 0.62692 0.89594 0.14227 0.0
C482 C 0.7115 0.78014 0.18085 0.0
C483 C 0.67151 0.74576 0.19205 0.0
C484 C 0.71077 0.8186 0.17123 0.0
C485 C 0.67011 0.82364 0.17264 0.0
C486 C 0.63018 0.78932 0.18386 0.0
C487 C 0.63081 0.75077 0.19341 0.0
H488 H 0.71904 0.59728 0.47227 0.0
H489 H 0.76716 0.74127 0.49358 0.0
H490 H 0.78615 0.59842 0.4902 0.0
H491 H 0.83367 0.74183 0.51197 0.0
H492 H 0.97669 0.7455 0.51865 0.0
H493 H 0.90728 0.74386 0.503 0.0
H494 H 0.81831 0.59926 0.52489 0.0
H495 H 0.88812 0.60035 0.54017 0.0
C496 C 0.74369 0.62907 0.48091 0.0
C497 C 0.73784 0.66932 0.48135 0.0
C498 C 0.78201 0.62956 0.49133 0.0
C499 C 0.8153 0.67023 0.50249 0.0
C500 C 0.80902 0.71019 0.50324 0.0
C501 C 0.77076 0.70977 0.49277 0.0
C502 C 0.94235 0.71334 0.52023 0.0
C503 C 0.93806 0.67297 0.53063 0.0
C504 C 0.90245 0.71255 0.51135 0.0
C505 C 0.85725 0.67146 0.51271 0.0
C506 C 0.85277 0.63128 0.52335 0.0
C507 C 0.89275 0.632 0.53219 0.0
H508 H 0.29927 0.89996 0.84339 0.0
H509 H 0.21108 0.958 0.86377 0.0
H510 H 0.22955 0.83153 0.82816 0.0
H511 H 0.14089 0.88852 0.84962 0.0
H512 H 0.03135 0.78058 0.80424 0.0
H513 H 0.10097 0.8501 0.81874 0.0
H514 H 0.15998 0.76131 0.83722 0.0
H515 H 0.09141 0.69238 0.82163 0.0
C516 C 0.26485 0.89785 0.84472 0.0
C517 C 0.26056 0.93427 0.85472 0.0
C518 C 0.22476 0.85844 0.83616 0.0
C519 C 0.17932 0.85414 0.83776 0.0
C520 C 0.17528 0.89085 0.84773 0.0
C521 C 0.21551 0.93066 0.85594 0.0
C522 C 0.05914 0.77597 0.81151 0.0
C523 C 0.05611 0.73116 0.81173 0.0
C524 C 0.09904 0.8158 0.81992 0.0
C525 C 0.13641 0.81155 0.82911 0.0
C526 C 0.13256 0.76629 0.82982 0.0
C527 C 0.09307 0.72664 0.82105 0.0
H528 H 0.31553 0.21346 0.37447 0.0
H529 H 0.30107 0.33848 0.38107 0.0
H530 H 0.29014 0.20607 0.33738 0.0
H531 H 0.27559 0.33099 0.34441 0.0
H532 H 0.22097 0.30569 0.27883 0.0
H533 H 0.21564 0.28221 0.31608 0.0
H534 H 0.33723 0.26241 0.30765 0.0
H535 H 0.34266 0.28598 0.27078 0.0
C536 C 0.30574 0.23852 0.36816 0.0
C537 C 0.31099 0.27697 0.38048 0.0
C538 C 0.2913 0.23436 0.34699 0.0
C539 C 0.28101 0.26804 0.338 0.0
C540 C 0.28275 0.30419 0.35089 0.0
C541 C 0.29788 0.30879 0.37184 0.0
C542 C 0.24559 0.29497 0.28485 0.0
C543 C 0.28268 0.29835 0.27208 0.0
C544 C 0.24265 0.28168 0.30613 0.0
C545 C 0.27621 0.27077 0.31478 0.0
C546 C 0.31061 0.27019 0.30144 0.0
C547 C 0.31401 0.28416 0.28036 0.0
H548 H 0.05415 0.33938 0.61092 0.0
H549 H 0.91105 0.22093 0.61844 0.0
H550 H 0.07059 0.33402 0.64803 0.0
H551 H 0.92752 0.21555 0.65594 0.0
H552 H 0.95551 0.30135 0.72049 0.0
H553 H 0.93873 0.2754 0.68388 0.0
H554 H 0.0778 0.28807 0.67842 0.0
H555 H 0.09466 0.31415 0.71545 0.0
C556 C 0.02656 0.31138 0.62045 0.0
C557 C 0.98108 0.28104 0.61193 0.0
C558 C 0.03615 0.30801 0.64168 0.0
C559 C 0.00024 0.27462 0.65495 0.0
C560 C 0.95577 0.24185 0.64607 0.0
C561 C 0.94638 0.24478 0.62464 0.0
C562 C 0.98221 0.29773 0.71163 0.0
C563 C 0.02674 0.31056 0.7207 0.0
C564 C 0.97235 0.28228 0.69069 0.0
C565 C 0.00699 0.27985 0.67823 0.0
C566 C 0.0505 0.28982 0.68766 0.0
C567 C 0.06014 0.30466 0.70882 0.0
H568 H 0.64645 0.95704 0.05377 0.0
H569 H 0.77078 0.09624 0.0458 0.0
H570 H 0.65263 0.93754 0.01721 0.0
H571 H 0.77689 0.07666 0.00882 0.0
H572 H 0.69612 0.04689 0.94251 0.0
H573 H 0.71988 0.06609 0.97931 0.0
H574 H 0.70001 0.92514 0.98872 0.0
H575 H 0.67627 0.90588 0.95151 0.0
C576 C 0.67571 0.98317 0.04426 0.0
C577 C 0.70769 0.02846 0.0525 0.0
C578 C 0.67956 0.97176 0.02336 0.0
C579 C 0.71511 0.00562 0.01011 0.0
C580 C 0.749 0.04995 0.01869 0.0
C581 C 0.74559 0.06113 0.03982 0.0
C582 C 0.69784 0.02031 0.95231 0.0
C583 C 0.68363 0.97463 0.94428 0.0
C584 C 0.71196 0.03151 0.97334 0.0
C585 C 0.71157 0.99706 0.98694 0.0
C586 C 0.70041 0.9523 0.97858 0.0
C587 C 0.68695 0.94131 0.95733 0.0
H588 H 0.65992 0.71112 0.28142 0.0
H589 H 0.785 0.69613 0.28651 0.0
H590 H 0.6678 0.73449 0.31838 0.0
H591 H 0.79293 0.71959 0.32388 0.0
H592 H 0.71401 0.6621 0.39017 0.0
H593 H 0.73811 0.67118 0.35329 0.0
H594 H 0.71477 0.79101 0.34754 0.0
H595 H 0.69057 0.78186 0.38482 0.0
C596 C 0.68979 0.71387 0.29038 0.0
C597 C 0.72141 0.70106 0.28122 0.0
C598 C 0.69461 0.72779 0.31152 0.0
C599 C 0.73083 0.72865 0.3241 0.0
C600 C 0.76451 0.719 0.31457 0.0
C601 C 0.76008 0.70571 0.29321 0.0
C602 C 0.71519 0.69118 0.38119 0.0
C603 C 0.6997 0.72081 0.39023 0.0
C604 C 0.72947 0.69668 0.36009 0.0
C605 C 0.728 0.73158 0.34745 0.0
C606 C 0.71596 0.7636 0.35691 0.0
C607 C 0.70228 0.7585 0.37822 0.0
H608 H 0.08487 0.6794 0.62856 0.0
H609 H 0.02355 0.76564 0.61007 0.0
H610 H 0.06551 0.68389 0.66531 0.0
H611 H 0.00313 0.76976 0.64733 0.0
H612 H 0.05374 0.71459 0.73045 0.0
H613 H 0.08483 0.74169 0.69501 0.0
H614 H 0.94357 0.70403 0.67339 0.0
H615 H 0.91247 0.67778 0.70934 0.0
C616 C 0.0682 0.70032 0.63254 0.0
C617 C 0.05604 0.72251 0.61665 0.0
C618 C 0.05718 0.70303 0.65357 0.0
C619 C 0.03296 0.72737 0.65921 0.0
C620 C 0.02189 0.75087 0.64338 0.0
C621 C 0.03389 0.74889 0.62219 0.0
C622 C 0.02955 0.71333 0.71825 0.0
C623 C 0.98062 0.69336 0.72244 0.0
C624 C 0.04734 0.72885 0.69799 0.0
C625 C 0.01647 0.72407 0.68137 0.0
C626 C 0.96819 0.70823 0.68594 0.0
C627 C 0.95035 0.69309 0.70644 0.0
H628 H 0.34178 0.92656 0.03934 0.0
H629 H 0.23078 0.95761 0.05636 0.0
H630 H 0.33596 0.94525 0.0026 0.0
H631 H 0.22558 0.97758 0.01912 0.0
H632 H 0.29155 0.93889 0.93718 0.0
H633 H 0.26987 0.90998 0.97324 0.0
H634 H 0.29271 0.0476 0.99278 0.0
H635 H 0.31434 0.07687 0.95623 0.0
C636 C 0.31568 0.93686 0.03511 0.0
C637 C 0.28656 0.94041 0.05059 0.0
C638 C 0.31227 0.94747 0.0141 0.0
C639 C 0.28022 0.96271 0.00806 0.0
C640 C 0.25049 0.96583 0.02344 0.0
C641 C 0.25319 0.95408 0.0446 0.0
C642 C 0.29081 0.96272 0.94903 0.0
C643 C 0.30553 0.01039 0.94406 0.0
C644 C 0.27825 0.94607 0.96964 0.0
C645 C 0.28033 0.97677 0.98578 0.0
C646 C 0.29069 0.02323 0.98054 0.0
C647 C 0.30314 0.03998 0.9597 0.0
loop_
_geom_bond_atom_site_label_1
_geom_bond_atom_site_label_2
_geom_bond_distance
_geom_bond_site_symmetry_2
_ccdc_geom_bond_type
Mg0 O1 2.028 . S
Mg0 O7 1.986 . S
Mg0 O9 2.114 . S
Mg0 O10 2.251 . S
Mg0 O13 2.010 . S
O1 Mg0 2.028 . S
O1 C4 1.250 . S
O2 Mg3 2.028 . S
O2 C4 1.248 . S
Mg3 O2 2.028 . S
Mg3 O8 2.032 . S
Mg3 O10 2.079 . S
C4 O1 1.250 . S
C4 O2 1.248 . S
C5 O6 1.264 . S
C5 O13 1.249 . S
O6 C5 1.264 . S
O7 Mg0 1.986 . S
O7 C11 1.246 . S
O8 Mg3 2.032 . S
O8 C11 1.259 . S
O9 Mg0 2.114 . S
O9 C12 1.252 . S
O10 Mg0 2.251 . S
O10 Mg3 2.079 . S
O10 C12 1.273 . S
C11 O7 1.246 . S
C11 O8 1.259 . S
C12 O9 1.252 . S
C12 O10 1.273 . S
O13 Mg0 2.010 . S
O13 C5 1.249 . S
Mg14 O15 2.028 . S
Mg14 O21 1.986 . S
Mg14 O23 2.114 . S
Mg14 O24 2.251 . S
Mg14 O27 2.010 . S
O15 Mg14 2.028 . S
O15 C18 1.250 1_655 S
O16 Mg17 2.028 . S
O16 C18 1.248 . S
Mg17 O16 2.028 . S
Mg17 O22 2.032 . S
Mg17 O24 2.079 1_455 S
C18 O15 1.250 1_455 S
C18 O16 1.248 . S
C19 O20 1.264 . S
C19 O27 1.249 . S
O20 C19 1.264 . S
O21 Mg14 1.986 . S
O21 C25 1.246 . S
O22 Mg17 2.032 . S
O22 C25 1.259 1_455 S
O23 Mg14 2.114 . S
O23 C26 1.252 . S
O24 Mg14 2.251 . S
O24 Mg17 2.079 1_655 S
O24 C26 1.273 . S
C25 O21 1.246 . S
C25 O22 1.259 1_655 S
C26 O23 1.252 . S
C26 O24 1.273 . S
O27 Mg14 2.010 . S
O27 C19 1.249 . S
Mg28 O29 2.028 . S
Mg28 O35 1.986 . S
Mg28 O37 2.114 . S
Mg28 O38 2.251 . S
Mg28 O41 2.010 . S
O29 Mg28 2.028 . S
O29 C32 1.250 1_565 S
O30 Mg31 2.028 . S
O30 C32 1.248 . S
Mg31 O30 2.028 . S
Mg31 O36 2.032 . S
Mg31 O38 2.079 1_545 S
C32 O29 1.250 1_545 S
C32 O30 1.248 . S
C33 O34 1.264 . S
C33 O41 1.249 . S
O34 C33 1.264 . S
O35 Mg28 1.986 . S
O35 C39 1.246 . S
O36 Mg31 2.032 . S
O36 C39 1.259 1_545 S
O37 Mg28 2.114 . S
O37 C40 1.252 . S
O38 Mg28 2.251 . S
O38 Mg31 2.079 1_565 S
O38 C40 1.273 . S
C39 O35 1.246 . S
C39 O36 1.259 1_565 S
C40 O37 1.252 . S
C40 O38 1.273 . S
O41 Mg28 2.010 . S
O41 C33 1.249 . S
Mg42 O43 2.028 . S
Mg42 O49 1.986 . S
Mg42 O51 2.114 . S
Mg42 O52 2.251 . S
Mg42 O55 2.010 . S
O43 Mg42 2.028 . S
O43 C46 1.250 . S
O44 Mg45 2.028 . S
O44 C46 1.248 . S
Mg45 O44 2.028 . S
Mg45 O50 2.032 . S
Mg45 O52 2.079 . S
C46 O43 1.250 . S
C46 O44 1.248 . S
C47 O48 1.264 . S
C47 O55 1.249 . S
O48 C47 1.264 . S
O49 Mg42 1.986 . S
O49 C53 1.246 . S
O50 Mg45 2.032 . S
O50 C53 1.259 . S
O51 Mg42 2.114 . S
O51 C54 1.252 . S
O52 Mg42 2.251 . S
O52 Mg45 2.079 . S
O52 C54 1.273 . S
C53 O49 1.246 . S
C53 O50 1.259 . S
C54 O51 1.252 . S
C54 O52 1.273 . S
O55 Mg42 2.010 . S
O55 C47 1.249 . S
Mg56 O57 2.028 . S
Mg56 O63 1.986 . S
Mg56 O65 2.114 . S
Mg56 O66 2.251 . S
Mg56 O69 2.010 . S
O57 Mg56 2.028 . S
O57 C60 1.250 1_455 S
O58 Mg59 2.028 . S
O58 C60 1.248 . S
Mg59 O58 2.028 . S
Mg59 O64 2.032 . S
Mg59 O66 2.079 1_655 S
C60 O57 1.250 1_655 S
C60 O58 1.248 . S
C61 O62 1.264 . S
C61 O69 1.249 . S
O62 C61 1.264 . S
O63 Mg56 1.986 . S
O63 C67 1.246 . S
O64 Mg59 2.032 . S
O64 C67 1.259 1_655 S
O65 Mg56 2.114 . S
O65 C68 1.252 . S
O66 Mg56 2.251 . S
O66 Mg59 2.079 1_455 S
O66 C68 1.273 . S
C67 O63 1.246 . S
C67 O64 1.259 1_455 S
C68 O65 1.252 . S
C68 O66 1.273 . S
O69 Mg56 2.010 . S
O69 C61 1.249 . S
Mg70 O71 2.028 . S
Mg70 O77 1.986 . S
Mg70 O79 2.114 . S
Mg70 O80 2.251 . S
Mg70 O83 2.010 . S
O71 Mg70 2.028 . S
O71 C74 1.250 1_545 S
O72 Mg73 2.028 . S
O72 C74 1.248 . S
Mg73 O72 2.028 . S
Mg73 O78 2.032 . S
Mg73 O80 2.079 1_565 S
C74 O71 1.250 1_565 S
C74 O72 1.248 . S
C75 O76 1.264 . S
C75 O83 1.249 . S
O76 C75 1.264 . S
O77 Mg70 1.986 . S
O77 C81 1.246 . S
O78 Mg73 2.032 . S
O78 C81 1.259 1_565 S
O79 Mg70 2.114 . S
O79 C82 1.252 . S
O80 Mg70 2.251 . S
O80 Mg73 2.079 1_545 S
O80 C82 1.273 . S
C81 O77 1.246 . S
C81 O78 1.259 1_545 S
C82 O79 1.252 . S
C82 O80 1.273 . S
O83 Mg70 2.010 . S
O83 C75 1.249 . S
Mg84 O85 2.028 . S
Mg84 O91 1.986 . S
Mg84 O93 2.114 . S
Mg84 O94 2.251 . S
Mg84 O97 2.010 . S
O85 Mg84 2.028 . S
O85 C88 1.250 . S
O86 Mg87 2.028 . S
O86 C88 1.248 . S
Mg87 O86 2.028 . S
Mg87 O92 2.032 . S
Mg87 O94 2.079 . S
C88 O85 1.250 . S
C88 O86 1.248 . S
C89 O90 1.264 . S
C89 O97 1.249 . S
O90 C89 1.264 . S
O91 Mg84 1.986 . S
O91 C95 1.246 . S
O92 Mg87 2.032 . S
O92 C95 1.259 . S
O93 Mg84 2.114 . S
O93 C96 1.252 . S
O94 Mg84 2.251 . S
O94 Mg87 2.079 . S
O94 C96 1.273 . S
C95 O91 1.246 . S
C95 O92 1.259 . S
C96 O93 1.252 . S
C96 O94 1.273 . S
O97 Mg84 2.010 . S
O97 C89 1.249 . S
Mg98 O99 2.028 . S
Mg98 O105 1.986 . S
Mg98 O107 2.114 . S
Mg98 O108 2.251 . S
Mg98 O111 2.010 . S
O99 Mg98 2.028 . S
O99 C102 1.250 1_655 S
O100 Mg101 2.028 . S
O100 C102 1.248 . S
Mg101 O100 2.028 . S
Mg101 O106 2.032 . S
Mg101 O108 2.079 1_455 S
C102 O99 1.250 1_455 S
C102 O100 1.248 . S
C103 O104 1.264 . S
C103 O111 1.249 . S
O104 C103 1.264 . S
O105 Mg98 1.986 . S
O105 C109 1.246 . S
O106 Mg101 2.032 . S
O106 C109 1.259 1_455 S
O107 Mg98 2.114 . S
O107 C110 1.252 . S
O108 Mg98 2.251 . S
O108 Mg101 2.079 1_655 S
O108 C110 1.273 . S
C109 O105 1.246 . S
C109 O106 1.259 1_655 S
C110 O107 1.252 . S
C110 O108 1.273 . S
O111 Mg98 2.010 . S
O111 C103 1.249 . S
Mg112 O113 2.028 . S
Mg112 O119 1.986 . S
Mg112 O121 2.114 . S
Mg112 O122 2.251 . S
Mg112 O125 2.010 . S
O113 Mg112 2.028 . S
O113 C116 1.250 1_565 S
O114 Mg115 2.028 . S
O114 C116 1.248 . S
Mg115 O114 2.028 . S
Mg115 O120 2.032 . S
Mg115 O122 2.079 1_545 S
C116 O113 1.250 1_545 S
C116 O114 1.248 . S
C117 O118 1.264 . S
C117 O125 1.249 . S
O118 C117 1.264 . S
O119 Mg112 1.986 . S
O119 C123 1.246 . S
O120 Mg115 2.032 . S
O120 C123 1.259 1_545 S
O121 Mg112 2.114 . S
O121 C124 1.252 . S
O122 Mg112 2.251 . S
O122 Mg115 2.079 1_565 S
O122 C124 1.273 . S
C123 O119 1.246 . S
C123 O120 1.259 1_565 S
C124 O121 1.252 . S
C124 O122 1.273 . S
O125 Mg112 2.010 . S
O125 C117 1.249 . S
Mg126 O127 2.028 . S
Mg126 O133 1.986 . S
Mg126 O135 2.114 . S
Mg126 O136 2.251 . S
Mg126 O139 2.010 . S
O127 Mg126 2.028 . S
O127 C130 1.250 . S
O128 Mg129 2.028 . S
O128 C130 1.248 . S
Mg129 O128 2.028 . S
Mg129 O134 2.032 . S
Mg129 O136 2.079 . S
C130 O127 1.250 . S
C130 O128 1.248 . S
C131 O132 1.264 . S
C131 O139 1.249 . S
O132 C131 1.264 . S
O133 Mg126 1.986 . S
O133 C137 1.246 . S
O134 Mg129 2.032 . S
O134 C137 1.259 . S
O135 Mg126 2.114 . S
O135 C138 1.252 . S
O136 Mg126 2.251 . S
O136 Mg129 2.079 . S
O136 C138 1.273 . S
C137 O133 1.246 . S
C137 O134 1.259 . S
C138 O135 1.252 . S
C138 O136 1.273 . S
O139 Mg126 2.010 . S
O139 C131 1.249 . S
Mg140 O141 2.028 . S
Mg140 O147 1.986 . S
Mg140 O149 2.114 . S
Mg140 O150 2.251 . S
Mg140 O153 2.010 . S
O141 Mg140 2.028 . S
O141 C144 1.250 1_455 S
O142 Mg143 2.028 . S
O142 C144 1.248 . S
Mg143 O142 2.028 . S
Mg143 O148 2.032 . S
Mg143 O150 2.079 1_655 S
C144 O141 1.250 1_655 S
C144 O142 1.248 . S
C145 O146 1.264 . S
C145 O153 1.249 . S
O146 C145 1.264 . S
O147 Mg140 1.986 . S
O147 C151 1.246 . S
O148 Mg143 2.032 . S
O148 C151 1.259 1_655 S
O149 Mg140 2.114 . S
O149 C152 1.252 . S
O150 Mg140 2.251 . S
O150 Mg143 2.079 1_455 S
O150 C152 1.273 . S
C151 O147 1.246 . S
C151 O148 1.259 1_455 S
C152 O149 1.252 . S
C152 O150 1.273 . S
O153 Mg140 2.010 . S
O153 C145 1.249 . S
Mg154 O155 2.028 . S
Mg154 O161 1.986 . S
Mg154 O163 2.114 . S
Mg154 O164 2.251 . S
Mg154 O167 2.010 . S
O155 Mg154 2.028 . S
O155 C158 1.250 1_545 S
O156 Mg157 2.028 . S
O156 C158 1.248 . S
Mg157 O156 2.028 . S
Mg157 O162 2.032 . S
Mg157 O164 2.079 1_565 S
C158 O155 1.250 1_565 S
C158 O156 1.248 . S
C159 O160 1.264 . S
C159 O167 1.249 . S
O160 C159 1.264 . S
O161 Mg154 1.986 . S
O161 C165 1.246 . S
O162 Mg157 2.032 . S
O162 C165 1.259 1_565 S
O163 Mg154 2.114 . S
O163 C166 1.252 . S
O164 Mg154 2.251 . S
O164 Mg157 2.079 1_545 S
O164 C166 1.273 . S
C165 O161 1.246 . S
C165 O162 1.259 1_545 S
C166 O163 1.252 . S
C166 O164 1.273 . S
O167 Mg154 2.010 . S
O167 C159 1.249 . S
H168 C176 0.950 . S
H169 C181 0.950 . S
H170 C178 0.950 . S
H171 C180 0.950 . S
H172 C182 0.950 . S
H173 C184 0.950 . S
H174 C186 0.950 . S
H175 C187 0.950 . S
C176 H168 0.950 . S
C176 C177 1.386 . S
C176 C178 1.391 . S
C177 C176 1.386 . S
C177 C181 1.393 . S
C178 H170 0.950 . S
C178 C176 1.391 . S
C178 C179 1.400 . S
C179 C178 1.400 . S
C179 C180 1.398 . S
C179 C185 1.491 1_655 S
C180 H171 0.950 . S
C180 C179 1.398 . S
C180 C181 1.391 . S
C181 H169 0.950 . S
C181 C177 1.393 . S
C181 C180 1.391 . S
C182 H172 0.950 . S
C182 C183 1.386 . S
C182 C184 1.391 . S
C183 C182 1.386 . S
C183 C187 1.393 . S
C184 H173 0.950 . S
C184 C182 1.391 . S
C184 C185 1.400 . S
C185 C179 1.491 1_455 S
C185 C184 1.400 . S
C185 C186 1.398 . S
C186 H174 0.950 . S
C186 C185 1.398 . S
C186 C187 1.391 . S
C187 H175 0.950 . S
C187 C183 1.393 . S
C187 C186 1.391 . S
H188 C196 0.950 . S
H189 C201 0.950 . S
H190 C198 0.950 . S
H191 C200 0.950 . S
H192 C202 0.950 . S
H193 C204 0.950 . S
H194 C206 0.950 . S
H195 C207 0.950 . S
C196 H188 0.950 . S
C196 C197 1.386 . S
C196 C198 1.391 . S
C197 C196 1.386 . S
C197 C201 1.393 . S
C198 H190 0.950 . S
C198 C196 1.391 . S
C198 C199 1.400 . S
C199 C198 1.400 . S
C199 C200 1.398 . S
C199 C205 1.491 1_545 S
C200 H191 0.950 . S
C200 C199 1.398 . S
C200 C201 1.391 . S
C201 H189 0.950 . S
C201 C197 1.393 . S
C201 C200 1.391 . S
C202 H192 0.950 . S
C202 C203 1.386 . S
C202 C204 1.391 . S
C203 C202 1.386 . S
C203 C207 1.393 . S
C204 H193 0.950 . S
C204 C202 1.391 . S
C204 C205 1.400 . S
C205 C199 1.491 1_565 S
C205 C204 1.400 . S
C205 C206 1.398 . S
C206 H194 0.950 . S
C206 C205 1.398 . S
C206 C207 1.391 . S
C207 H195 0.950 . S
C207 C203 1.393 . S
C207 C206 1.391 . S
H208 C216 0.950 . S
H209 C221 0.950 . S
H210 C218 0.950 . S
H211 C220 0.950 . S
H212 C222 0.950 . S
H213 C224 0.950 . S
H214 C226 0.950 . S
H215 C227 0.950 . S
C216 H208 0.950 . S
C216 C217 1.386 . S
C216 C218 1.391 . S
C217 C216 1.386 . S
C217 C221 1.393 . S
C218 H210 0.950 . S
C218 C216 1.391 . S
C218 C219 1.400 . S
C219 C218 1.400 . S
C219 C220 1.398 . S
C219 C225 1.491 . S
C220 H211 0.950 . S
C220 C219 1.398 . S
C220 C221 1.391 . S
C221 H209 0.950 . S
C221 C217 1.393 . S
C221 C220 1.391 . S
C222 H212 0.950 . S
C222 C223 1.386 . S
C222 C224 1.391 . S
C223 C222 1.386 . S
C223 C227 1.393 . S
C224 H213 0.950 . S
C224 C222 1.391 . S
C224 C225 1.400 . S
C225 C219 1.491 . S
C225 C224 1.400 . S
C225 C226 1.398 . S
C226 H214 0.950 . S
C226 C225 1.398 . S
C226 C227 1.391 . S
C227 H215 0.950 . S
C227 C223 1.393 . S
C227 C226 1.391 . S
H228 C236 0.950 . S
H229 C241 0.950 . S
H230 C238 0.950 . S
H231 C240 0.950 . S
H232 C242 0.950 . S
H233 C244 0.950 . S
H234 C246 0.950 . S
H235 C247 0.950 . S
C236 H228 0.950 . S
C236 C237 1.386 . S
C236 C238 1.391 . S
C237 C236 1.386 . S
C237 C241 1.393 . S
C238 H230 0.950 . S
C238 C236 1.391 . S
C238 C239 1.400 . S
C239 C238 1.400 . S
C239 C240 1.398 . S
C239 C245 1.491 1_655 S
C240 H231 0.950 . S
C240 C239 1.398 . S
C240 C241 1.391 . S
C241 H229 0.950 . S
C241 C237 1.393 . S
C241 C240 1.391 . S
C242 H232 0.950 . S
C242 C243 1.386 . S
C242 C244 1.391 . S
C243 C242 1.386 . S
C243 C247 1.393 . S
C244 H233 0.950 . S
C244 C242 1.391 . S
C244 C245 1.400 . S
C245 C239 1.491 1_455 S
C245 C244 1.400 . S
C245 C246 1.398 . S
C246 H234 0.950 . S
C246 C245 1.398 . S
C246 C247 1.391 . S
C247 H235 0.950 . S
C247 C243 1.393 . S
C247 C246 1.391 . S
H248 C256 0.950 . S
H249 C261 0.950 . S
H250 C258 0.950 . S
H251 C260 0.950 . S
H252 C262 0.950 . S
H253 C264 0.950 . S
H254 C266 0.950 . S
H255 C267 0.950 . S
C256 H248 0.950 . S
C256 C257 1.386 . S
C256 C258 1.391 . S
C257 C256 1.386 . S
C257 C261 1.393 . S
C258 H250 0.950 . S
C258 C256 1.391 . S
C258 C259 1.400 . S
C259 C258 1.400 . S
C259 C260 1.398 . S
C259 C265 1.491 1_545 S
C260 H251 0.950 . S
C260 C259 1.398 . S
C260 C261 1.391 . S
C261 H249 0.950 . S
C261 C257 1.393 . S
C261 C260 1.391 . S
C262 H252 0.950 . S
C262 C263 1.386 . S
C262 C264 1.391 . S
C263 C262 1.386 . S
C263 C267 1.393 . S
C264 H253 0.950 . S
C264 C262 1.391 . S
C264 C265 1.400 . S
C265 C259 1.491 1_565 S
C265 C264 1.400 . S
C265 C266 1.398 . S
C266 H254 0.950 . S
C266 C265 1.398 . S
C266 C267 1.391 . S
C267 H255 0.950 . S
C267 C263 1.393 . S
C267 C266 1.391 . S
H268 C276 0.950 . S
H269 C281 0.950 . S
H270 C278 0.950 . S
H271 C280 0.950 . S
H272 C282 0.950 . S
H273 C284 0.950 . S
H274 C286 0.950 . S
H275 C287 0.950 . S
C276 H268 0.950 . S
C276 C277 1.386 . S
C276 C278 1.391 . S
C277 C276 1.386 . S
C277 C281 1.393 . S
C278 H270 0.950 . S
C278 C276 1.391 . S
C278 C279 1.400 . S
C279 C278 1.400 . S
C279 C280 1.398 . S
C279 C285 1.491 . S
C280 H271 0.950 . S
C280 C279 1.398 . S
C280 C281 1.391 . S
C281 H269 0.950 . S
C281 C277 1.393 . S
C281 C280 1.391 . S
C282 H272 0.950 . S
C282 C283 1.386 . S
C282 C284 1.391 . S
C283 C282 1.386 . S
C283 C287 1.393 . S
C284 H273 0.950 . S
C284 C282 1.391 . S
C284 C285 1.400 . S
C285 C279 1.491 . S
C285 C284 1.400 . S
C285 C286 1.398 . S
C286 H274 0.950 . S
C286 C285 1.398 . S
C286 C287 1.391 . S
C287 H275 0.950 . S
C287 C283 1.393 . S
C287 C286 1.391 . S
H288 C296 0.950 . S
H289 C301 0.950 . S
H290 C298 0.950 . S
H291 C300 0.950 . S
H292 C302 0.950 . S
H293 C304 0.950 . S
H294 C306 0.950 . S
H295 C307 0.950 . S
C296 H288 0.950 . S
C296 C297 1.386 . S
C296 C298 1.391 . S
C297 C296 1.386 . S
C297 C301 1.393 . S
C298 H290 0.950 . S
C298 C296 1.391 . S
C298 C299 1.400 . S
C299 C298 1.400 . S
C299 C300 1.398 . S
C299 C305 1.491 . S
C300 H291 0.950 . S
C300 C299 1.398 . S
C300 C301 1.391 . S
C301 H289 0.950 . S
C301 C297 1.393 . S
C301 C300 1.391 . S
C302 H292 0.950 . S
C302 C303 1.386 . S
C302 C304 1.391 . S
C303 C302 1.386 . S
C303 C307 1.393 . S
C304 H293 0.950 . S
C304 C302 1.391 . S
C304 C305 1.400 . S
C305 C299 1.491 . S
C305 C304 1.400 . S
C305 C306 1.398 . S
C306 H294 0.950 . S
C306 C305 1.398 . S
C306 C307 1.391 . S
C307 H295 0.950 . S
C307 C303 1.393 . S
C307 C306 1.391 . S
H308 C316 0.950 . S
H309 C321 0.950 . S
H310 C318 0.950 . S
H311 C320 0.950 . S
H312 C322 0.950 . S
H313 C324 0.950 . S
H314 C326 0.950 . S
H315 C327 0.950 . S
C316 H308 0.950 . S
C316 C317 1.386 . S
C316 C318 1.391 1_455 S
C317 C316 1.386 . S
C317 C321 1.393 . S
C318 H310 0.950 . S
C318 C316 1.391 1_655 S
C318 C319 1.400 1_655 S
C319 C318 1.400 1_455 S
C319 C320 1.398 . S
C319 C325 1.491 1_455 S
C320 H311 0.950 . S
C320 C319 1.398 . S
C320 C321 1.391 . S
C321 H309 0.950 . S
C321 C317 1.393 . S
C321 C320 1.391 . S
C322 H312 0.950 . S
C322 C323 1.386 . S
C322 C324 1.391 1_655 S
C323 C322 1.386 . S
C323 C327 1.393 . S
C324 H313 0.950 . S
C324 C322 1.391 1_455 S
C324 C325 1.400 1_455 S
C325 C319 1.491 1_655 S
C325 C324 1.400 1_655 S
C325 C326 1.398 . S
C326 H314 0.950 . S
C326 C325 1.398 . S
C326 C327 1.391 . S
C327 H315 0.950 . S
C327 C323 1.393 . S
C327 C326 1.391 . S
H328 C336 0.950 . S
H329 C341 0.950 1_565 S
H330 C338 0.950 . S
H331 C340 0.950 . S
H332 C342 0.950 . S
H333 C344 0.950 . S
H334 C346 0.950 . S
H335 C347 0.950 1_545 S
C336 H328 0.950 . S
C336 C337 1.386 . S
C336 C338 1.391 . S
C337 C336 1.386 . S
C337 C341 1.393 . S
C338 H330 0.950 . S
C338 C336 1.391 . S
C338 C339 1.400 . S
C339 C338 1.400 . S
C339 C340 1.398 1_545 S
C339 C345 1.491 1_545 S
C340 H331 0.950 . S
C340 C339 1.398 1_565 S
C340 C341 1.391 1_565 S
C341 H329 0.950 1_545 S
C341 C337 1.393 . S
C341 C340 1.391 1_545 S
C342 H332 0.950 . S
C342 C343 1.386 . S
C342 C344 1.391 . S
C343 C342 1.386 . S
C343 C347 1.393 . S
C344 H333 0.950 . S
C344 C342 1.391 . S
C344 C345 1.400 . S
C345 C339 1.491 1_565 S
C345 C344 1.400 . S
C345 C346 1.398 1_565 S
C346 H334 0.950 . S
C346 C345 1.398 1_545 S
C346 C347 1.391 1_545 S
C347 H335 0.950 1_565 S
C347 C343 1.393 . S
C347 C346 1.391 1_565 S
H348 C356 0.950 . S
H349 C361 0.950 . S
H350 C358 0.950 . S
H351 C360 0.950 . S
H352 C362 0.950 . S
H353 C364 0.950 . S
H354 C366 0.950 . S
H355 C367 0.950 . S
C356 H348 0.950 . S
C356 C357 1.386 . S
C356 C358 1.391 . S
C357 C356 1.386 . S
C357 C361 1.393 . S
C358 H350 0.950 . S
C358 C356 1.391 . S
C358 C359 1.400 . S
C359 C358 1.400 . S
C359 C360 1.398 . S
C359 C365 1.491 . S
C360 H351 0.950 . S
C360 C359 1.398 . S
C360 C361 1.391 . S
C361 H349 0.950 . S
C361 C357 1.393 . S
C361 C360 1.391 . S
C362 H352 0.950 . S
C362 C363 1.386 . S
C362 C364 1.391 . S
C363 C362 1.386 . S
C363 C367 1.393 . S
C364 H353 0.950 . S
C364 C362 1.391 . S
C364 C365 1.400 . S
C365 C359 1.491 . S
C365 C364 1.400 . S
C365 C366 1.398 . S
C366 H354 0.950 . S
C366 C365 1.398 . S
C366 C367 1.391 . S
C367 H355 0.950 . S
C367 C363 1.393 . S
C367 C366 1.391 . S
H368 C376 0.950 . S
H369 C381 0.950 . S
H370 C378 0.950 1_455 S
H371 C380 0.950 . S
H372 C382 0.950 . S
H373 C384 0.950 1_655 S
H374 C386 0.950 . S
H375 C387 0.950 . S
C376 H368 0.950 . S
C376 C377 1.386 . S
C376 C378 1.391 . S
C377 C376 1.386 . S
C377 C381 1.393 . S
C378 H370 0.950 1_655 S
C378 C376 1.391 . S
C378 C379 1.400 . S
C379 C378 1.400 . S
C379 C380 1.398 . S
C379 C385 1.491 1_655 S
C380 H371 0.950 . S
C380 C379 1.398 . S
C380 C381 1.391 . S
C381 H369 0.950 . S
C381 C377 1.393 . S
C381 C380 1.391 . S
C382 H372 0.950 . S
C382 C383 1.386 . S
C382 C384 1.391 . S
C383 C382 1.386 . S
C383 C387 1.393 . S
C384 H373 0.950 1_455 S
C384 C382 1.391 . S
C384 C385 1.400 . S
C385 C379 1.491 1_455 S
C385 C384 1.400 . S
C385 C386 1.398 . S
C386 H374 0.950 . S
C386 C385 1.398 . S
C386 C387 1.391 . S
C387 H375 0.950 . S
C387 C383 1.393 . S
C387 C386 1.391 . S
H388 C396 0.950 1_545 S
H389 C401 0.950 . S
H390 C398 0.950 . S
H391 C400 0.950 . S
H392 C402 0.950 1_565 S
H393 C404 0.950 . S
H394 C406 0.950 . S
H395 C407 0.950 . S
C396 H388 0.950 1_565 S
C396 C397 1.386 . S
C396 C398 1.391 1_565 S
C397 C396 1.386 . S
C397 C401 1.393 . S
C398 H390 0.950 . S
C398 C396 1.391 1_545 S
C398 C399 1.400 1_545 S
C399 C398 1.400 1_565 S
C399 C400 1.398 . S
C399 C405 1.491 1_565 S
C400 H391 0.950 . S
C400 C399 1.398 . S
C400 C401 1.391 . S
C401 H389 0.950 . S
C401 C397 1.393 . S
C401 C400 1.391 . S
C402 H392 0.950 1_545 S
C402 C403 1.386 . S
C402 C404 1.391 1_545 S
C403 C402 1.386 . S
C403 C407 1.393 . S
C404 H393 0.950 . S
C404 C402 1.391 1_565 S
C404 C405 1.400 1_565 S
C405 C399 1.491 1_545 S
C405 C404 1.400 1_545 S
C405 C406 1.398 . S
C406 H394 0.950 . S
C406 C405 1.398 . S
C406 C407 1.391 . S
C407 H395 0.950 . S
C407 C403 1.393 . S
C407 C406 1.391 . S
H408 C416 0.950 . S
H409 C421 0.950 . S
H410 C418 0.950 . S
H411 C420 0.950 . S
H412 C422 0.950 . S
H413 C424 0.950 . S
H414 C426 0.950 . S
H415 C427 0.950 . S
C416 H408 0.950 . S
C416 C417 1.386 . S
C416 C418 1.391 . S
C417 C416 1.386 . S
C417 C421 1.393 . S
C418 H410 0.950 . S
C418 C416 1.391 . S
C418 C419 1.400 . S
C419 C418 1.400 . S
C419 C420 1.398 . S
C419 C425 1.491 . S
C420 H411 0.950 . S
C420 C419 1.398 . S
C420 C421 1.391 . S
C421 H409 0.950 . S
C421 C417 1.393 . S
C421 C420 1.391 . S
C422 H412 0.950 . S
C422 C423 1.386 . S
C422 C424 1.391 . S
C423 C422 1.386 . S
C423 C427 1.393 . S
C424 H413 0.950 . S
C424 C422 1.391 . S
C424 C425 1.400 . S
C425 C419 1.491 . S
C425 C424 1.400 . S
C425 C426 1.398 . S
C426 H414 0.950 . S
C426 C425 1.398 . S
C426 C427 1.391 . S
C427 H415 0.950 . S
C427 C423 1.393 . S
C427 C426 1.391 . S
H428 C436 0.950 . S
H429 C441 0.950 . S
H430 C438 0.950 . S
H431 C440 0.950 . S
H432 C442 0.950 . S
H433 C444 0.950 . S
H434 C446 0.950 . S
H435 C447 0.950 . S
C436 H428 0.950 . S
C436 C437 1.386 . S
C436 C438 1.391 . S
C437 C436 1.386 . S
C437 C441 1.393 . S
C438 H430 0.950 . S
C438 C436 1.391 . S
C438 C439 1.400 . S
C439 C438 1.400 . S
C439 C440 1.398 . S
C439 C445 1.491 . S
C440 H431 0.950 . S
C440 C439 1.398 . S
C440 C441 1.391 . S
C441 H429 0.950 . S
C441 C437 1.393 . S
C441 C440 1.391 . S
C442 H432 0.950 . S
C442 C443 1.386 . S
C442 C444 1.391 . S
C443 C442 1.386 . S
C443 C447 1.393 . S
C444 H433 0.950 . S
C444 C442 1.391 . S
C444 C445 1.400 . S
C445 C439 1.491 . S
C445 C444 1.400 . S
C445 C446 1.398 . S
C446 H434 0.950 . S
C446 C445 1.398 . S
C446 C447 1.391 . S
C447 H435 0.950 . S
C447 C443 1.393 . S
C447 C446 1.391 . S
H448 C456 0.950 . S
H449 C461 0.950 . S
H450 C458 0.950 . S
H451 C460 0.950 . S
H452 C462 0.950 . S
H453 C464 0.950 . S
H454 C466 0.950 . S
H455 C467 0.950 . S
C456 H448 0.950 . S
C456 C457 1.386 . S
C456 C458 1.391 . S
C457 C456 1.386 . S
C457 C461 1.393 . S
C458 H450 0.950 . S
C458 C456 1.391 . S
C458 C459 1.400 . S
C459 C458 1.400 . S
C459 C460 1.398 . S
C459 C465 1.491 . S
C460 H451 0.950 . S
C460 C459 1.398 . S
C460 C461 1.391 . S
C461 H449 0.950 . S
C461 C457 1.393 . S
C461 C460 1.391 . S
C462 H452 0.950 . S
C462 C463 1.386 . S
C462 C464 1.391 . S
C463 C462 1.386 . S
C463 C467 1.393 . S
C464 H453 0.950 . S
C464 C462 1.391 . S
C464 C465 1.400 . S
C465 C459 1.491 . S
C465 C464 1.400 . S
C465 C466 1.398 . S
C466 H454 0.950 . S
C466 C465 1.398 . S
C466 C467 1.391 . S
C467 H455 0.950 . S
C467 C463 1.393 . S
C467 C466 1.391 . S
H468 C476 0.948 . S
H469 C481 0.950 . S
H470 C478 0.950 . S
H471 C480 0.950 . S
H472 C482 0.950 . S
H473 C484 0.950 . S
H474 C486 0.950 . S
H475 C487 0.950 . S
C476 H468 0.948 . S
C476 C477 1.386 . S
C476 C478 1.391 . S
C477 C476 1.386 . S
C477 C481 1.393 . S
C478 H470 0.950 . S
C478 C476 1.391 . S
C478 C479 1.400 . S
C479 C478 1.400 . S
C479 C480 1.398 . S
C479 C485 1.491 . S
C480 H471 0.950 . S
C480 C479 1.398 . S
C480 C481 1.391 . S
C481 H469 0.950 . S
C481 C477 1.393 . S
C481 C480 1.391 . S
C482 H472 0.950 . S
C482 C483 1.386 . S
C482 C484 1.391 . S
C483 C482 1.386 . S
C483 C487 1.393 . S
C484 H473 0.950 . S
C484 C482 1.391 . S
C484 C485 1.400 . S
C485 C479 1.491 . S
C485 C484 1.400 . S
C485 C486 1.398 . S
C486 H474 0.950 . S
C486 C485 1.398 . S
C486 C487 1.391 . S
C487 H475 0.950 . S
C487 C483 1.393 . S
C487 C486 1.391 . S
H488 C496 0.950 . S
H489 C501 0.950 . S
H490 C498 0.950 . S
H491 C500 0.950 . S
H492 C502 0.950 1_455 S
H493 C504 0.950 . S
H494 C506 0.950 . S
H495 C507 0.950 . S
C496 H488 0.950 . S
C496 C497 1.386 . S
C496 C498 1.391 . S
C497 C496 1.386 . S
C497 C501 1.393 . S
C498 H490 0.950 . S
C498 C496 1.391 . S
C498 C499 1.400 . S
C499 C498 1.400 . S
C499 C500 1.398 . S
C499 C505 1.491 . S
C500 H491 0.950 . S
C500 C499 1.398 . S
C500 C501 1.391 . S
C501 H489 0.950 . S
C501 C497 1.393 . S
C501 C500 1.391 . S
C502 H492 0.950 1_655 S
C502 C503 1.386 . S
C502 C504 1.391 . S
C503 C502 1.386 . S
C503 C507 1.393 . S
C504 H493 0.950 . S
C504 C502 1.391 . S
C504 C505 1.400 . S
C505 C499 1.491 . S
C505 C504 1.400 . S
C505 C506 1.398 . S
C506 H494 0.950 . S
C506 C505 1.398 . S
C506 C507 1.391 . S
C507 H495 0.950 . S
C507 C503 1.393 . S
C507 C506 1.391 . S
H508 C516 0.950 . S
H509 C521 0.971 . S
H510 C518 0.950 . S
H511 C520 0.950 . S
H512 C522 0.950 . S
H513 C524 0.950 . S
H514 C526 0.950 . S
H515 C527 0.950 . S
C516 H508 0.950 . S
C516 C517 1.386 . S
C516 C518 1.391 . S
C517 C516 1.386 . S
C517 C521 1.393 . S
C518 H510 0.950 . S
C518 C516 1.391 . S
C518 C519 1.400 . S
C519 C518 1.400 . S
C519 C520 1.398 . S
C519 C525 1.491 . S
C520 H511 0.950 . S
C520 C519 1.398 . S
C520 C521 1.391 . S
C521 H509 0.971 . S
C521 C517 1.393 . S
C521 C520 1.391 . S
C522 H512 0.950 . S
C522 C523 1.386 . S
C522 C524 1.391 . S
C523 C522 1.386 . S
C523 C527 1.393 . S
C524 H513 0.950 . S
C524 C522 1.391 . S
C524 C525 1.400 . S
C525 C519 1.491 . S
C525 C524 1.400 . S
C525 C526 1.398 . S
C526 H514 0.950 . S
C526 C525 1.398 . S
C526 C527 1.391 . S
C527 H515 0.950 . S
C527 C523 1.393 . S
C527 C526 1.391 . S
H528 C536 0.950 . S
H529 C541 0.950 . S
H530 C538 0.950 . S
H531 C540 0.950 . S
H532 C542 0.950 . S
H533 C544 0.950 . S
H534 C546 0.950 . S
H535 C547 0.950 . S
C536 H528 0.950 . S
C536 C537 1.386 . S
C536 C538 1.391 . S
C537 C536 1.386 . S
C537 C541 1.393 . S
C538 H530 0.950 . S
C538 C536 1.391 . S
C538 C539 1.400 . S
C539 C538 1.400 . S
C539 C540 1.398 . S
C539 C545 1.491 . S
C540 H531 0.950 . S
C540 C539 1.398 . S
C540 C541 1.391 . S
C541 H529 0.950 . S
C541 C537 1.393 . S
C541 C540 1.391 . S
C542 H532 0.950 . S
C542 C543 1.386 . S
C542 C544 1.391 . S
C543 C542 1.386 . S
C543 C547 1.393 . S
C544 H533 0.950 . S
C544 C542 1.391 . S
C544 C545 1.400 . S
C545 C539 1.491 . S
C545 C544 1.400 . S
C545 C546 1.398 . S
C546 H534 0.950 . S
C546 C545 1.398 . S
C546 C547 1.391 . S
C547 H535 0.950 . S
C547 C543 1.393 . S
C547 C546 1.391 . S
H548 C556 0.950 . S
H549 C561 0.950 . S
H550 C558 0.950 1_455 S
H551 C560 0.950 . S
H552 C562 0.950 . S
H553 C564 0.950 1_655 S
H554 C566 0.950 . S
H555 C567 0.950 . S
C556 H548 0.950 . S
C556 C557 1.386 . S
C556 C558 1.391 . S
C557 C556 1.386 . S
C557 C561 1.393 . S
C558 H550 0.950 1_655 S
C558 C556 1.391 . S
C558 C559 1.400 . S
C559 C558 1.400 . S
C559 C560 1.398 . S
C559 C565 1.491 1_655 S
C560 H551 0.950 . S
C560 C559 1.398 . S
C560 C561 1.391 . S
C561 H549 0.950 . S
C561 C557 1.393 . S
C561 C560 1.391 . S
C562 H552 0.950 . S
C562 C563 1.386 . S
C562 C564 1.391 . S
C563 C562 1.386 . S
C563 C567 1.393 . S
C564 H553 0.950 1_455 S
C564 C562 1.391 . S
C564 C565 1.400 . S
C565 C559 1.491 1_455 S
C565 C564 1.400 . S
C565 C566 1.398 . S
C566 H554 0.950 . S
C566 C565 1.398 . S
C566 C567 1.391 . S
C567 H555 0.950 . S
C567 C563 1.393 . S
C567 C566 1.391 . S
H568 C576 0.950 . S
H569 C581 0.950 . S
H570 C578 0.951 . S
H571 C580 0.950 . S
H572 C582 0.950 . S
H573 C584 0.953 . S
H574 C586 0.950 . S
H575 C587 0.950 . S
C576 H568 0.950 . S
C576 C577 1.386 . S
C576 C578 1.391 1_545 S
C577 C576 1.386 . S
C577 C581 1.393 . S
C578 H570 0.951 . S
C578 C576 1.391 1_565 S
C578 C579 1.399 1_565 S
C579 C578 1.399 1_545 S
C579 C580 1.398 . S
C579 C585 1.491 1_544 S
C580 H571 0.950 . S
C580 C579 1.398 . S
C580 C581 1.391 . S
C581 H569 0.950 . S
C581 C577 1.393 . S
C581 C580 1.391 . S
C582 H572 0.950 . S
C582 C583 1.386 . S
C582 C584 1.391 1_565 S
C583 C582 1.386 . S
C583 C587 1.393 . S
C584 H573 0.953 . S
C584 C582 1.391 1_545 S
C584 C585 1.398 1_545 S
C585 C579 1.491 1_566 S
C585 C584 1.398 1_565 S
C585 C586 1.398 . S
C586 H574 0.950 . S
C586 C585 1.398 . S
C586 C587 1.391 . S
C587 H575 0.950 . S
C587 C583 1.393 . S
C587 C586 1.391 . S
H588 C596 0.950 . S
H589 C601 0.950 . S
H590 C598 0.950 . S
H591 C600 0.950 . S
H592 C602 0.950 . S
H593 C604 0.950 . S
H594 C606 0.950 . S
H595 C607 0.950 . S
C596 H588 0.950 . S
C596 C597 1.386 . S
C596 C598 1.391 . S
C597 C596 1.386 . S
C597 C601 1.393 . S
C598 H590 0.950 . S
C598 C596 1.391 . S
C598 C599 1.400 . S
C599 C598 1.400 . S
C599 C600 1.398 . S
C599 C605 1.491 . S
C600 H591 0.950 . S
C600 C599 1.398 . S
C600 C601 1.391 . S
C601 H589 0.950 . S
C601 C597 1.393 . S
C601 C600 1.391 . S
C602 H592 0.950 . S
C602 C603 1.386 . S
C602 C604 1.391 . S
C603 C602 1.386 . S
C603 C607 1.393 . S
C604 H593 0.950 . S
C604 C602 1.391 . S
C604 C605 1.400 . S
C605 C599 1.491 . S
C605 C604 1.400 . S
C605 C606 1.398 . S
C606 H594 0.950 . S
C606 C605 1.398 . S
C606 C607 1.391 . S
C607 H595 0.950 . S
C607 C603 1.393 . S
C607 C606 1.391 . S
H608 C616 0.950 . S
H609 C621 0.950 . S
H610 C618 0.950 . S
H611 C620 0.950 . S
H612 C622 0.950 . S
H613 C624 0.950 . S
H614 C626 0.950 . S
H615 C627 0.950 . S
C616 H608 0.950 . S
C616 C617 1.386 . S
C616 C618 1.391 . S
C617 C616 1.386 . S
C617 C621 1.393 . S
C618 H610 0.950 . S
C618 C616 1.391 . S
C618 C619 1.400 . S
C619 C618 1.400 . S
C619 C620 1.398 . S
C619 C625 1.491 1_455 S
C620 H611 0.950 . S
C620 C619 1.398 . S
C620 C621 1.391 . S
C621 H609 0.950 . S
C621 C617 1.393 . S
C621 C620 1.391 . S
C622 H612 0.950 . S
C622 C623 1.386 . S
C622 C624 1.391 . S
C623 C622 1.386 . S
C623 C627 1.393 . S
C624 H613 0.950 . S
C624 C622 1.391 . S
C624 C625 1.400 . S
C625 C619 1.491 1_655 S
C625 C624 1.400 . S
C625 C626 1.398 . S
C626 H614 0.950 . S
C626 C625 1.398 . S
C626 C627 1.391 . S
C627 H615 0.950 . S
C627 C623 1.393 . S
C627 C626 1.391 . S
H628 C636 0.950 . S
H629 C641 0.950 . S
H630 C638 0.950 . S
H631 C640 0.950 . S
H632 C642 0.950 . S
H633 C644 0.950 . S
H634 C646 0.950 . S
H635 C647 0.950 . S
C636 H628 0.950 . S
C636 C637 1.386 . S
C636 C638 1.391 . S
C637 C636 1.386 . S
C637 C641 1.393 . S
C638 H630 0.950 . S
C638 C636 1.391 . S
C638 C639 1.400 . S
C639 C638 1.400 . S
C639 C640 1.398 . S
C639 C645 1.491 1_564 S
C640 H631 0.950 . S
C640 C639 1.398 . S
C640 C641 1.391 . S
C641 H629 0.950 . S
C641 C637 1.393 . S
C641 C640 1.391 . S
C642 H632 0.950 . S
C642 C643 1.386 . S
C642 C644 1.391 . S
C643 C642 1.386 . S
C643 C647 1.393 . S
C644 H633 0.950 . S
C644 C642 1.391 . S
C644 C645 1.400 . S
C645 C639 1.491 1_546 S
C645 C644 1.400 . S
C645 C646 1.398 . S
C646 H634 0.950 . S
C646 C645 1.398 . S
C646 C647 1.391 . S
C647 H635 0.950 . S
C647 C643 1.393 . S
C647 C646 1.391 . S
C177 C159 1.272 . S
C183 C5 1.300 . S
C197 C19 1.278 . S
C203 C89 1.299 . S
C217 C33 1.259 . S
C223 C103 1.294 . S
C237 C47 1.256 . S
C243 C117 1.288 . S
C257 C131 1.282 . S
C263 C61 1.256 . S
C277 C75 1.297 . S
C283 C145 1.262 . S
C297 C54 1.119 . S
C303 C12 1.106 . S
C317 C68 1.100 . S
C323 C26 1.088 . S
C337 C82 1.097 . S
C343 C40 1.113 . S
C357 C96 1.090 . S
C363 C138 1.091 . S
C377 C110 1.097 . S
C383 C152 1.087 . S
C397 C124 1.114 . S
C403 C166 1.097 . S
C417 C116 0.729 . S
C423 C4 0.741 . S
C437 C18 0.765 . S
C443 C130 0.743 . S
C457 C144 0.737 . S
C463 C32 0.731 . S
C477 C158 0.742 . S
C483 C46 0.765 . S
C497 C88 0.728 . S
C503 C60 0.746 . S
C517 C74 0.739 . S
C523 C102 0.730 . S
C537 C137 1.532 . S
C543 C11 1.521 . S
C557 C25 1.529 . S
C563 C151 1.532 . S
C577 C165 1.510 . S
C583 C39 1.515 . S
C597 C53 1.510 . S
C603 C95 1.520 . S
C617 C67 1.532 . S
C623 C109 1.528 . S
C637 C123 1.531 . S
C643 C81 1.530 . S
