# Generated by pormake.
# Topology sml, (6)-cn, num edge types: 1
# Building blocks:
#     Node 0, Type 0, BuildingBlock: CUKXOW_clean_sbu_0, # of connection points: 6
#     Node 1, Type 0, BuildingBlock: CUKXOW_clean_sbu_0, # of connection points: 6
#     Node 2, Type 0, BuildingBlock: CUKXOW_clean_sbu_0, # of connection points: 6
#     Node 3, Type 0, BuildingBlock: CUKXOW_clean_sbu_0, # of connection points: 6
#     Node 4, Type 0, BuildingBlock: CUKXOW_clean_sbu_0, # of connection points: 6
#     Node 5, Type 0, BuildingBlock: CUKXOW_clean_sbu_0, # of connection points: 6
#     Edge 6, Type (0, 0), BuildingBlock: XUDNAN_clean_linker_2, # of connection points: 2
#     Edge 7, Type (0, 0), BuildingBlock: XUDNAN_clean_linker_2, # of connection points: 2
#     Edge 8, Type (0, 0), BuildingBlock: XUDNAN_clean_linker_2, # of connection points: 2
#     Edge 9, Type (0, 0), BuildingBlock: XUDNAN_clean_linker_2, # of connection points: 2
#     Edge 10, Type (0, 0), BuildingBlock: XUDNAN_clean_linker_2, # of connection points: 2
#     Edge 11, Type (0, 0), BuildingBlock: XUDNAN_clean_linker_2, # of connection points: 2
#     Edge 12, Type (0, 0), BuildingBlock: XUDNAN_clean_linker_2, # of connection points: 2
#     Edge 13, Type (0, 0), BuildingBlock: XUDNAN_clean_linker_2, # of connection points: 2
#     Edge 14, Type (0, 0), BuildingBlock: XUDNAN_clean_linker_2, # of connection points: 2
#     Edge 15, Type (0, 0), BuildingBlock: XUDNAN_clean_linker_2, # of connection points: 2
#     Edge 16, Type (0, 0), BuildingBlock: XUDNAN_clean_linker_2, # of connection points: 2
#     Edge 17, Type (0, 0), BuildingBlock: XUDNAN_clean_linker_2, # of connection points: 2
#     Edge 18, Type (0, 0), BuildingBlock: XUDNAN_clean_linker_2, # of connection points: 2
#     Edge 19, Type (0, 0), BuildingBlock: XUDNAN_clean_linker_2, # of connection points: 2
#     Edge 20, Type (0, 0), BuildingBlock: XUDNAN_clean_linker_2, # of connection points: 2
#     Edge 21, Type (0, 0), BuildingBlock: XUDNAN_clean_linker_2, # of connection points: 2
#     Edge 22, Type (0, 0), BuildingBlock: XUDNAN_clean_linker_2, # of connection points: 2
#     Edge 23, Type (0, 0), BuildingBlock: XUDNAN_clean_linker_2, # of connection points: 2
# Relax obj value: 0.147
# Max RMSD: 0.193
# Mean RMSD: 0.193
data_MOF--net-sml--node1-CUKXOW_clean_sbu_0--edge1-XUDNAN_clean_linker_2
_symmetry_space_group_name_H-M    P1
_symmetry_Int_Tables_number       1
_symmetry_cell_setting            triclinic
loop_
_symmetry_equiv_pos_as_xyz
'x, y, z'
_cell_length_a     42.965539
_cell_length_b     42.857622
_cell_length_c     14.323801
_cell_angle_alpha  89.978577
_cell_angle_beta   90.102619
_cell_angle_gamma 119.85983
loop_
_atom_site_label
_atom_site_type_symbol
_atom_site_fract_x
_atom_site_fract_y
_atom_site_fract_z
_atom_type_partial_charge
Tb0 Tb 0.20909 0.39084 1.02743 0.0
C1 C 0.12647 0.36097 0.07664 0.0
Tb2 Tb 0.18148 0.44492 0.06418 0.0
O3 O 0.23664 0.40399 0.16079 0.0
O4 O 0.19084 0.40833 0.14619 0.0
O5 O 0.15107 0.35314 0.0454 0.0
C6 C 0.16524 0.49041 0.14722 0.0
O7 O 0.13352 0.39425 0.09527 0.0
C8 C 0.18738 0.43484 0.88165 0.0
C9 C 0.26317 0.47392 1.02355 0.0
O10 O 0.14505 0.46596 0.08693 0.0
O11 O 0.19455 0.48923 0.16059 0.0
O12 O 0.1756 0.45551 0.9129 0.0
O13 O 0.19396 0.4224 0.95302 0.0
O14 O 0.23939 0.47894 0.07018 0.0
O15 O 0.25507 0.44247 0.98541 0.0
C16 C 0.22634 0.34396 0.9548 0.0
O17 O 0.23828 0.36122 1.03274 0.0
O18 O 0.20401 0.35258 0.91789 0.0
C19 C 0.21643 0.41449 0.20126 0.0
Tb20 Tb 0.81249 0.21204 0.35008 0.0
C21 C 0.75939 0.12924 0.39384 0.0
Tb22 Tb 0.73439 0.18606 0.38438 0.0
O23 O 0.82812 0.23712 0.4858 0.0
O24 O 0.7777 0.19144 0.46982 0.0
O25 O 0.78994 0.15298 0.35298 0.0
C26 C 0.67076 0.1733 0.44972 0.0
O27 O 0.73613 0.13845 0.42537 0.0
C28 C 0.7531 0.18832 0.20629 0.0
C29 C 0.78753 0.26931 0.36157 0.0
O30 O 0.70178 0.19869 0.47804 0.0
O31 O 0.67557 0.15506 0.38479 0.0
O32 O 0.72142 0.16605 0.238 0.0
O33 O 0.7702 0.20946 0.27125 0.0
O34 O 0.75711 0.24396 0.39832 0.0
O35 O 0.81096 0.26167 0.32215 0.0
C36 C 0.8763 0.228 0.27809 0.0
O37 O 0.87108 0.23974 0.35643 0.0
O38 O 0.84538 0.2068 0.23976 0.0
C39 C 0.7976 0.21641 0.52578 0.0
Tb40 Tb 0.59932 0.81425 0.66429 0.0
C41 C 0.61743 0.75423 0.71292 0.0
Tb42 Tb 0.53631 0.73587 0.70712 0.0
O43 O 0.61761 0.82214 0.81191 0.0
O44 O 0.56507 0.78578 0.77731 0.0
O45 O 0.62743 0.78388 0.66312 0.0
C46 C 0.4844 0.68132 0.80291 0.0
O47 O 0.58459 0.73438 0.74781 0.0
C48 C 0.55057 0.74407 0.52467 0.0
C49 C 0.51738 0.79452 0.63885 0.0
O50 O 0.50448 0.67812 0.74026 0.0
O51 O 0.49363 0.71495 0.81133 0.0
O52 O 0.52602 0.71465 0.56379 0.0
O53 O 0.5655 0.76657 0.59007 0.0
O54 O 0.5054 0.76209 0.67571 0.0
O55 O 0.55196 0.81759 0.62327 0.0
C56 C 0.64462 0.87837 0.59156 0.0
O57 O 0.62325 0.87257 0.66156 0.0
O58 O 0.64063 0.84788 0.56208 0.0
C59 C 0.58729 0.79667 0.84403 0.0
Tb60 Tb 0.76962 0.60184 1.04034 0.0
C61 C 0.85006 0.62187 0.08459 0.0
Tb62 Tb 0.78735 0.54004 0.07607 0.0
O63 O 0.74168 0.59041 0.17274 0.0
O64 O 0.78383 0.58014 0.15813 0.0
O65 O 0.82795 0.63346 0.05667 0.0
C66 C 0.7932 0.48946 0.16891 0.0
O67 O 0.83955 0.58746 0.10202 0.0
C68 C 0.78489 0.55314 0.89431 0.0
C69 C 0.70838 0.52103 1.02234 0.0
O70 O 0.81259 0.50692 0.09709 0.0
O71 O 0.77067 0.50044 0.18771 0.0
O72 O 0.79299 0.52944 0.92497 0.0
O73 O 0.77959 0.56649 0.966 0.0
O74 O 0.72871 0.5105 0.06706 0.0
O75 O 0.72072 0.55462 0.99383 0.0
C76 C 0.7595 0.65347 0.96748 0.0
O77 O 0.74796 0.63828 0.04797 0.0
O78 O 0.77772 0.64027 0.92861 0.0
C79 C 0.75919 0.57669 0.21306 0.0
Tb80 Tb 0.16548 0.77906 0.35988 0.0
C81 C 0.2238 0.857 0.40568 0.0
Tb82 Tb 0.24007 0.79242 0.39669 0.0
O83 O 0.16064 0.79255 0.5064 0.0
O84 O 0.19178 0.76973 0.47257 0.0
O85 O 0.19311 0.83722 0.36104 0.0
C86 C 0.30494 0.80959 0.46226 0.0
O87 O 0.2438 0.84348 0.43641 0.0
C88 C 0.22265 0.78365 0.21903 0.0
C89 C 0.18092 0.71407 0.35246 0.0
O90 O 0.29867 0.82518 0.39302 0.0
O91 O 0.27464 0.78452 0.49543 0.0
O92 O 0.24551 0.77626 0.25755 0.0
O93 O 0.21334 0.79949 0.2782 0.0
O94 O 0.21168 0.73399 0.39706 0.0
O95 O 0.16105 0.72767 0.32133 0.0
C96 C 0.10033 0.75889 0.2911 0.0
O97 O 0.10716 0.74471 0.36252 0.0
O98 O 0.13022 0.78482 0.25851 0.0
C99 C 0.1832 0.78331 0.53841 0.0
Tb100 Tb 0.38252 0.17218 0.68875 0.0
C101 C 0.36252 0.2303 0.73773 0.0
Tb102 Tb 0.44312 0.24637 0.72923 0.0
O103 O 0.36098 0.16493 0.82823 0.0
O104 O 0.41631 0.19769 0.8084 0.0
O105 O 0.35212 0.20023 0.6898 0.0
C106 C 0.48972 0.30972 0.80449 0.0
O107 O 0.39577 0.24992 0.7704 0.0
C108 C 0.42951 0.23078 0.54927 0.0
C109 C 0.46319 0.18916 0.66983 0.0
O110 O 0.46829 0.30502 0.73536 0.0
O111 O 0.48499 0.27876 0.83128 0.0
O112 O 0.46109 0.25343 0.58165 0.0
O113 O 0.40763 0.22132 0.61582 0.0
O114 O 0.47438 0.21942 0.71716 0.0
O115 O 0.42938 0.16918 0.64273 0.0
C116 C 0.33829 0.10731 0.61769 0.0
O117 O 0.35976 0.11388 0.68785 0.0
O118 O 0.34138 0.13729 0.58764 0.0
C119 C 0.3911 0.18745 0.86774 0.0
H120 H 0.36423 0.27355 0.88004 0.0
H121 H 0.30131 0.21355 0.63971 0.0
H122 H 0.25809 0.23457 0.671 0.0
H123 H 0.28835 0.25518 1.02672 0.0
H124 H 0.3109 0.29901 0.0806 0.0
H125 H 0.33651 0.27898 1.03897 0.0
H126 H 0.37489 0.3352 0.93668 0.0
H127 H 0.34945 0.35539 0.978 0.0
H128 H 0.35295 0.3498 0.85445 0.0
H129 H 0.22367 0.26539 0.72438 0.0
H130 H 0.19938 0.30076 0.8005 0.0
H131 H 0.28331 0.33731 1.00996 0.0
C132 C 0.34139 0.26487 0.83385 0.0
C133 C 0.33622 0.24215 0.75703 0.0
C134 C 0.30573 0.23095 0.69904 0.0
C135 C 0.2811 0.24278 0.71618 0.0
C136 C 0.28708 0.26533 0.79241 0.0
C137 C 0.31631 0.27593 0.85081 0.0
C138 C 0.31655 0.29993 0.92854 0.0
C139 C 0.31285 0.28221 1.02437 0.0
C140 C 0.35047 0.33729 0.92408 0.0
C141 C 0.28325 0.30177 0.90391 0.0
C142 C 0.26661 0.28176 0.82503 0.0
C143 C 0.23623 0.28079 0.78684 0.0
C144 C 0.22262 0.3009 0.83036 0.0
C145 C 0.23927 0.32133 0.91142 0.0
C146 C 0.26975 0.32147 0.94876 0.0
H147 H 0.08476 0.3609 0.21763 0.0
H148 H 0.08515 0.29619 0.98567 0.0
H149 H 0.02071 0.25237 1.01502 0.0
H150 H 0.02457 0.28635 0.36852 0.0
H151 H 0.00361 0.31072 0.41318 0.0
H152 H 0.04981 0.33475 0.37646 0.0
H153 H 0.03517 0.37302 0.26374 0.0
H154 H 0.98891 0.34897 0.2993 0.0
H155 H 0.00027 0.3508 0.17759 0.0
H156 H 0.95362 0.21955 0.06175 0.0
H157 H 0.89313 0.19832 0.12963 0.0
H158 H 0.93976 0.28416 0.33411 0.0
C159 C 0.07147 0.33726 0.17356 0.0
C160 C 0.08977 0.33191 0.09908 0.0
C161 C 0.07156 0.30058 1.04347 0.0
C162 C 0.03499 0.27573 0.05945 0.0
C163 C 0.01745 0.28245 0.13225 0.0
C164 C 0.03546 0.31224 0.18926 0.0
C165 C 0.01094 0.31425 0.26151 0.0
C166 C 0.02295 0.31133 0.36079 0.0
C167 C 0.0087 0.3488 0.24977 0.0
C168 C 0.97594 0.28124 0.23576 0.0
C169 C 0.97993 0.26319 0.16078 0.0
C170 C 0.95044 0.23317 0.12145 0.0
C171 C 0.91621 0.22136 0.16012 0.0
C172 C 0.91198 0.23937 0.23764 0.0
C173 C 0.9423 0.26949 0.27582 0.0
H174 H 0.719 0.08699 0.53556 0.0
H175 H 0.78139 0.08776 0.29704 0.0
H176 H 0.76143 0.02319 0.32526 0.0
H177 H 0.73482 0.02651 0.68141 0.0
H178 H 0.6901 0.00551 0.72906 0.0
H179 H 0.71188 0.05189 0.69286 0.0
H180 H 0.65807 0.03755 0.58417 0.0
H181 H 0.63624 0.99113 0.61927 0.0
H182 H 0.64454 0.00269 0.49734 0.0
H183 H 0.72902 0.9562 0.37405 0.0
H184 H 0.69077 0.89553 0.44267 0.0
H185 H 0.65169 0.94172 0.64883 0.0
C186 C 0.72883 0.07378 0.48949 0.0
C187 C 0.75155 0.09221 0.41371 0.0
C188 C 0.76407 0.07406 0.35577 0.0
C189 C 0.75277 0.03744 0.37118 0.0
C190 C 0.72949 0.01982 0.44554 0.0
C191 C 0.71814 0.03774 0.50427 0.0
C192 C 0.69239 0.01313 0.57749 0.0
C193 C 0.70826 0.02497 0.67602 0.0
C194 C 0.65565 0.011 0.56897 0.0
C195 C 0.69018 0.97811 0.55003 0.0
C196 C 0.71174 0.98226 0.47401 0.0
C197 C 0.71248 0.95287 0.43429 0.0
C198 C 0.69068 0.91856 0.47347 0.0
C199 C 0.66856 0.91414 0.55125 0.0
C200 C 0.66859 0.94437 0.58986 0.0
H201 H 0.61941 0.71837 0.86758 0.0
H202 H 0.67717 0.76793 0.61232 0.0
H203 H 0.72265 0.7507 0.65351 0.0
H204 H 0.69837 0.7463 1.01176 0.0
H205 H 0.678 0.70533 0.07903 0.0
H206 H 0.65046 0.72189 1.02918 0.0
H207 H 0.61184 0.66099 0.94451 0.0
H208 H 0.63907 0.64416 0.9945 0.0
H209 H 0.63341 0.64362 0.86969 0.0
H210 H 0.75923 0.72376 0.7186 0.0
H211 H 0.78496 0.69168 0.80515 0.0
H212 H 0.7052 0.66428 1.02195 0.0
C213 C 0.64155 0.72548 0.8201 0.0
C214 C 0.64466 0.74409 0.73628 0.0
C215 C 0.67434 0.75356 0.67682 0.0
C216 C 0.70026 0.74392 0.69967 0.0
C217 C 0.69637 0.7255 0.78304 0.0
C218 C 0.66791 0.71673 0.84266 0.0
C219 C 0.66978 0.69704 0.92814 0.0
C220 C 0.67444 0.71896 1.01728 0.0
C221 C 0.63656 0.65921 0.93451 0.0
C222 C 0.70331 0.69531 0.90648 0.0
C223 C 0.71831 0.71178 0.82244 0.0
C224 C 0.74808 0.71133 0.78522 0.0
C225 C 0.76254 0.69315 0.83472 0.0
C226 C 0.74737 0.67612 0.92064 0.0
C227 C 0.71781 0.67778 0.95736 0.0
H228 H 0.03998 0.69596 0.33057 0.0
H229 H 0.08024 0.79152 0.15844 0.0
H230 H 0.01973 0.76781 0.08843 0.0
H231 H 0.98447 0.63439 0.15522 0.0
H232 H 0.94961 0.60571 0.23553 0.0
H233 H -0.00464 0.63136 0.27528 0.0
H234 H 0.97584 0.66028 0.40482 0.0
H235 H 0.93001 0.63466 0.36552 0.0
H236 H 0.95153 0.68298 0.37331 0.0
H237 H 0.95399 0.73316 1.03921 0.0
H238 H 0.89011 0.68902 1.00733 0.0
H239 H 0.89532 0.61529 0.206 0.0
C240 C 0.03596 0.71205 0.27878 0.0
C241 C 0.06446 0.74568 0.25036 0.0
C242 C 0.0585 0.76574 0.18132 0.0
C243 C 0.0243 0.75252 0.14141 0.0
C244 C -0.00332 0.71908 0.17082 0.0
C245 C 0.00229 0.69904 0.23746 0.0
C246 C 0.96881 0.66322 0.25408 0.0
C247 C 0.97494 0.63182 0.22846 0.0
C248 C 0.95578 0.66012 0.35544 0.0
C249 C 0.94337 0.66613 0.18642 0.0
C250 C 0.95969 0.69866 0.13969 0.0
C251 C 0.94102 0.70754 0.07506 0.0
C252 C 0.90479 0.68239 0.05755 0.0
C253 C 0.88794 0.64867 0.10349 0.0
C254 C 0.90761 0.64064 0.16872 0.0
H255 H 0.341 0.0466 0.65458 0.0
H256 H 0.28575 0.08792 0.48548 0.0
H257 H 0.24921 0.0277 0.41341 0.0
H258 H 0.34663 0.99119 0.4769 0.0
H259 H 0.34035 0.9559 0.55635 0.0
H260 H 0.36071 0.00168 0.59693 0.0
H261 H 0.31266 0.98212 0.72701 0.0
H262 H 0.2922 0.93627 0.68695 0.0
H263 H 0.26576 0.95816 0.69587 0.0
H264 H 0.21875 0.96253 0.36101 0.0
H265 H 0.19844 0.89859 0.3278 0.0
H266 H 0.27601 0.9017 0.5278 0.0
C267 C 0.321 0.04288 0.60291 0.0
C268 C 0.31583 0.0716 0.57583 0.0
C269 C 0.28986 0.06602 0.50716 0.0
C270 C 0.26905 0.032 0.46605 0.0
C271 C 0.27493 0.00416 0.49407 0.0
C272 C 0.30042 0.00935 0.56059 0.0
C273 C 0.30249 0.97555 0.57632 0.0
C274 C 0.33975 0.98145 0.55003 0.0
C275 C 0.29268 0.96224 0.67754 0.0
C276 C 0.27406 0.95039 0.50854 0.0
C277 C 0.25828 0.96724 0.46208 0.0
C278 C 0.231 0.9491 0.39678 0.0
C279 C 0.21962 0.9128 0.3785 0.0
C280 C 0.23576 0.8952 0.42483 0.0
C281 C 0.26332 0.91441 0.49056 0.0
H282 H 0.15886 0.44544 0.71796 0.0
H283 H 0.2337 0.41343 0.82211 0.0
H284 H 0.2494 0.40697 0.66123 0.0
H285 H 0.12701 0.38233 0.522 0.0
H286 H 0.12254 0.41253 0.4427 0.0
H287 H 0.11741 0.41598 0.56648 0.0
H288 H 0.16687 0.48307 0.56207 0.0
H289 H 0.17227 0.47975 0.43834 0.0
H290 H 0.21039 0.4953 0.51525 0.0
H291 H 0.25953 0.40644 0.49266 0.0
H292 H 0.25912 0.40489 0.32186 0.0
H293 H 0.1745 0.43239 0.31627 0.0
C294 C 0.17851 0.43704 0.70647 0.0
C295 C 0.19511 0.42993 0.78312 0.0
C296 C 0.22045 0.41877 0.76526 0.0
C297 C 0.22973 0.41523 0.67376 0.0
C298 C 0.2131 0.42246 0.59998 0.0
C299 C 0.18762 0.43261 0.61458 0.0
C300 C 0.17303 0.43718 0.52125 0.0
C301 C 0.1326 0.41041 0.51262 0.0
C302 C 0.18112 0.47614 0.50851 0.0
C303 C 0.1945 0.42817 0.45253 0.0
C304 C 0.21772 0.4203 0.50043 0.0
C305 C 0.24121 0.41216 0.45434 0.0
C306 C 0.24075 0.41143 0.35678 0.0
C307 C 0.21656 0.41815 0.3049 0.0
C308 C 0.19315 0.42688 0.35372 0.0
H309 H 0.71708 0.14996 0.04572 0.0
H310 H 0.81418 0.2446 0.14156 0.0
H311 H 0.83333 0.26158 0.97968 0.0
H312 H 0.75975 0.13035 0.85101 0.0
H313 H 0.72218 0.11596 0.77263 0.0
H314 H 0.71482 0.11055 0.89684 0.0
H315 H 0.68108 0.14648 0.88951 0.0
H316 H 0.68858 0.15217 0.76535 0.0
H317 H 0.70304 0.19097 0.83946 0.0
H318 H 0.84204 0.27047 0.81228 0.0
H319 H 0.8433 0.26819 0.64171 0.0
H320 H 0.74261 0.16677 0.64256 0.0
C321 C 0.74237 0.17414 1.03218 0.0
C322 C 0.76403 0.19609 0.10679 0.0
C323 C 0.79702 0.22741 0.08625 0.0
C324 C 0.80816 0.2374 0.99419 0.0
C325 C 0.78625 0.21569 0.92248 0.0
C326 C 0.75427 0.18448 0.93948 0.0
C327 C 0.73676 0.16596 0.84751 0.0
C328 C 0.73317 0.12848 0.84168 0.0
C329 C 0.70019 0.16377 0.83474 0.0
C330 C 0.76404 0.19176 0.77709 0.0
C331 C 0.79204 0.22034 0.82297 0.0
C332 C 0.82046 0.24812 0.77537 0.0
C333 C 0.82086 0.24652 0.67814 0.0
C334 C 0.79327 0.21718 0.62845 0.0
C335 C 0.76412 0.18951 0.67862 0.0
H336 H 0.59053 0.80605 0.41169 0.0
H337 H 0.52366 0.68974 0.40199 0.0
H338 H 0.52726 0.6911 0.23135 0.0
H339 H 0.55297 0.82375 0.20677 0.0
H340 H 0.59477 0.85997 0.16334 0.0
H341 H 0.58888 0.8508 0.28679 0.0
H342 H 0.64547 0.84422 0.2905 0.0
H343 H 0.65168 0.8535 0.16708 0.0
H344 H 0.64854 0.81282 0.21259 0.0
H345 H 0.53498 0.70351 0.06221 0.0
H346 H 0.5488 0.72713 0.90194 0.0
H347 H 0.61117 0.8356 1.00963 0.0
C348 C 0.57714 0.78094 0.37346 0.0
C349 C 0.55681 0.74769 0.42129 0.0
C350 C 0.53935 0.71555 0.368 0.0
C351 C 0.54121 0.71596 0.27044 0.0
C352 C 0.5608 0.7488 0.22523 0.0
C353 C 0.57874 0.7808 0.27431 0.0
C354 C 0.59727 0.81221 0.20601 0.0
C355 C 0.58259 0.83822 0.21637 0.0
C356 C 0.63817 0.83185 0.21989 0.0
C357 C 0.58656 0.79269 0.1119 0.0
C358 C 0.56544 0.75609 0.1255 0.0
C359 C 0.55141 0.73217 0.05067 0.0
C360 C 0.55893 0.74586 0.95939 0.0
C361 C 0.58021 0.78316 0.94244 0.0
C362 C 0.59468 0.80687 1.02018 0.0
H363 H 0.81282 0.54151 0.73128 0.0
H364 H 0.7427 0.57966 0.8335 0.0
H365 H 0.72821 0.58743 0.67252 0.0
H366 H 0.8477 0.60589 0.53575 0.0
H367 H 0.85104 0.57499 0.4567 0.0
H368 H 0.85577 0.57124 0.58062 0.0
H369 H 0.80434 0.50469 0.57672 0.0
H370 H 0.80054 0.50871 0.45266 0.0
H371 H 0.76169 0.49403 0.5262 0.0
H372 H 0.71773 0.58749 0.50379 0.0
H373 H 0.71791 0.58849 0.33292 0.0
H374 H 0.79903 0.55615 0.32912 0.0
C375 C 0.79451 0.55159 0.71936 0.0
C376 C 0.77867 0.55975 0.79568 0.0
C377 C 0.75521 0.57324 0.77716 0.0
C378 C 0.74664 0.57759 0.68548 0.0
C379 C 0.76228 0.56904 0.61207 0.0
C380 C 0.78633 0.55706 0.62727 0.0
C381 C 0.8005 0.55177 0.53429 0.0
C382 C 0.84117 0.5775 0.52639 0.0
C383 C 0.79117 0.51244 0.52179 0.0
C384 C 0.7799 0.56182 0.46498 0.0
C385 C 0.75783 0.57129 0.5124 0.0
C386 C 0.73523 0.5806 0.46581 0.0
C387 C 0.73552 0.58098 0.36822 0.0
C388 C 0.75868 0.57273 0.31675 0.0
C389 C 0.78111 0.56274 0.36614 0.0
H390 H 0.17018 0.81358 0.69543 0.0
H391 H 0.21173 0.74436 0.60745 0.0
H392 H 0.22243 0.73536 0.77114 0.0
H393 H 0.23437 0.85668 0.88338 0.0
H394 H 0.20297 0.85932 0.96176 0.0
H395 H 0.19686 0.85968 0.83735 0.0
H396 H 0.13271 0.80511 0.85302 0.0
H397 H 0.13872 0.80441 0.97746 0.0
H398 H 0.12633 0.76464 0.9089 0.0
H399 H 0.22826 0.73257 0.93983 0.0
H400 H 0.23471 0.74039 0.10931 0.0
H401 H 0.19205 0.81338 0.09889 0.0
C402 C 0.18142 0.79648 0.7111 0.0
C403 C 0.18997 0.7795 0.63838 0.0
C404 C 0.20499 0.75766 0.66149 0.0
C405 C 0.21101 0.75221 0.75451 0.0
C406 C 0.20216 0.76898 0.8244 0.0
C407 C 0.18806 0.791 0.80458 0.0
C408 C 0.18261 0.80681 0.89454 0.0
C409 C 0.20558 0.84808 0.89422 0.0
C410 C 0.14272 0.79451 0.90932 0.0
C411 C 0.19601 0.79025 0.96736 0.0
C412 C 0.20668 0.76824 0.92429 0.0
C413 C 0.22018 0.74984 0.97442 0.0
C414 C 0.22374 0.75455 0.07101 0.0
C415 C 0.21418 0.7777 0.1177 0.0
C416 C 0.19949 0.79543 0.06526 0.0
H417 H 0.47296 0.24574 0.39181 0.0
H418 H 0.362 0.19912 0.47996 0.0
H419 H 0.34228 0.18643 0.3164 0.0
H420 H 0.46416 0.28676 0.17543 0.0
H421 H 0.4933 0.27646 0.10809 0.0
H422 H 0.49989 0.2835 0.23231 0.0
H423 H 0.49493 0.22113 0.25111 0.0
H424 H 0.48851 0.21398 0.12696 0.0
H425 H 0.4559 0.1817 0.20653 0.0
H426 H 0.33358 0.17871 0.14772 0.0
H427 H 0.33518 0.17175 0.97868 0.0
H428 H 0.45133 0.22124 0.98831 0.0
C429 C 0.44457 0.23301 0.37622 0.0
C430 C 0.41897 0.22346 0.44909 0.0
C431 C 0.38208 0.20657 0.42594 0.0
C432 C 0.3706 0.19941 0.33295 0.0
C433 C 0.39625 0.20912 0.26296 0.0
C434 C 0.43247 0.22533 0.2827 0.0
C435 C 0.45387 0.23159 0.19264 0.0
C436 C 0.47932 0.27198 0.17617 0.0
C437 C 0.47452 0.21086 0.19444 0.0
C438 C 0.42386 0.21603 0.11989 0.0
C439 C 0.39103 0.2037 0.16308 0.0
C440 C 0.35908 0.1881 0.11309 0.0
C441 C 0.36036 0.18424 1.01661 0.0
C442 C 0.3933 0.19561 0.9696 0.0
C443 C 0.42572 0.21228 1.02199 0.0
H444 H 0.20958 0.54756 0.25649 0.0
H445 H 0.10455 0.49489 0.12551 0.0
H446 H 0.0945 0.54397 0.1794 0.0
H447 H 0.18562 0.58548 0.45956 0.0
H448 H 0.22832 0.62655 0.45734 0.0
H449 H 0.22508 0.58491 0.41952 0.0
H450 H 0.25341 0.61419 0.26062 0.0
H451 H 0.25654 0.65574 0.29771 0.0
H452 H 0.23298 0.63437 0.19152 0.0
H453 H 0.09867 0.60149 0.23188 0.0
H454 H 0.11641 0.66338 0.27967 0.0
H455 H 0.2191 0.67891 0.37606 0.0
C456 C 0.18416 0.54601 0.24107 0.0
C457 C 0.15772 0.51752 0.18738 0.0
C458 C 0.12502 0.51652 0.16702 0.0
C459 C 0.11907 0.54419 0.1975 0.0
C460 C 0.14604 0.57243 0.24853 0.0
C461 C 0.17787 0.57345 0.27066 0.0
C462 C 0.20364 0.60819 0.31972 0.0
C463 C 0.21109 0.60083 0.42 0.0
C464 C 0.2387 0.62936 0.26403 0.0
C465 C 0.18181 0.62706 0.31891 0.0
C466 C 0.1485 0.60578 0.27863 0.0
C467 C 0.12446 0.61822 0.26477 0.0
C468 C 0.13487 0.65349 0.29186 0.0
C469 C 0.16912 0.67599 0.33192 0.0
C470 C 0.19258 0.66227 0.34678 0.0
H471 H 0.65775 0.21484 0.5711 0.0
H472 H 0.6048 0.11871 0.3999 0.0
H473 H 0.54574 0.11008 0.44726 0.0
H474 H 0.59111 0.18262 0.76051 0.0
H475 H 0.59486 0.22604 0.77739 0.0
H476 H 0.63291 0.22302 0.73624 0.0
H477 H 0.6376 0.26165 0.59199 0.0
H478 H 0.59961 0.26474 0.63262 0.0
H479 H 0.59901 0.24753 0.51742 0.0
H480 H 0.49296 0.11363 0.50583 0.0
H481 H 0.44947 0.12965 0.56823 0.0
H482 H 0.5364 0.22436 0.70029 0.0
C483 C 0.63367 0.19172 0.54471 0.0
C484 C 0.63567 0.16728 0.48228 0.0
C485 C 0.60373 0.13761 0.44811 0.0
C486 C 0.57011 0.13247 0.47477 0.0
C487 C 0.56899 0.15724 0.53568 0.0
C488 C 0.59987 0.18628 0.57034 0.0
C489 C 0.59114 0.20992 0.63093 0.0
C490 C 0.60322 0.21042 0.73229 0.0
C491 C 0.60782 0.24822 0.5908 0.0
C492 C 0.55056 0.19008 0.62308 0.0
C493 C 0.53839 0.15954 0.56874 0.0
C494 C 0.50212 0.13733 0.54904 0.0
C495 C 0.47761 0.14674 0.5849 0.0
C496 C 0.48941 0.1783 0.63942 0.0
C497 C 0.52643 0.19997 0.65943 0.0
H498 H 0.31332 0.48707 0.88592 0.0
H499 H 0.29482 0.53233 0.13682 0.0
H500 H 0.35245 0.5879 0.11422 0.0
H501 H 0.41277 0.53022 0.91298 0.0
H502 H 0.42055 0.53824 0.78943 0.0
H503 H 0.37974 0.49998 0.83058 0.0
H504 H 0.34237 0.52128 0.73575 0.0
H505 H 0.38298 0.55962 0.69467 0.0
H506 H 0.34962 0.56604 0.754 0.0
H507 H 0.40762 0.64054 0.0574 0.0
H508 H 0.45898 0.68755 0.96987 0.0
H509 H 0.44422 0.60961 0.75626 0.0
C510 C 0.32191 0.50838 0.93719 0.0
C511 C 0.29961 0.50533 1.01326 0.0
C512 C 0.31136 0.53407 0.07782 0.0
C513 C 0.34417 0.56573 0.06592 0.0
C514 C 0.36512 0.56833 0.98922 0.0
C515 C 0.35473 0.54047 0.92607 0.0
C516 C 0.38132 0.55156 0.84607 0.0
C517 C 0.39969 0.52863 0.84472 0.0
C518 C 0.36297 0.54951 0.75209 0.0
C519 C 0.40758 0.59025 0.8731 0.0
C520 C 0.39772 0.59912 0.9564 0.0
C521 C 0.41602 0.63383 0.99292 0.0
C522 C 0.44502 0.66036 0.94259 0.0
C523 C 0.45557 0.65202 0.85706 0.0
C524 C 0.437 0.61641 0.8225 0.0
H525 H 0.82424 0.32214 0.23031 0.0
H526 H 0.76169 0.29866 0.4845 0.0
H527 H 0.76249 0.35628 0.4708 0.0
H528 H 0.87852 0.42246 0.26487 0.0
H529 H 0.87702 0.43112 0.14226 0.0
H530 H 0.87662 0.39071 0.17932 0.0
H531 H 0.81796 0.35238 0.08589 0.0
H532 H 0.81799 0.39254 0.04922 0.0
H533 H 0.77948 0.35749 0.10873 0.0
H534 H 0.76209 0.41086 0.41963 0.0
H535 H 0.76275 0.46144 0.33589 0.0
H536 H 0.82666 0.45189 0.11559 0.0
C537 C 0.81178 0.32979 0.2845 0.0
C538 C 0.79307 0.30613 0.35874 0.0
C539 C 0.77616 0.31644 0.42706 0.0
C540 C 0.77659 0.34918 0.42014 0.0
C541 C 0.79416 0.37142 0.34462 0.0
C542 C 0.81176 0.36246 0.27829 0.0
C543 C 0.82571 0.38984 0.19971 0.0
C544 C 0.86692 0.40971 0.19638 0.0
C545 C 0.80929 0.37198 0.10535 0.0
C546 C 0.81205 0.41471 0.23081 0.0
C547 C 0.79424 0.40367 0.31513 0.0
C548 C 0.77665 0.42031 0.35465 0.0
C549 C 0.77709 0.44893 0.30654 0.0
C550 C 0.79519 0.46077 0.2203 0.0
C551 C 0.81326 0.44374 0.18248 0.0
H552 H 0.32093 0.76762 0.57334 0.0
H553 H 0.36953 0.86643 0.41255 0.0
H554 H 0.42981 0.87546 0.4486 0.0
H555 H 0.39089 0.79652 0.75408 0.0
H556 H 0.38778 0.75303 0.75946 0.0
H557 H 0.34887 0.75643 0.72894 0.0
H558 H 0.34195 0.72128 0.57589 0.0
H559 H 0.38091 0.71797 0.60564 0.0
H560 H 0.37914 0.7376 0.49585 0.0
H561 H 0.4844 0.87171 0.49422 0.0
H562 H 0.52932 0.85523 0.54413 0.0
H563 H 0.44471 0.75779 0.67144 0.0
C564 C 0.34434 0.79151 0.5474 0.0
C565 C 0.34078 0.81655 0.49097 0.0
C566 C 0.37184 0.84709 0.45642 0.0
C567 C 0.40613 0.85244 0.47659 0.0
C568 C 0.40877 0.82689 0.53103 0.0
C569 C 0.37871 0.79703 0.56604 0.0
C570 C 0.38877 0.77242 0.61745 0.0
C571 C 0.37847 0.76944 0.72114 0.0
C572 C 0.37168 0.73512 0.57089 0.0
C573 C 0.4291 0.79285 0.60486 0.0
C574 C 0.44015 0.82435 0.5556 0.0
C575 C 0.4761 0.84723 0.53341 0.0
C576 C 0.50143 0.83759 0.56206 0.0
C577 C 0.49066 0.8052 0.6118 0.0
C578 C 0.45395 0.78276 0.63367 0.0
H579 H 0.67391 0.44764 0.04931 0.0
H580 H 0.65861 0.53309 0.9356 0.0
H581 H 0.59859 0.48812 0.87997 0.0
H582 H 0.63422 0.38756 0.8651 0.0
H583 H 0.61292 0.3475 0.93583 0.0
H584 H 0.65315 0.3864 0.97662 0.0
H585 H 0.62055 0.38674 0.1283 0.0
H586 H 0.58013 0.3477 0.08807 0.0
H587 H 0.57922 0.38785 0.12063 0.0
H588 H 0.54335 0.43437 0.8219 0.0
H589 H 0.49549 0.3747 0.76877 0.0
H590 H 0.54531 0.3238 0.92241 0.0
C591 C 0.65769 0.45697 1.01435 0.0
C592 C 0.67108 0.49398 0.99703 0.0
C593 C 0.64907 0.50495 0.94992 0.0
C594 C 0.61482 0.4796 0.91817 0.0
C595 C 0.60275 0.44335 0.93466 0.0
C596 C 0.62332 0.43198 0.98228 0.0
C597 C 0.60478 0.39126 0.98566 0.0
C598 C 0.62763 0.37738 0.93794 0.0
C599 C 0.59563 0.37759 0.08668 0.0
C600 C 0.57116 0.38163 0.92999 0.0
C601 C 0.57042 0.41211 0.90192 0.0
C602 C 0.54329 0.41026 0.84466 0.0
C603 C 0.51633 0.37633 0.81463 0.0
C604 C 0.51673 0.34485 0.84211 0.0
C605 C 0.54419 0.34751 0.90155 0.0
loop_
_geom_bond_atom_site_label_1
_geom_bond_atom_site_label_2
_geom_bond_distance
_geom_bond_site_symmetry_2
_ccdc_geom_bond_type
Tb0 O3 2.453 . S
Tb0 O4 2.596 . S
Tb0 O5 2.374 . S
Tb0 O13 2.343 1_554 S
Tb0 O15 2.353 . S
Tb0 O17 2.427 1_554 S
Tb0 O18 2.513 1_554 S
C1 O5 1.251 . S
C1 O7 1.263 . S
Tb2 O4 2.343 1_556 S
Tb2 O7 2.353 1_556 S
Tb2 O10 2.427 1_556 S
Tb2 O11 2.513 1_556 S
Tb2 O12 2.453 . S
Tb2 O13 2.596 . S
Tb2 O14 2.374 . S
O3 Tb0 2.453 . S
O3 C19 1.245 . S
O4 Tb0 2.596 . S
O4 Tb2 2.343 1_554 S
O4 C19 1.259 . S
O5 Tb0 2.374 . S
O5 C1 1.251 . S
C6 O10 1.275 . S
C6 O11 1.246 . S
O7 C1 1.263 . S
O7 Tb2 2.353 1_554 S
C8 O12 1.245 . S
C8 O13 1.259 . S
C9 O14 1.250 . S
C9 O15 1.263 1_556 S
O10 Tb2 2.427 1_554 S
O10 C6 1.275 . S
O11 Tb2 2.513 1_554 S
O11 C6 1.246 . S
O12 Tb2 2.453 . S
O12 C8 1.245 . S
O13 Tb0 2.343 1_556 S
O13 Tb2 2.596 . S
O13 C8 1.259 . S
O14 Tb2 2.374 . S
O14 C9 1.250 . S
O15 Tb0 2.353 . S
O15 C9 1.263 1_554 S
C16 O17 1.275 . S
C16 O18 1.246 . S
O17 Tb0 2.427 1_556 S
O17 C16 1.275 . S
O18 Tb0 2.513 1_556 S
O18 C16 1.246 . S
C19 O3 1.245 . S
C19 O4 1.259 . S
Tb20 O23 2.453 . S
Tb20 O24 2.596 . S
Tb20 O25 2.374 . S
Tb20 O33 2.343 . S
Tb20 O35 2.353 . S
Tb20 O37 2.427 . S
Tb20 O38 2.513 . S
C21 O25 1.251 . S
C21 O27 1.263 . S
Tb22 O24 2.343 . S
Tb22 O27 2.353 . S
Tb22 O30 2.427 . S
Tb22 O31 2.513 . S
Tb22 O32 2.453 . S
Tb22 O33 2.596 . S
Tb22 O34 2.374 . S
O23 Tb20 2.453 . S
O23 C39 1.245 . S
O24 Tb20 2.596 . S
O24 Tb22 2.343 . S
O24 C39 1.259 . S
O25 Tb20 2.374 . S
O25 C21 1.251 . S
C26 O30 1.275 . S
C26 O31 1.246 . S
O27 C21 1.263 . S
O27 Tb22 2.353 . S
C28 O32 1.245 . S
C28 O33 1.259 . S
C29 O34 1.250 . S
C29 O35 1.263 . S
O30 Tb22 2.427 . S
O30 C26 1.275 . S
O31 Tb22 2.513 . S
O31 C26 1.246 . S
O32 Tb22 2.453 . S
O32 C28 1.245 . S
O33 Tb20 2.343 . S
O33 Tb22 2.596 . S
O33 C28 1.259 . S
O34 Tb22 2.374 . S
O34 C29 1.250 . S
O35 Tb20 2.353 . S
O35 C29 1.263 . S
C36 O37 1.275 . S
C36 O38 1.246 . S
O37 Tb20 2.427 . S
O37 C36 1.275 . S
O38 Tb20 2.513 . S
O38 C36 1.246 . S
C39 O23 1.245 . S
C39 O24 1.259 . S
Tb40 O43 2.453 . S
Tb40 O44 2.596 . S
Tb40 O45 2.374 . S
Tb40 O53 2.343 . S
Tb40 O55 2.353 . S
Tb40 O57 2.427 . S
Tb40 O58 2.513 . S
C41 O45 1.251 . S
C41 O47 1.263 . S
Tb42 O44 2.343 . S
Tb42 O47 2.353 . S
Tb42 O50 2.427 . S
Tb42 O51 2.513 . S
Tb42 O52 2.453 . S
Tb42 O53 2.596 . S
Tb42 O54 2.374 . S
O43 Tb40 2.453 . S
O43 C59 1.245 . S
O44 Tb40 2.596 . S
O44 Tb42 2.343 . S
O44 C59 1.259 . S
O45 Tb40 2.374 . S
O45 C41 1.251 . S
C46 O50 1.275 . S
C46 O51 1.246 . S
O47 C41 1.263 . S
O47 Tb42 2.353 . S
C48 O52 1.245 . S
C48 O53 1.259 . S
C49 O54 1.250 . S
C49 O55 1.263 . S
O50 Tb42 2.427 . S
O50 C46 1.275 . S
O51 Tb42 2.513 . S
O51 C46 1.246 . S
O52 Tb42 2.453 . S
O52 C48 1.245 . S
O53 Tb40 2.343 . S
O53 Tb42 2.596 . S
O53 C48 1.259 . S
O54 Tb42 2.374 . S
O54 C49 1.250 . S
O55 Tb40 2.353 . S
O55 C49 1.263 . S
C56 O57 1.275 . S
C56 O58 1.246 . S
O57 Tb40 2.427 . S
O57 C56 1.275 . S
O58 Tb40 2.513 . S
O58 C56 1.246 . S
C59 O43 1.245 . S
C59 O44 1.259 . S
Tb60 O63 2.453 . S
Tb60 O64 2.596 . S
Tb60 O65 2.374 . S
Tb60 O73 2.343 1_554 S
Tb60 O75 2.353 . S
Tb60 O77 2.427 1_554 S
Tb60 O78 2.513 1_554 S
C61 O65 1.251 . S
C61 O67 1.263 . S
Tb62 O64 2.343 1_556 S
Tb62 O67 2.353 1_556 S
Tb62 O70 2.427 1_556 S
Tb62 O71 2.513 1_556 S
Tb62 O72 2.453 . S
Tb62 O73 2.596 . S
Tb62 O74 2.374 . S
O63 Tb60 2.453 . S
O63 C79 1.245 . S
O64 Tb60 2.596 . S
O64 Tb62 2.343 1_554 S
O64 C79 1.259 . S
O65 Tb60 2.374 . S
O65 C61 1.251 . S
C66 O70 1.275 . S
C66 O71 1.246 . S
O67 C61 1.263 . S
O67 Tb62 2.353 1_554 S
C68 O72 1.245 . S
C68 O73 1.259 . S
C69 O74 1.250 . S
C69 O75 1.263 1_556 S
O70 Tb62 2.427 1_554 S
O70 C66 1.275 . S
O71 Tb62 2.513 1_554 S
O71 C66 1.246 . S
O72 Tb62 2.453 . S
O72 C68 1.245 . S
O73 Tb60 2.343 1_556 S
O73 Tb62 2.596 . S
O73 C68 1.259 . S
O74 Tb62 2.374 . S
O74 C69 1.250 . S
O75 Tb60 2.353 . S
O75 C69 1.263 1_554 S
C76 O77 1.275 . S
C76 O78 1.246 . S
O77 Tb60 2.427 1_556 S
O77 C76 1.275 . S
O78 Tb60 2.513 1_556 S
O78 C76 1.246 . S
C79 O63 1.245 . S
C79 O64 1.259 . S
Tb80 O83 2.453 . S
Tb80 O84 2.596 . S
Tb80 O85 2.374 . S
Tb80 O93 2.343 . S
Tb80 O95 2.353 . S
Tb80 O97 2.427 . S
Tb80 O98 2.513 . S
C81 O85 1.251 . S
C81 O87 1.263 . S
Tb82 O84 2.343 . S
Tb82 O87 2.353 . S
Tb82 O90 2.427 . S
Tb82 O91 2.513 . S
Tb82 O92 2.453 . S
Tb82 O93 2.596 . S
Tb82 O94 2.374 . S
O83 Tb80 2.453 . S
O83 C99 1.245 . S
O84 Tb80 2.596 . S
O84 Tb82 2.343 . S
O84 C99 1.259 . S
O85 Tb80 2.374 . S
O85 C81 1.251 . S
C86 O90 1.275 . S
C86 O91 1.246 . S
O87 C81 1.263 . S
O87 Tb82 2.353 . S
C88 O92 1.245 . S
C88 O93 1.259 . S
C89 O94 1.250 . S
C89 O95 1.263 . S
O90 Tb82 2.427 . S
O90 C86 1.275 . S
O91 Tb82 2.513 . S
O91 C86 1.246 . S
O92 Tb82 2.453 . S
O92 C88 1.245 . S
O93 Tb80 2.343 . S
O93 Tb82 2.596 . S
O93 C88 1.259 . S
O94 Tb82 2.374 . S
O94 C89 1.250 . S
O95 Tb80 2.353 . S
O95 C89 1.263 . S
C96 O97 1.275 . S
C96 O98 1.246 . S
O97 Tb80 2.427 . S
O97 C96 1.275 . S
O98 Tb80 2.513 . S
O98 C96 1.246 . S
C99 O83 1.245 . S
C99 O84 1.259 . S
Tb100 O103 2.453 . S
Tb100 O104 2.596 . S
Tb100 O105 2.374 . S
Tb100 O113 2.343 . S
Tb100 O115 2.353 . S
Tb100 O117 2.427 . S
Tb100 O118 2.513 . S
C101 O105 1.251 . S
C101 O107 1.263 . S
Tb102 O104 2.343 . S
Tb102 O107 2.353 . S
Tb102 O110 2.427 . S
Tb102 O111 2.513 . S
Tb102 O112 2.453 . S
Tb102 O113 2.596 . S
Tb102 O114 2.374 . S
O103 Tb100 2.453 . S
O103 C119 1.245 . S
O104 Tb100 2.596 . S
O104 Tb102 2.343 . S
O104 C119 1.259 . S
O105 Tb100 2.374 . S
O105 C101 1.251 . S
C106 O110 1.275 . S
C106 O111 1.246 . S
O107 C101 1.263 . S
O107 Tb102 2.353 . S
C108 O112 1.245 . S
C108 O113 1.259 . S
C109 O114 1.250 . S
C109 O115 1.263 . S
O110 Tb102 2.427 . S
O110 C106 1.275 . S
O111 Tb102 2.513 . S
O111 C106 1.246 . S
O112 Tb102 2.453 . S
O112 C108 1.245 . S
O113 Tb100 2.343 . S
O113 Tb102 2.596 . S
O113 C108 1.259 . S
O114 Tb102 2.374 . S
O114 C109 1.250 . S
O115 Tb100 2.353 . S
O115 C109 1.263 . S
C116 O117 1.275 . S
C116 O118 1.246 . S
O117 Tb100 2.427 . S
O117 C116 1.275 . S
O118 Tb100 2.513 . S
O118 C116 1.246 . S
C119 O103 1.245 . S
C119 O104 1.259 . S
H120 C132 0.930 . S
H121 C134 0.930 . S
H122 C135 0.930 . S
H123 C139 0.959 . S
H124 C139 0.959 . S
H125 C139 0.961 . S
H126 C140 0.960 . S
H127 C140 0.961 . S
H128 C140 0.959 . S
H129 C143 0.929 . S
H130 C144 0.931 . S
H131 C146 0.930 . S
C132 H120 0.930 . S
C132 C133 1.399 . S
C132 C137 1.399 . S
C133 C132 1.399 . S
C133 C134 1.376 . S
C134 H121 0.930 . S
C134 C133 1.376 . S
C134 C135 1.388 . S
C135 H122 0.930 . S
C135 C134 1.388 . S
C135 C136 1.390 . S
C136 C135 1.390 . S
C136 C137 1.394 . S
C136 C142 1.465 . S
C137 C132 1.399 . S
C137 C136 1.394 . S
C137 C138 1.516 . S
C138 C137 1.516 . S
C138 C139 1.502 . S
C138 C140 1.561 . S
C138 C141 1.526 . S
C139 H123 0.959 . S
C139 H124 0.959 . S
C139 H125 0.961 . S
C139 C138 1.502 . S
C140 H126 0.960 . S
C140 H127 0.961 . S
C140 H128 0.959 . S
C140 C138 1.561 . S
C141 C138 1.526 . S
C141 C142 1.396 . S
C141 C146 1.390 . S
C142 C136 1.465 . S
C142 C141 1.396 . S
C142 C143 1.399 . S
C143 H129 0.929 . S
C143 C142 1.399 . S
C143 C144 1.385 . S
C144 H130 0.931 . S
C144 C143 1.385 . S
C144 C145 1.389 . S
C145 C144 1.389 . S
C145 C146 1.387 . S
C146 H131 0.930 . S
C146 C141 1.390 . S
C146 C145 1.387 . S
H147 C159 0.930 1_556 S
H148 C161 0.930 . S
H149 C162 0.930 . S
H150 C166 0.962 1_455 S
H151 C166 0.974 1_556 S
H152 C166 0.953 1_456 S
H153 C167 0.960 1_455 S
H154 C167 0.961 . S
H155 C167 0.959 . S
H156 C170 0.929 . S
H157 C171 0.931 . S
H158 C173 0.930 . S
C159 H147 0.930 1_554 S
C159 C160 1.399 . S
C159 C164 1.399 . S
C160 C159 1.399 . S
C160 C161 1.376 . S
C161 H148 0.930 . S
C161 C160 1.376 . S
C161 C162 1.388 . S
C162 H149 0.930 . S
C162 C161 1.388 . S
C162 C163 1.390 . S
C163 C162 1.390 . S
C163 C164 1.394 . S
C163 C169 1.465 1_455 S
C164 C159 1.399 . S
C164 C163 1.394 . S
C164 C165 1.516 . S
C165 C164 1.516 . S
C165 C166 1.492 1_455 S
C165 C167 1.561 1_454 S
C165 C168 1.526 1_455 S
C166 H150 0.962 1_655 S
C166 H151 0.974 1_554 S
C166 H152 0.953 1_654 S
C166 C165 1.492 1_655 S
C167 H153 0.960 1_655 S
C167 H154 0.961 . S
C167 H155 0.959 . S
C167 C165 1.561 1_656 S
C168 C165 1.526 1_655 S
C168 C169 1.396 . S
C168 C173 1.390 . S
C169 C163 1.465 1_655 S
C169 C168 1.396 . S
C169 C170 1.399 . S
C170 H156 0.929 . S
C170 C169 1.399 . S
C170 C171 1.385 . S
C171 H157 0.931 . S
C171 C170 1.385 . S
C171 C172 1.389 . S
C172 C171 1.389 . S
C172 C173 1.387 . S
C173 H158 0.930 . S
C173 C168 1.390 . S
C173 C172 1.387 . S
H174 C186 0.930 . S
H175 C188 0.930 . S
H176 C189 0.930 . S
H177 C193 0.959 . S
H178 C193 0.959 . S
H179 C193 0.961 . S
H180 C194 0.960 . S
H181 C194 0.961 1_565 S
H182 C194 0.961 . S
H183 C197 0.929 . S
H184 C198 0.931 . S
H185 C200 0.930 . S
C186 H174 0.930 . S
C186 C187 1.399 . S
C186 C191 1.399 . S
C187 C186 1.399 . S
C187 C188 1.376 . S
C188 H175 0.930 . S
C188 C187 1.376 . S
C188 C189 1.388 . S
C189 H176 0.930 . S
C189 C188 1.388 . S
C189 C190 1.390 . S
C190 C189 1.390 . S
C190 C191 1.394 . S
C190 C196 1.465 1_545 S
C191 C186 1.399 . S
C191 C190 1.394 . S
C191 C192 1.516 . S
C192 C191 1.516 . S
C192 C193 1.502 . S
C192 C194 1.561 . S
C192 C195 1.526 1_545 S
C193 H177 0.959 . S
C193 H178 0.959 . S
C193 H179 0.961 . S
C193 C192 1.502 . S
C194 H180 0.960 . S
C194 H181 0.961 1_545 S
C194 H182 0.961 . S
C194 C192 1.561 . S
C195 C192 1.526 1_565 S
C195 C196 1.396 . S
C195 C200 1.390 . S
C196 C190 1.465 1_565 S
C196 C195 1.396 . S
C196 C197 1.399 . S
C197 H183 0.929 . S
C197 C196 1.399 . S
C197 C198 1.385 . S
C198 H184 0.931 . S
C198 C197 1.385 . S
C198 C199 1.389 . S
C199 C198 1.389 . S
C199 C200 1.387 . S
C200 H185 0.930 . S
C200 C195 1.390 . S
C200 C199 1.387 . S
H201 C213 0.930 . S
H202 C215 0.930 . S
H203 C216 0.930 . S
H204 C220 0.959 . S
H205 C220 0.959 . S
H206 C220 0.961 . S
H207 C221 0.960 . S
H208 C221 0.961 . S
H209 C221 0.959 . S
H210 C224 0.929 . S
H211 C225 0.931 . S
H212 C227 0.930 . S
C213 H201 0.930 . S
C213 C214 1.399 . S
C213 C218 1.399 . S
C214 C213 1.399 . S
C214 C215 1.376 . S
C215 H202 0.930 . S
C215 C214 1.376 . S
C215 C216 1.388 . S
C216 H203 0.930 . S
C216 C215 1.388 . S
C216 C217 1.390 . S
C217 C216 1.390 . S
C217 C218 1.394 . S
C217 C223 1.465 . S
C218 C213 1.399 . S
C218 C217 1.394 . S
C218 C219 1.516 . S
C219 C218 1.516 . S
C219 C220 1.502 . S
C219 C221 1.561 . S
C219 C222 1.526 . S
C220 H204 0.959 . S
C220 H205 0.959 . S
C220 H206 0.961 . S
C220 C219 1.502 . S
C221 H207 0.960 . S
C221 H208 0.961 . S
C221 H209 0.959 . S
C221 C219 1.561 . S
C222 C219 1.526 . S
C222 C223 1.396 . S
C222 C227 1.390 . S
C223 C217 1.465 . S
C223 C222 1.396 . S
C223 C224 1.399 . S
C224 H210 0.929 . S
C224 C223 1.399 . S
C224 C225 1.385 . S
C225 H211 0.931 . S
C225 C224 1.385 . S
C225 C226 1.389 . S
C226 C225 1.389 . S
C226 C227 1.387 . S
C227 H212 0.930 . S
C227 C222 1.390 . S
C227 C226 1.387 . S
H228 C240 0.930 . S
H229 C242 0.930 . S
H230 C243 0.930 . S
H231 C247 0.959 . S
H232 C247 0.959 1_556 S
H233 C247 0.961 1_456 S
H234 C248 0.960 . S
H235 C248 0.961 1_655 S
H236 C248 0.948 . S
H237 C251 0.929 . S
H238 C252 0.931 . S
H239 C254 0.930 1_556 S
C240 H228 0.930 . S
C240 C241 1.399 . S
C240 C245 1.399 . S
C241 C240 1.399 . S
C241 C242 1.376 . S
C242 H229 0.930 . S
C242 C241 1.376 . S
C242 C243 1.388 . S
C243 H230 0.930 . S
C243 C242 1.388 . S
C243 C244 1.390 . S
C244 C243 1.390 . S
C244 C245 1.394 . S
C244 C250 1.465 1_455 S
C245 C240 1.399 . S
C245 C244 1.394 . S
C245 C246 1.516 1_455 S
C246 C245 1.516 1_655 S
C246 C247 1.502 . S
C246 C248 1.561 1_654 S
C246 C249 1.526 . S
C247 H231 0.959 . S
C247 H232 0.959 1_554 S
C247 H233 0.961 1_654 S
C247 C246 1.502 . S
C248 H234 0.960 . S
C248 H235 0.961 1_455 S
C248 H236 0.948 . S
C248 C246 1.561 1_456 S
C249 C246 1.526 . S
C249 C250 1.396 . S
C249 C254 1.390 . S
C250 C244 1.465 1_655 S
C250 C249 1.396 . S
C250 C251 1.399 . S
C251 H237 0.929 . S
C251 C250 1.399 . S
C251 C252 1.385 . S
C252 H238 0.931 . S
C252 C251 1.385 . S
C252 C253 1.389 . S
C253 C252 1.389 . S
C253 C254 1.387 . S
C254 H239 0.930 1_554 S
C254 C249 1.390 . S
C254 C253 1.387 . S
H255 C267 0.930 . S
H256 C269 0.930 . S
H257 C270 0.930 . S
H258 C274 0.959 . S
H259 C274 0.959 . S
H260 C274 0.961 . S
H261 C275 0.960 . S
H262 C275 0.961 . S
H263 C275 0.959 . S
H264 C278 0.929 . S
H265 C279 0.931 . S
H266 C281 0.930 . S
C267 H255 0.930 . S
C267 C268 1.399 . S
C267 C272 1.399 . S
C268 C267 1.399 . S
C268 C269 1.376 . S
C269 H256 0.930 . S
C269 C268 1.376 . S
C269 C270 1.388 . S
C270 H257 0.930 . S
C270 C269 1.388 . S
C270 C271 1.390 . S
C271 C270 1.390 . S
C271 C272 1.394 . S
C271 C277 1.465 1_545 S
C272 C267 1.399 . S
C272 C271 1.394 . S
C272 C273 1.516 1_545 S
C273 C272 1.516 1_565 S
C273 C274 1.502 . S
C273 C275 1.561 . S
C273 C276 1.526 . S
C274 H258 0.959 . S
C274 H259 0.959 . S
C274 H260 0.961 . S
C274 C273 1.502 . S
C275 H261 0.960 . S
C275 H262 0.961 . S
C275 H263 0.959 . S
C275 C273 1.561 . S
C276 C273 1.526 . S
C276 C277 1.396 . S
C276 C281 1.390 . S
C277 C271 1.465 1_565 S
C277 C276 1.396 . S
C277 C278 1.399 . S
C278 H264 0.929 . S
C278 C277 1.399 . S
C278 C279 1.385 . S
C279 H265 0.931 . S
C279 C278 1.385 . S
C279 C280 1.389 . S
C280 C279 1.389 . S
C280 C281 1.387 . S
C281 H266 0.930 . S
C281 C276 1.390 . S
C281 C280 1.387 . S
H282 C294 0.930 . S
H283 C296 0.930 . S
H284 C297 0.930 . S
H285 C301 0.959 . S
H286 C301 0.959 . S
H287 C301 0.961 . S
H288 C302 0.960 . S
H289 C302 0.961 . S
H290 C302 0.959 . S
H291 C305 0.929 . S
H292 C306 0.931 . S
H293 C308 0.930 . S
C294 H282 0.930 . S
C294 C295 1.399 . S
C294 C299 1.399 . S
C295 C294 1.399 . S
C295 C296 1.376 . S
C296 H283 0.930 . S
C296 C295 1.376 . S
C296 C297 1.388 . S
C297 H284 0.930 . S
C297 C296 1.388 . S
C297 C298 1.390 . S
C298 C297 1.390 . S
C298 C299 1.394 . S
C298 C304 1.465 . S
C299 C294 1.399 . S
C299 C298 1.394 . S
C299 C300 1.516 . S
C300 C299 1.516 . S
C300 C301 1.502 . S
C300 C302 1.561 . S
C300 C303 1.526 . S
C301 H285 0.959 . S
C301 H286 0.959 . S
C301 H287 0.961 . S
C301 C300 1.502 . S
C302 H288 0.960 . S
C302 H289 0.961 . S
C302 H290 0.959 . S
C302 C300 1.561 . S
C303 C300 1.526 . S
C303 C304 1.396 . S
C303 C308 1.390 . S
C304 C298 1.465 . S
C304 C303 1.396 . S
C304 C305 1.399 . S
C305 H291 0.929 . S
C305 C304 1.399 . S
C305 C306 1.385 . S
C306 H292 0.931 . S
C306 C305 1.385 . S
C306 C307 1.389 . S
C307 C306 1.389 . S
C307 C308 1.387 . S
C308 H293 0.930 . S
C308 C303 1.390 . S
C308 C307 1.387 . S
H309 C321 0.927 1_554 S
H310 C323 0.930 . S
H311 C324 0.930 . S
H312 C328 0.959 . S
H313 C328 0.959 . S
H314 C328 0.961 . S
H315 C329 0.960 . S
H316 C329 0.961 . S
H317 C329 0.959 . S
H318 C332 0.929 . S
H319 C333 0.931 . S
H320 C335 0.930 . S
C321 H309 0.927 1_556 S
C321 C322 1.393 1_556 S
C321 C326 1.408 . S
C322 C321 1.393 1_554 S
C322 C323 1.376 . S
C323 H310 0.930 . S
C323 C322 1.376 . S
C323 C324 1.388 1_554 S
C324 H311 0.930 . S
C324 C323 1.388 1_556 S
C324 C325 1.390 . S
C325 C324 1.390 . S
C325 C326 1.394 . S
C325 C331 1.465 . S
C326 C321 1.408 . S
C326 C325 1.394 . S
C326 C327 1.516 . S
C327 C326 1.516 . S
C327 C328 1.502 . S
C327 C329 1.561 . S
C327 C330 1.526 . S
C328 H312 0.959 . S
C328 H313 0.959 . S
C328 H314 0.961 . S
C328 C327 1.502 . S
C329 H315 0.960 . S
C329 H316 0.961 . S
C329 H317 0.959 . S
C329 C327 1.561 . S
C330 C327 1.526 . S
C330 C331 1.396 . S
C330 C335 1.390 . S
C331 C325 1.465 . S
C331 C330 1.396 . S
C331 C332 1.399 . S
C332 H318 0.929 . S
C332 C331 1.399 . S
C332 C333 1.385 . S
C333 H319 0.931 . S
C333 C332 1.385 . S
C333 C334 1.389 . S
C334 C333 1.389 . S
C334 C335 1.387 . S
C335 H320 0.930 . S
C335 C330 1.390 . S
C335 C334 1.387 . S
H336 C348 0.930 . S
H337 C350 0.930 . S
H338 C351 0.930 . S
H339 C355 0.959 . S
H340 C355 0.959 . S
H341 C355 0.961 . S
H342 C356 0.960 . S
H343 C356 0.961 . S
H344 C356 0.959 . S
H345 C359 0.929 . S
H346 C360 0.931 . S
H347 C362 0.930 1_556 S
C348 H336 0.930 . S
C348 C349 1.399 . S
C348 C353 1.399 . S
C349 C348 1.399 . S
C349 C350 1.376 . S
C350 H337 0.930 . S
C350 C349 1.376 . S
C350 C351 1.388 . S
C351 H338 0.930 . S
C351 C350 1.388 . S
C351 C352 1.390 . S
C352 C351 1.390 . S
C352 C353 1.394 . S
C352 C358 1.465 . S
C353 C348 1.399 . S
C353 C352 1.394 . S
C353 C354 1.516 . S
C354 C353 1.516 . S
C354 C355 1.502 . S
C354 C356 1.561 . S
C354 C357 1.526 . S
C355 H339 0.959 . S
C355 H340 0.959 . S
C355 H341 0.961 . S
C355 C354 1.502 . S
C356 H342 0.960 . S
C356 H343 0.961 . S
C356 H344 0.959 . S
C356 C354 1.561 . S
C357 C354 1.526 . S
C357 C358 1.396 . S
C357 C362 1.390 . S
C358 C352 1.465 . S
C358 C357 1.396 . S
C358 C359 1.399 . S
C359 H345 0.929 . S
C359 C358 1.399 . S
C359 C360 1.385 1_554 S
C360 H346 0.931 . S
C360 C359 1.385 1_556 S
C360 C361 1.389 . S
C361 C360 1.389 . S
C361 C362 1.387 1_556 S
C362 H347 0.930 1_554 S
C362 C357 1.390 . S
C362 C361 1.387 1_554 S
H363 C375 0.930 . S
H364 C377 0.930 . S
H365 C378 0.930 . S
H366 C382 0.959 . S
H367 C382 0.959 . S
H368 C382 0.961 . S
H369 C383 0.960 . S
H370 C383 0.961 . S
H371 C383 0.959 . S
H372 C386 0.929 . S
H373 C387 0.931 . S
H374 C389 0.930 . S
C375 H363 0.930 . S
C375 C376 1.399 . S
C375 C380 1.399 . S
C376 C375 1.399 . S
C376 C377 1.376 . S
C377 H364 0.930 . S
C377 C376 1.376 . S
C377 C378 1.388 . S
C378 H365 0.930 . S
C378 C377 1.388 . S
C378 C379 1.390 . S
C379 C378 1.390 . S
C379 C380 1.394 . S
C379 C385 1.465 . S
C380 C375 1.399 . S
C380 C379 1.394 . S
C380 C381 1.516 . S
C381 C380 1.516 . S
C381 C382 1.502 . S
C381 C383 1.561 . S
C381 C384 1.526 . S
C382 H366 0.959 . S
C382 H367 0.959 . S
C382 H368 0.961 . S
C382 C381 1.502 . S
C383 H369 0.960 . S
C383 H370 0.961 . S
C383 H371 0.959 . S
C383 C381 1.561 . S
C384 C381 1.526 . S
C384 C385 1.396 . S
C384 C389 1.390 . S
C385 C379 1.465 . S
C385 C384 1.396 . S
C385 C386 1.399 . S
C386 H372 0.929 . S
C386 C385 1.399 . S
C386 C387 1.385 . S
C387 H373 0.931 . S
C387 C386 1.385 . S
C387 C388 1.389 . S
C388 C387 1.389 . S
C388 C389 1.387 . S
C389 H374 0.930 . S
C389 C384 1.390 . S
C389 C388 1.387 . S
H390 C402 0.930 . S
H391 C404 0.930 . S
H392 C405 0.930 . S
H393 C409 0.959 . S
H394 C409 0.959 . S
H395 C409 0.961 . S
H396 C410 0.960 . S
H397 C410 0.961 . S
H398 C410 0.959 . S
H399 C413 0.929 . S
H400 C414 0.931 . S
H401 C416 0.928 1_554 S
C402 H390 0.930 . S
C402 C403 1.399 . S
C402 C407 1.399 . S
C403 C402 1.399 . S
C403 C404 1.376 . S
C404 H391 0.930 . S
C404 C403 1.376 . S
C404 C405 1.388 . S
C405 H392 0.930 . S
C405 C404 1.388 . S
C405 C406 1.390 . S
C406 C405 1.390 . S
C406 C407 1.394 . S
C406 C412 1.465 . S
C407 C402 1.399 . S
C407 C406 1.394 . S
C407 C408 1.516 . S
C408 C407 1.516 . S
C408 C409 1.502 . S
C408 C410 1.561 . S
C408 C411 1.526 . S
C409 H393 0.959 . S
C409 H394 0.959 . S
C409 H395 0.961 . S
C409 C408 1.502 . S
C410 H396 0.960 . S
C410 H397 0.961 . S
C410 H398 0.959 . S
C410 C408 1.561 . S
C411 C408 1.526 . S
C411 C412 1.396 . S
C411 C416 1.395 . S
C412 C406 1.465 . S
C412 C411 1.396 . S
C412 C413 1.399 . S
C413 H399 0.929 . S
C413 C412 1.399 . S
C413 C414 1.385 1_556 S
C414 H400 0.931 . S
C414 C413 1.385 1_554 S
C414 C415 1.389 . S
C415 C414 1.389 . S
C415 C416 1.383 1_554 S
C416 H401 0.928 1_556 S
C416 C411 1.395 . S
C416 C415 1.383 1_556 S
H417 C429 0.930 . S
H418 C431 0.930 . S
H419 C432 0.930 . S
H420 C436 0.959 . S
H421 C436 0.959 . S
H422 C436 0.961 . S
H423 C437 0.960 . S
H424 C437 0.961 . S
H425 C437 0.959 . S
H426 C440 0.929 . S
H427 C441 0.931 . S
H428 C443 0.930 1_556 S
C429 H417 0.930 . S
C429 C430 1.399 . S
C429 C434 1.399 . S
C430 C429 1.399 . S
C430 C431 1.376 . S
C431 H418 0.930 . S
C431 C430 1.376 . S
C431 C432 1.388 . S
C432 H419 0.930 . S
C432 C431 1.388 . S
C432 C433 1.390 . S
C433 C432 1.390 . S
C433 C434 1.394 . S
C433 C439 1.465 . S
C434 C429 1.399 . S
C434 C433 1.394 . S
C434 C435 1.516 . S
C435 C434 1.516 . S
C435 C436 1.502 . S
C435 C437 1.561 . S
C435 C438 1.526 . S
C436 H420 0.959 . S
C436 H421 0.959 . S
C436 H422 0.961 . S
C436 C435 1.502 . S
C437 H423 0.960 . S
C437 H424 0.961 . S
C437 H425 0.959 . S
C437 C435 1.561 . S
C438 C435 1.526 . S
C438 C439 1.396 . S
C438 C443 1.390 . S
C439 C433 1.465 . S
C439 C438 1.396 . S
C439 C440 1.399 . S
C440 H426 0.929 . S
C440 C439 1.399 . S
C440 C441 1.385 1_554 S
C441 H427 0.931 . S
C441 C440 1.385 1_556 S
C441 C442 1.389 . S
C442 C441 1.389 . S
C442 C443 1.387 1_556 S
C443 H428 0.930 1_554 S
C443 C438 1.390 . S
C443 C442 1.387 1_554 S
H444 C456 0.930 . S
H445 C458 0.930 . S
H446 C459 0.930 . S
H447 C463 0.959 . S
H448 C463 0.959 . S
H449 C463 0.961 . S
H450 C464 0.960 . S
H451 C464 0.961 . S
H452 C464 0.959 . S
H453 C467 0.929 . S
H454 C468 0.931 . S
H455 C470 0.930 . S
C456 H444 0.930 . S
C456 C457 1.399 . S
C456 C461 1.399 . S
C457 C456 1.399 . S
C457 C458 1.376 . S
C458 H445 0.930 . S
C458 C457 1.376 . S
C458 C459 1.388 . S
C459 H446 0.930 . S
C459 C458 1.388 . S
C459 C460 1.390 . S
C460 C459 1.390 . S
C460 C461 1.394 . S
C460 C466 1.465 . S
C461 C456 1.399 . S
C461 C460 1.394 . S
C461 C462 1.516 . S
C462 C461 1.516 . S
C462 C463 1.502 . S
C462 C464 1.561 . S
C462 C465 1.526 . S
C463 H447 0.959 . S
C463 H448 0.959 . S
C463 H449 0.961 . S
C463 C462 1.502 . S
C464 H450 0.960 . S
C464 H451 0.961 . S
C464 H452 0.959 . S
C464 C462 1.561 . S
C465 C462 1.526 . S
C465 C466 1.396 . S
C465 C470 1.390 . S
C466 C460 1.465 . S
C466 C465 1.396 . S
C466 C467 1.399 . S
C467 H453 0.929 . S
C467 C466 1.399 . S
C467 C468 1.385 . S
C468 H454 0.931 . S
C468 C467 1.385 . S
C468 C469 1.389 . S
C469 C468 1.389 . S
C469 C470 1.387 . S
C470 H455 0.930 . S
C470 C465 1.390 . S
C470 C469 1.387 . S
H471 C483 0.930 . S
H472 C485 0.930 . S
H473 C486 0.930 . S
H474 C490 0.959 . S
H475 C490 0.959 . S
H476 C490 0.961 . S
H477 C491 0.960 . S
H478 C491 0.961 . S
H479 C491 0.959 . S
H480 C494 0.929 . S
H481 C495 0.931 . S
H482 C497 0.930 . S
C483 H471 0.930 . S
C483 C484 1.399 . S
C483 C488 1.399 . S
C484 C483 1.399 . S
C484 C485 1.376 . S
C485 H472 0.930 . S
C485 C484 1.376 . S
C485 C486 1.388 . S
C486 H473 0.930 . S
C486 C485 1.388 . S
C486 C487 1.390 . S
C487 C486 1.390 . S
C487 C488 1.394 . S
C487 C493 1.465 . S
C488 C483 1.399 . S
C488 C487 1.394 . S
C488 C489 1.516 . S
C489 C488 1.516 . S
C489 C490 1.502 . S
C489 C491 1.561 . S
C489 C492 1.526 . S
C490 H474 0.959 . S
C490 H475 0.959 . S
C490 H476 0.961 . S
C490 C489 1.502 . S
C491 H477 0.960 . S
C491 H478 0.961 . S
C491 H479 0.959 . S
C491 C489 1.561 . S
C492 C489 1.526 . S
C492 C493 1.396 . S
C492 C497 1.390 . S
C493 C487 1.465 . S
C493 C492 1.396 . S
C493 C494 1.399 . S
C494 H480 0.929 . S
C494 C493 1.399 . S
C494 C495 1.385 . S
C495 H481 0.931 . S
C495 C494 1.385 . S
C495 C496 1.389 . S
C496 C495 1.389 . S
C496 C497 1.387 . S
C497 H482 0.930 . S
C497 C492 1.390 . S
C497 C496 1.387 . S
H498 C510 0.930 . S
H499 C512 0.930 1_554 S
H500 C513 0.930 1_554 S
H501 C517 0.959 . S
H502 C517 0.959 . S
H503 C517 0.961 . S
H504 C518 0.960 . S
H505 C518 0.961 . S
H506 C518 0.959 . S
H507 C521 0.929 . S
H508 C522 0.931 . S
H509 C524 0.930 . S
C510 H498 0.930 . S
C510 C511 1.399 . S
C510 C515 1.399 . S
C511 C510 1.399 . S
C511 C512 1.376 . S
C512 H499 0.930 1_556 S
C512 C511 1.376 . S
C512 C513 1.388 . S
C513 H500 0.930 1_556 S
C513 C512 1.388 . S
C513 C514 1.390 . S
C514 C513 1.390 . S
C514 C515 1.394 . S
C514 C520 1.465 . S
C515 C510 1.399 . S
C515 C514 1.394 . S
C515 C516 1.516 . S
C516 C515 1.516 . S
C516 C517 1.502 . S
C516 C518 1.561 . S
C516 C519 1.526 . S
C517 H501 0.959 . S
C517 H502 0.959 . S
C517 H503 0.961 . S
C517 C516 1.502 . S
C518 H504 0.960 . S
C518 H505 0.961 . S
C518 H506 0.959 . S
C518 C516 1.561 . S
C519 C516 1.526 . S
C519 C520 1.396 . S
C519 C524 1.390 . S
C520 C514 1.465 . S
C520 C519 1.396 . S
C520 C521 1.399 . S
C521 H507 0.929 . S
C521 C520 1.399 . S
C521 C522 1.385 . S
C522 H508 0.931 . S
C522 C521 1.385 . S
C522 C523 1.389 . S
C523 C522 1.389 . S
C523 C524 1.387 . S
C524 H509 0.930 . S
C524 C519 1.390 . S
C524 C523 1.387 . S
H525 C537 0.930 . S
H526 C539 0.930 . S
H527 C540 0.930 . S
H528 C544 0.959 . S
H529 C544 0.959 1_556 S
H530 C544 0.961 . S
H531 C545 0.960 . S
H532 C545 0.961 . S
H533 C545 0.959 . S
H534 C548 0.929 . S
H535 C549 0.931 . S
H536 C551 0.930 . S
C537 H525 0.930 . S
C537 C538 1.399 . S
C537 C542 1.399 . S
C538 C537 1.399 . S
C538 C539 1.376 . S
C539 H526 0.930 . S
C539 C538 1.376 . S
C539 C540 1.388 . S
C540 H527 0.930 . S
C540 C539 1.388 . S
C540 C541 1.390 . S
C541 C540 1.390 . S
C541 C542 1.394 . S
C541 C547 1.465 . S
C542 C537 1.399 . S
C542 C541 1.394 . S
C542 C543 1.516 . S
C543 C542 1.516 . S
C543 C544 1.502 . S
C543 C545 1.561 . S
C543 C546 1.526 . S
C544 H528 0.959 . S
C544 H529 0.959 1_554 S
C544 H530 0.961 . S
C544 C543 1.502 . S
C545 H531 0.960 . S
C545 H532 0.961 . S
C545 H533 0.959 . S
C545 C543 1.561 . S
C546 C543 1.526 . S
C546 C547 1.396 . S
C546 C551 1.390 . S
C547 C541 1.465 . S
C547 C546 1.396 . S
C547 C548 1.399 . S
C548 H534 0.929 . S
C548 C547 1.399 . S
C548 C549 1.385 . S
C549 H535 0.931 . S
C549 C548 1.385 . S
C549 C550 1.389 . S
C550 C549 1.389 . S
C550 C551 1.387 . S
C551 H536 0.930 . S
C551 C546 1.390 . S
C551 C550 1.387 . S
H552 C564 0.930 . S
H553 C566 0.930 . S
H554 C567 0.930 . S
H555 C571 0.959 . S
H556 C571 0.959 . S
H557 C571 0.961 . S
H558 C572 0.960 . S
H559 C572 0.961 . S
H560 C572 0.959 . S
H561 C575 0.929 . S
H562 C576 0.931 . S
H563 C578 0.930 . S
C564 H552 0.930 . S
C564 C565 1.399 . S
C564 C569 1.399 . S
C565 C564 1.399 . S
C565 C566 1.376 . S
C566 H553 0.930 . S
C566 C565 1.376 . S
C566 C567 1.388 . S
C567 H554 0.930 . S
C567 C566 1.388 . S
C567 C568 1.390 . S
C568 C567 1.390 . S
C568 C569 1.394 . S
C568 C574 1.465 . S
C569 C564 1.399 . S
C569 C568 1.394 . S
C569 C570 1.516 . S
C570 C569 1.516 . S
C570 C571 1.502 . S
C570 C572 1.561 . S
C570 C573 1.526 . S
C571 H555 0.959 . S
C571 H556 0.959 . S
C571 H557 0.961 . S
C571 C570 1.502 . S
C572 H558 0.960 . S
C572 H559 0.961 . S
C572 H560 0.959 . S
C572 C570 1.561 . S
C573 C570 1.526 . S
C573 C574 1.396 . S
C573 C578 1.390 . S
C574 C568 1.465 . S
C574 C573 1.396 . S
C574 C575 1.399 . S
C575 H561 0.929 . S
C575 C574 1.399 . S
C575 C576 1.385 . S
C576 H562 0.931 . S
C576 C575 1.385 . S
C576 C577 1.389 . S
C577 C576 1.389 . S
C577 C578 1.387 . S
C578 H563 0.930 . S
C578 C573 1.390 . S
C578 C577 1.387 . S
H579 C591 0.930 1_554 S
H580 C593 0.930 . S
H581 C594 0.930 . S
H582 C598 0.959 1_556 S
H583 C598 0.959 . S
H584 C598 0.961 . S
H585 C599 0.960 . S
H586 C599 0.961 . S
H587 C599 0.959 . S
H588 C602 0.929 . S
H589 C603 0.931 . S
H590 C605 0.930 . S
C591 H579 0.930 1_556 S
C591 C592 1.399 . S
C591 C596 1.399 . S
C592 C591 1.399 . S
C592 C593 1.376 . S
C593 H580 0.930 . S
C593 C592 1.376 . S
C593 C594 1.388 . S
C594 H581 0.930 . S
C594 C593 1.388 . S
C594 C595 1.390 . S
C595 C594 1.390 . S
C595 C596 1.394 . S
C595 C601 1.465 . S
C596 C591 1.399 . S
C596 C595 1.394 . S
C596 C597 1.516 . S
C597 C596 1.516 . S
C597 C598 1.502 1_556 S
C597 C599 1.561 1_556 S
C597 C600 1.526 . S
C598 H582 0.959 1_554 S
C598 H583 0.959 . S
C598 H584 0.961 . S
C598 C597 1.502 1_554 S
C599 H585 0.960 . S
C599 H586 0.961 . S
C599 H587 0.959 . S
C599 C597 1.561 1_554 S
C600 C597 1.526 . S
C600 C601 1.396 . S
C600 C605 1.390 . S
C601 C595 1.465 . S
C601 C600 1.396 . S
C601 C602 1.399 . S
C602 H588 0.929 . S
C602 C601 1.399 . S
C602 C603 1.385 . S
C603 H589 0.931 . S
C603 C602 1.385 . S
C603 C604 1.389 . S
C604 C603 1.389 . S
C604 C605 1.387 . S
C605 H590 0.930 . S
C605 C600 1.390 . S
C605 C604 1.387 . S
C133 C101 1.483 . S
C145 C16 1.474 . S
C160 C1 1.515 . S
C172 C36 1.415 . S
C187 C21 1.483 . S
C199 C56 1.474 . S
C214 C41 1.486 . S
C226 C76 1.433 . S
C241 C96 1.397 . S
C253 C61 1.508 . S
C268 C116 1.480 . S
C280 C81 1.479 . S
C295 C8 1.873 . S
C307 C19 1.804 . S
C322 C28 1.825 . S
C334 C39 1.834 . S
C349 C48 1.812 . S
C361 C59 1.867 . S
C376 C68 1.875 . S
C388 C79 1.800 . S
C403 C99 1.874 . S
C415 C88 1.804 . S
C430 C108 1.865 . S
C442 C119 1.799 . S
C457 C6 1.368 . S
C469 C89 1.440 . S
C484 C26 1.395 . S
C496 C109 1.421 . S
C511 C9 1.409 . S
C523 C46 1.418 . S
C538 C29 1.407 . S
C550 C66 1.440 . S
C565 C86 1.400 . S
C577 C49 1.455 . S
C592 C69 1.468 . S
C604 C106 1.361 . S
