# Generated by pormake.
# Topology fee, (5)-cn, num edge types: 1
# Building blocks:
#     Node 0, Type 0, BuildingBlock: BEQFEK_clean_sbu_0, # of connection points: 5
#     Node 1, Type 0, BuildingBlock: BEQFEK_clean_sbu_0, # of connection points: 5
#     Node 2, Type 0, BuildingBlock: BEQFEK_clean_sbu_0, # of connection points: 5
#     Node 3, Type 0, BuildingBlock: BEQFEK_clean_sbu_0, # of connection points: 5
#     Edge 4, Type (0, 0), BuildingBlock: FUNLAD_clean_linker_1, # of connection points: 2
#     Edge 5, Type (0, 0), BuildingBlock: FUNLAD_clean_linker_1, # of connection points: 2
#     Edge 6, Type (0, 0), BuildingBlock: FUNLAD_clean_linker_1, # of connection points: 2
#     Edge 7, Type (0, 0), BuildingBlock: FUNLAD_clean_linker_1, # of connection points: 2
#     Edge 8, Type (0, 0), BuildingBlock: FUNLAD_clean_linker_1, # of connection points: 2
#     Edge 9, Type (0, 0), BuildingBlock: FUNLAD_clean_linker_1, # of connection points: 2
#     Edge 10, Type (0, 0), BuildingBlock: FUNLAD_clean_linker_1, # of connection points: 2
#     Edge 11, Type (0, 0), BuildingBlock: FUNLAD_clean_linker_1, # of connection points: 2
#     Edge 12, Type (0, 0), BuildingBlock: FUNLAD_clean_linker_1, # of connection points: 2
#     Edge 13, Type (0, 0), BuildingBlock: FUNLAD_clean_linker_1, # of connection points: 2
# Relax obj value: 0.038
# Max RMSD: 0.132
# Mean RMSD: 0.102
data_MOF--net-fee--node1-BEQFEK_clean_sbu_0--edge1-FUNLAD_clean_linker_1
_symmetry_space_group_name_H-M    P1
_symmetry_Int_Tables_number       1
_symmetry_cell_setting            triclinic
loop_
_symmetry_equiv_pos_as_xyz
'x, y, z'
_cell_length_a     39.481622
_cell_length_b     39.457607
_cell_length_c     20.068516
_cell_angle_alpha  89.981336
_cell_angle_beta   87.987917
_cell_angle_gamma 95.663637
loop_
_atom_site_label
_atom_site_type_symbol
_atom_site_fract_x
_atom_site_fract_y
_atom_site_fract_z
_atom_type_partial_charge
Co0 Co 0.23334 0.48151 0.11517 0.0
Co1 Co 0.22447 0.4819 0.95952 0.0
C2 C 0.26842 0.53679 0.02408 0.0
O3 O 0.26174 0.52289 0.08111 0.0
O4 O 0.25553 0.52407 0.97117 0.0
C5 C 0.22553 0.50656 0.25138 0.0
O6 O 0.21486 0.5338 0.22461 0.0
C7 C 0.21569 0.49565 0.81475 0.0
C8 C 0.18374 0.44872 0.78823 0.0
C9 C 0.19894 0.47913 0.76232 0.0
N10 N 0.21052 0.47566 0.86935 0.0
N11 N 0.19175 0.44753 0.85269 0.0
C12 C 0.23431 0.53053 0.81441 0.0
H13 H 0.2277 0.54412 0.86073 0.0
H14 H 0.22808 0.54549 0.77044 0.0
H15 H 0.26212 0.52827 0.81335 0.0
C16 C 0.1572 0.47906 0.11304 0.0
N17 N 0.18839 0.48015 0.08267 0.0
N18 N 0.18519 0.48236 0.01772 0.0
C19 C 0.15207 0.48394 0.00506 0.0
C20 C 0.13319 0.48171 0.06465 0.0
C21 C 0.15036 0.47313 0.18612 0.0
H22 H 0.17003 0.45836 0.2069 0.0
H23 H 0.15094 0.49802 0.21192 0.0
H24 H 0.1249 0.45906 0.19559 0.0
O25 O 0.25568 0.44081 0.087 0.0
O26 O 0.24995 0.44198 0.97748 0.0
H27 H 0.13324 0.46528 0.91212 0.0
H28 H 0.11478 0.50254 0.94156 0.0
C29 C 0.13874 0.49004 0.93759 0.0
H30 H 0.15779 0.50644 0.90723 0.0
H31 H 0.18392 0.42769 0.88586 0.0
O32 O 0.23376 0.48237 0.21432 0.0
C33 C 0.26066 0.42851 0.02928 0.0
Co34 Co 0.49299 0.22418 0.15836 0.0
Co35 Co 0.49089 0.22183 1.00281 0.0
C36 C 0.43724 0.25284 0.08363 0.0
O37 O 0.45145 0.2463 0.13747 0.0
O38 O 0.44942 0.24457 0.02696 0.0
C39 C 0.46657 0.21324 0.29247 0.0
O40 O 0.43669 0.21074 0.26507 0.0
C41 C 0.46836 0.20977 0.8655 0.0
C42 C 0.51791 0.21104 0.81049 0.0
C43 C 0.48304 0.20765 0.80207 0.0
N44 N 0.4934 0.21434 0.90928 0.0
N45 N 0.52293 0.21497 0.87603 0.0
C46 C 0.43126 0.20829 0.88426 0.0
H47 H 0.42658 0.19888 0.93621 0.0
H48 H 0.41602 0.19149 0.84975 0.0
H49 H 0.42297 0.23429 0.88102 0.0
C50 C 0.49809 0.15016 0.13864 0.0
N51 N 0.49385 0.18144 0.11533 0.0
N52 N 0.49198 0.18015 0.05005 0.0
C53 C 0.49446 0.14785 0.02983 0.0
C54 C 0.4982 0.1277 0.08547 0.0
C55 C 0.5029 0.14225 0.21042 0.0
H56 H 0.5233 0.16047 0.23017 0.0
H57 H 0.479 0.14556 0.23936 0.0
H58 H 0.50947 0.11581 0.2174 0.0
O59 O 0.53383 0.25526 0.13172 0.0
O60 O 0.53164 0.25355 0.02139 0.0
H61 H 0.51933 0.153 0.93371 0.0
H62 H 0.50147 0.11041 0.95286 0.0
C63 C 0.49741 0.13761 0.95829 0.0
H64 H 0.47401 0.14283 0.93267 0.0
H65 H 0.54656 0.2185 0.89809 0.0
O66 O 0.49355 0.21835 0.25608 0.0
C67 C 0.54579 0.2646 0.07413 0.0
Co68 Co 0.7814 0.51343 0.06578 0.0
Co69 Co 0.77833 0.51233 0.22166 0.0
C70 C 0.74785 0.56626 0.14508 0.0
O71 O 0.75677 0.55351 0.08962 0.0
O72 O 0.7547 0.55319 0.20046 0.0
C73 C 0.79154 0.54021 0.93237 0.0
O74 O 0.7881 0.56984 0.96032 0.0
C75 C 0.78864 0.53414 0.36038 0.0
C76 C 0.78296 0.48461 0.41292 0.0
C77 C 0.78884 0.51942 0.423 0.0
N78 N 0.78285 0.50922 0.31535 0.0
N79 N 0.77953 0.47968 0.34712 0.0
C80 C 0.79375 0.57124 0.34351 0.0
H81 H 0.80077 0.57498 0.28979 0.0
H82 H 0.81393 0.58429 0.37417 0.0
H83 H 0.76972 0.58283 0.35484 0.0
C84 C 0.85576 0.51561 0.08932 0.0
N85 N 0.82298 0.51426 0.1113 0.0
N86 N 0.82172 0.51363 0.17688 0.0
C87 C 0.85368 0.51428 0.19878 0.0
C88 C 0.87641 0.51535 0.14422 0.0
C89 C 0.8667 0.52001 0.01746 0.0
H90 H 0.85983 0.49589 0.99049 0.0
H91 H 0.85306 0.54016 0.99505 0.0
H92 H 0.89434 0.52744 0.01092 0.0
O93 O 0.75115 0.47111 0.0865 0.0
O94 O 0.74899 0.47097 0.19711 0.0
H95 H 0.84665 0.49113 0.29534 0.0
H96 H 0.88953 0.50974 0.27719 0.0
C97 C 0.86222 0.51282 0.27075 0.0
H98 H 0.85596 0.53661 0.29566 0.0
H99 H 0.77478 0.45613 0.32384 0.0
O100 O 0.79016 0.51354 0.96815 0.0
C101 C 0.74034 0.45764 0.14187 0.0
Co102 Co 0.52172 0.7704 0.15994 0.0
Co103 Co 0.51423 0.77127 1.00189 0.0
C104 C 0.57192 0.7407 0.06313 0.0
O105 O 0.56078 0.74743 0.12167 0.0
O106 O 0.557 0.74907 0.01108 0.0
C107 C 0.55628 0.77814 0.28583 0.0
O108 O 0.58378 0.77571 0.24816 0.0
C109 C 0.52317 0.7823 0.85302 0.0
C110 C 0.46908 0.77908 0.82678 0.0
C111 C 0.50178 0.78345 0.79905 0.0
N112 N 0.50362 0.7772 0.90944 0.0
N113 N 0.47139 0.77523 0.89292 0.0
C114 C 0.56118 0.7874 0.85213 0.0
H115 H 0.57028 0.79321 0.90297 0.0
H116 H 0.57065 0.80848 0.8176 0.0
H117 H 0.57157 0.76374 0.83446 0.0
C118 C 0.51551 0.84397 0.13941 0.0
N119 N 0.51823 0.81246 0.1153 0.0
N120 N 0.516 0.81312 0.04991 0.0
C121 C 0.51224 0.84522 0.03047 0.0
C122 C 0.51202 0.8659 0.08658 0.0
C123 C 0.51532 0.85251 0.21205 0.0
H124 H 0.49532 0.83548 0.23896 0.0
H125 H 0.5402 0.84781 0.23244 0.0
H126 H 0.51075 0.87947 0.22093 0.0
O127 O 0.47953 0.73946 0.14878 0.0
O128 O 0.47581 0.73964 0.03854 0.0
H129 H 0.48186 0.83893 0.94463 0.0
H130 H 0.50019 0.88183 0.95656 0.0
C131 C 0.50486 0.85475 0.96071 0.0
H132 H 0.52651 0.84949 0.92683 0.0
H133 H 0.45082 0.77129 0.92707 0.0
O134 O 0.52747 0.77717 0.25882 0.0
C135 C 0.46461 0.72939 0.0961 0.0
H136 H 0.17181 0.48356 0.66951 0.0
C137 C 0.19613 0.4899 0.69256 0.0
H138 H 0.24807 0.50702 0.67603 0.0
H139 H 0.18046 0.46054 0.38246 0.0
H140 H 0.16932 0.40414 0.43082 0.0
H141 H 0.18444 0.39314 0.54655 0.0
H142 H 0.20929 0.43882 0.61526 0.0
C143 C 0.22334 0.5016 0.65417 0.0
C144 C 0.22058 0.50658 0.58077 0.0
C145 C 0.209 0.47884 0.53951 0.0
C146 C 0.20341 0.48444 0.4709 0.0
C147 C 0.1878 0.45719 0.43325 0.0
C148 C 0.18086 0.42472 0.46064 0.0
C149 C 0.18915 0.41859 0.52589 0.0
C150 C 0.20307 0.44519 0.56506 0.0
H151 H 0.24224 0.48323 0.34258 0.0
C152 C 0.22773 0.50311 0.32421 0.0
H153 H 0.1968 0.54205 0.35013 0.0
H154 H 0.24334 0.56516 0.64501 0.0
H155 H 0.25863 0.62064 0.59452 0.0
H156 H 0.25416 0.62916 0.47351 0.0
H157 H 0.23392 0.58242 0.40236 0.0
C158 C 0.21124 0.52202 0.36799 0.0
C159 C 0.21315 0.51688 0.44158 0.0
C160 C 0.22569 0.54438 0.48239 0.0
C161 C 0.22902 0.5393 0.55209 0.0
C162 C 0.24077 0.56744 0.59176 0.0
C163 C 0.24962 0.59945 0.56343 0.0
C164 C 0.24707 0.60426 0.49531 0.0
C165 C 0.23532 0.57716 0.45502 0.0
H166 H 0.43841 0.20601 0.73731 0.0
C167 C 0.46584 0.20527 0.73778 0.0
H168 H 0.51133 0.20427 0.67953 0.0
H169 H 0.41298 0.14963 0.44045 0.0
H170 H 0.40052 0.09796 0.50636 0.0
H171 H 0.4189 0.09535 0.62235 0.0
H172 H 0.44979 0.14438 0.67324 0.0
C173 C 0.48377 0.20391 0.67994 0.0
C174 C 0.46794 0.20647 0.61448 0.0
C175 C 0.44954 0.1777 0.58607 0.0
C176 C 0.43911 0.17914 0.51908 0.0
C177 C 0.42146 0.14987 0.49114 0.0
C178 C 0.41416 0.12008 0.52841 0.0
C179 C 0.4245 0.11862 0.59375 0.0
C180 C 0.44214 0.14696 0.62241 0.0
H181 H 0.49497 0.21406 0.38469 0.0
C182 C 0.46948 0.21166 0.36518 0.0
H183 H 0.41662 0.20561 0.38978 0.0
H184 H 0.4991 0.26727 0.65723 0.0
H185 H 0.50866 0.31982 0.5934 0.0
H186 H 0.48915 0.3227 0.47824 0.0
H187 H 0.46025 0.27295 0.42608 0.0
C188 C 0.44237 0.2088 0.40782 0.0
C189 C 0.44744 0.20919 0.48088 0.0
C190 C 0.46326 0.23881 0.51126 0.0
C191 C 0.47392 0.23731 0.5779 0.0
C192 C 0.49051 0.26699 0.60659 0.0
C193 C 0.49604 0.29736 0.57063 0.0
C194 C 0.4851 0.29897 0.50578 0.0
C195 C 0.46879 0.27016 0.47625 0.0
H196 H 0.79738 0.51164 0.83947 0.0
C197 C 0.79622 0.53709 0.85974 0.0
H198 H 0.79591 0.5894 0.83709 0.0
H199 H 0.85322 0.50812 0.56684 0.0
H200 H 0.90368 0.50243 0.63014 0.0
H201 H 0.90735 0.52332 0.74582 0.0
H202 H 0.86047 0.54982 0.799 0.0
C203 C 0.79803 0.56388 0.81808 0.0
C204 C 0.79924 0.55832 0.7448 0.0
C205 C 0.82724 0.54387 0.71389 0.0
C206 C 0.82531 0.53231 0.64701 0.0
C207 C 0.85332 0.51723 0.61771 0.0
C208 C 0.88247 0.51393 0.65337 0.0
C209 C 0.88453 0.52566 0.71851 0.0
C210 C 0.85736 0.54058 0.74861 0.0
H211 H 0.79661 0.56447 0.48895 0.0
C212 C 0.79312 0.53682 0.48774 0.0
H213 H 0.7894 0.49143 0.54452 0.0
H214 H 0.74336 0.58965 0.78645 0.0
H215 H 0.69385 0.59737 0.72201 0.0
H216 H 0.69006 0.57664 0.60631 0.0
H217 H 0.73573 0.54824 0.55431 0.0
C218 C 0.79189 0.5191 0.54502 0.0
C219 C 0.79569 0.53588 0.61085 0.0
C220 C 0.76873 0.55268 0.6401 0.0
C221 C 0.7707 0.56424 0.7071 0.0
C222 C 0.7432 0.58035 0.73576 0.0
C223 C 0.7146 0.58493 0.69935 0.0
C224 C 0.71248 0.57329 0.63419 0.0
C225 C 0.73903 0.55715 0.6048 0.0
H226 H 0.48721 0.79431 0.69727 0.0
C227 C 0.50864 0.78823 0.72614 0.0
H228 H 0.55887 0.77409 0.71879 0.0
H229 H 0.5424 0.71963 0.42335 0.0
H230 H 0.55079 0.66832 0.48438 0.0
H231 H 0.55415 0.66898 0.60684 0.0
H232 H 0.5491 0.72092 0.66908 0.0
C233 C 0.53773 0.78274 0.69273 0.0
C234 C 0.53962 0.78351 0.61789 0.0
C235 C 0.54333 0.75304 0.58188 0.0
C236 C 0.5416 0.75269 0.51097 0.0
C237 C 0.54414 0.72157 0.47688 0.0
C238 C 0.5488 0.69184 0.51135 0.0
C239 C 0.55067 0.6922 0.58031 0.0
C240 C 0.54781 0.72228 0.61543 0.0
H241 H 0.58449 0.77918 0.37907 0.0
C242 C 0.55935 0.78023 0.3592 0.0
H243 H 0.50737 0.78431 0.38306 0.0
H244 H 0.5372 0.84743 0.66953 0.0
H245 H 0.52947 0.89894 0.60822 0.0
H246 H 0.52465 0.89791 0.486 0.0
H247 H 0.52787 0.84539 0.42417 0.0
C248 C 0.53257 0.78229 0.40187 0.0
C249 C 0.5365 0.78291 0.47582 0.0
C250 C 0.5339 0.81359 0.51158 0.0
C251 C 0.53593 0.81402 0.5824 0.0
C252 C 0.53462 0.84539 0.61617 0.0
C253 C 0.53049 0.87521 0.5815 0.0
C254 C 0.52783 0.87464 0.51267 0.0
C255 C 0.52962 0.84431 0.47782 0.0
H256 H 0.92635 0.53083 0.18747 0.0
C257 C 0.91405 0.51699 0.14665 0.0
H258 H 0.92132 0.48459 0.06461 0.0
H259 H 0.07783 0.54155 0.02647 0.0
H260 H 0.05397 0.57317 0.93905 0.0
H261 H 0.99175 0.57182 0.929 0.0
H262 H 0.95315 0.53905 0.00679 0.0
C263 C 0.93304 0.49967 0.10443 0.0
C264 C 0.97061 0.50037 0.1109 0.0
C265 C 0.99291 0.51912 0.06432 0.0
C266 C 0.02878 0.51929 0.06924 0.0
C267 C 0.0504 0.53946 0.02367 0.0
C268 C 0.03704 0.55802 0.97355 0.0
C269 C 1.00202 0.5573 0.96796 0.0
C270 C 0.98012 0.53828 0.01285 0.0
H271 H 0.08086 0.47104 0.0303 0.0
C272 C 0.09572 0.48158 0.07136 0.0
H273 H 0.09386 0.50899 0.1618 0.0
H274 H 0.93518 0.46127 0.20801 0.0
H275 H 0.95917 0.43018 0.29614 0.0
H276 H 0.0214 0.43072 0.3048 0.0
H277 H 0.06004 0.46234 0.22515 0.0
C278 C 0.07977 0.49728 0.12092 0.0
C279 C 0.04235 0.49986 0.11963 0.0
C280 C 0.02012 0.48192 0.16737 0.0
C281 C 0.9842 0.48194 0.16276 0.0
C282 C 0.96263 0.46274 0.2098 0.0
C283 C 0.97607 0.44462 0.26051 0.0
C284 C 0.0111 0.44489 0.26535 0.0
C285 C 0.033 0.46316 0.21932 0.0
H286 H 0.48366 0.90785 0.12432 0.0
C287 C 0.50442 0.9018 0.09083 0.0
H288 H 0.54428 0.92048 0.02449 0.0
H289 H 0.48225 0.05372 0.93617 0.0
H290 H 0.48886 0.0241 0.83198 0.0
H291 H 0.50743 0.96626 0.82968 0.0
H292 H 0.51959 0.93796 0.93151 0.0
C293 C 0.52323 0.92683 0.05697 0.0
C294 C 0.51458 0.96294 0.05877 0.0
C295 C 0.50795 0.97949 0.99841 0.0
C296 C 0.49742 0.01301 0.9997 0.0
C297 C 0.49063 0.02856 0.93853 0.0
C298 C 0.4942 0.01176 0.8781 0.0
C299 C 0.5046 0.9792 0.87682 0.0
C300 C 0.51139 0.96316 0.93597 0.0
H301 H 0.5285 0.08609 0.11331 0.0
C302 C 0.50603 0.09184 0.08745 0.0
H303 H 0.46272 0.07246 0.03651 0.0
H304 H 0.53265 0.94242 0.1822 0.0
H305 H 0.52322 0.97081 0.28727 0.0
H306 H 0.49778 0.02547 0.29076 0.0
H307 H 0.48283 0.05255 0.18898 0.0
C308 C 0.48544 0.06646 0.06131 0.0
C309 C 0.49407 0.03035 0.06123 0.0
C310 C 0.50008 0.01353 0.1217 0.0
C311 C 0.51186 0.98055 0.1202 0.0
C312 C 0.52117 0.96616 0.18077 0.0
C313 C 0.51629 0.9824 0.24145 0.0
C314 C 0.5022 0.01327 0.24337 0.0
C315 C 0.49411 0.02874 0.18441 0.0
H316 H 0.39881 0.28044 0.13725 0.0
C317 C 0.40742 0.27267 0.08801 0.0
H318 H 0.40169 0.27734 0.98429 0.0
H319 H 0.26105 0.3344 0.12256 0.0
H320 H 0.24556 0.27603 0.15872 0.0
H321 H 0.28508 0.23204 0.13963 0.0
H322 H 0.3404 0.24615 0.08463 0.0
C323 C 0.39251 0.28369 0.03398 0.0
C324 C 0.36709 0.30915 0.04043 0.0
C325 C 0.33463 0.30035 0.07175 0.0
C326 C 0.31161 0.32562 0.08183 0.0
C327 C 0.27949 0.3162 0.11366 0.0
C328 C 0.27025 0.28279 0.13452 0.0
C329 C 0.29251 0.25803 0.12385 0.0
C330 C 0.3243 0.26652 0.09263 0.0
H331 H 0.28553 0.39016 0.97024 0.0
C332 C 0.28123 0.39942 0.02056 0.0
H333 H 0.29259 0.39442 0.12211 0.0
H334 H 0.42685 0.33437 0.97672 0.0
H335 H 0.44229 0.39263 0.94082 0.0
H336 H 0.40283 0.43663 0.96011 0.0
H337 H 0.34767 0.42259 0.01501 0.0
C338 C 0.29686 0.38596 0.07126 0.0
C339 C 0.32081 0.35948 0.05954 0.0
C340 C 0.35315 0.36821 0.02759 0.0
C341 C 0.37613 0.34294 0.01738 0.0
C342 C 0.40831 0.35245 0.98567 0.0
C343 C 0.41758 0.38586 0.96491 0.0
C344 C 0.39536 0.41061 0.9757 0.0
C345 C 0.3636 0.4021 0.00691 0.0
H346 H 0.70708 0.41654 0.19205 0.0
C347 C 0.71594 0.42678 0.14349 0.0
H348 H 0.71037 0.42289 0.03939 0.0
H349 H 0.63935 0.27334 0.1608 0.0
H350 H 0.69672 0.2626 0.18823 0.0
H351 H 0.74479 0.30699 0.17097 0.0
H352 H 0.73576 0.36245 0.12652 0.0
C353 C 0.70294 0.41221 0.08826 0.0
C354 C 0.67477 0.38416 0.09323 0.0
C355 C 0.68058 0.35171 0.11842 0.0
C356 C 0.65294 0.32593 0.12742 0.0
C357 C 0.65942 0.29383 0.15298 0.0
C358 C 0.69223 0.2873 0.16881 0.0
C359 C 0.71929 0.31231 0.15917 0.0
C360 C 0.71371 0.34413 0.13406 0.0
H361 H 0.58499 0.29734 0.01693 0.0
C362 C 0.57581 0.28992 0.06707 0.0
H363 H 0.58268 0.29782 0.17014 0.0
H364 H 0.65509 0.44313 0.04146 0.0
H365 H 0.59783 0.45381 0.01384 0.0
H366 H 0.54974 0.4095 0.0314 0.0
H367 H 0.55865 0.35424 0.07632 0.0
C368 C 0.5909 0.30528 0.11955 0.0
C369 C 0.61969 0.3324 0.11007 0.0
C370 C 0.61393 0.36476 0.08422 0.0
C371 C 0.64158 0.39051 0.0751 0.0
C372 C 0.63508 0.4226 0.04938 0.0
C373 C 0.60229 0.42913 0.03342 0.0
C374 C 0.57523 0.40417 0.04322 0.0
C375 C 0.58078 0.37241 0.06862 0.0
H376 H 0.61032 0.71479 0.00485 0.0
C377 C 0.60134 0.72042 0.05508 0.0
H378 H 0.60679 0.71206 0.15809 0.0
H379 H 0.66818 0.57436 0.03621 0.0
H380 H 0.61101 0.55844 0.99964 0.0
H381 H 0.56693 0.59845 0.00996 0.0
H382 H 0.57981 0.65463 0.05629 0.0
C383 C 0.61513 0.70633 0.10752 0.0
C384 C 0.64184 0.68232 0.09919 0.0
C385 C 0.63369 0.64932 0.07244 0.0
C386 C 0.65895 0.62597 0.0677 0.0
C387 C 0.65009 0.59317 0.04094 0.0
C388 C 0.6173 0.58362 0.0199 0.0
C389 C 0.5925 0.60615 0.02562 0.0
C390 C 0.60037 0.63852 0.05189 0.0
H391 H 0.71835 0.60467 0.19385 0.0
C392 C 0.72727 0.5956 0.14583 0.0
H393 H 0.72524 0.60015 0.04118 0.0
H394 H 0.66587 0.74343 0.15248 0.0
H395 H 0.72314 0.75928 0.18935 0.0
H396 H 0.767 0.71894 0.18026 0.0
H397 H 0.75382 0.66244 0.13463 0.0
C398 C 0.7175 0.60977 0.08953 0.0
C399 C 0.69202 0.63526 0.0913 0.0
C400 C 0.70027 0.66835 0.11731 0.0
C401 C 0.67508 0.69179 0.12171 0.0
C402 C 0.68398 0.7246 0.14818 0.0
C403 C 0.71678 0.73407 0.16934 0.0
C404 C 0.74147 0.71135 0.16428 0.0
C405 C 0.7335 0.6789 0.13838 0.0
H406 H 0.42675 0.69386 0.15113 0.0
C407 C 0.43438 0.7042 0.10205 0.0
H408 H 0.42503 0.70234 0.99902 0.0
H409 H 0.35712 0.55078 0.00659 0.0
H410 H 0.41069 0.54441 0.94783 0.0
H411 H 0.45513 0.59276 0.9364 0.0
H412 H 0.44631 0.64771 0.98418 0.0
C413 C 0.41704 0.69291 0.04857 0.0
C414 C 0.38936 0.66442 0.05375 0.0
C415 C 0.39458 0.63265 0.02401 0.0
C416 C 0.3687 0.60492 0.0296 0.0
C417 C 0.37534 0.57305 1.00214 0.0
C418 C 0.40615 0.56893 0.96865 0.0
C419 C 0.43118 0.59613 0.96229 0.0
C420 C 0.4257 0.62761 0.98981 0.0
H421 H 0.29878 0.5786 0.96915 0.0
C422 C 0.29315 0.56737 0.01826 0.0
H423 H 0.30456 0.56974 0.12047 0.0
H424 H 0.36988 0.72271 0.11144 0.0
H425 H 0.31628 0.72908 0.17056 0.0
H426 H 0.27175 0.68077 0.18169 0.0
H427 H 0.28047 0.62583 0.13327 0.0
C428 C 0.31031 0.58022 0.07081 0.0
C429 C 0.33731 0.60926 0.06366 0.0
C430 C 0.33207 0.64103 0.09324 0.0
C431 C 0.35798 0.66875 0.08776 0.0
C432 C 0.3515 0.70054 0.11566 0.0
C433 C 0.32073 0.70462 0.14937 0.0
C434 C 0.29564 0.67743 0.15556 0.0
C435 C 0.30103 0.646 0.12769 0.0
loop_
_geom_bond_atom_site_label_1
_geom_bond_atom_site_label_2
_geom_bond_distance
_geom_bond_site_symmetry_2
_ccdc_geom_bond_type
Co0 O3 1.970 . S
Co0 N17 1.989 . S
Co0 O25 1.967 . S
Co0 O32 1.920 . S
Co1 O4 1.966 . S
Co1 N10 2.022 1_554 S
Co1 N18 1.993 . S
Co1 O26 1.941 . S
C2 O3 1.258 . S
C2 O4 1.263 . S
O3 Co0 1.970 . S
O3 C2 1.258 . S
O4 Co1 1.966 . S
O4 C2 1.263 . S
C5 O6 1.235 . S
C5 O32 1.289 . S
O6 C5 1.235 . S
C7 C9 1.400 . S
C7 N10 1.351 . S
C7 C12 1.501 . S
C8 C9 1.387 . S
C8 N11 1.341 . S
C9 C7 1.400 . S
C9 C8 1.387 . S
N10 Co1 2.022 1_556 S
N10 C7 1.351 . S
N10 N11 1.365 . S
N11 C8 1.341 . S
N11 N10 1.365 . S
N11 H31 0.862 . S
C12 C7 1.501 . S
C12 H13 0.961 . S
C12 H14 0.961 . S
C12 H15 0.960 . S
H13 C12 0.961 . S
H14 C12 0.961 . S
H15 C12 0.960 . S
C16 N17 1.342 . S
C16 C20 1.401 . S
C16 C21 1.499 . S
N17 Co0 1.989 . S
N17 C16 1.342 . S
N17 N18 1.388 . S
N18 Co1 1.993 . S
N18 N17 1.388 . S
N18 C19 1.346 . S
C19 N18 1.346 . S
C19 C20 1.396 . S
C19 C29 1.510 1_554 S
C20 C16 1.401 . S
C20 C19 1.396 . S
C21 C16 1.499 . S
C21 H22 0.959 . S
C21 H23 0.960 . S
C21 H24 0.961 . S
H22 C21 0.959 . S
H23 C21 0.960 . S
H24 C21 0.961 . S
O25 Co0 1.967 . S
O25 C33 1.258 . S
O26 Co1 1.941 . S
O26 C33 1.266 . S
H27 C29 0.959 . S
H28 C29 0.961 . S
C29 C19 1.510 1_556 S
C29 H27 0.959 . S
C29 H28 0.961 . S
C29 H30 0.960 . S
H30 C29 0.960 . S
H31 N11 0.862 . S
O32 Co0 1.920 . S
O32 C5 1.289 . S
C33 O25 1.258 . S
C33 O26 1.266 . S
Co34 O37 1.970 . S
Co34 N51 1.989 . S
Co34 O59 1.967 . S
Co34 O66 1.920 . S
Co35 O38 1.966 1_556 S
Co35 N44 2.022 . S
Co35 N52 1.993 1_556 S
Co35 O60 1.941 1_556 S
C36 O37 1.258 . S
C36 O38 1.263 . S
O37 Co34 1.970 . S
O37 C36 1.258 . S
O38 Co35 1.966 1_554 S
O38 C36 1.263 . S
C39 O40 1.235 . S
C39 O66 1.289 . S
O40 C39 1.235 . S
C41 C43 1.400 . S
C41 N44 1.351 . S
C41 C46 1.501 . S
C42 C43 1.387 . S
C42 N45 1.341 . S
C43 C41 1.400 . S
C43 C42 1.387 . S
N44 Co35 2.022 . S
N44 C41 1.351 . S
N44 N45 1.365 . S
N45 C42 1.341 . S
N45 N44 1.365 . S
N45 H65 0.862 . S
C46 C41 1.501 . S
C46 H47 0.961 . S
C46 H48 0.961 . S
C46 H49 0.960 . S
H47 C46 0.961 . S
H48 C46 0.961 . S
H49 C46 0.960 . S
C50 N51 1.342 . S
C50 C54 1.401 . S
C50 C55 1.499 . S
N51 Co34 1.989 . S
N51 C50 1.342 . S
N51 N52 1.388 . S
N52 Co35 1.993 1_554 S
N52 N51 1.388 . S
N52 C53 1.346 . S
C53 N52 1.346 . S
C53 C54 1.396 . S
C53 C63 1.510 1_554 S
C54 C50 1.401 . S
C54 C53 1.396 . S
C55 C50 1.499 . S
C55 H56 0.959 . S
C55 H57 0.960 . S
C55 H58 0.961 . S
H56 C55 0.959 . S
H57 C55 0.960 . S
H58 C55 0.961 . S
O59 Co34 1.967 . S
O59 C67 1.258 . S
O60 Co35 1.941 1_554 S
O60 C67 1.266 . S
H61 C63 0.959 . S
H62 C63 0.961 . S
C63 C53 1.510 1_556 S
C63 H61 0.959 . S
C63 H62 0.961 . S
C63 H64 0.960 . S
H64 C63 0.960 . S
H65 N45 0.862 . S
O66 Co34 1.920 . S
O66 C39 1.289 . S
C67 O59 1.258 . S
C67 O60 1.266 . S
Co68 O71 1.970 . S
Co68 N85 1.989 . S
Co68 O93 1.967 . S
Co68 O100 1.920 1_554 S
Co69 O72 1.966 . S
Co69 N78 2.022 . S
Co69 N86 1.993 . S
Co69 O94 1.941 . S
C70 O71 1.258 . S
C70 O72 1.263 . S
O71 Co68 1.970 . S
O71 C70 1.258 . S
O72 Co69 1.966 . S
O72 C70 1.263 . S
C73 O74 1.235 . S
C73 O100 1.289 . S
O74 C73 1.235 . S
C75 C77 1.400 . S
C75 N78 1.351 . S
C75 C80 1.501 . S
C76 C77 1.387 . S
C76 N79 1.341 . S
C77 C75 1.400 . S
C77 C76 1.387 . S
N78 Co69 2.022 . S
N78 C75 1.351 . S
N78 N79 1.365 . S
N79 C76 1.341 . S
N79 N78 1.365 . S
N79 H99 0.862 . S
C80 C75 1.501 . S
C80 H81 0.961 . S
C80 H82 0.961 . S
C80 H83 0.960 . S
H81 C80 0.961 . S
H82 C80 0.961 . S
H83 C80 0.960 . S
C84 N85 1.342 . S
C84 C88 1.401 . S
C84 C89 1.499 1_554 S
N85 Co68 1.989 . S
N85 C84 1.342 . S
N85 N86 1.388 . S
N86 Co69 1.993 . S
N86 N85 1.388 . S
N86 C87 1.346 . S
C87 N86 1.346 . S
C87 C88 1.396 . S
C87 C97 1.510 . S
C88 C84 1.401 . S
C88 C87 1.396 . S
C89 C84 1.499 1_556 S
C89 H90 0.959 . S
C89 H91 0.960 . S
C89 H92 0.961 . S
H90 C89 0.959 . S
H91 C89 0.960 . S
H92 C89 0.961 . S
O93 Co68 1.967 . S
O93 C101 1.258 . S
O94 Co69 1.941 . S
O94 C101 1.266 . S
H95 C97 0.959 . S
H96 C97 0.961 . S
C97 C87 1.510 . S
C97 H95 0.959 . S
C97 H96 0.961 . S
C97 H98 0.960 . S
H98 C97 0.960 . S
H99 N79 0.862 . S
O100 Co68 1.920 1_556 S
O100 C73 1.289 . S
C101 O93 1.258 . S
C101 O94 1.266 . S
Co102 O105 1.970 . S
Co102 N119 1.989 . S
Co102 O127 1.967 . S
Co102 O134 1.920 . S
Co103 O106 1.966 1_556 S
Co103 N112 2.022 . S
Co103 N120 1.993 1_556 S
Co103 O128 1.941 1_556 S
C104 O105 1.258 . S
C104 O106 1.263 . S
O105 Co102 1.970 . S
O105 C104 1.258 . S
O106 Co103 1.966 1_554 S
O106 C104 1.263 . S
C107 O108 1.235 . S
C107 O134 1.289 . S
O108 C107 1.235 . S
C109 C111 1.400 . S
C109 N112 1.351 . S
C109 C114 1.501 . S
C110 C111 1.387 . S
C110 N113 1.341 . S
C111 C109 1.400 . S
C111 C110 1.387 . S
N112 Co103 2.022 . S
N112 C109 1.351 . S
N112 N113 1.365 . S
N113 C110 1.341 . S
N113 N112 1.365 . S
N113 H133 0.862 . S
C114 C109 1.501 . S
C114 H115 0.961 . S
C114 H116 0.961 . S
C114 H117 0.960 . S
H115 C114 0.961 . S
H116 C114 0.961 . S
H117 C114 0.960 . S
C118 N119 1.342 . S
C118 C122 1.401 . S
C118 C123 1.499 . S
N119 Co102 1.989 . S
N119 C118 1.342 . S
N119 N120 1.388 . S
N120 Co103 1.993 1_554 S
N120 N119 1.388 . S
N120 C121 1.346 . S
C121 N120 1.346 . S
C121 C122 1.396 . S
C121 C131 1.510 1_554 S
C122 C118 1.401 . S
C122 C121 1.396 . S
C123 C118 1.499 . S
C123 H124 0.959 . S
C123 H125 0.960 . S
C123 H126 0.961 . S
H124 C123 0.959 . S
H125 C123 0.960 . S
H126 C123 0.961 . S
O127 Co102 1.967 . S
O127 C135 1.258 . S
O128 Co103 1.941 1_554 S
O128 C135 1.266 . S
H129 C131 0.959 . S
H130 C131 0.961 . S
C131 C121 1.510 1_556 S
C131 H129 0.959 . S
C131 H130 0.961 . S
C131 H132 0.960 . S
H132 C131 0.960 . S
H133 N113 0.862 . S
O134 Co102 1.920 . S
O134 C107 1.289 . S
C135 O127 1.258 . S
C135 O128 1.266 . S
H136 C137 0.951 . S
C137 H136 0.951 . S
C137 C143 1.265 . S
H138 C143 0.950 . S
H139 C147 0.949 . S
H140 C148 0.950 . S
H141 C149 0.951 . S
H142 C150 0.951 . S
C143 C137 1.265 . S
C143 H138 0.950 . S
C143 C144 1.478 . S
C144 C143 1.478 . S
C144 C145 1.397 . S
C144 C161 1.394 . S
C145 C144 1.397 . S
C145 C146 1.438 . S
C145 C150 1.429 . S
C146 C145 1.438 . S
C146 C147 1.428 . S
C146 C159 1.394 . S
C147 H139 0.949 . S
C147 C146 1.428 . S
C147 C148 1.345 . S
C148 H140 0.950 . S
C148 C147 1.345 . S
C148 C149 1.424 . S
C149 H141 0.951 . S
C149 C148 1.424 . S
C149 C150 1.347 . S
C150 H142 0.951 . S
C150 C145 1.429 . S
C150 C149 1.347 . S
H151 C152 0.951 . S
C152 H151 0.951 . S
C152 C158 1.265 . S
H153 C158 0.950 . S
H154 C162 0.949 . S
H155 C163 0.950 . S
H156 C164 0.951 . S
H157 C165 0.951 . S
C158 C152 1.265 . S
C158 H153 0.950 . S
C158 C159 1.478 . S
C159 C146 1.394 . S
C159 C158 1.478 . S
C159 C160 1.397 . S
C160 C159 1.397 . S
C160 C161 1.438 . S
C160 C165 1.429 . S
C161 C144 1.394 . S
C161 C160 1.438 . S
C161 C162 1.428 . S
C162 H154 0.949 . S
C162 C161 1.428 . S
C162 C163 1.345 . S
C163 H155 0.950 . S
C163 C162 1.345 . S
C163 C164 1.424 . S
C164 H156 0.951 . S
C164 C163 1.424 . S
C164 C165 1.347 . S
C165 H157 0.951 . S
C165 C160 1.429 . S
C165 C164 1.347 . S
H166 C167 0.951 . S
C167 H166 0.951 . S
C167 C173 1.265 . S
H168 C173 0.950 . S
H169 C177 0.949 . S
H170 C178 0.950 . S
H171 C179 0.951 . S
H172 C180 0.951 . S
C173 C167 1.265 . S
C173 H168 0.950 . S
C173 C174 1.478 . S
C174 C173 1.478 . S
C174 C175 1.397 . S
C174 C191 1.394 . S
C175 C174 1.397 . S
C175 C176 1.438 . S
C175 C180 1.429 . S
C176 C175 1.438 . S
C176 C177 1.428 . S
C176 C189 1.394 . S
C177 H169 0.949 . S
C177 C176 1.428 . S
C177 C178 1.345 . S
C178 H170 0.950 . S
C178 C177 1.345 . S
C178 C179 1.424 . S
C179 H171 0.951 . S
C179 C178 1.424 . S
C179 C180 1.347 . S
C180 H172 0.951 . S
C180 C175 1.429 . S
C180 C179 1.347 . S
H181 C182 0.951 . S
C182 H181 0.951 . S
C182 C188 1.265 . S
H183 C188 0.950 . S
H184 C192 0.949 . S
H185 C193 0.950 . S
H186 C194 0.951 . S
H187 C195 0.951 . S
C188 C182 1.265 . S
C188 H183 0.950 . S
C188 C189 1.478 . S
C189 C176 1.394 . S
C189 C188 1.478 . S
C189 C190 1.397 . S
C190 C189 1.397 . S
C190 C191 1.438 . S
C190 C195 1.429 . S
C191 C174 1.394 . S
C191 C190 1.438 . S
C191 C192 1.428 . S
C192 H184 0.949 . S
C192 C191 1.428 . S
C192 C193 1.345 . S
C193 H185 0.950 . S
C193 C192 1.345 . S
C193 C194 1.424 . S
C194 H186 0.951 . S
C194 C193 1.424 . S
C194 C195 1.347 . S
C195 H187 0.951 . S
C195 C190 1.429 . S
C195 C194 1.347 . S
H196 C197 0.951 . S
C197 H196 0.951 . S
C197 C203 1.265 . S
H198 C203 0.950 . S
H199 C207 0.949 . S
H200 C208 0.950 . S
H201 C209 0.951 . S
H202 C210 0.951 . S
C203 C197 1.265 . S
C203 H198 0.950 . S
C203 C204 1.478 . S
C204 C203 1.478 . S
C204 C205 1.397 . S
C204 C221 1.394 . S
C205 C204 1.397 . S
C205 C206 1.438 . S
C205 C210 1.429 . S
C206 C205 1.438 . S
C206 C207 1.428 . S
C206 C219 1.394 . S
C207 H199 0.949 . S
C207 C206 1.428 . S
C207 C208 1.345 . S
C208 H200 0.950 . S
C208 C207 1.345 . S
C208 C209 1.424 . S
C209 H201 0.951 . S
C209 C208 1.424 . S
C209 C210 1.347 . S
C210 H202 0.951 . S
C210 C205 1.429 . S
C210 C209 1.347 . S
H211 C212 0.951 . S
C212 H211 0.951 . S
C212 C218 1.265 . S
H213 C218 0.950 . S
H214 C222 0.949 . S
H215 C223 0.950 . S
H216 C224 0.951 . S
H217 C225 0.951 . S
C218 C212 1.265 . S
C218 H213 0.950 . S
C218 C219 1.478 . S
C219 C206 1.394 . S
C219 C218 1.478 . S
C219 C220 1.397 . S
C220 C219 1.397 . S
C220 C221 1.438 . S
C220 C225 1.429 . S
C221 C204 1.394 . S
C221 C220 1.438 . S
C221 C222 1.428 . S
C222 H214 0.949 . S
C222 C221 1.428 . S
C222 C223 1.345 . S
C223 H215 0.950 . S
C223 C222 1.345 . S
C223 C224 1.424 . S
C224 H216 0.951 . S
C224 C223 1.424 . S
C224 C225 1.347 . S
C225 H217 0.951 . S
C225 C220 1.429 . S
C225 C224 1.347 . S
H226 C227 0.951 . S
C227 H226 0.951 . S
C227 C233 1.265 . S
H228 C233 0.950 . S
H229 C237 0.949 . S
H230 C238 0.950 . S
H231 C239 0.951 . S
H232 C240 0.951 . S
C233 C227 1.265 . S
C233 H228 0.950 . S
C233 C234 1.478 . S
C234 C233 1.478 . S
C234 C235 1.397 . S
C234 C251 1.394 . S
C235 C234 1.397 . S
C235 C236 1.438 . S
C235 C240 1.429 . S
C236 C235 1.438 . S
C236 C237 1.428 . S
C236 C249 1.394 . S
C237 H229 0.949 . S
C237 C236 1.428 . S
C237 C238 1.345 . S
C238 H230 0.950 . S
C238 C237 1.345 . S
C238 C239 1.424 . S
C239 H231 0.951 . S
C239 C238 1.424 . S
C239 C240 1.347 . S
C240 H232 0.951 . S
C240 C235 1.429 . S
C240 C239 1.347 . S
H241 C242 0.951 . S
C242 H241 0.951 . S
C242 C248 1.265 . S
H243 C248 0.950 . S
H244 C252 0.949 . S
H245 C253 0.950 . S
H246 C254 0.951 . S
H247 C255 0.951 . S
C248 C242 1.265 . S
C248 H243 0.950 . S
C248 C249 1.478 . S
C249 C236 1.394 . S
C249 C248 1.478 . S
C249 C250 1.397 . S
C250 C249 1.397 . S
C250 C251 1.438 . S
C250 C255 1.429 . S
C251 C234 1.394 . S
C251 C250 1.438 . S
C251 C252 1.428 . S
C252 H244 0.949 . S
C252 C251 1.428 . S
C252 C253 1.345 . S
C253 H245 0.950 . S
C253 C252 1.345 . S
C253 C254 1.424 . S
C254 H246 0.951 . S
C254 C253 1.424 . S
C254 C255 1.347 . S
C255 H247 0.951 . S
C255 C250 1.429 . S
C255 C254 1.347 . S
H256 C257 0.951 . S
C257 H256 0.951 . S
C257 C263 1.265 . S
H258 C263 0.950 . S
H259 C267 0.949 . S
H260 C268 0.950 . S
H261 C269 0.951 . S
H262 C270 0.951 . S
C263 C257 1.265 . S
C263 H258 0.950 . S
C263 C264 1.478 . S
C264 C263 1.478 . S
C264 C265 1.397 . S
C264 C281 1.394 . S
C265 C264 1.397 . S
C265 C266 1.438 1_655 S
C265 C270 1.429 1_554 S
C266 C265 1.438 1_455 S
C266 C267 1.428 1_554 S
C266 C279 1.394 . S
C267 H259 0.949 . S
C267 C266 1.428 1_556 S
C267 C268 1.345 . S
C268 H260 0.950 . S
C268 C267 1.345 . S
C268 C269 1.424 1_455 S
C269 H261 0.951 . S
C269 C268 1.424 1_655 S
C269 C270 1.347 . S
C270 H262 0.951 . S
C270 C265 1.429 1_556 S
C270 C269 1.347 . S
H271 C272 0.951 . S
C272 H271 0.951 . S
C272 C278 1.265 . S
H273 C278 0.950 . S
H274 C282 0.949 . S
H275 C283 0.950 . S
H276 C284 0.951 . S
H277 C285 0.951 . S
C278 C272 1.265 . S
C278 H273 0.950 . S
C278 C279 1.478 . S
C279 C266 1.394 . S
C279 C278 1.478 . S
C279 C280 1.397 . S
C280 C279 1.397 . S
C280 C281 1.438 1_455 S
C280 C285 1.429 . S
C281 C264 1.394 . S
C281 C280 1.438 1_655 S
C281 C282 1.428 . S
C282 H274 0.949 . S
C282 C281 1.428 . S
C282 C283 1.345 . S
C283 H275 0.950 . S
C283 C282 1.345 . S
C283 C284 1.424 1_655 S
C284 H276 0.951 . S
C284 C283 1.424 1_455 S
C284 C285 1.347 . S
C285 H277 0.951 . S
C285 C280 1.429 . S
C285 C284 1.347 . S
H286 C287 0.951 . S
C287 H286 0.951 . S
C287 C293 1.265 . S
H288 C293 0.950 . S
H289 C297 0.949 . S
H290 C298 0.950 . S
H291 C299 0.952 . S
H292 C300 0.951 . S
C293 C287 1.265 . S
C293 H288 0.950 . S
C293 C294 1.478 . S
C294 C293 1.478 . S
C294 C295 1.397 . S
C294 C311 1.394 . S
C295 C294 1.397 . S
C295 C296 1.438 1_565 S
C295 C300 1.429 1_554 S
C296 C295 1.438 1_545 S
C296 C297 1.428 1_554 S
C296 C309 1.394 . S
C297 H289 0.949 . S
C297 C296 1.428 1_556 S
C297 C298 1.345 . S
C298 H290 0.950 . S
C298 C297 1.345 . S
C298 C299 1.419 1_545 S
C299 H291 0.952 . S
C299 C298 1.419 1_565 S
C299 C300 1.350 . S
C300 H292 0.951 . S
C300 C295 1.429 1_556 S
C300 C299 1.350 . S
H301 C302 0.951 . S
C302 H301 0.951 . S
C302 C308 1.265 . S
H303 C308 0.950 . S
H304 C312 0.949 . S
H305 C313 0.950 . S
H306 C314 0.951 1_545 S
H307 C315 0.951 . S
C308 C302 1.265 . S
C308 H303 0.950 . S
C308 C309 1.478 . S
C309 C296 1.394 . S
C309 C308 1.478 . S
C309 C310 1.397 . S
C310 C309 1.397 . S
C310 C311 1.438 1_545 S
C310 C315 1.429 . S
C311 C294 1.394 . S
C311 C310 1.438 1_565 S
C311 C312 1.428 . S
C312 H304 0.949 . S
C312 C311 1.428 . S
C312 C313 1.345 . S
C313 H305 0.950 . S
C313 C312 1.345 . S
C313 C314 1.424 . S
C314 H306 0.951 1_565 S
C314 C313 1.424 . S
C314 C315 1.347 1_565 S
C315 H307 0.951 . S
C315 C310 1.429 . S
C315 C314 1.347 1_545 S
H316 C317 0.951 . S
C317 H316 0.951 . S
C317 C323 1.265 . S
H318 C323 0.950 . S
H319 C327 0.949 . S
H320 C328 0.950 . S
H321 C329 0.951 . S
H322 C330 0.951 . S
C323 C317 1.265 . S
C323 H318 0.950 . S
C323 C324 1.478 . S
C324 C323 1.478 . S
C324 C325 1.397 . S
C324 C341 1.394 . S
C325 C324 1.397 . S
C325 C326 1.438 . S
C325 C330 1.429 . S
C326 C325 1.438 . S
C326 C327 1.428 . S
C326 C339 1.394 . S
C327 H319 0.949 . S
C327 C326 1.428 . S
C327 C328 1.345 . S
C328 H320 0.950 . S
C328 C327 1.345 . S
C328 C329 1.424 . S
C329 H321 0.951 . S
C329 C328 1.424 . S
C329 C330 1.347 . S
C330 H322 0.951 . S
C330 C325 1.429 . S
C330 C329 1.347 . S
H331 C332 0.951 . S
C332 H331 0.951 . S
C332 C338 1.265 . S
H333 C338 0.950 . S
H334 C342 0.949 . S
H335 C343 0.950 . S
H336 C344 0.951 . S
H337 C345 0.951 . S
C338 C332 1.265 . S
C338 H333 0.950 . S
C338 C339 1.478 . S
C339 C326 1.394 . S
C339 C338 1.478 . S
C339 C340 1.397 . S
C340 C339 1.397 . S
C340 C341 1.438 . S
C340 C345 1.429 1_554 S
C341 C324 1.394 . S
C341 C340 1.438 . S
C341 C342 1.428 1_554 S
C342 H334 0.949 . S
C342 C341 1.428 1_556 S
C342 C343 1.345 . S
C343 H335 0.950 . S
C343 C342 1.345 . S
C343 C344 1.424 . S
C344 H336 0.951 . S
C344 C343 1.424 . S
C344 C345 1.347 . S
C345 H337 0.951 . S
C345 C340 1.429 1_556 S
C345 C344 1.347 . S
H346 C347 0.951 . S
C347 H346 0.951 . S
C347 C353 1.265 . S
H348 C353 0.950 . S
H349 C357 0.949 . S
H350 C358 0.950 . S
H351 C359 0.951 . S
H352 C360 0.951 . S
C353 C347 1.265 . S
C353 H348 0.950 . S
C353 C354 1.478 . S
C354 C353 1.478 . S
C354 C355 1.397 . S
C354 C371 1.394 . S
C355 C354 1.397 . S
C355 C356 1.438 . S
C355 C360 1.429 . S
C356 C355 1.438 . S
C356 C357 1.428 . S
C356 C369 1.394 . S
C357 H349 0.949 . S
C357 C356 1.428 . S
C357 C358 1.345 . S
C358 H350 0.950 . S
C358 C357 1.345 . S
C358 C359 1.424 . S
C359 H351 0.951 . S
C359 C358 1.424 . S
C359 C360 1.347 . S
C360 H352 0.951 . S
C360 C355 1.429 . S
C360 C359 1.347 . S
H361 C362 0.951 . S
C362 H361 0.951 . S
C362 C368 1.265 . S
H363 C368 0.950 . S
H364 C372 0.949 . S
H365 C373 0.950 . S
H366 C374 0.951 . S
H367 C375 0.951 . S
C368 C362 1.265 . S
C368 H363 0.950 . S
C368 C369 1.478 . S
C369 C356 1.394 . S
C369 C368 1.478 . S
C369 C370 1.397 . S
C370 C369 1.397 . S
C370 C371 1.438 . S
C370 C375 1.429 1_554 S
C371 C354 1.394 . S
C371 C370 1.438 . S
C371 C372 1.428 1_554 S
C372 H364 0.949 . S
C372 C371 1.428 1_556 S
C372 C373 1.345 . S
C373 H365 0.950 . S
C373 C372 1.345 . S
C373 C374 1.424 . S
C374 H366 0.951 . S
C374 C373 1.424 . S
C374 C375 1.347 . S
C375 H367 0.951 . S
C375 C370 1.429 1_556 S
C375 C374 1.347 . S
H376 C377 0.951 . S
C377 H376 0.951 . S
C377 C383 1.265 . S
H378 C383 0.950 . S
H379 C387 0.949 . S
H380 C388 0.950 . S
H381 C389 0.951 . S
H382 C390 0.951 . S
C383 C377 1.265 . S
C383 H378 0.950 . S
C383 C384 1.478 . S
C384 C383 1.478 . S
C384 C385 1.397 . S
C384 C401 1.394 . S
C385 C384 1.397 . S
C385 C386 1.438 . S
C385 C390 1.429 1_554 S
C386 C385 1.438 . S
C386 C387 1.428 1_554 S
C386 C399 1.394 . S
C387 H379 0.949 . S
C387 C386 1.428 1_556 S
C387 C388 1.345 . S
C388 H380 0.950 . S
C388 C387 1.345 . S
C388 C389 1.424 . S
C389 H381 0.951 . S
C389 C388 1.424 . S
C389 C390 1.347 . S
C390 H382 0.951 . S
C390 C385 1.429 1_556 S
C390 C389 1.347 . S
H391 C392 0.951 . S
C392 H391 0.951 . S
C392 C398 1.265 . S
H393 C398 0.950 . S
H394 C402 0.949 . S
H395 C403 0.950 . S
H396 C404 0.951 . S
H397 C405 0.951 . S
C398 C392 1.265 . S
C398 H393 0.950 . S
C398 C399 1.478 . S
C399 C386 1.394 . S
C399 C398 1.478 . S
C399 C400 1.397 . S
C400 C399 1.397 . S
C400 C401 1.438 . S
C400 C405 1.429 . S
C401 C384 1.394 . S
C401 C400 1.438 . S
C401 C402 1.428 . S
C402 H394 0.949 . S
C402 C401 1.428 . S
C402 C403 1.345 . S
C403 H395 0.950 . S
C403 C402 1.345 . S
C403 C404 1.424 . S
C404 H396 0.951 . S
C404 C403 1.424 . S
C404 C405 1.347 . S
C405 H397 0.951 . S
C405 C400 1.429 . S
C405 C404 1.347 . S
H406 C407 0.951 . S
C407 H406 0.951 . S
C407 C413 1.265 . S
H408 C413 0.950 . S
H409 C417 0.949 . S
H410 C418 0.950 . S
H411 C419 0.951 . S
H412 C420 0.951 . S
C413 C407 1.265 . S
C413 H408 0.950 . S
C413 C414 1.478 . S
C414 C413 1.478 . S
C414 C415 1.397 . S
C414 C431 1.394 . S
C415 C414 1.397 . S
C415 C416 1.438 . S
C415 C420 1.429 1_554 S
C416 C415 1.438 . S
C416 C417 1.428 1_554 S
C416 C429 1.394 . S
C417 H409 0.949 . S
C417 C416 1.428 1_556 S
C417 C418 1.345 . S
C418 H410 0.950 . S
C418 C417 1.345 . S
C418 C419 1.424 . S
C419 H411 0.951 . S
C419 C418 1.424 . S
C419 C420 1.347 . S
C420 H412 0.951 . S
C420 C415 1.429 1_556 S
C420 C419 1.347 . S
H421 C422 0.951 . S
C422 H421 0.951 . S
C422 C428 1.265 . S
H423 C428 0.950 . S
H424 C432 0.949 . S
H425 C433 0.950 . S
H426 C434 0.951 . S
H427 C435 0.951 . S
C428 C422 1.265 . S
C428 H423 0.950 . S
C428 C429 1.478 . S
C429 C416 1.394 . S
C429 C428 1.478 . S
C429 C430 1.397 . S
C430 C429 1.397 . S
C430 C431 1.438 . S
C430 C435 1.429 . S
C431 C414 1.394 . S
C431 C430 1.438 . S
C431 C432 1.428 . S
C432 H424 0.949 . S
C432 C431 1.428 . S
C432 C433 1.345 . S
C433 H425 0.950 . S
C433 C432 1.345 . S
C433 C434 1.424 . S
C434 H426 0.951 . S
C434 C433 1.424 . S
C434 C435 1.347 . S
C435 H427 0.951 . S
C435 C430 1.429 . S
C435 C434 1.347 . S
C137 C9 1.404 . S
C152 C5 1.492 . S
C167 C43 1.405 . S
C182 C39 1.479 . S
C197 C73 1.479 . S
C212 C77 1.398 . S
C227 C111 1.320 . S
C242 C107 1.466 . S
C257 C88 1.452 . S
C272 C20 1.478 . S
C287 C122 1.457 . S
C302 C54 1.458 . S
C317 C36 1.431 . S
C332 C33 1.447 . S
C347 C101 1.427 . S
C362 C67 1.455 . S
C377 C104 1.489 . S
C392 C70 1.484 . S
C407 C135 1.484 . S
C422 C2 1.494 . S
