# Generated by pormake.
# Topology gsi, (4)-cn, num edge types: 1
# Building blocks:
#     Node 0, Type 0, BuildingBlock: AZAVOO_clean_sbu_0, # of connection points: 4
#     Node 1, Type 0, BuildingBlock: AZAVOO_clean_sbu_0, # of connection points: 4
#     Node 2, Type 0, BuildingBlock: AZAVOO_clean_sbu_0, # of connection points: 4
#     Node 3, Type 0, BuildingBlock: AZAVOO_clean_sbu_0, # of connection points: 4
#     Node 4, Type 0, BuildingBlock: AZAVOO_clean_sbu_0, # of connection points: 4
#     Node 5, Type 0, BuildingBlock: AZAVOO_clean_sbu_0, # of connection points: 4
#     Node 6, Type 0, BuildingBlock: AZAVOO_clean_sbu_0, # of connection points: 4
#     Node 7, Type 0, BuildingBlock: AZAVOO_clean_sbu_0, # of connection points: 4
#     Node 8, Type 0, BuildingBlock: AZAVOO_clean_sbu_0, # of connection points: 4
#     Node 9, Type 0, BuildingBlock: AZAVOO_clean_sbu_0, # of connection points: 4
#     Node 10, Type 0, BuildingBlock: AZAVOO_clean_sbu_0, # of connection points: 4
#     Node 11, Type 0, BuildingBlock: AZAVOO_clean_sbu_0, # of connection points: 4
#     Node 12, Type 0, BuildingBlock: AZAVOO_clean_sbu_0, # of connection points: 4
#     Node 13, Type 0, BuildingBlock: AZAVOO_clean_sbu_0, # of connection points: 4
#     Node 14, Type 0, BuildingBlock: AZAVOO_clean_sbu_0, # of connection points: 4
#     Node 15, Type 0, BuildingBlock: AZAVOO_clean_sbu_0, # of connection points: 4
#     Edge 16, Type (0, 0), BuildingBlock: MIFKUJ_clean_linker_0, # of connection points: 2
#     Edge 17, Type (0, 0), BuildingBlock: MIFKUJ_clean_linker_0, # of connection points: 2
#     Edge 18, Type (0, 0), BuildingBlock: MIFKUJ_clean_linker_0, # of connection points: 2
#     Edge 19, Type (0, 0), BuildingBlock: MIFKUJ_clean_linker_0, # of connection points: 2
#     Edge 20, Type (0, 0), BuildingBlock: MIFKUJ_clean_linker_0, # of connection points: 2
#     Edge 21, Type (0, 0), BuildingBlock: MIFKUJ_clean_linker_0, # of connection points: 2
#     Edge 22, Type (0, 0), BuildingBlock: MIFKUJ_clean_linker_0, # of connection points: 2
#     Edge 23, Type (0, 0), BuildingBlock: MIFKUJ_clean_linker_0, # of connection points: 2
#     Edge 24, Type (0, 0), BuildingBlock: MIFKUJ_clean_linker_0, # of connection points: 2
#     Edge 25, Type (0, 0), BuildingBlock: MIFKUJ_clean_linker_0, # of connection points: 2
#     Edge 26, Type (0, 0), BuildingBlock: MIFKUJ_clean_linker_0, # of connection points: 2
#     Edge 27, Type (0, 0), BuildingBlock: MIFKUJ_clean_linker_0, # of connection points: 2
#     Edge 28, Type (0, 0), BuildingBlock: MIFKUJ_clean_linker_0, # of connection points: 2
#     Edge 29, Type (0, 0), BuildingBlock: MIFKUJ_clean_linker_0, # of connection points: 2
#     Edge 30, Type (0, 0), BuildingBlock: MIFKUJ_clean_linker_0, # of connection points: 2
#     Edge 31, Type (0, 0), BuildingBlock: MIFKUJ_clean_linker_0, # of connection points: 2
#     Edge 32, Type (0, 0), BuildingBlock: MIFKUJ_clean_linker_0, # of connection points: 2
#     Edge 33, Type (0, 0), BuildingBlock: MIFKUJ_clean_linker_0, # of connection points: 2
#     Edge 34, Type (0, 0), BuildingBlock: MIFKUJ_clean_linker_0, # of connection points: 2
#     Edge 35, Type (0, 0), BuildingBlock: MIFKUJ_clean_linker_0, # of connection points: 2
#     Edge 36, Type (0, 0), BuildingBlock: MIFKUJ_clean_linker_0, # of connection points: 2
#     Edge 37, Type (0, 0), BuildingBlock: MIFKUJ_clean_linker_0, # of connection points: 2
#     Edge 38, Type (0, 0), BuildingBlock: MIFKUJ_clean_linker_0, # of connection points: 2
#     Edge 39, Type (0, 0), BuildingBlock: MIFKUJ_clean_linker_0, # of connection points: 2
#     Edge 40, Type (0, 0), BuildingBlock: MIFKUJ_clean_linker_0, # of connection points: 2
#     Edge 41, Type (0, 0), BuildingBlock: MIFKUJ_clean_linker_0, # of connection points: 2
#     Edge 42, Type (0, 0), BuildingBlock: MIFKUJ_clean_linker_0, # of connection points: 2
#     Edge 43, Type (0, 0), BuildingBlock: MIFKUJ_clean_linker_0, # of connection points: 2
#     Edge 44, Type (0, 0), BuildingBlock: MIFKUJ_clean_linker_0, # of connection points: 2
#     Edge 45, Type (0, 0), BuildingBlock: MIFKUJ_clean_linker_0, # of connection points: 2
#     Edge 46, Type (0, 0), BuildingBlock: MIFKUJ_clean_linker_0, # of connection points: 2
#     Edge 47, Type (0, 0), BuildingBlock: MIFKUJ_clean_linker_0, # of connection points: 2
# Relax obj value: 0.022
# Max RMSD: 0.029
# Mean RMSD: 0.026
data_MOF--net-gsi--node1-AZAVOO_clean_sbu_0--edge1-MIFKUJ_clean_linker_0
_symmetry_space_group_name_H-M    P1
_symmetry_Int_Tables_number       1
_symmetry_cell_setting            triclinic
loop_
_symmetry_equiv_pos_as_xyz
'x, y, z'
_cell_length_a     55.986842
_cell_length_b     55.708774
_cell_length_c     54.109122
_cell_angle_alpha  89.990635
_cell_angle_beta   89.997138
_cell_angle_gamma 89.998894
loop_
_atom_site_label
_atom_site_type_symbol
_atom_site_fract_x
_atom_site_fract_y
_atom_site_fract_z
_atom_type_partial_charge
Mg0 Mg 0.15071 0.14832 0.14865 0.0
O1 O 0.17279 0.16813 0.17845 0.0
O2 O 0.20566 0.14635 0.18534 0.0
Mg3 Mg 0.20536 0.11379 0.16004 0.0
C4 C 0.19259 0.16465 0.18968 0.0
C5 C 0.11524 0.18789 0.16376 0.0
O6 O 0.12128 0.17863 0.1852 0.0
O7 O 0.17634 0.16182 0.119 0.0
O8 O 0.20879 0.13964 0.12709 0.0
O9 O 0.13246 0.12616 0.17709 0.0
O10 O 0.1662 0.1157 0.15892 0.0
C11 C 0.19786 0.15563 0.11447 0.0
C12 C 0.14998 0.11114 0.17517 0.0
O13 O 0.12558 0.18029 0.14435 0.0
Mg14 Mg 0.85808 0.35621 0.14669 0.0
O15 O 0.83352 0.33578 0.1737 0.0
O16 O 0.80007 0.35736 0.17772 0.0
Mg17 Mg 0.80281 0.39078 0.15358 0.0
C18 C 0.81272 0.33896 0.18291 0.0
C19 C 0.89346 0.31687 0.16333 0.0
O20 O 0.88691 0.32612 0.18462 0.0
O21 O 0.83512 0.34347 0.11445 0.0
O22 O 0.80233 0.36592 0.11963 0.0
O23 O 0.87329 0.37756 0.17772 0.0
O24 O 0.8418 0.38859 0.1559 0.0
C25 C 0.81422 0.35004 0.10779 0.0
C26 C 0.85606 0.39265 0.17408 0.0
O27 O 0.88344 0.32431 0.14369 0.0
Mg28 Mg 0.14628 0.85828 0.34656 0.0
O29 O 0.16814 0.83764 0.31709 0.0
O30 O 0.20156 0.8589 0.311 0.0
Mg31 Mg 0.20125 0.89232 0.33509 0.0
C32 C 0.18838 0.8407 0.30652 0.0
C33 C 0.0995 0.83394 0.35689 0.0
O34 O 0.09555 0.85709 0.35927 0.0
O35 O 0.17185 0.84494 0.37638 0.0
O36 O 0.20436 0.86709 0.36852 0.0
O37 O 0.12804 0.88021 0.31782 0.0
O38 O 0.16221 0.89025 0.33545 0.0
C39 C 0.19331 0.85119 0.38114 0.0
C40 C 0.14594 0.89483 0.31929 0.0
O41 O 0.12059 0.82697 0.35192 0.0
Mg42 Mg 0.85256 0.64682 0.34297 0.0
O43 O 0.83033 0.66805 0.31438 0.0
O44 O 0.79654 0.64743 0.30852 0.0
Mg45 Mg 0.79667 0.61411 0.33293 0.0
C46 C 0.81 0.66539 0.30394 0.0
C47 C 0.90042 0.67078 0.34865 0.0
O48 O 0.90483 0.64764 0.34743 0.0
O49 O 0.82839 0.66024 0.37403 0.0
O50 O 0.79507 0.63914 0.36671 0.0
O51 O 0.86862 0.62482 0.31284 0.0
O52 O 0.83578 0.61492 0.33303 0.0
C53 C 0.8069 0.65449 0.37931 0.0
C54 C 0.85087 0.61021 0.31576 0.0
O55 O 0.87882 0.6778 0.34749 0.0
Mg56 Mg 0.35514 0.8544 0.64685 0.0
O57 O 0.32996 0.83509 0.67417 0.0
O58 O 0.29761 0.85826 0.67854 0.0
Mg59 Mg 0.30148 0.89143 0.65419 0.0
C60 C 0.30945 0.8393 0.68364 0.0
C61 C 0.39258 0.81588 0.66117 0.0
O62 O 0.39054 0.8279 0.68195 0.0
O63 O 0.3313 0.84272 0.61491 0.0
O64 O 0.29951 0.86652 0.6203 0.0
O65 O 0.37155 0.87519 0.67768 0.0
O66 O 0.34034 0.88748 0.65619 0.0
C67 C 0.31064 0.85013 0.60841 0.0
C68 C 0.35492 0.89096 0.67422 0.0
O69 O 0.37901 0.82131 0.64318 0.0
Mg70 Mg 0.85808 0.85036 0.86946 0.0
O71 O 0.829 0.83127 0.84652 0.0
O72 O 0.79443 0.85025 0.85335 0.0
Mg73 Mg 0.80114 0.88115 0.88007 0.0
C74 C 0.80654 0.83367 0.84294 0.0
C75 C 0.90815 0.83942 0.84792 0.0
O76 O 0.91125 0.86118 0.8567 0.0
O77 O 0.85896 0.88162 0.84191 0.0
O78 O 0.82432 0.8996 0.85075 0.0
O79 O 0.84957 0.8267 0.90159 0.0
O80 O 0.8322 0.86163 0.89461 0.0
C81 C 0.84384 0.89849 0.83858 0.0
C82 C 0.83341 0.84227 0.90757 0.0
O83 O 0.88748 0.83004 0.84912 0.0
Mg84 Mg 0.14076 0.64298 0.86046 0.0
O85 O 0.16934 0.66342 0.838 0.0
O86 O 0.20399 0.64376 0.84174 0.0
Mg87 Mg 0.19791 0.61095 0.86616 0.0
C88 C 0.19161 0.66116 0.83325 0.0
C89 C 0.11303 0.68804 0.84394 0.0
O90 O 0.13264 0.69725 0.85331 0.0
O91 O 0.13873 0.61418 0.83039 0.0
O92 O 0.1736 0.59532 0.836 0.0
O93 O 0.1502 0.66368 0.89443 0.0
O94 O 0.16778 0.62986 0.88316 0.0
C95 C 0.15362 0.59767 0.82483 0.0
C96 C 0.16686 0.64796 0.89791 0.0
O97 O 0.1109 0.66532 0.84307 0.0
Mg98 Mg 0.8593 0.14102 0.6386 0.0
O99 O 0.82982 0.16145 0.65979 0.0
O100 O 0.79559 0.14127 0.65496 0.0
Mg101 Mg 0.80283 0.10853 0.63089 0.0
C102 C 0.80745 0.15887 0.66377 0.0
C103 C 0.88743 0.18603 0.65583 0.0
O104 O 0.86896 0.19594 0.64486 0.0
O105 O 0.86054 0.11221 0.66876 0.0
O106 O 0.82604 0.0931 0.66197 0.0
O107 O 0.85081 0.16174 0.60445 0.0
O108 O 0.83345 0.12751 0.61445 0.0
C109 C 0.84559 0.09561 0.67385 0.0
C110 C 0.83472 0.14569 0.59977 0.0
O111 O 0.88843 0.16327 0.65735 0.0
Mg112 Mg 0.14141 0.34904 0.63474 0.0
O113 O 0.17071 0.33179 0.65875 0.0
O114 O 0.20497 0.35099 0.65105 0.0
Mg115 Mg 0.19772 0.38049 0.62267 0.0
C116 C 0.19309 0.33479 0.66235 0.0
C117 C 0.09108 0.33655 0.65397 0.0
O118 O 0.08722 0.35655 0.64173 0.0
O119 O 0.13976 0.38146 0.66084 0.0
O120 O 0.17406 0.3997 0.65105 0.0
O121 O 0.15089 0.32442 0.60337 0.0
O122 O 0.16686 0.36018 0.60923 0.0
C123 C 0.15457 0.39878 0.6633 0.0
C124 C 0.16622 0.34057 0.59671 0.0
O125 O 0.11238 0.32884 0.6558 0.0
Mg126 Mg 0.64346 0.14711 0.36034 0.0
O127 O 0.6725 0.1648 0.33661 0.0
O128 O 0.70613 0.14364 0.34163 0.0
Mg129 Mg 0.6991 0.11349 0.36963 0.0
C130 C 0.69456 0.16102 0.33188 0.0
C131 C 0.59287 0.1605 0.34166 0.0
O132 O 0.58878 0.13979 0.35251 0.0
O133 O 0.64087 0.116 0.3328 0.0
O134 O 0.67339 0.0947 0.34287 0.0
O135 O 0.65339 0.1704 0.39256 0.0
O136 O 0.66987 0.13525 0.38444 0.0
C137 C 0.65401 0.09736 0.33074 0.0
C138 C 0.66951 0.15449 0.39759 0.0
O139 O 0.61419 0.16829 0.3407 0.0
Mg140 Mg 0.64755 0.64637 0.64564 0.0
O141 O 0.67078 0.66519 0.67513 0.0
O142 O 0.70377 0.64298 0.67974 0.0
Mg143 Mg 0.70185 0.61058 0.65413 0.0
C144 C 0.69108 0.66126 0.68524 0.0
C145 C 0.60673 0.67806 0.62626 0.0
O146 O 0.60679 0.66024 0.61034 0.0
O147 O 0.67251 0.65995 0.61544 0.0
O148 O 0.7044 0.63635 0.62096 0.0
O149 O 0.62954 0.62414 0.67414 0.0
O150 O 0.66277 0.61345 0.65505 0.0
C151 C 0.69342 0.65299 0.60929 0.0
C152 C 0.64687 0.60897 0.67164 0.0
O153 O 0.62289 0.67874 0.64274 0.0
Mg154 Mg 0.64915 0.35895 0.84783 0.0
O155 O 0.67059 0.33811 0.81826 0.0
O156 O 0.70349 0.35959 0.81037 0.0
Mg157 Mg 0.70395 0.39268 0.8349 0.0
C158 C 0.69028 0.34127 0.80667 0.0
C159 C 0.60215 0.33428 0.85669 0.0
O160 O 0.59759 0.35742 0.85714 0.0
O161 O 0.67511 0.34573 0.87728 0.0
O162 O 0.70769 0.36731 0.86822 0.0
O163 O 0.63074 0.38053 0.81901 0.0
O164 O 0.66483 0.39109 0.83639 0.0
C165 C 0.69679 0.35167 0.88131 0.0
C166 C 0.64846 0.39538 0.82023 0.0
O167 O 0.62364 0.32751 0.85357 0.0
Mg168 Mg 0.3591 0.14189 0.84823 0.0
O169 O 0.33418 0.16314 0.82224 0.0
O170 O 0.30056 0.14175 0.81848 0.0
Mg171 Mg 0.30365 0.10761 0.84148 0.0
C172 C 0.31313 0.16026 0.81353 0.0
C173 C 0.40634 0.16687 0.85433 0.0
O174 O 0.41106 0.14377 0.85481 0.0
O175 O 0.33663 0.15399 0.88106 0.0
O176 O 0.30368 0.13178 0.87593 0.0
O177 O 0.37378 0.12114 0.81645 0.0
O178 O 0.34257 0.10987 0.83853 0.0
C179 C 0.31579 0.14739 0.88788 0.0
C180 C 0.35661 0.10599 0.82014 0.0
O181 O 0.38473 0.17349 0.85187 0.0
Mg182 Mg 0.36322 0.35483 0.36583 0.0
O183 O 0.33287 0.33714 0.34366 0.0
O184 O 0.29868 0.35599 0.35266 0.0
Mg185 Mg 0.30726 0.38648 0.3794 0.0
C186 C 0.31029 0.33965 0.34126 0.0
C187 C 0.38999 0.31122 0.34346 0.0
O188 O 0.37156 0.30072 0.35392 0.0
O189 O 0.36386 0.38665 0.33892 0.0
O190 O 0.32941 0.40449 0.34898 0.0
O191 O 0.35453 0.33053 0.39749 0.0
O192 O 0.33867 0.36648 0.39206 0.0
C193 C 0.34852 0.40343 0.33612 0.0
C194 C 0.33923 0.34666 0.40424 0.0
O195 O 0.39133 0.334 0.34394 0.0
Mg196 Mg 0.3592 0.64586 0.13507 0.0
O197 O 0.32869 0.66539 0.15537 0.0
O198 O 0.29477 0.64528 0.14844 0.0
Mg199 Mg 0.30347 0.61277 0.12436 0.0
C200 C 0.30616 0.66275 0.15818 0.0
C201 C 0.40707 0.6606 0.16187 0.0
O202 O 0.41205 0.63784 0.15815 0.0
O203 O 0.35958 0.61676 0.16481 0.0
O204 O 0.32577 0.59712 0.15615 0.0
O205 O 0.35191 0.66698 0.10082 0.0
O206 O 0.33436 0.63252 0.10995 0.0
C207 C 0.34479 0.59976 0.16892 0.0
C208 C 0.33596 0.65094 0.09566 0.0
O209 O 0.38678 0.66863 0.15536 0.0
Mg210 Mg 0.63523 0.85248 0.1339 0.0
O211 O 0.66773 0.83658 0.15385 0.0
O212 O 0.70005 0.85783 0.14336 0.0
Mg213 Mg 0.68809 0.88729 0.11651 0.0
C214 C 0.69017 0.84064 0.15517 0.0
C215 C 0.58812 0.83581 0.15894 0.0
O216 O 0.58082 0.85545 0.1478 0.0
O217 O 0.63482 0.88414 0.16075 0.0
O218 O 0.66582 0.9056 0.14683 0.0
O219 O 0.64232 0.82833 0.10197 0.0
O220 O 0.6576 0.86471 0.10573 0.0
C221 C 0.64795 0.90288 0.16125 0.0
C222 C 0.65682 0.84464 0.0939 0.0
O223 O 0.61012 0.83031 0.15792 0.0
H224 H 0.23345 0.16271 0.21712 0.0
H225 H 0.24979 0.19336 0.24422 0.0
H226 H 0.18871 0.23853 0.23013 0.0
H227 H 0.17224 0.20791 0.2024 0.0
H228 H 0.22942 0.26358 0.2265 0.0
H229 H 0.19542 0.21097 0.28596 0.0
H230 H 0.18658 0.17241 0.30636 0.0
H231 H 0.26107 0.16265 0.32233 0.0
H232 H 0.27042 0.201 0.3017 0.0
H233 H 0.26477 0.34434 0.32347 0.0
H234 H 0.24227 0.31553 0.29854 0.0
H235 H 0.30269 0.26753 0.29864 0.0
H236 H 0.32546 0.2963 0.32337 0.0
H237 H 0.25848 0.24546 0.31111 0.0
H238 H 0.29194 0.29734 0.2486 0.0
H239 H 0.29994 0.33627 0.22857 0.0
H240 H 0.22464 0.34791 0.21941 0.0
H241 H 0.21618 0.30916 0.23972 0.0
C242 C 0.2233 0.17904 0.21985 0.0
C243 C 0.20148 0.1828 0.20752 0.0
C244 C 0.23266 0.19654 0.2355 0.0
C245 C 0.22036 0.21814 0.23945 0.0
C246 C 0.19847 0.22195 0.22739 0.0
C247 C 0.18905 0.20439 0.21163 0.0
C248 C 0.23108 0.23698 0.25537 0.0
C249 C 0.23533 0.25976 0.24519 0.0
C250 C 0.23916 0.23188 0.27962 0.0
C251 C 0.23364 0.2088 0.2921 0.0
C252 C 0.20995 0.20052 0.29365 0.0
C253 C 0.20484 0.17871 0.30528 0.0
C254 C 0.22326 0.16506 0.31559 0.0
C255 C 0.24682 0.17323 0.31432 0.0
C256 C 0.25204 0.19502 0.30269 0.0
C257 C 0.27334 0.3277 0.31812 0.0
C258 C 0.29694 0.32264 0.3254 0.0
C259 C 0.26045 0.3113 0.30384 0.0
C260 C 0.27085 0.28946 0.29675 0.0
C261 C 0.29437 0.28431 0.30397 0.0
C262 C 0.30738 0.30082 0.31799 0.0
C263 C 0.25712 0.2718 0.28205 0.0
C264 C 0.25231 0.24929 0.29251 0.0
C265 C 0.24835 0.27721 0.25818 0.0
C266 C 0.25342 0.30049 0.24595 0.0
C267 C 0.27708 0.3083 0.24253 0.0
C268 C 0.2817 0.33031 0.23108 0.0
C269 C 0.26281 0.34459 0.22279 0.0
C270 C 0.23926 0.33685 0.22588 0.0
C271 C 0.23454 0.31486 0.23735 0.0
H272 H 0.26643 0.36162 0.21392 0.0
H273 H 0.21926 0.14819 0.3246 0.0
H274 H 0.76737 0.3371 0.20138 0.0
H275 H 0.74968 0.30613 0.22722 0.0
H276 H 0.81661 0.26777 0.22815 0.0
H277 H 0.83447 0.29858 0.20162 0.0
H278 H 0.78039 0.23767 0.22049 0.0
H279 H 0.7973 0.29947 0.27899 0.0
H280 H 0.79737 0.34059 0.29582 0.0
H281 H 0.7207 0.34049 0.29761 0.0
H282 H 0.72015 0.29947 0.28044 0.0
H283 H 0.7415 0.15937 0.31743 0.0
H284 H 0.76319 0.18871 0.2925 0.0
H285 H 0.69884 0.23052 0.28436 0.0
H286 H 0.67701 0.20145 0.30946 0.0
H287 H 0.73659 0.25821 0.29735 0.0
H288 H 0.72017 0.19684 0.23687 0.0
H289 H 0.72053 0.15568 0.22012 0.0
H290 H 0.79718 0.15488 0.22282 0.0
H291 H 0.79726 0.19594 0.23991 0.0
C292 C 0.77847 0.32219 0.20714 0.0
C293 C 0.80242 0.32043 0.19946 0.0
C294 C 0.7683 0.3045 0.22204 0.0
C295 C 0.7819 0.28479 0.22996 0.0
C296 C 0.8058 0.28288 0.22232 0.0
C297 C 0.81599 0.30054 0.20722 0.0
C298 C 0.77082 0.26601 0.24571 0.0
C299 C 0.77118 0.24209 0.23753 0.0
C300 C 0.75843 0.27183 0.26773 0.0
C301 C 0.75869 0.29645 0.27825 0.0
C302 C 0.78045 0.30827 0.28281 0.0
C303 C 0.78057 0.33156 0.29244 0.0
C304 C 0.75905 0.34317 0.29773 0.0
C305 C 0.73736 0.33148 0.29348 0.0
C306 C 0.73713 0.3082 0.28383 0.0
C307 C 0.73187 0.1747 0.31022 0.0
C308 C 0.70746 0.17801 0.3155 0.0
C309 C 0.74432 0.19143 0.2959 0.0
C310 C 0.73261 0.21174 0.28647 0.0
C311 C 0.70823 0.21499 0.29149 0.0
C312 C 0.69576 0.19828 0.30578 0.0
C313 C 0.74585 0.22998 0.27191 0.0
C314 C 0.74594 0.25378 0.28038 0.0
C315 C 0.75873 0.22402 0.25026 0.0
C316 C 0.75871 0.19937 0.23991 0.0
C317 C 0.73709 0.18781 0.23408 0.0
C318 C 0.73722 0.16452 0.22449 0.0
C319 C 0.75886 0.15264 0.22047 0.0
C320 C 0.78042 0.16408 0.22598 0.0
C321 C 0.7804 0.18737 0.2356 0.0
H322 H 0.75892 0.13461 0.21305 0.0
H323 H 0.75919 0.3612 0.30517 0.0
H324 H 0.25782 0.66495 0.16571 0.0
H325 H 0.23566 0.69412 0.19034 0.0
H326 H 0.30148 0.73004 0.209 0.0
H327 H 0.3239 0.70081 0.18457 0.0
H328 H 0.27351 0.72403 0.24912 0.0
H329 H 0.26412 0.75345 0.16648 0.0
H330 H 0.25347 0.75158 0.12232 0.0
H331 H 0.18076 0.7355 0.14138 0.0
H332 H 0.19106 0.7369 0.1857 0.0
H333 H 0.23375 0.83697 0.28872 0.0
H334 H 0.25059 0.80514 0.26336 0.0
H335 H 0.18203 0.77003 0.26053 0.0
H336 H 0.16481 0.80193 0.28638 0.0
H337 H 0.20837 0.7735 0.21335 0.0
H338 H 0.21841 0.74654 0.29682 0.0
H339 H 0.22993 0.75059 0.3406 0.0
H340 H 0.30261 0.76383 0.31925 0.0
H341 H 0.29145 0.76024 0.2753 0.0
C342 C 0.26765 0.67903 0.17503 0.0
C343 C 0.29269 0.68052 0.17311 0.0
C344 C 0.2549 0.69576 0.18903 0.0
C345 C 0.26689 0.71437 0.20133 0.0
C346 C 0.29187 0.71581 0.19963 0.0
C347 C 0.30465 0.69912 0.18559 0.0
C348 C 0.25344 0.73219 0.2162 0.0
C349 C 0.25942 0.73498 0.24122 0.0
C350 C 0.23464 0.74606 0.20605 0.0
C351 C 0.22843 0.745 0.17941 0.0
C352 C 0.24591 0.74926 0.16126 0.0
C353 C 0.23993 0.74834 0.1362 0.0
C354 C 0.21646 0.74337 0.12905 0.0
C355 C 0.19894 0.73931 0.14695 0.0
C356 C 0.20484 0.74017 0.17205 0.0
C357 C 0.22208 0.82263 0.28263 0.0
C358 C 0.19788 0.82199 0.2897 0.0
C359 C 0.23181 0.80441 0.26817 0.0
C360 C 0.2176 0.7852 0.26029 0.0
C361 C 0.19327 0.78475 0.26653 0.0
C362 C 0.1835 0.80292 0.28133 0.0
C363 C 0.22865 0.76541 0.24608 0.0
C364 C 0.22227 0.7623 0.22123 0.0
C365 C 0.24721 0.75134 0.25631 0.0
C366 C 0.25404 0.75333 0.28274 0.0
C367 C 0.23681 0.75051 0.30144 0.0
C368 C 0.24328 0.75269 0.3263 0.0
C369 C 0.26697 0.75752 0.3327 0.0
C370 C 0.28426 0.76011 0.31426 0.0
C371 C 0.27787 0.75799 0.28937 0.0
H372 H 0.27195 0.75919 0.35195 0.0
H373 H 0.21183 0.74278 0.10966 0.0
H374 H 0.83439 0.70391 0.28438 0.0
H375 H 0.8188 0.73479 0.25642 0.0
H376 H 0.7499 0.70009 0.25693 0.0
H377 H 0.76537 0.66903 0.2841 0.0
H378 H 0.76039 0.71333 0.21189 0.0
H379 H 0.7634 0.75119 0.29278 0.0
H380 H 0.78363 0.76514 0.33065 0.0
H381 H 0.83021 0.8095 0.28717 0.0
H382 H 0.81042 0.79559 0.24901 0.0
H383 H 0.67605 0.80101 0.18122 0.0
H384 H 0.7011 0.77284 0.20395 0.0
H385 H 0.76361 0.81442 0.18564 0.0
H386 H 0.73866 0.84287 0.16272 0.0
H387 H 0.76231 0.79939 0.23546 0.0
H388 H 0.75521 0.76523 0.15492 0.0
H389 H 0.73389 0.7518 0.11753 0.0
H390 H 0.69437 0.70067 0.16058 0.0
H391 H 0.71522 0.714 0.19832 0.0
C392 C 0.81595 0.70283 0.27845 0.0
C393 C 0.80115 0.68398 0.28656 0.0
C394 C 0.80703 0.72055 0.26254 0.0
C395 C 0.78308 0.71992 0.25476 0.0
C396 C 0.76845 0.70095 0.26259 0.0
C397 C 0.77735 0.68319 0.27823 0.0
C398 C 0.77282 0.73902 0.23876 0.0
C399 C 0.76073 0.73212 0.21714 0.0
C400 C 0.77386 0.76367 0.24512 0.0
C401 C 0.78562 0.77215 0.26805 0.0
C402 C 0.77806 0.7638 0.2913 0.0
C403 C 0.78943 0.77172 0.31281 0.0
C404 C 0.80824 0.78814 0.31132 0.0
C405 C 0.81567 0.79674 0.2883 0.0
C406 C 0.80438 0.78887 0.26673 0.0
C407 C 0.6951 0.80432 0.18206 0.0
C408 C 0.70531 0.82422 0.17005 0.0
C409 C 0.70941 0.78812 0.19502 0.0
C410 C 0.73422 0.79142 0.19625 0.0
C411 C 0.74448 0.81155 0.18486 0.0
C412 C 0.73018 0.82776 0.17175 0.0
C413 C 0.74927 0.7735 0.20918 0.0
C414 C 0.76229 0.78063 0.23008 0.0
C415 C 0.74905 0.74903 0.20223 0.0
C416 C 0.73669 0.74072 0.17949 0.0
C417 C 0.74187 0.75122 0.15645 0.0
C418 C 0.72988 0.74362 0.13519 0.0
C419 C 0.71276 0.72543 0.13669 0.0
C420 C 0.70764 0.71476 0.15945 0.0
C421 C 0.71956 0.7223 0.18078 0.0
H422 H 0.70348 0.71959 0.1202 0.0
H423 H 0.81702 0.79424 0.32799 0.0
H424 H 0.26576 0.84171 0.70608 0.0
H425 H 0.24662 0.81155 0.73198 0.0
H426 H 0.30832 0.76574 0.72474 0.0
H427 H 0.32784 0.79599 0.69887 0.0
H428 H 0.23397 0.7661 0.72059 0.0
H429 H 0.31407 0.73306 0.77848 0.0
H430 H 0.35225 0.74842 0.79488 0.0
H431 H 0.32392 0.82005 0.79546 0.0
H432 H 0.28549 0.80507 0.7794 0.0
H433 H 0.2369 0.65946 0.81441 0.0
H434 H 0.25699 0.68943 0.78899 0.0
H435 H 0.19432 0.73441 0.79187 0.0
H436 H 0.17381 0.70422 0.81685 0.0
H437 H 0.26953 0.73413 0.79784 0.0
H438 H 0.18938 0.76669 0.73916 0.0
H439 H 0.15149 0.75089 0.7225 0.0
H440 H 0.18038 0.67949 0.72279 0.0
H441 H 0.21853 0.69489 0.73915 0.0
C442 C 0.27541 0.82531 0.71006 0.0
C443 C 0.2984 0.82132 0.70034 0.0
C444 C 0.26435 0.80804 0.72483 0.0
C445 C 0.27605 0.78645 0.73037 0.0
C446 C 0.29907 0.78241 0.72091 0.0
C447 C 0.31018 0.7997 0.70607 0.0
C448 C 0.26383 0.76804 0.74562 0.0
C449 C 0.2416 0.75931 0.73765 0.0
C450 C 0.27407 0.75876 0.76753 0.0
C451 C 0.297 0.76795 0.77747 0.0
C452 C 0.31597 0.75207 0.78218 0.0
C453 C 0.33766 0.76071 0.79141 0.0
C454 C 0.34053 0.78521 0.79612 0.0
C455 C 0.3217 0.8011 0.79171 0.0
C456 C 0.29998 0.79254 0.7825 0.0
C457 C 0.2273 0.67568 0.80959 0.0
C458 C 0.20367 0.67936 0.81762 0.0
C459 C 0.23888 0.69284 0.7951 0.0
C460 C 0.22713 0.71408 0.7883 0.0
C461 C 0.20362 0.71796 0.79649 0.0
C462 C 0.19193 0.7007 0.81085 0.0
C463 C 0.23961 0.73221 0.77286 0.0
C464 C 0.26189 0.74088 0.78077 0.0
C465 C 0.22947 0.74136 0.75082 0.0
C466 C 0.20672 0.73193 0.74062 0.0
C467 C 0.18767 0.74763 0.73558 0.0
C468 C 0.16615 0.73874 0.7262 0.0
C469 C 0.1635 0.71419 0.72167 0.0
C470 C 0.18242 0.69849 0.7264 0.0
C471 C 0.20399 0.70729 0.73576 0.0
H472 H 0.14682 0.70735 0.71443 0.0
H473 H 0.35734 0.79186 0.80325 0.0
H474 H 0.6712 0.70382 0.7008 0.0
H475 H 0.68877 0.7334 0.72888 0.0
H476 H 0.7507 0.68822 0.73809 0.0
H477 H 0.73324 0.65849 0.71053 0.0
H478 H 0.7375 0.70678 0.78132 0.0
H479 H 0.75148 0.73648 0.69904 0.0
H480 H 0.74003 0.7494 0.65709 0.0
H481 H 0.69598 0.80506 0.68769 0.0
H482 H 0.70693 0.79224 0.72986 0.0
H483 H 0.82316 0.79101 0.82441 0.0
H484 H 0.80148 0.76212 0.79877 0.0
H485 H 0.73972 0.80835 0.799 0.0
H486 H 0.76113 0.8373 0.82468 0.0
H487 H 0.75069 0.7902 0.75218 0.0
H488 H 0.73882 0.76132 0.83477 0.0
H489 H 0.75127 0.74837 0.8764 0.0
H490 H 0.79252 0.69112 0.84477 0.0
H491 H 0.78056 0.70392 0.80291 0.0
C492 C 0.68849 0.70009 0.70892 0.0
C493 C 0.70084 0.6788 0.70324 0.0
C494 C 0.69855 0.71708 0.7249 0.0
C495 C 0.72119 0.71316 0.73535 0.0
C496 C 0.73323 0.69165 0.73024 0.0
C497 C 0.72321 0.67469 0.71436 0.0
C498 C 0.73274 0.73158 0.75116 0.0
C499 C 0.74056 0.72496 0.77485 0.0
C500 C 0.73635 0.75544 0.74292 0.0
C501 C 0.72981 0.76323 0.7176 0.0
C502 C 0.7392 0.75135 0.69682 0.0
C503 C 0.73283 0.75868 0.67301 0.0
C504 C 0.71723 0.77799 0.66973 0.0
C505 C 0.70803 0.79007 0.69026 0.0
C506 C 0.71432 0.78279 0.71412 0.0
C507 C 0.80501 0.7951 0.81894 0.0
C508 C 0.79388 0.81646 0.82667 0.0
C509 C 0.79262 0.77852 0.80438 0.0
C510 C 0.76895 0.78305 0.79717 0.0
C511 C 0.75796 0.80453 0.8044 0.0
C512 C 0.77023 0.821 0.81915 0.0
C513 C 0.75562 0.76528 0.78217 0.0
C514 C 0.74747 0.77205 0.75867 0.0
C515 C 0.75183 0.74153 0.79052 0.0
C516 C 0.75897 0.73372 0.81569 0.0
C517 C 0.75071 0.74609 0.83668 0.0
C518 C 0.75765 0.73876 0.86032 0.0
C519 C 0.77274 0.71898 0.86322 0.0
C520 C 0.78086 0.70645 0.84249 0.0
C521 C 0.77398 0.71372 0.8188 0.0
H522 H 0.77809 0.71333 0.88154 0.0
H523 H 0.71232 0.78364 0.65127 0.0
H524 H 0.67267 0.29572 0.79944 0.0
H525 H 0.69013 0.2639 0.77394 0.0
H526 H 0.74554 0.31246 0.7501 0.0
H527 H 0.72817 0.3443 0.7751 0.0
H528 H 0.72979 0.28572 0.71223 0.0
H529 H 0.7557 0.27238 0.79599 0.0
H530 H 0.75015 0.26582 0.8407 0.0
H531 H 0.71054 0.20141 0.82584 0.0
H532 H 0.71557 0.20779 0.781 0.0
H533 H 0.82115 0.20498 0.6742 0.0
H534 H 0.79871 0.23526 0.69744 0.0
H535 H 0.7424 0.184 0.71049 0.0
H536 H 0.76449 0.15373 0.68707 0.0
H537 H 0.75637 0.21059 0.75317 0.0
H538 H 0.73109 0.22361 0.66958 0.0
H539 H 0.73616 0.23042 0.62491 0.0
H540 H 0.77514 0.29525 0.63968 0.0
H541 H 0.77032 0.28876 0.68454 0.0
C542 C 0.68839 0.29971 0.78853 0.0
C543 C 0.69911 0.32253 0.7895 0.0
C544 C 0.69843 0.28146 0.77408 0.0
C545 C 0.71934 0.28573 0.76041 0.0
C546 C 0.72945 0.30874 0.76055 0.0
C547 C 0.7195 0.32692 0.77497 0.0
C548 C 0.7313 0.26616 0.74655 0.0
C549 C 0.73577 0.26939 0.72125 0.0
C550 C 0.73872 0.24464 0.7582 0.0
C551 C 0.73577 0.24071 0.78514 0.0
C552 C 0.74564 0.25693 0.80225 0.0
C553 C 0.74262 0.25322 0.82762 0.0
C554 C 0.72994 0.23325 0.8361 0.0
C555 C 0.72032 0.2169 0.81924 0.0
C556 C 0.72325 0.22055 0.79385 0.0
C557 C 0.80405 0.20011 0.68211 0.0
C558 C 0.79457 0.17698 0.67872 0.0
C559 C 0.79122 0.21745 0.69528 0.0
C560 C 0.76886 0.21185 0.70552 0.0
C561 C 0.75961 0.18864 0.70269 0.0
C562 C 0.77224 0.17142 0.68923 0.0
C563 C 0.75501 0.23033 0.71898 0.0
C564 C 0.75023 0.22688 0.74418 0.0
C565 C 0.74738 0.25168 0.70729 0.0
C566 C 0.75056 0.25556 0.68039 0.0
C567 C 0.74094 0.2392 0.6633 0.0
C568 C 0.74372 0.24304 0.63795 0.0
C569 C 0.75608 0.2632 0.62944 0.0
C570 C 0.76561 0.27962 0.6463 0.0
C571 C 0.76281 0.2759 0.67169 0.0
H572 H 0.75818 0.26617 0.6098 0.0
H573 H 0.72763 0.23041 0.85575 0.0
H574 H 0.23973 0.33761 0.67732 0.0
H575 H 0.26114 0.31042 0.70485 0.0
H576 H 0.19717 0.26829 0.7144 0.0
H577 H 0.17541 0.29567 0.68718 0.0
H578 H 0.22045 0.27376 0.75768 0.0
H579 H 0.24097 0.25119 0.67459 0.0
H580 H 0.25575 0.25824 0.6324 0.0
H581 H 0.32416 0.27907 0.66125 0.0
H582 H 0.30953 0.27265 0.70376 0.0
H583 H 0.26716 0.16283 0.79681 0.0
H584 H 0.24857 0.19496 0.77314 0.0
H585 H 0.31535 0.23349 0.77171 0.0
H586 H 0.33431 0.20126 0.79554 0.0
H587 H 0.29279 0.23234 0.72613 0.0
H588 H 0.27302 0.25241 0.80931 0.0
H589 H 0.25808 0.24521 0.85153 0.0
H590 H 0.1886 0.22859 0.82264 0.0
H591 H 0.20321 0.23534 0.78019 0.0
C592 C 0.23013 0.32263 0.68531 0.0
C593 C 0.20585 0.31875 0.67984 0.0
C594 C 0.24245 0.30706 0.70104 0.0
C595 C 0.23085 0.28713 0.71142 0.0
C596 C 0.20648 0.28355 0.70656 0.0
C597 C 0.19409 0.29918 0.69091 0.0
C598 C 0.24429 0.2696 0.72674 0.0
C599 C 0.23613 0.26454 0.75071 0.0
C600 C 0.26515 0.25804 0.71789 0.0
C601 C 0.27407 0.26169 0.69236 0.0
C602 C 0.2591 0.25746 0.67195 0.0
C603 C 0.26748 0.26133 0.64796 0.0
C604 C 0.29091 0.26913 0.64411 0.0
C605 C 0.30601 0.27306 0.66426 0.0
C606 C 0.29767 0.26933 0.68831 0.0
C607 C 0.27802 0.17805 0.79145 0.0
C608 C 0.30228 0.17944 0.79817 0.0
C609 C 0.26727 0.19649 0.77802 0.0
C610 C 0.28049 0.21674 0.77098 0.0
C611 C 0.30482 0.21804 0.77711 0.0
C612 C 0.31561 0.19962 0.79073 0.0
C613 C 0.26877 0.23631 0.75693 0.0
C614 C 0.27724 0.24174 0.7332 0.0
C615 C 0.2482 0.24818 0.766 0.0
C616 C 0.23928 0.24419 0.79153 0.0
C617 C 0.25461 0.24703 0.81193 0.0
C618 C 0.24618 0.24306 0.83592 0.0
C619 C 0.22242 0.2364 0.83976 0.0
C620 C 0.20701 0.23374 0.81963 0.0
C621 C 0.21535 0.23766 0.7956 0.0
H622 H 0.21593 0.23334 0.85835 0.0
H623 H 0.29741 0.27208 0.62552 0.0
H624 H 0.18603 0.91708 0.30159 0.0
H625 H 0.18796 0.95341 0.27643 0.0
H626 H 0.11093 0.95743 0.27632 0.0
H627 H 0.10901 0.9204 0.30046 0.0
H628 H 0.12534 0.96886 0.23367 0.0
H629 H 0.14858 0.99344 0.31503 0.0
H630 H 0.17195 0.99253 0.35366 0.0
H631 H 0.23612 0.00732 0.31295 0.0
H632 H 0.21317 0.00801 0.27402 0.0
H633 H 0.11491 0.0933 0.20484 0.0
H634 H 0.11564 0.05616 0.22894 0.0
H635 H 0.18811 0.04305 0.20568 0.0
H636 H 0.1874 0.07981 0.18101 0.0
H637 H 0.17713 0.03672 0.25935 0.0
H638 H 0.15077 0.01301 0.17762 0.0
H639 H 0.12495 0.01591 0.14083 0.0
H640 H 0.06316 0.0019 0.18558 0.0
H641 H 0.0886 0.99926 0.22272 0.0
C642 C 0.16955 0.92572 0.29622 0.0
C643 C 0.14738 0.9161 0.30317 0.0
C644 C 0.17065 0.94656 0.2819 0.0
C645 C 0.1496 0.95855 0.27494 0.0
C646 C 0.12743 0.94859 0.28148 0.0
C647 C 0.12634 0.92745 0.29529 0.0
C648 C 0.15059 0.98145 0.26087 0.0
C649 C 0.13648 0.98374 0.23954 0.0
C650 C 0.16535 0.00087 0.26821 0.0
C651 C 0.17919 0.00053 0.29159 0.0
C652 C 0.1677 0.99632 0.3143 0.0
C653 C 0.18087 0.99587 0.33625 0.0
C654 C 0.20551 0.9998 0.33575 0.0
C655 C 0.21704 0.00425 0.3133 0.0
C656 C 0.20396 0.00469 0.2913 0.0
C657 C 0.13109 0.08263 0.20497 0.0
C658 C 0.15113 0.08955 0.19101 0.0
C659 C 0.13143 0.06142 0.2187 0.0
C660 C 0.1519 0.04694 0.21895 0.0
C661 C 0.17218 0.05409 0.20569 0.0
C662 C 0.17172 0.07511 0.1916 0.0
C663 C 0.15183 0.02394 0.2325 0.0
C664 C 0.16609 0.0217 0.25364 0.0
C665 C 0.13685 0.00477 0.22532 0.0
C666 C 0.12157 0.00618 0.20298 0.0
C667 C 0.13166 0.01076 0.17965 0.0
C668 C 0.11709 0.01231 0.15873 0.0
C669 C 0.09242 0.00916 0.16087 0.0
C670 C 0.08227 0.00437 0.18395 0.0
C671 C 0.09676 0.00282 0.20494 0.0
H672 H 0.08118 0.01036 0.14465 0.0
H673 H 0.21567 0.99944 0.35276 0.0
H674 H 0.87651 0.40088 0.2191 0.0
H675 H 0.87267 0.43676 0.24481 0.0
H676 H 0.82549 0.46829 0.19069 0.0
H677 H 0.82855 0.43213 0.16543 0.0
H678 H 0.88594 0.47989 0.23712 0.0
H679 H 0.78758 0.5076 0.21672 0.0
H680 H 0.74883 0.48819 0.20824 0.0
H681 H 0.77227 0.4245 0.2458 0.0
H682 H 0.81102 0.44364 0.2548 0.0
H683 H 0.87308 0.6004 0.27195 0.0
H684 H 0.87119 0.56311 0.2482 0.0
H685 H 0.82186 0.53355 0.30143 0.0
H686 H 0.8229 0.57113 0.32462 0.0
H687 H 0.80918 0.51931 0.25837 0.0
H688 H 0.88312 0.52026 0.30227 0.0
H689 H 0.92187 0.53652 0.31605 0.0
H690 H 0.94705 0.53696 0.24109 0.0
H691 H 0.90832 0.52099 0.22682 0.0
C692 C 0.8651 0.41536 0.21285 0.0
C693 C 0.85276 0.41368 0.19031 0.0
C694 C 0.86297 0.43589 0.22751 0.0
C695 C 0.84864 0.4552 0.21982 0.0
C696 C 0.83624 0.45347 0.19733 0.0
C697 C 0.83808 0.43281 0.18284 0.0
C698 C 0.84758 0.47756 0.23473 0.0
C699 C 0.86913 0.48845 0.2418 0.0
C700 C 0.82567 0.48856 0.2413 0.0
C701 C 0.80229 0.477 0.23622 0.0
C702 C 0.78443 0.48949 0.22326 0.0
C703 C 0.76247 0.47853 0.21835 0.0
C704 C 0.75812 0.4551 0.22641 0.0
C705 C 0.77569 0.44262 0.23948 0.0
C706 C 0.79767 0.4535 0.24447 0.0
C707 C 0.86164 0.58603 0.27842 0.0
C708 C 0.84826 0.5886 0.30021 0.0
C709 C 0.86067 0.56468 0.26492 0.0
C710 C 0.84679 0.54529 0.27331 0.0
C711 C 0.83275 0.54819 0.2946 0.0
C712 C 0.83339 0.56969 0.30786 0.0
C713 C 0.84754 0.52175 0.26044 0.0
C714 C 0.82596 0.51069 0.2537 0.0
C715 C 0.8694 0.51011 0.25496 0.0
C716 C 0.89275 0.51965 0.26346 0.0
C717 C 0.89687 0.52398 0.28871 0.0
C718 C 0.91883 0.53312 0.29661 0.0
C719 C 0.93689 0.53783 0.27945 0.0
C720 C 0.93303 0.53334 0.25436 0.0
C721 C 0.91109 0.52422 0.24636 0.0
H722 H 0.95388 0.5449 0.2856 0.0
H723 H 0.74112 0.44665 0.22257 0.0
H724 H 0.26869 0.14975 0.90002 0.0
H725 H 0.25133 0.16221 0.93933 0.0
H726 H 0.32145 0.17983 0.96687 0.0
H727 H 0.33907 0.16756 0.9273 0.0
H728 H 0.29531 0.14723 0.9962 0.0
H729 H 0.28391 0.22404 0.95856 0.0
H730 H 0.27116 0.25147 0.92533 0.0
H731 H 0.19861 0.22796 0.93395 0.0
H732 H 0.21096 0.2001 0.96699 0.0
H733 H 0.24463 0.16807 0.11134 0.0
H734 H 0.26696 0.17806 0.0739 0.0
H735 H 0.20187 0.17413 0.03129 0.0
H736 H 0.1793 0.16562 0.06906 0.0
H737 H 0.22983 0.20558 0.01081 0.0
H738 H 0.24 0.12451 0.03966 0.0
H739 H 0.25028 0.09279 0.06965 0.0
H740 H 0.32204 0.11967 0.07404 0.0
H741 H 0.31208 0.15175 0.04429 0.0
C742 C 0.28042 0.1566 0.9143 0.0
C743 C 0.30528 0.15747 0.91067 0.0
C744 C 0.27044 0.16389 0.93667 0.0
C745 C 0.2851 0.17206 0.9559 0.0
C746 C 0.30986 0.1737 0.95213 0.0
C747 C 0.31987 0.16671 0.92956 0.0
C748 C 0.2747 0.17612 0.98067 0.0
C749 C 0.28145 0.16044 -0.00035 0.0
C750 C 0.256 0.19274 0.98471 0.0
C751 C 0.24841 0.20986 0.96519 0.0
C752 C 0.26525 0.22461 0.95329 0.0
C753 C 0.2581 0.24025 0.93448 0.0
C754 C 0.2341 0.24143 0.9275 0.0
C755 C 0.2172 0.22703 0.93938 0.0
C756 C 0.22426 0.21134 0.95818 0.0
C757 C 0.23505 0.16996 0.09405 0.0
C758 C 0.21035 0.16581 0.09293 0.0
C759 C 0.24781 0.17555 0.07266 0.0
C760 C 0.23623 0.17609 0.04963 0.0
C761 C 0.21125 0.17368 0.0488 0.0
C762 C 0.19835 0.16877 0.07036 0.0
C763 C 0.2503 0.17648 0.02635 0.0
C764 C 0.24412 0.19281 0.0076 0.0
C765 C 0.26917 0.15998 0.02217 0.0
C766 C 0.27522 0.14069 0.04001 0.0
C767 C 0.25792 0.12375 0.04716 0.0
C768 C 0.2637 0.1057 0.06409 0.0
C769 C 0.28678 0.10427 0.0738 0.0
C770 C 0.30416 0.12084 0.06654 0.0
C771 C 0.29846 0.13896 0.04965 0.0
H772 H 0.29122 0.09028 0.0869 0.0
H773 H 0.22861 0.25351 0.9129 0.0
H774 H 0.83728 0.32964 0.06835 0.0
H775 H 0.81971 0.31882 0.02835 0.0
H776 H 0.74974 0.33698 0.0559 0.0
H777 H 0.76707 0.348 0.09571 0.0
H778 H 0.75072 0.29555 0.02365 0.0
H779 H 0.7786 0.37879 0.02821 0.0
H780 H 0.80956 0.40958 0.03513 0.0
H781 H 0.85287 0.37822 0.97813 0.0
H782 H 0.82226 0.34704 0.97113 0.0
H783 H 0.67857 0.33846 0.92607 0.0
H784 H 0.70116 0.32756 0.96304 0.0
H785 H 0.76663 0.32941 0.92085 0.0
H786 H 0.74418 0.34167 0.88426 0.0
H787 H 0.77284 0.35425 0.95863 0.0
H788 H 0.74201 0.27576 0.9477 0.0
H789 H 0.71184 0.24435 0.94028 0.0
H790 H 0.67569 0.26387 0.00732 0.0
H791 H 0.70544 0.29565 0.01497 0.0
C792 C 0.8181 0.33083 0.06604 0.0
C793 C 0.80359 0.34001 0.08502 0.0
C794 C 0.80811 0.32462 0.04322 0.0
C795 C 0.78347 0.32725 0.03921 0.0
C796 C 0.76878 0.33477 0.05868 0.0
C797 C 0.77875 0.34126 0.08134 0.0
C798 C 0.77328 0.32538 0.01407 0.0
C799 C 0.75548 0.30828 0.0093 0.0
C800 C 0.78005 0.34162 0.99528 0.0
C801 C 0.79832 0.36044 -0.00063 0.0
C802 C 0.79482 0.37836 0.0173 0.0
C803 C 0.81228 0.3959 0.02121 0.0
C804 C 0.83321 0.39581 0.00714 0.0
C805 C 0.83668 0.37823 0.98906 0.0
C806 C 0.81929 0.36063 0.98512 0.0
C807 C 0.69773 0.33606 0.92463 0.0
C808 C 0.70969 0.34112 0.90244 0.0
C809 C 0.71065 0.32965 0.94574 0.0
C810 C 0.73568 0.32748 0.9448 0.0
C811 C 0.74739 0.33109 0.92215 0.0
C812 C 0.73456 0.33808 0.90124 0.0
C813 C 0.74981 0.32447 0.96788 0.0
C814 C 0.76833 0.3409 0.97246 0.0
C815 C 0.74385 0.30736 0.98628 0.0
C816 C 0.72591 0.28821 0.98183 0.0
C817 C 0.72754 0.27348 0.96078 0.0
C818 C 0.71052 0.25558 0.95655 0.0
C819 C 0.69184 0.25214 0.9733 0.0
C820 C 0.69017 0.26656 0.99435 0.0
C821 C 0.70714 0.28449 0.99867 0.0
H822 H 0.67868 0.23828 0.96998 0.0
H823 H 0.8467 0.4094 0.01018 0.0
H824 H 0.33265 0.82892 0.56884 0.0
H825 H 0.3144 0.81849 0.52906 0.0
H826 H 0.24527 0.83901 0.55715 0.0
H827 H 0.26332 0.84973 0.59674 0.0
H828 H 0.24531 0.79671 0.52503 0.0
H829 H 0.2739 0.87967 0.529 0.0
H830 H 0.3051 0.91024 0.53574 0.0
H831 H 0.34811 0.87826 0.47887 0.0
H832 H 0.31726 0.84729 0.47206 0.0
H833 H 0.17428 0.83854 0.4257 0.0
H834 H 0.19627 0.8281 0.46323 0.0
H835 H 0.26237 0.82906 0.42207 0.0
H836 H 0.24052 0.84088 0.38495 0.0
H837 H 0.26806 0.85459 0.45945 0.0
H838 H 0.23705 0.77596 0.44943 0.0
H839 H 0.20681 0.74457 0.44225 0.0
H840 H 0.17012 0.76533 0.50857 0.0
H841 H 0.19995 0.79709 0.51599 0.0
C842 C 0.3135 0.83073 0.56669 0.0
C843 C 0.29945 0.84046 0.58577 0.0
C844 C 0.30312 0.82474 0.54401 0.0
C845 C 0.27854 0.8281 0.54023 0.0
C846 C 0.26426 0.83622 0.55978 0.0
C847 C 0.27465 0.84253 0.58229 0.0
C848 C 0.26811 0.82628 0.5152 0.0
C849 C 0.25019 0.80928 0.51057 0.0
C850 C 0.27502 0.84231 0.49628 0.0
C851 C 0.29344 0.86102 0.50025 0.0
C852 C 0.2901 0.87905 0.51809 0.0
C853 C 0.3077 0.89647 0.5219 0.0
C854 C 0.32861 0.89615 0.5078 0.0
C855 C 0.33193 0.87845 0.48982 0.0
C856 C 0.3144 0.86097 0.48598 0.0
C857 C 0.19344 0.83601 0.42463 0.0
C858 C 0.20577 0.84072 0.40257 0.0
C859 C 0.20602 0.82988 0.44605 0.0
C860 C 0.23106 0.82764 0.44556 0.0
C861 C 0.24312 0.83083 0.42303 0.0
C862 C 0.23064 0.83755 0.40182 0.0
C863 C 0.24486 0.82499 0.4689 0.0
C864 C 0.2634 0.84142 0.47342 0.0
C865 C 0.23867 0.80817 0.48749 0.0
C866 C 0.22068 0.78904 0.48317 0.0
C867 C 0.22244 0.77396 0.4624 0.0
C868 C 0.20539 0.75607 0.4583 0.0
C869 C 0.18654 0.75298 0.47492 0.0
C870 C 0.18473 0.76775 0.49571 0.0
C871 C 0.20174 0.78568 0.49989 0.0
H872 H 0.17335 0.73913 0.47171 0.0
H873 H 0.34221 0.90965 0.51077 0.0
H874 H 0.67194 0.67573 0.5703 0.0
H875 H 0.69033 0.68634 0.53067 0.0
H876 H 0.759 0.66366 0.55816 0.0
H877 H 0.74082 0.65282 0.59766 0.0
H878 H 0.76024 0.70596 0.5265 0.0
H879 H 0.72894 0.62416 0.52942 0.0
H880 H 0.69693 0.59443 0.53605 0.0
H881 H 0.65432 0.62846 0.48012 0.0
H882 H 0.68599 0.65862 0.47343 0.0
H883 H 0.82761 0.66521 0.42361 0.0
H884 H 0.80708 0.67486 0.46223 0.0
H885 H 0.73974 0.677 0.42332 0.0
H886 H 0.76012 0.66594 0.38508 0.0
H887 H 0.73448 0.65043 0.45999 0.0
H888 H 0.76774 0.72851 0.45155 0.0
H889 H 0.7989 0.75905 0.44464 0.0
H890 H 0.83633 0.73489 0.50928 0.0
H891 H 0.80557 0.70396 0.51641 0.0
C892 C 0.69104 0.67352 0.5681 0.0
C893 C 0.70488 0.66313 0.58697 0.0
C894 C 0.7015 0.67959 0.54548 0.0
C895 C 0.72597 0.67562 0.54151 0.0
C896 C 0.74011 0.66691 0.56091 0.0
C897 C 0.72964 0.66055 0.58339 0.0
C898 C 0.73629 0.67742 0.51641 0.0
C899 C 0.75472 0.69389 0.51185 0.0
C900 C 0.7286 0.66202 0.49726 0.0
C901 C 0.70968 0.64379 0.50115 0.0
C902 C 0.71266 0.62541 0.5187 0.0
C903 C 0.6946 0.60847 0.52244 0.0
C904 C 0.67357 0.6096 0.50857 0.0
C905 C 0.6706 0.62764 0.49089 0.0
C906 C 0.68859 0.64465 0.48711 0.0
C907 C 0.80851 0.66826 0.42327 0.0
C908 C 0.79539 0.66466 0.40148 0.0
C909 C 0.79675 0.67394 0.44534 0.0
C910 C 0.77178 0.67682 0.44579 0.0
C911 C 0.75896 0.67472 0.42357 0.0
C912 C 0.7706 0.66845 0.40171 0.0
C913 C 0.75874 0.67908 0.46966 0.0
C914 C 0.73982 0.66309 0.47419 0.0
C915 C 0.76586 0.69518 0.48858 0.0
C916 C 0.78441 0.71379 0.48441 0.0
C917 C 0.7827 0.72958 0.4642 0.0
C918 C 0.80028 0.74699 0.46026 0.0
C919 C 0.8196 0.74888 0.47648 0.0
C920 C 0.82135 0.7334 0.49672 0.0
C921 C 0.80383 0.71595 0.50074 0.0
H922 H 0.8332 0.76236 0.4734 0.0
H923 H 0.65961 0.59646 0.51149 0.0
H924 H 0.9197 0.29918 0.20175 0.0
H925 H 0.95756 0.27757 0.19959 0.0
H926 H 0.95358 0.27749 0.12 0.0
H927 H 0.91545 0.29894 0.12196 0.0
H928 H 0.97031 0.23484 0.13789 0.0
H929 H 0.98773 0.31832 0.14858 0.0
H930 H 0.98476 0.35814 0.16822 0.0
H931 H 0.01184 0.32901 0.23614 0.0
H932 H 0.01465 0.28892 0.217 0.0
H933 H 0.09272 0.20425 0.12199 0.0
H934 H 0.05542 0.2271 0.11979 0.0
H935 H 0.0531 0.23071 0.19939 0.0
H936 H 0.09039 0.20814 0.20177 0.0
H937 H 0.04011 0.27294 0.17865 0.0
H938 H 0.02067 0.18916 0.16855 0.0
H939 H 0.02341 0.14924 0.14905 0.0
H940 H 1.00017 0.17906 0.07993 0.0
H941 H 0.9976 0.21924 0.09896 0.0
C942 C 0.92669 0.29433 0.18377 0.0
C943 C 0.91466 0.30101 0.16202 0.0
C944 C 0.94841 0.28208 0.18257 0.0
C945 C 0.95863 0.27638 0.15962 0.0
C946 C 0.94608 0.28187 0.13789 0.0
C947 C 0.92429 0.29413 0.13906 0.0
C948 C 0.98279 0.2655 0.15839 0.0
C949 C 0.98566 0.24333 0.14647 0.0
C950 C 0.00274 0.27645 0.16987 0.0
C951 C 0.0012 0.30057 0.18141 0.0
C952 C 0.99288 0.32036 0.16776 0.0
C953 C 0.99125 0.34299 0.17879 0.0
C954 C 0.99805 0.34609 0.20343 0.0
C955 C 0.00656 0.32658 0.21707 0.0
C956 C 0.00819 0.3039 0.20613 0.0
C957 C 0.08445 0.2102 0.13902 0.0
C958 C 0.09443 0.20421 0.16207 0.0
C959 C 0.06306 0.22313 0.13773 0.0
C960 C 0.05129 0.23026 0.15944 0.0
C961 C 0.06182 0.22529 0.1824 0.0
C962 C 0.08314 0.21234 0.18372 0.0
C963 C 0.02758 0.24213 0.15843 0.0
C964 C 0.0248 0.26452 0.16992 0.0
C965 C 0.00774 0.23138 0.14654 0.0
C966 C 0.00921 0.20724 0.1351 0.0
C967 C 0.01634 0.18723 0.14914 0.0
C968 C 0.01782 0.16456 0.13819 0.0
C969 C 0.01204 0.16163 0.11325 0.0
C970 C 0.00469 0.18136 0.09923 0.0
C971 C 0.0032 0.20409 0.11009 0.0
H972 H 0.01319 0.14406 0.1048 0.0
H973 H 0.99678 0.36363 0.21194 0.0
H974 H 0.89821 0.71964 0.35521 0.0
H975 H 0.93178 0.74766 0.35859 0.0
H976 H 0.98129 0.68889 0.35005 0.0
H977 H 0.94802 0.66084 0.34727 0.0
H978 H 0.9963 0.71784 0.38519 0.0
H979 H 0.96793 0.72758 0.30187 0.0
H980 H 0.93792 0.73558 0.26954 0.0
H981 H 0.92541 0.80572 0.29977 0.0
H982 H 0.95515 0.79802 0.33249 0.0
H983 H 0.10055 0.78485 0.3521 0.0
H984 H 0.06643 0.75728 0.35268 0.0
H985 H 0.01883 0.81681 0.36577 0.0
H986 H 0.05263 0.8444 0.36508 0.0
H987 H 0.00253 0.78809 0.32922 0.0
H988 H 0.0323 0.77839 0.41187 0.0
H989 H 0.06274 0.77007 0.44367 0.0
H990 H 0.07323 0.6994 0.41391 0.0
H991 H 0.04307 0.70743 0.3817 0.0
C992 C 0.91625 0.71271 0.35409 0.0
C993 C 0.92043 0.68802 0.35089 0.0
C994 C 0.93543 0.72874 0.35594 0.0
C995 C 0.95908 0.72041 0.35429 0.0
C996 C 0.96323 0.69575 0.3514 0.0
C997 C 0.94414 0.67973 0.34972 0.0
C998 C 0.97961 0.73728 0.35539 0.0
C999 C 0.99778 0.73305 0.37276 0.0
C1000 C 0.98137 0.7574 0.3395 0.0
C1001 C 0.96358 0.76212 0.31977 0.0
C1002 C 0.95866 0.74464 0.30173 0.0
C1003 C 0.94172 0.74913 0.28331 0.0
C1004 C 0.92972 0.77112 0.28264 0.0
C1005 C 0.93469 0.78869 0.30034 0.0
C1006 C 0.9516 0.78428 0.31881 0.0
C1007 C 0.08283 0.79203 0.35527 0.0
C1008 C 0.07932 0.81682 0.35852 0.0
C1009 C 0.06337 0.77625 0.35566 0.0
C1010 C 0.04009 0.785 0.35938 0.0
C1011 C 0.03661 0.80969 0.36283 0.0
C1012 C 0.056 0.82542 0.36251 0.0
C1013 C 0.01922 0.76859 0.35895 0.0
C1014 C 0.001 0.77291 0.34169 0.0
C1015 C 0.01749 0.7485 0.37484 0.0
C1016 C 0.03559 0.7436 0.39423 0.0
C1017 C 0.04124 0.76115 0.41198 0.0
C1018 C 0.05842 0.75647 0.4301 0.0
C1019 C 0.06996 0.73424 0.43077 0.0
C1020 C 0.0643 0.71662 0.41335 0.0
C1021 C 0.04715 0.72122 0.39517 0.0
H1022 H 0.08326 0.73065 0.44481 0.0
H1023 H 0.9166 0.77456 0.26838 0.0
H1024 H 0.59605 0.71068 0.66246 0.0
H1025 H 0.55921 0.73386 0.66694 0.0
H1026 H 0.53364 0.70593 0.59749 0.0
H1027 H 0.57042 0.68266 0.59282 0.0
H1028 H 0.52373 0.75474 0.60381 0.0
H1029 H 0.51463 0.6807 0.64861 0.0
H1030 H 0.52626 0.6497 0.67885 0.0
H1031 H 0.52307 0.70172 0.73731 0.0
H1032 H 0.51176 0.73313 0.70734 0.0
H1033 H 0.40264 0.78805 0.62063 0.0
H1034 H 0.43835 0.76367 0.61356 0.0
H1035 H 0.46418 0.78184 0.68633 0.0
H1036 H 0.42834 0.8056 0.69377 0.0
H1037 H 0.47351 0.73676 0.6771 0.0
H1038 H 0.48413 0.81107 0.63318 0.0
H1039 H 0.47352 0.84292 0.60348 0.0
H1040 H 0.47483 0.79174 0.54416 0.0
H1041 H 0.48516 0.75951 0.57358 0.0
C1042 C 0.58276 0.70972 0.64794 0.0
C1043 C 0.58609 0.69466 0.62737 0.0
C1044 C 0.56167 0.72289 0.6506 0.0
C1045 C 0.54356 0.7213 0.63273 0.0
C1046 C 0.54735 0.70731 0.61154 0.0
C1047 C 0.56838 0.694 0.60894 0.0
C1048 C 0.52025 0.73331 0.63671 0.0
C1049 C 0.51258 0.75062 0.61965 0.0
C1050 C 0.50594 0.7282 0.65762 0.0
C1051 C 0.51258 0.70931 0.6757 0.0
C1052 C 0.51659 0.68557 0.66789 0.0
C1053 C 0.5231 0.66792 0.68498 0.0
C1054 C 0.52546 0.67375 0.70997 0.0
C1055 C 0.52126 0.69724 0.71793 0.0
C1056 C 0.51479 0.71497 0.70091 0.0
C1057 C 0.41579 0.78661 0.63524 0.0
C1058 C 0.41271 0.79893 0.6577 0.0
C1059 C 0.43628 0.7728 0.63111 0.0
C1060 C 0.45422 0.77133 0.64922 0.0
C1061 C 0.45067 0.78278 0.67202 0.0
C1062 C 0.43013 0.7964 0.67624 0.0
C1063 C 0.47699 0.75845 0.64432 0.0
C1064 C 0.48458 0.7409 0.6612 0.0
C1065 C 0.4913 0.76349 0.62334 0.0
C1066 C 0.48516 0.78284 0.60561 0.0
C1067 C 0.48198 0.80658 0.61383 0.0
C1068 C 0.47605 0.8247 0.59704 0.0
C1069 C 0.47343 0.81934 0.57196 0.0
C1070 C 0.47682 0.79586 0.5636 0.0
C1071 C 0.48273 0.77766 0.58032 0.0
H1072 H 0.46884 0.8334 0.55899 0.0
H1073 H 0.53049 0.66006 0.72318 0.0
H1074 H 0.8894 0.08064 0.69086 0.0
H1075 H 0.89718 0.04865 0.72121 0.0
H1076 H 0.82137 0.03959 0.7318 0.0
H1077 H 0.8135 0.07099 0.70151 0.0
H1078 H 0.84846 0.0405 0.77633 0.0
H1079 H 0.84866 0.00328 0.6943 0.0
H1080 H 0.86424 0.99819 0.65199 0.0
H1081 H 0.93381 0.98212 0.68106 0.0
H1082 H 0.91866 0.98744 0.72356 0.0
H1083 H 0.8123 0.93048 0.81928 0.0
H1084 H 0.82071 0.96515 0.79349 0.0
H1085 H 0.89545 0.94644 0.79209 0.0
H1086 H 0.88708 0.91106 0.81787 0.0
H1087 H 0.87982 0.96221 0.74689 0.0
H1088 H 0.87781 0.99135 0.82905 0.0
H1089 H 0.86258 0.99616 0.87151 0.0
H1090 H 0.79835 0.02826 0.84345 0.0
H1091 H 0.81302 0.02332 0.80078 0.0
C1092 C 0.87445 0.07198 0.69992 0.0
C1093 C 0.85084 0.0782 0.69374 0.0
C1094 C 0.87892 0.0537 0.71713 0.0
C1095 C 0.85982 0.04175 0.72862 0.0
C1096 C 0.83633 0.04862 0.72315 0.0
C1097 C 0.83187 0.0665 0.70575 0.0
C1098 C 0.86376 0.02134 0.74567 0.0
C1099 C 0.8554 0.0234 0.76998 0.0
C1100 C 0.8736 0.99932 0.73756 0.0
C1101 C 0.88262 0.99608 0.71206 0.0
C1102 C 0.86733 0.99889 0.69165 0.0
C1103 C 0.87607 0.99591 0.66764 0.0
C1104 C 0.90002 0.98993 0.66383 0.0
C1105 C 0.91527 0.98682 0.68403 0.0
C1106 C 0.90662 0.98981 0.70808 0.0
C1107 C 0.83056 0.93358 0.81347 0.0
C1108 C 0.84907 0.91814 0.82092 0.0
C1109 C 0.83535 0.95351 0.79877 0.0
C1110 C 0.8588 0.95875 0.79141 0.0
C1111 C 0.87726 0.94285 0.79781 0.0
C1112 C 0.87244 0.92265 0.81249 0.0
C1113 C 0.86354 0.98109 0.7773 0.0
C1114 C 0.87353 0.97945 0.75357 0.0
C1115 C 0.85539 0.00363 0.78602 0.0
C1116 C 0.84651 0.00687 0.81168 0.0
C1117 C 0.86038 0.99931 0.83192 0.0
C1118 C 0.85185 0.00207 0.85603 0.0
C1119 C 0.8295 0.01249 0.86017 0.0
C1120 C 0.81566 0.02021 0.84021 0.0
C1121 C 0.8241 0.01747 0.81605 0.0
H1122 H 0.82292 0.0146 0.87886 0.0
H1123 H 0.90676 0.98762 0.64523 0.0
H1124 H 0.18481 0.57256 0.79649 0.0
H1125 H 0.17588 0.54118 0.76651 0.0
H1126 H 0.10046 0.55078 0.77927 0.0
H1127 H 0.10929 0.58277 0.80932 0.0
H1128 H 0.11851 0.50107 0.78189 0.0
H1129 H 0.11726 0.56793 0.72717 0.0
H1130 H 0.1316 0.60601 0.70932 0.0
H1131 H 0.19669 0.57172 0.68665 0.0
H1132 H 0.18292 0.5335 0.7047 0.0
H1133 H 0.11166 0.41042 0.68536 0.0
H1134 H 0.10299 0.44596 0.71072 0.0
H1135 H 0.17664 0.46803 0.70471 0.0
H1136 H 0.18528 0.43319 0.67933 0.0
H1137 H 0.1479 0.50471 0.69549 0.0
H1138 H 0.15341 0.44158 0.75748 0.0
H1139 H 0.14138 0.4035 0.77715 0.0
H1140 H 0.07024 0.43063 0.78717 0.0
H1141 H 0.08181 0.46879 0.76727 0.0
C1142 C 0.16629 0.56819 0.79281 0.0
C1143 C 0.14774 0.58011 0.80527 0.0
C1144 C 0.16122 0.55029 0.77562 0.0
C1145 C 0.13753 0.54374 0.77067 0.0
C1146 C 0.11886 0.55567 0.78286 0.0
C1147 C 0.12392 0.57398 0.79986 0.0
C1148 C 0.13288 0.52376 0.75331 0.0
C1149 C 0.12429 0.50195 0.76277 0.0
C1150 C 0.14076 0.52495 0.72854 0.0
C1151 C 0.14907 0.54785 0.71739 0.0
C1152 C 0.1347 0.56853 0.71852 0.0
C1153 C 0.14272 0.59015 0.70835 0.0
C1154 C 0.16505 0.59129 0.69688 0.0
C1155 C 0.17939 0.5708 0.69552 0.0
C1156 C 0.17146 0.54914 0.70569 0.0
C1157 C 0.126 0.42279 0.68962 0.0
C1158 C 0.14913 0.41901 0.68019 0.0
C1159 C 0.12102 0.44308 0.70409 0.0
C1160 C 0.13916 0.45973 0.70952 0.0
C1161 C 0.16229 0.45562 0.70053 0.0
C1162 C 0.16722 0.43557 0.68606 0.0
C1163 C 0.13456 0.48167 0.72435 0.0
C1164 C 0.14142 0.5039 0.71437 0.0
C1165 C 0.1253 0.48078 0.74869 0.0
C1166 C 0.11837 0.45788 0.7606 0.0
C1167 C 0.13515 0.43933 0.76369 0.0
C1168 C 0.12843 0.41776 0.77491 0.0
C1169 C 0.10504 0.41461 0.78332 0.0
C1170 C 0.08834 0.43307 0.78059 0.0
C1171 C 0.09496 0.45467 0.76935 0.0
H1172 H 0.09987 0.3979 0.79201 0.0
H1173 H 0.17124 0.60805 0.68903 0.0
H1174 H 0.66164 0.80286 0.06762 0.0
H1175 H 0.69136 0.79388 0.03557 0.0
H1176 H 0.71997 0.86537 0.04262 0.0
H1177 H 0.68999 0.87483 0.07376 0.0
H1178 H 0.70175 0.82199 0.9887 0.0
H1179 H 0.78138 0.85484 0.04795 0.0
H1180 H 0.79235 0.85679 0.09206 0.0
H1181 H 0.74815 0.79556 0.1072 0.0
H1182 H 0.73731 0.79291 0.06311 0.0
H1183 H 0.79749 0.87147 0.92365 0.0
H1184 H 0.76732 0.86281 0.95476 0.0
H1185 H 0.7996 0.79385 0.96855 0.0
H1186 H 0.8297 0.80205 0.9366 0.0
H1187 H 0.78743 0.82342 0.01248 0.0
H1188 H 0.75269 0.78999 0.93975 0.0
H1189 H 0.74135 0.78976 0.89572 0.0
H1190 H 0.69533 0.8503 0.90762 0.0
H1191 H 0.70677 0.85124 0.95163 0.0
C1192 C 0.67415 0.81673 0.0622 0.0
C1193 C 0.67372 0.83945 0.07358 0.0
C1194 C 0.69105 0.81155 0.04392 0.0
C1195 C 0.70795 0.82888 0.0371 0.0
C1196 C 0.70721 0.85169 0.04796 0.0
C1197 C 0.69013 0.857 0.06587 0.0
C1198 C 0.72678 0.82345 0.01885 0.0
C1199 C 0.72048 0.8219 0.99385 0.0
C1200 C 0.75112 0.82298 0.0258 0.0
C1201 C 0.7584 0.8238 0.0522 0.0
C1202 C 0.77417 0.84165 0.06063 0.0
C1203 C 0.78034 0.8429 0.08565 0.0
C1204 C 0.7709 0.82634 0.10243 0.0
C1205 C 0.7554 0.8084 0.09419 0.0
C1206 C 0.74923 0.80703 0.06919 0.0
C1207 C 0.7981 0.85432 0.93296 0.0
C1208 C 0.81576 0.83727 0.92726 0.0
C1209 C 0.78089 0.84946 0.95086 0.0
C1210 C 0.78115 0.82762 0.96369 0.0
C1211 C 0.79911 0.81077 0.95869 0.0
C1212 C 0.81622 0.81549 0.94044 0.0
C1213 C 0.76241 0.82279 0.98225 0.0
C1214 C 0.76872 0.82269 0.00733 0.0
C1215 C 0.73806 0.82153 0.97538 0.0
C1216 C 0.73069 0.82075 0.94901 0.0
C1217 C 0.74027 0.80336 0.93296 0.0
C1218 C 0.73381 0.80309 0.908 0.0
C1219 C 0.71764 0.82001 0.89888 0.0
C1220 C 0.70785 0.8372 0.91472 0.0
C1221 C 0.71429 0.83759 0.93969 0.0
H1222 H 0.71269 0.81978 0.87955 0.0
H1223 H 0.77561 0.8274 0.1218 0.0
H1224 H 0.21498 0.64352 0.89315 0.0
H1225 H 0.24515 0.64815 0.9254 0.0
H1226 H 0.18965 0.66393 0.97845 0.0
H1227 H 0.15964 0.66084 0.94565 0.0
H1228 H 0.2245 0.69017 0.98894 0.0
H1229 H 0.21842 0.60614 0.97205 0.0
H1230 H 0.21838 0.56939 0.94664 0.0
H1231 H 0.29107 0.58268 0.92537 0.0
H1232 H 0.29145 0.6197 0.95042 0.0
H1233 H 0.28812 0.64223 0.09514 0.0
H1234 H 0.26076 0.64608 0.06005 0.0
H1235 H 0.31878 0.67094 0.01434 0.0
H1236 H 0.34623 0.66766 0.0497 0.0
H1237 H 0.28496 0.62588 -0.00044 0.0
H1238 H 0.28866 0.71047 0.02215 0.0
H1239 H 0.28559 0.74403 0.05169 0.0
H1240 H 0.21282 0.72488 0.06721 0.0
H1241 H 0.21565 0.6909 0.03819 0.0
C1242 C 0.2093 0.64794 0.91171 0.0
C1243 C 0.18506 0.65144 0.91713 0.0
C1244 C 0.22652 0.65053 0.93018 0.0
C1245 C 0.2197 0.65572 0.95461 0.0
C1246 C 0.19543 0.65982 0.95982 0.0
C1247 C 0.17828 0.65797 0.94115 0.0
C1248 C 0.23775 0.65649 0.97478 0.0
C1249 C 0.23757 0.67598 0.99128 0.0
C1250 C 0.25502 0.63809 0.97792 0.0
C1251 C 0.25488 0.61582 0.96289 0.0
C1252 C 0.23434 0.60131 0.96182 0.0
C1253 C 0.23426 0.58042 0.9475 0.0
C1254 C 0.25469 0.57374 0.93434 0.0
C1255 C 0.27526 0.5879 0.93554 0.0
C1256 C 0.27542 0.60883 0.9498 0.0
C1257 C 0.29505 0.64845 0.07763 0.0
C1258 C 0.31929 0.65433 0.07494 0.0
C1259 C 0.27939 0.65084 0.05771 0.0
C1260 C 0.28785 0.65879 0.03475 0.0
C1261 C 0.31202 0.66486 0.03202 0.0
C1262 C 0.32759 0.66301 0.05214 0.0
C1263 C 0.27155 0.65945 0.01337 0.0
C1264 C 0.272 0.64012 0.99685 0.0
C1265 C 0.25411 0.67755 0.0107 0.0
C1266 C 0.25247 0.69796 0.02821 0.0
C1267 C 0.27211 0.71322 0.03211 0.0
C1268 C 0.2704 0.73236 0.04873 0.0
C1269 C 0.24906 0.73654 0.06142 0.0
C1270 C 0.22938 0.7216 0.05747 0.0
C1271 C 0.23103 0.7024 0.04093 0.0
H1272 H 0.24773 0.75142 0.0742 0.0
H1273 H 0.25459 0.55757 0.92327 0.0
H1274 H 0.71675 0.1431 0.39641 0.0
H1275 H 0.74535 0.14546 0.43032 0.0
H1276 H 0.69129 0.17717 0.47688 0.0
H1277 H 0.6627 0.17539 0.44251 0.0
H1278 H 0.73336 0.1966 0.48677 0.0
H1279 H 0.70323 0.11639 0.479 0.0
H1280 H 0.6936 0.07878 0.45713 0.0
H1281 H 0.76786 0.06825 0.44049 0.0
H1282 H 0.77789 0.10599 0.46199 0.0
H1283 H 0.79538 0.11846 0.58898 0.0
H1284 H 0.76718 0.12383 0.55535 0.0
H1285 H 0.80824 0.18399 0.52847 0.0
H1286 H 0.83582 0.17959 0.56321 0.0
H1287 H 0.77153 0.11927 0.50936 0.0
H1288 H 0.77249 0.22241 0.4955 0.0
H1289 H 0.7791 0.25915 0.52 0.0
H1290 H 0.75732 0.22212 0.58583 0.0
H1291 H 0.75003 0.18536 0.56167 0.0
C1292 C 0.71095 0.15054 0.41385 0.0
C1293 C 0.68738 0.15847 0.41711 0.0
C1294 C 0.72734 0.152 0.43319 0.0
C1295 C 0.72029 0.16088 0.45635 0.0
C1296 C 0.69709 0.17009 0.45922 0.0
C1297 C 0.68077 0.16903 0.43965 0.0
C1298 C 0.73663 0.15907 0.47786 0.0
C1299 C 0.74174 0.17972 0.49175 0.0
C1300 C 0.74721 0.13694 0.48464 0.0
C1301 C 0.74127 0.11411 0.47191 0.0
C1302 C 0.71748 0.10612 0.47055 0.0
C1303 C 0.71195 0.08478 0.45823 0.0
C1304 C 0.7301 0.07116 0.44738 0.0
C1305 C 0.75382 0.07883 0.44888 0.0
C1306 C 0.75944 0.10018 0.46115 0.0
C1307 C 0.79827 0.1331 0.57626 0.0
C1308 C 0.8177 0.1488 0.57908 0.0
C1309 C 0.78217 0.13605 0.55683 0.0
C1310 C 0.78535 0.15449 0.53946 0.0
C1311 C 0.80502 0.16997 0.54193 0.0
C1312 C 0.82088 0.16733 0.56173 0.0
C1313 C 0.76841 0.15683 0.51843 0.0
C1314 C 0.76323 0.13622 0.5045 0.0
C1315 C 0.75729 0.17886 0.51212 0.0
C1316 C 0.76098 0.20105 0.52679 0.0
C1317 C 0.76896 0.22216 0.51518 0.0
C1318 C 0.77281 0.243 0.52901 0.0
C1319 C 0.76866 0.24297 0.55447 0.0
C1320 C 0.76052 0.22214 0.56613 0.0
C1321 C 0.75652 0.20129 0.55237 0.0
H1322 H 0.77175 0.25909 0.56515 0.0
H1323 H 0.72578 0.05464 0.43784 0.0
H1324 H 0.17549 0.29875 0.57143 0.0
H1325 H 0.20297 0.29343 0.53638 0.0
H1326 H 0.22181 0.36841 0.54023 0.0
H1327 H 0.1946 0.37387 0.57483 0.0
H1328 H 0.21042 0.35288 0.4926 0.0
H1329 H 0.25753 0.32508 0.56407 0.0
H1330 H 0.26621 0.29743 0.59854 0.0
H1331 H 0.2664 0.23775 0.54832 0.0
H1332 H 0.25732 0.26498 0.51364 0.0
H1333 H 0.31502 0.37956 0.43121 0.0
H1334 H 0.28385 0.37243 0.46171 0.0
H1335 H 0.29073 0.29599 0.45067 0.0
H1336 H 0.32293 0.30311 0.42073 0.0
H1337 H 0.28437 0.30403 0.49713 0.0
H1338 H 0.24324 0.32841 0.42563 0.0
H1339 H 0.23416 0.35276 0.38877 0.0
H1340 H 0.21945 0.41375 0.43482 0.0
H1341 H 0.22886 0.38991 0.47196 0.0
C1342 C 0.18557 0.31405 0.56479 0.0
C1343 C 0.18298 0.33671 0.57597 0.0
C1344 C 0.20126 0.31097 0.54485 0.0
C1345 C 0.21443 0.33054 0.53579 0.0
C1346 C 0.21178 0.3531 0.54692 0.0
C1347 C 0.19631 0.35614 0.56683 0.0
C1348 C 0.23092 0.3281 0.51454 0.0
C1349 C 0.22664 0.34226 0.49356 0.0
C1350 C 0.2514 0.31325 0.51529 0.0
C1351 C 0.25646 0.29702 0.53632 0.0
C1352 C 0.25915 0.30603 0.56043 0.0
C1353 C 0.2642 0.29043 0.58 0.0
C1354 C 0.26682 0.26584 0.57561 0.0
C1355 C 0.26433 0.25679 0.55169 0.0
C1356 C 0.25922 0.27228 0.53209 0.0
C1357 C 0.30995 0.36122 0.43533 0.0
C1358 C 0.32125 0.3419 0.42352 0.0
C1359 C 0.29199 0.35715 0.45263 0.0
C1360 C 0.28442 0.33368 0.45799 0.0
C1361 C 0.29612 0.31426 0.44668 0.0
C1362 C 0.3145 0.31833 0.42963 0.0
C1363 C 0.26449 0.32978 0.47566 0.0
C1364 C 0.26799 0.31435 0.49585 0.0
C1365 C 0.2429 0.34295 0.47388 0.0
C1366 C 0.23688 0.35736 0.45161 0.0
C1367 C 0.23819 0.34705 0.42791 0.0
C1368 C 0.23299 0.36077 0.40695 0.0
C1369 C 0.22625 0.38479 0.40945 0.0
C1370 C 0.22466 0.39513 0.43292 0.0
C1371 C 0.22991 0.38151 0.45394 0.0
H1372 H 0.22224 0.39538 0.39321 0.0
H1373 H 0.27089 0.25376 0.59067 0.0
H1374 H 0.06788 0.67522 0.82911 0.0
H1375 H 0.03345 0.70175 0.82338 0.0
H1376 H 0.07796 0.76328 0.83825 0.0
H1377 H 0.11232 0.73698 0.84419 0.0
H1378 H 0.03884 0.76323 0.86669 0.0
H1379 H 0.0561 0.75286 0.78061 0.0
H1380 H 0.06381 0.73005 0.74239 0.0
H1381 H 0.99445 0.69753 0.74748 0.0
H1382 H 0.98644 0.7199 0.78594 0.0
H1383 H 0.95476 0.85361 0.84515 0.0
H1384 H 0.98974 0.82834 0.83815 0.0
H1385 H 0.94408 0.76704 0.82653 0.0
H1386 H 0.90886 0.79226 0.8333 0.0
H1387 H 0.98352 0.76694 0.79513 0.0
H1388 H 0.96713 0.77528 0.88183 0.0
H1389 H 0.95914 0.79741 0.92042 0.0
H1390 H 0.02706 0.83276 0.91446 0.0
H1391 H 0.0353 0.81108 0.8756 0.0
C1392 C 0.07041 0.69443 0.83077 0.0
C1393 C 0.09281 0.70396 0.83732 0.0
C1394 C 0.05073 0.70958 0.82741 0.0
C1395 C 0.05313 0.73451 0.83038 0.0
C1396 C 0.07568 0.74409 0.83595 0.0
C1397 C 0.09532 0.729 0.83931 0.0
C1398 C 0.0319 0.75048 0.82979 0.0
C1399 C 0.027 0.76432 0.85084 0.0
C1400 C 0.01602 0.75134 0.80944 0.0
C1401 C 0.02077 0.73788 0.7863 0.0
C1402 C 0.04257 0.74068 0.7737 0.0
C1403 C 0.04698 0.72786 0.75197 0.0
C1404 C 0.02966 0.7123 0.74255 0.0
C1405 C 0.00786 0.70957 0.75481 0.0
C1406 C 0.00337 0.72233 0.77657 0.0
C1407 C 0.95208 0.83484 0.84072 0.0
C1408 C 0.92901 0.82489 0.84012 0.0
C1409 C 0.97212 0.82042 0.83676 0.0
C1410 C 0.96951 0.79574 0.83223 0.0
C1411 C 0.94648 0.78603 0.83007 0.0
C1412 C 0.92638 0.80047 0.83403 0.0
C1413 C 0.99077 0.77985 0.83188 0.0
C1414 C 0.99553 0.76592 0.81083 0.0
C1415 C 0.00657 0.77877 0.85227 0.0
C1416 C 0.00171 0.79176 0.87568 0.0
C1417 C 0.98027 0.78792 0.88864 0.0
C1418 C 0.97571 0.80035 0.91058 0.0
C1419 C 0.99255 0.81653 0.91985 0.0
C1420 C 0.01401 0.82025 0.90723 0.0
C1421 C 0.01864 0.80789 0.88526 0.0
H1422 H 0.98899 0.82613 0.93684 0.0
H1423 H 0.03311 0.7024 0.72571 0.0
H1424 H 0.09235 0.29236 0.67634 0.0
H1425 H 0.05846 0.26601 0.68531 0.0
H1426 H 0.0099 0.32053 0.65924 0.0
H1427 H 0.04355 0.34708 0.65062 0.0
H1428 H 0.99167 0.29745 0.69896 0.0
H1429 H 0.02868 0.27551 0.62123 0.0
H1430 H 0.06222 0.26295 0.59464 0.0
H1431 H 0.07127 0.19912 0.63816 0.0
H1432 H 0.03795 0.21148 0.6652 0.0
H1433 H 0.89145 0.2348 0.65303 0.0
H1434 H 0.92667 0.25919 0.66138 0.0
H1435 H 0.9651 0.19604 0.68479 0.0
H1436 H 0.92994 0.17134 0.67603 0.0
H1437 H 0.99048 0.22073 0.65242 0.0
H1438 H 0.9489 0.24016 0.72646 0.0
H1439 H 0.91479 0.25283 0.75216 0.0
H1440 H 0.91363 0.3212 0.71554 0.0
H1441 H 0.94752 0.30883 0.68936 0.0
C1442 C 0.07444 0.29889 0.67288 0.0
C1443 C 0.07068 0.32173 0.66248 0.0
C1444 C 0.05509 0.28377 0.67795 0.0
C1445 C 0.03167 0.29115 0.67256 0.0
C1446 C 0.02781 0.31442 0.66349 0.0
C1447 C 0.04711 0.32956 0.65848 0.0
C1448 C 0.01129 0.27417 0.67454 0.0
C1449 C 0.99133 0.28071 0.68874 0.0
C1450 C 0.01109 0.25204 0.66169 0.0
C1451 C 0.03104 0.24455 0.6454 0.0
C1452 C 0.03795 0.25889 0.62523 0.0
C1453 C 0.05689 0.25179 0.61006 0.0
C1454 C 0.06892 0.23029 0.61476 0.0
C1455 C 0.06197 0.2158 0.63458 0.0
C1456 C 0.04306 0.22283 0.64983 0.0
C1457 C 0.90726 0.22609 0.66029 0.0
C1458 C 0.9079 0.20108 0.66373 0.0
C1459 C 0.92738 0.24012 0.66521 0.0
C1460 C 0.94852 0.22951 0.67392 0.0
C1461 C 0.94898 0.20463 0.67812 0.0
C1462 C 0.92885 0.19055 0.67315 0.0
C1463 C 0.97059 0.24413 0.67656 0.0
C1464 C 0.99089 0.23721 0.6631 0.0
C1465 C 0.97103 0.26591 0.69005 0.0
C1466 C 0.95068 0.27349 0.70582 0.0
C1467 C 0.94127 0.25784 0.72376 0.0
C1468 C 0.92199 0.26498 0.73844 0.0
C1469 C 0.91203 0.28779 0.73546 0.0
C1470 C 0.92136 0.30353 0.71782 0.0
C1471 C 0.94064 0.29648 0.70308 0.0
H1472 H 0.8971 0.29329 0.74684 0.0
H1473 H 0.08358 0.22482 0.603 0.0
H1474 H 0.59467 0.20566 0.32155 0.0
H1475 H 0.56104 0.23243 0.31292 0.0
H1476 H 0.51182 0.17692 0.33517 0.0
H1477 H 0.54524 0.14996 0.34346 0.0
H1478 H 0.4947 0.20184 0.29586 0.0
H1479 H 0.52949 0.22007 0.37571 0.0
H1480 H 0.56227 0.2313 0.40388 0.0
H1481 H 0.57267 0.29701 0.36379 0.0
H1482 H 0.54013 0.28599 0.33517 0.0
H1483 H 0.39352 0.26235 0.34252 0.0
H1484 H 0.42875 0.23835 0.33316 0.0
H1485 H 0.46781 0.30263 0.31458 0.0
H1486 H 0.43264 0.32691 0.32441 0.0
H1487 H 0.4923 0.27631 0.34607 0.0
H1488 H 0.45281 0.26061 0.26999 0.0
H1489 H 0.41947 0.24931 0.2426 0.0
H1490 H 0.41723 0.17919 0.27545 0.0
H1491 H 0.45034 0.19016 0.30331 0.0
C1492 C 0.57668 0.19902 0.32426 0.0
C1493 C 0.57266 0.17575 0.33349 0.0
C1494 C 0.55748 0.21437 0.31937 0.0
C1495 C 0.53392 0.2068 0.32378 0.0
C1496 C 0.52983 0.18317 0.33168 0.0
C1497 C 0.549 0.1678 0.33652 0.0
C1498 C 0.51363 0.22389 0.322 0.0
C1499 C 0.49409 0.2181 0.30688 0.0
C1500 C 0.51311 0.24542 0.3359 0.0
C1501 C 0.53259 0.25208 0.35314 0.0
C1502 C 0.5389 0.23682 0.37279 0.0
C1503 C 0.55741 0.24316 0.38886 0.0
C1504 C 0.5696 0.26482 0.38558 0.0
C1505 C 0.56325 0.28021 0.36627 0.0
C1506 C 0.54477 0.27394 0.35013 0.0
C1507 C 0.40946 0.27141 0.33606 0.0
C1508 C 0.41029 0.29659 0.33439 0.0
C1509 C 0.4296 0.25761 0.33055 0.0
C1510 C 0.45094 0.26863 0.32298 0.0
C1511 C 0.45155 0.29372 0.32036 0.0
C1512 C 0.4314 0.30757 0.32593 0.0
C1513 C 0.47308 0.25414 0.32019 0.0
C1514 C 0.49299 0.26035 0.33459 0.0
C1515 C 0.47387 0.23301 0.30565 0.0
C1516 C 0.45398 0.22628 0.28886 0.0
C1517 C 0.4451 0.24283 0.27151 0.0
C1518 C 0.42626 0.23647 0.25587 0.0
C1519 C 0.41622 0.21356 0.25731 0.0
C1520 C 0.42503 0.19693 0.27436 0.0
C1521 C 0.44386 0.2032 0.29005 0.0
H1522 H 0.40163 0.20867 0.24519 0.0
H1523 H 0.58392 0.2697 0.39804 0.0
H1524 H 0.68664 0.58393 0.68601 0.0
H1525 H 0.68809 0.54767 0.7113 0.0
H1526 H 0.61116 0.54841 0.71708 0.0
H1527 H 0.60982 0.58536 0.69284 0.0
H1528 H 0.62768 0.53707 0.75884 0.0
H1529 H 0.6439 0.50927 0.67684 0.0
H1530 H 0.66456 0.50776 0.63661 0.0
H1531 H 0.73036 0.48993 0.67302 0.0
H1532 H 0.71015 0.49163 0.71351 0.0
H1533 H 0.61268 0.4139 0.79198 0.0
H1534 H 0.61373 0.45021 0.76655 0.0
H1535 H 0.68782 0.46071 0.78529 0.0
H1536 H 0.68682 0.42484 0.81127 0.0
H1537 H 0.67369 0.46565 0.73168 0.0
H1538 H 0.65435 0.49328 0.81434 0.0
H1539 H 0.63094 0.49282 0.85294 0.0
H1540 H 0.56707 0.50867 0.81215 0.0
H1541 H 0.59006 0.50887 0.77324 0.0
C1542 C 0.67007 0.57634 0.69263 0.0
C1543 C 0.64811 0.58735 0.68731 0.0
C1544 C 0.67088 0.55552 0.70702 0.0
C1545 C 0.64969 0.54494 0.71571 0.0
C1546 C 0.62777 0.55616 0.71061 0.0
C1547 C 0.62701 0.57726 0.69672 0.0
C1548 C 0.65027 0.52234 0.7303 0.0
C1549 C 0.63753 0.52142 0.75266 0.0
C1550 C 0.66336 0.50189 0.72254 0.0
C1551 C 0.67556 0.50083 0.69822 0.0
C1552 C 0.66282 0.5052 0.67628 0.0
C1553 C 0.67444 0.50428 0.65343 0.0
C1554 C 0.69877 0.49882 0.65226 0.0
C1555 C 0.71152 0.4942 0.67395 0.0
C1556 C 0.69999 0.49512 0.69685 0.0
C1557 C 0.62926 0.42381 0.79057 0.0
C1558 C 0.64969 0.41644 0.80366 0.0
C1559 C 0.6298 0.44455 0.77608 0.0
C1560 C 0.65084 0.45805 0.77417 0.0
C1561 C 0.67145 0.45042 0.78657 0.0
C1562 C 0.67081 0.42992 0.80143 0.0
C1563 C 0.65105 0.4806 0.75985 0.0
C1564 C 0.66392 0.48144 0.73768 0.0
C1565 C 0.63768 0.50078 0.76746 0.0
C1566 C 0.62388 0.50083 0.79086 0.0
C1567 C 0.63528 0.49645 0.81358 0.0
C1568 C 0.62209 0.49628 0.83552 0.0
C1569 C 0.59752 0.50065 0.835 0.0
C1570 C 0.5861 0.50526 0.81253 0.0
C1571 C 0.5992 0.50542 0.79053 0.0
H1572 H 0.58735 0.50052 0.852 0.0
H1573 H 0.70773 0.49812 0.63456 0.0
H1574 H 0.32826 0.06706 0.82857 0.0
H1575 H 0.32605 0.03018 0.80432 0.0
H1576 H 0.375 0.06021 0.75101 0.0
H1577 H 0.3779 0.09688 0.77566 0.0
H1578 H 0.31232 0.01786 0.76039 0.0
H1579 H 0.4114 0.01743 0.72882 0.0
H1580 H 0.45056 0.03199 0.74341 0.0
H1581 H 0.42547 0.03043 0.81839 0.0
H1582 H 0.38629 0.01557 0.80428 0.0
H1583 H 0.32905 0.9316 0.66585 0.0
H1584 H 0.32728 0.9676 0.6915 0.0
H1585 H 0.3732 0.93379 0.74533 0.0
H1586 H 0.37575 0.89806 0.71923 0.0
H1587 H 0.38789 0.97663 0.73823 0.0
H1588 H 0.31165 0.94237 0.75497 0.0
H1589 H 0.27236 0.92475 0.74525 0.0
H1590 H 0.25134 0.98996 0.70895 0.0
H1591 H 0.29065 0.00786 0.71814 0.0
C1592 C 0.3384 0.0659 0.81157 0.0
C1593 C 0.35342 0.08478 0.80411 0.0
C1594 C 0.33708 0.04481 0.7977 0.0
C1595 C 0.35067 0.04225 0.77606 0.0
C1596 C 0.36478 0.06156 0.76794 0.0
C1597 C 0.36633 0.08255 0.78198 0.0
C1598 C 0.35072 0.01906 0.76253 0.0
C1599 C 0.32883 0.00884 0.75551 0.0
C1600 C 0.37224 0.00694 0.75675 0.0
C1601 C 0.39584 0.01564 0.76544 0.0
C1602 C 0.41428 0.02012 0.74842 0.0
C1603 C 0.43647 0.02844 0.75661 0.0
C1604 C 0.44047 0.03221 0.7818 0.0
C1605 C 0.42232 0.02759 0.79888 0.0
C1606 C 0.40011 0.01925 0.79079 0.0
C1607 C 0.33859 0.93176 0.68326 0.0
C1608 C 0.35252 0.91202 0.69056 0.0
C1609 C 0.33749 0.95233 0.69797 0.0
C1610 C 0.34989 0.95335 0.72051 0.0
C1611 C 0.36351 0.93346 0.72799 0.0
C1612 C 0.36491 0.91302 0.71311 0.0
C1613 C 0.34948 0.9755 0.73577 0.0
C1614 C 0.37134 0.98558 0.74309 0.0
C1615 C 0.3279 0.98704 0.74254 0.0
C1616 C 0.30418 0.97638 0.73706 0.0
C1617 C 0.29872 0.95289 0.74476 0.0
C1618 C 0.27643 0.94286 0.73937 0.0
C1619 C 0.25938 0.9562 0.72644 0.0
C1620 C 0.26457 0.97963 0.71894 0.0
C1621 C 0.28684 0.98974 0.72426 0.0
H1622 H 0.24214 0.9484 0.72228 0.0
H1623 H 0.45766 0.03867 0.7881 0.0
H1624 H 0.40344 0.2161 0.85506 0.0
H1625 H 0.43655 0.24477 0.8571 0.0
H1626 H 0.48686 0.18614 0.85906 0.0
H1627 H 0.454 0.15748 0.85753 0.0
H1628 H 0.49943 0.21953 0.89134 0.0
H1629 H 0.47657 0.2181 0.80581 0.0
H1630 H 0.44883 0.22129 0.77055 0.0
H1631 H 0.43362 0.29447 0.78984 0.0
H1632 H 0.46104 0.29162 0.82543 0.0
H1633 H 0.60459 0.285 0.85738 0.0
H1634 H 0.57112 0.25664 0.85868 0.0
H1635 H 0.52144 0.31577 0.86119 0.0
H1636 H 0.55459 0.34411 0.85982 0.0
H1637 H 0.50848 0.28243 0.8271 0.0
H1638 H 0.5325 0.28364 0.91238 0.0
H1639 H 0.5608 0.28002 0.94709 0.0
H1640 H 0.57461 0.20664 0.92749 0.0
H1641 H 0.54662 0.20992 0.89243 0.0
C1642 C 0.42155 0.20933 0.85599 0.0
C1643 C 0.42607 0.18451 0.85603 0.0
C1644 C 0.44047 0.22573 0.85706 0.0
C1645 C 0.46423 0.2176 0.85794 0.0
C1646 C 0.46871 0.19284 0.85839 0.0
C1647 C 0.44986 0.17647 0.85743 0.0
C1648 C 0.48452 0.23479 0.85814 0.0
C1649 C 0.50155 0.23311 0.87713 0.0
C1650 C 0.4871 0.25277 0.83985 0.0
C1651 C 0.47066 0.25456 0.81843 0.0
C1652 C 0.46716 0.23481 0.80264 0.0
C1653 C 0.45153 0.23657 0.78258 0.0
C1654 C 0.43942 0.25805 0.778 0.0
C1655 C 0.44298 0.27784 0.79344 0.0
C1656 C 0.45857 0.27617 0.81354 0.0
C1657 C 0.58654 0.29194 0.85834 0.0
C1658 C 0.58227 0.31682 0.85849 0.0
C1659 C 0.56745 0.27573 0.85915 0.0
C1660 C 0.54379 0.28412 0.86014 0.0
C1661 C 0.53954 0.30891 0.86039 0.0
C1662 C 0.55855 0.32508 0.85969 0.0
C1663 C 0.52335 0.26716 0.86029 0.0
C1664 C 0.50632 0.26887 0.84133 0.0
C1665 C 0.52086 0.24914 0.87852 0.0
C1666 C 0.53766 0.24711 0.89962 0.0
C1667 C 0.54173 0.2668 0.91534 0.0
C1668 C 0.55768 0.26479 0.93511 0.0
C1669 C 0.56955 0.24314 0.93945 0.0
C1670 C 0.56544 0.22341 0.92408 0.0
C1671 C 0.54951 0.22533 0.90427 0.0
H1672 H 0.58189 0.24162 0.95477 0.0
H1673 H 0.42732 0.25938 0.76246 0.0
H1674 H 0.31289 0.57024 0.19149 0.0
H1675 H 0.32082 0.53929 0.2222 0.0
H1676 H 0.39567 0.55747 0.22158 0.0
H1677 H 0.38785 0.58893 0.19071 0.0
H1678 H 0.38464 0.50634 0.21718 0.0
H1679 H 0.36804 0.57288 0.26997 0.0
H1680 H 0.34582 0.60849 0.28425 0.0
H1681 H 0.28344 0.56518 0.29618 0.0
H1682 H 0.30517 0.52936 0.28162 0.0
H1683 H 0.39135 0.41963 0.31745 0.0
H1684 H 0.39761 0.45486 0.29088 0.0
H1685 H 0.32136 0.46575 0.2872 0.0
H1686 H 0.31512 0.43134 0.31404 0.0
H1687 H 0.34235 0.5062 0.29773 0.0
H1688 H 0.35563 0.4421 0.23831 0.0
H1689 H 0.37598 0.40615 0.22203 0.0
H1690 H 0.44269 0.44417 0.22119 0.0
H1691 H 0.42276 0.48028 0.23775 0.0
C1692 C 0.33105 0.56781 0.19792 0.0
C1693 C 0.34975 0.58205 0.18865 0.0
C1694 C 0.33553 0.55014 0.21553 0.0
C1695 C 0.3588 0.54618 0.22419 0.0
C1696 C 0.37759 0.56032 0.2151 0.0
C1697 C 0.37306 0.57833 0.19761 0.0
C1698 C 0.36303 0.52685 0.24243 0.0
C1699 C 0.37591 0.50645 0.23508 0.0
C1700 C 0.35133 0.52698 0.26556 0.0
C1701 C 0.33824 0.54844 0.2746 0.0
C1702 C 0.34954 0.57097 0.27549 0.0
C1703 C 0.33704 0.59119 0.28366 0.0
C1704 C 0.31323 0.5891 0.29109 0.0
C1705 C 0.30189 0.56677 0.29043 0.0
C1706 C 0.31431 0.54649 0.28226 0.0
C1707 C 0.37597 0.42943 0.3107 0.0
C1708 C 0.35276 0.42284 0.31798 0.0
C1709 C 0.37956 0.44954 0.29554 0.0
C1710 C 0.35995 0.46304 0.28711 0.0
C1711 C 0.33679 0.45585 0.2937 0.0
C1712 C 0.33324 0.43609 0.30901 0.0
C1713 C 0.36303 0.48514 0.27206 0.0
C1714 C 0.35157 0.50617 0.28009 0.0
C1715 C 0.37583 0.48544 0.24948 0.0
C1716 C 0.38778 0.46376 0.23956 0.0
C1717 C 0.37467 0.44272 0.23485 0.0
C1718 C 0.38612 0.42233 0.22553 0.0
C1719 C 0.41063 0.42285 0.22067 0.0
C1720 C 0.42372 0.44378 0.22503 0.0
C1721 C 0.41236 0.46421 0.23437 0.0
H1722 H 0.41946 0.40705 0.21345 0.0
H1723 H 0.30358 0.60478 0.2974 0.0
H1724 H 0.6401 0.09972 0.28241 0.0
H1725 H 0.63304 0.06577 0.25452 0.0
H1726 H 0.64295 0.01663 0.31547 0.0
H1727 H 0.65175 0.05043 0.34268 0.0
H1728 H 0.66645 0.00051 0.28099 0.0
H1729 H 0.58622 0.02847 0.2846 0.0
H1730 H 0.55305 0.05751 0.28241 0.0
H1731 H 0.56852 0.07056 0.20586 0.0
H1732 H 0.602 0.04183 0.20766 0.0
H1733 H 0.6289 0.89918 0.20774 0.0
H1734 H 0.62351 0.93178 0.2379 0.0
H1735 H 0.64866 0.98302 0.18416 0.0
H1736 H 0.65484 0.95061 0.15434 0.0
H1737 H 0.60386 0.99552 0.21631 0.0
H1738 H 0.68798 0.96955 0.21758 0.0
H1739 H 0.71894 0.93829 0.22152 0.0
H1740 H 0.69148 0.91878 0.29286 0.0
H1741 H 0.66011 0.94973 0.28913 0.0
C1742 C 0.64043 0.08164 0.28976 0.0
C1743 C 0.64652 0.07755 0.31454 0.0
C1744 C 0.63623 0.06221 0.2739 0.0
C1745 C 0.6372 0.03847 0.28284 0.0
C1746 C 0.64225 0.03465 0.30797 0.0
C1747 C 0.64718 0.05395 0.32356 0.0
C1748 C 0.63502 0.01755 0.2658 0.0
C1749 C 0.65238 0.99935 0.26727 0.0
C1750 C 0.61691 0.01586 0.24753 0.0
C1751 C 0.59676 0.03313 0.24633 0.0
C1752 C 0.58266 0.03766 0.26734 0.0
C1753 C 0.56378 0.05404 0.26616 0.0
C1754 C 0.55871 0.06591 0.24402 0.0
C1755 C 0.57248 0.06137 0.223 0.0
C1756 C 0.59139 0.04501 0.22408 0.0
C1757 C 0.633 0.91744 0.20233 0.0
C1758 C 0.64248 0.92239 0.17883 0.0
C1759 C 0.62987 0.93599 0.21949 0.0
C1760 C 0.63563 0.95972 0.21312 0.0
C1761 C 0.644 0.96482 0.1893 0.0
C1762 C 0.64769 0.94628 0.1724 0.0
C1763 C 0.63515 0.97901 0.23185 0.0
C1764 C 0.6175 0.9968 0.23049 0.0
C1765 C 0.65258 0.98012 0.25063 0.0
C1766 C 0.67155 0.96171 0.25293 0.0
C1767 C 0.68841 0.95843 0.23398 0.0
C1768 C 0.70606 0.94081 0.2362 0.0
C1769 C 0.70713 0.9265 0.25739 0.0
C1770 C 0.6906 0.92984 0.27644 0.0
C1771 C 0.67289 0.94742 0.27428 0.0
H1772 H 0.72081 0.91287 0.25908 0.0
H1773 H 0.54409 0.07859 0.24315 0.0
H1774 H 0.59674 0.79127 0.1785 0.0
H1775 H 0.56727 0.76039 0.18853 0.0
H1776 H 0.51032 0.80983 0.17153 0.0
H1777 H 0.53961 0.8409 0.16169 0.0
H1778 H 0.49915 0.7804 0.21115 0.0
H1779 H 0.53019 0.77256 0.12783 0.0
H1780 H 0.56225 0.76805 0.09692 0.0
H1781 H 0.5843 0.70207 0.13104 0.0
H1782 H 0.55254 0.70638 0.16238 0.0
H1783 H 0.40381 0.70931 0.16704 0.0
H1784 H 0.43598 0.73744 0.176 0.0
H1785 H 0.48495 0.67835 0.18554 0.0
H1786 H 0.45288 0.65001 0.176 0.0
H1787 H 0.50306 0.70994 0.1552 0.0
H1788 H 0.46766 0.71459 0.23486 0.0
H1789 H 0.43537 0.71911 0.26548 0.0
H1790 H 0.42122 0.79036 0.23899 0.0
H1791 H 0.4532 0.78616 0.20796 0.0
C1792 C 0.57795 0.79575 0.17734 0.0
C1793 C 0.57053 0.81846 0.16893 0.0
C1794 C 0.56113 0.77805 0.18306 0.0
C1795 C 0.53662 0.78271 0.18038 0.0
C1796 C 0.52915 0.80584 0.17366 0.0
C1797 C 0.54594 0.82356 0.16793 0.0
C1798 C 0.51888 0.76299 0.18211 0.0
C1799 C 0.49989 0.765 0.19891 0.0
C1800 C 0.52023 0.74263 0.16653 0.0
C1801 C 0.53919 0.73994 0.1476 0.0
C1802 C 0.54199 0.75719 0.12884 0.0
C1803 C 0.56009 0.75465 0.11123 0.0
C1804 C 0.57535 0.73482 0.11206 0.0
C1805 C 0.5725 0.71744 0.13045 0.0
C1806 C 0.55445 0.71992 0.14814 0.0
C1807 C 0.42132 0.70222 0.17143 0.0
C1808 C 0.4258 0.67739 0.17061 0.0
C1809 C 0.43971 0.71837 0.17673 0.0
C1810 C 0.4629 0.71005 0.18165 0.0
C1811 C 0.46721 0.6852 0.18181 0.0
C1812 C 0.44883 0.66902 0.17639 0.0
C1813 C 0.48298 0.72734 0.1841 0.0
C1814 C 0.50243 0.725 0.16791 0.0
C1815 C 0.482 0.74733 0.20027 0.0
C1816 C 0.46275 0.74998 0.21895 0.0
C1817 C 0.45755 0.73116 0.23543 0.0
C1818 C 0.43932 0.73367 0.25289 0.0
C1819 C 0.42622 0.75499 0.25415 0.0
C1820 C 0.43137 0.77385 0.23799 0.0
C1821 C 0.44958 0.77142 0.22048 0.0
H1822 H 0.41211 0.7569 0.26769 0.0
H1823 H 0.58935 0.73289 0.09841 0.0
loop_
_geom_bond_atom_site_label_1
_geom_bond_atom_site_label_2
_geom_bond_distance
_geom_bond_site_symmetry_2
_ccdc_geom_bond_type
Mg0 O1 2.028 . S
Mg0 O7 1.986 . S
Mg0 O9 2.114 . S
Mg0 O10 2.251 . S
Mg0 O13 2.010 . S
O1 Mg0 2.028 . S
O1 C4 1.250 . S
O2 Mg3 2.028 . S
O2 C4 1.248 . S
Mg3 O2 2.028 . S
Mg3 O8 2.032 . S
Mg3 O10 2.079 . S
C4 O1 1.250 . S
C4 O2 1.248 . S
C5 O6 1.264 . S
C5 O13 1.249 . S
O6 C5 1.264 . S
O7 Mg0 1.986 . S
O7 C11 1.246 . S
O8 Mg3 2.032 . S
O8 C11 1.259 . S
O9 Mg0 2.114 . S
O9 C12 1.252 . S
O10 Mg0 2.251 . S
O10 Mg3 2.079 . S
O10 C12 1.273 . S
C11 O7 1.246 . S
C11 O8 1.259 . S
C12 O9 1.252 . S
C12 O10 1.273 . S
O13 Mg0 2.010 . S
O13 C5 1.249 . S
Mg14 O15 2.028 . S
Mg14 O21 1.986 . S
Mg14 O23 2.114 . S
Mg14 O24 2.251 . S
Mg14 O27 2.010 . S
O15 Mg14 2.028 . S
O15 C18 1.250 . S
O16 Mg17 2.028 . S
O16 C18 1.248 . S
Mg17 O16 2.028 . S
Mg17 O22 2.032 . S
Mg17 O24 2.079 . S
C18 O15 1.250 . S
C18 O16 1.248 . S
C19 O20 1.264 . S
C19 O27 1.249 . S
O20 C19 1.264 . S
O21 Mg14 1.986 . S
O21 C25 1.246 . S
O22 Mg17 2.032 . S
O22 C25 1.259 . S
O23 Mg14 2.114 . S
O23 C26 1.252 . S
O24 Mg14 2.251 . S
O24 Mg17 2.079 . S
O24 C26 1.273 . S
C25 O21 1.246 . S
C25 O22 1.259 . S
C26 O23 1.252 . S
C26 O24 1.273 . S
O27 Mg14 2.010 . S
O27 C19 1.249 . S
Mg28 O29 2.028 . S
Mg28 O35 1.986 . S
Mg28 O37 2.114 . S
Mg28 O38 2.251 . S
Mg28 O41 2.010 . S
O29 Mg28 2.028 . S
O29 C32 1.250 . S
O30 Mg31 2.028 . S
O30 C32 1.248 . S
Mg31 O30 2.028 . S
Mg31 O36 2.032 . S
Mg31 O38 2.079 . S
C32 O29 1.250 . S
C32 O30 1.248 . S
C33 O34 1.264 . S
C33 O41 1.249 . S
O34 C33 1.264 . S
O35 Mg28 1.986 . S
O35 C39 1.246 . S
O36 Mg31 2.032 . S
O36 C39 1.259 . S
O37 Mg28 2.114 . S
O37 C40 1.252 . S
O38 Mg28 2.251 . S
O38 Mg31 2.079 . S
O38 C40 1.273 . S
C39 O35 1.246 . S
C39 O36 1.259 . S
C40 O37 1.252 . S
C40 O38 1.273 . S
O41 Mg28 2.010 . S
O41 C33 1.249 . S
Mg42 O43 2.028 . S
Mg42 O49 1.986 . S
Mg42 O51 2.114 . S
Mg42 O52 2.251 . S
Mg42 O55 2.010 . S
O43 Mg42 2.028 . S
O43 C46 1.250 . S
O44 Mg45 2.028 . S
O44 C46 1.248 . S
Mg45 O44 2.028 . S
Mg45 O50 2.032 . S
Mg45 O52 2.079 . S
C46 O43 1.250 . S
C46 O44 1.248 . S
C47 O48 1.264 . S
C47 O55 1.249 . S
O48 C47 1.264 . S
O49 Mg42 1.986 . S
O49 C53 1.246 . S
O50 Mg45 2.032 . S
O50 C53 1.259 . S
O51 Mg42 2.114 . S
O51 C54 1.252 . S
O52 Mg42 2.251 . S
O52 Mg45 2.079 . S
O52 C54 1.273 . S
C53 O49 1.246 . S
C53 O50 1.259 . S
C54 O51 1.252 . S
C54 O52 1.273 . S
O55 Mg42 2.010 . S
O55 C47 1.249 . S
Mg56 O57 2.028 . S
Mg56 O63 1.986 . S
Mg56 O65 2.114 . S
Mg56 O66 2.251 . S
Mg56 O69 2.010 . S
O57 Mg56 2.028 . S
O57 C60 1.250 . S
O58 Mg59 2.028 . S
O58 C60 1.248 . S
Mg59 O58 2.028 . S
Mg59 O64 2.032 . S
Mg59 O66 2.079 . S
C60 O57 1.250 . S
C60 O58 1.248 . S
C61 O62 1.264 . S
C61 O69 1.249 . S
O62 C61 1.264 . S
O63 Mg56 1.986 . S
O63 C67 1.246 . S
O64 Mg59 2.032 . S
O64 C67 1.259 . S
O65 Mg56 2.114 . S
O65 C68 1.252 . S
O66 Mg56 2.251 . S
O66 Mg59 2.079 . S
O66 C68 1.273 . S
C67 O63 1.246 . S
C67 O64 1.259 . S
C68 O65 1.252 . S
C68 O66 1.273 . S
O69 Mg56 2.010 . S
O69 C61 1.249 . S
Mg70 O71 2.028 . S
Mg70 O77 1.986 . S
Mg70 O79 2.114 . S
Mg70 O80 2.251 . S
Mg70 O83 2.010 . S
O71 Mg70 2.028 . S
O71 C74 1.250 . S
O72 Mg73 2.028 . S
O72 C74 1.248 . S
Mg73 O72 2.028 . S
Mg73 O78 2.032 . S
Mg73 O80 2.079 . S
C74 O71 1.250 . S
C74 O72 1.248 . S
C75 O76 1.264 . S
C75 O83 1.249 . S
O76 C75 1.264 . S
O77 Mg70 1.986 . S
O77 C81 1.246 . S
O78 Mg73 2.032 . S
O78 C81 1.259 . S
O79 Mg70 2.114 . S
O79 C82 1.252 . S
O80 Mg70 2.251 . S
O80 Mg73 2.079 . S
O80 C82 1.273 . S
C81 O77 1.246 . S
C81 O78 1.259 . S
C82 O79 1.252 . S
C82 O80 1.273 . S
O83 Mg70 2.010 . S
O83 C75 1.249 . S
Mg84 O85 2.028 . S
Mg84 O91 1.986 . S
Mg84 O93 2.114 . S
Mg84 O94 2.251 . S
Mg84 O97 2.010 . S
O85 Mg84 2.028 . S
O85 C88 1.250 . S
O86 Mg87 2.028 . S
O86 C88 1.248 . S
Mg87 O86 2.028 . S
Mg87 O92 2.032 . S
Mg87 O94 2.079 . S
C88 O85 1.250 . S
C88 O86 1.248 . S
C89 O90 1.264 . S
C89 O97 1.249 . S
O90 C89 1.264 . S
O91 Mg84 1.986 . S
O91 C95 1.246 . S
O92 Mg87 2.032 . S
O92 C95 1.259 . S
O93 Mg84 2.114 . S
O93 C96 1.252 . S
O94 Mg84 2.251 . S
O94 Mg87 2.079 . S
O94 C96 1.273 . S
C95 O91 1.246 . S
C95 O92 1.259 . S
C96 O93 1.252 . S
C96 O94 1.273 . S
O97 Mg84 2.010 . S
O97 C89 1.249 . S
Mg98 O99 2.028 . S
Mg98 O105 1.986 . S
Mg98 O107 2.114 . S
Mg98 O108 2.251 . S
Mg98 O111 2.010 . S
O99 Mg98 2.028 . S
O99 C102 1.250 . S
O100 Mg101 2.028 . S
O100 C102 1.248 . S
Mg101 O100 2.028 . S
Mg101 O106 2.032 . S
Mg101 O108 2.079 . S
C102 O99 1.250 . S
C102 O100 1.248 . S
C103 O104 1.264 . S
C103 O111 1.249 . S
O104 C103 1.264 . S
O105 Mg98 1.986 . S
O105 C109 1.246 . S
O106 Mg101 2.032 . S
O106 C109 1.259 . S
O107 Mg98 2.114 . S
O107 C110 1.252 . S
O108 Mg98 2.251 . S
O108 Mg101 2.079 . S
O108 C110 1.273 . S
C109 O105 1.246 . S
C109 O106 1.259 . S
C110 O107 1.252 . S
C110 O108 1.273 . S
O111 Mg98 2.010 . S
O111 C103 1.249 . S
Mg112 O113 2.028 . S
Mg112 O119 1.986 . S
Mg112 O121 2.114 . S
Mg112 O122 2.251 . S
Mg112 O125 2.010 . S
O113 Mg112 2.028 . S
O113 C116 1.250 . S
O114 Mg115 2.028 . S
O114 C116 1.248 . S
Mg115 O114 2.028 . S
Mg115 O120 2.032 . S
Mg115 O122 2.079 . S
C116 O113 1.250 . S
C116 O114 1.248 . S
C117 O118 1.264 . S
C117 O125 1.249 . S
O118 C117 1.264 . S
O119 Mg112 1.986 . S
O119 C123 1.246 . S
O120 Mg115 2.032 . S
O120 C123 1.259 . S
O121 Mg112 2.114 . S
O121 C124 1.252 . S
O122 Mg112 2.251 . S
O122 Mg115 2.079 . S
O122 C124 1.273 . S
C123 O119 1.246 . S
C123 O120 1.259 . S
C124 O121 1.252 . S
C124 O122 1.273 . S
O125 Mg112 2.010 . S
O125 C117 1.249 . S
Mg126 O127 2.028 . S
Mg126 O133 1.986 . S
Mg126 O135 2.114 . S
Mg126 O136 2.251 . S
Mg126 O139 2.010 . S
O127 Mg126 2.028 . S
O127 C130 1.250 . S
O128 Mg129 2.028 . S
O128 C130 1.248 . S
Mg129 O128 2.028 . S
Mg129 O134 2.032 . S
Mg129 O136 2.079 . S
C130 O127 1.250 . S
C130 O128 1.248 . S
C131 O132 1.264 . S
C131 O139 1.249 . S
O132 C131 1.264 . S
O133 Mg126 1.986 . S
O133 C137 1.246 . S
O134 Mg129 2.032 . S
O134 C137 1.259 . S
O135 Mg126 2.114 . S
O135 C138 1.252 . S
O136 Mg126 2.251 . S
O136 Mg129 2.079 . S
O136 C138 1.273 . S
C137 O133 1.246 . S
C137 O134 1.259 . S
C138 O135 1.252 . S
C138 O136 1.273 . S
O139 Mg126 2.010 . S
O139 C131 1.249 . S
Mg140 O141 2.028 . S
Mg140 O147 1.986 . S
Mg140 O149 2.114 . S
Mg140 O150 2.251 . S
Mg140 O153 2.010 . S
O141 Mg140 2.028 . S
O141 C144 1.250 . S
O142 Mg143 2.028 . S
O142 C144 1.248 . S
Mg143 O142 2.028 . S
Mg143 O148 2.032 . S
Mg143 O150 2.079 . S
C144 O141 1.250 . S
C144 O142 1.248 . S
C145 O146 1.264 . S
C145 O153 1.249 . S
O146 C145 1.264 . S
O147 Mg140 1.986 . S
O147 C151 1.246 . S
O148 Mg143 2.032 . S
O148 C151 1.259 . S
O149 Mg140 2.114 . S
O149 C152 1.252 . S
O150 Mg140 2.251 . S
O150 Mg143 2.079 . S
O150 C152 1.273 . S
C151 O147 1.246 . S
C151 O148 1.259 . S
C152 O149 1.252 . S
C152 O150 1.273 . S
O153 Mg140 2.010 . S
O153 C145 1.249 . S
Mg154 O155 2.028 . S
Mg154 O161 1.986 . S
Mg154 O163 2.114 . S
Mg154 O164 2.251 . S
Mg154 O167 2.010 . S
O155 Mg154 2.028 . S
O155 C158 1.250 . S
O156 Mg157 2.028 . S
O156 C158 1.248 . S
Mg157 O156 2.028 . S
Mg157 O162 2.032 . S
Mg157 O164 2.079 . S
C158 O155 1.250 . S
C158 O156 1.248 . S
C159 O160 1.264 . S
C159 O167 1.249 . S
O160 C159 1.264 . S
O161 Mg154 1.986 . S
O161 C165 1.246 . S
O162 Mg157 2.032 . S
O162 C165 1.259 . S
O163 Mg154 2.114 . S
O163 C166 1.252 . S
O164 Mg154 2.251 . S
O164 Mg157 2.079 . S
O164 C166 1.273 . S
C165 O161 1.246 . S
C165 O162 1.259 . S
C166 O163 1.252 . S
C166 O164 1.273 . S
O167 Mg154 2.010 . S
O167 C159 1.249 . S
Mg168 O169 2.028 . S
Mg168 O175 1.986 . S
Mg168 O177 2.114 . S
Mg168 O178 2.251 . S
Mg168 O181 2.010 . S
O169 Mg168 2.028 . S
O169 C172 1.250 . S
O170 Mg171 2.028 . S
O170 C172 1.248 . S
Mg171 O170 2.028 . S
Mg171 O176 2.032 . S
Mg171 O178 2.079 . S
C172 O169 1.250 . S
C172 O170 1.248 . S
C173 O174 1.264 . S
C173 O181 1.249 . S
O174 C173 1.264 . S
O175 Mg168 1.986 . S
O175 C179 1.246 . S
O176 Mg171 2.032 . S
O176 C179 1.259 . S
O177 Mg168 2.114 . S
O177 C180 1.252 . S
O178 Mg168 2.251 . S
O178 Mg171 2.079 . S
O178 C180 1.273 . S
C179 O175 1.246 . S
C179 O176 1.259 . S
C180 O177 1.252 . S
C180 O178 1.273 . S
O181 Mg168 2.010 . S
O181 C173 1.249 . S
Mg182 O183 2.028 . S
Mg182 O189 1.986 . S
Mg182 O191 2.114 . S
Mg182 O192 2.251 . S
Mg182 O195 2.010 . S
O183 Mg182 2.028 . S
O183 C186 1.250 . S
O184 Mg185 2.028 . S
O184 C186 1.248 . S
Mg185 O184 2.028 . S
Mg185 O190 2.032 . S
Mg185 O192 2.079 . S
C186 O183 1.250 . S
C186 O184 1.248 . S
C187 O188 1.264 . S
C187 O195 1.249 . S
O188 C187 1.264 . S
O189 Mg182 1.986 . S
O189 C193 1.246 . S
O190 Mg185 2.032 . S
O190 C193 1.259 . S
O191 Mg182 2.114 . S
O191 C194 1.252 . S
O192 Mg182 2.251 . S
O192 Mg185 2.079 . S
O192 C194 1.273 . S
C193 O189 1.246 . S
C193 O190 1.259 . S
C194 O191 1.252 . S
C194 O192 1.273 . S
O195 Mg182 2.010 . S
O195 C187 1.249 . S
Mg196 O197 2.028 . S
Mg196 O203 1.986 . S
Mg196 O205 2.114 . S
Mg196 O206 2.251 . S
Mg196 O209 2.010 . S
O197 Mg196 2.028 . S
O197 C200 1.250 . S
O198 Mg199 2.028 . S
O198 C200 1.248 . S
Mg199 O198 2.028 . S
Mg199 O204 2.032 . S
Mg199 O206 2.079 . S
C200 O197 1.250 . S
C200 O198 1.248 . S
C201 O202 1.264 . S
C201 O209 1.249 . S
O202 C201 1.264 . S
O203 Mg196 1.986 . S
O203 C207 1.246 . S
O204 Mg199 2.032 . S
O204 C207 1.259 . S
O205 Mg196 2.114 . S
O205 C208 1.252 . S
O206 Mg196 2.251 . S
O206 Mg199 2.079 . S
O206 C208 1.273 . S
C207 O203 1.246 . S
C207 O204 1.259 . S
C208 O205 1.252 . S
C208 O206 1.273 . S
O209 Mg196 2.010 . S
O209 C201 1.249 . S
Mg210 O211 2.028 . S
Mg210 O217 1.986 . S
Mg210 O219 2.114 . S
Mg210 O220 2.251 . S
Mg210 O223 2.010 . S
O211 Mg210 2.028 . S
O211 C214 1.250 . S
O212 Mg213 2.028 . S
O212 C214 1.248 . S
Mg213 O212 2.028 . S
Mg213 O218 2.032 . S
Mg213 O220 2.079 . S
C214 O211 1.250 . S
C214 O212 1.248 . S
C215 O216 1.264 . S
C215 O223 1.249 . S
O216 C215 1.264 . S
O217 Mg210 1.986 . S
O217 C221 1.246 . S
O218 Mg213 2.032 . S
O218 C221 1.259 . S
O219 Mg210 2.114 . S
O219 C222 1.252 . S
O220 Mg210 2.251 . S
O220 Mg213 2.079 . S
O220 C222 1.273 . S
C221 O217 1.246 . S
C221 O218 1.259 . S
C222 O219 1.252 . S
C222 O220 1.273 . S
O223 Mg210 2.010 . S
O223 C215 1.249 . S
H224 C242 0.951 . S
H225 C244 0.951 . S
H226 C246 0.950 . S
H227 C247 0.950 . S
H228 C249 0.950 . S
H229 C252 0.950 . S
H230 C253 0.950 . S
H231 C255 0.950 . S
H232 C256 0.950 . S
H233 C257 0.951 . S
H234 C259 0.951 . S
H235 C261 0.950 . S
H236 C262 0.950 . S
H237 C264 0.950 . S
H238 C267 0.950 . S
H239 C268 0.950 . S
H240 C270 0.950 . S
H241 C271 0.950 . S
C242 H224 0.951 . S
C242 C243 1.366 . S
C242 C244 1.388 . S
C243 C242 1.366 . S
C243 C247 1.385 . S
C244 H225 0.951 . S
C244 C242 1.388 . S
C244 C245 1.366 . S
C245 C244 1.366 . S
C245 C246 1.414 . S
C245 C248 1.499 . S
C246 H226 0.950 . S
C246 C245 1.414 . S
C246 C247 1.374 . S
C247 H227 0.950 . S
C247 C243 1.385 . S
C247 C246 1.374 . S
C248 C245 1.499 . S
C248 C249 1.373 . S
C248 C250 1.389 . S
C249 H228 0.950 . S
C249 C248 1.373 . S
C249 C265 1.377 . S
C250 C248 1.389 . S
C250 C251 1.524 . S
C250 C264 1.377 . S
C251 C250 1.524 . S
C251 C252 1.397 . S
C251 C256 1.363 . S
C252 H229 0.950 . S
C252 C251 1.397 . S
C252 C253 1.334 . S
C253 H230 0.950 . S
C253 C252 1.334 . S
C253 C254 1.287 . S
C254 C253 1.287 . S
C254 C255 1.524 . S
C254 H273 0.913 . S
C255 H231 0.950 . S
C255 C254 1.524 . S
C255 C256 1.415 . S
C256 H232 0.950 . S
C256 C251 1.363 . S
C256 C255 1.415 . S
C257 H233 0.951 . S
C257 C258 1.366 . S
C257 C259 1.388 . S
C258 C257 1.366 . S
C258 C262 1.385 . S
C259 H234 0.951 . S
C259 C257 1.388 . S
C259 C260 1.366 . S
C260 C259 1.366 . S
C260 C261 1.414 . S
C260 C263 1.499 . S
C261 H235 0.950 . S
C261 C260 1.414 . S
C261 C262 1.374 . S
C262 H236 0.950 . S
C262 C258 1.385 . S
C262 C261 1.374 . S
C263 C260 1.499 . S
C263 C264 1.373 . S
C263 C265 1.389 . S
C264 H237 0.950 . S
C264 C250 1.377 . S
C264 C263 1.373 . S
C265 C249 1.377 . S
C265 C263 1.389 . S
C265 C266 1.524 . S
C266 C265 1.524 . S
C266 C267 1.397 . S
C266 C271 1.363 . S
C267 H238 0.950 . S
C267 C266 1.397 . S
C267 C268 1.334 . S
C268 H239 0.950 . S
C268 C267 1.334 . S
C268 C269 1.287 . S
C269 C268 1.287 . S
C269 C270 1.524 . S
C269 H272 0.999 . S
C270 H240 0.950 . S
C270 C269 1.524 . S
C270 C271 1.415 . S
C271 H241 0.950 . S
C271 C266 1.363 . S
C271 C270 1.415 . S
H272 C269 0.999 . S
H273 C254 0.913 . S
H274 C292 0.951 . S
H275 C294 0.951 . S
H276 C296 0.950 . S
H277 C297 0.950 . S
H278 C299 0.950 . S
H279 C302 0.950 . S
H280 C303 0.950 . S
H281 C305 0.950 . S
H282 C306 0.950 . S
H283 C307 0.951 . S
H284 C309 0.951 . S
H285 C311 0.950 . S
H286 C312 0.950 . S
H287 C314 0.950 . S
H288 C317 0.950 . S
H289 C318 0.950 . S
H290 C320 0.950 . S
H291 C321 0.950 . S
C292 H274 0.951 . S
C292 C293 1.366 . S
C292 C294 1.388 . S
C293 C292 1.366 . S
C293 C297 1.385 . S
C294 H275 0.951 . S
C294 C292 1.388 . S
C294 C295 1.366 . S
C295 C294 1.366 . S
C295 C296 1.414 . S
C295 C298 1.499 . S
C296 H276 0.950 . S
C296 C295 1.414 . S
C296 C297 1.374 . S
C297 H277 0.950 . S
C297 C293 1.385 . S
C297 C296 1.374 . S
C298 C295 1.499 . S
C298 C299 1.373 . S
C298 C300 1.389 . S
C299 H278 0.950 . S
C299 C298 1.373 . S
C299 C315 1.377 . S
C300 C298 1.389 . S
C300 C301 1.524 . S
C300 C314 1.377 . S
C301 C300 1.524 . S
C301 C302 1.397 . S
C301 C306 1.363 . S
C302 H279 0.950 . S
C302 C301 1.397 . S
C302 C303 1.334 . S
C303 H280 0.950 . S
C303 C302 1.334 . S
C303 C304 1.287 . S
C304 C303 1.287 . S
C304 C305 1.524 . S
C304 H323 0.913 . S
C305 H281 0.950 . S
C305 C304 1.524 . S
C305 C306 1.415 . S
C306 H282 0.950 . S
C306 C301 1.363 . S
C306 C305 1.415 . S
C307 H283 0.951 . S
C307 C308 1.366 . S
C307 C309 1.388 . S
C308 C307 1.366 . S
C308 C312 1.385 . S
C309 H284 0.951 . S
C309 C307 1.388 . S
C309 C310 1.366 . S
C310 C309 1.366 . S
C310 C311 1.414 . S
C310 C313 1.499 . S
C311 H285 0.950 . S
C311 C310 1.414 . S
C311 C312 1.374 . S
C312 H286 0.950 . S
C312 C308 1.385 . S
C312 C311 1.374 . S
C313 C310 1.499 . S
C313 C314 1.373 . S
C313 C315 1.389 . S
C314 H287 0.950 . S
C314 C300 1.377 . S
C314 C313 1.373 . S
C315 C299 1.377 . S
C315 C313 1.389 . S
C315 C316 1.524 . S
C316 C315 1.524 . S
C316 C317 1.397 . S
C316 C321 1.363 . S
C317 H288 0.950 . S
C317 C316 1.397 . S
C317 C318 1.334 . S
C318 H289 0.950 . S
C318 C317 1.334 . S
C318 C319 1.287 . S
C319 C318 1.287 . S
C319 C320 1.524 . S
C319 H322 0.999 . S
C320 H290 0.950 . S
C320 C319 1.524 . S
C320 C321 1.415 . S
C321 H291 0.950 . S
C321 C316 1.363 . S
C321 C320 1.415 . S
H322 C319 0.999 . S
H323 C304 0.913 . S
H324 C342 0.951 . S
H325 C344 0.951 . S
H326 C346 0.950 . S
H327 C347 0.950 . S
H328 C349 0.950 . S
H329 C352 0.950 . S
H330 C353 0.950 . S
H331 C355 0.950 . S
H332 C356 0.950 . S
H333 C357 0.951 . S
H334 C359 0.951 . S
H335 C361 0.950 . S
H336 C362 0.950 . S
H337 C364 0.950 . S
H338 C367 0.950 . S
H339 C368 0.950 . S
H340 C370 0.950 . S
H341 C371 0.950 . S
C342 H324 0.951 . S
C342 C343 1.366 . S
C342 C344 1.388 . S
C343 C342 1.366 . S
C343 C347 1.385 . S
C344 H325 0.951 . S
C344 C342 1.388 . S
C344 C345 1.366 . S
C345 C344 1.366 . S
C345 C346 1.414 . S
C345 C348 1.499 . S
C346 H326 0.950 . S
C346 C345 1.414 . S
C346 C347 1.374 . S
C347 H327 0.950 . S
C347 C343 1.385 . S
C347 C346 1.374 . S
C348 C345 1.499 . S
C348 C349 1.373 . S
C348 C350 1.389 . S
C349 H328 0.950 . S
C349 C348 1.373 . S
C349 C365 1.377 . S
C350 C348 1.389 . S
C350 C351 1.524 . S
C350 C364 1.377 . S
C351 C350 1.524 . S
C351 C352 1.397 . S
C351 C356 1.363 . S
C352 H329 0.950 . S
C352 C351 1.397 . S
C352 C353 1.334 . S
C353 H330 0.950 . S
C353 C352 1.334 . S
C353 C354 1.287 . S
C354 C353 1.287 . S
C354 C355 1.524 . S
C354 H373 0.913 . S
C355 H331 0.950 . S
C355 C354 1.524 . S
C355 C356 1.415 . S
C356 H332 0.950 . S
C356 C351 1.363 . S
C356 C355 1.415 . S
C357 H333 0.951 . S
C357 C358 1.366 . S
C357 C359 1.388 . S
C358 C357 1.366 . S
C358 C362 1.385 . S
C359 H334 0.951 . S
C359 C357 1.388 . S
C359 C360 1.366 . S
C360 C359 1.366 . S
C360 C361 1.414 . S
C360 C363 1.499 . S
C361 H335 0.950 . S
C361 C360 1.414 . S
C361 C362 1.374 . S
C362 H336 0.950 . S
C362 C358 1.385 . S
C362 C361 1.374 . S
C363 C360 1.499 . S
C363 C364 1.373 . S
C363 C365 1.389 . S
C364 H337 0.950 . S
C364 C350 1.377 . S
C364 C363 1.373 . S
C365 C349 1.377 . S
C365 C363 1.389 . S
C365 C366 1.524 . S
C366 C365 1.524 . S
C366 C367 1.397 . S
C366 C371 1.363 . S
C367 H338 0.950 . S
C367 C366 1.397 . S
C367 C368 1.334 . S
C368 H339 0.950 . S
C368 C367 1.334 . S
C368 C369 1.287 . S
C369 C368 1.287 . S
C369 C370 1.524 . S
C369 H372 0.999 . S
C370 H340 0.950 . S
C370 C369 1.524 . S
C370 C371 1.415 . S
C371 H341 0.950 . S
C371 C366 1.363 . S
C371 C370 1.415 . S
H372 C369 0.999 . S
H373 C354 0.913 . S
H374 C392 0.951 . S
H375 C394 0.951 . S
H376 C396 0.950 . S
H377 C397 0.950 . S
H378 C399 0.950 . S
H379 C402 0.950 . S
H380 C403 0.950 . S
H381 C405 0.950 . S
H382 C406 0.950 . S
H383 C407 0.951 . S
H384 C409 0.951 . S
H385 C411 0.950 . S
H386 C412 0.950 . S
H387 C414 0.950 . S
H388 C417 0.950 . S
H389 C418 0.950 . S
H390 C420 0.950 . S
H391 C421 0.950 . S
C392 H374 0.951 . S
C392 C393 1.366 . S
C392 C394 1.388 . S
C393 C392 1.366 . S
C393 C397 1.385 . S
C394 H375 0.951 . S
C394 C392 1.388 . S
C394 C395 1.366 . S
C395 C394 1.366 . S
C395 C396 1.414 . S
C395 C398 1.499 . S
C396 H376 0.950 . S
C396 C395 1.414 . S
C396 C397 1.374 . S
C397 H377 0.950 . S
C397 C393 1.385 . S
C397 C396 1.374 . S
C398 C395 1.499 . S
C398 C399 1.373 . S
C398 C400 1.389 . S
C399 H378 0.950 . S
C399 C398 1.373 . S
C399 C415 1.377 . S
C400 C398 1.389 . S
C400 C401 1.524 . S
C400 C414 1.377 . S
C401 C400 1.524 . S
C401 C402 1.397 . S
C401 C406 1.363 . S
C402 H379 0.950 . S
C402 C401 1.397 . S
C402 C403 1.334 . S
C403 H380 0.950 . S
C403 C402 1.334 . S
C403 C404 1.287 . S
C404 C403 1.287 . S
C404 C405 1.524 . S
C404 H423 0.913 . S
C405 H381 0.950 . S
C405 C404 1.524 . S
C405 C406 1.415 . S
C406 H382 0.950 . S
C406 C401 1.363 . S
C406 C405 1.415 . S
C407 H383 0.951 . S
C407 C408 1.366 . S
C407 C409 1.388 . S
C408 C407 1.366 . S
C408 C412 1.385 . S
C409 H384 0.951 . S
C409 C407 1.388 . S
C409 C410 1.366 . S
C410 C409 1.366 . S
C410 C411 1.414 . S
C410 C413 1.499 . S
C411 H385 0.950 . S
C411 C410 1.414 . S
C411 C412 1.374 . S
C412 H386 0.950 . S
C412 C408 1.385 . S
C412 C411 1.374 . S
C413 C410 1.499 . S
C413 C414 1.373 . S
C413 C415 1.389 . S
C414 H387 0.950 . S
C414 C400 1.377 . S
C414 C413 1.373 . S
C415 C399 1.377 . S
C415 C413 1.389 . S
C415 C416 1.524 . S
C416 C415 1.524 . S
C416 C417 1.397 . S
C416 C421 1.363 . S
C417 H388 0.950 . S
C417 C416 1.397 . S
C417 C418 1.334 . S
C418 H389 0.950 . S
C418 C417 1.334 . S
C418 C419 1.287 . S
C419 C418 1.287 . S
C419 C420 1.524 . S
C419 H422 0.999 . S
C420 H390 0.950 . S
C420 C419 1.524 . S
C420 C421 1.415 . S
C421 H391 0.950 . S
C421 C416 1.363 . S
C421 C420 1.415 . S
H422 C419 0.999 . S
H423 C404 0.913 . S
H424 C442 0.951 . S
H425 C444 0.951 . S
H426 C446 0.950 . S
H427 C447 0.950 . S
H428 C449 0.950 . S
H429 C452 0.950 . S
H430 C453 0.950 . S
H431 C455 0.950 . S
H432 C456 0.950 . S
H433 C457 0.951 . S
H434 C459 0.951 . S
H435 C461 0.950 . S
H436 C462 0.950 . S
H437 C464 0.950 . S
H438 C467 0.950 . S
H439 C468 0.950 . S
H440 C470 0.950 . S
H441 C471 0.950 . S
C442 H424 0.951 . S
C442 C443 1.366 . S
C442 C444 1.388 . S
C443 C442 1.366 . S
C443 C447 1.385 . S
C444 H425 0.951 . S
C444 C442 1.388 . S
C444 C445 1.366 . S
C445 C444 1.366 . S
C445 C446 1.414 . S
C445 C448 1.499 . S
C446 H426 0.950 . S
C446 C445 1.414 . S
C446 C447 1.374 . S
C447 H427 0.950 . S
C447 C443 1.385 . S
C447 C446 1.374 . S
C448 C445 1.499 . S
C448 C449 1.373 . S
C448 C450 1.389 . S
C449 H428 0.950 . S
C449 C448 1.373 . S
C449 C465 1.377 . S
C450 C448 1.389 . S
C450 C451 1.524 . S
C450 C464 1.377 . S
C451 C450 1.524 . S
C451 C452 1.397 . S
C451 C456 1.363 . S
C452 H429 0.950 . S
C452 C451 1.397 . S
C452 C453 1.334 . S
C453 H430 0.950 . S
C453 C452 1.334 . S
C453 C454 1.287 . S
C454 C453 1.287 . S
C454 C455 1.524 . S
C454 H473 0.913 . S
C455 H431 0.950 . S
C455 C454 1.524 . S
C455 C456 1.415 . S
C456 H432 0.950 . S
C456 C451 1.363 . S
C456 C455 1.415 . S
C457 H433 0.951 . S
C457 C458 1.366 . S
C457 C459 1.388 . S
C458 C457 1.366 . S
C458 C462 1.385 . S
C459 H434 0.951 . S
C459 C457 1.388 . S
C459 C460 1.366 . S
C460 C459 1.366 . S
C460 C461 1.414 . S
C460 C463 1.499 . S
C461 H435 0.950 . S
C461 C460 1.414 . S
C461 C462 1.374 . S
C462 H436 0.950 . S
C462 C458 1.385 . S
C462 C461 1.374 . S
C463 C460 1.499 . S
C463 C464 1.373 . S
C463 C465 1.389 . S
C464 H437 0.950 . S
C464 C450 1.377 . S
C464 C463 1.373 . S
C465 C449 1.377 . S
C465 C463 1.389 . S
C465 C466 1.524 . S
C466 C465 1.524 . S
C466 C467 1.397 . S
C466 C471 1.363 . S
C467 H438 0.950 . S
C467 C466 1.397 . S
C467 C468 1.334 . S
C468 H439 0.950 . S
C468 C467 1.334 . S
C468 C469 1.287 . S
C469 C468 1.287 . S
C469 C470 1.524 . S
C469 H472 0.999 . S
C470 H440 0.950 . S
C470 C469 1.524 . S
C470 C471 1.415 . S
C471 H441 0.950 . S
C471 C466 1.363 . S
C471 C470 1.415 . S
H472 C469 0.999 . S
H473 C454 0.913 . S
H474 C492 0.951 . S
H475 C494 0.951 . S
H476 C496 0.950 . S
H477 C497 0.950 . S
H478 C499 0.950 . S
H479 C502 0.950 . S
H480 C503 0.950 . S
H481 C505 0.950 . S
H482 C506 0.950 . S
H483 C507 0.951 . S
H484 C509 0.951 . S
H485 C511 0.950 . S
H486 C512 0.950 . S
H487 C514 0.950 . S
H488 C517 0.950 . S
H489 C518 0.950 . S
H490 C520 0.950 . S
H491 C521 0.950 . S
C492 H474 0.951 . S
C492 C493 1.366 . S
C492 C494 1.388 . S
C493 C492 1.366 . S
C493 C497 1.385 . S
C494 H475 0.951 . S
C494 C492 1.388 . S
C494 C495 1.366 . S
C495 C494 1.366 . S
C495 C496 1.414 . S
C495 C498 1.499 . S
C496 H476 0.950 . S
C496 C495 1.414 . S
C496 C497 1.374 . S
C497 H477 0.950 . S
C497 C493 1.385 . S
C497 C496 1.374 . S
C498 C495 1.499 . S
C498 C499 1.373 . S
C498 C500 1.389 . S
C499 H478 0.950 . S
C499 C498 1.373 . S
C499 C515 1.377 . S
C500 C498 1.389 . S
C500 C501 1.524 . S
C500 C514 1.377 . S
C501 C500 1.524 . S
C501 C502 1.397 . S
C501 C506 1.363 . S
C502 H479 0.950 . S
C502 C501 1.397 . S
C502 C503 1.334 . S
C503 H480 0.950 . S
C503 C502 1.334 . S
C503 C504 1.287 . S
C504 C503 1.287 . S
C504 C505 1.524 . S
C504 H523 0.913 . S
C505 H481 0.950 . S
C505 C504 1.524 . S
C505 C506 1.415 . S
C506 H482 0.950 . S
C506 C501 1.363 . S
C506 C505 1.415 . S
C507 H483 0.951 . S
C507 C508 1.366 . S
C507 C509 1.388 . S
C508 C507 1.366 . S
C508 C512 1.385 . S
C509 H484 0.951 . S
C509 C507 1.388 . S
C509 C510 1.366 . S
C510 C509 1.366 . S
C510 C511 1.414 . S
C510 C513 1.499 . S
C511 H485 0.950 . S
C511 C510 1.414 . S
C511 C512 1.374 . S
C512 H486 0.950 . S
C512 C508 1.385 . S
C512 C511 1.374 . S
C513 C510 1.499 . S
C513 C514 1.373 . S
C513 C515 1.389 . S
C514 H487 0.950 . S
C514 C500 1.377 . S
C514 C513 1.373 . S
C515 C499 1.377 . S
C515 C513 1.389 . S
C515 C516 1.524 . S
C516 C515 1.524 . S
C516 C517 1.397 . S
C516 C521 1.363 . S
C517 H488 0.950 . S
C517 C516 1.397 . S
C517 C518 1.334 . S
C518 H489 0.950 . S
C518 C517 1.334 . S
C518 C519 1.287 . S
C519 C518 1.287 . S
C519 C520 1.524 . S
C519 H522 0.999 . S
C520 H490 0.950 . S
C520 C519 1.524 . S
C520 C521 1.415 . S
C521 H491 0.950 . S
C521 C516 1.363 . S
C521 C520 1.415 . S
H522 C519 0.999 . S
H523 C504 0.913 . S
H524 C542 0.951 . S
H525 C544 0.951 . S
H526 C546 0.950 . S
H527 C547 0.950 . S
H528 C549 0.950 . S
H529 C552 0.950 . S
H530 C553 0.950 . S
H531 C555 0.950 . S
H532 C556 0.950 . S
H533 C557 0.951 . S
H534 C559 0.951 . S
H535 C561 0.950 . S
H536 C562 0.950 . S
H537 C564 0.950 . S
H538 C567 0.950 . S
H539 C568 0.950 . S
H540 C570 0.950 . S
H541 C571 0.950 . S
C542 H524 0.951 . S
C542 C543 1.366 . S
C542 C544 1.388 . S
C543 C542 1.366 . S
C543 C547 1.385 . S
C544 H525 0.951 . S
C544 C542 1.388 . S
C544 C545 1.366 . S
C545 C544 1.366 . S
C545 C546 1.414 . S
C545 C548 1.499 . S
C546 H526 0.950 . S
C546 C545 1.414 . S
C546 C547 1.374 . S
C547 H527 0.950 . S
C547 C543 1.385 . S
C547 C546 1.374 . S
C548 C545 1.499 . S
C548 C549 1.373 . S
C548 C550 1.389 . S
C549 H528 0.950 . S
C549 C548 1.373 . S
C549 C565 1.377 . S
C550 C548 1.389 . S
C550 C551 1.524 . S
C550 C564 1.377 . S
C551 C550 1.524 . S
C551 C552 1.397 . S
C551 C556 1.363 . S
C552 H529 0.950 . S
C552 C551 1.397 . S
C552 C553 1.334 . S
C553 H530 0.950 . S
C553 C552 1.334 . S
C553 C554 1.287 . S
C554 C553 1.287 . S
C554 C555 1.524 . S
C554 H573 0.913 . S
C555 H531 0.950 . S
C555 C554 1.524 . S
C555 C556 1.415 . S
C556 H532 0.950 . S
C556 C551 1.363 . S
C556 C555 1.415 . S
C557 H533 0.951 . S
C557 C558 1.366 . S
C557 C559 1.388 . S
C558 C557 1.366 . S
C558 C562 1.385 . S
C559 H534 0.951 . S
C559 C557 1.388 . S
C559 C560 1.366 . S
C560 C559 1.366 . S
C560 C561 1.414 . S
C560 C563 1.499 . S
C561 H535 0.950 . S
C561 C560 1.414 . S
C561 C562 1.374 . S
C562 H536 0.950 . S
C562 C558 1.385 . S
C562 C561 1.374 . S
C563 C560 1.499 . S
C563 C564 1.373 . S
C563 C565 1.389 . S
C564 H537 0.950 . S
C564 C550 1.377 . S
C564 C563 1.373 . S
C565 C549 1.377 . S
C565 C563 1.389 . S
C565 C566 1.524 . S
C566 C565 1.524 . S
C566 C567 1.397 . S
C566 C571 1.363 . S
C567 H538 0.950 . S
C567 C566 1.397 . S
C567 C568 1.334 . S
C568 H539 0.950 . S
C568 C567 1.334 . S
C568 C569 1.287 . S
C569 C568 1.287 . S
C569 C570 1.524 . S
C569 H572 0.999 . S
C570 H540 0.950 . S
C570 C569 1.524 . S
C570 C571 1.415 . S
C571 H541 0.950 . S
C571 C566 1.363 . S
C571 C570 1.415 . S
H572 C569 0.999 . S
H573 C554 0.913 . S
H574 C592 0.951 . S
H575 C594 0.951 . S
H576 C596 0.950 . S
H577 C597 0.950 . S
H578 C599 0.950 . S
H579 C602 0.950 . S
H580 C603 0.950 . S
H581 C605 0.950 . S
H582 C606 0.950 . S
H583 C607 0.951 . S
H584 C609 0.951 . S
H585 C611 0.950 . S
H586 C612 0.950 . S
H587 C614 0.950 . S
H588 C617 0.950 . S
H589 C618 0.950 . S
H590 C620 0.950 . S
H591 C621 0.950 . S
C592 H574 0.951 . S
C592 C593 1.366 . S
C592 C594 1.388 . S
C593 C592 1.366 . S
C593 C597 1.385 . S
C594 H575 0.951 . S
C594 C592 1.388 . S
C594 C595 1.366 . S
C595 C594 1.366 . S
C595 C596 1.414 . S
C595 C598 1.499 . S
C596 H576 0.950 . S
C596 C595 1.414 . S
C596 C597 1.374 . S
C597 H577 0.950 . S
C597 C593 1.385 . S
C597 C596 1.374 . S
C598 C595 1.499 . S
C598 C599 1.373 . S
C598 C600 1.389 . S
C599 H578 0.950 . S
C599 C598 1.373 . S
C599 C615 1.377 . S
C600 C598 1.389 . S
C600 C601 1.524 . S
C600 C614 1.377 . S
C601 C600 1.524 . S
C601 C602 1.397 . S
C601 C606 1.363 . S
C602 H579 0.950 . S
C602 C601 1.397 . S
C602 C603 1.334 . S
C603 H580 0.950 . S
C603 C602 1.334 . S
C603 C604 1.287 . S
C604 C603 1.287 . S
C604 C605 1.524 . S
C604 H623 0.913 . S
C605 H581 0.950 . S
C605 C604 1.524 . S
C605 C606 1.415 . S
C606 H582 0.950 . S
C606 C601 1.363 . S
C606 C605 1.415 . S
C607 H583 0.951 . S
C607 C608 1.366 . S
C607 C609 1.388 . S
C608 C607 1.366 . S
C608 C612 1.385 . S
C609 H584 0.951 . S
C609 C607 1.388 . S
C609 C610 1.366 . S
C610 C609 1.366 . S
C610 C611 1.414 . S
C610 C613 1.499 . S
C611 H585 0.950 . S
C611 C610 1.414 . S
C611 C612 1.374 . S
C612 H586 0.950 . S
C612 C608 1.385 . S
C612 C611 1.374 . S
C613 C610 1.499 . S
C613 C614 1.373 . S
C613 C615 1.389 . S
C614 H587 0.950 . S
C614 C600 1.377 . S
C614 C613 1.373 . S
C615 C599 1.377 . S
C615 C613 1.389 . S
C615 C616 1.524 . S
C616 C615 1.524 . S
C616 C617 1.397 . S
C616 C621 1.363 . S
C617 H588 0.950 . S
C617 C616 1.397 . S
C617 C618 1.334 . S
C618 H589 0.950 . S
C618 C617 1.334 . S
C618 C619 1.287 . S
C619 C618 1.287 . S
C619 C620 1.524 . S
C619 H622 0.999 . S
C620 H590 0.950 . S
C620 C619 1.524 . S
C620 C621 1.415 . S
C621 H591 0.950 . S
C621 C616 1.363 . S
C621 C620 1.415 . S
H622 C619 0.999 . S
H623 C604 0.913 . S
H624 C642 0.951 . S
H625 C644 0.951 . S
H626 C646 0.950 . S
H627 C647 0.950 . S
H628 C649 0.950 . S
H629 C652 0.950 . S
H630 C653 0.950 . S
H631 C655 0.950 . S
H632 C656 0.950 . S
H633 C657 0.951 . S
H634 C659 0.951 . S
H635 C661 0.950 . S
H636 C662 0.950 . S
H637 C664 0.950 . S
H638 C667 0.950 . S
H639 C668 0.950 . S
H640 C670 0.950 . S
H641 C671 0.950 . S
C642 H624 0.951 . S
C642 C643 1.366 . S
C642 C644 1.388 . S
C643 C642 1.366 . S
C643 C647 1.385 . S
C644 H625 0.951 . S
C644 C642 1.388 . S
C644 C645 1.366 . S
C645 C644 1.366 . S
C645 C646 1.414 . S
C645 C648 1.499 . S
C646 H626 0.950 . S
C646 C645 1.414 . S
C646 C647 1.374 . S
C647 H627 0.950 . S
C647 C643 1.385 . S
C647 C646 1.374 . S
C648 C645 1.499 . S
C648 C649 1.373 . S
C648 C650 1.389 . S
C649 H628 0.950 . S
C649 C648 1.373 . S
C649 C665 1.377 1_565 S
C650 C648 1.389 . S
C650 C651 1.524 . S
C650 C664 1.377 1_565 S
C651 C650 1.524 . S
C651 C652 1.397 . S
C651 C656 1.363 . S
C652 H629 0.950 . S
C652 C651 1.397 . S
C652 C653 1.334 . S
C653 H630 0.950 . S
C653 C652 1.334 . S
C653 C654 1.287 . S
C654 C653 1.287 . S
C654 C655 1.524 . S
C654 H673 0.913 . S
C655 H631 0.950 . S
C655 C654 1.524 . S
C655 C656 1.415 . S
C656 H632 0.950 . S
C656 C651 1.363 . S
C656 C655 1.415 . S
C657 H633 0.951 . S
C657 C658 1.366 . S
C657 C659 1.388 . S
C658 C657 1.366 . S
C658 C662 1.385 . S
C659 H634 0.951 . S
C659 C657 1.388 . S
C659 C660 1.366 . S
C660 C659 1.366 . S
C660 C661 1.414 . S
C660 C663 1.499 . S
C661 H635 0.950 . S
C661 C660 1.414 . S
C661 C662 1.374 . S
C662 H636 0.950 . S
C662 C658 1.385 . S
C662 C661 1.374 . S
C663 C660 1.499 . S
C663 C664 1.373 . S
C663 C665 1.389 . S
C664 H637 0.950 . S
C664 C650 1.377 1_545 S
C664 C663 1.373 . S
C665 C649 1.377 1_545 S
C665 C663 1.389 . S
C665 C666 1.524 . S
C666 C665 1.524 . S
C666 C667 1.397 . S
C666 C671 1.363 . S
C667 H638 0.950 . S
C667 C666 1.397 . S
C667 C668 1.334 . S
C668 H639 0.950 . S
C668 C667 1.334 . S
C668 C669 1.287 . S
C669 C668 1.287 . S
C669 C670 1.524 . S
C669 H672 0.999 . S
C670 H640 0.950 . S
C670 C669 1.524 . S
C670 C671 1.415 . S
C671 H641 0.950 . S
C671 C666 1.363 . S
C671 C670 1.415 . S
H672 C669 0.999 . S
H673 C654 0.913 . S
H674 C692 0.951 . S
H675 C694 0.951 . S
H676 C696 0.950 . S
H677 C697 0.950 . S
H678 C699 0.950 . S
H679 C702 0.950 . S
H680 C703 0.950 . S
H681 C705 0.950 . S
H682 C706 0.950 . S
H683 C707 0.951 . S
H684 C709 0.951 . S
H685 C711 0.950 . S
H686 C712 0.950 . S
H687 C714 0.950 . S
H688 C717 0.950 . S
H689 C718 0.950 . S
H690 C720 0.950 . S
H691 C721 0.950 . S
C692 H674 0.951 . S
C692 C693 1.366 . S
C692 C694 1.388 . S
C693 C692 1.366 . S
C693 C697 1.385 . S
C694 H675 0.951 . S
C694 C692 1.388 . S
C694 C695 1.366 . S
C695 C694 1.366 . S
C695 C696 1.414 . S
C695 C698 1.499 . S
C696 H676 0.950 . S
C696 C695 1.414 . S
C696 C697 1.374 . S
C697 H677 0.950 . S
C697 C693 1.385 . S
C697 C696 1.374 . S
C698 C695 1.499 . S
C698 C699 1.373 . S
C698 C700 1.389 . S
C699 H678 0.950 . S
C699 C698 1.373 . S
C699 C715 1.377 . S
C700 C698 1.389 . S
C700 C701 1.524 . S
C700 C714 1.377 . S
C701 C700 1.524 . S
C701 C702 1.397 . S
C701 C706 1.363 . S
C702 H679 0.950 . S
C702 C701 1.397 . S
C702 C703 1.334 . S
C703 H680 0.950 . S
C703 C702 1.334 . S
C703 C704 1.287 . S
C704 C703 1.287 . S
C704 C705 1.524 . S
C704 H723 0.913 . S
C705 H681 0.950 . S
C705 C704 1.524 . S
C705 C706 1.415 . S
C706 H682 0.950 . S
C706 C701 1.363 . S
C706 C705 1.415 . S
C707 H683 0.951 . S
C707 C708 1.366 . S
C707 C709 1.388 . S
C708 C707 1.366 . S
C708 C712 1.385 . S
C709 H684 0.951 . S
C709 C707 1.388 . S
C709 C710 1.366 . S
C710 C709 1.366 . S
C710 C711 1.414 . S
C710 C713 1.499 . S
C711 H685 0.950 . S
C711 C710 1.414 . S
C711 C712 1.374 . S
C712 H686 0.950 . S
C712 C708 1.385 . S
C712 C711 1.374 . S
C713 C710 1.499 . S
C713 C714 1.373 . S
C713 C715 1.389 . S
C714 H687 0.950 . S
C714 C700 1.377 . S
C714 C713 1.373 . S
C715 C699 1.377 . S
C715 C713 1.389 . S
C715 C716 1.524 . S
C716 C715 1.524 . S
C716 C717 1.397 . S
C716 C721 1.363 . S
C717 H688 0.950 . S
C717 C716 1.397 . S
C717 C718 1.334 . S
C718 H689 0.950 . S
C718 C717 1.334 . S
C718 C719 1.287 . S
C719 C718 1.287 . S
C719 C720 1.524 . S
C719 H722 0.999 . S
C720 H690 0.950 . S
C720 C719 1.524 . S
C720 C721 1.415 . S
C721 H691 0.950 . S
C721 C716 1.363 . S
C721 C720 1.415 . S
H722 C719 0.999 . S
H723 C704 0.913 . S
H724 C742 0.951 . S
H725 C744 0.951 . S
H726 C746 0.950 . S
H727 C747 0.950 . S
H728 C749 0.950 . S
H729 C752 0.950 . S
H730 C753 0.950 . S
H731 C755 0.950 . S
H732 C756 0.950 . S
H733 C757 0.951 . S
H734 C759 0.951 . S
H735 C761 0.950 . S
H736 C762 0.950 . S
H737 C764 0.950 . S
H738 C767 0.950 . S
H739 C768 0.950 . S
H740 C770 0.950 . S
H741 C771 0.950 . S
C742 H724 0.951 . S
C742 C743 1.366 . S
C742 C744 1.388 . S
C743 C742 1.366 . S
C743 C747 1.385 . S
C744 H725 0.951 . S
C744 C742 1.388 . S
C744 C745 1.366 . S
C745 C744 1.366 . S
C745 C746 1.414 . S
C745 C748 1.499 . S
C746 H726 0.950 . S
C746 C745 1.414 . S
C746 C747 1.374 . S
C747 H727 0.950 . S
C747 C743 1.385 . S
C747 C746 1.374 . S
C748 C745 1.499 . S
C748 C749 1.373 . S
C748 C750 1.389 . S
C749 H728 0.950 . S
C749 C748 1.373 . S
C749 C765 1.377 1_556 S
C750 C748 1.389 . S
C750 C751 1.524 . S
C750 C764 1.377 1_556 S
C751 C750 1.524 . S
C751 C752 1.397 . S
C751 C756 1.363 . S
C752 H729 0.950 . S
C752 C751 1.397 . S
C752 C753 1.334 . S
C753 H730 0.950 . S
C753 C752 1.334 . S
C753 C754 1.287 . S
C754 C753 1.287 . S
C754 C755 1.524 . S
C754 H773 0.913 . S
C755 H731 0.950 . S
C755 C754 1.524 . S
C755 C756 1.415 . S
C756 H732 0.950 . S
C756 C751 1.363 . S
C756 C755 1.415 . S
C757 H733 0.951 . S
C757 C758 1.366 . S
C757 C759 1.388 . S
C758 C757 1.366 . S
C758 C762 1.385 . S
C759 H734 0.951 . S
C759 C757 1.388 . S
C759 C760 1.366 . S
C760 C759 1.366 . S
C760 C761 1.414 . S
C760 C763 1.499 . S
C761 H735 0.950 . S
C761 C760 1.414 . S
C761 C762 1.374 . S
C762 H736 0.950 . S
C762 C758 1.385 . S
C762 C761 1.374 . S
C763 C760 1.499 . S
C763 C764 1.373 . S
C763 C765 1.389 . S
C764 H737 0.950 . S
C764 C750 1.377 1_554 S
C764 C763 1.373 . S
C765 C749 1.377 1_554 S
C765 C763 1.389 . S
C765 C766 1.524 . S
C766 C765 1.524 . S
C766 C767 1.397 . S
C766 C771 1.363 . S
C767 H738 0.950 . S
C767 C766 1.397 . S
C767 C768 1.334 . S
C768 H739 0.950 . S
C768 C767 1.334 . S
C768 C769 1.287 . S
C769 C768 1.287 . S
C769 C770 1.524 . S
C769 H772 0.999 . S
C770 H740 0.950 . S
C770 C769 1.524 . S
C770 C771 1.415 . S
C771 H741 0.950 . S
C771 C766 1.363 . S
C771 C770 1.415 . S
H772 C769 0.999 . S
H773 C754 0.913 . S
H774 C792 0.951 . S
H775 C794 0.951 . S
H776 C796 0.950 . S
H777 C797 0.950 . S
H778 C799 0.950 . S
H779 C802 0.950 . S
H780 C803 0.950 . S
H781 C805 0.950 . S
H782 C806 0.950 . S
H783 C807 0.951 . S
H784 C809 0.951 . S
H785 C811 0.950 . S
H786 C812 0.950 . S
H787 C814 0.950 . S
H788 C817 0.950 . S
H789 C818 0.950 . S
H790 C820 0.950 . S
H791 C821 0.950 . S
C792 H774 0.951 . S
C792 C793 1.366 . S
C792 C794 1.388 . S
C793 C792 1.366 . S
C793 C797 1.385 . S
C794 H775 0.951 . S
C794 C792 1.388 . S
C794 C795 1.366 . S
C795 C794 1.366 . S
C795 C796 1.414 . S
C795 C798 1.499 . S
C796 H776 0.950 . S
C796 C795 1.414 . S
C796 C797 1.374 . S
C797 H777 0.950 . S
C797 C793 1.385 . S
C797 C796 1.374 . S
C798 C795 1.499 . S
C798 C799 1.373 . S
C798 C800 1.389 1_554 S
C799 H778 0.950 . S
C799 C798 1.373 . S
C799 C815 1.377 . S
C800 C798 1.389 1_556 S
C800 C801 1.524 . S
C800 C814 1.377 . S
C801 C800 1.524 . S
C801 C802 1.397 1_556 S
C801 C806 1.363 . S
C802 H779 0.950 . S
C802 C801 1.397 1_554 S
C802 C803 1.334 . S
C803 H780 0.950 . S
C803 C802 1.334 . S
C803 C804 1.287 1_554 S
C804 C803 1.287 1_556 S
C804 C805 1.524 . S
C804 H823 0.913 . S
C805 H781 0.950 . S
C805 C804 1.524 . S
C805 C806 1.415 . S
C806 H782 0.950 . S
C806 C801 1.363 . S
C806 C805 1.415 . S
C807 H783 0.951 . S
C807 C808 1.366 . S
C807 C809 1.388 . S
C808 C807 1.366 . S
C808 C812 1.385 . S
C809 H784 0.951 . S
C809 C807 1.388 . S
C809 C810 1.366 . S
C810 C809 1.366 . S
C810 C811 1.414 . S
C810 C813 1.499 . S
C811 H785 0.950 . S
C811 C810 1.414 . S
C811 C812 1.374 . S
C812 H786 0.950 . S
C812 C808 1.385 . S
C812 C811 1.374 . S
C813 C810 1.499 . S
C813 C814 1.373 . S
C813 C815 1.389 1_556 S
C814 H787 0.950 . S
C814 C800 1.377 . S
C814 C813 1.373 . S
C815 C799 1.377 . S
C815 C813 1.389 1_554 S
C815 C816 1.524 . S
C816 C815 1.524 . S
C816 C817 1.397 1_554 S
C816 C821 1.363 . S
C817 H788 0.950 . S
C817 C816 1.397 1_556 S
C817 C818 1.334 . S
C818 H789 0.950 . S
C818 C817 1.334 . S
C818 C819 1.287 1_556 S
C819 C818 1.287 1_554 S
C819 C820 1.524 . S
C819 H822 0.999 . S
C820 H790 0.950 . S
C820 C819 1.524 . S
C820 C821 1.415 . S
C821 H791 0.950 . S
C821 C816 1.363 . S
C821 C820 1.415 . S
H822 C819 0.999 . S
H823 C804 0.913 . S
H824 C842 0.951 . S
H825 C844 0.951 . S
H826 C846 0.950 . S
H827 C847 0.950 . S
H828 C849 0.950 . S
H829 C852 0.950 . S
H830 C853 0.950 . S
H831 C855 0.950 . S
H832 C856 0.950 . S
H833 C857 0.951 . S
H834 C859 0.951 . S
H835 C861 0.950 . S
H836 C862 0.950 . S
H837 C864 0.950 . S
H838 C867 0.950 . S
H839 C868 0.950 . S
H840 C870 0.950 . S
H841 C871 0.950 . S
C842 H824 0.951 . S
C842 C843 1.366 . S
C842 C844 1.388 . S
C843 C842 1.366 . S
C843 C847 1.385 . S
C844 H825 0.951 . S
C844 C842 1.388 . S
C844 C845 1.366 . S
C845 C844 1.366 . S
C845 C846 1.414 . S
C845 C848 1.499 . S
C846 H826 0.950 . S
C846 C845 1.414 . S
C846 C847 1.374 . S
C847 H827 0.950 . S
C847 C843 1.385 . S
C847 C846 1.374 . S
C848 C845 1.499 . S
C848 C849 1.373 . S
C848 C850 1.389 . S
C849 H828 0.950 . S
C849 C848 1.373 . S
C849 C865 1.377 . S
C850 C848 1.389 . S
C850 C851 1.524 . S
C850 C864 1.377 . S
C851 C850 1.524 . S
C851 C852 1.397 . S
C851 C856 1.363 . S
C852 H829 0.950 . S
C852 C851 1.397 . S
C852 C853 1.334 . S
C853 H830 0.950 . S
C853 C852 1.334 . S
C853 C854 1.287 . S
C854 C853 1.287 . S
C854 C855 1.524 . S
C854 H873 0.913 . S
C855 H831 0.950 . S
C855 C854 1.524 . S
C855 C856 1.415 . S
C856 H832 0.950 . S
C856 C851 1.363 . S
C856 C855 1.415 . S
C857 H833 0.951 . S
C857 C858 1.366 . S
C857 C859 1.388 . S
C858 C857 1.366 . S
C858 C862 1.385 . S
C859 H834 0.951 . S
C859 C857 1.388 . S
C859 C860 1.366 . S
C860 C859 1.366 . S
C860 C861 1.414 . S
C860 C863 1.499 . S
C861 H835 0.950 . S
C861 C860 1.414 . S
C861 C862 1.374 . S
C862 H836 0.950 . S
C862 C858 1.385 . S
C862 C861 1.374 . S
C863 C860 1.499 . S
C863 C864 1.373 . S
C863 C865 1.389 . S
C864 H837 0.950 . S
C864 C850 1.377 . S
C864 C863 1.373 . S
C865 C849 1.377 . S
C865 C863 1.389 . S
C865 C866 1.524 . S
C866 C865 1.524 . S
C866 C867 1.397 . S
C866 C871 1.363 . S
C867 H838 0.950 . S
C867 C866 1.397 . S
C867 C868 1.334 . S
C868 H839 0.950 . S
C868 C867 1.334 . S
C868 C869 1.287 . S
C869 C868 1.287 . S
C869 C870 1.524 . S
C869 H872 0.999 . S
C870 H840 0.950 . S
C870 C869 1.524 . S
C870 C871 1.415 . S
C871 H841 0.950 . S
C871 C866 1.363 . S
C871 C870 1.415 . S
H872 C869 0.999 . S
H873 C854 0.913 . S
H874 C892 0.951 . S
H875 C894 0.951 . S
H876 C896 0.950 . S
H877 C897 0.950 . S
H878 C899 0.950 . S
H879 C902 0.950 . S
H880 C903 0.950 . S
H881 C905 0.950 . S
H882 C906 0.950 . S
H883 C907 0.951 . S
H884 C909 0.951 . S
H885 C911 0.950 . S
H886 C912 0.950 . S
H887 C914 0.950 . S
H888 C917 0.950 . S
H889 C918 0.950 . S
H890 C920 0.950 . S
H891 C921 0.950 . S
C892 H874 0.951 . S
C892 C893 1.366 . S
C892 C894 1.388 . S
C893 C892 1.366 . S
C893 C897 1.385 . S
C894 H875 0.951 . S
C894 C892 1.388 . S
C894 C895 1.366 . S
C895 C894 1.366 . S
C895 C896 1.414 . S
C895 C898 1.499 . S
C896 H876 0.950 . S
C896 C895 1.414 . S
C896 C897 1.374 . S
C897 H877 0.950 . S
C897 C893 1.385 . S
C897 C896 1.374 . S
C898 C895 1.499 . S
C898 C899 1.373 . S
C898 C900 1.389 . S
C899 H878 0.950 . S
C899 C898 1.373 . S
C899 C915 1.377 . S
C900 C898 1.389 . S
C900 C901 1.524 . S
C900 C914 1.377 . S
C901 C900 1.524 . S
C901 C902 1.397 . S
C901 C906 1.363 . S
C902 H879 0.950 . S
C902 C901 1.397 . S
C902 C903 1.334 . S
C903 H880 0.950 . S
C903 C902 1.334 . S
C903 C904 1.287 . S
C904 C903 1.287 . S
C904 C905 1.524 . S
C904 H923 0.913 . S
C905 H881 0.950 . S
C905 C904 1.524 . S
C905 C906 1.415 . S
C906 H882 0.950 . S
C906 C901 1.363 . S
C906 C905 1.415 . S
C907 H883 0.951 . S
C907 C908 1.366 . S
C907 C909 1.388 . S
C908 C907 1.366 . S
C908 C912 1.385 . S
C909 H884 0.951 . S
C909 C907 1.388 . S
C909 C910 1.366 . S
C910 C909 1.366 . S
C910 C911 1.414 . S
C910 C913 1.499 . S
C911 H885 0.950 . S
C911 C910 1.414 . S
C911 C912 1.374 . S
C912 H886 0.950 . S
C912 C908 1.385 . S
C912 C911 1.374 . S
C913 C910 1.499 . S
C913 C914 1.373 . S
C913 C915 1.389 . S
C914 H887 0.950 . S
C914 C900 1.377 . S
C914 C913 1.373 . S
C915 C899 1.377 . S
C915 C913 1.389 . S
C915 C916 1.524 . S
C916 C915 1.524 . S
C916 C917 1.397 . S
C916 C921 1.363 . S
C917 H888 0.950 . S
C917 C916 1.397 . S
C917 C918 1.334 . S
C918 H889 0.950 . S
C918 C917 1.334 . S
C918 C919 1.287 . S
C919 C918 1.287 . S
C919 C920 1.524 . S
C919 H922 0.999 . S
C920 H890 0.950 . S
C920 C919 1.524 . S
C920 C921 1.415 . S
C921 H891 0.950 . S
C921 C916 1.363 . S
C921 C920 1.415 . S
H922 C919 0.999 . S
H923 C904 0.913 . S
H924 C942 0.951 . S
H925 C944 0.951 . S
H926 C946 0.950 . S
H927 C947 0.950 . S
H928 C949 0.950 . S
H929 C952 0.960 . S
H930 C953 0.950 1_655 S
H931 C955 0.950 . S
H932 C956 0.950 . S
H933 C957 0.951 . S
H934 C959 0.951 . S
H935 C961 0.950 . S
H936 C962 0.950 . S
H937 C964 0.950 . S
H938 C967 0.960 . S
H939 C968 0.950 1_455 S
H940 C970 0.950 . S
H941 C971 0.950 . S
C942 H924 0.951 . S
C942 C943 1.366 . S
C942 C944 1.388 . S
C943 C942 1.366 . S
C943 C947 1.385 . S
C944 H925 0.951 . S
C944 C942 1.388 . S
C944 C945 1.366 . S
C945 C944 1.366 . S
C945 C946 1.414 . S
C945 C948 1.499 . S
C946 H926 0.950 . S
C946 C945 1.414 . S
C946 C947 1.374 . S
C947 H927 0.950 . S
C947 C943 1.385 . S
C947 C946 1.374 . S
C948 C945 1.499 . S
C948 C949 1.373 . S
C948 C950 1.389 1_655 S
C949 H928 0.950 . S
C949 C948 1.373 . S
C949 C965 1.377 . S
C950 C948 1.389 1_455 S
C950 C951 1.524 . S
C950 C964 1.377 . S
C951 C950 1.524 . S
C951 C952 1.391 1_455 S
C951 C956 1.363 . S
C952 H929 0.960 . S
C952 C951 1.391 1_655 S
C952 C953 1.331 1_655 S
C953 H930 0.950 1_455 S
C953 C952 1.331 1_455 S
C953 C954 1.287 . S
C954 C953 1.287 . S
C954 C955 1.524 . S
C954 H973 0.913 . S
C955 H931 0.950 . S
C955 C954 1.524 . S
C955 C956 1.415 . S
C956 H932 0.950 . S
C956 C951 1.363 . S
C956 C955 1.415 . S
C957 H933 0.951 . S
C957 C958 1.366 . S
C957 C959 1.388 . S
C958 C957 1.366 . S
C958 C962 1.385 . S
C959 H934 0.951 . S
C959 C957 1.388 . S
C959 C960 1.366 . S
C960 C959 1.366 . S
C960 C961 1.414 . S
C960 C963 1.499 . S
C961 H935 0.950 . S
C961 C960 1.414 . S
C961 C962 1.374 . S
C962 H936 0.950 . S
C962 C958 1.385 . S
C962 C961 1.374 . S
C963 C960 1.499 . S
C963 C964 1.373 . S
C963 C965 1.389 1_455 S
C964 H937 0.950 . S
C964 C950 1.377 . S
C964 C963 1.373 . S
C965 C949 1.377 . S
C965 C963 1.389 1_655 S
C965 C966 1.524 . S
C966 C965 1.524 . S
C966 C967 1.391 1_655 S
C966 C971 1.363 . S
C967 H938 0.960 . S
C967 C966 1.391 1_455 S
C967 C968 1.331 1_455 S
C968 H939 0.950 1_655 S
C968 C967 1.331 1_655 S
C968 C969 1.287 . S
C969 C968 1.287 . S
C969 C970 1.524 . S
C969 H972 0.999 . S
C970 H940 0.950 . S
C970 C969 1.524 . S
C970 C971 1.415 . S
C971 H941 0.950 . S
C971 C966 1.363 . S
C971 C970 1.415 . S
H972 C969 0.999 . S
H973 C954 0.913 . S
H974 C992 0.951 . S
H975 C994 0.951 . S
H976 C996 0.950 . S
H977 C997 0.950 . S
H978 C999 0.950 . S
H979 C1002 0.950 . S
H980 C1003 0.950 . S
H981 C1005 0.950 . S
H982 C1006 0.950 . S
H983 C1007 0.951 . S
H984 C1009 0.951 . S
H985 C1011 0.950 . S
H986 C1012 0.950 . S
H987 C1014 0.950 . S
H988 C1017 0.950 . S
H989 C1018 0.950 . S
H990 C1020 0.950 . S
H991 C1021 0.950 . S
C992 H974 0.951 . S
C992 C993 1.366 . S
C992 C994 1.388 . S
C993 C992 1.366 . S
C993 C997 1.385 . S
C994 H975 0.951 . S
C994 C992 1.388 . S
C994 C995 1.366 . S
C995 C994 1.366 . S
C995 C996 1.414 . S
C995 C998 1.499 . S
C996 H976 0.950 . S
C996 C995 1.414 . S
C996 C997 1.374 . S
C997 H977 0.950 . S
C997 C993 1.385 . S
C997 C996 1.374 . S
C998 C995 1.499 . S
C998 C999 1.373 . S
C998 C1000 1.389 . S
C999 H978 0.950 . S
C999 C998 1.373 . S
C999 C1015 1.377 1_655 S
C1000 C998 1.389 . S
C1000 C1001 1.524 . S
C1000 C1014 1.377 1_655 S
C1001 C1000 1.524 . S
C1001 C1002 1.397 . S
C1001 C1006 1.363 . S
C1002 H979 0.950 . S
C1002 C1001 1.397 . S
C1002 C1003 1.334 . S
C1003 H980 0.950 . S
C1003 C1002 1.334 . S
C1003 C1004 1.287 . S
C1004 C1003 1.287 . S
C1004 C1005 1.524 . S
C1004 H1023 0.913 . S
C1005 H981 0.950 . S
C1005 C1004 1.524 . S
C1005 C1006 1.415 . S
C1006 H982 0.950 . S
C1006 C1001 1.363 . S
C1006 C1005 1.415 . S
C1007 H983 0.951 . S
C1007 C1008 1.366 . S
C1007 C1009 1.388 . S
C1008 C1007 1.366 . S
C1008 C1012 1.385 . S
C1009 H984 0.951 . S
C1009 C1007 1.388 . S
C1009 C1010 1.366 . S
C1010 C1009 1.366 . S
C1010 C1011 1.414 . S
C1010 C1013 1.499 . S
C1011 H985 0.950 . S
C1011 C1010 1.414 . S
C1011 C1012 1.374 . S
C1012 H986 0.950 . S
C1012 C1008 1.385 . S
C1012 C1011 1.374 . S
C1013 C1010 1.499 . S
C1013 C1014 1.373 . S
C1013 C1015 1.389 . S
C1014 H987 0.950 . S
C1014 C1000 1.377 1_455 S
C1014 C1013 1.373 . S
C1015 C999 1.377 1_455 S
C1015 C1013 1.389 . S
C1015 C1016 1.524 . S
C1016 C1015 1.524 . S
C1016 C1017 1.397 . S
C1016 C1021 1.363 . S
C1017 H988 0.950 . S
C1017 C1016 1.397 . S
C1017 C1018 1.334 . S
C1018 H989 0.950 . S
C1018 C1017 1.334 . S
C1018 C1019 1.287 . S
C1019 C1018 1.287 . S
C1019 C1020 1.524 . S
C1019 H1022 0.999 . S
C1020 H990 0.950 . S
C1020 C1019 1.524 . S
C1020 C1021 1.415 . S
C1021 H991 0.950 . S
C1021 C1016 1.363 . S
C1021 C1020 1.415 . S
H1022 C1019 0.999 . S
H1023 C1004 0.913 . S
H1024 C1042 0.951 . S
H1025 C1044 0.951 . S
H1026 C1046 0.950 . S
H1027 C1047 0.950 . S
H1028 C1049 0.950 . S
H1029 C1052 0.950 . S
H1030 C1053 0.950 . S
H1031 C1055 0.950 . S
H1032 C1056 0.950 . S
H1033 C1057 0.951 . S
H1034 C1059 0.951 . S
H1035 C1061 0.950 . S
H1036 C1062 0.950 . S
H1037 C1064 0.950 . S
H1038 C1067 0.950 . S
H1039 C1068 0.950 . S
H1040 C1070 0.950 . S
H1041 C1071 0.950 . S
C1042 H1024 0.951 . S
C1042 C1043 1.366 . S
C1042 C1044 1.388 . S
C1043 C1042 1.366 . S
C1043 C1047 1.385 . S
C1044 H1025 0.951 . S
C1044 C1042 1.388 . S
C1044 C1045 1.366 . S
C1045 C1044 1.366 . S
C1045 C1046 1.414 . S
C1045 C1048 1.499 . S
C1046 H1026 0.950 . S
C1046 C1045 1.414 . S
C1046 C1047 1.374 . S
C1047 H1027 0.950 . S
C1047 C1043 1.385 . S
C1047 C1046 1.374 . S
C1048 C1045 1.499 . S
C1048 C1049 1.373 . S
C1048 C1050 1.389 . S
C1049 H1028 0.950 . S
C1049 C1048 1.373 . S
C1049 C1065 1.377 . S
C1050 C1048 1.389 . S
C1050 C1051 1.524 . S
C1050 C1064 1.377 . S
C1051 C1050 1.524 . S
C1051 C1052 1.397 . S
C1051 C1056 1.363 . S
C1052 H1029 0.950 . S
C1052 C1051 1.397 . S
C1052 C1053 1.334 . S
C1053 H1030 0.950 . S
C1053 C1052 1.334 . S
C1053 C1054 1.287 . S
C1054 C1053 1.287 . S
C1054 C1055 1.524 . S
C1054 H1073 0.913 . S
C1055 H1031 0.950 . S
C1055 C1054 1.524 . S
C1055 C1056 1.415 . S
C1056 H1032 0.950 . S
C1056 C1051 1.363 . S
C1056 C1055 1.415 . S
C1057 H1033 0.951 . S
C1057 C1058 1.366 . S
C1057 C1059 1.388 . S
C1058 C1057 1.366 . S
C1058 C1062 1.385 . S
C1059 H1034 0.951 . S
C1059 C1057 1.388 . S
C1059 C1060 1.366 . S
C1060 C1059 1.366 . S
C1060 C1061 1.414 . S
C1060 C1063 1.499 . S
C1061 H1035 0.950 . S
C1061 C1060 1.414 . S
C1061 C1062 1.374 . S
C1062 H1036 0.950 . S
C1062 C1058 1.385 . S
C1062 C1061 1.374 . S
C1063 C1060 1.499 . S
C1063 C1064 1.373 . S
C1063 C1065 1.389 . S
C1064 H1037 0.950 . S
C1064 C1050 1.377 . S
C1064 C1063 1.373 . S
C1065 C1049 1.377 . S
C1065 C1063 1.389 . S
C1065 C1066 1.524 . S
C1066 C1065 1.524 . S
C1066 C1067 1.397 . S
C1066 C1071 1.363 . S
C1067 H1038 0.950 . S
C1067 C1066 1.397 . S
C1067 C1068 1.334 . S
C1068 H1039 0.950 . S
C1068 C1067 1.334 . S
C1068 C1069 1.287 . S
C1069 C1068 1.287 . S
C1069 C1070 1.524 . S
C1069 H1072 0.999 . S
C1070 H1040 0.950 . S
C1070 C1069 1.524 . S
C1070 C1071 1.415 . S
C1071 H1041 0.950 . S
C1071 C1066 1.363 . S
C1071 C1070 1.415 . S
H1072 C1069 0.999 . S
H1073 C1054 0.913 . S
H1074 C1092 0.951 . S
H1075 C1094 0.951 . S
H1076 C1096 0.950 . S
H1077 C1097 0.950 . S
H1078 C1099 0.950 . S
H1079 C1102 0.950 . S
H1080 C1103 0.943 1_545 S
H1081 C1105 0.950 . S
H1082 C1106 0.950 . S
H1083 C1107 0.951 . S
H1084 C1109 0.951 . S
H1085 C1111 0.950 . S
H1086 C1112 0.950 . S
H1087 C1114 0.950 . S
H1088 C1117 0.950 . S
H1089 C1118 0.943 1_565 S
H1090 C1120 0.950 . S
H1091 C1121 0.950 . S
C1092 H1074 0.951 . S
C1092 C1093 1.366 . S
C1092 C1094 1.388 . S
C1093 C1092 1.366 . S
C1093 C1097 1.385 . S
C1094 H1075 0.951 . S
C1094 C1092 1.388 . S
C1094 C1095 1.366 . S
C1095 C1094 1.366 . S
C1095 C1096 1.414 . S
C1095 C1098 1.499 . S
C1096 H1076 0.950 . S
C1096 C1095 1.414 . S
C1096 C1097 1.374 . S
C1097 H1077 0.950 . S
C1097 C1093 1.385 . S
C1097 C1096 1.374 . S
C1098 C1095 1.499 . S
C1098 C1099 1.373 . S
C1098 C1100 1.389 . S
C1099 H1078 0.950 . S
C1099 C1098 1.373 . S
C1099 C1115 1.377 1_545 S
C1100 C1098 1.389 . S
C1100 C1101 1.525 1_545 S
C1100 C1114 1.377 1_545 S
C1101 C1100 1.525 1_565 S
C1101 C1102 1.397 1_565 S
C1101 C1106 1.363 . S
C1102 H1079 0.950 . S
C1102 C1101 1.397 1_545 S
C1102 C1103 1.331 1_545 S
C1103 H1080 0.943 1_565 S
C1103 C1102 1.331 1_565 S
C1103 C1104 1.299 . S
C1104 C1103 1.299 . S
C1104 C1105 1.524 . S
C1104 H1123 0.913 . S
C1105 H1081 0.950 . S
C1105 C1104 1.524 . S
C1105 C1106 1.415 . S
C1106 H1082 0.950 . S
C1106 C1101 1.363 . S
C1106 C1105 1.415 . S
C1107 H1083 0.951 . S
C1107 C1108 1.366 . S
C1107 C1109 1.388 . S
C1108 C1107 1.366 . S
C1108 C1112 1.385 . S
C1109 H1084 0.951 . S
C1109 C1107 1.388 . S
C1109 C1110 1.366 . S
C1110 C1109 1.366 . S
C1110 C1111 1.414 . S
C1110 C1113 1.499 . S
C1111 H1085 0.950 . S
C1111 C1110 1.414 . S
C1111 C1112 1.374 . S
C1112 H1086 0.950 . S
C1112 C1108 1.385 . S
C1112 C1111 1.374 . S
C1113 C1110 1.499 . S
C1113 C1114 1.373 . S
C1113 C1115 1.389 . S
C1114 H1087 0.950 . S
C1114 C1100 1.377 1_565 S
C1114 C1113 1.373 . S
C1115 C1099 1.377 1_565 S
C1115 C1113 1.389 . S
C1115 C1116 1.525 1_565 S
C1116 C1115 1.525 1_545 S
C1116 C1117 1.397 1_545 S
C1116 C1121 1.363 . S
C1117 H1088 0.950 . S
C1117 C1116 1.397 1_565 S
C1117 C1118 1.331 1_565 S
C1118 H1089 0.943 1_545 S
C1118 C1117 1.331 1_545 S
C1118 C1119 1.299 . S
C1119 C1118 1.299 . S
C1119 C1120 1.524 . S
C1119 H1122 0.999 . S
C1120 H1090 0.950 . S
C1120 C1119 1.524 . S
C1120 C1121 1.415 . S
C1121 H1091 0.950 . S
C1121 C1116 1.363 . S
C1121 C1120 1.415 . S
H1122 C1119 0.999 . S
H1123 C1104 0.913 . S
H1124 C1142 0.951 . S
H1125 C1144 0.951 . S
H1126 C1146 0.950 . S
H1127 C1147 0.950 . S
H1128 C1149 0.950 . S
H1129 C1152 0.950 . S
H1130 C1153 0.950 . S
H1131 C1155 0.950 . S
H1132 C1156 0.950 . S
H1133 C1157 0.951 . S
H1134 C1159 0.951 . S
H1135 C1161 0.950 . S
H1136 C1162 0.950 . S
H1137 C1164 0.950 . S
H1138 C1167 0.950 . S
H1139 C1168 0.950 . S
H1140 C1170 0.950 . S
H1141 C1171 0.950 . S
C1142 H1124 0.951 . S
C1142 C1143 1.366 . S
C1142 C1144 1.388 . S
C1143 C1142 1.366 . S
C1143 C1147 1.385 . S
C1144 H1125 0.951 . S
C1144 C1142 1.388 . S
C1144 C1145 1.366 . S
C1145 C1144 1.366 . S
C1145 C1146 1.414 . S
C1145 C1148 1.499 . S
C1146 H1126 0.950 . S
C1146 C1145 1.414 . S
C1146 C1147 1.374 . S
C1147 H1127 0.950 . S
C1147 C1143 1.385 . S
C1147 C1146 1.374 . S
C1148 C1145 1.499 . S
C1148 C1149 1.373 . S
C1148 C1150 1.389 . S
C1149 H1128 0.950 . S
C1149 C1148 1.373 . S
C1149 C1165 1.377 . S
C1150 C1148 1.389 . S
C1150 C1151 1.524 . S
C1150 C1164 1.377 . S
C1151 C1150 1.524 . S
C1151 C1152 1.397 . S
C1151 C1156 1.363 . S
C1152 H1129 0.950 . S
C1152 C1151 1.397 . S
C1152 C1153 1.334 . S
C1153 H1130 0.950 . S
C1153 C1152 1.334 . S
C1153 C1154 1.287 . S
C1154 C1153 1.287 . S
C1154 C1155 1.524 . S
C1154 H1173 0.913 . S
C1155 H1131 0.950 . S
C1155 C1154 1.524 . S
C1155 C1156 1.415 . S
C1156 H1132 0.950 . S
C1156 C1151 1.363 . S
C1156 C1155 1.415 . S
C1157 H1133 0.951 . S
C1157 C1158 1.366 . S
C1157 C1159 1.388 . S
C1158 C1157 1.366 . S
C1158 C1162 1.385 . S
C1159 H1134 0.951 . S
C1159 C1157 1.388 . S
C1159 C1160 1.366 . S
C1160 C1159 1.366 . S
C1160 C1161 1.414 . S
C1160 C1163 1.499 . S
C1161 H1135 0.950 . S
C1161 C1160 1.414 . S
C1161 C1162 1.374 . S
C1162 H1136 0.950 . S
C1162 C1158 1.385 . S
C1162 C1161 1.374 . S
C1163 C1160 1.499 . S
C1163 C1164 1.373 . S
C1163 C1165 1.389 . S
C1164 H1137 0.950 . S
C1164 C1150 1.377 . S
C1164 C1163 1.373 . S
C1165 C1149 1.377 . S
C1165 C1163 1.389 . S
C1165 C1166 1.524 . S
C1166 C1165 1.524 . S
C1166 C1167 1.397 . S
C1166 C1171 1.363 . S
C1167 H1138 0.950 . S
C1167 C1166 1.397 . S
C1167 C1168 1.334 . S
C1168 H1139 0.950 . S
C1168 C1167 1.334 . S
C1168 C1169 1.287 . S
C1169 C1168 1.287 . S
C1169 C1170 1.524 . S
C1169 H1172 0.999 . S
C1170 H1140 0.950 . S
C1170 C1169 1.524 . S
C1170 C1171 1.415 . S
C1171 H1141 0.950 . S
C1171 C1166 1.363 . S
C1171 C1170 1.415 . S
H1172 C1169 0.999 . S
H1173 C1154 0.913 . S
H1174 C1192 0.951 . S
H1175 C1194 0.951 . S
H1176 C1196 0.950 . S
H1177 C1197 0.950 . S
H1178 C1199 0.950 . S
H1179 C1202 0.950 . S
H1180 C1203 0.950 . S
H1181 C1205 0.950 . S
H1182 C1206 0.950 . S
H1183 C1207 0.951 . S
H1184 C1209 0.951 . S
H1185 C1211 0.950 . S
H1186 C1212 0.950 . S
H1187 C1214 0.950 . S
H1188 C1217 0.950 . S
H1189 C1218 0.950 . S
H1190 C1220 0.950 . S
H1191 C1221 0.950 . S
C1192 H1174 0.951 . S
C1192 C1193 1.366 . S
C1192 C1194 1.388 . S
C1193 C1192 1.366 . S
C1193 C1197 1.385 . S
C1194 H1175 0.951 . S
C1194 C1192 1.388 . S
C1194 C1195 1.366 . S
C1195 C1194 1.366 . S
C1195 C1196 1.414 . S
C1195 C1198 1.499 . S
C1196 H1176 0.950 . S
C1196 C1195 1.414 . S
C1196 C1197 1.374 . S
C1197 H1177 0.950 . S
C1197 C1193 1.385 . S
C1197 C1196 1.374 . S
C1198 C1195 1.499 . S
C1198 C1199 1.375 1_554 S
C1198 C1200 1.389 . S
C1199 H1178 0.950 . S
C1199 C1198 1.375 1_556 S
C1199 C1215 1.375 . S
C1200 C1198 1.389 . S
C1200 C1201 1.524 . S
C1200 C1214 1.375 . S
C1201 C1200 1.524 . S
C1201 C1202 1.397 . S
C1201 C1206 1.363 . S
C1202 H1179 0.950 . S
C1202 C1201 1.397 . S
C1202 C1203 1.334 . S
C1203 H1180 0.950 . S
C1203 C1202 1.334 . S
C1203 C1204 1.287 . S
C1204 C1203 1.287 . S
C1204 C1205 1.524 . S
C1204 H1223 0.913 . S
C1205 H1181 0.950 . S
C1205 C1204 1.524 . S
C1205 C1206 1.415 . S
C1206 H1182 0.950 . S
C1206 C1201 1.363 . S
C1206 C1205 1.415 . S
C1207 H1183 0.951 . S
C1207 C1208 1.366 . S
C1207 C1209 1.388 . S
C1208 C1207 1.366 . S
C1208 C1212 1.385 . S
C1209 H1184 0.951 . S
C1209 C1207 1.388 . S
C1209 C1210 1.366 . S
C1210 C1209 1.366 . S
C1210 C1211 1.414 . S
C1210 C1213 1.499 . S
C1211 H1185 0.950 . S
C1211 C1210 1.414 . S
C1211 C1212 1.374 . S
C1212 H1186 0.950 . S
C1212 C1208 1.385 . S
C1212 C1211 1.374 . S
C1213 C1210 1.499 . S
C1213 C1214 1.375 1_556 S
C1213 C1215 1.389 . S
C1214 H1187 0.950 . S
C1214 C1200 1.375 . S
C1214 C1213 1.375 1_554 S
C1215 C1199 1.375 . S
C1215 C1213 1.389 . S
C1215 C1216 1.524 . S
C1216 C1215 1.524 . S
C1216 C1217 1.397 . S
C1216 C1221 1.363 . S
C1217 H1188 0.950 . S
C1217 C1216 1.397 . S
C1217 C1218 1.334 . S
C1218 H1189 0.950 . S
C1218 C1217 1.334 . S
C1218 C1219 1.287 . S
C1219 C1218 1.287 . S
C1219 C1220 1.524 . S
C1219 H1222 0.999 . S
C1220 H1190 0.950 . S
C1220 C1219 1.524 . S
C1220 C1221 1.415 . S
C1221 H1191 0.950 . S
C1221 C1216 1.363 . S
C1221 C1220 1.415 . S
H1222 C1219 0.999 . S
H1223 C1204 0.913 . S
H1224 C1242 0.951 . S
H1225 C1244 0.951 . S
H1226 C1246 0.950 . S
H1227 C1247 0.950 . S
H1228 C1249 0.950 . S
H1229 C1252 0.950 . S
H1230 C1253 0.950 . S
H1231 C1255 0.950 . S
H1232 C1256 0.950 . S
H1233 C1257 0.951 . S
H1234 C1259 0.951 . S
H1235 C1261 0.950 . S
H1236 C1262 0.950 . S
H1237 C1264 0.950 . S
H1238 C1267 0.950 . S
H1239 C1268 0.950 . S
H1240 C1270 0.950 . S
H1241 C1271 0.950 . S
C1242 H1224 0.951 . S
C1242 C1243 1.366 . S
C1242 C1244 1.388 . S
C1243 C1242 1.366 . S
C1243 C1247 1.385 . S
C1244 H1225 0.951 . S
C1244 C1242 1.388 . S
C1244 C1245 1.366 . S
C1245 C1244 1.366 . S
C1245 C1246 1.414 . S
C1245 C1248 1.499 . S
C1246 H1226 0.950 . S
C1246 C1245 1.414 . S
C1246 C1247 1.374 . S
C1247 H1227 0.950 . S
C1247 C1243 1.385 . S
C1247 C1246 1.374 . S
C1248 C1245 1.499 . S
C1248 C1249 1.373 . S
C1248 C1250 1.389 . S
C1249 H1228 0.950 . S
C1249 C1248 1.373 . S
C1249 C1265 1.377 1_556 S
C1250 C1248 1.389 . S
C1250 C1251 1.524 . S
C1250 C1264 1.377 1_556 S
C1251 C1250 1.524 . S
C1251 C1252 1.397 . S
C1251 C1256 1.363 . S
C1252 H1229 0.950 . S
C1252 C1251 1.397 . S
C1252 C1253 1.334 . S
C1253 H1230 0.950 . S
C1253 C1252 1.334 . S
C1253 C1254 1.287 . S
C1254 C1253 1.287 . S
C1254 C1255 1.524 . S
C1254 H1273 0.913 . S
C1255 H1231 0.950 . S
C1255 C1254 1.524 . S
C1255 C1256 1.415 . S
C1256 H1232 0.950 . S
C1256 C1251 1.363 . S
C1256 C1255 1.415 . S
C1257 H1233 0.951 . S
C1257 C1258 1.366 . S
C1257 C1259 1.388 . S
C1258 C1257 1.366 . S
C1258 C1262 1.385 . S
C1259 H1234 0.951 . S
C1259 C1257 1.388 . S
C1259 C1260 1.366 . S
C1260 C1259 1.366 . S
C1260 C1261 1.414 . S
C1260 C1263 1.499 . S
C1261 H1235 0.950 . S
C1261 C1260 1.414 . S
C1261 C1262 1.374 . S
C1262 H1236 0.950 . S
C1262 C1258 1.385 . S
C1262 C1261 1.374 . S
C1263 C1260 1.499 . S
C1263 C1264 1.373 . S
C1263 C1265 1.389 . S
C1264 H1237 0.950 . S
C1264 C1250 1.377 1_554 S
C1264 C1263 1.373 . S
C1265 C1249 1.377 1_554 S
C1265 C1263 1.389 . S
C1265 C1266 1.524 . S
C1266 C1265 1.524 . S
C1266 C1267 1.397 . S
C1266 C1271 1.363 . S
C1267 H1238 0.950 . S
C1267 C1266 1.397 . S
C1267 C1268 1.334 . S
C1268 H1239 0.950 . S
C1268 C1267 1.334 . S
C1268 C1269 1.287 . S
C1269 C1268 1.287 . S
C1269 C1270 1.524 . S
C1269 H1272 0.999 . S
C1270 H1240 0.950 . S
C1270 C1269 1.524 . S
C1270 C1271 1.415 . S
C1271 H1241 0.950 . S
C1271 C1266 1.363 . S
C1271 C1270 1.415 . S
H1272 C1269 0.999 . S
H1273 C1254 0.913 . S
H1274 C1292 0.951 . S
H1275 C1294 0.951 . S
H1276 C1296 0.950 . S
H1277 C1297 0.950 . S
H1278 C1299 0.950 . S
H1279 C1302 0.950 . S
H1280 C1303 0.950 . S
H1281 C1305 0.950 . S
H1282 C1306 0.950 . S
H1283 C1307 0.951 . S
H1284 C1309 0.951 . S
H1285 C1311 0.950 . S
H1286 C1312 0.950 . S
H1287 C1314 0.950 . S
H1288 C1317 0.950 . S
H1289 C1318 0.950 . S
H1290 C1320 0.950 . S
H1291 C1321 0.950 . S
C1292 H1274 0.951 . S
C1292 C1293 1.366 . S
C1292 C1294 1.388 . S
C1293 C1292 1.366 . S
C1293 C1297 1.385 . S
C1294 H1275 0.951 . S
C1294 C1292 1.388 . S
C1294 C1295 1.366 . S
C1295 C1294 1.366 . S
C1295 C1296 1.414 . S
C1295 C1298 1.499 . S
C1296 H1276 0.950 . S
C1296 C1295 1.414 . S
C1296 C1297 1.374 . S
C1297 H1277 0.950 . S
C1297 C1293 1.385 . S
C1297 C1296 1.374 . S
C1298 C1295 1.499 . S
C1298 C1299 1.373 . S
C1298 C1300 1.389 . S
C1299 H1278 0.950 . S
C1299 C1298 1.373 . S
C1299 C1315 1.377 . S
C1300 C1298 1.389 . S
C1300 C1301 1.524 . S
C1300 C1314 1.377 . S
C1301 C1300 1.524 . S
C1301 C1302 1.397 . S
C1301 C1306 1.363 . S
C1302 H1279 0.950 . S
C1302 C1301 1.397 . S
C1302 C1303 1.334 . S
C1303 H1280 0.950 . S
C1303 C1302 1.334 . S
C1303 C1304 1.287 . S
C1304 C1303 1.287 . S
C1304 C1305 1.524 . S
C1304 H1323 0.913 . S
C1305 H1281 0.950 . S
C1305 C1304 1.524 . S
C1305 C1306 1.415 . S
C1306 H1282 0.950 . S
C1306 C1301 1.363 . S
C1306 C1305 1.415 . S
C1307 H1283 0.951 . S
C1307 C1308 1.366 . S
C1307 C1309 1.388 . S
C1308 C1307 1.366 . S
C1308 C1312 1.385 . S
C1309 H1284 0.951 . S
C1309 C1307 1.388 . S
C1309 C1310 1.366 . S
C1310 C1309 1.366 . S
C1310 C1311 1.414 . S
C1310 C1313 1.499 . S
C1311 H1285 0.950 . S
C1311 C1310 1.414 . S
C1311 C1312 1.374 . S
C1312 H1286 0.950 . S
C1312 C1308 1.385 . S
C1312 C1311 1.374 . S
C1313 C1310 1.499 . S
C1313 C1314 1.373 . S
C1313 C1315 1.389 . S
C1314 H1287 0.950 . S
C1314 C1300 1.377 . S
C1314 C1313 1.373 . S
C1315 C1299 1.377 . S
C1315 C1313 1.389 . S
C1315 C1316 1.524 . S
C1316 C1315 1.524 . S
C1316 C1317 1.397 . S
C1316 C1321 1.363 . S
C1317 H1288 0.950 . S
C1317 C1316 1.397 . S
C1317 C1318 1.334 . S
C1318 H1289 0.950 . S
C1318 C1317 1.334 . S
C1318 C1319 1.287 . S
C1319 C1318 1.287 . S
C1319 C1320 1.524 . S
C1319 H1322 0.999 . S
C1320 H1290 0.950 . S
C1320 C1319 1.524 . S
C1320 C1321 1.415 . S
C1321 H1291 0.950 . S
C1321 C1316 1.363 . S
C1321 C1320 1.415 . S
H1322 C1319 0.999 . S
H1323 C1304 0.913 . S
H1324 C1342 0.951 . S
H1325 C1344 0.951 . S
H1326 C1346 0.950 . S
H1327 C1347 0.950 . S
H1328 C1349 0.950 . S
H1329 C1352 0.950 . S
H1330 C1353 0.950 . S
H1331 C1355 0.950 . S
H1332 C1356 0.950 . S
H1333 C1357 0.951 . S
H1334 C1359 0.951 . S
H1335 C1361 0.950 . S
H1336 C1362 0.950 . S
H1337 C1364 0.950 . S
H1338 C1367 0.950 . S
H1339 C1368 0.950 . S
H1340 C1370 0.950 . S
H1341 C1371 0.950 . S
C1342 H1324 0.951 . S
C1342 C1343 1.366 . S
C1342 C1344 1.388 . S
C1343 C1342 1.366 . S
C1343 C1347 1.385 . S
C1344 H1325 0.951 . S
C1344 C1342 1.388 . S
C1344 C1345 1.366 . S
C1345 C1344 1.366 . S
C1345 C1346 1.414 . S
C1345 C1348 1.499 . S
C1346 H1326 0.950 . S
C1346 C1345 1.414 . S
C1346 C1347 1.374 . S
C1347 H1327 0.950 . S
C1347 C1343 1.385 . S
C1347 C1346 1.374 . S
C1348 C1345 1.499 . S
C1348 C1349 1.373 . S
C1348 C1350 1.389 . S
C1349 H1328 0.950 . S
C1349 C1348 1.373 . S
C1349 C1365 1.377 . S
C1350 C1348 1.389 . S
C1350 C1351 1.524 . S
C1350 C1364 1.377 . S
C1351 C1350 1.524 . S
C1351 C1352 1.397 . S
C1351 C1356 1.363 . S
C1352 H1329 0.950 . S
C1352 C1351 1.397 . S
C1352 C1353 1.334 . S
C1353 H1330 0.950 . S
C1353 C1352 1.334 . S
C1353 C1354 1.287 . S
C1354 C1353 1.287 . S
C1354 C1355 1.524 . S
C1354 H1373 0.913 . S
C1355 H1331 0.950 . S
C1355 C1354 1.524 . S
C1355 C1356 1.415 . S
C1356 H1332 0.950 . S
C1356 C1351 1.363 . S
C1356 C1355 1.415 . S
C1357 H1333 0.951 . S
C1357 C1358 1.366 . S
C1357 C1359 1.388 . S
C1358 C1357 1.366 . S
C1358 C1362 1.385 . S
C1359 H1334 0.951 . S
C1359 C1357 1.388 . S
C1359 C1360 1.366 . S
C1360 C1359 1.366 . S
C1360 C1361 1.414 . S
C1360 C1363 1.499 . S
C1361 H1335 0.950 . S
C1361 C1360 1.414 . S
C1361 C1362 1.374 . S
C1362 H1336 0.950 . S
C1362 C1358 1.385 . S
C1362 C1361 1.374 . S
C1363 C1360 1.499 . S
C1363 C1364 1.373 . S
C1363 C1365 1.389 . S
C1364 H1337 0.950 . S
C1364 C1350 1.377 . S
C1364 C1363 1.373 . S
C1365 C1349 1.377 . S
C1365 C1363 1.389 . S
C1365 C1366 1.524 . S
C1366 C1365 1.524 . S
C1366 C1367 1.397 . S
C1366 C1371 1.363 . S
C1367 H1338 0.950 . S
C1367 C1366 1.397 . S
C1367 C1368 1.334 . S
C1368 H1339 0.950 . S
C1368 C1367 1.334 . S
C1368 C1369 1.287 . S
C1369 C1368 1.287 . S
C1369 C1370 1.524 . S
C1369 H1372 0.999 . S
C1370 H1340 0.950 . S
C1370 C1369 1.524 . S
C1370 C1371 1.415 . S
C1371 H1341 0.950 . S
C1371 C1366 1.363 . S
C1371 C1370 1.415 . S
H1372 C1369 0.999 . S
H1373 C1354 0.913 . S
H1374 C1392 0.951 . S
H1375 C1394 0.951 . S
H1376 C1396 0.950 . S
H1377 C1397 0.950 . S
H1378 C1399 0.950 . S
H1379 C1402 0.950 . S
H1380 C1403 0.950 . S
H1381 C1405 0.943 1_655 S
H1382 C1406 0.950 1_655 S
H1383 C1407 0.951 . S
H1384 C1409 0.951 . S
H1385 C1411 0.950 . S
H1386 C1412 0.950 . S
H1387 C1414 0.950 . S
H1388 C1417 0.950 . S
H1389 C1418 0.950 . S
H1390 C1420 0.943 1_455 S
H1391 C1421 0.950 1_455 S
C1392 H1374 0.951 . S
C1392 C1393 1.366 . S
C1392 C1394 1.388 . S
C1393 C1392 1.366 . S
C1393 C1397 1.385 . S
C1394 H1375 0.951 . S
C1394 C1392 1.388 . S
C1394 C1395 1.366 . S
C1395 C1394 1.366 . S
C1395 C1396 1.414 . S
C1395 C1398 1.499 . S
C1396 H1376 0.950 . S
C1396 C1395 1.414 . S
C1396 C1397 1.374 . S
C1397 H1377 0.950 . S
C1397 C1393 1.385 . S
C1397 C1396 1.374 . S
C1398 C1395 1.499 . S
C1398 C1399 1.373 . S
C1398 C1400 1.389 . S
C1399 H1378 0.950 . S
C1399 C1398 1.373 . S
C1399 C1415 1.377 1_455 S
C1400 C1398 1.389 . S
C1400 C1401 1.524 . S
C1400 C1414 1.377 1_455 S
C1401 C1400 1.524 . S
C1401 C1402 1.397 . S
C1401 C1406 1.363 . S
C1402 H1379 0.950 . S
C1402 C1401 1.397 . S
C1402 C1403 1.334 . S
C1403 H1380 0.950 . S
C1403 C1402 1.334 . S
C1403 C1404 1.287 . S
C1404 C1403 1.287 . S
C1404 C1405 1.524 . S
C1404 H1423 0.913 . S
C1405 H1381 0.943 1_455 S
C1405 C1404 1.524 . S
C1405 C1406 1.415 . S
C1406 H1382 0.950 1_455 S
C1406 C1401 1.363 . S
C1406 C1405 1.415 . S
C1407 H1383 0.951 . S
C1407 C1408 1.366 . S
C1407 C1409 1.388 . S
C1408 C1407 1.366 . S
C1408 C1412 1.385 . S
C1409 H1384 0.951 . S
C1409 C1407 1.388 . S
C1409 C1410 1.366 . S
C1410 C1409 1.366 . S
C1410 C1411 1.414 . S
C1410 C1413 1.499 . S
C1411 H1385 0.950 . S
C1411 C1410 1.414 . S
C1411 C1412 1.374 . S
C1412 H1386 0.950 . S
C1412 C1408 1.385 . S
C1412 C1411 1.374 . S
C1413 C1410 1.499 . S
C1413 C1414 1.373 . S
C1413 C1415 1.389 . S
C1414 H1387 0.950 . S
C1414 C1400 1.377 1_655 S
C1414 C1413 1.373 . S
C1415 C1399 1.377 1_655 S
C1415 C1413 1.389 . S
C1415 C1416 1.524 . S
C1416 C1415 1.524 . S
C1416 C1417 1.397 . S
C1416 C1421 1.363 . S
C1417 H1388 0.950 . S
C1417 C1416 1.397 . S
C1417 C1418 1.334 . S
C1418 H1389 0.950 . S
C1418 C1417 1.334 . S
C1418 C1419 1.287 . S
C1419 C1418 1.287 . S
C1419 C1420 1.524 . S
C1419 H1422 0.999 . S
C1420 H1390 0.943 1_655 S
C1420 C1419 1.524 . S
C1420 C1421 1.415 . S
C1421 H1391 0.950 1_655 S
C1421 C1416 1.363 . S
C1421 C1420 1.415 . S
H1422 C1419 0.999 . S
H1423 C1404 0.913 . S
H1424 C1442 0.951 . S
H1425 C1444 0.951 . S
H1426 C1446 0.950 . S
H1427 C1447 0.950 . S
H1428 C1449 0.950 1_655 S
H1429 C1452 0.950 . S
H1430 C1453 0.950 . S
H1431 C1455 0.950 . S
H1432 C1456 0.950 . S
H1433 C1457 0.951 . S
H1434 C1459 0.951 . S
H1435 C1461 0.950 . S
H1436 C1462 0.950 . S
H1437 C1464 0.950 1_455 S
H1438 C1467 0.950 . S
H1439 C1468 0.950 . S
H1440 C1470 0.950 . S
H1441 C1471 0.950 . S
C1442 H1424 0.951 . S
C1442 C1443 1.366 . S
C1442 C1444 1.388 . S
C1443 C1442 1.366 . S
C1443 C1447 1.385 . S
C1444 H1425 0.951 . S
C1444 C1442 1.388 . S
C1444 C1445 1.366 . S
C1445 C1444 1.366 . S
C1445 C1446 1.414 . S
C1445 C1448 1.499 . S
C1446 H1426 0.950 . S
C1446 C1445 1.414 . S
C1446 C1447 1.374 . S
C1447 H1427 0.950 . S
C1447 C1443 1.385 . S
C1447 C1446 1.374 . S
C1448 C1445 1.499 . S
C1448 C1449 1.375 . S
C1448 C1450 1.389 . S
C1449 H1428 0.950 1_455 S
C1449 C1448 1.375 . S
C1449 C1465 1.375 1_455 S
C1450 C1448 1.389 . S
C1450 C1451 1.524 . S
C1450 C1464 1.375 1_455 S
C1451 C1450 1.524 . S
C1451 C1452 1.397 . S
C1451 C1456 1.363 . S
C1452 H1429 0.950 . S
C1452 C1451 1.397 . S
C1452 C1453 1.334 . S
C1453 H1430 0.950 . S
C1453 C1452 1.334 . S
C1453 C1454 1.287 . S
C1454 C1453 1.287 . S
C1454 C1455 1.524 . S
C1454 H1473 0.913 . S
C1455 H1431 0.950 . S
C1455 C1454 1.524 . S
C1455 C1456 1.415 . S
C1456 H1432 0.950 . S
C1456 C1451 1.363 . S
C1456 C1455 1.415 . S
C1457 H1433 0.951 . S
C1457 C1458 1.366 . S
C1457 C1459 1.388 . S
C1458 C1457 1.366 . S
C1458 C1462 1.385 . S
C1459 H1434 0.951 . S
C1459 C1457 1.388 . S
C1459 C1460 1.366 . S
C1460 C1459 1.366 . S
C1460 C1461 1.414 . S
C1460 C1463 1.499 . S
C1461 H1435 0.950 . S
C1461 C1460 1.414 . S
C1461 C1462 1.374 . S
C1462 H1436 0.950 . S
C1462 C1458 1.385 . S
C1462 C1461 1.374 . S
C1463 C1460 1.499 . S
C1463 C1464 1.375 . S
C1463 C1465 1.389 . S
C1464 H1437 0.950 1_655 S
C1464 C1450 1.375 1_655 S
C1464 C1463 1.375 . S
C1465 C1449 1.375 1_655 S
C1465 C1463 1.389 . S
C1465 C1466 1.524 . S
C1466 C1465 1.524 . S
C1466 C1467 1.397 . S
C1466 C1471 1.363 . S
C1467 H1438 0.950 . S
C1467 C1466 1.397 . S
C1467 C1468 1.334 . S
C1468 H1439 0.950 . S
C1468 C1467 1.334 . S
C1468 C1469 1.287 . S
C1469 C1468 1.287 . S
C1469 C1470 1.524 . S
C1469 H1472 0.999 . S
C1470 H1440 0.950 . S
C1470 C1469 1.524 . S
C1470 C1471 1.415 . S
C1471 H1441 0.950 . S
C1471 C1466 1.363 . S
C1471 C1470 1.415 . S
H1472 C1469 0.999 . S
H1473 C1454 0.913 . S
H1474 C1492 0.951 . S
H1475 C1494 0.951 . S
H1476 C1496 0.950 . S
H1477 C1497 0.950 . S
H1478 C1499 0.950 . S
H1479 C1502 0.950 . S
H1480 C1503 0.950 . S
H1481 C1505 0.950 . S
H1482 C1506 0.950 . S
H1483 C1507 0.951 . S
H1484 C1509 0.951 . S
H1485 C1511 0.950 . S
H1486 C1512 0.950 . S
H1487 C1514 0.950 . S
H1488 C1517 0.950 . S
H1489 C1518 0.950 . S
H1490 C1520 0.950 . S
H1491 C1521 0.950 . S
C1492 H1474 0.951 . S
C1492 C1493 1.366 . S
C1492 C1494 1.388 . S
C1493 C1492 1.366 . S
C1493 C1497 1.385 . S
C1494 H1475 0.951 . S
C1494 C1492 1.388 . S
C1494 C1495 1.366 . S
C1495 C1494 1.366 . S
C1495 C1496 1.414 . S
C1495 C1498 1.499 . S
C1496 H1476 0.950 . S
C1496 C1495 1.414 . S
C1496 C1497 1.374 . S
C1497 H1477 0.950 . S
C1497 C1493 1.385 . S
C1497 C1496 1.374 . S
C1498 C1495 1.499 . S
C1498 C1499 1.373 . S
C1498 C1500 1.389 . S
C1499 H1478 0.950 . S
C1499 C1498 1.373 . S
C1499 C1515 1.377 . S
C1500 C1498 1.389 . S
C1500 C1501 1.524 . S
C1500 C1514 1.377 . S
C1501 C1500 1.524 . S
C1501 C1502 1.397 . S
C1501 C1506 1.363 . S
C1502 H1479 0.950 . S
C1502 C1501 1.397 . S
C1502 C1503 1.334 . S
C1503 H1480 0.950 . S
C1503 C1502 1.334 . S
C1503 C1504 1.287 . S
C1504 C1503 1.287 . S
C1504 C1505 1.524 . S
C1504 H1523 0.913 . S
C1505 H1481 0.950 . S
C1505 C1504 1.524 . S
C1505 C1506 1.415 . S
C1506 H1482 0.950 . S
C1506 C1501 1.363 . S
C1506 C1505 1.415 . S
C1507 H1483 0.951 . S
C1507 C1508 1.366 . S
C1507 C1509 1.388 . S
C1508 C1507 1.366 . S
C1508 C1512 1.385 . S
C1509 H1484 0.951 . S
C1509 C1507 1.388 . S
C1509 C1510 1.366 . S
C1510 C1509 1.366 . S
C1510 C1511 1.414 . S
C1510 C1513 1.499 . S
C1511 H1485 0.950 . S
C1511 C1510 1.414 . S
C1511 C1512 1.374 . S
C1512 H1486 0.950 . S
C1512 C1508 1.385 . S
C1512 C1511 1.374 . S
C1513 C1510 1.499 . S
C1513 C1514 1.373 . S
C1513 C1515 1.389 . S
C1514 H1487 0.950 . S
C1514 C1500 1.377 . S
C1514 C1513 1.373 . S
C1515 C1499 1.377 . S
C1515 C1513 1.389 . S
C1515 C1516 1.524 . S
C1516 C1515 1.524 . S
C1516 C1517 1.397 . S
C1516 C1521 1.363 . S
C1517 H1488 0.950 . S
C1517 C1516 1.397 . S
C1517 C1518 1.334 . S
C1518 H1489 0.950 . S
C1518 C1517 1.334 . S
C1518 C1519 1.287 . S
C1519 C1518 1.287 . S
C1519 C1520 1.524 . S
C1519 H1522 0.999 . S
C1520 H1490 0.950 . S
C1520 C1519 1.524 . S
C1520 C1521 1.415 . S
C1521 H1491 0.950 . S
C1521 C1516 1.363 . S
C1521 C1520 1.415 . S
H1522 C1519 0.999 . S
H1523 C1504 0.913 . S
H1524 C1542 0.951 . S
H1525 C1544 0.951 . S
H1526 C1546 0.950 . S
H1527 C1547 0.950 . S
H1528 C1549 0.950 . S
H1529 C1552 0.950 . S
H1530 C1553 0.950 . S
H1531 C1555 0.950 . S
H1532 C1556 0.950 . S
H1533 C1557 0.951 . S
H1534 C1559 0.951 . S
H1535 C1561 0.950 . S
H1536 C1562 0.950 . S
H1537 C1564 0.950 . S
H1538 C1567 0.950 . S
H1539 C1568 0.950 . S
H1540 C1570 0.950 . S
H1541 C1571 0.950 . S
C1542 H1524 0.951 . S
C1542 C1543 1.366 . S
C1542 C1544 1.388 . S
C1543 C1542 1.366 . S
C1543 C1547 1.385 . S
C1544 H1525 0.951 . S
C1544 C1542 1.388 . S
C1544 C1545 1.366 . S
C1545 C1544 1.366 . S
C1545 C1546 1.414 . S
C1545 C1548 1.499 . S
C1546 H1526 0.950 . S
C1546 C1545 1.414 . S
C1546 C1547 1.374 . S
C1547 H1527 0.950 . S
C1547 C1543 1.385 . S
C1547 C1546 1.374 . S
C1548 C1545 1.499 . S
C1548 C1549 1.373 . S
C1548 C1550 1.389 . S
C1549 H1528 0.950 . S
C1549 C1548 1.373 . S
C1549 C1565 1.377 . S
C1550 C1548 1.389 . S
C1550 C1551 1.524 . S
C1550 C1564 1.377 . S
C1551 C1550 1.524 . S
C1551 C1552 1.397 . S
C1551 C1556 1.363 . S
C1552 H1529 0.950 . S
C1552 C1551 1.397 . S
C1552 C1553 1.334 . S
C1553 H1530 0.950 . S
C1553 C1552 1.334 . S
C1553 C1554 1.287 . S
C1554 C1553 1.287 . S
C1554 C1555 1.524 . S
C1554 H1573 0.913 . S
C1555 H1531 0.950 . S
C1555 C1554 1.524 . S
C1555 C1556 1.415 . S
C1556 H1532 0.950 . S
C1556 C1551 1.363 . S
C1556 C1555 1.415 . S
C1557 H1533 0.951 . S
C1557 C1558 1.366 . S
C1557 C1559 1.388 . S
C1558 C1557 1.366 . S
C1558 C1562 1.385 . S
C1559 H1534 0.951 . S
C1559 C1557 1.388 . S
C1559 C1560 1.366 . S
C1560 C1559 1.366 . S
C1560 C1561 1.414 . S
C1560 C1563 1.499 . S
C1561 H1535 0.950 . S
C1561 C1560 1.414 . S
C1561 C1562 1.374 . S
C1562 H1536 0.950 . S
C1562 C1558 1.385 . S
C1562 C1561 1.374 . S
C1563 C1560 1.499 . S
C1563 C1564 1.373 . S
C1563 C1565 1.389 . S
C1564 H1537 0.950 . S
C1564 C1550 1.377 . S
C1564 C1563 1.373 . S
C1565 C1549 1.377 . S
C1565 C1563 1.389 . S
C1565 C1566 1.524 . S
C1566 C1565 1.524 . S
C1566 C1567 1.397 . S
C1566 C1571 1.363 . S
C1567 H1538 0.950 . S
C1567 C1566 1.397 . S
C1567 C1568 1.334 . S
C1568 H1539 0.950 . S
C1568 C1567 1.334 . S
C1568 C1569 1.287 . S
C1569 C1568 1.287 . S
C1569 C1570 1.524 . S
C1569 H1572 0.999 . S
C1570 H1540 0.950 . S
C1570 C1569 1.524 . S
C1570 C1571 1.415 . S
C1571 H1541 0.950 . S
C1571 C1566 1.363 . S
C1571 C1570 1.415 . S
H1572 C1569 0.999 . S
H1573 C1554 0.913 . S
H1574 C1592 0.951 . S
H1575 C1594 0.951 . S
H1576 C1596 0.950 . S
H1577 C1597 0.950 . S
H1578 C1599 0.950 . S
H1579 C1602 0.950 . S
H1580 C1603 0.950 . S
H1581 C1605 0.950 . S
H1582 C1606 0.950 . S
H1583 C1607 0.951 . S
H1584 C1609 0.951 . S
H1585 C1611 0.950 . S
H1586 C1612 0.950 . S
H1587 C1614 0.950 . S
H1588 C1617 0.950 . S
H1589 C1618 0.950 . S
H1590 C1620 0.950 . S
H1591 C1621 0.950 . S
C1592 H1574 0.951 . S
C1592 C1593 1.366 . S
C1592 C1594 1.388 . S
C1593 C1592 1.366 . S
C1593 C1597 1.385 . S
C1594 H1575 0.951 . S
C1594 C1592 1.388 . S
C1594 C1595 1.366 . S
C1595 C1594 1.366 . S
C1595 C1596 1.414 . S
C1595 C1598 1.499 . S
C1596 H1576 0.950 . S
C1596 C1595 1.414 . S
C1596 C1597 1.374 . S
C1597 H1577 0.950 . S
C1597 C1593 1.385 . S
C1597 C1596 1.374 . S
C1598 C1595 1.499 . S
C1598 C1599 1.373 . S
C1598 C1600 1.389 . S
C1599 H1578 0.950 . S
C1599 C1598 1.373 . S
C1599 C1615 1.377 1_545 S
C1600 C1598 1.389 . S
C1600 C1601 1.524 . S
C1600 C1614 1.377 1_545 S
C1601 C1600 1.524 . S
C1601 C1602 1.397 . S
C1601 C1606 1.363 1_545 S
C1602 H1579 0.950 . S
C1602 C1601 1.397 . S
C1602 C1603 1.334 . S
C1603 H1580 0.950 . S
C1603 C1602 1.334 . S
C1603 C1604 1.287 . S
C1604 C1603 1.287 . S
C1604 C1605 1.524 1_545 S
C1604 H1623 0.913 . S
C1605 H1581 0.950 . S
C1605 C1604 1.524 1_565 S
C1605 C1606 1.415 . S
C1606 H1582 0.950 . S
C1606 C1601 1.363 1_565 S
C1606 C1605 1.415 . S
C1607 H1583 0.951 . S
C1607 C1608 1.366 . S
C1607 C1609 1.388 . S
C1608 C1607 1.366 . S
C1608 C1612 1.385 . S
C1609 H1584 0.951 . S
C1609 C1607 1.388 . S
C1609 C1610 1.366 . S
C1610 C1609 1.366 . S
C1610 C1611 1.414 . S
C1610 C1613 1.499 . S
C1611 H1585 0.950 . S
C1611 C1610 1.414 . S
C1611 C1612 1.374 . S
C1612 H1586 0.950 . S
C1612 C1608 1.385 . S
C1612 C1611 1.374 . S
C1613 C1610 1.499 . S
C1613 C1614 1.373 . S
C1613 C1615 1.389 . S
C1614 H1587 0.950 . S
C1614 C1600 1.377 1_565 S
C1614 C1613 1.373 . S
C1615 C1599 1.377 1_565 S
C1615 C1613 1.389 . S
C1615 C1616 1.524 . S
C1616 C1615 1.524 . S
C1616 C1617 1.397 . S
C1616 C1621 1.363 1_565 S
C1617 H1588 0.950 . S
C1617 C1616 1.397 . S
C1617 C1618 1.334 . S
C1618 H1589 0.950 . S
C1618 C1617 1.334 . S
C1618 C1619 1.287 . S
C1619 C1618 1.287 . S
C1619 C1620 1.524 1_565 S
C1619 H1622 0.999 . S
C1620 H1590 0.950 . S
C1620 C1619 1.524 1_545 S
C1620 C1621 1.415 . S
C1621 H1591 0.950 . S
C1621 C1616 1.363 1_545 S
C1621 C1620 1.415 . S
H1622 C1619 0.999 . S
H1623 C1604 0.913 . S
H1624 C1642 0.951 . S
H1625 C1644 0.951 . S
H1626 C1646 0.950 . S
H1627 C1647 0.950 . S
H1628 C1649 0.950 . S
H1629 C1652 0.950 . S
H1630 C1653 0.950 . S
H1631 C1655 0.950 . S
H1632 C1656 0.950 . S
H1633 C1657 0.951 . S
H1634 C1659 0.951 . S
H1635 C1661 0.950 . S
H1636 C1662 0.950 . S
H1637 C1664 0.950 . S
H1638 C1667 0.950 . S
H1639 C1668 0.950 . S
H1640 C1670 0.950 . S
H1641 C1671 0.950 . S
C1642 H1624 0.951 . S
C1642 C1643 1.366 . S
C1642 C1644 1.388 . S
C1643 C1642 1.366 . S
C1643 C1647 1.385 . S
C1644 H1625 0.951 . S
C1644 C1642 1.388 . S
C1644 C1645 1.366 . S
C1645 C1644 1.366 . S
C1645 C1646 1.414 . S
C1645 C1648 1.499 . S
C1646 H1626 0.950 . S
C1646 C1645 1.414 . S
C1646 C1647 1.374 . S
C1647 H1627 0.950 . S
C1647 C1643 1.385 . S
C1647 C1646 1.374 . S
C1648 C1645 1.499 . S
C1648 C1649 1.373 . S
C1648 C1650 1.389 . S
C1649 H1628 0.950 . S
C1649 C1648 1.373 . S
C1649 C1665 1.377 . S
C1650 C1648 1.389 . S
C1650 C1651 1.524 . S
C1650 C1664 1.377 . S
C1651 C1650 1.524 . S
C1651 C1652 1.397 . S
C1651 C1656 1.363 . S
C1652 H1629 0.950 . S
C1652 C1651 1.397 . S
C1652 C1653 1.334 . S
C1653 H1630 0.950 . S
C1653 C1652 1.334 . S
C1653 C1654 1.287 . S
C1654 C1653 1.287 . S
C1654 C1655 1.524 . S
C1654 H1673 0.913 . S
C1655 H1631 0.950 . S
C1655 C1654 1.524 . S
C1655 C1656 1.415 . S
C1656 H1632 0.950 . S
C1656 C1651 1.363 . S
C1656 C1655 1.415 . S
C1657 H1633 0.951 . S
C1657 C1658 1.366 . S
C1657 C1659 1.388 . S
C1658 C1657 1.366 . S
C1658 C1662 1.385 . S
C1659 H1634 0.951 . S
C1659 C1657 1.388 . S
C1659 C1660 1.366 . S
C1660 C1659 1.366 . S
C1660 C1661 1.414 . S
C1660 C1663 1.499 . S
C1661 H1635 0.950 . S
C1661 C1660 1.414 . S
C1661 C1662 1.374 . S
C1662 H1636 0.950 . S
C1662 C1658 1.385 . S
C1662 C1661 1.374 . S
C1663 C1660 1.499 . S
C1663 C1664 1.373 . S
C1663 C1665 1.389 . S
C1664 H1637 0.950 . S
C1664 C1650 1.377 . S
C1664 C1663 1.373 . S
C1665 C1649 1.377 . S
C1665 C1663 1.389 . S
C1665 C1666 1.524 . S
C1666 C1665 1.524 . S
C1666 C1667 1.397 . S
C1666 C1671 1.363 . S
C1667 H1638 0.950 . S
C1667 C1666 1.397 . S
C1667 C1668 1.334 . S
C1668 H1639 0.950 . S
C1668 C1667 1.334 . S
C1668 C1669 1.287 . S
C1669 C1668 1.287 . S
C1669 C1670 1.524 . S
C1669 H1672 0.999 . S
C1670 H1640 0.950 . S
C1670 C1669 1.524 . S
C1670 C1671 1.415 . S
C1671 H1641 0.950 . S
C1671 C1666 1.363 . S
C1671 C1670 1.415 . S
H1672 C1669 0.999 . S
H1673 C1654 0.913 . S
H1674 C1692 0.951 . S
H1675 C1694 0.951 . S
H1676 C1696 0.950 . S
H1677 C1697 0.950 . S
H1678 C1699 0.950 . S
H1679 C1702 0.950 . S
H1680 C1703 0.950 . S
H1681 C1705 0.950 . S
H1682 C1706 0.950 . S
H1683 C1707 0.951 . S
H1684 C1709 0.951 . S
H1685 C1711 0.950 . S
H1686 C1712 0.950 . S
H1687 C1714 0.950 . S
H1688 C1717 0.950 . S
H1689 C1718 0.950 . S
H1690 C1720 0.950 . S
H1691 C1721 0.950 . S
C1692 H1674 0.951 . S
C1692 C1693 1.366 . S
C1692 C1694 1.388 . S
C1693 C1692 1.366 . S
C1693 C1697 1.385 . S
C1694 H1675 0.951 . S
C1694 C1692 1.388 . S
C1694 C1695 1.366 . S
C1695 C1694 1.366 . S
C1695 C1696 1.414 . S
C1695 C1698 1.499 . S
C1696 H1676 0.950 . S
C1696 C1695 1.414 . S
C1696 C1697 1.374 . S
C1697 H1677 0.950 . S
C1697 C1693 1.385 . S
C1697 C1696 1.374 . S
C1698 C1695 1.499 . S
C1698 C1699 1.373 . S
C1698 C1700 1.389 . S
C1699 H1678 0.950 . S
C1699 C1698 1.373 . S
C1699 C1715 1.377 . S
C1700 C1698 1.389 . S
C1700 C1701 1.524 . S
C1700 C1714 1.377 . S
C1701 C1700 1.524 . S
C1701 C1702 1.397 . S
C1701 C1706 1.363 . S
C1702 H1679 0.950 . S
C1702 C1701 1.397 . S
C1702 C1703 1.334 . S
C1703 H1680 0.950 . S
C1703 C1702 1.334 . S
C1703 C1704 1.287 . S
C1704 C1703 1.287 . S
C1704 C1705 1.524 . S
C1704 H1723 0.913 . S
C1705 H1681 0.950 . S
C1705 C1704 1.524 . S
C1705 C1706 1.415 . S
C1706 H1682 0.950 . S
C1706 C1701 1.363 . S
C1706 C1705 1.415 . S
C1707 H1683 0.951 . S
C1707 C1708 1.366 . S
C1707 C1709 1.388 . S
C1708 C1707 1.366 . S
C1708 C1712 1.385 . S
C1709 H1684 0.951 . S
C1709 C1707 1.388 . S
C1709 C1710 1.366 . S
C1710 C1709 1.366 . S
C1710 C1711 1.414 . S
C1710 C1713 1.499 . S
C1711 H1685 0.950 . S
C1711 C1710 1.414 . S
C1711 C1712 1.374 . S
C1712 H1686 0.950 . S
C1712 C1708 1.385 . S
C1712 C1711 1.374 . S
C1713 C1710 1.499 . S
C1713 C1714 1.373 . S
C1713 C1715 1.389 . S
C1714 H1687 0.950 . S
C1714 C1700 1.377 . S
C1714 C1713 1.373 . S
C1715 C1699 1.377 . S
C1715 C1713 1.389 . S
C1715 C1716 1.524 . S
C1716 C1715 1.524 . S
C1716 C1717 1.397 . S
C1716 C1721 1.363 . S
C1717 H1688 0.950 . S
C1717 C1716 1.397 . S
C1717 C1718 1.334 . S
C1718 H1689 0.950 . S
C1718 C1717 1.334 . S
C1718 C1719 1.287 . S
C1719 C1718 1.287 . S
C1719 C1720 1.524 . S
C1719 H1722 0.999 . S
C1720 H1690 0.950 . S
C1720 C1719 1.524 . S
C1720 C1721 1.415 . S
C1721 H1691 0.950 . S
C1721 C1716 1.363 . S
C1721 C1720 1.415 . S
H1722 C1719 0.999 . S
H1723 C1704 0.913 . S
H1724 C1742 0.951 . S
H1725 C1744 0.951 . S
H1726 C1746 0.950 . S
H1727 C1747 0.950 . S
H1728 C1749 0.950 . S
H1729 C1752 0.950 . S
H1730 C1753 0.950 . S
H1731 C1755 0.950 . S
H1732 C1756 0.950 . S
H1733 C1757 0.951 . S
H1734 C1759 0.951 . S
H1735 C1761 0.950 . S
H1736 C1762 0.950 . S
H1737 C1764 0.950 . S
H1738 C1767 0.950 . S
H1739 C1768 0.950 . S
H1740 C1770 0.950 . S
H1741 C1771 0.950 . S
C1742 H1724 0.951 . S
C1742 C1743 1.366 . S
C1742 C1744 1.388 . S
C1743 C1742 1.366 . S
C1743 C1747 1.385 . S
C1744 H1725 0.951 . S
C1744 C1742 1.388 . S
C1744 C1745 1.366 . S
C1745 C1744 1.366 . S
C1745 C1746 1.414 . S
C1745 C1748 1.499 . S
C1746 H1726 0.950 . S
C1746 C1745 1.414 . S
C1746 C1747 1.374 . S
C1747 H1727 0.950 . S
C1747 C1743 1.385 . S
C1747 C1746 1.374 . S
C1748 C1745 1.499 . S
C1748 C1749 1.373 . S
C1748 C1750 1.389 . S
C1749 H1728 0.950 . S
C1749 C1748 1.373 . S
C1749 C1765 1.377 1_545 S
C1750 C1748 1.389 . S
C1750 C1751 1.524 . S
C1750 C1764 1.377 1_545 S
C1751 C1750 1.524 . S
C1751 C1752 1.397 . S
C1751 C1756 1.363 . S
C1752 H1729 0.950 . S
C1752 C1751 1.397 . S
C1752 C1753 1.334 . S
C1753 H1730 0.950 . S
C1753 C1752 1.334 . S
C1753 C1754 1.287 . S
C1754 C1753 1.287 . S
C1754 C1755 1.524 . S
C1754 H1773 0.913 . S
C1755 H1731 0.950 . S
C1755 C1754 1.524 . S
C1755 C1756 1.415 . S
C1756 H1732 0.950 . S
C1756 C1751 1.363 . S
C1756 C1755 1.415 . S
C1757 H1733 0.951 . S
C1757 C1758 1.366 . S
C1757 C1759 1.388 . S
C1758 C1757 1.366 . S
C1758 C1762 1.385 . S
C1759 H1734 0.951 . S
C1759 C1757 1.388 . S
C1759 C1760 1.366 . S
C1760 C1759 1.366 . S
C1760 C1761 1.414 . S
C1760 C1763 1.499 . S
C1761 H1735 0.950 . S
C1761 C1760 1.414 . S
C1761 C1762 1.374 . S
C1762 H1736 0.950 . S
C1762 C1758 1.385 . S
C1762 C1761 1.374 . S
C1763 C1760 1.499 . S
C1763 C1764 1.373 . S
C1763 C1765 1.389 . S
C1764 H1737 0.950 . S
C1764 C1750 1.377 1_565 S
C1764 C1763 1.373 . S
C1765 C1749 1.377 1_565 S
C1765 C1763 1.389 . S
C1765 C1766 1.524 . S
C1766 C1765 1.524 . S
C1766 C1767 1.397 . S
C1766 C1771 1.363 . S
C1767 H1738 0.950 . S
C1767 C1766 1.397 . S
C1767 C1768 1.334 . S
C1768 H1739 0.950 . S
C1768 C1767 1.334 . S
C1768 C1769 1.287 . S
C1769 C1768 1.287 . S
C1769 C1770 1.524 . S
C1769 H1772 0.999 . S
C1770 H1740 0.950 . S
C1770 C1769 1.524 . S
C1770 C1771 1.415 . S
C1771 H1741 0.950 . S
C1771 C1766 1.363 . S
C1771 C1770 1.415 . S
H1772 C1769 0.999 . S
H1773 C1754 0.913 . S
H1774 C1792 0.951 . S
H1775 C1794 0.951 . S
H1776 C1796 0.950 . S
H1777 C1797 0.950 . S
H1778 C1799 0.950 . S
H1779 C1802 0.950 . S
H1780 C1803 0.950 . S
H1781 C1805 0.950 . S
H1782 C1806 0.950 . S
H1783 C1807 0.951 . S
H1784 C1809 0.951 . S
H1785 C1811 0.950 . S
H1786 C1812 0.950 . S
H1787 C1814 0.950 . S
H1788 C1817 0.950 . S
H1789 C1818 0.950 . S
H1790 C1820 0.950 . S
H1791 C1821 0.950 . S
C1792 H1774 0.951 . S
C1792 C1793 1.366 . S
C1792 C1794 1.388 . S
C1793 C1792 1.366 . S
C1793 C1797 1.385 . S
C1794 H1775 0.951 . S
C1794 C1792 1.388 . S
C1794 C1795 1.366 . S
C1795 C1794 1.366 . S
C1795 C1796 1.414 . S
C1795 C1798 1.499 . S
C1796 H1776 0.950 . S
C1796 C1795 1.414 . S
C1796 C1797 1.374 . S
C1797 H1777 0.950 . S
C1797 C1793 1.385 . S
C1797 C1796 1.374 . S
C1798 C1795 1.499 . S
C1798 C1799 1.373 . S
C1798 C1800 1.389 . S
C1799 H1778 0.950 . S
C1799 C1798 1.373 . S
C1799 C1815 1.377 . S
C1800 C1798 1.389 . S
C1800 C1801 1.524 . S
C1800 C1814 1.377 . S
C1801 C1800 1.524 . S
C1801 C1802 1.397 . S
C1801 C1806 1.363 . S
C1802 H1779 0.950 . S
C1802 C1801 1.397 . S
C1802 C1803 1.334 . S
C1803 H1780 0.950 . S
C1803 C1802 1.334 . S
C1803 C1804 1.287 . S
C1804 C1803 1.287 . S
C1804 C1805 1.524 . S
C1804 H1823 0.913 . S
C1805 H1781 0.950 . S
C1805 C1804 1.524 . S
C1805 C1806 1.415 . S
C1806 H1782 0.950 . S
C1806 C1801 1.363 . S
C1806 C1805 1.415 . S
C1807 H1783 0.951 . S
C1807 C1808 1.366 . S
C1807 C1809 1.388 . S
C1808 C1807 1.366 . S
C1808 C1812 1.385 . S
C1809 H1784 0.951 . S
C1809 C1807 1.388 . S
C1809 C1810 1.366 . S
C1810 C1809 1.366 . S
C1810 C1811 1.414 . S
C1810 C1813 1.499 . S
C1811 H1785 0.950 . S
C1811 C1810 1.414 . S
C1811 C1812 1.374 . S
C1812 H1786 0.950 . S
C1812 C1808 1.385 . S
C1812 C1811 1.374 . S
C1813 C1810 1.499 . S
C1813 C1814 1.373 . S
C1813 C1815 1.389 . S
C1814 H1787 0.950 . S
C1814 C1800 1.377 . S
C1814 C1813 1.373 . S
C1815 C1799 1.377 . S
C1815 C1813 1.389 . S
C1815 C1816 1.524 . S
C1816 C1815 1.524 . S
C1816 C1817 1.397 . S
C1816 C1821 1.363 . S
C1817 H1788 0.950 . S
C1817 C1816 1.397 . S
C1817 C1818 1.334 . S
C1818 H1789 0.950 . S
C1818 C1817 1.334 . S
C1818 C1819 1.287 . S
C1819 C1818 1.287 . S
C1819 C1820 1.524 . S
C1819 H1822 0.999 . S
C1820 H1790 0.950 . S
C1820 C1819 1.524 . S
C1820 C1821 1.415 . S
C1821 H1791 0.950 . S
C1821 C1816 1.363 . S
C1821 C1820 1.415 . S
H1822 C1819 0.999 . S
H1823 C1804 0.913 . S
C243 C4 1.107 . S
C258 C186 1.106 . S
C293 C18 1.108 . S
C308 C130 1.107 . S
C343 C200 1.106 . S
C358 C32 1.107 . S
C393 C46 1.107 . S
C408 C214 1.106 . S
C443 C60 1.107 . S
C458 C88 1.106 . S
C493 C144 1.108 . S
C508 C74 1.107 . S
C543 C158 1.108 . S
C558 C102 1.108 . S
C593 C116 1.107 . S
C608 C172 1.108 . S
C643 C40 1.535 . S
C658 C12 1.535 . S
C693 C26 1.535 . S
C708 C54 1.535 . S
C743 C179 1.470 . S
C758 C11 1.470 . S
C793 C25 1.470 . S
C808 C165 1.470 . S
C843 C67 1.470 . S
C858 C39 1.470 . S
C893 C151 1.470 . S
C908 C53 1.470 . S
C943 C19 1.399 . S
C958 C5 1.399 . S
C993 C47 1.397 . S
C1008 C33 1.398 . S
C1043 C145 1.398 . S
C1058 C61 1.399 . S
C1093 C109 1.546 . S
C1108 C81 1.546 . S
C1143 C95 1.546 . S
C1158 C123 1.546 . S
C1193 C222 1.521 . S
C1208 C82 1.521 . S
C1243 C96 1.520 . S
C1258 C208 1.521 . S
C1293 C138 1.520 . S
C1308 C110 1.521 . S
C1343 C124 1.521 . S
C1358 C194 1.520 . S
C1393 C89 1.339 . S
C1408 C75 1.340 . S
C1443 C117 1.340 . S
C1458 C103 1.339 . S
C1493 C131 1.340 . S
C1508 C187 1.339 . S
C1543 C152 1.535 . S
C1558 C166 1.535 . S
C1593 C180 1.535 . S
C1608 C68 1.535 . S
C1643 C173 1.397 . S
C1658 C159 1.398 . S
C1693 C207 1.546 . S
C1708 C193 1.545 . S
C1743 C137 1.545 . S
C1758 C221 1.546 . S
C1793 C215 1.340 . S
C1808 C201 1.339 . S
