# Generated by pormake.
# Topology sxb, (6)-cn, num edge types: 1
# Building blocks:
#     Node 0, Type 0, BuildingBlock: JUFBIX_clean_sbu_0, # of connection points: 6
#     Node 1, Type 0, BuildingBlock: JUFBIX_clean_sbu_0, # of connection points: 6
#     Node 2, Type 0, BuildingBlock: JUFBIX_clean_sbu_0, # of connection points: 6
#     Node 3, Type 0, BuildingBlock: JUFBIX_clean_sbu_0, # of connection points: 6
#     Edge 4, Type (0, 0), BuildingBlock: MIFKUJ_clean_linker_0, # of connection points: 2
#     Edge 5, Type (0, 0), BuildingBlock: MIFKUJ_clean_linker_0, # of connection points: 2
#     Edge 6, Type (0, 0), BuildingBlock: MIFKUJ_clean_linker_0, # of connection points: 2
#     Edge 7, Type (0, 0), BuildingBlock: MIFKUJ_clean_linker_0, # of connection points: 2
#     Edge 8, Type (0, 0), BuildingBlock: MIFKUJ_clean_linker_0, # of connection points: 2
#     Edge 9, Type (0, 0), BuildingBlock: MIFKUJ_clean_linker_0, # of connection points: 2
#     Edge 10, Type (0, 0), BuildingBlock: MIFKUJ_clean_linker_0, # of connection points: 2
#     Edge 11, Type (0, 0), BuildingBlock: MIFKUJ_clean_linker_0, # of connection points: 2
#     Edge 12, Type (0, 0), BuildingBlock: MIFKUJ_clean_linker_0, # of connection points: 2
#     Edge 13, Type (0, 0), BuildingBlock: MIFKUJ_clean_linker_0, # of connection points: 2
#     Edge 14, Type (0, 0), BuildingBlock: MIFKUJ_clean_linker_0, # of connection points: 2
#     Edge 15, Type (0, 0), BuildingBlock: MIFKUJ_clean_linker_0, # of connection points: 2
# Relax obj value: 0.067
# Max RMSD: 0.087
# Mean RMSD: 0.087
data_MOF--net-sxb--node1-JUFBIX_clean_sbu_0--edge1-MIFKUJ_clean_linker_0
_symmetry_space_group_name_H-M    P1
_symmetry_Int_Tables_number       1
_symmetry_cell_setting            triclinic
loop_
_symmetry_equiv_pos_as_xyz
'x, y, z'
_cell_length_a     18.633566
_cell_length_b     44.986456
_cell_length_c     38.349128
_cell_angle_alpha  89.668057
_cell_angle_beta   94.212842
_cell_angle_gamma 90.131386
loop_
_atom_site_label
_atom_site_type_symbol
_atom_site_fract_x
_atom_site_fract_y
_atom_site_fract_z
_atom_type_partial_charge
Co0 Co 0.98408 1.00443 0.01459 0.0
C1 C 0.01863 0.03685 0.07623 0.0
Co2 Co 0.97543 0.05396 1.00899 0.0
C3 C 0.03743 0.94281 1.00877 0.0
C4 C 0.95668 0.94736 0.04523 0.0
N5 N -0.00706 0.96304 0.02209 0.0
N6 N 0.02963 0.91522 0.02256 0.0
C7 C 0.97864 0.91821 0.04544 0.0
H8 H 0.0751 0.94823 0.98951 0.0
H9 H 0.91789 0.95663 0.06174 0.0
C10 C 0.94103 1.0215 0.94735 0.0
N11 N 0.96647 0.09536 1.00147 0.0
C12 C 0.92164 0.11557 0.01458 0.0
C13 C 0.00276 0.11102 0.97832 0.0
N14 N 0.92923 0.14312 1.00065 0.0
C15 C 0.98046 0.14011 0.97789 0.0
C16 C 0.10696 0.03117 0.99569 0.0
O17 O 0.95448 0.99868 0.96655 0.0
O18 O 0.94589 0.04727 0.96098 0.0
O19 O 0.07155 0.05508 0.99769 0.0
O20 O 0.07877 1.00647 1.00307 0.0
O21 O 0.00506 0.0597 0.05708 0.0
H22 H 0.04171 0.10174 0.9619 0.0
H23 H 0.88376 0.11014 0.03374 0.0
O24 O 0.01368 1.0111 0.06256 0.0
O25 O 0.88802 1.00331 0.02587 0.0
O26 O 0.88066 0.0519 0.02046 0.0
C27 C 0.85245 1.02718 0.02774 0.0
H28 H 0.96011 0.90077 0.06215 0.0
H29 H -0.00115 0.1575 0.96105 0.0
Co30 Co 0.98085 1.0038 0.50884 0.0
C31 C 0.01914 0.03439 0.44892 0.0
Co32 Co -0.00914 0.0529 0.51517 0.0
C33 C 0.92197 0.94299 0.51044 0.0
C34 C 0.02144 0.94617 0.4861 0.0
N35 N 0.97345 0.96264 0.5021 0.0
N36 N 0.93631 0.91487 0.50032 0.0
C37 C -0.00104 0.91707 0.48492 0.0
H38 H 0.87512 0.94926 0.52378 0.0
H39 H 0.06956 0.95487 0.47555 0.0
C40 C 0.9524 1.02236 0.57507 0.0
N41 N -0.00152 0.09404 0.52187 0.0
C42 C 0.05031 0.11349 0.51345 0.0
C43 C 0.95076 0.11071 0.53779 0.0
N44 N 0.03648 0.14168 0.52344 0.0
C45 C 0.97376 0.13975 0.53883 0.0
C46 C 0.8549 0.03403 0.49186 0.0
O47 O 0.95595 0.99939 0.556 0.0
O48 O 0.96576 0.04777 0.56222 0.0
O49 O 0.89262 0.05684 0.50009 0.0
O50 O 0.88345 1.0084 0.49387 0.0
O51 O 0.01576 0.05731 0.46805 0.0
H52 H 0.90247 0.10219 0.54835 0.0
H53 H 0.097 0.10703 0.5001 0.0
O54 O 0.00584 1.00896 0.46173 0.0
O55 O 0.07913 0.99987 0.5239 0.0
O56 O 0.08821 0.0483 0.53017 0.0
C57 C 0.1168 1.02268 0.53218 0.0
H58 H 0.02627 0.89908 0.47282 0.0
H59 H 0.94671 0.15789 0.55077 0.0
Co60 Co 0.48006 0.50368 0.01331 0.0
C61 C 0.44703 0.53509 0.07307 0.0
Co62 Co 0.46872 0.55287 1.00596 0.0
C63 C 0.53819 0.44261 0.01302 0.0
C64 C 0.44022 0.44625 0.03845 0.0
N65 N 0.48741 0.46246 0.0213 0.0
N66 N 0.5242 0.41463 0.02429 0.0
C67 C 0.46246 0.41714 0.04036 0.0
H68 H 0.58431 0.44865 0.99891 0.0
H69 H 0.39281 0.45514 0.0493 0.0
C70 C 0.50172 0.52151 0.94627 0.0
N71 N 0.46152 0.59407 0.99794 0.0
C72 C 0.4119 0.61416 1.00692 0.0
C73 C 0.50814 0.61006 0.98017 0.0
N74 N 0.42613 0.64207 0.9955 0.0
C75 C 0.48675 0.63928 0.9786 0.0
C76 C 0.60567 0.53405 0.02744 0.0
O77 O 0.50286 0.49875 0.96616 0.0
O78 O 0.48758 0.54692 0.95845 0.0
O79 O 0.56787 0.55667 0.01843 0.0
O80 O 0.57716 0.5084 0.02707 0.0
O81 O 0.44964 0.55797 0.05351 0.0
H82 H 0.55463 0.60096 0.96872 0.0
H83 H 0.36656 0.60838 0.02171 0.0
O84 O 0.45758 0.5095 0.0604 0.0
O85 O 0.38155 0.49971 0.99941 0.0
O86 O 0.37089 0.54826 0.99369 0.0
C87 C 0.34304 0.52247 0.99196 0.0
H88 H 0.43558 0.39937 0.05339 0.0
H89 H 0.5134 0.65695 0.96529 0.0
Co90 Co 0.48693 0.50213 0.50837 0.0
C91 C 0.45801 0.53519 0.44656 0.0
Co92 Co 0.4976 0.5515 0.51412 0.0
C93 C 0.43383 0.44046 0.51343 0.0
C94 C 0.5171 0.44549 0.4783 0.0
N95 N 0.47887 0.46092 0.50062 0.0
N96 N 0.44314 0.41297 0.50012 0.0
C97 C 0.4957 0.41624 0.47808 0.0
H98 H 0.39478 0.44564 0.53203 0.0
H99 H 0.55705 0.455 0.46244 0.0
C100 C 0.52691 0.51819 0.57574 0.0
N101 N 0.50545 0.59274 0.52197 0.0
C102 C 0.54877 0.61364 0.50869 0.0
C103 C 0.46824 0.6077 0.54511 0.0
N104 N 0.53923 0.64094 0.52251 0.0
C105 C 0.48844 0.63708 0.54537 0.0
C106 C 0.36293 0.52892 0.52381 0.0
O107 O 0.51133 0.49576 0.55656 0.0
O108 O 0.52552 0.54418 0.56234 0.0
O109 O 0.40091 0.55234 0.52394 0.0
O110 O 0.39041 0.50399 0.5173 0.0
O111 O 0.47018 0.55787 0.46588 0.0
H112 H 0.42981 0.59777 0.56152 0.0
H113 H 0.58672 0.60891 0.48942 0.0
O114 O 0.46217 0.50931 0.46018 0.0
O115 O 0.58476 0.50122 0.49916 0.0
O116 O 0.59245 0.54991 0.50353 0.0
C117 C 0.62031 0.52515 0.4967 0.0
H118 H 0.51575 0.39889 0.46195 0.0
H119 H 0.46884 0.65411 0.56206 0.0
H120 H 0.4758 0.69887 0.99168 0.0
H121 H 0.40794 0.74467 0.99501 0.0
H122 H 0.21712 0.6943 0.01339 0.0
H123 H 0.28447 0.64791 1.00853 0.0
H124 H 0.18399 0.73778 0.96811 0.0
H125 H 0.31593 0.73327 0.07988 0.0
H126 H 0.4234 0.72827 0.12098 0.0
H127 H 0.51603 0.806 0.0766 0.0
H128 H 0.40949 0.81124 0.03489 0.0
H129 H 0.98121 0.85863 0.02725 0.0
H130 H 0.04909 0.81284 0.02154 0.0
H131 H 0.23549 0.86392 0.99766 0.0
H132 H 0.16768 0.91015 1.00408 0.0
H133 H 0.27117 0.82042 0.04528 0.0
H134 H 0.13766 0.82505 0.93396 0.0
H135 H 0.02935 0.83002 0.89341 0.0
H136 H 0.9386 0.7519 0.93783 0.0
H137 H 0.046 0.7467 0.97901 0.0
C138 C 0.41931 0.69727 0.99616 0.0
C139 C 0.38591 0.66934 0.99961 0.0
C140 C 0.38055 0.72372 0.99851 0.0
C141 C 0.3073 0.72322 1.00492 0.0
C142 C 0.2736 0.69543 1.00853 0.0
C143 C 0.31243 0.66883 1.00605 0.0
C144 C 0.26607 0.75169 1.00709 0.0
C145 C 0.20258 0.75563 0.98542 0.0
C146 C 0.29093 0.77552 0.02891 0.0
C147 C 0.35499 0.77248 0.05404 0.0
C148 C 0.35944 0.74917 0.07871 0.0
C149 C 0.42016 0.74632 0.10214 0.0
C150 C 0.47658 0.76676 0.10135 0.0
C151 C 0.47232 0.79016 0.07716 0.0
C152 C 0.41174 0.7931 0.05364 0.0
C153 C 0.03664 0.86022 0.02076 0.0
C154 C 0.06889 0.8882 0.01624 0.0
C155 C 0.07535 0.83391 0.01721 0.0
C156 C 0.14749 0.83472 1.00888 0.0
C157 C 0.17989 0.86261 1.00402 0.0
C158 C 0.14088 0.88906 1.00739 0.0
C159 C 0.18916 0.80645 1.00636 0.0
C160 C 0.25268 0.80255 0.02797 0.0
C161 C 0.16421 0.78263 0.98458 0.0
C162 C 0.09962 0.78565 0.95979 0.0
C163 C 0.09437 0.80907 0.93528 0.0
C164 C 0.03318 0.8119 0.91214 0.0
C165 C 0.97705 0.79133 0.9131 0.0
C166 C 0.98209 0.76784 0.93714 0.0
C167 C 0.04314 0.76492 0.96037 0.0
H168 H 0.92972 0.79356 0.89516 0.0
H169 H 0.52354 0.76451 0.11952 0.0
H170 H 0.47709 0.35745 0.02909 0.0
H171 H 0.54718 0.3121 0.02668 0.0
H172 H 0.73603 0.36363 1.00827 0.0
H173 H 0.66623 0.40958 0.01133 0.0
H174 H 0.72201 0.3147 0.96534 0.0
H175 H 0.71665 0.33344 0.08812 0.0
H176 H 0.65966 0.34396 0.14273 0.0
H177 H 0.54035 0.26232 0.13245 0.0
H178 H 0.59588 0.25151 0.07746 0.0
H179 H 0.97643 0.19983 0.995 0.0
H180 H 0.90759 0.24545 0.99982 0.0
H181 H 0.72217 0.19409 0.02452 0.0
H182 H 0.79147 0.14805 0.0198 0.0
H183 H 0.7338 0.24296 0.06439 0.0
H184 H 0.7362 0.22395 0.94214 0.0
H185 H 0.79015 0.21295 0.88685 0.0
H186 H 0.91083 0.29436 0.89506 0.0
H187 H 0.85835 0.30565 0.9507 0.0
C188 C 0.53365 0.35944 0.02493 0.0
C189 C 0.56576 0.38758 0.02092 0.0
C190 C 0.5738 0.33326 0.02345 0.0
C191 C 0.64736 0.33428 0.01786 0.0
C192 C 0.67942 0.36218 0.01278 0.0
C193 C 0.63924 0.38852 0.01442 0.0
C194 C 0.69025 0.30617 0.01728 0.0
C195 C 0.7255 0.29926 0.98724 0.0
C196 C 0.6932 0.28543 0.04536 0.0
C197 C 0.65993 0.29181 0.07849 0.0
C198 C 0.67784 0.31784 0.09735 0.0
C199 C 0.64587 0.32384 0.1284 0.0
C200 C 0.59628 0.30386 0.14101 0.0
C201 C 0.5787 0.2778 0.12263 0.0
C202 C 0.61045 0.27171 0.09153 0.0
C203 C 0.92095 0.19812 1.00136 0.0
C204 C 0.88942 0.1701 1.00657 0.0
C205 C 0.88147 0.22434 1.0041 0.0
C206 C 0.80894 0.2234 0.01179 0.0
C207 C 0.77788 0.19553 0.01836 0.0
C208 C 0.81764 0.16916 0.01576 0.0
C209 C 0.76589 0.2515 0.01248 0.0
C210 C 0.73046 0.2584 0.0425 0.0
C211 C 0.76234 0.27216 0.98428 0.0
C212 C 0.79386 0.2655 0.95077 0.0
C213 C 0.77467 0.2394 0.9323 0.0
C214 C 0.80491 0.23313 0.90087 0.0
C215 C 0.85403 0.2529 0.8875 0.0
C216 C 0.87285 0.27904 0.90548 0.0
C217 C 0.84283 0.2854 0.93695 0.0
H218 H 0.87738 0.24801 0.86316 0.0
H219 H 0.5716 0.30854 0.16505 0.0
H220 H -0.01006 0.19891 0.52411 0.0
H221 H 0.06123 0.24395 0.52098 0.0
H222 H 0.25116 0.19149 0.50901 0.0
H223 H 0.18016 0.14585 0.51365 0.0
H224 H 0.28143 0.2357 0.55405 0.0
H225 H 0.16415 0.22977 0.43934 0.0
H226 H 0.06208 0.22439 0.39513 0.0
H227 H 0.96562 0.3034 0.43292 0.0
H228 H 0.06664 0.30903 0.47771 0.0
H229 H 0.49304 0.3566 0.49762 0.0
H230 H 0.42483 0.31055 0.50255 0.0
H231 H 0.23512 0.3611 0.52099 0.0
H232 H 0.30333 0.40751 0.51555 0.0
H233 H 0.2064 0.31759 0.47223 0.0
H234 H 0.32495 0.32314 0.58715 0.0
H235 H 0.42833 0.32843 0.63064 0.0
H236 H 0.52421 0.24991 0.59126 0.0
H237 H 0.42185 0.24439 0.54717 0.0
C238 C 0.04691 0.19669 0.52111 0.0
C239 C 0.07897 0.16843 0.51942 0.0
C240 C 0.08768 0.22268 0.51888 0.0
C241 C 0.16169 0.22135 0.51435 0.0
C242 C 0.19413 0.19323 0.51243 0.0
C243 C 0.15324 0.16707 0.51479 0.0
C244 C 0.20476 0.24938 0.51233 0.0
C245 C 0.26562 0.25338 0.53574 0.0
C246 C 0.18346 0.27293 0.48908 0.0
C247 C 0.12269 0.26967 0.46209 0.0
C248 C 0.12091 0.24587 0.4384 0.0
C249 C 0.06328 0.2428 0.41321 0.0
C250 C 0.00732 0.2635 0.41127 0.0
C251 C 0.00897 0.28736 0.43447 0.0
C252 C 0.06644 0.29052 0.45975 0.0
C253 C 0.43684 0.35799 0.50279 0.0
C254 C 0.40369 0.38584 0.50607 0.0
C255 C 0.39794 0.33156 0.50587 0.0
C256 C 0.32475 0.3322 0.51234 0.0
C257 C 0.29153 0.35996 0.51604 0.0
C258 C 0.3307 0.3865 0.51322 0.0
C259 C 0.28275 0.30392 0.51403 0.0
C260 C 0.22217 0.29988 0.49051 0.0
C261 C 0.30451 0.28031 0.53706 0.0
C262 C 0.36604 0.28352 0.56362 0.0
C263 C 0.36836 0.30714 0.58756 0.0
C264 C 0.42672 0.31015 0.61236 0.0
C265 C 0.48289 0.28956 0.61365 0.0
C266 C 0.4807 0.26586 0.5902 0.0
C267 C 0.4225 0.26277 0.56532 0.0
H268 H 0.52802 0.29193 0.63288 0.0
H269 H 0.96275 0.26108 0.39174 0.0
H270 H 0.98375 0.85778 0.49901 0.0
H271 H 0.91289 0.81248 0.50115 0.0
H272 H 0.72211 0.86424 0.51341 0.0
H273 H 0.79285 0.91016 0.51064 0.0
H274 H 0.73134 0.81529 0.55745 0.0
H275 H 0.7489 0.83378 0.43521 0.0
H276 H 0.81128 0.84454 0.38203 0.0
H277 H 0.93126 0.76346 0.39633 0.0
H278 H 0.87032 0.75242 0.44991 0.0
H279 H 0.48657 0.69676 0.52613 0.0
H280 H 0.55196 0.74346 0.52131 0.0
H281 H 0.74344 0.69496 0.50052 0.0
H282 H 0.67745 0.6479 0.50497 0.0
H283 H 0.73175 0.74309 0.4601 0.0
H284 H 0.7185 0.72484 0.58252 0.0
H285 H 0.65925 0.71378 0.63655 0.0
H286 H 0.53502 0.79384 0.62308 0.0
H287 H 0.59283 0.80518 0.56868 0.0
C288 C 0.92664 0.85981 0.50176 0.0
C289 C 0.89421 0.88796 0.50401 0.0
C290 C 0.88607 0.83369 0.50311 0.0
C291 C 0.81177 0.83481 0.50676 0.0
C292 C 0.7793 0.86274 0.51033 0.0
C293 C 0.81998 0.88904 0.50885 0.0
C294 C 0.76865 0.80672 0.50672 0.0
C295 C 0.73044 0.79975 0.5359 0.0
C296 C 0.769 0.78591 0.47907 0.0
C297 C 0.80548 0.79241 0.44676 0.0
C298 C 0.78898 0.81836 0.42717 0.0
C299 C 0.82402 0.82449 0.39693 0.0
C300 C 0.87532 0.80473 0.38585 0.0
C301 C 0.89156 0.77876 0.40496 0.0
C302 C 0.85674 0.77254 0.43525 0.0
C303 C 0.54263 0.69596 0.52056 0.0
C304 C 0.57691 0.66848 0.51637 0.0
C305 C 0.58012 0.72276 0.51787 0.0
C306 C 0.65334 0.72291 0.51138 0.0
C307 C 0.68714 0.69555 0.50578 0.0
C308 C 0.64932 0.66861 0.50821 0.0
C309 C 0.6944 0.75157 0.5109 0.0
C310 C 0.73235 0.75865 0.48163 0.0
C311 C 0.69419 0.7724 0.53858 0.0
C312 C 0.65948 0.7657 0.57133 0.0
C313 C 0.67814 0.73997 0.59094 0.0
C314 C 0.64488 0.73367 0.62165 0.0
C315 C 0.59326 0.75306 0.63319 0.0
C316 C 0.57493 0.77883 0.61408 0.0
C317 C 0.60797 0.78521 0.58332 0.0
H318 H 0.56758 0.74815 0.65698 0.0
H319 H 0.90239 0.80951 0.36243 0.0
H320 H 0.18934 0.9843 0.97985 0.0
H321 H 0.32009 0.98401 0.98062 0.0
H322 H 0.32435 0.07924 0.99347 0.0
H323 H 0.19315 0.0799 0.9926 0.0
H324 H 0.43868 0.05334 0.95399 0.0
H325 H 0.32442 0.04538 0.06395 0.0
H326 H 0.23641 1.0239 0.10209 0.0
H327 H 0.32921 0.93744 0.0914 0.0
H328 H 0.41716 0.95839 0.05279 0.0
H329 H 0.76814 0.07399 0.04175 0.0
H330 H 0.63721 0.07381 0.03931 0.0
H331 H 0.63577 0.97839 0.02833 0.0
H332 H 0.76712 0.9782 0.03088 0.0
H333 H 0.52019 1.00385 0.06629 0.0
H334 H 0.63632 1.01191 0.95738 0.0
H335 H 0.7244 0.03336 0.91927 0.0
H336 H 0.62828 0.11943 0.92776 0.0
H337 H 0.54025 0.09854 0.96635 0.0
C338 C 0.21795 1.00528 0.98188 0.0
C339 C 0.18195 0.03202 0.98744 0.0
C340 C 0.29229 1.00506 0.982 0.0
C341 C 0.33068 0.03151 0.98787 0.0
C342 C 0.29467 0.05869 0.98909 0.0
C343 C 0.2201 0.05897 0.98886 0.0
C344 C 0.40661 0.03005 0.99954 0.0
C345 C 0.45674 0.04277 0.97858 0.0
C346 C 0.42896 1.01594 0.03157 0.0
C347 C 0.37689 1.00339 0.05524 0.0
C348 C 0.32571 1.02176 0.06955 0.0
C349 C 0.2759 1.00969 0.09127 0.0
C350 C 0.27714 0.97932 0.09911 0.0
C351 C 0.3283 0.96097 0.0853 0.0
C352 C 0.37818 0.97292 0.06352 0.0
C353 C 0.74007 0.05288 0.03977 0.0
C354 C 0.77703 1.02619 0.03526 0.0
C355 C 0.66561 0.05284 0.03864 0.0
C356 C 0.62807 1.02618 0.03284 0.0
C357 C 0.6648 0.99911 0.03261 0.0
C358 C 0.73947 0.9991 0.03384 0.0
C359 C 0.55229 1.02719 0.02078 0.0
C360 C 0.50217 1.01438 0.04167 0.0
C361 C 0.52999 0.04119 0.98867 0.0
C362 C 0.58213 0.05372 0.965 0.0
C363 C 0.6343 0.03545 0.95132 0.0
C364 C 0.68417 0.04749 0.92961 0.0
C365 C 0.68202 0.07774 0.92116 0.0
C366 C 0.6299 0.096 0.93434 0.0
C367 C 0.57997 0.08407 0.95611 0.0
H368 H 0.72063 0.08702 0.90433 0.0
H369 H 0.23857 0.97003 0.11595 0.0
H370 H 0.20863 0.06465 0.56033 0.0
H371 H 0.3389 0.06541 0.55712 0.0
H372 H 0.33152 0.97635 0.51586 0.0
H373 H 0.20129 0.97511 0.51964 0.0
H374 H 0.461 0.98976 0.55626 0.0
H375 H 0.30807 0.02996 0.45941 0.0
H376 H 0.2081 0.06195 0.43619 0.0
H377 H 0.32097 0.13913 0.47672 0.0
H378 H 0.42126 0.10749 0.50059 0.0
H379 H 0.76283 0.99205 0.4639 0.0
H380 H 0.63259 0.99139 0.46723 0.0
H381 H 0.64043 0.08054 0.50823 0.0
H382 H 0.77062 0.08168 0.50432 0.0
H383 H 0.51076 0.06717 0.46806 0.0
H384 H 0.66365 1.02712 0.56486 0.0
H385 H 0.76365 0.99522 0.58824 0.0
H386 H 0.65096 0.9179 0.54798 0.0
H387 H 0.55063 0.94945 0.52396 0.0
C388 C 0.23503 0.04487 0.55166 0.0
C389 C 0.19495 1.02011 0.53935 0.0
C390 C 0.30932 0.04532 0.54993 0.0
C391 C 0.34391 1.02123 0.53539 0.0
C392 C 0.30527 0.99519 0.52692 0.0
C393 C 0.23093 0.99459 0.52898 0.0
C394 C 0.41643 1.02512 0.52337 0.0
C395 C 0.4719 1.00649 0.53684 0.0
C396 C 0.4301 0.04712 0.4981 0.0
C397 C 0.37195 0.06635 0.48194 0.0
C398 C 0.31157 0.05375 0.46334 0.0
C399 C 0.25481 0.07181 0.45012 0.0
C400 C 0.25816 0.10255 0.45502 0.0
C401 C 0.31851 0.11531 0.47294 0.0
C402 C 0.37537 0.09733 0.48627 0.0
C403 C 0.73653 1.01187 0.47254 0.0
C404 C 0.77674 0.03663 0.48474 0.0
C405 C 0.66226 1.01147 0.47434 0.0
C406 C 0.62781 0.03562 0.48884 0.0
C407 C 0.66656 0.06165 0.49719 0.0
C408 C 0.74088 0.0622 0.49507 0.0
C409 C 0.55533 0.0318 0.50093 0.0
C410 C 0.49987 0.05045 0.48748 0.0
C411 C 0.54167 1.00983 0.52624 0.0
C412 C 0.59985 0.99065 0.54246 0.0
C413 C 0.6602 1.00331 0.56102 0.0
C414 C 0.71697 0.98531 0.57434 0.0
C415 C 0.71369 0.95455 0.56955 0.0
C416 C 0.65338 0.94173 0.55167 0.0
C417 C 0.59649 0.95966 0.53825 0.0
H418 H 0.75785 0.94066 0.5797 0.0
H419 H 0.21401 0.11648 0.44494 0.0
H420 H 0.69791 0.49202 0.05488 0.0
H421 H 0.8279 0.492 0.05193 0.0
H422 H 0.8195 0.58194 0.01201 0.0
H423 H 0.68891 0.58212 0.01456 0.0
H424 H 0.87393 0.54172 0.96732 0.0
H425 H 0.91004 0.56831 0.08778 0.0
H426 H 0.89271 0.56476 0.15077 0.0
H427 H 0.97861 0.47623 0.15378 0.0
H428 H -0.00455 0.47905 0.09065 0.0
H429 H 0.2497 0.56447 0.96549 0.0
H430 H 0.11977 0.56402 0.9689 0.0
H431 H 0.13042 0.47383 1.00797 0.0
H432 H 0.26091 0.47408 1.00481 0.0
H433 H 0.07476 0.51366 0.05313 0.0
H434 H 0.03881 0.48691 0.93299 0.0
H435 H 0.05456 0.48989 0.86982 0.0
H436 H 0.96746 0.57822 0.8661 0.0
H437 H 0.95218 0.57597 0.9294 0.0
C438 C 0.72394 0.51209 0.0464 0.0
C439 C 0.68358 0.53684 0.03418 0.0
C440 C 0.79814 0.5121 0.04496 0.0
C441 C 0.83254 0.53689 0.0315 0.0
C442 C 0.79321 0.56263 0.02234 0.0
C443 C 0.71889 0.56268 0.02387 0.0
C444 C 0.90664 0.534 0.02175 0.0
C445 C 0.91837 0.53618 0.98611 0.0
C446 C 0.96305 0.52553 0.04628 0.0
C447 C 0.95345 0.52381 0.08436 0.0
C448 C 0.92469 0.54798 0.10178 0.0
C449 C 0.91506 0.54612 0.13754 0.0
C450 C 0.93438 0.52026 0.15625 0.0
C451 C 0.9636 0.49624 0.13925 0.0
C452 C 0.97329 0.49797 0.10348 0.0
C453 C 0.22414 0.54425 0.97386 0.0
C454 C 0.2651 0.51952 0.98557 0.0
C455 C 0.15 0.54397 0.97559 0.0
C456 C 0.11627 0.51896 0.98892 0.0
C457 C 0.15618 0.49331 0.99772 0.0
C458 C 0.23042 0.49349 0.99582 0.0
C459 C 0.0421 0.52149 0.99871 0.0
C460 C 0.03033 0.51922 0.03435 0.0
C461 C -0.01439 0.52985 0.97417 0.0
C462 C -0.00505 0.53135 0.93606 0.0
C463 C 0.02365 0.50709 0.9188 0.0
C464 C 0.03235 0.50862 0.88293 0.0
C465 C 0.01218 0.53425 0.86397 0.0
C466 C 0.98313 0.55839 0.88083 0.0
C467 C 0.97436 0.55698 0.9167 0.0
H468 H 0.01893 0.53539 0.8362 0.0
H469 H 0.92685 0.51886 0.18393 0.0
H470 H 0.28177 0.57837 0.51303 0.0
H471 H 0.15178 0.5797 0.50147 0.0
H472 H 0.13934 0.48628 0.52711 0.0
H473 H 0.27018 0.48448 0.53739 0.0
H474 H 0.07467 0.49809 0.46446 0.0
H475 H 0.07657 0.5404 0.58004 0.0
H476 H 0.1135 0.57595 0.62672 0.0
H477 H 0.03141 0.64829 0.56214 0.0
H478 H -0.00517 0.6132 0.51489 0.0
H479 H 0.71339 0.47866 0.50007 0.0
H480 H 0.84122 0.48111 0.49035 0.0
H481 H 0.81642 0.57235 0.45595 0.0
H482 H 0.68912 0.57029 0.46647 0.0
H483 H 0.90174 0.56663 0.51435 0.0
H484 H 0.88253 0.52197 0.40216 0.0
H485 H 0.8425 0.48538 0.35721 0.0
H486 H 0.95304 0.41606 0.41673 0.0
H487 H -0.00712 0.45212 0.46232 0.0
C488 C 0.25117 0.5583 0.51712 0.0
C489 C 0.28548 0.53122 0.52566 0.0
C490 C 0.17706 0.55911 0.51048 0.0
C491 C 0.13667 0.53304 0.51329 0.0
C492 C 0.1703 0.50649 0.52451 0.0
C493 C 0.24459 0.50554 0.53057 0.0
C494 C 0.0602 0.5329 0.5018 0.0
C495 C 0.03638 0.5128 0.47555 0.0
C496 C 0.01179 0.5531 0.51532 0.0
C497 C 0.03367 0.5742 0.54379 0.0
C498 C 0.06693 0.56391 0.57569 0.0
C499 C 0.0877 0.58398 0.60227 0.0
C500 C 0.07501 0.61437 0.59736 0.0
C501 C 0.04132 0.62475 0.56589 0.0
C502 C 0.02051 0.60479 0.53921 0.0
C503 C 0.73505 0.49895 0.48963 0.0
C504 C 0.69286 0.5246 0.48517 0.0
C505 C 0.80759 0.50021 0.4836 0.0
C506 C 0.83764 0.52698 0.47258 0.0
C507 C 0.79368 0.55161 0.46455 0.0
C508 C 0.72155 0.55049 0.47102 0.0
C509 C 0.9154 0.53118 0.47768 0.0
C510 C 0.9399 0.5522 0.50272 0.0
C511 C 0.96404 0.51162 0.46327 0.0
C512 C 0.94046 0.48979 0.43579 0.0
C513 C 0.8979 0.49889 0.40582 0.0
C514 C 0.87531 0.47824 0.38018 0.0
C515 C 0.89515 0.44841 0.38413 0.0
C516 C 0.93775 0.43918 0.41369 0.0
C517 C 0.96047 0.45974 0.43942 0.0
H518 H 0.87758 0.43246 0.36426 0.0
H519 H 0.09113 0.62986 0.61797 0.0
H520 H 0.04107 0.08541 0.41151 0.0
H521 H 0.05806 0.08981 0.34895 0.0
H522 H 0.0509 0.99436 0.33956 0.0
H523 H 0.03428 0.98972 0.40196 0.0
H524 H 0.15433 1.0191 0.30042 0.0
H525 H 0.9028 0.03473 0.31865 0.0
H526 H 0.80182 0.0594 0.34486 0.0
H527 H 0.86348 0.14306 0.30149 0.0
H528 H 0.96551 0.11893 0.27542 0.0
H529 H 0.04318 0.99217 0.12405 0.0
H530 H 0.05851 0.99617 0.18744 0.0
H531 H 0.04668 0.09174 0.17914 0.0
H532 H 0.02929 0.08787 0.11535 0.0
H533 H 0.96408 0.07249 0.22768 0.0
H534 H 0.20662 0.0555 0.2025 0.0
H535 H 0.30406 0.03014 0.17434 0.0
H536 H 0.26083 0.94958 0.22967 0.0
H537 H 0.16214 0.97429 0.25768 0.0
C538 C 0.0437 0.06533 0.3962 0.0
C539 C 0.03539 0.03722 0.4117 0.0
C540 C 0.0534 0.06789 0.36043 0.0
C541 C 0.05494 0.04242 0.33945 0.0
C542 C 0.04985 1.01432 0.35518 0.0
C543 C 0.03995 1.01173 0.39087 0.0
C544 C 0.05722 0.04492 0.30082 0.0
C545 C 0.11266 0.03067 0.28447 0.0
C546 C 0.00384 0.06063 0.28003 0.0
C547 C 0.94223 0.0751 0.29544 0.0
C548 C 0.89513 0.05843 0.31493 0.0
C549 C 0.83767 0.0723 0.32973 0.0
C550 C 0.82637 0.1028 0.32493 0.0
C551 C 0.87239 0.11946 0.30524 0.0
C552 C 0.93002 0.10569 0.29044 0.0
C553 C 0.04457 1.01411 0.13558 0.0
C554 C 0.035 0.03972 0.11453 0.0
C555 C 0.05372 1.01636 0.17194 0.0
C556 C 0.05464 0.04428 0.18819 0.0
C557 C 0.04631 0.06995 0.16724 0.0
C558 C 0.03671 0.06771 0.13076 0.0
C559 C 0.06072 0.04634 0.22707 0.0
C560 C 0.00667 0.06137 0.24354 0.0
C561 C 0.11557 0.03143 0.2479 0.0
C562 C 0.1766 1.01673 0.23207 0.0
C563 C 0.21767 0.03234 0.20858 0.0
C564 C 0.27312 1.01808 0.19261 0.0
C565 C 0.28855 0.98826 0.20016 0.0
C566 C 0.24879 0.97269 0.22384 0.0
C567 C 0.19313 0.98682 0.23981 0.0
H568 H 0.33134 0.97723 0.18768 0.0
H569 H 0.78185 0.1135 0.3364 0.0
H570 H 0.91677 0.06603 0.89926 0.0
H571 H 0.9035 0.06184 0.83584 0.0
H572 H 0.91649 0.96632 0.84462 0.0
H573 H 0.93176 0.97039 0.90842 0.0
H574 H 0.00103 0.9857 0.79695 0.0
H575 H 0.75674 1.00209 0.81966 0.0
H576 H 0.65767 1.02735 0.84668 0.0
H577 H 0.70204 0.10777 0.79134 0.0
H578 H 0.80234 0.08318 0.76447 0.0
H579 H 0.93083 0.97145 0.61279 0.0
H580 H 0.91199 0.96736 0.6752 0.0
H581 H 0.91677 0.06289 0.68375 0.0
H582 H 0.93524 0.06721 0.62152 0.0
H583 H 0.81235 0.0381 0.72215 0.0
H584 H 0.06502 1.02321 0.70631 0.0
H585 H 0.1678 0.99879 0.68134 0.0
H586 H 0.10656 0.91517 0.72495 0.0
H587 H 0.00273 0.93904 0.74977 0.0
C588 C 0.91601 0.04406 0.88782 0.0
C589 C 0.92536 1.01853 0.90902 0.0
C590 C 0.90806 0.0417 0.85144 0.0
C591 C 0.90817 1.01374 0.83532 0.0
C592 C 0.91611 0.98814 0.85642 0.0
C593 C 0.92448 0.99049 0.89291 0.0
C594 C 0.90373 1.01153 0.79646 0.0
C595 C 0.95879 0.99659 0.78064 0.0
C596 C 0.84938 1.02619 0.77504 0.0
C597 C 0.78743 0.04081 0.79018 0.0
C598 C 0.74558 1.0252 0.81333 0.0
C599 C 0.68922 0.03941 0.82865 0.0
C600 C 0.67364 0.06916 0.82077 0.0
C601 C 0.71419 0.08472 0.79742 0.0
C602 C 0.77077 0.07065 0.7821 0.0
C603 C 0.92733 0.9916 0.62788 0.0
C604 C 0.93547 1.01965 0.6122 0.0
C605 C 0.91657 0.98922 0.66357 0.0
C606 C 0.91375 1.01482 0.68427 0.0
C607 C 0.91878 0.04284 0.66835 0.0
C608 C 0.92977 0.04525 0.63275 0.0
C609 C 0.91007 1.01256 0.72285 0.0
C610 C 0.85368 1.02675 0.73855 0.0
C611 C 0.96304 0.99714 0.74423 0.0
C612 C 0.02567 0.98283 0.72953 0.0
C613 C 0.07316 0.99957 0.71033 0.0
C614 C 0.13164 0.98584 0.69625 0.0
C615 C 0.14357 0.95543 0.70146 0.0
C616 C 0.09716 0.93871 0.72087 0.0
C617 C 0.0385 0.95232 0.73496 0.0
H618 H 0.18888 0.94484 0.69054 0.0
H619 H 0.63013 0.08014 0.83275 0.0
H620 H 0.45174 0.58649 0.4071 0.0
H621 H 0.44123 0.59046 0.34309 0.0
H622 H 0.42432 0.49505 0.3355 0.0
H623 H 0.43476 0.49084 0.39901 0.0
H624 H 0.52737 0.51808 0.29569 0.0
H625 H 0.27951 0.53785 0.317 0.0
H626 H 0.18195 0.56477 0.34327 0.0
H627 H 0.24518 0.64577 0.29416 0.0
H628 H 0.34382 0.61939 0.26797 0.0
H629 H 0.42998 0.49055 0.12027 0.0
H630 H 0.42364 0.49494 0.1833 0.0
H631 H 0.43421 0.59046 0.17466 0.0
H632 H 0.43958 0.58632 0.11117 0.0
H633 H 0.33946 0.5725 0.2226 0.0
H634 H 0.58311 0.5536 0.19948 0.0
H635 H 0.68229 0.52784 0.1731 0.0
H636 H 0.63103 0.44712 0.22625 0.0
H637 H 0.53079 0.47229 0.25255 0.0
C638 C 0.44482 0.5664 0.39178 0.0
C639 C 0.44438 0.53834 0.40818 0.0
C640 C 0.43874 0.56872 0.35523 0.0
C641 C 0.4321 0.54303 0.33459 0.0
C642 C 0.42969 0.51513 0.35095 0.0
C643 C 0.43547 0.5128 0.38731 0.0
C644 C 0.43158 0.54475 0.29595 0.0
C645 C 0.48584 0.52972 0.2797 0.0
C646 C 0.37894 0.56088 0.27521 0.0
C647 C 0.31955 0.57672 0.29086 0.0
C648 C 0.27302 0.56146 0.31206 0.0
C649 C 0.21744 0.5766 0.32688 0.0
C650 C 0.20751 0.60698 0.32048 0.0
C651 C 0.25302 0.62225 0.29915 0.0
C652 C 0.30873 0.60721 0.28429 0.0
C653 C 0.4303 0.51255 0.13164 0.0
C654 C 0.43612 0.53809 0.11073 0.0
C655 C 0.42681 0.515 0.16771 0.0
C656 C 0.42979 0.543 0.18372 0.0
C657 C 0.43217 0.56864 0.16282 0.0
C658 C 0.43541 0.56622 0.12658 0.0
C659 C 0.43413 0.54512 0.2224 0.0
C660 C 0.38112 0.56099 0.23863 0.0
C661 C 0.48834 0.52997 0.24328 0.0
C662 C 0.54903 0.51479 0.22776 0.0
C663 C 0.59265 0.5303 0.20535 0.0
C664 C 0.64911 0.51581 0.19044 0.0
C665 C 0.66286 0.48585 0.19794 0.0
C666 C 0.62027 0.47033 0.22045 0.0
C667 C 0.56367 0.4847 0.23539 0.0
H668 H 0.70659 0.47467 0.18637 0.0
H669 H 0.16444 0.61867 0.33197 0.0
H670 H 0.62397 0.5484 0.61869 0.0
H671 H 0.64155 0.54467 0.68243 0.0
H672 H 0.47326 0.47837 0.68207 0.0
H673 H 0.46051 0.48033 0.61834 0.0
H674 H 0.56735 0.55913 0.7284 0.0
H675 H 0.47604 0.43639 0.75255 0.0
H676 H 0.48927 0.387 0.72622 0.0
H677 H 0.67996 0.41645 0.67978 0.0
H678 H 0.66849 0.46589 0.7062 0.0
H679 H 0.43577 0.55226 0.89228 0.0
H680 H 0.45519 0.54825 0.83034 0.0
H681 H 0.61837 0.48165 0.85424 0.0
H682 H 0.59465 0.4841 0.9163 0.0
H683 H 0.55316 0.4665 0.79828 0.0
H684 H 0.65818 0.55791 0.83334 0.0
H685 H 0.66799 0.60709 0.86137 0.0
H686 H 0.49438 0.6396 0.79177 0.0
H687 H 0.48279 0.59049 0.76363 0.0
C688 C 0.59207 0.53258 0.63235 0.0
C689 C 0.54139 0.51447 0.61377 0.0
C690 C 0.60177 0.53053 0.66879 0.0
C691 C 0.55937 0.51098 0.68744 0.0
C692 C 0.50861 0.49289 0.66861 0.0
C693 C 0.50081 0.49417 0.63211 0.0
C694 C 0.56403 0.51122 0.72647 0.0
C695 C 0.56502 0.53878 0.74357 0.0
C696 C 0.56329 0.48479 0.74681 0.0
C697 C 0.57104 0.45495 0.73118 0.0
C698 C 0.52104 0.43229 0.73689 0.0
C699 C 0.52816 0.40429 0.7219 0.0
C700 C 0.5853 0.39861 0.70127 0.0
C701 C 0.63558 0.4209 0.69567 0.0
C702 C 0.62874 0.44893 0.71061 0.0
C703 C 0.47573 0.53675 0.88426 0.0
C704 C 0.51421 0.51867 0.90896 0.0
C705 C 0.4873 0.53462 0.84885 0.0
C706 C 0.53993 0.51531 0.83749 0.0
C707 C 0.57776 0.49686 0.86222 0.0
C708 C 0.56442 0.4983 0.89765 0.0
C709 C 0.5544 0.51438 0.79979 0.0
C710 C 0.55683 0.48675 0.78303 0.0
C711 C 0.56226 0.5407 0.77993 0.0
C712 C 0.56937 0.57043 0.7965 0.0
C713 C 0.62185 0.5755 0.82412 0.0
C714 C 0.62773 0.60337 0.84003 0.0
C715 C 0.58177 0.62644 0.82839 0.0
C716 C 0.52994 0.6217 0.80076 0.0
C717 C 0.52376 0.59386 0.78478 0.0
H718 H 0.58637 0.64799 0.84076 0.0
H719 H 0.59066 0.37693 0.68965 0.0
loop_
_geom_bond_atom_site_label_1
_geom_bond_atom_site_label_2
_geom_bond_distance
_geom_bond_site_symmetry_2
_ccdc_geom_bond_type
Co0 N5 2.057 1_556 S
Co0 O17 2.021 . S
Co0 O20 2.062 . S
Co0 O24 2.117 1_556 S
Co0 O25 2.020 1_455 S
C1 O21 1.259 1_455 S
C1 O24 1.258 1_545 S
Co2 N11 2.057 1_554 S
Co2 O18 2.117 1_554 S
Co2 O19 2.020 1_655 S
Co2 O21 2.021 . S
Co2 O26 2.062 . S
C3 N5 1.316 1_556 S
C3 N6 1.347 1_556 S
C3 H8 0.931 . S
C4 N5 1.375 . S
C4 C7 1.350 . S
C4 H9 0.930 . S
N5 Co0 2.057 1_554 S
N5 C3 1.316 1_554 S
N5 C4 1.375 . S
N6 C3 1.347 1_554 S
N6 C7 1.373 . S
C7 C4 1.350 . S
C7 N6 1.373 . S
C7 H28 0.931 . S
H8 C3 0.931 . S
H9 C4 0.930 . S
C10 O17 1.259 1_655 S
C10 O18 1.258 1_565 S
N11 Co2 2.057 1_556 S
N11 C12 1.316 1_556 S
N11 C13 1.375 . S
C12 N11 1.316 1_554 S
C12 N14 1.347 1_554 S
C12 H23 0.931 . S
C13 N11 1.375 . S
C13 C15 1.350 . S
C13 H22 0.930 . S
N14 C12 1.347 1_556 S
N14 C15 1.373 . S
C15 C13 1.350 . S
C15 N14 1.373 . S
C15 H29 0.931 . S
C16 O19 1.257 . S
C16 O20 1.254 1_544 S
O17 Co0 2.021 . S
O17 C10 1.259 1_455 S
O18 Co2 2.117 1_556 S
O18 C10 1.258 1_545 S
O19 Co2 2.020 1_455 S
O19 C16 1.257 . S
O20 Co0 2.062 . S
O20 C16 1.254 1_566 S
O21 C1 1.259 1_655 S
O21 Co2 2.021 . S
H22 C13 0.930 . S
H23 C12 0.931 . S
O24 Co0 2.117 1_554 S
O24 C1 1.258 1_565 S
O25 Co0 2.020 1_655 S
O25 C27 1.256 . S
O26 Co2 2.062 . S
O26 C27 1.254 1_544 S
C27 O25 1.256 . S
C27 O26 1.254 1_566 S
H28 C7 0.931 . S
H29 C15 0.931 . S
Co30 N35 2.057 . S
Co30 O47 2.021 . S
Co30 O50 2.062 . S
Co30 O54 2.117 . S
Co30 O55 2.020 1_655 S
C31 O51 1.259 1_655 S
C31 O54 1.258 1_545 S
Co32 N41 2.057 . S
Co32 O48 2.117 . S
Co32 O49 2.020 1_455 S
Co32 O51 2.021 . S
Co32 O56 2.062 . S
C33 N35 1.316 . S
C33 N36 1.347 . S
C33 H38 0.931 . S
C34 N35 1.375 . S
C34 C37 1.350 . S
C34 H39 0.930 . S
N35 Co30 2.057 . S
N35 C33 1.316 . S
N35 C34 1.375 . S
N36 C33 1.347 . S
N36 C37 1.373 . S
C37 C34 1.350 . S
C37 N36 1.373 . S
C37 H58 0.931 . S
H38 C33 0.931 . S
H39 C34 0.930 . S
C40 O47 1.259 1_455 S
C40 O48 1.258 1_565 S
N41 Co32 2.057 . S
N41 C42 1.316 . S
N41 C43 1.375 . S
C42 N41 1.316 . S
C42 N44 1.347 . S
C42 H53 0.931 . S
C43 N41 1.375 . S
C43 C45 1.350 . S
C43 H52 0.930 . S
N44 C42 1.347 . S
N44 C45 1.373 . S
C45 C43 1.350 . S
C45 N44 1.373 . S
C45 H59 0.931 . S
C46 O49 1.256 . S
C46 O50 1.255 1_545 S
O47 Co30 2.021 . S
O47 C40 1.259 1_655 S
O48 Co32 2.117 . S
O48 C40 1.258 1_545 S
O49 Co32 2.020 1_655 S
O49 C46 1.256 . S
O50 Co30 2.062 . S
O50 C46 1.255 1_565 S
O51 C31 1.259 1_455 S
O51 Co32 2.021 . S
H52 C43 0.930 . S
H53 C42 0.931 . S
O54 Co30 2.117 . S
O54 C31 1.258 1_565 S
O55 Co30 2.020 1_455 S
O55 C57 1.256 . S
O56 Co32 2.062 . S
O56 C57 1.255 1_545 S
C57 O55 1.256 . S
C57 O56 1.255 1_565 S
H58 C37 0.931 . S
H59 C45 0.931 . S
Co60 N65 2.057 1_556 S
Co60 O77 2.021 . S
Co60 O80 2.062 . S
Co60 O84 2.117 1_556 S
Co60 O85 2.020 . S
C61 O81 1.259 . S
C61 O84 1.258 . S
Co62 N71 2.057 1_554 S
Co62 O78 2.117 1_554 S
Co62 O79 2.020 . S
Co62 O81 2.021 . S
Co62 O86 2.062 . S
C63 N65 1.316 1_556 S
C63 N66 1.347 1_556 S
C63 H68 0.931 . S
C64 N65 1.375 . S
C64 C67 1.350 . S
C64 H69 0.930 . S
N65 Co60 2.057 1_554 S
N65 C63 1.316 1_554 S
N65 C64 1.375 . S
N66 C63 1.347 1_554 S
N66 C67 1.373 . S
C67 C64 1.350 . S
C67 N66 1.373 . S
C67 H88 0.931 . S
H68 C63 0.931 . S
H69 C64 0.930 . S
C70 O77 1.259 . S
C70 O78 1.258 . S
N71 Co62 2.057 1_556 S
N71 C72 1.316 1_556 S
N71 C73 1.375 . S
C72 N71 1.316 1_554 S
C72 N74 1.347 1_554 S
C72 H83 0.931 . S
C73 N71 1.375 . S
C73 C75 1.350 . S
C73 H82 0.930 . S
N74 C72 1.347 1_556 S
N74 C75 1.373 . S
C75 C73 1.350 . S
C75 N74 1.373 . S
C75 H89 0.931 . S
C76 O79 1.257 . S
C76 O80 1.254 1_554 S
O77 Co60 2.021 . S
O77 C70 1.259 . S
O78 Co62 2.117 1_556 S
O78 C70 1.258 . S
O79 Co62 2.020 . S
O79 C76 1.257 . S
O80 Co60 2.062 . S
O80 C76 1.254 1_556 S
O81 C61 1.259 . S
O81 Co62 2.021 . S
H82 C73 0.930 . S
H83 C72 0.931 . S
O84 Co60 2.117 1_554 S
O84 C61 1.258 . S
O85 Co60 2.020 . S
O85 C87 1.256 . S
O86 Co62 2.062 . S
O86 C87 1.254 1_554 S
C87 O85 1.256 . S
C87 O86 1.254 1_556 S
H88 C67 0.931 . S
H89 C75 0.931 . S
Co90 N95 2.057 . S
Co90 O107 2.021 . S
Co90 O110 2.062 . S
Co90 O114 2.117 . S
Co90 O115 2.020 . S
C91 O111 1.259 . S
C91 O114 1.258 . S
Co92 N101 2.057 . S
Co92 O108 2.117 . S
Co92 O109 2.020 . S
Co92 O111 2.021 . S
Co92 O116 2.062 . S
C93 N95 1.316 . S
C93 N96 1.347 . S
C93 H98 0.931 . S
C94 N95 1.375 . S
C94 C97 1.350 . S
C94 H99 0.930 . S
N95 Co90 2.057 . S
N95 C93 1.316 . S
N95 C94 1.375 . S
N96 C93 1.347 . S
N96 C97 1.373 . S
C97 C94 1.350 . S
C97 N96 1.373 . S
C97 H118 0.931 . S
H98 C93 0.931 . S
H99 C94 0.930 . S
C100 O107 1.259 . S
C100 O108 1.258 . S
N101 Co92 2.057 . S
N101 C102 1.316 . S
N101 C103 1.375 . S
C102 N101 1.316 . S
C102 N104 1.347 . S
C102 H113 0.931 . S
C103 N101 1.375 . S
C103 C105 1.350 . S
C103 H112 0.930 . S
N104 C102 1.347 . S
N104 C105 1.373 . S
C105 C103 1.350 . S
C105 N104 1.373 . S
C105 H119 0.931 . S
C106 O109 1.256 . S
C106 O110 1.255 . S
O107 Co90 2.021 . S
O107 C100 1.259 . S
O108 Co92 2.117 . S
O108 C100 1.258 . S
O109 Co92 2.020 . S
O109 C106 1.256 . S
O110 Co90 2.062 . S
O110 C106 1.255 . S
O111 C91 1.259 . S
O111 Co92 2.021 . S
H112 C103 0.930 . S
H113 C102 0.931 . S
O114 Co90 2.117 . S
O114 C91 1.258 . S
O115 Co90 2.020 . S
O115 C117 1.256 . S
O116 Co92 2.062 . S
O116 C117 1.255 . S
C117 O115 1.256 . S
C117 O116 1.255 . S
H118 C97 0.931 . S
H119 C105 0.931 . S
H120 C138 0.951 . S
H121 C140 0.951 . S
H122 C142 0.950 . S
H123 C143 0.950 . S
H124 C145 0.950 . S
H125 C148 0.950 . S
H126 C149 0.950 . S
H127 C151 0.950 . S
H128 C152 0.950 . S
H129 C153 0.951 . S
H130 C155 0.951 . S
H131 C157 0.950 . S
H132 C158 0.950 . S
H133 C160 0.950 . S
H134 C163 0.950 . S
H135 C164 0.950 . S
H136 C166 0.950 . S
H137 C167 0.950 . S
C138 H120 0.951 . S
C138 C139 1.366 1_556 S
C138 C140 1.388 . S
C139 C138 1.366 1_554 S
C139 C143 1.385 . S
C140 H121 0.951 . S
C140 C138 1.388 . S
C140 C141 1.366 1_556 S
C141 C140 1.366 1_554 S
C141 C142 1.414 . S
C141 C144 1.499 . S
C142 H122 0.950 . S
C142 C141 1.414 . S
C142 C143 1.374 . S
C143 H123 0.950 . S
C143 C139 1.385 . S
C143 C142 1.374 . S
C144 C141 1.499 . S
C144 C145 1.373 1_554 S
C144 C146 1.389 . S
C145 H124 0.950 . S
C145 C144 1.373 1_556 S
C145 C161 1.377 . S
C146 C144 1.389 . S
C146 C147 1.524 . S
C146 C160 1.377 . S
C147 C146 1.524 . S
C147 C148 1.397 . S
C147 C152 1.363 . S
C148 H125 0.950 . S
C148 C147 1.397 . S
C148 C149 1.334 . S
C149 H126 0.950 . S
C149 C148 1.334 . S
C149 C150 1.287 . S
C150 C149 1.287 . S
C150 C151 1.524 . S
C150 H169 0.913 . S
C151 H127 0.950 . S
C151 C150 1.524 . S
C151 C152 1.415 . S
C152 H128 0.950 . S
C152 C147 1.363 . S
C152 C151 1.415 . S
C153 H129 0.951 . S
C153 C154 1.366 1_554 S
C153 C155 1.388 . S
C154 C153 1.366 1_556 S
C154 C158 1.385 . S
C155 H130 0.951 . S
C155 C153 1.388 . S
C155 C156 1.366 1_554 S
C156 C155 1.366 1_556 S
C156 C157 1.414 . S
C156 C159 1.499 . S
C157 H131 0.950 . S
C157 C156 1.414 . S
C157 C158 1.374 . S
C158 H132 0.950 . S
C158 C154 1.385 . S
C158 C157 1.374 . S
C159 C156 1.499 . S
C159 C160 1.373 1_556 S
C159 C161 1.389 . S
C160 H133 0.950 . S
C160 C146 1.377 . S
C160 C159 1.373 1_554 S
C161 C145 1.377 . S
C161 C159 1.389 . S
C161 C162 1.524 . S
C162 C161 1.524 . S
C162 C163 1.397 . S
C162 C167 1.363 . S
C163 H134 0.950 . S
C163 C162 1.397 . S
C163 C164 1.334 . S
C164 H135 0.950 . S
C164 C163 1.334 . S
C164 C165 1.287 1_455 S
C165 C164 1.287 1_655 S
C165 C166 1.524 . S
C165 H168 0.999 . S
C166 H136 0.950 . S
C166 C165 1.524 . S
C166 C167 1.415 1_655 S
C167 H137 0.950 . S
C167 C162 1.363 . S
C167 C166 1.415 1_455 S
H168 C165 0.999 . S
H169 C150 0.913 . S
H170 C188 0.951 . S
H171 C190 0.951 . S
H172 C192 0.950 . S
H173 C193 0.950 . S
H174 C195 0.950 . S
H175 C198 0.950 . S
H176 C199 0.950 . S
H177 C201 0.950 . S
H178 C202 0.950 . S
H179 C203 0.951 . S
H180 C205 0.951 . S
H181 C207 0.950 . S
H182 C208 0.950 . S
H183 C210 0.950 . S
H184 C213 0.950 . S
H185 C214 0.950 . S
H186 C216 0.950 . S
H187 C217 0.950 . S
C188 H170 0.951 . S
C188 C189 1.366 1_554 S
C188 C190 1.388 . S
C189 C188 1.366 1_556 S
C189 C193 1.385 . S
C190 H171 0.951 . S
C190 C188 1.388 . S
C190 C191 1.372 . S
C191 C190 1.372 . S
C191 C192 1.407 1_554 S
C191 C194 1.499 . S
C192 H172 0.950 . S
C192 C191 1.407 1_556 S
C192 C193 1.374 . S
C193 H173 0.950 . S
C193 C189 1.385 . S
C193 C192 1.374 . S
C194 C191 1.499 . S
C194 C195 1.347 1_554 S
C194 C196 1.414 . S
C195 H174 0.950 . S
C195 C194 1.347 1_556 S
C195 C211 1.377 . S
C196 C194 1.414 . S
C196 C197 1.524 . S
C196 C210 1.377 . S
C197 C196 1.524 . S
C197 C198 1.397 . S
C197 C202 1.363 . S
C198 H175 0.950 . S
C198 C197 1.397 . S
C198 C199 1.334 . S
C199 H176 0.950 . S
C199 C198 1.334 . S
C199 C200 1.287 . S
C200 C199 1.287 . S
C200 C201 1.524 . S
C200 H219 0.913 . S
C201 H177 0.950 . S
C201 C200 1.524 . S
C201 C202 1.415 . S
C202 H178 0.950 . S
C202 C197 1.363 . S
C202 C201 1.415 . S
C203 H179 0.951 . S
C203 C204 1.366 1_556 S
C203 C205 1.388 . S
C204 C203 1.366 1_554 S
C204 C208 1.385 . S
C205 H180 0.951 . S
C205 C203 1.388 . S
C205 C206 1.369 . S
C206 C205 1.369 . S
C206 C207 1.410 1_556 S
C206 C209 1.499 . S
C207 H181 0.950 . S
C207 C206 1.410 1_554 S
C207 C208 1.374 . S
C208 H182 0.950 . S
C208 C204 1.385 . S
C208 C207 1.374 . S
C209 C206 1.499 . S
C209 C210 1.354 1_556 S
C209 C211 1.407 . S
C210 H183 0.950 . S
C210 C196 1.377 . S
C210 C209 1.354 1_554 S
C211 C195 1.377 . S
C211 C209 1.407 . S
C211 C212 1.524 . S
C212 C211 1.524 . S
C212 C213 1.397 . S
C212 C217 1.363 . S
C213 H184 0.950 . S
C213 C212 1.397 . S
C213 C214 1.334 . S
C214 H185 0.950 . S
C214 C213 1.334 . S
C214 C215 1.287 . S
C215 C214 1.287 . S
C215 C216 1.524 . S
C215 H218 0.999 . S
C216 H186 0.950 . S
C216 C215 1.524 . S
C216 C217 1.415 . S
C217 H187 0.950 . S
C217 C212 1.363 . S
C217 C216 1.415 . S
H218 C215 0.999 . S
H219 C200 0.913 . S
H220 C238 0.951 . S
H221 C240 0.951 . S
H222 C242 0.950 . S
H223 C243 0.950 . S
H224 C245 0.950 . S
H225 C248 0.950 . S
H226 C249 0.950 . S
H227 C251 0.950 1_655 S
H228 C252 0.950 . S
H229 C253 0.951 . S
H230 C255 0.951 . S
H231 C257 0.950 . S
H232 C258 0.950 . S
H233 C260 0.950 . S
H234 C263 0.950 . S
H235 C264 0.950 . S
H236 C266 0.950 . S
H237 C267 0.950 . S
C238 H220 0.951 . S
C238 C239 1.366 . S
C238 C240 1.388 . S
C239 C238 1.366 . S
C239 C243 1.385 . S
C240 H221 0.951 . S
C240 C238 1.388 . S
C240 C241 1.366 . S
C241 C240 1.366 . S
C241 C242 1.414 . S
C241 C244 1.499 . S
C242 H222 0.950 . S
C242 C241 1.414 . S
C242 C243 1.374 . S
C243 H223 0.950 . S
C243 C239 1.385 . S
C243 C242 1.374 . S
C244 C241 1.499 . S
C244 C245 1.373 . S
C244 C246 1.389 . S
C245 H224 0.950 . S
C245 C244 1.373 . S
C245 C261 1.377 . S
C246 C244 1.389 . S
C246 C247 1.524 . S
C246 C260 1.377 . S
C247 C246 1.524 . S
C247 C248 1.397 . S
C247 C252 1.363 . S
C248 H225 0.950 . S
C248 C247 1.397 . S
C248 C249 1.334 . S
C249 H226 0.950 . S
C249 C248 1.334 . S
C249 C250 1.287 . S
C250 C249 1.287 . S
C250 C251 1.524 . S
C250 H269 0.913 1_455 S
C251 H227 0.950 1_455 S
C251 C250 1.524 . S
C251 C252 1.415 . S
C252 H228 0.950 . S
C252 C247 1.363 . S
C252 C251 1.415 . S
C253 H229 0.951 . S
C253 C254 1.366 . S
C253 C255 1.388 . S
C254 C253 1.366 . S
C254 C258 1.385 . S
C255 H230 0.951 . S
C255 C253 1.388 . S
C255 C256 1.366 . S
C256 C255 1.366 . S
C256 C257 1.414 . S
C256 C259 1.499 . S
C257 H231 0.950 . S
C257 C256 1.414 . S
C257 C258 1.374 . S
C258 H232 0.950 . S
C258 C254 1.385 . S
C258 C257 1.374 . S
C259 C256 1.499 . S
C259 C260 1.373 . S
C259 C261 1.389 . S
C260 H233 0.950 . S
C260 C246 1.377 . S
C260 C259 1.373 . S
C261 C245 1.377 . S
C261 C259 1.389 . S
C261 C262 1.524 . S
C262 C261 1.524 . S
C262 C263 1.397 . S
C262 C267 1.363 . S
C263 H234 0.950 . S
C263 C262 1.397 . S
C263 C264 1.334 . S
C264 H235 0.950 . S
C264 C263 1.334 . S
C264 C265 1.287 . S
C265 C264 1.287 . S
C265 C266 1.524 . S
C265 H268 0.999 . S
C266 H236 0.950 . S
C266 C265 1.524 . S
C266 C267 1.415 . S
C267 H237 0.950 . S
C267 C262 1.363 . S
C267 C266 1.415 . S
H268 C265 0.999 . S
H269 C250 0.913 1_655 S
H270 C288 0.951 . S
H271 C290 0.951 . S
H272 C292 0.950 . S
H273 C293 0.950 . S
H274 C295 0.950 . S
H275 C298 0.950 . S
H276 C299 0.950 . S
H277 C301 0.950 . S
H278 C302 0.950 . S
H279 C303 0.951 . S
H280 C305 0.951 . S
H281 C307 0.950 . S
H282 C308 0.950 . S
H283 C310 0.950 . S
H284 C313 0.950 . S
H285 C314 0.950 . S
H286 C316 0.950 . S
H287 C317 0.950 . S
C288 H270 0.951 . S
C288 C289 1.366 . S
C288 C290 1.388 . S
C289 C288 1.366 . S
C289 C293 1.385 . S
C290 H271 0.951 . S
C290 C288 1.388 . S
C290 C291 1.366 . S
C291 C290 1.366 . S
C291 C292 1.414 . S
C291 C294 1.499 . S
C292 H272 0.950 . S
C292 C291 1.414 . S
C292 C293 1.374 . S
C293 H273 0.950 . S
C293 C289 1.385 . S
C293 C292 1.374 . S
C294 C291 1.499 . S
C294 C295 1.373 . S
C294 C296 1.389 . S
C295 H274 0.950 . S
C295 C294 1.373 . S
C295 C311 1.377 . S
C296 C294 1.389 . S
C296 C297 1.524 . S
C296 C310 1.377 . S
C297 C296 1.524 . S
C297 C298 1.397 . S
C297 C302 1.363 . S
C298 H275 0.950 . S
C298 C297 1.397 . S
C298 C299 1.334 . S
C299 H276 0.950 . S
C299 C298 1.334 . S
C299 C300 1.287 . S
C300 C299 1.287 . S
C300 C301 1.524 . S
C300 H319 0.913 . S
C301 H277 0.950 . S
C301 C300 1.524 . S
C301 C302 1.415 . S
C302 H278 0.950 . S
C302 C297 1.363 . S
C302 C301 1.415 . S
C303 H279 0.951 . S
C303 C304 1.366 . S
C303 C305 1.388 . S
C304 C303 1.366 . S
C304 C308 1.385 . S
C305 H280 0.951 . S
C305 C303 1.388 . S
C305 C306 1.366 . S
C306 C305 1.366 . S
C306 C307 1.414 . S
C306 C309 1.499 . S
C307 H281 0.950 . S
C307 C306 1.414 . S
C307 C308 1.374 . S
C308 H282 0.950 . S
C308 C304 1.385 . S
C308 C307 1.374 . S
C309 C306 1.499 . S
C309 C310 1.373 . S
C309 C311 1.389 . S
C310 H283 0.950 . S
C310 C296 1.377 . S
C310 C309 1.373 . S
C311 C295 1.377 . S
C311 C309 1.389 . S
C311 C312 1.524 . S
C312 C311 1.524 . S
C312 C313 1.397 . S
C312 C317 1.363 . S
C313 H284 0.950 . S
C313 C312 1.397 . S
C313 C314 1.334 . S
C314 H285 0.950 . S
C314 C313 1.334 . S
C314 C315 1.287 . S
C315 C314 1.287 . S
C315 C316 1.524 . S
C315 H318 0.999 . S
C316 H286 0.950 . S
C316 C315 1.524 . S
C316 C317 1.415 . S
C317 H287 0.950 . S
C317 C312 1.363 . S
C317 C316 1.415 . S
H318 C315 0.999 . S
H319 C300 0.913 . S
H320 C338 0.951 . S
H321 C340 0.951 . S
H322 C342 0.950 . S
H323 C343 0.950 . S
H324 C345 0.950 . S
H325 C348 0.950 . S
H326 C349 0.950 . S
H327 C351 0.950 . S
H328 C352 0.944 1_556 S
H329 C353 0.951 . S
H330 C355 0.951 . S
H331 C357 0.950 . S
H332 C358 0.950 . S
H333 C360 0.950 . S
H334 C363 0.950 . S
H335 C364 0.950 . S
H336 C366 0.950 . S
H337 C367 0.937 1_554 S
C338 H320 0.951 . S
C338 C339 1.366 1_566 S
C338 C340 1.388 . S
C339 C338 1.366 1_544 S
C339 C343 1.385 . S
C340 H321 0.951 . S
C340 C338 1.388 . S
C340 C341 1.366 1_566 S
C341 C340 1.366 1_544 S
C341 C342 1.414 . S
C341 C344 1.499 . S
C342 H322 0.950 . S
C342 C341 1.414 . S
C342 C343 1.374 . S
C343 H323 0.950 . S
C343 C339 1.385 . S
C343 C342 1.374 . S
C344 C341 1.499 . S
C344 C345 1.373 1_554 S
C344 C346 1.389 1_545 S
C345 H324 0.950 . S
C345 C344 1.373 1_556 S
C345 C361 1.377 . S
C346 C344 1.389 1_565 S
C346 C347 1.524 . S
C346 C360 1.377 . S
C347 C346 1.524 . S
C347 C348 1.397 . S
C347 C352 1.363 . S
C348 H325 0.950 . S
C348 C347 1.397 . S
C348 C349 1.334 . S
C349 H326 0.950 . S
C349 C348 1.334 . S
C349 C350 1.287 . S
C350 C349 1.287 . S
C350 C351 1.524 . S
C350 H369 0.913 . S
C351 H327 0.950 . S
C351 C350 1.524 . S
C351 C352 1.415 . S
C352 H328 0.944 1_554 S
C352 C347 1.363 . S
C352 C351 1.415 . S
C353 H329 0.951 . S
C353 C354 1.352 1_544 S
C353 C355 1.388 . S
C354 C353 1.352 1_566 S
C354 C358 1.397 . S
C355 H330 0.951 . S
C355 C353 1.388 . S
C355 C356 1.366 1_544 S
C356 C355 1.366 1_566 S
C356 C357 1.414 . S
C356 C359 1.499 . S
C357 H331 0.950 . S
C357 C356 1.414 . S
C357 C358 1.374 . S
C358 H332 0.950 . S
C358 C354 1.397 . S
C358 C357 1.374 . S
C359 C356 1.499 . S
C359 C360 1.373 1_556 S
C359 C361 1.389 1_565 S
C360 H333 0.950 . S
C360 C346 1.377 . S
C360 C359 1.373 1_554 S
C361 C345 1.377 . S
C361 C359 1.389 1_545 S
C361 C362 1.524 . S
C362 C361 1.524 . S
C362 C363 1.397 . S
C362 C367 1.363 . S
C363 H334 0.950 . S
C363 C362 1.397 . S
C363 C364 1.334 . S
C364 H335 0.950 . S
C364 C363 1.334 . S
C364 C365 1.287 . S
C365 C364 1.287 . S
C365 C366 1.524 . S
C365 H368 0.999 . S
C366 H336 0.950 . S
C366 C365 1.524 . S
C366 C367 1.415 . S
C367 H337 0.937 1_556 S
C367 C362 1.363 . S
C367 C366 1.415 . S
H368 C365 0.999 . S
H369 C350 0.913 . S
H370 C388 0.951 . S
H371 C390 0.951 . S
H372 C392 0.950 . S
H373 C393 0.950 . S
H374 C395 0.950 . S
H375 C398 0.950 1_565 S
H376 C399 0.950 . S
H377 C401 0.950 . S
H378 C402 0.950 . S
H379 C403 0.951 . S
H380 C405 0.951 . S
H381 C407 0.950 . S
H382 C408 0.950 . S
H383 C410 0.950 . S
H384 C413 0.950 1_545 S
H385 C414 0.950 . S
H386 C416 0.950 . S
H387 C417 0.950 . S
C388 H370 0.951 . S
C388 C389 1.366 1_545 S
C388 C390 1.388 . S
C389 C388 1.366 1_565 S
C389 C393 1.385 . S
C390 H371 0.951 . S
C390 C388 1.388 . S
C390 C391 1.366 1_545 S
C391 C390 1.366 1_565 S
C391 C392 1.414 . S
C391 C394 1.499 . S
C392 H372 0.950 . S
C392 C391 1.414 . S
C392 C393 1.374 . S
C393 H373 0.950 . S
C393 C389 1.385 . S
C393 C392 1.374 . S
C394 C391 1.499 . S
C394 C395 1.373 . S
C394 C396 1.389 1_565 S
C395 H374 0.950 . S
C395 C394 1.373 . S
C395 C411 1.377 . S
C396 C394 1.389 1_545 S
C396 C397 1.524 . S
C396 C410 1.377 . S
C397 C396 1.524 . S
C397 C398 1.397 . S
C397 C402 1.363 . S
C398 H375 0.950 1_545 S
C398 C397 1.397 . S
C398 C399 1.334 . S
C399 H376 0.950 . S
C399 C398 1.334 . S
C399 C400 1.287 . S
C400 C399 1.287 . S
C400 C401 1.524 . S
C400 H419 0.913 . S
C401 H377 0.950 . S
C401 C400 1.524 . S
C401 C402 1.415 . S
C402 H378 0.950 . S
C402 C397 1.363 . S
C402 C401 1.415 . S
C403 H379 0.951 . S
C403 C404 1.366 1_565 S
C403 C405 1.388 . S
C404 C403 1.366 1_545 S
C404 C408 1.385 . S
C405 H380 0.951 . S
C405 C403 1.388 . S
C405 C406 1.366 1_565 S
C406 C405 1.366 1_545 S
C406 C407 1.414 . S
C406 C409 1.499 . S
C407 H381 0.950 . S
C407 C406 1.414 . S
C407 C408 1.374 . S
C408 H382 0.950 . S
C408 C404 1.385 . S
C408 C407 1.374 . S
C409 C406 1.499 . S
C409 C410 1.373 . S
C409 C411 1.389 1_545 S
C410 H383 0.950 . S
C410 C396 1.377 . S
C410 C409 1.373 . S
C411 C395 1.377 . S
C411 C409 1.389 1_565 S
C411 C412 1.524 . S
C412 C411 1.524 . S
C412 C413 1.397 . S
C412 C417 1.363 . S
C413 H384 0.950 1_565 S
C413 C412 1.397 . S
C413 C414 1.334 . S
C414 H385 0.950 . S
C414 C413 1.334 . S
C414 C415 1.287 . S
C415 C414 1.287 . S
C415 C416 1.524 . S
C415 H418 0.999 . S
C416 H386 0.950 . S
C416 C415 1.524 . S
C416 C417 1.415 . S
C417 H387 0.950 . S
C417 C412 1.363 . S
C417 C416 1.415 . S
H418 C415 0.999 . S
H419 C400 0.913 . S
H420 C438 0.951 . S
H421 C440 0.951 . S
H422 C442 0.950 . S
H423 C443 0.950 . S
H424 C445 0.950 . S
H425 C448 0.950 . S
H426 C449 0.950 1_556 S
H427 C451 0.950 . S
H428 C452 0.950 1_455 S
H429 C453 0.951 . S
H430 C455 0.951 . S
H431 C457 0.950 . S
H432 C458 0.950 . S
H433 C460 0.950 . S
H434 C463 0.950 . S
H435 C464 0.950 1_554 S
H436 C466 0.950 . S
H437 C467 0.950 1_655 S
C438 H420 0.951 . S
C438 C439 1.366 . S
C438 C440 1.388 . S
C439 C438 1.366 . S
C439 C443 1.385 1_554 S
C440 H421 0.951 . S
C440 C438 1.388 . S
C440 C441 1.363 . S
C441 C440 1.363 . S
C441 C442 1.416 1_554 S
C441 C444 1.499 1_554 S
C442 H422 0.950 . S
C442 C441 1.416 1_556 S
C442 C443 1.374 . S
C443 H423 0.950 . S
C443 C439 1.385 1_556 S
C443 C442 1.374 . S
C444 C441 1.499 1_556 S
C444 C445 1.373 . S
C444 C446 1.389 1_556 S
C445 H424 0.950 . S
C445 C444 1.373 . S
C445 C461 1.377 1_655 S
C446 C444 1.389 1_554 S
C446 C447 1.524 . S
C446 C460 1.377 1_655 S
C447 C446 1.524 . S
C447 C448 1.397 1_554 S
C447 C452 1.363 . S
C448 H425 0.950 . S
C448 C447 1.397 1_556 S
C448 C449 1.334 1_556 S
C449 H426 0.950 1_554 S
C449 C448 1.334 1_554 S
C449 C450 1.287 . S
C450 C449 1.287 . S
C450 C451 1.524 . S
C450 H469 0.913 . S
C451 H427 0.950 . S
C451 C450 1.524 . S
C451 C452 1.415 . S
C452 H428 0.950 1_655 S
C452 C447 1.363 . S
C452 C451 1.415 . S
C453 H429 0.951 . S
C453 C454 1.392 . S
C453 C455 1.388 . S
C454 C453 1.392 . S
C454 C458 1.355 1_556 S
C455 H430 0.951 . S
C455 C453 1.388 . S
C455 C456 1.363 1_556 S
C456 C455 1.363 1_554 S
C456 C457 1.416 . S
C456 C459 1.499 . S
C457 H431 0.950 . S
C457 C456 1.416 . S
C457 C458 1.374 . S
C458 H432 0.950 . S
C458 C454 1.355 1_554 S
C458 C457 1.374 . S
C459 C456 1.499 . S
C459 C460 1.373 . S
C459 C461 1.389 1_554 S
C460 H433 0.950 . S
C460 C446 1.377 1_455 S
C460 C459 1.373 . S
C461 C445 1.377 1_455 S
C461 C459 1.389 1_556 S
C461 C462 1.524 . S
C462 C461 1.524 . S
C462 C463 1.397 1_556 S
C462 C467 1.363 . S
C463 H434 0.950 . S
C463 C462 1.397 1_554 S
C463 C464 1.334 1_554 S
C464 H435 0.950 1_556 S
C464 C463 1.334 1_556 S
C464 C465 1.287 . S
C465 C464 1.287 . S
C465 C466 1.524 . S
C465 H468 0.999 . S
C466 H436 0.950 . S
C466 C465 1.524 . S
C466 C467 1.415 . S
C467 H437 0.950 1_455 S
C467 C462 1.363 . S
C467 C466 1.415 . S
H468 C465 0.999 . S
H469 C450 0.913 . S
H470 C488 0.951 . S
H471 C490 0.951 . S
H472 C492 0.950 . S
H473 C493 0.950 . S
H474 C495 0.950 . S
H475 C498 0.950 . S
H476 C499 0.950 . S
H477 C501 0.950 . S
H478 C502 0.950 . S
H479 C503 0.951 . S
H480 C505 0.951 . S
H481 C507 0.950 . S
H482 C508 0.950 . S
H483 C510 0.950 . S
H484 C513 0.950 . S
H485 C514 0.950 . S
H486 C516 0.950 . S
H487 C517 0.950 . S
C488 H470 0.951 . S
C488 C489 1.366 . S
C488 C490 1.388 . S
C489 C488 1.366 . S
C489 C493 1.385 . S
C490 H471 0.951 . S
C490 C488 1.388 . S
C490 C491 1.366 . S
C491 C490 1.366 . S
C491 C492 1.414 . S
C491 C494 1.499 . S
C492 H472 0.950 . S
C492 C491 1.414 . S
C492 C493 1.374 . S
C493 H473 0.950 . S
C493 C489 1.385 . S
C493 C492 1.374 . S
C494 C491 1.499 . S
C494 C495 1.373 . S
C494 C496 1.389 . S
C495 H474 0.950 . S
C495 C494 1.373 . S
C495 C511 1.377 1_455 S
C496 C494 1.389 . S
C496 C497 1.524 . S
C496 C510 1.377 1_455 S
C497 C496 1.524 . S
C497 C498 1.397 . S
C497 C502 1.363 . S
C498 H475 0.950 . S
C498 C497 1.397 . S
C498 C499 1.334 . S
C499 H476 0.950 . S
C499 C498 1.334 . S
C499 C500 1.287 . S
C500 C499 1.287 . S
C500 C501 1.524 . S
C500 H519 0.913 . S
C501 H477 0.950 . S
C501 C500 1.524 . S
C501 C502 1.415 . S
C502 H478 0.950 . S
C502 C497 1.363 . S
C502 C501 1.415 . S
C503 H479 0.951 . S
C503 C504 1.366 . S
C503 C505 1.388 . S
C504 C503 1.366 . S
C504 C508 1.385 . S
C505 H480 0.951 . S
C505 C503 1.388 . S
C505 C506 1.366 . S
C506 C505 1.366 . S
C506 C507 1.414 . S
C506 C509 1.499 . S
C507 H481 0.950 . S
C507 C506 1.414 . S
C507 C508 1.374 . S
C508 H482 0.950 . S
C508 C504 1.385 . S
C508 C507 1.374 . S
C509 C506 1.499 . S
C509 C510 1.373 . S
C509 C511 1.389 . S
C510 H483 0.950 . S
C510 C496 1.377 1_655 S
C510 C509 1.373 . S
C511 C495 1.377 1_655 S
C511 C509 1.389 . S
C511 C512 1.524 . S
C512 C511 1.524 . S
C512 C513 1.397 . S
C512 C517 1.363 . S
C513 H484 0.950 . S
C513 C512 1.397 . S
C513 C514 1.334 . S
C514 H485 0.950 . S
C514 C513 1.334 . S
C514 C515 1.287 . S
C515 C514 1.287 . S
C515 C516 1.524 . S
C515 H518 0.999 . S
C516 H486 0.950 . S
C516 C515 1.524 . S
C516 C517 1.415 . S
C517 H487 0.950 . S
C517 C512 1.363 . S
C517 C516 1.415 . S
H518 C515 0.999 . S
H519 C500 0.913 . S
H520 C538 0.951 . S
H521 C540 0.951 . S
H522 C542 0.950 . S
H523 C543 0.950 . S
H524 C545 0.950 . S
H525 C548 0.950 . S
H526 C549 0.950 . S
H527 C551 0.950 . S
H528 C552 0.950 . S
H529 C553 0.951 . S
H530 C555 0.951 . S
H531 C557 0.950 . S
H532 C558 0.950 . S
H533 C560 0.950 . S
H534 C563 0.950 . S
H535 C564 0.950 . S
H536 C566 0.950 . S
H537 C567 0.950 . S
C538 H520 0.951 . S
C538 C539 1.355 1_455 S
C538 C540 1.388 . S
C539 C538 1.355 1_655 S
C539 C543 1.395 1_545 S
C540 H521 0.951 . S
C540 C538 1.388 . S
C540 C541 1.366 1_455 S
C541 C540 1.366 1_655 S
C541 C542 1.414 1_545 S
C541 C544 1.499 . S
C542 H522 0.950 . S
C542 C541 1.414 1_565 S
C542 C543 1.374 . S
C543 H523 0.950 . S
C543 C539 1.395 1_565 S
C543 C542 1.374 . S
C544 C541 1.499 . S
C544 C545 1.373 1_545 S
C544 C546 1.389 1_655 S
C545 H524 0.950 . S
C545 C544 1.373 1_565 S
C545 C561 1.377 . S
C546 C544 1.389 1_455 S
C546 C547 1.524 . S
C546 C560 1.377 . S
C547 C546 1.524 . S
C547 C548 1.397 1_455 S
C547 C552 1.363 . S
C548 H525 0.950 . S
C548 C547 1.397 1_655 S
C548 C549 1.334 . S
C549 H526 0.950 . S
C549 C548 1.334 . S
C549 C550 1.287 . S
C550 C549 1.287 . S
C550 C551 1.524 1_655 S
C550 H569 0.913 . S
C551 H527 0.950 . S
C551 C550 1.524 1_455 S
C551 C552 1.415 . S
C552 H528 0.950 . S
C552 C547 1.363 . S
C552 C551 1.415 . S
C553 H529 0.951 . S
C553 C554 1.366 1_665 S
C553 C555 1.388 . S
C554 C553 1.366 1_445 S
C554 C558 1.385 . S
C555 H530 0.951 . S
C555 C553 1.388 . S
C555 C556 1.367 1_665 S
C556 C555 1.367 1_445 S
C556 C557 1.412 . S
C556 C559 1.499 . S
C557 H531 0.950 . S
C557 C556 1.412 . S
C557 C558 1.374 . S
C558 H532 0.950 . S
C558 C554 1.385 . S
C558 C557 1.374 . S
C559 C556 1.499 . S
C559 C560 1.387 . S
C559 C561 1.377 1_445 S
C560 H533 0.950 . S
C560 C546 1.377 . S
C560 C559 1.387 . S
C561 C545 1.377 . S
C561 C559 1.377 1_665 S
C561 C562 1.524 . S
C562 C561 1.524 . S
C562 C563 1.397 1_655 S
C562 C567 1.363 . S
C563 H534 0.950 . S
C563 C562 1.397 1_455 S
C563 C564 1.334 . S
C564 H535 0.950 . S
C564 C563 1.334 . S
C564 C565 1.287 . S
C565 C564 1.287 . S
C565 C566 1.524 1_455 S
C565 H568 0.999 . S
C566 H536 0.950 . S
C566 C565 1.524 1_655 S
C566 C567 1.415 . S
C567 H537 0.950 . S
C567 C562 1.363 . S
C567 C566 1.415 . S
H568 C565 0.999 . S
H569 C550 0.913 . S
H570 C588 0.951 . S
H571 C590 0.951 . S
H572 C592 0.950 . S
H573 C593 0.950 . S
H574 C595 0.950 . S
H575 C598 0.950 . S
H576 C599 0.950 . S
H577 C601 0.950 . S
H578 C602 0.950 . S
H579 C603 0.951 . S
H580 C605 0.951 . S
H581 C607 0.950 . S
H582 C608 0.950 . S
H583 C610 0.950 . S
H584 C613 0.950 . S
H585 C614 0.950 . S
H586 C616 0.950 . S
H587 C617 0.950 . S
C588 H570 0.951 . S
C588 C589 1.360 1_445 S
C588 C590 1.388 . S
C589 C588 1.360 1_665 S
C589 C593 1.389 . S
C590 H571 0.951 . S
C590 C588 1.388 . S
C590 C591 1.353 1_445 S
C591 C590 1.353 1_665 S
C591 C592 1.427 . S
C591 C594 1.499 . S
C592 H572 0.950 . S
C592 C591 1.427 . S
C592 C593 1.374 . S
C593 H573 0.950 . S
C593 C589 1.389 . S
C593 C592 1.374 . S
C594 C591 1.499 . S
C594 C595 1.373 1_655 S
C594 C596 1.389 1_565 S
C595 H574 0.950 . S
C595 C594 1.373 1_455 S
C595 C611 1.377 . S
C596 C594 1.389 1_545 S
C596 C597 1.524 . S
C596 C610 1.377 . S
C597 C596 1.524 . S
C597 C598 1.397 . S
C597 C602 1.363 . S
C598 H575 0.950 . S
C598 C597 1.397 . S
C598 C599 1.334 . S
C599 H576 0.950 . S
C599 C598 1.334 . S
C599 C600 1.287 . S
C600 C599 1.287 . S
C600 C601 1.524 . S
C600 H619 0.913 . S
C601 H577 0.950 . S
C601 C600 1.524 . S
C601 C602 1.415 . S
C602 H578 0.950 . S
C602 C597 1.363 . S
C602 C601 1.415 . S
C603 H579 0.951 . S
C603 C604 1.399 1_655 S
C603 C605 1.388 . S
C604 C603 1.399 1_455 S
C604 C608 1.352 1_565 S
C605 H580 0.951 . S
C605 C603 1.388 . S
C605 C606 1.366 1_655 S
C606 C605 1.366 1_455 S
C606 C607 1.414 1_565 S
C606 C609 1.500 . S
C607 H581 0.950 . S
C607 C606 1.414 1_545 S
C607 C608 1.374 . S
C608 H582 0.950 . S
C608 C604 1.352 1_545 S
C608 C607 1.374 . S
C609 C606 1.500 . S
C609 C610 1.346 1_465 S
C609 C611 1.417 . S
C610 H583 0.950 . S
C610 C596 1.377 . S
C610 C609 1.346 1_645 S
C611 C595 1.377 . S
C611 C609 1.417 . S
C611 C612 1.524 . S
C612 C611 1.524 . S
C612 C613 1.397 . S
C612 C617 1.363 . S
C613 H584 0.950 . S
C613 C612 1.397 . S
C613 C614 1.334 . S
C614 H585 0.950 . S
C614 C613 1.334 . S
C614 C615 1.287 . S
C615 C614 1.287 . S
C615 C616 1.524 . S
C615 H618 0.999 . S
C616 H586 0.950 . S
C616 C615 1.524 . S
C616 C617 1.415 . S
C617 H587 0.950 . S
C617 C612 1.363 . S
C617 C616 1.415 . S
H618 C615 0.999 . S
H619 C600 0.913 . S
H620 C638 0.951 . S
H621 C640 0.951 . S
H622 C642 0.950 . S
H623 C643 0.950 . S
H624 C645 0.950 . S
H625 C648 0.950 . S
H626 C649 0.950 . S
H627 C651 0.950 . S
H628 C652 0.950 . S
H629 C653 0.951 . S
H630 C655 0.951 . S
H631 C657 0.950 . S
H632 C658 0.950 . S
H633 C660 0.950 . S
H634 C663 0.950 . S
H635 C664 0.950 . S
H636 C666 0.950 . S
H637 C667 0.950 . S
C638 H620 0.951 . S
C638 C639 1.366 . S
C638 C640 1.388 . S
C639 C638 1.366 . S
C639 C643 1.385 . S
C640 H621 0.951 . S
C640 C638 1.388 . S
C640 C641 1.366 . S
C641 C640 1.366 . S
C641 C642 1.414 . S
C641 C644 1.499 . S
C642 H622 0.950 . S
C642 C641 1.414 . S
C642 C643 1.374 . S
C643 H623 0.950 . S
C643 C639 1.385 . S
C643 C642 1.374 . S
C644 C641 1.499 . S
C644 C645 1.373 . S
C644 C646 1.389 . S
C645 H624 0.950 . S
C645 C644 1.373 . S
C645 C661 1.377 . S
C646 C644 1.389 . S
C646 C647 1.524 . S
C646 C660 1.377 . S
C647 C646 1.524 . S
C647 C648 1.397 . S
C647 C652 1.363 . S
C648 H625 0.950 . S
C648 C647 1.397 . S
C648 C649 1.334 . S
C649 H626 0.950 . S
C649 C648 1.334 . S
C649 C650 1.287 . S
C650 C649 1.287 . S
C650 C651 1.524 . S
C650 H669 0.913 . S
C651 H627 0.950 . S
C651 C650 1.524 . S
C651 C652 1.415 . S
C652 H628 0.950 . S
C652 C647 1.363 . S
C652 C651 1.415 . S
C653 H629 0.951 . S
C653 C654 1.366 . S
C653 C655 1.388 . S
C654 C653 1.366 . S
C654 C658 1.385 . S
C655 H630 0.951 . S
C655 C653 1.388 . S
C655 C656 1.366 . S
C656 C655 1.366 . S
C656 C657 1.414 . S
C656 C659 1.499 . S
C657 H631 0.950 . S
C657 C656 1.414 . S
C657 C658 1.374 . S
C658 H632 0.950 . S
C658 C654 1.385 . S
C658 C657 1.374 . S
C659 C656 1.499 . S
C659 C660 1.373 . S
C659 C661 1.389 . S
C660 H633 0.950 . S
C660 C646 1.377 . S
C660 C659 1.373 . S
C661 C645 1.377 . S
C661 C659 1.389 . S
C661 C662 1.524 . S
C662 C661 1.524 . S
C662 C663 1.397 . S
C662 C667 1.363 . S
C663 H634 0.950 . S
C663 C662 1.397 . S
C663 C664 1.334 . S
C664 H635 0.950 . S
C664 C663 1.334 . S
C664 C665 1.287 . S
C665 C664 1.287 . S
C665 C666 1.524 . S
C665 H668 0.999 . S
C666 H636 0.950 . S
C666 C665 1.524 . S
C666 C667 1.415 . S
C667 H637 0.950 . S
C667 C662 1.363 . S
C667 C666 1.415 . S
H668 C665 0.999 . S
H669 C650 0.913 . S
H670 C688 0.951 . S
H671 C690 0.951 . S
H672 C692 0.950 . S
H673 C693 0.950 . S
H674 C695 0.950 . S
H675 C698 0.950 . S
H676 C699 0.950 . S
H677 C701 0.950 . S
H678 C702 0.950 . S
H679 C703 0.951 . S
H680 C705 0.951 . S
H681 C707 0.950 . S
H682 C708 0.950 . S
H683 C710 0.950 . S
H684 C713 0.950 . S
H685 C714 0.950 . S
H686 C716 0.950 . S
H687 C717 0.950 . S
C688 H670 0.951 . S
C688 C689 1.366 . S
C688 C690 1.388 . S
C689 C688 1.366 . S
C689 C693 1.385 . S
C690 H671 0.951 . S
C690 C688 1.388 . S
C690 C691 1.366 . S
C691 C690 1.366 . S
C691 C692 1.414 . S
C691 C694 1.499 . S
C692 H672 0.950 . S
C692 C691 1.414 . S
C692 C693 1.374 . S
C693 H673 0.950 . S
C693 C689 1.385 . S
C693 C692 1.374 . S
C694 C691 1.499 . S
C694 C695 1.373 . S
C694 C696 1.389 . S
C695 H674 0.950 . S
C695 C694 1.373 . S
C695 C711 1.377 . S
C696 C694 1.389 . S
C696 C697 1.524 . S
C696 C710 1.377 . S
C697 C696 1.524 . S
C697 C698 1.397 . S
C697 C702 1.363 . S
C698 H675 0.950 . S
C698 C697 1.397 . S
C698 C699 1.334 . S
C699 H676 0.950 . S
C699 C698 1.334 . S
C699 C700 1.287 . S
C700 C699 1.287 . S
C700 C701 1.524 . S
C700 H719 0.913 . S
C701 H677 0.950 . S
C701 C700 1.524 . S
C701 C702 1.415 . S
C702 H678 0.950 . S
C702 C697 1.363 . S
C702 C701 1.415 . S
C703 H679 0.951 . S
C703 C704 1.366 . S
C703 C705 1.388 . S
C704 C703 1.366 . S
C704 C708 1.385 . S
C705 H680 0.951 . S
C705 C703 1.388 . S
C705 C706 1.366 . S
C706 C705 1.366 . S
C706 C707 1.414 . S
C706 C709 1.499 . S
C707 H681 0.950 . S
C707 C706 1.414 . S
C707 C708 1.374 . S
C708 H682 0.950 . S
C708 C704 1.385 . S
C708 C707 1.374 . S
C709 C706 1.499 . S
C709 C710 1.373 . S
C709 C711 1.389 . S
C710 H683 0.950 . S
C710 C696 1.377 . S
C710 C709 1.373 . S
C711 C695 1.377 . S
C711 C709 1.389 . S
C711 C712 1.524 . S
C712 C711 1.524 . S
C712 C713 1.397 . S
C712 C717 1.363 . S
C713 H684 0.950 . S
C713 C712 1.397 . S
C713 C714 1.334 . S
C714 H685 0.950 . S
C714 C713 1.334 . S
C714 C715 1.287 . S
C715 C714 1.287 . S
C715 C716 1.524 . S
C715 H718 0.999 . S
C716 H686 0.950 . S
C716 C715 1.524 . S
C716 C717 1.415 . S
C717 H687 0.950 . S
C717 C712 1.363 . S
C717 C716 1.415 . S
H718 C715 0.999 . S
H719 C700 0.913 . S
C139 N74 1.538 1_554 S
C154 N6 1.541 1_556 S
C189 N66 1.539 1_556 S
C204 N14 1.535 1_554 S
C239 N44 1.538 . S
C254 N96 1.533 . S
C289 N36 1.539 . S
C304 N104 1.543 . S
C339 C16 0.761 . S
C354 C27 0.762 . S
C389 C57 0.761 . S
C404 C46 0.761 . S
C439 C76 0.760 . S
C454 C87 0.762 . S
C489 C106 0.760 . S
C504 C117 0.760 . S
C539 C31 1.499 . S
C554 C1 1.493 . S
C589 C10 1.498 . S
C604 C40 1.505 . S
C639 C91 1.497 . S
C654 C61 1.493 . S
C689 C100 1.497 . S
C704 C70 1.501 . S
