# Generated by pormake.
# Topology zfk, (5)-cn, num edge types: 1
# Building blocks:
#     Node 0, Type 0, BuildingBlock: XOMCOT_clean_sbu_1, # of connection points: 5
#     Node 1, Type 0, BuildingBlock: XOMCOT_clean_sbu_1, # of connection points: 5
#     Node 2, Type 0, BuildingBlock: XOMCOT_clean_sbu_1, # of connection points: 5
#     Node 3, Type 0, BuildingBlock: XOMCOT_clean_sbu_1, # of connection points: 5
#     Node 4, Type 0, BuildingBlock: XOMCOT_clean_sbu_1, # of connection points: 5
#     Node 5, Type 0, BuildingBlock: XOMCOT_clean_sbu_1, # of connection points: 5
#     Node 6, Type 0, BuildingBlock: XOMCOT_clean_sbu_1, # of connection points: 5
#     Node 7, Type 0, BuildingBlock: XOMCOT_clean_sbu_1, # of connection points: 5
#     Node 8, Type 0, BuildingBlock: XOMCOT_clean_sbu_1, # of connection points: 5
#     Node 9, Type 0, BuildingBlock: XOMCOT_clean_sbu_1, # of connection points: 5
#     Node 10, Type 0, BuildingBlock: XOMCOT_clean_sbu_1, # of connection points: 5
#     Node 11, Type 0, BuildingBlock: XOMCOT_clean_sbu_1, # of connection points: 5
#     Node 12, Type 0, BuildingBlock: XOMCOT_clean_sbu_1, # of connection points: 5
#     Node 13, Type 0, BuildingBlock: XOMCOT_clean_sbu_1, # of connection points: 5
#     Node 14, Type 0, BuildingBlock: XOMCOT_clean_sbu_1, # of connection points: 5
#     Node 15, Type 0, BuildingBlock: XOMCOT_clean_sbu_1, # of connection points: 5
#     Edge 16, Type (0, 0), BuildingBlock: XUDNAN_clean_linker_2, # of connection points: 2
#     Edge 17, Type (0, 0), BuildingBlock: XUDNAN_clean_linker_2, # of connection points: 2
#     Edge 18, Type (0, 0), BuildingBlock: XUDNAN_clean_linker_2, # of connection points: 2
#     Edge 19, Type (0, 0), BuildingBlock: XUDNAN_clean_linker_2, # of connection points: 2
#     Edge 20, Type (0, 0), BuildingBlock: XUDNAN_clean_linker_2, # of connection points: 2
#     Edge 21, Type (0, 0), BuildingBlock: XUDNAN_clean_linker_2, # of connection points: 2
#     Edge 22, Type (0, 0), BuildingBlock: XUDNAN_clean_linker_2, # of connection points: 2
#     Edge 23, Type (0, 0), BuildingBlock: XUDNAN_clean_linker_2, # of connection points: 2
#     Edge 24, Type (0, 0), BuildingBlock: XUDNAN_clean_linker_2, # of connection points: 2
#     Edge 25, Type (0, 0), BuildingBlock: XUDNAN_clean_linker_2, # of connection points: 2
#     Edge 26, Type (0, 0), BuildingBlock: XUDNAN_clean_linker_2, # of connection points: 2
#     Edge 27, Type (0, 0), BuildingBlock: XUDNAN_clean_linker_2, # of connection points: 2
#     Edge 28, Type (0, 0), BuildingBlock: XUDNAN_clean_linker_2, # of connection points: 2
#     Edge 29, Type (0, 0), BuildingBlock: XUDNAN_clean_linker_2, # of connection points: 2
#     Edge 30, Type (0, 0), BuildingBlock: XUDNAN_clean_linker_2, # of connection points: 2
#     Edge 31, Type (0, 0), BuildingBlock: XUDNAN_clean_linker_2, # of connection points: 2
#     Edge 32, Type (0, 0), BuildingBlock: XUDNAN_clean_linker_2, # of connection points: 2
#     Edge 33, Type (0, 0), BuildingBlock: XUDNAN_clean_linker_2, # of connection points: 2
#     Edge 34, Type (0, 0), BuildingBlock: XUDNAN_clean_linker_2, # of connection points: 2
#     Edge 35, Type (0, 0), BuildingBlock: XUDNAN_clean_linker_2, # of connection points: 2
#     Edge 36, Type (0, 0), BuildingBlock: XUDNAN_clean_linker_2, # of connection points: 2
#     Edge 37, Type (0, 0), BuildingBlock: XUDNAN_clean_linker_2, # of connection points: 2
#     Edge 38, Type (0, 0), BuildingBlock: XUDNAN_clean_linker_2, # of connection points: 2
#     Edge 39, Type (0, 0), BuildingBlock: XUDNAN_clean_linker_2, # of connection points: 2
#     Edge 40, Type (0, 0), BuildingBlock: XUDNAN_clean_linker_2, # of connection points: 2
#     Edge 41, Type (0, 0), BuildingBlock: XUDNAN_clean_linker_2, # of connection points: 2
#     Edge 42, Type (0, 0), BuildingBlock: XUDNAN_clean_linker_2, # of connection points: 2
#     Edge 43, Type (0, 0), BuildingBlock: XUDNAN_clean_linker_2, # of connection points: 2
#     Edge 44, Type (0, 0), BuildingBlock: XUDNAN_clean_linker_2, # of connection points: 2
#     Edge 45, Type (0, 0), BuildingBlock: XUDNAN_clean_linker_2, # of connection points: 2
#     Edge 46, Type (0, 0), BuildingBlock: XUDNAN_clean_linker_2, # of connection points: 2
#     Edge 47, Type (0, 0), BuildingBlock: XUDNAN_clean_linker_2, # of connection points: 2
#     Edge 48, Type (0, 0), BuildingBlock: XUDNAN_clean_linker_2, # of connection points: 2
#     Edge 49, Type (0, 0), BuildingBlock: XUDNAN_clean_linker_2, # of connection points: 2
#     Edge 50, Type (0, 0), BuildingBlock: XUDNAN_clean_linker_2, # of connection points: 2
#     Edge 51, Type (0, 0), BuildingBlock: XUDNAN_clean_linker_2, # of connection points: 2
#     Edge 52, Type (0, 0), BuildingBlock: XUDNAN_clean_linker_2, # of connection points: 2
#     Edge 53, Type (0, 0), BuildingBlock: XUDNAN_clean_linker_2, # of connection points: 2
#     Edge 54, Type (0, 0), BuildingBlock: XUDNAN_clean_linker_2, # of connection points: 2
#     Edge 55, Type (0, 0), BuildingBlock: XUDNAN_clean_linker_2, # of connection points: 2
# Relax obj value: 0.303
# Max RMSD: 0.176
# Mean RMSD: 0.176
data_MOF--net-zfk--node1-XOMCOT_clean_sbu_1--edge1-XUDNAN_clean_linker_2
_symmetry_space_group_name_H-M    P1
_symmetry_Int_Tables_number       1
_symmetry_cell_setting            triclinic
loop_
_symmetry_equiv_pos_as_xyz
'x, y, z'
_cell_length_a     30.490369
_cell_length_b     30.369934
_cell_length_c     66.736628
_cell_angle_alpha  89.922227
_cell_angle_beta   89.923777
_cell_angle_gamma 89.994513
loop_
_atom_site_label
_atom_site_type_symbol
_atom_site_fract_x
_atom_site_fract_y
_atom_site_fract_z
_atom_type_partial_charge
C0 C 0.99796 0.41043 0.11202 0.0
C1 C 0.99347 0.39557 0.0926 0.0
N2 N 0.02438 0.36488 0.08919 0.0
N3 N 0.03226 0.39017 0.12095 0.0
C4 C 0.04671 0.3616 0.10666 0.0
H5 H 0.97601 0.43312 0.11946 0.0
Co6 Co 0.04352 0.39122 0.14921 0.0
C7 C 0.09095 0.29865 0.14697 0.0
O8 O 0.1304 0.31583 0.14717 0.0
N9 N 0.05207 0.38943 0.17773 0.0
C10 C 0.08427 0.37436 0.20698 0.0
C11 C 0.08407 0.36593 0.18685 0.0
C12 C 0.03291 0.41201 0.19306 0.0
N13 N 0.05228 0.4033 0.21093 0.0
O14 O 0.02713 0.45671 0.15082 0.0
H15 H 0.10798 0.34585 0.1794 0.0
H16 H 0.00671 0.43564 0.19104 0.0
O17 O 0.05741 0.32459 0.14782 0.0
C18 C 0.03816 0.48948 0.13944 0.0
O19 O 0.05832 0.48145 0.12242 0.0
N20 N 0.10342 0.41176 0.14603 0.0
C21 C 0.18885 0.44612 0.14678 0.0
C22 C 0.17609 0.41548 0.13206 0.0
C23 C 0.13289 0.39982 0.13159 0.0
C24 C 0.11517 0.44437 0.15927 0.0
C25 C 0.15661 0.46286 0.15938 0.0
H26 H 0.12484 0.37585 0.12044 0.0
H27 H 0.09265 0.45686 0.17032 0.0
H28 H 0.07082 0.33622 0.1093 0.0
H29 H 0.96867 0.40579 0.08197 0.0
H30 H 0.10727 0.36148 0.21786 0.0
H31 H 0.19966 0.40119 0.12183 0.0
H32 H 0.16402 0.48791 0.17041 0.0
C33 C 0.13175 0.9462 0.61951 0.0
C34 C 0.14603 0.94304 0.60005 0.0
N35 N 0.16016 0.9829 0.59403 0.0
N36 N 0.13613 0.98791 0.62612 0.0
C37 C 0.15367 0.00965 0.61008 0.0
H38 H 0.11976 0.91925 0.62861 0.0
Co39 Co 0.12444 0.99703 0.65397 0.0
C40 C 0.21902 0.98924 0.6551 0.0
O41 O 0.21292 0.94797 0.64994 0.0
N42 N 0.11396 1.00214 0.68185 0.0
C43 C 0.08984 0.97957 0.7116 0.0
C44 C 0.09842 0.96736 0.69217 0.0
C45 C 0.11564 0.0352 0.69561 0.0
N46 N 0.10024 0.02241 0.71383 0.0
O47 O 0.06219 0.9786 0.65026 0.0
H48 H 0.0926 0.93522 0.68574 0.0
H49 H 0.12599 0.06844 0.69211 0.0
O50 O 0.18562 0.01385 0.65801 0.0
C51 C 0.03573 0.98461 0.63559 0.0
O52 O 0.04973 1.00372 0.61912 0.0
N53 N 0.1078 0.05706 0.65041 0.0
C54 C 0.08625 0.14624 0.6516 0.0
C55 C 0.12627 0.13231 0.64345 0.0
C56 C 0.13672 0.08768 0.64331 0.0
C57 C 0.06802 0.07054 0.65783 0.0
C58 C 0.05663 0.11485 0.65854 0.0
H59 H 0.16926 0.07844 0.63863 0.0
H60 H 0.0461 0.04765 0.66499 0.0
H61 H 0.16342 0.04373 0.61016 0.0
H62 H 0.14639 0.91335 0.5911 0.0
H63 H 0.07653 0.95843 0.72317 0.0
H64 H 0.15074 0.15596 0.63863 0.0
H65 H 0.02603 0.12461 0.66552 0.0
C66 C 0.41811 0.11429 0.10899 0.0
C67 C 0.42244 0.12917 0.08957 0.0
N68 N 0.46383 0.14377 0.08681 0.0
N69 N 0.45637 0.11956 0.11874 0.0
C70 C 0.48412 0.13587 0.10461 0.0
H71 H 0.38792 0.10381 0.11606 0.0
Co72 Co 0.46137 0.11496 0.14714 0.0
C73 C 0.51889 0.19075 0.15901 0.0
O74 O 0.49886 0.18949 0.17643 0.0
N75 N 0.46637 0.10644 0.17557 0.0
C76 C 0.4986 0.08826 0.20455 0.0
C77 C 0.50531 0.10056 0.18492 0.0
C78 C 0.43654 0.09443 0.18977 0.0
N79 N 0.4552 0.08469 0.20766 0.0
O80 O 0.49403 0.05899 0.14397 0.0
H81 H 0.53695 0.1041 0.17775 0.0
H82 H 0.40214 0.08919 0.18684 0.0
O83 O 0.5143 0.15733 0.14698 0.0
C84 C 0.46633 0.027 0.14392 0.0
O85 O 0.4245 0.03732 0.14483 0.0
N86 N 0.4262 0.16751 0.1498 0.0
C87 C 0.38979 0.25097 0.15552 0.0
C88 C 0.42032 0.24361 0.14039 0.0
C89 C 0.43662 0.20188 0.13736 0.0
C90 C 0.39276 0.17297 0.16322 0.0
C91 C 0.3746 0.21474 0.16663 0.0
H92 H 0.46124 0.19907 0.12602 0.0
H93 H 0.37964 0.14559 0.17136 0.0
H94 H 0.51739 0.14558 0.10795 0.0
H95 H 0.39587 0.13246 0.07896 0.0
H96 H 0.52377 0.08215 0.21563 0.0
H97 H 0.43345 0.27018 0.13136 0.0
H98 H 0.349 0.21853 0.17775 0.0
C99 C 0.37287 0.44263 0.61849 0.0
C100 C 0.36097 0.44318 0.59865 0.0
N101 N 0.33997 0.48129 0.5947 0.0
N102 N 0.35973 0.48014 0.62738 0.0
C103 C 0.34072 0.50374 0.61233 0.0
H104 H 0.38844 0.41554 0.62625 0.0
Co105 Co 0.36481 0.48628 0.65567 0.0
C106 C 0.28695 0.53967 0.66751 0.0
O107 O 0.28831 0.51762 0.68444 0.0
N108 N 0.37412 0.49157 0.68403 0.0
C109 C 0.38886 0.52054 0.71408 0.0
C110 C 0.37424 0.52909 0.69492 0.0
C111 C 0.39257 0.46164 0.69663 0.0
N112 N 0.40035 0.47781 0.71525 0.0
O113 O 0.41848 0.52212 0.65204 0.0
H114 H 0.36551 0.5612 0.68915 0.0
H115 H 0.4024 0.42914 0.69189 0.0
O116 O 0.32048 0.53716 0.65551 0.0
C117 C 0.45275 0.49732 0.65153 0.0
O118 O 0.44662 0.45453 0.65237 0.0
N119 N 0.31468 0.44806 0.65885 0.0
C120 C 0.23666 0.40131 0.66452 0.0
C121 C 0.2395 0.43393 0.64993 0.0
C122 C 0.27879 0.45581 0.64698 0.0
C123 C 0.31324 0.41392 0.6722 0.0
C124 C 0.27428 0.39064 0.67555 0.0
H125 H 0.27881 0.48126 0.63581 0.0
H126 H 0.34193 0.40372 0.68017 0.0
H127 H 0.32475 0.53513 0.61463 0.0
H128 H 0.36645 0.41675 0.58809 0.0
H129 H 0.39264 0.54456 0.72591 0.0
H130 H 0.21139 0.44288 0.64087 0.0
H131 H 0.27396 0.3638 0.68626 0.0
C132 C 0.97077 0.14896 0.94464 0.0
C133 C 0.97285 0.16555 0.96375 0.0
N134 N 0.00775 0.1924 0.96496 0.0
N135 N 1.00473 0.1641 0.93354 0.0
C136 C 0.02635 0.19129 0.94647 0.0
H137 H 0.94413 0.12926 0.93884 0.0
Co138 Co 1.00314 0.1586 0.90491 0.0
C139 C 0.00755 0.25368 0.89487 0.0
O140 O 0.97033 0.25011 0.88512 0.0
N141 N 0.99741 0.15492 0.87655 0.0
C142 C 0.96452 0.13554 0.84818 0.0
C143 C 0.95901 0.14255 0.86837 0.0
C144 C 0.0256 0.15694 0.86072 0.0
N145 N 0.00665 0.14379 0.84331 0.0
O146 O 0.981 0.09686 0.90718 0.0
H147 H 0.92926 0.13676 0.87682 0.0
H148 H 0.0601 0.16464 0.86217 0.0
O149 O 0.02461 0.21938 0.90279 0.0
C150 C 0.99527 0.06503 0.9181 0.0
O151 O 0.02591 0.07293 0.93146 0.0
N152 N 0.0617 0.13596 0.90277 0.0
C153 C 0.14465 0.11682 0.88784 0.0
C154 C 0.13893 0.15021 0.90207 0.0
C155 C 0.09699 0.15965 0.90918 0.0
C156 C 0.06839 0.09935 0.89103 0.0
C157 C 0.10953 0.08965 0.88315 0.0
H158 H 0.09284 0.18887 0.91799 0.0
H159 H 0.04117 0.08081 0.8851 0.0
H160 H 0.05249 0.21322 0.94215 0.0
H161 H 0.94937 0.15966 0.97564 0.0
H162 H 0.93957 0.12373 0.838 0.0
H163 H 0.16562 0.17239 0.9057 0.0
H164 H 0.11276 0.06427 0.87185 0.0
C165 C 0.3631 0.95483 0.44442 0.0
C166 C 0.34658 0.95491 0.46355 0.0
N167 N 0.31389 0.98454 0.46454 0.0
N168 N 0.34261 0.9855 0.4331 0.0
C169 C 0.31155 1.00205 0.44581 0.0
H170 H 0.38736 0.93189 0.43891 0.0
Co171 Co 0.35058 0.98658 0.40447 0.0
C172 C 0.26618 0.03088 0.39195 0.0
O173 O 0.28835 0.05946 0.38125 0.0
N174 N 0.35721 0.98215 0.37594 0.0
C175 C 0.37661 0.94732 0.34782 0.0
C176 C 0.36944 0.94308 0.36811 0.0
C177 C 0.35642 0.00961 0.35975 0.0
N178 N 0.36843 0.98926 0.34255 0.0
O179 O 0.41452 0.97125 0.4074 0.0
H180 H 0.37418 0.91343 0.37684 0.0
H181 H 0.35047 0.04459 0.36055 0.0
O182 O 0.28682 1.00084 0.40161 0.0
C183 C 0.44292 0.98945 0.419 0.0
O184 O 0.4294 0.01786 0.43252 0.0
N185 N 0.36775 0.04748 0.40387 0.0
C186 C 0.39576 0.13473 0.40044 0.0
C187 C 0.35975 0.12376 0.41257 0.0
C188 C 0.34638 0.07993 0.41412 0.0
C189 C 0.40395 0.05813 0.39259 0.0
C190 C 0.41846 0.10121 0.39074 0.0
H191 H 0.31737 0.0729 0.42263 0.0
H192 H 0.42194 0.03327 0.38446 0.0
H193 H 0.28525 0.0236 0.44117 0.0
H194 H 0.35717 0.9337 0.47565 0.0
H195 H 0.3874 0.9216 0.33773 0.0
H196 H 0.3406 0.14903 0.41996 0.0
H197 H 0.44654 0.10832 0.38131 0.0
C198 C 0.49612 0.39486 0.94889 0.0
C199 C 0.50103 0.38248 0.96861 0.0
N200 N 0.49172 0.33936 0.97022 0.0
N201 N 0.48211 0.36036 0.93781 0.0
C202 C 0.48139 0.32663 0.95139 0.0
H203 H 0.50594 0.42643 0.94297 0.0
Co204 Co 0.48275 0.35764 0.90887 0.0
C205 C 0.47238 0.25967 0.8995 0.0
O206 O 0.45143 0.27026 0.883 0.0
N207 N 0.49009 0.35456 0.88011 0.0
C208 C 0.52559 0.33258 0.85255 0.0
C209 C 0.52326 0.32954 0.87304 0.0
C210 C 0.47474 0.37496 0.86323 0.0
N211 N 0.49464 0.36092 0.84619 0.0
O212 O 0.47693 0.42394 0.90624 0.0
H213 H 0.54502 0.31025 0.88236 0.0
H214 H 0.45083 0.40089 0.86311 0.0
O215 O 0.48774 0.29046 0.91084 0.0
C216 C 0.45238 0.45338 0.91449 0.0
O217 O 0.42456 0.44173 0.92857 0.0
N218 N 0.42023 0.35141 0.90745 0.0
C219 C 0.3504 0.30692 0.89111 0.0
C220 C 0.3644 0.29687 0.9106 0.0
C221 C 0.4002 0.31912 0.91836 0.0
C222 C 0.39685 0.37087 0.89244 0.0
C223 C 0.36329 0.34749 0.88297 0.0
H224 H 0.4146 0.30572 0.93161 0.0
H225 H 0.40647 0.40232 0.88658 0.0
H226 H 0.47683 0.29245 0.94745 0.0
H227 H 0.51263 0.40329 0.98064 0.0
H228 H 0.54924 0.31581 0.84318 0.0
H229 H 0.35175 0.26872 0.91874 0.0
H230 H 0.35057 0.35941 0.86884 0.0
C231 C 0.1544 0.44744 0.44054 0.0
C232 C 0.16731 0.44615 0.46026 0.0
N233 N 0.1877 0.48427 0.4648 0.0
N234 N 0.16632 0.48616 0.43234 0.0
C235 C 0.18579 0.50843 0.44764 0.0
H236 H 0.13871 0.42101 0.43241 0.0
Co237 Co 0.15916 0.49708 0.40446 0.0
C238 C 0.23677 0.55141 0.3933 0.0
O239 O 0.23325 0.53226 0.37574 0.0
N240 N 0.1481 0.5081 0.37649 0.0
C241 C 0.13217 0.54561 0.34853 0.0
C242 C 0.1475 0.54849 0.36787 0.0
C243 C 0.12888 0.48204 0.36242 0.0
N244 N 0.12036 0.5037 0.34509 0.0
O245 O 0.10487 0.53073 0.41001 0.0
H246 H 0.1565 0.57869 0.37538 0.0
H247 H 0.1189 0.44841 0.36509 0.0
O248 O 0.20421 0.54778 0.40583 0.0
C249 C 0.07369 0.5023 0.40813 0.0
O250 O 0.08526 0.46129 0.40474 0.0
N251 N 0.20847 0.45954 0.39926 0.0
C252 C 0.28318 0.40921 0.39147 0.0
C253 C 0.28331 0.44051 0.4067 0.0
C254 C 0.24553 0.46426 0.41069 0.0
C255 C 0.20705 0.42701 0.3852 0.0
C256 C 0.24431 0.40201 0.38078 0.0
H257 H 0.24731 0.48815 0.42254 0.0
H258 H 0.17708 0.41914 0.37766 0.0
H259 H 0.20086 0.54046 0.44585 0.0
H260 H 0.16264 0.41864 0.47035 0.0
H261 H 0.12793 0.57269 0.33815 0.0
H262 H 0.31241 0.44659 0.41558 0.0
H263 H 0.24218 0.37616 0.36965 0.0
C264 C 0.0986 0.6597 0.93571 0.0
C265 C 0.10449 0.67106 0.95545 0.0
N266 N 0.0671 0.68897 0.96238 0.0
N267 N 0.05719 0.6689 0.92992 0.0
C268 C 0.03903 0.68781 0.94659 0.0
H269 H 0.1234 0.64596 0.92594 0.0
Co270 Co 0.04306 0.6612 0.90208 0.0
C271 C 0.99892 0.74542 0.8901 0.0
O272 O 0.97356 0.7228 0.87798 0.0
N273 N 0.03365 0.65566 0.87363 0.0
C274 C 0.04626 0.67368 0.84157 0.0
C275 C 0.05594 0.68296 0.86127 0.0
C276 C 0.0115 0.62888 0.8607 0.0
N277 N 0.01834 0.63947 0.84115 0.0
O278 O 0.0615 0.59766 0.90295 0.0
H279 H 0.07828 0.70825 0.86635 0.0
H280 H 0.99095 0.6018 0.86515 0.0
O281 O 0.02748 0.72502 0.90075 0.0
C282 C 0.06037 0.56866 0.91698 0.0
O283 O 0.04611 0.57967 0.93486 0.0
N284 N 0.9832 0.64469 0.90811 0.0
C285 C 0.89431 0.62334 0.9116 0.0
C286 C 0.91004 0.66385 0.91851 0.0
C287 C 0.9545 0.67374 0.91672 0.0
C288 C 0.96819 0.60373 0.90293 0.0
C289 C 0.9242 0.59244 0.90451 0.0
H290 H 0.96475 0.70604 0.9213 0.0
H291 H 0.98907 0.57968 0.89621 0.0
H292 H 0.0064 0.70122 0.94737 0.0
H293 H 0.13457 0.6676 0.96391 0.0
H294 H 0.05995 0.68993 0.82854 0.0
H295 H 0.88785 0.689 0.92396 0.0
H296 H 0.91335 0.56058 0.89916 0.0
C297 C 0.85467 0.0818 0.4382 0.0
C298 C 0.83857 0.08363 0.45748 0.0
N299 N 0.81505 0.04696 0.46103 0.0
N300 N 0.84203 0.044 0.42929 0.0
C301 C 0.81751 0.02359 0.44372 0.0
H302 H 0.87357 0.10729 0.43086 0.0
Co303 Co 0.85352 0.03538 0.4011 0.0
C304 C 0.75934 0.04795 0.40191 0.0
O305 O 0.76776 0.08641 0.41003 0.0
N306 N 0.86486 0.03024 0.37325 0.0
C307 C 0.88804 0.05675 0.34398 0.0
C308 C 0.87758 0.06687 0.36345 0.0
C309 C 0.86713 0.99792 0.35911 0.0
N310 N 0.88174 0.01333 0.34111 0.0
O311 O 0.91635 0.04976 0.40498 0.0
H312 H 0.88014 0.09902 0.3703 0.0
H313 H 0.85985 0.96365 0.36209 0.0
O314 O 0.79127 0.02356 0.39642 0.0
C315 C 0.94614 0.04139 0.41799 0.0
O316 O 0.9359 0.01958 0.43436 0.0
N317 N 0.86514 0.97416 0.40498 0.0
C318 C 0.88532 0.88987 0.41869 0.0
C319 C 0.84214 0.90558 0.41911 0.0
C320 C 0.83272 0.94732 0.41204 0.0
C321 C 0.90592 0.95672 0.40152 0.0
C322 C 0.91714 0.91502 0.4088 0.0
H323 H 0.79915 0.95792 0.41302 0.0
H324 H 0.93057 0.97522 0.39351 0.0
H325 H 0.79942 0.99356 0.44153 0.0
H326 H 0.84355 0.11023 0.46801 0.0
H327 H 0.8996 0.07975 0.33274 0.0
H328 H 0.81539 0.88581 0.42491 0.0
H329 H 0.95031 0.90295 0.40691 0.0
C330 C 0.54785 0.85155 0.94142 0.0
C331 C 0.54554 0.83519 0.96068 0.0
N332 N 0.50935 0.8099 0.96238 0.0
N333 N 0.5134 0.83689 0.93073 0.0
C334 C 0.4902 0.81197 0.94398 0.0
H335 H 0.57371 0.87205 0.93539 0.0
Co336 Co 0.50754 0.84771 0.90278 0.0
C337 C 0.45375 0.77368 0.88653 0.0
O338 O 0.47478 0.7813 0.86971 0.0
N339 N 0.50164 0.86111 0.8743 0.0
C340 C 0.46801 0.88782 0.84701 0.0
C341 C 0.46324 0.87644 0.86686 0.0
C342 C 0.52925 0.86329 0.85816 0.0
N343 N 0.50953 0.87945 0.84147 0.0
O344 O 0.47023 0.89971 0.90863 0.0
H345 H 0.4333 0.87955 0.87544 0.0
H346 H 0.56344 0.85451 0.85839 0.0
O347 O 0.45825 0.8015 0.90109 0.0
C348 C 0.49341 0.93464 0.90566 0.0
O349 O 0.53432 0.92947 0.8999 0.0
N350 N 0.54814 0.80212 0.89818 0.0
C351 C 0.61241 0.73807 0.89443 0.0
C352 C 0.57276 0.72803 0.90366 0.0
C353 C 0.54158 0.76084 0.90585 0.0
C354 C 0.58827 0.81321 0.89073 0.0
C355 C 0.62067 0.78122 0.88811 0.0
H356 H 0.51318 0.75333 0.9147 0.0
H357 H 0.59583 0.84728 0.88759 0.0
H358 H 0.4608 0.79418 0.93995 0.0
H359 H 0.56902 0.84147 0.97247 0.0
H360 H 0.44273 0.90098 0.83733 0.0
H361 H 0.56675 0.69564 0.90993 0.0
H362 H 0.65247 0.79045 0.88219 0.0
C363 C 0.62998 0.51308 0.44641 0.0
C364 C 0.64793 0.51234 0.46537 0.0
N365 N 0.69055 0.52364 0.46406 0.0
N366 N 0.66077 0.52537 0.43296 0.0
C367 C 0.69748 0.53122 0.44426 0.0
H368 H 0.5966 0.50434 0.44272 0.0
Co369 Co 0.65284 0.52936 0.40446 0.0
C370 C 0.74701 0.49206 0.4023 0.0
O371 O 0.73449 0.45105 0.40481 0.0
N372 N 0.64443 0.52868 0.37609 0.0
C373 C 0.64601 0.49872 0.34563 0.0
C374 C 0.65818 0.49377 0.36534 0.0
C375 C 0.62329 0.55447 0.36241 0.0
N376 N 0.62417 0.53701 0.34365 0.0
O377 O 0.587 0.53717 0.4079 0.0
H378 H 0.67562 0.46594 0.37157 0.0
H379 H 0.60742 0.58527 0.36609 0.0
O380 O 0.71788 0.52243 0.4012 0.0
C381 C 0.56064 0.5702 0.40651 0.0
O382 O 0.57614 0.60931 0.40209 0.0
N383 N 0.66464 0.59117 0.40482 0.0
C384 C 0.72609 0.65562 0.4136 0.0
C385 C 0.69307 0.64516 0.42752 0.0
C386 C 0.66113 0.61412 0.42238 0.0
C387 C 0.69117 0.60729 0.38998 0.0
C388 C 0.72098 0.64061 0.39391 0.0
H389 H 0.63788 0.60406 0.43374 0.0
H390 H 0.69505 0.59054 0.37589 0.0
H391 H 0.72871 0.54144 0.43815 0.0
H392 H 0.63116 0.50268 0.47899 0.0
H393 H 0.65314 0.47598 0.33357 0.0
H394 H 0.6939 0.65729 0.44274 0.0
H395 H 0.74316 0.65049 0.38205 0.0
C396 C 0.97426 0.89851 0.10637 0.0
C397 C 0.98002 0.8819 0.08733 0.0
N398 N 0.01449 0.85405 0.08741 0.0
N399 N 1.00476 0.8815 0.11873 0.0
C400 C 0.02947 0.85526 0.10663 0.0
H401 H 0.94775 0.91966 0.11119 0.0
Co402 Co 1.00143 0.88926 0.14711 0.0
C403 C 0.04438 0.81046 0.16566 0.0
O404 O 0.01592 0.81707 0.18012 0.0
N405 N 0.99825 0.89989 0.17579 0.0
C406 C 0.02608 0.9189 0.20557 0.0
C407 C 0.03551 0.90894 0.18597 0.0
C408 C 0.96622 0.90513 0.18997 0.0
N409 N 0.98243 0.91658 0.20822 0.0
O410 O 0.0426 0.93997 0.1452 0.0
H411 H 0.06802 0.90836 0.17947 0.0
H412 H 0.9316 0.90218 0.18712 0.0
O413 O 0.0478 0.84009 0.15166 0.0
C414 C 0.02069 0.97634 0.14483 0.0
O415 O 0.97769 0.97342 0.14514 0.0
N416 N 0.95794 0.84452 0.14775 0.0
C417 C 0.89508 0.77822 0.14507 0.0
C418 C 0.93752 0.77133 0.13816 0.0
C419 C 0.96753 0.80507 0.13894 0.0
C420 C 0.91578 0.85302 0.15344 0.0
C421 C 0.88381 0.81976 0.15274 0.0
H422 H 0.99845 0.79916 0.13193 0.0
H423 H 0.90627 0.88595 0.15764 0.0
H424 H 0.05629 0.83536 0.11214 0.0
H425 H 0.95849 0.88791 0.07475 0.0
H426 H 0.04976 0.92697 0.21707 0.0
H427 H 0.94753 0.74017 0.13177 0.0
H428 H 0.85051 0.82689 0.15738 0.0
C429 C 0.61256 0.0682 0.61253 0.0
C430 C 0.62822 0.07188 0.59319 0.0
N431 N 0.65539 0.03782 0.58947 0.0
N432 N 0.62941 0.03185 0.6212 0.0
C433 C 0.65547 0.01404 0.60673 0.0
H434 H 0.59121 0.0914 0.61999 0.0
Co435 Co 0.62294 0.01675 0.6488 0.0
C436 C 0.71983 0.02222 0.66001 0.0
O437 O 0.71405 0.04911 0.67517 0.0
N438 N 0.61698 1.00486 0.67676 0.0
C439 C 0.61172 0.0265 0.70861 0.0
C440 C 0.62169 0.03916 0.68938 0.0
C441 C 0.60346 0.97129 0.68891 0.0
N442 N 0.60031 0.98375 0.70844 0.0
O443 O 0.55926 0.02337 0.64748 0.0
H444 H 0.63082 0.07202 0.68471 0.0
H445 H 0.59429 0.93897 0.68358 0.0
O446 O 0.68687 0.00928 0.64979 0.0
C447 C 0.53705 0.05647 0.65341 0.0
O448 O 0.55795 0.09136 0.66002 0.0
N449 N 0.61697 0.95699 0.64186 0.0
C450 C 0.62799 0.87616 0.62346 0.0
C451 C 0.65046 0.88592 0.64116 0.0
C452 C 0.64491 0.92686 0.65002 0.0
C453 C 0.5906 0.94557 0.62609 0.0
C454 C 0.5965 0.90546 0.61626 0.0
H455 H 0.66559 0.9355 0.66255 0.0
H456 H 0.56833 0.96933 0.61962 0.0
H457 H 0.67516 0.98485 0.60903 0.0
H458 H 0.6203 0.09793 0.58272 0.0
H459 H 0.61273 0.04725 0.72179 0.0
H460 H 0.67534 0.86382 0.64696 0.0
H461 H 0.579 0.8988 0.60248 0.0
C462 C 0.45424 0.58607 0.10851 0.0
C463 C 0.44731 0.60095 0.08938 0.0
N464 N 0.47055 0.63807 0.08661 0.0
N465 N 0.48301 0.61238 0.11816 0.0
C466 C 0.49149 0.64474 0.10434 0.0
H467 H 0.43713 0.55868 0.11531 0.0
Co468 Co 0.49096 0.60407 0.14676 0.0
C469 C 0.46489 0.69893 0.14674 0.0
O470 O 0.42581 0.68625 0.14081 0.0
N471 N 0.49417 0.5958 0.17503 0.0
C472 C 0.47488 0.56408 0.20383 0.0
C473 C 0.46492 0.56877 0.18388 0.0
C474 C 0.52123 0.60831 0.19027 0.0
N475 N 0.51043 0.5887 0.20796 0.0
O476 O 0.48918 0.53671 0.14335 0.0
H477 H 0.43841 0.55246 0.1761 0.0
H478 H 0.54935 0.62962 0.18825 0.0
O479 O 0.49389 0.66942 0.15041 0.0
C480 C 0.50953 0.51253 0.13043 0.0
O481 O 0.53282 0.53195 0.11639 0.0
N482 N 0.55285 0.60186 0.14492 0.0
C483 C 0.64368 0.59924 0.14379 0.0
C484 C 0.62096 0.63331 0.13436 0.0
C485 C 0.57556 0.63439 0.13538 0.0
C486 C 0.5751 0.56857 0.15442 0.0
C487 C 0.62072 0.56669 0.15405 0.0
H488 H 0.55922 0.66249 0.12918 0.0
H489 H 0.55775 0.54364 0.16284 0.0
H490 H 0.50901 0.67477 0.10753 0.0
H491 H 0.42526 0.5864 0.07855 0.0
H492 H 0.45734 0.54378 0.21451 0.0
H493 H 0.63835 0.65993 0.12698 0.0
H494 H 0.63781 0.54075 0.16201 0.0
C495 C 0.87574 0.47013 0.61799 0.0
C496 C 0.86657 0.46463 0.59797 0.0
N497 N 0.85145 0.50298 0.59072 0.0
N498 N 0.86785 0.51215 0.62355 0.0
C499 C 0.85225 0.53121 0.60641 0.0
H500 H 0.88733 0.44479 0.62809 0.0
Co501 Co 0.87375 0.52469 0.65167 0.0
C502 C 0.7752 0.54113 0.64468 0.0
O503 O 0.78503 0.57004 0.63081 0.0
N504 N 0.87851 0.53162 0.68006 0.0
C505 C 0.86219 0.51568 0.71179 0.0
C506 C 0.85006 0.51039 0.6922 0.0
C507 C 0.90842 0.54944 0.69294 0.0
N508 N 0.89897 0.54003 0.71244 0.0
O509 O 0.94081 0.52867 0.64976 0.0
H510 H 0.82311 0.49016 0.68716 0.0
H511 H 0.9377 0.56661 0.68812 0.0
O512 O 0.80636 0.52089 0.65403 0.0
C513 C 0.96908 0.52644 0.63539 0.0
O514 O 0.95541 0.51863 0.6171 0.0
N515 N 0.8701 0.58646 0.64797 0.0
C516 C 0.837 0.66588 0.63476 0.0
C517 C 0.87179 0.64605 0.62448 0.0
C518 C 0.88896 0.60659 0.6318 0.0
C519 C 0.84318 0.61015 0.66028 0.0
C520 C 0.82662 0.65049 0.65402 0.0
H521 H 0.91268 0.58952 0.62273 0.0
H522 H 0.82956 0.5957 0.6737 0.0
H523 H 0.84132 0.56488 0.60516 0.0
H524 H 0.86969 0.43444 0.58947 0.0
H525 H 0.84616 0.50097 0.72465 0.0
H526 H 0.8821 0.6577 0.60988 0.0
H527 H 0.80173 0.66646 0.66306 0.0
H528 H 0.95208 0.23294 0.99107 0.0
H529 H 0.08974 0.21348 0.97767 0.0
H530 H 0.10957 0.25544 1.00827 0.0
H531 H 0.96337 0.34483 1.00968 0.0
H532 H 0.92166 0.33802 0.02859 0.0
H533 H 0.91892 0.30669 1.00573 0.0
H534 H 0.91606 0.2344 1.02633 0.0
H535 H 0.91899 0.26549 0.04925 0.0
H536 H 0.95874 0.22293 0.04427 0.0
H537 H 0.1136 0.29578 0.0421 0.0
H538 H 0.10187 0.33742 0.07359 0.0
H539 H 0.96156 0.33412 0.06363 0.0
C540 C 0.98642 0.23748 0.99457 0.0
C541 C 0.01945 0.21952 0.98202 0.0
C542 C 0.06397 0.22699 0.98699 0.0
C543 C 0.07546 0.25059 1.00441 0.0
C544 C 0.04203 0.26725 1.01661 0.0
C545 C 0.99839 0.26157 1.01168 0.0
C546 C 0.96864 0.28359 0.02696 0.0
C547 C 0.94156 0.32048 1.01715 0.0
C548 C 0.93886 0.24957 0.03731 0.0
C549 C 1.00221 0.30217 0.04145 0.0
C550 C 0.04439 0.29203 0.03535 0.0
C551 C 0.08069 0.30423 0.04682 0.0
C552 C 0.07375 0.32768 0.06476 0.0
C553 C 0.03089 0.33941 0.07104 0.0
C554 C 0.99476 0.32631 0.05912 0.0
H555 H 0.29329 0.92708 0.49456 0.0
H556 H 0.2716 0.06093 0.47425 0.0
H557 H 0.22939 0.07625 0.50534 0.0
H558 H 0.1872 0.91127 0.5176 0.0
H559 H 0.20897 0.87867 0.53786 0.0
H560 H 0.23601 0.87878 0.51386 0.0
H561 H 0.30857 0.90255 0.53088 0.0
H562 H 0.28171 0.90271 0.55492 0.0
H563 H 0.30944 0.95148 0.54614 0.0
H564 H 0.19222 0.07704 0.54054 0.0
H565 H 0.15992 0.06152 0.574 0.0
H566 H 0.20697 0.92711 0.57025 0.0
C567 C 0.27987 0.95974 0.49657 0.0
C568 C 0.28627 0.99294 0.4819 0.0
C569 C 0.26708 0.03487 0.48514 0.0
C570 C 0.24326 0.04391 0.50285 0.0
C571 C 0.23846 0.01057 0.51718 0.0
C572 C 0.25595 0.96916 0.51403 0.0
C573 C 0.24634 0.9387 0.5315 0.0
C574 C 0.21794 0.89955 0.5248 0.0
C575 C 0.28906 0.92295 0.54145 0.0
C576 C 0.22096 0.96932 0.54517 0.0
C577 C 0.21677 0.01076 0.5368 0.0
C578 C 0.1952 0.04456 0.54708 0.0
C579 C 0.17715 0.03556 0.56617 0.0
C580 C 0.18039 0.99299 0.57482 0.0
C581 C 0.203 0.95979 0.56405 0.0
H582 H 0.42891 0.15023 0.04887 0.0
H583 H 0.53289 0.20137 0.08668 0.0
H584 H 0.55286 0.25415 0.06036 0.0
H585 H 0.48791 0.16257 1.00098 0.0
H586 H 0.43939 0.1788 0.98745 0.0
H587 H 0.43491 0.14244 1.00873 0.0
H588 H 0.37967 0.19596 1.02532 0.0
H589 H 0.38406 0.23252 1.00415 0.0
H590 H 0.39499 0.2527 0.02903 0.0
H591 H 0.55813 0.30602 0.03105 0.0
H592 H 0.55074 0.35023 1.00023 0.0
H593 H 0.4441 0.26627 0.98061 0.0
C594 C 0.45612 0.17219 0.05166 0.0
C595 C 0.47898 0.17124 0.07024 0.0
C596 C 0.51469 0.20067 0.07285 0.0
C597 C 0.52632 0.23114 0.05788 0.0
C598 C 0.5024 0.23184 0.0401 0.0
C599 C 0.46835 0.20281 0.03679 0.0
C600 C 0.44721 0.2114 1.01648 0.0
C601 C 0.45269 0.17142 1.00259 0.0
C602 C 0.3986 0.22389 1.0189 0.0
C603 C 0.47417 0.25033 1.00909 0.0
C604 C 0.50585 0.26148 1.02299 0.0
C605 C 0.53365 0.29733 1.02001 0.0
C606 C 0.52898 0.32251 1.00247 0.0
C607 C 0.49681 0.31195 0.98791 0.0
C608 C 0.46935 0.27495 0.99129 0.0
H609 H 0.22122 0.42549 0.49172 0.0
H610 H 0.20642 0.56539 0.48058 0.0
H611 H 0.24358 0.58115 0.51287 0.0
H612 H 0.20076 0.4285 0.54465 0.0
H613 H 0.24043 0.38617 0.55013 0.0
H614 H 0.21303 0.38685 0.52625 0.0
H615 H 0.28827 0.388 0.50814 0.0
H616 H 0.31589 0.38739 0.53196 0.0
H617 H 0.32739 0.43049 0.51412 0.0
H618 H 0.28203 0.58036 0.54794 0.0
H619 H 0.31962 0.56311 0.58002 0.0
H620 H 0.30732 0.42379 0.56708 0.0
C621 C 0.22516 0.45955 0.49603 0.0
C622 C 0.2102 0.49417 0.4835 0.0
C623 C 0.21751 0.5382 0.48976 0.0
C624 C 0.23847 0.54744 0.50818 0.0
C625 C 0.25232 0.51235 0.52022 0.0
C626 C 0.24601 0.46927 0.51423 0.0
C627 C 0.26411 0.43712 0.52952 0.0
C628 C 0.22739 0.40795 0.53815 0.0
C629 C 0.30111 0.40911 0.52039 0.0
C630 C 0.28166 0.4686 0.54517 0.0
C631 C 0.27455 0.51192 0.53972 0.0
C632 C 0.28779 0.54646 0.5522 0.0
C633 C 0.309 0.53638 0.57048 0.0
C634 C 0.31719 0.49209 0.57616 0.0
C635 C 0.30277 0.45806 0.56321 0.0
H636 H 0.99611 0.86242 0.04715 0.0
H637 H 0.06194 0.77771 0.09016 0.0
H638 H 0.08084 0.72642 0.06294 0.0
H639 H 0.9492 0.77485 1.01753 0.0
H640 H 0.95637 0.80312 0.99398 0.0
H641 H 0.94886 0.83419 1.01671 0.0
H642 H 0.02127 0.87611 1.00991 0.0
H643 H 0.02886 0.84526 0.98715 0.0
H644 H 0.07118 0.84546 1.00597 0.0
H645 H 0.09297 0.68373 0.03089 0.0
H646 H 0.09802 0.65351 0.99665 0.0
H647 H 0.02215 0.76345 0.97399 0.0
C648 C 0.0144 0.83311 0.05098 0.0
C649 C 0.02757 0.82475 0.07112 0.0
C650 C 0.0519 0.78583 0.07507 0.0
C651 C 0.06256 0.75609 0.05962 0.0
C652 C 0.04871 0.76526 0.04011 0.0
C653 C 0.02517 0.80285 0.03573 0.0
C654 C 0.01406 0.80473 1.01345 0.0
C655 C 0.96415 0.80419 1.01023 0.0
C656 C 0.03511 0.8453 1.00354 0.0
C657 C 0.03505 0.76231 1.00597 0.0
C658 C 0.05494 0.74018 1.02166 0.0
C659 C 0.07741 0.70081 1.01856 0.0
C660 C 0.08017 0.68388 0.999 0.0
C661 C 0.06042 0.70583 0.98255 0.0
C662 C 0.03705 0.74546 0.98622 0.0
H663 H 0.77727 0.10427 0.48752 0.0
H664 H 0.7982 0.96533 0.47625 0.0
H665 H 0.76014 0.94729 0.50808 0.0
H666 H 0.79336 0.10163 0.54075 0.0
H667 H 0.75094 0.14135 0.54597 0.0
H668 H 0.7796 0.14291 0.52237 0.0
H669 H 0.70568 0.13761 0.50345 0.0
H670 H 0.67675 0.13609 0.52699 0.0
H671 H 0.66881 0.09276 0.50892 0.0
H672 H 0.72158 0.94508 0.54259 0.0
H673 H 0.68193 0.95869 0.57444 0.0
H674 H 0.68486 0.09896 0.56245 0.0
C675 C 0.77408 0.07002 0.49175 0.0
C676 C 0.79116 0.03623 0.4793 0.0
C677 C 0.78532 0.99182 0.48536 0.0
C678 C 0.76391 0.98129 0.50352 0.0
C679 C 0.74789 0.01545 0.5155 0.0
C680 C 0.75235 0.05893 0.50969 0.0
C681 C 0.73149 0.08959 0.52495 0.0
C682 C 0.7659 0.1207 0.53405 0.0
C683 C 0.69342 0.11554 0.51551 0.0
C684 C 0.71488 0.05676 0.5404 0.0
C685 C 0.72485 0.01412 0.53479 0.0
C686 C 0.71351 0.9784 0.54699 0.0
C687 C 0.69116 0.98643 0.56517 0.0
C688 C 0.67985 0.02983 0.57107 0.0
C689 C 0.69223 0.06529 0.55838 0.0
H690 H 0.55938 0.784 0.99472 0.0
H691 H 0.42737 0.77839 0.97049 0.0
H692 H 0.40335 0.73665 1.00026 0.0
H693 H 0.56003 0.67545 1.01604 0.0
H694 H 0.59089 0.6909 0.03795 0.0
H695 H 0.59784 0.72102 1.0149 0.0
H696 H 0.57883 0.79356 0.03327 0.0
H697 H 0.57166 0.76364 0.05638 0.0
H698 H 0.52794 0.79775 0.04692 0.0
H699 H 0.39324 0.69514 0.03262 0.0
H700 H 0.39823 0.65407 0.06438 0.0
H701 H 0.5365 0.68596 0.06859 0.0
C702 C 0.52526 0.77455 0.99567 0.0
C703 C 0.49532 0.78504 0.97998 0.0
C704 C 0.45121 0.77082 0.98197 0.0
C705 C 0.43713 0.74722 0.99898 0.0
C706 C 0.46738 0.73779 1.01409 0.0
C707 C 0.51059 0.75085 1.01259 0.0
C708 C 0.53661 0.73547 0.03082 0.0
C709 C 0.57352 0.70383 1.02455 0.0
C710 C 0.55484 0.77496 0.04254 0.0
C711 C 0.5013 0.71158 0.0428 0.0
C712 C 0.46161 0.71356 0.03281 0.0
C713 C 0.42418 0.69339 0.04051 0.0
C714 C 0.42741 0.66993 0.05859 0.0
C715 C 0.46777 0.66643 0.06907 0.0
C716 C 0.5051 0.68832 0.06112 0.0
H717 H 0.67535 0.54041 0.50381 0.0
H718 H 0.7781 0.50728 0.46141 0.0
H719 H 0.8314 0.50297 0.48919 0.0
H720 H 0.74441 0.60784 0.53693 0.0
H721 H 0.71724 0.58931 0.55942 0.0
H722 H 0.68749 0.59189 0.53612 0.0
H723 H 0.66671 0.5096 0.53975 0.0
H724 H 0.69634 0.50681 0.56304 0.0
H725 H 0.70946 0.46921 0.54303 0.0
H726 H 0.87215 0.49509 0.52203 0.0
H727 H 0.8981 0.48917 0.55712 0.0
H728 H 0.77091 0.53147 0.57848 0.0
C729 C 0.70911 0.53245 0.50034 0.0
C730 C 0.72234 0.52412 0.48027 0.0
C731 C 0.76704 0.51426 0.47649 0.0
C732 C 0.79759 0.51153 0.49224 0.0
C733 C 0.78332 0.51937 0.51181 0.0
C734 C 0.74022 0.53018 0.5159 0.0
C735 C 0.73334 0.53656 0.53832 0.0
C736 C 0.71982 0.58424 0.54297 0.0
C737 C 0.69946 0.50358 0.54651 0.0
C738 C 0.77903 0.52669 0.54626 0.0
C739 C 0.80732 0.51671 0.53068 0.0
C740 C 0.85047 0.50362 0.53427 0.0
C741 C 0.86499 0.50034 0.55421 0.0
C742 C 0.83686 0.51071 0.57041 0.0
C743 C 0.79341 0.52453 0.56633 0.0
H744 H 0.016 0.24338 0.14662 0.0
H745 H 0.15836 0.23954 0.14586 0.0
H746 H 0.15653 0.15884 0.14509 0.0
H747 H 1.00136 0.14717 0.17839 0.0
H748 H 0.95382 0.12723 0.16519 0.0
H749 H 0.96575 0.18532 0.16559 0.0
H750 H 0.96511 0.18703 0.12681 0.0
H751 H 0.95317 0.12893 0.12632 0.0
H752 H 1.00026 0.15004 0.11308 0.0
H753 H 0.13999 0.07615 0.14469 0.0
H754 H 0.1089 1.00052 0.14444 0.0
H755 H 0.97793 0.05639 0.1452 0.0
C756 C 0.04677 0.22563 0.14628 0.0
C757 C 0.08734 0.24884 0.14633 0.0
C758 C 0.12665 0.22351 0.14585 0.0
C759 C 0.12609 0.17717 0.14541 0.0
C760 C 0.08591 0.15541 0.1454 0.0
C761 C 0.04688 0.17878 0.1458 0.0
C762 C 0.00823 0.14691 0.14569 0.0
C763 C 0.98066 0.15197 0.16486 0.0
C764 C 0.98003 0.15364 0.12685 0.0
C765 C 0.03163 0.10241 0.14522 0.0
C766 C 0.07649 0.10796 0.14507 0.0
C767 C 0.1048 0.07154 0.14476 0.0
C768 C 0.08689 0.02849 0.14462 0.0
C769 C 0.04092 0.02179 0.14475 0.0
C770 C 0.01327 0.05975 0.14504 0.0
H771 H 0.29729 0.9469 0.64716 0.0
H772 H 0.24395 0.07316 0.66546 0.0
H773 H 0.31893 0.10399 0.66652 0.0
H774 H 0.3948 0.95074 0.6778 0.0
H775 H 0.4292 0.92496 0.65922 0.0
H776 H 0.37141 0.91277 0.66003 0.0
H777 H 0.36414 0.93601 0.62282 0.0
H778 H 0.42188 0.94844 0.62193 0.0
H779 H 0.38231 0.98996 0.61516 0.0
H780 H 0.40015 0.1212 0.66563 0.0
H781 H 0.48085 0.12341 0.66322 0.0
H782 H 0.48198 0.98616 0.64513 0.0
C783 C 0.30129 0.98101 0.65148 0.0
C784 C 0.26443 0.00752 0.6563 0.0
C785 C 0.27142 0.05207 0.66175 0.0
C786 C 0.31399 0.06992 0.66237 0.0
C787 C 0.34947 0.04294 0.65745 0.0
C788 C 0.34358 0.99941 0.65213 0.0
C789 C 0.38729 0.97754 0.64746 0.0
C790 C 0.39619 0.93924 0.662 0.0
C791 C 0.38899 0.96208 0.62554 0.0
C792 C 0.41872 0.01552 0.65104 0.0
C793 C 0.39618 0.05294 0.65679 0.0
C794 C 0.41806 0.09208 0.66112 0.0
C795 C 0.46405 0.093 0.65968 0.0
C796 C 0.48808 0.05505 0.65392 0.0
C797 C 0.46478 0.01587 0.64946 0.0
H798 H 0.50209 0.45579 0.16359 0.0
H799 H 0.52114 0.45632 0.0992 0.0
H800 H 0.53162 0.37582 0.09962 0.0
H801 H 0.58392 0.37074 0.17403 0.0
H802 H 0.55241 0.34576 0.19389 0.0
H803 H 0.54649 0.40368 0.18861 0.0
H804 H 0.4637 0.39284 0.1847 0.0
H805 H 0.46765 0.33427 0.18877 0.0
H806 H 0.44345 0.35544 0.16607 0.0
H807 H 0.54281 0.29352 0.10711 0.0
H808 H 0.5439 0.21749 0.12073 0.0
H809 H 0.51673 0.26933 0.17994 0.0
C810 C 0.5079 0.43889 0.14956 0.0
C811 C 0.51048 0.46291 0.13132 0.0
C812 C 0.51891 0.43912 0.1134 0.0
C813 C 0.52519 0.39316 0.11347 0.0
C814 C 0.52358 0.3706 0.13166 0.0
C815 C 0.51495 0.39266 0.14939 0.0
C816 C 0.51456 0.36031 0.16684 0.0
C817 C 0.55155 0.37076 0.18172 0.0
C818 C 0.46968 0.36067 0.17727 0.0
C819 C 0.52307 0.31671 0.15611 0.0
C820 C 0.52906 0.32341 0.13586 0.0
C821 C 0.53782 0.28804 0.12298 0.0
C822 C 0.53869 0.24473 0.13084 0.0
C823 C 0.52987 0.2365 0.15136 0.0
C824 C 0.5235 0.27368 0.16414 0.0
H825 H 0.20841 0.52677 0.68706 0.0
H826 H 0.26119 0.57506 0.63073 0.0
H827 H 0.18543 0.58032 0.61737 0.0
H828 H 0.12808 0.45815 0.66523 0.0
H829 H 0.08784 0.46683 0.68463 0.0
H830 H 0.14538 0.47128 0.69032 0.0
H831 H 0.1331 0.55019 0.70398 0.0
H832 H 0.07544 0.54596 0.6984 0.0
H833 H 0.10715 0.59088 0.68827 0.0
H834 H 0.10349 0.57469 0.60943 0.0
H835 H 0.02413 0.56083 0.60744 0.0
H836 H 0.02379 0.51501 0.66904 0.0
C837 C 0.2044 0.53961 0.67203 0.0
C838 C 0.24155 0.55112 0.66008 0.0
C839 C 0.23386 0.56665 0.64036 0.0
C840 C 0.19074 0.56945 0.63262 0.0
C841 C 0.15529 0.55655 0.64469 0.0
C842 C 0.16177 0.54208 0.66404 0.0
C843 C 0.11863 0.52741 0.67357 0.0
C844 C 0.12008 0.47801 0.67874 0.0
C845 C 0.10796 0.55528 0.69216 0.0
C846 C 0.08634 0.53644 0.65669 0.0
C847 C 0.10836 0.55301 0.64013 0.0
C848 C 0.08616 0.56209 0.62239 0.0
C849 C 0.04078 0.55392 0.62142 0.0
C850 C 0.01706 0.53695 0.63809 0.0
C851 C 0.04045 0.52857 0.65609 0.0
H852 H 0.02442 0.5172 0.88693 0.0
H853 H 0.10963 0.51182 0.93879 0.0
H854 H 0.11184 0.43058 0.93629 0.0
H855 H 0.95869 0.42939 0.90267 0.0
H856 H 0.94803 0.4079 0.87799 0.0
H857 H 0.95995 0.46549 0.88121 0.0
H858 H 0.02399 0.45951 0.85588 0.0
H859 H 0.01218 0.40184 0.85248 0.0
H860 H 0.06639 0.41904 0.85985 0.0
H861 H 0.10062 0.34955 0.92968 0.0
H862 H 0.07263 0.27563 0.92141 0.0
H863 H 0.98739 0.33286 0.87632 0.0
C864 C 0.04452 0.49909 0.89742 0.0
C865 C 0.06771 0.52106 0.91285 0.0
C866 C 0.09241 0.49577 0.92663 0.0
C867 C 0.09375 0.44958 0.92534 0.0
C868 C 0.06937 0.42879 0.9104 0.0
C869 C 0.04492 0.45272 0.89677 0.0
C870 C 0.01728 0.42223 0.88384 0.0
C871 C 0.96808 0.43183 0.8866 0.0
C872 C 0.03078 0.42588 0.8617 0.0
C873 C 0.02958 0.37754 0.8925 0.0
C874 C 0.06041 0.38209 0.90751 0.0
C875 C 0.07651 0.34566 0.91792 0.0
C876 C 0.06031 0.30364 0.91312 0.0
C877 C 0.02748 0.29808 0.8983 0.0
C878 C 0.01239 0.33576 0.88775 0.0
H879 H 0.02016 1.0052 0.4357 0.0
H880 H 0.97877 0.09116 0.38723 0.0
H881 H 0.05545 0.0971 0.37579 0.0
H882 H 0.12528 0.05974 0.44574 0.0
H883 H 0.15391 0.00891 0.45059 0.0
H884 H 0.09604 0.01304 0.45578 0.0
H885 H 0.08161 0.94545 0.43314 0.0
H886 H 0.13937 0.9413 0.42776 0.0
H887 H 0.10051 0.94607 0.40753 0.0
H888 H 0.13551 0.09242 0.36882 0.0
H889 H 0.21484 0.07911 0.36699 0.0
H890 H 0.2069 0.99478 0.41949 0.0
C891 C 0.0273 0.02589 0.42288 0.0
C892 C 0.99316 0.04807 0.41248 0.0
C893 C 1.00408 0.07407 0.39555 0.0
C894 C 0.04764 0.07758 0.38889 0.0
C895 C 0.08025 0.05479 0.39924 0.0
C896 C 0.07082 0.02957 0.41593 0.0
C897 C 0.11222 0.00752 0.42389 0.0
C898 C 0.12246 0.02325 0.44527 0.0
C899 C 0.10817 0.95709 0.42302 0.0
C900 C 0.1463 0.02423 0.40902 0.0
C901 C 0.12689 0.05152 0.395 0.0
C902 C 0.15107 0.07122 0.37975 0.0
C903 C 0.19631 0.06336 0.37886 0.0
C904 C 0.21748 0.03583 0.39307 0.0
C905 C 0.19183 0.01571 0.4083 0.0
H906 H 0.4975 0.19012 0.87599 0.0
H907 H 0.44858 0.22065 0.93528 0.0
H908 H 0.44171 0.1407 0.9426 0.0
H909 H 0.4326 0.09374 0.86591 0.0
H910 H 0.47676 0.0649 0.85376 0.0
H911 H 0.4754 0.12421 0.85343 0.0
H912 H 0.55353 0.1256 0.86895 0.0
H913 H 0.55426 0.06633 0.86929 0.0
H914 H 0.56354 0.09664 0.89209 0.0
H915 H 0.43752 0.05426 0.94248 0.0
H916 H 0.44836 0.97384 0.9371 0.0
H917 H 0.50493 1.00127 0.8789 0.0
C918 C 0.48581 0.17995 0.89061 0.0
C919 C 0.4741 0.21187 0.90516 0.0
C920 C 0.45869 0.19705 0.92405 0.0
C921 C 0.45412 0.15154 0.92822 0.0
C922 C 0.4656 0.12086 0.91344 0.0
C923 C 0.48209 0.13471 0.89516 0.0
C924 C 0.49493 0.09557 0.88224 0.0
C925 C 0.46832 0.0946 0.86269 0.0
C926 C 0.5445 0.09607 0.8779 0.0
C927 C 0.48255 0.05739 0.89587 0.0
C928 C 0.46502 0.07234 0.91372 0.0
C929 C 0.4513 0.04251 0.92853 0.0
C930 C 0.45704 0.99671 0.92528 0.0
C931 C 0.4769 0.98098 0.90748 0.0
C932 C 0.4891 0.01207 0.89258 0.0
H933 H 0.49858 0.52327 0.38503 0.0
H934 H 0.5129 0.61181 0.43532 0.0
H935 H 0.43203 0.61553 0.43896 0.0
H936 H 0.40954 0.5791 0.36335 0.0
H937 H 0.38166 0.53051 0.35455 0.0
H938 H 0.44026 0.52991 0.3577 0.0
H939 H 0.43407 0.46232 0.38137 0.0
H940 H 0.37551 0.46255 0.37788 0.0
H941 H 0.39807 0.46496 0.40279 0.0
H942 H 0.34622 0.61032 0.43631 0.0
H943 H 0.26815 0.59988 0.42622 0.0
H944 H 0.31217 0.52099 0.3759 0.0
C945 C 0.48466 0.54225 0.3972 0.0
C946 C 0.51229 0.56617 0.41031 0.0
C947 C 0.49253 0.59235 0.42542 0.0
C948 C 0.44648 0.59477 0.42756 0.0
C949 C 0.41997 0.57142 0.41422 0.0
C950 C 0.43856 0.54571 0.39928 0.0
C951 C 0.40315 0.52674 0.38583 0.0
C952 C 0.40901 0.54252 0.36407 0.0
C953 C 0.40269 0.47615 0.38706 0.0
C954 C 0.36203 0.54623 0.39525 0.0
C955 C 0.37191 0.57119 0.41186 0.0
C956 C 0.33839 0.59106 0.42317 0.0
C957 C 0.29397 0.58519 0.41731 0.0
C958 C 0.28329 0.56059 0.39997 0.0
C959 C 0.31841 0.54111 0.38897 0.0
H960 H 0.03709 0.804 0.91692 0.0
H961 H 0.9438 0.79684 0.86793 0.0
H962 H 0.92976 0.87634 0.87098 0.0
H963 H 0.977 0.88482 0.94636 0.0
H964 H 0.02574 0.9131 0.95456 0.0
H965 H 0.02794 0.85519 0.94879 0.0
H966 H 0.09068 0.86972 0.92343 0.0
H967 H 0.08859 0.92762 0.92912 0.0
H968 H 0.08259 0.90928 0.9036 0.0
H969 H 0.92708 0.95762 0.8785 0.0
H970 H 0.93755 0.03452 0.88964 0.0
H971 H 0.0313 0.9896 0.93412 0.0
C972 C 0.01373 0.81915 0.90684 0.0
C973 C 0.99162 0.79382 0.89216 0.0
C974 C 0.96121 0.81518 0.87932 0.0
C975 C 0.95288 0.86049 0.88094 0.0
C976 C 0.97501 0.88443 0.89555 0.0
C977 C 0.00485 0.86458 0.90828 0.0
C978 C 0.02466 0.8982 0.92246 0.0
C979 C 0.01313 0.88718 0.94434 0.0
C980 C 0.07459 0.90139 0.91946 0.0
C981 C 1.00167 0.93998 0.91554 0.0
C982 C 0.97304 0.93127 0.90004 0.0
C983 C 0.94918 0.9648 0.89074 0.0
C984 C 0.95524 0.00845 0.89721 0.0
C985 C 0.98492 0.01839 0.91288 0.0
C986 C 0.00791 0.98333 0.92227 0.0
H987 H 0.68835 0.07973 0.42251 0.0
H988 H 0.72624 0.97765 0.38055 0.0
H989 H 0.64984 0.94952 0.38057 0.0
H990 H 0.61574 0.01228 0.45177 0.0
H991 H 0.57727 0.05623 0.45631 0.0
H992 H 0.63442 0.06857 0.4524 0.0
H993 H 0.61402 0.12131 0.42327 0.0
H994 H 0.55682 0.10933 0.42719 0.0
H995 H 0.58107 0.10113 0.40284 0.0
H996 H 0.56647 0.9345 0.38467 0.0
H997 H 0.4872 0.93294 0.39335 0.0
H998 H 0.50739 0.04225 0.43409 0.0
C999 C 0.68065 0.05165 0.41317 0.0
C1000 C 0.71334 0.03126 0.40132 0.0
C1001 C 0.70178 0.99405 0.38965 0.0
C1002 C 0.65842 0.97781 0.38959 0.0
C1003 C 0.627 0.99872 0.40152 0.0
C1004 C 0.63786 0.03469 0.41319 0.0
C1005 C 0.59872 0.05088 0.42507 0.0
C1006 C 0.60705 0.04672 0.44772 0.0
C1007 C 0.58697 0.09848 0.41924 0.0
C1008 C 0.56387 0.01878 0.41817 0.0
C1009 C 0.58046 0.98899 0.4045 0.0
C1010 C 0.5534 0.95745 0.39554 0.0
C1011 C 0.50839 0.9567 0.40058 0.0
C1012 C 0.4909 0.98697 0.41463 0.0
C1013 C 0.51949 0.01801 0.42357 0.0
H1014 H 0.45334 0.53079 0.93665 0.0
H1015 H 0.4488 0.48175 0.87572 0.0
H1016 H 0.43881 0.55787 0.86324 0.0
H1017 H 0.37626 0.62061 0.93185 0.0
H1018 H 0.40736 0.65901 0.94673 0.0
H1019 H 0.41209 0.6007 0.95133 0.0
H1020 H 0.49613 0.60526 0.94643 0.0
H1021 H 0.49171 0.66363 0.94202 0.0
H1022 H 0.5179 0.62885 0.9237 0.0
H1023 H 0.42524 0.63844 0.85741 0.0
H1024 H 0.427 0.71915 0.85708 0.0
H1025 H 0.44658 0.72016 0.92152 0.0
C1026 C 0.45047 0.53624 0.92067 0.0
C1027 C 0.45168 0.50004 0.90712 0.0
C1028 C 0.44826 0.50867 0.88635 0.0
C1029 C 0.44211 0.55188 0.87916 0.0
C1030 C 0.44035 0.58666 0.89286 0.0
C1031 C 0.44576 0.57962 0.91314 0.0
C1032 C 0.44619 0.62357 0.92436 0.0
C1033 C 0.4082 0.6261 0.93946 0.0
C1034 C 0.49062 0.63075 0.93474 0.0
C1035 C 0.43967 0.65634 0.90723 0.0
C1036 C 0.43552 0.63391 0.8893 0.0
C1037 C 0.42913 0.65623 0.87133 0.0
C1038 C 0.42983 0.70243 0.87137 0.0
C1039 C 0.43789 0.72687 0.88915 0.0
C1040 C 0.44072 0.70315 0.90755 0.0
H1041 H 0.81921 0.43759 0.39685 0.0
H1042 H 0.78442 0.57237 0.41068 0.0
H1043 H 0.86338 0.59116 0.41382 0.0
H1044 H 0.90978 0.42951 0.43082 0.0
H1045 H 0.9427 0.39613 0.41431 0.0
H1046 H 0.88379 0.39391 0.4128 0.0
H1047 H 0.88754 0.4137 0.37506 0.0
H1048 H 0.94649 0.41582 0.37646 0.0
H1049 H 0.91632 0.46269 0.36727 0.0
H1050 H 0.94918 0.59514 0.41528 0.0
H1051 H 0.02992 0.58211 0.41551 0.0
H1052 H 0.00642 0.44495 0.40098 0.0
C1053 C 0.82806 0.47124 0.40035 0.0
C1054 C 0.79511 0.50368 0.40317 0.0
C1055 C 0.8087 0.54713 0.40793 0.0
C1056 C 0.85359 0.5581 0.40985 0.0
C1057 C 0.88519 0.52546 0.40684 0.0
C1058 C 0.87279 0.48285 0.40215 0.0
C1059 C 0.91283 0.45354 0.39985 0.0
C1060 C 0.91223 0.41607 0.41537 0.0
C1061 C 0.91597 0.43537 0.37839 0.0
C1062 C 0.94965 0.48602 0.40408 0.0
C1063 C 0.93341 0.52751 0.40803 0.0
C1064 C 0.96199 0.5626 0.41221 0.0
C1065 C 0.00797 0.55499 0.41233 0.0
C1066 C 0.02521 0.51252 0.40838 0.0
C1067 C 0.99503 0.47795 0.40421 0.0
H1068 H 0.05748 0.75558 0.13139 0.0
H1069 H 0.06403 0.75636 0.19635 0.0
H1070 H 0.06226 0.67553 0.19671 0.0
H1071 H 0.98139 0.66785 0.12706 0.0
H1072 H 0.00633 0.64364 0.10523 0.0
H1073 H 0.01269 0.70167 0.10998 0.0
H1074 H 0.09722 0.6918 0.10833 0.0
H1075 H 0.09031 0.63368 0.1039 0.0
H1076 H 0.12337 0.65228 0.12459 0.0
H1077 H 0.04714 0.59472 0.19086 0.0
H1078 H 0.03621 0.51877 0.17851 0.0
H1079 H 0.04181 0.56699 0.11733 0.0
C1080 C 0.05953 0.73896 0.14568 0.0
C1081 C 0.06006 0.76333 0.16394 0.0
C1082 C 0.06346 0.73917 0.18214 0.0
C1083 C 0.06195 0.69292 0.18255 0.0
C1084 C 0.05773 0.67016 0.16457 0.0
C1085 C 0.05794 0.69214 0.14638 0.0
C1086 C 0.05254 0.65909 0.1293 0.0
C1087 C 0.01076 0.6687 0.11718 0.0
C1088 C 0.0933 0.65922 0.11573 0.0
C1089 C 0.04837 0.61565 0.1408 0.0
C1090 C 0.051 0.62299 0.16116 0.0
C1091 C 0.04576 0.58854 0.17491 0.0
C1092 C 0.03903 0.54535 0.16775 0.0
C1093 C 0.03804 0.53632 0.14693 0.0
C1094 C 0.04245 0.57242 0.13336 0.0
H1095 H 0.79787 0.03424 0.68058 0.0
H1096 H 0.74428 0.97695 0.62631 0.0
H1097 H 0.81865 0.95573 0.6156 0.0
H1098 H 0.8946 0.07846 0.65895 0.0
H1099 H 0.92959 0.06586 0.67993 0.0
H1100 H 0.87188 0.07501 0.68386 0.0
H1101 H 0.86535 0.99886 0.70114 0.0
H1102 H 0.9231 0.98947 0.69721 0.0
H1103 H 0.88355 0.95026 0.68806 0.0
H1104 H 0.89946 0.94771 0.60897 0.0
H1105 H 0.98053 0.94993 0.60793 0.0
H1106 H 0.98247 1.00533 0.66774 0.0
C1107 C 0.8017 0.01692 0.66651 0.0
C1108 C 0.7649 0.00763 0.65424 0.0
C1109 C 0.77163 0.98473 0.63598 0.0
C1110 C 0.8139 0.97239 0.62976 0.0
C1111 C 0.84939 0.98241 0.64208 0.0
C1112 C 0.84377 1.00369 0.6602 0.0
C1113 C 0.8877 0.01109 0.67043 0.0
C1114 C 0.89644 0.06054 0.67347 0.0
C1115 C 0.89005 0.98591 0.69039 0.0
C1116 C 0.91888 0.99152 0.65504 0.0
C1117 C 0.89602 0.97536 0.63876 0.0
C1118 C 0.91764 0.95937 0.62183 0.0
C1119 C 0.96369 0.96066 0.62137 0.0
C1120 C 0.98788 0.97695 0.63786 0.0
C1121 C 0.96504 0.99166 0.65509 0.0
H1122 H 0.40882 0.76936 0.14146 0.0
H1123 H 0.54523 0.7393 0.15358 0.0
H1124 H 0.56235 0.81923 0.15347 0.0
H1125 H 0.42754 0.86022 0.10816 0.0
H1126 H 0.38128 0.8914 0.11719 0.0
H1127 H 0.38042 0.83217 0.11838 0.0
H1128 H 0.36551 0.83558 0.15657 0.0
H1129 H 0.36605 0.89482 0.15547 0.0
H1130 H 0.4022 0.86631 0.17244 0.0
H1131 H 0.56373 0.90623 0.15153 0.0
H1132 H 0.54812 0.98664 0.14941 0.0
H1133 H 0.41104 0.95705 0.13875 0.0
C1134 C 0.44238 0.77936 0.14417 0.0
C1135 C 0.47558 0.74745 0.14758 0.0
C1136 C 0.51898 0.76266 0.15102 0.0
C1137 C 0.52907 0.80822 0.15092 0.0
C1138 C 0.49548 0.83872 0.14739 0.0
C1139 C 0.45293 0.82458 0.14418 0.0
C1140 C 0.42237 0.8634 0.14091 0.0
C1141 C 0.4017 0.86168 0.11991 0.0
C1142 C 0.38695 0.86512 0.15733 0.0
C1143 C 0.45408 0.90176 0.14273 0.0
C1144 C 0.49625 0.88728 0.14641 0.0
C1145 C 0.53069 0.91757 0.14865 0.0
C1146 C 0.52162 0.96336 0.14734 0.0
C1147 C 0.47837 0.97879 0.14388 0.0
C1148 C 0.44458 0.94699 0.14143 0.0
H1149 H 0.52744 0.45049 0.64288 0.0
H1150 H 0.48446 0.58128 0.65998 0.0
H1151 H 0.5624 0.60483 0.66226 0.0
H1152 H 0.62129 0.44378 0.67478 0.0
H1153 H 0.65486 0.41505 0.65679 0.0
H1154 H 0.59611 0.40884 0.65625 0.0
H1155 H 0.59451 0.4339 0.61916 0.0
H1156 H 0.65331 0.43947 0.61949 0.0
H1157 H 0.61954 0.4855 0.61223 0.0
H1158 H 0.64663 0.61316 0.66329 0.0
H1159 H 0.72725 0.60785 0.66009 0.0
H1160 H 0.71556 0.47179 0.64165 0.0
C1161 C 0.53419 0.48427 0.64703 0.0
C1162 C 0.49929 0.51404 0.65127 0.0
C1163 C 0.51016 0.55787 0.65653 0.0
C1164 C 0.55451 0.57139 0.65799 0.0
C1165 C 0.58794 0.54085 0.65405 0.0
C1166 C 0.57813 0.4983 0.64842 0.0
C1167 C 0.61985 0.47192 0.64452 0.0
C1168 C 0.62321 0.43257 0.65895 0.0
C1169 C 0.62192 0.45682 0.62255 0.0
C1170 C 0.65504 0.50605 0.64896 0.0
C1171 C 0.63588 0.54558 0.65454 0.0
C1172 C 0.66162 0.58226 0.659 0.0
C1173 C 0.70756 0.57888 0.65723 0.0
C1174 C 0.72807 0.53923 0.65102 0.0
C1175 C 0.7012 0.50214 0.64706 0.0
H1176 H 0.14116 0.52608 0.30685 0.0
H1177 H 0.05533 0.44271 0.34208 0.0
H1178 H 0.02143 0.41452 0.31087 0.0
H1179 H 0.06423 0.55252 0.26663 0.0
H1180 H 0.10549 0.54951 0.24732 0.0
H1181 H 0.12049 0.56561 0.27238 0.0
H1182 H 0.17823 0.50305 0.27378 0.0
H1183 H 0.16384 0.48727 0.24866 0.0
H1184 H 0.16152 0.44727 0.26861 0.0
H1185 H 0.99885 0.39337 0.27536 0.0
H1186 H 0.99584 0.37509 0.23913 0.0
H1187 H 0.09756 0.47052 0.22714 0.0
C1188 C 0.11481 0.50232 0.30797 0.0
C1189 C 0.10063 0.48683 0.32692 0.0
C1190 C 0.06682 0.4549 0.32776 0.0
C1191 C 0.04714 0.43903 0.3101 0.0
C1192 C 0.06181 0.45512 0.29164 0.0
C1193 C 0.09531 0.4857 0.29048 0.0
C1194 C 0.10757 0.4951 0.26884 0.0
C1195 C 0.09892 0.54357 0.26348 0.0
C1196 C 0.15563 0.4824 0.26473 0.0
C1197 C 0.07606 0.46481 0.25793 0.0
C1198 C 0.0494 0.44252 0.27132 0.0
C1199 C 0.01914 0.41114 0.26478 0.0
C1200 C 0.0172 0.40127 0.24419 0.0
C1201 C 0.0453 0.42255 0.23037 0.0
C1202 C 0.07454 0.45518 0.23735 0.0
H1203 H 0.03587 0.01096 0.74155 0.0
H1204 H 0.14732 0.09347 0.72689 0.0
H1205 H 0.13624 0.13485 0.75863 0.0
H1206 H 0.96929 0.09594 0.76362 0.0
H1207 H 0.94673 0.0598 0.78244 0.0
H1208 H 0.96378 0.03789 0.75861 0.0
H1209 H 0.01488 0.98249 0.77673 0.0
H1210 H 0.99804 1.00428 0.8006 0.0
H1211 H 0.0554 1.0027 0.79408 0.0
H1212 H 0.11361 0.16472 0.79395 0.0
H1213 H 0.079 0.18278 0.82667 0.0
H1214 H 0.98256 0.0803 0.81677 0.0
C1215 C 0.05822 0.03756 0.74499 0.0
C1216 C 0.09286 0.04855 0.73173 0.0
C1217 C 0.12053 0.08442 0.73672 0.0
C1218 C 0.11456 0.10794 0.7548 0.0
C1219 C 0.08042 0.0956 0.76768 0.0
C1220 C 0.05251 0.06142 0.76277 0.0
C1221 C 0.01796 0.05447 0.7788 0.0
C1222 C 0.97171 0.06252 0.77036 0.0
C1223 C 0.02182 0.00825 0.7881 0.0
C1224 C 0.0307 0.08984 0.79367 0.0
C1225 C 0.06694 0.11322 0.78719 0.0
C1226 C 0.08499 0.14673 0.79897 0.0
C1227 C 0.06526 0.15669 0.81761 0.0
C1228 C 0.02756 0.13355 0.82429 0.0
C1229 C 0.01056 0.09954 0.81204 0.0
H1230 H 0.43256 0.97129 0.31532 0.0
H1231 H 0.31697 0.05132 0.32515 0.0
H1232 H 0.32478 0.08272 0.29099 0.0
H1233 H 0.49327 0.05444 0.28832 0.0
H1234 H 0.51899 0.01566 0.2716 0.0
H1235 H 0.50309 0.99866 0.29643 0.0
H1236 H 0.45691 0.93528 0.28134 0.0
H1237 H 0.47251 0.95222 0.25645 0.0
H1238 H 0.41532 0.94774 0.26301 0.0
H1239 H 0.34429 0.10323 0.25481 0.0
H1240 H 0.37827 0.11737 0.22165 0.0
H1241 H 0.48366 0.02728 0.23633 0.0
C1242 C 0.40876 0.99522 0.31021 0.0
C1243 C 0.37383 0.00857 0.32284 0.0
C1244 C 0.34393 0.0407 0.31576 0.0
C1245 C 0.34803 0.05849 0.29633 0.0
C1246 C 0.38266 0.04437 0.28421 0.0
C1247 C 0.41289 0.01392 0.29102 0.0
C1248 C 0.44831 1.00575 0.27544 0.0
C1249 C 0.49359 0.01946 0.28343 0.0
C1250 C 0.44824 0.95738 0.26866 0.0
C1251 C 0.43323 0.03609 0.25871 0.0
C1252 C 0.39497 0.05766 0.26393 0.0
C1253 C 0.37438 0.08665 0.25067 0.0
C1254 C 0.39372 0.09428 0.2318 0.0
C1255 C 0.43367 0.07361 0.22638 0.0
C1256 C 0.45336 0.04393 0.24008 0.0
H1257 H 0.44933 0.4333 0.83178 0.0
H1258 H 0.51641 0.31407 0.81286 0.0
H1259 H 0.50085 0.33214 0.77778 0.0
H1260 H 0.3627 0.42692 0.79481 0.0
H1261 H 0.36018 0.48557 0.79079 0.0
H1262 H 0.37741 0.46417 0.81471 0.0
H1263 H 0.44952 0.50876 0.81211 0.0
H1264 H 0.4326 0.53021 0.78816 0.0
H1265 H 0.48431 0.50192 0.79047 0.0
H1266 H 0.47811 0.36227 0.7444 0.0
H1267 H 0.44884 0.4021 0.71524 0.0
H1268 H 0.39367 0.50093 0.75497 0.0
C1269 C 0.46071 0.41082 0.82035 0.0
C1270 C 0.48483 0.37233 0.82545 0.0
C1271 C 0.49891 0.34422 0.80969 0.0
C1272 C 0.48992 0.35403 0.78956 0.0
C1273 C 0.46646 0.39211 0.7851 0.0
C1274 C 0.45187 0.42006 0.80001 0.0
C1275 C 0.42679 0.4586 0.79096 0.0
C1276 C 0.37893 0.45881 0.79825 0.0
C1277 C 0.44968 0.50247 0.79571 0.0
C1278 C 0.42968 0.44782 0.76871 0.0
C1279 C 0.45277 0.4093 0.76573 0.0
C1280 C 0.4598 0.39243 0.74657 0.0
C1281 C 0.44271 0.41532 0.73001 0.0
C1282 C 0.41859 0.4549 0.73251 0.0
C1283 C 0.41226 0.47118 0.75229 0.0
H1284 H 0.99875 0.67606 0.80467 0.0
H1285 H 1.00142 0.55216 0.83704 0.0
H1286 H 0.97689 0.51338 0.80652 0.0
H1287 H 0.90088 0.65236 0.77633 0.0
H1288 H 0.91946 0.67979 0.7539 0.0
H1289 H 0.93892 0.69764 0.77803 0.0
H1290 H 0.01901 0.68689 0.76609 0.0
H1291 H 0.99975 0.66858 0.74198 0.0
H1292 H 0.03596 0.63412 0.75647 0.0
H1293 H 0.95243 0.48771 0.77266 0.0
H1294 H 0.92172 0.47744 0.73883 0.0
H1295 H 0.93196 0.61755 0.7276 0.0
C1296 C 0.99441 0.64072 0.80528 0.0
C1297 C 1.00224 0.61716 0.82337 0.0
C1298 C 0.99537 0.57104 0.82355 0.0
C1299 C 0.98179 0.54866 0.80619 0.0
C1300 C 0.97475 0.57275 0.78864 0.0
C1301 C 0.98026 0.61785 0.78808 0.0
C1302 C 0.96821 0.63599 0.76747 0.0
C1303 C 0.92957 0.66836 0.76903 0.0
C1304 C 0.00812 0.65768 0.75741 0.0
C1305 C 0.95493 0.59405 0.75654 0.0
C1306 C 0.95957 0.558 0.76907 0.0
C1307 C 0.94871 0.51572 0.76276 0.0
C1308 C 0.9314 0.51017 0.74347 0.0
C1309 C 0.92465 0.54652 0.73048 0.0
C1310 C 0.9375 0.58904 0.73701 0.0
H1311 H 0.00488 0.97555 0.23714 0.0
H1312 H 0.90748 0.87737 0.22194 0.0
H1313 H 0.87157 0.88889 0.25499 0.0
H1314 H 0.01555 0.94852 0.28914 0.0
H1315 H 0.02156 1.00494 0.29702 0.0
H1316 H 0.03891 0.98867 0.27231 0.0
H1317 H 0.98885 0.04834 0.2566 0.0
H1318 H 0.97162 0.06503 0.28126 0.0
H1319 H 0.93132 0.04932 0.26287 0.0
H1320 H 0.84829 0.91031 0.2915 0.0
H1321 H 0.83617 0.94451 0.32493 0.0
H1322 H 0.94814 0.02945 0.31493 0.0
C1323 C 0.97605 0.95632 0.24073 0.0
C1324 C 0.95924 0.92526 0.22688 0.0
C1325 C 0.92089 0.90149 0.23217 0.0
C1326 C 0.90048 0.90765 0.25101 0.0
C1327 C 0.91843 0.93809 0.26443 0.0
C1328 C 0.95511 0.96242 0.2593 0.0
C1329 C 0.96765 0.99396 0.27595 0.0
C1330 C 0.01364 0.98337 0.28408 0.0
C1331 C 0.96466 0.042 0.26874 0.0
C1332 C 0.93249 0.98372 0.29137 0.0
C1333 C 0.90453 0.9511 0.28467 0.0
C1334 C 0.86999 0.93603 0.29672 0.0
C1335 C 0.86345 0.95539 0.31578 0.0
C1336 C 0.89092 0.98991 0.32258 0.0
C1337 C 0.92614 1.00357 0.31015 0.0
H1338 H 0.49569 0.94988 0.81707 0.0
H1339 H 0.56564 0.82616 0.82109 0.0
H1340 H 0.59372 0.83692 0.78645 0.0
H1341 H 0.46497 0.94371 0.76518 0.0
H1342 H 0.47389 1.00145 0.7604 0.0
H1343 H 0.45862 0.98317 0.78513 0.0
H1344 H 0.52741 0.02097 0.79999 0.0
H1345 H 0.54265 0.03973 0.77534 0.0
H1346 H 0.58079 0.00782 0.79 0.0
H1347 H 0.61148 0.86096 0.75001 0.0
H1348 H 0.62534 0.90029 0.7179 0.0
H1349 H 0.54768 0.01019 0.739 0.0
C1350 C 0.51686 0.92502 0.81063 0.0
C1351 C 0.52823 0.88694 0.82175 0.0
C1352 C 0.55665 0.85558 0.81289 0.0
C1353 C 0.57247 0.86135 0.79316 0.0
C1354 C 0.56019 0.89907 0.78251 0.0
C1355 C 0.53363 0.93075 0.79114 0.0
C1356 C 0.52693 0.96942 0.77703 0.0
C1357 C 0.47821 0.97473 0.77162 0.0
C1358 C 0.54556 0.012 0.78613 0.0
C1359 C 0.5536 0.95465 0.75903 0.0
C1360 C 0.57204 0.91368 0.76227 0.0
C1361 C 0.59735 0.89317 0.74746 0.0
C1362 C 0.60481 0.91551 0.72918 0.0
C1363 C 0.58772 0.95828 0.72593 0.0
C1364 C 0.5614 0.97762 0.74107 0.0
H1365 H 0.52318 0.5208 0.23376 0.0
H1366 H 0.54671 0.66039 0.22622 0.0
H1367 H 0.57688 0.66383 0.26083 0.0
H1368 H 0.48998 0.523 0.28488 0.0
H1369 H 0.51702 0.47215 0.29134 0.0
H1370 H 0.49819 0.48117 0.2661 0.0
H1371 H 0.57647 0.46653 0.25252 0.0
H1372 H 0.59545 0.457 0.27769 0.0
H1373 H 0.62191 0.49786 0.26224 0.0
H1374 H 0.60047 0.65126 0.29808 0.0
H1375 H 0.62322 0.62279 0.33145 0.0
H1376 H 0.58667 0.49105 0.31324 0.0
C1377 C 0.5348 0.55213 0.23936 0.0
C1378 C 0.53227 0.59047 0.22728 0.0
C1379 C 0.5485 0.63062 0.23511 0.0
C1380 C 0.56537 0.63283 0.25483 0.0
C1381 C 0.56646 0.59445 0.26649 0.0
C1382 C 0.55223 0.55471 0.25879 0.0
C1383 C 0.55767 0.51782 0.27395 0.0
C1384 C 0.51306 0.49734 0.27938 0.0
C1385 C 0.58979 0.48274 0.26613 0.0
C1386 C 0.57685 0.54279 0.29154 0.0
C1387 C 0.58131 0.58708 0.28715 0.0
C1388 C 0.59735 0.61655 0.30149 0.0
C1389 C 0.6099 0.60021 0.32049 0.0
C1390 C 0.60698 0.55467 0.325 0.0
C1391 C 0.58979 0.52595 0.31025 0.0
H1392 H 0.37442 0.31406 0.12751 0.0
H1393 H 0.36927 0.29006 0.19148 0.0
H1394 H 0.3409 0.36512 0.19658 0.0
H1395 H 0.39445 0.44475 0.13408 0.0
H1396 H 0.36356 0.45332 0.11141 0.0
H1397 H 0.39988 0.40663 0.1136 0.0
H1398 H 0.33591 0.35447 0.10462 0.0
H1399 H 0.29995 0.40035 0.10236 0.0
H1400 H 0.28619 0.35608 0.11934 0.0
H1401 H 0.29488 0.42818 0.19405 0.0
H1402 H 0.22381 0.45598 0.1844 0.0
H1403 H 0.26009 0.44779 0.12175 0.0
C1404 C 0.36941 0.32535 0.14269 0.0
C1405 C 0.37425 0.29636 0.15909 0.0
C1406 C 0.36527 0.31154 0.17865 0.0
C1407 C 0.3504 0.35461 0.18171 0.0
C1408 C 0.34545 0.38237 0.16512 0.0
C1409 C 0.35524 0.3683 0.14593 0.0
C1410 C 0.33832 0.40003 0.13029 0.0
C1411 C 0.37629 0.42784 0.12186 0.0
C1412 C 0.31355 0.37626 0.11323 0.0
C1413 C 0.30872 0.42794 0.14333 0.0
C1414 C 0.31713 0.42042 0.16354 0.0
C1415 C 0.28858 0.43493 0.17839 0.0
C1416 C 0.24771 0.45098 0.17263 0.0
C1417 C 0.23576 0.45214 0.1521 0.0
C1418 C 0.26842 0.44584 0.13747 0.0
H1419 H 0.18793 0.36803 0.63443 0.0
H1420 H 0.19509 0.37544 0.69911 0.0
H1421 H 0.13318 0.32324 0.70175 0.0
H1422 H 0.06243 0.34195 0.63096 0.0
H1423 H 0.07348 0.30517 0.61039 0.0
H1424 H 0.10557 0.35462 0.61339 0.0
H1425 H 0.17681 0.30804 0.6132 0.0
H1426 H 0.1452 0.25903 0.61016 0.0
H1427 H 0.18261 0.2636 0.63097 0.0
H1428 H 0.08723 0.2581 0.69775 0.0
H1429 H 0.06987 0.18201 0.68802 0.0
H1430 H 0.09265 0.21473 0.62581 0.0
C1431 C 0.17493 0.3603 0.64912 0.0
C1432 C 0.19581 0.37574 0.66656 0.0
C1433 C 0.17937 0.36373 0.68558 0.0
C1434 C 0.1438 0.33471 0.68718 0.0
C1435 C 0.12506 0.31834 0.66961 0.0
C1436 C 0.14002 0.33102 0.65088 0.0
C1437 C 0.12189 0.30195 0.6345 0.0
C1438 C 0.08887 0.32745 0.62155 0.0
C1439 C 0.15883 0.28196 0.6215 0.0
C1440 C 0.09893 0.26761 0.6471 0.0
C1441 C 0.09875 0.27906 0.66721 0.0
C1442 C 0.08583 0.24939 0.68205 0.0
C1443 C 0.07592 0.2062 0.67639 0.0
C1444 C 0.07992 0.19314 0.65616 0.0
C1445 C 0.08874 0.2247 0.64128 0.0
H1446 H 0.22949 0.09593 0.89495 0.0
H1447 H 0.14179 0.15122 0.85098 0.0
H1448 H 0.20135 0.19648 0.83748 0.0
H1449 H 0.27186 0.17347 0.91127 0.0
H1450 H 0.32959 0.16127 0.91326 0.0
H1451 H 0.29107 0.11721 0.9122 0.0
H1452 H 0.32974 0.08397 0.88126 0.0
H1453 H 0.36984 0.12748 0.88289 0.0
H1454 H 0.34097 0.11808 0.85972 0.0
H1455 H 0.24855 0.259 0.84341 0.0
H1456 H 0.29049 0.31747 0.86009 0.0
H1457 H 0.36004 0.21814 0.89444 0.0
C1458 C 0.22448 0.11465 0.88134 0.0
C1459 C 0.18178 0.12075 0.87402 0.0
C1460 C 0.17474 0.14613 0.8566 0.0
C1461 C 0.20849 0.1721 0.84886 0.0
C1462 C 0.24927 0.17053 0.85823 0.0
C1463 C 0.25858 0.13986 0.87315 0.0
C1464 C 0.30188 0.15021 0.88319 0.0
C1465 C 0.29825 0.15066 0.90631 0.0
C1466 C 0.33771 0.11801 0.87632 0.0
C1467 C 0.3101 0.19561 0.8747 0.0
C1468 C 0.28023 0.20647 0.85994 0.0
C1469 C 0.2739 0.25025 0.85403 0.0
C1470 C 0.29762 0.28351 0.86376 0.0
C1471 C 0.32779 0.27272 0.87906 0.0
C1472 C 0.33605 0.22792 0.88337 0.0
H1473 H 0.33046 0.37007 0.42062 0.0
H1474 H 0.32009 0.38167 0.35615 0.0
H1475 H 0.37342 0.32122 0.35219 0.0
H1476 H 0.45129 0.32286 0.42171 0.0
H1477 H 0.4355 0.28759 0.44223 0.0
H1478 H 0.41264 0.34221 0.44016 0.0
H1479 H 0.33449 0.30902 0.44157 0.0
H1480 H 0.35679 0.25483 0.4434 0.0
H1481 H 0.31898 0.26776 0.42348 0.0
H1482 H 0.40621 0.24884 0.35491 0.0
H1483 H 0.41072 0.1705 0.36366 0.0
H1484 H 0.40028 0.20311 0.42662 0.0
C1485 C 0.34141 0.36148 0.40569 0.0
C1486 C 0.32155 0.38036 0.38869 0.0
C1487 C 0.33505 0.36733 0.36935 0.0
C1488 C 0.36578 0.33349 0.367 0.0
C1489 C 0.38272 0.31333 0.38415 0.0
C1490 C 0.3714 0.32734 0.40321 0.0
C1491 C 0.38533 0.29453 0.41904 0.0
C1492 C 0.42347 0.3129 0.43151 0.0
C1493 C 0.34658 0.28072 0.43261 0.0
C1494 C 0.40066 0.25732 0.40578 0.0
C1495 C 0.40143 0.26975 0.38579 0.0
C1496 C 0.40729 0.23911 0.3705 0.0
C1497 C 0.40976 0.19456 0.37562 0.0
C1498 C 0.40572 0.18114 0.39585 0.0
C1499 C 0.40369 0.21297 0.4111 0.0
H1500 H 0.82813 0.64223 0.93771 0.0
H1501 H 0.85441 0.59285 0.878 0.0
H1502 H 0.77687 0.60239 0.86915 0.0
H1503 H 0.70645 0.60211 0.94046 0.0
H1504 H 0.69185 0.65169 0.95371 0.0
H1505 H 0.7449 0.62683 0.95759 0.0
H1506 H 0.78177 0.70101 0.94844 0.0
H1507 H 0.72933 0.7258 0.94404 0.0
H1508 H 0.77021 0.72607 0.9245 0.0
H1509 H 0.70605 0.63845 0.8634 0.0
H1510 H 0.64293 0.68998 0.86295 0.0
H1511 H 0.66063 0.71474 0.92625 0.0
C1512 C 0.81689 0.6315 0.92313 0.0
C1513 C 0.84693 0.61675 0.90859 0.0
C1514 C 0.83167 0.6035 0.8895 0.0
C1515 C 0.78764 0.60889 0.88431 0.0
C1516 C 0.7593 0.62675 0.8985 0.0
C1517 C 0.77298 0.63668 0.91776 0.0
C1518 C 0.73826 0.66198 0.92911 0.0
C1519 C 0.71923 0.63397 0.94623 0.0
C1520 C 0.75598 0.70631 0.93695 0.0
C1521 C 0.70501 0.66847 0.91263 0.0
C1522 C 0.71715 0.64705 0.89521 0.0
C1523 C 0.69513 0.65391 0.87713 0.0
C1524 C 0.65985 0.68344 0.8769 0.0
C1525 C 0.64741 0.70536 0.89461 0.0
C1526 C 0.6695 0.69723 0.9127 0.0
H1527 H 0.74045 0.71549 0.44411 0.0
H1528 H 0.80789 0.64368 0.39704 0.0
H1529 H 0.8749 0.68362 0.40418 0.0
H1530 H 0.77215 0.81058 0.43521 0.0
H1531 H 0.78284 0.83122 0.46007 0.0
H1532 H 0.74612 0.78616 0.45683 0.0
H1533 H 0.79254 0.73922 0.48123 0.0
H1534 H 0.83012 0.78458 0.48441 0.0
H1535 H 0.85029 0.73149 0.47664 0.0
H1536 H 0.9211 0.74642 0.40606 0.0
H1537 H 0.93592 0.82498 0.40183 0.0
H1538 H 0.85302 0.85404 0.45273 0.0
C1539 C 0.76976 0.70678 0.43591 0.0
C1540 C 0.76798 0.677 0.41971 0.0
C1541 C 0.80721 0.66731 0.40913 0.0
C1542 C 0.84623 0.68914 0.41342 0.0
C1543 C 0.84638 0.72009 0.42871 0.0
C1544 C 0.80941 0.72814 0.44023 0.0
C1545 C 0.81576 0.76845 0.45318 0.0
C1546 C 0.777 0.80099 0.45114 0.0
C1547 C 0.82261 0.75512 0.47517 0.0
C1548 C 0.85803 0.78617 0.44423 0.0
C1549 C 0.87663 0.75639 0.43097 0.0
C1550 C 0.90812 0.76945 0.41691 0.0
C1551 C 0.91665 0.81441 0.4146 0.0
C1552 C 0.89432 0.8453 0.42662 0.0
C1553 C 0.86964 0.83051 0.4432 0.0
H1554 H 0.83497 0.75003 0.17281 0.0
H1555 H 0.88324 0.72533 0.11265 0.0
H1556 H 0.83487 0.66103 0.1099 0.0
H1557 H 0.81503 0.63202 0.18697 0.0
H1558 H 0.76509 0.64548 0.20008 0.0
H1559 H 0.80948 0.68468 0.19915 0.0
H1560 H 0.75751 0.74372 0.184 0.0
H1561 H 0.71309 0.70513 0.18554 0.0
H1562 H 0.72637 0.7305 0.16185 0.0
H1563 H 0.77553 0.60786 0.11119 0.0
H1564 H 0.70111 0.57681 0.11468 0.0
H1565 H 0.6903 0.63348 0.17388 0.0
C1566 C 0.83544 0.73078 0.15916 0.0
C1567 C 0.86326 0.74204 0.14311 0.0
C1568 C 0.86281 0.71656 0.12533 0.0
C1569 C 0.83577 0.67975 0.12368 0.0
C1570 C 0.80932 0.66885 0.13991 0.0
C1571 C 0.80842 0.69389 0.15722 0.0
C1572 C 0.77244 0.67882 0.17121 0.0
C1573 C 0.79168 0.65907 0.1905 0.0
C1574 C 0.74046 0.71678 0.1759 0.0
C1575 C 0.75141 0.64356 0.15841 0.0
C1576 C 0.77427 0.63722 0.14071 0.0
C1577 C 0.75796 0.61129 0.1252 0.0
C1578 C 0.71593 0.59358 0.12729 0.0
C1579 C 0.69129 0.60205 0.14474 0.0
C1580 C 0.70985 0.62528 0.16084 0.0
H1581 H 0.61679 0.78892 0.62901 0.0
H1582 H 0.68254 0.88549 0.59221 0.0
H1583 H 0.73982 0.83157 0.58384 0.0
H1584 H 0.69548 0.75462 0.65268 0.0
H1585 H 0.68636 0.69602 0.65393 0.0
H1586 H 0.64098 0.73222 0.64994 0.0
H1587 H 0.62017 0.6922 0.61717 0.0
H1588 H 0.6646 0.65413 0.62144 0.0
H1589 H 0.66106 0.68361 0.59804 0.0
H1590 H 0.80147 0.78187 0.59125 0.0
H1591 H 0.85523 0.73281 0.60776 0.0
H1592 H 0.74837 0.66467 0.63746 0.0
C1593 C 0.64132 0.79707 0.61786 0.0
C1594 C 0.64537 0.84059 0.61099 0.0
C1595 C 0.67864 0.85172 0.59715 0.0
C1596 C 0.71149 0.82132 0.59244 0.0
C1597 C 0.70953 0.77974 0.60125 0.0
C1598 C 0.674 0.76668 0.61289 0.0
C1599 C 0.68325 0.72358 0.62346 0.0
C1600 C 0.67615 0.72691 0.64633 0.0
C1601 C 0.65564 0.68616 0.61448 0.0
C1602 C 0.7311 0.71801 0.61824 0.0
C1603 C 0.74556 0.74984 0.60502 0.0
C1604 C 0.79018 0.75552 0.60089 0.0
C1605 C 0.82057 0.72789 0.6105 0.0
C1606 C 0.80607 0.69543 0.6242 0.0
C1607 C 0.76068 0.68977 0.62745 0.0
loop_
_geom_bond_atom_site_label_1
_geom_bond_atom_site_label_2
_geom_bond_distance
_geom_bond_site_symmetry_2
_ccdc_geom_bond_type
C0 C1 1.351 . S
C0 N3 1.368 . S
C0 H5 0.931 . S
C1 C0 1.351 . S
C1 N2 1.373 . S
C1 H29 0.930 . S
N2 C1 1.373 . S
N2 C4 1.340 . S
N3 C0 1.368 . S
N3 C4 1.322 . S
N3 Co6 2.135 . S
C4 N2 1.340 . S
C4 N3 1.322 . S
C4 H28 0.930 1_455 S
H5 C0 0.931 . S
Co6 N3 2.135 . S
Co6 N9 2.121 . S
Co6 O14 2.055 1_455 S
Co6 O17 2.039 1_455 S
Co6 N20 2.140 . S
C7 O8 1.227 1_655 S
C7 O17 1.265 . S
O8 C7 1.227 1_455 S
N9 Co6 2.121 . S
N9 C11 1.375 . S
N9 C12 1.313 . S
C10 C11 1.338 . S
C10 N13 1.377 . S
C10 H30 0.930 . S
C11 N9 1.375 . S
C11 C10 1.338 . S
C11 H15 0.931 . S
C12 N9 1.313 . S
C12 N13 1.344 . S
C12 H16 0.930 . S
N13 C10 1.377 . S
N13 C12 1.344 . S
O14 Co6 2.055 1_655 S
O14 C18 1.253 . S
H15 C11 0.931 . S
H16 C12 0.930 . S
O17 Co6 2.039 1_655 S
O17 C7 1.265 . S
C18 O14 1.253 . S
C18 O19 1.226 1_655 S
O19 C18 1.226 1_455 S
N20 Co6 2.140 . S
N20 C23 1.346 . S
N20 C24 1.345 . S
C21 C22 1.387 . S
C21 C25 1.391 . S
C22 C21 1.387 . S
C22 C23 1.369 . S
C22 H31 0.929 . S
C23 N20 1.346 . S
C23 C22 1.369 . S
C23 H26 0.928 . S
C24 N20 1.345 . S
C24 C25 1.371 . S
C24 H27 0.931 . S
C25 C21 1.391 . S
C25 C24 1.371 . S
C25 H32 0.930 . S
H26 C23 0.928 . S
H27 C24 0.931 . S
H28 C4 0.930 1_655 S
H29 C1 0.930 . S
H30 C10 0.930 . S
H31 C22 0.929 . S
H32 C25 0.930 . S
C33 C34 1.351 . S
C33 N36 1.368 . S
C33 H38 0.931 . S
C34 C33 1.351 . S
C34 N35 1.373 . S
C34 H62 0.930 . S
N35 C34 1.373 . S
N35 C37 1.340 . S
N36 C33 1.368 . S
N36 C37 1.321 . S
N36 Co39 2.135 . S
C37 N35 1.340 . S
C37 N36 1.321 . S
C37 H61 0.930 1_545 S
H38 C33 0.931 . S
Co39 N36 2.135 . S
Co39 N42 2.121 . S
Co39 O47 2.055 1_545 S
Co39 O50 2.039 1_545 S
Co39 N53 2.140 . S
C40 O41 1.227 1_565 S
C40 O50 1.265 . S
O41 C40 1.227 1_545 S
N42 Co39 2.121 . S
N42 C44 1.375 . S
N42 C45 1.313 . S
C43 C44 1.338 . S
C43 N46 1.377 . S
C43 H63 0.930 . S
C44 N42 1.375 . S
C44 C43 1.338 . S
C44 H48 0.931 . S
C45 N42 1.313 . S
C45 N46 1.344 . S
C45 H49 0.930 . S
N46 C43 1.377 . S
N46 C45 1.344 . S
O47 Co39 2.055 1_565 S
O47 C51 1.254 . S
H48 C44 0.931 . S
H49 C45 0.930 . S
O50 Co39 2.039 1_565 S
O50 C40 1.265 . S
C51 O47 1.254 . S
C51 O52 1.225 1_565 S
O52 C51 1.225 1_545 S
N53 Co39 2.140 . S
N53 C56 1.346 . S
N53 C57 1.345 . S
C54 C55 1.387 . S
C54 C58 1.391 . S
C55 C54 1.387 . S
C55 C56 1.369 . S
C55 H64 0.929 . S
C56 N53 1.346 . S
C56 C55 1.369 . S
C56 H59 0.928 . S
C57 N53 1.345 . S
C57 C58 1.371 . S
C57 H60 0.931 . S
C58 C54 1.391 . S
C58 C57 1.371 . S
C58 H65 0.930 . S
H59 C56 0.928 . S
H60 C57 0.931 . S
H61 C37 0.930 1_565 S
H62 C34 0.930 . S
H63 C43 0.930 . S
H64 C55 0.929 . S
H65 C58 0.930 . S
C66 C67 1.351 . S
C66 N69 1.368 . S
C66 H71 0.931 . S
C67 C66 1.351 . S
C67 N68 1.373 . S
C67 H95 0.930 . S
N68 C67 1.373 . S
N68 C70 1.340 . S
N69 C66 1.368 . S
N69 C70 1.321 . S
N69 Co72 2.135 . S
C70 N68 1.340 . S
C70 N69 1.321 . S
C70 H94 0.930 . S
H71 C66 0.931 . S
Co72 N69 2.135 . S
Co72 N75 2.121 . S
Co72 O80 2.055 . S
Co72 O83 2.039 . S
Co72 N86 2.140 . S
C73 O74 1.227 . S
C73 O83 1.265 . S
O74 C73 1.227 . S
N75 Co72 2.121 . S
N75 C77 1.375 . S
N75 C78 1.313 . S
C76 C77 1.338 . S
C76 N79 1.377 . S
C76 H96 0.930 . S
C77 N75 1.375 . S
C77 C76 1.338 . S
C77 H81 0.931 . S
C78 N75 1.313 . S
C78 N79 1.344 . S
C78 H82 0.930 . S
N79 C76 1.377 . S
N79 C78 1.344 . S
O80 Co72 2.055 . S
O80 C84 1.253 . S
H81 C77 0.931 . S
H82 C78 0.930 . S
O83 Co72 2.039 . S
O83 C73 1.265 . S
C84 O80 1.253 . S
C84 O85 1.227 . S
O85 C84 1.227 . S
N86 Co72 2.140 . S
N86 C89 1.346 . S
N86 C90 1.345 . S
C87 C88 1.387 . S
C87 C91 1.391 . S
C88 C87 1.387 . S
C88 C89 1.369 . S
C88 H97 0.929 . S
C89 N86 1.346 . S
C89 C88 1.369 . S
C89 H92 0.928 . S
C90 N86 1.345 . S
C90 C91 1.371 . S
C90 H93 0.931 . S
C91 C87 1.391 . S
C91 C90 1.371 . S
C91 H98 0.930 . S
H92 C89 0.928 . S
H93 C90 0.931 . S
H94 C70 0.930 . S
H95 C67 0.930 . S
H96 C76 0.930 . S
H97 C88 0.929 . S
H98 C91 0.930 . S
C99 C100 1.351 . S
C99 N102 1.368 . S
C99 H104 0.931 . S
C100 C99 1.351 . S
C100 N101 1.373 . S
C100 H128 0.930 . S
N101 C100 1.373 . S
N101 C103 1.340 . S
N102 C99 1.368 . S
N102 C103 1.321 . S
N102 Co105 2.135 . S
C103 N101 1.340 . S
C103 N102 1.321 . S
C103 H127 0.930 . S
H104 C99 0.931 . S
Co105 N102 2.135 . S
Co105 N108 2.121 . S
Co105 O113 2.055 . S
Co105 O116 2.039 . S
Co105 N119 2.140 . S
C106 O107 1.227 . S
C106 O116 1.265 . S
O107 C106 1.227 . S
N108 Co105 2.121 . S
N108 C110 1.375 . S
N108 C111 1.313 . S
C109 C110 1.338 . S
C109 N112 1.377 . S
C109 H129 0.930 . S
C110 N108 1.375 . S
C110 C109 1.338 . S
C110 H114 0.931 . S
C111 N108 1.313 . S
C111 N112 1.344 . S
C111 H115 0.930 . S
N112 C109 1.377 . S
N112 C111 1.344 . S
O113 Co105 2.055 . S
O113 C117 1.253 . S
H114 C110 0.931 . S
H115 C111 0.930 . S
O116 Co105 2.039 . S
O116 C106 1.265 . S
C117 O113 1.253 . S
C117 O118 1.227 . S
O118 C117 1.227 . S
N119 Co105 2.140 . S
N119 C122 1.346 . S
N119 C123 1.345 . S
C120 C121 1.387 . S
C120 C124 1.391 . S
C121 C120 1.387 . S
C121 C122 1.369 . S
C121 H130 0.929 . S
C122 N119 1.346 . S
C122 C121 1.369 . S
C122 H125 0.928 . S
C123 N119 1.345 . S
C123 C124 1.371 . S
C123 H126 0.931 . S
C124 C120 1.391 . S
C124 C123 1.371 . S
C124 H131 0.930 . S
H125 C122 0.928 . S
H126 C123 0.931 . S
H127 C103 0.930 . S
H128 C100 0.930 . S
H129 C109 0.930 . S
H130 C121 0.929 . S
H131 C124 0.930 . S
C132 C133 1.351 . S
C132 N135 1.368 . S
C132 H137 0.931 . S
C133 C132 1.351 . S
C133 N134 1.373 . S
C133 H161 0.930 . S
N134 C133 1.373 . S
N134 C136 1.340 . S
N135 C132 1.368 . S
N135 C136 1.321 . S
N135 Co138 2.135 . S
C136 N134 1.340 . S
C136 N135 1.321 . S
C136 H160 0.930 1_455 S
H137 C132 0.931 . S
Co138 N135 2.135 . S
Co138 N141 2.121 . S
Co138 O146 2.055 1_455 S
Co138 O149 2.039 1_455 S
Co138 N152 2.140 . S
C139 O140 1.227 1_655 S
C139 O149 1.265 . S
O140 C139 1.227 1_455 S
N141 Co138 2.121 . S
N141 C143 1.375 . S
N141 C144 1.313 . S
C142 C143 1.338 . S
C142 N145 1.377 . S
C142 H162 0.930 . S
C143 N141 1.375 . S
C143 C142 1.338 . S
C143 H147 0.931 . S
C144 N141 1.313 . S
C144 N145 1.344 . S
C144 H148 0.930 . S
N145 C142 1.377 . S
N145 C144 1.344 . S
O146 Co138 2.055 1_655 S
O146 C150 1.254 . S
H147 C143 0.931 . S
H148 C144 0.930 . S
O149 Co138 2.039 1_655 S
O149 C139 1.265 . S
C150 O146 1.254 . S
C150 O151 1.225 1_655 S
O151 C150 1.225 1_455 S
N152 Co138 2.140 . S
N152 C155 1.346 . S
N152 C156 1.345 . S
C153 C154 1.387 . S
C153 C157 1.391 . S
C154 C153 1.387 . S
C154 C155 1.369 . S
C154 H163 0.929 . S
C155 N152 1.346 . S
C155 C154 1.369 . S
C155 H158 0.928 . S
C156 N152 1.345 . S
C156 C157 1.371 . S
C156 H159 0.931 . S
C157 C153 1.391 . S
C157 C156 1.371 . S
C157 H164 0.930 . S
H158 C155 0.928 . S
H159 C156 0.931 . S
H160 C136 0.930 1_655 S
H161 C133 0.930 . S
H162 C142 0.930 . S
H163 C154 0.929 . S
H164 C157 0.930 . S
C165 C166 1.351 . S
C165 N168 1.368 . S
C165 H170 0.931 . S
C166 C165 1.351 . S
C166 N167 1.373 . S
C166 H194 0.930 . S
N167 C166 1.373 . S
N167 C169 1.340 . S
N168 C165 1.368 . S
N168 C169 1.322 . S
N168 Co171 2.135 . S
C169 N167 1.340 . S
C169 N168 1.322 . S
C169 H193 0.930 1_545 S
H170 C165 0.931 . S
Co171 N168 2.135 . S
Co171 N174 2.121 . S
Co171 O179 2.055 1_545 S
Co171 O182 2.039 1_545 S
Co171 N185 2.140 . S
C172 O173 1.227 1_565 S
C172 O182 1.265 . S
O173 C172 1.227 1_545 S
N174 Co171 2.121 . S
N174 C176 1.375 . S
N174 C177 1.313 . S
C175 C176 1.338 . S
C175 N178 1.377 . S
C175 H195 0.930 . S
C176 N174 1.375 . S
C176 C175 1.338 . S
C176 H180 0.931 . S
C177 N174 1.313 . S
C177 N178 1.344 . S
C177 H181 0.930 . S
N178 C175 1.377 . S
N178 C177 1.344 . S
O179 Co171 2.055 1_565 S
O179 C183 1.253 . S
H180 C176 0.931 . S
H181 C177 0.930 . S
O182 Co171 2.039 1_565 S
O182 C172 1.265 . S
C183 O179 1.253 . S
C183 O184 1.226 1_565 S
O184 C183 1.226 1_545 S
N185 Co171 2.140 . S
N185 C188 1.346 . S
N185 C189 1.345 . S
C186 C187 1.387 . S
C186 C190 1.391 . S
C187 C186 1.387 . S
C187 C188 1.369 . S
C187 H196 0.929 . S
C188 N185 1.346 . S
C188 C187 1.369 . S
C188 H191 0.928 . S
C189 N185 1.345 . S
C189 C190 1.371 . S
C189 H192 0.931 . S
C190 C186 1.391 . S
C190 C189 1.371 . S
C190 H197 0.930 . S
H191 C188 0.928 . S
H192 C189 0.931 . S
H193 C169 0.930 1_565 S
H194 C166 0.930 . S
H195 C175 0.930 . S
H196 C187 0.929 . S
H197 C190 0.930 . S
C198 C199 1.351 . S
C198 N201 1.368 . S
C198 H203 0.931 . S
C199 C198 1.351 . S
C199 N200 1.373 . S
C199 H227 0.930 . S
N200 C199 1.373 . S
N200 C202 1.340 . S
N201 C198 1.368 . S
N201 C202 1.321 . S
N201 Co204 2.135 . S
C202 N200 1.340 . S
C202 N201 1.321 . S
C202 H226 0.930 . S
H203 C198 0.931 . S
Co204 N201 2.135 . S
Co204 N207 2.121 . S
Co204 O212 2.055 . S
Co204 O215 2.039 . S
Co204 N218 2.140 . S
C205 O206 1.227 . S
C205 O215 1.265 . S
O206 C205 1.227 . S
N207 Co204 2.121 . S
N207 C209 1.375 . S
N207 C210 1.313 . S
C208 C209 1.338 . S
C208 N211 1.377 . S
C208 H228 0.930 . S
C209 N207 1.375 . S
C209 C208 1.338 . S
C209 H213 0.931 . S
C210 N207 1.313 . S
C210 N211 1.344 . S
C210 H214 0.930 . S
N211 C208 1.377 . S
N211 C210 1.344 . S
O212 Co204 2.055 . S
O212 C216 1.253 . S
H213 C209 0.931 . S
H214 C210 0.930 . S
O215 Co204 2.039 . S
O215 C205 1.265 . S
C216 O212 1.253 . S
C216 O217 1.227 . S
O217 C216 1.227 . S
N218 Co204 2.140 . S
N218 C221 1.346 . S
N218 C222 1.345 . S
C219 C220 1.387 . S
C219 C223 1.391 . S
C220 C219 1.387 . S
C220 C221 1.369 . S
C220 H229 0.929 . S
C221 N218 1.346 . S
C221 C220 1.369 . S
C221 H224 0.928 . S
C222 N218 1.345 . S
C222 C223 1.371 . S
C222 H225 0.931 . S
C223 C219 1.391 . S
C223 C222 1.371 . S
C223 H230 0.930 . S
H224 C221 0.928 . S
H225 C222 0.931 . S
H226 C202 0.930 . S
H227 C199 0.930 . S
H228 C208 0.930 . S
H229 C220 0.929 . S
H230 C223 0.930 . S
C231 C232 1.351 . S
C231 N234 1.368 . S
C231 H236 0.931 . S
C232 C231 1.351 . S
C232 N233 1.373 . S
C232 H260 0.930 . S
N233 C232 1.373 . S
N233 C235 1.340 . S
N234 C231 1.368 . S
N234 C235 1.321 . S
N234 Co237 2.135 . S
C235 N233 1.340 . S
C235 N234 1.321 . S
C235 H259 0.930 . S
H236 C231 0.931 . S
Co237 N234 2.135 . S
Co237 N240 2.121 . S
Co237 O245 2.055 . S
Co237 O248 2.039 . S
Co237 N251 2.140 . S
C238 O239 1.227 . S
C238 O248 1.265 . S
O239 C238 1.227 . S
N240 Co237 2.121 . S
N240 C242 1.375 . S
N240 C243 1.313 . S
C241 C242 1.338 . S
C241 N244 1.377 . S
C241 H261 0.930 . S
C242 N240 1.375 . S
C242 C241 1.338 . S
C242 H246 0.931 . S
C243 N240 1.313 . S
C243 N244 1.344 . S
C243 H247 0.930 . S
N244 C241 1.377 . S
N244 C243 1.344 . S
O245 Co237 2.055 . S
O245 C249 1.253 . S
H246 C242 0.931 . S
H247 C243 0.930 . S
O248 Co237 2.039 . S
O248 C238 1.265 . S
C249 O245 1.253 . S
C249 O250 1.227 . S
O250 C249 1.227 . S
N251 Co237 2.140 . S
N251 C254 1.346 . S
N251 C255 1.345 . S
C252 C253 1.387 . S
C252 C256 1.391 . S
C253 C252 1.387 . S
C253 C254 1.369 . S
C253 H262 0.929 . S
C254 N251 1.346 . S
C254 C253 1.369 . S
C254 H257 0.928 . S
C255 N251 1.345 . S
C255 C256 1.371 . S
C255 H258 0.931 . S
C256 C252 1.391 . S
C256 C255 1.371 . S
C256 H263 0.930 . S
H257 C254 0.928 . S
H258 C255 0.931 . S
H259 C235 0.930 . S
H260 C232 0.930 . S
H261 C241 0.930 . S
H262 C253 0.929 . S
H263 C256 0.930 . S
C264 C265 1.351 . S
C264 N267 1.368 . S
C264 H269 0.931 . S
C265 C264 1.351 . S
C265 N266 1.373 . S
C265 H293 0.930 . S
N266 C265 1.373 . S
N266 C268 1.340 . S
N267 C264 1.368 . S
N267 C268 1.322 . S
N267 Co270 2.135 . S
C268 N266 1.340 . S
C268 N267 1.322 . S
C268 H292 0.930 1_655 S
H269 C264 0.931 . S
Co270 N267 2.135 . S
Co270 N273 2.121 . S
Co270 O278 2.055 1_655 S
Co270 O281 2.039 1_655 S
Co270 N284 2.140 . S
C271 O272 1.227 1_455 S
C271 O281 1.265 . S
O272 C271 1.227 1_655 S
N273 Co270 2.121 . S
N273 C275 1.375 . S
N273 C276 1.313 . S
C274 C275 1.338 . S
C274 N277 1.377 . S
C274 H294 0.930 . S
C275 N273 1.375 . S
C275 C274 1.338 . S
C275 H279 0.931 . S
C276 N273 1.313 . S
C276 N277 1.344 . S
C276 H280 0.930 . S
N277 C274 1.377 . S
N277 C276 1.344 . S
O278 Co270 2.055 1_455 S
O278 C282 1.253 . S
H279 C275 0.931 . S
H280 C276 0.930 . S
O281 Co270 2.039 1_455 S
O281 C271 1.265 . S
C282 O278 1.253 . S
C282 O283 1.226 1_455 S
O283 C282 1.226 1_655 S
N284 Co270 2.140 . S
N284 C287 1.346 . S
N284 C288 1.345 . S
C285 C286 1.387 . S
C285 C289 1.391 . S
C286 C285 1.387 . S
C286 C287 1.369 . S
C286 H295 0.929 . S
C287 N284 1.346 . S
C287 C286 1.369 . S
C287 H290 0.928 . S
C288 N284 1.345 . S
C288 C289 1.371 . S
C288 H291 0.931 . S
C289 C285 1.391 . S
C289 C288 1.371 . S
C289 H296 0.930 . S
H290 C287 0.928 . S
H291 C288 0.931 . S
H292 C268 0.930 1_455 S
H293 C265 0.930 . S
H294 C274 0.930 . S
H295 C286 0.929 . S
H296 C289 0.930 . S
C297 C298 1.351 . S
C297 N300 1.368 . S
C297 H302 0.931 . S
C298 C297 1.351 . S
C298 N299 1.373 . S
C298 H326 0.930 . S
N299 C298 1.373 . S
N299 C301 1.340 . S
N300 C297 1.368 . S
N300 C301 1.321 . S
N300 Co303 2.135 . S
C301 N299 1.340 . S
C301 N300 1.321 . S
C301 H325 0.930 1_565 S
H302 C297 0.931 . S
Co303 N300 2.135 . S
Co303 N306 2.121 . S
Co303 O311 2.055 1_565 S
Co303 O314 2.039 1_565 S
Co303 N317 2.140 . S
C304 O305 1.227 1_545 S
C304 O314 1.265 . S
O305 C304 1.227 1_565 S
N306 Co303 2.121 . S
N306 C308 1.375 . S
N306 C309 1.313 . S
C307 C308 1.338 . S
C307 N310 1.377 . S
C307 H327 0.930 . S
C308 N306 1.375 . S
C308 C307 1.338 . S
C308 H312 0.931 . S
C309 N306 1.313 . S
C309 N310 1.344 . S
C309 H313 0.930 . S
N310 C307 1.377 . S
N310 C309 1.344 . S
O311 Co303 2.055 1_545 S
O311 C315 1.254 . S
H312 C308 0.931 . S
H313 C309 0.930 . S
O314 Co303 2.039 1_545 S
O314 C304 1.265 . S
C315 O311 1.254 . S
C315 O316 1.225 1_545 S
O316 C315 1.225 1_565 S
N317 Co303 2.140 . S
N317 C320 1.346 . S
N317 C321 1.345 . S
C318 C319 1.387 . S
C318 C322 1.391 . S
C319 C318 1.387 . S
C319 C320 1.369 . S
C319 H328 0.929 . S
C320 N317 1.346 . S
C320 C319 1.369 . S
C320 H323 0.928 . S
C321 N317 1.345 . S
C321 C322 1.371 . S
C321 H324 0.931 . S
C322 C318 1.391 . S
C322 C321 1.371 . S
C322 H329 0.930 . S
H323 C320 0.928 . S
H324 C321 0.931 . S
H325 C301 0.930 1_545 S
H326 C298 0.930 . S
H327 C307 0.930 . S
H328 C319 0.929 . S
H329 C322 0.930 . S
C330 C331 1.351 . S
C330 N333 1.368 . S
C330 H335 0.931 . S
C331 C330 1.351 . S
C331 N332 1.373 . S
C331 H359 0.930 . S
N332 C331 1.373 . S
N332 C334 1.340 . S
N333 C330 1.368 . S
N333 C334 1.321 . S
N333 Co336 2.135 . S
C334 N332 1.340 . S
C334 N333 1.321 . S
C334 H358 0.930 . S
H335 C330 0.931 . S
Co336 N333 2.135 . S
Co336 N339 2.121 . S
Co336 O344 2.055 . S
Co336 O347 2.039 . S
Co336 N350 2.140 . S
C337 O338 1.227 . S
C337 O347 1.265 . S
O338 C337 1.227 . S
N339 Co336 2.121 . S
N339 C341 1.375 . S
N339 C342 1.313 . S
C340 C341 1.338 . S
C340 N343 1.377 . S
C340 H360 0.930 . S
C341 N339 1.375 . S
C341 C340 1.338 . S
C341 H345 0.931 . S
C342 N339 1.313 . S
C342 N343 1.344 . S
C342 H346 0.930 . S
N343 C340 1.377 . S
N343 C342 1.344 . S
O344 Co336 2.055 . S
O344 C348 1.253 . S
H345 C341 0.931 . S
H346 C342 0.930 . S
O347 Co336 2.039 . S
O347 C337 1.265 . S
C348 O344 1.253 . S
C348 O349 1.227 . S
O349 C348 1.227 . S
N350 Co336 2.140 . S
N350 C353 1.346 . S
N350 C354 1.345 . S
C351 C352 1.387 . S
C351 C355 1.391 . S
C352 C351 1.387 . S
C352 C353 1.369 . S
C352 H361 0.929 . S
C353 N350 1.346 . S
C353 C352 1.369 . S
C353 H356 0.928 . S
C354 N350 1.345 . S
C354 C355 1.371 . S
C354 H357 0.931 . S
C355 C351 1.391 . S
C355 C354 1.371 . S
C355 H362 0.930 . S
H356 C353 0.928 . S
H357 C354 0.931 . S
H358 C334 0.930 . S
H359 C331 0.930 . S
H360 C340 0.930 . S
H361 C352 0.929 . S
H362 C355 0.930 . S
C363 C364 1.351 . S
C363 N366 1.368 . S
C363 H368 0.931 . S
C364 C363 1.351 . S
C364 N365 1.373 . S
C364 H392 0.930 . S
N365 C364 1.373 . S
N365 C367 1.340 . S
N366 C363 1.368 . S
N366 C367 1.321 . S
N366 Co369 2.135 . S
C367 N365 1.340 . S
C367 N366 1.321 . S
C367 H391 0.930 . S
H368 C363 0.931 . S
Co369 N366 2.135 . S
Co369 N372 2.121 . S
Co369 O377 2.055 . S
Co369 O380 2.039 . S
Co369 N383 2.140 . S
C370 O371 1.227 . S
C370 O380 1.265 . S
O371 C370 1.227 . S
N372 Co369 2.121 . S
N372 C374 1.375 . S
N372 C375 1.313 . S
C373 C374 1.338 . S
C373 N376 1.377 . S
C373 H393 0.930 . S
C374 N372 1.375 . S
C374 C373 1.338 . S
C374 H378 0.931 . S
C375 N372 1.313 . S
C375 N376 1.344 . S
C375 H379 0.930 . S
N376 C373 1.377 . S
N376 C375 1.344 . S
O377 Co369 2.055 . S
O377 C381 1.253 . S
H378 C374 0.931 . S
H379 C375 0.930 . S
O380 Co369 2.039 . S
O380 C370 1.265 . S
C381 O377 1.253 . S
C381 O382 1.227 . S
O382 C381 1.227 . S
N383 Co369 2.140 . S
N383 C386 1.346 . S
N383 C387 1.345 . S
C384 C385 1.387 . S
C384 C388 1.391 . S
C385 C384 1.387 . S
C385 C386 1.369 . S
C385 H394 0.929 . S
C386 N383 1.346 . S
C386 C385 1.369 . S
C386 H389 0.928 . S
C387 N383 1.345 . S
C387 C388 1.371 . S
C387 H390 0.931 . S
C388 C384 1.391 . S
C388 C387 1.371 . S
C388 H395 0.930 . S
H389 C386 0.928 . S
H390 C387 0.931 . S
H391 C367 0.930 . S
H392 C364 0.930 . S
H393 C373 0.930 . S
H394 C385 0.929 . S
H395 C388 0.930 . S
C396 C397 1.351 . S
C396 N399 1.368 . S
C396 H401 0.931 . S
C397 C396 1.351 . S
C397 N398 1.373 . S
C397 H425 0.930 . S
N398 C397 1.373 . S
N398 C400 1.340 . S
N399 C396 1.368 . S
N399 C400 1.321 . S
N399 Co402 2.135 . S
C400 N398 1.340 . S
C400 N399 1.321 . S
C400 H424 0.930 1_655 S
H401 C396 0.931 . S
Co402 N399 2.135 . S
Co402 N405 2.121 . S
Co402 O410 2.055 1_655 S
Co402 O413 2.039 1_655 S
Co402 N416 2.140 . S
C403 O404 1.227 1_455 S
C403 O413 1.265 . S
O404 C403 1.227 1_655 S
N405 Co402 2.121 . S
N405 C407 1.375 . S
N405 C408 1.313 . S
C406 C407 1.338 . S
C406 N409 1.377 . S
C406 H426 0.930 . S
C407 N405 1.375 . S
C407 C406 1.338 . S
C407 H411 0.931 . S
C408 N405 1.313 . S
C408 N409 1.344 . S
C408 H412 0.930 . S
N409 C406 1.377 . S
N409 C408 1.344 . S
O410 Co402 2.055 1_455 S
O410 C414 1.254 . S
H411 C407 0.931 . S
H412 C408 0.930 . S
O413 Co402 2.039 1_455 S
O413 C403 1.265 . S
C414 O410 1.254 . S
C414 O415 1.225 1_455 S
O415 C414 1.225 1_655 S
N416 Co402 2.140 . S
N416 C419 1.346 . S
N416 C420 1.345 . S
C417 C418 1.387 . S
C417 C421 1.391 . S
C418 C417 1.387 . S
C418 C419 1.369 . S
C418 H427 0.929 . S
C419 N416 1.346 . S
C419 C418 1.369 . S
C419 H422 0.928 . S
C420 N416 1.345 . S
C420 C421 1.371 . S
C420 H423 0.931 . S
C421 C417 1.391 . S
C421 C420 1.371 . S
C421 H428 0.930 . S
H422 C419 0.928 . S
H423 C420 0.931 . S
H424 C400 0.930 1_455 S
H425 C397 0.930 . S
H426 C406 0.930 . S
H427 C418 0.929 . S
H428 C421 0.930 . S
C429 C430 1.351 . S
C429 N432 1.368 . S
C429 H434 0.931 . S
C430 C429 1.351 . S
C430 N431 1.373 . S
C430 H458 0.930 . S
N431 C430 1.373 . S
N431 C433 1.340 . S
N432 C429 1.368 . S
N432 C433 1.322 . S
N432 Co435 2.135 . S
C433 N431 1.340 . S
C433 N432 1.322 . S
C433 H457 0.930 1_565 S
H434 C429 0.931 . S
Co435 N432 2.135 . S
Co435 N438 2.121 . S
Co435 O443 2.055 1_565 S
Co435 O446 2.039 1_565 S
Co435 N449 2.140 . S
C436 O437 1.227 1_545 S
C436 O446 1.265 . S
O437 C436 1.227 1_565 S
N438 Co435 2.121 . S
N438 C440 1.375 . S
N438 C441 1.313 . S
C439 C440 1.338 . S
C439 N442 1.377 . S
C439 H459 0.930 . S
C440 N438 1.375 . S
C440 C439 1.338 . S
C440 H444 0.931 . S
C441 N438 1.313 . S
C441 N442 1.344 . S
C441 H445 0.930 . S
N442 C439 1.377 . S
N442 C441 1.344 . S
O443 Co435 2.055 1_545 S
O443 C447 1.253 . S
H444 C440 0.931 . S
H445 C441 0.930 . S
O446 Co435 2.039 1_545 S
O446 C436 1.265 . S
C447 O443 1.253 . S
C447 O448 1.226 1_545 S
O448 C447 1.226 1_565 S
N449 Co435 2.140 . S
N449 C452 1.346 . S
N449 C453 1.345 . S
C450 C451 1.387 . S
C450 C454 1.391 . S
C451 C450 1.387 . S
C451 C452 1.369 . S
C451 H460 0.929 . S
C452 N449 1.346 . S
C452 C451 1.369 . S
C452 H455 0.928 . S
C453 N449 1.345 . S
C453 C454 1.371 . S
C453 H456 0.931 . S
C454 C450 1.391 . S
C454 C453 1.371 . S
C454 H461 0.930 . S
H455 C452 0.928 . S
H456 C453 0.931 . S
H457 C433 0.930 1_545 S
H458 C430 0.930 . S
H459 C439 0.930 . S
H460 C451 0.929 . S
H461 C454 0.930 . S
C462 C463 1.351 . S
C462 N465 1.368 . S
C462 H467 0.931 . S
C463 C462 1.351 . S
C463 N464 1.373 . S
C463 H491 0.930 . S
N464 C463 1.373 . S
N464 C466 1.340 . S
N465 C462 1.368 . S
N465 C466 1.321 . S
N465 Co468 2.135 . S
C466 N464 1.340 . S
C466 N465 1.321 . S
C466 H490 0.930 . S
H467 C462 0.931 . S
Co468 N465 2.135 . S
Co468 N471 2.121 . S
Co468 O476 2.055 . S
Co468 O479 2.039 . S
Co468 N482 2.140 . S
C469 O470 1.227 . S
C469 O479 1.265 . S
O470 C469 1.227 . S
N471 Co468 2.121 . S
N471 C473 1.375 . S
N471 C474 1.313 . S
C472 C473 1.338 . S
C472 N475 1.377 . S
C472 H492 0.930 . S
C473 N471 1.375 . S
C473 C472 1.338 . S
C473 H477 0.931 . S
C474 N471 1.313 . S
C474 N475 1.344 . S
C474 H478 0.930 . S
N475 C472 1.377 . S
N475 C474 1.344 . S
O476 Co468 2.055 . S
O476 C480 1.253 . S
H477 C473 0.931 . S
H478 C474 0.930 . S
O479 Co468 2.039 . S
O479 C469 1.265 . S
C480 O476 1.253 . S
C480 O481 1.227 . S
O481 C480 1.227 . S
N482 Co468 2.140 . S
N482 C485 1.346 . S
N482 C486 1.345 . S
C483 C484 1.387 . S
C483 C487 1.391 . S
C484 C483 1.387 . S
C484 C485 1.369 . S
C484 H493 0.929 . S
C485 N482 1.346 . S
C485 C484 1.369 . S
C485 H488 0.928 . S
C486 N482 1.345 . S
C486 C487 1.371 . S
C486 H489 0.931 . S
C487 C483 1.391 . S
C487 C486 1.371 . S
C487 H494 0.930 . S
H488 C485 0.928 . S
H489 C486 0.931 . S
H490 C466 0.930 . S
H491 C463 0.930 . S
H492 C472 0.930 . S
H493 C484 0.929 . S
H494 C487 0.930 . S
C495 C496 1.351 . S
C495 N498 1.368 . S
C495 H500 0.931 . S
C496 C495 1.351 . S
C496 N497 1.373 . S
C496 H524 0.930 . S
N497 C496 1.373 . S
N497 C499 1.340 . S
N498 C495 1.368 . S
N498 C499 1.321 . S
N498 Co501 2.135 . S
C499 N497 1.340 . S
C499 N498 1.321 . S
C499 H523 0.930 . S
H500 C495 0.931 . S
Co501 N498 2.135 . S
Co501 N504 2.121 . S
Co501 O509 2.055 . S
Co501 O512 2.039 . S
Co501 N515 2.140 . S
C502 O503 1.227 . S
C502 O512 1.265 . S
O503 C502 1.227 . S
N504 Co501 2.121 . S
N504 C506 1.375 . S
N504 C507 1.313 . S
C505 C506 1.338 . S
C505 N508 1.377 . S
C505 H525 0.930 . S
C506 N504 1.375 . S
C506 C505 1.338 . S
C506 H510 0.931 . S
C507 N504 1.313 . S
C507 N508 1.344 . S
C507 H511 0.930 . S
N508 C505 1.377 . S
N508 C507 1.344 . S
O509 Co501 2.055 . S
O509 C513 1.253 . S
H510 C506 0.931 . S
H511 C507 0.930 . S
O512 Co501 2.039 . S
O512 C502 1.265 . S
C513 O509 1.253 . S
C513 O514 1.227 . S
O514 C513 1.227 . S
N515 Co501 2.140 . S
N515 C518 1.346 . S
N515 C519 1.345 . S
C516 C517 1.387 . S
C516 C520 1.391 . S
C517 C516 1.387 . S
C517 C518 1.369 . S
C517 H526 0.929 . S
C518 N515 1.346 . S
C518 C517 1.369 . S
C518 H521 0.928 . S
C519 N515 1.345 . S
C519 C520 1.371 . S
C519 H522 0.931 . S
C520 C516 1.391 . S
C520 C519 1.371 . S
C520 H527 0.930 . S
H521 C518 0.928 . S
H522 C519 0.931 . S
H523 C499 0.930 . S
H524 C496 0.930 . S
H525 C505 0.930 . S
H526 C517 0.929 . S
H527 C520 0.930 . S
H528 C540 0.930 . S
H529 C542 0.930 . S
H530 C543 0.930 . S
H531 C547 0.959 . S
H532 C547 0.959 . S
H533 C547 0.961 . S
H534 C548 0.960 . S
H535 C548 0.961 1_554 S
H536 C548 0.959 . S
H537 C551 0.929 . S
H538 C552 0.931 . S
H539 C554 0.930 . S
C540 H528 0.930 . S
C540 C541 1.399 1_655 S
C540 C545 1.399 . S
C541 C540 1.399 1_455 S
C541 C542 1.376 . S
C542 H529 0.930 . S
C542 C541 1.376 . S
C542 C543 1.388 . S
C543 H530 0.930 . S
C543 C542 1.388 . S
C543 C544 1.390 . S
C544 C543 1.390 . S
C544 C545 1.394 1_455 S
C544 C550 1.465 1_556 S
C545 C540 1.399 . S
C545 C544 1.394 1_655 S
C545 C546 1.516 . S
C546 C545 1.516 . S
C546 C547 1.502 1_655 S
C546 C548 1.561 . S
C546 C549 1.526 1_556 S
C547 H531 0.959 . S
C547 H532 0.959 . S
C547 H533 0.961 . S
C547 C546 1.502 1_455 S
C548 H534 0.960 . S
C548 H535 0.961 1_556 S
C548 H536 0.959 . S
C548 C546 1.561 . S
C549 C546 1.526 1_554 S
C549 C550 1.396 1_655 S
C549 C554 1.390 . S
C550 C544 1.465 1_554 S
C550 C549 1.396 1_455 S
C550 C551 1.399 . S
C551 H537 0.929 . S
C551 C550 1.399 . S
C551 C552 1.385 . S
C552 H538 0.931 . S
C552 C551 1.385 . S
C552 C553 1.389 . S
C553 C552 1.389 . S
C553 C554 1.387 1_455 S
C554 H539 0.930 . S
C554 C549 1.390 . S
C554 C553 1.387 1_655 S
H555 C567 0.930 . S
H556 C569 0.930 . S
H557 C570 0.930 . S
H558 C574 0.959 . S
H559 C574 0.959 . S
H560 C574 0.961 . S
H561 C575 0.960 . S
H562 C575 0.961 . S
H563 C575 0.959 . S
H564 C578 0.929 . S
H565 C579 0.931 . S
H566 C581 0.930 . S
C567 H555 0.930 . S
C567 C568 1.399 1_565 S
C567 C572 1.399 . S
C568 C567 1.399 1_545 S
C568 C569 1.376 . S
C569 H556 0.930 . S
C569 C568 1.376 . S
C569 C570 1.388 . S
C570 H557 0.930 . S
C570 C569 1.388 . S
C570 C571 1.390 . S
C571 C570 1.390 . S
C571 C572 1.394 1_545 S
C571 C577 1.465 . S
C572 C567 1.399 . S
C572 C571 1.394 1_565 S
C572 C573 1.516 . S
C573 C572 1.516 . S
C573 C574 1.502 . S
C573 C575 1.561 . S
C573 C576 1.526 . S
C574 H558 0.959 . S
C574 H559 0.959 . S
C574 H560 0.961 . S
C574 C573 1.502 . S
C575 H561 0.960 . S
C575 H562 0.961 . S
C575 H563 0.959 . S
C575 C573 1.561 . S
C576 C573 1.526 . S
C576 C577 1.396 1_565 S
C576 C581 1.390 . S
C577 C571 1.465 . S
C577 C576 1.396 1_545 S
C577 C578 1.399 . S
C578 H564 0.929 . S
C578 C577 1.399 . S
C578 C579 1.385 . S
C579 H565 0.931 . S
C579 C578 1.385 . S
C579 C580 1.389 . S
C580 C579 1.389 . S
C580 C581 1.387 1_545 S
C581 H566 0.930 . S
C581 C576 1.390 . S
C581 C580 1.387 1_565 S
H582 C594 0.930 . S
H583 C596 0.930 . S
H584 C597 0.930 . S
H585 C601 0.959 . S
H586 C601 0.959 . S
H587 C601 0.961 1_554 S
H588 C602 0.977 . S
H589 C602 0.961 . S
H590 C602 0.959 . S
H591 C605 0.929 . S
H592 C606 0.931 . S
H593 C608 0.930 . S
C594 H582 0.930 . S
C594 C595 1.399 . S
C594 C599 1.399 . S
C595 C594 1.399 . S
C595 C596 1.376 . S
C596 H583 0.930 . S
C596 C595 1.376 . S
C596 C597 1.388 . S
C597 H584 0.930 . S
C597 C596 1.388 . S
C597 C598 1.390 . S
C598 C597 1.390 . S
C598 C599 1.394 . S
C598 C604 1.465 1_554 S
C599 C594 1.399 . S
C599 C598 1.394 . S
C599 C600 1.516 1_554 S
C600 C599 1.516 1_556 S
C600 C601 1.502 . S
C600 C602 1.561 . S
C600 C603 1.526 . S
C601 H585 0.959 . S
C601 H586 0.959 . S
C601 H587 0.961 1_556 S
C601 C600 1.502 . S
C602 H588 0.977 . S
C602 H589 0.961 . S
C602 H590 0.959 . S
C602 C600 1.561 . S
C603 C600 1.526 . S
C603 C604 1.396 . S
C603 C608 1.390 . S
C604 C598 1.465 1_556 S
C604 C603 1.396 . S
C604 C605 1.399 . S
C605 H591 0.929 . S
C605 C604 1.399 . S
C605 C606 1.385 . S
C606 H592 0.931 . S
C606 C605 1.385 . S
C606 C607 1.389 . S
C607 C606 1.389 . S
C607 C608 1.387 . S
C608 H593 0.930 . S
C608 C603 1.390 . S
C608 C607 1.387 . S
H609 C621 0.930 . S
H610 C623 0.930 . S
H611 C624 0.930 . S
H612 C628 0.959 . S
H613 C628 0.959 . S
H614 C628 0.961 . S
H615 C629 0.960 . S
H616 C629 0.961 . S
H617 C629 0.959 . S
H618 C632 0.929 . S
H619 C633 0.931 . S
H620 C635 0.930 . S
C621 H609 0.930 . S
C621 C622 1.399 . S
C621 C626 1.399 . S
C622 C621 1.399 . S
C622 C623 1.376 . S
C623 H610 0.930 . S
C623 C622 1.376 . S
C623 C624 1.388 . S
C624 H611 0.930 . S
C624 C623 1.388 . S
C624 C625 1.390 . S
C625 C624 1.390 . S
C625 C626 1.394 . S
C625 C631 1.465 . S
C626 C621 1.399 . S
C626 C625 1.394 . S
C626 C627 1.516 . S
C627 C626 1.516 . S
C627 C628 1.502 . S
C627 C629 1.561 . S
C627 C630 1.526 . S
C628 H612 0.959 . S
C628 H613 0.959 . S
C628 H614 0.961 . S
C628 C627 1.502 . S
C629 H615 0.960 . S
C629 H616 0.961 . S
C629 H617 0.959 . S
C629 C627 1.561 . S
C630 C627 1.526 . S
C630 C631 1.396 . S
C630 C635 1.390 . S
C631 C625 1.465 . S
C631 C630 1.396 . S
C631 C632 1.399 . S
C632 H618 0.929 . S
C632 C631 1.399 . S
C632 C633 1.385 . S
C633 H619 0.931 . S
C633 C632 1.385 . S
C633 C634 1.389 . S
C634 C633 1.389 . S
C634 C635 1.387 . S
C635 H620 0.930 . S
C635 C630 1.390 . S
C635 C634 1.387 . S
H636 C648 0.930 . S
H637 C650 0.930 . S
H638 C651 0.930 . S
H639 C655 0.959 . S
H640 C655 0.959 . S
H641 C655 0.961 1_554 S
H642 C656 0.980 1_655 S
H643 C656 0.961 1_655 S
H644 C656 0.959 . S
H645 C659 0.929 . S
H646 C660 0.931 . S
H647 C662 0.930 . S
C648 H636 0.930 . S
C648 C649 1.399 . S
C648 C653 1.399 . S
C649 C648 1.399 . S
C649 C650 1.376 1_655 S
C650 H637 0.930 . S
C650 C649 1.376 1_455 S
C650 C651 1.388 . S
C651 H638 0.930 . S
C651 C650 1.388 . S
C651 C652 1.390 . S
C652 C651 1.390 . S
C652 C653 1.394 1_455 S
C652 C658 1.465 1_554 S
C653 C648 1.399 . S
C653 C652 1.394 1_655 S
C653 C654 1.516 1_554 S
C654 C653 1.516 1_556 S
C654 C655 1.502 . S
C654 C656 1.561 1_655 S
C654 C657 1.526 . S
C655 H639 0.959 . S
C655 H640 0.959 . S
C655 H641 0.961 1_556 S
C655 C654 1.502 . S
C656 H642 0.980 1_455 S
C656 H643 0.961 1_455 S
C656 H644 0.959 . S
C656 C654 1.561 1_455 S
C657 C654 1.526 . S
C657 C658 1.396 1_655 S
C657 C662 1.390 . S
C658 C652 1.465 1_556 S
C658 C657 1.396 1_455 S
C658 C659 1.399 . S
C659 H645 0.929 . S
C659 C658 1.399 . S
C659 C660 1.385 . S
C660 H646 0.931 . S
C660 C659 1.385 . S
C660 C661 1.389 1_455 S
C661 C660 1.389 1_655 S
C661 C662 1.387 . S
C662 H647 0.930 . S
C662 C657 1.390 . S
C662 C661 1.387 . S
H663 C675 0.930 . S
H664 C677 0.930 . S
H665 C678 0.930 . S
H666 C682 0.959 . S
H667 C682 0.959 . S
H668 C682 0.961 . S
H669 C683 0.960 . S
H670 C683 0.961 . S
H671 C683 0.959 . S
H672 C686 0.929 . S
H673 C687 0.931 . S
H674 C689 0.930 . S
C675 H663 0.930 . S
C675 C676 1.399 1_545 S
C675 C680 1.399 . S
C676 C675 1.399 1_565 S
C676 C677 1.376 . S
C677 H664 0.930 . S
C677 C676 1.376 . S
C677 C678 1.388 . S
C678 H665 0.930 . S
C678 C677 1.388 . S
C678 C679 1.390 . S
C679 C678 1.390 . S
C679 C680 1.394 1_565 S
C679 C685 1.465 . S
C680 C675 1.399 . S
C680 C679 1.394 1_545 S
C680 C681 1.516 . S
C681 C680 1.516 . S
C681 C682 1.502 . S
C681 C683 1.561 . S
C681 C684 1.526 . S
C682 H666 0.959 . S
C682 H667 0.959 . S
C682 H668 0.961 . S
C682 C681 1.502 . S
C683 H669 0.960 . S
C683 H670 0.961 . S
C683 H671 0.959 . S
C683 C681 1.561 . S
C684 C681 1.526 . S
C684 C685 1.396 1_545 S
C684 C689 1.390 . S
C685 C679 1.465 . S
C685 C684 1.396 1_565 S
C685 C686 1.399 . S
C686 H672 0.929 . S
C686 C685 1.399 . S
C686 C687 1.385 . S
C687 H673 0.931 . S
C687 C686 1.385 . S
C687 C688 1.389 . S
C688 C687 1.389 . S
C688 C689 1.387 1_565 S
C689 H674 0.930 . S
C689 C684 1.390 . S
C689 C688 1.387 1_545 S
H690 C702 0.930 . S
H691 C704 0.930 . S
H692 C705 0.930 . S
H693 C709 0.959 . S
H694 C709 0.959 1_554 S
H695 C709 0.961 . S
H696 C710 0.960 1_556 S
H697 C710 0.961 . S
H698 C710 0.959 . S
H699 C713 0.929 . S
H700 C714 0.931 . S
H701 C716 0.930 . S
C702 H690 0.930 . S
C702 C703 1.399 . S
C702 C707 1.399 . S
C703 C702 1.399 . S
C703 C704 1.376 . S
C704 H691 0.930 . S
C704 C703 1.376 . S
C704 C705 1.388 . S
C705 H692 0.930 . S
C705 C704 1.388 . S
C705 C706 1.390 . S
C706 C705 1.390 . S
C706 C707 1.394 . S
C706 C712 1.465 1_556 S
C707 C702 1.399 . S
C707 C706 1.394 . S
C707 C708 1.471 1_556 S
C708 C707 1.471 1_554 S
C708 C709 1.494 1_554 S
C708 C710 1.576 . S
C708 C711 1.570 . S
C709 H693 0.959 . S
C709 H694 0.959 1_556 S
C709 H695 0.961 . S
C709 C708 1.494 1_556 S
C710 H696 0.960 1_554 S
C710 H697 0.961 . S
C710 H698 0.959 . S
C710 C708 1.576 . S
C711 C708 1.570 . S
C711 C712 1.396 . S
C711 C716 1.390 . S
C712 C706 1.465 1_554 S
C712 C711 1.396 . S
C712 C713 1.399 . S
C713 H699 0.929 . S
C713 C712 1.399 . S
C713 C714 1.385 . S
C714 H700 0.931 . S
C714 C713 1.385 . S
C714 C715 1.389 . S
C715 C714 1.389 . S
C715 C716 1.387 . S
C716 H701 0.930 . S
C716 C711 1.390 . S
C716 C715 1.387 . S
H717 C729 0.930 . S
H718 C731 0.930 . S
H719 C732 0.930 . S
H720 C736 0.959 . S
H721 C736 0.959 . S
H722 C736 0.961 . S
H723 C737 0.960 . S
H724 C737 0.961 . S
H725 C737 0.959 . S
H726 C740 0.929 . S
H727 C741 0.931 . S
H728 C743 0.930 . S
C729 H717 0.930 . S
C729 C730 1.399 . S
C729 C734 1.399 . S
C730 C729 1.399 . S
C730 C731 1.376 . S
C731 H718 0.930 . S
C731 C730 1.376 . S
C731 C732 1.388 . S
C732 H719 0.930 . S
C732 C731 1.388 . S
C732 C733 1.390 . S
C733 C732 1.390 . S
C733 C734 1.394 . S
C733 C739 1.465 . S
C734 C729 1.399 . S
C734 C733 1.394 . S
C734 C735 1.516 . S
C735 C734 1.516 . S
C735 C736 1.502 . S
C735 C737 1.561 . S
C735 C738 1.526 . S
C736 H720 0.959 . S
C736 H721 0.959 . S
C736 H722 0.961 . S
C736 C735 1.502 . S
C737 H723 0.960 . S
C737 H724 0.961 . S
C737 H725 0.959 . S
C737 C735 1.561 . S
C738 C735 1.526 . S
C738 C739 1.396 . S
C738 C743 1.390 . S
C739 C733 1.465 . S
C739 C738 1.396 . S
C739 C740 1.399 . S
C740 H726 0.929 . S
C740 C739 1.399 . S
C740 C741 1.385 . S
C741 H727 0.931 . S
C741 C740 1.385 . S
C741 C742 1.389 . S
C742 C741 1.389 . S
C742 C743 1.387 . S
C743 H728 0.930 . S
C743 C738 1.390 . S
C743 C742 1.387 . S
H744 C756 0.930 . S
H745 C758 0.930 1_455 S
H746 C759 0.930 . S
H747 C763 0.959 . S
H748 C763 0.959 . S
H749 C763 0.961 . S
H750 C764 0.960 . S
H751 C764 0.961 . S
H752 C764 0.959 . S
H753 C767 0.929 . S
H754 C768 0.931 . S
H755 C770 0.930 . S
C756 H744 0.930 . S
C756 C757 1.399 . S
C756 C761 1.399 . S
C757 C756 1.399 . S
C757 C758 1.376 . S
C758 H745 0.930 1_655 S
C758 C757 1.376 . S
C758 C759 1.388 1_655 S
C759 H746 0.930 . S
C759 C758 1.388 1_455 S
C759 C760 1.387 1_455 S
C760 C759 1.387 1_655 S
C760 C761 1.400 . S
C760 C766 1.463 1_655 S
C761 C756 1.399 . S
C761 C760 1.400 . S
C761 C762 1.516 . S
C762 C761 1.516 . S
C762 C763 1.502 . S
C762 C764 1.561 1_655 S
C762 C765 1.526 . S
C763 H747 0.959 . S
C763 H748 0.959 . S
C763 H749 0.961 . S
C763 C762 1.502 . S
C764 H750 0.960 . S
C764 H751 0.961 . S
C764 H752 0.959 . S
C764 C762 1.561 1_455 S
C765 C762 1.526 . S
C765 C766 1.396 1_655 S
C765 C770 1.390 1_545 S
C766 C760 1.463 1_455 S
C766 C765 1.396 1_455 S
C766 C767 1.399 . S
C767 H753 0.929 . S
C767 C766 1.399 . S
C767 C768 1.385 1_545 S
C768 H754 0.931 . S
C768 C767 1.385 1_565 S
C768 C769 1.389 . S
C769 C768 1.389 . S
C769 C770 1.387 1_455 S
C770 H755 0.930 . S
C770 C765 1.390 1_565 S
C770 C769 1.387 1_655 S
H771 C783 0.930 . S
H772 C785 0.930 . S
H773 C786 0.930 . S
H774 C790 0.959 . S
H775 C790 0.959 . S
H776 C790 0.961 . S
H777 C791 0.960 . S
H778 C791 0.961 . S
H779 C791 0.959 . S
H780 C794 0.929 . S
H781 C795 0.931 . S
H782 C797 0.930 . S
C783 H771 0.930 . S
C783 C784 1.399 . S
C783 C788 1.399 . S
C784 C783 1.399 . S
C784 C785 1.376 . S
C785 H772 0.930 . S
C785 C784 1.376 . S
C785 C786 1.388 . S
C786 H773 0.930 . S
C786 C785 1.388 . S
C786 C787 1.390 . S
C787 C786 1.390 . S
C787 C788 1.394 . S
C787 C793 1.465 . S
C788 C783 1.399 . S
C788 C787 1.394 . S
C788 C789 1.516 1_565 S
C789 C788 1.516 1_545 S
C789 C790 1.502 . S
C789 C791 1.561 1_545 S
C789 C792 1.526 1_545 S
C790 H774 0.959 . S
C790 H775 0.959 . S
C790 H776 0.961 . S
C790 C789 1.502 . S
C791 H777 0.960 . S
C791 H778 0.961 . S
C791 H779 0.959 . S
C791 C789 1.561 1_565 S
C792 C789 1.526 1_565 S
C792 C793 1.396 . S
C792 C797 1.390 1_565 S
C793 C787 1.465 . S
C793 C792 1.396 . S
C793 C794 1.399 . S
C794 H780 0.929 . S
C794 C793 1.399 . S
C794 C795 1.385 . S
C795 H781 0.931 . S
C795 C794 1.385 . S
C795 C796 1.389 1_565 S
C796 C795 1.389 1_545 S
C796 C797 1.387 . S
C797 H782 0.930 . S
C797 C792 1.390 1_545 S
C797 C796 1.387 . S
H798 C810 0.930 . S
H799 C812 0.930 . S
H800 C813 0.930 . S
H801 C817 0.959 . S
H802 C817 0.959 . S
H803 C817 0.961 . S
H804 C818 0.960 . S
H805 C818 0.961 . S
H806 C818 0.959 . S
H807 C821 0.929 . S
H808 C822 0.931 . S
H809 C824 0.930 . S
C810 H798 0.930 . S
C810 C811 1.399 . S
C810 C815 1.399 . S
C811 C810 1.399 . S
C811 C812 1.376 . S
C812 H799 0.930 . S
C812 C811 1.376 . S
C812 C813 1.388 . S
C813 H800 0.930 . S
C813 C812 1.388 . S
C813 C814 1.390 . S
C814 C813 1.390 . S
C814 C815 1.394 . S
C814 C820 1.465 . S
C815 C810 1.399 . S
C815 C814 1.394 . S
C815 C816 1.516 . S
C816 C815 1.516 . S
C816 C817 1.502 . S
C816 C818 1.561 . S
C816 C819 1.526 . S
C817 H801 0.959 . S
C817 H802 0.959 . S
C817 H803 0.961 . S
C817 C816 1.502 . S
C818 H804 0.960 . S
C818 H805 0.961 . S
C818 H806 0.959 . S
C818 C816 1.561 . S
C819 C816 1.526 . S
C819 C820 1.396 . S
C819 C824 1.390 . S
C820 C814 1.465 . S
C820 C819 1.396 . S
C820 C821 1.399 . S
C821 H807 0.929 . S
C821 C820 1.399 . S
C821 C822 1.385 . S
C822 H808 0.931 . S
C822 C821 1.385 . S
C822 C823 1.389 . S
C823 C822 1.389 . S
C823 C824 1.387 . S
C824 H809 0.930 . S
C824 C819 1.390 . S
C824 C823 1.387 . S
H825 C837 0.930 . S
H826 C839 0.930 . S
H827 C840 0.930 . S
H828 C844 0.959 . S
H829 C844 0.959 . S
H830 C844 0.961 . S
H831 C845 0.960 . S
H832 C845 0.961 . S
H833 C845 0.959 . S
H834 C848 0.929 . S
H835 C849 0.931 . S
H836 C851 0.930 . S
C837 H825 0.930 . S
C837 C838 1.399 . S
C837 C842 1.399 . S
C838 C837 1.399 . S
C838 C839 1.376 . S
C839 H826 0.930 . S
C839 C838 1.376 . S
C839 C840 1.388 . S
C840 H827 0.930 . S
C840 C839 1.388 . S
C840 C841 1.390 . S
C841 C840 1.390 . S
C841 C842 1.394 . S
C841 C847 1.465 . S
C842 C837 1.399 . S
C842 C841 1.394 . S
C842 C843 1.516 . S
C843 C842 1.516 . S
C843 C844 1.502 . S
C843 C845 1.561 . S
C843 C846 1.526 . S
C844 H828 0.959 . S
C844 H829 0.959 . S
C844 H830 0.961 . S
C844 C843 1.502 . S
C845 H831 0.960 . S
C845 H832 0.961 . S
C845 H833 0.959 . S
C845 C843 1.561 . S
C846 C843 1.526 . S
C846 C847 1.396 . S
C846 C851 1.390 1_455 S
C847 C841 1.465 . S
C847 C846 1.396 . S
C847 C848 1.399 . S
C848 H834 0.929 . S
C848 C847 1.399 . S
C848 C849 1.385 1_455 S
C849 H835 0.931 . S
C849 C848 1.385 1_655 S
C849 C850 1.389 . S
C850 C849 1.389 . S
C850 C851 1.387 . S
C851 H836 0.930 . S
C851 C846 1.390 1_655 S
C851 C850 1.387 . S
H852 C864 0.930 . S
H853 C866 0.930 . S
H854 C867 0.930 . S
H855 C871 0.959 . S
H856 C871 0.959 . S
H857 C871 0.961 . S
H858 C872 0.960 . S
H859 C872 0.961 . S
H860 C872 0.959 . S
H861 C875 0.932 . S
H862 C876 0.931 . S
H863 C878 0.930 . S
C864 H852 0.930 . S
C864 C865 1.399 1_655 S
C864 C869 1.399 . S
C865 C864 1.399 1_455 S
C865 C866 1.376 . S
C866 H853 0.930 . S
C866 C865 1.376 . S
C866 C867 1.388 . S
C867 H854 0.930 . S
C867 C866 1.388 . S
C867 C868 1.390 . S
C868 C867 1.390 . S
C868 C869 1.394 1_455 S
C868 C874 1.465 1_455 S
C869 C864 1.399 . S
C869 C868 1.394 1_655 S
C869 C870 1.516 . S
C870 C869 1.516 . S
C870 C871 1.502 . S
C870 C872 1.561 1_655 S
C870 C873 1.526 . S
C871 H855 0.959 . S
C871 H856 0.959 . S
C871 H857 0.961 . S
C871 C870 1.502 . S
C872 H858 0.960 . S
C872 H859 0.961 . S
C872 H860 0.959 . S
C872 C870 1.561 1_455 S
C873 C870 1.526 . S
C873 C874 1.396 . S
C873 C878 1.390 . S
C874 C868 1.465 1_655 S
C874 C873 1.396 . S
C874 C875 1.398 1_655 S
C875 H861 0.932 . S
C875 C874 1.398 1_455 S
C875 C876 1.384 1_455 S
C876 H862 0.931 . S
C876 C875 1.384 1_655 S
C876 C877 1.389 . S
C877 C876 1.389 . S
C877 C878 1.387 . S
C878 H863 0.930 . S
C878 C873 1.390 . S
C878 C877 1.387 . S
H879 C891 0.930 . S
H880 C893 0.930 . S
H881 C894 0.930 . S
H882 C898 0.959 . S
H883 C898 0.959 . S
H884 C898 0.961 . S
H885 C899 0.960 . S
H886 C899 0.961 . S
H887 C899 0.959 . S
H888 C902 0.929 . S
H889 C903 0.931 . S
H890 C905 0.930 . S
C891 H879 0.930 . S
C891 C892 1.399 . S
C891 C896 1.399 1_645 S
C892 C891 1.399 . S
C892 C893 1.376 1_545 S
C893 H880 0.930 . S
C893 C892 1.376 1_565 S
C893 C894 1.388 1_655 S
C894 H881 0.930 . S
C894 C893 1.388 1_455 S
C894 C895 1.390 . S
C895 C894 1.390 . S
C895 C896 1.394 . S
C895 C901 1.465 . S
C896 C891 1.399 1_465 S
C896 C895 1.394 . S
C896 C897 1.516 . S
C897 C896 1.516 . S
C897 C898 1.502 1_565 S
C897 C899 1.561 . S
C897 C900 1.526 . S
C898 H882 0.959 . S
C898 H883 0.959 . S
C898 H884 0.961 . S
C898 C897 1.502 1_545 S
C899 H885 0.960 . S
C899 H886 0.961 . S
C899 H887 0.959 . S
C899 C897 1.561 . S
C900 C897 1.526 . S
C900 C901 1.396 . S
C900 C905 1.390 . S
C901 C895 1.465 . S
C901 C900 1.396 . S
C901 C902 1.399 . S
C902 H888 0.929 . S
C902 C901 1.399 . S
C902 C903 1.385 . S
C903 H889 0.931 . S
C903 C902 1.385 . S
C903 C904 1.389 . S
C904 C903 1.389 . S
C904 C905 1.387 . S
C905 H890 0.930 . S
C905 C900 1.390 . S
C905 C904 1.387 . S
H906 C918 0.930 . S
H907 C920 0.930 . S
H908 C921 0.930 . S
H909 C925 0.959 . S
H910 C925 0.959 . S
H911 C925 0.961 . S
H912 C926 0.960 . S
H913 C926 0.961 . S
H914 C926 0.959 . S
H915 C929 0.929 . S
H916 C930 0.931 . S
H917 C932 0.930 . S
C918 H906 0.930 . S
C918 C919 1.399 . S
C918 C923 1.399 . S
C919 C918 1.399 . S
C919 C920 1.376 . S
C920 H907 0.930 . S
C920 C919 1.376 . S
C920 C921 1.388 . S
C921 H908 0.930 . S
C921 C920 1.388 . S
C921 C922 1.390 . S
C922 C921 1.390 . S
C922 C923 1.394 . S
C922 C928 1.465 . S
C923 C918 1.399 . S
C923 C922 1.394 . S
C923 C924 1.516 . S
C924 C923 1.516 . S
C924 C925 1.502 . S
C924 C926 1.561 . S
C924 C927 1.526 . S
C925 H909 0.959 . S
C925 H910 0.959 . S
C925 H911 0.961 . S
C925 C924 1.502 . S
C926 H912 0.960 . S
C926 H913 0.961 . S
C926 H914 0.959 . S
C926 C924 1.561 . S
C927 C924 1.526 . S
C927 C928 1.396 . S
C927 C932 1.390 1_545 S
C928 C922 1.465 . S
C928 C927 1.396 . S
C928 C929 1.399 . S
C929 H915 0.929 . S
C929 C928 1.399 . S
C929 C930 1.385 1_545 S
C930 H916 0.931 . S
C930 C929 1.385 1_565 S
C930 C931 1.389 . S
C931 C930 1.389 . S
C931 C932 1.387 . S
C932 H917 0.930 . S
C932 C927 1.390 1_565 S
C932 C931 1.387 . S
H933 C945 0.930 . S
H934 C947 0.930 . S
H935 C948 0.930 . S
H936 C952 0.959 . S
H937 C952 0.959 . S
H938 C952 0.961 . S
H939 C953 0.960 . S
H940 C953 0.961 . S
H941 C953 0.959 . S
H942 C956 0.929 . S
H943 C957 0.931 . S
H944 C959 0.930 . S
C945 H933 0.930 . S
C945 C946 1.399 . S
C945 C950 1.399 . S
C946 C945 1.399 . S
C946 C947 1.376 . S
C947 H934 0.930 . S
C947 C946 1.376 . S
C947 C948 1.388 . S
C948 H935 0.930 . S
C948 C947 1.388 . S
C948 C949 1.390 . S
C949 C948 1.390 . S
C949 C950 1.394 . S
C949 C955 1.465 . S
C950 C945 1.399 . S
C950 C949 1.394 . S
C950 C951 1.516 . S
C951 C950 1.516 . S
C951 C952 1.502 . S
C951 C953 1.561 . S
C951 C954 1.526 . S
C952 H936 0.959 . S
C952 H937 0.959 . S
C952 H938 0.961 . S
C952 C951 1.502 . S
C953 H939 0.960 . S
C953 H940 0.961 . S
C953 H941 0.959 . S
C953 C951 1.561 . S
C954 C951 1.526 . S
C954 C955 1.396 . S
C954 C959 1.390 . S
C955 C949 1.465 . S
C955 C954 1.396 . S
C955 C956 1.399 . S
C956 H942 0.929 . S
C956 C955 1.399 . S
C956 C957 1.385 . S
C957 H943 0.931 . S
C957 C956 1.385 . S
C957 C958 1.389 . S
C958 C957 1.389 . S
C958 C959 1.387 . S
C959 H944 0.930 . S
C959 C954 1.390 . S
C959 C958 1.387 . S
H960 C972 0.930 . S
H961 C974 0.930 . S
H962 C975 0.930 . S
H963 C979 0.959 . S
H964 C979 0.959 . S
H965 C979 0.961 . S
H966 C980 0.960 . S
H967 C980 0.961 . S
H968 C980 0.959 . S
H969 C983 0.929 . S
H970 C984 0.931 . S
H971 C986 0.930 . S
C972 H960 0.930 . S
C972 C973 1.399 . S
C972 C977 1.399 . S
C973 C972 1.399 . S
C973 C974 1.376 1_455 S
C974 H961 0.930 . S
C974 C973 1.376 1_655 S
C974 C975 1.388 . S
C975 H962 0.930 . S
C975 C974 1.388 . S
C975 C976 1.390 . S
C976 C975 1.390 . S
C976 C977 1.394 1_655 S
C976 C982 1.465 . S
C977 C972 1.399 . S
C977 C976 1.394 1_455 S
C977 C978 1.516 . S
C978 C977 1.516 . S
C978 C979 1.502 . S
C978 C980 1.561 . S
C978 C981 1.526 . S
C979 H963 0.959 . S
C979 H964 0.959 . S
C979 H965 0.961 . S
C979 C978 1.502 . S
C980 H966 0.960 . S
C980 H967 0.961 . S
C980 H968 0.959 . S
C980 C978 1.561 . S
C981 C978 1.526 . S
C981 C982 1.396 1_455 S
C981 C986 1.390 1_565 S
C982 C976 1.465 . S
C982 C981 1.396 1_655 S
C982 C983 1.399 . S
C983 H969 0.929 . S
C983 C982 1.399 . S
C983 C984 1.385 1_565 S
C984 H970 0.931 . S
C984 C983 1.385 1_545 S
C984 C985 1.389 . S
C985 C984 1.389 . S
C985 C986 1.387 1_655 S
C986 H971 0.930 . S
C986 C981 1.390 1_545 S
C986 C985 1.387 1_455 S
H987 C999 0.930 . S
H988 C1001 0.930 . S
H989 C1002 0.930 . S
H990 C1006 0.959 . S
H991 C1006 0.959 . S
H992 C1006 0.961 . S
H993 C1007 0.960 . S
H994 C1007 0.961 . S
H995 C1007 0.959 1_565 S
H996 C1010 0.929 . S
H997 C1011 0.931 . S
H998 C1013 0.930 . S
C999 H987 0.930 . S
C999 C1000 1.399 . S
C999 C1004 1.399 . S
C1000 C999 1.399 . S
C1000 C1001 1.376 1_545 S
C1001 H988 0.930 . S
C1001 C1000 1.376 1_565 S
C1001 C1002 1.388 . S
C1002 H989 0.930 . S
C1002 C1001 1.388 . S
C1002 C1003 1.390 . S
C1003 C1002 1.390 . S
C1003 C1004 1.394 1_565 S
C1003 C1009 1.465 . S
C1004 C999 1.399 . S
C1004 C1003 1.394 1_545 S
C1004 C1005 1.516 . S
C1005 C1004 1.516 . S
C1005 C1006 1.502 . S
C1005 C1007 1.561 . S
C1005 C1008 1.526 . S
C1006 H990 0.959 . S
C1006 H991 0.959 . S
C1006 H992 0.961 . S
C1006 C1005 1.502 . S
C1007 H993 0.960 . S
C1007 H994 0.961 . S
C1007 H995 0.959 1_545 S
C1007 C1005 1.561 . S
C1008 C1005 1.526 . S
C1008 C1009 1.396 1_545 S
C1008 C1013 1.390 . S
C1009 C1003 1.465 . S
C1009 C1008 1.396 1_565 S
C1009 C1010 1.399 . S
C1010 H996 0.929 . S
C1010 C1009 1.399 . S
C1010 C1011 1.385 . S
C1011 H997 0.931 . S
C1011 C1010 1.385 . S
C1011 C1012 1.389 . S
C1012 C1011 1.389 . S
C1012 C1013 1.387 1_565 S
C1013 H998 0.930 . S
C1013 C1008 1.390 . S
C1013 C1012 1.387 1_545 S
H1014 C1026 0.930 . S
H1015 C1028 0.930 . S
H1016 C1029 0.930 . S
H1017 C1033 0.959 . S
H1018 C1033 0.959 . S
H1019 C1033 0.961 . S
H1020 C1034 0.960 . S
H1021 C1034 0.961 . S
H1022 C1034 0.959 . S
H1023 C1037 0.929 . S
H1024 C1038 0.931 . S
H1025 C1040 0.930 . S
C1026 H1014 0.930 . S
C1026 C1027 1.399 . S
C1026 C1031 1.399 . S
C1027 C1026 1.399 . S
C1027 C1028 1.376 . S
C1028 H1015 0.930 . S
C1028 C1027 1.376 . S
C1028 C1029 1.388 . S
C1029 H1016 0.930 . S
C1029 C1028 1.388 . S
C1029 C1030 1.390 . S
C1030 C1029 1.390 . S
C1030 C1031 1.394 . S
C1030 C1036 1.465 . S
C1031 C1026 1.399 . S
C1031 C1030 1.394 . S
C1031 C1032 1.516 . S
C1032 C1031 1.516 . S
C1032 C1033 1.502 . S
C1032 C1034 1.561 . S
C1032 C1035 1.526 . S
C1033 H1017 0.959 . S
C1033 H1018 0.959 . S
C1033 H1019 0.961 . S
C1033 C1032 1.502 . S
C1034 H1020 0.960 . S
C1034 H1021 0.961 . S
C1034 H1022 0.959 . S
C1034 C1032 1.561 . S
C1035 C1032 1.526 . S
C1035 C1036 1.396 . S
C1035 C1040 1.390 . S
C1036 C1030 1.465 . S
C1036 C1035 1.396 . S
C1036 C1037 1.399 . S
C1037 H1023 0.929 . S
C1037 C1036 1.399 . S
C1037 C1038 1.385 . S
C1038 H1024 0.931 . S
C1038 C1037 1.385 . S
C1038 C1039 1.389 . S
C1039 C1038 1.389 . S
C1039 C1040 1.387 . S
C1040 H1025 0.930 . S
C1040 C1035 1.390 . S
C1040 C1039 1.387 . S
H1041 C1053 0.930 . S
H1042 C1055 0.930 . S
H1043 C1056 0.930 . S
H1044 C1060 0.959 . S
H1045 C1060 0.959 . S
H1046 C1060 0.961 . S
H1047 C1061 0.960 . S
H1048 C1061 0.961 . S
H1049 C1061 0.959 . S
H1050 C1064 0.929 . S
H1051 C1065 0.931 . S
H1052 C1067 0.930 . S
C1053 H1041 0.930 . S
C1053 C1054 1.399 . S
C1053 C1058 1.399 . S
C1054 C1053 1.399 . S
C1054 C1055 1.376 . S
C1055 H1042 0.930 . S
C1055 C1054 1.376 . S
C1055 C1056 1.388 . S
C1056 H1043 0.930 . S
C1056 C1055 1.388 . S
C1056 C1057 1.390 . S
C1057 C1056 1.390 . S
C1057 C1058 1.394 . S
C1057 C1063 1.465 . S
C1058 C1053 1.399 . S
C1058 C1057 1.394 . S
C1058 C1059 1.516 . S
C1059 C1058 1.516 . S
C1059 C1060 1.502 . S
C1059 C1061 1.561 . S
C1059 C1062 1.526 . S
C1060 H1044 0.959 . S
C1060 H1045 0.959 . S
C1060 H1046 0.961 . S
C1060 C1059 1.502 . S
C1061 H1047 0.960 . S
C1061 H1048 0.961 . S
C1061 H1049 0.959 . S
C1061 C1059 1.561 . S
C1062 C1059 1.526 . S
C1062 C1063 1.396 . S
C1062 C1067 1.390 1_655 S
C1063 C1057 1.465 . S
C1063 C1062 1.396 . S
C1063 C1064 1.399 . S
C1064 H1050 0.929 . S
C1064 C1063 1.399 . S
C1064 C1065 1.385 1_655 S
C1065 H1051 0.931 . S
C1065 C1064 1.385 1_455 S
C1065 C1066 1.389 . S
C1066 C1065 1.389 . S
C1066 C1067 1.387 . S
C1067 H1052 0.930 . S
C1067 C1062 1.390 1_455 S
C1067 C1066 1.387 . S
H1068 C1080 0.930 . S
H1069 C1082 0.930 . S
H1070 C1083 0.930 . S
H1071 C1087 0.959 . S
H1072 C1087 0.959 . S
H1073 C1087 0.961 . S
H1074 C1088 0.960 . S
H1075 C1088 0.961 . S
H1076 C1088 0.959 . S
H1077 C1091 0.929 . S
H1078 C1092 0.931 . S
H1079 C1094 0.930 . S
C1080 H1068 0.930 . S
C1080 C1081 1.399 . S
C1080 C1085 1.399 . S
C1081 C1080 1.399 . S
C1081 C1082 1.376 . S
C1082 H1069 0.930 . S
C1082 C1081 1.376 . S
C1082 C1083 1.388 . S
C1083 H1070 0.930 . S
C1083 C1082 1.388 . S
C1083 C1084 1.390 . S
C1084 C1083 1.390 . S
C1084 C1085 1.394 . S
C1084 C1090 1.465 . S
C1085 C1080 1.399 . S
C1085 C1084 1.394 . S
C1085 C1086 1.516 1_455 S
C1086 C1085 1.516 1_655 S
C1086 C1087 1.502 . S
C1086 C1088 1.561 1_655 S
C1086 C1089 1.525 1_655 S
C1087 H1071 0.959 . S
C1087 H1072 0.959 . S
C1087 H1073 0.961 . S
C1087 C1086 1.502 . S
C1088 H1074 0.960 . S
C1088 H1075 0.961 . S
C1088 H1076 0.959 . S
C1088 C1086 1.561 1_455 S
C1089 C1086 1.525 1_455 S
C1089 C1090 1.401 . S
C1089 C1094 1.386 1_455 S
C1090 C1084 1.465 . S
C1090 C1089 1.401 . S
C1090 C1091 1.399 . S
C1091 H1077 0.929 . S
C1091 C1090 1.399 . S
C1091 C1092 1.385 . S
C1092 H1078 0.931 . S
C1092 C1091 1.385 . S
C1092 C1093 1.389 1_455 S
C1093 C1092 1.389 1_655 S
C1093 C1094 1.387 . S
C1094 H1079 0.930 . S
C1094 C1089 1.386 1_655 S
C1094 C1093 1.387 . S
H1095 C1107 0.930 . S
H1096 C1109 0.933 . S
H1097 C1110 0.930 . S
H1098 C1114 0.959 . S
H1099 C1114 0.959 . S
H1100 C1114 0.961 . S
H1101 C1115 0.960 1_545 S
H1102 C1115 0.961 1_545 S
H1103 C1115 0.959 . S
H1104 C1118 0.929 . S
H1105 C1119 0.931 . S
H1106 C1121 0.930 . S
C1107 H1095 0.930 . S
C1107 C1108 1.399 . S
C1107 C1112 1.399 . S
C1108 C1107 1.399 . S
C1108 C1109 1.371 1_545 S
C1109 H1096 0.933 . S
C1109 C1108 1.371 1_565 S
C1109 C1110 1.391 . S
C1110 H1097 0.930 . S
C1110 C1109 1.391 . S
C1110 C1111 1.394 . S
C1111 C1110 1.394 . S
C1111 C1112 1.387 1_565 S
C1111 C1117 1.467 . S
C1112 C1107 1.399 . S
C1112 C1111 1.387 1_545 S
C1112 C1113 1.516 . S
C1113 C1112 1.516 . S
C1113 C1114 1.502 . S
C1113 C1115 1.561 1_545 S
C1113 C1116 1.526 . S
C1114 H1098 0.959 . S
C1114 H1099 0.959 . S
C1114 H1100 0.961 . S
C1114 C1113 1.502 . S
C1115 H1101 0.960 1_565 S
C1115 H1102 0.961 1_565 S
C1115 H1103 0.959 . S
C1115 C1113 1.561 1_565 S
C1116 C1113 1.526 . S
C1116 C1117 1.396 1_545 S
C1116 C1121 1.390 1_655 S
C1117 C1111 1.467 . S
C1117 C1116 1.396 1_565 S
C1117 C1118 1.399 . S
C1118 H1104 0.929 . S
C1118 C1117 1.399 . S
C1118 C1119 1.385 1_655 S
C1119 H1105 0.931 . S
C1119 C1118 1.385 1_455 S
C1119 C1120 1.389 . S
C1120 C1119 1.389 . S
C1120 C1121 1.387 1_565 S
C1121 H1106 0.930 . S
C1121 C1116 1.390 1_455 S
C1121 C1120 1.387 1_545 S
H1122 C1134 0.930 . S
H1123 C1136 0.930 . S
H1124 C1137 0.930 . S
H1125 C1141 0.959 . S
H1126 C1141 0.959 . S
H1127 C1141 0.961 . S
H1128 C1142 0.960 . S
H1129 C1142 0.961 . S
H1130 C1142 0.959 . S
H1131 C1145 0.929 . S
H1132 C1146 0.931 . S
H1133 C1148 0.930 . S
C1134 H1122 0.930 . S
C1134 C1135 1.399 . S
C1134 C1139 1.399 . S
C1135 C1134 1.399 . S
C1135 C1136 1.376 . S
C1136 H1123 0.930 . S
C1136 C1135 1.376 . S
C1136 C1137 1.388 . S
C1137 H1124 0.930 . S
C1137 C1136 1.388 . S
C1137 C1138 1.390 . S
C1138 C1137 1.390 . S
C1138 C1139 1.394 . S
C1138 C1144 1.465 . S
C1139 C1134 1.399 . S
C1139 C1138 1.394 . S
C1139 C1140 1.516 . S
C1140 C1139 1.516 . S
C1140 C1141 1.502 . S
C1140 C1142 1.561 . S
C1140 C1143 1.526 . S
C1141 H1125 0.959 . S
C1141 H1126 0.959 . S
C1141 H1127 0.961 . S
C1141 C1140 1.502 . S
C1142 H1128 0.960 . S
C1142 H1129 0.961 . S
C1142 H1130 0.959 . S
C1142 C1140 1.561 . S
C1143 C1140 1.526 . S
C1143 C1144 1.396 . S
C1143 C1148 1.390 1_565 S
C1144 C1138 1.465 . S
C1144 C1143 1.396 . S
C1144 C1145 1.399 . S
C1145 H1131 0.929 . S
C1145 C1144 1.399 . S
C1145 C1146 1.385 1_565 S
C1146 H1132 0.931 . S
C1146 C1145 1.385 1_545 S
C1146 C1147 1.389 . S
C1147 C1146 1.389 . S
C1147 C1148 1.387 . S
C1148 H1133 0.930 . S
C1148 C1143 1.390 1_545 S
C1148 C1147 1.387 . S
H1149 C1161 0.930 . S
H1150 C1163 0.930 . S
H1151 C1164 0.930 . S
H1152 C1168 0.959 . S
H1153 C1168 0.959 . S
H1154 C1168 0.961 . S
H1155 C1169 0.960 . S
H1156 C1169 0.961 . S
H1157 C1169 0.959 . S
H1158 C1172 0.929 . S
H1159 C1173 0.931 . S
H1160 C1175 0.930 . S
C1161 H1149 0.930 . S
C1161 C1162 1.399 . S
C1161 C1166 1.399 . S
C1162 C1161 1.399 . S
C1162 C1163 1.376 . S
C1163 H1150 0.930 . S
C1163 C1162 1.376 . S
C1163 C1164 1.388 . S
C1164 H1151 0.930 . S
C1164 C1163 1.388 . S
C1164 C1165 1.390 . S
C1165 C1164 1.390 . S
C1165 C1166 1.394 . S
C1165 C1171 1.465 . S
C1166 C1161 1.399 . S
C1166 C1165 1.394 . S
C1166 C1167 1.516 . S
C1167 C1166 1.516 . S
C1167 C1168 1.502 . S
C1167 C1169 1.561 . S
C1167 C1170 1.526 . S
C1168 H1152 0.959 . S
C1168 H1153 0.959 . S
C1168 H1154 0.961 . S
C1168 C1167 1.502 . S
C1169 H1155 0.960 . S
C1169 H1156 0.961 . S
C1169 H1157 0.959 . S
C1169 C1167 1.561 . S
C1170 C1167 1.526 . S
C1170 C1171 1.396 . S
C1170 C1175 1.390 . S
C1171 C1165 1.465 . S
C1171 C1170 1.396 . S
C1171 C1172 1.399 . S
C1172 H1158 0.929 . S
C1172 C1171 1.399 . S
C1172 C1173 1.385 . S
C1173 H1159 0.931 . S
C1173 C1172 1.385 . S
C1173 C1174 1.389 . S
C1174 C1173 1.389 . S
C1174 C1175 1.387 . S
C1175 H1160 0.930 . S
C1175 C1170 1.390 . S
C1175 C1174 1.387 . S
H1176 C1188 0.930 . S
H1177 C1190 0.930 . S
H1178 C1191 0.930 . S
H1179 C1195 0.959 . S
H1180 C1195 0.959 . S
H1181 C1195 0.961 . S
H1182 C1196 0.960 . S
H1183 C1196 0.961 . S
H1184 C1196 0.959 . S
H1185 C1199 0.929 1_655 S
H1186 C1200 0.931 1_655 S
H1187 C1202 0.930 . S
C1188 H1176 0.930 . S
C1188 C1189 1.399 . S
C1188 C1193 1.399 . S
C1189 C1188 1.399 . S
C1189 C1190 1.376 . S
C1190 H1177 0.930 . S
C1190 C1189 1.376 . S
C1190 C1191 1.388 . S
C1191 H1178 0.930 . S
C1191 C1190 1.388 . S
C1191 C1192 1.390 . S
C1192 C1191 1.390 . S
C1192 C1193 1.394 . S
C1192 C1198 1.465 . S
C1193 C1188 1.399 . S
C1193 C1192 1.394 . S
C1193 C1194 1.516 . S
C1194 C1193 1.516 . S
C1194 C1195 1.502 . S
C1194 C1196 1.561 . S
C1194 C1197 1.526 . S
C1195 H1179 0.959 . S
C1195 H1180 0.959 . S
C1195 H1181 0.961 . S
C1195 C1194 1.502 . S
C1196 H1182 0.960 . S
C1196 H1183 0.961 . S
C1196 H1184 0.959 . S
C1196 C1194 1.561 . S
C1197 C1194 1.526 . S
C1197 C1198 1.396 . S
C1197 C1202 1.390 . S
C1198 C1192 1.465 . S
C1198 C1197 1.396 . S
C1198 C1199 1.399 . S
C1199 H1185 0.929 1_455 S
C1199 C1198 1.399 . S
C1199 C1200 1.385 . S
C1200 H1186 0.931 1_455 S
C1200 C1199 1.385 . S
C1200 C1201 1.389 . S
C1201 C1200 1.389 . S
C1201 C1202 1.387 . S
C1202 H1187 0.930 . S
C1202 C1197 1.390 . S
C1202 C1201 1.387 . S
H1203 C1215 0.930 . S
H1204 C1217 0.930 . S
H1205 C1218 0.930 . S
H1206 C1222 0.959 . S
H1207 C1222 0.959 . S
H1208 C1222 0.961 . S
H1209 C1223 0.960 . S
H1210 C1223 0.961 . S
H1211 C1223 0.959 . S
H1212 C1226 0.929 1_655 S
H1213 C1227 0.931 1_655 S
H1214 C1229 0.930 . S
C1215 H1203 0.930 . S
C1215 C1216 1.399 . S
C1215 C1220 1.399 . S
C1216 C1215 1.399 . S
C1216 C1217 1.376 . S
C1217 H1204 0.930 . S
C1217 C1216 1.376 . S
C1217 C1218 1.388 . S
C1218 H1205 0.930 . S
C1218 C1217 1.388 . S
C1218 C1219 1.390 . S
C1219 C1218 1.390 . S
C1219 C1220 1.394 . S
C1219 C1225 1.465 . S
C1220 C1215 1.399 . S
C1220 C1219 1.394 . S
C1220 C1221 1.516 . S
C1221 C1220 1.516 . S
C1221 C1222 1.502 . S
C1221 C1223 1.561 . S
C1221 C1224 1.526 . S
C1222 H1206 0.959 . S
C1222 H1207 0.959 . S
C1222 H1208 0.961 . S
C1222 C1221 1.502 . S
C1223 H1209 0.960 . S
C1223 H1210 0.961 . S
C1223 H1211 0.959 . S
C1223 C1221 1.561 . S
C1224 C1221 1.526 . S
C1224 C1225 1.396 . S
C1224 C1229 1.390 . S
C1225 C1219 1.465 . S
C1225 C1224 1.396 . S
C1225 C1226 1.399 . S
C1226 H1212 0.929 1_455 S
C1226 C1225 1.399 . S
C1226 C1227 1.385 . S
C1227 H1213 0.931 1_455 S
C1227 C1226 1.385 . S
C1227 C1228 1.389 . S
C1228 C1227 1.389 . S
C1228 C1229 1.387 . S
C1229 H1214 0.930 . S
C1229 C1224 1.390 . S
C1229 C1228 1.387 . S
H1230 C1242 0.930 1_565 S
H1231 C1244 0.930 . S
H1232 C1245 0.930 . S
H1233 C1249 0.959 . S
H1234 C1249 0.960 . S
H1235 C1249 0.961 1_565 S
H1236 C1250 0.960 1_565 S
H1237 C1250 0.961 . S
H1238 C1250 0.959 . S
H1239 C1253 0.929 . S
H1240 C1254 0.931 . S
H1241 C1256 0.930 . S
C1242 H1230 0.930 1_545 S
C1242 C1243 1.399 . S
C1242 C1247 1.399 . S
C1243 C1242 1.399 . S
C1243 C1244 1.376 . S
C1244 H1231 0.930 . S
C1244 C1243 1.376 . S
C1244 C1245 1.388 . S
C1245 H1232 0.930 . S
C1245 C1244 1.388 . S
C1245 C1246 1.390 . S
C1246 C1245 1.390 . S
C1246 C1247 1.394 . S
C1246 C1252 1.465 . S
C1247 C1242 1.399 . S
C1247 C1246 1.394 . S
C1247 C1248 1.516 . S
C1248 C1247 1.516 . S
C1248 C1249 1.502 . S
C1248 C1250 1.561 . S
C1248 C1251 1.526 . S
C1249 H1233 0.959 . S
C1249 H1234 0.960 . S
C1249 H1235 0.961 1_545 S
C1249 C1248 1.502 . S
C1250 H1236 0.960 1_545 S
C1250 H1237 0.961 . S
C1250 H1238 0.959 . S
C1250 C1248 1.561 . S
C1251 C1248 1.526 . S
C1251 C1252 1.396 . S
C1251 C1256 1.390 . S
C1252 C1246 1.465 . S
C1252 C1251 1.396 . S
C1252 C1253 1.399 . S
C1253 H1239 0.929 . S
C1253 C1252 1.399 . S
C1253 C1254 1.385 . S
C1254 H1240 0.931 . S
C1254 C1253 1.385 . S
C1254 C1255 1.389 . S
C1255 C1254 1.389 . S
C1255 C1256 1.387 . S
C1256 H1241 0.930 . S
C1256 C1251 1.390 . S
C1256 C1255 1.387 . S
H1257 C1269 0.930 . S
H1258 C1271 0.930 . S
H1259 C1272 0.930 . S
H1260 C1276 0.959 . S
H1261 C1276 0.959 . S
H1262 C1276 0.961 . S
H1263 C1277 0.960 . S
H1264 C1277 0.961 . S
H1265 C1277 0.959 . S
H1266 C1280 0.929 . S
H1267 C1281 0.931 . S
H1268 C1283 0.930 . S
C1269 H1257 0.930 . S
C1269 C1270 1.399 . S
C1269 C1274 1.399 . S
C1270 C1269 1.399 . S
C1270 C1271 1.376 . S
C1271 H1258 0.930 . S
C1271 C1270 1.376 . S
C1271 C1272 1.388 . S
C1272 H1259 0.930 . S
C1272 C1271 1.388 . S
C1272 C1273 1.390 . S
C1273 C1272 1.390 . S
C1273 C1274 1.394 . S
C1273 C1279 1.465 . S
C1274 C1269 1.399 . S
C1274 C1273 1.394 . S
C1274 C1275 1.516 . S
C1275 C1274 1.516 . S
C1275 C1276 1.502 . S
C1275 C1277 1.561 . S
C1275 C1278 1.526 . S
C1276 H1260 0.959 . S
C1276 H1261 0.959 . S
C1276 H1262 0.961 . S
C1276 C1275 1.502 . S
C1277 H1263 0.960 . S
C1277 H1264 0.961 . S
C1277 H1265 0.959 . S
C1277 C1275 1.561 . S
C1278 C1275 1.526 . S
C1278 C1279 1.396 . S
C1278 C1283 1.390 . S
C1279 C1273 1.465 . S
C1279 C1278 1.396 . S
C1279 C1280 1.399 . S
C1280 H1266 0.929 . S
C1280 C1279 1.399 . S
C1280 C1281 1.385 . S
C1281 H1267 0.931 . S
C1281 C1280 1.385 . S
C1281 C1282 1.389 . S
C1282 C1281 1.389 . S
C1282 C1283 1.387 . S
C1283 H1268 0.930 . S
C1283 C1278 1.390 . S
C1283 C1282 1.387 . S
H1284 C1296 0.930 . S
H1285 C1298 0.930 . S
H1286 C1299 0.930 . S
H1287 C1303 0.959 . S
H1288 C1303 0.959 . S
H1289 C1303 0.961 . S
H1290 C1304 0.960 1_455 S
H1291 C1304 0.961 . S
H1292 C1304 0.959 . S
H1293 C1307 0.929 . S
H1294 C1308 0.931 . S
H1295 C1310 0.930 . S
C1296 H1284 0.930 . S
C1296 C1297 1.399 . S
C1296 C1301 1.399 . S
C1297 C1296 1.399 . S
C1297 C1298 1.376 . S
C1298 H1285 0.930 . S
C1298 C1297 1.376 . S
C1298 C1299 1.388 . S
C1299 H1286 0.930 . S
C1299 C1298 1.388 . S
C1299 C1300 1.390 . S
C1300 C1299 1.390 . S
C1300 C1301 1.394 . S
C1300 C1306 1.465 . S
C1301 C1296 1.399 . S
C1301 C1300 1.394 . S
C1301 C1302 1.516 . S
C1302 C1301 1.516 . S
C1302 C1303 1.502 . S
C1302 C1304 1.561 . S
C1302 C1305 1.526 . S
C1303 H1287 0.959 . S
C1303 H1288 0.959 . S
C1303 H1289 0.961 . S
C1303 C1302 1.502 . S
C1304 H1290 0.960 1_655 S
C1304 H1291 0.961 . S
C1304 H1292 0.959 . S
C1304 C1302 1.561 . S
C1305 C1302 1.526 . S
C1305 C1306 1.396 . S
C1305 C1310 1.390 . S
C1306 C1300 1.465 . S
C1306 C1305 1.396 . S
C1306 C1307 1.399 . S
C1307 H1293 0.929 . S
C1307 C1306 1.399 . S
C1307 C1308 1.385 . S
C1308 H1294 0.931 . S
C1308 C1307 1.385 . S
C1308 C1309 1.389 . S
C1309 C1308 1.389 . S
C1309 C1310 1.387 . S
C1310 H1295 0.930 . S
C1310 C1305 1.390 . S
C1310 C1309 1.387 . S
H1311 C1323 0.930 . S
H1312 C1325 0.930 . S
H1313 C1326 0.930 . S
H1314 C1330 0.959 . S
H1315 C1330 0.959 1_545 S
H1316 C1330 0.961 . S
H1317 C1331 0.960 . S
H1318 C1331 0.961 1_545 S
H1319 C1331 0.959 . S
H1320 C1334 0.929 . S
H1321 C1335 0.931 . S
H1322 C1337 0.930 1_545 S
C1323 H1311 0.930 . S
C1323 C1324 1.399 . S
C1323 C1328 1.399 . S
C1324 C1323 1.399 . S
C1324 C1325 1.376 . S
C1325 H1312 0.930 . S
C1325 C1324 1.376 . S
C1325 C1326 1.388 . S
C1326 H1313 0.930 . S
C1326 C1325 1.388 . S
C1326 C1327 1.390 . S
C1327 C1326 1.390 . S
C1327 C1328 1.394 . S
C1327 C1333 1.465 . S
C1328 C1323 1.399 . S
C1328 C1327 1.394 . S
C1328 C1329 1.516 . S
C1329 C1328 1.516 . S
C1329 C1330 1.502 . S
C1329 C1331 1.561 . S
C1329 C1332 1.526 . S
C1330 H1314 0.959 . S
C1330 H1315 0.959 1_565 S
C1330 H1316 0.961 . S
C1330 C1329 1.502 . S
C1331 H1317 0.960 . S
C1331 H1318 0.961 1_565 S
C1331 H1319 0.959 . S
C1331 C1329 1.561 . S
C1332 C1329 1.526 . S
C1332 C1333 1.396 . S
C1332 C1337 1.390 . S
C1333 C1327 1.465 . S
C1333 C1332 1.396 . S
C1333 C1334 1.399 . S
C1334 H1320 0.929 . S
C1334 C1333 1.399 . S
C1334 C1335 1.385 . S
C1335 H1321 0.931 . S
C1335 C1334 1.385 . S
C1335 C1336 1.389 . S
C1336 C1335 1.389 . S
C1336 C1337 1.387 . S
C1337 H1322 0.930 1_565 S
C1337 C1332 1.390 . S
C1337 C1336 1.387 . S
H1338 C1350 0.930 . S
H1339 C1352 0.930 . S
H1340 C1353 0.930 . S
H1341 C1357 0.959 . S
H1342 C1357 0.959 . S
H1343 C1357 0.961 . S
H1344 C1358 0.960 . S
H1345 C1358 0.961 . S
H1346 C1358 0.959 . S
H1347 C1361 0.929 . S
H1348 C1362 0.931 1_545 S
H1349 C1364 0.930 . S
C1350 H1338 0.930 . S
C1350 C1351 1.399 . S
C1350 C1355 1.399 . S
C1351 C1350 1.399 . S
C1351 C1352 1.376 . S
C1352 H1339 0.930 . S
C1352 C1351 1.376 . S
C1352 C1353 1.388 . S
C1353 H1340 0.930 . S
C1353 C1352 1.388 . S
C1353 C1354 1.390 . S
C1354 C1353 1.390 . S
C1354 C1355 1.394 . S
C1354 C1360 1.465 . S
C1355 C1350 1.399 . S
C1355 C1354 1.394 . S
C1355 C1356 1.516 . S
C1356 C1355 1.516 . S
C1356 C1357 1.502 . S
C1356 C1358 1.561 . S
C1356 C1359 1.526 . S
C1357 H1341 0.959 . S
C1357 H1342 0.959 . S
C1357 H1343 0.961 . S
C1357 C1356 1.502 . S
C1358 H1344 0.960 . S
C1358 H1345 0.961 . S
C1358 H1346 0.959 . S
C1358 C1356 1.561 . S
C1359 C1356 1.526 . S
C1359 C1360 1.396 . S
C1359 C1364 1.390 . S
C1360 C1354 1.465 . S
C1360 C1359 1.396 . S
C1360 C1361 1.399 . S
C1361 H1347 0.929 . S
C1361 C1360 1.399 . S
C1361 C1362 1.385 . S
C1362 H1348 0.931 1_565 S
C1362 C1361 1.385 . S
C1362 C1363 1.389 . S
C1363 C1362 1.389 . S
C1363 C1364 1.387 . S
C1364 H1349 0.930 . S
C1364 C1359 1.390 . S
C1364 C1363 1.387 . S
H1365 C1377 0.930 . S
H1366 C1379 0.930 . S
H1367 C1380 0.930 . S
H1368 C1384 0.959 . S
H1369 C1384 0.959 . S
H1370 C1384 0.961 . S
H1371 C1385 0.960 . S
H1372 C1385 0.961 . S
H1373 C1385 0.959 . S
H1374 C1388 0.929 . S
H1375 C1389 0.931 . S
H1376 C1391 0.930 . S
C1377 H1365 0.930 . S
C1377 C1378 1.399 . S
C1377 C1382 1.399 . S
C1378 C1377 1.399 . S
C1378 C1379 1.376 . S
C1379 H1366 0.930 . S
C1379 C1378 1.376 . S
C1379 C1380 1.388 . S
C1380 H1367 0.930 . S
C1380 C1379 1.388 . S
C1380 C1381 1.390 . S
C1381 C1380 1.390 . S
C1381 C1382 1.394 . S
C1381 C1387 1.465 . S
C1382 C1377 1.399 . S
C1382 C1381 1.394 . S
C1382 C1383 1.516 . S
C1383 C1382 1.516 . S
C1383 C1384 1.502 . S
C1383 C1385 1.561 . S
C1383 C1386 1.526 . S
C1384 H1368 0.959 . S
C1384 H1369 0.959 . S
C1384 H1370 0.961 . S
C1384 C1383 1.502 . S
C1385 H1371 0.960 . S
C1385 H1372 0.961 . S
C1385 H1373 0.959 . S
C1385 C1383 1.561 . S
C1386 C1383 1.526 . S
C1386 C1387 1.396 . S
C1386 C1391 1.390 . S
C1387 C1381 1.465 . S
C1387 C1386 1.396 . S
C1387 C1388 1.399 . S
C1388 H1374 0.929 . S
C1388 C1387 1.399 . S
C1388 C1389 1.385 . S
C1389 H1375 0.931 . S
C1389 C1388 1.385 . S
C1389 C1390 1.389 . S
C1390 C1389 1.389 . S
C1390 C1391 1.387 . S
C1391 H1376 0.930 . S
C1391 C1386 1.390 . S
C1391 C1390 1.387 . S
H1392 C1404 0.930 . S
H1393 C1406 0.930 . S
H1394 C1407 0.930 . S
H1395 C1411 0.959 . S
H1396 C1411 0.959 . S
H1397 C1411 0.961 . S
H1398 C1412 0.960 . S
H1399 C1412 0.961 . S
H1400 C1412 0.959 . S
H1401 C1415 0.929 . S
H1402 C1416 0.931 . S
H1403 C1418 0.930 . S
C1404 H1392 0.930 . S
C1404 C1405 1.399 . S
C1404 C1409 1.399 . S
C1405 C1404 1.399 . S
C1405 C1406 1.376 . S
C1406 H1393 0.930 . S
C1406 C1405 1.376 . S
C1406 C1407 1.388 . S
C1407 H1394 0.930 . S
C1407 C1406 1.388 . S
C1407 C1408 1.390 . S
C1408 C1407 1.390 . S
C1408 C1409 1.394 . S
C1408 C1414 1.465 . S
C1409 C1404 1.399 . S
C1409 C1408 1.394 . S
C1409 C1410 1.516 . S
C1410 C1409 1.516 . S
C1410 C1411 1.502 . S
C1410 C1412 1.561 . S
C1410 C1413 1.526 . S
C1411 H1395 0.959 . S
C1411 H1396 0.959 . S
C1411 H1397 0.961 . S
C1411 C1410 1.502 . S
C1412 H1398 0.960 . S
C1412 H1399 0.961 . S
C1412 H1400 0.959 . S
C1412 C1410 1.561 . S
C1413 C1410 1.526 . S
C1413 C1414 1.396 . S
C1413 C1418 1.390 . S
C1414 C1408 1.465 . S
C1414 C1413 1.396 . S
C1414 C1415 1.399 . S
C1415 H1401 0.929 . S
C1415 C1414 1.399 . S
C1415 C1416 1.385 . S
C1416 H1402 0.931 . S
C1416 C1415 1.385 . S
C1416 C1417 1.389 . S
C1417 C1416 1.389 . S
C1417 C1418 1.387 . S
C1418 H1403 0.930 . S
C1418 C1413 1.390 . S
C1418 C1417 1.387 . S
H1419 C1431 0.930 . S
H1420 C1433 0.930 . S
H1421 C1434 0.930 . S
H1422 C1438 0.959 . S
H1423 C1438 0.959 . S
H1424 C1438 0.961 . S
H1425 C1439 0.960 . S
H1426 C1439 0.961 . S
H1427 C1439 0.959 . S
H1428 C1442 0.929 . S
H1429 C1443 0.931 . S
H1430 C1445 0.930 . S
C1431 H1419 0.930 . S
C1431 C1432 1.399 . S
C1431 C1436 1.399 . S
C1432 C1431 1.399 . S
C1432 C1433 1.376 . S
C1433 H1420 0.930 . S
C1433 C1432 1.376 . S
C1433 C1434 1.388 . S
C1434 H1421 0.930 . S
C1434 C1433 1.388 . S
C1434 C1435 1.390 . S
C1435 C1434 1.390 . S
C1435 C1436 1.394 . S
C1435 C1441 1.465 . S
C1436 C1431 1.399 . S
C1436 C1435 1.394 . S
C1436 C1437 1.516 . S
C1437 C1436 1.516 . S
C1437 C1438 1.502 . S
C1437 C1439 1.561 . S
C1437 C1440 1.526 . S
C1438 H1422 0.959 . S
C1438 H1423 0.959 . S
C1438 H1424 0.961 . S
C1438 C1437 1.502 . S
C1439 H1425 0.960 . S
C1439 H1426 0.961 . S
C1439 H1427 0.959 . S
C1439 C1437 1.561 . S
C1440 C1437 1.526 . S
C1440 C1441 1.396 . S
C1440 C1445 1.390 . S
C1441 C1435 1.465 . S
C1441 C1440 1.396 . S
C1441 C1442 1.399 . S
C1442 H1428 0.929 . S
C1442 C1441 1.399 . S
C1442 C1443 1.385 . S
C1443 H1429 0.931 . S
C1443 C1442 1.385 . S
C1443 C1444 1.389 . S
C1444 C1443 1.389 . S
C1444 C1445 1.387 . S
C1445 H1430 0.930 . S
C1445 C1440 1.390 . S
C1445 C1444 1.387 . S
H1446 C1458 0.930 . S
H1447 C1460 0.930 . S
H1448 C1461 0.930 . S
H1449 C1465 0.959 . S
H1450 C1465 0.959 . S
H1451 C1465 0.961 . S
H1452 C1466 0.960 . S
H1453 C1466 0.961 . S
H1454 C1466 0.959 . S
H1455 C1469 0.929 . S
H1456 C1470 0.931 . S
H1457 C1472 0.930 . S
C1458 H1446 0.930 . S
C1458 C1459 1.399 . S
C1458 C1463 1.399 . S
C1459 C1458 1.399 . S
C1459 C1460 1.376 . S
C1460 H1447 0.930 . S
C1460 C1459 1.376 . S
C1460 C1461 1.388 . S
C1461 H1448 0.930 . S
C1461 C1460 1.388 . S
C1461 C1462 1.390 . S
C1462 C1461 1.390 . S
C1462 C1463 1.394 . S
C1462 C1468 1.465 . S
C1463 C1458 1.399 . S
C1463 C1462 1.394 . S
C1463 C1464 1.516 . S
C1464 C1463 1.516 . S
C1464 C1465 1.502 . S
C1464 C1466 1.561 . S
C1464 C1467 1.526 . S
C1465 H1449 0.959 . S
C1465 H1450 0.959 . S
C1465 H1451 0.961 . S
C1465 C1464 1.502 . S
C1466 H1452 0.960 . S
C1466 H1453 0.961 . S
C1466 H1454 0.959 . S
C1466 C1464 1.561 . S
C1467 C1464 1.526 . S
C1467 C1468 1.396 . S
C1467 C1472 1.390 . S
C1468 C1462 1.465 . S
C1468 C1467 1.396 . S
C1468 C1469 1.399 . S
C1469 H1455 0.929 . S
C1469 C1468 1.399 . S
C1469 C1470 1.385 . S
C1470 H1456 0.931 . S
C1470 C1469 1.385 . S
C1470 C1471 1.389 . S
C1471 C1470 1.389 . S
C1471 C1472 1.387 . S
C1472 H1457 0.930 . S
C1472 C1467 1.390 . S
C1472 C1471 1.387 . S
H1473 C1485 0.930 . S
H1474 C1487 0.930 . S
H1475 C1488 0.930 . S
H1476 C1492 0.959 . S
H1477 C1492 0.959 . S
H1478 C1492 0.961 . S
H1479 C1493 0.960 . S
H1480 C1493 0.961 . S
H1481 C1493 0.959 . S
H1482 C1496 0.929 . S
H1483 C1497 0.931 . S
H1484 C1499 0.930 . S
C1485 H1473 0.930 . S
C1485 C1486 1.399 . S
C1485 C1490 1.399 . S
C1486 C1485 1.399 . S
C1486 C1487 1.376 . S
C1487 H1474 0.930 . S
C1487 C1486 1.376 . S
C1487 C1488 1.388 . S
C1488 H1475 0.930 . S
C1488 C1487 1.388 . S
C1488 C1489 1.390 . S
C1489 C1488 1.390 . S
C1489 C1490 1.394 . S
C1489 C1495 1.465 . S
C1490 C1485 1.399 . S
C1490 C1489 1.394 . S
C1490 C1491 1.516 . S
C1491 C1490 1.516 . S
C1491 C1492 1.502 . S
C1491 C1493 1.561 . S
C1491 C1494 1.526 . S
C1492 H1476 0.959 . S
C1492 H1477 0.959 . S
C1492 H1478 0.961 . S
C1492 C1491 1.502 . S
C1493 H1479 0.960 . S
C1493 H1480 0.961 . S
C1493 H1481 0.959 . S
C1493 C1491 1.561 . S
C1494 C1491 1.526 . S
C1494 C1495 1.396 . S
C1494 C1499 1.390 . S
C1495 C1489 1.465 . S
C1495 C1494 1.396 . S
C1495 C1496 1.399 . S
C1496 H1482 0.929 . S
C1496 C1495 1.399 . S
C1496 C1497 1.385 . S
C1497 H1483 0.931 . S
C1497 C1496 1.385 . S
C1497 C1498 1.389 . S
C1498 C1497 1.389 . S
C1498 C1499 1.387 . S
C1499 H1484 0.930 . S
C1499 C1494 1.390 . S
C1499 C1498 1.387 . S
H1500 C1512 0.930 . S
H1501 C1514 0.930 . S
H1502 C1515 0.930 . S
H1503 C1519 0.959 . S
H1504 C1519 0.959 . S
H1505 C1519 0.961 . S
H1506 C1520 0.960 . S
H1507 C1520 0.961 . S
H1508 C1520 0.959 . S
H1509 C1523 0.929 . S
H1510 C1524 0.931 . S
H1511 C1526 0.930 . S
C1512 H1500 0.930 . S
C1512 C1513 1.399 . S
C1512 C1517 1.399 . S
C1513 C1512 1.399 . S
C1513 C1514 1.376 . S
C1514 H1501 0.930 . S
C1514 C1513 1.376 . S
C1514 C1515 1.388 . S
C1515 H1502 0.930 . S
C1515 C1514 1.388 . S
C1515 C1516 1.390 . S
C1516 C1515 1.390 . S
C1516 C1517 1.394 . S
C1516 C1522 1.465 . S
C1517 C1512 1.399 . S
C1517 C1516 1.394 . S
C1517 C1518 1.516 . S
C1518 C1517 1.516 . S
C1518 C1519 1.502 . S
C1518 C1520 1.561 . S
C1518 C1521 1.526 . S
C1519 H1503 0.959 . S
C1519 H1504 0.959 . S
C1519 H1505 0.961 . S
C1519 C1518 1.502 . S
C1520 H1506 0.960 . S
C1520 H1507 0.961 . S
C1520 H1508 0.959 . S
C1520 C1518 1.561 . S
C1521 C1518 1.526 . S
C1521 C1522 1.396 . S
C1521 C1526 1.390 . S
C1522 C1516 1.465 . S
C1522 C1521 1.396 . S
C1522 C1523 1.399 . S
C1523 H1509 0.929 . S
C1523 C1522 1.399 . S
C1523 C1524 1.385 . S
C1524 H1510 0.931 . S
C1524 C1523 1.385 . S
C1524 C1525 1.389 . S
C1525 C1524 1.389 . S
C1525 C1526 1.387 . S
C1526 H1511 0.930 . S
C1526 C1521 1.390 . S
C1526 C1525 1.387 . S
H1527 C1539 0.930 . S
H1528 C1541 0.930 . S
H1529 C1542 0.930 . S
H1530 C1546 0.959 . S
H1531 C1546 0.959 . S
H1532 C1546 0.961 . S
H1533 C1547 0.960 . S
H1534 C1547 0.961 . S
H1535 C1547 0.959 . S
H1536 C1550 0.929 . S
H1537 C1551 0.931 . S
H1538 C1553 0.930 . S
C1539 H1527 0.930 . S
C1539 C1540 1.399 . S
C1539 C1544 1.399 . S
C1540 C1539 1.399 . S
C1540 C1541 1.376 . S
C1541 H1528 0.930 . S
C1541 C1540 1.376 . S
C1541 C1542 1.388 . S
C1542 H1529 0.930 . S
C1542 C1541 1.388 . S
C1542 C1543 1.390 . S
C1543 C1542 1.390 . S
C1543 C1544 1.394 . S
C1543 C1549 1.465 . S
C1544 C1539 1.399 . S
C1544 C1543 1.394 . S
C1544 C1545 1.516 . S
C1545 C1544 1.516 . S
C1545 C1546 1.502 . S
C1545 C1547 1.561 . S
C1545 C1548 1.526 . S
C1546 H1530 0.959 . S
C1546 H1531 0.959 . S
C1546 H1532 0.961 . S
C1546 C1545 1.502 . S
C1547 H1533 0.960 . S
C1547 H1534 0.961 . S
C1547 H1535 0.959 . S
C1547 C1545 1.561 . S
C1548 C1545 1.526 . S
C1548 C1549 1.396 . S
C1548 C1553 1.390 . S
C1549 C1543 1.465 . S
C1549 C1548 1.396 . S
C1549 C1550 1.399 . S
C1550 H1536 0.929 . S
C1550 C1549 1.399 . S
C1550 C1551 1.385 . S
C1551 H1537 0.931 . S
C1551 C1550 1.385 . S
C1551 C1552 1.389 . S
C1552 C1551 1.389 . S
C1552 C1553 1.387 . S
C1553 H1538 0.930 . S
C1553 C1548 1.390 . S
C1553 C1552 1.387 . S
H1554 C1566 0.930 . S
H1555 C1568 0.930 . S
H1556 C1569 0.930 . S
H1557 C1573 0.959 . S
H1558 C1573 0.959 . S
H1559 C1573 0.961 . S
H1560 C1574 0.960 . S
H1561 C1574 0.961 . S
H1562 C1574 0.959 . S
H1563 C1577 0.929 . S
H1564 C1578 0.931 . S
H1565 C1580 0.930 . S
C1566 H1554 0.930 . S
C1566 C1567 1.399 . S
C1566 C1571 1.399 . S
C1567 C1566 1.399 . S
C1567 C1568 1.376 . S
C1568 H1555 0.930 . S
C1568 C1567 1.376 . S
C1568 C1569 1.388 . S
C1569 H1556 0.930 . S
C1569 C1568 1.388 . S
C1569 C1570 1.390 . S
C1570 C1569 1.390 . S
C1570 C1571 1.394 . S
C1570 C1576 1.465 . S
C1571 C1566 1.399 . S
C1571 C1570 1.394 . S
C1571 C1572 1.516 . S
C1572 C1571 1.516 . S
C1572 C1573 1.502 . S
C1572 C1574 1.561 . S
C1572 C1575 1.526 . S
C1573 H1557 0.959 . S
C1573 H1558 0.959 . S
C1573 H1559 0.961 . S
C1573 C1572 1.502 . S
C1574 H1560 0.960 . S
C1574 H1561 0.961 . S
C1574 H1562 0.959 . S
C1574 C1572 1.561 . S
C1575 C1572 1.526 . S
C1575 C1576 1.396 . S
C1575 C1580 1.390 . S
C1576 C1570 1.465 . S
C1576 C1575 1.396 . S
C1576 C1577 1.399 . S
C1577 H1563 0.929 . S
C1577 C1576 1.399 . S
C1577 C1578 1.385 . S
C1578 H1564 0.931 . S
C1578 C1577 1.385 . S
C1578 C1579 1.389 . S
C1579 C1578 1.389 . S
C1579 C1580 1.387 . S
C1580 H1565 0.930 . S
C1580 C1575 1.390 . S
C1580 C1579 1.387 . S
H1581 C1593 0.930 . S
H1582 C1595 0.930 . S
H1583 C1596 0.930 . S
H1584 C1600 0.959 . S
H1585 C1600 0.959 . S
H1586 C1600 0.961 . S
H1587 C1601 0.960 . S
H1588 C1601 0.961 . S
H1589 C1601 0.959 . S
H1590 C1604 0.929 . S
H1591 C1605 0.931 . S
H1592 C1607 0.930 . S
C1593 H1581 0.930 . S
C1593 C1594 1.399 . S
C1593 C1598 1.399 . S
C1594 C1593 1.399 . S
C1594 C1595 1.376 . S
C1595 H1582 0.930 . S
C1595 C1594 1.376 . S
C1595 C1596 1.388 . S
C1596 H1583 0.930 . S
C1596 C1595 1.388 . S
C1596 C1597 1.390 . S
C1597 C1596 1.390 . S
C1597 C1598 1.394 . S
C1597 C1603 1.465 . S
C1598 C1593 1.399 . S
C1598 C1597 1.394 . S
C1598 C1599 1.516 . S
C1599 C1598 1.516 . S
C1599 C1600 1.502 . S
C1599 C1601 1.561 . S
C1599 C1602 1.526 . S
C1600 H1584 0.959 . S
C1600 H1585 0.959 . S
C1600 H1586 0.961 . S
C1600 C1599 1.502 . S
C1601 H1587 0.960 . S
C1601 H1588 0.961 . S
C1601 H1589 0.959 . S
C1601 C1599 1.561 . S
C1602 C1599 1.526 . S
C1602 C1603 1.396 . S
C1602 C1607 1.390 . S
C1603 C1597 1.465 . S
C1603 C1602 1.396 . S
C1603 C1604 1.399 . S
C1604 H1590 0.929 . S
C1604 C1603 1.399 . S
C1604 C1605 1.385 . S
C1605 H1591 0.931 . S
C1605 C1604 1.385 . S
C1605 C1606 1.389 . S
C1606 C1605 1.389 . S
C1606 C1607 1.387 . S
C1607 H1592 0.930 . S
C1607 C1602 1.390 . S
C1607 C1606 1.387 . S
C541 N134 1.538 . S
C553 N2 1.590 . S
C568 N167 1.542 . S
C580 N35 1.575 . S
C595 N68 1.579 . S
C607 N200 1.540 . S
C622 N233 1.585 . S
C634 N101 1.555 . S
C649 N398 1.582 . S
C661 N266 1.545 . S
C676 N299 1.582 . S
C688 N431 1.548 . S
C703 N332 1.557 . S
C715 N464 1.570 . S
C730 N365 1.583 . S
C742 N497 1.547 . S
C757 C7 1.591 . S
C769 C414 1.718 . S
C784 C40 1.637 . S
C796 C447 1.696 . S
C811 C480 1.673 . S
C823 C73 1.665 . S
C838 C106 1.621 . S
C850 C513 1.705 . S
C865 C282 1.731 . S
C877 C139 1.582 . S
C892 C315 1.680 . S
C904 C172 1.649 . S
C919 C205 1.642 . S
C931 C348 1.691 . S
C946 C381 1.724 . S
C958 C238 1.594 . S
C973 C271 1.563 . S
C985 C150 1.736 . S
C1000 C304 1.563 . S
C1012 C183 1.735 . S
C1027 C216 1.706 . S
C1039 C337 1.641 . S
C1054 C370 1.563 . S
C1066 C249 1.734 . S
C1081 C403 1.662 . S
C1093 C18 1.686 . S
C1108 C436 1.566 . S
C1120 C51 1.728 . S
C1135 C469 1.605 . S
C1147 C84 1.696 . S
C1162 C117 1.727 . S
C1174 C502 1.608 . S
C1189 N244 1.835 . S
C1201 N13 1.845 . S
C1216 N46 1.835 . S
C1228 N145 1.846 . S
C1243 N178 1.800 . S
C1255 N79 1.808 . S
C1270 N211 1.835 . S
C1282 N112 1.818 . S
C1297 N277 1.835 . S
C1309 N508 1.837 . S
C1324 N409 1.802 . S
C1336 N310 1.801 . S
C1351 N343 1.847 . S
C1363 N442 1.846 . S
C1378 N475 1.841 . S
C1390 N376 1.839 . S
C1405 C87 0.867 . S
C1417 C21 0.793 . S
C1432 C120 0.875 . S
C1444 C54 0.785 . S
C1459 C153 0.772 . S
C1471 C219 0.884 . S
C1486 C252 0.861 . S
C1498 C186 0.799 . S
C1513 C285 0.793 . S
C1525 C351 0.833 . S
C1540 C384 0.795 . S
C1552 C318 0.830 . S
C1567 C417 0.883 . S
C1579 C483 0.803 . S
C1594 C450 0.878 . S
C1606 C516 0.811 . S
