# Generated by pormake.
# Topology bcu-i, (5)-cn, num edge types: 1
# Building blocks:
#     Node 0, Type 0, BuildingBlock: XOMCOT_clean_sbu_0, # of connection points: 5
#     Node 1, Type 0, BuildingBlock: XOMCOT_clean_sbu_0, # of connection points: 5
#     Node 2, Type 0, BuildingBlock: XOMCOT_clean_sbu_0, # of connection points: 5
#     Node 3, Type 0, BuildingBlock: XOMCOT_clean_sbu_0, # of connection points: 5
#     Node 4, Type 0, BuildingBlock: XOMCOT_clean_sbu_0, # of connection points: 5
#     Node 5, Type 0, BuildingBlock: XOMCOT_clean_sbu_0, # of connection points: 5
#     Node 6, Type 0, BuildingBlock: XOMCOT_clean_sbu_0, # of connection points: 5
#     Node 7, Type 0, BuildingBlock: XOMCOT_clean_sbu_0, # of connection points: 5
#     Node 8, Type 0, BuildingBlock: XOMCOT_clean_sbu_0, # of connection points: 5
#     Node 9, Type 0, BuildingBlock: XOMCOT_clean_sbu_0, # of connection points: 5
#     Node 10, Type 0, BuildingBlock: XOMCOT_clean_sbu_0, # of connection points: 5
#     Node 11, Type 0, BuildingBlock: XOMCOT_clean_sbu_0, # of connection points: 5
#     Node 12, Type 0, BuildingBlock: XOMCOT_clean_sbu_0, # of connection points: 5
#     Node 13, Type 0, BuildingBlock: XOMCOT_clean_sbu_0, # of connection points: 5
#     Node 14, Type 0, BuildingBlock: XOMCOT_clean_sbu_0, # of connection points: 5
#     Node 15, Type 0, BuildingBlock: XOMCOT_clean_sbu_0, # of connection points: 5
#     Edge 16, Type (0, 0), BuildingBlock: XIVTED_clean_linker_0, # of connection points: 2
#     Edge 17, Type (0, 0), BuildingBlock: XIVTED_clean_linker_0, # of connection points: 2
#     Edge 18, Type (0, 0), BuildingBlock: XIVTED_clean_linker_0, # of connection points: 2
#     Edge 19, Type (0, 0), BuildingBlock: XIVTED_clean_linker_0, # of connection points: 2
#     Edge 20, Type (0, 0), BuildingBlock: XIVTED_clean_linker_0, # of connection points: 2
#     Edge 21, Type (0, 0), BuildingBlock: XIVTED_clean_linker_0, # of connection points: 2
#     Edge 22, Type (0, 0), BuildingBlock: XIVTED_clean_linker_0, # of connection points: 2
#     Edge 23, Type (0, 0), BuildingBlock: XIVTED_clean_linker_0, # of connection points: 2
#     Edge 24, Type (0, 0), BuildingBlock: XIVTED_clean_linker_0, # of connection points: 2
#     Edge 25, Type (0, 0), BuildingBlock: XIVTED_clean_linker_0, # of connection points: 2
#     Edge 26, Type (0, 0), BuildingBlock: XIVTED_clean_linker_0, # of connection points: 2
#     Edge 27, Type (0, 0), BuildingBlock: XIVTED_clean_linker_0, # of connection points: 2
#     Edge 28, Type (0, 0), BuildingBlock: XIVTED_clean_linker_0, # of connection points: 2
#     Edge 29, Type (0, 0), BuildingBlock: XIVTED_clean_linker_0, # of connection points: 2
#     Edge 30, Type (0, 0), BuildingBlock: XIVTED_clean_linker_0, # of connection points: 2
#     Edge 31, Type (0, 0), BuildingBlock: XIVTED_clean_linker_0, # of connection points: 2
#     Edge 32, Type (0, 0), BuildingBlock: XIVTED_clean_linker_0, # of connection points: 2
#     Edge 33, Type (0, 0), BuildingBlock: XIVTED_clean_linker_0, # of connection points: 2
#     Edge 34, Type (0, 0), BuildingBlock: XIVTED_clean_linker_0, # of connection points: 2
#     Edge 35, Type (0, 0), BuildingBlock: XIVTED_clean_linker_0, # of connection points: 2
#     Edge 36, Type (0, 0), BuildingBlock: XIVTED_clean_linker_0, # of connection points: 2
#     Edge 37, Type (0, 0), BuildingBlock: XIVTED_clean_linker_0, # of connection points: 2
#     Edge 38, Type (0, 0), BuildingBlock: XIVTED_clean_linker_0, # of connection points: 2
#     Edge 39, Type (0, 0), BuildingBlock: XIVTED_clean_linker_0, # of connection points: 2
#     Edge 40, Type (0, 0), BuildingBlock: XIVTED_clean_linker_0, # of connection points: 2
#     Edge 41, Type (0, 0), BuildingBlock: XIVTED_clean_linker_0, # of connection points: 2
#     Edge 42, Type (0, 0), BuildingBlock: XIVTED_clean_linker_0, # of connection points: 2
#     Edge 43, Type (0, 0), BuildingBlock: XIVTED_clean_linker_0, # of connection points: 2
#     Edge 44, Type (0, 0), BuildingBlock: XIVTED_clean_linker_0, # of connection points: 2
#     Edge 45, Type (0, 0), BuildingBlock: XIVTED_clean_linker_0, # of connection points: 2
#     Edge 46, Type (0, 0), BuildingBlock: XIVTED_clean_linker_0, # of connection points: 2
#     Edge 47, Type (0, 0), BuildingBlock: XIVTED_clean_linker_0, # of connection points: 2
#     Edge 48, Type (0, 0), BuildingBlock: XIVTED_clean_linker_0, # of connection points: 2
#     Edge 49, Type (0, 0), BuildingBlock: XIVTED_clean_linker_0, # of connection points: 2
#     Edge 50, Type (0, 0), BuildingBlock: XIVTED_clean_linker_0, # of connection points: 2
#     Edge 51, Type (0, 0), BuildingBlock: XIVTED_clean_linker_0, # of connection points: 2
#     Edge 52, Type (0, 0), BuildingBlock: XIVTED_clean_linker_0, # of connection points: 2
#     Edge 53, Type (0, 0), BuildingBlock: XIVTED_clean_linker_0, # of connection points: 2
#     Edge 54, Type (0, 0), BuildingBlock: XIVTED_clean_linker_0, # of connection points: 2
#     Edge 55, Type (0, 0), BuildingBlock: XIVTED_clean_linker_0, # of connection points: 2
# Relax obj value: 0.521
# Max RMSD: 0.248
# Mean RMSD: 0.248
data_MOF--net-bcu-i--node1-XOMCOT_clean_sbu_0--edge1-XIVTED_clean_linker_0
_symmetry_space_group_name_H-M    P1
_symmetry_Int_Tables_number       1
_symmetry_cell_setting            triclinic
loop_
_symmetry_equiv_pos_as_xyz
'x, y, z'
_cell_length_a     44.66333
_cell_length_b     44.770453
_cell_length_c     51.330146
_cell_angle_alpha  90.259472
_cell_angle_beta   89.909346
_cell_angle_gamma 89.840246
loop_
_atom_site_label
_atom_site_type_symbol
_atom_site_fract_x
_atom_site_fract_y
_atom_site_fract_z
_atom_type_partial_charge
Co0 Co 0.26991 0.03032 0.35126 0.0
C1 C 0.21775 0.06547 0.33213 0.0
C2 C 0.21216 0.01869 0.32484 0.0
C3 C 0.18677 0.03332 0.31679 0.0
N4 N 0.2317 0.03878 0.33455 0.0
N5 N 0.19019 0.06271 0.32158 0.0
H6 H 0.22704 0.08646 0.3387 0.0
H7 H 0.21532 0.99485 0.32442 0.0
C8 C 0.26367 0.9674 0.36344 0.0
O9 O 0.27106 0.97576 0.38711 0.0
N10 N 0.30821 0.02161 0.36753 0.0
C11 C 0.33132 0.00676 0.35646 0.0
C12 C 0.35248 0.0009 0.37521 0.0
C13 C 0.31578 0.02461 0.39283 0.0
N14 N 0.34252 0.01191 0.39814 0.0
C15 C 0.31048 0.05721 0.31675 0.0
C16 C 0.29237 0.02754 0.2721 0.0
C17 C 0.31194 0.05191 0.26998 0.0
C18 C 0.32197 0.06586 0.29288 0.0
C19 C 0.2815 0.01939 0.29661 0.0
N20 N 0.2898 0.03505 0.31829 0.0
H21 H 0.31711 0.0693 0.33407 0.0
H22 H 0.2652 0.0017 0.29794 0.0
H23 H 0.33196 0.99893 0.33651 0.0
H24 H 0.30077 0.03307 0.40766 0.0
O25 O 0.27223 0.0711 0.36346 0.0
O26 O 0.25024 0.03418 0.38477 0.0
O27 O 0.26373 0.98654 0.34512 0.0
C28 C 0.25694 0.06244 0.3836 0.0
H29 H 0.16658 0.02286 0.30957 0.0
H30 H 0.37259 0.98771 0.37247 0.0
H31 H 0.28422 0.01604 0.25493 0.0
H32 H 0.33661 0.08509 0.29241 0.0
Co33 Co 0.93873 0.1844 0.35065 0.0
C34 C 0.9061 0.1273 0.3582 0.0
C35 C 0.94235 0.12246 0.3311 0.0
C36 C 0.92697 0.09585 0.33216 0.0
N37 N 0.92928 0.1422 0.34749 0.0
N38 N 0.90404 0.09905 0.34908 0.0
H39 H 0.89041 0.13705 0.37181 0.0
H40 H 0.9609 0.12737 0.31829 0.0
C41 C 0.00202 0.16827 0.35476 0.0
O42 O 0.99688 0.16742 0.3799 0.0
N43 N 0.94814 0.22636 0.35361 0.0
C44 C 0.92904 0.24959 0.35126 0.0
C45 C 0.94374 0.27543 0.35846 0.0
C46 C 0.97409 0.23827 0.36177 0.0
N47 N 0.97209 0.26809 0.36472 0.0
C48 C 0.89787 0.18239 0.30884 0.0
C49 C 0.92957 0.22042 0.27669 0.0
C50 C 0.89937 0.2145 0.27132 0.0
C51 C 0.88407 0.19384 0.28679 0.0
C52 C 0.94283 0.20781 0.29872 0.0
N53 N 0.9263 0.19055 0.31516 0.0
H54 H 0.88476 0.16908 0.32211 0.0
H55 H 0.96537 0.21426 0.30392 0.0
H56 H 0.90571 0.24768 0.34591 0.0
H57 H 0.99345 0.22538 0.3674 0.0
O58 O 0.9007 0.1922 0.36773 0.0
O59 O 0.94284 0.1807 0.38798 0.0
O60 O 0.98099 0.1753 0.33909 0.0
C61 C 0.91471 0.18778 0.38954 0.0
H62 H 0.93148 0.07621 0.32042 0.0
H63 H 0.9341 0.29757 0.36009 0.0
H64 H 0.94207 0.23626 0.2651 0.0
H65 H 0.86063 0.18896 0.28352 0.0
Co66 Co 0.73276 0.88864 0.41257 0.0
C67 C 0.78582 0.84952 0.40147 0.0
C68 C 0.76579 0.86677 0.3667 0.0
C69 C 0.79029 0.84986 0.35975 0.0
N70 N 0.76263 0.86627 0.39285 0.0
N71 N 0.8029 0.83913 0.38163 0.0
H72 H 0.79054 0.84522 0.42175 0.0
H73 H 0.75176 0.87928 0.35349 0.0
C74 C 0.74464 0.95364 0.39838 0.0
O75 O 0.72019 0.96311 0.41 0.0
N76 N 0.70292 0.91082 0.43234 0.0
C77 C 0.67277 0.91072 0.42985 0.0
C78 C 0.6605 0.92889 0.44887 0.0
C79 C 0.70834 0.92782 0.45353 0.0
N80 N 0.683 0.93926 0.46371 0.0
C81 C 0.69563 0.85453 0.37938 0.0
C82 C 0.67116 0.90131 0.35149 0.0
C83 C 0.66154 0.8721 0.34633 0.0
C84 C 0.67425 0.84855 0.36043 0.0
C85 C 0.69282 0.90632 0.37056 0.0
N86 N 0.70455 0.88307 0.38437 0.0
H87 H 0.70535 0.83612 0.38997 0.0
H88 H 0.69924 0.92894 0.37462 0.0
H89 H 0.66031 0.8981 0.41555 0.0
H90 H 0.73051 0.93266 0.46088 0.0
O91 O 0.7229 0.85383 0.43299 0.0
O92 O 0.75762 0.88741 0.44312 0.0
O93 O 0.75055 0.92576 0.39664 0.0
C94 C 0.74298 0.86337 0.44933 0.0
H95 H 0.79889 0.84672 0.3402 0.0
H96 H 0.63698 0.93376 0.45184 0.0
H97 H 0.66181 0.92017 0.34113 0.0
H98 H 0.66819 0.82554 0.35657 0.0
Co99 Co 0.06776 0.73963 0.39794 0.0
C100 C 0.10735 0.78621 0.37751 0.0
C101 C 0.06306 0.80352 0.38397 0.0
C102 C 0.0809 0.82624 0.37475 0.0
N103 N 0.07975 0.77847 0.38562 0.0
N104 N 0.1087 0.81525 0.37091 0.0
H105 H 0.12623 0.77102 0.37676 0.0
H106 H 0.03979 0.80545 0.38957 0.0
C107 C 0.00216 0.73729 0.3844 0.0
O108 O 0.00602 0.71129 0.37299 0.0
N109 N 0.05561 0.7005 0.41079 0.0
C110 C 0.0498 0.67474 0.39783 0.0
C111 C 0.03827 0.65413 0.41507 0.0
C112 C 0.04784 0.69481 0.43566 0.0
N113 N 0.03754 0.66688 0.43881 0.0
C114 C 0.09323 0.70506 0.35671 0.0
C115 C 0.06224 0.73244 0.31674 0.0
C116 C 0.08466 0.71162 0.31054 0.0
C117 C 0.10004 0.69762 0.33095 0.0
C118 C 0.05616 0.73924 0.34276 0.0
N119 N 0.07121 0.72523 0.36239 0.0
H120 H 0.10601 0.69496 0.37223 0.0
H121 H 0.04026 0.7568 0.34702 0.0
H122 H 0.05166 0.67135 0.37707 0.0
H123 H 0.04772 0.7113 0.45111 0.0
O124 O 0.10845 0.73228 0.40949 0.0
O125 O 0.07276 0.75374 0.43321 0.0
O126 O 0.02438 0.75132 0.3941 0.0
C127 C 0.10042 0.74489 0.43131 0.0
H128 H 0.07431 0.84934 0.37221 0.0
H129 H 0.03 0.63205 0.41038 0.0
H130 H 0.04992 0.74394 0.30163 0.0
H131 H 0.11805 0.68196 0.3271 0.0
Co132 Co 0.23415 0.88159 0.59445 0.0
C133 C 0.17158 0.86283 0.6058 0.0
C134 C 0.19091 0.88725 0.63759 0.0
C135 C 0.1621 0.8795 0.6443 0.0
N136 N 0.19696 0.87654 0.61353 0.0
N137 N 0.15006 0.86428 0.6242 0.0
H138 H 0.16856 0.85214 0.5871 0.0
H139 H 0.20622 0.90022 0.64935 0.0
C140 C 0.20598 0.93907 0.58768 0.0
O141 O 0.18507 0.92297 0.57648 0.0
N142 N 0.27144 0.88651 0.57626 0.0
C143 C 0.29536 0.8682 0.57774 0.0
C144 C 0.31839 0.88041 0.56357 0.0
C145 C 0.28005 0.90955 0.56135 0.0
N146 N 0.30874 0.90645 0.55339 0.0
C147 C 0.25753 0.85398 0.63965 0.0
C148 C 0.29837 0.89869 0.6509 0.0
C149 C 0.30154 0.87075 0.66273 0.0
C150 C 0.27997 0.84871 0.65789 0.0
C151 C 0.27564 0.90302 0.6327 0.0
N152 N 0.25651 0.88032 0.62653 0.0
H153 H 0.24221 0.83621 0.63468 0.0
H154 H 0.27527 0.92366 0.62191 0.0
H155 H 0.29612 0.8477 0.58879 0.0
H156 H 0.26552 0.92798 0.55623 0.0
O157 O 0.2344 0.83933 0.58535 0.0
O158 O 0.21446 0.87534 0.56148 0.0
O159 O 0.22891 0.92611 0.59726 0.0
C160 C 0.22061 0.84717 0.56412 0.0
H161 H 0.1506 0.88536 0.66219 0.0
H162 H 0.34058 0.87102 0.5612 0.0
H163 H 0.31466 0.91621 0.65407 0.0
H164 H 0.28136 0.82703 0.6671 0.0
Co165 Co 0.15796 0.23745 0.5463 0.0
C166 C 0.17574 0.17708 0.56534 0.0
C167 C 0.16455 0.20667 0.59678 0.0
C168 C 0.17122 0.17898 0.60698 0.0
N169 N 0.16765 0.20557 0.57061 0.0
N170 N 0.17802 0.16045 0.58708 0.0
H171 H 0.17935 0.16815 0.54604 0.0
H172 H 0.15709 0.22605 0.60767 0.0
C173 C 0.09448 0.25655 0.56385 0.0
O174 O 0.09359 0.28076 0.54957 0.0
N175 N 0.14846 0.26883 0.52191 0.0
C176 C 0.16608 0.29198 0.51505 0.0
C177 C 0.15264 0.30713 0.49483 0.0
C178 C 0.1253 0.26949 0.50519 0.0
N179 N 0.12688 0.29307 0.48907 0.0
C180 C 0.20448 0.26118 0.57828 0.0
C181 C 0.1738 0.31165 0.59442 0.0
C182 C 0.20208 0.30575 0.60506 0.0
C183 C 0.21779 0.28042 0.59633 0.0
C184 C 0.16112 0.29153 0.57697 0.0
N185 N 0.17606 0.26629 0.56965 0.0
H186 H 0.21655 0.2415 0.57185 0.0
H187 H 0.1395 0.29664 0.56913 0.0
H188 H 0.18751 0.29711 0.52374 0.0
H189 H 0.1077 0.25291 0.5047 0.0
O190 O 0.19247 0.2279 0.52503 0.0
O191 O 0.14715 0.20832 0.52032 0.0
O192 O 0.11786 0.24001 0.56465 0.0
C193 C 0.17479 0.20989 0.51233 0.0
H194 H 0.16977 0.17261 0.62726 0.0
H195 H 0.16103 0.32684 0.48513 0.0
H196 H 0.16128 0.33152 0.59972 0.0
H197 H 0.23966 0.27484 0.60399 0.0
Co198 Co 0.82394 0.12682 0.60285 0.0
C199 C 0.88252 0.15537 0.61267 0.0
C200 C 0.88532 0.10761 0.61534 0.0
C201 C 0.91355 0.11923 0.61844 0.0
N202 N 0.86586 0.13027 0.61178 0.0
N203 N 0.91182 0.14923 0.61658 0.0
H204 H 0.87356 0.17756 0.60969 0.0
H205 H 0.87984 0.08413 0.61455 0.0
C206 C 0.80684 0.06917 0.62963 0.0
O207 O 0.78343 0.08189 0.6406 0.0
N208 N 0.78204 0.12278 0.59302 0.0
C209 C 0.76161 0.14416 0.58738 0.0
C210 C 0.73623 0.13083 0.57743 0.0
C211 C 0.76918 0.0971 0.58516 0.0
N212 N 0.74108 0.10118 0.5764 0.0
C213 C 0.7955 0.16639 0.63929 0.0
C214 C 0.81 0.13416 0.68333 0.0
C215 C 0.78763 0.15609 0.68484 0.0
C216 C 0.78171 0.17351 0.66285 0.0
C217 C 0.82307 0.12769 0.65919 0.0
N218 N 0.81338 0.14181 0.6372 0.0
H219 H 0.79097 0.18003 0.62256 0.0
H220 H 0.83941 0.10991 0.65792 0.0
H221 H 0.76531 0.16792 0.58838 0.0
H222 H 0.7809 0.076 0.58387 0.0
O223 O 0.82624 0.16407 0.5839 0.0
O224 O 0.83461 0.11878 0.56734 0.0
O225 O 0.82448 0.08411 0.61509 0.0
C226 C 0.83318 0.14748 0.56386 0.0
H227 H 0.93401 0.10641 0.62028 0.0
H228 H 0.71635 0.14214 0.57051 0.0
H229 H 0.81585 0.12084 0.70014 0.0
H230 H 0.76572 0.19173 0.66366 0.0
Co231 Co 0.88298 0.76979 0.62448 0.0
C232 C 0.86028 0.83204 0.63302 0.0
C233 C 0.89126 0.81825 0.66251 0.0
C234 C 0.88226 0.84698 0.66797 0.0
N235 N 0.87711 0.80861 0.64083 0.0
N236 N 0.86286 0.85558 0.64939 0.0
H237 H 0.84678 0.83228 0.61559 0.0
H238 H 0.90756 0.80549 0.67337 0.0
C239 C 0.93759 0.79977 0.6089 0.0
O240 O 0.91976 0.8163 0.59462 0.0
N241 N 0.88937 0.73121 0.60859 0.0
C242 C 0.87207 0.70671 0.61081 0.0
C243 C 0.88459 0.68404 0.59606 0.0
C244 C 0.91211 0.72325 0.59285 0.0
N245 N 0.90986 0.69455 0.58508 0.0
C246 C 0.86587 0.7545 0.67618 0.0
C247 C 0.91735 0.72243 0.68761 0.0
C248 C 0.89503 0.72553 0.70658 0.0
C249 C 0.86905 0.7418 0.70074 0.0
C250 C 0.91348 0.73586 0.66345 0.0
N251 N 0.88812 0.75179 0.65816 0.0
H252 H 0.84571 0.76681 0.67157 0.0
H253 H 0.9307 0.73306 0.64883 0.0
H254 H 0.85179 0.70545 0.6223 0.0
H255 H 0.92969 0.73826 0.58674 0.0
O256 O 0.84003 0.76496 0.62028 0.0
O257 O 0.87091 0.78479 0.59114 0.0
O258 O 0.9268 0.77876 0.62265 0.0
C259 C 0.84403 0.77644 0.5973 0.0
H260 H 0.89027 0.8609 0.68377 0.0
H261 H 0.87603 0.66159 0.59376 0.0
H262 H 0.93756 0.70976 0.69144 0.0
H263 H 0.85107 0.7441 0.71481 0.0
Co264 Co 0.76592 0.58377 0.92239 0.0
C265 C 0.7124 0.62034 0.90786 0.0
C266 C 0.72967 0.59512 0.87558 0.0
C267 C 0.70497 0.61095 0.86732 0.0
N268 N 0.73426 0.60087 0.90107 0.0
N269 N 0.69408 0.62671 0.88771 0.0
H270 H 0.70988 0.62999 0.92702 0.0
H271 H 0.74327 0.58026 0.8638 0.0
C272 C 0.77251 0.51956 0.90142 0.0
O273 O 0.7989 0.51505 0.91189 0.0
N274 N 0.79732 0.56715 0.94363 0.0
C275 C 0.82367 0.58003 0.94987 0.0
C276 C 0.83716 0.56349 0.96923 0.0
C277 C 0.79478 0.54357 0.95958 0.0
N278 N 0.81901 0.54046 0.97486 0.0
C279 C 0.79457 0.62855 0.8931 0.0
C280 C 0.83766 0.59299 0.86969 0.0
C281 C 0.83696 0.62359 0.86413 0.0
C282 C 0.81508 0.64145 0.87617 0.0
C283 C 0.8165 0.58096 0.88662 0.0
N284 N 0.79515 0.59865 0.89787 0.0
H285 H 0.77782 0.64257 0.90226 0.0
H286 H 0.81787 0.55766 0.89092 0.0
H287 H 0.83183 0.60076 0.94182 0.0
H288 H 0.77509 0.52956 0.96066 0.0
O289 O 0.76473 0.61757 0.94596 0.0
O290 O 0.73759 0.57636 0.94986 0.0
O291 O 0.75947 0.545 0.9028 0.0
C292 C 0.74488 0.60249 0.95903 0.0
H293 H 0.69535 0.61024 0.84799 0.0
H294 H 0.85815 0.56833 0.97886 0.0
H295 H 0.85444 0.57845 0.86112 0.0
H296 H 0.81324 0.6651 0.87209 0.0
Co297 Co 0.43805 0.74972 0.87077 0.0
C298 C 0.40793 0.69201 0.85869 0.0
C299 C 0.45109 0.69546 0.84061 0.0
C300 C 0.43783 0.66947 0.83219 0.0
N301 N 0.43234 0.70963 0.85724 0.0
N302 N 0.4107 0.66746 0.84354 0.0
H303 H 0.38787 0.69757 0.86944 0.0
H304 H 0.47243 0.70405 0.83414 0.0
C305 C 0.49307 0.72245 0.88863 0.0
O306 O 0.47496 0.70813 0.90434 0.0
N307 N 0.44419 0.78956 0.8839 0.0
C308 C 0.42607 0.81353 0.88135 0.0
C309 C 0.43676 0.8362 0.89711 0.0
C310 C 0.4657 0.79793 0.90062 0.0
N311 N 0.46183 0.82626 0.90881 0.0
C312 C 0.4192 0.75742 0.81884 0.0
C313 C 0.46342 0.79732 0.80428 0.0
C314 C 0.44006 0.79079 0.78703 0.0
C315 C 0.41825 0.77004 0.79425 0.0
C316 C 0.46411 0.78327 0.82859 0.0
N317 N 0.4417 0.76425 0.83568 0.0
H318 H 0.40116 0.74295 0.82483 0.0
H319 H 0.4817 0.78881 0.84222 0.0
H320 H 0.40575 0.81397 0.86993 0.0
H321 H 0.48258 0.78295 0.90821 0.0
O322 O 0.39512 0.75481 0.87532 0.0
O323 O 0.4261 0.73767 0.9054 0.0
O324 O 0.48236 0.74141 0.87261 0.0
C325 C 0.39903 0.74517 0.89893 0.0
H326 H 0.44725 0.65352 0.81853 0.0
H327 H 0.42633 0.85771 0.90059 0.0
H328 H 0.48032 0.81365 0.79933 0.0
H329 H 0.39951 0.76506 0.78158 0.0
Co330 Co 0.27917 0.42934 0.8574 0.0
C331 C 0.33485 0.39346 0.84904 0.0
C332 C 0.34269 0.43605 0.8673 0.0
C333 C 0.36977 0.42227 0.86335 0.0
N334 N 0.32088 0.41821 0.85813 0.0
N335 N 0.36489 0.39562 0.85179 0.0
H336 H 0.32344 0.37481 0.84 0.0
H337 H 0.33912 0.45779 0.87605 0.0
C338 C 0.28308 0.48857 0.82954 0.0
O339 O 0.26247 0.48096 0.81255 0.0
N340 N 0.2374 0.44196 0.85783 0.0
C341 C 0.21227 0.4253 0.85972 0.0
C342 C 0.18861 0.44354 0.86681 0.0
C343 C 0.22859 0.46974 0.86462 0.0
N344 N 0.19906 0.47153 0.86971 0.0
C345 C 0.25603 0.39477 0.81538 0.0
C346 C 0.29194 0.41842 0.7767 0.0
C347 C 0.26854 0.39919 0.76992 0.0
C348 C 0.2512 0.38648 0.78965 0.0
C349 C 0.2958 0.42637 0.80285 0.0
N350 N 0.27658 0.41604 0.82152 0.0
H351 H 0.24316 0.38408 0.83036 0.0
H352 H 0.31377 0.44137 0.80802 0.0
H353 H 0.21134 0.40124 0.85888 0.0
H354 H 0.24399 0.48766 0.8689 0.0
O355 O 0.26872 0.3926 0.87483 0.0
O356 O 0.28014 0.43555 0.89428 0.0
O357 O 0.29171 0.47059 0.8472 0.0
C358 C 0.27218 0.40775 0.89636 0.0
H359 H 0.39145 0.43108 0.86876 0.0
H360 H 0.16608 0.43638 0.87134 0.0
H361 H 0.30633 0.42796 0.76193 0.0
H362 H 0.23384 0.37039 0.78517 0.0
Co363 Co 0.5981 0.27043 0.88611 0.0
C364 C 0.6424 0.3195 0.87908 0.0
C365 C 0.62469 0.30449 0.84257 0.0
C366 C 0.6444 0.32744 0.83785 0.0
N367 N 0.62362 0.29918 0.86845 0.0
N368 N 0.65527 0.33685 0.86086 0.0
H369 H 0.64636 0.32223 0.8997 0.0
H370 H 0.61119 0.29353 0.82802 0.0
C371 C 0.54133 0.26588 0.85504 0.0
O372 O 0.5397 0.23721 0.86018 0.0
N373 N 0.57246 0.2424 0.90397 0.0
C374 C 0.5771 0.21351 0.91016 0.0
C375 C 0.55405 0.20426 0.92614 0.0
C376 C 0.547 0.25024 0.9163 0.0
N377 N 0.53519 0.22749 0.92994 0.0
C378 C 0.63861 0.22324 0.87324 0.0
C379 C 0.62273 0.21693 0.8216 0.0
C380 C 0.64855 0.20242 0.83058 0.0
C381 C 0.6557 0.20481 0.85703 0.0
C382 C 0.60608 0.23495 0.83851 0.0
N383 N 0.61462 0.23887 0.86386 0.0
H384 H 0.64552 0.22559 0.89324 0.0
H385 H 0.58785 0.24734 0.83024 0.0
H386 H 0.59621 0.20024 0.90437 0.0
H387 H 0.53806 0.27272 0.91612 0.0
O388 O 0.6258 0.26777 0.91502 0.0
O389 O 0.58824 0.29995 0.91238 0.0
O390 O 0.56447 0.28095 0.86154 0.0
C391 C 0.61009 0.28885 0.92598 0.0
H392 H 0.64912 0.33753 0.81916 0.0
H393 H 0.5518 0.18235 0.93473 0.0
H394 H 0.61649 0.21616 0.80124 0.0
H395 H 0.67506 0.19349 0.865 0.0
Co396 Co 0.67409 0.38711 0.14132 0.0
C397 C 0.60869 0.37837 0.14965 0.0
C398 C 0.63129 0.39139 0.18472 0.0
C399 C 0.60156 0.38662 0.19052 0.0
N400 N 0.63585 0.38577 0.15916 0.0
N401 N 0.58753 0.3786 0.16839 0.0
H402 H 0.60432 0.37214 0.12966 0.0
H403 H 0.64849 0.39808 0.19834 0.0
C404 C 0.67354 0.45223 0.13999 0.0
O405 O 0.66808 0.44891 0.11504 0.0
N406 N 0.71277 0.38771 0.1241 0.0
C407 C 0.73003 0.36329 0.1202 0.0
C408 C 0.75576 0.37153 0.10746 0.0
C409 C 0.7285 0.41057 0.11402 0.0
N410 N 0.75473 0.40125 0.10369 0.0
C411 C 0.6878 0.34315 0.17894 0.0
C412 C 0.74013 0.3703 0.19535 0.0
C413 C 0.73584 0.33981 0.20036 0.0
C414 C 0.70839 0.3268 0.19347 0.0
C415 C 0.71877 0.38594 0.18105 0.0
N416 N 0.69406 0.37167 0.17168 0.0
H417 H 0.66803 0.33215 0.17153 0.0
H418 H 0.72387 0.40843 0.17496 0.0
H419 H 0.72421 0.3409 0.12615 0.0
H420 H 0.72095 0.4334 0.11347 0.0
O421 O 0.66586 0.34968 0.12335 0.0
O422 O 0.65442 0.39459 0.10858 0.0
O423 O 0.67826 0.42944 0.15428 0.0
C424 C 0.65514 0.36597 0.10463 0.0
H425 H 0.59105 0.38884 0.20945 0.0
H426 H 0.77369 0.35682 0.10123 0.0
H427 H 0.76095 0.38132 0.20021 0.0
H428 H 0.70375 0.30358 0.19765 0.0
Co429 Co 0.5753 0.72707 0.11181 0.0
C430 C 0.59478 0.67451 0.14162 0.0
C431 C 0.5486 0.67085 0.13065 0.0
C432 C 0.55715 0.64479 0.14271 0.0
N433 N 0.57227 0.68941 0.12992 0.0
N434 N 0.58629 0.64702 0.14936 0.0
H435 H 0.61732 0.68305 0.14334 0.0
H436 H 0.52707 0.67512 0.1218 0.0
C437 C 0.51149 0.74998 0.1163 0.0
O438 O 0.52031 0.77587 0.12565 0.0
N439 N 0.57868 0.76471 0.09317 0.0
C440 C 0.60332 0.78191 0.09045 0.0
C441 C 0.5973 0.80461 0.0733 0.0
C442 C 0.55849 0.77666 0.07666 0.0
N443 N 0.56903 0.80134 0.0648 0.0
C444 C 0.60199 0.7636 0.15115 0.0
C445 C 0.5554 0.76029 0.18653 0.0
C446 C 0.5792 0.77981 0.19144 0.0
C447 C 0.60318 0.78055 0.17385 0.0
C448 C 0.55517 0.74371 0.16342 0.0
N449 N 0.57724 0.74727 0.14523 0.0
H450 H 0.62122 0.76334 0.13856 0.0
H451 H 0.53691 0.72845 0.15997 0.0
H452 H 0.62506 0.77737 0.09865 0.0
H453 H 0.53734 0.76638 0.07185 0.0
O454 O 0.61753 0.71965 0.10576 0.0
O455 O 0.58048 0.70583 0.07958 0.0
O456 O 0.53035 0.72951 0.11054 0.0
C457 C 0.60901 0.70614 0.08451 0.0
H458 H 0.54361 0.6249 0.14461 0.0
H459 H 0.61294 0.82141 0.06674 0.0
H460 H 0.53698 0.7582 0.20013 0.0
H461 H 0.62294 0.7938 0.17777 0.0
Co462 Co 0.22716 0.65051 0.05877 0.0
C463 C 0.28461 0.6767 0.07796 0.0
C464 C 0.26209 0.65126 0.1073 0.0
C465 C 0.28802 0.66265 0.11783 0.0
N466 N 0.25981 0.66023 0.0823 0.0
N467 N 0.30212 0.67852 0.09928 0.0
H468 H 0.29 0.68732 0.05974 0.0
H469 H 0.24599 0.6373 0.1172 0.0
C470 C 0.21729 0.58358 0.06643 0.0
O471 O 0.19352 0.58334 0.05146 0.0
N472 N 0.19461 0.64101 0.03507 0.0
C473 C 0.16556 0.64951 0.03609 0.0
C474 C 0.15089 0.63816 0.01456 0.0
C475 C 0.19742 0.62596 0.01238 0.0
N476 N 0.17115 0.62364 -0.00026 0.0
C477 C 0.20084 0.68808 0.09765 0.0
C478 C 0.16269 0.64578 0.11829 0.0
C479 C 0.16579 0.67323 0.13121 0.0
C480 C 0.18455 0.69489 0.12019 0.0
C481 C 0.17958 0.6398 0.09605 0.0
N482 N 0.19906 0.66045 0.08644 0.0
H483 H 0.21622 0.70443 0.08993 0.0
H484 H 0.17686 0.6185 0.08671 0.0
H485 H 0.15558 0.66322 0.05118 0.0
H486 H 0.21807 0.61582 0.00565 0.0
O487 O 0.23051 0.68912 0.04196 0.0
O488 O 0.25475 0.64784 0.03006 0.0
O489 O 0.2312 0.60788 0.07132 0.0
C490 C 0.24891 0.67587 0.02586 0.0
H491 H 0.29627 0.65889 0.13737 0.0
H492 H 0.12738 0.64066 0.00996 0.0
H493 H 0.14769 0.62875 0.12555 0.0
H494 H 0.18777 0.71638 0.12952 0.0
Co495 Co 0.32157 0.30954 0.10802 0.0
C496 C 0.30383 0.37064 0.12294 0.0
C497 C 0.27906 0.33817 0.14462 0.0
C498 C 0.26681 0.36589 0.14933 0.0
N499 N 0.3022 0.34108 0.1279 0.0
N500 N 0.28217 0.38622 0.13542 0.0
H501 H 0.31862 0.3802 0.10852 0.0
H502 H 0.26997 0.31728 0.15142 0.0
C503 C 0.38342 0.30324 0.12988 0.0
O504 O 0.38119 0.27407 0.12778 0.0
N505 N 0.34072 0.27827 0.08743 0.0
C506 C 0.33178 0.24981 0.0833 0.0
C507 C 0.35146 0.23608 0.0665 0.0
C508 C 0.36517 0.28162 0.07222 0.0
N509 N 0.37237 0.25609 0.05957 0.0
C510 C 0.28809 0.2618 0.13081 0.0
C511 C 0.32483 0.25412 0.17339 0.0
C512 C 0.30523 0.23098 0.16629 0.0
C513 C 0.28487 0.23635 0.14604 0.0
C514 C 0.3265 0.27962 0.15802 0.0
N515 N 0.31117 0.28106 0.13511 0.0
H516 H 0.27359 0.26457 0.11419 0.0
H517 H 0.34135 0.29729 0.16397 0.0
H518 H 0.31189 0.23952 0.09082 0.0
H519 H 0.37749 0.30231 0.07057 0.0
O520 O 0.28637 0.30629 0.08606 0.0
O521 O 0.32539 0.33584 0.07899 0.0
O522 O 0.36118 0.32014 0.12445 0.0
C523 C 0.29937 0.32624 0.07157 0.0
H524 H 0.24687 0.37041 0.16071 0.0
H525 H 0.34983 0.21345 0.05912 0.0
H526 H 0.34014 0.2521 0.18958 0.0
H527 H 0.26767 0.22036 0.141 0.0
H528 H 0.26039 0.92119 0.3979 0.0
H529 H 0.11322 0.86085 0.33683 0.0
H530 H 0.23401 0.94641 0.32014 0.0
H531 H 0.16407 0.80796 0.3911 0.0
H532 H 0.15725 0.89254 0.32999 0.0
H533 H 0.22665 0.87852 0.39537 0.0
C534 C 0.24786 0.91754 0.38012 0.0
C535 C 0.24925 0.93804 0.35955 0.0
C536 C 0.15892 0.87365 0.34302 0.0
C537 C 0.21023 0.88956 0.35677 0.0
C538 C 0.1338 0.8558 0.34705 0.0
C539 C 0.1351 0.83198 0.36462 0.0
C540 C 0.18521 0.86803 0.35718 0.0
C541 C 0.16228 0.82606 0.37729 0.0
C542 C 0.22861 0.89314 0.3787 0.0
C543 C 0.23288 0.93181 0.33683 0.0
N544 N 0.18615 0.84432 0.37369 0.0
N545 N 0.21342 0.90853 0.33629 0.0
H546 H 0.14363 0.06521 0.28781 0.0
H547 H 0.05435 0.17525 0.38066 0.0
H548 H 0.18299 0.11063 0.3536 0.0
H549 H 0.01842 0.14391 0.30758 0.0
H550 H 0.10339 0.15612 0.36815 0.0
H551 H 0.09962 0.09766 0.29152 0.0
C552 C 0.14318 0.08229 0.3028 0.0
C553 C 0.16684 0.08493 0.32063 0.0
C554 C 0.08497 0.15371 0.35462 0.0
C555 C 0.11659 0.12204 0.32508 0.0
C556 C 0.05691 0.16457 0.3618 0.0
C557 C 0.03227 0.16073 0.34526 0.0
C558 C 0.08836 0.13832 0.33091 0.0
C559 C 0.03689 0.14715 0.32092 0.0
C560 C 0.11812 0.10088 0.30484 0.0
C561 C 0.16535 0.10778 0.33939 0.0
N562 N 0.06434 0.1359 0.31464 0.0
N563 N 0.14045 0.12511 0.34137 0.0
H564 H 0.74059 0.01477 0.39877 0.0
H565 H 0.90722 0.03854 0.34511 0.0
H566 H 0.79873 0.94235 0.37497 0.0
H567 H 0.84721 0.11073 0.36551 0.0
H568 H 0.86733 0.00294 0.35467 0.0
H569 H 0.77885 0.05031 0.38519 0.0
C570 C 0.76128 0.00631 0.3905 0.0
C571 C 0.76646 0.97549 0.38813 0.0
C572 C 0.86291 0.0266 0.35702 0.0
C573 C 0.81054 0.01612 0.37273 0.0
C574 C 0.88567 0.04695 0.35148 0.0
C575 C 0.88074 0.07774 0.35466 0.0
C576 C 0.83496 0.03707 0.3658 0.0
C577 C 0.85236 0.08726 0.36324 0.0
C578 C 0.78318 0.02664 0.3828 0.0
C579 C 0.79375 0.9659 0.37725 0.0
N580 N 0.83062 0.06702 0.36854 0.0
N581 N 0.81481 0.98613 0.3701 0.0
H582 H 0.82336 0.79804 0.34707 0.0
H583 H 0.98376 0.78511 0.41373 0.0
H584 H 0.84502 0.84173 0.41962 0.0
H585 H 0.95202 0.72134 0.35687 0.0
H586 H 0.93421 0.8084 0.41435 0.0
H587 H 0.87148 0.77175 0.34853 0.0
C588 C 0.83826 0.80202 0.36333 0.0
C589 C 0.83026 0.82213 0.38322 0.0
C590 C 0.93805 0.78923 0.40183 0.0
C591 C 0.88536 0.79231 0.38497 0.0
C592 C 0.96637 0.77599 0.40136 0.0
C593 C 0.97208 0.75125 0.38517 0.0
C594 C 0.91533 0.77795 0.38572 0.0
C595 C 0.94863 0.74033 0.36967 0.0
C596 C 0.86562 0.78693 0.36422 0.0
C597 C 0.85022 0.82625 0.40401 0.0
N598 N 0.92133 0.75389 0.37019 0.0
N599 N 0.87698 0.81168 0.40422 0.0
H600 H 0.20644 0.12931 0.62515 0.0
H601 H 0.16629 0.97248 0.56035 0.0
H602 H 0.16112 0.11919 0.55152 0.0
H603 H 0.23789 0.98049 0.61635 0.0
H604 H 0.16019 0.02637 0.56094 0.0
H605 H 0.21455 0.07486 0.62619 0.0
C606 C 0.19822 0.11564 0.60927 0.0
C607 C 0.18325 0.12874 0.58815 0.0
C608 C 0.17731 0.01644 0.57309 0.0
C609 C 0.1922 0.0669 0.58927 0.0
C610 C 0.18076 0.98558 0.57285 0.0
C611 C 0.20268 0.97192 0.58832 0.0
C612 C 0.19567 0.03398 0.58911 0.0
C613 C 0.22079 0.99017 0.60406 0.0
C614 C 0.20299 0.08471 0.60979 0.0
C615 C 0.17316 0.11012 0.56797 0.0
N616 N 0.21679 0.02038 0.60416 0.0
N617 N 0.17767 0.08021 0.56912 0.0
H618 H 0.96621 0.14309 0.63922 0.0
H619 H 0.03717 0.27805 0.55868 0.0
H620 H 0.91474 0.20145 0.58971 0.0
H621 H 0.08901 0.21131 0.59921 0.0
H622 H 0.9914 0.25606 0.57633 0.0
H623 H 0.01046 0.17358 0.63111 0.0
C624 C 0.96417 0.16245 0.62679 0.0
C625 C 0.93681 0.16945 0.61485 0.0
C626 C 0.01282 0.24646 0.58158 0.0
C627 C 0.9874 0.20456 0.6055 0.0
C628 C 0.039 0.25906 0.5716 0.0
C629 C 0.06699 0.24628 0.57721 0.0
C630 C 0.01467 0.22096 0.59736 0.0
C631 C 0.06793 0.22171 0.59409 0.0
C632 C 0.98942 0.17991 0.62222 0.0
C633 C 0.93531 0.19522 0.59938 0.0
N634 N 0.04215 0.20972 0.60337 0.0
N635 N 0.96035 0.21164 0.59491 0.0
H636 H 0.84414 0.89266 0.68787 0.0
H637 H 0.83607 0.03282 0.59551 0.0
H638 H 0.85277 0.88529 0.60444 0.0
H639 H 0.78893 0.03177 0.66896 0.0
H640 H 0.84572 0.97943 0.59973 0.0
H641 H 0.82665 0.94433 0.68282 0.0
C642 C 0.84216 0.90192 0.6685 0.0
C643 C 0.85002 0.88485 0.64654 0.0
C644 C 0.8331 0.99081 0.61485 0.0
C645 C 0.83042 0.94371 0.64064 0.0
C646 C 0.82776 0.02131 0.61257 0.0
C647 C 0.81185 0.03673 0.63203 0.0
C648 C 0.82299 0.97563 0.63701 0.0
C649 C 0.80131 0.02065 0.65355 0.0
C650 C 0.83204 0.93125 0.66563 0.0
C651 C 0.84678 0.89767 0.62183 0.0
N652 N 0.8074 0.99094 0.65565 0.0
N653 N 0.83761 0.9265 0.61956 0.0
H654 H 0.97 0.83253 0.57438 0.0
H655 H 0.11546 0.84219 0.66295 0.0
H656 H 0.9782 0.78338 0.64619 0.0
H657 H 0.11616 0.86126 0.58068 0.0
H658 H 0.06384 0.82412 0.65886 0.0
H659 H 0.0226 0.8467 0.57777 0.0
C660 C 0.98293 0.82463 0.59082 0.0
C661 C 0.96977 0.80682 0.61006 0.0
C662 C 0.07541 0.83209 0.64171 0.0
C663 C 0.02981 0.8232 0.6142 0.0
C664 C 0.1047 0.84258 0.64407 0.0
C665 C 0.12 0.85318 0.62212 0.0
C666 C 0.06127 0.83273 0.6173 0.0
C667 C 0.10524 0.85297 0.59802 0.0
C668 C 0.01295 0.83265 0.5927 0.0
C669 C 0.98756 0.79709 0.63089 0.0
N670 N 0.07661 0.84312 0.59629 0.0
N671 N 0.01668 0.80566 0.63256 0.0
H672 H 0.71193 0.51427 0.89748 0.0
H673 H 0.70566 0.35256 0.83514 0.0
H674 H 0.79414 0.46597 0.88296 0.0
H675 H 0.64545 0.38029 0.89631 0.0
H676 H 0.7355 0.39815 0.84262 0.0
H677 H 0.68364 0.46939 0.88617 0.0
C678 C 0.72405 0.49439 0.89147 0.0
C679 C 0.75547 0.49378 0.89127 0.0
C680 C 0.71577 0.3941 0.85436 0.0
C681 C 0.72315 0.4426 0.87818 0.0
C682 C 0.69883 0.36831 0.85009 0.0
C683 C 0.67335 0.36281 0.8653 0.0
C684 C 0.70644 0.41476 0.87336 0.0
C685 C 0.66519 0.38371 0.88445 0.0
C686 C 0.70787 0.46879 0.88524 0.0
C687 C 0.76994 0.4673 0.8835 0.0
N688 N 0.68151 0.40897 0.88776 0.0
N689 N 0.75363 0.44267 0.87717 0.0
H690 H 0.53472 0.72851 0.84931 0.0
H691 H 0.6596 0.63959 0.92996 0.0
H692 H 0.52425 0.69773 0.92832 0.0
H693 H 0.66683 0.65512 0.84723 0.0
H694 H 0.61322 0.66798 0.93069 0.0
H695 H 0.58624 0.70877 0.84923 0.0
C696 C 0.54341 0.71804 0.86672 0.0
C697 C 0.52518 0.71448 0.88877 0.0
C698 C 0.62497 0.66534 0.91235 0.0
C699 C 0.58368 0.69195 0.88883 0.0
C700 C 0.6517 0.64925 0.91195 0.0
C701 C 0.66725 0.64478 0.88846 0.0
C702 C 0.61346 0.67714 0.88912 0.0
C703 C 0.6554 0.65758 0.86571 0.0
C704 C 0.57268 0.70664 0.86662 0.0
C705 C 0.53742 0.70064 0.91079 0.0
N706 N 0.62914 0.67308 0.86657 0.0
N707 N 0.56579 0.68981 0.91021 0.0
H708 H 0.29386 0.52212 0.87213 0.0
H709 H 0.40169 0.63415 0.79992 0.0
H710 H 0.30115 0.52312 0.78837 0.0
H711 H 0.36929 0.64862 0.8782 0.0
H712 H 0.36541 0.59362 0.79464 0.0
H713 H 0.32107 0.56909 0.87429 0.0
C714 C 0.30096 0.53255 0.85414 0.0
C715 C 0.29552 0.51884 0.83004 0.0
C716 C 0.36606 0.60592 0.81285 0.0
C717 C 0.32719 0.57226 0.83234 0.0
C718 C 0.38694 0.6288 0.81597 0.0
C719 C 0.38868 0.64452 0.83964 0.0
C720 C 0.34714 0.59852 0.83368 0.0
C721 C 0.36865 0.63713 0.85962 0.0
C722 C 0.31644 0.55937 0.85537 0.0
C723 C 0.30495 0.53319 0.80729 0.0
N724 N 0.34893 0.61445 0.85628 0.0
N725 N 0.32087 0.55902 0.80899 0.0
H726 H 0.36199 0.335 0.85338 0.0
H727 H 0.53881 0.32181 0.83414 0.0
H728 H 0.41992 0.40821 0.8333 0.0
H729 H 0.48301 0.24694 0.85466 0.0
H730 H 0.49395 0.35153 0.82625 0.0
H731 H 0.40415 0.30031 0.84679 0.0
C732 C 0.38343 0.34365 0.84713 0.0
C733 C 0.38772 0.3745 0.84434 0.0
C734 C 0.49142 0.32847 0.83213 0.0
C735 C 0.43587 0.33527 0.8369 0.0
C736 C 0.51708 0.31147 0.83658 0.0
C737 C 0.51466 0.28197 0.84537 0.0
C738 C 0.46305 0.31607 0.83685 0.0
C739 C 0.48591 0.26965 0.84799 0.0
C740 C 0.4075 0.32394 0.84348 0.0
C741 C 0.4159 0.38465 0.83626 0.0
N742 N 0.4612 0.28692 0.84417 0.0
N743 N 0.43892 0.36516 0.83308 0.0
H744 H 0.64481 0.63891 0.13669 0.0
H745 H 0.6437 0.46948 0.18406 0.0
H746 H 0.57165 0.59929 0.17914 0.0
H747 H 0.69619 0.50326 0.12019 0.0
H748 H 0.62793 0.52089 0.19448 0.0
H749 H 0.67405 0.59349 0.14308 0.0
C750 C 0.63513 0.62099 0.14795 0.0
C751 C 0.60552 0.62274 0.15707 0.0
C752 C 0.64357 0.51705 0.17866 0.0
C753 C 0.63885 0.57049 0.16416 0.0
C754 C 0.65275 0.48785 0.17289 0.0
C755 C 0.67102 0.48238 0.15115 0.0
C756 C 0.65311 0.54066 0.16272 0.0
C757 C 0.68187 0.50672 0.13699 0.0
C758 C 0.65181 0.59496 0.15144 0.0
C759 C 0.59416 0.59859 0.17134 0.0
N760 N 0.67252 0.53481 0.14285 0.0
N761 N 0.6107 0.57326 0.17417 0.0
H762 H 0.48756 0.71454 0.07894 0.0
H763 H 0.32642 0.70523 0.1418 0.0
H764 H 0.463 0.77094 0.14394 0.0
H765 H 0.34351 0.68402 0.06109 0.0
H766 H 0.37678 0.72692 0.14497 0.0
H767 H 0.43519 0.70052 0.07371 0.0
C768 C 0.47102 0.72411 0.09203 0.0
C769 C 0.47952 0.74383 0.11196 0.0
C770 C 0.3693 0.71779 0.12653 0.0
C771 C 0.41961 0.72755 0.10632 0.0
C772 C 0.34075 0.70523 0.12478 0.0
C773 C 0.33089 0.69273 0.10119 0.0
C774 C 0.38822 0.71725 0.10467 0.0
C775 C 0.35014 0.6936 0.07959 0.0
C776 C 0.44114 0.71619 0.08897 0.0
C777 C 0.45723 0.75574 0.12828 0.0
N778 N 0.378 0.70532 0.08193 0.0
N779 N 0.42822 0.74705 0.12535 0.0
H780 H 0.27137 0.57172 0.08942 0.0
H781 H 0.22528 0.40728 0.13327 0.0
H782 H 0.18582 0.53173 0.07201 0.0
H783 H 0.31746 0.43341 0.12326 0.0
H784 H 0.20944 0.45664 0.11874 0.0
H785 H 0.28759 0.52454 0.10906 0.0
C786 C 0.25596 0.55309 0.08983 0.0
C787 C 0.22724 0.55559 0.07893 0.0
C788 C 0.23315 0.45166 0.11991 0.0
C789 C 0.24554 0.50188 0.10159 0.0
C790 C 0.24224 0.42359 0.12848 0.0
C791 C 0.27278 0.41624 0.12952 0.0
C792 C 0.25472 0.47272 0.11253 0.0
C793 C 0.29371 0.43816 0.12256 0.0
C794 C 0.26527 0.5262 0.10097 0.0
C795 C 0.20822 0.53074 0.07999 0.0
N796 N 0.2843 0.46547 0.11433 0.0
N797 N 0.21768 0.50497 0.09118 0.0
H798 H 0.40433 0.35897 0.11901 0.0
H799 H 0.55474 0.34442 0.2009 0.0
H800 H 0.42736 0.27791 0.15961 0.0
H801 H 0.55062 0.39336 0.12892 0.0
H802 H 0.50307 0.32737 0.19371 0.0
H803 H 0.45344 0.37957 0.13039 0.0
C804 C 0.41959 0.34567 0.13058 0.0
C805 C 0.41193 0.31666 0.13829 0.0
C806 C 0.51349 0.34201 0.17963 0.0
C807 C 0.46768 0.34016 0.15154 0.0
C808 C 0.54274 0.35184 0.18379 0.0
C809 C 0.55675 0.37016 0.16539 0.0
C810 C 0.49807 0.35122 0.15725 0.0
C811 C 0.54052 0.37903 0.14338 0.0
C812 C 0.44757 0.35737 0.13692 0.0
C813 C 0.43255 0.30029 0.15313 0.0
N814 N 0.51192 0.36958 0.13995 0.0
N815 N 0.45952 0.31232 0.15938 0.0
H816 H 0.27658 0.11941 0.39152 0.0
H817 H 0.14716 0.16074 0.4923 0.0
H818 H 0.21314 0.05484 0.42016 0.0
H819 H 0.2287 0.21186 0.48684 0.0
H820 H 0.16783 0.12455 0.46135 0.0
H821 H 0.25661 0.15616 0.42252 0.0
C822 C 0.25855 0.11294 0.40444 0.0
C823 C 0.2465 0.08406 0.40337 0.0
C824 C 0.18117 0.14372 0.46688 0.0
C825 C 0.22333 0.12603 0.43845 0.0
C826 C 0.16931 0.16452 0.48437 0.0
C827 C 0.18626 0.18934 0.49209 0.0
C828 C 0.21003 0.14797 0.45677 0.0
C829 C 0.21492 0.19299 0.48138 0.0
C830 C 0.24721 0.13389 0.4221 0.0
C831 C 0.22316 0.07682 0.42049 0.0
N832 N 0.22591 0.17254 0.46416 0.0
N833 N 0.21215 0.09777 0.43721 0.0
H834 H 0.85564 0.17717 0.39899 0.0
H835 H 0.86653 0.19689 0.55316 0.0
H836 H 0.93848 0.20011 0.43719 0.0
H837 H 0.81598 0.1262 0.51684 0.0
H838 H 0.88368 0.21285 0.50974 0.0
H839 H 0.83145 0.1731 0.44183 0.0
C840 C 0.86855 0.18187 0.41638 0.0
C841 C 0.8991 0.18864 0.41475 0.0
C842 C 0.86839 0.19421 0.51139 0.0
C843 C 0.87162 0.18463 0.46333 0.0
C844 C 0.85853 0.18526 0.53598 0.0
C845 C 0.84005 0.16019 0.5383 0.0
C846 C 0.85894 0.17839 0.48921 0.0
C847 C 0.83045 0.14552 0.51567 0.0
C848 C 0.8548 0.17948 0.4407 0.0
C849 C 0.91493 0.19447 0.43777 0.0
N850 N 0.84 0.15486 0.49198 0.0
N851 N 0.90099 0.1923 0.46122 0.0
H852 H 0.83871 0.75247 0.54931 0.0
H853 H 0.75695 0.88801 0.496 0.0
H854 H 0.79541 0.8125 0.60339 0.0
H855 H 0.74366 0.80327 0.45755 0.0
H856 H 0.77245 0.86157 0.53548 0.0
H857 H 0.80498 0.76979 0.51485 0.0
C858 C 0.82145 0.7687 0.55398 0.0
C859 C 0.81953 0.78114 0.57897 0.0
C860 C 0.76558 0.84879 0.51855 0.0
C861 C 0.78207 0.80177 0.53983 0.0
C862 C 0.75707 0.86381 0.49605 0.0
C863 C 0.74939 0.84764 0.47364 0.0
C864 C 0.76732 0.81751 0.51824 0.0
C865 C 0.74954 0.81637 0.47456 0.0
C866 C 0.80229 0.77853 0.53443 0.0
C867 C 0.79727 0.80237 0.58426 0.0
N868 N 0.75912 0.80221 0.49639 0.0
N869 N 0.7798 0.8127 0.56458 0.0
H870 H 0.09026 0.74571 0.4836 0.0
H871 H 0.19883 0.79121 0.57337 0.0
H872 H 0.15904 0.7603 0.42604 0.0
H873 H 0.21612 0.85409 0.51182 0.0
H874 H 0.17248 0.75901 0.54188 0.0
H875 H 0.12443 0.76402 0.51746 0.0
C876 C 0.11278 0.75224 0.47823 0.0
C877 C 0.12202 0.75146 0.45214 0.0
C878 C 0.18246 0.77967 0.53532 0.0
C879 C 0.16081 0.77272 0.49044 0.0
C880 C 0.19766 0.79783 0.55312 0.0
C881 C 0.20939 0.8253 0.54506 0.0
C882 C 0.17965 0.78893 0.50932 0.0
C883 C 0.20711 0.83313 0.51874 0.0
C884 C 0.13227 0.76246 0.49752 0.0
C885 C 0.15128 0.76033 0.44604 0.0
N886 N 0.19251 0.815 0.50174 0.0
N887 N 0.16945 0.77133 0.46501 0.0
H888 H 0.75761 0.6541 0.98571 0.0
H889 H 0.59622 0.66359 0.04847 0.0
H890 H 0.69395 0.58186 0.98173 0.0
H891 H 0.67004 0.7126 0.08174 0.0
H892 H 0.63128 0.63679 0.02036 0.0
H893 H 0.72581 0.67886 0.01842 0.0
C894 C 0.73717 0.6433 -0.00805 0.0
C895 C 0.7283 0.61597 0.98098 0.0
C896 C 0.63985 0.65331 0.03388 0.0
C897 C 0.69183 0.64428 0.01777 0.0
C898 C 0.61985 0.66878 0.04978 0.0
C899 C 0.63031 0.69038 0.06736 0.0
C900 C 0.67052 0.65982 0.03522 0.0
C901 C 0.66116 0.69606 0.06841 0.0
C902 C 0.7191 0.65741 0.01057 0.0
C903 C 0.70163 0.60292 -0.01031 0.0
N904 N 0.68027 0.68101 0.05233 0.0
N905 N 0.68415 0.61738 0.00733 0.0
H906 H 0.3998 0.75149 0.95162 0.0
H907 H 0.27106 0.73264 0.02784 0.0
H908 H 0.34157 0.72926 0.88751 0.0
H909 H 0.26418 0.65532 0.97785 0.0
H910 H 0.30562 0.75538 -0.00378 0.0
H911 H 0.35881 0.74069 0.98207 0.0
C912 C 0.37826 0.74464 0.944 0.0
C913 C 0.37389 0.74125 0.91713 0.0
C914 C 0.29609 0.73365 -0.00789 0.0
C915 C 0.32739 0.7286 0.95161 0.0
C916 C 0.27628 0.72084 0.00992 0.0
C917 C 0.26509 0.69207 0.00538 0.0
C918 C 0.30401 0.71777 0.96946 0.0
C919 C 0.27265 0.67747 0.98205 0.0
C920 C 0.35491 0.73875 0.96131 0.0
C921 C 0.34566 0.73229 0.90814 0.0
N922 N 0.29165 0.69051 0.96487 0.0
N923 N 0.32358 0.72557 0.92542 0.0
H924 H 0.26257 0.3488 0.90835 0.0
H925 H 0.2623 0.29728 0.03716 0.0
H926 H 0.27166 0.43631 0.94304 0.0
H927 H 0.30664 0.38118 0.05156 0.0
H928 H 0.24722 0.31557 -0.00603 0.0
H929 H 0.26085 0.32711 0.95204 0.0
C930 C 0.26365 0.36345 0.92517 0.0
C931 C 0.26775 0.3943 0.92215 0.0
C932 C 0.26023 0.32992 0.0066 0.0
C933 C 0.26518 0.36991 0.97199 0.0
C934 C 0.26847 0.31964 0.03129 0.0
C935 C 0.28608 0.33766 0.04753 0.0
C936 C 0.2696 0.35841 -0.00144 0.0
C937 C 0.29351 0.36645 0.03932 0.0
C938 C 0.26237 0.35111 0.95012 0.0
C939 C 0.26897 0.41235 0.94447 0.0
N940 N 0.28531 0.37588 0.01537 0.0
N941 N 0.26809 0.39984 0.96841 0.0
H942 H 0.64877 0.26474 0.96141 0.0
H943 H 0.62176 0.39296 0.0672 0.0
H944 H 0.58551 0.33677 0.95121 0.0
H945 H 0.66678 0.31015 0.08502 0.0
H946 H 0.60973 0.37347 0.02401 0.0
H947 H 0.65782 0.28204 0.00602 0.0
C948 C 0.63688 0.28426 0.96853 0.0
C949 C 0.61645 0.29944 0.95261 0.0
C950 C 0.62203 0.35943 0.03741 0.0
C951 C 0.6266 0.31924 0.0035 0.0
C952 C 0.62891 0.37054 0.06206 0.0
C953 C 0.64532 0.35311 0.07963 0.0
C954 C 0.63198 0.33082 0.03014 0.0
C955 C 0.65398 0.32423 0.07203 0.0
C956 C 0.64191 0.29399 -0.00598 0.0
C957 C 0.60149 0.32445 0.96283 0.0
N958 N 0.64744 0.31405 0.0477 0.0
N959 N 0.60696 0.33365 0.98761 0.0
H960 H 0.2722 0.05977 0.22995 0.0
H961 H 0.3235 0.21625 0.21604 0.0
H962 H 0.36307 0.07965 0.25281 0.0
H963 H 0.29334 0.1763 0.14374 0.0
H964 H 0.33203 0.16641 0.23324 0.0
H965 H 0.27436 0.10043 0.19853 0.0
C966 C 0.29305 0.07177 0.2277 0.0
C967 C 0.31717 0.06697 0.24475 0.0
C968 C 0.32375 0.16881 0.21352 0.0
C969 C 0.31906 0.11396 0.20973 0.0
C970 C 0.31881 0.19725 0.20363 0.0
C971 C 0.30775 0.20085 0.17823 0.0
C972 C 0.31678 0.14376 0.19831 0.0
C973 C 0.30122 0.17492 0.1636 0.0
C974 C 0.29409 0.09516 0.2099 0.0
C975 C 0.34353 0.0834 0.24079 0.0
N976 N 0.30543 0.1474 0.17401 0.0
N977 N 0.34339 0.10705 0.2244 0.0
H978 H 0.75064 0.28341 0.18406 0.0
H979 H 0.89987 0.27517 0.26904 0.0
H980 H 0.77977 0.35368 0.23604 0.0
H981 H 0.85785 0.19773 0.23485 0.0
H982 H 0.86177 0.30683 0.24904 0.0
H983 H 0.79415 0.25387 0.19647 0.0
C984 C 0.7659 0.29251 0.19839 0.0
C985 C 0.7612 0.32099 0.20931 0.0
C986 C 0.86118 0.28296 0.24555 0.0
C987 C 0.81175 0.28755 0.22284 0.0
C988 C 0.88318 0.26492 0.25661 0.0
C989 C 0.88187 0.23378 0.25365 0.0
C990 C 0.83782 0.26974 0.2314 0.0
C991 C 0.85946 0.22165 0.23773 0.0
C992 C 0.79097 0.27574 0.20518 0.0
C993 C 0.78246 0.33192 0.22706 0.0
N994 N 0.83808 0.23964 0.2274 0.0
N995 N 0.80681 0.31516 0.23328 0.0
H996 H 0.65733 0.89848 0.29843 0.0
H997 H 0.56493 0.76383 0.24144 0.0
H998 H 0.61598 0.83118 0.34646 0.0
H999 H 0.59576 0.83816 0.19547 0.0
H1000 H 0.57524 0.79253 0.281 0.0
H1001 H 0.62703 0.88185 0.26181 0.0
C1002 C 0.64142 0.88061 0.30145 0.0
C1003 C 0.6397 0.86573 0.32538 0.0
C1004 C 0.57926 0.80278 0.26225 0.0
C1005 C 0.60546 0.84607 0.28334 0.0
C1006 C 0.57327 0.78643 0.23968 0.0
C1007 C 0.58022 0.79842 0.21524 0.0
C1008 C 0.59249 0.83114 0.26025 0.0
C1009 C 0.59095 0.82779 0.21403 0.0
C1010 C 0.6242 0.87099 0.28046 0.0
C1011 C 0.61872 0.84264 0.32808 0.0
N1012 N 0.59724 0.84298 0.23624 0.0
N1013 N 0.6028 0.83314 0.30717 0.0
H1014 H 0.08958 0.75204 0.27076 0.0
H1015 H 0.15845 0.63322 0.1708 0.0
H1016 H 0.09983 0.65819 0.28767 0.0
H1017 H 0.13994 0.72487 0.15028 0.0
H1018 H 0.13584 0.64193 0.21329 0.0
H1019 H 0.10655 0.74252 0.22625 0.0
C1020 C 0.09502 0.72935 0.26504 0.0
C1021 C 0.0933 0.70586 0.28303 0.0
C1022 C 0.13653 0.66013 0.19947 0.0
C1023 C 0.11328 0.69493 0.23218 0.0
C1024 C 0.14927 0.65512 0.17507 0.0
C1025 C 0.15101 0.67832 0.1568 0.0
C1026 C 0.12556 0.68862 0.20588 0.0
C1027 C 0.13939 0.70641 0.16381 0.0
C1028 C 0.10491 0.72398 0.23965 0.0
C1029 C 0.10121 0.67704 0.2746 0.0
N1030 N 0.12723 0.7108 0.18784 0.0
N1031 N 0.11096 0.67242 0.24983 0.0
H1032 H 0.43725 0.76995 0.73734 0.0
H1033 H 0.32954 0.90434 0.70043 0.0
H1034 H 0.42901 0.85021 0.78341 0.0
H1035 H 0.33625 0.82109 0.65812 0.0
H1036 H 0.37405 0.89029 0.72556 0.0
H1037 H 0.41058 0.79447 0.70185 0.0
C1038 C 0.43077 0.79318 0.7395 0.0
C1039 C 0.435 0.80813 0.7632 0.0
C1040 C 0.36592 0.87526 0.71059 0.0
C1041 C 0.4033 0.83584 0.72343 0.0
C1042 C 0.3405 0.88321 0.69636 0.0
C1043 C 0.32881 0.86347 0.67771 0.0
C1044 C 0.37971 0.84746 0.70597 0.0
C1045 C 0.34398 0.83653 0.67293 0.0
C1046 C 0.41524 0.80709 0.71942 0.0
C1047 C 0.42609 0.83807 0.7653 0.0
N1048 N 0.36846 0.82923 0.68712 0.0
N1049 N 0.40992 0.85079 0.74587 0.0
H1050 H 0.21456 0.40559 0.7471 0.0
H1051 H 0.26068 0.32191 0.61521 0.0
H1052 H 0.30538 0.3783 0.73091 0.0
H1053 H 0.17035 0.33264 0.64416 0.0
H1054 H 0.27894 0.3504 0.65289 0.0
H1055 H 0.19974 0.38843 0.70396 0.0
C1056 C 0.23141 0.39615 0.73425 0.0
C1057 C 0.26104 0.39278 0.74256 0.0
C1058 C 0.25512 0.34672 0.65069 0.0
C1059 C 0.2443 0.37274 0.69332 0.0
C1060 C 0.24468 0.33033 0.62932 0.0
C1061 C 0.21388 0.3248 0.62642 0.0
C1062 C 0.23457 0.35773 0.66911 0.0
C1063 C 0.19419 0.3367 0.64513 0.0
C1064 C 0.22299 0.38634 0.70966 0.0
C1065 C 0.28224 0.38101 0.72512 0.0
N1066 N 0.20489 0.35246 0.66562 0.0
N1067 N 0.27335 0.37092 0.70131 0.0
H1068 H 0.63525 0.16896 0.78709 0.0
H1069 H 0.80459 0.16094 0.73618 0.0
H1070 H 0.70993 0.20363 0.83112 0.0
H1071 H 0.72705 0.15677 0.68632 0.0
H1072 H 0.77118 0.16623 0.77411 0.0
H1073 H 0.67005 0.15314 0.75292 0.0
C1074 C 0.65895 0.173 0.78972 0.0
C1075 C 0.66957 0.18805 0.81188 0.0
C1076 C 0.76159 0.16404 0.75483 0.0
C1077 C 0.70949 0.16981 0.77295 0.0
C1078 C 0.78057 0.16105 0.73329 0.0
C1079 C 0.76846 0.15897 0.70818 0.0
C1080 C 0.73041 0.16439 0.75111 0.0
C1081 C 0.73723 0.15898 0.70537 0.0
C1082 C 0.67879 0.16392 0.77023 0.0
C1083 C 0.70066 0.19199 0.81448 0.0
N1084 N 0.71929 0.16168 0.72656 0.0
N1085 N 0.71951 0.18319 0.79512 0.0
H1086 H 0.86431 0.6784 0.86522 0.0
H1087 H 0.91012 0.66745 0.71547 0.0
H1088 H 0.85598 0.59861 0.81818 0.0
H1089 H 0.88614 0.74939 0.75492 0.0
H1090 H 0.90713 0.64104 0.75708 0.0
H1091 H 0.88912 0.70308 0.82876 0.0
C1092 C 0.86803 0.66594 0.84737 0.0
C1093 C 0.85732 0.63666 0.8445 0.0
C1094 C 0.90309 0.6649 0.75666 0.0
C1095 C 0.88604 0.66457 0.80306 0.0
C1096 C 0.90487 0.67995 0.73302 0.0
C1097 C 0.89786 0.71046 0.73188 0.0
C1098 C 0.89443 0.6806 0.77918 0.0
C1099 C 0.89112 0.72571 0.75505 0.0
C1100 C 0.88233 0.67999 0.82668 0.0
C1101 C 0.86369 0.62124 0.82126 0.0
N1102 N 0.88927 0.71053 0.77779 0.0
N1103 N 0.87725 0.63556 0.80125 0.0
H1104 H 0.33364 0.04242 0.44326 0.0
H1105 H 0.35403 0.89134 0.52054 0.0
H1106 H 0.37383 0.9622 0.41187 0.0
H1107 H 0.30057 0.96603 0.54693 0.0
H1108 H 0.37563 0.92287 0.48683 0.0
H1109 H 0.33644 0.02085 0.48683 0.0
C1110 C 0.34366 0.02055 0.4456 0.0
C1111 C 0.35247 0.00366 0.42378 0.0
C1112 C 0.35954 0.93251 0.50028 0.0
C1113 C 0.35573 0.97889 0.47341 0.0
C1114 C 0.34724 0.91452 0.51959 0.0
C1115 C 0.32484 0.92586 0.53612 0.0
C1116 C 0.34926 0.96197 0.49742 0.0
C1117 C 0.31701 0.95612 0.53402 0.0
C1118 C 0.34529 0.00827 0.47045 0.0
C1119 C 0.36625 0.97588 0.42799 0.0
N1120 N 0.32886 0.97302 0.51472 0.0
N1121 N 0.3668 0.96406 0.45227 0.0
H1122 H 0.96271 0.30425 0.40608 0.0
H1123 H 0.13732 0.30806 0.43895 0.0
H1124 H 0.03095 0.27091 0.35418 0.0
H1125 H 0.06732 0.29603 0.49569 0.0
H1126 H 0.09895 0.31436 0.40494 0.0
H1127 H 0.00192 0.32223 0.43572 0.0
C1128 C 0.98598 0.30184 0.4005 0.0
C1129 C 0.99387 0.28596 0.37794 0.0
C1130 C 0.09209 0.31102 0.42496 0.0
C1131 C 0.03843 0.30603 0.41147 0.0
C1132 C 0.11385 0.30747 0.44423 0.0
C1133 C 0.10518 0.30109 0.46983 0.0
C1134 C 0.06168 0.30873 0.43166 0.0
C1135 C 0.07464 0.30044 0.47597 0.0
C1136 C 0.00826 0.31181 0.41743 0.0
C1137 C 0.02424 0.28292 0.37159 0.0
N1138 N 0.05391 0.30401 0.45696 0.0
N1139 N 0.04554 0.29251 0.38846 0.0
H1140 H 0.7105 0.93407 0.50983 0.0
H1141 H 0.70182 0.10661 0.5362 0.0
H1142 H 0.65281 0.99159 0.46533 0.0
H1143 H 0.73809 0.04361 0.59114 0.0
H1144 H 0.67803 0.06519 0.51277 0.0
H1145 H 0.71567 0.9733 0.54269 0.0
C1146 C 0.69849 0.95492 0.50737 0.0
C1147 C 0.68142 0.95992 0.485 0.0
C1148 C 0.69069 0.06051 0.53027 0.0
C1149 C 0.6877 0.0052 0.52191 0.0
C1150 C 0.70419 0.08415 0.54365 0.0
C1151 C 0.7225 0.07834 0.56523 0.0
C1152 C 0.69578 0.03104 0.53853 0.0
C1153 C 0.72484 0.04887 0.57412 0.0
C1154 C 0.70136 0.9773 0.52605 0.0
C1155 C 0.66612 0.98711 0.48248 0.0
N1156 N 0.71207 0.02628 0.56051 0.0
N1157 N 0.67013 0.0091 0.50049 0.0
H1158 H 0.89561 0.65529 0.54672 0.0
H1159 H 0.05919 0.67085 0.48735 0.0
H1160 H 0.96988 0.69917 0.58406 0.0
H1161 H 0.98342 0.64027 0.44304 0.0
H1162 H 0.02984 0.66631 0.52732 0.0
H1163 H 0.92997 0.63603 0.51312 0.0
C1164 C 0.91926 0.66028 0.5481 0.0
C1165 C 0.93 0.67925 0.56776 0.0
C1166 C 0.01972 0.65993 0.50897 0.0
C1167 C 0.96919 0.65745 0.52977 0.0
C1168 C 0.03654 0.66237 0.48626 0.0
C1169 C 0.02345 0.65628 0.46207 0.0
C1170 C 0.98939 0.65195 0.50736 0.0
C1171 C 0.99414 0.64521 0.46144 0.0
C1172 C 0.9388 0.6494 0.52896 0.0
C1173 C 0.96074 0.68515 0.56882 0.0
N1174 N 0.97776 0.64405 0.48378 0.0
N1175 N 0.9792 0.67455 0.54994 0.0
H1176 H 0.83221 0.5503 0.02545 0.0
H1177 H 0.78671 0.38337 0.0616 0.0
H1178 H 0.81232 0.48133 0.96946 0.0
H1179 H 0.76897 0.45939 0.11122 0.0
H1180 H 0.81426 0.4158 0.03185 0.0
H1181 H 0.82687 0.51352 0.06069 0.0
C1182 C 0.82765 0.52718 0.02066 0.0
C1183 C 0.82238 0.51857 -0.00518 0.0
C1184 C 0.80482 0.42523 0.04953 0.0
C1185 C 0.81637 0.47686 0.03443 0.0
C1186 C 0.78925 0.40675 0.06655 0.0
C1187 C 0.77511 0.4189 0.0886 0.0
C1188 C 0.80639 0.45597 0.05474 0.0
C1189 C 0.77899 0.44937 0.09407 0.0
C1190 C 0.82445 0.50635 0.04063 0.0
C1191 C 0.81624 0.48859 0.98931 0.0
N1192 N 0.79401 0.46701 0.07706 0.0
N1193 N 0.81314 0.46878 0.009 0.0
H1194 H 0.43787 0.84826 0.95315 0.0
H1195 H 0.59523 0.82784 0.0232 0.0
H1196 H 0.52131 0.83183 0.91351 0.0
H1197 H 0.50974 0.81215 0.05979 0.0
H1198 H 0.56939 0.84861 0.98544 0.0
H1199 H 0.46539 0.85494 -0.00584 0.0
C1200 C 0.4621 0.84734 0.95298 0.0
C1201 C 0.47755 0.83928 0.93025 0.0
C1202 C 0.55633 0.84117 0.00197 0.0
C1203 C 0.50888 0.84635 0.97662 0.0
C1204 C 0.57105 0.82939 0.02355 0.0
C1205 C 0.5545 0.8177 0.04438 0.0
C1206 C 0.52492 0.84132 0.00132 0.0
C1207 C 0.52321 0.82025 0.04379 0.0
C1208 C 0.47774 0.85084 0.97632 0.0
C1209 C 0.50883 0.83785 0.93086 0.0
N1210 N 0.50937 0.83144 0.02241 0.0
N1211 N 0.52352 0.84089 0.9538 0.0
H1212 H 0.12737 0.58344 -0.00975 0.0
H1213 H 0.2097 0.52959 0.85999 0.0
H1214 H 0.20449 0.62568 0.95624 0.0
H1215 H 0.15614 0.47112 0.90746 0.0
H1216 H 0.19467 0.57172 0.88749 0.0
H1217 H 0.12542 0.54886 0.95279 0.0
C1218 C 0.14333 0.58586 0.9745 0.0
C1219 C 0.16627 0.60707 0.97619 0.0
C1220 C 0.18574 0.54977 0.89161 0.0
C1221 C 0.16419 0.56814 0.93367 0.0
C1222 C 0.19427 0.52578 0.87593 0.0
C1223 C 0.18465 0.4968 0.88182 0.0
C1224 C 0.16749 0.54476 0.91341 0.0
C1225 C 0.16421 0.49309 0.90235 0.0
C1226 C 0.14234 0.56613 0.95331 0.0
C1227 C 0.18669 0.60933 0.95559 0.0
N1228 N 0.1567 0.51677 0.91777 0.0
N1229 N 0.18529 0.58997 0.93525 0.0
H1230 H 0.48886 0.26672 0.92724 0.0
H1231 H 0.40444 0.20541 0.05265 0.0
H1232 H 0.52297 0.19268 0.97207 0.0
H1233 H 0.39447 0.29556 0.02478 0.0
H1234 H 0.44357 0.19666 0.01993 0.0
H1235 H 0.4491 0.27352 0.95923 0.0
C1236 C 0.4881 0.25189 0.94382 0.0
C1237 C 0.50973 0.2294 0.94716 0.0
C1238 C 0.43287 0.21837 0.02105 0.0
C1239 C 0.46378 0.23683 0.98364 0.0
C1240 C 0.41053 0.22332 0.0396 0.0
C1241 C 0.3963 0.25123 0.04132 0.0
C1242 C 0.44061 0.24137 0.00387 0.0
C1243 C 0.40514 0.27384 0.02419 0.0
C1244 C 0.4653 0.25579 0.96204 0.0
C1245 C 0.50685 0.21027 0.96862 0.0
N1246 N 0.4266 0.26835 0.00601 0.0
N1247 N 0.48433 0.21448 0.98613 0.0
loop_
_geom_bond_atom_site_label_1
_geom_bond_atom_site_label_2
_geom_bond_distance
_geom_bond_site_symmetry_2
_ccdc_geom_bond_type
Co0 N4 2.148 . S
Co0 N10 2.128 . S
Co0 N20 2.194 . S
Co0 O25 2.351 . S
Co0 O26 2.155 . S
Co0 O27 2.096 . S
C1 N4 1.301 . S
C1 N5 1.328 . S
C1 H6 0.930 . S
C2 C3 1.333 . S
C2 N4 1.317 . S
C2 H7 0.930 . S
C3 C2 1.333 . S
C3 N5 1.350 . S
C3 H29 0.931 . S
N4 Co0 2.148 . S
N4 C1 1.301 . S
N4 C2 1.317 . S
N5 C1 1.328 . S
N5 C3 1.350 . S
H6 C1 0.930 . S
H7 C2 0.930 . S
C8 O9 1.224 . S
C8 O27 1.247 . S
O9 C8 1.224 . S
N10 Co0 2.128 . S
N10 C11 1.355 . S
N10 C13 1.311 . S
C11 N10 1.355 . S
C11 C12 1.363 . S
C11 H23 0.929 . S
C12 C11 1.363 . S
C12 N14 1.375 . S
C12 H30 0.931 . S
C13 N10 1.311 . S
C13 N14 1.347 . S
C13 H24 0.929 . S
N14 C12 1.375 . S
N14 C13 1.347 . S
C15 C18 1.365 . S
C15 N20 1.328 . S
C15 H21 0.929 . S
C16 C17 1.362 . S
C16 C19 1.378 . S
C16 H31 0.929 . S
C17 C16 1.362 . S
C17 C18 1.366 . S
C18 C15 1.365 . S
C18 C17 1.366 . S
C18 H32 0.930 . S
C19 C16 1.378 . S
C19 N20 1.315 . S
C19 H22 0.930 . S
N20 Co0 2.194 . S
N20 C15 1.328 . S
N20 C19 1.315 . S
H21 C15 0.929 . S
H22 C19 0.930 . S
H23 C11 0.929 . S
H24 C13 0.929 . S
O25 Co0 2.351 . S
O25 C28 1.244 . S
O26 Co0 2.155 . S
O26 C28 1.240 . S
O27 Co0 2.096 . S
O27 C8 1.247 . S
C28 O25 1.244 . S
C28 O26 1.240 . S
H29 C3 0.931 . S
H30 C12 0.931 . S
H31 C16 0.929 . S
H32 C18 0.930 . S
Co33 N37 2.148 . S
Co33 N43 2.128 . S
Co33 N53 2.194 . S
Co33 O58 2.351 . S
Co33 O59 2.155 . S
Co33 O60 2.096 . S
C34 N37 1.301 . S
C34 N38 1.328 . S
C34 H39 0.930 . S
C35 C36 1.333 . S
C35 N37 1.317 . S
C35 H40 0.930 . S
C36 C35 1.333 . S
C36 N38 1.350 . S
C36 H62 0.931 . S
N37 Co33 2.148 . S
N37 C34 1.301 . S
N37 C35 1.317 . S
N38 C34 1.328 . S
N38 C36 1.350 . S
H39 C34 0.930 . S
H40 C35 0.930 . S
C41 O42 1.224 . S
C41 O60 1.247 . S
O42 C41 1.224 . S
N43 Co33 2.128 . S
N43 C44 1.355 . S
N43 C46 1.311 . S
C44 N43 1.355 . S
C44 C45 1.363 . S
C44 H56 0.929 . S
C45 C44 1.363 . S
C45 N47 1.375 . S
C45 H63 0.931 . S
C46 N43 1.311 . S
C46 N47 1.347 . S
C46 H57 0.929 . S
N47 C45 1.375 . S
N47 C46 1.347 . S
C48 C51 1.365 . S
C48 N53 1.328 . S
C48 H54 0.929 . S
C49 C50 1.362 . S
C49 C52 1.378 . S
C49 H64 0.929 . S
C50 C49 1.362 . S
C50 C51 1.366 . S
C51 C48 1.365 . S
C51 C50 1.366 . S
C51 H65 0.930 . S
C52 C49 1.378 . S
C52 N53 1.315 . S
C52 H55 0.930 . S
N53 Co33 2.194 . S
N53 C48 1.328 . S
N53 C52 1.315 . S
H54 C48 0.929 . S
H55 C52 0.930 . S
H56 C44 0.929 . S
H57 C46 0.929 . S
O58 Co33 2.351 . S
O58 C61 1.244 . S
O59 Co33 2.155 . S
O59 C61 1.240 . S
O60 Co33 2.096 . S
O60 C41 1.247 . S
C61 O58 1.244 . S
C61 O59 1.240 . S
H62 C36 0.931 . S
H63 C45 0.931 . S
H64 C49 0.929 . S
H65 C51 0.930 . S
Co66 N70 2.148 . S
Co66 N76 2.128 . S
Co66 N86 2.194 . S
Co66 O91 2.351 . S
Co66 O92 2.155 . S
Co66 O93 2.096 . S
C67 N70 1.301 . S
C67 N71 1.328 . S
C67 H72 0.930 . S
C68 C69 1.333 . S
C68 N70 1.317 . S
C68 H73 0.930 . S
C69 C68 1.333 . S
C69 N71 1.350 . S
C69 H95 0.931 . S
N70 Co66 2.148 . S
N70 C67 1.301 . S
N70 C68 1.317 . S
N71 C67 1.328 . S
N71 C69 1.350 . S
H72 C67 0.930 . S
H73 C68 0.930 . S
C74 O75 1.224 . S
C74 O93 1.247 . S
O75 C74 1.224 . S
N76 Co66 2.128 . S
N76 C77 1.355 . S
N76 C79 1.311 . S
C77 N76 1.355 . S
C77 C78 1.363 . S
C77 H89 0.929 . S
C78 C77 1.363 . S
C78 N80 1.375 . S
C78 H96 0.931 . S
C79 N76 1.311 . S
C79 N80 1.347 . S
C79 H90 0.929 . S
N80 C78 1.375 . S
N80 C79 1.347 . S
C81 C84 1.365 . S
C81 N86 1.328 . S
C81 H87 0.929 . S
C82 C83 1.362 . S
C82 C85 1.378 . S
C82 H97 0.929 . S
C83 C82 1.362 . S
C83 C84 1.366 . S
C84 C81 1.365 . S
C84 C83 1.366 . S
C84 H98 0.930 . S
C85 C82 1.378 . S
C85 N86 1.315 . S
C85 H88 0.930 . S
N86 Co66 2.194 . S
N86 C81 1.328 . S
N86 C85 1.315 . S
H87 C81 0.929 . S
H88 C85 0.930 . S
H89 C77 0.929 . S
H90 C79 0.929 . S
O91 Co66 2.351 . S
O91 C94 1.244 . S
O92 Co66 2.155 . S
O92 C94 1.240 . S
O93 Co66 2.096 . S
O93 C74 1.247 . S
C94 O91 1.244 . S
C94 O92 1.240 . S
H95 C69 0.931 . S
H96 C78 0.931 . S
H97 C82 0.929 . S
H98 C84 0.930 . S
Co99 N103 2.148 . S
Co99 N109 2.128 . S
Co99 N119 2.194 . S
Co99 O124 2.351 . S
Co99 O125 2.155 . S
Co99 O126 2.096 . S
C100 N103 1.301 . S
C100 N104 1.328 . S
C100 H105 0.930 . S
C101 C102 1.333 . S
C101 N103 1.317 . S
C101 H106 0.930 . S
C102 C101 1.333 . S
C102 N104 1.350 . S
C102 H128 0.931 . S
N103 Co99 2.148 . S
N103 C100 1.301 . S
N103 C101 1.317 . S
N104 C100 1.328 . S
N104 C102 1.350 . S
H105 C100 0.930 . S
H106 C101 0.930 . S
C107 O108 1.224 . S
C107 O126 1.247 . S
O108 C107 1.224 . S
N109 Co99 2.128 . S
N109 C110 1.355 . S
N109 C112 1.311 . S
C110 N109 1.355 . S
C110 C111 1.363 . S
C110 H122 0.929 . S
C111 C110 1.363 . S
C111 N113 1.375 . S
C111 H129 0.931 . S
C112 N109 1.311 . S
C112 N113 1.347 . S
C112 H123 0.929 . S
N113 C111 1.375 . S
N113 C112 1.347 . S
C114 C117 1.365 . S
C114 N119 1.328 . S
C114 H120 0.929 . S
C115 C116 1.362 . S
C115 C118 1.378 . S
C115 H130 0.929 . S
C116 C115 1.362 . S
C116 C117 1.366 . S
C117 C114 1.365 . S
C117 C116 1.366 . S
C117 H131 0.930 . S
C118 C115 1.378 . S
C118 N119 1.315 . S
C118 H121 0.930 . S
N119 Co99 2.194 . S
N119 C114 1.328 . S
N119 C118 1.315 . S
H120 C114 0.929 . S
H121 C118 0.930 . S
H122 C110 0.929 . S
H123 C112 0.929 . S
O124 Co99 2.351 . S
O124 C127 1.244 . S
O125 Co99 2.155 . S
O125 C127 1.240 . S
O126 Co99 2.096 . S
O126 C107 1.247 . S
C127 O124 1.244 . S
C127 O125 1.240 . S
H128 C102 0.931 . S
H129 C111 0.931 . S
H130 C115 0.929 . S
H131 C117 0.930 . S
Co132 N136 2.148 . S
Co132 N142 2.128 . S
Co132 N152 2.194 . S
Co132 O157 2.351 . S
Co132 O158 2.155 . S
Co132 O159 2.096 . S
C133 N136 1.301 . S
C133 N137 1.328 . S
C133 H138 0.930 . S
C134 C135 1.333 . S
C134 N136 1.317 . S
C134 H139 0.930 . S
C135 C134 1.333 . S
C135 N137 1.350 . S
C135 H161 0.931 . S
N136 Co132 2.148 . S
N136 C133 1.301 . S
N136 C134 1.317 . S
N137 C133 1.328 . S
N137 C135 1.350 . S
H138 C133 0.930 . S
H139 C134 0.930 . S
C140 O141 1.224 . S
C140 O159 1.247 . S
O141 C140 1.224 . S
N142 Co132 2.128 . S
N142 C143 1.355 . S
N142 C145 1.311 . S
C143 N142 1.355 . S
C143 C144 1.363 . S
C143 H155 0.929 . S
C144 C143 1.363 . S
C144 N146 1.375 . S
C144 H162 0.931 . S
C145 N142 1.311 . S
C145 N146 1.347 . S
C145 H156 0.929 . S
N146 C144 1.375 . S
N146 C145 1.347 . S
C147 C150 1.365 . S
C147 N152 1.328 . S
C147 H153 0.929 . S
C148 C149 1.362 . S
C148 C151 1.378 . S
C148 H163 0.929 . S
C149 C148 1.362 . S
C149 C150 1.366 . S
C150 C147 1.365 . S
C150 C149 1.366 . S
C150 H164 0.930 . S
C151 C148 1.378 . S
C151 N152 1.315 . S
C151 H154 0.930 . S
N152 Co132 2.194 . S
N152 C147 1.328 . S
N152 C151 1.315 . S
H153 C147 0.929 . S
H154 C151 0.930 . S
H155 C143 0.929 . S
H156 C145 0.929 . S
O157 Co132 2.351 . S
O157 C160 1.244 . S
O158 Co132 2.155 . S
O158 C160 1.240 . S
O159 Co132 2.096 . S
O159 C140 1.247 . S
C160 O157 1.244 . S
C160 O158 1.240 . S
H161 C135 0.931 . S
H162 C144 0.931 . S
H163 C148 0.929 . S
H164 C150 0.930 . S
Co165 N169 2.148 . S
Co165 N175 2.128 . S
Co165 N185 2.194 . S
Co165 O190 2.351 . S
Co165 O191 2.155 . S
Co165 O192 2.096 . S
C166 N169 1.301 . S
C166 N170 1.328 . S
C166 H171 0.930 . S
C167 C168 1.333 . S
C167 N169 1.317 . S
C167 H172 0.930 . S
C168 C167 1.333 . S
C168 N170 1.350 . S
C168 H194 0.931 . S
N169 Co165 2.148 . S
N169 C166 1.301 . S
N169 C167 1.317 . S
N170 C166 1.328 . S
N170 C168 1.350 . S
H171 C166 0.930 . S
H172 C167 0.930 . S
C173 O174 1.224 . S
C173 O192 1.247 . S
O174 C173 1.224 . S
N175 Co165 2.128 . S
N175 C176 1.355 . S
N175 C178 1.311 . S
C176 N175 1.355 . S
C176 C177 1.363 . S
C176 H188 0.929 . S
C177 C176 1.363 . S
C177 N179 1.375 . S
C177 H195 0.931 . S
C178 N175 1.311 . S
C178 N179 1.347 . S
C178 H189 0.929 . S
N179 C177 1.375 . S
N179 C178 1.347 . S
C180 C183 1.365 . S
C180 N185 1.328 . S
C180 H186 0.929 . S
C181 C182 1.362 . S
C181 C184 1.378 . S
C181 H196 0.929 . S
C182 C181 1.362 . S
C182 C183 1.366 . S
C183 C180 1.365 . S
C183 C182 1.366 . S
C183 H197 0.930 . S
C184 C181 1.378 . S
C184 N185 1.315 . S
C184 H187 0.930 . S
N185 Co165 2.194 . S
N185 C180 1.328 . S
N185 C184 1.315 . S
H186 C180 0.929 . S
H187 C184 0.930 . S
H188 C176 0.929 . S
H189 C178 0.929 . S
O190 Co165 2.351 . S
O190 C193 1.244 . S
O191 Co165 2.155 . S
O191 C193 1.240 . S
O192 Co165 2.096 . S
O192 C173 1.247 . S
C193 O190 1.244 . S
C193 O191 1.240 . S
H194 C168 0.931 . S
H195 C177 0.931 . S
H196 C181 0.929 . S
H197 C183 0.930 . S
Co198 N202 2.148 . S
Co198 N208 2.128 . S
Co198 N218 2.194 . S
Co198 O223 2.351 . S
Co198 O224 2.155 . S
Co198 O225 2.096 . S
C199 N202 1.301 . S
C199 N203 1.328 . S
C199 H204 0.930 . S
C200 C201 1.333 . S
C200 N202 1.317 . S
C200 H205 0.930 . S
C201 C200 1.333 . S
C201 N203 1.350 . S
C201 H227 0.931 . S
N202 Co198 2.148 . S
N202 C199 1.301 . S
N202 C200 1.317 . S
N203 C199 1.328 . S
N203 C201 1.350 . S
H204 C199 0.930 . S
H205 C200 0.930 . S
C206 O207 1.224 . S
C206 O225 1.247 . S
O207 C206 1.224 . S
N208 Co198 2.128 . S
N208 C209 1.355 . S
N208 C211 1.311 . S
C209 N208 1.355 . S
C209 C210 1.363 . S
C209 H221 0.929 . S
C210 C209 1.363 . S
C210 N212 1.375 . S
C210 H228 0.931 . S
C211 N208 1.311 . S
C211 N212 1.347 . S
C211 H222 0.929 . S
N212 C210 1.375 . S
N212 C211 1.347 . S
C213 C216 1.365 . S
C213 N218 1.328 . S
C213 H219 0.929 . S
C214 C215 1.362 . S
C214 C217 1.378 . S
C214 H229 0.929 . S
C215 C214 1.362 . S
C215 C216 1.366 . S
C216 C213 1.365 . S
C216 C215 1.366 . S
C216 H230 0.930 . S
C217 C214 1.378 . S
C217 N218 1.315 . S
C217 H220 0.930 . S
N218 Co198 2.194 . S
N218 C213 1.328 . S
N218 C217 1.315 . S
H219 C213 0.929 . S
H220 C217 0.930 . S
H221 C209 0.929 . S
H222 C211 0.929 . S
O223 Co198 2.351 . S
O223 C226 1.244 . S
O224 Co198 2.155 . S
O224 C226 1.240 . S
O225 Co198 2.096 . S
O225 C206 1.247 . S
C226 O223 1.244 . S
C226 O224 1.240 . S
H227 C201 0.931 . S
H228 C210 0.931 . S
H229 C214 0.929 . S
H230 C216 0.930 . S
Co231 N235 2.148 . S
Co231 N241 2.128 . S
Co231 N251 2.194 . S
Co231 O256 2.351 . S
Co231 O257 2.155 . S
Co231 O258 2.096 . S
C232 N235 1.301 . S
C232 N236 1.328 . S
C232 H237 0.930 . S
C233 C234 1.333 . S
C233 N235 1.317 . S
C233 H238 0.930 . S
C234 C233 1.333 . S
C234 N236 1.350 . S
C234 H260 0.931 . S
N235 Co231 2.148 . S
N235 C232 1.301 . S
N235 C233 1.317 . S
N236 C232 1.328 . S
N236 C234 1.350 . S
H237 C232 0.930 . S
H238 C233 0.930 . S
C239 O240 1.224 . S
C239 O258 1.247 . S
O240 C239 1.224 . S
N241 Co231 2.128 . S
N241 C242 1.355 . S
N241 C244 1.311 . S
C242 N241 1.355 . S
C242 C243 1.363 . S
C242 H254 0.929 . S
C243 C242 1.363 . S
C243 N245 1.375 . S
C243 H261 0.931 . S
C244 N241 1.311 . S
C244 N245 1.347 . S
C244 H255 0.929 . S
N245 C243 1.375 . S
N245 C244 1.347 . S
C246 C249 1.365 . S
C246 N251 1.328 . S
C246 H252 0.929 . S
C247 C248 1.362 . S
C247 C250 1.378 . S
C247 H262 0.929 . S
C248 C247 1.362 . S
C248 C249 1.366 . S
C249 C246 1.365 . S
C249 C248 1.366 . S
C249 H263 0.930 . S
C250 C247 1.378 . S
C250 N251 1.315 . S
C250 H253 0.930 . S
N251 Co231 2.194 . S
N251 C246 1.328 . S
N251 C250 1.315 . S
H252 C246 0.929 . S
H253 C250 0.930 . S
H254 C242 0.929 . S
H255 C244 0.929 . S
O256 Co231 2.351 . S
O256 C259 1.244 . S
O257 Co231 2.155 . S
O257 C259 1.240 . S
O258 Co231 2.096 . S
O258 C239 1.247 . S
C259 O256 1.244 . S
C259 O257 1.240 . S
H260 C234 0.931 . S
H261 C243 0.931 . S
H262 C247 0.929 . S
H263 C249 0.930 . S
Co264 N268 2.148 . S
Co264 N274 2.128 . S
Co264 N284 2.194 . S
Co264 O289 2.351 . S
Co264 O290 2.155 . S
Co264 O291 2.096 . S
C265 N268 1.301 . S
C265 N269 1.328 . S
C265 H270 0.930 . S
C266 C267 1.333 . S
C266 N268 1.317 . S
C266 H271 0.930 . S
C267 C266 1.333 . S
C267 N269 1.350 . S
C267 H293 0.931 . S
N268 Co264 2.148 . S
N268 C265 1.301 . S
N268 C266 1.317 . S
N269 C265 1.328 . S
N269 C267 1.350 . S
H270 C265 0.930 . S
H271 C266 0.930 . S
C272 O273 1.224 . S
C272 O291 1.247 . S
O273 C272 1.224 . S
N274 Co264 2.128 . S
N274 C275 1.355 . S
N274 C277 1.311 . S
C275 N274 1.355 . S
C275 C276 1.363 . S
C275 H287 0.929 . S
C276 C275 1.363 . S
C276 N278 1.375 . S
C276 H294 0.931 . S
C277 N274 1.311 . S
C277 N278 1.347 . S
C277 H288 0.929 . S
N278 C276 1.375 . S
N278 C277 1.347 . S
C279 C282 1.365 . S
C279 N284 1.328 . S
C279 H285 0.929 . S
C280 C281 1.362 . S
C280 C283 1.378 . S
C280 H295 0.929 . S
C281 C280 1.362 . S
C281 C282 1.366 . S
C282 C279 1.365 . S
C282 C281 1.366 . S
C282 H296 0.930 . S
C283 C280 1.378 . S
C283 N284 1.315 . S
C283 H286 0.930 . S
N284 Co264 2.194 . S
N284 C279 1.328 . S
N284 C283 1.315 . S
H285 C279 0.929 . S
H286 C283 0.930 . S
H287 C275 0.929 . S
H288 C277 0.929 . S
O289 Co264 2.351 . S
O289 C292 1.244 . S
O290 Co264 2.155 . S
O290 C292 1.240 . S
O291 Co264 2.096 . S
O291 C272 1.247 . S
C292 O289 1.244 . S
C292 O290 1.240 . S
H293 C267 0.931 . S
H294 C276 0.931 . S
H295 C280 0.929 . S
H296 C282 0.930 . S
Co297 N301 2.148 . S
Co297 N307 2.128 . S
Co297 N317 2.194 . S
Co297 O322 2.351 . S
Co297 O323 2.155 . S
Co297 O324 2.096 . S
C298 N301 1.301 . S
C298 N302 1.328 . S
C298 H303 0.930 . S
C299 C300 1.333 . S
C299 N301 1.317 . S
C299 H304 0.930 . S
C300 C299 1.333 . S
C300 N302 1.350 . S
C300 H326 0.931 . S
N301 Co297 2.148 . S
N301 C298 1.301 . S
N301 C299 1.317 . S
N302 C298 1.328 . S
N302 C300 1.350 . S
H303 C298 0.930 . S
H304 C299 0.930 . S
C305 O306 1.224 . S
C305 O324 1.247 . S
O306 C305 1.224 . S
N307 Co297 2.128 . S
N307 C308 1.355 . S
N307 C310 1.311 . S
C308 N307 1.355 . S
C308 C309 1.363 . S
C308 H320 0.929 . S
C309 C308 1.363 . S
C309 N311 1.375 . S
C309 H327 0.931 . S
C310 N307 1.311 . S
C310 N311 1.347 . S
C310 H321 0.929 . S
N311 C309 1.375 . S
N311 C310 1.347 . S
C312 C315 1.365 . S
C312 N317 1.328 . S
C312 H318 0.929 . S
C313 C314 1.362 . S
C313 C316 1.378 . S
C313 H328 0.929 . S
C314 C313 1.362 . S
C314 C315 1.366 . S
C315 C312 1.365 . S
C315 C314 1.366 . S
C315 H329 0.930 . S
C316 C313 1.378 . S
C316 N317 1.315 . S
C316 H319 0.930 . S
N317 Co297 2.194 . S
N317 C312 1.328 . S
N317 C316 1.315 . S
H318 C312 0.929 . S
H319 C316 0.930 . S
H320 C308 0.929 . S
H321 C310 0.929 . S
O322 Co297 2.351 . S
O322 C325 1.244 . S
O323 Co297 2.155 . S
O323 C325 1.240 . S
O324 Co297 2.096 . S
O324 C305 1.247 . S
C325 O322 1.244 . S
C325 O323 1.240 . S
H326 C300 0.931 . S
H327 C309 0.931 . S
H328 C313 0.929 . S
H329 C315 0.930 . S
Co330 N334 2.148 . S
Co330 N340 2.128 . S
Co330 N350 2.194 . S
Co330 O355 2.351 . S
Co330 O356 2.155 . S
Co330 O357 2.096 . S
C331 N334 1.301 . S
C331 N335 1.328 . S
C331 H336 0.930 . S
C332 C333 1.333 . S
C332 N334 1.317 . S
C332 H337 0.930 . S
C333 C332 1.333 . S
C333 N335 1.350 . S
C333 H359 0.931 . S
N334 Co330 2.148 . S
N334 C331 1.301 . S
N334 C332 1.317 . S
N335 C331 1.328 . S
N335 C333 1.350 . S
H336 C331 0.930 . S
H337 C332 0.930 . S
C338 O339 1.224 . S
C338 O357 1.247 . S
O339 C338 1.224 . S
N340 Co330 2.128 . S
N340 C341 1.355 . S
N340 C343 1.311 . S
C341 N340 1.355 . S
C341 C342 1.363 . S
C341 H353 0.929 . S
C342 C341 1.363 . S
C342 N344 1.375 . S
C342 H360 0.931 . S
C343 N340 1.311 . S
C343 N344 1.347 . S
C343 H354 0.929 . S
N344 C342 1.375 . S
N344 C343 1.347 . S
C345 C348 1.365 . S
C345 N350 1.328 . S
C345 H351 0.929 . S
C346 C347 1.362 . S
C346 C349 1.378 . S
C346 H361 0.929 . S
C347 C346 1.362 . S
C347 C348 1.366 . S
C348 C345 1.365 . S
C348 C347 1.366 . S
C348 H362 0.930 . S
C349 C346 1.378 . S
C349 N350 1.315 . S
C349 H352 0.930 . S
N350 Co330 2.194 . S
N350 C345 1.328 . S
N350 C349 1.315 . S
H351 C345 0.929 . S
H352 C349 0.930 . S
H353 C341 0.929 . S
H354 C343 0.929 . S
O355 Co330 2.351 . S
O355 C358 1.244 . S
O356 Co330 2.155 . S
O356 C358 1.240 . S
O357 Co330 2.096 . S
O357 C338 1.247 . S
C358 O355 1.244 . S
C358 O356 1.240 . S
H359 C333 0.931 . S
H360 C342 0.931 . S
H361 C346 0.929 . S
H362 C348 0.930 . S
Co363 N367 2.148 . S
Co363 N373 2.128 . S
Co363 N383 2.194 . S
Co363 O388 2.351 . S
Co363 O389 2.155 . S
Co363 O390 2.096 . S
C364 N367 1.301 . S
C364 N368 1.328 . S
C364 H369 0.930 . S
C365 C366 1.333 . S
C365 N367 1.317 . S
C365 H370 0.930 . S
C366 C365 1.333 . S
C366 N368 1.350 . S
C366 H392 0.931 . S
N367 Co363 2.148 . S
N367 C364 1.301 . S
N367 C365 1.317 . S
N368 C364 1.328 . S
N368 C366 1.350 . S
H369 C364 0.930 . S
H370 C365 0.930 . S
C371 O372 1.224 . S
C371 O390 1.247 . S
O372 C371 1.224 . S
N373 Co363 2.128 . S
N373 C374 1.355 . S
N373 C376 1.311 . S
C374 N373 1.355 . S
C374 C375 1.363 . S
C374 H386 0.929 . S
C375 C374 1.363 . S
C375 N377 1.375 . S
C375 H393 0.931 . S
C376 N373 1.311 . S
C376 N377 1.347 . S
C376 H387 0.929 . S
N377 C375 1.375 . S
N377 C376 1.347 . S
C378 C381 1.365 . S
C378 N383 1.328 . S
C378 H384 0.929 . S
C379 C380 1.362 . S
C379 C382 1.378 . S
C379 H394 0.929 . S
C380 C379 1.362 . S
C380 C381 1.366 . S
C381 C378 1.365 . S
C381 C380 1.366 . S
C381 H395 0.930 . S
C382 C379 1.378 . S
C382 N383 1.315 . S
C382 H385 0.930 . S
N383 Co363 2.194 . S
N383 C378 1.328 . S
N383 C382 1.315 . S
H384 C378 0.929 . S
H385 C382 0.930 . S
H386 C374 0.929 . S
H387 C376 0.929 . S
O388 Co363 2.351 . S
O388 C391 1.244 . S
O389 Co363 2.155 . S
O389 C391 1.240 . S
O390 Co363 2.096 . S
O390 C371 1.247 . S
C391 O388 1.244 . S
C391 O389 1.240 . S
H392 C366 0.931 . S
H393 C375 0.931 . S
H394 C379 0.929 . S
H395 C381 0.930 . S
Co396 N400 2.148 . S
Co396 N406 2.128 . S
Co396 N416 2.194 . S
Co396 O421 2.351 . S
Co396 O422 2.155 . S
Co396 O423 2.096 . S
C397 N400 1.301 . S
C397 N401 1.328 . S
C397 H402 0.930 . S
C398 C399 1.333 . S
C398 N400 1.317 . S
C398 H403 0.930 . S
C399 C398 1.333 . S
C399 N401 1.350 . S
C399 H425 0.931 . S
N400 Co396 2.148 . S
N400 C397 1.301 . S
N400 C398 1.317 . S
N401 C397 1.328 . S
N401 C399 1.350 . S
H402 C397 0.930 . S
H403 C398 0.930 . S
C404 O405 1.224 . S
C404 O423 1.247 . S
O405 C404 1.224 . S
N406 Co396 2.128 . S
N406 C407 1.355 . S
N406 C409 1.311 . S
C407 N406 1.355 . S
C407 C408 1.363 . S
C407 H419 0.929 . S
C408 C407 1.363 . S
C408 N410 1.375 . S
C408 H426 0.931 . S
C409 N406 1.311 . S
C409 N410 1.347 . S
C409 H420 0.929 . S
N410 C408 1.375 . S
N410 C409 1.347 . S
C411 C414 1.365 . S
C411 N416 1.328 . S
C411 H417 0.929 . S
C412 C413 1.362 . S
C412 C415 1.378 . S
C412 H427 0.929 . S
C413 C412 1.362 . S
C413 C414 1.366 . S
C414 C411 1.365 . S
C414 C413 1.366 . S
C414 H428 0.930 . S
C415 C412 1.378 . S
C415 N416 1.315 . S
C415 H418 0.930 . S
N416 Co396 2.194 . S
N416 C411 1.328 . S
N416 C415 1.315 . S
H417 C411 0.929 . S
H418 C415 0.930 . S
H419 C407 0.929 . S
H420 C409 0.929 . S
O421 Co396 2.351 . S
O421 C424 1.244 . S
O422 Co396 2.155 . S
O422 C424 1.240 . S
O423 Co396 2.096 . S
O423 C404 1.247 . S
C424 O421 1.244 . S
C424 O422 1.240 . S
H425 C399 0.931 . S
H426 C408 0.931 . S
H427 C412 0.929 . S
H428 C414 0.930 . S
Co429 N433 2.148 . S
Co429 N439 2.128 . S
Co429 N449 2.194 . S
Co429 O454 2.351 . S
Co429 O455 2.155 . S
Co429 O456 2.096 . S
C430 N433 1.301 . S
C430 N434 1.328 . S
C430 H435 0.930 . S
C431 C432 1.333 . S
C431 N433 1.317 . S
C431 H436 0.930 . S
C432 C431 1.333 . S
C432 N434 1.350 . S
C432 H458 0.931 . S
N433 Co429 2.148 . S
N433 C430 1.301 . S
N433 C431 1.317 . S
N434 C430 1.328 . S
N434 C432 1.350 . S
H435 C430 0.930 . S
H436 C431 0.930 . S
C437 O438 1.224 . S
C437 O456 1.247 . S
O438 C437 1.224 . S
N439 Co429 2.128 . S
N439 C440 1.355 . S
N439 C442 1.311 . S
C440 N439 1.355 . S
C440 C441 1.363 . S
C440 H452 0.929 . S
C441 C440 1.363 . S
C441 N443 1.375 . S
C441 H459 0.931 . S
C442 N439 1.311 . S
C442 N443 1.347 . S
C442 H453 0.929 . S
N443 C441 1.375 . S
N443 C442 1.347 . S
C444 C447 1.365 . S
C444 N449 1.328 . S
C444 H450 0.929 . S
C445 C446 1.362 . S
C445 C448 1.378 . S
C445 H460 0.929 . S
C446 C445 1.362 . S
C446 C447 1.366 . S
C447 C444 1.365 . S
C447 C446 1.366 . S
C447 H461 0.930 . S
C448 C445 1.378 . S
C448 N449 1.315 . S
C448 H451 0.930 . S
N449 Co429 2.194 . S
N449 C444 1.328 . S
N449 C448 1.315 . S
H450 C444 0.929 . S
H451 C448 0.930 . S
H452 C440 0.929 . S
H453 C442 0.929 . S
O454 Co429 2.351 . S
O454 C457 1.244 . S
O455 Co429 2.155 . S
O455 C457 1.240 . S
O456 Co429 2.096 . S
O456 C437 1.247 . S
C457 O454 1.244 . S
C457 O455 1.240 . S
H458 C432 0.931 . S
H459 C441 0.931 . S
H460 C445 0.929 . S
H461 C447 0.930 . S
Co462 N466 2.148 . S
Co462 N472 2.128 . S
Co462 N482 2.194 . S
Co462 O487 2.351 . S
Co462 O488 2.155 . S
Co462 O489 2.096 . S
C463 N466 1.301 . S
C463 N467 1.328 . S
C463 H468 0.930 . S
C464 C465 1.333 . S
C464 N466 1.317 . S
C464 H469 0.930 . S
C465 C464 1.333 . S
C465 N467 1.350 . S
C465 H491 0.931 . S
N466 Co462 2.148 . S
N466 C463 1.301 . S
N466 C464 1.317 . S
N467 C463 1.328 . S
N467 C465 1.350 . S
H468 C463 0.930 . S
H469 C464 0.930 . S
C470 O471 1.224 . S
C470 O489 1.247 . S
O471 C470 1.224 . S
N472 Co462 2.128 . S
N472 C473 1.355 . S
N472 C475 1.311 . S
C473 N472 1.355 . S
C473 C474 1.363 . S
C473 H485 0.929 . S
C474 C473 1.363 . S
C474 N476 1.375 . S
C474 H492 0.931 . S
C475 N472 1.311 . S
C475 N476 1.347 . S
C475 H486 0.929 . S
N476 C474 1.375 . S
N476 C475 1.347 . S
C477 C480 1.365 . S
C477 N482 1.328 . S
C477 H483 0.929 . S
C478 C479 1.362 . S
C478 C481 1.378 . S
C478 H493 0.929 . S
C479 C478 1.362 . S
C479 C480 1.366 . S
C480 C477 1.365 . S
C480 C479 1.366 . S
C480 H494 0.930 . S
C481 C478 1.378 . S
C481 N482 1.315 . S
C481 H484 0.930 . S
N482 Co462 2.194 . S
N482 C477 1.328 . S
N482 C481 1.315 . S
H483 C477 0.929 . S
H484 C481 0.930 . S
H485 C473 0.929 . S
H486 C475 0.929 . S
O487 Co462 2.351 . S
O487 C490 1.244 . S
O488 Co462 2.155 . S
O488 C490 1.240 . S
O489 Co462 2.096 . S
O489 C470 1.247 . S
C490 O487 1.244 . S
C490 O488 1.240 . S
H491 C465 0.931 . S
H492 C474 0.931 . S
H493 C478 0.929 . S
H494 C480 0.930 . S
Co495 N499 2.148 . S
Co495 N505 2.128 . S
Co495 N515 2.194 . S
Co495 O520 2.351 . S
Co495 O521 2.155 . S
Co495 O522 2.096 . S
C496 N499 1.301 . S
C496 N500 1.328 . S
C496 H501 0.930 . S
C497 C498 1.333 . S
C497 N499 1.317 . S
C497 H502 0.930 . S
C498 C497 1.333 . S
C498 N500 1.350 . S
C498 H524 0.931 . S
N499 Co495 2.148 . S
N499 C496 1.301 . S
N499 C497 1.317 . S
N500 C496 1.328 . S
N500 C498 1.350 . S
H501 C496 0.930 . S
H502 C497 0.930 . S
C503 O504 1.224 . S
C503 O522 1.247 . S
O504 C503 1.224 . S
N505 Co495 2.128 . S
N505 C506 1.355 . S
N505 C508 1.311 . S
C506 N505 1.355 . S
C506 C507 1.363 . S
C506 H518 0.929 . S
C507 C506 1.363 . S
C507 N509 1.375 . S
C507 H525 0.931 . S
C508 N505 1.311 . S
C508 N509 1.347 . S
C508 H519 0.929 . S
N509 C507 1.375 . S
N509 C508 1.347 . S
C510 C513 1.365 . S
C510 N515 1.328 . S
C510 H516 0.929 . S
C511 C512 1.362 . S
C511 C514 1.378 . S
C511 H526 0.929 . S
C512 C511 1.362 . S
C512 C513 1.366 . S
C513 C510 1.365 . S
C513 C512 1.366 . S
C513 H527 0.930 . S
C514 C511 1.378 . S
C514 N515 1.315 . S
C514 H517 0.930 . S
N515 Co495 2.194 . S
N515 C510 1.328 . S
N515 C514 1.315 . S
H516 C510 0.929 . S
H517 C514 0.930 . S
H518 C506 0.929 . S
H519 C508 0.929 . S
O520 Co495 2.351 . S
O520 C523 1.244 . S
O521 Co495 2.155 . S
O521 C523 1.240 . S
O522 Co495 2.096 . S
O522 C503 1.247 . S
C523 O520 1.244 . S
C523 O521 1.240 . S
H524 C498 0.931 . S
H525 C507 0.931 . S
H526 C511 0.929 . S
H527 C513 0.930 . S
H528 C534 0.930 1_545 S
H529 C538 0.930 . S
H530 C543 0.929 1_545 S
H531 C541 0.929 . S
H532 C536 0.929 . S
H533 C542 0.929 . S
C534 H528 0.930 1_565 S
C534 C535 1.367 1_565 S
C534 C542 1.378 . S
C535 C534 1.367 1_545 S
C535 C543 1.433 1_545 S
C536 H532 0.929 . S
C536 C538 1.378 . S
C536 C540 1.350 . S
C537 C540 1.463 . S
C537 C542 1.350 . S
C537 N545 1.427 . S
C538 H529 0.930 . S
C538 C536 1.378 . S
C538 C539 1.367 . S
C539 C538 1.367 . S
C539 C541 1.433 . S
C540 C536 1.350 . S
C540 C537 1.463 . S
C540 N544 1.427 . S
C541 H531 0.929 . S
C541 C539 1.433 . S
C541 N544 1.384 . S
C542 H533 0.929 . S
C542 C534 1.378 . S
C542 C537 1.350 . S
C543 H530 0.929 1_565 S
C543 C535 1.433 1_565 S
C543 N545 1.384 . S
N544 C540 1.427 . S
N544 C541 1.384 . S
N545 C537 1.427 . S
N545 C543 1.384 . S
H546 C552 0.930 . S
H547 C556 0.930 . S
H548 C561 0.929 . S
H549 C559 0.929 . S
H550 C554 0.929 . S
H551 C560 0.929 . S
C552 H546 0.930 . S
C552 C553 1.367 . S
C552 C560 1.378 . S
C553 C552 1.367 . S
C553 C561 1.433 . S
C554 H550 0.929 . S
C554 C556 1.378 . S
C554 C558 1.350 . S
C555 C558 1.463 . S
C555 C560 1.350 . S
C555 N563 1.427 . S
C556 H547 0.930 . S
C556 C554 1.378 . S
C556 C557 1.367 1_455 S
C557 C556 1.367 1_655 S
C557 C559 1.433 . S
C558 C554 1.350 . S
C558 C555 1.463 . S
C558 N562 1.427 . S
C559 H549 0.929 . S
C559 C557 1.433 . S
C559 N562 1.384 1_655 S
C560 H551 0.929 . S
C560 C552 1.378 . S
C560 C555 1.350 . S
C561 H548 0.929 . S
C561 C553 1.433 . S
C561 N563 1.384 . S
N562 C558 1.427 . S
N562 C559 1.384 1_455 S
N563 C555 1.427 . S
N563 C561 1.384 . S
H564 C570 0.930 . S
H565 C574 0.930 . S
H566 C579 0.929 . S
H567 C577 0.929 . S
H568 C572 0.929 . S
H569 C578 0.929 . S
C570 H564 0.930 . S
C570 C571 1.367 1_545 S
C570 C578 1.378 . S
C571 C570 1.367 1_565 S
C571 C579 1.433 . S
C572 H568 0.929 . S
C572 C574 1.378 . S
C572 C576 1.350 . S
C573 C576 1.463 . S
C573 C578 1.350 . S
C573 N581 1.427 . S
C574 H565 0.930 . S
C574 C572 1.378 . S
C574 C575 1.367 . S
C575 C574 1.367 . S
C575 C577 1.433 . S
C576 C572 1.350 . S
C576 C573 1.463 . S
C576 N580 1.427 . S
C577 H567 0.929 . S
C577 C575 1.433 . S
C577 N580 1.384 . S
C578 H569 0.929 . S
C578 C570 1.378 . S
C578 C573 1.350 . S
C579 H566 0.929 . S
C579 C571 1.433 . S
C579 N581 1.384 1_565 S
N580 C576 1.427 . S
N580 C577 1.384 . S
N581 C573 1.427 . S
N581 C579 1.384 1_545 S
H582 C588 0.930 . S
H583 C592 0.930 . S
H584 C597 0.929 . S
H585 C595 0.929 1_455 S
H586 C590 0.929 . S
H587 C596 0.929 . S
C588 H582 0.930 . S
C588 C589 1.367 . S
C588 C596 1.378 . S
C589 C588 1.367 . S
C589 C597 1.433 . S
C590 H586 0.929 . S
C590 C592 1.378 . S
C590 C594 1.350 . S
C591 C594 1.463 . S
C591 C596 1.350 . S
C591 N599 1.427 . S
C592 H583 0.930 . S
C592 C590 1.378 . S
C592 C593 1.367 1_655 S
C593 C592 1.367 1_455 S
C593 C595 1.433 1_455 S
C594 C590 1.350 . S
C594 C591 1.463 . S
C594 N598 1.427 . S
C595 H585 0.929 1_655 S
C595 C593 1.433 1_655 S
C595 N598 1.384 . S
C596 H587 0.929 . S
C596 C588 1.378 . S
C596 C591 1.350 . S
C597 H584 0.929 . S
C597 C589 1.433 . S
C597 N599 1.384 . S
N598 C594 1.427 . S
N598 C595 1.384 . S
N599 C591 1.427 . S
N599 C597 1.384 . S
H600 C606 0.930 . S
H601 C610 0.930 . S
H602 C615 0.929 . S
H603 C613 0.929 . S
H604 C608 0.929 . S
H605 C614 0.929 . S
C606 H600 0.930 . S
C606 C607 1.367 . S
C606 C614 1.378 . S
C607 C606 1.367 . S
C607 C615 1.433 . S
C608 H604 0.929 . S
C608 C610 1.378 . S
C608 C612 1.350 . S
C609 C612 1.463 . S
C609 C614 1.350 . S
C609 N617 1.427 . S
C610 H601 0.930 . S
C610 C608 1.378 . S
C610 C611 1.367 1_545 S
C611 C610 1.367 1_565 S
C611 C613 1.433 . S
C612 C608 1.350 . S
C612 C609 1.463 . S
C612 N616 1.427 . S
C613 H603 0.929 . S
C613 C611 1.433 . S
C613 N616 1.384 1_565 S
C614 H605 0.929 . S
C614 C606 1.378 . S
C614 C609 1.350 . S
C615 H602 0.929 . S
C615 C607 1.433 . S
C615 N617 1.384 . S
N616 C612 1.427 . S
N616 C613 1.384 1_545 S
N617 C609 1.427 . S
N617 C615 1.384 . S
H618 C624 0.930 . S
H619 C628 0.930 1_455 S
H620 C633 0.929 . S
H621 C631 0.929 1_455 S
H622 C626 0.929 . S
H623 C632 0.929 . S
C624 H618 0.930 . S
C624 C625 1.367 . S
C624 C632 1.378 . S
C625 C624 1.367 . S
C625 C633 1.433 . S
C626 H622 0.929 . S
C626 C628 1.378 . S
C626 C630 1.350 . S
C627 C630 1.463 . S
C627 C632 1.350 . S
C627 N635 1.427 . S
C628 H619 0.930 1_655 S
C628 C626 1.378 . S
C628 C629 1.367 1_655 S
C629 C628 1.367 1_455 S
C629 C631 1.433 1_455 S
C630 C626 1.350 . S
C630 C627 1.463 . S
C630 N634 1.427 . S
C631 H621 0.929 1_655 S
C631 C629 1.433 1_655 S
C631 N634 1.384 . S
C632 H623 0.929 . S
C632 C624 1.378 . S
C632 C627 1.350 . S
C633 H620 0.929 . S
C633 C625 1.433 . S
C633 N635 1.384 . S
N634 C630 1.427 . S
N634 C631 1.384 . S
N635 C627 1.427 . S
N635 C633 1.384 . S
H636 C642 0.930 . S
H637 C646 0.933 . S
H638 C651 0.929 . S
H639 C649 0.929 1_545 S
H640 C644 0.929 . S
H641 C650 0.929 . S
C642 H636 0.930 . S
C642 C643 1.367 . S
C642 C650 1.378 . S
C643 C642 1.367 . S
C643 C651 1.433 . S
C644 H640 0.929 . S
C644 C646 1.378 . S
C644 C648 1.350 . S
C645 C648 1.463 . S
C645 C650 1.350 . S
C645 N653 1.427 . S
C646 H637 0.933 . S
C646 C644 1.378 . S
C646 C647 1.367 1_565 S
C647 C646 1.367 1_545 S
C647 C649 1.433 1_545 S
C648 C644 1.350 . S
C648 C645 1.463 . S
C648 N652 1.427 . S
C649 H639 0.929 1_565 S
C649 C647 1.433 1_565 S
C649 N652 1.384 . S
C650 H641 0.929 . S
C650 C642 1.378 . S
C650 C645 1.350 . S
C651 H638 0.929 . S
C651 C643 1.433 . S
C651 N653 1.384 . S
N652 C648 1.427 . S
N652 C649 1.384 . S
N653 C645 1.427 . S
N653 C651 1.384 . S
H654 C660 0.930 . S
H655 C664 0.930 . S
H656 C669 0.919 1_655 S
H657 C667 0.929 . S
H658 C662 0.929 . S
H659 C668 0.929 . S
C660 H654 0.930 . S
C660 C661 1.367 1_455 S
C660 C668 1.378 . S
C661 C660 1.367 1_655 S
C661 C669 1.429 1_655 S
C662 H658 0.929 . S
C662 C664 1.378 . S
C662 C666 1.350 . S
C663 C666 1.463 . S
C663 C668 1.350 . S
C663 N671 1.427 . S
C664 H655 0.930 . S
C664 C662 1.378 . S
C664 C665 1.367 . S
C665 C664 1.367 . S
C665 C667 1.433 . S
C666 C662 1.350 . S
C666 C663 1.463 . S
C666 N670 1.427 . S
C667 H657 0.929 . S
C667 C665 1.433 . S
C667 N670 1.384 . S
C668 H659 0.929 . S
C668 C660 1.378 . S
C668 C663 1.350 . S
C669 H656 0.919 1_455 S
C669 C661 1.429 1_455 S
C669 N671 1.398 . S
N670 C666 1.427 . S
N670 C667 1.384 . S
N671 C663 1.427 . S
N671 C669 1.398 . S
H672 C678 0.930 . S
H673 C682 0.930 . S
H674 C687 0.929 . S
H675 C685 0.929 . S
H676 C680 0.929 . S
H677 C686 0.929 . S
C678 H672 0.930 . S
C678 C679 1.367 . S
C678 C686 1.378 . S
C679 C678 1.367 . S
C679 C687 1.433 . S
C680 H676 0.929 . S
C680 C682 1.378 . S
C680 C684 1.350 . S
C681 C684 1.463 . S
C681 C686 1.350 . S
C681 N689 1.427 . S
C682 H673 0.930 . S
C682 C680 1.378 . S
C682 C683 1.367 . S
C683 C682 1.367 . S
C683 C685 1.433 . S
C684 C680 1.350 . S
C684 C681 1.463 . S
C684 N688 1.427 . S
C685 H675 0.929 . S
C685 C683 1.433 . S
C685 N688 1.384 . S
C686 H677 0.929 . S
C686 C678 1.378 . S
C686 C681 1.350 . S
C687 H674 0.929 . S
C687 C679 1.433 . S
C687 N689 1.384 . S
N688 C684 1.427 . S
N688 C685 1.384 . S
N689 C681 1.427 . S
N689 C687 1.384 . S
H690 C696 0.930 . S
H691 C700 0.930 . S
H692 C705 0.929 . S
H693 C703 0.929 . S
H694 C698 0.929 . S
H695 C704 0.929 . S
C696 H690 0.930 . S
C696 C697 1.367 . S
C696 C704 1.378 . S
C697 C696 1.367 . S
C697 C705 1.433 . S
C698 H694 0.929 . S
C698 C700 1.378 . S
C698 C702 1.350 . S
C699 C702 1.463 . S
C699 C704 1.350 . S
C699 N707 1.427 . S
C700 H691 0.930 . S
C700 C698 1.378 . S
C700 C701 1.367 . S
C701 C700 1.367 . S
C701 C703 1.433 . S
C702 C698 1.350 . S
C702 C699 1.463 . S
C702 N706 1.427 . S
C703 H693 0.929 . S
C703 C701 1.433 . S
C703 N706 1.384 . S
C704 H695 0.929 . S
C704 C696 1.378 . S
C704 C699 1.350 . S
C705 H692 0.929 . S
C705 C697 1.433 . S
C705 N707 1.384 . S
N706 C702 1.427 . S
N706 C703 1.384 . S
N707 C699 1.427 . S
N707 C705 1.384 . S
H708 C714 0.930 . S
H709 C718 0.930 . S
H710 C723 0.929 . S
H711 C721 0.929 . S
H712 C716 0.929 . S
H713 C722 0.929 . S
C714 H708 0.930 . S
C714 C715 1.367 . S
C714 C722 1.378 . S
C715 C714 1.367 . S
C715 C723 1.433 . S
C716 H712 0.929 . S
C716 C718 1.378 . S
C716 C720 1.350 . S
C717 C720 1.463 . S
C717 C722 1.350 . S
C717 N725 1.427 . S
C718 H709 0.930 . S
C718 C716 1.378 . S
C718 C719 1.367 . S
C719 C718 1.367 . S
C719 C721 1.433 . S
C720 C716 1.350 . S
C720 C717 1.463 . S
C720 N724 1.427 . S
C721 H711 0.929 . S
C721 C719 1.433 . S
C721 N724 1.384 . S
C722 H713 0.929 . S
C722 C714 1.378 . S
C722 C717 1.350 . S
C723 H710 0.929 . S
C723 C715 1.433 . S
C723 N725 1.384 . S
N724 C720 1.427 . S
N724 C721 1.384 . S
N725 C717 1.427 . S
N725 C723 1.384 . S
H726 C732 0.930 . S
H727 C736 0.930 . S
H728 C741 0.929 . S
H729 C739 0.929 . S
H730 C734 0.929 . S
H731 C740 0.929 . S
C732 H726 0.930 . S
C732 C733 1.367 . S
C732 C740 1.378 . S
C733 C732 1.367 . S
C733 C741 1.433 . S
C734 H730 0.929 . S
C734 C736 1.378 . S
C734 C738 1.350 . S
C735 C738 1.463 . S
C735 C740 1.350 . S
C735 N743 1.427 . S
C736 H727 0.930 . S
C736 C734 1.378 . S
C736 C737 1.367 . S
C737 C736 1.367 . S
C737 C739 1.433 . S
C738 C734 1.350 . S
C738 C735 1.463 . S
C738 N742 1.427 . S
C739 H729 0.929 . S
C739 C737 1.433 . S
C739 N742 1.384 . S
C740 H731 0.929 . S
C740 C732 1.378 . S
C740 C735 1.350 . S
C741 H728 0.929 . S
C741 C733 1.433 . S
C741 N743 1.384 . S
N742 C738 1.427 . S
N742 C739 1.384 . S
N743 C735 1.427 . S
N743 C741 1.384 . S
H744 C750 0.930 . S
H745 C754 0.930 . S
H746 C759 0.929 . S
H747 C757 0.929 . S
H748 C752 0.929 . S
H749 C758 0.929 . S
C750 H744 0.930 . S
C750 C751 1.367 . S
C750 C758 1.378 . S
C751 C750 1.367 . S
C751 C759 1.433 . S
C752 H748 0.929 . S
C752 C754 1.378 . S
C752 C756 1.350 . S
C753 C756 1.463 . S
C753 C758 1.350 . S
C753 N761 1.427 . S
C754 H745 0.930 . S
C754 C752 1.378 . S
C754 C755 1.367 . S
C755 C754 1.367 . S
C755 C757 1.433 . S
C756 C752 1.350 . S
C756 C753 1.463 . S
C756 N760 1.427 . S
C757 H747 0.929 . S
C757 C755 1.433 . S
C757 N760 1.384 . S
C758 H749 0.929 . S
C758 C750 1.378 . S
C758 C753 1.350 . S
C759 H746 0.929 . S
C759 C751 1.433 . S
C759 N761 1.384 . S
N760 C756 1.427 . S
N760 C757 1.384 . S
N761 C753 1.427 . S
N761 C759 1.384 . S
H762 C768 0.930 . S
H763 C772 0.930 . S
H764 C777 0.929 . S
H765 C775 0.929 . S
H766 C770 0.929 . S
H767 C776 0.929 . S
C768 H762 0.930 . S
C768 C769 1.367 . S
C768 C776 1.378 . S
C769 C768 1.367 . S
C769 C777 1.433 . S
C770 H766 0.929 . S
C770 C772 1.378 . S
C770 C774 1.350 . S
C771 C774 1.463 . S
C771 C776 1.350 . S
C771 N779 1.427 . S
C772 H763 0.930 . S
C772 C770 1.378 . S
C772 C773 1.367 . S
C773 C772 1.367 . S
C773 C775 1.433 . S
C774 C770 1.350 . S
C774 C771 1.463 . S
C774 N778 1.427 . S
C775 H765 0.929 . S
C775 C773 1.433 . S
C775 N778 1.384 . S
C776 H767 0.929 . S
C776 C768 1.378 . S
C776 C771 1.350 . S
C777 H764 0.929 . S
C777 C769 1.433 . S
C777 N779 1.384 . S
N778 C774 1.427 . S
N778 C775 1.384 . S
N779 C771 1.427 . S
N779 C777 1.384 . S
H780 C786 0.930 . S
H781 C790 0.930 . S
H782 C795 0.929 . S
H783 C793 0.929 . S
H784 C788 0.929 . S
H785 C794 0.929 . S
C786 H780 0.930 . S
C786 C787 1.367 . S
C786 C794 1.378 . S
C787 C786 1.367 . S
C787 C795 1.433 . S
C788 H784 0.929 . S
C788 C790 1.378 . S
C788 C792 1.350 . S
C789 C792 1.463 . S
C789 C794 1.350 . S
C789 N797 1.427 . S
C790 H781 0.930 . S
C790 C788 1.378 . S
C790 C791 1.367 . S
C791 C790 1.367 . S
C791 C793 1.433 . S
C792 C788 1.350 . S
C792 C789 1.463 . S
C792 N796 1.427 . S
C793 H783 0.929 . S
C793 C791 1.433 . S
C793 N796 1.384 . S
C794 H785 0.929 . S
C794 C786 1.378 . S
C794 C789 1.350 . S
C795 H782 0.929 . S
C795 C787 1.433 . S
C795 N797 1.384 . S
N796 C792 1.427 . S
N796 C793 1.384 . S
N797 C789 1.427 . S
N797 C795 1.384 . S
H798 C804 0.930 . S
H799 C808 0.930 . S
H800 C813 0.929 . S
H801 C811 0.929 . S
H802 C806 0.929 . S
H803 C812 0.929 . S
C804 H798 0.930 . S
C804 C805 1.367 . S
C804 C812 1.378 . S
C805 C804 1.367 . S
C805 C813 1.433 . S
C806 H802 0.929 . S
C806 C808 1.378 . S
C806 C810 1.350 . S
C807 C810 1.463 . S
C807 C812 1.350 . S
C807 N815 1.427 . S
C808 H799 0.930 . S
C808 C806 1.378 . S
C808 C809 1.367 . S
C809 C808 1.367 . S
C809 C811 1.433 . S
C810 C806 1.350 . S
C810 C807 1.463 . S
C810 N814 1.427 . S
C811 H801 0.929 . S
C811 C809 1.433 . S
C811 N814 1.384 . S
C812 H803 0.929 . S
C812 C804 1.378 . S
C812 C807 1.350 . S
C813 H800 0.929 . S
C813 C805 1.433 . S
C813 N815 1.384 . S
N814 C810 1.427 . S
N814 C811 1.384 . S
N815 C807 1.427 . S
N815 C813 1.384 . S
H816 C822 0.930 . S
H817 C826 0.930 . S
H818 C831 0.929 . S
H819 C829 0.929 . S
H820 C824 0.929 . S
H821 C830 0.929 . S
C822 H816 0.930 . S
C822 C823 1.367 . S
C822 C830 1.378 . S
C823 C822 1.367 . S
C823 C831 1.433 . S
C824 H820 0.929 . S
C824 C826 1.378 . S
C824 C828 1.350 . S
C825 C828 1.463 . S
C825 C830 1.350 . S
C825 N833 1.427 . S
C826 H817 0.930 . S
C826 C824 1.378 . S
C826 C827 1.367 . S
C827 C826 1.367 . S
C827 C829 1.433 . S
C828 C824 1.350 . S
C828 C825 1.463 . S
C828 N832 1.427 . S
C829 H819 0.929 . S
C829 C827 1.433 . S
C829 N832 1.384 . S
C830 H821 0.929 . S
C830 C822 1.378 . S
C830 C825 1.350 . S
C831 H818 0.929 . S
C831 C823 1.433 . S
C831 N833 1.384 . S
N832 C828 1.427 . S
N832 C829 1.384 . S
N833 C825 1.427 . S
N833 C831 1.384 . S
H834 C840 0.930 . S
H835 C844 0.930 . S
H836 C849 0.929 . S
H837 C847 0.929 . S
H838 C842 0.929 . S
H839 C848 0.929 . S
C840 H834 0.930 . S
C840 C841 1.367 . S
C840 C848 1.378 . S
C841 C840 1.367 . S
C841 C849 1.433 . S
C842 H838 0.929 . S
C842 C844 1.378 . S
C842 C846 1.350 . S
C843 C846 1.463 . S
C843 C848 1.350 . S
C843 N851 1.427 . S
C844 H835 0.930 . S
C844 C842 1.378 . S
C844 C845 1.367 . S
C845 C844 1.367 . S
C845 C847 1.433 . S
C846 C842 1.350 . S
C846 C843 1.463 . S
C846 N850 1.427 . S
C847 H837 0.929 . S
C847 C845 1.433 . S
C847 N850 1.384 . S
C848 H839 0.929 . S
C848 C840 1.378 . S
C848 C843 1.350 . S
C849 H836 0.929 . S
C849 C841 1.433 . S
C849 N851 1.384 . S
N850 C846 1.427 . S
N850 C847 1.384 . S
N851 C843 1.427 . S
N851 C849 1.384 . S
H852 C858 0.930 . S
H853 C862 0.930 . S
H854 C867 0.929 . S
H855 C865 0.929 . S
H856 C860 0.929 . S
H857 C866 0.929 . S
C858 H852 0.930 . S
C858 C859 1.367 . S
C858 C866 1.378 . S
C859 C858 1.367 . S
C859 C867 1.433 . S
C860 H856 0.929 . S
C860 C862 1.378 . S
C860 C864 1.350 . S
C861 C864 1.463 . S
C861 C866 1.350 . S
C861 N869 1.427 . S
C862 H853 0.930 . S
C862 C860 1.378 . S
C862 C863 1.367 . S
C863 C862 1.367 . S
C863 C865 1.433 . S
C864 C860 1.350 . S
C864 C861 1.463 . S
C864 N868 1.427 . S
C865 H855 0.929 . S
C865 C863 1.433 . S
C865 N868 1.384 . S
C866 H857 0.929 . S
C866 C858 1.378 . S
C866 C861 1.350 . S
C867 H854 0.929 . S
C867 C859 1.433 . S
C867 N869 1.384 . S
N868 C864 1.427 . S
N868 C865 1.384 . S
N869 C861 1.427 . S
N869 C867 1.384 . S
H870 C876 0.930 . S
H871 C880 0.930 . S
H872 C885 0.929 . S
H873 C883 0.929 . S
H874 C878 0.929 . S
H875 C884 0.929 . S
C876 H870 0.930 . S
C876 C877 1.367 . S
C876 C884 1.378 . S
C877 C876 1.367 . S
C877 C885 1.433 . S
C878 H874 0.929 . S
C878 C880 1.378 . S
C878 C882 1.350 . S
C879 C882 1.463 . S
C879 C884 1.350 . S
C879 N887 1.427 . S
C880 H871 0.930 . S
C880 C878 1.378 . S
C880 C881 1.367 . S
C881 C880 1.367 . S
C881 C883 1.433 . S
C882 C878 1.350 . S
C882 C879 1.463 . S
C882 N886 1.427 . S
C883 H873 0.929 . S
C883 C881 1.433 . S
C883 N886 1.384 . S
C884 H875 0.929 . S
C884 C876 1.378 . S
C884 C879 1.350 . S
C885 H872 0.929 . S
C885 C877 1.433 . S
C885 N887 1.384 . S
N886 C882 1.427 . S
N886 C883 1.384 . S
N887 C879 1.427 . S
N887 C885 1.384 . S
H888 C894 0.930 . S
H889 C898 0.930 . S
H890 C903 0.929 . S
H891 C901 0.929 . S
H892 C896 0.929 . S
H893 C902 0.929 . S
C894 H888 0.930 . S
C894 C895 1.367 . S
C894 C902 1.378 . S
C895 C894 1.367 . S
C895 C903 1.433 . S
C896 H892 0.929 . S
C896 C898 1.378 . S
C896 C900 1.350 . S
C897 C900 1.463 1_556 S
C897 C902 1.350 . S
C897 N905 1.427 . S
C898 H889 0.930 . S
C898 C896 1.378 . S
C898 C899 1.367 . S
C899 C898 1.367 . S
C899 C901 1.433 . S
C900 C896 1.350 . S
C900 C897 1.463 1_554 S
C900 N904 1.427 . S
C901 H891 0.929 . S
C901 C899 1.433 . S
C901 N904 1.384 . S
C902 H893 0.929 . S
C902 C894 1.378 . S
C902 C897 1.350 . S
C903 H890 0.929 . S
C903 C895 1.433 . S
C903 N905 1.384 . S
N904 C900 1.427 . S
N904 C901 1.384 . S
N905 C897 1.427 . S
N905 C903 1.384 . S
H906 C912 0.930 . S
H907 C916 0.930 . S
H908 C921 0.929 . S
H909 C919 0.929 . S
H910 C914 0.929 . S
H911 C920 0.929 . S
C912 H906 0.930 . S
C912 C913 1.367 . S
C912 C920 1.378 . S
C913 C912 1.367 . S
C913 C921 1.433 . S
C914 H910 0.929 . S
C914 C916 1.378 . S
C914 C918 1.350 . S
C915 C918 1.463 1_556 S
C915 C920 1.350 . S
C915 N923 1.427 . S
C916 H907 0.930 . S
C916 C914 1.378 . S
C916 C917 1.367 . S
C917 C916 1.367 . S
C917 C919 1.433 . S
C918 C914 1.350 . S
C918 C915 1.463 1_554 S
C918 N922 1.427 . S
C919 H909 0.929 . S
C919 C917 1.433 . S
C919 N922 1.384 . S
C920 H911 0.929 . S
C920 C912 1.378 . S
C920 C915 1.350 . S
C921 H908 0.929 . S
C921 C913 1.433 . S
C921 N923 1.384 . S
N922 C918 1.427 . S
N922 C919 1.384 . S
N923 C915 1.427 . S
N923 C921 1.384 . S
H924 C930 0.930 . S
H925 C934 0.930 . S
H926 C939 0.929 . S
H927 C937 0.929 . S
H928 C932 0.929 1_556 S
H929 C938 0.929 1_554 S
C930 H924 0.930 . S
C930 C931 1.367 . S
C930 C938 1.378 . S
C931 C930 1.367 . S
C931 C939 1.433 . S
C932 H928 0.929 1_554 S
C932 C934 1.378 . S
C932 C936 1.350 . S
C933 C936 1.463 1_556 S
C933 C938 1.350 . S
C933 N941 1.427 . S
C934 H925 0.930 . S
C934 C932 1.378 . S
C934 C935 1.367 . S
C935 C934 1.367 . S
C935 C937 1.433 . S
C936 C932 1.350 . S
C936 C933 1.463 1_554 S
C936 N940 1.427 . S
C937 H927 0.929 . S
C937 C935 1.433 . S
C937 N940 1.384 . S
C938 H929 0.929 1_556 S
C938 C930 1.378 . S
C938 C933 1.350 . S
C939 H926 0.929 . S
C939 C931 1.433 . S
C939 N941 1.384 . S
N940 C936 1.427 . S
N940 C937 1.384 . S
N941 C933 1.427 . S
N941 C939 1.384 . S
H942 C948 0.930 . S
H943 C952 0.930 . S
H944 C957 0.929 . S
H945 C955 0.929 . S
H946 C950 0.929 1_556 S
H947 C956 0.929 1_554 S
C948 H942 0.930 . S
C948 C949 1.367 . S
C948 C956 1.378 . S
C949 C948 1.367 . S
C949 C957 1.433 . S
C950 H946 0.929 1_554 S
C950 C952 1.378 . S
C950 C954 1.350 . S
C951 C954 1.463 1_556 S
C951 C956 1.350 . S
C951 N959 1.427 . S
C952 H943 0.930 . S
C952 C950 1.378 . S
C952 C953 1.367 . S
C953 C952 1.367 . S
C953 C955 1.433 . S
C954 C950 1.350 . S
C954 C951 1.463 1_554 S
C954 N958 1.427 . S
C955 H945 0.929 . S
C955 C953 1.433 . S
C955 N958 1.384 . S
C956 H947 0.929 1_556 S
C956 C948 1.378 . S
C956 C951 1.350 . S
C957 H944 0.929 . S
C957 C949 1.433 . S
C957 N959 1.384 . S
N958 C954 1.427 . S
N958 C955 1.384 . S
N959 C951 1.427 . S
N959 C957 1.384 . S
H960 C966 0.930 . S
H961 C970 0.930 . S
H962 C975 0.929 . S
H963 C973 0.929 . S
H964 C968 0.929 . S
H965 C974 0.929 . S
C966 H960 0.930 . S
C966 C967 1.367 . S
C966 C974 1.378 . S
C967 C966 1.367 . S
C967 C975 1.433 . S
C968 H964 0.929 . S
C968 C970 1.378 . S
C968 C972 1.350 . S
C969 C972 1.463 . S
C969 C974 1.350 . S
C969 N977 1.427 . S
C970 H961 0.930 . S
C970 C968 1.378 . S
C970 C971 1.367 . S
C971 C970 1.367 . S
C971 C973 1.433 . S
C972 C968 1.350 . S
C972 C969 1.463 . S
C972 N976 1.427 . S
C973 H963 0.929 . S
C973 C971 1.433 . S
C973 N976 1.384 . S
C974 H965 0.929 . S
C974 C966 1.378 . S
C974 C969 1.350 . S
C975 H962 0.929 . S
C975 C967 1.433 . S
C975 N977 1.384 . S
N976 C972 1.427 . S
N976 C973 1.384 . S
N977 C969 1.427 . S
N977 C975 1.384 . S
H978 C984 0.930 . S
H979 C988 0.930 . S
H980 C993 0.929 . S
H981 C991 0.929 . S
H982 C986 0.929 . S
H983 C992 0.929 . S
C984 H978 0.930 . S
C984 C985 1.367 . S
C984 C992 1.378 . S
C985 C984 1.367 . S
C985 C993 1.433 . S
C986 H982 0.929 . S
C986 C988 1.378 . S
C986 C990 1.350 . S
C987 C990 1.463 . S
C987 C992 1.350 . S
C987 N995 1.427 . S
C988 H979 0.930 . S
C988 C986 1.378 . S
C988 C989 1.367 . S
C989 C988 1.367 . S
C989 C991 1.433 . S
C990 C986 1.350 . S
C990 C987 1.463 . S
C990 N994 1.427 . S
C991 H981 0.929 . S
C991 C989 1.433 . S
C991 N994 1.384 . S
C992 H983 0.929 . S
C992 C984 1.378 . S
C992 C987 1.350 . S
C993 H980 0.929 . S
C993 C985 1.433 . S
C993 N995 1.384 . S
N994 C990 1.427 . S
N994 C991 1.384 . S
N995 C987 1.427 . S
N995 C993 1.384 . S
H996 C1002 0.930 . S
H997 C1006 0.930 . S
H998 C1011 0.929 . S
H999 C1009 0.929 . S
H1000 C1004 0.929 . S
H1001 C1010 0.929 . S
C1002 H996 0.930 . S
C1002 C1003 1.367 . S
C1002 C1010 1.378 . S
C1003 C1002 1.367 . S
C1003 C1011 1.433 . S
C1004 H1000 0.929 . S
C1004 C1006 1.378 . S
C1004 C1008 1.350 . S
C1005 C1008 1.463 . S
C1005 C1010 1.350 . S
C1005 N1013 1.427 . S
C1006 H997 0.930 . S
C1006 C1004 1.378 . S
C1006 C1007 1.367 . S
C1007 C1006 1.367 . S
C1007 C1009 1.433 . S
C1008 C1004 1.350 . S
C1008 C1005 1.463 . S
C1008 N1012 1.427 . S
C1009 H999 0.929 . S
C1009 C1007 1.433 . S
C1009 N1012 1.384 . S
C1010 H1001 0.929 . S
C1010 C1002 1.378 . S
C1010 C1005 1.350 . S
C1011 H998 0.929 . S
C1011 C1003 1.433 . S
C1011 N1013 1.384 . S
N1012 C1008 1.427 . S
N1012 C1009 1.384 . S
N1013 C1005 1.427 . S
N1013 C1011 1.384 . S
H1014 C1020 0.930 . S
H1015 C1024 0.930 . S
H1016 C1029 0.929 . S
H1017 C1027 0.929 . S
H1018 C1022 0.929 . S
H1019 C1028 0.929 . S
C1020 H1014 0.930 . S
C1020 C1021 1.367 . S
C1020 C1028 1.378 . S
C1021 C1020 1.367 . S
C1021 C1029 1.433 . S
C1022 H1018 0.929 . S
C1022 C1024 1.378 . S
C1022 C1026 1.350 . S
C1023 C1026 1.463 . S
C1023 C1028 1.350 . S
C1023 N1031 1.427 . S
C1024 H1015 0.930 . S
C1024 C1022 1.378 . S
C1024 C1025 1.367 . S
C1025 C1024 1.367 . S
C1025 C1027 1.433 . S
C1026 C1022 1.350 . S
C1026 C1023 1.463 . S
C1026 N1030 1.427 . S
C1027 H1017 0.929 . S
C1027 C1025 1.433 . S
C1027 N1030 1.384 . S
C1028 H1019 0.929 . S
C1028 C1020 1.378 . S
C1028 C1023 1.350 . S
C1029 H1016 0.929 . S
C1029 C1021 1.433 . S
C1029 N1031 1.384 . S
N1030 C1026 1.427 . S
N1030 C1027 1.384 . S
N1031 C1023 1.427 . S
N1031 C1029 1.384 . S
H1032 C1038 0.930 . S
H1033 C1042 0.930 . S
H1034 C1047 0.929 . S
H1035 C1045 0.929 . S
H1036 C1040 0.929 . S
H1037 C1046 0.929 . S
C1038 H1032 0.930 . S
C1038 C1039 1.367 . S
C1038 C1046 1.378 . S
C1039 C1038 1.367 . S
C1039 C1047 1.433 . S
C1040 H1036 0.929 . S
C1040 C1042 1.378 . S
C1040 C1044 1.350 . S
C1041 C1044 1.463 . S
C1041 C1046 1.350 . S
C1041 N1049 1.427 . S
C1042 H1033 0.930 . S
C1042 C1040 1.378 . S
C1042 C1043 1.367 . S
C1043 C1042 1.367 . S
C1043 C1045 1.433 . S
C1044 C1040 1.350 . S
C1044 C1041 1.463 . S
C1044 N1048 1.427 . S
C1045 H1035 0.929 . S
C1045 C1043 1.433 . S
C1045 N1048 1.384 . S
C1046 H1037 0.929 . S
C1046 C1038 1.378 . S
C1046 C1041 1.350 . S
C1047 H1034 0.929 . S
C1047 C1039 1.433 . S
C1047 N1049 1.384 . S
N1048 C1044 1.427 . S
N1048 C1045 1.384 . S
N1049 C1041 1.427 . S
N1049 C1047 1.384 . S
H1050 C1056 0.930 . S
H1051 C1060 0.930 . S
H1052 C1065 0.929 . S
H1053 C1063 0.929 . S
H1054 C1058 0.929 . S
H1055 C1064 0.929 . S
C1056 H1050 0.930 . S
C1056 C1057 1.367 . S
C1056 C1064 1.378 . S
C1057 C1056 1.367 . S
C1057 C1065 1.433 . S
C1058 H1054 0.929 . S
C1058 C1060 1.378 . S
C1058 C1062 1.350 . S
C1059 C1062 1.463 . S
C1059 C1064 1.350 . S
C1059 N1067 1.427 . S
C1060 H1051 0.930 . S
C1060 C1058 1.378 . S
C1060 C1061 1.367 . S
C1061 C1060 1.367 . S
C1061 C1063 1.433 . S
C1062 C1058 1.350 . S
C1062 C1059 1.463 . S
C1062 N1066 1.427 . S
C1063 H1053 0.929 . S
C1063 C1061 1.433 . S
C1063 N1066 1.384 . S
C1064 H1055 0.929 . S
C1064 C1056 1.378 . S
C1064 C1059 1.350 . S
C1065 H1052 0.929 . S
C1065 C1057 1.433 . S
C1065 N1067 1.384 . S
N1066 C1062 1.427 . S
N1066 C1063 1.384 . S
N1067 C1059 1.427 . S
N1067 C1065 1.384 . S
H1068 C1074 0.930 . S
H1069 C1078 0.930 . S
H1070 C1083 0.929 . S
H1071 C1081 0.929 . S
H1072 C1076 0.929 . S
H1073 C1082 0.929 . S
C1074 H1068 0.930 . S
C1074 C1075 1.367 . S
C1074 C1082 1.378 . S
C1075 C1074 1.367 . S
C1075 C1083 1.433 . S
C1076 H1072 0.929 . S
C1076 C1078 1.378 . S
C1076 C1080 1.350 . S
C1077 C1080 1.463 . S
C1077 C1082 1.350 . S
C1077 N1085 1.427 . S
C1078 H1069 0.930 . S
C1078 C1076 1.378 . S
C1078 C1079 1.367 . S
C1079 C1078 1.367 . S
C1079 C1081 1.433 . S
C1080 C1076 1.350 . S
C1080 C1077 1.463 . S
C1080 N1084 1.427 . S
C1081 H1071 0.929 . S
C1081 C1079 1.433 . S
C1081 N1084 1.384 . S
C1082 H1073 0.929 . S
C1082 C1074 1.378 . S
C1082 C1077 1.350 . S
C1083 H1070 0.929 . S
C1083 C1075 1.433 . S
C1083 N1085 1.384 . S
N1084 C1080 1.427 . S
N1084 C1081 1.384 . S
N1085 C1077 1.427 . S
N1085 C1083 1.384 . S
H1086 C1092 0.930 . S
H1087 C1096 0.930 . S
H1088 C1101 0.929 . S
H1089 C1099 0.929 . S
H1090 C1094 0.929 . S
H1091 C1100 0.929 . S
C1092 H1086 0.930 . S
C1092 C1093 1.367 . S
C1092 C1100 1.378 . S
C1093 C1092 1.367 . S
C1093 C1101 1.433 . S
C1094 H1090 0.929 . S
C1094 C1096 1.378 . S
C1094 C1098 1.350 . S
C1095 C1098 1.463 . S
C1095 C1100 1.350 . S
C1095 N1103 1.427 . S
C1096 H1087 0.930 . S
C1096 C1094 1.378 . S
C1096 C1097 1.367 . S
C1097 C1096 1.367 . S
C1097 C1099 1.433 . S
C1098 C1094 1.350 . S
C1098 C1095 1.463 . S
C1098 N1102 1.427 . S
C1099 H1089 0.929 . S
C1099 C1097 1.433 . S
C1099 N1102 1.384 . S
C1100 H1091 0.929 . S
C1100 C1092 1.378 . S
C1100 C1095 1.350 . S
C1101 H1088 0.929 . S
C1101 C1093 1.433 . S
C1101 N1103 1.384 . S
N1102 C1098 1.427 . S
N1102 C1099 1.384 . S
N1103 C1095 1.427 . S
N1103 C1101 1.384 . S
H1104 C1110 0.930 . S
H1105 C1114 0.930 . S
H1106 C1119 0.929 . S
H1107 C1117 0.929 . S
H1108 C1112 0.929 . S
H1109 C1118 0.929 . S
C1110 H1104 0.930 . S
C1110 C1111 1.367 . S
C1110 C1118 1.378 . S
C1111 C1110 1.367 . S
C1111 C1119 1.433 . S
C1112 H1108 0.929 . S
C1112 C1114 1.378 . S
C1112 C1116 1.350 . S
C1113 C1116 1.463 1_545 S
C1113 C1118 1.350 . S
C1113 N1121 1.427 . S
C1114 H1105 0.930 . S
C1114 C1112 1.378 . S
C1114 C1115 1.367 . S
C1115 C1114 1.367 . S
C1115 C1117 1.433 . S
C1116 C1112 1.350 . S
C1116 C1113 1.463 1_565 S
C1116 N1120 1.427 . S
C1117 H1107 0.929 . S
C1117 C1115 1.433 . S
C1117 N1120 1.384 . S
C1118 H1109 0.929 . S
C1118 C1110 1.378 . S
C1118 C1113 1.350 . S
C1119 H1106 0.929 . S
C1119 C1111 1.433 . S
C1119 N1121 1.384 . S
N1120 C1116 1.427 . S
N1120 C1117 1.384 . S
N1121 C1113 1.427 . S
N1121 C1119 1.384 . S
H1122 C1128 0.930 . S
H1123 C1132 0.930 . S
H1124 C1137 0.929 . S
H1125 C1135 0.929 . S
H1126 C1130 0.929 . S
H1127 C1136 0.929 . S
C1128 H1122 0.930 . S
C1128 C1129 1.367 . S
C1128 C1136 1.378 . S
C1129 C1128 1.367 . S
C1129 C1137 1.433 . S
C1130 H1126 0.929 . S
C1130 C1132 1.378 . S
C1130 C1134 1.350 . S
C1131 C1134 1.463 1_655 S
C1131 C1136 1.350 . S
C1131 N1139 1.427 . S
C1132 H1123 0.930 . S
C1132 C1130 1.378 . S
C1132 C1133 1.367 . S
C1133 C1132 1.367 . S
C1133 C1135 1.433 . S
C1134 C1130 1.350 . S
C1134 C1131 1.463 1_455 S
C1134 N1138 1.427 . S
C1135 H1125 0.929 . S
C1135 C1133 1.433 . S
C1135 N1138 1.384 . S
C1136 H1127 0.929 . S
C1136 C1128 1.378 . S
C1136 C1131 1.350 . S
C1137 H1124 0.929 . S
C1137 C1129 1.433 . S
C1137 N1139 1.384 . S
N1138 C1134 1.427 . S
N1138 C1135 1.384 . S
N1139 C1131 1.427 . S
N1139 C1137 1.384 . S
H1140 C1146 0.930 . S
H1141 C1150 0.930 . S
H1142 C1155 0.929 . S
H1143 C1153 0.929 . S
H1144 C1148 0.929 . S
H1145 C1154 0.929 . S
C1146 H1140 0.930 . S
C1146 C1147 1.367 . S
C1146 C1154 1.378 . S
C1147 C1146 1.367 . S
C1147 C1155 1.433 . S
C1148 H1144 0.929 . S
C1148 C1150 1.378 . S
C1148 C1152 1.350 . S
C1149 C1152 1.463 1_565 S
C1149 C1154 1.350 . S
C1149 N1157 1.427 . S
C1150 H1141 0.930 . S
C1150 C1148 1.378 . S
C1150 C1151 1.367 . S
C1151 C1150 1.367 . S
C1151 C1153 1.433 . S
C1152 C1148 1.350 . S
C1152 C1149 1.463 1_545 S
C1152 N1156 1.427 . S
C1153 H1143 0.929 . S
C1153 C1151 1.433 . S
C1153 N1156 1.384 . S
C1154 H1145 0.929 . S
C1154 C1146 1.378 . S
C1154 C1149 1.350 . S
C1155 H1142 0.929 . S
C1155 C1147 1.433 . S
C1155 N1157 1.384 . S
N1156 C1152 1.427 . S
N1156 C1153 1.384 . S
N1157 C1149 1.427 . S
N1157 C1155 1.384 . S
H1158 C1164 0.930 . S
H1159 C1168 0.930 . S
H1160 C1173 0.929 . S
H1161 C1171 0.929 . S
H1162 C1166 0.929 . S
H1163 C1172 0.929 . S
C1164 H1158 0.930 . S
C1164 C1165 1.367 . S
C1164 C1172 1.378 . S
C1165 C1164 1.367 . S
C1165 C1173 1.433 . S
C1166 H1162 0.929 . S
C1166 C1168 1.378 . S
C1166 C1170 1.350 . S
C1167 C1170 1.463 1_655 S
C1167 C1172 1.350 . S
C1167 N1175 1.427 1_655 S
C1168 H1159 0.930 . S
C1168 C1166 1.378 . S
C1168 C1169 1.367 . S
C1169 C1168 1.367 . S
C1169 C1171 1.433 . S
C1170 C1166 1.350 . S
C1170 C1167 1.463 1_455 S
C1170 N1174 1.427 1_455 S
C1171 H1161 0.929 . S
C1171 C1169 1.433 . S
C1171 N1174 1.384 1_455 S
C1172 H1163 0.929 . S
C1172 C1164 1.378 . S
C1172 C1167 1.350 . S
C1173 H1160 0.929 . S
C1173 C1165 1.433 . S
C1173 N1175 1.384 1_655 S
N1174 C1170 1.427 1_655 S
N1174 C1171 1.384 1_655 S
N1175 C1167 1.427 1_455 S
N1175 C1173 1.384 1_455 S
H1176 C1182 0.930 . S
H1177 C1186 0.930 . S
H1178 C1191 0.929 . S
H1179 C1189 0.929 . S
H1180 C1184 0.902 1_556 S
H1181 C1190 0.902 1_554 S
C1182 H1176 0.930 . S
C1182 C1183 1.367 . S
C1182 C1190 1.378 . S
C1183 C1182 1.367 . S
C1183 C1191 1.433 . S
C1184 H1180 0.902 1_554 S
C1184 C1186 1.378 . S
C1184 C1188 1.350 . S
C1185 C1188 1.463 1_556 S
C1185 C1190 1.350 . S
C1185 N1193 1.427 . S
C1186 H1177 0.930 . S
C1186 C1184 1.378 . S
C1186 C1187 1.367 . S
C1187 C1186 1.367 . S
C1187 C1189 1.433 . S
C1188 C1184 1.350 . S
C1188 C1185 1.463 1_554 S
C1188 N1192 1.427 . S
C1189 H1179 0.929 . S
C1189 C1187 1.433 . S
C1189 N1192 1.384 . S
C1190 H1181 0.902 1_556 S
C1190 C1182 1.378 . S
C1190 C1185 1.350 . S
C1191 H1178 0.929 . S
C1191 C1183 1.433 . S
C1191 N1193 1.384 . S
N1192 C1188 1.427 . S
N1192 C1189 1.384 . S
N1193 C1185 1.427 . S
N1193 C1191 1.384 . S
H1194 C1200 0.930 . S
H1195 C1204 0.930 . S
H1196 C1209 0.929 . S
H1197 C1207 0.929 . S
H1198 C1202 0.929 1_556 S
H1199 C1208 0.929 1_554 S
C1200 H1194 0.930 . S
C1200 C1201 1.367 . S
C1200 C1208 1.378 . S
C1201 C1200 1.367 . S
C1201 C1209 1.433 . S
C1202 H1198 0.929 1_554 S
C1202 C1204 1.378 . S
C1202 C1206 1.350 . S
C1203 C1206 1.463 1_556 S
C1203 C1208 1.350 . S
C1203 N1211 1.427 . S
C1204 H1195 0.930 . S
C1204 C1202 1.378 . S
C1204 C1205 1.367 . S
C1205 C1204 1.367 . S
C1205 C1207 1.433 . S
C1206 C1202 1.350 . S
C1206 C1203 1.463 1_554 S
C1206 N1210 1.427 . S
C1207 H1197 0.929 . S
C1207 C1205 1.433 . S
C1207 N1210 1.384 . S
C1208 H1199 0.929 1_556 S
C1208 C1200 1.378 . S
C1208 C1203 1.350 . S
C1209 H1196 0.929 . S
C1209 C1201 1.433 . S
C1209 N1211 1.384 . S
N1210 C1206 1.427 . S
N1210 C1207 1.384 . S
N1211 C1203 1.427 . S
N1211 C1209 1.384 . S
H1212 C1218 0.930 . S
H1213 C1222 0.930 . S
H1214 C1227 0.929 . S
H1215 C1225 0.929 . S
H1216 C1220 0.929 . S
H1217 C1226 0.929 . S
C1218 H1212 0.930 . S
C1218 C1219 1.367 . S
C1218 C1226 1.378 . S
C1219 C1218 1.367 . S
C1219 C1227 1.433 . S
C1220 H1216 0.929 . S
C1220 C1222 1.378 . S
C1220 C1224 1.350 . S
C1221 C1224 1.463 1_554 S
C1221 C1226 1.350 . S
C1221 N1229 1.427 . S
C1222 H1213 0.930 . S
C1222 C1220 1.378 . S
C1222 C1223 1.367 . S
C1223 C1222 1.367 . S
C1223 C1225 1.433 . S
C1224 C1220 1.350 . S
C1224 C1221 1.463 1_556 S
C1224 N1228 1.427 . S
C1225 H1215 0.929 . S
C1225 C1223 1.433 . S
C1225 N1228 1.384 . S
C1226 H1217 0.929 . S
C1226 C1218 1.378 . S
C1226 C1221 1.350 . S
C1227 H1214 0.929 . S
C1227 C1219 1.433 . S
C1227 N1229 1.384 . S
N1228 C1224 1.427 . S
N1228 C1225 1.384 . S
N1229 C1221 1.427 . S
N1229 C1227 1.384 . S
H1230 C1236 0.930 . S
H1231 C1240 0.930 . S
H1232 C1245 0.929 . S
H1233 C1243 0.929 . S
H1234 C1238 0.929 . S
H1235 C1244 0.929 . S
C1236 H1230 0.930 . S
C1236 C1237 1.367 . S
C1236 C1244 1.378 . S
C1237 C1236 1.367 . S
C1237 C1245 1.433 . S
C1238 H1234 0.929 . S
C1238 C1240 1.378 . S
C1238 C1242 1.350 . S
C1239 C1242 1.463 1_556 S
C1239 C1244 1.350 . S
C1239 N1247 1.427 . S
C1240 H1231 0.930 . S
C1240 C1238 1.378 . S
C1240 C1241 1.367 . S
C1241 C1240 1.367 . S
C1241 C1243 1.433 . S
C1242 C1238 1.350 . S
C1242 C1239 1.463 1_554 S
C1242 N1246 1.427 . S
C1243 H1233 0.929 . S
C1243 C1241 1.433 . S
C1243 N1246 1.384 . S
C1244 H1235 0.929 . S
C1244 C1236 1.378 . S
C1244 C1239 1.350 . S
C1245 H1232 0.929 . S
C1245 C1237 1.433 . S
C1245 N1247 1.384 . S
N1246 C1242 1.427 . S
N1246 C1243 1.384 . S
N1247 C1239 1.427 . S
N1247 C1245 1.384 . S
C535 C8 2.024 . S
C539 N104 1.862 . S
C553 N5 1.849 . S
C557 C41 2.021 . S
C571 C74 2.021 . S
C575 N38 1.849 . S
C589 N71 1.860 . S
C593 C107 2.024 . S
C607 N170 1.852 . S
C611 C140 2.022 . S
C625 N203 1.847 . S
C629 C173 2.020 . S
C643 N236 1.861 . S
C647 C206 2.024 . S
C661 C239 2.024 . S
C665 N137 1.858 . S
C679 C272 2.025 . S
C683 N368 1.863 . S
C697 C305 2.021 . S
C701 N269 1.850 . S
C715 C338 2.025 . S
C719 N302 1.863 . S
C733 N335 1.864 . S
C737 C371 2.025 . S
C751 N434 1.854 . S
C755 C404 2.022 . S
C769 C437 2.025 . S
C773 N467 1.863 . S
C787 C470 2.024 . S
C791 N500 1.861 . S
C805 C503 2.025 . S
C809 N401 1.864 . S
C823 C28 0.630 . S
C827 C193 0.609 . S
C841 C61 0.616 . S
C845 C226 0.612 . S
C859 C259 0.623 . S
C863 C94 0.622 . S
C877 C127 0.608 . S
C881 C160 0.629 . S
C895 C292 0.618 . S
C899 C457 0.611 . S
C913 C325 0.610 . S
C917 C490 0.630 . S
C931 C358 0.629 . S
C935 C523 0.612 . S
C949 C391 0.628 . S
C953 C424 0.615 . S
C967 C17 0.989 . S
C971 C512 0.989 . S
C985 C413 1.007 . S
C989 C50 1.010 . S
C1003 C83 0.995 . S
C1007 C446 0.987 . S
C1021 C116 0.989 . S
C1025 C479 0.999 . S
C1039 C314 0.988 . S
C1043 C149 0.991 . S
C1057 C347 1.011 . S
C1061 C182 1.004 . S
C1075 C380 1.007 . S
C1079 C215 0.995 . S
C1093 C281 1.010 . S
C1097 C248 1.009 . S
C1111 N14 0.854 . S
C1115 N146 0.876 . S
C1129 N47 0.853 . S
C1133 N179 0.874 . S
C1147 N80 0.854 . S
C1151 N212 0.876 . S
C1165 N245 0.859 . S
C1169 N113 0.852 . S
C1183 N278 0.868 . S
C1187 N410 0.851 . S
C1201 N311 0.851 . S
C1205 N443 0.865 . S
C1219 N476 0.883 . S
C1223 N344 0.866 . S
C1237 N377 0.877 . S
C1241 N509 0.881 . S
