# Generated by pormake.
# Topology unm, (4)-cn, num edge types: 1
# Building blocks:
#     Node 0, Type 0, BuildingBlock: ICAMEG_clean_sbu_1, # of connection points: 4
#     Node 1, Type 0, BuildingBlock: ICAMEG_clean_sbu_1, # of connection points: 4
#     Node 2, Type 0, BuildingBlock: ICAMEG_clean_sbu_1, # of connection points: 4
#     Node 3, Type 0, BuildingBlock: ICAMEG_clean_sbu_1, # of connection points: 4
#     Node 4, Type 0, BuildingBlock: ICAMEG_clean_sbu_1, # of connection points: 4
#     Node 5, Type 0, BuildingBlock: ICAMEG_clean_sbu_1, # of connection points: 4
#     Node 6, Type 0, BuildingBlock: ICAMEG_clean_sbu_1, # of connection points: 4
#     Node 7, Type 0, BuildingBlock: ICAMEG_clean_sbu_1, # of connection points: 4
#     Edge 8, Type (0, 0), BuildingBlock: OJICUG_clean_linker_0, # of connection points: 2
#     Edge 9, Type (0, 0), BuildingBlock: OJICUG_clean_linker_0, # of connection points: 2
#     Edge 10, Type (0, 0), BuildingBlock: OJICUG_clean_linker_0, # of connection points: 2
#     Edge 11, Type (0, 0), BuildingBlock: OJICUG_clean_linker_0, # of connection points: 2
#     Edge 12, Type (0, 0), BuildingBlock: OJICUG_clean_linker_0, # of connection points: 2
#     Edge 13, Type (0, 0), BuildingBlock: OJICUG_clean_linker_0, # of connection points: 2
#     Edge 14, Type (0, 0), BuildingBlock: OJICUG_clean_linker_0, # of connection points: 2
#     Edge 15, Type (0, 0), BuildingBlock: OJICUG_clean_linker_0, # of connection points: 2
#     Edge 16, Type (0, 0), BuildingBlock: OJICUG_clean_linker_0, # of connection points: 2
#     Edge 17, Type (0, 0), BuildingBlock: OJICUG_clean_linker_0, # of connection points: 2
#     Edge 18, Type (0, 0), BuildingBlock: OJICUG_clean_linker_0, # of connection points: 2
#     Edge 19, Type (0, 0), BuildingBlock: OJICUG_clean_linker_0, # of connection points: 2
#     Edge 20, Type (0, 0), BuildingBlock: OJICUG_clean_linker_0, # of connection points: 2
#     Edge 21, Type (0, 0), BuildingBlock: OJICUG_clean_linker_0, # of connection points: 2
#     Edge 22, Type (0, 0), BuildingBlock: OJICUG_clean_linker_0, # of connection points: 2
#     Edge 23, Type (0, 0), BuildingBlock: OJICUG_clean_linker_0, # of connection points: 2
# Relax obj value: 0.080
# Max RMSD: 0.087
# Mean RMSD: 0.087
data_MOF--net-unm--node1-ICAMEG_clean_sbu_1--edge1-OJICUG_clean_linker_0
_symmetry_space_group_name_H-M    P1
_symmetry_Int_Tables_number       1
_symmetry_cell_setting            triclinic
loop_
_symmetry_equiv_pos_as_xyz
'x, y, z'
_cell_length_a     18.540706
_cell_length_b     18.539065
_cell_length_c     39.191928
_cell_angle_alpha  89.980555
_cell_angle_beta   89.99522
_cell_angle_gamma 90.003755
loop_
_atom_site_label
_atom_site_type_symbol
_atom_site_fract_x
_atom_site_fract_y
_atom_site_fract_z
_atom_type_partial_charge
Co0 Co 0.16127 0.24604 0.12181 0.0
Co1 Co 0.24824 0.37569 0.17112 0.0
O2 O 0.24846 0.29358 0.13932 0.0
C3 C 0.23659 0.29249 0.05839 0.0
O4 O 0.25219 0.3543 0.07295 0.0
C5 C 0.36786 0.27553 0.19596 0.0
O6 O 0.34777 0.22461 0.17481 0.0
O7 O 0.17609 0.32642 0.20198 0.0
O8 O 0.11768 0.24788 0.16796 0.0
H9 H 0.13139 0.56707 0.24338 0.0
H10 H 0.30383 0.18003 0.10719 0.0
O11 O 0.20264 0.24385 0.07477 0.0
H12 H 0.16523 0.99241 0.16772 0.0
H13 H 0.02488 0.07314 0.04683 0.0
H14 H 1.00404 0.26033 0.13545 0.0
H15 H 0.11213 0.11218 0.15697 0.0
H16 H 0.13354 0.1296 0.07087 0.0
O17 O 0.33185 0.3342 0.1981 0.0
H18 H 0.13361 0.46105 0.20538 0.0
H19 H 0.36265 0.46617 0.20362 0.0
H20 H 0.89408 0.20153 0.1137 0.0
H21 H 0.3596 0.06123 0.11786 0.0
H22 H 0.90397 0.1071 0.06897 0.0
H23 H 0.29003 0.96642 0.14828 0.0
O24 O 0.11412 0.34008 0.11134 0.0
H25 H 0.46683 0.39483 0.0949 0.0
H26 H 0.25774 0.52419 0.14266 0.0
H27 H 0.34016 0.58766 0.1036 0.0
H28 H 0.4456 0.52306 0.07944 0.0
H29 H 0.38243 0.33302 0.13347 0.0
H30 H 0.36283 0.57229 0.24151 0.0
H31 H 0.24668 0.6238 0.26138 0.0
O32 O 0.16717 0.42119 0.1457 0.0
C33 C 0.12596 0.28019 0.19637 0.0
C34 C 0.18238 0.54518 0.23481 0.0
C35 C 0.31227 0.54804 0.23379 0.0
N36 N 0.24816 0.45731 0.20226 0.0
C37 C 0.18399 0.48504 0.21334 0.0
C38 C 0.31182 0.4876 0.21253 0.0
C39 C 0.24703 0.577 0.2449 0.0
C40 C 0.2734 0.1391 0.12056 0.0
N41 N 0.20502 0.15323 0.13166 0.0
C42 C 0.30521 0.07195 0.12652 0.0
C43 C 0.26616 0.01876 0.14358 0.0
C44 C 0.1962 0.03336 0.15456 0.0
C45 C 0.16657 0.10147 0.1486 0.0
C46 C 0.01977 0.11324 0.06668 0.0
C47 C 1.00899 0.21857 0.11639 0.0
C48 C 0.08119 0.14629 0.08005 0.0
N49 N 0.07534 0.19856 0.10448 0.0
C50 C 0.94643 0.18567 0.10405 0.0
C51 C 0.952 0.13272 0.07896 0.0
C52 C 0.12054 0.40358 0.12338 0.0
C53 C 0.42127 0.42373 0.10545 0.0
C54 C 0.30351 0.49551 0.13233 0.0
C55 C 0.3501 0.53186 0.11024 0.0
C56 C 0.40935 0.49561 0.09674 0.0
N57 N 0.31572 0.42509 0.14103 0.0
C58 C 0.37351 0.3891 0.12764 0.0
Co59 Co 0.27795 0.66372 0.62278 0.0
Co60 Co 0.14764 0.7513 0.6715 0.0
O61 O 0.22974 0.75108 0.63968 0.0
C62 C 0.23045 0.73662 0.55885 0.0
O63 O 0.16902 0.75337 0.57349 0.0
C64 C 0.24801 0.87101 0.69602 0.0
O65 O 0.29963 0.84909 0.67567 0.0
O66 O 0.19705 0.6799 0.70276 0.0
O67 O 0.27713 0.62203 0.66931 0.0
H68 H 0.95536 0.63558 0.74367 0.0
H69 H 0.342 0.80652 0.60679 0.0
O70 O 0.27916 0.7031 0.57535 0.0
H71 H 0.53226 0.67224 0.66762 0.0
H72 H 0.45206 0.52628 0.54886 0.0
H73 H 0.26531 0.5069 0.63782 0.0
H74 H 0.4129 0.6174 0.65784 0.0
H75 H 0.39416 0.63521 0.57181 0.0
O76 O 0.1888 0.83582 0.69799 0.0
H77 H 0.06237 0.63725 0.70629 0.0
H78 H 0.05665 0.86623 0.70328 0.0
H79 H 0.32543 0.39675 0.61709 0.0
H80 H 0.46029 0.86406 0.61655 0.0
H81 H 0.41967 0.40591 0.57222 0.0
H82 H 0.55642 0.79667 0.64711 0.0
O83 O 0.18427 0.61514 0.61301 0.0
H84 H 0.1283 0.96834 0.59434 0.0
H85 H 0.99937 0.75948 0.64266 0.0
H86 H 0.93604 0.84077 0.60303 0.0
H87 H 1.00045 0.94603 0.57855 0.0
H88 H 0.18999 0.88504 0.63352 0.0
H89 H 0.94958 0.86695 0.74059 0.0
H90 H 0.89768 0.75109 0.76064 0.0
O91 O 0.10246 0.66945 0.64653 0.0
C92 C 0.24427 0.63045 0.69756 0.0
C93 C 0.97735 0.68644 0.73498 0.0
C94 C 0.97417 0.8163 0.73327 0.0
N95 N 0.06587 0.75173 0.70258 0.0
C96 C 0.03808 0.68774 0.71388 0.0
C97 C 0.03518 0.81555 0.71237 0.0
C98 C 0.94501 0.75122 0.7445 0.0
C99 C 0.38351 0.77703 0.62023 0.0
N100 N 0.37038 0.70889 0.63194 0.0
C101 C 0.45037 0.80985 0.62567 0.0
C102 C 0.50429 0.77203 0.64282 0.0
C103 C 0.49072 0.70227 0.65439 0.0
C104 C 0.42286 0.67164 0.64896 0.0
C105 C 0.41202 0.52149 0.56876 0.0
C106 C 0.30696 0.51154 0.61866 0.0
C107 C 0.37819 0.58306 0.58154 0.0
N108 N 0.32613 0.57762 0.60609 0.0
C109 C 0.3406 0.44887 0.6069 0.0
C110 C 0.39344 0.45403 0.58174 0.0
C111 C 0.12058 0.62181 0.6248 0.0
C112 C 0.0995 0.92282 0.605 0.0
C113 C 0.02795 0.80519 0.6322 0.0
C114 C 0.99168 0.85114 0.60979 0.0
C115 C 0.02783 0.91031 0.59612 0.0
N116 N 0.09819 0.81793 0.64103 0.0
C117 C 0.13405 0.87569 0.62752 0.0
Co118 Co 0.86423 0.77861 0.12159 0.0
Co119 Co 0.77705 0.6494 0.17112 0.0
O120 O 0.77694 0.73143 0.13925 0.0
C121 C 0.78845 0.7324 0.05826 0.0
O122 O 0.77277 0.6706 0.07284 0.0
C123 C 0.65751 0.74975 0.1959 0.0
O124 O 0.67752 0.80057 0.17465 0.0
O125 O 0.84934 0.69863 0.20189 0.0
O126 O 0.90807 0.77664 0.16769 0.0
H127 H 0.89365 0.45789 0.24344 0.0
H128 H 0.72183 0.84519 0.10715 0.0
O129 O 0.82259 0.78093 0.0746 0.0
H130 H 0.86156 0.03227 0.16741 0.0
H131 H 1.00091 0.95048 0.04614 0.0
H132 H 0.02147 0.76375 0.13505 0.0
H133 H 0.91414 0.91231 0.15659 0.0
H134 H 0.89214 0.89482 0.07051 0.0
O135 O 0.69355 0.69111 0.19809 0.0
H136 H 0.89157 0.56395 0.20543 0.0
H137 H 0.66252 0.55916 0.20372 0.0
H138 H 0.13156 0.82181 0.11298 0.0
H139 H 0.6666 0.9642 0.11787 0.0
H140 H 0.12181 0.91597 0.06809 0.0
H141 H 0.73674 0.05874 0.14815 0.0
O142 O 0.91094 0.68438 0.11111 0.0
H143 H 0.55835 0.63047 0.09497 0.0
H144 H 0.76719 0.50082 0.14281 0.0
H145 H 0.6846 0.4374 0.10385 0.0
H146 H 0.57928 0.50215 0.07964 0.0
H147 H 0.64293 0.69223 0.13345 0.0
H148 H 0.66221 0.45298 0.24161 0.0
H149 H 0.77828 0.40127 0.26144 0.0
O150 O 0.858 0.60365 0.14572 0.0
C151 C 0.89969 0.74458 0.19617 0.0
C152 C 0.84269 0.47986 0.23488 0.0
C153 C 0.71279 0.47718 0.23388 0.0
N154 N 0.77703 0.56785 0.20233 0.0
C155 C 0.84115 0.54003 0.21341 0.0
C156 C 0.71332 0.53765 0.21262 0.0
C157 C 0.77799 0.4481 0.24498 0.0
C158 C 0.75251 0.88599 0.12046 0.0
N159 N 0.82091 0.87161 0.13146 0.0
C160 C 0.721 0.95328 0.12644 0.0
C161 C 0.76037 1.00631 0.14343 0.0
C162 C 0.83034 0.99143 0.15431 0.0
C163 C 0.85968 0.92322 0.14831 0.0
C164 C 1.00597 0.91051 0.06605 0.0
C165 C 0.01658 0.80544 0.11593 0.0
C166 C 0.94447 0.8779 0.07962 0.0
N167 N 0.95024 0.82571 0.10411 0.0
C168 C 0.07922 0.83791 0.10341 0.0
C169 C 0.07373 0.89071 0.07823 0.0
C170 C 0.9045 0.62099 0.12329 0.0
C171 C 0.60385 0.60151 0.10554 0.0
C172 C 0.72148 0.52957 0.13246 0.0
C173 C 0.67479 0.49324 0.11043 0.0
C174 C 0.61561 0.52958 0.09691 0.0
N175 N 0.70944 0.60005 0.14109 0.0
C176 C 0.65172 0.63612 0.12768 0.0
Co177 Co 0.74731 0.36185 0.62259 0.0
Co178 Co 0.87701 0.27409 0.67162 0.0
O179 O 0.79513 0.27441 0.63967 0.0
C180 C 0.79488 0.28851 0.55879 0.0
O181 O 0.85621 0.27163 0.57349 0.0
C182 C 0.77635 0.15445 0.69602 0.0
O183 O 0.72483 0.17646 0.67562 0.0
O184 O 0.82741 0.34555 0.70276 0.0
O185 O 0.748 0.40376 0.66907 0.0
H186 H 0.06885 0.38963 0.74406 0.0
H187 H 0.68284 0.21918 0.60677 0.0
O188 O 0.74621 0.32223 0.57522 0.0
H189 H 0.49267 0.35457 0.66708 0.0
H190 H 0.57457 0.4996 0.54804 0.0
H191 H 0.76039 0.51869 0.63743 0.0
H192 H 0.6123 0.4089 0.65737 0.0
H193 H 0.63156 0.39053 0.57139 0.0
O194 O 0.83556 0.18961 0.69806 0.0
H195 H 0.96211 0.38806 0.70651 0.0
H196 H 0.96768 0.15908 0.70356 0.0
H197 H 0.7011 0.62898 0.61632 0.0
H198 H 0.56426 0.16215 0.61645 0.0
H199 H 0.60736 0.61998 0.57122 0.0
H200 H 0.46817 0.23011 0.64675 0.0
O201 O 0.84119 0.41004 0.61285 0.0
H202 H 0.89668 0.057 0.59458 0.0
H203 H 0.02551 0.26568 0.64304 0.0
H204 H 0.08905 0.18428 0.60356 0.0
H205 H 0.02469 0.07911 0.57901 0.0
H206 H 0.83477 0.14041 0.63361 0.0
H207 H 0.07448 0.15826 0.74104 0.0
H208 H 0.12632 0.27407 0.76114 0.0
O209 O 0.92251 0.35588 0.64669 0.0
C210 C 0.78047 0.3952 0.69742 0.0
C211 C 0.04688 0.33879 0.73535 0.0
C212 C 0.04997 0.20893 0.73367 0.0
N213 N 0.95854 0.27358 0.70283 0.0
C214 C 0.9863 0.33754 0.71415 0.0
C215 C 0.98911 0.20974 0.71268 0.0
C216 C 0.0791 0.27398 0.74493 0.0
C217 C 0.64136 0.2489 0.6201 0.0
N218 N 0.65466 0.31707 0.6317 0.0
C219 C 0.57433 0.21638 0.6255 0.0
C220 C 0.52043 0.25452 0.64249 0.0
C221 C 0.53419 0.3243 0.65396 0.0
C222 C 0.6022 0.35464 0.64858 0.0
C223 C 0.61438 0.50432 0.56805 0.0
C224 C 0.71892 0.51411 0.61819 0.0
C225 C 0.6477 0.44267 0.58105 0.0
N226 N 0.69955 0.44804 0.60571 0.0
C227 C 0.68575 0.57687 0.60622 0.0
C228 C 0.63319 0.57179 0.58092 0.0
C229 C 0.90473 0.40339 0.62481 0.0
C230 C 0.92545 0.10248 0.60527 0.0
C231 C 0.99694 0.22003 0.63254 0.0
C232 C 0.03334 0.174 0.61022 0.0
C233 C 0.99722 0.11489 0.59651 0.0
N234 N 0.92661 0.2074 0.64125 0.0
C235 C 0.89078 0.14968 0.62771 0.0
Co236 Co 0.66122 0.27889 0.35298 0.0
Co237 Co 0.74821 0.14943 0.30356 0.0
O238 O 0.74843 0.23147 0.3354 0.0
C239 C 0.73671 0.23248 0.41636 0.0
O240 O 0.75228 0.17065 0.40181 0.0
C241 C 0.86788 0.24963 0.27877 0.0
O242 O 0.84779 0.30052 0.29994 0.0
O243 O 0.67607 0.19878 0.27274 0.0
O244 O 0.61752 0.27704 0.30685 0.0
H245 H 0.63134 0.95827 0.23118 0.0
H246 H 0.80375 0.34507 0.36751 0.0
O247 O 0.70271 0.28108 0.39999 0.0
H248 H 0.66472 0.53259 0.30715 0.0
H249 H 0.52481 0.45136 0.42816 0.0
H250 H 0.50398 0.26441 0.33942 0.0
H251 H 0.61181 0.41273 0.3179 0.0
H252 H 0.63348 0.39521 0.40397 0.0
O253 O 0.83183 0.19099 0.27661 0.0
H254 H 0.63358 0.06416 0.26926 0.0
H255 H 0.86262 0.05902 0.271 0.0
H256 H 0.39399 0.32293 0.36131 0.0
H257 H 0.85933 0.46397 0.35684 0.0
H258 H 0.40388 0.41722 0.40611 0.0
H259 H 0.78954 0.55873 0.32651 0.0
O260 O 0.61422 0.18477 0.36345 0.0
H261 H 0.96678 0.13012 0.37977 0.0
H262 H 0.75773 1.00085 0.33192 0.0
H263 H 0.84015 0.93729 0.37093 0.0
H264 H 0.94557 1.00184 0.39514 0.0
H265 H 0.88237 0.19203 0.34124 0.0
H266 H 0.86278 0.95302 0.23304 0.0
H267 H 0.74663 0.90159 0.21314 0.0
O268 O 0.66714 0.10385 0.32896 0.0
C269 C 0.62586 0.24489 0.27841 0.0
C270 C 0.68234 0.98012 0.23976 0.0
C271 C 0.81223 0.97725 0.24077 0.0
N272 N 0.74812 0.06789 0.27237 0.0
C273 C 0.68396 0.04019 0.26127 0.0
C274 C 0.81179 0.03762 0.26208 0.0
C275 C 0.74699 0.94833 0.22964 0.0
C276 C 0.77323 0.38597 0.35417 0.0
N277 N 0.70484 0.37176 0.34312 0.0
C278 C 0.80493 0.45318 0.34822 0.0
C279 C 0.76576 0.50634 0.33121 0.0
C280 C 0.69579 0.49166 0.32027 0.0
C281 C 0.66626 0.42349 0.32623 0.0
C282 C 0.51969 0.41133 0.40829 0.0
C283 C 0.50892 0.30613 0.35851 0.0
C284 C 0.58113 0.37845 0.39483 0.0
N285 N 0.57528 0.32622 0.37038 0.0
C286 C 0.44634 0.33887 0.37093 0.0
C287 C 0.45191 0.39174 0.39605 0.0
C288 C 0.62059 0.12134 0.35134 0.0
C289 C 0.92123 0.10124 0.3692 0.0
C290 C 0.80349 0.02951 0.34227 0.0
C291 C 0.85008 0.9931 0.36434 0.0
C292 C 0.90932 0.02933 0.37786 0.0
N293 N 0.81568 0.09996 0.33362 0.0
C294 C 0.87346 0.13593 0.34703 0.0
Co295 Co 0.24696 0.16351 0.85208 0.0
Co296 Co 0.37683 0.25124 0.80313 0.0
O297 O 0.2949 0.25094 0.83505 0.0
C298 C 0.29455 0.23666 0.91592 0.0
O299 O 0.35591 0.25349 0.90123 0.0
C300 C 0.27631 0.371 0.77874 0.0
O301 O 0.22477 0.34907 0.79914 0.0
O302 O 0.32724 0.17985 0.77195 0.0
O303 O 0.24767 0.12168 0.80559 0.0
H304 H 0.56861 0.13567 0.73066 0.0
H305 H 0.18263 0.3062 0.86796 0.0
O306 O 0.24585 0.20302 0.89947 0.0
H307 H 0.99236 0.1711 0.80757 0.0
H308 H 0.07387 0.02579 0.92649 0.0
H309 H 0.25988 1.00668 0.83718 0.0
H310 H 0.11194 0.11666 0.81725 0.0
H311 H 0.13111 0.13484 0.90324 0.0
O312 O 0.33548 0.33578 0.7767 0.0
H313 H 0.4619 0.13726 0.76823 0.0
H314 H 0.46762 0.36624 0.77123 0.0
H315 H 0.20037 0.89641 0.85819 0.0
H316 H 0.06412 0.36336 0.85829 0.0
H317 H 0.10653 0.90543 0.90325 0.0
H318 H 0.96797 0.29555 0.82796 0.0
O319 O 0.34077 0.1152 0.86182 0.0
H320 H 0.39653 0.46821 0.88025 0.0
H321 H 0.52529 0.25954 0.83174 0.0
H322 H 0.58883 0.34084 0.87126 0.0
H323 H 0.52451 0.446 0.89584 0.0
H324 H 0.33462 0.38489 0.84117 0.0
H325 H 0.57437 0.36704 0.73372 0.0
H326 H 0.62612 0.25122 0.71358 0.0
O327 O 0.42222 0.1694 0.82805 0.0
C328 C 0.28023 0.13024 0.77726 0.0
C329 C 0.54668 0.18651 0.73939 0.0
C330 C 0.54985 0.31638 0.74108 0.0
N331 N 0.4584 0.25174 0.77194 0.0
C332 C 0.48612 0.18778 0.7606 0.0
C333 C 0.48901 0.31558 0.7621 0.0
C334 C 0.57892 0.25132 0.7298 0.0
C335 C 0.14113 0.27655 0.85461 0.0
N336 N 0.15437 0.20839 0.84297 0.0
C337 C 0.07414 0.30914 0.84922 0.0
C338 C 0.02021 0.27108 0.83221 0.0
C339 C 0.0339 0.20131 0.8207 0.0
C340 C 0.10189 0.17091 0.82607 0.0
C341 C 0.11373 0.02106 0.90651 0.0
C342 C 0.21837 1.01126 0.8564 0.0
C343 C 0.14719 0.0827 0.89356 0.0
N344 N 0.19907 0.07733 0.86891 0.0
C345 C 0.18508 0.94852 0.86832 0.0
C346 C 0.13247 0.9536 0.8936 0.0
C347 C 0.40435 0.12185 0.84989 0.0
C348 C 0.42529 0.42273 0.86955 0.0
C349 C 0.49674 0.30519 0.84225 0.0
C350 C 0.53313 0.35116 0.86459 0.0
C351 C 0.49703 0.41027 0.87831 0.0
N352 N 0.42643 0.31787 0.83353 0.0
C353 C 0.39061 0.37559 0.84708 0.0
Co354 Co 0.36419 0.74626 0.353 0.0
Co355 Co 0.27704 0.87566 0.30358 0.0
O356 O 0.27692 0.79355 0.33541 0.0
C357 C 0.28858 0.79251 0.41637 0.0
O358 O 0.27288 0.85429 0.40178 0.0
C359 C 0.15752 0.77534 0.27875 0.0
O360 O 0.1775 0.72451 0.29999 0.0
O361 O 0.34934 0.82652 0.27277 0.0
O362 O 0.40792 0.74822 0.30688 0.0
H363 H 0.39366 0.06741 0.23139 0.0
H364 H 0.22175 0.67984 0.36753 0.0
O365 O 0.32267 0.74396 0.40002 0.0
H366 H 0.36104 0.49268 0.3071 0.0
H367 H 0.50082 0.57402 0.42826 0.0
H368 H 0.52141 0.76098 0.33945 0.0
H369 H 0.41382 0.61255 0.31792 0.0
H370 H 0.39207 0.62996 0.40403 0.0
O371 O 0.19356 0.834 0.27658 0.0
H372 H 0.39157 0.96122 0.26931 0.0
H373 H 0.16252 0.96594 0.27102 0.0
H374 H 0.63148 0.70267 0.36139 0.0
H375 H 0.16632 0.56092 0.3568 0.0
H376 H 0.62171 0.60838 0.40622 0.0
H377 H 0.23623 0.46634 0.32643 0.0
O378 O 0.41105 0.84043 0.36348 0.0
H379 H 0.05831 0.89438 0.37974 0.0
H380 H 0.2672 0.02415 0.33198 0.0
H381 H 0.1846 0.08747 0.37097 0.0
H382 H 0.07926 0.02266 0.39514 0.0
H383 H 0.14289 0.83272 0.34122 0.0
H384 H 0.16221 0.07225 0.23322 0.0
H385 H 0.2783 0.12406 0.21343 0.0
O386 O 0.35798 0.92134 0.32901 0.0
C387 C 0.3996 0.78044 0.27844 0.0
C388 C 0.3427 0.0454 0.23993 0.0
C389 C 0.2128 0.04804 0.24093 0.0
N390 N 0.27703 0.95728 0.27241 0.0
C391 C 0.34115 0.98516 0.26135 0.0
C392 C 0.21332 0.9875 0.26214 0.0
C393 C 0.278 0.07718 0.22986 0.0
C394 C 0.25234 0.63901 0.35418 0.0
N395 N 0.32072 0.65333 0.34314 0.0
C396 C 0.22071 0.57179 0.34819 0.0
C397 C 0.25995 0.51873 0.33116 0.0
C398 C 0.32992 0.53353 0.32024 0.0
C399 C 0.35937 0.6017 0.32624 0.0
C400 C 0.50589 0.61405 0.40837 0.0
C401 C 0.51652 0.71925 0.35856 0.0
C402 C 0.44441 0.64681 0.39489 0.0
N403 N 0.45019 0.69904 0.37042 0.0
C404 C 0.57915 0.68663 0.371 0.0
C405 C 0.57365 0.63376 0.39614 0.0
C406 C 0.40457 0.90388 0.35137 0.0
C407 C 0.10382 0.92337 0.36918 0.0
C408 C 0.22148 0.99538 0.34231 0.0
C409 C 0.17478 0.03165 0.36436 0.0
C410 C 0.11559 0.99528 0.37786 0.0
N411 N 0.20942 0.92493 0.33363 0.0
C412 C 0.15169 0.88882 0.34702 0.0
Co413 Co 0.77754 0.86161 0.85193 0.0
Co414 Co 0.64737 0.77401 0.80314 0.0
O415 O 0.72942 0.77425 0.83498 0.0
C416 C 0.73006 0.78851 0.91583 0.0
O417 O 0.66866 0.77171 0.90119 0.0
C418 C 0.74789 0.65446 0.7786 0.0
O419 O 0.7995 0.67651 0.79892 0.0
O420 O 0.69681 0.84548 0.77191 0.0
O421 O 0.77675 0.90339 0.80542 0.0
H422 H 0.45508 0.8897 0.73098 0.0
H423 H 0.8417 0.71885 0.86787 0.0
O424 O 0.77873 0.82214 0.89934 0.0
H425 H 0.0319 0.85342 0.80711 0.0
H426 H 0.95137 0.99908 0.92599 0.0
H427 H 0.76479 0.01844 0.83697 0.0
H428 H 0.91249 0.90814 0.81692 0.0
H429 H 0.89366 0.89012 0.90294 0.0
O430 O 0.68863 0.68953 0.77665 0.0
H431 H 0.56211 0.88805 0.76835 0.0
H432 H 0.55647 0.65907 0.77132 0.0
H433 H 0.82472 0.12862 0.85779 0.0
H434 H 0.96004 0.66144 0.8581 0.0
H435 H 0.91887 0.11947 0.9027 0.0
H436 H 0.05614 0.72897 0.82756 0.0
O437 O 0.68381 0.91007 0.86171 0.0
H438 H 0.62801 0.55684 0.88021 0.0
H439 H 0.49907 0.76572 0.83194 0.0
H440 H 0.43572 0.68434 0.87154 0.0
H441 H 0.50014 0.57907 0.89599 0.0
H442 H 0.68973 0.64023 0.84107 0.0
H443 H 0.44938 0.65832 0.73403 0.0
H444 H 0.39743 0.77417 0.71402 0.0
O445 O 0.60211 0.85581 0.82811 0.0
C446 C 0.74397 0.89497 0.77714 0.0
C447 C 0.4771 0.83884 0.73966 0.0
C448 C 0.47396 0.70897 0.74135 0.0
N449 N 0.56565 0.77357 0.77204 0.0
C450 C 0.53784 0.83755 0.76075 0.0
C451 C 0.53499 0.70974 0.76224 0.0
C452 C 0.44477 0.77405 0.73015 0.0
C453 C 0.88319 0.74839 0.85445 0.0
N454 N 0.87002 0.81655 0.84277 0.0
C455 C 0.95008 0.71565 0.849 0.0
C456 C 1.00399 0.75356 0.83187 0.0
C457 C 0.99037 0.82333 0.82033 0.0
C458 C 0.92248 0.85389 0.82577 0.0
C459 C 0.91137 1.00386 0.90607 0.0
C460 C 0.8064 0.01381 0.85614 0.0
C461 C 0.87765 0.94228 0.89324 0.0
N462 N 0.82562 0.94772 0.86867 0.0
C463 C 0.83994 0.07649 0.86794 0.0
C464 C 0.89272 0.07134 0.89313 0.0
C465 C 0.62016 0.90341 0.84988 0.0
C466 C 0.59921 0.60237 0.86956 0.0
C467 C 0.52766 0.72002 0.8424 0.0
C468 C 0.49138 0.674 0.86479 0.0
C469 C 0.52753 0.61484 0.87844 0.0
N470 N 0.59791 0.70732 0.83358 0.0
C471 C 0.63378 0.64955 0.84707 0.0
C472 C 0.30566 0.32026 0.00445 0.0
C473 C 0.25357 0.27945 0.02204 0.0
H474 H 0.36065 0.33813 0.95681 0.0
C475 C 0.21622 0.22504 0.00446 0.0
H476 H 0.33537 0.36245 0.0174 0.0
C477 C 0.22986 0.21193 0.97015 0.0
C478 C 0.28192 0.25219 0.95242 0.0
H479 H 0.17544 0.19283 0.01708 0.0
H480 H 0.19975 0.16949 0.9576 0.0
C481 C 0.32027 0.30622 0.9699 0.0
C482 C 0.29549 0.71216 0.50468 0.0
C483 C 0.24317 0.75218 0.52234 0.0
H484 H 0.35015 0.69326 0.4578 0.0
C485 C 0.20461 0.80598 0.50479 0.0
H486 H 0.32578 0.6699 0.51728 0.0
C487 C 0.21925 0.82004 0.47025 0.0
C488 C 0.27158 0.77946 0.45272 0.0
H489 H 0.16403 0.83771 0.51783 0.0
H490 H 0.18937 0.86206 0.45724 0.0
C491 C 0.30916 0.72528 0.47036 0.0
C492 C 0.71907 0.70488 0.00439 0.0
C493 C 0.77136 0.74552 0.02193 0.0
H494 H 0.66384 0.68721 0.95681 0.0
C495 C 0.8088 0.79981 0.0043 0.0
H496 H 0.68929 0.66276 0.01739 0.0
C497 C 0.79506 0.813 0.97 0.0
C498 C 0.7428 0.77291 0.95233 0.0
H499 H 0.84974 0.83189 0.01687 0.0
H500 H 0.82526 0.85535 0.95742 0.0
C501 C 0.70437 0.71899 0.96986 0.0
C502 C 0.71655 0.30009 0.47025 0.0
C503 C 0.75377 0.24557 0.4527 0.0
H504 H 0.70022 0.35578 0.51709 0.0
C505 C 0.80581 0.20472 0.47029 0.0
H506 H 0.67581 0.33235 0.45764 0.0
C507 C 0.82047 0.2188 0.50483 0.0
C508 C 0.78223 0.27294 0.52229 0.0
H509 H 0.83543 0.16244 0.45735 0.0
H510 H 0.86079 0.18685 0.51793 0.0
C511 C 0.73024 0.31325 0.50455 0.0
C512 C 0.45909 0.32401 0.23728 0.0
C513 C 0.43689 0.26859 0.21521 0.0
H514 H 0.53684 0.36113 0.2733 0.0
C515 C 0.48233 0.2082 0.21116 0.0
H516 H 0.42626 0.37171 0.24089 0.0
C517 C 0.54696 0.20232 0.22978 0.0
C518 C 0.56735 0.2566 0.25294 0.0
H519 H 0.46744 0.16484 0.19404 0.0
H520 H 0.57906 0.15386 0.22718 0.0
C521 C 0.52319 0.31813 0.25577 0.0
C522 C 0.19877 0.96541 0.73556 0.0
C523 C 0.25516 0.94085 0.71462 0.0
H524 H 0.16137 0.04537 0.77046 0.0
C525 C 0.31696 0.9846 0.71115 0.0
H526 H 0.14996 0.93401 0.73865 0.0
C527 C 0.32333 0.04966 0.7294 0.0
C528 C 0.26811 0.0722 0.7516 0.0
H529 H 0.36112 0.96794 0.69487 0.0
H530 H 0.3729 0.08024 0.72741 0.0
C531 C 0.20512 0.02996 0.75369 0.0
C532 C 0.47849 0.82305 0.22978 0.0
C533 C 0.45812 0.76877 0.25297 0.0
H534 H 0.55796 0.8605 0.19399 0.0
C535 C 0.5023 0.70724 0.25582 0.0
H536 H 0.44638 0.87151 0.22718 0.0
C537 C 0.56637 0.70136 0.2373 0.0
C538 C 0.58854 0.75675 0.21519 0.0
H539 H 0.48867 0.66425 0.27336 0.0
H540 H 0.5992 0.65366 0.24092 0.0
C541 C 0.54309 0.81715 0.21113 0.0
C542 C 0.82556 0.05974 0.73542 0.0
C543 C 0.76911 0.08454 0.71458 0.0
H544 H 0.863 0.97952 0.7702 0.0
C545 C 0.70718 0.04095 0.71116 0.0
H546 H 0.87447 0.091 0.73847 0.0
C547 C 0.70076 0.97583 0.72938 0.0
C548 C 0.75607 0.95304 0.75148 0.0
H549 H 0.66297 0.0578 0.69496 0.0
H550 H 0.6511 0.94538 0.72745 0.0
C551 C 0.81918 0.99512 0.7535 0.0
C552 C 0.98233 0.31701 0.26356 0.0
C553 C 0.93693 0.25656 0.25955 0.0
H554 H 0.07904 0.37138 0.24752 0.0
C555 C 0.95922 0.20108 0.23753 0.0
H556 H 0.96738 0.36042 0.28063 0.0
C557 C 0.02335 0.20693 0.21905 0.0
C558 C 0.06745 0.26851 0.22185 0.0
H559 H 0.92643 0.15334 0.23395 0.0
H560 H 0.03706 0.16387 0.20157 0.0
C561 C 0.04699 0.32287 0.24495 0.0
C562 C 0.31936 0.53025 0.72123 0.0
C563 C 0.25629 0.57239 0.72325 0.0
H564 H 0.37453 0.43433 0.73628 0.0
C565 C 0.20094 0.54968 0.74534 0.0
H566 H 0.3632 0.54579 0.70453 0.0
C567 C 0.20728 0.48456 0.76358 0.0
C568 C 0.26917 0.44091 0.76017 0.0
H569 H 0.15132 0.58017 0.74727 0.0
H570 H 0.16305 0.46777 0.77978 0.0
C571 C 0.32566 0.46564 0.73932 0.0
C572 C 0.04306 0.708 0.26354 0.0
C573 C 0.08858 0.76833 0.25944 0.0
H574 H 0.9463 0.65369 0.24753 0.0
C575 C 0.06653 0.82364 0.23726 0.0
H576 H 0.05784 0.66471 0.28073 0.0
C577 C 1.00249 0.81774 0.21872 0.0
C578 C 0.95822 0.75629 0.22163 0.0
H579 H 0.09943 0.87128 0.2336 0.0
H580 H 0.98895 0.86066 0.20113 0.0
C581 C 0.97848 0.70209 0.24488 0.0
C582 C 0.82348 0.4759 0.74525 0.0
C583 C 0.76828 0.45324 0.72307 0.0
H584 H 0.86116 0.55773 0.77975 0.0
C585 C 0.70522 0.49537 0.72098 0.0
H586 H 0.87309 0.44541 0.74723 0.0
C587 C 0.69878 0.55993 0.73909 0.0
C588 C 0.75514 0.58461 0.76002 0.0
H589 H 0.66149 0.47986 0.70422 0.0
H590 H 0.64991 0.59124 0.73601 0.0
C591 C 0.81702 0.54097 0.76349 0.0
C592 C 0.03203 0.58507 0.11253 0.0
C593 C 0.95885 0.56601 0.1144 0.0
H594 H 0.14133 0.54777 0.11406 0.0
C595 C 0.93967 0.49271 0.11337 0.0
H596 H 0.04837 0.64109 0.11341 0.0
C597 C 0.99288 0.43931 0.1129 0.0
C598 C 0.06607 0.4584 0.11445 0.0
H599 H 0.8836 0.47662 0.11463 0.0
H600 H 0.97655 0.3833 0.11408 0.0
C601 C 0.08524 0.53167 0.11305 0.0
C602 C 0.03287 0.4399 0.61534 0.0
C603 C 0.95938 0.45841 0.61629 0.0
H604 H 0.14196 0.47776 0.616 0.0
C605 C 0.93972 0.53144 0.61444 0.0
H606 H 0.04946 0.38398 0.61659 0.0
C607 C 0.99265 0.58513 0.61492 0.0
C608 C 0.06611 0.56665 0.61626 0.0
H609 H 0.88355 0.54729 0.61528 0.0
H610 H 0.97604 0.64108 0.61585 0.0
C611 C 0.08581 0.49359 0.61484 0.0
C612 C 0.49297 0.08552 0.36191 0.0
C613 C 0.56616 0.06646 0.36026 0.0
H614 H 0.38369 0.0482 0.36024 0.0
C615 C 0.58533 0.99318 0.36154 0.0
H616 H 0.47664 0.14153 0.36082 0.0
C617 C 0.53213 0.93977 0.36205 0.0
C618 C 0.45894 0.95882 0.36028 0.0
H619 H 0.64142 0.97709 0.36045 0.0
H620 H 0.54848 0.88376 0.36107 0.0
C621 C 0.43977 0.03211 0.36143 0.0
C622 C 0.53242 0.08527 0.85947 0.0
C623 C 0.45894 0.06678 0.85841 0.0
H624 H 0.64151 0.04742 0.85888 0.0
C625 C 0.43925 0.99374 0.86014 0.0
H626 H 0.54903 0.14121 0.8583 0.0
C627 C 0.49217 0.94005 0.85966 0.0
C628 C 0.56564 0.95853 0.85842 0.0
H629 H 0.38309 0.9779 0.85922 0.0
H630 H 0.47556 0.8841 0.85864 0.0
C631 C 0.58535 0.03158 0.85996 0.0
loop_
_geom_bond_atom_site_label_1
_geom_bond_atom_site_label_2
_geom_bond_distance
_geom_bond_site_symmetry_2
_ccdc_geom_bond_type
Co0 O2 2.143 . S
Co0 O8 2.074 . S
Co0 O11 2.093 . S
Co0 O24 2.097 . S
Co0 N41 2.151 . S
Co0 N49 2.214 . S
Co1 O2 2.160 . S
Co1 O7 2.058 . S
Co1 O17 2.057 . S
Co1 O32 2.037 . S
Co1 N36 2.145 . S
Co1 N57 2.257 . S
O2 Co0 2.143 . S
O2 Co1 2.160 . S
C3 O4 1.278 . S
C3 O11 1.224 . S
O4 C3 1.278 . S
C5 O6 1.245 . S
C5 O17 1.232 . S
O6 C5 1.245 . S
O7 Co1 2.058 . S
O7 C33 1.269 . S
O8 Co0 2.074 . S
O8 C33 1.257 . S
H9 C34 0.930 . S
H10 C40 0.930 . S
O11 Co0 2.093 . S
O11 C3 1.224 . S
H12 C44 0.929 . S
H13 C46 0.930 . S
H14 C47 0.930 . S
H15 C45 0.929 . S
H16 C48 0.928 . S
O17 Co1 2.057 . S
O17 C5 1.232 . S
H18 C37 0.929 . S
H19 C38 0.929 . S
H20 C50 0.931 . S
H21 C42 0.929 . S
H22 C51 0.930 . S
H23 C43 0.931 1_565 S
O24 Co0 2.097 . S
O24 C52 1.214 . S
H25 C53 0.929 . S
H26 C54 0.929 . S
H27 C55 0.930 . S
H28 C56 0.929 . S
H29 C58 0.930 . S
H30 C35 0.930 . S
H31 C39 0.930 . S
O32 Co1 2.037 . S
O32 C52 1.234 . S
C33 O7 1.269 . S
C33 O8 1.257 . S
C34 H9 0.930 . S
C34 C37 1.388 . S
C34 C39 1.418 . S
C35 H30 0.930 . S
C35 C38 1.404 . S
C35 C39 1.353 . S
N36 Co1 2.145 . S
N36 C37 1.397 . S
N36 C38 1.334 . S
C37 H18 0.929 . S
C37 C34 1.388 . S
C37 N36 1.397 . S
C38 H19 0.929 . S
C38 C35 1.404 . S
C38 N36 1.334 . S
C39 H31 0.930 . S
C39 C34 1.418 . S
C39 C35 1.353 . S
C40 H10 0.930 . S
C40 N41 1.330 . S
C40 C42 1.446 . S
N41 Co0 2.151 . S
N41 C40 1.330 . S
N41 C45 1.418 . S
C42 H21 0.929 . S
C42 C40 1.446 . S
C42 C43 1.332 . S
C43 H23 0.931 1_545 S
C43 C42 1.332 . S
C43 C44 1.267 . S
C44 H12 0.929 . S
C44 C43 1.267 . S
C44 C45 1.251 . S
C45 H15 0.929 . S
C45 N41 1.418 . S
C45 C44 1.251 . S
C46 H13 0.930 . S
C46 C48 1.406 1_655 S
C46 C51 1.261 . S
C47 H14 0.930 . S
C47 N49 1.325 1_655 S
C47 C50 1.357 . S
C48 H16 0.928 . S
C48 C46 1.406 1_455 S
C48 N49 1.261 . S
N49 Co0 2.214 . S
N49 C47 1.325 1_455 S
N49 C48 1.261 . S
C50 H20 0.931 . S
C50 C47 1.357 . S
C50 C51 1.312 . S
C51 H22 0.930 . S
C51 C46 1.261 . S
C51 C50 1.312 . S
C52 O24 1.214 . S
C52 O32 1.234 . S
C53 H25 0.929 . S
C53 C56 1.391 . S
C53 C58 1.391 . S
C54 H26 0.929 . S
C54 C55 1.390 . S
C54 N57 1.391 . S
C55 H27 0.930 . S
C55 C54 1.390 . S
C55 C56 1.392 . S
C56 H28 0.929 . S
C56 C53 1.391 . S
C56 C55 1.392 . S
N57 Co1 2.257 . S
N57 C54 1.391 . S
N57 C58 1.388 . S
C58 H29 0.930 . S
C58 C53 1.391 . S
C58 N57 1.388 . S
Co59 O61 2.143 . S
Co59 O67 2.074 . S
Co59 O70 2.093 . S
Co59 O83 2.097 . S
Co59 N100 2.151 . S
Co59 N108 2.214 . S
Co60 O61 2.160 . S
Co60 O66 2.058 . S
Co60 O76 2.057 . S
Co60 O91 2.037 . S
Co60 N95 2.145 . S
Co60 N116 2.257 . S
O61 Co59 2.143 . S
O61 Co60 2.160 . S
C62 O63 1.278 . S
C62 O70 1.224 . S
O63 C62 1.278 . S
C64 O65 1.245 . S
C64 O76 1.232 . S
O65 C64 1.245 . S
O66 Co60 2.058 . S
O66 C92 1.269 . S
O67 Co59 2.074 . S
O67 C92 1.257 . S
H68 C93 0.930 . S
H69 C99 0.930 . S
O70 Co59 2.093 . S
O70 C62 1.224 . S
H71 C103 0.929 . S
H72 C105 0.930 . S
H73 C106 0.930 . S
H74 C104 0.929 . S
H75 C107 0.928 . S
O76 Co60 2.057 . S
O76 C64 1.232 . S
H77 C96 0.929 . S
H78 C97 0.929 . S
H79 C109 0.931 . S
H80 C101 0.929 . S
H81 C110 0.930 . S
H82 C102 0.931 . S
O83 Co59 2.097 . S
O83 C111 1.214 . S
H84 C112 0.929 . S
H85 C113 0.929 . S
H86 C114 0.930 . S
H87 C115 0.929 . S
H88 C117 0.930 . S
H89 C94 0.930 . S
H90 C98 0.930 . S
O91 Co60 2.037 . S
O91 C111 1.234 . S
C92 O66 1.269 . S
C92 O67 1.257 . S
C93 H68 0.930 . S
C93 C96 1.388 1_655 S
C93 C98 1.418 . S
C94 H89 0.930 . S
C94 C97 1.411 . S
C94 C98 1.346 1_455 S
N95 Co60 2.145 . S
N95 C96 1.397 . S
N95 C97 1.334 . S
C96 H77 0.929 . S
C96 C93 1.388 1_455 S
C96 N95 1.397 . S
C97 H78 0.929 . S
C97 C94 1.411 . S
C97 N95 1.334 . S
C98 H90 0.930 . S
C98 C93 1.418 . S
C98 C94 1.346 1_655 S
C99 H69 0.930 . S
C99 N100 1.330 . S
C99 C101 1.446 . S
N100 Co59 2.151 . S
N100 C99 1.330 . S
N100 C104 1.418 . S
C101 H80 0.929 . S
C101 C99 1.446 . S
C101 C102 1.332 . S
C102 H82 0.931 . S
C102 C101 1.332 . S
C102 C103 1.267 . S
C103 H71 0.929 . S
C103 C102 1.267 . S
C103 C104 1.251 . S
C104 H74 0.929 . S
C104 N100 1.418 . S
C104 C103 1.251 . S
C105 H72 0.930 . S
C105 C107 1.406 . S
C105 C110 1.261 . S
C106 H73 0.930 . S
C106 N108 1.325 . S
C106 C109 1.357 . S
C107 H75 0.928 . S
C107 C105 1.406 . S
C107 N108 1.261 . S
N108 Co59 2.214 . S
N108 C106 1.325 . S
N108 C107 1.261 . S
C109 H79 0.931 . S
C109 C106 1.357 . S
C109 C110 1.312 . S
C110 H81 0.930 . S
C110 C105 1.261 . S
C110 C109 1.312 . S
C111 O83 1.214 . S
C111 O91 1.234 . S
C112 H84 0.929 . S
C112 C115 1.391 1_455 S
C112 C117 1.391 . S
C113 H85 0.929 . S
C113 C114 1.390 . S
C113 N116 1.391 1_655 S
C114 H86 0.930 . S
C114 C113 1.390 . S
C114 C115 1.392 . S
C115 H87 0.929 . S
C115 C112 1.391 1_655 S
C115 C114 1.392 . S
N116 Co60 2.257 . S
N116 C113 1.391 1_455 S
N116 C117 1.388 . S
C117 H88 0.930 . S
C117 C112 1.391 . S
C117 N116 1.388 . S
Co118 O120 2.143 . S
Co118 O126 2.074 . S
Co118 O129 2.093 . S
Co118 O142 2.097 . S
Co118 N159 2.151 . S
Co118 N167 2.214 . S
Co119 O120 2.160 . S
Co119 O125 2.058 . S
Co119 O135 2.057 . S
Co119 O150 2.037 . S
Co119 N154 2.145 . S
Co119 N175 2.257 . S
O120 Co118 2.143 . S
O120 Co119 2.160 . S
C121 O122 1.278 . S
C121 O129 1.224 . S
O122 C121 1.278 . S
C123 O124 1.245 . S
C123 O135 1.232 . S
O124 C123 1.245 . S
O125 Co119 2.058 . S
O125 C151 1.269 . S
O126 Co118 2.074 . S
O126 C151 1.257 . S
H127 C152 0.930 . S
H128 C158 0.930 . S
O129 Co118 2.093 . S
O129 C121 1.224 . S
H130 C162 0.929 . S
H131 C164 0.930 . S
H132 C165 0.930 . S
H133 C163 0.929 . S
H134 C166 0.928 . S
O135 Co119 2.057 . S
O135 C123 1.232 . S
H136 C155 0.929 . S
H137 C156 0.929 . S
H138 C168 0.931 . S
H139 C160 0.929 . S
H140 C169 0.930 . S
H141 C161 0.931 1_545 S
O142 Co118 2.097 . S
O142 C170 1.214 . S
H143 C171 0.929 . S
H144 C172 0.929 . S
H145 C173 0.930 . S
H146 C174 0.929 . S
H147 C176 0.930 . S
H148 C153 0.930 . S
H149 C157 0.930 . S
O150 Co119 2.037 . S
O150 C170 1.234 . S
C151 O125 1.269 . S
C151 O126 1.257 . S
C152 H127 0.930 . S
C152 C155 1.388 . S
C152 C157 1.418 . S
C153 H148 0.930 . S
C153 C156 1.404 . S
C153 C157 1.353 . S
N154 Co119 2.145 . S
N154 C155 1.397 . S
N154 C156 1.334 . S
C155 H136 0.929 . S
C155 C152 1.388 . S
C155 N154 1.397 . S
C156 H137 0.929 . S
C156 C153 1.404 . S
C156 N154 1.334 . S
C157 H149 0.930 . S
C157 C152 1.418 . S
C157 C153 1.353 . S
C158 H128 0.930 . S
C158 N159 1.330 . S
C158 C160 1.446 . S
N159 Co118 2.151 . S
N159 C158 1.330 . S
N159 C163 1.418 . S
C160 H139 0.929 . S
C160 C158 1.446 . S
C160 C161 1.332 . S
C161 H141 0.931 1_565 S
C161 C160 1.332 . S
C161 C162 1.267 . S
C162 H130 0.929 . S
C162 C161 1.267 . S
C162 C163 1.251 . S
C163 H133 0.929 . S
C163 N159 1.418 . S
C163 C162 1.251 . S
C164 H131 0.930 . S
C164 C166 1.406 1_455 S
C164 C169 1.261 . S
C165 H132 0.930 . S
C165 N167 1.325 1_455 S
C165 C168 1.357 . S
C166 H134 0.928 . S
C166 C164 1.406 1_655 S
C166 N167 1.261 . S
N167 Co118 2.214 . S
N167 C165 1.325 1_655 S
N167 C166 1.261 . S
C168 H138 0.931 . S
C168 C165 1.357 . S
C168 C169 1.312 . S
C169 H140 0.930 . S
C169 C164 1.261 . S
C169 C168 1.312 . S
C170 O142 1.214 . S
C170 O150 1.234 . S
C171 H143 0.929 . S
C171 C174 1.391 . S
C171 C176 1.391 . S
C172 H144 0.929 . S
C172 C173 1.390 . S
C172 N175 1.391 . S
C173 H145 0.930 . S
C173 C172 1.390 . S
C173 C174 1.392 . S
C174 H146 0.929 . S
C174 C171 1.391 . S
C174 C173 1.392 . S
N175 Co119 2.257 . S
N175 C172 1.391 . S
N175 C176 1.388 . S
C176 H147 0.930 . S
C176 C171 1.391 . S
C176 N175 1.388 . S
Co177 O179 2.143 . S
Co177 O185 2.074 . S
Co177 O188 2.093 . S
Co177 O201 2.097 . S
Co177 N218 2.151 . S
Co177 N226 2.214 . S
Co178 O179 2.160 . S
Co178 O184 2.058 . S
Co178 O194 2.057 . S
Co178 O209 2.037 . S
Co178 N213 2.145 . S
Co178 N234 2.257 . S
O179 Co177 2.143 . S
O179 Co178 2.160 . S
C180 O181 1.278 . S
C180 O188 1.224 . S
O181 C180 1.278 . S
C182 O183 1.245 . S
C182 O194 1.232 . S
O183 C182 1.245 . S
O184 Co178 2.058 . S
O184 C210 1.269 . S
O185 Co177 2.074 . S
O185 C210 1.257 . S
H186 C211 0.930 . S
H187 C217 0.930 . S
O188 Co177 2.093 . S
O188 C180 1.224 . S
H189 C221 0.929 . S
H190 C223 0.930 . S
H191 C224 0.930 . S
H192 C222 0.929 . S
H193 C225 0.928 . S
O194 Co178 2.057 . S
O194 C182 1.232 . S
H195 C214 0.929 . S
H196 C215 0.929 . S
H197 C227 0.931 . S
H198 C219 0.929 . S
H199 C228 0.930 . S
H200 C220 0.931 . S
O201 Co177 2.097 . S
O201 C229 1.214 . S
H202 C230 0.929 . S
H203 C231 0.929 . S
H204 C232 0.930 . S
H205 C233 0.929 . S
H206 C235 0.930 . S
H207 C212 0.930 . S
H208 C216 0.930 . S
O209 Co178 2.037 . S
O209 C229 1.234 . S
C210 O184 1.269 . S
C210 O185 1.257 . S
C211 H186 0.930 . S
C211 C214 1.388 1_455 S
C211 C216 1.418 . S
C212 H207 0.930 . S
C212 C215 1.411 . S
C212 C216 1.345 1_655 S
N213 Co178 2.145 . S
N213 C214 1.397 . S
N213 C215 1.334 . S
C214 H195 0.929 . S
C214 C211 1.388 1_655 S
C214 N213 1.397 . S
C215 H196 0.929 . S
C215 C212 1.411 . S
C215 N213 1.334 . S
C216 H208 0.930 . S
C216 C211 1.418 . S
C216 C212 1.345 1_455 S
C217 H187 0.930 . S
C217 N218 1.330 . S
C217 C219 1.446 . S
N218 Co177 2.151 . S
N218 C217 1.330 . S
N218 C222 1.418 . S
C219 H198 0.929 . S
C219 C217 1.446 . S
C219 C220 1.332 . S
C220 H200 0.931 . S
C220 C219 1.332 . S
C220 C221 1.267 . S
C221 H189 0.929 . S
C221 C220 1.267 . S
C221 C222 1.251 . S
C222 H192 0.929 . S
C222 N218 1.418 . S
C222 C221 1.251 . S
C223 H190 0.930 . S
C223 C225 1.406 . S
C223 C228 1.261 . S
C224 H191 0.930 . S
C224 N226 1.325 . S
C224 C227 1.357 . S
C225 H193 0.928 . S
C225 C223 1.406 . S
C225 N226 1.261 . S
N226 Co177 2.214 . S
N226 C224 1.325 . S
N226 C225 1.261 . S
C227 H197 0.931 . S
C227 C224 1.357 . S
C227 C228 1.312 . S
C228 H199 0.930 . S
C228 C223 1.261 . S
C228 C227 1.312 . S
C229 O201 1.214 . S
C229 O209 1.234 . S
C230 H202 0.929 . S
C230 C233 1.391 1_655 S
C230 C235 1.391 . S
C231 H203 0.929 . S
C231 C232 1.390 . S
C231 N234 1.391 1_455 S
C232 H204 0.930 . S
C232 C231 1.390 . S
C232 C233 1.392 . S
C233 H205 0.929 . S
C233 C230 1.391 1_455 S
C233 C232 1.392 . S
N234 Co178 2.257 . S
N234 C231 1.391 1_655 S
N234 C235 1.388 . S
C235 H206 0.930 . S
C235 C230 1.391 . S
C235 N234 1.388 . S
Co236 O238 2.143 . S
Co236 O244 2.074 . S
Co236 O247 2.093 . S
Co236 O260 2.097 . S
Co236 N277 2.151 . S
Co236 N285 2.214 . S
Co237 O238 2.160 . S
Co237 O243 2.058 . S
Co237 O253 2.057 . S
Co237 O268 2.037 . S
Co237 N272 2.145 . S
Co237 N293 2.257 . S
O238 Co236 2.143 . S
O238 Co237 2.160 . S
C239 O240 1.278 . S
C239 O247 1.224 . S
O240 C239 1.278 . S
C241 O242 1.245 . S
C241 O253 1.232 . S
O242 C241 1.245 . S
O243 Co237 2.058 . S
O243 C269 1.269 . S
O244 Co236 2.074 . S
O244 C269 1.257 . S
H245 C270 0.930 . S
H246 C276 0.930 . S
O247 Co236 2.093 . S
O247 C239 1.224 . S
H248 C280 0.929 . S
H249 C282 0.930 . S
H250 C283 0.930 . S
H251 C281 0.929 . S
H252 C284 0.928 . S
O253 Co237 2.057 . S
O253 C241 1.232 . S
H254 C273 0.929 . S
H255 C274 0.929 . S
H256 C286 0.931 . S
H257 C278 0.929 . S
H258 C287 0.930 . S
H259 C279 0.931 . S
O260 Co236 2.097 . S
O260 C288 1.214 . S
H261 C289 0.929 . S
H262 C290 0.929 . S
H263 C291 0.930 . S
H264 C292 0.929 . S
H265 C294 0.930 . S
H266 C271 0.930 . S
H267 C275 0.930 . S
O268 Co237 2.037 . S
O268 C288 1.234 . S
C269 O243 1.269 . S
C269 O244 1.257 . S
C270 H245 0.930 . S
C270 C273 1.388 1_565 S
C270 C275 1.418 . S
C271 H266 0.930 . S
C271 C274 1.411 . S
C271 C275 1.345 1_545 S
N272 Co237 2.145 . S
N272 C273 1.397 . S
N272 C274 1.334 . S
C273 H254 0.929 . S
C273 C270 1.388 1_545 S
C273 N272 1.397 . S
C274 H255 0.929 . S
C274 C271 1.411 . S
C274 N272 1.334 . S
C275 H267 0.930 . S
C275 C270 1.418 . S
C275 C271 1.345 1_565 S
C276 H246 0.930 . S
C276 N277 1.330 . S
C276 C278 1.446 . S
N277 Co236 2.151 . S
N277 C276 1.330 . S
N277 C281 1.418 . S
C278 H257 0.929 . S
C278 C276 1.446 . S
C278 C279 1.332 . S
C279 H259 0.931 . S
C279 C278 1.332 . S
C279 C280 1.267 . S
C280 H248 0.929 . S
C280 C279 1.267 . S
C280 C281 1.251 . S
C281 H251 0.929 . S
C281 N277 1.418 . S
C281 C280 1.251 . S
C282 H249 0.930 . S
C282 C284 1.406 . S
C282 C287 1.261 . S
C283 H250 0.930 . S
C283 N285 1.325 . S
C283 C286 1.357 . S
C284 H252 0.928 . S
C284 C282 1.406 . S
C284 N285 1.261 . S
N285 Co236 2.214 . S
N285 C283 1.325 . S
N285 C284 1.261 . S
C286 H256 0.931 . S
C286 C283 1.357 . S
C286 C287 1.312 . S
C287 H258 0.930 . S
C287 C282 1.261 . S
C287 C286 1.312 . S
C288 O260 1.214 . S
C288 O268 1.234 . S
C289 H261 0.929 . S
C289 C292 1.391 1_545 S
C289 C294 1.391 . S
C290 H262 0.929 . S
C290 C291 1.390 . S
C290 N293 1.391 1_565 S
C291 H263 0.930 . S
C291 C290 1.390 . S
C291 C292 1.392 . S
C292 H264 0.929 . S
C292 C289 1.391 1_565 S
C292 C291 1.392 . S
N293 Co237 2.257 . S
N293 C290 1.391 1_545 S
N293 C294 1.388 . S
C294 H265 0.930 . S
C294 C289 1.391 . S
C294 N293 1.388 . S
Co295 O297 2.143 . S
Co295 O303 2.074 . S
Co295 O306 2.093 . S
Co295 O319 2.097 . S
Co295 N336 2.151 . S
Co295 N344 2.214 . S
Co296 O297 2.160 . S
Co296 O302 2.058 . S
Co296 O312 2.057 . S
Co296 O327 2.037 . S
Co296 N331 2.145 . S
Co296 N352 2.257 . S
O297 Co295 2.143 . S
O297 Co296 2.160 . S
C298 O299 1.278 . S
C298 O306 1.224 . S
O299 C298 1.278 . S
C300 O301 1.245 . S
C300 O312 1.232 . S
O301 C300 1.245 . S
O302 Co296 2.058 . S
O302 C328 1.269 . S
O303 Co295 2.074 . S
O303 C328 1.257 . S
H304 C329 0.930 . S
H305 C335 0.930 . S
O306 Co295 2.093 . S
O306 C298 1.224 . S
H307 C339 0.929 . S
H308 C341 0.930 . S
H309 C342 0.930 . S
H310 C340 0.929 . S
H311 C343 0.928 . S
O312 Co296 2.057 . S
O312 C300 1.232 . S
H313 C332 0.929 . S
H314 C333 0.929 . S
H315 C345 0.931 . S
H316 C337 0.929 . S
H317 C346 0.930 . S
H318 C338 0.931 1_655 S
O319 Co295 2.097 . S
O319 C347 1.214 . S
H320 C348 0.929 . S
H321 C349 0.929 . S
H322 C350 0.930 . S
H323 C351 0.929 . S
H324 C353 0.930 . S
H325 C330 0.930 . S
H326 C334 0.930 . S
O327 Co296 2.037 . S
O327 C347 1.234 . S
C328 O302 1.269 . S
C328 O303 1.257 . S
C329 H304 0.930 . S
C329 C332 1.388 . S
C329 C334 1.418 . S
C330 H325 0.930 . S
C330 C333 1.404 . S
C330 C334 1.353 . S
N331 Co296 2.145 . S
N331 C332 1.397 . S
N331 C333 1.334 . S
C332 H313 0.929 . S
C332 C329 1.388 . S
C332 N331 1.397 . S
C333 H314 0.929 . S
C333 C330 1.404 . S
C333 N331 1.334 . S
C334 H326 0.930 . S
C334 C329 1.418 . S
C334 C330 1.353 . S
C335 H305 0.930 . S
C335 N336 1.330 . S
C335 C337 1.446 . S
N336 Co295 2.151 . S
N336 C335 1.330 . S
N336 C340 1.418 . S
C337 H316 0.929 . S
C337 C335 1.446 . S
C337 C338 1.332 . S
C338 H318 0.931 1_455 S
C338 C337 1.332 . S
C338 C339 1.267 . S
C339 H307 0.929 . S
C339 C338 1.267 . S
C339 C340 1.251 . S
C340 H310 0.929 . S
C340 N336 1.418 . S
C340 C339 1.251 . S
C341 H308 0.930 . S
C341 C343 1.406 1_565 S
C341 C346 1.261 . S
C342 H309 0.930 . S
C342 N344 1.325 1_565 S
C342 C345 1.357 . S
C343 H311 0.928 . S
C343 C341 1.406 1_545 S
C343 N344 1.261 . S
N344 Co295 2.214 . S
N344 C342 1.325 1_545 S
N344 C343 1.261 . S
C345 H315 0.931 . S
C345 C342 1.357 . S
C345 C346 1.312 . S
C346 H317 0.930 . S
C346 C341 1.261 . S
C346 C345 1.312 . S
C347 O319 1.214 . S
C347 O327 1.234 . S
C348 H320 0.929 . S
C348 C351 1.391 . S
C348 C353 1.391 . S
C349 H321 0.929 . S
C349 C350 1.390 . S
C349 N352 1.391 . S
C350 H322 0.930 . S
C350 C349 1.390 . S
C350 C351 1.392 . S
C351 H323 0.929 . S
C351 C348 1.391 . S
C351 C350 1.392 . S
N352 Co296 2.257 . S
N352 C349 1.391 . S
N352 C353 1.388 . S
C353 H324 0.930 . S
C353 C348 1.391 . S
C353 N352 1.388 . S
Co354 O356 2.143 . S
Co354 O362 2.074 . S
Co354 O365 2.093 . S
Co354 O378 2.097 . S
Co354 N395 2.151 . S
Co354 N403 2.214 . S
Co355 O356 2.160 . S
Co355 O361 2.058 . S
Co355 O371 2.057 . S
Co355 O386 2.037 . S
Co355 N390 2.145 . S
Co355 N411 2.257 . S
O356 Co354 2.143 . S
O356 Co355 2.160 . S
C357 O358 1.278 . S
C357 O365 1.224 . S
O358 C357 1.278 . S
C359 O360 1.245 . S
C359 O371 1.232 . S
O360 C359 1.245 . S
O361 Co355 2.058 . S
O361 C387 1.269 . S
O362 Co354 2.074 . S
O362 C387 1.257 . S
H363 C388 0.930 . S
H364 C394 0.930 . S
O365 Co354 2.093 . S
O365 C357 1.224 . S
H366 C398 0.929 . S
H367 C400 0.930 . S
H368 C401 0.930 . S
H369 C399 0.929 . S
H370 C402 0.928 . S
O371 Co355 2.057 . S
O371 C359 1.232 . S
H372 C391 0.929 . S
H373 C392 0.929 . S
H374 C404 0.931 . S
H375 C396 0.929 . S
H376 C405 0.930 . S
H377 C397 0.931 . S
O378 Co354 2.097 . S
O378 C406 1.214 . S
H379 C407 0.929 . S
H380 C408 0.929 . S
H381 C409 0.930 . S
H382 C410 0.929 . S
H383 C412 0.930 . S
H384 C389 0.930 . S
H385 C393 0.930 . S
O386 Co355 2.037 . S
O386 C406 1.234 . S
C387 O361 1.269 . S
C387 O362 1.257 . S
C388 H363 0.930 . S
C388 C391 1.388 1_545 S
C388 C393 1.418 . S
C389 H384 0.930 . S
C389 C392 1.411 . S
C389 C393 1.346 1_565 S
N390 Co355 2.145 . S
N390 C391 1.397 . S
N390 C392 1.334 . S
C391 H372 0.929 . S
C391 C388 1.388 1_565 S
C391 N390 1.397 . S
C392 H373 0.929 . S
C392 C389 1.411 . S
C392 N390 1.334 . S
C393 H385 0.930 . S
C393 C388 1.418 . S
C393 C389 1.346 1_545 S
C394 H364 0.930 . S
C394 N395 1.330 . S
C394 C396 1.446 . S
N395 Co354 2.151 . S
N395 C394 1.330 . S
N395 C399 1.418 . S
C396 H375 0.929 . S
C396 C394 1.446 . S
C396 C397 1.332 . S
C397 H377 0.931 . S
C397 C396 1.332 . S
C397 C398 1.267 . S
C398 H366 0.929 . S
C398 C397 1.267 . S
C398 C399 1.251 . S
C399 H369 0.929 . S
C399 N395 1.418 . S
C399 C398 1.251 . S
C400 H367 0.930 . S
C400 C402 1.406 . S
C400 C405 1.261 . S
C401 H368 0.930 . S
C401 N403 1.325 . S
C401 C404 1.357 . S
C402 H370 0.928 . S
C402 C400 1.406 . S
C402 N403 1.261 . S
N403 Co354 2.214 . S
N403 C401 1.325 . S
N403 C402 1.261 . S
C404 H374 0.931 . S
C404 C401 1.357 . S
C404 C405 1.312 . S
C405 H376 0.930 . S
C405 C400 1.261 . S
C405 C404 1.312 . S
C406 O378 1.214 . S
C406 O386 1.234 . S
C407 H379 0.929 . S
C407 C410 1.391 1_565 S
C407 C412 1.391 . S
C408 H380 0.929 . S
C408 C409 1.390 . S
C408 N411 1.391 1_545 S
C409 H381 0.930 . S
C409 C408 1.390 . S
C409 C410 1.392 . S
C410 H382 0.929 . S
C410 C407 1.391 1_545 S
C410 C409 1.392 . S
N411 Co355 2.257 . S
N411 C408 1.391 1_565 S
N411 C412 1.388 . S
C412 H383 0.930 . S
C412 C407 1.391 . S
C412 N411 1.388 . S
Co413 O415 2.143 . S
Co413 O421 2.074 . S
Co413 O424 2.093 . S
Co413 O437 2.097 . S
Co413 N454 2.151 . S
Co413 N462 2.214 . S
Co414 O415 2.160 . S
Co414 O420 2.058 . S
Co414 O430 2.057 . S
Co414 O445 2.037 . S
Co414 N449 2.145 . S
Co414 N470 2.257 . S
O415 Co413 2.143 . S
O415 Co414 2.160 . S
C416 O417 1.278 . S
C416 O424 1.224 . S
O417 C416 1.278 . S
C418 O419 1.245 . S
C418 O430 1.232 . S
O419 C418 1.245 . S
O420 Co414 2.058 . S
O420 C446 1.269 . S
O421 Co413 2.074 . S
O421 C446 1.257 . S
H422 C447 0.930 . S
H423 C453 0.930 . S
O424 Co413 2.093 . S
O424 C416 1.224 . S
H425 C457 0.929 . S
H426 C459 0.930 . S
H427 C460 0.930 . S
H428 C458 0.929 . S
H429 C461 0.928 . S
O430 Co414 2.057 . S
O430 C418 1.232 . S
H431 C450 0.929 . S
H432 C451 0.929 . S
H433 C463 0.931 . S
H434 C455 0.929 . S
H435 C464 0.930 . S
H436 C456 0.931 1_455 S
O437 Co413 2.097 . S
O437 C465 1.214 . S
H438 C466 0.929 . S
H439 C467 0.929 . S
H440 C468 0.930 . S
H441 C469 0.929 . S
H442 C471 0.930 . S
H443 C448 0.930 . S
H444 C452 0.930 . S
O445 Co414 2.037 . S
O445 C465 1.234 . S
C446 O420 1.269 . S
C446 O421 1.257 . S
C447 H422 0.930 . S
C447 C450 1.388 . S
C447 C452 1.418 . S
C448 H443 0.930 . S
C448 C451 1.404 . S
C448 C452 1.353 . S
N449 Co414 2.145 . S
N449 C450 1.397 . S
N449 C451 1.334 . S
C450 H431 0.929 . S
C450 C447 1.388 . S
C450 N449 1.397 . S
C451 H432 0.929 . S
C451 C448 1.404 . S
C451 N449 1.334 . S
C452 H444 0.930 . S
C452 C447 1.418 . S
C452 C448 1.353 . S
C453 H423 0.930 . S
C453 N454 1.330 . S
C453 C455 1.446 . S
N454 Co413 2.151 . S
N454 C453 1.330 . S
N454 C458 1.418 . S
C455 H434 0.929 . S
C455 C453 1.446 . S
C455 C456 1.332 . S
C456 H436 0.931 1_655 S
C456 C455 1.332 . S
C456 C457 1.267 . S
C457 H425 0.929 . S
C457 C456 1.267 . S
C457 C458 1.251 . S
C458 H428 0.929 . S
C458 N454 1.418 . S
C458 C457 1.251 . S
C459 H426 0.930 . S
C459 C461 1.406 1_545 S
C459 C464 1.261 . S
C460 H427 0.930 . S
C460 N462 1.325 1_545 S
C460 C463 1.357 . S
C461 H429 0.928 . S
C461 C459 1.406 1_565 S
C461 N462 1.261 . S
N462 Co413 2.214 . S
N462 C460 1.325 1_565 S
N462 C461 1.261 . S
C463 H433 0.931 . S
C463 C460 1.357 . S
C463 C464 1.312 . S
C464 H435 0.930 . S
C464 C459 1.261 . S
C464 C463 1.312 . S
C465 O437 1.214 . S
C465 O445 1.234 . S
C466 H438 0.929 . S
C466 C469 1.391 . S
C466 C471 1.391 . S
C467 H439 0.929 . S
C467 C468 1.390 . S
C467 N470 1.391 . S
C468 H440 0.930 . S
C468 C467 1.390 . S
C468 C469 1.392 . S
C469 H441 0.929 . S
C469 C466 1.391 . S
C469 C468 1.392 . S
N470 Co414 2.257 . S
N470 C467 1.391 . S
N470 C471 1.388 . S
C471 H442 0.930 . S
C471 C466 1.391 . S
C471 N470 1.388 . S
C472 C473 1.387 . S
C472 H476 0.950 . S
C472 C481 1.390 1_554 S
C473 C472 1.387 . S
C473 C475 1.387 . S
H474 C481 0.950 . S
C475 C473 1.387 . S
C475 C477 1.390 1_554 S
C475 H479 0.950 . S
H476 C472 0.950 . S
C477 C475 1.390 1_556 S
C477 C478 1.387 . S
C477 H480 0.950 . S
C478 C477 1.387 . S
C478 C481 1.387 . S
H479 C475 0.950 . S
H480 C477 0.950 . S
C481 C472 1.390 1_556 S
C481 H474 0.950 . S
C481 C478 1.387 . S
C482 C483 1.387 . S
C482 H486 0.950 . S
C482 C491 1.390 . S
C483 C482 1.387 . S
C483 C485 1.387 . S
H484 C491 0.950 . S
C485 C483 1.387 . S
C485 C487 1.390 . S
C485 H489 0.950 . S
H486 C482 0.950 . S
C487 C485 1.390 . S
C487 C488 1.387 . S
C487 H490 0.950 . S
C488 C487 1.387 . S
C488 C491 1.387 . S
H489 C485 0.950 . S
H490 C487 0.950 . S
C491 C482 1.390 . S
C491 H484 0.950 . S
C491 C488 1.387 . S
C492 C493 1.387 . S
C492 H496 0.950 . S
C492 C501 1.390 1_554 S
C493 C492 1.387 . S
C493 C495 1.387 . S
H494 C501 0.950 . S
C495 C493 1.387 . S
C495 C497 1.390 1_554 S
C495 H499 0.950 . S
H496 C492 0.950 . S
C497 C495 1.390 1_556 S
C497 C498 1.387 . S
C497 H500 0.950 . S
C498 C497 1.387 . S
C498 C501 1.387 . S
H499 C495 0.950 . S
H500 C497 0.950 . S
C501 C492 1.390 1_556 S
C501 H494 0.950 . S
C501 C498 1.387 . S
C502 C503 1.387 . S
C502 H506 0.950 . S
C502 C511 1.390 . S
C503 C502 1.387 . S
C503 C505 1.387 . S
H504 C511 0.950 . S
C505 C503 1.387 . S
C505 C507 1.390 . S
C505 H509 0.950 . S
H506 C502 0.950 . S
C507 C505 1.390 . S
C507 C508 1.387 . S
C507 H510 0.950 . S
C508 C507 1.387 . S
C508 C511 1.387 . S
H509 C505 0.950 . S
H510 C507 0.950 . S
C511 C502 1.390 . S
C511 H504 0.950 . S
C511 C508 1.387 . S
C512 C513 1.387 . S
C512 H516 0.950 . S
C512 C521 1.390 . S
C513 C512 1.387 . S
C513 C515 1.387 . S
H514 C521 0.950 . S
C515 C513 1.387 . S
C515 C517 1.390 . S
C515 H519 0.950 . S
H516 C512 0.950 . S
C517 C515 1.390 . S
C517 C518 1.387 . S
C517 H520 0.950 . S
C518 C517 1.387 . S
C518 C521 1.387 . S
H519 C515 0.950 . S
H520 C517 0.950 . S
C521 C512 1.390 . S
C521 H514 0.950 . S
C521 C518 1.387 . S
C522 C523 1.387 . S
C522 H526 0.950 . S
C522 C531 1.390 . S
C523 C522 1.387 . S
C523 C525 1.387 . S
H524 C531 0.950 . S
C525 C523 1.387 . S
C525 C527 1.390 1_565 S
C525 H529 0.950 . S
H526 C522 0.950 . S
C527 C525 1.390 1_545 S
C527 C528 1.387 . S
C527 H530 0.950 . S
C528 C527 1.387 . S
C528 C531 1.387 1_545 S
H529 C525 0.950 . S
H530 C527 0.950 . S
C531 C522 1.390 . S
C531 H524 0.950 . S
C531 C528 1.387 1_565 S
C532 C533 1.387 . S
C532 H536 0.950 . S
C532 C541 1.390 . S
C533 C532 1.387 . S
C533 C535 1.387 . S
H534 C541 0.950 . S
C535 C533 1.387 . S
C535 C537 1.390 . S
C535 H539 0.950 . S
H536 C532 0.950 . S
C537 C535 1.390 . S
C537 C538 1.387 . S
C537 H540 0.950 . S
C538 C537 1.387 . S
C538 C541 1.387 . S
H539 C535 0.950 . S
H540 C537 0.950 . S
C541 C532 1.390 . S
C541 H534 0.950 . S
C541 C538 1.387 . S
C542 C543 1.387 . S
C542 H546 0.950 . S
C542 C551 1.390 . S
C543 C542 1.387 . S
C543 C545 1.387 . S
H544 C551 0.950 . S
C545 C543 1.387 . S
C545 C547 1.390 1_545 S
C545 H549 0.950 . S
H546 C542 0.950 . S
C547 C545 1.390 1_565 S
C547 C548 1.387 . S
C547 H550 0.950 . S
C548 C547 1.387 . S
C548 C551 1.387 1_565 S
H549 C545 0.950 . S
H550 C547 0.950 . S
C551 C542 1.390 . S
C551 H544 0.950 . S
C551 C548 1.387 1_545 S
C552 C553 1.387 . S
C552 H556 0.950 . S
C552 C561 1.390 1_655 S
C553 C552 1.387 . S
C553 C555 1.387 . S
H554 C561 0.950 . S
C555 C553 1.387 . S
C555 C557 1.390 1_655 S
C555 H559 0.950 . S
H556 C552 0.950 . S
C557 C555 1.390 1_455 S
C557 C558 1.387 . S
C557 H560 0.950 . S
C558 C557 1.387 . S
C558 C561 1.387 . S
H559 C555 0.950 . S
H560 C557 0.950 . S
C561 C552 1.390 1_455 S
C561 H554 0.950 . S
C561 C558 1.387 . S
C562 C563 1.387 . S
C562 H566 0.950 . S
C562 C571 1.390 . S
C563 C562 1.387 . S
C563 C565 1.387 . S
H564 C571 0.950 . S
C565 C563 1.387 . S
C565 C567 1.390 . S
C565 H569 0.950 . S
H566 C562 0.950 . S
C567 C565 1.390 . S
C567 C568 1.387 . S
C567 H570 0.950 . S
C568 C567 1.387 . S
C568 C571 1.387 . S
H569 C565 0.950 . S
H570 C567 0.950 . S
C571 C562 1.390 . S
C571 H564 0.950 . S
C571 C568 1.387 . S
C572 C573 1.387 . S
C572 H576 0.950 . S
C572 C581 1.390 1_455 S
C573 C572 1.387 . S
C573 C575 1.387 . S
H574 C581 0.950 . S
C575 C573 1.387 . S
C575 C577 1.390 1_455 S
C575 H579 0.950 . S
H576 C572 0.950 . S
C577 C575 1.390 1_655 S
C577 C578 1.387 . S
C577 H580 0.950 . S
C578 C577 1.387 . S
C578 C581 1.387 . S
H579 C575 0.950 . S
H580 C577 0.950 . S
C581 C572 1.390 1_655 S
C581 H574 0.950 . S
C581 C578 1.387 . S
C582 C583 1.387 . S
C582 H586 0.950 . S
C582 C591 1.390 . S
C583 C582 1.387 . S
C583 C585 1.387 . S
H584 C591 0.950 . S
C585 C583 1.387 . S
C585 C587 1.390 . S
C585 H589 0.950 . S
H586 C582 0.950 . S
C587 C585 1.390 . S
C587 C588 1.387 . S
C587 H590 0.950 . S
C588 C587 1.387 . S
C588 C591 1.387 . S
H589 C585 0.950 . S
H590 C587 0.950 . S
C591 C582 1.390 . S
C591 H584 0.950 . S
C591 C588 1.387 . S
C592 C593 1.387 . S
C592 H596 0.950 . S
C592 C601 1.390 1_655 S
C593 C592 1.387 . S
C593 C595 1.387 . S
H594 C601 0.950 . S
C595 C593 1.387 . S
C595 C597 1.390 1_655 S
C595 H599 0.950 . S
H596 C592 0.950 . S
C597 C595 1.390 1_455 S
C597 C598 1.387 . S
C597 H600 0.950 . S
C598 C597 1.387 . S
C598 C601 1.387 . S
H599 C595 0.950 . S
H600 C597 0.950 . S
C601 C592 1.390 1_455 S
C601 H594 0.950 . S
C601 C598 1.387 . S
C602 C603 1.387 . S
C602 H606 0.950 . S
C602 C611 1.390 1_655 S
C603 C602 1.387 . S
C603 C605 1.387 . S
H604 C611 0.950 . S
C605 C603 1.387 . S
C605 C607 1.390 1_655 S
C605 H609 0.950 . S
H606 C602 0.950 . S
C607 C605 1.390 1_455 S
C607 C608 1.387 . S
C607 H610 0.950 . S
C608 C607 1.387 . S
C608 C611 1.387 . S
H609 C605 0.950 . S
H610 C607 0.950 . S
C611 C602 1.390 1_455 S
C611 H604 0.950 . S
C611 C608 1.387 . S
C612 C613 1.387 . S
C612 H616 0.950 . S
C612 C621 1.390 1_545 S
C613 C612 1.387 . S
C613 C615 1.387 . S
H614 C621 0.950 . S
C615 C613 1.387 . S
C615 C617 1.390 1_545 S
C615 H619 0.950 . S
H616 C612 0.950 . S
C617 C615 1.390 1_565 S
C617 C618 1.387 . S
C617 H620 0.950 . S
C618 C617 1.387 . S
C618 C621 1.387 . S
H619 C615 0.950 . S
H620 C617 0.950 . S
C621 C612 1.390 1_565 S
C621 H614 0.950 . S
C621 C618 1.387 . S
C622 C623 1.387 . S
C622 H626 0.950 . S
C622 C631 1.390 1_545 S
C623 C622 1.387 . S
C623 C625 1.387 . S
H624 C631 0.950 . S
C625 C623 1.387 . S
C625 C627 1.390 1_545 S
C625 H629 0.950 . S
H626 C622 0.950 . S
C627 C625 1.390 1_565 S
C627 C628 1.387 . S
C627 H630 0.950 . S
C628 C627 1.387 . S
C628 C631 1.387 . S
H629 C625 0.950 . S
H630 C627 0.950 . S
C631 C622 1.390 1_565 S
C631 H624 0.950 . S
C631 C628 1.387 . S
C473 C3 1.480 . S
C478 C298 1.481 . S
C483 C62 1.481 . S
C488 C357 1.481 . S
C493 C121 1.480 . S
C498 C416 1.481 . S
C503 C239 1.482 . S
C508 C180 1.481 . S
C513 C5 1.619 . S
C518 C269 1.607 . S
C523 C64 1.619 . S
C528 C328 1.607 . S
C533 C387 1.608 . S
C538 C123 1.619 . S
C543 C182 1.619 . S
C548 C446 1.607 . S
C553 C241 1.619 . S
C558 C33 1.608 . S
C563 C92 1.607 . S
C568 C300 1.619 . S
C573 C359 1.619 . S
C578 C151 1.608 . S
C583 C210 1.607 . S
C588 C418 1.619 . S
C593 C170 1.068 . S
C598 C52 1.068 . S
C603 C229 1.063 . S
C608 C111 1.063 . S
C613 C288 1.063 . S
C618 C406 1.063 . S
C623 C347 1.063 . S
C628 C465 1.063 . S
