# Generated by pormake.
# Topology uoc, (4)-cn, num edge types: 1
# Building blocks:
#     Node 0, Type 0, BuildingBlock: NAHDIM_clean_sbu_0, # of connection points: 4
#     Node 1, Type 0, BuildingBlock: NAHDIM_clean_sbu_0, # of connection points: 4
#     Node 2, Type 0, BuildingBlock: NAHDIM_clean_sbu_0, # of connection points: 4
#     Node 3, Type 0, BuildingBlock: NAHDIM_clean_sbu_0, # of connection points: 4
#     Node 4, Type 0, BuildingBlock: NAHDIM_clean_sbu_0, # of connection points: 4
#     Node 5, Type 0, BuildingBlock: NAHDIM_clean_sbu_0, # of connection points: 4
#     Node 6, Type 0, BuildingBlock: NAHDIM_clean_sbu_0, # of connection points: 4
#     Node 7, Type 0, BuildingBlock: NAHDIM_clean_sbu_0, # of connection points: 4
#     Edge 8, Type (0, 0), BuildingBlock: ZUJKAS_clean_linker_0, # of connection points: 2
#     Edge 9, Type (0, 0), BuildingBlock: ZUJKAS_clean_linker_0, # of connection points: 2
#     Edge 10, Type (0, 0), BuildingBlock: ZUJKAS_clean_linker_0, # of connection points: 2
#     Edge 11, Type (0, 0), BuildingBlock: ZUJKAS_clean_linker_0, # of connection points: 2
#     Edge 12, Type (0, 0), BuildingBlock: ZUJKAS_clean_linker_0, # of connection points: 2
#     Edge 13, Type (0, 0), BuildingBlock: ZUJKAS_clean_linker_0, # of connection points: 2
#     Edge 14, Type (0, 0), BuildingBlock: ZUJKAS_clean_linker_0, # of connection points: 2
#     Edge 15, Type (0, 0), BuildingBlock: ZUJKAS_clean_linker_0, # of connection points: 2
#     Edge 16, Type (0, 0), BuildingBlock: ZUJKAS_clean_linker_0, # of connection points: 2
#     Edge 17, Type (0, 0), BuildingBlock: ZUJKAS_clean_linker_0, # of connection points: 2
#     Edge 18, Type (0, 0), BuildingBlock: ZUJKAS_clean_linker_0, # of connection points: 2
#     Edge 19, Type (0, 0), BuildingBlock: ZUJKAS_clean_linker_0, # of connection points: 2
#     Edge 20, Type (0, 0), BuildingBlock: ZUJKAS_clean_linker_0, # of connection points: 2
#     Edge 21, Type (0, 0), BuildingBlock: ZUJKAS_clean_linker_0, # of connection points: 2
#     Edge 22, Type (0, 0), BuildingBlock: ZUJKAS_clean_linker_0, # of connection points: 2
#     Edge 23, Type (0, 0), BuildingBlock: ZUJKAS_clean_linker_0, # of connection points: 2
# Relax obj value: 0.203
# Max RMSD: 0.200
# Mean RMSD: 0.200
data_MOF--net-uoc--node1-NAHDIM_clean_sbu_0--edge1-ZUJKAS_clean_linker_0
_symmetry_space_group_name_H-M    P1
_symmetry_Int_Tables_number       1
_symmetry_cell_setting            triclinic
loop_
_symmetry_equiv_pos_as_xyz
'x, y, z'
_cell_length_a     34.889094
_cell_length_b     34.895166
_cell_length_c     67.484309
_cell_angle_alpha  90.051662
_cell_angle_beta   89.980711
_cell_angle_gamma 93.978403
loop_
_atom_site_label
_atom_site_type_symbol
_atom_site_fract_x
_atom_site_fract_y
_atom_site_fract_z
_atom_type_partial_charge
C0 C 0.09626 0.32298 0.10298 0.0
O1 O 0.10627 0.30981 0.08563 0.0
O2 O 0.16951 0.25845 0.09462 0.0
Zn3 Zn 0.13526 0.25817 0.11842 0.0
O4 O 0.16696 0.25909 0.1432 0.0
C5 C 0.11358 0.17823 0.11427 0.0
O6 O 0.15066 0.1776 0.11107 0.0
O7 O 0.10503 0.30523 0.11859 0.0
C8 C 0.19779 0.24221 0.14544 0.0
O9 O 0.21102 0.22222 0.13076 0.0
C10 C 0.19536 0.28487 0.09082 0.0
O11 O 0.20065 0.31416 0.103 0.0
O12 O 0.09955 0.2102 0.11781 0.0
C13 C 0.8257 0.60452 0.36042 0.0
O14 O 0.82755 0.63728 0.35077 0.0
O15 O 0.75975 0.66579 0.39467 0.0
Zn16 Zn 0.75203 0.62966 0.37162 0.0
O17 O 0.75074 0.65964 0.34632 0.0
C18 C 0.67494 0.6107 0.38544 0.0
O19 O 0.68093 0.64394 0.39446 0.0
O20 O 0.79571 0.59475 0.37043 0.0
C21 C 0.72104 0.6746 0.33981 0.0
O22 O 0.68907 0.67133 0.35013 0.0
C23 C 0.79191 0.68118 0.40045 0.0
O24 O 0.82336 0.67406 0.39083 0.0
O25 O 0.70157 0.59823 0.37485 0.0
C26 C 0.39366 0.17014 0.62786 0.0
O27 O 0.36066 0.16939 0.63728 0.0
O28 O 0.33788 0.24158 0.59348 0.0
Zn29 Zn 0.37269 0.24573 0.61718 0.0
O30 O 0.341 0.2476 0.64185 0.0
C31 C 0.41272 0.31284 0.59944 0.0
O32 O 0.3977 0.2985 0.58296 0.0
O33 O 0.40507 0.20012 0.61824 0.0
C34 C 0.32853 0.27872 0.64818 0.0
O35 O 0.33585 0.31056 0.63808 0.0
C36 C 0.3212 0.21023 0.58739 0.0
O37 O 0.32601 0.17827 0.59705 0.0
O38 O 0.40661 0.29477 0.6156 0.0
C39 C 0.66665 0.91364 0.88576 0.0
O40 O 0.68384 0.90701 0.90261 0.0
O41 O 0.71998 0.83547 0.8953 0.0
Zn42 Zn 0.72581 0.86861 0.87109 0.0
O43 O 0.72711 0.83624 0.84654 0.0
C44 C 0.80332 0.89183 0.88277 0.0
O45 O 0.80012 0.85861 0.89197 0.0
O46 O 0.68016 0.90067 0.8698 0.0
C47 C 0.7553 0.81661 0.84218 0.0
O48 O 0.78484 0.81674 0.85424 0.0
C49 C 0.70828 0.80018 0.89567 0.0
O50 O 0.69951 0.78213 0.87902 0.0
O51 O 0.77485 0.90262 0.87298 0.0
C52 C 0.61701 0.84011 0.61743 0.0
O53 O 0.65398 0.84518 0.61371 0.0
O54 O 0.6677 0.77201 0.59128 0.0
Zn55 Zn 0.63632 0.76266 0.61598 0.0
O56 O 0.67008 0.76162 0.64 0.0
C57 C 0.61574 0.68573 0.60242 0.0
O58 O 0.64746 0.69204 0.59209 0.0
O59 O 0.60185 0.80609 0.61915 0.0
C60 C 0.68659 0.73211 0.64554 0.0
O61 O 0.68253 0.70048 0.63496 0.0
C62 C 0.70378 0.78002 0.59077 0.0
O63 O 0.72332 0.78276 0.6074 0.0
O64 O 0.6048 0.71211 0.61368 0.0
C65 C 0.3056 0.08812 0.88725 0.0
O66 O 0.28846 0.0943 0.90418 0.0
O67 O 0.25029 0.16928 0.89477 0.0
Zn68 Zn 0.24572 0.13259 0.8719 0.0
O69 O 0.24313 0.16091 0.84614 0.0
C70 C 0.1654 0.11374 0.8725 0.0
O71 O 0.16582 0.15037 0.86795 0.0
O72 O 0.29186 0.10112 0.87137 0.0
C73 C 0.2387 0.19661 0.84445 0.0
O74 O 0.23584 0.21772 0.86044 0.0
C75 C 0.28135 0.18845 0.89933 0.0
O76 O 0.31216 0.18518 0.88843 0.0
O77 O 0.19714 0.09865 0.8751 0.0
C78 C 0.90937 0.67497 0.12468 0.0
O79 O 0.89874 0.68566 0.1424 0.0
O80 O 0.83032 0.73723 0.08927 0.0
Zn81 Zn 0.86681 0.73898 0.11215 0.0
O82 O 0.83698 0.73476 0.13755 0.0
C83 C 0.88514 0.81973 0.1064 0.0
O84 O 0.84926 0.81822 0.10041 0.0
O85 O 0.89984 0.6941 0.10966 0.0
C86 C 0.80825 0.75409 0.14123 0.0
O87 O 0.79661 0.77797 0.12785 0.0
C88 C 0.81253 0.70593 0.08391 0.0
O89 O 0.8178 0.67428 0.09378 0.0
O90 O 0.89947 0.78898 0.11196 0.0
C91 C 0.15673 0.38226 0.36965 0.0
O92 O 0.15338 0.34561 0.37426 0.0
O93 O 0.22951 0.33629 0.39524 0.0
Zn94 Zn 0.23591 0.36721 0.37026 0.0
O95 O 0.2398 0.33265 0.34673 0.0
C96 C 0.30126 0.40979 0.38823 0.0
O97 O 0.28576 0.39626 0.40477 0.0
O98 O 0.19006 0.39853 0.36699 0.0
C99 C 0.27169 0.32 0.34169 0.0
O100 O 0.30242 0.32895 0.35243 0.0
C101 C 0.22171 0.30022 0.39612 0.0
O102 O 0.21734 0.28024 0.37968 0.0
O103 O 0.2845 0.40189 0.37186 0.0
H104 H 0.24707 0.3398 0.07524 0.0
H105 H 0.28004 0.3377 0.04312 0.0
H106 H 0.2264 0.22446 0.03249 0.0
H107 H 0.19395 0.22603 0.06435 0.0
H108 H 0.30619 0.23347 0.0225 0.0
H109 H 0.22047 0.34729 0.99024 0.0
H110 H 0.24719 0.35773 0.01264 0.0
H111 H 0.20654 0.32332 0.01308 0.0
C112 C 0.24263 0.31435 0.06611 0.0
C113 C 0.21761 0.28323 0.07224 0.0
C114 C 0.26138 0.31327 0.04778 0.0
C115 C 0.25532 0.28107 0.03542 0.0
C116 C 0.23146 0.24956 0.04185 0.0
H117 H 0.22181 0.20433 0.92331 0.0
H118 H 0.22504 0.2359 0.9555 0.0
C119 C 0.21278 0.2506 0.06004 0.0
C120 C 0.27158 0.28012 0.01521 0.0
H121 H 0.25401 0.31012 0.9682 0.0
C122 C 0.29577 0.25089 0.01061 0.0
C123 C 0.25778 0.30299 -0.00015 0.0
C124 C 0.23143 0.33456 0.00403 0.0
C125 C 0.30393 0.24174 0.99089 0.0
C126 C 0.28782 0.26283 0.97546 0.0
C127 C 0.26631 0.29414 0.98012 0.0
C128 C 0.28667 0.24832 0.95487 0.0
C129 C 0.32691 0.20754 0.98669 0.0
C130 C 0.32022 0.2457 0.94362 0.0
C131 C 0.3185 0.22738 0.92514 0.0
C132 C 0.28319 0.21151 0.91772 0.0
C133 C 0.24951 0.21592 0.92866 0.0
C134 C 0.25127 0.23416 0.94703 0.0
H135 H 0.33391 0.19189 0.0004 0.0
H136 H 0.31077 0.18721 0.97654 0.0
H137 H 0.35425 0.21734 0.97929 0.0
H138 H 0.34776 0.25689 0.94935 0.0
H139 H 0.34491 0.22462 0.91699 0.0
H140 H 0.66068 0.6995 0.31845 0.0
H141 H 0.66229 0.72364 0.2843 0.0
H142 H 0.78485 0.71439 0.28244 0.0
H143 H 0.78367 0.6906 0.31639 0.0
H144 H 0.75759 0.78395 0.26506 0.0
H145 H 0.68168 0.64816 0.23768 0.0
H146 H 0.65958 0.67404 0.2572 0.0
H147 H 0.70333 0.65153 0.26196 0.0
C148 C 0.68803 0.70307 0.31083 0.0
C149 C 0.722 0.69275 0.32003 0.0
C150 C 0.68884 0.71676 0.29134 0.0
C151 C 0.72362 0.72038 0.28087 0.0
C152 C 0.75773 0.71176 0.29032 0.0
H153 H 0.82037 0.70195 0.17015 0.0
H154 H 0.79193 0.69802 0.20316 0.0
C155 C 0.75695 0.698 0.3097 0.0
C156 C 0.72487 0.73042 0.25962 0.0
H157 H 0.70892 0.69065 0.2139 0.0
C158 C 0.74618 0.7641 0.25379 0.0
C159 C 0.71007 0.7042 0.24508 0.0
C160 C 0.6875 0.66731 0.25065 0.0
C161 C 0.7549 0.77125 0.23379 0.0
C162 C 0.74181 0.74402 0.21937 0.0
C163 C 0.71868 0.71145 0.22508 0.0
C164 C 0.75661 0.74589 0.19889 0.0
C165 C 0.78018 0.80647 0.22828 0.0
C166 C 0.74566 0.77386 0.18553 0.0
C167 C 0.76184 0.77617 0.16655 0.0
C168 C 0.78929 0.75063 0.16079 0.0
C169 C 0.79947 0.72219 0.17415 0.0
C170 C 0.78318 0.71979 0.19299 0.0
H171 H 0.79025 0.82334 0.24148 0.0
H172 H 0.80562 0.79803 0.21985 0.0
H173 H 0.76397 0.82524 0.21856 0.0
H174 H 0.72497 0.79406 0.18986 0.0
H175 H 0.75339 0.79835 0.15657 0.0
H176 H 0.28965 0.14755 0.56714 0.0
H177 H 0.25728 0.14727 0.53486 0.0
H178 H 0.26998 0.27104 0.53351 0.0
H179 H 0.30202 0.27172 0.56561 0.0
H180 H 0.19482 0.23553 0.52089 0.0
H181 H 0.32068 0.17616 0.48358 0.0
H182 H 0.2995 0.15105 0.50462 0.0
H183 H 0.32459 0.1972 0.508 0.0
C184 C 0.28516 0.17471 0.56005 0.0
C185 C 0.29873 0.20966 0.56883 0.0
C186 C 0.26675 0.17445 0.54163 0.0
C187 C 0.26161 0.20912 0.53181 0.0
C188 C 0.27371 0.244 0.54091 0.0
H189 H 0.22305 0.33451 0.43236 0.0
H190 H 0.22364 0.3038 0.46466 0.0
C191 C 0.29216 0.24431 0.55922 0.0
C192 C 0.24613 0.20979 0.51147 0.0
H193 H 0.27427 0.20143 0.46337 0.0
C194 C 0.21167 0.22727 0.50827 0.0
C195 C 0.26804 0.19858 0.49509 0.0
C196 C 0.30536 0.1798 0.49783 0.0
C197 C 0.19981 0.23617 0.48908 0.0
C198 C 0.2235 0.22809 0.47281 0.0
C199 C 0.25628 0.20774 0.4759 0.0
C200 C 0.21843 0.24573 0.45315 0.0
C201 C 0.16283 0.25554 0.48646 0.0
C202 C 0.21588 0.22327 0.43588 0.0
C203 C 0.21584 0.24085 0.41724 0.0
C204 C 0.21887 0.28115 0.41566 0.0
C205 C 0.22068 0.30342 0.43303 0.0
C206 C 0.22058 0.28589 0.45156 0.0
H207 H 0.14194 0.24687 0.49834 0.0
H208 H 0.16887 0.28713 0.48747 0.0
H209 H 0.14946 0.2486 0.47185 0.0
H210 H 0.21471 0.19222 0.43682 0.0
H211 H 0.21447 0.22293 0.40412 0.0
H212 H 0.69678 0.80656 0.81556 0.0
H213 H 0.69839 0.77668 0.783 0.0
H214 H 0.81549 0.7492 0.79289 0.0
H215 H 0.81431 0.77957 0.82565 0.0
H216 H 0.8057 0.78603 0.75748 0.0
H217 H 0.69589 0.6654 0.76494 0.0
H218 H 0.67783 0.70916 0.77376 0.0
H219 H 0.71791 0.68971 0.78615 0.0
C220 C 0.72277 0.79375 0.81098 0.0
C221 C 0.75547 0.79555 0.82318 0.0
C222 C 0.72351 0.77632 0.79241 0.0
C223 C 0.75683 0.76012 0.78568 0.0
C224 C 0.78937 0.7612 0.79793 0.0
H225 H 0.71528 0.6716 0.6652 0.0
H226 H 0.74302 0.67223 0.69859 0.0
C227 C 0.78863 0.77857 0.81661 0.0
C228 C 0.75829 0.74581 0.76508 0.0
H229 H 0.70472 0.69198 0.73168 0.0
C230 C 0.78431 0.7647 0.75188 0.0
C231 C 0.73102 0.71736 0.75783 0.0
C232 C 0.70439 0.69396 0.77149 0.0
C233 C 0.78125 0.75856 0.73139 0.0
C234 C 0.75104 0.73344 0.724 0.0
C235 C 0.7275 0.71175 0.73733 0.0
C236 C 0.73977 0.73338 0.70287 0.0
C237 C 0.80939 0.78026 0.71781 0.0
C238 C 0.72901 0.76755 0.69421 0.0
C239 C 0.71311 0.76728 0.67527 0.0
C240 C 0.70736 0.73274 0.66463 0.0
C241 C 0.71938 0.69868 0.67302 0.0
C242 C 0.73524 0.69897 0.69207 0.0
H243 H 0.83768 0.78603 0.72518 0.0
H244 H 0.81363 0.76419 0.70385 0.0
H245 H 0.7983 0.80839 0.71405 0.0
H246 H 0.7313 0.79426 0.70245 0.0
H247 H 0.7042 0.79402 0.66924 0.0
H248 H 0.21303 0.28964 0.3187 0.0
H249 H 0.21744 0.26277 0.28552 0.0
H250 H 0.34114 0.27601 0.28854 0.0
H251 H 0.337 0.30323 0.32191 0.0
H252 H 0.31097 0.31122 0.25606 0.0
H253 H 0.24823 0.16199 0.26158 0.0
H254 H 0.21857 0.19473 0.27379 0.0
H255 H 0.26633 0.1889 0.28291 0.0
C256 C 0.24122 0.28617 0.3125 0.0
C257 C 0.27466 0.29884 0.32285 0.0
C258 C 0.2437 0.2704 0.2936 0.0
C259 C 0.27963 0.2669 0.28469 0.0
C260 C 0.31317 0.27811 0.29527 0.0
H261 H 0.25357 0.19726 0.15912 0.0
H262 H 0.28389 0.19994 0.19203 0.0
C263 C 0.31072 0.29369 0.3143 0.0
C264 C 0.28136 0.25681 0.26344 0.0
H265 H 0.24066 0.19366 0.22966 0.0
C266 C 0.29663 0.28499 0.25027 0.0
C267 C 0.26315 0.2224 0.25589 0.0
C268 C 0.24852 0.19012 0.26932 0.0
C269 C 0.29081 0.28124 0.2298 0.0
C270 C 0.269 0.2487 0.22246 0.0
C271 C 0.257 0.21883 0.23541 0.0
C272 C 0.25325 0.24805 0.20216 0.0
C273 C 0.3061 0.31313 0.21628 0.0
C274 C 0.22595 0.27404 0.19718 0.0
C275 C 0.2084 0.27236 0.17864 0.0
C276 C 0.21792 0.24469 0.16468 0.0
C277 C 0.2458 0.219 0.16957 0.0
C278 C 0.2631 0.22044 0.1883 0.0
H279 H 0.33119 0.32973 0.22297 0.0
H280 H 0.31468 0.30162 0.20171 0.0
H281 H 0.28328 0.3332 0.21371 0.0
H282 H 0.21755 0.29516 0.20783 0.0
H283 H 0.18711 0.2926 0.17533 0.0
H284 H 0.78133 0.78632 0.58341 0.0
H285 H 0.81302 0.78715 0.55093 0.0
H286 H 0.70235 0.78301 0.52224 0.0
H287 H 0.67068 0.78255 0.55434 0.0
H288 H 0.80281 0.72885 0.52391 0.0
H289 H 0.7628 0.86359 0.48949 0.0
H290 H 0.75991 0.85548 0.51592 0.0
H291 H 0.72138 0.83772 0.49987 0.0
C292 C 0.76384 0.78632 0.57016 0.0
C293 C 0.7235 0.78418 0.57143 0.0
C294 C 0.78198 0.78688 0.55165 0.0
C295 C 0.76007 0.78587 0.53419 0.0
C296 C 0.71989 0.78488 0.53549 0.0
H297 H 0.73187 0.70518 0.42182 0.0
H298 H 0.73422 0.73794 0.45373 0.0
C299 C 0.70179 0.78417 0.5539 0.0
C300 C 0.77812 0.78076 0.51462 0.0
H301 H 0.77259 0.81055 0.46666 0.0
C302 C 0.7974 0.74732 0.51144 0.0
C303 C 0.77122 0.80505 0.49844 0.0
C304 C 0.75305 0.84268 0.50116 0.0
C305 C 0.80645 0.73551 0.49223 0.0
C306 C 0.79629 0.75808 0.47591 0.0
C307 C 0.78006 0.79319 0.47922 0.0
C308 C 0.79628 0.74263 0.45553 0.0
C309 C 0.8238 0.69744 0.48942 0.0
C310 C 0.83052 0.73527 0.44578 0.0
C311 C 0.82929 0.71636 0.42747 0.0
C312 C 0.79379 0.70455 0.41873 0.0
C313 C 0.75968 0.71358 0.4282 0.0
C314 C 0.76095 0.73248 0.4464 0.0
H315 H 0.82647 0.6817 0.5036 0.0
H316 H 0.80601 0.67901 0.47905 0.0
H317 H 0.85288 0.70232 0.48284 0.0
H318 H 0.85805 0.74327 0.45256 0.0
H319 H 0.85607 0.71 0.42047 0.0
H320 H 0.30767 0.34138 0.66911 0.0
H321 H 0.27989 0.34178 0.70251 0.0
H322 H 0.27695 0.21808 0.70414 0.0
H323 H 0.30436 0.21728 0.67091 0.0
H324 H 0.20842 0.25263 0.71929 0.0
H325 H 0.34648 0.3146 0.75148 0.0
H326 H 0.32569 0.33927 0.73115 0.0
H327 H 0.34429 0.29326 0.7271 0.0
C328 C 0.30069 0.31425 0.6765 0.0
C329 C 0.30856 0.2793 0.66747 0.0
C330 C 0.28493 0.31458 0.69557 0.0
C331 C 0.27679 0.27998 0.70577 0.0
C332 C 0.2831 0.24507 0.69645 0.0
H333 H 0.23466 0.15938 0.80899 0.0
H334 H 0.23671 0.18756 0.77601 0.0
C335 C 0.29891 0.24469 0.6775 0.0
C336 C 0.26404 0.27949 0.72663 0.0
H337 H 0.29922 0.29033 0.77359 0.0
C338 C 0.22788 0.26162 0.73121 0.0
C339 C 0.28944 0.29157 0.74209 0.0
C340 C 0.32876 0.31063 0.73787 0.0
C341 C 0.21735 0.25341 0.75088 0.0
C342 C 0.244 0.26267 0.76621 0.0
C343 C 0.27894 0.28317 0.76175 0.0
C344 C 0.23883 0.24642 0.78633 0.0
C345 C 0.17837 0.23359 0.755 0.0
C346 C 0.23996 0.27023 0.80311 0.0
C347 C 0.23899 0.25414 0.82211 0.0
C348 C 0.23747 0.21402 0.82454 0.0
C349 C 0.23586 0.19038 0.80765 0.0
C350 C 0.23661 0.20643 0.78876 0.0
H351 H 0.15722 0.24067 0.74349 0.0
H352 H 0.18063 0.20203 0.75473 0.0
H353 H 0.16739 0.24171 0.76975 0.0
H354 H 0.24217 0.30119 0.8015 0.0
H355 H 0.24035 0.27309 0.83484 0.0
H356 H 0.77943 0.64278 0.06463 0.0
H357 H 0.74487 0.64178 0.03294 0.0
H358 H 0.75722 0.76553 0.03087 0.0
H359 H 0.79137 0.76691 0.06239 0.0
H360 H 0.68177 0.73017 0.01937 0.0
H361 H 0.80533 0.66917 0.98073 0.0
H362 H 0.78479 0.64455 0.00207 0.0
H363 H 0.81061 0.69045 0.00505 0.0
C364 C 0.77436 0.66977 0.05752 0.0
C365 C 0.7885 0.70493 0.06588 0.0
C366 C 0.7547 0.66911 0.03944 0.0
C367 C 0.7489 0.70356 0.02956 0.0
C368 C 0.76146 0.73864 0.03832 0.0
H369 H 0.71243 0.83211 0.93239 0.0
H370 H 0.71239 0.79933 0.96415 0.0
C371 C 0.78114 0.73936 0.05628 0.0
C372 C 0.73241 0.70387 0.00942 0.0
H373 H 0.75895 0.69583 0.96105 0.0
C374 C 0.69807 0.72176 0.00658 0.0
C375 C 0.75357 0.69246 0.99281 0.0
C376 C 0.79072 0.67318 -0.00486 0.0
C377 C 0.68584 0.7312 0.98753 0.0
C378 C 0.70899 0.72316 0.97105 0.0
C379 C 0.7414 0.7021 0.97376 0.0
C380 C 0.70424 0.74213 0.95172 0.0
C381 C 0.64927 0.75143 0.98529 0.0
C382 C 0.70023 0.72079 0.93411 0.0
C383 C 0.70043 0.73957 0.91578 0.0
C384 C 0.70532 0.77988 0.91485 0.0
C385 C 0.7087 0.80103 0.93257 0.0
C386 C 0.70822 0.78234 0.95078 0.0
H387 H 0.62853 0.74295 -0.00273 0.0
H388 H 0.65601 0.78291 0.98642 0.0
H389 H 0.63544 0.74506 0.97073 0.0
H390 H 0.69768 0.68968 0.93456 0.0
H391 H 0.69785 0.72253 0.90236 0.0
H392 H 0.13615 0.10501 0.11257 0.0
H393 H 0.0953 0.04518 0.1115 0.0
H394 H 0.99428 0.1095 0.11356 0.0
H395 H 0.0349 0.16972 0.11479 0.0
H396 H 0.03091 0.02267 0.14171 0.0
H397 H 0.98604 0.03387 0.0628 0.0
H398 H 0.02998 0.05789 0.07206 0.0
H399 H 0.9846 0.07578 0.07833 0.0
C400 C 0.10524 0.10652 0.11278 0.0
C401 C 0.08874 0.14213 0.11373 0.0
C402 C 0.08201 0.0723 0.1122 0.0
C403 C 0.04193 0.0731 0.11233 0.0
C404 C 0.02524 0.10847 0.11332 0.0
H405 H 0.86065 0.89121 0.09958 0.0
H406 H 0.89816 0.95287 0.10174 0.0
C407 C 0.04847 0.14276 0.11407 0.0
C408 C 0.01766 0.03675 0.11157 0.0
H409 H 0.96066 0.98013 0.08076 0.0
C410 C 0.01546 0.01327 0.12843 0.0
C411 C 0.99751 0.02494 0.09423 0.0
C412 C -0.00042 0.04919 0.07572 0.0
C413 C 0.99332 0.97812 0.12844 0.0
C414 C 0.9738 0.96578 0.11093 0.0
C415 C 0.97576 0.98957 0.09413 0.0
C416 C 0.95126 0.92824 0.10969 0.0
C417 C 0.99047 0.95496 0.14733 0.0
C418 C 0.96881 0.89386 0.11316 0.0
C419 C 0.9474 0.85856 0.11206 0.0
C420 C 0.90813 0.85697 0.10722 0.0
C421 C 0.89082 0.89141 0.10337 0.0
C422 C 0.91221 0.9267 0.10459 0.0
H423 H 0.99736 0.97316 0.16054 0.0
H424 H 0.96126 0.94068 0.14922 0.0
H425 H 0.01138 0.93243 0.14676 0.0
H426 H 0.99915 0.89431 0.11661 0.0
H427 H 0.96166 0.83253 0.11495 0.0
H428 H 0.15267 0.45649 0.35713 0.0
H429 H 0.09531 0.49298 0.35492 0.0
H430 H 0.02551 0.39466 0.37604 0.0
H431 H 0.08253 0.35787 0.37828 0.0
H432 H 0.02324 0.47053 0.33261 0.0
H433 H 0.00314 0.48672 0.41393 0.0
H434 H 0.04849 0.47577 0.40313 0.0
H435 H 0.01004 0.43906 0.40505 0.0
C436 C 0.12513 0.44261 0.36131 0.0
C437 C 0.12217 0.40432 0.36796 0.0
C438 C 0.09244 0.46348 0.36 0.0
C439 C 0.05639 0.44655 0.3655 0.0
C440 C 0.05323 0.40829 0.37194 0.0
H441 H 0.82973 0.53276 0.37634 0.0
H442 H 0.88507 0.49334 0.37651 0.0
C443 C 0.08582 0.38731 0.37315 0.0
C444 C 0.02198 0.46888 0.36447 0.0
H445 H 0.95529 0.50954 0.3932 0.0
C446 C 0.00834 0.47918 0.34582 0.0
C447 C 0.00267 0.4798 0.38176 0.0
C448 C 0.01683 0.47009 0.40215 0.0
C449 C 0.97541 0.49984 0.34397 0.0
C450 C 0.9563 0.51123 0.36129 0.0
C451 C 0.96996 0.50075 0.37995 0.0
C452 C 0.92243 0.53458 0.36047 0.0
C453 C 0.96096 0.50851 0.3235 0.0
C454 C 0.92517 0.57094 0.35151 0.0
C455 C 0.89356 0.5934 0.35127 0.0
C456 C 0.85873 0.58014 0.36022 0.0
C457 C 0.85612 0.54378 0.36929 0.0
C458 C 0.88771 0.52123 0.36941 0.0
H459 H 0.97149 0.48842 0.31227 0.0
H460 H 0.92908 0.50676 0.32304 0.0
H461 H 0.97164 0.53805 0.31924 0.0
H462 H 0.95196 0.58224 0.34497 0.0
H463 H 0.89665 0.6214 0.34431 0.0
H464 H 0.44596 0.35129 0.63106 0.0
H465 H 0.47992 0.41497 0.63119 0.0
H466 H 0.46368 0.42357 0.56805 0.0
H467 H 0.42929 0.36004 0.56777 0.0
H468 H 0.54634 0.4413 0.61059 0.0
H469 H 0.42099 0.52236 0.58967 0.0
H470 H 0.4161 0.47321 0.59816 0.0
H471 H 0.43057 0.48386 0.57309 0.0
C472 C 0.44962 0.36667 0.61718 0.0
C473 C 0.43474 0.35065 0.59941 0.0
C474 C 0.46903 0.40305 0.6173 0.0
C475 C 0.47376 0.42417 0.59969 0.0
C476 C 0.45965 0.40801 0.58186 0.0
H477 H 0.63147 0.6238 0.57979 0.0
H478 H 0.59686 0.56049 0.57911 0.0
C479 C 0.44022 0.37161 0.58172 0.0
C480 C 0.49382 0.46296 0.6 0.0
H481 H 0.4817 0.55749 0.59061 0.0
C482 C 0.53224 0.46674 0.60625 0.0
C483 C 0.47512 0.49609 0.59458 0.0
C484 C 0.43332 0.4939 0.58867 0.0
C485 C 0.55271 0.50277 0.60696 0.0
C486 C 0.53436 0.53576 0.60098 0.0
C487 C 0.49575 0.53207 0.59501 0.0
C488 C 0.55468 0.57444 0.601 0.0
C489 C 0.59358 0.50531 0.61442 0.0
C490 C 0.54172 0.60359 0.6131 0.0
C491 C 0.56129 0.63993 0.61344 0.0
C492 C 0.59408 0.64776 0.6016 0.0
C493 C 0.60648 0.61867 0.58919 0.0
C494 C 0.58688 0.58239 0.58886 0.0
H495 H 0.60002 0.47942 0.62305 0.0
H496 H 0.61351 0.50764 0.60159 0.0
H497 H 0.59939 0.53108 0.6239 0.0
H498 H 0.51677 0.59805 0.6225 0.0
H499 H 0.55093 0.66172 0.62313 0.0
H500 H 0.62481 0.93361 0.85352 0.0
H501 H 0.56408 0.96473 0.85343 0.0
H502 H 0.56602 0.96939 0.91729 0.0
H503 H 0.62698 0.939 0.91753 0.0
H504 H 0.49536 0.93828 0.87033 0.0
H505 H 0.54555 0.07906 0.9027 0.0
H506 H 0.57825 0.04555 0.89326 0.0
H507 H 0.55736 0.03883 0.91749 0.0
C508 C 0.61252 0.94161 0.86754 0.0
C509 C 0.63082 0.93397 0.88554 0.0
C510 C 0.5778 0.95933 0.86745 0.0
C511 C 0.56084 0.96985 0.88533 0.0
C512 C 0.57904 0.96231 0.9033 0.0
H513 H 0.34641 0.06303 0.9187 0.0
H514 H 0.40774 0.033 0.91785 0.0
C515 C 0.61381 0.94473 0.90341 0.0
C516 C 0.52326 0.98719 0.88523 0.0
H517 H 0.47783 0.06567 0.90041 0.0
C518 C 0.49155 0.96625 0.87677 0.0
C519 C 0.51842 0.02366 0.89368 0.0
C520 C 0.55176 0.04828 0.90213 0.0
C521 C 0.45491 0.98047 0.8769 0.0
C522 C 0.45003 0.01673 0.88552 0.0
C523 C 0.48172 0.03776 0.8939 0.0
C524 C 0.41228 0.03357 0.88589 0.0
C525 C 0.42153 0.95629 0.86819 0.0
C526 C 0.39468 0.04387 0.86818 0.0
C527 C 0.3597 0.06106 0.8686 0.0
C528 C 0.34175 0.06833 0.88676 0.0
C529 C 0.35939 0.0577 0.90447 0.0
C530 C 0.39445 0.04063 0.90403 0.0
H531 H 0.42828 0.92585 0.86628 0.0
H532 H 0.39566 0.95726 0.87772 0.0
H533 H 0.41449 0.96782 0.85341 0.0
H534 H 0.40833 0.03918 0.85405 0.0
H535 H 0.34696 0.06903 0.85469 0.0
H536 H 0.93475 0.64442 0.09009 0.0
H537 H 0.96623 0.58445 0.08581 0.0
H538 H 0.96277 0.56602 0.14898 0.0
H539 H 0.93101 0.62572 0.15343 0.0
H540 H 0.03606 0.56204 0.1023 0.0
H541 H 0.91092 0.46593 0.126 0.0
H542 H 0.90675 0.51561 0.11942 0.0
H543 H 0.92496 0.5034 0.14334 0.0
C544 C 0.94073 0.62767 0.10309 0.0
C545 C 0.93016 0.63975 0.1221 0.0
C546 C 0.95872 0.59343 0.1006 0.0
C547 C 0.96622 0.57056 0.11704 0.0
C548 C 0.95653 0.58293 0.13607 0.0
H549 H 0.07053 0.35686 0.13652 0.0
H550 H 0.03927 0.41718 0.13915 0.0
C551 C 0.93859 0.61718 0.13858 0.0
C552 C 0.98437 0.53383 0.11431 0.0
H553 H 0.96991 0.43706 0.12144 0.0
C554 C 0.02158 0.53466 0.10636 0.0
C555 C 0.96528 0.49823 0.11961 0.0
C556 C 0.92463 0.49551 0.1274 0.0
C557 C 0.04066 0.50082 0.10403 0.0
C558 C 0.02169 0.46526 0.1095 0.0
C559 C 0.98435 0.46441 0.11729 0.0
C560 C 0.04037 0.42862 0.10765 0.0
C561 C 0.08131 0.50348 0.09625 0.0
C562 C 0.05081 0.41481 0.08901 0.0
C563 C 0.06868 0.38028 0.08744 0.0
C564 C 0.07627 0.35892 0.10449 0.0
C565 C 0.06521 0.37262 0.1231 0.0
C566 C 0.04732 0.40708 0.12464 0.0
H567 H 0.09469 0.53327 0.09706 0.0
H568 H 0.0994 0.48424 0.10468 0.0
H569 H 0.08113 0.49431 0.0805 0.0
H570 H 0.04504 0.4307 0.07569 0.0
H571 H 0.07669 0.37047 0.07288 0.0
H572 H 0.34576 0.42974 0.42048 0.0
H573 H 0.40888 0.46496 0.42081 0.0
H574 H 0.40534 0.47503 0.35717 0.0
H575 H 0.34209 0.44021 0.35667 0.0
H576 H 0.47615 0.44464 0.40178 0.0
H577 H 0.43196 0.58586 0.37575 0.0
H578 H 0.39801 0.54863 0.38491 0.0
H579 H 0.41642 0.54612 0.3601 0.0
C580 C 0.35824 0.4397 0.40656 0.0
C581 C 0.3388 0.43231 0.38855 0.0
C582 C 0.39434 0.45974 0.40678 0.0
C583 C 0.41152 0.47296 0.38904 0.0
C584 C 0.39223 0.46568 0.37105 0.0
H585 H 0.65136 0.54296 0.36718 0.0
H586 H 0.58774 0.50885 0.36872 0.0
C587 C 0.35615 0.44563 0.3708 0.0
C588 C 0.45017 0.49335 0.3893 0.0
H589 H 0.49905 0.57817 0.37712 0.0
C590 C 0.48119 0.47389 0.39647 0.0
C591 C 0.4565 0.53162 0.38255 0.0
C592 C 0.42394 0.55449 0.37556 0.0
C593 C 0.51861 0.49149 0.39675 0.0
C594 C 0.52512 0.52933 0.38942 0.0
C595 C 0.49398 0.54902 0.38257 0.0
C596 C 0.56398 0.54927 0.38888 0.0
C597 C 0.55072 0.46965 0.40515 0.0
C598 C 0.57149 0.58359 0.39944 0.0
C599 C 0.6077 0.60325 0.39851 0.0
C600 C 0.63705 0.58904 0.3869 0.0
C601 C 0.62946 0.55456 0.37635 0.0
C602 C 0.59318 0.53492 0.37729 0.0
H603 H 0.53962 0.44537 0.41465 0.0
H604 H 0.56713 0.45766 0.39278 0.0
H605 H 0.57083 0.48885 0.41401 0.0
H606 H 0.54927 0.5952 0.40841 0.0
H607 H 0.61254 0.62974 0.40679 0.0
H608 H 0.46559 0.1638 0.61254 0.0
H609 H 0.50252 0.10663 0.61197 0.0
H610 H 0.41054 0.04221 0.64244 0.0
H611 H 0.37337 0.09914 0.64316 0.0
H612 H 0.52317 0.05972 0.64704 0.0
H613 H 0.43304 0.97964 0.59054 0.0
H614 H 0.43336 0.03115 0.59339 0.0
H615 H 0.40833 8e-05 0.61099 0.0
C616 C 0.45319 0.13749 0.61914 0.0
C617 C 0.41648 0.13597 0.62784 0.0
C618 C 0.47435 0.10492 0.61881 0.0
C619 C 0.45901 0.07026 0.62699 0.0
C620 C 0.42261 0.06868 0.63586 0.0
H621 H 0.54181 0.84061 0.62905 0.0
H622 H 0.5035 0.89641 0.63257 0.0
C623 C 0.40151 0.10127 0.63631 0.0
C624 C 0.48122 0.03576 0.62631 0.0
H625 H 0.48371 0.94761 0.60463 0.0
C626 C 0.51465 0.03516 0.63779 0.0
C627 C 0.46969 0.0038 0.61432 0.0
C628 C 0.43429 0.00352 0.60147 0.0
C629 C 0.53689 0.00316 0.63769 0.0
C630 C 0.52585 0.97144 0.62536 0.0
C631 C 0.49213 0.97196 0.61405 0.0
C632 C 0.54932 0.93779 0.62363 0.0
C633 C 0.57157 0.0034 0.65106 0.0
C634 C 0.58761 0.94251 0.6172 0.0
C635 C 0.6096 0.91077 0.61531 0.0
C636 C 0.59356 0.8736 0.61954 0.0
C637 C 0.55502 0.86887 0.6257 0.0
C638 C 0.5331 0.9007 0.62772 0.0
H639 H 0.56929 0.0237 0.66363 0.0
H640 H 0.57541 0.97433 0.65711 0.0
H641 H 0.59764 0.0128 0.64245 0.0
H642 H 0.6004 0.97073 0.61345 0.0
H643 H 0.63909 0.91539 0.61035 0.0
H644 H 0.87176 0.8728 0.89828 0.0
H645 H 0.93328 0.91095 0.89775 0.0
H646 H 0.88018 0.00211 0.86738 0.0
H647 H 0.81844 0.9642 0.86779 0.0
H648 H 0.97201 0.94119 0.86187 0.0
H649 H 0.93814 0.05461 0.91582 0.0
H650 H 0.91125 0.0085 0.91467 0.0
H651 H 0.90346 0.04457 0.89645 0.0
C652 C 0.87304 0.90107 0.8916 0.0
C653 C 0.84018 0.9155 0.88309 0.0
C654 C 0.90823 0.92277 0.8913 0.0
C655 C 0.91108 0.9594 0.8827 0.0
C656 C 0.87836 0.97406 0.87432 0.0
H657 H 0.09368 0.13558 0.86386 0.0
H658 H 0.03268 0.09708 0.86637 0.0
C659 C 0.84318 0.95229 0.8745 0.0
C660 C 0.94865 0.98169 0.88182 0.0
H661 H 0.99721 0.06353 0.89864 0.0
C662 C 0.97769 0.96785 0.86997 0.0
C663 C 0.95571 0.01646 0.89235 0.0
C664 C 0.92567 0.03193 0.90568 0.0
C665 C 0.01353 0.98837 0.86801 0.0
C666 C 0.02071 0.02316 0.8786 0.0
C667 C 0.99165 0.03684 0.89055 0.0
C668 C 0.05793 0.0462 0.87721 0.0
C669 C 0.04289 0.97318 0.85415 0.0
C670 C 0.09235 0.03052 0.88271 0.0
C671 C 0.12735 0.05238 0.88115 0.0
C672 C 0.12846 0.09049 0.87431 0.0
C673 C 0.09385 0.10631 0.86916 0.0
C674 C 0.05894 0.08436 0.8706 0.0
H675 H 0.0294 0.95249 0.84326 0.0
H676 H 0.05863 0.99692 0.84593 0.0
H677 H 0.06404 0.95794 0.8629 0.0
H678 H 0.09213 0.00143 0.8883 0.0
H679 H 0.15347 0.03947 0.88541 0.0
loop_
_geom_bond_atom_site_label_1
_geom_bond_atom_site_label_2
_geom_bond_distance
_geom_bond_site_symmetry_2
_ccdc_geom_bond_type
C0 O1 1.160 . S
C0 O7 1.185 . S
O1 C0 1.160 . S
O2 Zn3 1.899 . S
O2 C10 1.284 . S
Zn3 O2 1.899 . S
Zn3 O4 2.032 . S
Zn3 O7 2.086 . S
Zn3 O12 1.977 . S
O4 Zn3 2.032 . S
O4 C8 1.278 . S
C5 O6 1.203 . S
C5 O12 1.267 . S
O6 C5 1.203 . S
O7 C0 1.185 . S
O7 Zn3 2.086 . S
C8 O4 1.278 . S
C8 O9 1.211 . S
O9 C8 1.211 . S
C10 O2 1.284 . S
C10 O11 1.273 . S
O11 C10 1.273 . S
O12 Zn3 1.977 . S
O12 C5 1.267 . S
C13 O14 1.160 . S
C13 O20 1.185 . S
O14 C13 1.160 . S
O15 Zn16 1.899 . S
O15 C23 1.284 . S
Zn16 O15 1.899 . S
Zn16 O17 2.032 . S
Zn16 O20 2.086 . S
Zn16 O25 1.977 . S
O17 Zn16 2.032 . S
O17 C21 1.278 . S
C18 O19 1.203 . S
C18 O25 1.267 . S
O19 C18 1.203 . S
O20 C13 1.185 . S
O20 Zn16 2.086 . S
C21 O17 1.278 . S
C21 O22 1.211 . S
O22 C21 1.211 . S
C23 O15 1.284 . S
C23 O24 1.273 . S
O24 C23 1.273 . S
O25 Zn16 1.977 . S
O25 C18 1.267 . S
C26 O27 1.160 . S
C26 O33 1.185 . S
O27 C26 1.160 . S
O28 Zn29 1.899 . S
O28 C36 1.284 . S
Zn29 O28 1.899 . S
Zn29 O30 2.032 . S
Zn29 O33 2.086 . S
Zn29 O38 1.977 . S
O30 Zn29 2.032 . S
O30 C34 1.278 . S
C31 O32 1.203 . S
C31 O38 1.267 . S
O32 C31 1.203 . S
O33 C26 1.185 . S
O33 Zn29 2.086 . S
C34 O30 1.278 . S
C34 O35 1.211 . S
O35 C34 1.211 . S
C36 O28 1.284 . S
C36 O37 1.273 . S
O37 C36 1.273 . S
O38 Zn29 1.977 . S
O38 C31 1.267 . S
C39 O40 1.160 . S
C39 O46 1.185 . S
O40 C39 1.160 . S
O41 Zn42 1.899 . S
O41 C49 1.284 . S
Zn42 O41 1.899 . S
Zn42 O43 2.032 . S
Zn42 O46 2.086 . S
Zn42 O51 1.977 . S
O43 Zn42 2.032 . S
O43 C47 1.278 . S
C44 O45 1.203 . S
C44 O51 1.267 . S
O45 C44 1.203 . S
O46 C39 1.185 . S
O46 Zn42 2.086 . S
C47 O43 1.278 . S
C47 O48 1.211 . S
O48 C47 1.211 . S
C49 O41 1.284 . S
C49 O50 1.273 . S
O50 C49 1.273 . S
O51 Zn42 1.977 . S
O51 C44 1.267 . S
C52 O53 1.160 . S
C52 O59 1.185 . S
O53 C52 1.160 . S
O54 Zn55 1.899 . S
O54 C62 1.284 . S
Zn55 O54 1.899 . S
Zn55 O56 2.032 . S
Zn55 O59 2.086 . S
Zn55 O64 1.977 . S
O56 Zn55 2.032 . S
O56 C60 1.278 . S
C57 O58 1.203 . S
C57 O64 1.267 . S
O58 C57 1.203 . S
O59 C52 1.185 . S
O59 Zn55 2.086 . S
C60 O56 1.278 . S
C60 O61 1.211 . S
O61 C60 1.211 . S
C62 O54 1.284 . S
C62 O63 1.273 . S
O63 C62 1.273 . S
O64 Zn55 1.977 . S
O64 C57 1.267 . S
C65 O66 1.160 . S
C65 O72 1.185 . S
O66 C65 1.160 . S
O67 Zn68 1.899 . S
O67 C75 1.284 . S
Zn68 O67 1.899 . S
Zn68 O69 2.032 . S
Zn68 O72 2.086 . S
Zn68 O77 1.977 . S
O69 Zn68 2.032 . S
O69 C73 1.278 . S
C70 O71 1.203 . S
C70 O77 1.267 . S
O71 C70 1.203 . S
O72 C65 1.185 . S
O72 Zn68 2.086 . S
C73 O69 1.278 . S
C73 O74 1.211 . S
O74 C73 1.211 . S
C75 O67 1.284 . S
C75 O76 1.273 . S
O76 C75 1.273 . S
O77 Zn68 1.977 . S
O77 C70 1.267 . S
C78 O79 1.160 . S
C78 O85 1.185 . S
O79 C78 1.160 . S
O80 Zn81 1.899 . S
O80 C88 1.284 . S
Zn81 O80 1.899 . S
Zn81 O82 2.032 . S
Zn81 O85 2.086 . S
Zn81 O90 1.977 . S
O82 Zn81 2.032 . S
O82 C86 1.278 . S
C83 O84 1.203 . S
C83 O90 1.267 . S
O84 C83 1.203 . S
O85 C78 1.185 . S
O85 Zn81 2.086 . S
C86 O82 1.278 . S
C86 O87 1.211 . S
O87 C86 1.211 . S
C88 O80 1.284 . S
C88 O89 1.273 . S
O89 C88 1.273 . S
O90 Zn81 1.977 . S
O90 C83 1.267 . S
C91 O92 1.160 . S
C91 O98 1.185 . S
O92 C91 1.160 . S
O93 Zn94 1.899 . S
O93 C101 1.284 . S
Zn94 O93 1.899 . S
Zn94 O95 2.032 . S
Zn94 O98 2.086 . S
Zn94 O103 1.977 . S
O95 Zn94 2.032 . S
O95 C99 1.278 . S
C96 O97 1.203 . S
C96 O103 1.267 . S
O97 C96 1.203 . S
O98 C91 1.185 . S
O98 Zn94 2.086 . S
C99 O95 1.278 . S
C99 O100 1.211 . S
O100 C99 1.211 . S
C101 O93 1.284 . S
C101 O102 1.273 . S
O102 C101 1.273 . S
O103 Zn94 1.977 . S
O103 C96 1.267 . S
H104 C112 0.929 . S
H105 C114 0.930 . S
H106 C116 0.930 . S
H107 C119 0.929 . S
H108 C122 0.930 . S
H109 C124 0.962 1_556 S
H110 C124 0.960 . S
H111 C124 0.960 . S
C112 H104 0.929 . S
C112 C113 1.377 . S
C112 C114 1.384 . S
C113 C112 1.377 . S
C113 C119 1.390 . S
C114 H105 0.930 . S
C114 C112 1.384 . S
C114 C115 1.372 . S
C115 C114 1.372 . S
C115 C116 1.400 . S
C115 C120 1.490 . S
C116 H106 0.930 . S
C116 C115 1.400 . S
C116 C119 1.386 . S
H117 C133 0.930 . S
H118 C134 0.931 . S
C119 H107 0.929 . S
C119 C113 1.390 . S
C119 C116 1.386 . S
C120 C115 1.490 . S
C120 C122 1.395 . S
C120 C123 1.403 . S
H121 C127 0.930 . S
C122 H108 0.930 . S
C122 C120 1.395 . S
C122 C125 1.403 1_554 S
C123 C120 1.403 . S
C123 C124 1.524 . S
C123 C127 1.400 1_554 S
C124 H109 0.962 1_554 S
C124 H110 0.960 . S
C124 H111 0.960 . S
C124 C123 1.524 . S
C125 C122 1.403 1_556 S
C125 C126 1.392 . S
C125 C129 1.495 . S
C126 C125 1.392 . S
C126 C127 1.385 . S
C126 C128 1.478 . S
C127 H121 0.930 . S
C127 C123 1.400 1_556 S
C127 C126 1.385 . S
C128 C126 1.478 . S
C128 C130 1.381 . S
C128 C134 1.383 . S
C129 C125 1.495 . S
C129 H135 0.951 1_556 S
C129 H136 0.961 . S
C129 H137 0.960 . S
C130 C128 1.381 . S
C130 C131 1.394 . S
C130 H138 0.930 . S
C131 C130 1.394 . S
C131 C132 1.383 . S
C131 H139 0.929 . S
C132 C131 1.383 . S
C132 C133 1.377 . S
C133 H117 0.930 . S
C133 C132 1.377 . S
C133 C134 1.379 . S
C134 H118 0.931 . S
C134 C128 1.383 . S
C134 C133 1.379 . S
H135 C129 0.951 1_554 S
H136 C129 0.961 . S
H137 C129 0.960 . S
H138 C130 0.930 . S
H139 C131 0.929 . S
H140 C148 0.929 . S
H141 C150 0.930 . S
H142 C152 0.930 . S
H143 C155 0.929 . S
H144 C158 0.930 . S
H145 C160 0.960 . S
H146 C160 0.960 . S
H147 C160 0.960 . S
C148 H140 0.929 . S
C148 C149 1.377 . S
C148 C150 1.384 . S
C149 C148 1.377 . S
C149 C155 1.390 . S
C150 H141 0.930 . S
C150 C148 1.384 . S
C150 C151 1.372 . S
C151 C150 1.372 . S
C151 C152 1.400 . S
C151 C156 1.490 . S
C152 H142 0.930 . S
C152 C151 1.400 . S
C152 C155 1.386 . S
H153 C169 0.930 . S
H154 C170 0.931 . S
C155 H143 0.929 . S
C155 C149 1.390 . S
C155 C152 1.386 . S
C156 C151 1.490 . S
C156 C158 1.395 . S
C156 C159 1.403 . S
H157 C163 0.930 . S
C158 H144 0.930 . S
C158 C156 1.395 . S
C158 C161 1.403 . S
C159 C156 1.403 . S
C159 C160 1.524 . S
C159 C163 1.400 . S
C160 H145 0.960 . S
C160 H146 0.960 . S
C160 H147 0.960 . S
C160 C159 1.524 . S
C161 C158 1.403 . S
C161 C162 1.392 . S
C161 C165 1.495 . S
C162 C161 1.392 . S
C162 C163 1.385 . S
C162 C164 1.478 . S
C163 H157 0.930 . S
C163 C159 1.400 . S
C163 C162 1.385 . S
C164 C162 1.478 . S
C164 C166 1.381 . S
C164 C170 1.383 . S
C165 C161 1.495 . S
C165 H171 0.959 . S
C165 H172 0.961 . S
C165 H173 0.960 . S
C166 C164 1.381 . S
C166 C167 1.394 . S
C166 H174 0.930 . S
C167 C166 1.394 . S
C167 C168 1.383 . S
C167 H175 0.929 . S
C168 C167 1.383 . S
C168 C169 1.377 . S
C169 H153 0.930 . S
C169 C168 1.377 . S
C169 C170 1.379 . S
C170 H154 0.931 . S
C170 C164 1.383 . S
C170 C169 1.379 . S
H171 C165 0.959 . S
H172 C165 0.961 . S
H173 C165 0.960 . S
H174 C166 0.930 . S
H175 C167 0.929 . S
H176 C184 0.929 . S
H177 C186 0.930 . S
H178 C188 0.930 . S
H179 C191 0.929 . S
H180 C194 0.930 . S
H181 C196 0.960 . S
H182 C196 0.960 . S
H183 C196 0.960 . S
C184 H176 0.929 . S
C184 C185 1.377 . S
C184 C186 1.384 . S
C185 C184 1.377 . S
C185 C191 1.390 . S
C186 H177 0.930 . S
C186 C184 1.384 . S
C186 C187 1.372 . S
C187 C186 1.372 . S
C187 C188 1.400 . S
C187 C192 1.490 . S
C188 H178 0.930 . S
C188 C187 1.400 . S
C188 C191 1.386 . S
H189 C205 0.930 . S
H190 C206 0.931 . S
C191 H179 0.929 . S
C191 C185 1.390 . S
C191 C188 1.386 . S
C192 C187 1.490 . S
C192 C194 1.395 . S
C192 C195 1.403 . S
H193 C199 0.930 . S
C194 H180 0.930 . S
C194 C192 1.395 . S
C194 C197 1.403 . S
C195 C192 1.403 . S
C195 C196 1.524 . S
C195 C199 1.400 . S
C196 H181 0.960 . S
C196 H182 0.960 . S
C196 H183 0.960 . S
C196 C195 1.524 . S
C197 C194 1.403 . S
C197 C198 1.392 . S
C197 C201 1.495 . S
C198 C197 1.392 . S
C198 C199 1.385 . S
C198 C200 1.478 . S
C199 H193 0.930 . S
C199 C195 1.400 . S
C199 C198 1.385 . S
C200 C198 1.478 . S
C200 C202 1.381 . S
C200 C206 1.383 . S
C201 C197 1.495 . S
C201 H207 0.959 . S
C201 H208 0.961 . S
C201 H209 0.960 . S
C202 C200 1.381 . S
C202 C203 1.394 . S
C202 H210 0.930 . S
C203 C202 1.394 . S
C203 C204 1.383 . S
C203 H211 0.929 . S
C204 C203 1.383 . S
C204 C205 1.377 . S
C205 H189 0.930 . S
C205 C204 1.377 . S
C205 C206 1.379 . S
C206 H190 0.931 . S
C206 C200 1.383 . S
C206 C205 1.379 . S
H207 C201 0.959 . S
H208 C201 0.961 . S
H209 C201 0.960 . S
H210 C202 0.930 . S
H211 C203 0.929 . S
H212 C220 0.929 . S
H213 C222 0.930 . S
H214 C224 0.930 . S
H215 C227 0.929 . S
H216 C230 0.930 . S
H217 C232 0.960 . S
H218 C232 0.960 . S
H219 C232 0.960 . S
C220 H212 0.929 . S
C220 C221 1.377 . S
C220 C222 1.384 . S
C221 C220 1.377 . S
C221 C227 1.390 . S
C222 H213 0.930 . S
C222 C220 1.384 . S
C222 C223 1.372 . S
C223 C222 1.372 . S
C223 C224 1.400 . S
C223 C228 1.490 . S
C224 H214 0.930 . S
C224 C223 1.400 . S
C224 C227 1.386 . S
H225 C241 0.930 . S
H226 C242 0.931 . S
C227 H215 0.929 . S
C227 C221 1.390 . S
C227 C224 1.386 . S
C228 C223 1.490 . S
C228 C230 1.395 . S
C228 C231 1.403 . S
H229 C235 0.930 . S
C230 H216 0.930 . S
C230 C228 1.395 . S
C230 C233 1.403 . S
C231 C228 1.403 . S
C231 C232 1.524 . S
C231 C235 1.400 . S
C232 H217 0.960 . S
C232 H218 0.960 . S
C232 H219 0.960 . S
C232 C231 1.524 . S
C233 C230 1.403 . S
C233 C234 1.392 . S
C233 C237 1.495 . S
C234 C233 1.392 . S
C234 C235 1.385 . S
C234 C236 1.478 . S
C235 H229 0.930 . S
C235 C231 1.400 . S
C235 C234 1.385 . S
C236 C234 1.478 . S
C236 C238 1.381 . S
C236 C242 1.383 . S
C237 C233 1.495 . S
C237 H243 0.959 . S
C237 H244 0.961 . S
C237 H245 0.960 . S
C238 C236 1.381 . S
C238 C239 1.394 . S
C238 H246 0.930 . S
C239 C238 1.394 . S
C239 C240 1.383 . S
C239 H247 0.929 . S
C240 C239 1.383 . S
C240 C241 1.377 . S
C241 H225 0.930 . S
C241 C240 1.377 . S
C241 C242 1.379 . S
C242 H226 0.931 . S
C242 C236 1.383 . S
C242 C241 1.379 . S
H243 C237 0.959 . S
H244 C237 0.961 . S
H245 C237 0.960 . S
H246 C238 0.930 . S
H247 C239 0.929 . S
H248 C256 0.929 . S
H249 C258 0.930 . S
H250 C260 0.930 . S
H251 C263 0.929 . S
H252 C266 0.930 . S
H253 C268 0.960 . S
H254 C268 0.960 . S
H255 C268 0.960 . S
C256 H248 0.929 . S
C256 C257 1.377 . S
C256 C258 1.384 . S
C257 C256 1.377 . S
C257 C263 1.390 . S
C258 H249 0.930 . S
C258 C256 1.384 . S
C258 C259 1.372 . S
C259 C258 1.372 . S
C259 C260 1.400 . S
C259 C264 1.490 . S
C260 H250 0.930 . S
C260 C259 1.400 . S
C260 C263 1.386 . S
H261 C277 0.930 . S
H262 C278 0.931 . S
C263 H251 0.929 . S
C263 C257 1.390 . S
C263 C260 1.386 . S
C264 C259 1.490 . S
C264 C266 1.395 . S
C264 C267 1.403 . S
H265 C271 0.930 . S
C266 H252 0.930 . S
C266 C264 1.395 . S
C266 C269 1.403 . S
C267 C264 1.403 . S
C267 C268 1.524 . S
C267 C271 1.400 . S
C268 H253 0.960 . S
C268 H254 0.960 . S
C268 H255 0.960 . S
C268 C267 1.524 . S
C269 C266 1.403 . S
C269 C270 1.392 . S
C269 C273 1.495 . S
C270 C269 1.392 . S
C270 C271 1.385 . S
C270 C272 1.478 . S
C271 H265 0.930 . S
C271 C267 1.400 . S
C271 C270 1.385 . S
C272 C270 1.478 . S
C272 C274 1.381 . S
C272 C278 1.383 . S
C273 C269 1.495 . S
C273 H279 0.959 . S
C273 H280 0.961 . S
C273 H281 0.960 . S
C274 C272 1.381 . S
C274 C275 1.394 . S
C274 H282 0.930 . S
C275 C274 1.394 . S
C275 C276 1.383 . S
C275 H283 0.929 . S
C276 C275 1.383 . S
C276 C277 1.377 . S
C277 H261 0.930 . S
C277 C276 1.377 . S
C277 C278 1.379 . S
C278 H262 0.931 . S
C278 C272 1.383 . S
C278 C277 1.379 . S
H279 C273 0.959 . S
H280 C273 0.961 . S
H281 C273 0.960 . S
H282 C274 0.930 . S
H283 C275 0.929 . S
H284 C292 0.929 . S
H285 C294 0.930 . S
H286 C296 0.930 . S
H287 C299 0.929 . S
H288 C302 0.930 . S
H289 C304 0.960 . S
H290 C304 0.960 . S
H291 C304 0.960 . S
C292 H284 0.929 . S
C292 C293 1.377 . S
C292 C294 1.384 . S
C293 C292 1.377 . S
C293 C299 1.390 . S
C294 H285 0.930 . S
C294 C292 1.384 . S
C294 C295 1.372 . S
C295 C294 1.372 . S
C295 C296 1.400 . S
C295 C300 1.490 . S
C296 H286 0.930 . S
C296 C295 1.400 . S
C296 C299 1.386 . S
H297 C313 0.930 . S
H298 C314 0.931 . S
C299 H287 0.929 . S
C299 C293 1.390 . S
C299 C296 1.386 . S
C300 C295 1.490 . S
C300 C302 1.395 . S
C300 C303 1.403 . S
H301 C307 0.930 . S
C302 H288 0.930 . S
C302 C300 1.395 . S
C302 C305 1.403 . S
C303 C300 1.403 . S
C303 C304 1.524 . S
C303 C307 1.400 . S
C304 H289 0.960 . S
C304 H290 0.960 . S
C304 H291 0.960 . S
C304 C303 1.524 . S
C305 C302 1.403 . S
C305 C306 1.392 . S
C305 C309 1.495 . S
C306 C305 1.392 . S
C306 C307 1.385 . S
C306 C308 1.478 . S
C307 H301 0.930 . S
C307 C303 1.400 . S
C307 C306 1.385 . S
C308 C306 1.478 . S
C308 C310 1.381 . S
C308 C314 1.383 . S
C309 C305 1.495 . S
C309 H315 0.959 . S
C309 H316 0.961 . S
C309 H317 0.960 . S
C310 C308 1.381 . S
C310 C311 1.394 . S
C310 H318 0.930 . S
C311 C310 1.394 . S
C311 C312 1.383 . S
C311 H319 0.929 . S
C312 C311 1.383 . S
C312 C313 1.377 . S
C313 H297 0.930 . S
C313 C312 1.377 . S
C313 C314 1.379 . S
C314 H298 0.931 . S
C314 C308 1.383 . S
C314 C313 1.379 . S
H315 C309 0.959 . S
H316 C309 0.961 . S
H317 C309 0.960 . S
H318 C310 0.930 . S
H319 C311 0.929 . S
H320 C328 0.929 . S
H321 C330 0.930 . S
H322 C332 0.930 . S
H323 C335 0.929 . S
H324 C338 0.930 . S
H325 C340 0.960 . S
H326 C340 0.960 . S
H327 C340 0.960 . S
C328 H320 0.929 . S
C328 C329 1.377 . S
C328 C330 1.384 . S
C329 C328 1.377 . S
C329 C335 1.390 . S
C330 H321 0.930 . S
C330 C328 1.384 . S
C330 C331 1.372 . S
C331 C330 1.372 . S
C331 C332 1.400 . S
C331 C336 1.490 . S
C332 H322 0.930 . S
C332 C331 1.400 . S
C332 C335 1.386 . S
H333 C349 0.930 . S
H334 C350 0.931 . S
C335 H323 0.929 . S
C335 C329 1.390 . S
C335 C332 1.386 . S
C336 C331 1.490 . S
C336 C338 1.395 . S
C336 C339 1.403 . S
H337 C343 0.930 . S
C338 H324 0.930 . S
C338 C336 1.395 . S
C338 C341 1.403 . S
C339 C336 1.403 . S
C339 C340 1.524 . S
C339 C343 1.400 . S
C340 H325 0.960 . S
C340 H326 0.960 . S
C340 H327 0.960 . S
C340 C339 1.524 . S
C341 C338 1.403 . S
C341 C342 1.392 . S
C341 C345 1.495 . S
C342 C341 1.392 . S
C342 C343 1.385 . S
C342 C344 1.478 . S
C343 H337 0.930 . S
C343 C339 1.400 . S
C343 C342 1.385 . S
C344 C342 1.478 . S
C344 C346 1.381 . S
C344 C350 1.383 . S
C345 C341 1.495 . S
C345 H351 0.959 . S
C345 H352 0.961 . S
C345 H353 0.960 . S
C346 C344 1.381 . S
C346 C347 1.394 . S
C346 H354 0.930 . S
C347 C346 1.394 . S
C347 C348 1.383 . S
C347 H355 0.929 . S
C348 C347 1.383 . S
C348 C349 1.377 . S
C349 H333 0.930 . S
C349 C348 1.377 . S
C349 C350 1.379 . S
C350 H334 0.931 . S
C350 C344 1.383 . S
C350 C349 1.379 . S
H351 C345 0.959 . S
H352 C345 0.961 . S
H353 C345 0.960 . S
H354 C346 0.930 . S
H355 C347 0.929 . S
H356 C364 0.929 . S
H357 C366 0.930 . S
H358 C368 0.930 . S
H359 C371 0.929 . S
H360 C374 0.930 . S
H361 C376 0.960 . S
H362 C376 0.960 . S
H363 C376 0.960 . S
C364 H356 0.929 . S
C364 C365 1.377 . S
C364 C366 1.384 . S
C365 C364 1.377 . S
C365 C371 1.390 . S
C366 H357 0.930 . S
C366 C364 1.384 . S
C366 C367 1.372 . S
C367 C366 1.372 . S
C367 C368 1.400 . S
C367 C372 1.490 . S
C368 H358 0.930 . S
C368 C367 1.400 . S
C368 C371 1.386 . S
H369 C385 0.930 . S
H370 C386 0.931 . S
C371 H359 0.929 . S
C371 C365 1.390 . S
C371 C368 1.386 . S
C372 C367 1.490 . S
C372 C374 1.395 . S
C372 C375 1.403 . S
H373 C379 0.930 . S
C374 H360 0.930 . S
C374 C372 1.395 . S
C374 C377 1.403 1_554 S
C375 C372 1.403 . S
C375 C376 1.524 . S
C375 C379 1.400 1_554 S
C376 H361 0.960 . S
C376 H362 0.960 . S
C376 H363 0.960 . S
C376 C375 1.524 . S
C377 C374 1.403 1_556 S
C377 C378 1.392 . S
C377 C381 1.495 . S
C378 C377 1.392 . S
C378 C379 1.385 . S
C378 C380 1.478 . S
C379 H373 0.930 . S
C379 C375 1.400 1_556 S
C379 C378 1.385 . S
C380 C378 1.478 . S
C380 C382 1.381 . S
C380 C386 1.383 . S
C381 C377 1.495 . S
C381 H387 0.959 . S
C381 H388 0.961 . S
C381 H389 0.960 . S
C382 C380 1.381 . S
C382 C383 1.394 . S
C382 H390 0.930 . S
C383 C382 1.394 . S
C383 C384 1.383 . S
C383 H391 0.929 . S
C384 C383 1.383 . S
C384 C385 1.377 . S
C385 H369 0.930 . S
C385 C384 1.377 . S
C385 C386 1.379 . S
C386 H370 0.931 . S
C386 C380 1.383 . S
C386 C385 1.379 . S
H387 C381 0.959 . S
H388 C381 0.961 . S
H389 C381 0.960 . S
H390 C382 0.930 . S
H391 C383 0.929 . S
H392 C400 0.929 . S
H393 C402 0.930 . S
H394 C404 0.930 . S
H395 C407 0.929 . S
H396 C410 0.930 . S
H397 C412 0.960 . S
H398 C412 0.960 . S
H399 C412 0.960 . S
C400 H392 0.929 . S
C400 C401 1.377 . S
C400 C402 1.384 . S
C401 C400 1.377 . S
C401 C407 1.390 . S
C402 H393 0.930 . S
C402 C400 1.384 . S
C402 C403 1.372 . S
C403 C402 1.372 . S
C403 C404 1.400 . S
C403 C408 1.490 . S
C404 H394 0.930 . S
C404 C403 1.400 . S
C404 C407 1.386 . S
H405 C421 0.930 . S
H406 C422 0.931 . S
C407 H395 0.929 . S
C407 C401 1.390 . S
C407 C404 1.386 . S
C408 C403 1.490 . S
C408 C410 1.395 . S
C408 C411 1.403 . S
H409 C415 0.930 . S
C410 H396 0.930 . S
C410 C408 1.395 . S
C410 C413 1.403 1_445 S
C411 C408 1.403 . S
C411 C412 1.524 . S
C411 C415 1.400 1_445 S
C412 H397 0.960 . S
C412 H398 0.960 . S
C412 H399 0.960 . S
C412 C411 1.524 . S
C413 C410 1.403 1_665 S
C413 C414 1.392 . S
C413 C417 1.495 . S
C414 C413 1.392 . S
C414 C415 1.385 . S
C414 C416 1.478 . S
C415 H409 0.930 . S
C415 C411 1.400 1_665 S
C415 C414 1.385 . S
C416 C414 1.478 . S
C416 C418 1.381 . S
C416 C422 1.383 . S
C417 C413 1.495 . S
C417 H423 0.959 . S
C417 H424 0.961 . S
C417 H425 0.960 . S
C418 C416 1.381 . S
C418 C419 1.394 . S
C418 H426 0.930 . S
C419 C418 1.394 . S
C419 C420 1.383 . S
C419 H427 0.929 . S
C420 C419 1.383 . S
C420 C421 1.377 . S
C421 H405 0.930 . S
C421 C420 1.377 . S
C421 C422 1.379 . S
C422 H406 0.931 . S
C422 C416 1.383 . S
C422 C421 1.379 . S
H423 C417 0.959 . S
H424 C417 0.961 . S
H425 C417 0.960 . S
H426 C418 0.930 . S
H427 C419 0.929 . S
H428 C436 0.929 . S
H429 C438 0.930 . S
H430 C440 0.930 . S
H431 C443 0.929 . S
H432 C446 0.930 . S
H433 C448 0.960 . S
H434 C448 0.960 . S
H435 C448 0.960 . S
C436 H428 0.929 . S
C436 C437 1.377 . S
C436 C438 1.384 . S
C437 C436 1.377 . S
C437 C443 1.390 . S
C438 H429 0.930 . S
C438 C436 1.384 . S
C438 C439 1.372 . S
C439 C438 1.372 . S
C439 C440 1.400 . S
C439 C444 1.490 . S
C440 H430 0.930 . S
C440 C439 1.400 . S
C440 C443 1.386 . S
H441 C457 0.930 . S
H442 C458 0.931 . S
C443 H431 0.929 . S
C443 C437 1.390 . S
C443 C440 1.386 . S
C444 C439 1.490 . S
C444 C446 1.395 . S
C444 C447 1.403 . S
H445 C451 0.930 . S
C446 H432 0.930 . S
C446 C444 1.395 . S
C446 C449 1.403 1_455 S
C447 C444 1.403 . S
C447 C448 1.524 . S
C447 C451 1.400 1_455 S
C448 H433 0.960 . S
C448 H434 0.960 . S
C448 H435 0.960 . S
C448 C447 1.524 . S
C449 C446 1.403 1_655 S
C449 C450 1.392 . S
C449 C453 1.495 . S
C450 C449 1.392 . S
C450 C451 1.385 . S
C450 C452 1.478 . S
C451 H445 0.930 . S
C451 C447 1.400 1_655 S
C451 C450 1.385 . S
C452 C450 1.478 . S
C452 C454 1.381 . S
C452 C458 1.383 . S
C453 C449 1.495 . S
C453 H459 0.959 . S
C453 H460 0.961 . S
C453 H461 0.960 . S
C454 C452 1.381 . S
C454 C455 1.394 . S
C454 H462 0.930 . S
C455 C454 1.394 . S
C455 C456 1.383 . S
C455 H463 0.929 . S
C456 C455 1.383 . S
C456 C457 1.377 . S
C457 H441 0.930 . S
C457 C456 1.377 . S
C457 C458 1.379 . S
C458 H442 0.931 . S
C458 C452 1.383 . S
C458 C457 1.379 . S
H459 C453 0.959 . S
H460 C453 0.961 . S
H461 C453 0.960 . S
H462 C454 0.930 . S
H463 C455 0.929 . S
H464 C472 0.929 . S
H465 C474 0.930 . S
H466 C476 0.930 . S
H467 C479 0.929 . S
H468 C482 0.930 . S
H469 C484 0.960 . S
H470 C484 0.960 . S
H471 C484 0.960 . S
C472 H464 0.929 . S
C472 C473 1.377 . S
C472 C474 1.384 . S
C473 C472 1.377 . S
C473 C479 1.390 . S
C474 H465 0.930 . S
C474 C472 1.384 . S
C474 C475 1.372 . S
C475 C474 1.372 . S
C475 C476 1.400 . S
C475 C480 1.490 . S
C476 H466 0.930 . S
C476 C475 1.400 . S
C476 C479 1.386 . S
H477 C493 0.930 . S
H478 C494 0.931 . S
C479 H467 0.929 . S
C479 C473 1.390 . S
C479 C476 1.386 . S
C480 C475 1.490 . S
C480 C482 1.395 . S
C480 C483 1.403 . S
H481 C487 0.930 . S
C482 H468 0.930 . S
C482 C480 1.395 . S
C482 C485 1.403 . S
C483 C480 1.403 . S
C483 C484 1.524 . S
C483 C487 1.400 . S
C484 H469 0.960 . S
C484 H470 0.960 . S
C484 H471 0.960 . S
C484 C483 1.524 . S
C485 C482 1.403 . S
C485 C486 1.392 . S
C485 C489 1.495 . S
C486 C485 1.392 . S
C486 C487 1.385 . S
C486 C488 1.478 . S
C487 H481 0.930 . S
C487 C483 1.400 . S
C487 C486 1.385 . S
C488 C486 1.478 . S
C488 C490 1.381 . S
C488 C494 1.383 . S
C489 C485 1.495 . S
C489 H495 0.959 . S
C489 H496 0.961 . S
C489 H497 0.960 . S
C490 C488 1.381 . S
C490 C491 1.394 . S
C490 H498 0.930 . S
C491 C490 1.394 . S
C491 C492 1.383 . S
C491 H499 0.929 . S
C492 C491 1.383 . S
C492 C493 1.377 . S
C493 H477 0.930 . S
C493 C492 1.377 . S
C493 C494 1.379 . S
C494 H478 0.931 . S
C494 C488 1.383 . S
C494 C493 1.379 . S
H495 C489 0.959 . S
H496 C489 0.961 . S
H497 C489 0.960 . S
H498 C490 0.930 . S
H499 C491 0.929 . S
H500 C508 0.929 . S
H501 C510 0.930 . S
H502 C512 0.930 . S
H503 C515 0.929 . S
H504 C518 0.930 . S
H505 C520 0.960 . S
H506 C520 0.960 . S
H507 C520 0.960 . S
C508 H500 0.929 . S
C508 C509 1.377 . S
C508 C510 1.384 . S
C509 C508 1.377 . S
C509 C515 1.390 . S
C510 H501 0.930 . S
C510 C508 1.384 . S
C510 C511 1.372 . S
C511 C510 1.372 . S
C511 C512 1.400 . S
C511 C516 1.490 . S
C512 H502 0.930 . S
C512 C511 1.400 . S
C512 C515 1.386 . S
H513 C529 0.930 . S
H514 C530 0.931 . S
C515 H503 0.929 . S
C515 C509 1.390 . S
C515 C512 1.386 . S
C516 C511 1.490 . S
C516 C518 1.395 . S
C516 C519 1.403 1_565 S
H517 C523 0.930 . S
C518 H504 0.930 . S
C518 C516 1.395 . S
C518 C521 1.403 . S
C519 C516 1.403 1_545 S
C519 C520 1.524 . S
C519 C523 1.400 . S
C520 H505 0.960 . S
C520 H506 0.960 . S
C520 H507 0.960 . S
C520 C519 1.524 . S
C521 C518 1.403 . S
C521 C522 1.392 1_565 S
C521 C525 1.495 . S
C522 C521 1.392 1_545 S
C522 C523 1.385 . S
C522 C524 1.478 . S
C523 H517 0.930 . S
C523 C519 1.400 . S
C523 C522 1.385 . S
C524 C522 1.478 . S
C524 C526 1.381 . S
C524 C530 1.383 . S
C525 C521 1.495 . S
C525 H531 0.959 . S
C525 H532 0.961 . S
C525 H533 0.960 . S
C526 C524 1.381 . S
C526 C527 1.394 . S
C526 H534 0.930 . S
C527 C526 1.394 . S
C527 C528 1.383 . S
C527 H535 0.929 . S
C528 C527 1.383 . S
C528 C529 1.377 . S
C529 H513 0.930 . S
C529 C528 1.377 . S
C529 C530 1.379 . S
C530 H514 0.931 . S
C530 C524 1.383 . S
C530 C529 1.379 . S
H531 C525 0.959 . S
H532 C525 0.961 . S
H533 C525 0.960 . S
H534 C526 0.930 . S
H535 C527 0.929 . S
H536 C544 0.929 . S
H537 C546 0.930 . S
H538 C548 0.930 . S
H539 C551 0.929 . S
H540 C554 0.930 . S
H541 C556 0.960 . S
H542 C556 0.960 . S
H543 C556 0.960 . S
C544 H536 0.929 . S
C544 C545 1.377 . S
C544 C546 1.384 . S
C545 C544 1.377 . S
C545 C551 1.390 . S
C546 H537 0.930 . S
C546 C544 1.384 . S
C546 C547 1.372 . S
C547 C546 1.372 . S
C547 C548 1.400 . S
C547 C552 1.490 . S
C548 H538 0.930 . S
C548 C547 1.400 . S
C548 C551 1.386 . S
H549 C565 0.930 . S
H550 C566 0.931 . S
C551 H539 0.929 . S
C551 C545 1.390 . S
C551 C548 1.386 . S
C552 C547 1.490 . S
C552 C554 1.395 1_655 S
C552 C555 1.403 . S
H553 C559 0.930 . S
C554 H540 0.930 . S
C554 C552 1.395 1_455 S
C554 C557 1.403 . S
C555 C552 1.403 . S
C555 C556 1.524 . S
C555 C559 1.400 . S
C556 H541 0.960 . S
C556 H542 0.960 . S
C556 H543 0.960 . S
C556 C555 1.524 . S
C557 C554 1.403 . S
C557 C558 1.392 . S
C557 C561 1.495 . S
C558 C557 1.392 . S
C558 C559 1.385 1_455 S
C558 C560 1.478 . S
C559 H553 0.930 . S
C559 C555 1.400 . S
C559 C558 1.385 1_655 S
C560 C558 1.478 . S
C560 C562 1.381 . S
C560 C566 1.383 . S
C561 C557 1.495 . S
C561 H567 0.959 . S
C561 H568 0.961 . S
C561 H569 0.960 . S
C562 C560 1.381 . S
C562 C563 1.394 . S
C562 H570 0.930 . S
C563 C562 1.394 . S
C563 C564 1.383 . S
C563 H571 0.929 . S
C564 C563 1.383 . S
C564 C565 1.377 . S
C565 H549 0.930 . S
C565 C564 1.377 . S
C565 C566 1.379 . S
C566 H550 0.931 . S
C566 C560 1.383 . S
C566 C565 1.379 . S
H567 C561 0.959 . S
H568 C561 0.961 . S
H569 C561 0.960 . S
H570 C562 0.930 . S
H571 C563 0.929 . S
H572 C580 0.929 . S
H573 C582 0.930 . S
H574 C584 0.930 . S
H575 C587 0.929 . S
H576 C590 0.930 . S
H577 C592 0.960 . S
H578 C592 0.960 . S
H579 C592 0.960 . S
C580 H572 0.929 . S
C580 C581 1.377 . S
C580 C582 1.384 . S
C581 C580 1.377 . S
C581 C587 1.390 . S
C582 H573 0.930 . S
C582 C580 1.384 . S
C582 C583 1.372 . S
C583 C582 1.372 . S
C583 C584 1.400 . S
C583 C588 1.490 . S
C584 H574 0.930 . S
C584 C583 1.400 . S
C584 C587 1.386 . S
H585 C601 0.930 . S
H586 C602 0.931 . S
C587 H575 0.929 . S
C587 C581 1.390 . S
C587 C584 1.386 . S
C588 C583 1.490 . S
C588 C590 1.395 . S
C588 C591 1.403 . S
H589 C595 0.930 . S
C590 H576 0.930 . S
C590 C588 1.395 . S
C590 C593 1.403 . S
C591 C588 1.403 . S
C591 C592 1.524 . S
C591 C595 1.400 . S
C592 H577 0.960 . S
C592 H578 0.960 . S
C592 H579 0.960 . S
C592 C591 1.524 . S
C593 C590 1.403 . S
C593 C594 1.392 . S
C593 C597 1.495 . S
C594 C593 1.392 . S
C594 C595 1.385 . S
C594 C596 1.478 . S
C595 H589 0.930 . S
C595 C591 1.400 . S
C595 C594 1.385 . S
C596 C594 1.478 . S
C596 C598 1.381 . S
C596 C602 1.383 . S
C597 C593 1.495 . S
C597 H603 0.959 . S
C597 H604 0.961 . S
C597 H605 0.960 . S
C598 C596 1.381 . S
C598 C599 1.394 . S
C598 H606 0.930 . S
C599 C598 1.394 . S
C599 C600 1.383 . S
C599 H607 0.929 . S
C600 C599 1.383 . S
C600 C601 1.377 . S
C601 H585 0.930 . S
C601 C600 1.377 . S
C601 C602 1.379 . S
C602 H586 0.931 . S
C602 C596 1.383 . S
C602 C601 1.379 . S
H603 C597 0.959 . S
H604 C597 0.961 . S
H605 C597 0.960 . S
H606 C598 0.930 . S
H607 C599 0.929 . S
H608 C616 0.929 . S
H609 C618 0.930 . S
H610 C620 0.930 . S
H611 C623 0.929 . S
H612 C626 0.930 . S
H613 C628 0.960 . S
H614 C628 0.960 . S
H615 C628 0.952 1_545 S
C616 H608 0.929 . S
C616 C617 1.377 . S
C616 C618 1.384 . S
C617 C616 1.377 . S
C617 C623 1.390 . S
C618 H609 0.930 . S
C618 C616 1.384 . S
C618 C619 1.372 . S
C619 C618 1.372 . S
C619 C620 1.400 . S
C619 C624 1.490 . S
C620 H610 0.930 . S
C620 C619 1.400 . S
C620 C623 1.386 . S
H621 C637 0.930 . S
H622 C638 0.931 . S
C623 H611 0.929 . S
C623 C617 1.390 . S
C623 C620 1.386 . S
C624 C619 1.490 . S
C624 C626 1.395 . S
C624 C627 1.403 1_545 S
H625 C631 0.930 . S
C626 H612 0.930 . S
C626 C624 1.395 . S
C626 C629 1.403 . S
C627 C624 1.403 1_565 S
C627 C628 1.524 . S
C627 C631 1.400 . S
C628 H613 0.960 . S
C628 H614 0.960 . S
C628 H615 0.952 1_565 S
C628 C627 1.524 . S
C629 C626 1.403 . S
C629 C630 1.392 1_545 S
C629 C633 1.495 . S
C630 C629 1.392 1_565 S
C630 C631 1.385 . S
C630 C632 1.478 . S
C631 H625 0.930 . S
C631 C627 1.400 . S
C631 C630 1.385 . S
C632 C630 1.478 . S
C632 C634 1.381 . S
C632 C638 1.383 . S
C633 C629 1.495 . S
C633 H639 0.959 . S
C633 H640 0.961 . S
C633 H641 0.960 . S
C634 C632 1.381 . S
C634 C635 1.394 . S
C634 H642 0.930 . S
C635 C634 1.394 . S
C635 C636 1.383 . S
C635 H643 0.929 . S
C636 C635 1.383 . S
C636 C637 1.377 . S
C637 H621 0.930 . S
C637 C636 1.377 . S
C637 C638 1.379 . S
C638 H622 0.931 . S
C638 C632 1.383 . S
C638 C637 1.379 . S
H639 C633 0.959 . S
H640 C633 0.961 . S
H641 C633 0.960 . S
H642 C634 0.930 . S
H643 C635 0.929 . S
H644 C652 0.929 . S
H645 C654 0.930 . S
H646 C656 0.930 . S
H647 C659 0.929 . S
H648 C662 0.930 . S
H649 C664 0.960 . S
H650 C664 0.960 . S
H651 C664 0.960 . S
C652 H644 0.929 . S
C652 C653 1.377 . S
C652 C654 1.384 . S
C653 C652 1.377 . S
C653 C659 1.390 . S
C654 H645 0.930 . S
C654 C652 1.384 . S
C654 C655 1.372 . S
C655 C654 1.372 . S
C655 C656 1.400 . S
C655 C660 1.490 . S
C656 H646 0.930 . S
C656 C655 1.400 . S
C656 C659 1.386 . S
H657 C673 0.930 . S
H658 C674 0.931 . S
C659 H647 0.929 . S
C659 C653 1.390 . S
C659 C656 1.386 . S
C660 C655 1.490 . S
C660 C662 1.395 . S
C660 C663 1.403 1_565 S
H661 C667 0.930 . S
C662 H648 0.930 . S
C662 C660 1.395 . S
C662 C665 1.403 1_655 S
C663 C660 1.403 1_545 S
C663 C664 1.524 . S
C663 C667 1.400 1_655 S
C664 H649 0.960 . S
C664 H650 0.960 . S
C664 H651 0.960 . S
C664 C663 1.524 . S
C665 C662 1.403 1_455 S
C665 C666 1.392 1_565 S
C665 C669 1.495 . S
C666 C665 1.392 1_545 S
C666 C667 1.385 . S
C666 C668 1.478 . S
C667 H661 0.930 . S
C667 C663 1.400 1_455 S
C667 C666 1.385 . S
C668 C666 1.478 . S
C668 C670 1.381 . S
C668 C674 1.383 . S
C669 C665 1.495 . S
C669 H675 0.959 . S
C669 H676 0.961 . S
C669 H677 0.960 . S
C670 C668 1.381 . S
C670 C671 1.394 . S
C670 H678 0.930 . S
C671 C670 1.394 . S
C671 C672 1.383 . S
C671 H679 0.929 . S
C672 C671 1.383 . S
C672 C673 1.377 . S
C673 H657 0.930 . S
C673 C672 1.377 . S
C673 C674 1.379 . S
C674 H658 0.931 . S
C674 C668 1.383 . S
C674 C673 1.379 . S
H675 C669 0.959 . S
H676 C669 0.961 . S
H677 C669 0.960 . S
H678 C670 0.930 . S
H679 C671 0.929 . S
C113 C10 0.824 . S
C132 C75 0.800 . S
C149 C21 0.811 . S
C168 C86 0.803 . S
C185 C36 0.818 . S
C204 C101 0.825 . S
C221 C47 0.817 . S
C240 C60 0.868 . S
C257 C99 0.834 . S
C276 C8 0.856 . S
C293 C62 0.823 . S
C312 C23 0.802 . S
C329 C34 0.814 . S
C348 C73 0.853 . S
C365 C88 0.817 . S
C384 C49 0.831 . S
C401 C5 1.510 . S
C420 C83 1.516 . S
C437 C91 1.534 . S
C456 C13 1.545 . S
C473 C31 1.511 . S
C492 C57 1.504 . S
C509 C39 1.537 . S
C528 C65 1.544 . S
C545 C78 1.530 . S
C564 C0 1.520 . S
C581 C96 1.516 . S
C600 C18 1.518 . S
C617 C26 1.530 . S
C636 C52 1.524 . S
C653 C44 1.512 . S
C672 C70 1.531 . S
