# Generated by pormake.
# Topology pem, (4)-cn, num edge types: 1
# Building blocks:
#     Node 0, Type 0, BuildingBlock: CEKHIL_clean_sbu_0, # of connection points: 4
#     Node 1, Type 0, BuildingBlock: CEKHIL_clean_sbu_0, # of connection points: 4
#     Node 2, Type 0, BuildingBlock: CEKHIL_clean_sbu_0, # of connection points: 4
#     Node 3, Type 0, BuildingBlock: CEKHIL_clean_sbu_0, # of connection points: 4
#     Node 4, Type 0, BuildingBlock: CEKHIL_clean_sbu_0, # of connection points: 4
#     Node 5, Type 0, BuildingBlock: CEKHIL_clean_sbu_0, # of connection points: 4
#     Node 6, Type 0, BuildingBlock: CEKHIL_clean_sbu_0, # of connection points: 4
#     Node 7, Type 0, BuildingBlock: CEKHIL_clean_sbu_0, # of connection points: 4
#     Node 8, Type 0, BuildingBlock: CEKHIL_clean_sbu_0, # of connection points: 4
#     Node 9, Type 0, BuildingBlock: CEKHIL_clean_sbu_0, # of connection points: 4
#     Node 10, Type 0, BuildingBlock: CEKHIL_clean_sbu_0, # of connection points: 4
#     Node 11, Type 0, BuildingBlock: CEKHIL_clean_sbu_0, # of connection points: 4
#     Node 12, Type 0, BuildingBlock: CEKHIL_clean_sbu_0, # of connection points: 4
#     Node 13, Type 0, BuildingBlock: CEKHIL_clean_sbu_0, # of connection points: 4
#     Node 14, Type 0, BuildingBlock: CEKHIL_clean_sbu_0, # of connection points: 4
#     Node 15, Type 0, BuildingBlock: CEKHIL_clean_sbu_0, # of connection points: 4
#     Node 16, Type 0, BuildingBlock: CEKHIL_clean_sbu_0, # of connection points: 4
#     Node 17, Type 0, BuildingBlock: CEKHIL_clean_sbu_0, # of connection points: 4
#     Node 18, Type 0, BuildingBlock: CEKHIL_clean_sbu_0, # of connection points: 4
#     Node 19, Type 0, BuildingBlock: CEKHIL_clean_sbu_0, # of connection points: 4
#     Node 20, Type 0, BuildingBlock: CEKHIL_clean_sbu_0, # of connection points: 4
#     Node 21, Type 0, BuildingBlock: CEKHIL_clean_sbu_0, # of connection points: 4
#     Node 22, Type 0, BuildingBlock: CEKHIL_clean_sbu_0, # of connection points: 4
#     Node 23, Type 0, BuildingBlock: CEKHIL_clean_sbu_0, # of connection points: 4
#     Node 24, Type 0, BuildingBlock: CEKHIL_clean_sbu_0, # of connection points: 4
#     Node 25, Type 0, BuildingBlock: CEKHIL_clean_sbu_0, # of connection points: 4
#     Node 26, Type 0, BuildingBlock: CEKHIL_clean_sbu_0, # of connection points: 4
#     Node 27, Type 0, BuildingBlock: CEKHIL_clean_sbu_0, # of connection points: 4
#     Node 28, Type 0, BuildingBlock: CEKHIL_clean_sbu_0, # of connection points: 4
#     Node 29, Type 0, BuildingBlock: CEKHIL_clean_sbu_0, # of connection points: 4
#     Node 30, Type 0, BuildingBlock: CEKHIL_clean_sbu_0, # of connection points: 4
#     Node 31, Type 0, BuildingBlock: CEKHIL_clean_sbu_0, # of connection points: 4
#     Edge 32, Type (0, 0), BuildingBlock: UVAHIK_clean_linker_0, # of connection points: 2
#     Edge 33, Type (0, 0), BuildingBlock: UVAHIK_clean_linker_0, # of connection points: 2
#     Edge 34, Type (0, 0), BuildingBlock: UVAHIK_clean_linker_0, # of connection points: 2
#     Edge 35, Type (0, 0), BuildingBlock: UVAHIK_clean_linker_0, # of connection points: 2
#     Edge 36, Type (0, 0), BuildingBlock: UVAHIK_clean_linker_0, # of connection points: 2
#     Edge 37, Type (0, 0), BuildingBlock: UVAHIK_clean_linker_0, # of connection points: 2
#     Edge 38, Type (0, 0), BuildingBlock: UVAHIK_clean_linker_0, # of connection points: 2
#     Edge 39, Type (0, 0), BuildingBlock: UVAHIK_clean_linker_0, # of connection points: 2
#     Edge 40, Type (0, 0), BuildingBlock: UVAHIK_clean_linker_0, # of connection points: 2
#     Edge 41, Type (0, 0), BuildingBlock: UVAHIK_clean_linker_0, # of connection points: 2
#     Edge 42, Type (0, 0), BuildingBlock: UVAHIK_clean_linker_0, # of connection points: 2
#     Edge 43, Type (0, 0), BuildingBlock: UVAHIK_clean_linker_0, # of connection points: 2
#     Edge 44, Type (0, 0), BuildingBlock: UVAHIK_clean_linker_0, # of connection points: 2
#     Edge 45, Type (0, 0), BuildingBlock: UVAHIK_clean_linker_0, # of connection points: 2
#     Edge 46, Type (0, 0), BuildingBlock: UVAHIK_clean_linker_0, # of connection points: 2
#     Edge 47, Type (0, 0), BuildingBlock: UVAHIK_clean_linker_0, # of connection points: 2
#     Edge 48, Type (0, 0), BuildingBlock: UVAHIK_clean_linker_0, # of connection points: 2
#     Edge 49, Type (0, 0), BuildingBlock: UVAHIK_clean_linker_0, # of connection points: 2
#     Edge 50, Type (0, 0), BuildingBlock: UVAHIK_clean_linker_0, # of connection points: 2
#     Edge 51, Type (0, 0), BuildingBlock: UVAHIK_clean_linker_0, # of connection points: 2
#     Edge 52, Type (0, 0), BuildingBlock: UVAHIK_clean_linker_0, # of connection points: 2
#     Edge 53, Type (0, 0), BuildingBlock: UVAHIK_clean_linker_0, # of connection points: 2
#     Edge 54, Type (0, 0), BuildingBlock: UVAHIK_clean_linker_0, # of connection points: 2
#     Edge 55, Type (0, 0), BuildingBlock: UVAHIK_clean_linker_0, # of connection points: 2
#     Edge 56, Type (0, 0), BuildingBlock: UVAHIK_clean_linker_0, # of connection points: 2
#     Edge 57, Type (0, 0), BuildingBlock: UVAHIK_clean_linker_0, # of connection points: 2
#     Edge 58, Type (0, 0), BuildingBlock: UVAHIK_clean_linker_0, # of connection points: 2
#     Edge 59, Type (0, 0), BuildingBlock: UVAHIK_clean_linker_0, # of connection points: 2
#     Edge 60, Type (0, 0), BuildingBlock: UVAHIK_clean_linker_0, # of connection points: 2
#     Edge 61, Type (0, 0), BuildingBlock: UVAHIK_clean_linker_0, # of connection points: 2
#     Edge 62, Type (0, 0), BuildingBlock: UVAHIK_clean_linker_0, # of connection points: 2
#     Edge 63, Type (0, 0), BuildingBlock: UVAHIK_clean_linker_0, # of connection points: 2
#     Edge 64, Type (0, 0), BuildingBlock: UVAHIK_clean_linker_0, # of connection points: 2
#     Edge 65, Type (0, 0), BuildingBlock: UVAHIK_clean_linker_0, # of connection points: 2
#     Edge 66, Type (0, 0), BuildingBlock: UVAHIK_clean_linker_0, # of connection points: 2
#     Edge 67, Type (0, 0), BuildingBlock: UVAHIK_clean_linker_0, # of connection points: 2
#     Edge 68, Type (0, 0), BuildingBlock: UVAHIK_clean_linker_0, # of connection points: 2
#     Edge 69, Type (0, 0), BuildingBlock: UVAHIK_clean_linker_0, # of connection points: 2
#     Edge 70, Type (0, 0), BuildingBlock: UVAHIK_clean_linker_0, # of connection points: 2
#     Edge 71, Type (0, 0), BuildingBlock: UVAHIK_clean_linker_0, # of connection points: 2
#     Edge 72, Type (0, 0), BuildingBlock: UVAHIK_clean_linker_0, # of connection points: 2
#     Edge 73, Type (0, 0), BuildingBlock: UVAHIK_clean_linker_0, # of connection points: 2
#     Edge 74, Type (0, 0), BuildingBlock: UVAHIK_clean_linker_0, # of connection points: 2
#     Edge 75, Type (0, 0), BuildingBlock: UVAHIK_clean_linker_0, # of connection points: 2
#     Edge 76, Type (0, 0), BuildingBlock: UVAHIK_clean_linker_0, # of connection points: 2
#     Edge 77, Type (0, 0), BuildingBlock: UVAHIK_clean_linker_0, # of connection points: 2
#     Edge 78, Type (0, 0), BuildingBlock: UVAHIK_clean_linker_0, # of connection points: 2
#     Edge 79, Type (0, 0), BuildingBlock: UVAHIK_clean_linker_0, # of connection points: 2
#     Edge 80, Type (0, 0), BuildingBlock: UVAHIK_clean_linker_0, # of connection points: 2
#     Edge 81, Type (0, 0), BuildingBlock: UVAHIK_clean_linker_0, # of connection points: 2
#     Edge 82, Type (0, 0), BuildingBlock: UVAHIK_clean_linker_0, # of connection points: 2
#     Edge 83, Type (0, 0), BuildingBlock: UVAHIK_clean_linker_0, # of connection points: 2
#     Edge 84, Type (0, 0), BuildingBlock: UVAHIK_clean_linker_0, # of connection points: 2
#     Edge 85, Type (0, 0), BuildingBlock: UVAHIK_clean_linker_0, # of connection points: 2
#     Edge 86, Type (0, 0), BuildingBlock: UVAHIK_clean_linker_0, # of connection points: 2
#     Edge 87, Type (0, 0), BuildingBlock: UVAHIK_clean_linker_0, # of connection points: 2
#     Edge 88, Type (0, 0), BuildingBlock: UVAHIK_clean_linker_0, # of connection points: 2
#     Edge 89, Type (0, 0), BuildingBlock: UVAHIK_clean_linker_0, # of connection points: 2
#     Edge 90, Type (0, 0), BuildingBlock: UVAHIK_clean_linker_0, # of connection points: 2
#     Edge 91, Type (0, 0), BuildingBlock: UVAHIK_clean_linker_0, # of connection points: 2
#     Edge 92, Type (0, 0), BuildingBlock: UVAHIK_clean_linker_0, # of connection points: 2
#     Edge 93, Type (0, 0), BuildingBlock: UVAHIK_clean_linker_0, # of connection points: 2
#     Edge 94, Type (0, 0), BuildingBlock: UVAHIK_clean_linker_0, # of connection points: 2
#     Edge 95, Type (0, 0), BuildingBlock: UVAHIK_clean_linker_0, # of connection points: 2
# Relax obj value: 0.214
# Max RMSD: 0.174
# Mean RMSD: 0.151
data_MOF--net-pem--node1-CEKHIL_clean_sbu_0--edge1-UVAHIK_clean_linker_0
_symmetry_space_group_name_H-M    P1
_symmetry_Int_Tables_number       1
_symmetry_cell_setting            triclinic
loop_
_symmetry_equiv_pos_as_xyz
'x, y, z'
_cell_length_a     60.043817
_cell_length_b     50.206496
_cell_length_c     50.214224
_cell_angle_alpha  93.70727
_cell_angle_beta   91.612492
_cell_angle_gamma 91.550526
loop_
_atom_site_label
_atom_site_type_symbol
_atom_site_fract_x
_atom_site_fract_y
_atom_site_fract_z
_atom_type_partial_charge
Co0 Co 0.10014 0.08136 0.13229 0.0
O1 O 0.12711 0.06405 0.1209 0.0
O2 O 0.1192 0.10578 0.11421 0.0
C3 C 0.10034 0.06368 0.17308 0.0
O4 O 0.07446 0.10687 0.14046 0.0
Co5 Co 0.05754 0.05004 0.14681 0.0
O6 O 0.04437 0.08529 0.15512 0.0
C7 C 0.07699 0.04461 0.09358 0.0
C8 C 0.13261 0.0861 0.11026 0.0
C9 C 0.05441 0.10668 0.14916 0.0
O10 O 0.08563 0.06821 0.09747 0.0
O11 O 0.06721 0.03259 0.11191 0.0
O12 O 0.11198 0.08548 0.16975 0.0
O13 O 0.08958 0.05382 0.15215 0.0
Co14 Co 0.132 0.8138 0.38136 0.0
O15 O 0.15257 0.79388 0.40311 0.0
O16 O 0.15339 0.83755 0.40035 0.0
C17 C 0.09959 0.79173 0.39058 0.0
O18 O 0.11613 0.84304 0.36237 0.0
Co19 Co 0.10225 0.79132 0.33317 0.0
O20 O 0.09258 0.82837 0.3289 0.0
C21 C 0.15137 0.79272 0.33079 0.0
C22 C 0.16275 0.81685 0.40927 0.0
C23 C 0.10231 0.84733 0.34316 0.0
O24 O 0.15273 0.80939 0.35124 0.0
O25 O 0.13301 0.7814 0.32197 0.0
O26 O 0.1081 0.81042 0.40741 0.0
O27 O 0.11132 0.78629 0.37 0.0
Co28 Co 0.40018 0.88824 0.5867 0.0
O29 O 0.37443 0.90108 0.56739 0.0
O30 O 0.38435 0.85908 0.56631 0.0
C31 C 0.39308 0.91228 0.62525 0.0
O32 O 0.42463 0.86577 0.60354 0.0
Co33 Co 0.43877 0.92281 0.61463 0.0
O34 O 0.44747 0.89033 0.63212 0.0
C35 C 0.43536 0.91415 0.55523 0.0
C36 C 0.37029 0.87645 0.55865 0.0
C37 C 0.44058 0.86786 0.62145 0.0
O38 O 0.41971 0.89616 0.55596 0.0
O39 O 0.44369 0.92756 0.57587 0.0
O40 O 0.38285 0.88934 0.61941 0.0
O41 O 0.40692 0.91983 0.60801 0.0
Co42 Co 0.33123 0.11617 0.86991 0.0
O43 O 0.35666 0.13147 0.85204 0.0
O44 O 0.34573 0.1452 0.89194 0.0
C45 C 0.33882 0.07218 0.8596 0.0
O46 O 0.3073 0.1066 0.89659 0.0
Co47 Co 0.29336 0.07942 0.84343 0.0
O48 O 0.28466 0.07282 0.88025 0.0
C49 C 0.29559 0.13724 0.83387 0.0
C50 C 0.35966 0.14802 0.87297 0.0
C51 C 0.29158 0.08905 0.8994 0.0
O52 O 0.31093 0.14178 0.85223 0.0
O53 O 0.28773 0.11384 0.82661 0.0
O54 O 0.34923 0.08547 0.87955 0.0
O55 O 0.32528 0.08597 0.8462 0.0
Co56 Co 0.12956 0.89905 0.44308 0.0
O57 O 0.10998 0.87553 0.46206 0.0
O58 O 0.10921 0.87913 0.41847 0.0
C59 C 0.16199 0.89068 0.46544 0.0
O60 O 0.14506 0.9201 0.4149 0.0
Co61 Co 0.15602 0.94836 0.46843 0.0
O62 O 0.16664 0.95449 0.43211 0.0
C63 C 0.10688 0.94639 0.46633 0.0
C64 C 0.10027 0.86905 0.4389 0.0
C65 C 0.15831 0.94029 0.41219 0.0
O66 O 0.10731 0.92748 0.44799 0.0
O67 O 0.12448 0.95615 0.47877 0.0
O68 O 0.15433 0.87441 0.44585 0.0
O69 O 0.14948 0.91047 0.47163 0.0
Co70 Co 0.38302 0.82114 0.67862 0.0
O71 O 0.40833 0.80453 0.69501 0.0
O72 O 0.40053 0.80218 0.65175 0.0
C73 C 0.38734 0.86068 0.70351 0.0
O74 O 0.35863 0.83535 0.65356 0.0
Co75 Co 0.34236 0.84151 0.71041 0.0
O76 O 0.33295 0.85763 0.67717 0.0
C77 C 0.35105 0.78365 0.70183 0.0
C78 C 0.4132 0.79497 0.6713 0.0
C79 C 0.34116 0.84991 0.65498 0.0
O80 O 0.36489 0.7878 0.68346 0.0
O81 O 0.34204 0.80228 0.71604 0.0
O82 O 0.39875 0.85617 0.68204 0.0
O83 O 0.3745 0.84122 0.70949 0.0
Co84 Co 0.41253 0.10961 0.90999 0.0
O85 O 0.38415 0.09269 0.91773 0.0
O86 O 0.39471 0.13359 0.93213 0.0
C87 C 0.41317 0.09665 0.86569 0.0
O88 O 0.44004 0.13444 0.90591 0.0
Co89 Co 0.45298 0.07655 0.89002 0.0
O90 O 0.46521 0.11189 0.88154 0.0
C91 C 0.4367 0.07309 0.94464 0.0
C92 C 0.37975 0.11434 0.932 0.0
C93 C 0.45812 0.13351 0.89249 0.0
O94 O 0.42566 0.09448 0.94289 0.0
O95 O 0.44692 0.0617 0.92522 0.0
O96 O 0.40171 0.11698 0.87385 0.0
O97 O 0.42181 0.08364 0.88445 0.0
Co98 Co 0.16819 0.13635 0.16187 0.0
O99 O 0.14058 0.14655 0.17842 0.0
O100 O 0.14726 0.14917 0.13572 0.0
C101 C 0.17153 0.09853 0.18471 0.0
O102 O 0.19434 0.12774 0.13693 0.0
Co103 Co 0.21199 0.13096 0.19501 0.0
O104 O 0.22543 0.11941 0.16067 0.0
C105 C 0.18972 0.18229 0.19189 0.0
C106 C 0.13384 0.15378 0.15527 0.0
C107 C 0.21507 0.12132 0.13839 0.0
O108 O 0.18003 0.17372 0.16982 0.0
O109 O 0.20109 0.16739 0.20656 0.0
O110 O 0.15934 0.09797 0.16277 0.0
O111 O 0.18059 0.12142 0.19176 0.0
Co112 Co 0.58252 0.35869 0.92698 0.0
O113 O 0.56646 0.32852 0.94093 0.0
O114 O 0.56258 0.34123 0.89988 0.0
C115 C 0.61683 0.35077 0.94534 0.0
O116 O 0.59535 0.38778 0.9039 0.0
Co117 Co 0.60571 0.40469 0.96293 0.0
O118 O 0.61395 0.42012 0.92913 0.0
C119 C 0.55701 0.3956 0.96207 0.0
C120 C 0.55608 0.3254 0.91777 0.0
C121 C 0.60677 0.41005 0.90645 0.0
O122 O 0.55795 0.38223 0.93946 0.0
O123 O 0.57444 0.40373 0.97584 0.0
O124 O 0.60984 0.33774 0.92332 0.0
O125 O 0.60256 0.36641 0.95603 0.0
Co126 Co 0.85481 0.32998 0.14551 0.0
O127 O 0.88455 0.32576 0.16053 0.0
O128 O 0.87199 0.30648 0.12211 0.0
C129 C 0.85287 0.37479 0.15442 0.0
O130 O 0.82549 0.33014 0.12305 0.0
Co131 Co 0.81639 0.35081 0.1815 0.0
O132 O 0.80016 0.35311 0.14685 0.0
C133 C 0.83763 0.29967 0.18959 0.0
C134 C 0.88811 0.30944 0.14004 0.0
C135 C 0.80642 0.34139 0.12516 0.0
O136 O 0.84428 0.29857 0.16542 0.0
O137 O 0.82851 0.32021 0.20049 0.0
O138 O 0.86325 0.36561 0.13351 0.0
O139 O 0.84624 0.357 0.16983 0.0
Co140 Co 0.87505 0.57665 0.43335 0.0
O141 O 0.84995 0.55983 0.45025 0.0
O142 O 0.85821 0.60296 0.45387 0.0
C143 C 0.87018 0.55317 0.39282 0.0
O144 O 0.89896 0.60251 0.4197 0.0
Co145 Co 0.91536 0.54591 0.41003 0.0
O146 O 0.92563 0.58064 0.39746 0.0
C147 C 0.90786 0.55124 0.46819 0.0
C148 C 0.84546 0.58339 0.46071 0.0
C149 C 0.91693 0.60228 0.40606 0.0
O150 O 0.89445 0.5705 0.46561 0.0
O151 O 0.91573 0.53742 0.44849 0.0
O152 O 0.85842 0.57416 0.39845 0.0
O153 O 0.88337 0.54682 0.41175 0.0
Co154 Co 0.86712 0.68308 0.37124 0.0
O155 O 0.89354 0.70098 0.35889 0.0
O156 O 0.88189 0.70495 0.40021 0.0
C157 C 0.8744 0.64304 0.35048 0.0
O158 O 0.84135 0.66736 0.39255 0.0
Co159 Co 0.83023 0.6551 0.3332 0.0
O160 O 0.81891 0.64012 0.36575 0.0
C161 C 0.83478 0.71427 0.33972 0.0
C162 C 0.89671 0.71127 0.38314 0.0
C163 C 0.82498 0.65008 0.38884 0.0
O164 O 0.8485 0.71375 0.35993 0.0
O165 O 0.82738 0.69345 0.32588 0.0
O166 O 0.88395 0.64999 0.37356 0.0
O167 O 0.86175 0.66037 0.34071 0.0
Co168 Co 0.6832 0.32972 0.8795 0.0
O169 O 0.69637 0.31648 0.91164 0.0
O170 O 0.70125 0.35754 0.89919 0.0
C171 C 0.64854 0.3114 0.88304 0.0
O172 O 0.67269 0.35144 0.84843 0.0
Co173 Co 0.66507 0.29161 0.83222 0.0
O174 O 0.65625 0.32464 0.81561 0.0
C175 C 0.71271 0.29429 0.84777 0.0
C176 C 0.70636 0.33974 0.91587 0.0
C177 C 0.6623 0.3478 0.82558 0.0
O178 O 0.71007 0.31724 0.85994 0.0
O179 O 0.69637 0.27968 0.83778 0.0
O180 O 0.65402 0.33408 0.89599 0.0
O181 O 0.66429 0.29999 0.87032 0.0
Co182 Co 0.92074 0.92312 0.86961 0.0
O183 O 0.94801 0.91383 0.85169 0.0
O184 O 0.92627 0.88555 0.87175 0.0
C185 C 0.90814 0.94974 0.83788 0.0
O186 O 0.89149 0.92368 0.89016 0.0
Co187 Co 0.90853 0.98081 0.88867 0.0
O188 O 0.88004 0.96523 0.90032 0.0
C189 C 0.94795 0.95426 0.91009 0.0
C190 C 0.94451 0.88982 0.85921 0.0
C191 C 0.87737 0.94 0.90055 0.0
O192 O 0.93865 0.93146 0.90327 0.0
O193 O 0.93948 0.97626 0.9039 0.0
O194 O 0.90499 0.9239 0.83463 0.0
O195 O 0.91913 0.95816 0.85919 0.0
Co196 Co 0.87356 0.19295 0.63078 0.0
O197 O 0.89588 0.17985 0.65542 0.0
O198 O 0.86874 0.15536 0.63475 0.0
C199 C 0.89779 0.21921 0.60882 0.0
O200 O 0.84721 0.19653 0.60457 0.0
Co201 Co 0.86086 0.2514 0.62549 0.0
O202 O 0.83802 0.23852 0.59788 0.0
C203 C 0.8554 0.22442 0.67546 0.0
C204 C 0.88515 0.1569 0.65217 0.0
C205 C 0.83478 0.21345 0.59351 0.0
O206 O 0.85454 0.20175 0.66206 0.0
O207 O 0.86028 0.24631 0.66492 0.0
O208 O 0.8955 0.19371 0.60197 0.0
O209 O 0.88569 0.22748 0.62817 0.0
Co210 Co 0.60184 0.11357 0.39566 0.0
O211 O 0.57461 0.11706 0.37442 0.0
O212 O 0.5908 0.1495 0.40053 0.0
C213 C 0.61974 0.09164 0.36187 0.0
O214 O 0.63008 0.1193 0.42012 0.0
Co215 Co 0.62343 0.06041 0.40741 0.0
O216 O 0.6498 0.08208 0.42061 0.0
C217 C 0.58166 0.07663 0.43363 0.0
C218 C 0.57461 0.14172 0.38392 0.0
C219 C 0.64773 0.10684 0.42677 0.0
O220 O 0.58334 0.10042 0.42547 0.0
O221 O 0.59508 0.05808 0.42716 0.0
O222 O 0.61967 0.11754 0.36382 0.0
O223 O 0.60923 0.07999 0.38003 0.0
Co224 Co 0.68479 0.86517 0.12214 0.0
O225 O 0.71288 0.88386 0.11679 0.0
O226 O 0.69346 0.86006 0.08523 0.0
C227 C 0.6708 0.89961 0.14754 0.0
O228 O 0.65474 0.84361 0.11863 0.0
Co229 Co 0.66626 0.85322 0.17749 0.0
O230 O 0.63802 0.84309 0.15804 0.0
C231 C 0.70477 0.82395 0.15568 0.0
C232 C 0.71111 0.87476 0.09199 0.0
C233 C 0.63788 0.83776 0.13292 0.0
O234 O 0.70182 0.83294 0.13238 0.0
O235 O 0.69338 0.83107 0.17595 0.0
O236 O 0.66942 0.89966 0.12158 0.0
O237 O 0.6805 0.87952 0.1567 0.0
Co238 Co 0.88499 0.11087 0.57135 0.0
O239 O 0.86493 0.0827 0.58226 0.0
O240 O 0.89176 0.1031 0.60764 0.0
C241 C 0.85842 0.13415 0.55021 0.0
O242 O 0.90918 0.14008 0.56976 0.0
Co243 Co 0.89399 0.12366 0.51354 0.0
O244 O 0.91744 0.14961 0.5282 0.0
C245 C 0.91109 0.07464 0.53473 0.0
C246 C 0.87612 0.08473 0.60494 0.0
C247 C 0.92115 0.15239 0.55331 0.0
O248 O 0.90653 0.08334 0.55851 0.0
O249 O 0.90514 0.08644 0.51395 0.0
O250 O 0.8614 0.1372 0.57603 0.0
O251 O 0.87063 0.11665 0.53836 0.0
Co252 Co 0.64537 0.1941 0.34282 0.0
O253 O 0.67007 0.17132 0.34985 0.0
O254 O 0.65408 0.19703 0.38061 0.0
C255 C 0.62698 0.16259 0.31513 0.0
O256 O 0.61901 0.21995 0.34374 0.0
Co257 Co 0.63341 0.21054 0.2861 0.0
O258 O 0.60739 0.22754 0.30207 0.0
C259 C 0.67603 0.22755 0.31333 0.0
C260 C 0.66988 0.18063 0.37454 0.0
C261 C 0.60546 0.2306 0.32725 0.0
O262 O 0.66773 0.22308 0.33595 0.0
O263 O 0.66554 0.22196 0.29106 0.0
O264 O 0.62448 0.16309 0.34082 0.0
O265 O 0.64035 0.18079 0.30739 0.0
Co266 Co 0.59576 0.90609 0.08764 0.0
O267 O 0.5677 0.89835 0.10389 0.0
O268 O 0.58993 0.86789 0.08632 0.0
C269 C 0.60659 0.938 0.11976 0.0
O270 O 0.62617 0.90588 0.06928 0.0
Co271 Co 0.6083 0.96184 0.06844 0.0
O272 O 0.63827 0.94765 0.06275 0.0
C273 C 0.57177 0.92824 0.04204 0.0
C274 C 0.57117 0.8734 0.0975 0.0
C275 C 0.64117 0.9226 0.06184 0.0
O276 O 0.57935 0.90761 0.05259 0.0
O277 O 0.57997 0.95187 0.04735 0.0
O278 O 0.60993 0.91293 0.12342 0.0
O279 O 0.59668 0.9426 0.09756 0.0
Co280 Co 0.84216 0.87194 0.84228 0.0
O281 O 0.81413 0.88888 0.84977 0.0
O282 O 0.83555 0.87074 0.87976 0.0
C283 C 0.8545 0.90338 0.8153 0.0
O284 O 0.87225 0.8528 0.84315 0.0
Co285 Co 0.85562 0.85223 0.78499 0.0
O286 O 0.88417 0.84266 0.80177 0.0
C287 C 0.81643 0.82998 0.81121 0.0
C288 C 0.81706 0.88236 0.87421 0.0
C289 C 0.88683 0.84298 0.82704 0.0
O290 O 0.82529 0.83741 0.83413 0.0
O291 O 0.82511 0.83599 0.78929 0.0
O292 O 0.857 0.90748 0.84115 0.0
O293 O 0.84424 0.88151 0.80716 0.0
Co294 Co 0.40933 0.62868 0.06562 0.0
O295 O 0.38907 0.60137 0.07794 0.0
O296 O 0.41597 0.6222 0.1026 0.0
C297 C 0.38249 0.65108 0.04387 0.0
O298 O 0.43408 0.65741 0.0623 0.0
Co299 Co 0.41805 0.63984 0.00734 0.0
O300 O 0.43895 0.66921 0.02057 0.0
C301 C 0.42987 0.58873 0.02936 0.0
C302 C 0.40012 0.60404 0.10069 0.0
C303 C 0.4441 0.67146 0.04536 0.0
O304 O 0.42935 0.59966 0.05315 0.0
O305 O 0.42415 0.60076 0.00863 0.0
O306 O 0.38621 0.65536 0.06941 0.0
O307 O 0.39466 0.63331 0.03238 0.0
Co308 Co 0.16201 0.67181 0.8402 0.0
O309 O 0.18909 0.65438 0.84945 0.0
O310 O 0.16764 0.67527 0.87864 0.0
C311 C 0.14983 0.63851 0.81034 0.0
O312 O 0.1324 0.69186 0.83798 0.0
Co313 Co 0.15333 0.68792 0.78218 0.0
O314 O 0.12404 0.69885 0.79506 0.0
C315 C 0.19051 0.71164 0.81598 0.0
C316 C 0.18592 0.66258 0.87401 0.0
C317 C 0.11933 0.70053 0.81968 0.0
O318 O 0.18005 0.70541 0.83669 0.0
O319 O 0.18341 0.70469 0.7922 0.0
O320 O 0.14626 0.63687 0.83567 0.0
O321 O 0.16122 0.65924 0.80439 0.0
Co322 Co 0.12462 0.41083 0.56109 0.0
O323 O 0.09782 0.40425 0.58042 0.0
O324 O 0.11337 0.37416 0.55354 0.0
C325 C 0.14251 0.43345 0.59652 0.0
O326 O 0.15279 0.40971 0.53808 0.0
Co327 Co 0.14223 0.46812 0.55239 0.0
O328 O 0.16889 0.45069 0.53863 0.0
C329 C 0.09892 0.44736 0.52933 0.0
C330 C 0.09703 0.38028 0.56911 0.0
C331 C 0.16891 0.42576 0.53219 0.0
O332 O 0.10534 0.42332 0.5313 0.0
O333 O 0.11067 0.46779 0.53834 0.0
O334 O 0.14279 0.40747 0.59397 0.0
O335 O 0.13127 0.44432 0.57821 0.0
Co336 Co 0.15228 0.3518 0.64949 0.0
O337 O 0.17936 0.37225 0.64376 0.0
O338 O 0.16277 0.34394 0.61361 0.0
C339 C 0.13475 0.38702 0.66936 0.0
O340 O 0.1238 0.32777 0.64661 0.0
Co341 Co 0.13316 0.34456 0.70514 0.0
O342 O 0.10722 0.3265 0.68604 0.0
C343 C 0.17544 0.31985 0.6895 0.0
C344 C 0.17908 0.361 0.61974 0.0
C345 C 0.10766 0.32017 0.6611 0.0
O346 O 0.17085 0.3228 0.6646 0.0
O347 O 0.16361 0.32967 0.70834 0.0
O348 O 0.13456 0.38348 0.64346 0.0
O349 O 0.14571 0.36993 0.68198 0.0
Co350 Co 0.35579 0.67251 0.14165 0.0
O351 O 0.37155 0.66182 0.1733 0.0
O352 O 0.3467 0.63667 0.14916 0.0
C353 C 0.38596 0.69094 0.12311 0.0
O354 O 0.33556 0.67503 0.10824 0.0
Co355 Co 0.35244 0.73111 0.12551 0.0
O356 O 0.33397 0.71656 0.09436 0.0
C357 C 0.32929 0.71243 0.17247 0.0
C358 C 0.36031 0.63928 0.16976 0.0
C359 C 0.32793 0.69199 0.09225 0.0
O360 O 0.3321 0.68793 0.16459 0.0
O361 O 0.33805 0.73215 0.16114 0.0
O362 O 0.38229 0.66522 0.12071 0.0
O363 O 0.3722 0.70422 0.13748 0.0
Co364 Co 0.62649 0.57682 0.60337 0.0
O365 O 0.65296 0.56422 0.58598 0.0
O366 O 0.64213 0.60597 0.58745 0.0
C367 C 0.63197 0.55424 0.64076 0.0
O368 O 0.60012 0.59784 0.61891 0.0
Co369 Co 0.58827 0.53804 0.61888 0.0
O370 O 0.57425 0.57033 0.63503 0.0
C371 C 0.59958 0.54479 0.56274 0.0
C372 C 0.65626 0.58842 0.57894 0.0
C373 C 0.58154 0.59367 0.63068 0.0
O374 O 0.60901 0.5676 0.56931 0.0
O375 O 0.59273 0.52878 0.57981 0.0
O376 O 0.64217 0.57715 0.63853 0.0
O377 O 0.61996 0.54557 0.62033 0.0
Co378 Co 0.929 0.38674 0.12837 0.0
O379 O 0.90375 0.40345 0.11183 0.0
O380 O 0.91333 0.36205 0.10226 0.0
C381 C 0.92197 0.40306 0.17127 0.0
O382 O 0.95324 0.36112 0.13986 0.0
Co383 Co 0.96769 0.41662 0.16091 0.0
O384 O 0.97953 0.38118 0.16742 0.0
C385 C 0.95906 0.42437 0.10358 0.0
C386 C 0.89972 0.38106 0.09791 0.0
C387 C 0.97114 0.36041 0.15466 0.0
O388 O 0.94839 0.40172 0.10039 0.0
O389 O 0.96575 0.43472 0.12648 0.0
O390 O 0.91165 0.38141 0.16106 0.0
O391 O 0.93561 0.41362 0.15547 0.0
Co392 Co 0.63248 0.64078 0.68388 0.0
O393 O 0.60559 0.65714 0.69715 0.0
O394 O 0.61738 0.65912 0.65609 0.0
C395 C 0.62749 0.6013 0.70357 0.0
O396 O 0.65907 0.6276 0.66176 0.0
Co397 Co 0.67125 0.62262 0.72031 0.0
O398 O 0.68619 0.6108 0.68698 0.0
C399 C 0.65744 0.67859 0.72028 0.0
C400 C 0.60304 0.66658 0.67376 0.0
C401 C 0.67815 0.61656 0.6644 0.0
O402 O 0.64946 0.67429 0.69637 0.0
O403 O 0.66447 0.65993 0.73428 0.0
O404 O 0.61715 0.60503 0.68097 0.0
O405 O 0.63933 0.62136 0.71347 0.0
Co406 Co 0.39018 0.42454 0.40263 0.0
O407 O 0.41634 0.4178 0.38172 0.0
O408 O 0.39969 0.38809 0.40559 0.0
C409 C 0.37253 0.4469 0.37064 0.0
O410 O 0.36258 0.42289 0.42614 0.0
Co411 Co 0.37503 0.48106 0.41986 0.0
O412 O 0.34852 0.4635 0.43413 0.0
C413 C 0.41821 0.46095 0.43769 0.0
C414 C 0.416 0.39396 0.3903 0.0
C415 C 0.34766 0.43836 0.43615 0.0
O416 O 0.41019 0.43705 0.43361 0.0
O417 O 0.40733 0.48135 0.43147 0.0
O418 O 0.3714 0.42097 0.37002 0.0
O419 O 0.38462 0.45818 0.38992 0.0
Co420 Co 0.08549 0.62821 0.89939 0.0
O421 O 0.05619 0.63369 0.88375 0.0
O422 O 0.07722 0.6653 0.90518 0.0
C423 C 0.09711 0.60295 0.86354 0.0
O424 O 0.11687 0.63129 0.91783 0.0
Co425 Co 0.10438 0.57239 0.90919 0.0
O426 O 0.1333 0.59156 0.91608 0.0
C427 C 0.06914 0.59529 0.94329 0.0
C428 C 0.05862 0.65861 0.89229 0.0
C429 C 0.13396 0.61666 0.92168 0.0
O430 O 0.07115 0.61831 0.93348 0.0
O431 O 0.07968 0.57469 0.93505 0.0
O432 O 0.09824 0.6289 0.86351 0.0
O433 O 0.08874 0.59358 0.88437 0.0
Co434 Co 0.37201 0.36772 0.31554 0.0
O435 O 0.34461 0.38636 0.32231 0.0
O436 O 0.36282 0.36371 0.3518 0.0
C437 C 0.38794 0.4011 0.29304 0.0
O438 O 0.4004 0.34572 0.31748 0.0
Co439 Co 0.38838 0.35132 0.25964 0.0
O440 O 0.41491 0.33681 0.27731 0.0
C441 C 0.34546 0.33191 0.27906 0.0
C442 C 0.34541 0.37729 0.34598 0.0
C443 C 0.41543 0.33529 0.30251 0.0
O444 O 0.35364 0.33554 0.30289 0.0
O445 O 0.35612 0.33898 0.25881 0.0
O446 O 0.38931 0.40179 0.31904 0.0
O447 O 0.37696 0.38082 0.28187 0.0
C448 C 0.07564 0.04174 0.04384 0.0
C449 C 0.07955 0.02975 0.06785 0.0
C450 C 0.07411 0.026 0.01987 0.0
C451 C 0.06818 0.98913 0.97071 0.0
H452 H 0.02593 0.93369 0.98843 0.0
C453 C 0.98129 0.93162 0.92847 0.0
C454 C 0.97045 0.95519 0.92274 0.0
C455 C 1.00316 0.93282 0.93886 0.0
C456 C 0.03817 0.94837 0.98276 0.0
H457 H 0.08836 0.9932 0.08574 0.0
H458 H 0.08652 0.96584 0.04381 0.0
H459 H 0.05294 0.95144 0.02177 0.0
H460 H 0.97432 0.99836 0.92277 0.0
H461 H 0.01198 1.0004 0.94121 0.0
H462 H 0.05152 0.98767 0.93237 0.0
C463 C 0.08365 0.98702 0.0434 0.0
C464 C 0.0538 0.95866 1.00196 0.0
C465 C 0.08459 1.00261 0.06738 0.0
C466 C 0.98204 0.97982 0.92714 0.0
C467 C 1.00384 0.98097 0.93722 0.0
C468 C 0.05242 0.97889 0.95151 0.0
C469 C 0.0769 0.99816 0.01965 0.0
C470 C 0.0677 0.98067 0.99682 0.0
C471 C 0.0146 0.95755 0.94335 0.0
C472 C 0.03617 0.96 0.95822 0.0
H473 H 0.07202 0.06277 0.04385 0.0
H474 H 0.06877 0.03534 1.00202 0.0
H475 H 0.07918 0.00546 0.96588 0.0
H476 H 0.97291 0.91228 0.92496 0.0
H477 H 0.01105 0.91452 0.94371 0.0
C478 C 0.30947 0.74486 0.20221 0.0
C479 C 0.31514 0.71839 0.19543 0.0
C480 C 0.29528 0.75064 0.22304 0.0
C481 C 0.24974 0.71989 0.257 0.0
H482 H 0.25288 0.78795 0.29833 0.0
C483 C 0.19264 0.78868 0.33249 0.0
C484 C 0.17217 0.78452 0.31834 0.0
C485 C 0.21209 0.77842 0.32198 0.0
C486 C 0.25189 0.76864 0.28735 0.0
H487 H 0.31134 0.6773 0.2061 0.0
H488 H 0.28648 0.68753 0.24278 0.0
H489 H 0.28526 0.77281 0.2742 0.0
H490 H 0.15608 0.76722 0.28179 0.0
H491 H 0.19015 0.75018 0.26298 0.0
H492 H 0.21638 0.71573 0.27008 0.0
C493 C 0.29283 0.70371 0.23163 0.0
C494 C 0.27036 0.76009 0.27335 0.0
C495 C 0.30701 0.69788 0.21062 0.0
C496 C 0.1716 0.77058 0.2932 0.0
C497 C 0.19107 0.76056 0.28259 0.0
C498 C 0.23136 0.7283 0.27121 0.0
C499 C 0.28654 0.7301 0.2377 0.0
C500 C 0.26912 0.73619 0.25714 0.0
C501 C 0.21144 0.76403 0.29704 0.0
C502 C 0.23197 0.75326 0.2856 0.0
H503 H 0.31547 0.76117 0.19098 0.0
H504 H 0.2904 0.77111 0.22686 0.0
H505 H 0.24823 0.7014 0.24462 0.0
H506 H 0.19356 0.79912 0.35209 0.0
H507 H 0.22753 0.78128 0.33361 0.0
C508 C 0.46645 0.919 0.52489 0.0
C509 C 0.44376 0.92191 0.52965 0.0
C510 C 0.47718 0.93512 0.50731 0.0
C511 C 0.49706 0.96977 0.46697 0.0
H512 H 0.48469 0.04406 0.48572 0.0
C513 C 0.54048 0.07406 0.4399 0.0
C514 C 0.56219 0.06833 0.44864 0.0
C515 C 0.52222 0.0585 0.44749 0.0
C516 C 0.48807 0.02342 0.47998 0.0
H517 H 0.41401 0.94249 0.51873 0.0
H518 H 0.43271 0.97066 0.48754 0.0
H519 H 0.45891 0.00876 0.49855 0.0
H520 H 0.58162 0.04412 0.47429 0.0
H521 H 0.54991 0.01738 0.48766 0.0
H522 H 0.52691 0.98439 0.44997 0.0
C523 C 0.44224 0.95593 0.49739 0.0
C524 C 0.47328 0.00319 0.48711 0.0
C525 C 0.43146 0.93953 0.51485 0.0
C526 C 0.56507 0.04887 0.4672 0.0
C527 C 0.54699 0.03342 0.47465 0.0
C528 C 0.51186 0.98991 0.46011 0.0
C529 C 0.46544 0.95477 0.49444 0.0
C530 C 0.47807 0.97608 0.48155 0.0
C531 C 0.52562 0.03717 0.4638 0.0
C532 C 0.5079 0.0168 0.4674 0.0
H533 H 0.47632 0.90599 0.5366 0.0
H534 H 0.49508 0.93381 0.5058 0.0
H535 H 0.50103 0.94917 0.46196 0.0
H536 H 0.53786 0.08875 0.42533 0.0
H537 H 0.5058 0.0618 0.43904 0.0
C538 C 0.26523 0.15738 0.80787 0.0
C539 C 0.28695 0.15949 0.81906 0.0
C540 C 0.25768 0.17603 0.7906 0.0
C541 C 0.2688 0.24366 0.76788 0.0
H542 H 0.22683 0.21757 0.71139 0.0
C543 C 0.20413 0.31007 0.72379 0.0
C544 C 0.195 0.3047 0.69784 0.0
C545 C 0.22042 0.29407 0.73399 0.0
C546 C 0.23889 0.22524 0.7266 0.0
H547 H 0.31768 0.18326 0.82146 0.0
H548 H 0.30457 0.21592 0.79078 0.0
H549 H 0.24536 0.18607 0.73858 0.0
H550 H 0.19704 0.27932 0.6615 0.0
H551 H 0.22597 0.25107 0.67938 0.0
H552 H 0.26251 0.28284 0.75563 0.0
C553 C 0.29327 0.19991 0.79565 0.0
C554 C 0.24924 0.20716 0.7426 0.0
C555 C 0.30077 0.18129 0.81331 0.0
C556 C 0.20366 0.28384 0.68162 0.0
C557 C 0.2201 0.2676 0.69195 0.0
C558 C 0.25866 0.26174 0.75164 0.0
C559 C 0.27174 0.19717 0.78365 0.0
C560 C 0.26358 0.21619 0.76419 0.0
C561 C 0.22825 0.27216 0.71855 0.0
C562 C 0.24282 0.25285 0.73154 0.0
H563 H 0.25411 0.14094 0.81214 0.0
H564 H 0.24075 0.17374 0.78259 0.0
H565 H 0.27983 0.2514 0.78415 0.0
H566 H 0.1981 0.32625 0.73674 0.0
H567 H 0.22593 0.29812 0.75461 0.0
C568 C 0.08253 0.98016 0.48872 0.0
C569 C 0.08492 0.95523 0.47503 0.0
C570 C 0.06181 0.98753 0.49823 0.0
C571 C 1.00159 0.97064 0.48894 0.0
H572 H 0.99831 0.01823 0.55254 0.0
C573 C 0.93116 0.0422 0.50514 0.0
C574 C 0.92565 0.05153 0.53103 0.0
C575 C 0.94777 0.02369 0.50132 0.0
C576 C 0.99878 0.0044 0.53511 0.0
H577 H 0.06772 0.91807 0.46114 0.0
H578 H 0.03189 0.93052 0.4784 0.0
H579 H 0.0338 0.99948 0.54058 0.0
H580 H 0.93176 0.0468 0.57327 0.0
H581 H 0.96064 0.01396 0.5665 0.0
H582 H 0.96652 0.97525 0.48369 0.0
C583 C 0.04572 0.94482 0.48111 0.0
C584 C 0.01925 0.99408 0.52794 0.0
C585 C 0.06629 0.93769 0.47118 0.0
C586 C 0.93584 0.04028 0.55305 0.0
C587 C 0.95245 0.02157 0.54919 0.0
C588 C 0.98107 0.98061 0.49634 0.0
C589 C 0.04318 0.96985 0.49468 0.0
C590 C 0.02104 0.97791 0.50423 0.0
C591 C 0.95915 0.01385 0.52328 0.0
C592 C 0.9796 0.99849 0.51888 0.0
H593 H 0.09664 0.99403 0.49195 0.0
H594 H 0.06036 0.00721 0.50806 0.0
H595 H 1.00228 0.95828 0.47052 0.0
H596 H 0.92349 0.05019 0.4877 0.0
H597 H 0.9526 0.01847 0.48107 0.0
C598 C 0.36138 0.74857 0.73105 0.0
C599 C 0.34751 0.75666 0.71029 0.0
C600 C 0.35308 0.73101 0.74907 0.0
C601 C 0.30263 0.69351 0.76798 0.0
H602 H 0.29804 0.75168 0.82223 0.0
C603 C 0.22791 0.70884 0.83775 0.0
C604 C 0.2139 0.72089 0.81934 0.0
C605 C 0.25092 0.70874 0.8343 0.0
C606 C 0.29969 0.73474 0.80799 0.0
H607 H 0.31573 0.7502 0.68936 0.0
H608 H 0.30144 0.71875 0.72006 0.0
H609 H 0.32976 0.75074 0.79295 0.0
H610 H 0.21297 0.74525 0.78532 0.0
H611 H 0.25331 0.7463 0.7802 0.0
H612 H 0.27134 0.67906 0.78156 0.0
C613 C 0.3186 0.72588 0.72274 0.0
C614 C 0.31785 0.73407 0.79125 0.0
C615 C 0.32672 0.74388 0.70509 0.0
C616 C 0.22342 0.73588 0.79976 0.0
C617 C 0.24641 0.73639 0.7968 0.0
C618 C 0.2847 0.69392 0.78508 0.0
C619 C 0.33098 0.72125 0.74613 0.0
C620 C 0.31854 0.71457 0.76984 0.0
C621 C 0.26007 0.72154 0.81305 0.0
C622 C 0.28246 0.71551 0.80393 0.0
H623 H 0.37742 0.75855 0.73548 0.0
H624 H 0.36289 0.72772 0.76694 0.0
H625 H 0.30276 0.6784 0.75157 0.0
H626 H 0.22098 0.69704 0.85296 0.0
H627 H 0.26128 0.69709 0.8469 0.0
C628 C 0.45388 0.05969 0.98673 0.0
C629 C 0.43559 0.05848 0.96878 0.0
C630 C 0.45779 0.03838 0.0026 0.0
C631 C 0.45638 0.97019 0.98643 0.0
H632 H 0.48773 0.96731 0.05463 0.0
C633 C 0.54509 0.94211 0.00734 0.0
C634 C 0.54985 0.92588 0.02831 0.0
C635 C 0.52303 0.94723 1.00047 0.0
C636 C 0.47846 0.96732 0.0358 0.0
H637 H 0.40582 0.03593 0.95492 0.0
H638 H 0.41297 0.99825 0.98219 0.0
H639 H 0.46086 1.00233 0.04839 0.0
H640 H 0.53557 0.90038 0.05706 0.0
H641 H 0.49692 0.91057 0.04587 0.0
H642 H 0.47625 0.93748 0.97278 0.0
C643 C 0.42398 0.01576 0.9845 0.0
C644 C 0.46317 0.98736 0.03226 0.0
C645 C 0.41988 0.0373 0.96902 0.0
C646 C 0.53227 0.91276 0.04058 0.0
C647 C 0.51019 0.9186 0.03431 0.0
C648 C 0.47204 0.95057 0.9898 0.0
C649 C 0.44372 0.01542 1.00007 0.0
C650 C 0.45293 0.98977 0.00712 0.0
C651 C 0.50555 0.9368 0.01502 0.0
C652 C 0.48396 0.9499 0.01409 0.0
H653 H 0.46636 0.07567 0.98641 0.0
H654 H 0.47327 0.03848 0.01424 0.0
H655 H 0.44889 0.97181 0.96674 0.0
H656 H 0.55839 0.95255 0.99779 0.0
H657 H 0.51977 0.96157 0.9857 0.0
C658 C 0.31229 0.32004 0.24931 0.0
C659 C 0.32174 0.32375 0.27522 0.0
C660 C 0.28939 0.31583 0.24541 0.0
C661 C 0.24206 0.28719 0.27642 0.0
H662 H 0.21205 0.31099 0.21317 0.0
C663 C 0.18067 0.21689 0.22669 0.0
C664 C 0.18828 0.21036 0.20103 0.0
C665 C 0.18539 0.24212 0.23907 0.0
C666 C 0.21996 0.30447 0.23118 0.0
H667 H 0.31446 0.326 0.31746 0.0
H668 H 0.27437 0.31793 0.31051 0.0
H669 H 0.24616 0.33419 0.23066 0.0
H670 H 0.2041 0.22535 0.16669 0.0
H671 H 0.21361 0.26892 0.18859 0.0
H672 H 0.21741 0.25607 0.27583 0.0
C673 C 0.28479 0.31854 0.29328 0.0
C674 C 0.23949 0.3177 0.24114 0.0
C675 C 0.30777 0.32282 0.29721 0.0
C676 C 0.19823 0.23013 0.18659 0.0
C677 C 0.20347 0.2552 0.19919 0.0
C678 C 0.22265 0.27391 0.26643 0.0
C679 C 0.27539 0.3152 0.26731 0.0
C680 C 0.25154 0.30785 0.26263 0.0
C681 C 0.19861 0.26068 0.2263 0.0
C682 C 0.2124 0.2811 0.24245 0.0
H683 H 0.32253 0.3207 0.23193 0.0
H684 H 0.28273 0.31248 0.22517 0.0
H685 H 0.25089 0.27925 0.29313 0.0
H686 H 0.1726 0.20182 0.23791 0.0
H687 H 0.1808 0.24602 0.25964 0.0
C688 C 0.44323 0.55025 1.0013 0.0
C689 C 0.43514 0.56035 0.02569 0.0
C690 C 0.44651 0.52305 0.99675 0.0
C691 C 0.44673 0.46433 0.98605 0.0
H692 H 0.47926 0.43269 0.04307 0.0
C693 C 0.5151 0.39301 0.95976 0.0
C694 C 0.5351 0.40216 0.97294 0.0
C695 C 0.49457 0.40087 0.96971 0.0
C696 C 0.46997 0.44105 0.02694 0.0
H697 H 0.42336 0.54998 0.06425 0.0
H698 H 0.42881 0.50213 0.05617 0.0
H699 H 0.45784 0.47206 0.05315 0.0
H700 H 0.54918 0.42511 0.00788 0.0
H701 H 0.51408 0.43949 0.02436 0.0
H702 H 0.46138 0.43564 0.95934 0.0
C703 C 0.43304 0.5153 0.04072 0.0
C704 C 0.45744 0.46354 0.03278 0.0
C705 C 0.4301 0.54271 0.04544 0.0
C706 C 0.53415 0.41792 0.99697 0.0
C707 C 0.51381 0.4258 0.00677 0.0
C708 C 0.45981 0.44235 0.98011 0.0
C709 C 0.44136 0.50515 0.01631 0.0
C710 C 0.44727 0.47672 0.012 0.0
C711 C 0.49376 0.41805 0.99293 0.0
C712 C 0.47315 0.43207 1.00024 0.0
H713 H 0.44721 0.56343 0.98574 0.0
H714 H 0.45368 0.51624 0.97807 0.0
H715 H 0.43806 0.47323 0.96978 0.0
H716 H 0.51528 0.38036 0.94146 0.0
H717 H 0.47943 0.39433 0.9587 0.0
C718 C 0.83218 0.25064 0.19437 0.0
C719 C 0.83846 0.27613 0.20553 0.0
C720 C 0.82466 0.2311 0.21097 0.0
C721 C 0.8055 0.22638 0.2821 0.0
H722 H 0.74924 0.21288 0.2434 0.0
C723 C 0.71538 0.21942 0.32652 0.0
C724 C 0.69999 0.23382 0.31191 0.0
C725 C 0.73732 0.21705 0.31804 0.0
C726 C 0.76489 0.21637 0.25453 0.0
H727 H 0.84647 0.2996 0.2424 0.0
H728 H 0.8328 0.26662 0.27095 0.0
H729 H 0.78303 0.21515 0.21898 0.0
H730 H 0.69589 0.25963 0.27935 0.0
H731 H 0.73422 0.25641 0.26523 0.0
H732 H 0.78629 0.23011 0.31759 0.0
C733 C 0.83325 0.26102 0.24981 0.0
C734 C 0.78451 0.21718 0.24053 0.0
C735 C 0.84092 0.28028 0.23334 0.0
C736 C 0.70744 0.24834 0.29083 0.0
C737 C 0.72925 0.24615 0.28254 0.0
C738 C 0.78567 0.22588 0.29615 0.0
C739 C 0.82283 0.23726 0.23866 0.0
C740 C 0.80491 0.22445 0.2539 0.0
C741 C 0.74394 0.22918 0.29501 0.0
C742 C 0.76514 0.22279 0.28213 0.0
H743 H 0.83069 0.24676 0.17291 0.0
H744 H 0.81785 0.21243 0.20175 0.0
H745 H 0.82101 0.23084 0.29322 0.0
H746 H 0.70995 0.20783 0.34273 0.0
H747 H 0.74849 0.20415 0.32816 0.0
C748 C 0.05858 0.43321 0.52695 0.0
C749 C 0.07547 0.45206 0.52189 0.0
C750 C 0.03635 0.44087 0.52826 0.0
C751 C 0.9897 0.46491 0.51585 0.0
H752 H 0.98362 0.53126 0.55891 0.0
C753 C 0.91102 0.51966 0.50324 0.0
C754 C 0.91637 0.54495 0.4945 0.0
C755 C 0.92639 0.50665 0.51882 0.0
C756 C 0.98495 0.5126 0.54705 0.0
H757 H 0.08208 0.49273 0.51146 0.0
H758 H 0.04345 0.50588 0.51356 0.0
H759 H 0.01961 0.50982 0.55733 0.0
H760 H 0.94017 0.5781 0.49788 0.0
H761 H 0.96709 0.55564 0.52478 0.0
H762 H 0.95567 0.46857 0.50377 0.0
C763 C 0.04744 0.48548 0.51719 0.0
C764 C 1.00553 0.50038 0.54611 0.0
C765 C 0.06948 0.47784 0.51568 0.0
C766 C 0.93563 0.55872 0.50475 0.0
C767 C 0.95112 0.54564 0.52009 0.0
C768 C 0.96914 0.47728 0.51653 0.0
C769 C 0.03088 0.46744 0.52466 0.0
C770 C 0.00827 0.47712 0.52956 0.0
C771 C 0.94742 0.51866 0.52533 0.0
C772 C 0.96681 0.50196 0.53116 0.0
H773 H 0.06268 0.41323 0.532 0.0
H774 H 0.02372 0.42656 0.53369 0.0
H775 H 0.99144 0.44692 0.50305 0.0
H776 H 0.89624 0.50868 0.49533 0.0
H777 H 0.92278 0.48616 0.52319 0.0
C778 C 0.84195 0.75205 0.31193 0.0
C779 C 0.82784 0.73957 0.32952 0.0
C780 C 0.83287 0.76584 0.29097 0.0
C781 C 0.78951 0.7518 0.2455 0.0
H782 H 0.7851 0.82442 0.22451 0.0
C783 C 0.72047 0.78524 0.17652 0.0
C784 C 0.72391 0.80743 0.16142 0.0
C785 C 0.73786 0.77582 0.19198 0.0
C786 C 0.78668 0.80394 0.2297 0.0
H787 H 0.79369 0.73421 0.34109 0.0
H788 H 0.7779 0.75871 0.30495 0.0
H789 H 0.80646 0.81551 0.26524 0.0
H790 H 0.7485 0.83585 0.14871 0.0
H791 H 0.77921 0.81914 0.17557 0.0
H792 H 0.76958 0.74 0.21056 0.0
C793 C 0.79586 0.75781 0.30724 0.0
C794 C 0.79872 0.79897 0.25312 0.0
C795 C 0.80491 0.74412 0.32811 0.0
C796 C 0.74556 0.81838 0.15985 0.0
C797 C 0.76301 0.80913 0.17561 0.0
C798 C 0.7777 0.75668 0.22208 0.0
C799 C 0.80967 0.76727 0.28762 0.0
C800 C 0.79958 0.77295 0.26153 0.0
C801 C 0.75903 0.78862 0.19286 0.0
C802 C 0.77547 0.7829 0.21434 0.0
H803 H 0.85963 0.74822 0.31223 0.0
H804 H 0.84376 0.77287 0.27591 0.0
H805 H 0.79025 0.7315 0.25154 0.0
H806 H 0.70382 0.77679 0.17837 0.0
H807 H 0.73407 0.76013 0.2051 0.0
C808 C 0.86282 0.2455 0.72099 0.0
C809 C 0.85159 0.2257 0.70429 0.0
C810 C 0.85763 0.24914 0.74779 0.0
C811 C 0.82134 0.22361 0.8004 0.0
H812 H 0.80691 0.29836 0.8098 0.0
C813 C 0.75435 0.30009 0.85282 0.0
C814 C 0.73543 0.28417 0.84477 0.0
C815 C 0.77569 0.29094 0.84764 0.0
C816 C 0.81135 0.27757 0.80829 0.0
H817 H 0.82766 0.19257 0.70277 0.0
H818 H 0.81751 0.19983 0.74936 0.0
H819 H 0.83325 0.28447 0.77679 0.0
H820 H 0.72413 0.24524 0.82729 0.0
H821 H 0.76091 0.22981 0.81764 0.0
H822 H 0.7979 0.21671 0.83073 0.0
C823 C 0.83075 0.21219 0.74202 0.0
C824 C 0.82654 0.2695 0.78918 0.0
C825 C 0.83631 0.2082 0.71525 0.0
C826 C 0.73831 0.25827 0.8333 0.0
C827 C 0.75952 0.24917 0.82819 0.0
C828 C 0.80613 0.23173 0.81963 0.0
C829 C 0.84071 0.23345 0.75827 0.0
C830 C 0.83057 0.24224 0.78382 0.0
C831 C 0.77842 0.26572 0.83442 0.0
C832 C 0.79985 0.25854 0.82238 0.0
H833 H 0.87521 0.25875 0.71314 0.0
H834 H 0.86598 0.26524 0.75993 0.0
H835 H 0.8246 0.20255 0.79721 0.0
H836 H 0.7527 0.31994 0.86221 0.0
H837 H 0.78999 0.30404 0.85288 0.0
C838 C 0.78034 0.81863 0.83249 0.0
C839 C 0.79356 0.81842 0.80974 0.0
C840 C 0.75749 0.81244 0.82987 0.0
C841 C 0.71117 0.81035 0.78054 0.0
H842 H 0.69118 0.74506 0.81046 0.0
C843 C 0.66873 0.72656 0.72001 0.0
C844 C 0.65854 0.70573 0.73279 0.0
C845 C 0.67514 0.75019 0.73475 0.0
C846 C 0.69585 0.76389 0.80252 0.0
H847 H 0.79335 0.81022 0.7667 0.0
H848 H 0.75381 0.79946 0.76232 0.0
H849 H 0.72454 0.7683 0.82882 0.0
H850 H 0.64373 0.69421 0.76931 0.0
H851 H 0.65412 0.73586 0.79484 0.0
H852 H 0.68342 0.80491 0.7529 0.0
C853 C 0.76097 0.80505 0.78202 0.0
C854 C 0.7151 0.77714 0.81311 0.0
C855 C 0.78369 0.81082 0.78461 0.0
C856 C 0.65211 0.70998 0.75933 0.0
C857 C 0.65803 0.73378 0.77389 0.0
C858 C 0.69178 0.79724 0.77007 0.0
C859 C 0.74761 0.80639 0.80448 0.0
C860 C 0.72376 0.79922 0.80081 0.0
C861 C 0.67111 0.75328 0.76232 0.0
C862 C 0.685 0.77267 0.77954 0.0
H863 H 0.78743 0.82456 0.85213 0.0
H864 H 0.74747 0.813 0.84749 0.0
H865 H 0.71745 0.82774 0.77111 0.0
H866 H 0.67366 0.72363 0.69946 0.0
H867 H 0.68523 0.76471 0.72509 0.0
C868 C 0.45089 0.49107 0.45044 0.0
C869 C 0.44202 0.46501 0.44532 0.0
C870 C 0.47382 0.4957 0.45288 0.0
C871 C 0.52274 0.5018 0.44258 0.0
H872 H 0.55411 0.46504 0.49702 0.0
C873 C 0.58147 0.55239 0.5191 0.0
C874 C 0.5949 0.53672 0.53462 0.0
C875 C 0.57046 0.54086 0.49616 0.0
C876 C 0.54608 0.47504 0.48103 0.0
H877 H 0.45032 0.42321 0.43953 0.0
H878 H 0.49059 0.4314 0.44458 0.0
H879 H 0.51765 0.44853 0.48105 0.0
H880 H 0.61052 0.49854 0.53671 0.0
H881 H 0.59213 0.47868 0.49597 0.0
H882 H 0.55066 0.52933 0.44381 0.0
C883 C 0.47964 0.44819 0.44632 0.0
C884 C 0.52502 0.46555 0.472 0.0
C885 C 0.4566 0.44352 0.44375 0.0
C886 C 0.59987 0.51077 0.52506 0.0
C887 C 0.5893 0.49943 0.50184 0.0
C888 C 0.5439 0.51124 0.45152 0.0
C889 C 0.48843 0.47439 0.45035 0.0
C890 C 0.51264 0.47983 0.45397 0.0
C891 C 0.57302 0.51361 0.4885 0.0
C892 C 0.55515 0.49895 0.47211 0.0
H893 H 0.44015 0.50807 0.45186 0.0
H894 H 0.48012 0.51603 0.45687 0.0
H895 H 0.51367 0.51274 0.42809 0.0
H896 H 0.57751 0.57249 0.52623 0.0
H897 H 0.55809 0.55248 0.4864 0.0
C898 C 0.02986 0.58752 0.95464 0.0
C899 C 0.0523 0.5906 0.96313 0.0
C900 C 0.01479 0.57328 0.96951 0.0
C901 C 1.00542 0.54523 0.03419 0.0
H902 H 0.97996 0.48322 0.99274 0.0
C903 C 0.95364 0.46767 0.08449 0.0
C904 C 0.96141 0.44159 0.0812 0.0
C905 C 0.96009 0.48699 0.06737 0.0
C906 C 0.98686 0.50051 0.00449 0.0
H907 H 0.07644 0.58292 0.99427 0.0
H908 H 0.04992 0.55926 0.02101 0.0
H909 H 0.99963 0.51839 0.97017 0.0
H910 H 0.98074 0.41453 0.05652 0.0
H911 H 0.99223 0.44864 0.02614 0.0
H912 H 0.99324 0.52722 0.06855 0.0
C913 C 0.04394 0.56762 0.00287 0.0
C914 C 0.99789 0.52073 0.9916 0.0
C915 C 0.05907 0.58133 0.98774 0.0
C916 C 0.9744 0.43449 0.05922 0.0
C917 C 0.98097 0.454 0.04196 0.0
C918 C 0.99414 0.52527 0.04699 0.0
C919 C 0.02195 0.56237 0.99325 0.0
C920 C 0.00759 0.54304 0.00642 0.0
C921 C 0.97461 0.48068 0.04666 0.0
C922 C 0.98503 0.50251 0.03234 0.0
H923 H 0.02447 0.59394 0.93536 0.0
H924 H 0.99789 0.56959 0.96177 0.0
H925 H 0.01283 0.56215 0.04605 0.0
H926 H 0.94351 0.47351 0.10131 0.0
H927 H 0.95462 0.50723 0.07116 0.0
C928 C 0.10434 0.05603 0.22267 0.0
C929 C 0.10361 0.04642 0.19572 0.0
C930 C 0.10529 0.03798 0.2431 0.0
C931 C 0.12294 0.97019 0.25599 0.0
H932 H 0.07636 0.96678 0.30767 0.0
C933 C 0.12155 0.89002 0.3334 0.0
C934 C 0.10158 0.87478 0.33377 0.0
C935 C 0.12257 0.91352 0.31993 0.0
C936 C 0.08954 0.96759 0.29343 0.0
H937 H 0.10425 0.01063 0.16914 0.0
H938 H 0.10665 0.97982 0.20423 0.0
H939 H 0.07811 0.00419 0.27837 0.0
H940 H 0.06674 0.87299 0.32132 0.0
H941 H 0.06811 0.91547 0.29948 0.0
H942 H 0.13434 0.93368 0.27061 0.0
C943 C 0.1061 1.00099 0.20982 0.0
C944 C 0.09068 0.98913 0.27689 0.0
C945 C 0.10464 0.01874 0.18969 0.0
C946 C 0.0823 0.88447 0.32165 0.0
C947 C 0.08311 0.90875 0.30914 0.0
C948 C 0.12211 0.94907 0.27283 0.0
C949 C 0.10626 0.01023 0.23677 0.0
C950 C 0.1071 0.9903 0.25753 0.0
C951 C 0.10341 0.92324 0.30757 0.0
C952 C 0.1051 0.94712 0.29134 0.0
H953 H 0.10347 0.07724 0.22789 0.0
H954 H 0.10534 0.04565 0.26375 0.0
H955 H 0.13576 0.9705 0.24125 0.0
H956 H 0.13683 0.88289 0.34206 0.0
H957 H 0.13856 0.92375 0.31864 0.0
C958 C 0.33719 0.88772 0.52992 0.0
C959 C 0.35033 0.86842 0.54132 0.0
C960 C 0.31829 0.88011 0.51385 0.0
C961 C 0.27619 0.82504 0.50037 0.0
H962 H 0.26313 0.86158 0.43644 0.0
C963 C 0.19535 0.79871 0.43532 0.0
C964 C 0.18519 0.8198 0.42296 0.0
C965 C 0.21667 0.80237 0.44776 0.0
C966 C 0.26614 0.85138 0.45446 0.0
H967 H 0.35366 0.8259 0.54485 0.0
H968 H 0.32048 0.8127 0.5173 0.0
H969 H 0.29714 0.87298 0.46239 0.0
H970 H 0.19007 0.86098 0.41316 0.0
H971 H 0.22606 0.86764 0.43534 0.0
H972 H 0.24483 0.80417 0.49319 0.0
C973 C 0.32487 0.83374 0.52061 0.0
C974 C 0.28586 0.85791 0.46934 0.0
C975 C 0.344 0.84132 0.53631 0.0
C976 C 0.19713 0.84429 0.42274 0.0
C977 C 0.21822 0.84798 0.43514 0.0
C978 C 0.25622 0.81881 0.48574 0.0
C979 C 0.31171 0.85303 0.50916 0.0
C980 C 0.29108 0.84509 0.49268 0.0
C981 C 0.22842 0.82721 0.44809 0.0
C982 C 0.25064 0.83215 0.46268 0.0
H983 H 0.3415 0.90876 0.5334 0.0
H984 H 0.30846 0.89558 0.50565 0.0
H985 H 0.27956 0.81481 0.51831 0.0
H986 H 0.18682 0.77945 0.43549 0.0
H987 H 0.22392 0.78562 0.45698 0.0
C988 C 0.32857 0.03059 0.83117 0.0
C989 C 0.34314 0.04394 0.8504 0.0
C990 C 0.33491 0.00737 0.81667 0.0
C991 C 0.39006 1.00124 0.78902 0.0
H992 H 0.34333 0.9492 0.72937 0.0
C993 C 0.40458 0.94872 0.65967 0.0
C994 C 0.38827 0.93019 0.64882 0.0
C995 C 0.40011 0.96591 0.68188 0.0
C996 C 0.35543 0.96267 0.73968 0.0
H997 H 0.37446 0.04094 0.87223 0.0
H998 H 0.38561 1.00034 0.84687 0.0
H999 H 0.33675 0.95627 0.78 0.0
H1000 H 0.35372 0.91774 0.65017 0.0
H1001 H 0.34527 0.94854 0.68729 0.0
H1002 H 0.40952 0.00657 0.72618 0.0
C1003 C 0.36924 0.00799 0.84282 0.0
C1004 C 0.35178 0.96579 0.77331 0.0
C1005 C 0.36295 0.03144 0.85731 0.0
C1006 C 0.3669 0.93076 0.6591 0.0
C1007 C 0.36221 0.94853 0.6807 0.0
C1008 C 0.39668 0.99754 0.73798 0.0
C1009 C 0.35615 0.99698 0.82074 0.0
C1010 C 0.36717 0.984 0.79705 0.0
C1011 C 0.37912 0.96513 0.69369 0.0
C1012 C 0.37621 0.97673 0.72167 0.0
H1013 H 0.31292 0.0393 0.82569 0.0
H1014 H 0.32422 0.99978 0.80002 0.0
H1015 H 0.39891 0.01273 0.80551 0.0
H1016 H 0.42111 0.94929 0.6516 0.0
H1017 H 0.41369 0.97836 0.6906 0.0
C1018 C 0.26975 0.06541 0.93323 0.0
C1019 C 0.27945 0.08916 0.92486 0.0
C1020 C 0.25626 0.06576 0.9556 0.0
C1021 C 0.21852 0.10917 0.99314 0.0
H1022 H 0.22298 0.05775 0.04715 0.0
C1023 C 0.15757 0.1117 0.08076 0.0
C1024 C 0.15192 0.08778 0.09235 0.0
C1025 C 0.17452 0.11264 0.06215 0.0
C1026 C 0.22099 0.07193 0.032 0.0
H1027 H 0.28283 0.13189 0.93377 0.0
H1028 H 0.25852 0.13265 0.97221 0.0
H1029 H 0.24952 0.05731 0.01143 0.0
H1030 H 0.15982 0.046 0.09326 0.0
H1031 H 0.1885 0.0472 0.06027 0.0
H1032 H 0.18929 0.12284 0.01225 0.0
C1033 C 0.26165 0.11369 0.96166 0.0
C1034 C 0.23651 0.07183 0.0116 0.0
C1035 C 0.27569 0.11324 0.93974 0.0
C1036 C 0.16385 0.06488 0.085 0.0
C1037 C 0.18054 0.06568 0.06604 0.0
C1038 C 0.20259 0.10879 0.01302 0.0
C1039 C 0.25163 0.08997 0.96975 0.0
C1040 C 0.23554 0.09053 0.99198 0.0
C1041 C 0.18614 0.08954 0.05407 0.0
C1042 C 0.20349 0.09017 0.0329 0.0
H1043 H 0.27233 0.04653 0.92221 0.0
H1044 H 0.24872 0.04716 0.96115 0.0
H1045 H 0.21705 0.12358 0.97808 0.0
H1046 H 0.14864 0.12971 0.0857 0.0
H1047 H 0.17844 0.13166 0.0542 0.0
C1048 C 0.16259 0.0512 0.19778 0.0
C1049 C 0.17147 0.07717 0.20404 0.0
C1050 C 0.1614 0.03261 0.21768 0.0
C1051 C 0.15228 0.03045 0.28805 0.0
H1052 H 0.18496 0.9651 0.29092 0.0
C1053 C 0.14037 0.95856 0.37232 0.0
C1054 C 0.15992 0.95081 0.38537 0.0
C1055 C 0.14136 0.9718 0.34867 0.0
C1056 C 0.17571 0.98328 0.29034 0.0
H1057 H 0.18635 0.10356 0.23614 0.0
H1058 H 0.18331 0.07189 0.27035 0.0
H1059 H 0.18713 0.99146 0.25129 0.0
H1060 H 0.19586 0.95044 0.3837 0.0
H1061 H 0.19756 0.97202 0.34106 0.0
H1062 H 0.1408 0.02259 0.32684 0.0
C1063 C 0.17764 0.0657 0.25016 0.0
C1064 C 0.1768 0.99819 0.26759 0.0
C1065 C 0.17939 0.08383 0.23038 0.0
C1066 C 0.18052 0.95586 0.37381 0.0
C1067 C 0.18146 0.9682 0.34946 0.0
C1068 C 0.1508 0.01534 0.31043 0.0
C1069 C 0.16841 0.04003 0.24421 0.0
C1070 C 0.1653 0.02212 0.26642 0.0
C1071 C 0.16188 0.97667 0.33679 0.0
C1072 C 0.16277 0.99179 0.31211 0.0
H1073 H 0.1563 0.04543 0.17775 0.0
H1074 H 0.15434 0.01281 0.21259 0.0
H1075 H 0.14345 0.04896 0.2878 0.0
H1076 H 0.12428 0.95526 0.38099 0.0
H1077 H 0.12598 0.97806 0.33953 0.0
C1078 C 0.32454 0.83596 0.60928 0.0
C1079 C 0.32811 0.85561 0.63037 0.0
C1080 C 0.30838 0.83929 0.589 0.0
C1081 C 0.27614 0.8886 0.55438 0.0
H1082 H 0.22849 0.83484 0.54696 0.0
C1083 C 0.19491 0.90752 0.49418 0.0
C1084 C 0.18245 0.8859 0.48171 0.0
C1085 C 0.21353 0.90332 0.51074 0.0
C1086 C 0.24177 0.8499 0.54814 0.0
H1087 H 0.31811 0.89462 0.64587 0.0
H1088 H 0.2913 0.9012 0.60957 0.0
H1089 H 0.26056 0.82844 0.57641 0.0
H1090 H 0.17906 0.84286 0.47809 0.0
H1091 H 0.21175 0.83527 0.5061 0.0
H1092 H 0.25829 0.90957 0.52531 0.0
C1093 C 0.30062 0.883 0.609 0.0
C1094 C 0.26019 0.84619 0.56526 0.0
C1095 C 0.31611 0.87928 0.62974 0.0
C1096 C 0.18874 0.85994 0.48671 0.0
C1097 C 0.20741 0.85567 0.50325 0.0
C1098 C 0.25812 0.89193 0.53659 0.0
C1099 C 0.29605 0.86274 0.58881 0.0
C1100 C 0.27747 0.86563 0.56882 0.0
C1101 C 0.22031 0.87729 0.51549 0.0
C1102 C 0.24033 0.87289 0.53346 0.0
H1103 H 0.33322 0.81732 0.60936 0.0
H1104 H 0.30521 0.82331 0.57371 0.0
H1105 H 0.2892 0.90395 0.55667 0.0
H1106 H 0.1902 0.92782 0.49122 0.0
H1107 H 0.22224 0.92068 0.52027 0.0
C1108 C 0.4338 0.0712 0.83055 0.0
C1109 C 0.41655 0.08839 0.83719 0.0
C1110 C 0.43432 0.05794 0.8053 0.0
C1111 C 0.38136 0.0354 0.76045 0.0
H1112 H 0.43142 0.96163 0.77116 0.0
C1113 C 0.37544 0.8904 0.7429 0.0
C1114 C 0.38922 0.88591 0.72079 0.0
C1115 C 0.37675 0.91475 0.75857 0.0
C1116 C 0.4184 0.97597 0.76952 0.0
H1117 H 0.38906 0.10956 0.82071 0.0
H1118 H 0.39035 0.08736 0.77641 0.0
H1119 H 0.44369 0.01238 0.77353 0.0
H1120 H 0.41674 0.90232 0.69975 0.0
H1121 H 0.41904 0.94411 0.72625 0.0
H1122 H 0.34829 0.0084 0.75115 0.0
C1123 C 0.40249 0.08194 0.79119 0.0
C1124 C 0.42598 0.00884 0.7706 0.0
C1125 C 0.40192 0.0953 0.81668 0.0
C1126 C 0.40536 0.90538 0.71596 0.0
C1127 C 0.40673 0.92942 0.73157 0.0
C1128 C 0.36583 0.00655 0.75717 0.0
C1129 C 0.41688 0.06036 0.78615 0.0
C1130 C 0.40935 0.03613 0.76798 0.0
C1131 C 0.39146 0.93549 0.75191 0.0
C1132 C 0.39111 0.96485 0.76343 0.0
H1133 H 0.44627 0.06657 0.84541 0.0
H1134 H 0.44744 0.04397 0.80257 0.0
H1135 H 0.37227 0.05347 0.75896 0.0
H1136 H 0.36335 0.87525 0.74785 0.0
H1137 H 0.36579 0.91743 0.77517 0.0
C1138 C 0.35623 0.13883 0.96608 0.0
C1139 C 0.35976 0.116 0.94912 0.0
C1140 C 0.33871 0.13935 0.98412 0.0
C1141 C 0.30119 0.09334 0.01928 0.0
H1142 H 0.27072 0.15826 0.03966 0.0
C1143 C 0.2473 0.10201 0.11343 0.0
C1144 C 0.22839 0.11798 0.11367 0.0
C1145 C 0.26165 0.1012 0.09184 0.0
C1146 C 0.27887 0.13983 0.03413 0.0
H1147 H 0.34682 0.07616 0.93723 0.0
H1148 H 0.31625 0.07714 0.96823 0.0
H1149 H 0.29809 0.15841 0.00467 0.0
H1150 H 0.20994 0.14577 0.09105 0.0
H1151 H 0.23472 0.14405 0.05305 0.0
H1152 H 0.28193 0.07468 0.0485 0.0
C1153 C 0.32729 0.09454 0.96811 0.0
C1154 C 0.29489 0.14002 0.0142 0.0
C1155 C 0.34478 0.09405 0.95007 0.0
C1156 C 0.22408 0.13285 0.09137 0.0
C1157 C 0.23858 0.13221 0.06975 0.0
C1158 C 0.28535 0.09323 0.03933 0.0
C1159 C 0.32415 0.11702 0.9858 0.0
C1160 C 0.30642 0.11679 0.0065 0.0
C1161 C 0.25775 0.11651 0.06971 0.0
C1162 C 0.27397 0.11649 0.04727 0.0
H1163 H 0.36739 0.15613 0.96595 0.0
H1164 H 0.33711 0.15699 0.99743 0.0
H1165 H 0.30971 0.07505 0.01428 0.0
H1166 H 0.25131 0.09045 0.13032 0.0
H1167 H 0.2763 0.08918 0.09303 0.0
C1168 C 0.91035 0.27209 0.11899 0.0
C1169 C 0.90839 0.29283 0.13892 0.0
C1170 C 0.92815 0.2545 0.11977 0.0
C1171 C 0.97141 0.2301 0.16713 0.0
H1172 H 0.99414 0.19605 0.1024 0.0
C1173 C 0.02467 0.13563 0.16875 0.0
C1174 C 0.0414 0.13161 0.14999 0.0
C1175 C 0.01053 0.15735 0.16773 0.0
C1176 C 0.98823 0.20551 0.12075 0.0
H1177 H 0.9243 0.31189 0.17475 0.0
H1178 H 0.95538 0.28176 0.17589 0.0
H1179 H 0.96636 0.23022 0.09944 0.0
H1180 H 0.05628 0.1474 0.11531 0.0
H1181 H 0.0313 0.18488 0.11304 0.0
H1182 H 0.99369 0.20588 0.18843 0.0
C1183 C 0.9429 0.27847 0.15995 0.0
C1184 C 0.97192 0.22493 0.11905 0.0
C1185 C 0.92513 0.29604 0.15914 0.0
C1186 C 0.04375 0.15006 0.13028 0.0
C1187 C 0.02925 0.17149 0.12888 0.0
C1188 C 0.98775 0.21075 0.16883 0.0
C1189 C 0.9446 0.25713 0.14048 0.0
C1190 C 0.96295 0.23731 0.14221 0.0
C1191 C 0.01237 0.17552 0.14759 0.0
C1192 C 0.99618 0.19776 0.14568 0.0
H1193 H 0.89774 0.26887 0.10318 0.0
H1194 H 0.92851 0.23826 0.10454 0.0
H1195 H 0.96502 0.23886 0.18553 0.0
H1196 H 0.02224 0.12164 0.18403 0.0
H1197 H 0.99756 0.15924 0.18222 0.0
C1198 C 0.52932 0.2895 0.93189 0.0
C1199 C 0.5364 0.30669 0.9126 0.0
C1200 C 0.51003 0.27312 0.92739 0.0
C1201 C 0.46937 0.24648 0.8725 0.0
H1202 H 0.43562 0.22516 0.93245 0.0
C1203 C 0.39493 0.16961 0.8565 0.0
C1204 C 0.37852 0.16831 0.87586 0.0
C1205 C 0.4139 0.18653 0.86084 0.0
C1206 C 0.44435 0.2312 0.9152 0.0
H1207 H 0.52842 0.32018 0.87342 0.0
H1208 H 0.49478 0.29252 0.86586 0.0
H1209 H 0.46761 0.25507 0.94016 0.0
H1210 H 0.36855 0.18563 0.91416 0.0
H1211 H 0.40014 0.21666 0.92066 0.0
H1212 H 0.44546 0.22409 0.84736 0.0
C1213 C 0.50427 0.29091 0.88429 0.0
C1214 C 0.46327 0.24816 0.91978 0.0
C1215 C 0.52366 0.30703 0.88869 0.0
C1216 C 0.38095 0.18573 0.8989 0.0
C1217 C 0.39949 0.20336 0.90283 0.0
C1218 C 0.45014 0.23007 0.86785 0.0
C1219 C 0.49704 0.27357 0.90351 0.0
C1220 C 0.4763 0.25597 0.89855 0.0
C1221 C 0.41667 0.20378 0.88418 0.0
C1222 C 0.43723 0.22189 0.88911 0.0
H1223 H 0.53872 0.28864 0.95053 0.0
H1224 H 0.5056 0.25975 0.94257 0.0
H1225 H 0.47894 0.25136 0.85545 0.0
H1226 H 0.39361 0.15666 0.8384 0.0
H1227 H 0.42658 0.18543 0.84598 0.0
C1228 C 0.94435 0.62948 0.38137 0.0
C1229 C 0.92991 0.62765 0.40283 0.0
C1230 C 0.9596 0.65104 0.38051 0.0
C1231 C 0.99394 0.69707 0.42422 0.0
H1232 H 1.00391 0.73463 0.36053 0.0
C1233 C 0.06878 0.77396 0.41883 0.0
C1234 C 0.07796 0.77709 0.39377 0.0
C1235 C 0.04928 0.75808 0.42113 0.0
C1236 C 1.00192 0.72398 0.37839 0.0
H1237 H 0.91986 0.64777 0.43985 0.0
H1238 H 0.94699 0.68521 0.43865 0.0
H1239 H 0.97279 0.70286 0.36141 0.0
H1240 H 0.0738 0.76571 0.35153 0.0
H1241 H 0.04054 0.7385 0.35532 0.0
H1242 H 0.02383 0.71654 0.44072 0.0
C1243 C 0.94628 0.66992 0.42238 0.0
C1244 C 0.98371 0.70594 0.37894 0.0
C1245 C 0.93058 0.64861 0.42292 0.0
C1246 C 0.0671 0.76413 0.37117 0.0
C1247 C 0.04765 0.74857 0.3734 0.0
C1248 C 0.01265 0.71448 0.42341 0.0
C1249 C 0.96127 0.67111 0.4014 0.0
C1250 C 0.97953 0.6921 0.40177 0.0
C1251 C 0.03815 0.74528 0.39837 0.0
C1252 C 0.01724 0.72801 0.40028 0.0
H1253 H 0.94438 0.6137 0.3656 0.0
H1254 H 0.97089 0.65128 0.36407 0.0
H1255 H 0.99132 0.68654 0.44208 0.0
H1256 H 0.0769 0.78334 0.4367 0.0
H1257 H 0.04296 0.75608 0.44086 0.0
C1258 C 0.99952 0.33191 0.17596 0.0
C1259 C 0.98372 0.33519 0.15531 0.0
C1260 C 0.01312 0.30965 0.17544 0.0
C1261 C 0.0353 0.25653 0.12868 0.0
H1262 H 0.0567 0.22921 0.19478 0.0
C1263 C 0.11102 0.18678 0.13153 0.0
C1264 C 0.11334 0.16955 0.15233 0.0
C1265 C 0.09348 0.20471 0.13103 0.0
C1266 C 0.0508 0.23613 0.17596 0.0
H1267 H 0.96978 0.31719 0.11791 0.0
H1268 H 0.99346 0.27835 0.11694 0.0
H1269 H 0.02863 0.26291 0.19585 0.0
H1270 H 0.09818 0.15647 0.18803 0.0
H1271 H 0.06699 0.18638 0.18644 0.0
H1272 H 0.05683 0.22907 0.10867 0.0
C1273 C 0.99543 0.29305 0.13362 0.0
C1274 C 0.03481 0.256 0.17665 0.0
C1275 C 0.98166 0.31529 0.13426 0.0
C1276 C 0.09704 0.1697 0.17187 0.0
C1277 C 0.07926 0.18726 0.17113 0.0
C1278 C 0.05117 0.23647 0.12796 0.0
C1279 C 0.01149 0.28992 0.15416 0.0
C1280 C 0.0271 0.26695 0.15309 0.0
C1281 C 0.07745 0.20564 0.1511 0.0
C1282 C 0.05949 0.22614 0.15163 0.0
H1283 H 1.00171 0.34687 0.19243 0.0
H1284 H 0.02548 0.3085 0.1914 0.0
H1285 H 0.02996 0.26434 0.11002 0.0
H1286 H 0.12339 0.18736 0.11627 0.0
H1287 H 0.09312 0.21853 0.11538 0.0
C1288 C 0.57347 0.69847 0.68883 0.0
C1289 C 0.58614 0.68693 0.66822 0.0
C1290 C 0.55844 0.71864 0.68384 0.0
C1291 C 0.52469 0.74508 0.62866 0.0
H1292 H 0.51632 0.80456 0.67999 0.0
C1293 C 0.46235 0.82816 0.60594 0.0
C1294 C 0.45392 0.8442 0.62705 0.0
C1295 C 0.4784 0.80906 0.61077 0.0
C1296 C 0.51787 0.78784 0.66554 0.0
H1297 H 0.59318 0.68812 0.62621 0.0
H1298 H 0.56635 0.72235 0.61726 0.0
H1299 H 0.54451 0.77234 0.68873 0.0
H1300 H 0.45476 0.8518 0.66992 0.0
H1301 H 0.48097 0.81706 0.67875 0.0
H1302 H 0.49775 0.75967 0.60581 0.0
C1303 C 0.56805 0.71593 0.63738 0.0
C1304 C 0.53435 0.76933 0.67057 0.0
C1305 C 0.58348 0.69625 0.64252 0.0
C1306 C 0.46102 0.83977 0.65322 0.0
C1307 C 0.47651 0.82006 0.65817 0.0
C1308 C 0.50796 0.7633 0.62381 0.0
C1309 C 0.55517 0.72734 0.65792 0.0
C1310 C 0.53799 0.74761 0.65225 0.0
C1311 C 0.48609 0.80483 0.637 0.0
C1312 C 0.50409 0.78507 0.64219 0.0
H1313 H 0.57526 0.69207 0.70895 0.0
H1314 H 0.5488 0.72676 0.70019 0.0
H1315 H 0.5267 0.72844 0.61419 0.0
H1316 H 0.45751 0.83146 0.58549 0.0
H1317 H 0.48526 0.79841 0.59364 0.0
C1318 C 0.93031 0.73837 0.3712 0.0
C1319 C 0.91634 0.72916 0.39083 0.0
C1320 C 0.94882 0.75519 0.37823 0.0
C1321 C 0.9874 0.77715 0.43551 0.0
H1322 H 1.00435 0.83191 0.38849 0.0
C1323 C 0.06694 0.8455 0.45779 0.0
C1324 C 0.07871 0.85354 0.43572 0.0
C1325 C 0.04593 0.83241 0.45423 0.0
C1326 C 1.00019 0.8165 0.40176 0.0
H1327 H 0.9111 0.73021 0.4334 0.0
H1328 H 0.94346 0.75945 0.44574 0.0
H1329 H 0.97063 0.80512 0.37859 0.0
H1330 H 0.07737 0.85414 0.39259 0.0
H1331 H 0.04201 0.83023 0.38624 0.0
H1332 H 0.01689 0.78858 0.45878 0.0
C1333 C 0.94015 0.75367 0.42483 0.0
C1334 C 0.98067 0.80105 0.39602 0.0
C1335 C 0.92146 0.73703 0.41775 0.0
C1336 C 0.06895 0.84814 0.41009 0.0
C1337 C 0.04826 0.83475 0.40649 0.0
C1338 C 0.00692 0.79272 0.44133 0.0
C1339 C 0.9541 0.76307 0.40516 0.0
C1340 C 0.97419 0.78074 0.41247 0.0
C1341 C 0.03621 0.82681 0.42846 0.0
C1342 C 0.01405 0.81212 0.42409 0.0
H1343 H 0.92697 0.73258 0.35029 0.0
H1344 H 0.95934 0.76144 0.36248 0.0
H1345 H 0.98314 0.76163 0.44863 0.0
H1346 H 0.07378 0.8497 0.47785 0.0
H1347 H 0.03724 0.82705 0.47178 0.0
C1348 C 0.48434 0.16124 0.86745 0.0
C1349 C 0.47264 0.15768 0.89088 0.0
C1350 C 0.50114 0.18101 0.86682 0.0
C1351 C 0.54134 0.22022 0.9119 0.0
H1352 H 0.55351 0.2572 0.84822 0.0
C1353 C 0.62623 0.27331 0.89834 0.0
C1354 C 0.62692 0.29713 0.88525 0.0
C1355 C 0.6063 0.25843 0.89951 0.0
C1356 C 0.55031 0.2473 0.8663 0.0
H1357 H 0.46887 0.17269 0.93181 0.0
H1358 H 0.49848 0.2072 0.93093 0.0
H1359 H 0.52002 0.22888 0.84958 0.0
H1360 H 0.60771 0.32359 0.86194 0.0
H1361 H 0.57263 0.29752 0.86379 0.0
H1362 H 0.57129 0.23907 0.92889 0.0
C1363 C 0.49469 0.1946 0.91297 0.0
C1364 C 0.53118 0.23072 0.86695 0.0
C1365 C 0.47751 0.17507 0.91343 0.0
C1366 C 0.60743 0.30552 0.87262 0.0
C1367 C 0.58743 0.29044 0.87355 0.0
C1368 C 0.56042 0.23683 0.91127 0.0
C1369 C 0.50698 0.19755 0.88975 0.0
C1370 C 0.52654 0.2167 0.88966 0.0
C1371 C 0.58654 0.26675 0.88722 0.0
C1372 C 0.56539 0.25034 0.88833 0.0
H1373 H 0.48098 0.14806 0.84976 0.0
H1374 H 0.51027 0.18239 0.84865 0.0
H1375 H 0.53848 0.20969 0.92969 0.0
H1376 H 0.64122 0.26613 0.90764 0.0
H1377 H 0.60658 0.23999 0.90956 0.0
C1378 C 0.90903 0.13219 0.68429 0.0
C1379 C 0.88879 0.13481 0.67007 0.0
C1380 C 0.91144 0.11187 0.70213 0.0
C1381 C 0.87793 0.06654 0.74246 0.0
H1382 H 0.93176 0.0258 0.74544 0.0
C1383 C 0.8941 0.99332 0.82474 0.0
C1384 C 0.90335 0.96867 0.81725 0.0
C1385 C 0.89243 0.01326 0.80659 0.0
C1386 C 0.91656 0.03689 0.74478 0.0
H1387 H 0.85511 0.11842 0.66388 0.0
H1388 H 0.8591 0.0838 0.69514 0.0
H1389 H 0.92885 0.06147 0.71465 0.0
H1390 H 0.91919 0.94596 0.78537 0.0
H1391 H 0.91703 0.98116 0.75377 0.0
H1392 H 0.8655 0.04186 0.77227 0.0
C1393 C 0.87322 0.09715 0.69254 0.0
C1394 C 0.915 0.0576 0.72735 0.0
C1395 C 0.87102 0.1169 0.67431 0.0
C1396 C 0.91137 0.9645 0.79137 0.0
C1397 C 0.91036 0.98481 0.77342 0.0
C1398 C 0.87957 0.04607 0.76004 0.0
C1399 C 0.89348 0.09419 0.70665 0.0
C1400 C 0.89561 0.07267 0.72586 0.0
C1401 C 0.90062 0.00938 0.78067 0.0
C1402 C 0.8989 0.03094 0.76149 0.0
H1403 H 0.92296 0.14581 0.68163 0.0
H1404 H 0.92722 0.1104 0.71283 0.0
H1405 H 0.86277 0.07773 0.74206 0.0
H1406 H 0.88834 0.99728 0.84483 0.0
H1407 H 0.88524 0.03203 0.81315 0.0
C1408 C 0.68638 0.10856 0.44716 0.0
C1409 C 0.66573 0.1207 0.44405 0.0
C1410 C 0.70268 0.11947 0.46539 0.0
C1411 C 0.72005 0.18164 0.5072 0.0
H1412 H 0.7599 0.13221 0.53845 0.0
C1413 C 0.80391 0.21893 0.55919 0.0
C1414 C 0.81458 0.20328 0.57764 0.0
C1415 C 0.78412 0.20974 0.54561 0.0
C1416 C 0.74904 0.14661 0.53027 0.0
H1417 H 0.64645 0.15466 0.45734 0.0
H1418 H 0.67493 0.1738 0.48937 0.0
H1419 H 0.72879 0.11526 0.51078 0.0
H1420 H 0.81227 0.1659 0.59682 0.0
H1421 H 0.77767 0.15048 0.57444 0.0
H1422 H 0.73998 0.21302 0.52749 0.0
C1423 C 0.67858 0.15573 0.47758 0.0
C1424 C 0.73111 0.13671 0.51381 0.0
C1425 C 0.66217 0.14475 0.45914 0.0
C1426 C 0.80478 0.17834 0.58238 0.0
C1427 C 0.78477 0.16942 0.5693 0.0
C1428 C 0.73803 0.19161 0.5238 0.0
C1429 C 0.69903 0.14302 0.48128 0.0
C1430 C 0.7167 0.15399 0.50122 0.0
C1431 C 0.7741 0.18477 0.55039 0.0
C1432 C 0.75334 0.17429 0.53499 0.0
H1433 H 0.68995 0.09023 0.4357 0.0
H1434 H 0.71824 0.10925 0.46687 0.0
H1435 H 0.70926 0.19579 0.4984 0.0
H1436 H 0.81095 0.23828 0.55508 0.0
H1437 H 0.77698 0.22222 0.53102 0.0
C1438 C 0.66118 0.91564 0.19327 0.0
C1439 C 0.66389 0.92147 0.16657 0.0
C1440 C 0.65795 0.93576 0.21299 0.0
C1441 C 0.63831 0.97685 0.24941 0.0
H1442 H 0.66374 0.04856 0.24961 0.0
C1443 C 0.61092 0.05589 0.32693 0.0
C1444 C 0.62594 0.07592 0.33747 0.0
C1445 C 0.61635 0.03911 0.30511 0.0
C1446 C 0.6568 0.02849 0.25011 0.0
H1447 H 0.66542 0.95338 0.13962 0.0
H1448 H 0.65881 0.98905 0.1743 0.0
H1449 H 0.67195 0.01561 0.21336 0.0
H1450 H 0.65832 0.09476 0.33309 0.0
H1451 H 0.66849 0.0644 0.29511 0.0
H1452 H 0.62418 0.98863 0.28643 0.0
C1453 C 0.65966 0.96866 0.17997 0.0
C1454 C 0.66122 0.00967 0.22903 0.0
C1455 C 0.66301 0.94822 0.15997 0.0
C1456 C 0.64649 0.07934 0.32528 0.0
C1457 C 0.65222 0.06198 0.30352 0.0
C1458 C 0.6343 0.99528 0.2705 0.0
C1459 C 0.65686 0.96261 0.20679 0.0
C1460 C 0.65205 0.98348 0.22845 0.0
C1461 C 0.63728 0.04132 0.29336 0.0
C1462 C 0.64314 0.02155 0.27113 0.0
H1463 H 0.66211 0.89535 0.19925 0.0
H1464 H 0.65672 0.93009 0.23334 0.0
H1465 H 0.63031 0.95729 0.24959 0.0
H1466 H 0.59477 0.05316 0.33564 0.0
H1467 H 0.60391 0.02436 0.2975 0.0
C1468 C 0.86163 0.90694 0.93117 0.0
C1469 C 0.85885 0.92961 0.91651 0.0
C1470 C 0.84601 0.90002 0.95005 0.0
C1471 C 0.79856 0.92943 0.98894 0.0
H1472 H 0.78965 0.85653 0.00824 0.0
C1473 C 0.74268 0.90323 0.07657 0.0
C1474 C 0.72862 0.8804 0.07261 0.0
C1475 C 0.75909 0.90869 0.05818 0.0
C1476 C 0.79184 0.87702 0.00307 0.0
H1477 H 0.83662 0.96166 0.90891 0.0
H1478 H 0.80878 0.94877 0.94028 0.0
H1479 H 0.8162 0.86637 0.97436 0.0
H1480 H 0.72119 0.84498 0.04662 0.0
H1481 H 0.7504 0.85383 0.01519 0.0
H1482 H 0.77373 0.93987 0.01726 0.0
C1483 C 0.82357 0.93702 0.93851 0.0
C1484 C 0.80742 0.88281 0.98377 0.0
C1485 C 0.83941 0.94424 0.92007 0.0
C1486 C 0.73168 0.86283 0.05017 0.0
C1487 C 0.74853 0.86788 0.0322 0.0
C1488 C 0.78312 0.92366 0.00834 0.0
C1489 C 0.8269 0.9153 0.95451 0.0
C1490 C 0.81081 0.90907 0.97596 0.0
C1491 C 0.76222 0.89115 0.03563 0.0
C1492 C 0.77934 0.89733 0.01555 0.0
H1493 H 0.87651 0.89536 0.92913 0.0
H1494 H 0.84952 0.88328 0.96187 0.0
H1495 H 0.80092 0.95004 0.98433 0.0
H1496 H 0.74077 0.91712 0.09372 0.0
H1497 H 0.76951 0.92656 0.06184 0.0
C1498 C 0.85211 0.05392 0.63052 0.0
C1499 C 0.87304 0.06558 0.62584 0.0
C1500 C 0.84971 0.03628 0.65094 0.0
C1501 C 0.88225 0.99175 0.69253 0.0
H1502 H 0.83257 0.99735 0.74002 0.0
C1503 C 0.86738 0.91452 0.77074 0.0
C1504 C 0.85952 0.92333 0.79576 0.0
C1505 C 0.86846 0.93169 0.74998 0.0
C1506 C 0.84662 0.99557 0.72705 0.0
H1507 H 0.90796 0.06727 0.63814 0.0
H1508 H 0.90398 0.03602 0.67284 0.0
H1509 H 0.83552 0.02727 0.70366 0.0
H1510 H 0.84608 0.95687 0.81856 0.0
H1511 H 0.84834 0.98735 0.78236 0.0
H1512 H 0.89367 0.96053 0.71587 0.0
C1513 C 0.8893 0.04065 0.66122 0.0
C1514 C 0.84815 0.01252 0.70596 0.0
C1515 C 0.89158 0.05872 0.64138 0.0
C1516 C 0.85273 0.94979 0.79965 0.0
C1517 C 0.85361 0.96703 0.7787 0.0
C1518 C 0.88066 0.97475 0.71341 0.0
C1519 C 0.86831 0.02946 0.66658 0.0
C1520 C 0.86606 0.0109 0.6885 0.0
C1521 C 0.8615 0.95819 0.75352 0.0
C1522 C 0.8629 0.97643 0.73111 0.0
H1523 H 0.83758 0.05881 0.61873 0.0
H1524 H 0.83335 0.02775 0.65428 0.0
H1525 H 0.89619 0.98972 0.67939 0.0
H1526 H 0.8722 0.894 0.76702 0.0
H1527 H 0.87421 0.92386 0.73087 0.0
C1528 C 0.83851 0.16658 0.52249 0.0
C1529 C 0.83832 0.14295 0.53597 0.0
C1530 C 0.82096 0.17176 0.50453 0.0
C1531 C 0.77408 0.13593 0.46434 0.0
H1532 H 0.75289 0.20718 0.45615 0.0
C1533 C 0.70403 0.15572 0.38672 0.0
C1534 C 0.68848 0.17527 0.39358 0.0
C1535 C 0.72298 0.15246 0.403 0.0
C1536 C 0.75847 0.18708 0.45824 0.0
H1537 H 0.81992 0.10622 0.54132 0.0
H1538 H 0.7894 0.11509 0.51063 0.0
H1539 H 0.78446 0.20074 0.48633 0.0
H1540 H 0.68071 0.20664 0.42321 0.0
H1541 H 0.71368 0.20104 0.45159 0.0
H1542 H 0.74807 0.12216 0.43654 0.0
C1543 C 0.80288 0.12982 0.51353 0.0
C1544 C 0.77684 0.1834 0.47545 0.0
C1545 C 0.82023 0.12483 0.53154 0.0
C1546 C 0.69224 0.19125 0.41739 0.0
C1547 C 0.71136 0.1882 0.43355 0.0
C1548 C 0.75588 0.13962 0.44704 0.0
C1549 C 0.80303 0.15317 0.49937 0.0
C1550 C 0.78462 0.15766 0.47931 0.0
C1551 C 0.72709 0.16876 0.42662 0.0
C1552 C 0.74744 0.16518 0.44407 0.0
H1553 H 0.85259 0.18055 0.5251 0.0
H1554 H 0.82192 0.18986 0.49398 0.0
H1555 H 0.77982 0.11583 0.46596 0.0
H1556 H 0.7018 0.14318 0.36841 0.0
H1557 H 0.73471 0.13752 0.3966 0.0
C1558 C 0.60614 0.95541 0.16795 0.0
C1559 C 0.60932 0.95984 0.14096 0.0
C1560 C 0.60554 0.97708 0.18712 0.0
C1561 C 0.59617 0.02731 0.22299 0.0
H1562 H 0.63454 0.08817 0.21062 0.0
C1563 C 0.6018 0.12419 0.29579 0.0
C1564 C 0.62235 0.13835 0.29719 0.0
C1565 C 0.59811 0.10236 0.27688 0.0
C1566 C 0.62391 0.07132 0.21487 0.0
H1567 H 0.61389 0.99026 0.11282 0.0
H1568 H 0.61311 0.02761 0.14573 0.0
H1569 H 0.63354 0.04998 0.17926 0.0
H1570 H 0.65559 0.13955 0.28157 0.0
H1571 H 0.6499 0.10128 0.25057 0.0
H1572 H 0.58745 0.04853 0.25947 0.0
C1573 C 0.61151 0.00767 0.15258 0.0
C1574 C 0.62295 0.04939 0.19631 0.0
C1575 C 0.61192 0.98618 0.13356 0.0
C1576 C 0.63933 0.12956 0.28044 0.0
C1577 C 0.6359 0.10763 0.26225 0.0
C1578 C 0.59736 0.0493 0.24188 0.0
C1579 C 0.60851 0.00357 0.17975 0.0
C1580 C 0.60915 0.02693 0.20001 0.0
C1581 C 0.61507 0.09403 0.25946 0.0
C1582 C 0.6117 0.07143 0.23843 0.0
H1583 H 0.6036 0.93531 0.17414 0.0
H1584 H 0.60315 0.97295 0.20774 0.0
H1585 H 0.58503 0.01066 0.22645 0.0
H1586 H 0.58849 0.13045 0.30869 0.0
H1587 H 0.58186 0.09245 0.2756 0.0
C1588 C 0.65969 0.89058 0.02943 0.0
C1589 C 0.66123 0.91286 0.04789 0.0
C1590 C 0.67681 0.88544 0.01141 0.0
C1591 C 0.72494 0.92128 0.98172 0.0
H1592 H 0.73754 0.85082 0.95078 0.0
C1593 C 0.78426 0.90648 0.89301 0.0
C1594 C 0.79922 0.88553 0.89396 0.0
C1595 C 0.76709 0.90894 0.91135 0.0
C1596 C 0.73432 0.87068 0.95925 0.0
H1597 H 0.68282 0.94575 0.06355 0.0
H1598 H 0.71309 0.93598 0.03353 0.0
H1599 H 0.70964 0.85576 0.98488 0.0
H1600 H 0.80733 0.85002 0.91405 0.0
H1601 H 0.77691 0.85357 0.94522 0.0
H1602 H 0.74999 0.93611 0.95654 0.0
C1603 C 0.69825 0.9232 0.03175 0.0
C1604 C 0.71801 0.87357 0.97866 0.0
C1605 C 0.68101 0.92858 0.04936 0.0
C1606 C 0.79625 0.86662 0.91307 0.0
C1607 C 0.77864 0.86854 0.93079 0.0
C1608 C 0.74111 0.91839 0.96222 0.0
C1609 C 0.69606 0.90225 0.01167 0.0
C1610 C 0.71324 0.89891 0.99052 0.0
C1611 C 0.76406 0.89004 0.93061 0.0
C1612 C 0.74618 0.89305 0.9508 0.0
H1613 H 0.64458 0.87822 0.02759 0.0
H1614 H 0.6743 0.86912 0.99638 0.0
H1615 H 0.72154 0.94125 0.98967 0.0
H1616 H 0.786 0.92119 0.8783 0.0
H1617 H 0.75599 0.92549 0.91016 0.0
C1618 C 0.97284 0.86462 0.83258 0.0
C1619 C 0.9616 0.8692 0.85649 0.0
C1620 C 0.989 0.84498 0.83038 0.0
C1621 C 0.02901 0.80718 0.8688 0.0
H1622 H 0.02352 0.75517 0.80847 0.0
C1623 C 0.09373 0.72303 0.85337 0.0
C1624 C 0.09879 0.71532 0.82683 0.0
C1625 C 0.0758 0.73987 0.85896 0.0
C1626 C 0.02581 0.76979 0.82518 0.0
H1627 H 0.95915 0.85796 0.89723 0.0
H1628 H 0.98843 0.82495 0.89392 0.0
H1629 H 0.99654 0.79009 0.81339 0.0
H1630 H 0.08815 0.71878 0.78549 0.0
H1631 H 0.05813 0.74804 0.79495 0.0
H1632 H 0.05894 0.78796 0.87994 0.0
C1633 C 0.98416 0.8357 0.87657 0.0
C1634 C 0.01009 0.78978 0.82805 0.0
C1635 C 0.96736 0.85452 0.87843 0.0
C1636 C 0.08496 0.72411 0.80625 0.0
C1637 C 0.06731 0.7409 0.81177 0.0
C1638 C 0.0452 0.78764 0.86551 0.0
C1639 C 0.99483 0.83025 0.85235 0.0
C1640 C 0.01155 0.80884 0.84976 0.0
C1641 C 0.0624 0.74933 0.83817 0.0
C1642 C 0.04408 0.76879 0.84338 0.0
H1643 H 0.96879 0.87582 0.81545 0.0
H1644 H 0.9971 0.84145 0.81152 0.0
H1645 H 0.03058 0.8216 0.8858 0.0
H1646 H 0.10396 0.71672 0.86978 0.0
H1647 H 0.07267 0.74563 0.8796 0.0
C1648 C 0.4713 0.7097 0.03942 0.0
C1649 C 0.46392 0.68863 0.05442 0.0
C1650 C 0.49097 0.72445 0.04683 0.0
C1651 C 0.5312 0.73936 0.10474 0.0
H1652 H 0.56691 0.77066 0.05109 0.0
C1653 C 0.59844 0.82028 0.13522 0.0
C1654 C 0.61817 0.822 0.12084 0.0
C1655 C 0.58075 0.80302 0.12619 0.0
C1656 C 0.5574 0.7618 0.06642 0.0
H1657 H 0.47191 0.66623 0.08869 0.0
H1658 H 0.50607 0.69158 0.10151 0.0
H1659 H 0.53467 0.74207 0.03743 0.0
H1660 H 0.63422 0.80726 0.08493 0.0
H1661 H 0.60331 0.77698 0.06909 0.0
H1662 H 0.55396 0.75866 0.13373 0.0
C1663 C 0.49651 0.6973 0.08431 0.0
C1664 C 0.53855 0.74567 0.05855 0.0
C1665 C 0.47681 0.68264 0.07695 0.0
C1666 C 0.61928 0.8066 0.0965 0.0
C1667 C 0.60149 0.78915 0.08744 0.0
C1668 C 0.54995 0.7555 0.11259 0.0
C1669 C 0.50396 0.7185 0.06941 0.0
C1670 C 0.52487 0.73456 0.07761 0.0
C1671 C 0.58206 0.78671 0.10243 0.0
C1672 C 0.56314 0.76753 0.09364 0.0
H1673 H 0.46185 0.71484 0.02189 0.0
H1674 H 0.49571 0.74088 0.03505 0.0
H1675 H 0.52127 0.7314 0.12019 0.0
H1676 H 0.59671 0.83207 0.15384 0.0
H1677 H 0.56593 0.80268 0.13795 0.0
C1678 C 0.07336 0.33886 0.55546 0.0
C1679 C 0.07746 0.36198 0.57245 0.0
C1680 C 0.05376 0.32317 0.5575 0.0
C1681 C 0.0087 0.30956 0.6048 0.0
H1682 H 0.97533 0.28045 0.54193 0.0
C1683 C 0.92346 0.25881 0.61771 0.0
C1684 C 0.91623 0.237 0.60033 0.0
C1685 C 0.94197 0.2747 0.61213 0.0
C1686 C 0.98445 0.28808 0.55981 0.0
H1687 H 0.06425 0.38641 0.60517 0.0
H1688 H 0.03055 0.35921 0.6089 0.0
H1689 H 0.01038 0.30517 0.53703 0.0
H1690 H 0.92125 0.21706 0.56173 0.0
H1691 H 0.95439 0.24414 0.55214 0.0
H1692 H 0.98354 0.29247 0.62777 0.0
C1693 C 0.04236 0.35296 0.59401 0.0
C1694 C 1.00469 0.30234 0.55694 0.0
C1695 C 0.06174 0.36869 0.59181 0.0
C1696 C 0.92716 0.23275 0.57616 0.0
C1697 C 0.946 0.24866 0.57058 0.0
C1698 C 0.98863 0.29541 0.60767 0.0
C1699 C 0.03796 0.33002 0.57683 0.0
C1700 C 0.01699 0.31353 0.57944 0.0
C1701 C 0.95431 0.26926 0.58907 0.0
C1702 C 0.97594 0.28449 0.58529 0.0
H1703 H 0.08506 0.33316 0.54023 0.0
H1704 H 0.05112 0.30549 0.54413 0.0
H1705 H 0.01794 0.31708 0.62268 0.0
H1706 H 0.91515 0.26333 0.63627 0.0
H1707 H 0.94661 0.29118 0.62631 0.0
C1708 C 0.02219 0.67081 0.87109 0.0
C1709 C 0.04099 0.67824 0.88748 0.0
C1710 C 1.00564 0.68919 0.86621 0.0
C1711 C 0.9829 0.7542 0.89156 0.0
H1712 H 0.95617 0.75291 0.82035 0.0
C1713 C 0.90693 0.81916 0.86331 0.0
C1714 C 0.90641 0.82863 0.83752 0.0
C1715 C 0.92357 0.80172 0.87102 0.0
C1716 C 0.96346 0.75373 0.84036 0.0
H1717 H 0.05691 0.71088 0.9119 0.0
H1718 H 0.0282 0.74311 0.90311 0.0
H1719 H 0.98465 0.72129 0.8302 0.0
H1720 H 0.92416 0.82866 0.80046 0.0
H1721 H 0.95299 0.79901 0.81393 0.0
H1722 H 0.96172 0.78691 0.90156 0.0
C1723 C 0.02609 0.72293 0.89423 0.0
C1724 C 0.97969 0.73526 0.84612 0.0
C1725 C 0.04268 0.70449 0.89912 0.0
C1726 C 0.92368 0.82146 0.82032 0.0
C1727 C 0.94019 0.80414 0.82797 0.0
C1728 C 0.96646 0.77258 0.88584 0.0
C1729 C 0.00735 0.71558 0.87758 0.0
C1730 C 0.9898 0.73529 0.87174 0.0
C1731 C 0.94007 0.79333 0.85312 0.0
C1732 C 0.95677 0.77294 0.86 0.0
H1733 H 0.02024 0.65074 0.86189 0.0
H1734 H 0.99134 0.68255 0.85366 0.0
H1735 H 0.99003 0.75466 0.91163 0.0
H1736 H 0.89392 0.82418 0.87711 0.0
H1737 H 0.92291 0.79393 0.8906 0.0
C1738 C 0.42733 0.30227 0.3354 0.0
C1739 C 0.43253 0.31817 0.31427 0.0
C1740 C 0.44201 0.28279 0.34345 0.0
C1741 C 0.49281 0.24601 0.31965 0.0
H1742 H 0.49247 0.22014 0.39064 0.0
C1743 C 0.56278 0.18021 0.35838 0.0
C1744 C 0.5574 0.16028 0.37559 0.0
C1745 C 0.54658 0.19783 0.35031 0.0
C1746 C 0.49258 0.22676 0.37055 0.0
H1747 H 0.45802 0.32747 0.28644 0.0
H1748 H 0.48433 0.29547 0.30179 0.0
H1749 H 0.46694 0.25445 0.379 0.0
H1750 H 0.53099 0.14283 0.39777 0.0
H1751 H 0.50277 0.17432 0.38449 0.0
H1752 H 0.5187 0.21849 0.31143 0.0
C1753 C 0.46833 0.29645 0.31113 0.0
C1754 C 0.47779 0.24661 0.36374 0.0
C1755 C 0.45335 0.31527 0.30253 0.0
C1756 C 0.53554 0.15823 0.38461 0.0
C1757 C 0.51945 0.17636 0.37707 0.0
C1758 C 0.5076 0.22627 0.32648 0.0
C1759 C 0.46264 0.27909 0.33106 0.0
C1760 C 0.47788 0.25702 0.33828 0.0
C1761 C 0.52477 0.19657 0.35987 0.0
C1762 C 0.50796 0.21655 0.35215 0.0
H1763 H 0.41134 0.30385 0.34477 0.0
H1764 H 0.43662 0.27003 0.35871 0.0
H1765 H 0.49305 0.25231 0.29947 0.0
H1766 H 0.57948 0.18201 0.35096 0.0
H1767 H 0.55126 0.21275 0.33682 0.0
C1768 C 0.94589 0.17158 0.59163 0.0
C1769 C 0.94106 0.16856 0.56399 0.0
C1770 C 0.96477 0.18633 0.60169 0.0
C1771 C 0.01889 0.21777 0.58152 0.0
H1772 H 0.0131 0.25901 0.64868 0.0
C1773 C 0.08568 0.29837 0.62122 0.0
C1774 C 0.08927 0.30231 0.64903 0.0
C1775 C 0.06833 0.2812 0.61048 0.0
C1776 C 0.01533 0.24729 0.63014 0.0
H1777 H 0.95308 0.17807 0.52527 0.0
H1778 H 0.98561 0.20413 0.54275 0.0
H1779 H 0.98224 0.23082 0.63094 0.0
H1780 H 0.07751 0.29066 0.6872 0.0
H1781 H 0.04803 0.26069 0.66872 0.0
H1782 H 0.05186 0.23504 0.58047 0.0
C1783 C 0.97499 0.19484 0.55676 0.0
C1784 C 0.99746 0.23092 0.61989 0.0
C1785 C 0.95605 0.18013 0.54668 0.0
C1786 C 0.07516 0.2885 0.66569 0.0
C1787 C 0.05804 0.27129 0.65501 0.0
C1788 C 0.03674 0.23442 0.59167 0.0
C1789 C 0.97949 0.19856 0.58448 0.0
C1790 C 0.9989 0.2158 0.59544 0.0
C1791 C 0.05415 0.26747 0.62725 0.0
C1792 C 0.03523 0.2495 0.61616 0.0
H1793 H 0.93505 0.16259 0.60563 0.0
H1794 H 0.96782 0.18797 0.62309 0.0
H1795 H 0.02097 0.20615 0.56288 0.0
H1796 H 0.09613 0.30872 0.60775 0.0
H1797 H 0.06587 0.279 0.58902 0.0
C1798 C 0.42723 0.69746 0.12201 0.0
C1799 C 0.40591 0.70459 0.11344 0.0
C1800 C 0.4457 0.71458 0.11892 0.0
C1801 C 0.46582 0.77185 0.08179 0.0
H1802 H 0.50561 0.7863 0.14348 0.0
C1803 C 0.54806 0.83458 0.07795 0.0
C1804 C 0.5533 0.85292 0.09964 0.0
C1805 C 0.52982 0.81672 0.07878 0.0
C1806 C 0.49457 0.78265 0.12613 0.0
H1807 H 0.38715 0.73435 0.09396 0.0
H1808 H 0.4195 0.76338 0.08695 0.0
H1809 H 0.47492 0.75364 0.14529 0.0
H1810 H 0.54369 0.86716 0.13912 0.0
H1811 H 0.51264 0.83469 0.14136 0.0
H1812 H 0.48555 0.80073 0.06256 0.0
C1813 C 0.42206 0.74488 0.09641 0.0
C1814 C 0.47714 0.76363 0.12704 0.0
C1815 C 0.40353 0.72823 0.1003 0.0
C1816 C 0.54014 0.85292 0.1223 0.0
C1817 C 0.52241 0.83433 0.12354 0.0
C1818 C 0.48349 0.79052 0.08071 0.0
C1819 C 0.4433 0.73868 0.10635 0.0
C1820 C 0.46249 0.75803 0.1049 0.0
C1821 C 0.51697 0.81602 0.10174 0.0
C1822 C 0.49806 0.79624 0.10291 0.0
H1823 H 0.42939 0.67959 0.13269 0.0
H1824 H 0.46181 0.70917 0.12681 0.0
H1825 H 0.45493 0.76796 0.06433 0.0
H1826 H 0.55772 0.83453 0.06005 0.0
H1827 H 0.52601 0.80313 0.06155 0.0
C1828 C 0.65173 0.36658 0.78208 0.0
C1829 C 0.65816 0.37104 0.80918 0.0
C1830 C 0.64869 0.38787 0.76592 0.0
C1831 C 0.66191 0.46033 0.76096 0.0
H1832 H 0.61752 0.45086 0.70345 0.0
C1833 C 0.65565 0.53482 0.67647 0.0
C1834 C 0.6348 0.53746 0.66372 0.0
C1835 C 0.65859 0.51556 0.69531 0.0
C1836 C 0.62981 0.45433 0.71955 0.0
H1837 H 0.66609 0.40185 0.84056 0.0
H1838 H 0.66019 0.43925 0.81237 0.0
H1839 H 0.62086 0.4172 0.73526 0.0
H1840 H 0.60051 0.52295 0.66144 0.0
H1841 H 0.60496 0.49128 0.6954 0.0
H1842 H 0.6702 0.4981 0.74577 0.0
C1843 C 0.65798 0.41908 0.80351 0.0
C1844 C 0.63201 0.43455 0.73769 0.0
C1845 C 0.66123 0.39761 0.81975 0.0
C1846 C 0.61683 0.52124 0.67082 0.0
C1847 C 0.61955 0.50264 0.69007 0.0
C1848 C 0.65952 0.4804 0.74291 0.0
C1849 C 0.65165 0.41448 0.7763 0.0
C1850 C 0.64833 0.43695 0.75843 0.0
C1851 C 0.64057 0.49895 0.70228 0.0
C1852 C 0.64344 0.4777 0.7218 0.0
H1853 H 0.64944 0.34649 0.77302 0.0
H1854 H 0.64443 0.38329 0.745 0.0
H1855 H 0.67475 0.46297 0.77655 0.0
H1856 H 0.66987 0.54685 0.67112 0.0
H1857 H 0.67511 0.51337 0.70391 0.0
C1858 C 0.86598 0.39827 0.07403 0.0
C1859 C 0.88023 0.37716 0.07872 0.0
C1860 C 0.84738 0.39445 0.05643 0.0
C1861 C 0.80937 0.34134 0.02378 0.0
H1862 H 0.79357 0.39612 0.97646 0.0
C1863 C 0.73576 0.32278 0.94658 0.0
C1864 C 0.72487 0.34446 0.93624 0.0
C1865 C 0.75478 0.32679 0.96339 0.0
C1866 C 0.79722 0.38068 0.98982 0.0
H1867 H 0.88579 0.33529 0.06864 0.0
H1868 H 0.85357 0.32864 0.03793 0.0
H1869 H 0.82576 0.4031 0.00664 0.0
H1870 H 0.72513 0.38755 0.93632 0.0
H1871 H 0.75711 0.39484 0.96699 0.0
H1872 H 0.78082 0.31909 0.00784 0.0
C1873 C 0.85664 0.34821 0.04793 0.0
C1874 C 0.81597 0.38472 0.00718 0.0
C1875 C 0.87529 0.35207 0.06543 0.0
C1876 C 0.73316 0.37036 0.94382 0.0
C1877 C 0.7519 0.37446 0.9612 0.0
C1878 C 0.79045 0.33745 0.00677 0.0
C1879 C 0.84239 0.36933 0.0431 0.0
C1880 C 0.82234 0.36512 0.02448 0.0
C1881 C 0.76335 0.35274 0.97111 0.0
C1882 C 0.78386 0.35703 0.98941 0.0
H1883 H 0.86911 0.41781 0.0841 0.0
H1884 H 0.83668 0.41112 0.05362 0.0
H1885 H 0.81357 0.3258 0.03685 0.0
H1886 H 0.73006 0.3025 0.94089 0.0
H1887 H 0.76296 0.30924 0.96965 0.0
C1888 C 0.85683 0.60274 0.32744 0.0
C1889 C 0.87636 0.61684 0.33605 0.0
C1890 C 0.8575 0.58047 0.30954 0.0
C1891 C 0.90252 0.52856 0.28339 0.0
H1892 H 0.83388 0.49962 0.24117 0.0
C1893 C 0.92418 0.4451 0.2006 0.0
C1894 C 0.91559 0.41879 0.19622 0.0
C1895 C 0.9156 0.46277 0.22004 0.0
C1896 C 0.85 0.50403 0.25147 0.0
H1897 H 0.91199 0.61977 0.33163 0.0
H1898 H 0.91347 0.58104 0.29989 0.0
H1899 H 0.83943 0.54785 0.26657 0.0
H1900 H 0.89322 0.38949 0.21188 0.0
H1901 H 0.87989 0.41976 0.24815 0.0
H1902 H 0.9241 0.48981 0.27309 0.0
C1903 C 0.89749 0.58612 0.3078 0.0
C1904 C 0.8535 0.53494 0.26711 0.0
C1905 C 0.89678 0.60839 0.32619 0.0
C1906 C 0.89983 0.40982 0.21417 0.0
C1907 C 0.89179 0.42751 0.23466 0.0
C1908 C 0.90743 0.49721 0.2709 0.0
C1909 C 0.87781 0.57151 0.29932 0.0
C1910 C 0.87829 0.54592 0.28205 0.0
C1911 C 0.89829 0.45499 0.23646 0.0
C1912 C 0.88731 0.47767 0.25353 0.0
H1913 H 0.84081 0.60908 0.33434 0.0
H1914 H 0.84181 0.57013 0.30469 0.0
H1915 H 0.91661 0.53796 0.29441 0.0
H1916 H 0.93665 0.45287 0.18776 0.0
H1917 H 0.92172 0.48331 0.221 0.0
C1918 C 0.80789 0.66025 0.43379 0.0
C1919 C 0.8111 0.6425 0.41148 0.0
C1920 C 0.79179 0.6544 0.45258 0.0
C1921 C 0.75682 0.59878 0.47657 0.0
H1922 H 0.71791 0.65507 0.5005 0.0
C1923 C 0.68304 0.5747 0.54361 0.0
C1924 C 0.67413 0.59496 0.56032 0.0
C1925 C 0.69906 0.58064 0.52497 0.0
C1926 C 0.72878 0.63904 0.49468 0.0
H1927 H 0.80086 0.60392 0.39247 0.0
H1928 H 0.77326 0.59372 0.42501 0.0
H1929 H 0.74822 0.66491 0.47139 0.0
H1930 H 0.67535 0.63743 0.57086 0.0
H1931 H 0.70423 0.64778 0.53991 0.0
H1932 H 0.73875 0.57313 0.50074 0.0
C1933 C 0.78291 0.61225 0.42807 0.0
C1934 C 0.74626 0.6448 0.47774 0.0
C1935 C 0.79875 0.61818 0.40928 0.0
C1936 C 0.68182 0.62135 0.55816 0.0
C1937 C 0.69832 0.62727 0.53997 0.0
C1938 C 0.73985 0.59316 0.49411 0.0
C1939 C 0.77877 0.63052 0.44966 0.0
C1940 C 0.76056 0.62474 0.46846 0.0
C1941 C 0.7073 0.60702 0.5229 0.0
C1942 C 0.72535 0.61313 0.50355 0.0
H1943 H 0.81708 0.67916 0.43609 0.0
H1944 H 0.78938 0.66871 0.46925 0.0
H1945 H 0.76746 0.58277 0.4699 0.0
H1946 H 0.6772 0.55417 0.54443 0.0
H1947 H 0.70457 0.5643 0.51196 0.0
C1948 C 0.617 0.45329 0.88684 0.0
C1949 C 0.61028 0.42623 0.88274 0.0
C1950 C 0.61906 0.46959 0.86547 0.0
C1951 C 0.60335 0.47512 0.79321 0.0
H1952 H 0.64624 0.53419 0.80257 0.0
C1953 C 0.60508 0.56329 0.72163 0.0
C1954 C 0.62554 0.57692 0.71875 0.0
C1955 C 0.60324 0.54314 0.73987 0.0
C1956 C 0.63433 0.51769 0.79909 0.0
H1957 H 0.60076 0.39516 0.85225 0.0
H1958 H 0.60519 0.42351 0.81456 0.0
H1959 H 0.64476 0.5015 0.83543 0.0
H1960 H 0.66017 0.57945 0.73199 0.0
H1961 H 0.65747 0.54398 0.76209 0.0
H1962 H 0.5939 0.49079 0.75584 0.0
C1963 C 0.60833 0.43227 0.83463 0.0
C1964 C 0.63317 0.49899 0.8185 0.0
C1965 C 0.60597 0.41588 0.85626 0.0
C1966 C 0.64413 0.56945 0.7338 0.0
C1967 C 0.64243 0.54919 0.7515 0.0
C1968 C 0.6048 0.4937 0.77337 0.0
C1969 C 0.61491 0.45949 0.83892 0.0
C1970 C 0.61732 0.47771 0.81635 0.0
C1971 C 0.62189 0.53597 0.75542 0.0
C1972 C 0.62019 0.51554 0.77612 0.0
H1973 H 0.62017 0.4623 0.90681 0.0
H1974 H 0.62346 0.49046 0.87005 0.0
H1975 H 0.5909 0.4591 0.7906 0.0
H1976 H 0.59035 0.56894 0.71064 0.0
H1977 H 0.58704 0.53377 0.74226 0.0
C1978 C 0.78699 0.31824 0.08435 0.0
C1979 C 0.79056 0.34102 0.10189 0.0
C1980 C 0.77006 0.31758 0.06433 0.0
C1981 C 0.73399 0.36318 0.02693 0.0
H1982 H 0.69573 0.30029 0.01204 0.0
C1983 C 0.64812 0.36982 0.97497 0.0
C1984 C 0.63934 0.3485 0.95804 0.0
C1985 C 0.66824 0.36765 0.98921 0.0
C1986 C 0.70644 0.31793 0.01558 0.0
H1987 H 0.77956 0.38107 0.11183 0.0
H1988 H 0.75073 0.38026 0.07693 0.0
H1989 H 0.72769 0.29861 0.04302 0.0
H1990 H 0.64485 0.3079 0.94312 0.0
H1991 H 0.68052 0.3042 0.96753 0.0
H1992 H 0.71273 0.38267 0.99997 0.0
C1993 C 0.7608 0.36281 0.07835 0.0
C1994 C 0.72483 0.31696 0.03342 0.0
C1995 C 0.77731 0.36326 0.09854 0.0
C1996 C 0.65139 0.32489 0.95552 0.0
C1997 C 0.67167 0.32267 0.96987 0.0
C1998 C 0.71565 0.36416 0.00925 0.0
C1999 C 0.75679 0.33997 0.06095 0.0
C2000 C 0.73856 0.3398 0.03986 0.0
C2001 C 0.68032 0.34402 0.98709 0.0
C2002 C 0.70128 0.34176 0.00371 0.0
H2003 H 0.79681 0.30071 0.08661 0.0
H2004 H 0.76759 0.29966 0.05128 0.0
H2005 H 0.74456 0.38093 0.03053 0.0
H2006 H 0.63925 0.38824 0.97762 0.0
H2007 H 0.67393 0.38438 0.00259 0.0
C2008 C 0.88837 0.52317 0.35843 0.0
C2009 C 0.86955 0.53741 0.36663 0.0
C2010 C 0.88842 0.50872 0.33358 0.0
C2011 C 0.85611 0.4691 0.27989 0.0
H2012 H 0.87716 0.50325 0.19505 0.0
C2013 C 0.8322 0.41046 0.17873 0.0
C2014 C 0.84989 0.40338 0.16225 0.0
C2015 C 0.83323 0.4344 0.19449 0.0
C2016 C 0.87345 0.49762 0.2149 0.0
H2017 H 0.83502 0.54439 0.35671 0.0
H2018 H 0.83495 0.51878 0.31337 0.0
H2019 H 0.8918 0.53648 0.23737 0.0
H2020 H 0.88024 0.41802 0.14591 0.0
H2021 H 0.88253 0.45942 0.17369 0.0
H2022 H 0.84157 0.43749 0.24724 0.0
C2023 C 0.85006 0.51989 0.32572 0.0
C2024 C 0.88295 0.51798 0.24171 0.0
C2025 C 0.8501 0.53475 0.35045 0.0
C2026 C 0.86669 0.4226 0.15867 0.0
C2027 C 0.86793 0.44649 0.17477 0.0
C2028 C 0.85072 0.45638 0.24839 0.0
C2029 C 0.86978 0.50861 0.31602 0.0
C2030 C 0.87074 0.49841 0.28654 0.0
C2031 C 0.85229 0.45125 0.19468 0.0
C2032 C 0.85819 0.46899 0.21881 0.0
H2033 H 0.90338 0.52376 0.3709 0.0
H2034 H 0.90342 0.49875 0.32762 0.0
H2035 H 0.84954 0.45864 0.29626 0.0
H2036 H 0.81845 0.39655 0.18119 0.0
H2037 H 0.82007 0.43835 0.20841 0.0
C2038 C 0.81514 0.56579 0.48932 0.0
C2039 C 0.82793 0.58747 0.48107 0.0
C2040 C 0.79965 0.56937 0.50962 0.0
C2041 C 0.76754 0.62255 0.54687 0.0
H2042 H 0.75435 0.56522 0.5924 0.0
C2043 C 0.70351 0.63596 0.63157 0.0
C2044 C 0.69284 0.61342 0.6411 0.0
C2045 C 0.72019 0.63328 0.61258 0.0
C2046 C 0.75729 0.58138 0.5796 0.0
H2047 H 0.83421 0.6301 0.48784 0.0
H2048 H 0.80752 0.6364 0.52316 0.0
H2049 H 0.78305 0.55991 0.55977 0.0
H2050 H 0.69078 0.57032 0.63759 0.0
H2051 H 0.7183 0.56541 0.60296 0.0
H2052 H 0.74177 0.64398 0.56628 0.0
C2053 C 0.80916 0.61652 0.51388 0.0
C2054 C 0.77404 0.57832 0.56074 0.0
C2055 C 0.82462 0.61291 0.49355 0.0
C2056 C 0.69866 0.58808 0.63055 0.0
C2057 C 0.71487 0.58535 0.61094 0.0
C2058 C 0.75069 0.62556 0.5656 0.0
C2059 C 0.79639 0.59481 0.52239 0.0
C2060 C 0.7793 0.59869 0.54372 0.0
C2061 C 0.72642 0.60788 0.60199 0.0
C2062 C 0.74494 0.6049 0.58215 0.0
H2063 H 0.81716 0.5459 0.48017 0.0
H2064 H 0.78987 0.55216 0.51484 0.0
H2065 H 0.77064 0.63871 0.53408 0.0
H2066 H 0.69966 0.65575 0.63975 0.0
H2067 H 0.7286 0.6513 0.60699 0.0
C2068 C 0.55399 0.61712 0.66015 0.0
C2069 C 0.56646 0.61623 0.63682 0.0
C2070 C 0.53739 0.63601 0.66425 0.0
C2071 C 0.49943 0.67943 0.62763 0.0
H2072 H 0.49482 0.71773 0.69651 0.0
C2073 C 0.438 0.76691 0.6416 0.0
C2074 C 0.43092 0.77491 0.66724 0.0
C2075 C 0.45397 0.74711 0.63795 0.0
C2076 C 0.49514 0.70692 0.67722 0.0
H2077 H 0.57104 0.63442 0.59938 0.0
H2078 H 0.54176 0.66705 0.60621 0.0
H2079 H 0.52196 0.68338 0.69066 0.0
H2080 H 0.43474 0.76769 0.70913 0.0
H2081 H 0.46137 0.73277 0.70299 0.0
H2082 H 0.47161 0.70123 0.6145 0.0
C2083 C 0.54491 0.65324 0.62149 0.0
C2084 C 0.51118 0.68727 0.67379 0.0
C2085 C 0.56198 0.63483 0.61774 0.0
C2086 C 0.44007 0.76241 0.68909 0.0
C2087 C 0.45567 0.74229 0.68546 0.0
C2088 C 0.48271 0.6983 0.6313 0.0
C2089 C 0.53231 0.6541 0.64479 0.0
C2090 C 0.51405 0.67376 0.64878 0.0
C2091 C 0.46316 0.73426 0.65982 0.0
C2092 C 0.48044 0.7129 0.65607 0.0
H2093 H 0.55687 0.60286 0.67508 0.0
H2094 H 0.52801 0.63585 0.68235 0.0
H2095 H 0.5007 0.66899 0.6082 0.0
H2096 H 0.43134 0.77613 0.62428 0.0
H2097 H 0.45922 0.74238 0.61785 0.0
C2098 C 0.35111 0.59309 0.18324 0.0
C2099 C 0.36201 0.61804 0.18887 0.0
C2100 C 0.35196 0.57335 0.20168 0.0
C2101 C 0.34619 0.53915 0.24885 0.0
H2102 H 0.39829 0.53607 0.29559 0.0
C2103 C 0.34869 0.47105 0.33868 0.0
C2104 C 0.36943 0.46141 0.34634 0.0
C2105 C 0.34722 0.48907 0.31843 0.0
C2106 C 0.38365 0.53623 0.28255 0.0
H2107 H 0.38231 0.64182 0.21832 0.0
H2108 H 0.38333 0.6079 0.25071 0.0
H2109 H 0.3977 0.56804 0.26172 0.0
H2110 H 0.40468 0.46208 0.33873 0.0
H2111 H 0.40221 0.49231 0.30307 0.0
H2112 H 0.33269 0.50622 0.26882 0.0
C2113 C 0.37456 0.6031 0.23181 0.0
C2114 C 0.38314 0.55512 0.2633 0.0
C2115 C 0.37387 0.62274 0.21327 0.0
C2116 C 0.38847 0.46925 0.33303 0.0
C2117 C 0.38705 0.48701 0.31287 0.0
C2118 C 0.34684 0.51991 0.26788 0.0
C2119 C 0.36363 0.57805 0.22633 0.0
C2120 C 0.36434 0.55711 0.24629 0.0
C2121 C 0.36651 0.49773 0.30557 0.0
C2122 C 0.36556 0.5182 0.28512 0.0
H2123 H 0.34197 0.58872 0.1645 0.0
H2124 H 0.34367 0.55427 0.19633 0.0
H2125 H 0.33125 0.54009 0.23642 0.0
H2126 H 0.33385 0.4656 0.34909 0.0
H2127 H 0.33111 0.49698 0.31369 0.0
C2128 C 0.30195 0.70082 0.05368 0.0
C2129 C 0.30929 0.68358 0.07293 0.0
C2130 C 0.28285 0.69443 0.03759 0.0
C2131 C 0.24466 0.63703 0.01385 0.0
H2132 H 0.20676 0.69339 0.99186 0.0
C2133 C 0.17465 0.61454 0.93394 0.0
C2134 C 0.15453 0.62816 0.93598 0.0
C2135 C 0.19319 0.62226 0.95045 0.0
C2136 C 0.21695 0.67727 0.99797 0.0
H2137 H 0.30197 0.64592 0.09015 0.0
H2138 H 0.26883 0.63475 0.06215 0.0
H2139 H 0.23899 0.70437 0.0213 0.0
H2140 H 0.13857 0.66142 0.95651 0.0
H2141 H 0.17082 0.67481 0.98559 0.0
H2142 H 0.22245 0.60986 0.99107 0.0
C2143 C 0.27798 0.65315 0.05919 0.0
C2144 C 0.23576 0.68366 0.01464 0.0
C2145 C 0.29709 0.65956 0.07532 0.0
C2146 C 0.15383 0.65057 0.95422 0.0
C2147 C 0.1724 0.6582 0.97099 0.0
C2148 C 0.22589 0.63066 0.99719 0.0
C2149 C 0.27049 0.6705 0.04006 0.0
C2150 C 0.25004 0.66366 0.02272 0.0
C2151 C 0.19225 0.64376 0.9698 0.0
C2152 C 0.21183 0.65068 0.98863 0.0
H2153 H 0.31083 0.71952 0.05122 0.0
H2154 H 0.27793 0.70825 0.02299 0.0
H2155 H 0.25526 0.621 0.01923 0.0
H2156 H 0.17597 0.59741 0.91987 0.0
H2157 H 0.20829 0.61117 0.948 0.0
C2158 C 0.09927 0.58995 0.81429 0.0
C2159 C 0.10319 0.58433 0.84104 0.0
C2160 C 0.10173 0.56999 0.79365 0.0
C2161 C 0.09823 0.51964 0.75474 0.0
H2162 H 0.14504 0.46961 0.766 0.0
C2163 C 0.10811 0.42143 0.68693 0.0
C2164 C 0.1299 0.41269 0.68355 0.0
C2165 C 0.10416 0.44371 0.70449 0.0
C2166 C 0.13203 0.48349 0.76214 0.0
H2167 H 0.11275 0.5536 0.86711 0.0
H2168 H 0.11717 0.51938 0.83181 0.0
H2169 H 0.14055 0.50651 0.79821 0.0
H2170 H 0.1646 0.4204 0.69486 0.0
H2171 H 0.15805 0.45915 0.72447 0.0
H2172 H 0.09055 0.4969 0.71774 0.0
C2173 C 0.11252 0.53901 0.82629 0.0
C2174 C 0.12915 0.50455 0.78106 0.0
C2175 C 0.10992 0.55871 0.84669 0.0
C2176 C 0.14763 0.42683 0.69717 0.0
C2177 C 0.14378 0.44891 0.71446 0.0
C2178 C 0.1013 0.49855 0.73548 0.0
C2179 C 0.10854 0.54423 0.79942 0.0
C2180 C 0.11204 0.52277 0.77794 0.0
C2181 C 0.12199 0.45751 0.71882 0.0
C2182 C 0.11824 0.48011 0.73899 0.0
H2183 H 0.09367 0.60942 0.80941 0.0
H2184 H 0.0987 0.57488 0.7732 0.0
H2185 H 0.08483 0.5332 0.7516 0.0
H2186 H 0.09416 0.41047 0.67691 0.0
H2187 H 0.08714 0.44952 0.70747 0.0
C2188 C 0.19571 0.3561 0.5741 0.0
C2189 C 0.19654 0.36748 0.60048 0.0
C2190 C 0.21232 0.36236 0.55617 0.0
C2191 C 0.2566 0.4136 0.54541 0.0
H2192 H 0.27814 0.35983 0.4943 0.0
C2193 C 0.31161 0.4434 0.45982 0.0
C2194 C 0.32956 0.42734 0.45243 0.0
C2195 C 0.29575 0.43478 0.47746 0.0
C2196 C 0.27244 0.37508 0.50854 0.0
H2197 H 0.21552 0.39443 0.62856 0.0
H2198 H 0.24443 0.40504 0.59763 0.0
H2199 H 0.24988 0.3476 0.52575 0.0
H2200 H 0.34426 0.38893 0.45728 0.0
H2201 H 0.31639 0.37371 0.48806 0.0
H2202 H 0.27908 0.44105 0.52842 0.0
C2203 C 0.23086 0.39153 0.59055 0.0
C2204 C 0.256 0.36812 0.52642 0.0
C2205 C 0.2143 0.3853 0.60842 0.0
C2206 C 0.33068 0.40186 0.46248 0.0
C2207 C 0.31465 0.39312 0.48014 0.0
C2208 C 0.27281 0.42058 0.52742 0.0
C2209 C 0.23014 0.3802 0.56413 0.0
C2210 C 0.24776 0.38733 0.54505 0.0
C2211 C 0.29721 0.40973 0.48832 0.0
C2212 C 0.28076 0.40156 0.50841 0.0
H2213 H 0.18219 0.34242 0.56725 0.0
H2214 H 0.21098 0.3535 0.53592 0.0
H2215 H 0.25059 0.42907 0.55919 0.0
H2216 H 0.30991 0.463 0.45227 0.0
H2217 H 0.28225 0.44786 0.48254 0.0
C2218 C 0.37024 0.43616 0.26792 0.0
C2219 C 0.38985 0.42549 0.27807 0.0
C2220 C 0.37106 0.45686 0.25062 0.0
C2221 C 0.40973 0.50775 0.22257 0.0
H2222 H 0.3616 0.50926 0.16973 0.0
C2223 C 0.38554 0.56078 0.11721 0.0
C2224 C 0.39654 0.58569 0.12247 0.0
C2225 C 0.3844 0.54226 0.13695 0.0
C2226 C 0.37544 0.50908 0.18399 0.0
H2227 H 0.42581 0.42802 0.27807 0.0
H2228 H 0.42751 0.46407 0.24735 0.0
H2229 H 0.36132 0.47516 0.20143 0.0
H2230 H 0.4142 0.61105 0.15309 0.0
H2231 H 0.41134 0.57948 0.1878 0.0
H2232 H 0.42443 0.54088 0.20403 0.0
C2233 C 0.41133 0.45695 0.25323 0.0
C2234 C 0.37505 0.48964 0.20279 0.0
C2235 C 0.41045 0.43625 0.27087 0.0
C2236 C 0.40575 0.59194 0.14826 0.0
C2237 C 0.40434 0.57358 0.16814 0.0
C2238 C 0.41029 0.52702 0.20346 0.0
C2239 C 0.39159 0.46741 0.2425 0.0
C2240 C 0.39217 0.48855 0.22248 0.0
C2241 C 0.39393 0.5482 0.16276 0.0
C2242 C 0.39318 0.52798 0.18372 0.0
H2243 H 0.35411 0.42818 0.27317 0.0
H2244 H 0.35543 0.46456 0.24371 0.0
H2245 H 0.42308 0.50814 0.23754 0.0
H2246 H 0.37851 0.55515 0.09748 0.0
H2247 H 0.37657 0.52293 0.13154 0.0
C2248 C 0.34232 0.64084 0.03488 0.0
C2249 C 0.36106 0.65721 0.03091 0.0
C2250 C 0.32307 0.64213 0.01871 0.0
C2251 C 0.29341 0.68466 0.97185 0.0
H2252 H 0.26234 0.61791 0.94959 0.0
C2253 C 0.20722 0.68051 0.91535 0.0
C2254 C 0.20395 0.66065 0.89449 0.0
C2255 C 0.22631 0.68082 0.93215 0.0
C2256 C 0.27088 0.63676 0.95538 0.0
H2257 H 0.37454 0.68777 0.00707 0.0
H2258 H 0.34042 0.69115 0.97952 0.0
H2259 H 0.2959 0.61757 0.97775 0.0
H2260 H 0.21791 0.62539 0.87511 0.0
H2261 H 0.25057 0.62519 0.90499 0.0
H2262 H 0.26838 0.70378 0.9492 0.0
C2263 C 0.34053 0.67725 0.99513 0.0
C2264 C 0.29004 0.6366 0.97189 0.0
C2265 C 0.36004 0.67548 0.01097 0.0
C2266 C 0.21982 0.64075 0.89124 0.0
C2267 C 0.23858 0.64066 0.90842 0.0
C2268 C 0.27409 0.68484 0.95548 0.0
C2269 C 0.3219 0.66019 0.99843 0.0
C2270 C 0.30159 0.66055 0.98046 0.0
C2271 C 0.24221 0.6608 0.92903 0.0
C2272 C 0.26257 0.66086 0.94695 0.0
H2273 H 0.3429 0.62617 0.04977 0.0
H2274 H 0.3091 0.6288 0.02206 0.0
H2275 H 0.3017 0.70352 0.97818 0.0
H2276 H 0.19547 0.69638 0.91805 0.0
H2277 H 0.22853 0.69671 0.94769 0.0
C2278 C 0.16624 0.45863 0.63242 0.0
C2279 C 0.14537 0.44863 0.62254 0.0
C2280 C 0.16761 0.47837 0.6537 0.0
C2281 C 0.13206 0.52994 0.68727 0.0
H2282 H 0.17894 0.53457 0.74207 0.0
C2283 C 0.14052 0.6202 0.76409 0.0
C2284 C 0.14693 0.61569 0.79044 0.0
C2285 C 0.14092 0.59961 0.744 0.0
C2286 C 0.1656 0.53345 0.72705 0.0
H2287 H 0.10976 0.45054 0.6273 0.0
H2288 H 0.112 0.48404 0.66432 0.0
H2289 H 0.17899 0.49887 0.70668 0.0
H2290 H 0.15962 0.58652 0.81644 0.0
H2291 H 0.16057 0.55044 0.78132 0.0
H2292 H 0.1182 0.5638 0.70791 0.0
C2293 C 0.12738 0.47746 0.65568 0.0
C2294 C 0.16581 0.51314 0.7065 0.0
C2295 C 0.12607 0.45784 0.63474 0.0
C2296 C 0.15404 0.59028 0.79635 0.0
C2297 C 0.1549 0.56975 0.77611 0.0
C2298 C 0.13181 0.55009 0.70776 0.0
C2299 C 0.1481 0.48856 0.66513 0.0
C2300 C 0.14888 0.51091 0.68644 0.0
C2301 C 0.14817 0.57407 0.74966 0.0
C2302 C 0.14855 0.55219 0.72799 0.0
H2303 H 0.18132 0.45225 0.62286 0.0
H2304 H 0.18387 0.48646 0.66032 0.0
H2305 H 0.11893 0.52937 0.672 0.0
H2306 H 0.13556 0.63985 0.75893 0.0
H2307 H 0.13615 0.60401 0.72384 0.0
C2308 C 0.18635 0.39191 0.49968 0.0
C2309 C 0.18761 0.41624 0.51534 0.0
C2310 C 0.20286 0.38563 0.48104 0.0
C2311 C 0.24605 0.41998 0.44237 0.0
H2312 H 0.2697 0.34954 0.42892 0.0
C2313 C 0.32656 0.36784 0.38867 0.0
C2314 C 0.32707 0.38142 0.36504 0.0
C2315 C 0.30868 0.37062 0.40594 0.0
C2316 C 0.26333 0.36938 0.43248 0.0
H2317 H 0.20826 0.45198 0.52484 0.0
H2318 H 0.23643 0.44119 0.49282 0.0
H2319 H 0.24014 0.35623 0.46104 0.0
H2320 H 0.30921 0.40886 0.34127 0.0
H2321 H 0.27824 0.414 0.37144 0.0
H2322 H 0.26936 0.43335 0.41434 0.0
C2323 C 0.22253 0.4272 0.49421 0.0
C2324 C 0.24616 0.37314 0.4507 0.0
C2325 C 0.20633 0.43331 0.51283 0.0
C2326 C 0.3094 0.39815 0.35931 0.0
C2327 C 0.29165 0.40116 0.37672 0.0
C2328 C 0.26298 0.41619 0.42401 0.0
C2329 C 0.22084 0.40363 0.47754 0.0
C2330 C 0.23766 0.39865 0.4564 0.0
C2331 C 0.29097 0.38738 0.40027 0.0
C2332 C 0.27214 0.39093 0.41906 0.0
H2333 H 0.17223 0.37824 0.50108 0.0
H2334 H 0.20103 0.3672 0.46864 0.0
H2335 H 0.23968 0.43984 0.44573 0.0
H2336 H 0.33988 0.35478 0.39372 0.0
H2337 H 0.30893 0.3599 0.42397 0.0
C2338 C 0.44193 0.35863 0.40424 0.0
C2339 C 0.43452 0.37556 0.38485 0.0
C2340 C 0.46113 0.34364 0.40039 0.0
C2341 C 0.51031 0.33712 0.35459 0.0
H2342 H 0.51986 0.27292 0.39171 0.0
C2343 C 0.57347 0.26027 0.31853 0.0
C2344 C 0.58705 0.24781 0.33712 0.0
C2345 C 0.55599 0.27629 0.32678 0.0
C2346 C 0.51753 0.29092 0.38132 0.0
H2347 H 0.44071 0.38908 0.34567 0.0
H2348 H 0.47286 0.36177 0.33789 0.0
H2349 H 0.48673 0.29854 0.4002 0.0
H2350 H 0.59242 0.24257 0.37931 0.0
H2351 H 0.56161 0.27086 0.39384 0.0
H2352 H 0.54066 0.32855 0.33483 0.0
C2353 C 0.46496 0.36088 0.3569 0.0
C2354 C 0.49845 0.3059 0.38629 0.0
C2355 C 0.44617 0.37639 0.3611 0.0
C2356 C 0.58246 0.25192 0.36442 0.0
C2357 C 0.56471 0.268 0.37273 0.0
C2358 C 0.529 0.32181 0.34921 0.0
C2359 C 0.4732 0.3446 0.37669 0.0
C2360 C 0.4942 0.32906 0.37259 0.0
C2361 C 0.55139 0.28061 0.35395 0.0
C2362 C 0.53264 0.29818 0.36204 0.0
H2363 H 0.43345 0.35785 0.42294 0.0
H2364 H 0.46673 0.33198 0.41652 0.0
H2365 H 0.5087 0.35533 0.34444 0.0
H2366 H 0.57619 0.25761 0.29731 0.0
H2367 H 0.54583 0.28508 0.31168 0.0
loop_
_geom_bond_atom_site_label_1
_geom_bond_atom_site_label_2
_geom_bond_distance
_geom_bond_site_symmetry_2
_ccdc_geom_bond_type
Co0 O1 2.216 . S
Co0 O2 2.091 . S
Co0 O4 2.004 . S
Co0 O10 2.021 . S
Co0 O12 2.137 . S
Co0 O13 2.244 . S
O1 Co0 2.216 . S
O1 C8 1.247 . S
O2 Co0 2.091 . S
O2 C8 1.261 . S
C3 O12 1.247 . S
C3 O13 1.272 . S
O4 Co0 2.004 . S
O4 C9 1.259 . S
Co5 O6 2.061 . S
Co5 O11 2.052 . S
Co5 O13 2.135 . S
O6 Co5 2.061 . S
O6 C9 1.235 . S
C7 O10 1.238 . S
C7 O11 1.241 . S
C8 O1 1.247 . S
C8 O2 1.261 . S
C9 O4 1.259 . S
C9 O6 1.235 . S
O10 Co0 2.021 . S
O10 C7 1.238 . S
O11 Co5 2.052 . S
O11 C7 1.241 . S
O12 Co0 2.137 . S
O12 C3 1.247 . S
O13 Co0 2.244 . S
O13 C3 1.272 . S
O13 Co5 2.135 . S
Co14 O15 2.216 . S
Co14 O16 2.091 . S
Co14 O18 2.004 . S
Co14 O24 2.021 . S
Co14 O26 2.137 . S
Co14 O27 2.244 . S
O15 Co14 2.216 . S
O15 C22 1.247 . S
O16 Co14 2.091 . S
O16 C22 1.261 . S
C17 O26 1.247 . S
C17 O27 1.272 . S
O18 Co14 2.004 . S
O18 C23 1.259 . S
Co19 O20 2.061 . S
Co19 O25 2.052 . S
Co19 O27 2.135 . S
O20 Co19 2.061 . S
O20 C23 1.235 . S
C21 O24 1.238 . S
C21 O25 1.241 . S
C22 O15 1.247 . S
C22 O16 1.261 . S
C23 O18 1.259 . S
C23 O20 1.235 . S
O24 Co14 2.021 . S
O24 C21 1.238 . S
O25 Co19 2.052 . S
O25 C21 1.241 . S
O26 Co14 2.137 . S
O26 C17 1.247 . S
O27 Co14 2.244 . S
O27 C17 1.272 . S
O27 Co19 2.135 . S
Co28 O29 2.216 . S
Co28 O30 2.091 . S
Co28 O32 2.004 . S
Co28 O38 2.021 . S
Co28 O40 2.137 . S
Co28 O41 2.244 . S
O29 Co28 2.216 . S
O29 C36 1.247 . S
O30 Co28 2.091 . S
O30 C36 1.261 . S
C31 O40 1.247 . S
C31 O41 1.272 . S
O32 Co28 2.004 . S
O32 C37 1.259 . S
Co33 O34 2.061 . S
Co33 O39 2.052 . S
Co33 O41 2.135 . S
O34 Co33 2.061 . S
O34 C37 1.235 . S
C35 O38 1.238 . S
C35 O39 1.241 . S
C36 O29 1.247 . S
C36 O30 1.261 . S
C37 O32 1.259 . S
C37 O34 1.235 . S
O38 Co28 2.021 . S
O38 C35 1.238 . S
O39 Co33 2.052 . S
O39 C35 1.241 . S
O40 Co28 2.137 . S
O40 C31 1.247 . S
O41 Co28 2.244 . S
O41 C31 1.272 . S
O41 Co33 2.135 . S
Co42 O43 2.216 . S
Co42 O44 2.091 . S
Co42 O46 2.004 . S
Co42 O52 2.021 . S
Co42 O54 2.137 . S
Co42 O55 2.244 . S
O43 Co42 2.216 . S
O43 C50 1.247 . S
O44 Co42 2.091 . S
O44 C50 1.261 . S
C45 O54 1.247 . S
C45 O55 1.272 . S
O46 Co42 2.004 . S
O46 C51 1.259 . S
Co47 O48 2.061 . S
Co47 O53 2.052 . S
Co47 O55 2.135 . S
O48 Co47 2.061 . S
O48 C51 1.235 . S
C49 O52 1.238 . S
C49 O53 1.241 . S
C50 O43 1.247 . S
C50 O44 1.261 . S
C51 O46 1.259 . S
C51 O48 1.235 . S
O52 Co42 2.021 . S
O52 C49 1.238 . S
O53 Co47 2.052 . S
O53 C49 1.241 . S
O54 Co42 2.137 . S
O54 C45 1.247 . S
O55 Co42 2.244 . S
O55 C45 1.272 . S
O55 Co47 2.135 . S
Co56 O57 2.216 . S
Co56 O58 2.091 . S
Co56 O60 2.004 . S
Co56 O66 2.021 . S
Co56 O68 2.137 . S
Co56 O69 2.244 . S
O57 Co56 2.216 . S
O57 C64 1.247 . S
O58 Co56 2.091 . S
O58 C64 1.261 . S
C59 O68 1.247 . S
C59 O69 1.272 . S
O60 Co56 2.004 . S
O60 C65 1.259 . S
Co61 O62 2.061 . S
Co61 O67 2.052 . S
Co61 O69 2.135 . S
O62 Co61 2.061 . S
O62 C65 1.235 . S
C63 O66 1.238 . S
C63 O67 1.241 . S
C64 O57 1.247 . S
C64 O58 1.261 . S
C65 O60 1.259 . S
C65 O62 1.235 . S
O66 Co56 2.021 . S
O66 C63 1.238 . S
O67 Co61 2.052 . S
O67 C63 1.241 . S
O68 Co56 2.137 . S
O68 C59 1.247 . S
O69 Co56 2.244 . S
O69 C59 1.272 . S
O69 Co61 2.135 . S
Co70 O71 2.216 . S
Co70 O72 2.091 . S
Co70 O74 2.004 . S
Co70 O80 2.021 . S
Co70 O82 2.137 . S
Co70 O83 2.244 . S
O71 Co70 2.216 . S
O71 C78 1.247 . S
O72 Co70 2.091 . S
O72 C78 1.261 . S
C73 O82 1.247 . S
C73 O83 1.272 . S
O74 Co70 2.004 . S
O74 C79 1.259 . S
Co75 O76 2.061 . S
Co75 O81 2.052 . S
Co75 O83 2.135 . S
O76 Co75 2.061 . S
O76 C79 1.235 . S
C77 O80 1.238 . S
C77 O81 1.241 . S
C78 O71 1.247 . S
C78 O72 1.261 . S
C79 O74 1.259 . S
C79 O76 1.235 . S
O80 Co70 2.021 . S
O80 C77 1.238 . S
O81 Co75 2.052 . S
O81 C77 1.241 . S
O82 Co70 2.137 . S
O82 C73 1.247 . S
O83 Co70 2.244 . S
O83 C73 1.272 . S
O83 Co75 2.135 . S
Co84 O85 2.216 . S
Co84 O86 2.091 . S
Co84 O88 2.004 . S
Co84 O94 2.021 . S
Co84 O96 2.137 . S
Co84 O97 2.244 . S
O85 Co84 2.216 . S
O85 C92 1.247 . S
O86 Co84 2.091 . S
O86 C92 1.261 . S
C87 O96 1.247 . S
C87 O97 1.272 . S
O88 Co84 2.004 . S
O88 C93 1.259 . S
Co89 O90 2.061 . S
Co89 O95 2.052 . S
Co89 O97 2.135 . S
O90 Co89 2.061 . S
O90 C93 1.235 . S
C91 O94 1.238 . S
C91 O95 1.241 . S
C92 O85 1.247 . S
C92 O86 1.261 . S
C93 O88 1.259 . S
C93 O90 1.235 . S
O94 Co84 2.021 . S
O94 C91 1.238 . S
O95 Co89 2.052 . S
O95 C91 1.241 . S
O96 Co84 2.137 . S
O96 C87 1.247 . S
O97 Co84 2.244 . S
O97 C87 1.272 . S
O97 Co89 2.135 . S
Co98 O99 2.216 . S
Co98 O100 2.091 . S
Co98 O102 2.004 . S
Co98 O108 2.021 . S
Co98 O110 2.137 . S
Co98 O111 2.244 . S
O99 Co98 2.216 . S
O99 C106 1.247 . S
O100 Co98 2.091 . S
O100 C106 1.261 . S
C101 O110 1.247 . S
C101 O111 1.272 . S
O102 Co98 2.004 . S
O102 C107 1.259 . S
Co103 O104 2.061 . S
Co103 O109 2.052 . S
Co103 O111 2.135 . S
O104 Co103 2.061 . S
O104 C107 1.235 . S
C105 O108 1.238 . S
C105 O109 1.241 . S
C106 O99 1.247 . S
C106 O100 1.261 . S
C107 O102 1.259 . S
C107 O104 1.235 . S
O108 Co98 2.021 . S
O108 C105 1.238 . S
O109 Co103 2.052 . S
O109 C105 1.241 . S
O110 Co98 2.137 . S
O110 C101 1.247 . S
O111 Co98 2.244 . S
O111 C101 1.272 . S
O111 Co103 2.135 . S
Co112 O113 2.216 . S
Co112 O114 2.091 . S
Co112 O116 2.004 . S
Co112 O122 2.021 . S
Co112 O124 2.137 . S
Co112 O125 2.244 . S
O113 Co112 2.216 . S
O113 C120 1.247 . S
O114 Co112 2.091 . S
O114 C120 1.261 . S
C115 O124 1.247 . S
C115 O125 1.272 . S
O116 Co112 2.004 . S
O116 C121 1.259 . S
Co117 O118 2.061 . S
Co117 O123 2.052 . S
Co117 O125 2.135 . S
O118 Co117 2.061 . S
O118 C121 1.235 . S
C119 O122 1.238 . S
C119 O123 1.241 . S
C120 O113 1.247 . S
C120 O114 1.261 . S
C121 O116 1.259 . S
C121 O118 1.235 . S
O122 Co112 2.021 . S
O122 C119 1.238 . S
O123 Co117 2.052 . S
O123 C119 1.241 . S
O124 Co112 2.137 . S
O124 C115 1.247 . S
O125 Co112 2.244 . S
O125 C115 1.272 . S
O125 Co117 2.135 . S
Co126 O127 2.216 . S
Co126 O128 2.091 . S
Co126 O130 2.004 . S
Co126 O136 2.021 . S
Co126 O138 2.137 . S
Co126 O139 2.244 . S
O127 Co126 2.216 . S
O127 C134 1.247 . S
O128 Co126 2.091 . S
O128 C134 1.261 . S
C129 O138 1.247 . S
C129 O139 1.272 . S
O130 Co126 2.004 . S
O130 C135 1.259 . S
Co131 O132 2.061 . S
Co131 O137 2.052 . S
Co131 O139 2.135 . S
O132 Co131 2.061 . S
O132 C135 1.235 . S
C133 O136 1.238 . S
C133 O137 1.241 . S
C134 O127 1.247 . S
C134 O128 1.261 . S
C135 O130 1.259 . S
C135 O132 1.235 . S
O136 Co126 2.021 . S
O136 C133 1.238 . S
O137 Co131 2.052 . S
O137 C133 1.241 . S
O138 Co126 2.137 . S
O138 C129 1.247 . S
O139 Co126 2.244 . S
O139 C129 1.272 . S
O139 Co131 2.135 . S
Co140 O141 2.216 . S
Co140 O142 2.091 . S
Co140 O144 2.004 . S
Co140 O150 2.021 . S
Co140 O152 2.137 . S
Co140 O153 2.244 . S
O141 Co140 2.216 . S
O141 C148 1.247 . S
O142 Co140 2.091 . S
O142 C148 1.261 . S
C143 O152 1.247 . S
C143 O153 1.272 . S
O144 Co140 2.004 . S
O144 C149 1.259 . S
Co145 O146 2.061 . S
Co145 O151 2.052 . S
Co145 O153 2.135 . S
O146 Co145 2.061 . S
O146 C149 1.235 . S
C147 O150 1.238 . S
C147 O151 1.241 . S
C148 O141 1.247 . S
C148 O142 1.261 . S
C149 O144 1.259 . S
C149 O146 1.235 . S
O150 Co140 2.021 . S
O150 C147 1.238 . S
O151 Co145 2.052 . S
O151 C147 1.241 . S
O152 Co140 2.137 . S
O152 C143 1.247 . S
O153 Co140 2.244 . S
O153 C143 1.272 . S
O153 Co145 2.135 . S
Co154 O155 2.216 . S
Co154 O156 2.091 . S
Co154 O158 2.004 . S
Co154 O164 2.021 . S
Co154 O166 2.137 . S
Co154 O167 2.244 . S
O155 Co154 2.216 . S
O155 C162 1.247 . S
O156 Co154 2.091 . S
O156 C162 1.261 . S
C157 O166 1.247 . S
C157 O167 1.272 . S
O158 Co154 2.004 . S
O158 C163 1.259 . S
Co159 O160 2.061 . S
Co159 O165 2.052 . S
Co159 O167 2.135 . S
O160 Co159 2.061 . S
O160 C163 1.235 . S
C161 O164 1.238 . S
C161 O165 1.241 . S
C162 O155 1.247 . S
C162 O156 1.261 . S
C163 O158 1.259 . S
C163 O160 1.235 . S
O164 Co154 2.021 . S
O164 C161 1.238 . S
O165 Co159 2.052 . S
O165 C161 1.241 . S
O166 Co154 2.137 . S
O166 C157 1.247 . S
O167 Co154 2.244 . S
O167 C157 1.272 . S
O167 Co159 2.135 . S
Co168 O169 2.216 . S
Co168 O170 2.091 . S
Co168 O172 2.004 . S
Co168 O178 2.021 . S
Co168 O180 2.137 . S
Co168 O181 2.244 . S
O169 Co168 2.216 . S
O169 C176 1.247 . S
O170 Co168 2.091 . S
O170 C176 1.261 . S
C171 O180 1.247 . S
C171 O181 1.272 . S
O172 Co168 2.004 . S
O172 C177 1.259 . S
Co173 O174 2.061 . S
Co173 O179 2.052 . S
Co173 O181 2.135 . S
O174 Co173 2.061 . S
O174 C177 1.235 . S
C175 O178 1.238 . S
C175 O179 1.241 . S
C176 O169 1.247 . S
C176 O170 1.261 . S
C177 O172 1.259 . S
C177 O174 1.235 . S
O178 Co168 2.021 . S
O178 C175 1.238 . S
O179 Co173 2.052 . S
O179 C175 1.241 . S
O180 Co168 2.137 . S
O180 C171 1.247 . S
O181 Co168 2.244 . S
O181 C171 1.272 . S
O181 Co173 2.135 . S
Co182 O183 2.216 . S
Co182 O184 2.091 . S
Co182 O186 2.004 . S
Co182 O192 2.021 . S
Co182 O194 2.137 . S
Co182 O195 2.244 . S
O183 Co182 2.216 . S
O183 C190 1.247 . S
O184 Co182 2.091 . S
O184 C190 1.261 . S
C185 O194 1.247 . S
C185 O195 1.272 . S
O186 Co182 2.004 . S
O186 C191 1.259 . S
Co187 O188 2.061 . S
Co187 O193 2.052 . S
Co187 O195 2.135 . S
O188 Co187 2.061 . S
O188 C191 1.235 . S
C189 O192 1.238 . S
C189 O193 1.241 . S
C190 O183 1.247 . S
C190 O184 1.261 . S
C191 O186 1.259 . S
C191 O188 1.235 . S
O192 Co182 2.021 . S
O192 C189 1.238 . S
O193 Co187 2.052 . S
O193 C189 1.241 . S
O194 Co182 2.137 . S
O194 C185 1.247 . S
O195 Co182 2.244 . S
O195 C185 1.272 . S
O195 Co187 2.135 . S
Co196 O197 2.216 . S
Co196 O198 2.091 . S
Co196 O200 2.004 . S
Co196 O206 2.021 . S
Co196 O208 2.137 . S
Co196 O209 2.244 . S
O197 Co196 2.216 . S
O197 C204 1.247 . S
O198 Co196 2.091 . S
O198 C204 1.261 . S
C199 O208 1.247 . S
C199 O209 1.272 . S
O200 Co196 2.004 . S
O200 C205 1.259 . S
Co201 O202 2.061 . S
Co201 O207 2.052 . S
Co201 O209 2.135 . S
O202 Co201 2.061 . S
O202 C205 1.235 . S
C203 O206 1.238 . S
C203 O207 1.241 . S
C204 O197 1.247 . S
C204 O198 1.261 . S
C205 O200 1.259 . S
C205 O202 1.235 . S
O206 Co196 2.021 . S
O206 C203 1.238 . S
O207 Co201 2.052 . S
O207 C203 1.241 . S
O208 Co196 2.137 . S
O208 C199 1.247 . S
O209 Co196 2.244 . S
O209 C199 1.272 . S
O209 Co201 2.135 . S
Co210 O211 2.216 . S
Co210 O212 2.091 . S
Co210 O214 2.004 . S
Co210 O220 2.021 . S
Co210 O222 2.137 . S
Co210 O223 2.244 . S
O211 Co210 2.216 . S
O211 C218 1.247 . S
O212 Co210 2.091 . S
O212 C218 1.261 . S
C213 O222 1.247 . S
C213 O223 1.272 . S
O214 Co210 2.004 . S
O214 C219 1.259 . S
Co215 O216 2.061 . S
Co215 O221 2.052 . S
Co215 O223 2.135 . S
O216 Co215 2.061 . S
O216 C219 1.235 . S
C217 O220 1.238 . S
C217 O221 1.241 . S
C218 O211 1.247 . S
C218 O212 1.261 . S
C219 O214 1.259 . S
C219 O216 1.235 . S
O220 Co210 2.021 . S
O220 C217 1.238 . S
O221 Co215 2.052 . S
O221 C217 1.241 . S
O222 Co210 2.137 . S
O222 C213 1.247 . S
O223 Co210 2.244 . S
O223 C213 1.272 . S
O223 Co215 2.135 . S
Co224 O225 2.216 . S
Co224 O226 2.091 . S
Co224 O228 2.004 . S
Co224 O234 2.021 . S
Co224 O236 2.137 . S
Co224 O237 2.244 . S
O225 Co224 2.216 . S
O225 C232 1.247 . S
O226 Co224 2.091 . S
O226 C232 1.261 . S
C227 O236 1.247 . S
C227 O237 1.272 . S
O228 Co224 2.004 . S
O228 C233 1.259 . S
Co229 O230 2.061 . S
Co229 O235 2.052 . S
Co229 O237 2.135 . S
O230 Co229 2.061 . S
O230 C233 1.235 . S
C231 O234 1.238 . S
C231 O235 1.241 . S
C232 O225 1.247 . S
C232 O226 1.261 . S
C233 O228 1.259 . S
C233 O230 1.235 . S
O234 Co224 2.021 . S
O234 C231 1.238 . S
O235 Co229 2.052 . S
O235 C231 1.241 . S
O236 Co224 2.137 . S
O236 C227 1.247 . S
O237 Co224 2.244 . S
O237 C227 1.272 . S
O237 Co229 2.135 . S
Co238 O239 2.216 . S
Co238 O240 2.091 . S
Co238 O242 2.004 . S
Co238 O248 2.021 . S
Co238 O250 2.137 . S
Co238 O251 2.244 . S
O239 Co238 2.216 . S
O239 C246 1.247 . S
O240 Co238 2.091 . S
O240 C246 1.261 . S
C241 O250 1.247 . S
C241 O251 1.272 . S
O242 Co238 2.004 . S
O242 C247 1.259 . S
Co243 O244 2.061 . S
Co243 O249 2.052 . S
Co243 O251 2.135 . S
O244 Co243 2.061 . S
O244 C247 1.235 . S
C245 O248 1.238 . S
C245 O249 1.241 . S
C246 O239 1.247 . S
C246 O240 1.261 . S
C247 O242 1.259 . S
C247 O244 1.235 . S
O248 Co238 2.021 . S
O248 C245 1.238 . S
O249 Co243 2.052 . S
O249 C245 1.241 . S
O250 Co238 2.137 . S
O250 C241 1.247 . S
O251 Co238 2.244 . S
O251 C241 1.272 . S
O251 Co243 2.135 . S
Co252 O253 2.216 . S
Co252 O254 2.091 . S
Co252 O256 2.004 . S
Co252 O262 2.021 . S
Co252 O264 2.137 . S
Co252 O265 2.244 . S
O253 Co252 2.216 . S
O253 C260 1.247 . S
O254 Co252 2.091 . S
O254 C260 1.261 . S
C255 O264 1.247 . S
C255 O265 1.272 . S
O256 Co252 2.004 . S
O256 C261 1.259 . S
Co257 O258 2.061 . S
Co257 O263 2.052 . S
Co257 O265 2.135 . S
O258 Co257 2.061 . S
O258 C261 1.235 . S
C259 O262 1.238 . S
C259 O263 1.241 . S
C260 O253 1.247 . S
C260 O254 1.261 . S
C261 O256 1.259 . S
C261 O258 1.235 . S
O262 Co252 2.021 . S
O262 C259 1.238 . S
O263 Co257 2.052 . S
O263 C259 1.241 . S
O264 Co252 2.137 . S
O264 C255 1.247 . S
O265 Co252 2.244 . S
O265 C255 1.272 . S
O265 Co257 2.135 . S
Co266 O267 2.216 . S
Co266 O268 2.091 . S
Co266 O270 2.004 . S
Co266 O276 2.021 . S
Co266 O278 2.137 . S
Co266 O279 2.244 . S
O267 Co266 2.216 . S
O267 C274 1.247 . S
O268 Co266 2.091 . S
O268 C274 1.261 . S
C269 O278 1.247 . S
C269 O279 1.272 . S
O270 Co266 2.004 . S
O270 C275 1.259 . S
Co271 O272 2.061 . S
Co271 O277 2.052 . S
Co271 O279 2.135 . S
O272 Co271 2.061 . S
O272 C275 1.235 . S
C273 O276 1.238 . S
C273 O277 1.241 . S
C274 O267 1.247 . S
C274 O268 1.261 . S
C275 O270 1.259 . S
C275 O272 1.235 . S
O276 Co266 2.021 . S
O276 C273 1.238 . S
O277 Co271 2.052 . S
O277 C273 1.241 . S
O278 Co266 2.137 . S
O278 C269 1.247 . S
O279 Co266 2.244 . S
O279 C269 1.272 . S
O279 Co271 2.135 . S
Co280 O281 2.216 . S
Co280 O282 2.091 . S
Co280 O284 2.004 . S
Co280 O290 2.021 . S
Co280 O292 2.137 . S
Co280 O293 2.244 . S
O281 Co280 2.216 . S
O281 C288 1.247 . S
O282 Co280 2.091 . S
O282 C288 1.261 . S
C283 O292 1.247 . S
C283 O293 1.272 . S
O284 Co280 2.004 . S
O284 C289 1.259 . S
Co285 O286 2.061 . S
Co285 O291 2.052 . S
Co285 O293 2.135 . S
O286 Co285 2.061 . S
O286 C289 1.235 . S
C287 O290 1.238 . S
C287 O291 1.241 . S
C288 O281 1.247 . S
C288 O282 1.261 . S
C289 O284 1.259 . S
C289 O286 1.235 . S
O290 Co280 2.021 . S
O290 C287 1.238 . S
O291 Co285 2.052 . S
O291 C287 1.241 . S
O292 Co280 2.137 . S
O292 C283 1.247 . S
O293 Co280 2.244 . S
O293 C283 1.272 . S
O293 Co285 2.135 . S
Co294 O295 2.216 . S
Co294 O296 2.091 . S
Co294 O298 2.004 . S
Co294 O304 2.021 . S
Co294 O306 2.137 . S
Co294 O307 2.244 . S
O295 Co294 2.216 . S
O295 C302 1.247 . S
O296 Co294 2.091 . S
O296 C302 1.261 . S
C297 O306 1.247 . S
C297 O307 1.272 . S
O298 Co294 2.004 . S
O298 C303 1.259 . S
Co299 O300 2.061 . S
Co299 O305 2.052 . S
Co299 O307 2.135 . S
O300 Co299 2.061 . S
O300 C303 1.235 . S
C301 O304 1.238 . S
C301 O305 1.241 . S
C302 O295 1.247 . S
C302 O296 1.261 . S
C303 O298 1.259 . S
C303 O300 1.235 . S
O304 Co294 2.021 . S
O304 C301 1.238 . S
O305 Co299 2.052 . S
O305 C301 1.241 . S
O306 Co294 2.137 . S
O306 C297 1.247 . S
O307 Co294 2.244 . S
O307 C297 1.272 . S
O307 Co299 2.135 . S
Co308 O309 2.216 . S
Co308 O310 2.091 . S
Co308 O312 2.004 . S
Co308 O318 2.021 . S
Co308 O320 2.137 . S
Co308 O321 2.244 . S
O309 Co308 2.216 . S
O309 C316 1.247 . S
O310 Co308 2.091 . S
O310 C316 1.261 . S
C311 O320 1.247 . S
C311 O321 1.272 . S
O312 Co308 2.004 . S
O312 C317 1.259 . S
Co313 O314 2.061 . S
Co313 O319 2.052 . S
Co313 O321 2.135 . S
O314 Co313 2.061 . S
O314 C317 1.235 . S
C315 O318 1.238 . S
C315 O319 1.241 . S
C316 O309 1.247 . S
C316 O310 1.261 . S
C317 O312 1.259 . S
C317 O314 1.235 . S
O318 Co308 2.021 . S
O318 C315 1.238 . S
O319 Co313 2.052 . S
O319 C315 1.241 . S
O320 Co308 2.137 . S
O320 C311 1.247 . S
O321 Co308 2.244 . S
O321 C311 1.272 . S
O321 Co313 2.135 . S
Co322 O323 2.216 . S
Co322 O324 2.091 . S
Co322 O326 2.004 . S
Co322 O332 2.021 . S
Co322 O334 2.137 . S
Co322 O335 2.244 . S
O323 Co322 2.216 . S
O323 C330 1.247 . S
O324 Co322 2.091 . S
O324 C330 1.261 . S
C325 O334 1.247 . S
C325 O335 1.272 . S
O326 Co322 2.004 . S
O326 C331 1.259 . S
Co327 O328 2.061 . S
Co327 O333 2.052 . S
Co327 O335 2.135 . S
O328 Co327 2.061 . S
O328 C331 1.235 . S
C329 O332 1.238 . S
C329 O333 1.241 . S
C330 O323 1.247 . S
C330 O324 1.261 . S
C331 O326 1.259 . S
C331 O328 1.235 . S
O332 Co322 2.021 . S
O332 C329 1.238 . S
O333 Co327 2.052 . S
O333 C329 1.241 . S
O334 Co322 2.137 . S
O334 C325 1.247 . S
O335 Co322 2.244 . S
O335 C325 1.272 . S
O335 Co327 2.135 . S
Co336 O337 2.216 . S
Co336 O338 2.091 . S
Co336 O340 2.004 . S
Co336 O346 2.021 . S
Co336 O348 2.137 . S
Co336 O349 2.244 . S
O337 Co336 2.216 . S
O337 C344 1.247 . S
O338 Co336 2.091 . S
O338 C344 1.261 . S
C339 O348 1.247 . S
C339 O349 1.272 . S
O340 Co336 2.004 . S
O340 C345 1.259 . S
Co341 O342 2.061 . S
Co341 O347 2.052 . S
Co341 O349 2.135 . S
O342 Co341 2.061 . S
O342 C345 1.235 . S
C343 O346 1.238 . S
C343 O347 1.241 . S
C344 O337 1.247 . S
C344 O338 1.261 . S
C345 O340 1.259 . S
C345 O342 1.235 . S
O346 Co336 2.021 . S
O346 C343 1.238 . S
O347 Co341 2.052 . S
O347 C343 1.241 . S
O348 Co336 2.137 . S
O348 C339 1.247 . S
O349 Co336 2.244 . S
O349 C339 1.272 . S
O349 Co341 2.135 . S
Co350 O351 2.216 . S
Co350 O352 2.091 . S
Co350 O354 2.004 . S
Co350 O360 2.021 . S
Co350 O362 2.137 . S
Co350 O363 2.244 . S
O351 Co350 2.216 . S
O351 C358 1.247 . S
O352 Co350 2.091 . S
O352 C358 1.261 . S
C353 O362 1.247 . S
C353 O363 1.272 . S
O354 Co350 2.004 . S
O354 C359 1.259 . S
Co355 O356 2.061 . S
Co355 O361 2.052 . S
Co355 O363 2.135 . S
O356 Co355 2.061 . S
O356 C359 1.235 . S
C357 O360 1.238 . S
C357 O361 1.241 . S
C358 O351 1.247 . S
C358 O352 1.261 . S
C359 O354 1.259 . S
C359 O356 1.235 . S
O360 Co350 2.021 . S
O360 C357 1.238 . S
O361 Co355 2.052 . S
O361 C357 1.241 . S
O362 Co350 2.137 . S
O362 C353 1.247 . S
O363 Co350 2.244 . S
O363 C353 1.272 . S
O363 Co355 2.135 . S
Co364 O365 2.216 . S
Co364 O366 2.091 . S
Co364 O368 2.004 . S
Co364 O374 2.021 . S
Co364 O376 2.137 . S
Co364 O377 2.244 . S
O365 Co364 2.216 . S
O365 C372 1.247 . S
O366 Co364 2.091 . S
O366 C372 1.261 . S
C367 O376 1.247 . S
C367 O377 1.272 . S
O368 Co364 2.004 . S
O368 C373 1.259 . S
Co369 O370 2.061 . S
Co369 O375 2.052 . S
Co369 O377 2.135 . S
O370 Co369 2.061 . S
O370 C373 1.235 . S
C371 O374 1.238 . S
C371 O375 1.241 . S
C372 O365 1.247 . S
C372 O366 1.261 . S
C373 O368 1.259 . S
C373 O370 1.235 . S
O374 Co364 2.021 . S
O374 C371 1.238 . S
O375 Co369 2.052 . S
O375 C371 1.241 . S
O376 Co364 2.137 . S
O376 C367 1.247 . S
O377 Co364 2.244 . S
O377 C367 1.272 . S
O377 Co369 2.135 . S
Co378 O379 2.216 . S
Co378 O380 2.091 . S
Co378 O382 2.004 . S
Co378 O388 2.021 . S
Co378 O390 2.137 . S
Co378 O391 2.244 . S
O379 Co378 2.216 . S
O379 C386 1.247 . S
O380 Co378 2.091 . S
O380 C386 1.261 . S
C381 O390 1.247 . S
C381 O391 1.272 . S
O382 Co378 2.004 . S
O382 C387 1.259 . S
Co383 O384 2.061 . S
Co383 O389 2.052 . S
Co383 O391 2.135 . S
O384 Co383 2.061 . S
O384 C387 1.235 . S
C385 O388 1.238 . S
C385 O389 1.241 . S
C386 O379 1.247 . S
C386 O380 1.261 . S
C387 O382 1.259 . S
C387 O384 1.235 . S
O388 Co378 2.021 . S
O388 C385 1.238 . S
O389 Co383 2.052 . S
O389 C385 1.241 . S
O390 Co378 2.137 . S
O390 C381 1.247 . S
O391 Co378 2.244 . S
O391 C381 1.272 . S
O391 Co383 2.135 . S
Co392 O393 2.216 . S
Co392 O394 2.091 . S
Co392 O396 2.004 . S
Co392 O402 2.021 . S
Co392 O404 2.137 . S
Co392 O405 2.244 . S
O393 Co392 2.216 . S
O393 C400 1.247 . S
O394 Co392 2.091 . S
O394 C400 1.261 . S
C395 O404 1.247 . S
C395 O405 1.272 . S
O396 Co392 2.004 . S
O396 C401 1.259 . S
Co397 O398 2.061 . S
Co397 O403 2.052 . S
Co397 O405 2.135 . S
O398 Co397 2.061 . S
O398 C401 1.235 . S
C399 O402 1.238 . S
C399 O403 1.241 . S
C400 O393 1.247 . S
C400 O394 1.261 . S
C401 O396 1.259 . S
C401 O398 1.235 . S
O402 Co392 2.021 . S
O402 C399 1.238 . S
O403 Co397 2.052 . S
O403 C399 1.241 . S
O404 Co392 2.137 . S
O404 C395 1.247 . S
O405 Co392 2.244 . S
O405 C395 1.272 . S
O405 Co397 2.135 . S
Co406 O407 2.216 . S
Co406 O408 2.091 . S
Co406 O410 2.004 . S
Co406 O416 2.021 . S
Co406 O418 2.137 . S
Co406 O419 2.244 . S
O407 Co406 2.216 . S
O407 C414 1.247 . S
O408 Co406 2.091 . S
O408 C414 1.261 . S
C409 O418 1.247 . S
C409 O419 1.272 . S
O410 Co406 2.004 . S
O410 C415 1.259 . S
Co411 O412 2.061 . S
Co411 O417 2.052 . S
Co411 O419 2.135 . S
O412 Co411 2.061 . S
O412 C415 1.235 . S
C413 O416 1.238 . S
C413 O417 1.241 . S
C414 O407 1.247 . S
C414 O408 1.261 . S
C415 O410 1.259 . S
C415 O412 1.235 . S
O416 Co406 2.021 . S
O416 C413 1.238 . S
O417 Co411 2.052 . S
O417 C413 1.241 . S
O418 Co406 2.137 . S
O418 C409 1.247 . S
O419 Co406 2.244 . S
O419 C409 1.272 . S
O419 Co411 2.135 . S
Co420 O421 2.216 . S
Co420 O422 2.091 . S
Co420 O424 2.004 . S
Co420 O430 2.021 . S
Co420 O432 2.137 . S
Co420 O433 2.244 . S
O421 Co420 2.216 . S
O421 C428 1.247 . S
O422 Co420 2.091 . S
O422 C428 1.261 . S
C423 O432 1.247 . S
C423 O433 1.272 . S
O424 Co420 2.004 . S
O424 C429 1.259 . S
Co425 O426 2.061 . S
Co425 O431 2.052 . S
Co425 O433 2.135 . S
O426 Co425 2.061 . S
O426 C429 1.235 . S
C427 O430 1.238 . S
C427 O431 1.241 . S
C428 O421 1.247 . S
C428 O422 1.261 . S
C429 O424 1.259 . S
C429 O426 1.235 . S
O430 Co420 2.021 . S
O430 C427 1.238 . S
O431 Co425 2.052 . S
O431 C427 1.241 . S
O432 Co420 2.137 . S
O432 C423 1.247 . S
O433 Co420 2.244 . S
O433 C423 1.272 . S
O433 Co425 2.135 . S
Co434 O435 2.216 . S
Co434 O436 2.091 . S
Co434 O438 2.004 . S
Co434 O444 2.021 . S
Co434 O446 2.137 . S
Co434 O447 2.244 . S
O435 Co434 2.216 . S
O435 C442 1.247 . S
O436 Co434 2.091 . S
O436 C442 1.261 . S
C437 O446 1.247 . S
C437 O447 1.272 . S
O438 Co434 2.004 . S
O438 C443 1.259 . S
Co439 O440 2.061 . S
Co439 O445 2.052 . S
Co439 O447 2.135 . S
O440 Co439 2.061 . S
O440 C443 1.235 . S
C441 O444 1.238 . S
C441 O445 1.241 . S
C442 O435 1.247 . S
C442 O436 1.261 . S
C443 O438 1.259 . S
C443 O440 1.235 . S
O444 Co434 2.021 . S
O444 C441 1.238 . S
O445 Co439 2.052 . S
O445 C441 1.241 . S
O446 Co434 2.137 . S
O446 C437 1.247 . S
O447 Co434 2.244 . S
O447 C437 1.272 . S
O447 Co439 2.135 . S
C448 C449 1.349 . S
C448 C450 1.327 . S
C448 H473 0.950 . S
C449 C448 1.349 . S
C449 C465 1.349 . S
C450 C448 1.327 . S
C450 C469 1.429 . S
C450 H474 0.950 . S
C451 C468 1.574 1_545 S
C451 C470 1.368 1_556 S
C451 H475 0.949 . S
H452 C456 0.949 . S
C453 C454 1.349 . S
C453 C455 1.327 . S
C453 H476 0.950 . S
C454 C453 1.349 . S
C454 C466 1.349 . S
C455 C453 1.327 . S
C455 C471 1.429 . S
C455 H477 0.950 . S
C456 H452 0.949 . S
C456 C464 1.574 . S
C456 C472 1.368 1_554 S
H457 C465 0.950 . S
H458 C463 0.950 . S
H459 C464 0.949 . S
H460 C466 0.950 . S
H461 C467 0.950 . S
H462 C468 0.949 . S
C463 H458 0.950 . S
C463 C465 1.327 . S
C463 C469 1.429 . S
C464 C456 1.574 . S
C464 H459 0.949 . S
C464 C470 1.368 1_665 S
C465 C449 1.349 . S
C465 H457 0.950 . S
C465 C463 1.327 . S
C466 C454 1.349 . S
C466 H460 0.950 . S
C466 C467 1.327 . S
C467 H461 0.950 . S
C467 C466 1.327 . S
C467 C471 1.429 . S
C468 C451 1.574 1_565 S
C468 H462 0.949 . S
C468 C472 1.368 1_455 S
C469 C450 1.429 . S
C469 C463 1.429 . S
C469 C470 1.523 . S
C470 C451 1.368 1_554 S
C470 C464 1.368 1_445 S
C470 C469 1.523 . S
C471 C455 1.429 . S
C471 C467 1.429 . S
C471 C472 1.523 . S
C472 C456 1.368 1_556 S
C472 C468 1.368 1_655 S
C472 C471 1.523 . S
H473 C448 0.950 . S
H474 C450 0.950 . S
H475 C451 0.949 . S
H476 C453 0.950 . S
H477 C455 0.950 . S
C478 C479 1.349 . S
C478 C480 1.327 . S
C478 H503 0.950 . S
C479 C478 1.349 . S
C479 C495 1.349 . S
C480 C478 1.327 . S
C480 C499 1.429 . S
C480 H504 0.950 . S
C481 C498 1.574 . S
C481 C500 1.368 . S
C481 H505 0.949 . S
H482 C486 0.949 . S
C483 C484 1.349 . S
C483 C485 1.327 . S
C483 H506 0.950 . S
C484 C483 1.349 . S
C484 C496 1.349 . S
C485 C483 1.327 . S
C485 C501 1.429 . S
C485 H507 0.950 . S
C486 H482 0.949 . S
C486 C494 1.574 . S
C486 C502 1.368 . S
H487 C495 0.950 . S
H488 C493 0.950 . S
H489 C494 0.949 . S
H490 C496 0.950 . S
H491 C497 0.950 . S
H492 C498 0.949 . S
C493 H488 0.950 . S
C493 C495 1.327 . S
C493 C499 1.429 . S
C494 C486 1.574 . S
C494 H489 0.949 . S
C494 C500 1.368 . S
C495 C479 1.349 . S
C495 H487 0.950 . S
C495 C493 1.327 . S
C496 C484 1.349 . S
C496 H490 0.950 . S
C496 C497 1.327 . S
C497 H491 0.950 . S
C497 C496 1.327 . S
C497 C501 1.429 . S
C498 C481 1.574 . S
C498 H492 0.949 . S
C498 C502 1.368 . S
C499 C480 1.429 . S
C499 C493 1.429 . S
C499 C500 1.523 . S
C500 C481 1.368 . S
C500 C494 1.368 . S
C500 C499 1.523 . S
C501 C485 1.429 . S
C501 C497 1.429 . S
C501 C502 1.523 . S
C502 C486 1.368 . S
C502 C498 1.368 . S
C502 C501 1.523 . S
H503 C478 0.950 . S
H504 C480 0.950 . S
H505 C481 0.949 . S
H506 C483 0.950 . S
H507 C485 0.950 . S
C508 C509 1.349 . S
C508 C510 1.327 . S
C508 H533 0.950 . S
C509 C508 1.349 . S
C509 C525 1.349 . S
C510 C508 1.327 . S
C510 C529 1.429 . S
C510 H534 0.950 . S
C511 C528 1.574 . S
C511 C530 1.368 . S
C511 H535 0.949 . S
H512 C516 0.949 . S
C513 C514 1.349 . S
C513 C515 1.327 . S
C513 H536 0.950 . S
C514 C513 1.349 . S
C514 C526 1.349 . S
C515 C513 1.327 . S
C515 C531 1.429 . S
C515 H537 0.950 . S
C516 H512 0.949 . S
C516 C524 1.574 . S
C516 C532 1.368 . S
H517 C525 0.950 . S
H518 C523 0.950 . S
H519 C524 0.949 . S
H520 C526 0.950 . S
H521 C527 0.950 . S
H522 C528 0.949 . S
C523 H518 0.950 . S
C523 C525 1.327 . S
C523 C529 1.429 . S
C524 C516 1.574 . S
C524 H519 0.949 . S
C524 C530 1.368 1_545 S
C525 C509 1.349 . S
C525 H517 0.950 . S
C525 C523 1.327 . S
C526 C514 1.349 . S
C526 H520 0.950 . S
C526 C527 1.327 . S
C527 H521 0.950 . S
C527 C526 1.327 . S
C527 C531 1.429 . S
C528 C511 1.574 . S
C528 H522 0.949 . S
C528 C532 1.368 1_565 S
C529 C510 1.429 . S
C529 C523 1.429 . S
C529 C530 1.523 . S
C530 C511 1.368 . S
C530 C524 1.368 1_565 S
C530 C529 1.523 . S
C531 C515 1.429 . S
C531 C527 1.429 . S
C531 C532 1.523 . S
C532 C516 1.368 . S
C532 C528 1.368 1_545 S
C532 C531 1.523 . S
H533 C508 0.950 . S
H534 C510 0.950 . S
H535 C511 0.949 . S
H536 C513 0.950 . S
H537 C515 0.950 . S
C538 C539 1.349 . S
C538 C540 1.327 . S
C538 H563 0.950 . S
C539 C538 1.349 . S
C539 C555 1.349 . S
C540 C538 1.327 . S
C540 C559 1.429 . S
C540 H564 0.950 . S
C541 C558 1.574 . S
C541 C560 1.368 . S
C541 H565 0.949 . S
H542 C546 0.949 . S
C543 C544 1.349 . S
C543 C545 1.327 . S
C543 H566 0.950 . S
C544 C543 1.349 . S
C544 C556 1.349 . S
C545 C543 1.327 . S
C545 C561 1.429 . S
C545 H567 0.950 . S
C546 H542 0.949 . S
C546 C554 1.574 . S
C546 C562 1.368 . S
H547 C555 0.950 . S
H548 C553 0.950 . S
H549 C554 0.949 . S
H550 C556 0.950 . S
H551 C557 0.950 . S
H552 C558 0.949 . S
C553 H548 0.950 . S
C553 C555 1.327 . S
C553 C559 1.429 . S
C554 C546 1.574 . S
C554 H549 0.949 . S
C554 C560 1.368 . S
C555 C539 1.349 . S
C555 H547 0.950 . S
C555 C553 1.327 . S
C556 C544 1.349 . S
C556 H550 0.950 . S
C556 C557 1.327 . S
C557 H551 0.950 . S
C557 C556 1.327 . S
C557 C561 1.429 . S
C558 C541 1.574 . S
C558 H552 0.949 . S
C558 C562 1.368 . S
C559 C540 1.429 . S
C559 C553 1.429 . S
C559 C560 1.523 . S
C560 C541 1.368 . S
C560 C554 1.368 . S
C560 C559 1.523 . S
C561 C545 1.429 . S
C561 C557 1.429 . S
C561 C562 1.523 . S
C562 C546 1.368 . S
C562 C558 1.368 . S
C562 C561 1.523 . S
H563 C538 0.950 . S
H564 C540 0.950 . S
H565 C541 0.949 . S
H566 C543 0.950 . S
H567 C545 0.950 . S
C568 C569 1.349 . S
C568 C570 1.327 . S
C568 H593 0.950 . S
C569 C568 1.349 . S
C569 C585 1.349 . S
C570 C568 1.327 . S
C570 C589 1.429 . S
C570 H594 0.950 . S
C571 C588 1.574 . S
C571 C590 1.368 1_655 S
C571 H595 0.949 . S
H572 C576 0.949 . S
C573 C574 1.349 . S
C573 C575 1.327 . S
C573 H596 0.950 . S
C574 C573 1.349 . S
C574 C586 1.349 . S
C575 C573 1.327 . S
C575 C591 1.429 . S
C575 H597 0.950 . S
C576 H572 0.949 . S
C576 C584 1.574 . S
C576 C592 1.368 1_455 S
H577 C585 0.950 . S
H578 C583 0.950 . S
H579 C584 0.949 . S
H580 C586 0.950 . S
H581 C587 0.950 . S
H582 C588 0.949 . S
C583 H578 0.950 . S
C583 C585 1.327 . S
C583 C589 1.429 . S
C584 C576 1.574 . S
C584 H579 0.949 . S
C584 C590 1.368 1_545 S
C585 C569 1.349 . S
C585 H577 0.950 . S
C585 C583 1.327 . S
C586 C574 1.349 . S
C586 H580 0.950 . S
C586 C587 1.327 . S
C587 H581 0.950 . S
C587 C586 1.327 . S
C587 C591 1.429 . S
C588 C571 1.574 . S
C588 H582 0.949 . S
C588 C592 1.368 1_565 S
C589 C570 1.429 . S
C589 C583 1.429 . S
C589 C590 1.523 . S
C590 C571 1.368 1_455 S
C590 C584 1.368 1_565 S
C590 C589 1.523 . S
C591 C575 1.429 . S
C591 C587 1.429 . S
C591 C592 1.523 . S
C592 C576 1.368 1_655 S
C592 C588 1.368 1_545 S
C592 C591 1.523 . S
H593 C568 0.950 . S
H594 C570 0.950 . S
H595 C571 0.949 . S
H596 C573 0.950 . S
H597 C575 0.950 . S
C598 C599 1.349 . S
C598 C600 1.327 . S
C598 H623 0.950 . S
C599 C598 1.349 . S
C599 C615 1.349 . S
C600 C598 1.327 . S
C600 C619 1.429 . S
C600 H624 0.950 . S
C601 C618 1.574 . S
C601 C620 1.368 . S
C601 H625 0.949 . S
H602 C606 0.949 . S
C603 C604 1.349 . S
C603 C605 1.327 . S
C603 H626 0.950 . S
C604 C603 1.349 . S
C604 C616 1.349 . S
C605 C603 1.327 . S
C605 C621 1.429 . S
C605 H627 0.950 . S
C606 H602 0.949 . S
C606 C614 1.574 . S
C606 C622 1.368 . S
H607 C615 0.950 . S
H608 C613 0.950 . S
H609 C614 0.949 . S
H610 C616 0.950 . S
H611 C617 0.950 . S
H612 C618 0.949 . S
C613 H608 0.950 . S
C613 C615 1.327 . S
C613 C619 1.429 . S
C614 C606 1.574 . S
C614 H609 0.949 . S
C614 C620 1.368 . S
C615 C599 1.349 . S
C615 H607 0.950 . S
C615 C613 1.327 . S
C616 C604 1.349 . S
C616 H610 0.950 . S
C616 C617 1.327 . S
C617 H611 0.950 . S
C617 C616 1.327 . S
C617 C621 1.429 . S
C618 C601 1.574 . S
C618 H612 0.949 . S
C618 C622 1.368 . S
C619 C600 1.429 . S
C619 C613 1.429 . S
C619 C620 1.523 . S
C620 C601 1.368 . S
C620 C614 1.368 . S
C620 C619 1.523 . S
C621 C605 1.429 . S
C621 C617 1.429 . S
C621 C622 1.523 . S
C622 C606 1.368 . S
C622 C618 1.368 . S
C622 C621 1.523 . S
H623 C598 0.950 . S
H624 C600 0.950 . S
H625 C601 0.949 . S
H626 C603 0.950 . S
H627 C605 0.950 . S
C628 C629 1.349 . S
C628 C630 1.327 . S
C628 H653 0.950 . S
C629 C628 1.349 . S
C629 C645 1.349 . S
C630 C628 1.327 . S
C630 C649 1.429 . S
C630 H654 0.969 . S
C631 C648 1.574 . S
C631 C650 1.368 1_565 S
C631 H655 0.949 . S
H632 C636 0.949 . S
C633 C634 1.349 . S
C633 C635 1.327 . S
C633 H656 0.950 . S
C634 C633 1.349 . S
C634 C646 1.349 . S
C635 C633 1.327 . S
C635 C651 1.429 . S
C635 H657 0.974 . S
C636 H632 0.949 . S
C636 C644 1.574 . S
C636 C652 1.368 1_545 S
H637 C645 0.950 . S
H638 C643 0.950 . S
H639 C644 0.949 . S
H640 C646 0.950 . S
H641 C647 0.950 . S
H642 C648 0.949 . S
C643 H638 0.950 . S
C643 C645 1.327 . S
C643 C649 1.429 . S
C644 C636 1.574 . S
C644 H639 0.949 . S
C644 C650 1.368 1_554 S
C645 C629 1.349 . S
C645 H637 0.950 . S
C645 C643 1.327 . S
C646 C634 1.349 . S
C646 H640 0.950 . S
C646 C647 1.327 . S
C647 H641 0.950 . S
C647 C646 1.327 . S
C647 C651 1.429 . S
C648 C631 1.574 . S
C648 H642 0.949 . S
C648 C652 1.368 1_556 S
C649 C630 1.429 . S
C649 C643 1.429 . S
C649 C650 1.523 . S
C650 C631 1.368 1_545 S
C650 C644 1.368 1_556 S
C650 C649 1.523 . S
C651 C635 1.429 . S
C651 C647 1.429 . S
C651 C652 1.523 . S
C652 C636 1.368 1_565 S
C652 C648 1.368 1_554 S
C652 C651 1.523 . S
H653 C628 0.950 . S
H654 C630 0.969 . S
H655 C631 0.949 . S
H656 C633 0.950 . S
H657 C635 0.974 . S
C658 C659 1.349 . S
C658 C660 1.327 . S
C658 H683 0.950 . S
C659 C658 1.349 . S
C659 C675 1.349 . S
C660 C658 1.327 . S
C660 C679 1.429 . S
C660 H684 0.950 . S
C661 C678 1.574 . S
C661 C680 1.368 . S
C661 H685 0.949 . S
H662 C666 0.949 . S
C663 C664 1.349 . S
C663 C665 1.327 . S
C663 H686 0.950 . S
C664 C663 1.349 . S
C664 C676 1.349 . S
C665 C663 1.327 . S
C665 C681 1.429 . S
C665 H687 0.950 . S
C666 H662 0.949 . S
C666 C674 1.574 . S
C666 C682 1.368 . S
H667 C675 0.950 . S
H668 C673 0.950 . S
H669 C674 0.949 . S
H670 C676 0.950 . S
H671 C677 0.950 . S
H672 C678 0.949 . S
C673 H668 0.950 . S
C673 C675 1.327 . S
C673 C679 1.429 . S
C674 C666 1.574 . S
C674 H669 0.949 . S
C674 C680 1.368 . S
C675 C659 1.349 . S
C675 H667 0.950 . S
C675 C673 1.327 . S
C676 C664 1.349 . S
C676 H670 0.950 . S
C676 C677 1.327 . S
C677 H671 0.950 . S
C677 C676 1.327 . S
C677 C681 1.429 . S
C678 C661 1.574 . S
C678 H672 0.949 . S
C678 C682 1.368 . S
C679 C660 1.429 . S
C679 C673 1.429 . S
C679 C680 1.523 . S
C680 C661 1.368 . S
C680 C674 1.368 . S
C680 C679 1.523 . S
C681 C665 1.429 . S
C681 C677 1.429 . S
C681 C682 1.523 . S
C682 C666 1.368 . S
C682 C678 1.368 . S
C682 C681 1.523 . S
H683 C658 0.950 . S
H684 C660 0.950 . S
H685 C661 0.949 . S
H686 C663 0.950 . S
H687 C665 0.950 . S
C688 C689 1.349 . S
C688 C690 1.327 . S
C688 H713 0.950 . S
C689 C688 1.349 . S
C689 C705 1.349 . S
C690 C688 1.327 . S
C690 C709 1.429 . S
C690 H714 0.950 . S
C691 C708 1.574 1_554 S
C691 C710 1.368 . S
C691 H715 0.949 . S
H692 C696 0.949 . S
C693 C694 1.349 . S
C693 C695 1.327 . S
C693 H716 0.950 . S
C694 C693 1.349 . S
C694 C706 1.349 . S
C695 C693 1.327 . S
C695 C711 1.429 . S
C695 H717 0.950 . S
C696 H692 0.949 . S
C696 C704 1.574 1_556 S
C696 C712 1.368 . S
H697 C705 0.950 . S
H698 C703 0.950 . S
H699 C704 0.949 . S
H700 C706 0.950 . S
H701 C707 0.950 . S
H702 C708 0.949 . S
C703 H698 0.950 . S
C703 C705 1.327 . S
C703 C709 1.429 . S
C704 C696 1.574 1_554 S
C704 H699 0.949 . S
C704 C710 1.368 . S
C705 C689 1.349 . S
C705 H697 0.950 . S
C705 C703 1.327 . S
C706 C694 1.349 . S
C706 H700 0.950 . S
C706 C707 1.327 . S
C707 H701 0.950 . S
C707 C706 1.327 . S
C707 C711 1.429 . S
C708 C691 1.574 1_556 S
C708 H702 0.949 . S
C708 C712 1.368 . S
C709 C690 1.429 . S
C709 C703 1.429 . S
C709 C710 1.523 . S
C710 C691 1.368 . S
C710 C704 1.368 . S
C710 C709 1.523 . S
C711 C695 1.429 . S
C711 C707 1.429 . S
C711 C712 1.523 . S
C712 C696 1.368 . S
C712 C708 1.368 . S
C712 C711 1.523 . S
H713 C688 0.950 . S
H714 C690 0.950 . S
H715 C691 0.949 . S
H716 C693 0.950 . S
H717 C695 0.950 . S
C718 C719 1.349 . S
C718 C720 1.327 . S
C718 H743 0.950 . S
C719 C718 1.349 . S
C719 C735 1.349 . S
C720 C718 1.327 . S
C720 C739 1.429 . S
C720 H744 0.950 . S
C721 C738 1.574 . S
C721 C740 1.368 . S
C721 H745 0.949 . S
H722 C726 0.949 . S
C723 C724 1.349 . S
C723 C725 1.327 . S
C723 H746 0.950 . S
C724 C723 1.349 . S
C724 C736 1.349 . S
C725 C723 1.327 . S
C725 C741 1.429 . S
C725 H747 0.950 . S
C726 H722 0.949 . S
C726 C734 1.574 . S
C726 C742 1.368 . S
H727 C735 0.950 . S
H728 C733 0.950 . S
H729 C734 0.949 . S
H730 C736 0.950 . S
H731 C737 0.950 . S
H732 C738 0.949 . S
C733 H728 0.950 . S
C733 C735 1.327 . S
C733 C739 1.429 . S
C734 C726 1.574 . S
C734 H729 0.949 . S
C734 C740 1.368 . S
C735 C719 1.349 . S
C735 H727 0.950 . S
C735 C733 1.327 . S
C736 C724 1.349 . S
C736 H730 0.950 . S
C736 C737 1.327 . S
C737 H731 0.950 . S
C737 C736 1.327 . S
C737 C741 1.429 . S
C738 C721 1.574 . S
C738 H732 0.949 . S
C738 C742 1.368 . S
C739 C720 1.429 . S
C739 C733 1.429 . S
C739 C740 1.523 . S
C740 C721 1.368 . S
C740 C734 1.368 . S
C740 C739 1.523 . S
C741 C725 1.429 . S
C741 C737 1.429 . S
C741 C742 1.523 . S
C742 C726 1.368 . S
C742 C738 1.368 . S
C742 C741 1.523 . S
H743 C718 0.950 . S
H744 C720 0.950 . S
H745 C721 0.949 . S
H746 C723 0.950 . S
H747 C725 0.950 . S
C748 C749 1.349 . S
C748 C750 1.327 . S
C748 H773 0.950 . S
C749 C748 1.349 . S
C749 C765 1.349 . S
C750 C748 1.327 . S
C750 C769 1.429 . S
C750 H774 0.950 . S
C751 C768 1.574 . S
C751 C770 1.368 1_655 S
C751 H775 0.949 . S
H752 C756 0.949 . S
C753 C754 1.349 . S
C753 C755 1.327 . S
C753 H776 0.950 . S
C754 C753 1.349 . S
C754 C766 1.349 . S
C755 C753 1.327 . S
C755 C771 1.429 . S
C755 H777 0.950 . S
C756 H752 0.949 . S
C756 C764 1.574 1_655 S
C756 C772 1.368 . S
H757 C765 0.950 . S
H758 C763 0.950 . S
H759 C764 0.949 . S
H760 C766 0.950 . S
H761 C767 0.950 . S
H762 C768 0.949 . S
C763 H758 0.950 . S
C763 C765 1.327 . S
C763 C769 1.429 . S
C764 C756 1.574 1_455 S
C764 H759 0.949 . S
C764 C770 1.368 . S
C765 C749 1.349 . S
C765 H757 0.950 . S
C765 C763 1.327 . S
C766 C754 1.349 . S
C766 H760 0.950 . S
C766 C767 1.327 . S
C767 H761 0.950 . S
C767 C766 1.327 . S
C767 C771 1.429 . S
C768 C751 1.574 . S
C768 H762 0.949 . S
C768 C772 1.368 . S
C769 C750 1.429 . S
C769 C763 1.429 . S
C769 C770 1.523 . S
C770 C751 1.368 1_455 S
C770 C764 1.368 . S
C770 C769 1.523 . S
C771 C755 1.429 . S
C771 C767 1.429 . S
C771 C772 1.523 . S
C772 C756 1.368 . S
C772 C768 1.368 . S
C772 C771 1.523 . S
H773 C748 0.950 . S
H774 C750 0.950 . S
H775 C751 0.949 . S
H776 C753 0.950 . S
H777 C755 0.950 . S
C778 C779 1.349 . S
C778 C780 1.327 . S
C778 H803 0.950 . S
C779 C778 1.349 . S
C779 C795 1.349 . S
C780 C778 1.327 . S
C780 C799 1.429 . S
C780 H804 0.950 . S
C781 C798 1.574 . S
C781 C800 1.368 . S
C781 H805 0.949 . S
H782 C786 0.949 . S
C783 C784 1.349 . S
C783 C785 1.327 . S
C783 H806 0.950 . S
C784 C783 1.349 . S
C784 C796 1.349 . S
C785 C783 1.327 . S
C785 C801 1.429 . S
C785 H807 0.950 . S
C786 H782 0.949 . S
C786 C794 1.574 . S
C786 C802 1.368 . S
H787 C795 0.950 . S
H788 C793 0.950 . S
H789 C794 0.949 . S
H790 C796 0.950 . S
H791 C797 0.950 . S
H792 C798 0.949 . S
C793 H788 0.950 . S
C793 C795 1.327 . S
C793 C799 1.429 . S
C794 C786 1.574 . S
C794 H789 0.949 . S
C794 C800 1.368 . S
C795 C779 1.349 . S
C795 H787 0.950 . S
C795 C793 1.327 . S
C796 C784 1.349 . S
C796 H790 0.950 . S
C796 C797 1.327 . S
C797 H791 0.950 . S
C797 C796 1.327 . S
C797 C801 1.429 . S
C798 C781 1.574 . S
C798 H792 0.949 . S
C798 C802 1.368 . S
C799 C780 1.429 . S
C799 C793 1.429 . S
C799 C800 1.523 . S
C800 C781 1.368 . S
C800 C794 1.368 . S
C800 C799 1.523 . S
C801 C785 1.429 . S
C801 C797 1.429 . S
C801 C802 1.523 . S
C802 C786 1.368 . S
C802 C798 1.368 . S
C802 C801 1.523 . S
H803 C778 0.950 . S
H804 C780 0.950 . S
H805 C781 0.949 . S
H806 C783 0.950 . S
H807 C785 0.950 . S
C808 C809 1.349 . S
C808 C810 1.327 . S
C808 H833 0.950 . S
C809 C808 1.349 . S
C809 C825 1.349 . S
C810 C808 1.327 . S
C810 C829 1.429 . S
C810 H834 0.950 . S
C811 C828 1.574 . S
C811 C830 1.368 . S
C811 H835 0.949 . S
H812 C816 0.949 . S
C813 C814 1.349 . S
C813 C815 1.327 . S
C813 H836 0.950 . S
C814 C813 1.349 . S
C814 C826 1.349 . S
C815 C813 1.327 . S
C815 C831 1.429 . S
C815 H837 0.950 . S
C816 H812 0.949 . S
C816 C824 1.574 . S
C816 C832 1.368 . S
H817 C825 0.950 . S
H818 C823 0.950 . S
H819 C824 0.949 . S
H820 C826 0.950 . S
H821 C827 0.950 . S
H822 C828 0.949 . S
C823 H818 0.950 . S
C823 C825 1.327 . S
C823 C829 1.429 . S
C824 C816 1.574 . S
C824 H819 0.949 . S
C824 C830 1.368 . S
C825 C809 1.349 . S
C825 H817 0.950 . S
C825 C823 1.327 . S
C826 C814 1.349 . S
C826 H820 0.950 . S
C826 C827 1.327 . S
C827 H821 0.950 . S
C827 C826 1.327 . S
C827 C831 1.429 . S
C828 C811 1.574 . S
C828 H822 0.949 . S
C828 C832 1.368 . S
C829 C810 1.429 . S
C829 C823 1.429 . S
C829 C830 1.523 . S
C830 C811 1.368 . S
C830 C824 1.368 . S
C830 C829 1.523 . S
C831 C815 1.429 . S
C831 C827 1.429 . S
C831 C832 1.523 . S
C832 C816 1.368 . S
C832 C828 1.368 . S
C832 C831 1.523 . S
H833 C808 0.950 . S
H834 C810 0.950 . S
H835 C811 0.949 . S
H836 C813 0.950 . S
H837 C815 0.950 . S
C838 C839 1.349 . S
C838 C840 1.327 . S
C838 H863 0.950 . S
C839 C838 1.349 . S
C839 C855 1.349 . S
C840 C838 1.327 . S
C840 C859 1.429 . S
C840 H864 0.950 . S
C841 C858 1.574 . S
C841 C860 1.368 . S
C841 H865 0.949 . S
H842 C846 0.949 . S
C843 C844 1.349 . S
C843 C845 1.327 . S
C843 H866 0.950 . S
C844 C843 1.349 . S
C844 C856 1.349 . S
C845 C843 1.327 . S
C845 C861 1.429 . S
C845 H867 0.950 . S
C846 H842 0.949 . S
C846 C854 1.574 . S
C846 C862 1.368 . S
H847 C855 0.950 . S
H848 C853 0.950 . S
H849 C854 0.949 . S
H850 C856 0.950 . S
H851 C857 0.950 . S
H852 C858 0.949 . S
C853 H848 0.950 . S
C853 C855 1.327 . S
C853 C859 1.429 . S
C854 C846 1.574 . S
C854 H849 0.949 . S
C854 C860 1.368 . S
C855 C839 1.349 . S
C855 H847 0.950 . S
C855 C853 1.327 . S
C856 C844 1.349 . S
C856 H850 0.950 . S
C856 C857 1.327 . S
C857 H851 0.950 . S
C857 C856 1.327 . S
C857 C861 1.429 . S
C858 C841 1.574 . S
C858 H852 0.949 . S
C858 C862 1.368 . S
C859 C840 1.429 . S
C859 C853 1.429 . S
C859 C860 1.523 . S
C860 C841 1.368 . S
C860 C854 1.368 . S
C860 C859 1.523 . S
C861 C845 1.429 . S
C861 C857 1.429 . S
C861 C862 1.523 . S
C862 C846 1.368 . S
C862 C858 1.368 . S
C862 C861 1.523 . S
H863 C838 0.950 . S
H864 C840 0.950 . S
H865 C841 0.949 . S
H866 C843 0.950 . S
H867 C845 0.950 . S
C868 C869 1.349 . S
C868 C870 1.327 . S
C868 H893 0.950 . S
C869 C868 1.349 . S
C869 C885 1.349 . S
C870 C868 1.327 . S
C870 C889 1.429 . S
C870 H894 0.950 . S
C871 C888 1.574 . S
C871 C890 1.368 . S
C871 H895 0.949 . S
H872 C876 0.949 . S
C873 C874 1.349 . S
C873 C875 1.327 . S
C873 H896 0.950 . S
C874 C873 1.349 . S
C874 C886 1.349 . S
C875 C873 1.327 . S
C875 C891 1.429 . S
C875 H897 0.950 . S
C876 H872 0.949 . S
C876 C884 1.574 . S
C876 C892 1.368 . S
H877 C885 0.950 . S
H878 C883 0.950 . S
H879 C884 0.949 . S
H880 C886 0.950 . S
H881 C887 0.950 . S
H882 C888 0.949 . S
C883 H878 0.950 . S
C883 C885 1.327 . S
C883 C889 1.429 . S
C884 C876 1.574 . S
C884 H879 0.949 . S
C884 C890 1.368 . S
C885 C869 1.349 . S
C885 H877 0.950 . S
C885 C883 1.327 . S
C886 C874 1.349 . S
C886 H880 0.950 . S
C886 C887 1.327 . S
C887 H881 0.950 . S
C887 C886 1.327 . S
C887 C891 1.429 . S
C888 C871 1.574 . S
C888 H882 0.949 . S
C888 C892 1.368 . S
C889 C870 1.429 . S
C889 C883 1.429 . S
C889 C890 1.523 . S
C890 C871 1.368 . S
C890 C884 1.368 . S
C890 C889 1.523 . S
C891 C875 1.429 . S
C891 C887 1.429 . S
C891 C892 1.523 . S
C892 C876 1.368 . S
C892 C888 1.368 . S
C892 C891 1.523 . S
H893 C868 0.950 . S
H894 C870 0.950 . S
H895 C871 0.949 . S
H896 C873 0.950 . S
H897 C875 0.950 . S
C898 C899 1.349 . S
C898 C900 1.327 . S
C898 H923 0.950 . S
C899 C898 1.349 . S
C899 C915 1.349 . S
C900 C898 1.327 . S
C900 C919 1.429 . S
C900 H924 0.950 . S
C901 C918 1.574 1_455 S
C901 C920 1.368 1_554 S
C901 H925 0.949 . S
H902 C906 0.949 . S
C903 C904 1.349 . S
C903 C905 1.327 . S
C903 H926 0.950 . S
C904 C903 1.349 . S
C904 C916 1.349 . S
C905 C903 1.327 . S
C905 C921 1.429 . S
C905 H927 0.950 . S
C906 H902 0.949 . S
C906 C914 1.600 . S
C906 C922 1.368 1_556 S
H907 C915 0.950 . S
H908 C913 0.950 . S
H909 C914 0.943 1_455 S
H910 C916 0.950 . S
H911 C917 0.957 . S
H912 C918 0.949 . S
C913 H908 0.950 . S
C913 C915 1.327 . S
C913 C919 1.429 . S
C914 C906 1.600 . S
C914 H909 0.943 1_655 S
C914 C920 1.350 1_655 S
C915 C899 1.349 . S
C915 H907 0.950 . S
C915 C913 1.327 . S
C916 C904 1.349 . S
C916 H910 0.950 . S
C916 C917 1.327 . S
C917 H911 0.957 . S
C917 C916 1.327 . S
C917 C921 1.429 . S
C918 C901 1.574 1_655 S
C918 H912 0.949 . S
C918 C922 1.368 . S
C919 C900 1.429 . S
C919 C913 1.429 . S
C919 C920 1.523 . S
C920 C901 1.368 1_556 S
C920 C914 1.350 1_455 S
C920 C919 1.523 . S
C921 C905 1.429 . S
C921 C917 1.429 . S
C921 C922 1.523 . S
C922 C906 1.368 1_554 S
C922 C918 1.368 . S
C922 C921 1.523 . S
H923 C898 0.950 . S
H924 C900 0.950 . S
H925 C901 0.949 . S
H926 C903 0.950 . S
H927 C905 0.950 . S
C928 C929 1.349 . S
C928 C930 1.327 . S
C928 H953 0.950 . S
C929 C928 1.349 . S
C929 C945 1.349 . S
C930 C928 1.327 . S
C930 C949 1.429 . S
C930 H954 0.950 . S
C931 C948 1.574 . S
C931 C950 1.368 . S
C931 H955 0.949 . S
H932 C936 0.949 . S
C933 C934 1.349 . S
C933 C935 1.327 . S
C933 H956 0.950 . S
C934 C933 1.349 . S
C934 C946 1.349 . S
C935 C933 1.327 . S
C935 C951 1.429 . S
C935 H957 0.950 . S
C936 H932 0.949 . S
C936 C944 1.574 . S
C936 C952 1.368 . S
H937 C945 0.950 . S
H938 C943 0.950 1_565 S
H939 C944 0.949 1_545 S
H940 C946 0.950 . S
H941 C947 0.950 . S
H942 C948 0.949 . S
C943 H938 0.950 1_545 S
C943 C945 1.327 . S
C943 C949 1.429 . S
C944 C936 1.574 . S
C944 H939 0.949 1_565 S
C944 C950 1.368 . S
C945 C929 1.349 . S
C945 H937 0.950 . S
C945 C943 1.327 . S
C946 C934 1.349 . S
C946 H940 0.950 . S
C946 C947 1.327 . S
C947 H941 0.950 . S
C947 C946 1.327 . S
C947 C951 1.429 . S
C948 C931 1.574 . S
C948 H942 0.949 . S
C948 C952 1.368 . S
C949 C930 1.429 . S
C949 C943 1.429 . S
C949 C950 1.523 1_545 S
C950 C931 1.368 . S
C950 C944 1.368 . S
C950 C949 1.523 1_565 S
C951 C935 1.429 . S
C951 C947 1.429 . S
C951 C952 1.523 . S
C952 C936 1.368 . S
C952 C948 1.368 . S
C952 C951 1.523 . S
H953 C928 0.950 . S
H954 C930 0.950 . S
H955 C931 0.949 . S
H956 C933 0.950 . S
H957 C935 0.950 . S
C958 C959 1.349 . S
C958 C960 1.327 . S
C958 H983 0.950 . S
C959 C958 1.349 . S
C959 C975 1.349 . S
C960 C958 1.327 . S
C960 C979 1.429 . S
C960 H984 0.950 . S
C961 C978 1.574 . S
C961 C980 1.368 . S
C961 H985 0.949 . S
H962 C966 0.949 . S
C963 C964 1.349 . S
C963 C965 1.327 . S
C963 H986 0.950 . S
C964 C963 1.349 . S
C964 C976 1.349 . S
C965 C963 1.327 . S
C965 C981 1.429 . S
C965 H987 0.950 . S
C966 H962 0.949 . S
C966 C974 1.574 . S
C966 C982 1.368 . S
H967 C975 0.950 . S
H968 C973 0.950 . S
H969 C974 0.949 . S
H970 C976 0.950 . S
H971 C977 0.950 . S
H972 C978 0.949 . S
C973 H968 0.950 . S
C973 C975 1.327 . S
C973 C979 1.429 . S
C974 C966 1.574 . S
C974 H969 0.949 . S
C974 C980 1.368 . S
C975 C959 1.349 . S
C975 H967 0.950 . S
C975 C973 1.327 . S
C976 C964 1.349 . S
C976 H970 0.950 . S
C976 C977 1.327 . S
C977 H971 0.950 . S
C977 C976 1.327 . S
C977 C981 1.429 . S
C978 C961 1.574 . S
C978 H972 0.949 . S
C978 C982 1.368 . S
C979 C960 1.429 . S
C979 C973 1.429 . S
C979 C980 1.523 . S
C980 C961 1.368 . S
C980 C974 1.368 . S
C980 C979 1.523 . S
C981 C965 1.429 . S
C981 C977 1.429 . S
C981 C982 1.523 . S
C982 C966 1.368 . S
C982 C978 1.368 . S
C982 C981 1.523 . S
H983 C958 0.950 . S
H984 C960 0.950 . S
H985 C961 0.949 . S
H986 C963 0.950 . S
H987 C965 0.950 . S
C988 C989 1.349 . S
C988 C990 1.327 . S
C988 H1013 0.950 . S
C989 C988 1.349 . S
C989 C1005 1.349 . S
C990 C988 1.327 . S
C990 C1009 1.429 . S
C990 H1014 0.950 . S
C991 C1008 1.574 . S
C991 C1010 1.368 1_565 S
C991 H1015 0.949 . S
H992 C996 0.949 1_545 S
C993 C994 1.349 . S
C993 C995 1.327 . S
C993 H1016 0.950 . S
C994 C993 1.349 . S
C994 C1006 1.349 . S
C995 C993 1.327 . S
C995 C1011 1.429 . S
C995 H1017 0.950 . S
C996 H992 0.949 1_565 S
C996 C1004 1.574 1_565 S
C996 C1012 1.368 . S
H997 C1005 0.950 . S
H998 C1003 0.950 . S
H999 C1004 0.949 . S
H1000 C1006 0.950 . S
H1001 C1007 0.950 . S
H1002 C1008 0.949 . S
C1003 H998 0.950 . S
C1003 C1005 1.327 . S
C1003 C1009 1.429 . S
C1004 C996 1.574 1_545 S
C1004 H999 0.949 . S
C1004 C1010 1.368 . S
C1005 C989 1.349 . S
C1005 H997 0.950 . S
C1005 C1003 1.327 . S
C1006 C994 1.349 . S
C1006 H1000 0.950 . S
C1006 C1007 1.327 . S
C1007 H1001 0.950 . S
C1007 C1006 1.327 . S
C1007 C1011 1.429 . S
C1008 C991 1.574 . S
C1008 H1002 0.949 . S
C1008 C1012 1.368 . S
C1009 C990 1.429 . S
C1009 C1003 1.429 . S
C1009 C1010 1.523 . S
C1010 C991 1.368 1_545 S
C1010 C1004 1.368 . S
C1010 C1009 1.523 . S
C1011 C995 1.429 . S
C1011 C1007 1.429 . S
C1011 C1012 1.523 . S
C1012 C996 1.368 . S
C1012 C1008 1.368 . S
C1012 C1011 1.523 . S
H1013 C988 0.950 . S
H1014 C990 0.950 . S
H1015 C991 0.949 . S
H1016 C993 0.950 . S
H1017 C995 0.950 . S
C1018 C1019 1.349 . S
C1018 C1020 1.327 . S
C1018 H1043 0.950 . S
C1019 C1018 1.349 . S
C1019 C1035 1.349 . S
C1020 C1018 1.327 . S
C1020 C1039 1.429 . S
C1020 H1044 0.950 . S
C1021 C1038 1.574 . S
C1021 C1040 1.368 . S
C1021 H1045 0.949 . S
H1022 C1026 0.949 . S
C1023 C1024 1.349 . S
C1023 C1025 1.327 . S
C1023 H1046 0.950 . S
C1024 C1023 1.349 . S
C1024 C1036 1.349 . S
C1025 C1023 1.327 . S
C1025 C1041 1.429 . S
C1025 H1047 0.950 . S
C1026 H1022 0.949 . S
C1026 C1034 1.574 1_554 S
C1026 C1042 1.368 . S
H1027 C1035 0.950 . S
H1028 C1033 0.950 . S
H1029 C1034 0.949 . S
H1030 C1036 0.950 . S
H1031 C1037 0.950 . S
H1032 C1038 0.949 . S
C1033 H1028 0.950 . S
C1033 C1035 1.327 . S
C1033 C1039 1.429 . S
C1034 C1026 1.574 1_556 S
C1034 H1029 0.949 . S
C1034 C1040 1.368 . S
C1035 C1019 1.349 . S
C1035 H1027 0.950 . S
C1035 C1033 1.327 . S
C1036 C1024 1.349 . S
C1036 H1030 0.950 . S
C1036 C1037 1.327 . S
C1037 H1031 0.950 . S
C1037 C1036 1.327 . S
C1037 C1041 1.429 . S
C1038 C1021 1.574 . S
C1038 H1032 0.949 . S
C1038 C1042 1.368 1_556 S
C1039 C1020 1.429 . S
C1039 C1033 1.429 . S
C1039 C1040 1.523 . S
C1040 C1021 1.368 . S
C1040 C1034 1.368 . S
C1040 C1039 1.523 . S
C1041 C1025 1.429 . S
C1041 C1037 1.429 . S
C1041 C1042 1.523 . S
C1042 C1026 1.368 . S
C1042 C1038 1.368 1_554 S
C1042 C1041 1.523 . S
H1043 C1018 0.950 . S
H1044 C1020 0.950 . S
H1045 C1021 0.949 . S
H1046 C1023 0.950 . S
H1047 C1025 0.950 . S
C1048 C1049 1.349 . S
C1048 C1050 1.327 . S
C1048 H1073 0.950 . S
C1049 C1048 1.349 . S
C1049 C1065 1.349 . S
C1050 C1048 1.327 . S
C1050 C1069 1.429 . S
C1050 H1074 0.950 . S
C1051 C1068 1.574 . S
C1051 C1070 1.368 . S
C1051 H1075 0.949 . S
H1052 C1056 0.949 . S
C1053 C1054 1.349 . S
C1053 C1055 1.327 . S
C1053 H1076 0.950 . S
C1054 C1053 1.349 . S
C1054 C1066 1.349 . S
C1055 C1053 1.327 . S
C1055 C1071 1.429 . S
C1055 H1077 0.950 . S
C1056 H1052 0.949 . S
C1056 C1064 1.574 1_565 S
C1056 C1072 1.368 . S
H1057 C1065 0.950 . S
H1058 C1063 0.950 . S
H1059 C1064 0.945 1_565 S
H1060 C1066 0.950 . S
H1061 C1067 0.950 . S
H1062 C1068 0.949 . S
C1063 H1058 0.950 . S
C1063 C1065 1.327 . S
C1063 C1069 1.429 . S
C1064 C1056 1.574 1_545 S
C1064 H1059 0.945 1_545 S
C1064 C1070 1.368 . S
C1065 C1049 1.349 . S
C1065 H1057 0.950 . S
C1065 C1063 1.327 . S
C1066 C1054 1.349 . S
C1066 H1060 0.950 . S
C1066 C1067 1.327 . S
C1067 H1061 0.950 . S
C1067 C1066 1.327 . S
C1067 C1071 1.429 . S
C1068 C1051 1.574 . S
C1068 H1062 0.949 . S
C1068 C1072 1.368 1_545 S
C1069 C1050 1.429 . S
C1069 C1063 1.429 . S
C1069 C1070 1.523 . S
C1070 C1051 1.368 . S
C1070 C1064 1.368 . S
C1070 C1069 1.523 . S
C1071 C1055 1.429 . S
C1071 C1067 1.429 . S
C1071 C1072 1.523 . S
C1072 C1056 1.368 . S
C1072 C1068 1.368 1_565 S
C1072 C1071 1.523 . S
H1073 C1048 0.950 . S
H1074 C1050 0.950 . S
H1075 C1051 0.949 . S
H1076 C1053 0.950 . S
H1077 C1055 0.950 . S
C1078 C1079 1.349 . S
C1078 C1080 1.327 . S
C1078 H1103 0.950 . S
C1079 C1078 1.349 . S
C1079 C1095 1.349 . S
C1080 C1078 1.327 . S
C1080 C1099 1.429 . S
C1080 H1104 0.950 . S
C1081 C1098 1.574 . S
C1081 C1100 1.368 . S
C1081 H1105 0.949 . S
H1082 C1086 0.949 . S
C1083 C1084 1.349 . S
C1083 C1085 1.327 . S
C1083 H1106 0.950 . S
C1084 C1083 1.349 . S
C1084 C1096 1.349 . S
C1085 C1083 1.327 . S
C1085 C1101 1.429 . S
C1085 H1107 0.950 . S
C1086 H1082 0.949 . S
C1086 C1094 1.574 . S
C1086 C1102 1.368 . S
H1087 C1095 0.950 . S
H1088 C1093 0.950 . S
H1089 C1094 0.949 . S
H1090 C1096 0.950 . S
H1091 C1097 0.950 . S
H1092 C1098 0.949 . S
C1093 H1088 0.950 . S
C1093 C1095 1.327 . S
C1093 C1099 1.429 . S
C1094 C1086 1.574 . S
C1094 H1089 0.949 . S
C1094 C1100 1.368 . S
C1095 C1079 1.349 . S
C1095 H1087 0.950 . S
C1095 C1093 1.327 . S
C1096 C1084 1.349 . S
C1096 H1090 0.950 . S
C1096 C1097 1.327 . S
C1097 H1091 0.950 . S
C1097 C1096 1.327 . S
C1097 C1101 1.429 . S
C1098 C1081 1.574 . S
C1098 H1092 0.949 . S
C1098 C1102 1.368 . S
C1099 C1080 1.429 . S
C1099 C1093 1.429 . S
C1099 C1100 1.523 . S
C1100 C1081 1.368 . S
C1100 C1094 1.368 . S
C1100 C1099 1.523 . S
C1101 C1085 1.429 . S
C1101 C1097 1.429 . S
C1101 C1102 1.523 . S
C1102 C1086 1.368 . S
C1102 C1098 1.368 . S
C1102 C1101 1.523 . S
H1103 C1078 0.950 . S
H1104 C1080 0.950 . S
H1105 C1081 0.949 . S
H1106 C1083 0.950 . S
H1107 C1085 0.950 . S
C1108 C1109 1.349 . S
C1108 C1110 1.327 . S
C1108 H1133 0.950 . S
C1109 C1108 1.349 . S
C1109 C1125 1.349 . S
C1110 C1108 1.327 . S
C1110 C1129 1.429 . S
C1110 H1134 0.950 . S
C1111 C1128 1.574 1_545 S
C1111 C1130 1.368 . S
C1111 H1135 0.949 . S
H1112 C1116 0.949 . S
C1113 C1114 1.349 . S
C1113 C1115 1.327 . S
C1113 H1136 0.950 . S
C1114 C1113 1.349 . S
C1114 C1126 1.349 . S
C1115 C1113 1.327 . S
C1115 C1131 1.429 . S
C1115 H1137 0.950 . S
C1116 H1112 0.949 . S
C1116 C1124 1.574 . S
C1116 C1132 1.368 . S
H1117 C1125 0.950 . S
H1118 C1123 0.950 . S
H1119 C1124 0.949 . S
H1120 C1126 0.950 . S
H1121 C1127 0.950 . S
H1122 C1128 0.949 . S
C1123 H1118 0.950 . S
C1123 C1125 1.327 . S
C1123 C1129 1.429 . S
C1124 C1116 1.574 . S
C1124 H1119 0.949 . S
C1124 C1130 1.368 1_565 S
C1125 C1109 1.349 . S
C1125 H1117 0.950 . S
C1125 C1123 1.327 . S
C1126 C1114 1.349 . S
C1126 H1120 0.950 . S
C1126 C1127 1.327 . S
C1127 H1121 0.950 . S
C1127 C1126 1.327 . S
C1127 C1131 1.429 . S
C1128 C1111 1.574 1_565 S
C1128 H1122 0.949 . S
C1128 C1132 1.368 . S
C1129 C1110 1.429 . S
C1129 C1123 1.429 . S
C1129 C1130 1.523 . S
C1130 C1111 1.368 . S
C1130 C1124 1.368 1_545 S
C1130 C1129 1.523 . S
C1131 C1115 1.429 . S
C1131 C1127 1.429 . S
C1131 C1132 1.523 . S
C1132 C1116 1.368 . S
C1132 C1128 1.368 . S
C1132 C1131 1.523 . S
H1133 C1108 0.950 . S
H1134 C1110 0.950 . S
H1135 C1111 0.949 . S
H1136 C1113 0.950 . S
H1137 C1115 0.950 . S
C1138 C1139 1.349 . S
C1138 C1140 1.327 . S
C1138 H1163 0.950 . S
C1139 C1138 1.349 . S
C1139 C1155 1.349 . S
C1140 C1138 1.327 . S
C1140 C1159 1.429 . S
C1140 H1164 0.950 . S
C1141 C1158 1.574 . S
C1141 C1160 1.368 . S
C1141 H1165 0.949 . S
H1142 C1146 0.949 . S
C1143 C1144 1.349 . S
C1143 C1145 1.327 . S
C1143 H1166 0.950 . S
C1144 C1143 1.349 . S
C1144 C1156 1.349 . S
C1145 C1143 1.327 . S
C1145 C1161 1.429 . S
C1145 H1167 0.950 . S
C1146 H1142 0.949 . S
C1146 C1154 1.574 . S
C1146 C1162 1.368 . S
H1147 C1155 0.950 . S
H1148 C1153 0.950 1_554 S
H1149 C1154 0.959 . S
H1150 C1156 0.950 . S
H1151 C1157 0.950 . S
H1152 C1158 0.949 . S
C1153 H1148 0.950 1_556 S
C1153 C1155 1.327 . S
C1153 C1159 1.429 . S
C1154 C1146 1.574 . S
C1154 H1149 0.959 . S
C1154 C1160 1.368 . S
C1155 C1139 1.349 . S
C1155 H1147 0.950 . S
C1155 C1153 1.327 . S
C1156 C1144 1.349 . S
C1156 H1150 0.950 . S
C1156 C1157 1.327 . S
C1157 H1151 0.950 . S
C1157 C1156 1.327 . S
C1157 C1161 1.429 . S
C1158 C1141 1.574 . S
C1158 H1152 0.949 . S
C1158 C1162 1.368 . S
C1159 C1140 1.429 . S
C1159 C1153 1.429 . S
C1159 C1160 1.523 1_556 S
C1160 C1141 1.368 . S
C1160 C1154 1.368 . S
C1160 C1159 1.523 1_554 S
C1161 C1145 1.429 . S
C1161 C1157 1.429 . S
C1161 C1162 1.523 . S
C1162 C1146 1.368 . S
C1162 C1158 1.368 . S
C1162 C1161 1.523 . S
H1163 C1138 0.950 . S
H1164 C1140 0.950 . S
H1165 C1141 0.949 . S
H1166 C1143 0.950 . S
H1167 C1145 0.950 . S
C1168 C1169 1.349 . S
C1168 C1170 1.327 . S
C1168 H1193 0.950 . S
C1169 C1168 1.349 . S
C1169 C1185 1.349 . S
C1170 C1168 1.327 . S
C1170 C1189 1.429 . S
C1170 H1194 0.950 . S
C1171 C1188 1.574 . S
C1171 C1190 1.368 . S
C1171 H1195 0.949 . S
H1172 C1176 0.949 . S
C1173 C1174 1.349 . S
C1173 C1175 1.327 . S
C1173 H1196 0.950 . S
C1174 C1173 1.349 . S
C1174 C1186 1.349 . S
C1175 C1173 1.327 . S
C1175 C1191 1.429 . S
C1175 H1197 0.950 1_455 S
C1176 H1172 0.949 . S
C1176 C1184 1.574 . S
C1176 C1192 1.368 . S
H1177 C1185 0.950 . S
H1178 C1183 0.950 . S
H1179 C1184 0.949 . S
H1180 C1186 0.950 . S
H1181 C1187 0.950 . S
H1182 C1188 0.949 . S
C1183 H1178 0.950 . S
C1183 C1185 1.327 . S
C1183 C1189 1.429 . S
C1184 C1176 1.574 . S
C1184 H1179 0.949 . S
C1184 C1190 1.368 . S
C1185 C1169 1.349 . S
C1185 H1177 0.950 . S
C1185 C1183 1.327 . S
C1186 C1174 1.349 . S
C1186 H1180 0.950 . S
C1186 C1187 1.327 . S
C1187 H1181 0.950 . S
C1187 C1186 1.327 . S
C1187 C1191 1.429 . S
C1188 C1171 1.574 . S
C1188 H1182 0.949 . S
C1188 C1192 1.368 . S
C1189 C1170 1.429 . S
C1189 C1183 1.429 . S
C1189 C1190 1.523 . S
C1190 C1171 1.368 . S
C1190 C1184 1.368 . S
C1190 C1189 1.523 . S
C1191 C1175 1.429 . S
C1191 C1187 1.429 . S
C1191 C1192 1.523 1_455 S
C1192 C1176 1.368 . S
C1192 C1188 1.368 . S
C1192 C1191 1.523 1_655 S
H1193 C1168 0.950 . S
H1194 C1170 0.950 . S
H1195 C1171 0.949 . S
H1196 C1173 0.950 . S
H1197 C1175 0.950 1_655 S
C1198 C1199 1.349 . S
C1198 C1200 1.327 . S
C1198 H1223 0.950 . S
C1199 C1198 1.349 . S
C1199 C1215 1.349 . S
C1200 C1198 1.327 . S
C1200 C1219 1.429 . S
C1200 H1224 0.950 . S
C1201 C1218 1.574 . S
C1201 C1220 1.368 . S
C1201 H1225 0.949 . S
H1202 C1206 0.949 . S
C1203 C1204 1.349 . S
C1203 C1205 1.327 . S
C1203 H1226 0.950 . S
C1204 C1203 1.349 . S
C1204 C1216 1.349 . S
C1205 C1203 1.327 . S
C1205 C1221 1.429 . S
C1205 H1227 0.950 . S
C1206 H1202 0.949 . S
C1206 C1214 1.574 . S
C1206 C1222 1.368 . S
H1207 C1215 0.950 . S
H1208 C1213 0.950 . S
H1209 C1214 0.949 . S
H1210 C1216 0.950 . S
H1211 C1217 0.950 . S
H1212 C1218 0.949 . S
C1213 H1208 0.950 . S
C1213 C1215 1.327 . S
C1213 C1219 1.429 . S
C1214 C1206 1.574 . S
C1214 H1209 0.949 . S
C1214 C1220 1.368 . S
C1215 C1199 1.349 . S
C1215 H1207 0.950 . S
C1215 C1213 1.327 . S
C1216 C1204 1.349 . S
C1216 H1210 0.950 . S
C1216 C1217 1.327 . S
C1217 H1211 0.950 . S
C1217 C1216 1.327 . S
C1217 C1221 1.429 . S
C1218 C1201 1.574 . S
C1218 H1212 0.949 . S
C1218 C1222 1.368 . S
C1219 C1200 1.429 . S
C1219 C1213 1.429 . S
C1219 C1220 1.523 . S
C1220 C1201 1.368 . S
C1220 C1214 1.368 . S
C1220 C1219 1.523 . S
C1221 C1205 1.429 . S
C1221 C1217 1.429 . S
C1221 C1222 1.523 . S
C1222 C1206 1.368 . S
C1222 C1218 1.368 . S
C1222 C1221 1.523 . S
H1223 C1198 0.950 . S
H1224 C1200 0.950 . S
H1225 C1201 0.949 . S
H1226 C1203 0.950 . S
H1227 C1205 0.950 . S
C1228 C1229 1.349 . S
C1228 C1230 1.327 . S
C1228 H1253 0.950 . S
C1229 C1228 1.349 . S
C1229 C1245 1.349 . S
C1230 C1228 1.327 . S
C1230 C1249 1.429 . S
C1230 H1254 0.950 . S
C1231 C1248 1.574 . S
C1231 C1250 1.368 . S
C1231 H1255 0.949 . S
H1232 C1236 0.949 . S
C1233 C1234 1.349 . S
C1233 C1235 1.327 . S
C1233 H1256 0.950 . S
C1234 C1233 1.349 . S
C1234 C1246 1.349 . S
C1235 C1233 1.327 . S
C1235 C1251 1.429 . S
C1235 H1257 0.950 . S
C1236 H1232 0.949 . S
C1236 C1244 1.574 . S
C1236 C1252 1.368 . S
H1237 C1245 0.950 . S
H1238 C1243 0.969 . S
H1239 C1244 0.949 . S
H1240 C1246 0.950 . S
H1241 C1247 0.950 . S
H1242 C1248 0.949 . S
C1243 H1238 0.969 . S
C1243 C1245 1.327 . S
C1243 C1249 1.429 . S
C1244 C1236 1.574 . S
C1244 H1239 0.949 . S
C1244 C1250 1.368 . S
C1245 C1229 1.349 . S
C1245 H1237 0.950 . S
C1245 C1243 1.327 . S
C1246 C1234 1.349 . S
C1246 H1240 0.950 . S
C1246 C1247 1.327 . S
C1247 H1241 0.950 . S
C1247 C1246 1.327 . S
C1247 C1251 1.429 . S
C1248 C1231 1.574 . S
C1248 H1242 0.949 . S
C1248 C1252 1.368 . S
C1249 C1230 1.429 . S
C1249 C1243 1.429 . S
C1249 C1250 1.523 1_655 S
C1250 C1231 1.368 . S
C1250 C1244 1.368 . S
C1250 C1249 1.523 1_455 S
C1251 C1235 1.429 . S
C1251 C1247 1.429 . S
C1251 C1252 1.523 . S
C1252 C1236 1.368 . S
C1252 C1248 1.368 . S
C1252 C1251 1.523 . S
H1253 C1228 0.950 . S
H1254 C1230 0.950 . S
H1255 C1231 0.949 . S
H1256 C1233 0.950 . S
H1257 C1235 0.950 . S
C1258 C1259 1.349 . S
C1258 C1260 1.327 . S
C1258 H1283 0.950 . S
C1259 C1258 1.349 . S
C1259 C1275 1.349 . S
C1260 C1258 1.327 . S
C1260 C1279 1.429 . S
C1260 H1284 0.950 . S
C1261 C1278 1.574 . S
C1261 C1280 1.368 . S
C1261 H1285 0.949 . S
H1262 C1266 0.949 . S
C1263 C1264 1.349 . S
C1263 C1265 1.327 . S
C1263 H1286 0.950 . S
C1264 C1263 1.349 . S
C1264 C1276 1.349 . S
C1265 C1263 1.327 . S
C1265 C1281 1.429 . S
C1265 H1287 0.950 . S
C1266 H1262 0.949 . S
C1266 C1274 1.574 . S
C1266 C1282 1.368 . S
H1267 C1275 0.950 . S
H1268 C1273 0.950 . S
H1269 C1274 0.949 . S
H1270 C1276 0.950 . S
H1271 C1277 0.950 . S
H1272 C1278 0.949 . S
C1273 H1268 0.950 . S
C1273 C1275 1.327 . S
C1273 C1279 1.429 . S
C1274 C1266 1.574 . S
C1274 H1269 0.949 . S
C1274 C1280 1.368 . S
C1275 C1259 1.349 . S
C1275 H1267 0.950 . S
C1275 C1273 1.327 . S
C1276 C1264 1.349 . S
C1276 H1270 0.950 . S
C1276 C1277 1.327 . S
C1277 H1271 0.950 . S
C1277 C1276 1.327 . S
C1277 C1281 1.429 . S
C1278 C1261 1.574 . S
C1278 H1272 0.949 . S
C1278 C1282 1.368 . S
C1279 C1260 1.429 . S
C1279 C1273 1.429 . S
C1279 C1280 1.523 1_655 S
C1280 C1261 1.368 . S
C1280 C1274 1.368 . S
C1280 C1279 1.523 1_455 S
C1281 C1265 1.429 . S
C1281 C1277 1.429 . S
C1281 C1282 1.523 . S
C1282 C1266 1.368 . S
C1282 C1278 1.368 . S
C1282 C1281 1.523 . S
H1283 C1258 0.950 . S
H1284 C1260 0.950 . S
H1285 C1261 0.949 . S
H1286 C1263 0.950 . S
H1287 C1265 0.950 . S
C1288 C1289 1.349 . S
C1288 C1290 1.327 . S
C1288 H1313 0.950 . S
C1289 C1288 1.349 . S
C1289 C1305 1.349 . S
C1290 C1288 1.327 . S
C1290 C1309 1.429 . S
C1290 H1314 0.950 . S
C1291 C1308 1.574 . S
C1291 C1310 1.368 . S
C1291 H1315 0.949 . S
H1292 C1296 0.949 . S
C1293 C1294 1.349 . S
C1293 C1295 1.327 . S
C1293 H1316 0.950 . S
C1294 C1293 1.349 . S
C1294 C1306 1.349 . S
C1295 C1293 1.327 . S
C1295 C1311 1.429 . S
C1295 H1317 0.950 . S
C1296 H1292 0.949 . S
C1296 C1304 1.574 . S
C1296 C1312 1.368 . S
H1297 C1305 0.950 . S
H1298 C1303 0.950 . S
H1299 C1304 0.949 . S
H1300 C1306 0.950 . S
H1301 C1307 0.950 . S
H1302 C1308 0.949 . S
C1303 H1298 0.950 . S
C1303 C1305 1.327 . S
C1303 C1309 1.429 . S
C1304 C1296 1.574 . S
C1304 H1299 0.949 . S
C1304 C1310 1.368 . S
C1305 C1289 1.349 . S
C1305 H1297 0.950 . S
C1305 C1303 1.327 . S
C1306 C1294 1.349 . S
C1306 H1300 0.950 . S
C1306 C1307 1.327 . S
C1307 H1301 0.950 . S
C1307 C1306 1.327 . S
C1307 C1311 1.429 . S
C1308 C1291 1.574 . S
C1308 H1302 0.949 . S
C1308 C1312 1.368 . S
C1309 C1290 1.429 . S
C1309 C1303 1.429 . S
C1309 C1310 1.523 . S
C1310 C1291 1.368 . S
C1310 C1304 1.368 . S
C1310 C1309 1.523 . S
C1311 C1295 1.429 . S
C1311 C1307 1.429 . S
C1311 C1312 1.523 . S
C1312 C1296 1.368 . S
C1312 C1308 1.368 . S
C1312 C1311 1.523 . S
H1313 C1288 0.950 . S
H1314 C1290 0.950 . S
H1315 C1291 0.949 . S
H1316 C1293 0.950 . S
H1317 C1295 0.950 . S
C1318 C1319 1.349 . S
C1318 C1320 1.327 . S
C1318 H1343 0.950 . S
C1319 C1318 1.349 . S
C1319 C1335 1.349 . S
C1320 C1318 1.327 . S
C1320 C1339 1.429 . S
C1320 H1344 0.950 . S
C1321 C1338 1.574 . S
C1321 C1340 1.368 . S
C1321 H1345 0.949 . S
H1322 C1326 0.949 . S
C1323 C1324 1.349 . S
C1323 C1325 1.327 . S
C1323 H1346 0.950 . S
C1324 C1323 1.349 . S
C1324 C1336 1.349 . S
C1325 C1323 1.327 . S
C1325 C1341 1.429 . S
C1325 H1347 0.950 . S
C1326 H1322 0.949 . S
C1326 C1334 1.574 . S
C1326 C1342 1.368 . S
H1327 C1335 0.950 . S
H1328 C1333 0.950 . S
H1329 C1334 0.949 . S
H1330 C1336 0.950 . S
H1331 C1337 0.950 . S
H1332 C1338 0.949 1_455 S
C1333 H1328 0.950 . S
C1333 C1335 1.327 . S
C1333 C1339 1.429 . S
C1334 C1326 1.574 . S
C1334 H1329 0.949 . S
C1334 C1340 1.368 . S
C1335 C1319 1.349 . S
C1335 H1327 0.950 . S
C1335 C1333 1.327 . S
C1336 C1324 1.349 . S
C1336 H1330 0.950 . S
C1336 C1337 1.327 . S
C1337 H1331 0.950 . S
C1337 C1336 1.327 . S
C1337 C1341 1.429 . S
C1338 C1321 1.574 . S
C1338 H1332 0.949 1_655 S
C1338 C1342 1.368 . S
C1339 C1320 1.429 . S
C1339 C1333 1.429 . S
C1339 C1340 1.523 . S
C1340 C1321 1.368 . S
C1340 C1334 1.368 . S
C1340 C1339 1.523 . S
C1341 C1325 1.429 . S
C1341 C1337 1.429 . S
C1341 C1342 1.523 1_455 S
C1342 C1326 1.368 . S
C1342 C1338 1.368 . S
C1342 C1341 1.523 1_655 S
H1343 C1318 0.950 . S
H1344 C1320 0.950 . S
H1345 C1321 0.949 . S
H1346 C1323 0.950 . S
H1347 C1325 0.950 . S
C1348 C1349 1.349 . S
C1348 C1350 1.327 . S
C1348 H1373 0.950 . S
C1349 C1348 1.349 . S
C1349 C1365 1.349 . S
C1350 C1348 1.327 . S
C1350 C1369 1.429 . S
C1350 H1374 0.950 . S
C1351 C1368 1.574 . S
C1351 C1370 1.368 . S
C1351 H1375 0.949 . S
H1352 C1356 0.949 . S
C1353 C1354 1.349 . S
C1353 C1355 1.327 . S
C1353 H1376 0.950 . S
C1354 C1353 1.349 . S
C1354 C1366 1.349 . S
C1355 C1353 1.327 . S
C1355 C1371 1.429 . S
C1355 H1377 0.950 . S
C1356 H1352 0.949 . S
C1356 C1364 1.574 . S
C1356 C1372 1.368 . S
H1357 C1365 0.950 . S
H1358 C1363 0.950 . S
H1359 C1364 0.949 . S
H1360 C1366 0.950 . S
H1361 C1367 0.950 . S
H1362 C1368 0.949 . S
C1363 H1358 0.950 . S
C1363 C1365 1.327 . S
C1363 C1369 1.429 . S
C1364 C1356 1.574 . S
C1364 H1359 0.949 . S
C1364 C1370 1.368 . S
C1365 C1349 1.349 . S
C1365 H1357 0.950 . S
C1365 C1363 1.327 . S
C1366 C1354 1.349 . S
C1366 H1360 0.950 . S
C1366 C1367 1.327 . S
C1367 H1361 0.950 . S
C1367 C1366 1.327 . S
C1367 C1371 1.429 . S
C1368 C1351 1.574 . S
C1368 H1362 0.949 . S
C1368 C1372 1.368 . S
C1369 C1350 1.429 . S
C1369 C1363 1.429 . S
C1369 C1370 1.523 . S
C1370 C1351 1.368 . S
C1370 C1364 1.368 . S
C1370 C1369 1.523 . S
C1371 C1355 1.429 . S
C1371 C1367 1.429 . S
C1371 C1372 1.523 . S
C1372 C1356 1.368 . S
C1372 C1368 1.368 . S
C1372 C1371 1.523 . S
H1373 C1348 0.950 . S
H1374 C1350 0.950 . S
H1375 C1351 0.949 . S
H1376 C1353 0.950 . S
H1377 C1355 0.950 . S
C1378 C1379 1.349 . S
C1378 C1380 1.327 . S
C1378 H1403 0.950 . S
C1379 C1378 1.349 . S
C1379 C1395 1.349 . S
C1380 C1378 1.327 . S
C1380 C1399 1.429 . S
C1380 H1404 0.950 . S
C1381 C1398 1.555 1_545 S
C1381 C1400 1.368 . S
C1381 H1405 0.949 . S
H1382 C1386 0.949 . S
C1383 C1384 1.349 . S
C1383 C1385 1.327 . S
C1383 H1406 0.950 . S
C1384 C1383 1.349 . S
C1384 C1396 1.349 . S
C1385 C1383 1.327 . S
C1385 C1401 1.429 . S
C1385 H1407 0.950 . S
C1386 H1382 0.949 . S
C1386 C1394 1.574 . S
C1386 C1402 1.373 . S
H1387 C1395 0.950 . S
H1388 C1393 0.950 . S
H1389 C1394 0.949 . S
H1390 C1396 0.950 . S
H1391 C1397 0.950 . S
H1392 C1398 0.966 . S
C1393 H1388 0.950 . S
C1393 C1395 1.327 . S
C1393 C1399 1.429 . S
C1394 C1386 1.574 . S
C1394 H1389 0.949 . S
C1394 C1400 1.368 . S
C1395 C1379 1.349 . S
C1395 H1387 0.950 . S
C1395 C1393 1.327 . S
C1396 C1384 1.349 . S
C1396 H1390 0.950 . S
C1396 C1397 1.327 . S
C1397 H1391 0.950 . S
C1397 C1396 1.327 . S
C1397 C1401 1.429 . S
C1398 C1381 1.555 1_565 S
C1398 H1392 0.966 . S
C1398 C1402 1.369 1_565 S
C1399 C1380 1.429 . S
C1399 C1393 1.429 . S
C1399 C1400 1.523 . S
C1400 C1381 1.368 . S
C1400 C1394 1.368 . S
C1400 C1399 1.523 . S
C1401 C1385 1.429 . S
C1401 C1397 1.429 . S
C1401 C1402 1.516 1_565 S
C1402 C1386 1.373 . S
C1402 C1398 1.369 1_545 S
C1402 C1401 1.516 1_545 S
H1403 C1378 0.950 . S
H1404 C1380 0.950 . S
H1405 C1381 0.949 . S
H1406 C1383 0.950 . S
H1407 C1385 0.950 . S
C1408 C1409 1.349 . S
C1408 C1410 1.327 . S
C1408 H1433 0.950 . S
C1409 C1408 1.349 . S
C1409 C1425 1.349 . S
C1410 C1408 1.327 . S
C1410 C1429 1.429 . S
C1410 H1434 0.950 . S
C1411 C1428 1.574 . S
C1411 C1430 1.368 . S
C1411 H1435 0.949 . S
H1412 C1416 0.949 . S
C1413 C1414 1.349 . S
C1413 C1415 1.327 . S
C1413 H1436 0.950 . S
C1414 C1413 1.349 . S
C1414 C1426 1.349 . S
C1415 C1413 1.327 . S
C1415 C1431 1.429 . S
C1415 H1437 0.950 . S
C1416 H1412 0.949 . S
C1416 C1424 1.574 . S
C1416 C1432 1.368 . S
H1417 C1425 0.950 . S
H1418 C1423 0.950 . S
H1419 C1424 0.949 . S
H1420 C1426 0.950 . S
H1421 C1427 0.950 . S
H1422 C1428 0.949 . S
C1423 H1418 0.950 . S
C1423 C1425 1.327 . S
C1423 C1429 1.429 . S
C1424 C1416 1.574 . S
C1424 H1419 0.949 . S
C1424 C1430 1.368 . S
C1425 C1409 1.349 . S
C1425 H1417 0.950 . S
C1425 C1423 1.327 . S
C1426 C1414 1.349 . S
C1426 H1420 0.950 . S
C1426 C1427 1.327 . S
C1427 H1421 0.950 . S
C1427 C1426 1.327 . S
C1427 C1431 1.429 . S
C1428 C1411 1.574 . S
C1428 H1422 0.949 . S
C1428 C1432 1.368 . S
C1429 C1410 1.429 . S
C1429 C1423 1.429 . S
C1429 C1430 1.523 . S
C1430 C1411 1.368 . S
C1430 C1424 1.368 . S
C1430 C1429 1.523 . S
C1431 C1415 1.429 . S
C1431 C1427 1.429 . S
C1431 C1432 1.523 . S
C1432 C1416 1.368 . S
C1432 C1428 1.368 . S
C1432 C1431 1.523 . S
H1433 C1408 0.950 . S
H1434 C1410 0.950 . S
H1435 C1411 0.949 . S
H1436 C1413 0.950 . S
H1437 C1415 0.950 . S
C1438 C1439 1.349 . S
C1438 C1440 1.327 . S
C1438 H1463 0.950 . S
C1439 C1438 1.349 . S
C1439 C1455 1.349 . S
C1440 C1438 1.327 . S
C1440 C1459 1.429 . S
C1440 H1464 0.950 . S
C1441 C1458 1.574 . S
C1441 C1460 1.368 1_545 S
C1441 H1465 0.949 . S
H1442 C1446 0.949 . S
C1443 C1444 1.349 . S
C1443 C1445 1.327 . S
C1443 H1466 0.950 . S
C1444 C1443 1.349 . S
C1444 C1456 1.349 . S
C1445 C1443 1.327 . S
C1445 C1461 1.429 . S
C1445 H1467 0.950 . S
C1446 H1442 0.949 . S
C1446 C1454 1.574 1_545 S
C1446 C1462 1.368 . S
H1447 C1455 0.950 . S
H1448 C1453 0.950 . S
H1449 C1454 0.949 . S
H1450 C1456 0.950 . S
H1451 C1457 0.950 . S
H1452 C1458 0.949 . S
C1453 H1448 0.950 . S
C1453 C1455 1.327 . S
C1453 C1459 1.429 . S
C1454 C1446 1.574 1_565 S
C1454 H1449 0.949 . S
C1454 C1460 1.368 . S
C1455 C1439 1.349 . S
C1455 H1447 0.950 . S
C1455 C1453 1.327 . S
C1456 C1444 1.349 . S
C1456 H1450 0.950 . S
C1456 C1457 1.327 . S
C1457 H1451 0.950 . S
C1457 C1456 1.327 . S
C1457 C1461 1.429 . S
C1458 C1441 1.574 . S
C1458 H1452 0.949 . S
C1458 C1462 1.368 . S
C1459 C1440 1.429 . S
C1459 C1453 1.429 . S
C1459 C1460 1.523 . S
C1460 C1441 1.368 1_565 S
C1460 C1454 1.368 . S
C1460 C1459 1.523 . S
C1461 C1445 1.429 . S
C1461 C1457 1.429 . S
C1461 C1462 1.523 . S
C1462 C1446 1.368 . S
C1462 C1458 1.368 . S
C1462 C1461 1.523 . S
H1463 C1438 0.950 . S
H1464 C1440 0.950 . S
H1465 C1441 0.949 . S
H1466 C1443 0.950 . S
H1467 C1445 0.950 . S
C1468 C1469 1.349 . S
C1468 C1470 1.327 . S
C1468 H1493 0.950 . S
C1469 C1468 1.349 . S
C1469 C1485 1.349 . S
C1470 C1468 1.327 . S
C1470 C1489 1.429 . S
C1470 H1494 0.950 . S
C1471 C1488 1.574 1_556 S
C1471 C1490 1.368 . S
C1471 H1495 0.949 . S
H1472 C1476 0.949 . S
C1473 C1474 1.349 . S
C1473 C1475 1.327 . S
C1473 H1496 0.950 . S
C1474 C1473 1.349 . S
C1474 C1486 1.349 . S
C1475 C1473 1.327 . S
C1475 C1491 1.429 . S
C1475 H1497 0.950 . S
C1476 H1472 0.949 . S
C1476 C1484 1.574 1_554 S
C1476 C1492 1.368 . S
H1477 C1485 0.950 . S
H1478 C1483 0.950 . S
H1479 C1484 0.949 . S
H1480 C1486 0.950 . S
H1481 C1487 0.950 . S
H1482 C1488 0.949 . S
C1483 H1478 0.950 . S
C1483 C1485 1.327 . S
C1483 C1489 1.429 . S
C1484 C1476 1.574 1_556 S
C1484 H1479 0.949 . S
C1484 C1490 1.368 . S
C1485 C1469 1.349 . S
C1485 H1477 0.950 . S
C1485 C1483 1.327 . S
C1486 C1474 1.349 . S
C1486 H1480 0.950 . S
C1486 C1487 1.327 . S
C1487 H1481 0.950 . S
C1487 C1486 1.327 . S
C1487 C1491 1.429 . S
C1488 C1471 1.574 1_554 S
C1488 H1482 0.949 . S
C1488 C1492 1.368 . S
C1489 C1470 1.429 . S
C1489 C1483 1.429 . S
C1489 C1490 1.523 . S
C1490 C1471 1.368 . S
C1490 C1484 1.368 . S
C1490 C1489 1.523 . S
C1491 C1475 1.429 . S
C1491 C1487 1.429 . S
C1491 C1492 1.523 . S
C1492 C1476 1.368 . S
C1492 C1488 1.368 . S
C1492 C1491 1.523 . S
H1493 C1468 0.950 . S
H1494 C1470 0.950 . S
H1495 C1471 0.949 . S
H1496 C1473 0.950 . S
H1497 C1475 0.950 . S
C1498 C1499 1.349 . S
C1498 C1500 1.327 . S
C1498 H1523 0.950 . S
C1499 C1498 1.349 . S
C1499 C1515 1.349 . S
C1500 C1498 1.327 . S
C1500 C1519 1.429 . S
C1500 H1524 0.950 . S
C1501 C1518 1.574 . S
C1501 C1520 1.368 1_565 S
C1501 H1525 0.949 . S
H1502 C1506 0.949 . S
C1503 C1504 1.349 . S
C1503 C1505 1.327 . S
C1503 H1526 0.950 . S
C1504 C1503 1.349 . S
C1504 C1516 1.349 . S
C1505 C1503 1.327 . S
C1505 C1521 1.429 . S
C1505 H1527 0.950 . S
C1506 H1502 0.949 . S
C1506 C1514 1.574 . S
C1506 C1522 1.368 1_545 S
H1507 C1515 0.950 . S
H1508 C1513 0.950 . S
H1509 C1514 0.949 . S
H1510 C1516 0.950 . S
H1511 C1517 0.950 . S
H1512 C1518 0.949 . S
C1513 H1508 0.950 . S
C1513 C1515 1.327 . S
C1513 C1519 1.429 . S
C1514 C1506 1.574 . S
C1514 H1509 0.949 . S
C1514 C1520 1.368 . S
C1515 C1499 1.349 . S
C1515 H1507 0.950 . S
C1515 C1513 1.327 . S
C1516 C1504 1.349 . S
C1516 H1510 0.950 . S
C1516 C1517 1.327 . S
C1517 H1511 0.950 . S
C1517 C1516 1.327 . S
C1517 C1521 1.429 . S
C1518 C1501 1.574 . S
C1518 H1512 0.949 . S
C1518 C1522 1.368 . S
C1519 C1500 1.429 . S
C1519 C1513 1.429 . S
C1519 C1520 1.523 . S
C1520 C1501 1.368 1_545 S
C1520 C1514 1.368 . S
C1520 C1519 1.523 . S
C1521 C1505 1.429 . S
C1521 C1517 1.429 . S
C1521 C1522 1.523 . S
C1522 C1506 1.368 1_565 S
C1522 C1518 1.368 . S
C1522 C1521 1.523 . S
H1523 C1498 0.950 . S
H1524 C1500 0.950 . S
H1525 C1501 0.949 . S
H1526 C1503 0.950 . S
H1527 C1505 0.950 . S
C1528 C1529 1.349 . S
C1528 C1530 1.327 . S
C1528 H1553 0.950 . S
C1529 C1528 1.349 . S
C1529 C1545 1.349 . S
C1530 C1528 1.327 . S
C1530 C1549 1.429 . S
C1530 H1554 0.950 . S
C1531 C1548 1.574 . S
C1531 C1550 1.368 . S
C1531 H1555 0.949 . S
H1532 C1536 0.949 . S
C1533 C1534 1.349 . S
C1533 C1535 1.327 . S
C1533 H1556 0.950 . S
C1534 C1533 1.349 . S
C1534 C1546 1.349 . S
C1535 C1533 1.327 . S
C1535 C1551 1.429 . S
C1535 H1557 0.950 . S
C1536 H1532 0.949 . S
C1536 C1544 1.574 . S
C1536 C1552 1.368 . S
H1537 C1545 0.950 . S
H1538 C1543 0.950 . S
H1539 C1544 0.949 . S
H1540 C1546 0.950 . S
H1541 C1547 0.950 . S
H1542 C1548 0.949 . S
C1543 H1538 0.950 . S
C1543 C1545 1.327 . S
C1543 C1549 1.429 . S
C1544 C1536 1.574 . S
C1544 H1539 0.949 . S
C1544 C1550 1.368 . S
C1545 C1529 1.349 . S
C1545 H1537 0.950 . S
C1545 C1543 1.327 . S
C1546 C1534 1.349 . S
C1546 H1540 0.950 . S
C1546 C1547 1.327 . S
C1547 H1541 0.950 . S
C1547 C1546 1.327 . S
C1547 C1551 1.429 . S
C1548 C1531 1.574 . S
C1548 H1542 0.949 . S
C1548 C1552 1.368 . S
C1549 C1530 1.429 . S
C1549 C1543 1.429 . S
C1549 C1550 1.523 . S
C1550 C1531 1.368 . S
C1550 C1544 1.368 . S
C1550 C1549 1.523 . S
C1551 C1535 1.429 . S
C1551 C1547 1.429 . S
C1551 C1552 1.523 . S
C1552 C1536 1.368 . S
C1552 C1548 1.368 . S
C1552 C1551 1.523 . S
H1553 C1528 0.950 . S
H1554 C1530 0.950 . S
H1555 C1531 0.949 . S
H1556 C1533 0.950 . S
H1557 C1535 0.950 . S
C1558 C1559 1.349 . S
C1558 C1560 1.327 . S
C1558 H1583 0.950 . S
C1559 C1558 1.349 . S
C1559 C1575 1.349 . S
C1560 C1558 1.327 . S
C1560 C1579 1.429 . S
C1560 H1584 0.950 . S
C1561 C1578 1.574 . S
C1561 C1580 1.368 1_545 S
C1561 H1585 0.949 . S
H1562 C1566 0.949 . S
C1563 C1564 1.349 . S
C1563 C1565 1.327 . S
C1563 H1586 0.950 . S
C1564 C1563 1.349 . S
C1564 C1576 1.349 . S
C1565 C1563 1.327 . S
C1565 C1581 1.429 . S
C1565 H1587 0.950 . S
C1566 H1562 0.949 . S
C1566 C1574 1.574 1_545 S
C1566 C1582 1.368 . S
H1567 C1575 0.950 . S
H1568 C1573 0.950 . S
H1569 C1574 0.949 . S
H1570 C1576 0.950 . S
H1571 C1577 0.950 . S
H1572 C1578 0.949 . S
C1573 H1568 0.950 . S
C1573 C1575 1.327 . S
C1573 C1579 1.429 . S
C1574 C1566 1.574 1_565 S
C1574 H1569 0.949 . S
C1574 C1580 1.368 . S
C1575 C1559 1.349 . S
C1575 H1567 0.950 . S
C1575 C1573 1.327 . S
C1576 C1564 1.349 . S
C1576 H1570 0.950 . S
C1576 C1577 1.327 . S
C1577 H1571 0.950 . S
C1577 C1576 1.327 . S
C1577 C1581 1.429 . S
C1578 C1561 1.574 . S
C1578 H1572 0.949 . S
C1578 C1582 1.368 . S
C1579 C1560 1.429 . S
C1579 C1573 1.429 . S
C1579 C1580 1.523 . S
C1580 C1561 1.368 1_565 S
C1580 C1574 1.368 . S
C1580 C1579 1.523 . S
C1581 C1565 1.429 . S
C1581 C1577 1.429 . S
C1581 C1582 1.523 . S
C1582 C1566 1.368 . S
C1582 C1578 1.368 . S
C1582 C1581 1.523 . S
H1583 C1558 0.950 . S
H1584 C1560 0.950 . S
H1585 C1561 0.949 . S
H1586 C1563 0.950 . S
H1587 C1565 0.950 . S
C1588 C1589 1.349 . S
C1588 C1590 1.327 . S
C1588 H1613 0.950 . S
C1589 C1588 1.349 . S
C1589 C1605 1.349 . S
C1590 C1588 1.327 . S
C1590 C1609 1.429 . S
C1590 H1614 0.950 1_554 S
C1591 C1608 1.574 . S
C1591 C1610 1.368 . S
C1591 H1615 0.949 1_556 S
H1592 C1596 0.949 . S
C1593 C1594 1.349 . S
C1593 C1595 1.327 . S
C1593 H1616 0.950 . S
C1594 C1593 1.349 . S
C1594 C1606 1.349 . S
C1595 C1593 1.327 . S
C1595 C1611 1.429 . S
C1595 H1617 0.950 . S
C1596 H1592 0.949 . S
C1596 C1604 1.574 . S
C1596 C1612 1.368 . S
H1597 C1605 0.950 . S
H1598 C1603 0.950 . S
H1599 C1604 0.949 . S
H1600 C1606 0.950 . S
H1601 C1607 0.950 . S
H1602 C1608 0.949 . S
C1603 H1598 0.950 . S
C1603 C1605 1.327 . S
C1603 C1609 1.429 . S
C1604 C1596 1.574 . S
C1604 H1599 0.949 . S
C1604 C1610 1.368 . S
C1605 C1589 1.349 . S
C1605 H1597 0.950 . S
C1605 C1603 1.327 . S
C1606 C1594 1.349 . S
C1606 H1600 0.950 . S
C1606 C1607 1.327 . S
C1607 H1601 0.950 . S
C1607 C1606 1.327 . S
C1607 C1611 1.429 . S
C1608 C1591 1.574 . S
C1608 H1602 0.949 . S
C1608 C1612 1.368 . S
C1609 C1590 1.429 . S
C1609 C1603 1.429 . S
C1609 C1610 1.523 1_554 S
C1610 C1591 1.368 . S
C1610 C1604 1.368 . S
C1610 C1609 1.523 1_556 S
C1611 C1595 1.429 . S
C1611 C1607 1.429 . S
C1611 C1612 1.523 . S
C1612 C1596 1.368 . S
C1612 C1608 1.368 . S
C1612 C1611 1.523 . S
H1613 C1588 0.950 . S
H1614 C1590 0.950 1_556 S
H1615 C1591 0.949 1_554 S
H1616 C1593 0.950 . S
H1617 C1595 0.950 . S
C1618 C1619 1.349 . S
C1618 C1620 1.327 1_655 S
C1618 H1643 0.950 . S
C1619 C1618 1.349 . S
C1619 C1635 1.349 . S
C1620 C1618 1.327 1_455 S
C1620 C1639 1.429 . S
C1620 H1644 0.950 . S
C1621 C1638 1.574 . S
C1621 C1640 1.368 . S
C1621 H1645 0.949 . S
H1622 C1626 0.949 . S
C1623 C1624 1.349 . S
C1623 C1625 1.327 . S
C1623 H1646 0.950 . S
C1624 C1623 1.349 . S
C1624 C1636 1.349 . S
C1625 C1623 1.327 . S
C1625 C1641 1.429 . S
C1625 H1647 0.950 . S
C1626 H1622 0.949 . S
C1626 C1634 1.574 . S
C1626 C1642 1.368 . S
H1627 C1635 0.950 . S
H1628 C1633 0.950 . S
H1629 C1634 0.949 . S
H1630 C1636 0.950 . S
H1631 C1637 0.950 . S
H1632 C1638 0.949 . S
C1633 H1628 0.950 . S
C1633 C1635 1.327 . S
C1633 C1639 1.429 1_655 S
C1634 C1626 1.574 . S
C1634 H1629 0.949 . S
C1634 C1640 1.368 . S
C1635 C1619 1.349 . S
C1635 H1627 0.950 . S
C1635 C1633 1.327 . S
C1636 C1624 1.349 . S
C1636 H1630 0.950 . S
C1636 C1637 1.327 . S
C1637 H1631 0.950 . S
C1637 C1636 1.327 . S
C1637 C1641 1.429 . S
C1638 C1621 1.574 . S
C1638 H1632 0.949 . S
C1638 C1642 1.368 . S
C1639 C1620 1.429 . S
C1639 C1633 1.429 1_455 S
C1639 C1640 1.523 . S
C1640 C1621 1.368 . S
C1640 C1634 1.368 . S
C1640 C1639 1.523 . S
C1641 C1625 1.429 . S
C1641 C1637 1.429 . S
C1641 C1642 1.523 . S
C1642 C1626 1.368 . S
C1642 C1638 1.368 . S
C1642 C1641 1.523 . S
H1643 C1618 0.950 . S
H1644 C1620 0.950 . S
H1645 C1621 0.949 . S
H1646 C1623 0.950 . S
H1647 C1625 0.950 . S
C1648 C1649 1.349 . S
C1648 C1650 1.327 . S
C1648 H1673 0.950 . S
C1649 C1648 1.349 . S
C1649 C1665 1.349 . S
C1650 C1648 1.327 . S
C1650 C1669 1.429 . S
C1650 H1674 0.950 . S
C1651 C1668 1.574 . S
C1651 C1670 1.368 . S
C1651 H1675 0.949 . S
H1652 C1656 0.949 . S
C1653 C1654 1.349 . S
C1653 C1655 1.327 . S
C1653 H1676 0.950 . S
C1654 C1653 1.349 . S
C1654 C1666 1.349 . S
C1655 C1653 1.327 . S
C1655 C1671 1.429 . S
C1655 H1677 0.950 . S
C1656 H1652 0.949 . S
C1656 C1664 1.574 . S
C1656 C1672 1.368 . S
H1657 C1665 0.950 . S
H1658 C1663 0.950 . S
H1659 C1664 0.949 . S
H1660 C1666 0.950 . S
H1661 C1667 0.950 . S
H1662 C1668 0.949 . S
C1663 H1658 0.950 . S
C1663 C1665 1.327 . S
C1663 C1669 1.429 . S
C1664 C1656 1.574 . S
C1664 H1659 0.949 . S
C1664 C1670 1.368 . S
C1665 C1649 1.349 . S
C1665 H1657 0.950 . S
C1665 C1663 1.327 . S
C1666 C1654 1.349 . S
C1666 H1660 0.950 . S
C1666 C1667 1.327 . S
C1667 H1661 0.950 . S
C1667 C1666 1.327 . S
C1667 C1671 1.429 . S
C1668 C1651 1.574 . S
C1668 H1662 0.949 . S
C1668 C1672 1.368 . S
C1669 C1650 1.429 . S
C1669 C1663 1.429 . S
C1669 C1670 1.523 . S
C1670 C1651 1.368 . S
C1670 C1664 1.368 . S
C1670 C1669 1.523 . S
C1671 C1655 1.429 . S
C1671 C1667 1.429 . S
C1671 C1672 1.523 . S
C1672 C1656 1.368 . S
C1672 C1668 1.368 . S
C1672 C1671 1.523 . S
H1673 C1648 0.950 . S
H1674 C1650 0.950 . S
H1675 C1651 0.949 . S
H1676 C1653 0.950 . S
H1677 C1655 0.950 . S
C1678 C1679 1.349 . S
C1678 C1680 1.327 . S
C1678 H1703 0.950 . S
C1679 C1678 1.349 . S
C1679 C1695 1.349 . S
C1680 C1678 1.327 . S
C1680 C1699 1.429 1_455 S
C1680 H1704 0.950 . S
C1681 C1698 1.574 . S
C1681 C1700 1.368 . S
C1681 H1705 0.949 . S
H1682 C1686 0.949 . S
C1683 C1684 1.349 . S
C1683 C1685 1.327 . S
C1683 H1706 0.950 . S
C1684 C1683 1.349 . S
C1684 C1696 1.349 . S
C1685 C1683 1.327 . S
C1685 C1701 1.429 . S
C1685 H1707 0.950 . S
C1686 H1682 0.949 . S
C1686 C1694 1.574 . S
C1686 C1702 1.368 . S
H1687 C1695 0.950 . S
H1688 C1693 0.950 . S
H1689 C1694 0.949 . S
H1690 C1696 0.950 . S
H1691 C1697 0.950 . S
H1692 C1698 0.949 . S
C1693 H1688 0.950 . S
C1693 C1695 1.327 1_655 S
C1693 C1699 1.429 . S
C1694 C1686 1.574 . S
C1694 H1689 0.949 . S
C1694 C1700 1.368 . S
C1695 C1679 1.349 . S
C1695 H1687 0.950 . S
C1695 C1693 1.327 1_455 S
C1696 C1684 1.349 . S
C1696 H1690 0.950 . S
C1696 C1697 1.327 . S
C1697 H1691 0.950 . S
C1697 C1696 1.327 . S
C1697 C1701 1.429 . S
C1698 C1681 1.574 . S
C1698 H1692 0.949 . S
C1698 C1702 1.368 . S
C1699 C1680 1.429 1_655 S
C1699 C1693 1.429 . S
C1699 C1700 1.523 . S
C1700 C1681 1.368 . S
C1700 C1694 1.368 . S
C1700 C1699 1.523 . S
C1701 C1685 1.429 . S
C1701 C1697 1.429 . S
C1701 C1702 1.523 . S
C1702 C1686 1.368 . S
C1702 C1698 1.368 . S
C1702 C1701 1.523 . S
H1703 C1678 0.950 . S
H1704 C1680 0.950 . S
H1705 C1681 0.949 . S
H1706 C1683 0.950 . S
H1707 C1685 0.950 . S
C1708 C1709 1.349 . S
C1708 C1710 1.327 1_455 S
C1708 H1733 0.950 . S
C1709 C1708 1.349 . S
C1709 C1725 1.349 . S
C1710 C1708 1.327 1_655 S
C1710 C1729 1.429 . S
C1710 H1734 0.950 . S
C1711 C1728 1.574 . S
C1711 C1730 1.368 . S
C1711 H1735 0.949 . S
H1712 C1716 0.949 . S
C1713 C1714 1.349 . S
C1713 C1715 1.327 . S
C1713 H1736 0.950 . S
C1714 C1713 1.349 . S
C1714 C1726 1.349 . S
C1715 C1713 1.327 . S
C1715 C1731 1.429 . S
C1715 H1737 0.950 . S
C1716 H1712 0.949 . S
C1716 C1724 1.574 . S
C1716 C1732 1.368 . S
H1717 C1725 0.950 . S
H1718 C1723 0.950 . S
H1719 C1724 0.949 . S
H1720 C1726 0.950 . S
H1721 C1727 0.950 . S
H1722 C1728 0.949 . S
C1723 H1718 0.950 . S
C1723 C1725 1.327 . S
C1723 C1729 1.429 1_455 S
C1724 C1716 1.574 . S
C1724 H1719 0.949 . S
C1724 C1730 1.368 . S
C1725 C1709 1.349 . S
C1725 H1717 0.950 . S
C1725 C1723 1.327 . S
C1726 C1714 1.349 . S
C1726 H1720 0.950 . S
C1726 C1727 1.327 . S
C1727 H1721 0.950 . S
C1727 C1726 1.327 . S
C1727 C1731 1.429 . S
C1728 C1711 1.574 . S
C1728 H1722 0.949 . S
C1728 C1732 1.368 . S
C1729 C1710 1.429 . S
C1729 C1723 1.429 1_655 S
C1729 C1730 1.523 . S
C1730 C1711 1.368 . S
C1730 C1724 1.368 . S
C1730 C1729 1.523 . S
C1731 C1715 1.429 . S
C1731 C1727 1.429 . S
C1731 C1732 1.523 . S
C1732 C1716 1.368 . S
C1732 C1728 1.368 . S
C1732 C1731 1.523 . S
H1733 C1708 0.950 . S
H1734 C1710 0.950 . S
H1735 C1711 0.949 . S
H1736 C1713 0.950 . S
H1737 C1715 0.950 . S
C1738 C1739 1.349 . S
C1738 C1740 1.327 . S
C1738 H1763 0.950 . S
C1739 C1738 1.349 . S
C1739 C1755 1.349 . S
C1740 C1738 1.327 . S
C1740 C1759 1.429 . S
C1740 H1764 0.950 . S
C1741 C1758 1.574 . S
C1741 C1760 1.368 . S
C1741 H1765 0.949 . S
H1742 C1746 0.949 . S
C1743 C1744 1.349 . S
C1743 C1745 1.327 . S
C1743 H1766 0.950 . S
C1744 C1743 1.349 . S
C1744 C1756 1.349 . S
C1745 C1743 1.327 . S
C1745 C1761 1.429 . S
C1745 H1767 0.950 . S
C1746 H1742 0.949 . S
C1746 C1754 1.574 . S
C1746 C1762 1.368 . S
H1747 C1755 0.950 . S
H1748 C1753 0.950 . S
H1749 C1754 0.949 . S
H1750 C1756 0.950 . S
H1751 C1757 0.950 . S
H1752 C1758 0.949 . S
C1753 H1748 0.950 . S
C1753 C1755 1.327 . S
C1753 C1759 1.429 . S
C1754 C1746 1.574 . S
C1754 H1749 0.949 . S
C1754 C1760 1.368 . S
C1755 C1739 1.349 . S
C1755 H1747 0.950 . S
C1755 C1753 1.327 . S
C1756 C1744 1.349 . S
C1756 H1750 0.950 . S
C1756 C1757 1.327 . S
C1757 H1751 0.950 . S
C1757 C1756 1.327 . S
C1757 C1761 1.429 . S
C1758 C1741 1.574 . S
C1758 H1752 0.949 . S
C1758 C1762 1.368 . S
C1759 C1740 1.429 . S
C1759 C1753 1.429 . S
C1759 C1760 1.523 . S
C1760 C1741 1.368 . S
C1760 C1754 1.368 . S
C1760 C1759 1.523 . S
C1761 C1745 1.429 . S
C1761 C1757 1.429 . S
C1761 C1762 1.523 . S
C1762 C1746 1.368 . S
C1762 C1758 1.368 . S
C1762 C1761 1.523 . S
H1763 C1738 0.950 . S
H1764 C1740 0.950 . S
H1765 C1741 0.949 . S
H1766 C1743 0.950 . S
H1767 C1745 0.950 . S
C1768 C1769 1.349 . S
C1768 C1770 1.327 . S
C1768 H1793 0.950 . S
C1769 C1768 1.349 . S
C1769 C1785 1.349 . S
C1770 C1768 1.327 . S
C1770 C1789 1.429 . S
C1770 H1794 0.916 1_655 S
C1771 C1788 1.574 . S
C1771 C1790 1.368 . S
C1771 H1795 0.949 . S
H1772 C1776 0.949 . S
C1773 C1774 1.349 . S
C1773 C1775 1.327 . S
C1773 H1796 0.950 . S
C1774 C1773 1.349 . S
C1774 C1786 1.349 . S
C1775 C1773 1.327 . S
C1775 C1791 1.429 . S
C1775 H1797 0.950 . S
C1776 H1772 0.949 . S
C1776 C1784 1.574 . S
C1776 C1792 1.368 . S
H1777 C1785 0.950 . S
H1778 C1783 0.950 . S
H1779 C1784 0.949 . S
H1780 C1786 0.950 . S
H1781 C1787 0.950 . S
H1782 C1788 0.949 . S
C1783 H1778 0.950 . S
C1783 C1785 1.327 . S
C1783 C1789 1.429 . S
C1784 C1776 1.574 . S
C1784 H1779 0.949 . S
C1784 C1790 1.368 . S
C1785 C1769 1.349 . S
C1785 H1777 0.950 . S
C1785 C1783 1.327 . S
C1786 C1774 1.349 . S
C1786 H1780 0.950 . S
C1786 C1787 1.327 . S
C1787 H1781 0.950 . S
C1787 C1786 1.327 . S
C1787 C1791 1.429 . S
C1788 C1771 1.574 . S
C1788 H1782 0.949 . S
C1788 C1792 1.368 . S
C1789 C1770 1.429 . S
C1789 C1783 1.429 . S
C1789 C1790 1.523 1_655 S
C1790 C1771 1.368 . S
C1790 C1784 1.368 . S
C1790 C1789 1.523 1_455 S
C1791 C1775 1.429 . S
C1791 C1787 1.429 . S
C1791 C1792 1.523 . S
C1792 C1776 1.368 . S
C1792 C1788 1.368 . S
C1792 C1791 1.523 . S
H1793 C1768 0.950 . S
H1794 C1770 0.916 1_455 S
H1795 C1771 0.949 . S
H1796 C1773 0.950 . S
H1797 C1775 0.950 . S
C1798 C1799 1.349 . S
C1798 C1800 1.327 . S
C1798 H1823 0.950 . S
C1799 C1798 1.349 . S
C1799 C1815 1.349 . S
C1800 C1798 1.327 . S
C1800 C1819 1.429 . S
C1800 H1824 0.950 . S
C1801 C1818 1.574 . S
C1801 C1820 1.368 . S
C1801 H1825 0.949 . S
H1802 C1806 0.949 . S
C1803 C1804 1.349 . S
C1803 C1805 1.327 . S
C1803 H1826 0.950 . S
C1804 C1803 1.349 . S
C1804 C1816 1.349 . S
C1805 C1803 1.327 . S
C1805 C1821 1.429 . S
C1805 H1827 0.950 . S
C1806 H1802 0.949 . S
C1806 C1814 1.574 . S
C1806 C1822 1.368 . S
H1807 C1815 0.950 . S
H1808 C1813 0.950 . S
H1809 C1814 0.949 . S
H1810 C1816 0.950 . S
H1811 C1817 0.950 . S
H1812 C1818 0.949 . S
C1813 H1808 0.950 . S
C1813 C1815 1.327 . S
C1813 C1819 1.429 . S
C1814 C1806 1.574 . S
C1814 H1809 0.949 . S
C1814 C1820 1.368 . S
C1815 C1799 1.349 . S
C1815 H1807 0.950 . S
C1815 C1813 1.327 . S
C1816 C1804 1.349 . S
C1816 H1810 0.950 . S
C1816 C1817 1.327 . S
C1817 H1811 0.950 . S
C1817 C1816 1.327 . S
C1817 C1821 1.429 . S
C1818 C1801 1.574 . S
C1818 H1812 0.949 . S
C1818 C1822 1.368 . S
C1819 C1800 1.429 . S
C1819 C1813 1.429 . S
C1819 C1820 1.523 . S
C1820 C1801 1.368 . S
C1820 C1814 1.368 . S
C1820 C1819 1.523 . S
C1821 C1805 1.429 . S
C1821 C1817 1.429 . S
C1821 C1822 1.523 . S
C1822 C1806 1.368 . S
C1822 C1818 1.368 . S
C1822 C1821 1.523 . S
H1823 C1798 0.950 . S
H1824 C1800 0.950 . S
H1825 C1801 0.949 . S
H1826 C1803 0.950 . S
H1827 C1805 0.950 . S
C1828 C1829 1.349 . S
C1828 C1830 1.327 . S
C1828 H1853 0.950 . S
C1829 C1828 1.349 . S
C1829 C1845 1.349 . S
C1830 C1828 1.327 . S
C1830 C1849 1.429 . S
C1830 H1854 0.950 . S
C1831 C1848 1.574 . S
C1831 C1850 1.368 . S
C1831 H1855 0.949 . S
H1832 C1836 0.949 . S
C1833 C1834 1.349 . S
C1833 C1835 1.327 . S
C1833 H1856 0.950 . S
C1834 C1833 1.349 . S
C1834 C1846 1.349 . S
C1835 C1833 1.327 . S
C1835 C1851 1.429 . S
C1835 H1857 0.950 . S
C1836 H1832 0.949 . S
C1836 C1844 1.574 . S
C1836 C1852 1.368 . S
H1837 C1845 0.950 . S
H1838 C1843 0.950 . S
H1839 C1844 0.949 . S
H1840 C1846 0.950 . S
H1841 C1847 0.950 . S
H1842 C1848 0.949 . S
C1843 H1838 0.950 . S
C1843 C1845 1.327 . S
C1843 C1849 1.429 . S
C1844 C1836 1.574 . S
C1844 H1839 0.949 . S
C1844 C1850 1.368 . S
C1845 C1829 1.349 . S
C1845 H1837 0.950 . S
C1845 C1843 1.327 . S
C1846 C1834 1.349 . S
C1846 H1840 0.950 . S
C1846 C1847 1.327 . S
C1847 H1841 0.950 . S
C1847 C1846 1.327 . S
C1847 C1851 1.429 . S
C1848 C1831 1.574 . S
C1848 H1842 0.949 . S
C1848 C1852 1.368 . S
C1849 C1830 1.429 . S
C1849 C1843 1.429 . S
C1849 C1850 1.523 . S
C1850 C1831 1.368 . S
C1850 C1844 1.368 . S
C1850 C1849 1.523 . S
C1851 C1835 1.429 . S
C1851 C1847 1.429 . S
C1851 C1852 1.523 . S
C1852 C1836 1.368 . S
C1852 C1848 1.368 . S
C1852 C1851 1.523 . S
H1853 C1828 0.950 . S
H1854 C1830 0.950 . S
H1855 C1831 0.949 . S
H1856 C1833 0.950 . S
H1857 C1835 0.950 . S
C1858 C1859 1.349 . S
C1858 C1860 1.327 . S
C1858 H1883 0.950 . S
C1859 C1858 1.349 . S
C1859 C1875 1.349 . S
C1860 C1858 1.327 . S
C1860 C1879 1.429 . S
C1860 H1884 0.950 . S
C1861 C1878 1.574 1_554 S
C1861 C1880 1.368 . S
C1861 H1885 0.949 . S
H1862 C1866 0.949 . S
C1863 C1864 1.349 . S
C1863 C1865 1.327 . S
C1863 H1886 0.950 . S
C1864 C1863 1.349 . S
C1864 C1876 1.349 . S
C1865 C1863 1.327 . S
C1865 C1881 1.429 . S
C1865 H1887 0.950 . S
C1866 H1862 0.949 . S
C1866 C1874 1.574 1_556 S
C1866 C1882 1.368 . S
H1867 C1875 0.950 . S
H1868 C1873 0.950 . S
H1869 C1874 0.949 . S
H1870 C1876 0.950 . S
H1871 C1877 0.950 . S
H1872 C1878 0.949 . S
C1873 H1868 0.950 . S
C1873 C1875 1.327 . S
C1873 C1879 1.429 . S
C1874 C1866 1.574 1_554 S
C1874 H1869 0.949 . S
C1874 C1880 1.368 . S
C1875 C1859 1.349 . S
C1875 H1867 0.950 . S
C1875 C1873 1.327 . S
C1876 C1864 1.349 . S
C1876 H1870 0.950 . S
C1876 C1877 1.327 . S
C1877 H1871 0.950 . S
C1877 C1876 1.327 . S
C1877 C1881 1.429 . S
C1878 C1861 1.574 1_556 S
C1878 H1872 0.949 . S
C1878 C1882 1.368 . S
C1879 C1860 1.429 . S
C1879 C1873 1.429 . S
C1879 C1880 1.523 . S
C1880 C1861 1.368 . S
C1880 C1874 1.368 . S
C1880 C1879 1.523 . S
C1881 C1865 1.429 . S
C1881 C1877 1.429 . S
C1881 C1882 1.523 . S
C1882 C1866 1.368 . S
C1882 C1878 1.368 . S
C1882 C1881 1.523 . S
H1883 C1858 0.950 . S
H1884 C1860 0.950 . S
H1885 C1861 0.949 . S
H1886 C1863 0.950 . S
H1887 C1865 0.950 . S
C1888 C1889 1.349 . S
C1888 C1890 1.327 . S
C1888 H1913 0.950 . S
C1889 C1888 1.349 . S
C1889 C1905 1.349 . S
C1890 C1888 1.327 . S
C1890 C1909 1.429 . S
C1890 H1914 0.950 . S
C1891 C1908 1.574 . S
C1891 C1910 1.368 . S
C1891 H1915 0.949 . S
H1892 C1896 0.949 . S
C1893 C1894 1.349 . S
C1893 C1895 1.327 . S
C1893 H1916 0.950 . S
C1894 C1893 1.349 . S
C1894 C1906 1.349 . S
C1895 C1893 1.327 . S
C1895 C1911 1.429 . S
C1895 H1917 0.950 . S
C1896 H1892 0.949 . S
C1896 C1904 1.574 . S
C1896 C1912 1.368 . S
H1897 C1905 0.950 . S
H1898 C1903 0.950 . S
H1899 C1904 0.949 . S
H1900 C1906 0.950 . S
H1901 C1907 0.950 . S
H1902 C1908 0.949 . S
C1903 H1898 0.950 . S
C1903 C1905 1.327 . S
C1903 C1909 1.429 . S
C1904 C1896 1.574 . S
C1904 H1899 0.949 . S
C1904 C1910 1.368 . S
C1905 C1889 1.349 . S
C1905 H1897 0.950 . S
C1905 C1903 1.327 . S
C1906 C1894 1.349 . S
C1906 H1900 0.950 . S
C1906 C1907 1.327 . S
C1907 H1901 0.950 . S
C1907 C1906 1.327 . S
C1907 C1911 1.429 . S
C1908 C1891 1.574 . S
C1908 H1902 0.949 . S
C1908 C1912 1.368 . S
C1909 C1890 1.429 . S
C1909 C1903 1.429 . S
C1909 C1910 1.523 . S
C1910 C1891 1.368 . S
C1910 C1904 1.368 . S
C1910 C1909 1.523 . S
C1911 C1895 1.429 . S
C1911 C1907 1.429 . S
C1911 C1912 1.523 . S
C1912 C1896 1.368 . S
C1912 C1908 1.368 . S
C1912 C1911 1.523 . S
H1913 C1888 0.950 . S
H1914 C1890 0.950 . S
H1915 C1891 0.949 . S
H1916 C1893 0.950 . S
H1917 C1895 0.950 . S
C1918 C1919 1.349 . S
C1918 C1920 1.327 . S
C1918 H1943 0.950 . S
C1919 C1918 1.349 . S
C1919 C1935 1.349 . S
C1920 C1918 1.327 . S
C1920 C1939 1.429 . S
C1920 H1944 0.950 . S
C1921 C1938 1.574 . S
C1921 C1940 1.368 . S
C1921 H1945 0.949 . S
H1922 C1926 0.949 . S
C1923 C1924 1.349 . S
C1923 C1925 1.327 . S
C1923 H1946 0.950 . S
C1924 C1923 1.349 . S
C1924 C1936 1.349 . S
C1925 C1923 1.327 . S
C1925 C1941 1.429 . S
C1925 H1947 0.950 . S
C1926 H1922 0.949 . S
C1926 C1934 1.574 . S
C1926 C1942 1.368 . S
H1927 C1935 0.950 . S
H1928 C1933 0.950 . S
H1929 C1934 0.949 . S
H1930 C1936 0.950 . S
H1931 C1937 0.950 . S
H1932 C1938 0.949 . S
C1933 H1928 0.950 . S
C1933 C1935 1.327 . S
C1933 C1939 1.429 . S
C1934 C1926 1.574 . S
C1934 H1929 0.949 . S
C1934 C1940 1.368 . S
C1935 C1919 1.349 . S
C1935 H1927 0.950 . S
C1935 C1933 1.327 . S
C1936 C1924 1.349 . S
C1936 H1930 0.950 . S
C1936 C1937 1.327 . S
C1937 H1931 0.950 . S
C1937 C1936 1.327 . S
C1937 C1941 1.429 . S
C1938 C1921 1.574 . S
C1938 H1932 0.949 . S
C1938 C1942 1.368 . S
C1939 C1920 1.429 . S
C1939 C1933 1.429 . S
C1939 C1940 1.523 . S
C1940 C1921 1.368 . S
C1940 C1934 1.368 . S
C1940 C1939 1.523 . S
C1941 C1925 1.429 . S
C1941 C1937 1.429 . S
C1941 C1942 1.523 . S
C1942 C1926 1.368 . S
C1942 C1938 1.368 . S
C1942 C1941 1.523 . S
H1943 C1918 0.950 . S
H1944 C1920 0.950 . S
H1945 C1921 0.949 . S
H1946 C1923 0.950 . S
H1947 C1925 0.950 . S
C1948 C1949 1.349 . S
C1948 C1950 1.327 . S
C1948 H1973 0.950 . S
C1949 C1948 1.349 . S
C1949 C1965 1.349 . S
C1950 C1948 1.327 . S
C1950 C1969 1.429 . S
C1950 H1974 0.950 . S
C1951 C1968 1.574 . S
C1951 C1970 1.368 . S
C1951 H1975 0.949 . S
H1952 C1956 0.949 . S
C1953 C1954 1.349 . S
C1953 C1955 1.327 . S
C1953 H1976 0.950 . S
C1954 C1953 1.349 . S
C1954 C1966 1.349 . S
C1955 C1953 1.327 . S
C1955 C1971 1.429 . S
C1955 H1977 0.950 . S
C1956 H1952 0.949 . S
C1956 C1964 1.574 . S
C1956 C1972 1.368 . S
H1957 C1965 0.950 . S
H1958 C1963 0.950 . S
H1959 C1964 0.949 . S
H1960 C1966 0.950 . S
H1961 C1967 0.950 . S
H1962 C1968 0.949 . S
C1963 H1958 0.950 . S
C1963 C1965 1.327 . S
C1963 C1969 1.429 . S
C1964 C1956 1.574 . S
C1964 H1959 0.949 . S
C1964 C1970 1.368 . S
C1965 C1949 1.349 . S
C1965 H1957 0.950 . S
C1965 C1963 1.327 . S
C1966 C1954 1.349 . S
C1966 H1960 0.950 . S
C1966 C1967 1.327 . S
C1967 H1961 0.950 . S
C1967 C1966 1.327 . S
C1967 C1971 1.429 . S
C1968 C1951 1.574 . S
C1968 H1962 0.949 . S
C1968 C1972 1.368 . S
C1969 C1950 1.429 . S
C1969 C1963 1.429 . S
C1969 C1970 1.523 . S
C1970 C1951 1.368 . S
C1970 C1964 1.368 . S
C1970 C1969 1.523 . S
C1971 C1955 1.429 . S
C1971 C1967 1.429 . S
C1971 C1972 1.523 . S
C1972 C1956 1.368 . S
C1972 C1968 1.368 . S
C1972 C1971 1.523 . S
H1973 C1948 0.950 . S
H1974 C1950 0.950 . S
H1975 C1951 0.949 . S
H1976 C1953 0.950 . S
H1977 C1955 0.950 . S
C1978 C1979 1.349 . S
C1978 C1980 1.327 . S
C1978 H2003 0.950 . S
C1979 C1978 1.349 . S
C1979 C1995 1.349 . S
C1980 C1978 1.327 . S
C1980 C1999 1.429 . S
C1980 H2004 0.950 . S
C1981 C1998 1.588 . S
C1981 C2000 1.368 . S
C1981 H2005 0.949 . S
H1982 C1986 0.949 . S
C1983 C1984 1.349 . S
C1983 C1985 1.327 . S
C1983 H2006 0.950 . S
C1984 C1983 1.349 . S
C1984 C1996 1.349 . S
C1985 C1983 1.327 . S
C1985 C2001 1.429 . S
C1985 H2007 0.950 . S
C1986 H1982 0.949 . S
C1986 C1994 1.574 . S
C1986 C2002 1.368 . S
H1987 C1995 0.950 . S
H1988 C1993 0.950 . S
H1989 C1994 0.949 . S
H1990 C1996 0.950 . S
H1991 C1997 0.950 . S
H1992 C1998 0.933 1_556 S
C1993 H1988 0.950 . S
C1993 C1995 1.327 . S
C1993 C1999 1.429 . S
C1994 C1986 1.574 . S
C1994 H1989 0.949 . S
C1994 C2000 1.368 . S
C1995 C1979 1.349 . S
C1995 H1987 0.950 . S
C1995 C1993 1.327 . S
C1996 C1984 1.349 . S
C1996 H1990 0.950 . S
C1996 C1997 1.327 . S
C1997 H1991 0.950 . S
C1997 C1996 1.327 . S
C1997 C2001 1.429 . S
C1998 C1981 1.588 . S
C1998 H1992 0.933 1_554 S
C1998 C2002 1.372 . S
C1999 C1980 1.429 . S
C1999 C1993 1.429 . S
C1999 C2000 1.523 . S
C2000 C1981 1.368 . S
C2000 C1994 1.368 . S
C2000 C1999 1.523 . S
C2001 C1985 1.429 . S
C2001 C1997 1.429 . S
C2001 C2002 1.523 1_556 S
C2002 C1986 1.368 . S
C2002 C1998 1.372 . S
C2002 C2001 1.523 1_554 S
H2003 C1978 0.950 . S
H2004 C1980 0.950 . S
H2005 C1981 0.949 . S
H2006 C1983 0.950 . S
H2007 C1985 0.950 . S
C2008 C2009 1.349 . S
C2008 C2010 1.327 . S
C2008 H2033 0.950 . S
C2009 C2008 1.349 . S
C2009 C2025 1.349 . S
C2010 C2008 1.327 . S
C2010 C2029 1.429 . S
C2010 H2034 0.950 . S
C2011 C2028 1.574 . S
C2011 C2030 1.368 . S
C2011 H2035 0.949 . S
H2012 C2016 0.949 . S
C2013 C2014 1.349 . S
C2013 C2015 1.327 . S
C2013 H2036 0.950 . S
C2014 C2013 1.349 . S
C2014 C2026 1.349 . S
C2015 C2013 1.327 . S
C2015 C2031 1.429 . S
C2015 H2037 0.950 . S
C2016 H2012 0.949 . S
C2016 C2024 1.574 . S
C2016 C2032 1.368 . S
H2017 C2025 0.950 . S
H2018 C2023 0.950 . S
H2019 C2024 0.949 . S
H2020 C2026 0.950 . S
H2021 C2027 0.950 . S
H2022 C2028 0.949 . S
C2023 H2018 0.950 . S
C2023 C2025 1.327 . S
C2023 C2029 1.429 . S
C2024 C2016 1.574 . S
C2024 H2019 0.949 . S
C2024 C2030 1.368 . S
C2025 C2009 1.349 . S
C2025 H2017 0.950 . S
C2025 C2023 1.327 . S
C2026 C2014 1.349 . S
C2026 H2020 0.950 . S
C2026 C2027 1.327 . S
C2027 H2021 0.950 . S
C2027 C2026 1.327 . S
C2027 C2031 1.429 . S
C2028 C2011 1.574 . S
C2028 H2022 0.949 . S
C2028 C2032 1.368 . S
C2029 C2010 1.429 . S
C2029 C2023 1.429 . S
C2029 C2030 1.523 . S
C2030 C2011 1.368 . S
C2030 C2024 1.368 . S
C2030 C2029 1.523 . S
C2031 C2015 1.429 . S
C2031 C2027 1.429 . S
C2031 C2032 1.523 . S
C2032 C2016 1.368 . S
C2032 C2028 1.368 . S
C2032 C2031 1.523 . S
H2033 C2008 0.950 . S
H2034 C2010 0.950 . S
H2035 C2011 0.949 . S
H2036 C2013 0.950 . S
H2037 C2015 0.950 . S
C2038 C2039 1.349 . S
C2038 C2040 1.327 . S
C2038 H2063 0.950 . S
C2039 C2038 1.349 . S
C2039 C2055 1.349 . S
C2040 C2038 1.327 . S
C2040 C2059 1.429 . S
C2040 H2064 0.950 . S
C2041 C2058 1.574 . S
C2041 C2060 1.368 . S
C2041 H2065 0.949 . S
H2042 C2046 0.949 . S
C2043 C2044 1.349 . S
C2043 C2045 1.327 . S
C2043 H2066 0.950 . S
C2044 C2043 1.349 . S
C2044 C2056 1.349 . S
C2045 C2043 1.327 . S
C2045 C2061 1.429 . S
C2045 H2067 0.950 . S
C2046 H2042 0.949 . S
C2046 C2054 1.574 . S
C2046 C2062 1.368 . S
H2047 C2055 0.950 . S
H2048 C2053 0.950 . S
H2049 C2054 0.949 . S
H2050 C2056 0.950 . S
H2051 C2057 0.950 . S
H2052 C2058 0.949 . S
C2053 H2048 0.950 . S
C2053 C2055 1.327 . S
C2053 C2059 1.429 . S
C2054 C2046 1.574 . S
C2054 H2049 0.949 . S
C2054 C2060 1.368 . S
C2055 C2039 1.349 . S
C2055 H2047 0.950 . S
C2055 C2053 1.327 . S
C2056 C2044 1.349 . S
C2056 H2050 0.950 . S
C2056 C2057 1.327 . S
C2057 H2051 0.950 . S
C2057 C2056 1.327 . S
C2057 C2061 1.429 . S
C2058 C2041 1.574 . S
C2058 H2052 0.949 . S
C2058 C2062 1.368 . S
C2059 C2040 1.429 . S
C2059 C2053 1.429 . S
C2059 C2060 1.523 . S
C2060 C2041 1.368 . S
C2060 C2054 1.368 . S
C2060 C2059 1.523 . S
C2061 C2045 1.429 . S
C2061 C2057 1.429 . S
C2061 C2062 1.523 . S
C2062 C2046 1.368 . S
C2062 C2058 1.368 . S
C2062 C2061 1.523 . S
H2063 C2038 0.950 . S
H2064 C2040 0.950 . S
H2065 C2041 0.949 . S
H2066 C2043 0.950 . S
H2067 C2045 0.950 . S
C2068 C2069 1.349 . S
C2068 C2070 1.327 . S
C2068 H2093 0.950 . S
C2069 C2068 1.349 . S
C2069 C2085 1.349 . S
C2070 C2068 1.327 . S
C2070 C2089 1.429 . S
C2070 H2094 0.950 . S
C2071 C2088 1.574 . S
C2071 C2090 1.368 . S
C2071 H2095 0.949 . S
H2072 C2076 0.949 . S
C2073 C2074 1.349 . S
C2073 C2075 1.327 . S
C2073 H2096 0.950 . S
C2074 C2073 1.349 . S
C2074 C2086 1.349 . S
C2075 C2073 1.327 . S
C2075 C2091 1.429 . S
C2075 H2097 0.950 . S
C2076 H2072 0.949 . S
C2076 C2084 1.574 . S
C2076 C2092 1.368 . S
H2077 C2085 0.950 . S
H2078 C2083 0.950 . S
H2079 C2084 0.949 . S
H2080 C2086 0.950 . S
H2081 C2087 0.950 . S
H2082 C2088 0.949 . S
C2083 H2078 0.950 . S
C2083 C2085 1.327 . S
C2083 C2089 1.429 . S
C2084 C2076 1.574 . S
C2084 H2079 0.949 . S
C2084 C2090 1.368 . S
C2085 C2069 1.349 . S
C2085 H2077 0.950 . S
C2085 C2083 1.327 . S
C2086 C2074 1.349 . S
C2086 H2080 0.950 . S
C2086 C2087 1.327 . S
C2087 H2081 0.950 . S
C2087 C2086 1.327 . S
C2087 C2091 1.429 . S
C2088 C2071 1.574 . S
C2088 H2082 0.949 . S
C2088 C2092 1.368 . S
C2089 C2070 1.429 . S
C2089 C2083 1.429 . S
C2089 C2090 1.523 . S
C2090 C2071 1.368 . S
C2090 C2084 1.368 . S
C2090 C2089 1.523 . S
C2091 C2075 1.429 . S
C2091 C2087 1.429 . S
C2091 C2092 1.523 . S
C2092 C2076 1.368 . S
C2092 C2088 1.368 . S
C2092 C2091 1.523 . S
H2093 C2068 0.950 . S
H2094 C2070 0.950 . S
H2095 C2071 0.949 . S
H2096 C2073 0.950 . S
H2097 C2075 0.950 . S
C2098 C2099 1.349 . S
C2098 C2100 1.327 . S
C2098 H2123 0.950 . S
C2099 C2098 1.349 . S
C2099 C2115 1.349 . S
C2100 C2098 1.327 . S
C2100 C2119 1.429 . S
C2100 H2124 0.950 . S
C2101 C2118 1.574 . S
C2101 C2120 1.368 . S
C2101 H2125 0.949 . S
H2102 C2106 0.949 . S
C2103 C2104 1.349 . S
C2103 C2105 1.327 . S
C2103 H2126 0.950 . S
C2104 C2103 1.349 . S
C2104 C2116 1.349 . S
C2105 C2103 1.327 . S
C2105 C2121 1.429 . S
C2105 H2127 0.950 . S
C2106 H2102 0.949 . S
C2106 C2114 1.574 . S
C2106 C2122 1.368 . S
H2107 C2115 0.950 . S
H2108 C2113 0.950 . S
H2109 C2114 0.949 . S
H2110 C2116 0.950 . S
H2111 C2117 0.950 . S
H2112 C2118 0.949 . S
C2113 H2108 0.950 . S
C2113 C2115 1.327 . S
C2113 C2119 1.429 . S
C2114 C2106 1.574 . S
C2114 H2109 0.949 . S
C2114 C2120 1.368 . S
C2115 C2099 1.349 . S
C2115 H2107 0.950 . S
C2115 C2113 1.327 . S
C2116 C2104 1.349 . S
C2116 H2110 0.950 . S
C2116 C2117 1.327 . S
C2117 H2111 0.950 . S
C2117 C2116 1.327 . S
C2117 C2121 1.429 . S
C2118 C2101 1.574 . S
C2118 H2112 0.949 . S
C2118 C2122 1.368 . S
C2119 C2100 1.429 . S
C2119 C2113 1.429 . S
C2119 C2120 1.523 . S
C2120 C2101 1.368 . S
C2120 C2114 1.368 . S
C2120 C2119 1.523 . S
C2121 C2105 1.429 . S
C2121 C2117 1.429 . S
C2121 C2122 1.523 . S
C2122 C2106 1.368 . S
C2122 C2118 1.368 . S
C2122 C2121 1.523 . S
H2123 C2098 0.950 . S
H2124 C2100 0.950 . S
H2125 C2101 0.949 . S
H2126 C2103 0.950 . S
H2127 C2105 0.950 . S
C2128 C2129 1.349 . S
C2128 C2130 1.327 . S
C2128 H2153 0.950 . S
C2129 C2128 1.349 . S
C2129 C2145 1.349 . S
C2130 C2128 1.327 . S
C2130 C2149 1.429 . S
C2130 H2154 0.950 . S
C2131 C2148 1.574 . S
C2131 C2150 1.368 . S
C2131 H2155 0.949 . S
H2132 C2136 0.949 . S
C2133 C2134 1.349 . S
C2133 C2135 1.327 . S
C2133 H2156 0.950 . S
C2134 C2133 1.349 . S
C2134 C2146 1.349 . S
C2135 C2133 1.327 . S
C2135 C2151 1.429 . S
C2135 H2157 0.950 . S
C2136 H2132 0.949 . S
C2136 C2144 1.574 . S
C2136 C2152 1.368 . S
H2137 C2145 0.950 . S
H2138 C2143 0.950 . S
H2139 C2144 0.949 . S
H2140 C2146 0.950 . S
H2141 C2147 0.950 . S
H2142 C2148 0.949 . S
C2143 H2138 0.950 . S
C2143 C2145 1.327 . S
C2143 C2149 1.429 . S
C2144 C2136 1.574 . S
C2144 H2139 0.949 . S
C2144 C2150 1.368 1_556 S
C2145 C2129 1.349 . S
C2145 H2137 0.950 . S
C2145 C2143 1.327 . S
C2146 C2134 1.349 . S
C2146 H2140 0.950 . S
C2146 C2147 1.327 . S
C2147 H2141 0.950 . S
C2147 C2146 1.327 . S
C2147 C2151 1.429 . S
C2148 C2131 1.574 . S
C2148 H2142 0.949 . S
C2148 C2152 1.368 1_554 S
C2149 C2130 1.429 . S
C2149 C2143 1.429 . S
C2149 C2150 1.523 . S
C2150 C2131 1.368 . S
C2150 C2144 1.368 1_554 S
C2150 C2149 1.523 . S
C2151 C2135 1.429 . S
C2151 C2147 1.429 . S
C2151 C2152 1.523 . S
C2152 C2136 1.368 . S
C2152 C2148 1.368 1_556 S
C2152 C2151 1.523 . S
H2153 C2128 0.950 . S
H2154 C2130 0.950 . S
H2155 C2131 0.949 . S
H2156 C2133 0.950 . S
H2157 C2135 0.950 . S
C2158 C2159 1.349 . S
C2158 C2160 1.327 . S
C2158 H2183 0.950 . S
C2159 C2158 1.349 . S
C2159 C2175 1.349 . S
C2160 C2158 1.327 . S
C2160 C2179 1.429 . S
C2160 H2184 0.950 . S
C2161 C2178 1.574 . S
C2161 C2180 1.368 . S
C2161 H2185 0.949 . S
H2162 C2166 0.949 . S
C2163 C2164 1.349 . S
C2163 C2165 1.327 . S
C2163 H2186 0.950 . S
C2164 C2163 1.349 . S
C2164 C2176 1.349 . S
C2165 C2163 1.327 . S
C2165 C2181 1.429 . S
C2165 H2187 0.950 . S
C2166 H2162 0.949 . S
C2166 C2174 1.574 . S
C2166 C2182 1.368 . S
H2167 C2175 0.950 . S
H2168 C2173 0.950 . S
H2169 C2174 0.949 . S
H2170 C2176 0.950 . S
H2171 C2177 0.950 . S
H2172 C2178 0.949 . S
C2173 H2168 0.950 . S
C2173 C2175 1.327 . S
C2173 C2179 1.429 . S
C2174 C2166 1.574 . S
C2174 H2169 0.949 . S
C2174 C2180 1.368 . S
C2175 C2159 1.349 . S
C2175 H2167 0.950 . S
C2175 C2173 1.327 . S
C2176 C2164 1.349 . S
C2176 H2170 0.950 . S
C2176 C2177 1.327 . S
C2177 H2171 0.950 . S
C2177 C2176 1.327 . S
C2177 C2181 1.429 . S
C2178 C2161 1.574 . S
C2178 H2172 0.949 . S
C2178 C2182 1.368 . S
C2179 C2160 1.429 . S
C2179 C2173 1.429 . S
C2179 C2180 1.523 . S
C2180 C2161 1.368 . S
C2180 C2174 1.368 . S
C2180 C2179 1.523 . S
C2181 C2165 1.429 . S
C2181 C2177 1.429 . S
C2181 C2182 1.523 . S
C2182 C2166 1.368 . S
C2182 C2178 1.368 . S
C2182 C2181 1.523 . S
H2183 C2158 0.950 . S
H2184 C2160 0.950 . S
H2185 C2161 0.949 . S
H2186 C2163 0.950 . S
H2187 C2165 0.950 . S
C2188 C2189 1.349 . S
C2188 C2190 1.327 . S
C2188 H2213 0.950 . S
C2189 C2188 1.349 . S
C2189 C2205 1.349 . S
C2190 C2188 1.327 . S
C2190 C2209 1.429 . S
C2190 H2214 0.950 . S
C2191 C2208 1.574 . S
C2191 C2210 1.368 . S
C2191 H2215 0.949 . S
H2192 C2196 0.949 . S
C2193 C2194 1.349 . S
C2193 C2195 1.327 . S
C2193 H2216 0.950 . S
C2194 C2193 1.349 . S
C2194 C2206 1.349 . S
C2195 C2193 1.327 . S
C2195 C2211 1.429 . S
C2195 H2217 0.950 . S
C2196 H2192 0.949 . S
C2196 C2204 1.574 . S
C2196 C2212 1.368 . S
H2197 C2205 0.950 . S
H2198 C2203 0.950 . S
H2199 C2204 0.949 . S
H2200 C2206 0.950 . S
H2201 C2207 0.950 . S
H2202 C2208 0.949 . S
C2203 H2198 0.950 . S
C2203 C2205 1.327 . S
C2203 C2209 1.429 . S
C2204 C2196 1.574 . S
C2204 H2199 0.949 . S
C2204 C2210 1.368 . S
C2205 C2189 1.349 . S
C2205 H2197 0.950 . S
C2205 C2203 1.327 . S
C2206 C2194 1.349 . S
C2206 H2200 0.950 . S
C2206 C2207 1.327 . S
C2207 H2201 0.950 . S
C2207 C2206 1.327 . S
C2207 C2211 1.429 . S
C2208 C2191 1.574 . S
C2208 H2202 0.949 . S
C2208 C2212 1.368 . S
C2209 C2190 1.429 . S
C2209 C2203 1.429 . S
C2209 C2210 1.523 . S
C2210 C2191 1.368 . S
C2210 C2204 1.368 . S
C2210 C2209 1.523 . S
C2211 C2195 1.429 . S
C2211 C2207 1.429 . S
C2211 C2212 1.523 . S
C2212 C2196 1.368 . S
C2212 C2208 1.368 . S
C2212 C2211 1.523 . S
H2213 C2188 0.950 . S
H2214 C2190 0.950 . S
H2215 C2191 0.949 . S
H2216 C2193 0.950 . S
H2217 C2195 0.950 . S
C2218 C2219 1.349 . S
C2218 C2220 1.327 . S
C2218 H2243 0.950 . S
C2219 C2218 1.349 . S
C2219 C2235 1.349 . S
C2220 C2218 1.327 . S
C2220 C2239 1.429 . S
C2220 H2244 0.950 . S
C2221 C2238 1.574 . S
C2221 C2240 1.368 . S
C2221 H2245 0.949 . S
H2222 C2226 0.949 . S
C2223 C2224 1.349 . S
C2223 C2225 1.327 . S
C2223 H2246 0.950 . S
C2224 C2223 1.349 . S
C2224 C2236 1.349 . S
C2225 C2223 1.327 . S
C2225 C2241 1.429 . S
C2225 H2247 0.950 . S
C2226 H2222 0.949 . S
C2226 C2234 1.574 . S
C2226 C2242 1.368 . S
H2227 C2235 0.950 . S
H2228 C2233 0.950 . S
H2229 C2234 0.949 . S
H2230 C2236 0.950 . S
H2231 C2237 0.950 . S
H2232 C2238 0.949 . S
C2233 H2228 0.950 . S
C2233 C2235 1.327 . S
C2233 C2239 1.429 . S
C2234 C2226 1.574 . S
C2234 H2229 0.949 . S
C2234 C2240 1.368 . S
C2235 C2219 1.349 . S
C2235 H2227 0.950 . S
C2235 C2233 1.327 . S
C2236 C2224 1.349 . S
C2236 H2230 0.950 . S
C2236 C2237 1.327 . S
C2237 H2231 0.950 . S
C2237 C2236 1.327 . S
C2237 C2241 1.429 . S
C2238 C2221 1.574 . S
C2238 H2232 0.949 . S
C2238 C2242 1.368 . S
C2239 C2220 1.429 . S
C2239 C2233 1.429 . S
C2239 C2240 1.523 . S
C2240 C2221 1.368 . S
C2240 C2234 1.368 . S
C2240 C2239 1.523 . S
C2241 C2225 1.429 . S
C2241 C2237 1.429 . S
C2241 C2242 1.523 . S
C2242 C2226 1.368 . S
C2242 C2238 1.368 . S
C2242 C2241 1.523 . S
H2243 C2218 0.950 . S
H2244 C2220 0.950 . S
H2245 C2221 0.949 . S
H2246 C2223 0.950 . S
H2247 C2225 0.950 . S
C2248 C2249 1.349 . S
C2248 C2250 1.327 . S
C2248 H2273 0.950 . S
C2249 C2248 1.349 . S
C2249 C2265 1.349 . S
C2250 C2248 1.327 . S
C2250 C2269 1.429 . S
C2250 H2274 0.950 . S
C2251 C2268 1.574 . S
C2251 C2270 1.368 . S
C2251 H2275 0.949 . S
H2252 C2256 0.949 . S
C2253 C2254 1.349 . S
C2253 C2255 1.327 . S
C2253 H2276 0.950 . S
C2254 C2253 1.349 . S
C2254 C2266 1.349 . S
C2255 C2253 1.327 . S
C2255 C2271 1.429 . S
C2255 H2277 0.950 . S
C2256 H2252 0.949 . S
C2256 C2264 1.574 . S
C2256 C2272 1.368 . S
H2257 C2265 0.950 . S
H2258 C2263 0.950 . S
H2259 C2264 0.949 1_554 S
H2260 C2266 0.950 . S
H2261 C2267 0.950 . S
H2262 C2268 0.949 . S
C2263 H2258 0.950 . S
C2263 C2265 1.327 . S
C2263 C2269 1.429 . S
C2264 C2256 1.574 . S
C2264 H2259 0.949 1_556 S
C2264 C2270 1.368 . S
C2265 C2249 1.349 . S
C2265 H2257 0.950 . S
C2265 C2263 1.327 . S
C2266 C2254 1.349 . S
C2266 H2260 0.950 . S
C2266 C2267 1.327 . S
C2267 H2261 0.950 . S
C2267 C2266 1.327 . S
C2267 C2271 1.429 . S
C2268 C2251 1.574 . S
C2268 H2262 0.949 . S
C2268 C2272 1.368 . S
C2269 C2250 1.429 . S
C2269 C2263 1.429 . S
C2269 C2270 1.523 1_554 S
C2270 C2251 1.368 . S
C2270 C2264 1.368 . S
C2270 C2269 1.523 1_556 S
C2271 C2255 1.429 . S
C2271 C2267 1.429 . S
C2271 C2272 1.523 . S
C2272 C2256 1.368 . S
C2272 C2268 1.368 . S
C2272 C2271 1.523 . S
H2273 C2248 0.950 . S
H2274 C2250 0.950 . S
H2275 C2251 0.949 . S
H2276 C2253 0.950 . S
H2277 C2255 0.950 . S
C2278 C2279 1.349 . S
C2278 C2280 1.327 . S
C2278 H2303 0.950 . S
C2279 C2278 1.349 . S
C2279 C2295 1.349 . S
C2280 C2278 1.327 . S
C2280 C2299 1.429 . S
C2280 H2304 0.950 . S
C2281 C2298 1.574 . S
C2281 C2300 1.368 . S
C2281 H2305 0.949 . S
H2282 C2286 0.949 . S
C2283 C2284 1.349 . S
C2283 C2285 1.327 . S
C2283 H2306 0.950 . S
C2284 C2283 1.349 . S
C2284 C2296 1.349 . S
C2285 C2283 1.327 . S
C2285 C2301 1.429 . S
C2285 H2307 0.950 . S
C2286 H2282 0.949 . S
C2286 C2294 1.574 . S
C2286 C2302 1.368 . S
H2287 C2295 0.950 . S
H2288 C2293 0.950 . S
H2289 C2294 0.949 . S
H2290 C2296 0.950 . S
H2291 C2297 0.950 . S
H2292 C2298 0.949 . S
C2293 H2288 0.950 . S
C2293 C2295 1.327 . S
C2293 C2299 1.429 . S
C2294 C2286 1.574 . S
C2294 H2289 0.949 . S
C2294 C2300 1.368 . S
C2295 C2279 1.349 . S
C2295 H2287 0.950 . S
C2295 C2293 1.327 . S
C2296 C2284 1.349 . S
C2296 H2290 0.950 . S
C2296 C2297 1.327 . S
C2297 H2291 0.950 . S
C2297 C2296 1.327 . S
C2297 C2301 1.429 . S
C2298 C2281 1.574 . S
C2298 H2292 0.949 . S
C2298 C2302 1.368 . S
C2299 C2280 1.429 . S
C2299 C2293 1.429 . S
C2299 C2300 1.523 . S
C2300 C2281 1.368 . S
C2300 C2294 1.368 . S
C2300 C2299 1.523 . S
C2301 C2285 1.429 . S
C2301 C2297 1.429 . S
C2301 C2302 1.523 . S
C2302 C2286 1.368 . S
C2302 C2298 1.368 . S
C2302 C2301 1.523 . S
H2303 C2278 0.950 . S
H2304 C2280 0.950 . S
H2305 C2281 0.949 . S
H2306 C2283 0.950 . S
H2307 C2285 0.950 . S
C2308 C2309 1.349 . S
C2308 C2310 1.327 . S
C2308 H2333 0.950 . S
C2309 C2308 1.349 . S
C2309 C2325 1.349 . S
C2310 C2308 1.327 . S
C2310 C2329 1.429 . S
C2310 H2334 0.950 . S
C2311 C2328 1.574 . S
C2311 C2330 1.368 . S
C2311 H2335 0.949 . S
H2312 C2316 0.949 . S
C2313 C2314 1.349 . S
C2313 C2315 1.327 . S
C2313 H2336 0.950 . S
C2314 C2313 1.349 . S
C2314 C2326 1.349 . S
C2315 C2313 1.327 . S
C2315 C2331 1.429 . S
C2315 H2337 0.950 . S
C2316 H2312 0.949 . S
C2316 C2324 1.574 . S
C2316 C2332 1.368 . S
H2317 C2325 0.950 . S
H2318 C2323 0.950 . S
H2319 C2324 0.949 . S
H2320 C2326 0.950 . S
H2321 C2327 0.950 . S
H2322 C2328 0.949 . S
C2323 H2318 0.950 . S
C2323 C2325 1.327 . S
C2323 C2329 1.429 . S
C2324 C2316 1.574 . S
C2324 H2319 0.949 . S
C2324 C2330 1.368 . S
C2325 C2309 1.349 . S
C2325 H2317 0.950 . S
C2325 C2323 1.327 . S
C2326 C2314 1.349 . S
C2326 H2320 0.950 . S
C2326 C2327 1.327 . S
C2327 H2321 0.950 . S
C2327 C2326 1.327 . S
C2327 C2331 1.429 . S
C2328 C2311 1.574 . S
C2328 H2322 0.949 . S
C2328 C2332 1.368 . S
C2329 C2310 1.429 . S
C2329 C2323 1.429 . S
C2329 C2330 1.523 . S
C2330 C2311 1.368 . S
C2330 C2324 1.368 . S
C2330 C2329 1.523 . S
C2331 C2315 1.429 . S
C2331 C2327 1.429 . S
C2331 C2332 1.523 . S
C2332 C2316 1.368 . S
C2332 C2328 1.368 . S
C2332 C2331 1.523 . S
H2333 C2308 0.950 . S
H2334 C2310 0.950 . S
H2335 C2311 0.949 . S
H2336 C2313 0.950 . S
H2337 C2315 0.950 . S
C2338 C2339 1.349 . S
C2338 C2340 1.327 . S
C2338 H2363 0.950 . S
C2339 C2338 1.349 . S
C2339 C2355 1.349 . S
C2340 C2338 1.327 . S
C2340 C2359 1.429 . S
C2340 H2364 0.950 . S
C2341 C2358 1.574 . S
C2341 C2360 1.368 . S
C2341 H2365 0.949 . S
H2342 C2346 0.949 . S
C2343 C2344 1.349 . S
C2343 C2345 1.327 . S
C2343 H2366 0.950 . S
C2344 C2343 1.349 . S
C2344 C2356 1.349 . S
C2345 C2343 1.327 . S
C2345 C2361 1.429 . S
C2345 H2367 0.950 . S
C2346 H2342 0.949 . S
C2346 C2354 1.574 . S
C2346 C2362 1.368 . S
H2347 C2355 0.950 . S
H2348 C2353 0.950 . S
H2349 C2354 0.949 . S
H2350 C2356 0.950 . S
H2351 C2357 0.950 . S
H2352 C2358 0.949 . S
C2353 H2348 0.950 . S
C2353 C2355 1.327 . S
C2353 C2359 1.429 . S
C2354 C2346 1.574 . S
C2354 H2349 0.949 . S
C2354 C2360 1.368 . S
C2355 C2339 1.349 . S
C2355 H2347 0.950 . S
C2355 C2353 1.327 . S
C2356 C2344 1.349 . S
C2356 H2350 0.950 . S
C2356 C2357 1.327 . S
C2357 H2351 0.950 . S
C2357 C2356 1.327 . S
C2357 C2361 1.429 . S
C2358 C2341 1.574 . S
C2358 H2352 0.949 . S
C2358 C2362 1.368 . S
C2359 C2340 1.429 . S
C2359 C2353 1.429 . S
C2359 C2360 1.523 . S
C2360 C2341 1.368 . S
C2360 C2354 1.368 . S
C2360 C2359 1.523 . S
C2361 C2345 1.429 . S
C2361 C2357 1.429 . S
C2361 C2362 1.523 . S
C2362 C2346 1.368 . S
C2362 C2358 1.368 . S
C2362 C2361 1.523 . S
H2363 C2338 0.950 . S
H2364 C2340 0.950 . S
H2365 C2341 0.949 . S
H2366 C2343 0.950 . S
H2367 C2345 0.950 . S
C449 C7 0.432 . S
C454 C189 0.398 . S
C479 C357 1.036 . S
C484 C21 1.044 . S
C509 C35 2.039 . S
C514 C217 2.030 . S
C539 C49 2.039 . S
C544 C343 2.030 . S
C569 C63 1.044 . S
C574 C245 1.036 . S
C599 C77 0.725 . S
C604 C315 0.724 . S
C629 C91 0.725 . S
C634 C273 0.724 . S
C659 C441 0.398 . S
C664 C105 0.432 . S
C689 C301 1.036 . S
C694 C119 1.044 . S
C719 C133 0.725 . S
C724 C259 0.724 . S
C749 C329 0.724 . S
C754 C147 0.725 . S
C779 C161 2.039 . S
C784 C231 2.030 . S
C809 C203 1.036 . S
C814 C175 1.044 . S
C839 C287 0.398 . S
C844 C399 0.432 . S
C869 C413 0.398 . S
C874 C371 0.432 . S
C899 C427 2.030 . S
C904 C385 2.039 . S
C929 C3 1.353 . S
C934 C23 1.358 . S
C959 C36 1.586 . S
C964 C22 1.574 . S
C989 C45 1.029 . S
C994 C31 1.029 . S
C1019 C51 1.741 . S
C1024 C8 1.760 . S
C1049 C101 1.353 . S
C1054 C65 1.358 . S
C1079 C79 1.648 . S
C1084 C59 1.655 . S
C1109 C87 1.208 . S
C1114 C73 1.208 . S
C1139 C92 1.784 . S
C1144 C107 1.760 . S
C1169 C134 1.784 . S
C1174 C9 1.760 . S
C1199 C120 1.574 . S
C1204 C50 1.586 . S
C1229 C149 1.648 . S
C1234 C17 1.655 . S
C1259 C387 1.741 . S
C1264 C106 1.760 . S
C1289 C400 1.760 . S
C1294 C37 1.741 . S
C1319 C162 1.586 . S
C1324 C64 1.574 . S
C1349 C93 1.648 . S
C1354 C171 1.655 . S
C1379 C204 1.343 . S
C1384 C185 1.334 . S
C1409 C219 1.644 . S
C1414 C205 1.637 . S
C1439 C227 1.129 . S
C1444 C213 1.129 . S
C1469 C191 1.752 . S
C1474 C232 1.766 . S
C1499 C246 1.343 . S
C1504 C283 1.334 . S
C1529 C241 1.634 . S
C1534 C260 1.643 . S
C1559 C269 1.201 . S
C1564 C255 1.201 . S
C1589 C275 1.738 . S
C1594 C288 1.744 . S
C1619 C190 1.744 . S
C1624 C317 1.738 . S
C1649 C303 1.637 . S
C1654 C233 1.644 . S
C1679 C330 1.643 . S
C1684 C199 1.634 . S
C1709 C428 1.766 . S
C1714 C289 1.752 . S
C1739 C443 1.752 . S
C1744 C218 1.766 . S
C1769 C247 1.637 . S
C1774 C345 1.644 . S
C1799 C353 1.634 . S
C1804 C274 1.643 . S
C1829 C177 1.358 . S
C1834 C367 1.353 . S
C1859 C386 1.586 . S
C1864 C176 1.574 . S
C1889 C157 1.029 . S
C1894 C381 1.029 . S
C1919 C163 1.741 . S
C1924 C372 1.760 . S
C1949 C121 1.358 . S
C1954 C395 1.353 . S
C1979 C135 1.648 . S
C1984 C115 1.655 . S
C2009 C143 1.208 . S
C2014 C129 1.208 . S
C2039 C148 1.784 . S
C2044 C401 1.760 . S
C2069 C373 1.760 . S
C2074 C78 1.784 . S
C2099 C358 1.343 . S
C2104 C409 1.334 . S
C2129 C359 1.637 . S
C2134 C429 1.644 . S
C2159 C423 1.129 . S
C2164 C339 1.129 . S
C2189 C344 1.766 . S
C2194 C415 1.752 . S
C2219 C437 1.334 . S
C2224 C302 1.343 . S
C2249 C297 1.634 . S
C2254 C316 1.643 . S
C2279 C325 1.201 . S
C2284 C311 1.201 . S
C2309 C331 1.738 . S
C2314 C442 1.744 . S
C2339 C414 1.744 . S
C2344 C261 1.738 . S
