# Generated by pormake.
# Topology uoi, (4)-cn, num edge types: 1
# Building blocks:
#     Node 0, Type 0, BuildingBlock: GALJAG_clean_sbu_0, # of connection points: 4
#     Node 1, Type 0, BuildingBlock: GALJAG_clean_sbu_0, # of connection points: 4
#     Node 2, Type 0, BuildingBlock: GALJAG_clean_sbu_0, # of connection points: 4
#     Node 3, Type 0, BuildingBlock: GALJAG_clean_sbu_0, # of connection points: 4
#     Node 4, Type 0, BuildingBlock: GALJAG_clean_sbu_0, # of connection points: 4
#     Node 5, Type 0, BuildingBlock: GALJAG_clean_sbu_0, # of connection points: 4
#     Node 6, Type 0, BuildingBlock: GALJAG_clean_sbu_0, # of connection points: 4
#     Node 7, Type 0, BuildingBlock: GALJAG_clean_sbu_0, # of connection points: 4
#     Node 8, Type 0, BuildingBlock: GALJAG_clean_sbu_0, # of connection points: 4
#     Node 9, Type 0, BuildingBlock: GALJAG_clean_sbu_0, # of connection points: 4
#     Node 10, Type 0, BuildingBlock: GALJAG_clean_sbu_0, # of connection points: 4
#     Node 11, Type 0, BuildingBlock: GALJAG_clean_sbu_0, # of connection points: 4
#     Node 12, Type 0, BuildingBlock: GALJAG_clean_sbu_0, # of connection points: 4
#     Node 13, Type 0, BuildingBlock: GALJAG_clean_sbu_0, # of connection points: 4
#     Node 14, Type 0, BuildingBlock: GALJAG_clean_sbu_0, # of connection points: 4
#     Node 15, Type 0, BuildingBlock: GALJAG_clean_sbu_0, # of connection points: 4
#     Node 16, Type 0, BuildingBlock: GALJAG_clean_sbu_0, # of connection points: 4
#     Node 17, Type 0, BuildingBlock: GALJAG_clean_sbu_0, # of connection points: 4
#     Node 18, Type 0, BuildingBlock: GALJAG_clean_sbu_0, # of connection points: 4
#     Node 19, Type 0, BuildingBlock: GALJAG_clean_sbu_0, # of connection points: 4
#     Node 20, Type 0, BuildingBlock: GALJAG_clean_sbu_0, # of connection points: 4
#     Node 21, Type 0, BuildingBlock: GALJAG_clean_sbu_0, # of connection points: 4
#     Node 22, Type 0, BuildingBlock: GALJAG_clean_sbu_0, # of connection points: 4
#     Node 23, Type 0, BuildingBlock: GALJAG_clean_sbu_0, # of connection points: 4
#     Node 24, Type 0, BuildingBlock: GALJAG_clean_sbu_0, # of connection points: 4
#     Node 25, Type 0, BuildingBlock: GALJAG_clean_sbu_0, # of connection points: 4
#     Node 26, Type 0, BuildingBlock: GALJAG_clean_sbu_0, # of connection points: 4
#     Node 27, Type 0, BuildingBlock: GALJAG_clean_sbu_0, # of connection points: 4
#     Node 28, Type 0, BuildingBlock: GALJAG_clean_sbu_0, # of connection points: 4
#     Node 29, Type 0, BuildingBlock: GALJAG_clean_sbu_0, # of connection points: 4
#     Node 30, Type 0, BuildingBlock: GALJAG_clean_sbu_0, # of connection points: 4
#     Node 31, Type 0, BuildingBlock: GALJAG_clean_sbu_0, # of connection points: 4
#     Edge 32, Type (0, 0), BuildingBlock: ZUJKAS_clean_linker_0, # of connection points: 2
#     Edge 33, Type (0, 0), BuildingBlock: ZUJKAS_clean_linker_0, # of connection points: 2
#     Edge 34, Type (0, 0), BuildingBlock: ZUJKAS_clean_linker_0, # of connection points: 2
#     Edge 35, Type (0, 0), BuildingBlock: ZUJKAS_clean_linker_0, # of connection points: 2
#     Edge 36, Type (0, 0), BuildingBlock: ZUJKAS_clean_linker_0, # of connection points: 2
#     Edge 37, Type (0, 0), BuildingBlock: ZUJKAS_clean_linker_0, # of connection points: 2
#     Edge 38, Type (0, 0), BuildingBlock: ZUJKAS_clean_linker_0, # of connection points: 2
#     Edge 39, Type (0, 0), BuildingBlock: ZUJKAS_clean_linker_0, # of connection points: 2
#     Edge 40, Type (0, 0), BuildingBlock: ZUJKAS_clean_linker_0, # of connection points: 2
#     Edge 41, Type (0, 0), BuildingBlock: ZUJKAS_clean_linker_0, # of connection points: 2
#     Edge 42, Type (0, 0), BuildingBlock: ZUJKAS_clean_linker_0, # of connection points: 2
#     Edge 43, Type (0, 0), BuildingBlock: ZUJKAS_clean_linker_0, # of connection points: 2
#     Edge 44, Type (0, 0), BuildingBlock: ZUJKAS_clean_linker_0, # of connection points: 2
#     Edge 45, Type (0, 0), BuildingBlock: ZUJKAS_clean_linker_0, # of connection points: 2
#     Edge 46, Type (0, 0), BuildingBlock: ZUJKAS_clean_linker_0, # of connection points: 2
#     Edge 47, Type (0, 0), BuildingBlock: ZUJKAS_clean_linker_0, # of connection points: 2
#     Edge 48, Type (0, 0), BuildingBlock: ZUJKAS_clean_linker_0, # of connection points: 2
#     Edge 49, Type (0, 0), BuildingBlock: ZUJKAS_clean_linker_0, # of connection points: 2
#     Edge 50, Type (0, 0), BuildingBlock: ZUJKAS_clean_linker_0, # of connection points: 2
#     Edge 51, Type (0, 0), BuildingBlock: ZUJKAS_clean_linker_0, # of connection points: 2
#     Edge 52, Type (0, 0), BuildingBlock: ZUJKAS_clean_linker_0, # of connection points: 2
#     Edge 53, Type (0, 0), BuildingBlock: ZUJKAS_clean_linker_0, # of connection points: 2
#     Edge 54, Type (0, 0), BuildingBlock: ZUJKAS_clean_linker_0, # of connection points: 2
#     Edge 55, Type (0, 0), BuildingBlock: ZUJKAS_clean_linker_0, # of connection points: 2
#     Edge 56, Type (0, 0), BuildingBlock: ZUJKAS_clean_linker_0, # of connection points: 2
#     Edge 57, Type (0, 0), BuildingBlock: ZUJKAS_clean_linker_0, # of connection points: 2
#     Edge 58, Type (0, 0), BuildingBlock: ZUJKAS_clean_linker_0, # of connection points: 2
#     Edge 59, Type (0, 0), BuildingBlock: ZUJKAS_clean_linker_0, # of connection points: 2
#     Edge 60, Type (0, 0), BuildingBlock: ZUJKAS_clean_linker_0, # of connection points: 2
#     Edge 61, Type (0, 0), BuildingBlock: ZUJKAS_clean_linker_0, # of connection points: 2
#     Edge 62, Type (0, 0), BuildingBlock: ZUJKAS_clean_linker_0, # of connection points: 2
#     Edge 63, Type (0, 0), BuildingBlock: ZUJKAS_clean_linker_0, # of connection points: 2
#     Edge 64, Type (0, 0), BuildingBlock: ZUJKAS_clean_linker_0, # of connection points: 2
#     Edge 65, Type (0, 0), BuildingBlock: ZUJKAS_clean_linker_0, # of connection points: 2
#     Edge 66, Type (0, 0), BuildingBlock: ZUJKAS_clean_linker_0, # of connection points: 2
#     Edge 67, Type (0, 0), BuildingBlock: ZUJKAS_clean_linker_0, # of connection points: 2
#     Edge 68, Type (0, 0), BuildingBlock: ZUJKAS_clean_linker_0, # of connection points: 2
#     Edge 69, Type (0, 0), BuildingBlock: ZUJKAS_clean_linker_0, # of connection points: 2
#     Edge 70, Type (0, 0), BuildingBlock: ZUJKAS_clean_linker_0, # of connection points: 2
#     Edge 71, Type (0, 0), BuildingBlock: ZUJKAS_clean_linker_0, # of connection points: 2
#     Edge 72, Type (0, 0), BuildingBlock: ZUJKAS_clean_linker_0, # of connection points: 2
#     Edge 73, Type (0, 0), BuildingBlock: ZUJKAS_clean_linker_0, # of connection points: 2
#     Edge 74, Type (0, 0), BuildingBlock: ZUJKAS_clean_linker_0, # of connection points: 2
#     Edge 75, Type (0, 0), BuildingBlock: ZUJKAS_clean_linker_0, # of connection points: 2
#     Edge 76, Type (0, 0), BuildingBlock: ZUJKAS_clean_linker_0, # of connection points: 2
#     Edge 77, Type (0, 0), BuildingBlock: ZUJKAS_clean_linker_0, # of connection points: 2
#     Edge 78, Type (0, 0), BuildingBlock: ZUJKAS_clean_linker_0, # of connection points: 2
#     Edge 79, Type (0, 0), BuildingBlock: ZUJKAS_clean_linker_0, # of connection points: 2
#     Edge 80, Type (0, 0), BuildingBlock: ZUJKAS_clean_linker_0, # of connection points: 2
#     Edge 81, Type (0, 0), BuildingBlock: ZUJKAS_clean_linker_0, # of connection points: 2
#     Edge 82, Type (0, 0), BuildingBlock: ZUJKAS_clean_linker_0, # of connection points: 2
#     Edge 83, Type (0, 0), BuildingBlock: ZUJKAS_clean_linker_0, # of connection points: 2
#     Edge 84, Type (0, 0), BuildingBlock: ZUJKAS_clean_linker_0, # of connection points: 2
#     Edge 85, Type (0, 0), BuildingBlock: ZUJKAS_clean_linker_0, # of connection points: 2
#     Edge 86, Type (0, 0), BuildingBlock: ZUJKAS_clean_linker_0, # of connection points: 2
#     Edge 87, Type (0, 0), BuildingBlock: ZUJKAS_clean_linker_0, # of connection points: 2
#     Edge 88, Type (0, 0), BuildingBlock: ZUJKAS_clean_linker_0, # of connection points: 2
#     Edge 89, Type (0, 0), BuildingBlock: ZUJKAS_clean_linker_0, # of connection points: 2
#     Edge 90, Type (0, 0), BuildingBlock: ZUJKAS_clean_linker_0, # of connection points: 2
#     Edge 91, Type (0, 0), BuildingBlock: ZUJKAS_clean_linker_0, # of connection points: 2
#     Edge 92, Type (0, 0), BuildingBlock: ZUJKAS_clean_linker_0, # of connection points: 2
#     Edge 93, Type (0, 0), BuildingBlock: ZUJKAS_clean_linker_0, # of connection points: 2
#     Edge 94, Type (0, 0), BuildingBlock: ZUJKAS_clean_linker_0, # of connection points: 2
#     Edge 95, Type (0, 0), BuildingBlock: ZUJKAS_clean_linker_0, # of connection points: 2
# Relax obj value: 0.180
# Max RMSD: 0.417
# Mean RMSD: 0.267
data_MOF--net-uoi--node1-GALJAG_clean_sbu_0--edge1-ZUJKAS_clean_linker_0
_symmetry_space_group_name_H-M    P1
_symmetry_Int_Tables_number       1
_symmetry_cell_setting            triclinic
loop_
_symmetry_equiv_pos_as_xyz
'x, y, z'
_cell_length_a     57.543419
_cell_length_b     89.045717
_cell_length_c     30.575133
_cell_angle_alpha  89.998228
_cell_angle_beta   89.966972
_cell_angle_gamma 90.036775
loop_
_atom_site_label
_atom_site_type_symbol
_atom_site_fract_x
_atom_site_fract_y
_atom_site_fract_z
_atom_type_partial_charge
In0 In 0.31959 0.21297 0.23426 0.0
O1 O 0.28703 0.21822 0.19328 0.0
O2 O 0.29986 0.19568 0.19681 0.0
C3 C 0.33292 0.23694 0.28109 0.0
C4 C 0.35102 0.21284 0.16966 0.0
C5 C 0.30585 0.19608 0.30165 0.0
O6 O 0.31408 0.23693 0.25947 0.0
O7 O 0.34463 0.22496 0.27867 0.0
O8 O 0.3263 0.19487 0.28639 0.0
O9 O 0.29319 0.20587 0.2837 0.0
C10 C 0.28466 0.20456 0.18213 0.0
O11 O 0.34841 0.20149 0.19427 0.0
O12 O 0.33853 0.22402 0.17903 0.0
In13 In 0.10434 0.90152 0.63798 0.0
O14 O 0.12755 0.8807 0.6327 0.0
O15 O 0.13358 0.89878 0.58882 0.0
C16 C 0.08418 0.89302 0.71381 0.0
C17 C 0.07329 0.89787 0.57317 0.0
C18 C 0.11569 0.93012 0.65833 0.0
O19 O 0.10584 0.895 0.71075 0.0
O20 O 0.07314 0.89499 0.6788 0.0
O21 O 0.09609 0.92642 0.64338 0.0
O22 O 0.12988 0.91941 0.66244 0.0
C23 C 0.13893 0.88565 0.60046 0.0
O24 O 0.08264 0.91041 0.58126 0.0
O25 O 0.07965 0.88726 0.59771 0.0
In26 In 0.19809 0.79285 0.74197 0.0
O27 O 0.18608 0.8088 0.68771 0.0
O28 O 0.17036 0.78738 0.6913 0.0
C29 C 0.2036 0.81657 0.79663 0.0
C30 C 0.23809 0.78633 0.7007 0.0
C31 C 0.18467 0.76975 0.79334 0.0
O32 O 0.18735 0.80718 0.8013 0.0
O33 O 0.21595 0.81443 0.76329 0.0
O34 O 0.20548 0.77145 0.78101 0.0
O35 O 0.17077 0.77962 0.77949 0.0
C36 C 0.17272 0.79939 0.67001 0.0
O37 O 0.21869 0.78146 0.68773 0.0
O38 O 0.23748 0.79277 0.73744 0.0
In39 In 0.39456 0.10071 0.13813 0.0
O40 O 0.41092 0.09356 0.07299 0.0
O41 O 0.42402 0.11308 0.10444 0.0
C42 C 0.37751 0.07314 0.15693 0.0
C43 C 0.3628 0.12053 0.10812 0.0
C44 C 0.41769 0.10534 0.21356 0.0
O45 O 0.39562 0.07519 0.13443 0.0
O46 O 0.36749 0.08505 0.16907 0.0
O47 O 0.3971 0.10988 0.20816 0.0
O48 O 0.42623 0.09848 0.18132 0.0
C49 C 0.42527 0.1043 0.07222 0.0
O50 O 0.37882 0.12417 0.13415 0.0
O51 O 0.36216 0.10675 0.09862 0.0
In52 In 0.31829 0.79948 0.2504 0.0
O53 O 0.34471 0.81072 0.29614 0.0
O54 O 0.33465 0.78787 0.30713 0.0
C55 C 0.30611 0.8157 0.18061 0.0
C56 C 0.28127 0.80679 0.29868 0.0
C57 C 0.3351 0.77625 0.20532 0.0
O58 O 0.32485 0.81856 0.20104 0.0
O59 O 0.29454 0.80472 0.19513 0.0
O60 O 0.31461 0.77622 0.22075 0.0
O61 O 0.34695 0.78794 0.21296 0.0
C62 C 0.34628 0.79906 0.31989 0.0
O63 O 0.2852 0.7932 0.28853 0.0
O64 O 0.29583 0.81621 0.28449 0.0
In65 In 0.37727 0.89858 0.35433 0.0
O66 O 0.35551 0.87697 0.35755 0.0
O67 O 0.35058 0.89327 0.40723 0.0
C68 C 0.40107 0.89303 0.2799 0.0
C69 C 0.41048 0.89516 0.41525 0.0
C70 C 0.36122 0.92641 0.33497 0.0
O71 O 0.3798 0.88971 0.28361 0.0
O72 O 0.40995 0.89885 0.31344 0.0
O73 O 0.3775 0.92395 0.3615 0.0
O74 O 0.35204 0.9147 0.31931 0.0
C75 C 0.34566 0.88036 0.39309 0.0
O76 O 0.39927 0.90724 0.41054 0.0
O77 O 0.40485 0.88474 0.38928 0.0
In78 In 0.1839 0.21017 0.76493 0.0
O79 O 0.15421 0.19763 0.79894 0.0
O80 O 0.16012 0.22074 0.81413 0.0
C81 C 0.20047 0.19343 0.69901 0.0
C82 C 0.2151 0.20322 0.82673 0.0
C83 C 0.1725 0.23427 0.71704 0.0
O84 O 0.17966 0.19203 0.71206 0.0
O85 O 0.21236 0.20307 0.7193 0.0
O86 O 0.19068 0.23411 0.74053 0.0
O87 O 0.16035 0.22245 0.71852 0.0
C88 C 0.14867 0.20893 0.82186 0.0
O89 O 0.21463 0.21628 0.81005 0.0
O90 O 0.2002 0.19418 0.81181 0.0
In91 In 0.10723 0.10661 0.85076 0.0
O92 O 0.1293 0.12803 0.8551 0.0
O93 O 0.13823 0.10965 0.89592 0.0
C94 C 0.08218 0.11281 0.77843 0.0
C95 C 0.07646 0.11053 0.91598 0.0
C96 C 0.12166 0.07878 0.82825 0.0
O97 O 0.10358 0.11589 0.78088 0.0
O98 O 0.07373 0.10689 0.81227 0.0
O99 O 0.10648 0.08118 0.85713 0.0
O100 O 0.13023 0.09048 0.81139 0.0
C101 C 0.14232 0.12304 0.88493 0.0
O102 O 0.08662 0.09817 0.90926 0.0
O103 O 0.08202 0.12096 0.89003 0.0
In104 In 0.68286 0.79742 0.76857 0.0
O105 O 0.71517 0.78817 0.80392 0.0
O106 O 0.69708 0.8069 0.83104 0.0
C107 C 0.67258 0.77455 0.71447 0.0
C108 C 0.64626 0.79859 0.82318 0.0
C109 C 0.70016 0.81771 0.71159 0.0
O110 O 0.68774 0.77326 0.74427 0.0
O111 O 0.66287 0.78724 0.71243 0.0
O112 O 0.67861 0.8168 0.7193 0.0
O113 O 0.71259 0.80877 0.73323 0.0
C114 C 0.71365 0.79774 0.83449 0.0
O115 O 0.65582 0.81038 0.8086 0.0
O116 O 0.65402 0.78652 0.80727 0.0
In117 In 0.89711 0.10173 0.34938 0.0
O118 O 0.91699 0.09313 0.40915 0.0
O119 O 0.92354 0.1154 0.38746 0.0
C120 C 0.8829 0.0741 0.3249 0.0
C121 C 0.86172 0.11835 0.38192 0.0
C122 C 0.92163 0.10844 0.27698 0.0
O123 O 0.89483 0.07641 0.35892 0.0
O124 O 0.87752 0.0858 0.30388 0.0
O125 O 0.90072 0.11249 0.28157 0.0
O126 O 0.92984 0.10108 0.30859 0.0
C127 C 0.92818 0.10519 0.4146 0.0
O128 O 0.87824 0.12399 0.36044 0.0
O129 O 0.86246 0.10427 0.38538 0.0
In130 In 0.81928 0.20133 0.25585 0.0
O131 O 0.83507 0.18666 0.30998 0.0
O132 O 0.85255 0.20669 0.29278 0.0
C133 C 0.81514 0.17873 0.19653 0.0
C134 C 0.78053 0.20612 0.3042 0.0
C135 C 0.82765 0.22659 0.20966 0.0
O136 O 0.82758 0.19015 0.18997 0.0
O137 O 0.80642 0.17816 0.2342 0.0
O138 O 0.80723 0.22192 0.21676 0.0
O139 O 0.8435 0.21864 0.22611 0.0
C140 C 0.85147 0.19563 0.31828 0.0
O141 O 0.78008 0.20041 0.26649 0.0
O142 O 0.80032 0.21062 0.31604 0.0
In143 In 0.58603 0.9068 0.85153 0.0
O144 O 0.56475 0.91454 0.91041 0.0
O145 O 0.55952 0.89229 0.88722 0.0
C146 C 0.60248 0.93426 0.83005 0.0
C147 C 0.62067 0.89011 0.88574 0.0
C148 C 0.56292 0.90054 0.77719 0.0
O149 O 0.58676 0.93227 0.85823 0.0
O150 O 0.61029 0.92235 0.81316 0.0
O151 O 0.58341 0.89601 0.78375 0.0
O152 O 0.55437 0.90823 0.80783 0.0
C153 C 0.55401 0.90225 0.91463 0.0
O154 O 0.60737 0.88524 0.85622 0.0
O155 O 0.61692 0.90351 0.89702 0.0
In156 In 0.6836 0.19938 0.75406 0.0
O157 O 0.65231 0.19205 0.71285 0.0
O158 O 0.66754 0.2139 0.70354 0.0
C159 C 0.69944 0.18212 0.819 0.0
C160 C 0.71346 0.19018 0.69308 0.0
C161 C 0.67136 0.22252 0.80406 0.0
O162 O 0.67901 0.18022 0.80401 0.0
O163 O 0.71103 0.1925 0.80112 0.0
O164 O 0.69112 0.222 0.78558 0.0
O165 O 0.65809 0.2114 0.79742 0.0
C166 C 0.65247 0.20438 0.69174 0.0
O167 O 0.71561 0.20302 0.71093 0.0
O168 O 0.69679 0.18224 0.70699 0.0
In169 In 0.6055 0.10951 0.6371 0.0
O170 O 0.6275 0.1311 0.63356 0.0
O171 O 0.63547 0.11331 0.59005 0.0
C172 C 0.5796 0.1156 0.7085 0.0
C173 C 0.57295 0.11192 0.57436 0.0
C174 C 0.62225 0.08219 0.65962 0.0
O175 O 0.60096 0.11888 0.7067 0.0
O176 O 0.57158 0.10957 0.67446 0.0
O177 O 0.61188 0.08465 0.62403 0.0
O178 O 0.625 0.09365 0.6833 0.0
C179 C 0.6398 0.12654 0.6021 0.0
O180 O 0.58156 0.09948 0.58579 0.0
O181 O 0.58087 0.1232 0.59449 0.0
In182 In 0.80158 0.80136 0.2341 0.0
O183 O 0.83439 0.80721 0.19413 0.0
O184 O 0.81511 0.78717 0.18033 0.0
C185 C 0.79069 0.8185 0.30277 0.0
C186 C 0.76945 0.81219 0.17967 0.0
C187 C 0.8125 0.77735 0.28211 0.0
O188 O 0.8103 0.81979 0.2839 0.0
O189 O 0.77714 0.80881 0.2865 0.0
O190 O 0.79344 0.77803 0.26125 0.0
O191 O 0.82547 0.78878 0.27874 0.0
C192 C 0.83232 0.79539 0.17108 0.0
O193 O 0.76801 0.79895 0.19493 0.0
O194 O 0.78688 0.8197 0.19224 0.0
In195 In 0.89671 0.89641 0.1379 0.0
O196 O 0.88311 0.87243 0.13065 0.0
O197 O 0.86207 0.89003 0.10612 0.0
C198 C 0.91577 0.88784 0.21456 0.0
C199 C 0.92935 0.89761 0.07472 0.0
C200 C 0.883 0.92505 0.15245 0.0
O201 O 0.89836 0.89639 0.21249 0.0
O202 O 0.92296 0.88316 0.1781 0.0
O203 O 0.8993 0.92171 0.12665 0.0
O204 O 0.87303 0.91391 0.16978 0.0
C205 C 0.86474 0.87608 0.11102 0.0
O206 O 0.93398 0.89947 0.11467 0.0
O207 O 0.90809 0.89556 0.0664 0.0
In208 In 0.81599 0.70546 0.74161 0.0
O209 O 0.84348 0.69803 0.69154 0.0
O210 O 0.82787 0.71978 0.68635 0.0
C211 C 0.80923 0.68664 0.80824 0.0
C212 C 0.7794 0.69666 0.6942 0.0
C213 C 0.83071 0.72859 0.78986 0.0
O214 O 0.82821 0.68643 0.78697 0.0
O215 O 0.79447 0.69625 0.79606 0.0
O216 O 0.80975 0.72762 0.77716 0.0
O217 O 0.84383 0.71791 0.77832 0.0
C218 C 0.84181 0.71029 0.67047 0.0
O219 O 0.78083 0.71001 0.7086 0.0
O220 O 0.79617 0.68814 0.70398 0.0
In221 In 0.59825 0.39836 0.13796 0.0
O222 O 0.62112 0.37741 0.13111 0.0
O223 O 0.62784 0.39603 0.08953 0.0
C224 C 0.57366 0.39186 0.21063 0.0
C225 C 0.56645 0.39414 0.0747 0.0
C226 C 0.61555 0.42543 0.16083 0.0
O227 O 0.59406 0.38697 0.20498 0.0
O228 O 0.56602 0.39989 0.17994 0.0
O229 O 0.60048 0.42375 0.1313 0.0
O230 O 0.62228 0.41338 0.17854 0.0
C231 C 0.63292 0.38274 0.09991 0.0
O232 O 0.5752 0.40685 0.08275 0.0
O233 O 0.57372 0.3836 0.09863 0.0
In234 In 0.67466 0.30087 0.24242 0.0
O235 O 0.64322 0.30847 0.20191 0.0
O236 O 0.65436 0.28559 0.19908 0.0
C237 C 0.68812 0.32197 0.29951 0.0
C238 C 0.70428 0.30679 0.17724 0.0
C239 C 0.66677 0.27869 0.29979 0.0
O240 O 0.66686 0.32035 0.28962 0.0
O241 O 0.70198 0.31316 0.28051 0.0
O242 O 0.68461 0.27866 0.2753 0.0
O243 O 0.65342 0.28985 0.29506 0.0
C244 C 0.64077 0.29557 0.18481 0.0
O245 O 0.70709 0.29533 0.20145 0.0
O246 O 0.68709 0.31497 0.18686 0.0
In247 In 0.89006 0.60299 0.65227 0.0
O248 O 0.87416 0.62633 0.6461 0.0
O249 O 0.85786 0.60865 0.61131 0.0
C250 C 0.9094 0.61031 0.72975 0.0
C251 C 0.92063 0.6042 0.58557 0.0
C252 C 0.87855 0.57441 0.67249 0.0
O253 O 0.88795 0.60756 0.7262 0.0
O254 O 0.92065 0.60962 0.69449 0.0
O255 O 0.89825 0.57808 0.65778 0.0
O256 O 0.86433 0.58514 0.67616 0.0
C257 C 0.85853 0.62251 0.61954 0.0
O258 O 0.90466 0.59447 0.58716 0.0
O259 O 0.92118 0.61309 0.61759 0.0
In260 In 0.81333 0.29565 0.74648 0.0
O261 O 0.84253 0.30367 0.79207 0.0
O262 O 0.82665 0.28211 0.80196 0.0
C263 C 0.79902 0.31301 0.68097 0.0
C264 C 0.77939 0.30494 0.79879 0.0
C265 C 0.82906 0.27334 0.69619 0.0
O266 O 0.81875 0.3152 0.69873 0.0
O267 O 0.78744 0.30205 0.69578 0.0
O268 O 0.80945 0.27256 0.71523 0.0
O269 O 0.84044 0.28531 0.70293 0.0
C270 C 0.84108 0.29181 0.81516 0.0
O271 O 0.77981 0.29147 0.78481 0.0
O272 O 0.79584 0.3133 0.7861 0.0
In273 In 0.89682 0.39968 0.86017 0.0
O274 O 0.92023 0.40763 0.91516 0.0
O275 O 0.92527 0.38539 0.89113 0.0
C276 C 0.87719 0.42682 0.84409 0.0
C277 C 0.86444 0.38178 0.8979 0.0
C278 C 0.92163 0.39493 0.78647 0.0
O279 O 0.89253 0.42477 0.87284 0.0
O280 O 0.87089 0.41503 0.82456 0.0
O281 O 0.90431 0.38687 0.79624 0.0
O282 O 0.9261 0.40518 0.81355 0.0
C283 C 0.93152 0.39549 0.91772 0.0
O284 O 0.8678 0.38174 0.85709 0.0
O285 O 0.87662 0.3911 0.91872 0.0
In286 In 0.68745 0.709 0.26672 0.0
O287 O 0.71884 0.71775 0.30605 0.0
O288 O 0.7044 0.69615 0.32059 0.0
C289 C 0.67 0.73071 0.2158 0.0
C290 C 0.65402 0.70706 0.3271 0.0
C291 C 0.70715 0.692 0.20434 0.0
O292 O 0.68791 0.73287 0.23918 0.0
O293 O 0.66113 0.71775 0.21866 0.0
O294 O 0.68696 0.68909 0.21874 0.0
O295 O 0.7169 0.70321 0.22164 0.0
C296 C 0.7193 0.70604 0.32976 0.0
O297 O 0.66041 0.69567 0.30522 0.0
O298 O 0.66332 0.71934 0.31591 0.0
In299 In 0.61099 0.59917 0.35308 0.0
O300 O 0.58772 0.58864 0.40486 0.0
O301 O 0.58925 0.61247 0.402 0.0
C302 C 0.63057 0.57287 0.32949 0.0
C303 C 0.64571 0.61682 0.38323 0.0
C304 C 0.58218 0.60394 0.28481 0.0
O305 O 0.6213 0.57499 0.36637 0.0
O306 O 0.63077 0.58424 0.30482 0.0
O307 O 0.60183 0.61026 0.28717 0.0
O308 O 0.57731 0.59557 0.3167 0.0
C309 C 0.58082 0.601 0.42029 0.0
O310 O 0.63078 0.62155 0.35628 0.0
O311 O 0.64365 0.60314 0.39313 0.0
In312 In 0.18458 0.29501 0.25741 0.0
O313 O 0.21322 0.28313 0.2973 0.0
O314 O 0.20495 0.30604 0.31045 0.0
C315 C 0.16644 0.273 0.20835 0.0
C316 C 0.15162 0.30024 0.31768 0.0
C317 C 0.20587 0.31132 0.19508 0.0
O318 O 0.18336 0.27078 0.23402 0.0
O319 O 0.15864 0.28629 0.2079 0.0
O320 O 0.1862 0.31513 0.21008 0.0
O321 O 0.21423 0.29951 0.21144 0.0
C322 C 0.21681 0.29468 0.32052 0.0
O323 O 0.16172 0.31085 0.29771 0.0
O324 O 0.15656 0.28728 0.30386 0.0
In325 In 0.39665 0.59385 0.85337 0.0
O326 O 0.37745 0.61635 0.8514 0.0
O327 O 0.36241 0.59866 0.88822 0.0
C328 C 0.42335 0.5996 0.78293 0.0
C329 C 0.42371 0.59824 0.92425 0.0
C330 C 0.38389 0.5655 0.83195 0.0
O331 O 0.40153 0.60097 0.78186 0.0
O332 O 0.43146 0.59536 0.81912 0.0
O333 O 0.39954 0.56833 0.85964 0.0
O334 O 0.37433 0.57696 0.81572 0.0
C335 C 0.36115 0.61217 0.87611 0.0
O336 O 0.41015 0.58712 0.92103 0.0
O337 O 0.42338 0.60709 0.89206 0.0
In338 In 0.30475 0.71074 0.7699 0.0
O339 O 0.33565 0.70084 0.80768 0.0
O340 O 0.32878 0.72437 0.81157 0.0
C341 C 0.28827 0.68941 0.71576 0.0
C342 C 0.27444 0.70869 0.83624 0.0
C343 C 0.31529 0.73236 0.71164 0.0
O344 O 0.30965 0.69012 0.72542 0.0
O345 O 0.27565 0.69913 0.734 0.0
O346 O 0.29898 0.734 0.73915 0.0
O347 O 0.32574 0.71992 0.71365 0.0
C348 C 0.34096 0.71342 0.8244 0.0
O349 O 0.2716 0.71823 0.80589 0.0
O350 O 0.29205 0.70037 0.83238 0.0
In351 In 0.10632 0.401 0.35571 0.0
O352 O 0.12666 0.37916 0.36397 0.0
O353 O 0.1391 0.39844 0.39729 0.0
C354 C 0.08249 0.39393 0.28252 0.0
C355 C 0.07476 0.39755 0.42031 0.0
C356 C 0.12198 0.4285 0.33226 0.0
O357 O 0.10358 0.39045 0.28746 0.0
O358 O 0.07361 0.40085 0.31434 0.0
O359 O 0.10893 0.42636 0.36486 0.0
O360 O 0.12773 0.41669 0.31212 0.0
C361 C 0.14148 0.3846 0.38985 0.0
O362 O 0.08318 0.41019 0.41026 0.0
O363 O 0.08233 0.38671 0.39792 0.0
In364 In 0.18959 0.69623 0.23947 0.0
O365 O 0.15955 0.68627 0.19873 0.0
O366 O 0.16583 0.70979 0.1966 0.0
C367 C 0.19941 0.67787 0.30673 0.0
C368 C 0.22065 0.68822 0.17822 0.0
C369 C 0.18607 0.72093 0.28943 0.0
O370 O 0.17885 0.67926 0.29235 0.0
O371 O 0.21458 0.68532 0.28628 0.0
O372 O 0.20273 0.71922 0.26269 0.0
O373 O 0.17141 0.71034 0.29006 0.0
C374 C 0.15435 0.69883 0.18203 0.0
O375 O 0.2203 0.70143 0.1937 0.0
O376 O 0.20594 0.67933 0.19456 0.0
In377 In 0.10103 0.60244 0.14613 0.0
O378 O 0.12922 0.62088 0.15119 0.0
O379 O 0.11832 0.61372 0.08825 0.0
C380 C 0.07559 0.6057 0.21957 0.0
C381 C 0.06462 0.60412 0.09128 0.0
C382 C 0.12449 0.57649 0.16007 0.0
O383 O 0.09034 0.61546 0.20799 0.0
O384 O 0.07407 0.59454 0.19449 0.0
O385 O 0.11229 0.57877 0.12648 0.0
O386 O 0.12605 0.58765 0.18531 0.0
C387 C 0.1308 0.62253 0.11027 0.0
O388 O 0.07639 0.59226 0.09613 0.0
O389 O 0.07126 0.61516 0.11405 0.0
In390 In 0.32833 0.30173 0.73952 0.0
O391 O 0.35852 0.31107 0.69819 0.0
O392 O 0.34493 0.2891 0.68516 0.0
C393 C 0.31254 0.31647 0.80932 0.0
C394 C 0.29398 0.31127 0.68777 0.0
C395 C 0.34351 0.27842 0.7862 0.0
O396 O 0.33149 0.32044 0.79105 0.0
O397 O 0.3024 0.30534 0.79215 0.0
O398 O 0.3256 0.27745 0.76204 0.0
O399 O 0.3536 0.29109 0.78619 0.0
C400 C 0.35918 0.29928 0.67468 0.0
O401 O 0.29435 0.29789 0.70225 0.0
O402 O 0.31092 0.31943 0.6992 0.0
In403 In 0.38684 0.38934 0.63791 0.0
O404 O 0.40698 0.39841 0.57948 0.0
O405 O 0.41341 0.37585 0.5988 0.0
C406 C 0.36953 0.41666 0.65957 0.0
C407 C 0.35378 0.36998 0.6095 0.0
C408 C 0.41377 0.38495 0.7088 0.0
O409 O 0.38053 0.41424 0.62463 0.0
O410 O 0.36611 0.40513 0.68263 0.0
O411 O 0.39306 0.38029 0.70696 0.0
O412 O 0.42076 0.39166 0.67497 0.0
C413 C 0.41813 0.38642 0.57275 0.0
O414 O 0.36716 0.36702 0.64092 0.0
O415 O 0.35627 0.38298 0.59388 0.0
H416 H 0.24579 0.19151 0.67588 0.0
H417 H 0.26154 0.18307 0.60614 0.0
H418 H 0.19315 0.16908 0.56531 0.0
H419 H 0.17706 0.17773 0.63543 0.0
H420 H 0.26104 0.15616 0.55348 0.0
H421 H 0.21117 0.2039 0.482 0.0
H422 H 0.21486 0.20171 0.54019 0.0
H423 H 0.19481 0.18991 0.51114 0.0
C424 C 0.23412 0.18636 0.65245 0.0
C425 C 0.21012 0.18553 0.66067 0.0
C426 C 0.24321 0.18145 0.61272 0.0
C427 C 0.22847 0.17567 0.58041 0.0
C428 C 0.20475 0.17367 0.58979 0.0
H429 H 0.26347 0.18348 0.30642 0.0
H430 H 0.24437 0.17357 0.37164 0.0
C431 C 0.1956 0.17858 0.62979 0.0
C432 C 0.2376 0.17396 0.53545 0.0
H433 H 0.23774 0.19179 0.43689 0.0
C434 C 0.2557 0.16373 0.52757 0.0
C435 C 0.2307 0.18396 0.50196 0.0
C436 C 0.21195 0.19558 0.50904 0.0
C437 C 0.26745 0.16347 0.48723 0.0
C438 C 0.2612 0.17392 0.45446 0.0
C439 C 0.24248 0.18372 0.46191 0.0
C440 C 0.27456 0.1759 0.41331 0.0
C441 C 0.28655 0.15213 0.48034 0.0
C442 C 0.29826 0.17982 0.41443 0.0
C443 C 0.30937 0.18519 0.37674 0.0
C444 C 0.29671 0.18703 0.33795 0.0
C445 C 0.27353 0.18218 0.33615 0.0
C446 C 0.26262 0.17653 0.37335 0.0
H447 H 0.28375 0.14197 0.5008 0.0
H448 H 0.28776 0.14867 0.44552 0.0
H449 H 0.30339 0.15718 0.49015 0.0
H450 H 0.30772 0.17979 0.44503 0.0
H451 H 0.3272 0.18904 0.37886 0.0
H452 H 0.15709 0.94137 0.6882 0.0
H453 H 0.16485 0.96692 0.71448 0.0
H454 H 0.09389 0.97926 0.68675 0.0
H455 H 0.08622 0.95399 0.65949 0.0
H456 H 0.1244 1.00086 0.66108 0.0
H457 H 0.14302 0.98297 0.83174 0.0
H458 H 0.1612 0.97462 0.79064 0.0
H459 H 0.13064 0.97043 0.79171 0.0
C460 C 0.14321 0.94958 0.6875 0.0
C461 C 0.12101 0.94567 0.67204 0.0
C462 C 0.14762 0.96413 0.70278 0.0
C463 C 0.12983 0.97492 0.7033 0.0
C464 C 0.10786 0.97111 0.68677 0.0
H465 H 0.10205 0.05253 0.85492 0.0
H466 H 0.10777 0.02756 0.82389 0.0
C467 C 0.10349 0.95665 0.67126 0.0
C468 C 0.13366 0.99015 0.7217 0.0
H469 H 0.14501 0.00886 0.81684 0.0
C470 C 0.12913 0.00264 0.69504 0.0
C471 C 0.13963 0.9924 0.76612 0.0
C472 C 0.14373 0.97942 0.79692 0.0
C473 C 0.12967 0.0173 0.71184 0.0
C474 C 0.1355 0.01956 0.75634 0.0
C475 C 0.14074 0.0071 0.78267 0.0
C476 C 0.13392 0.03457 0.77722 0.0
C477 C 0.12282 0.03016 0.68233 0.0
C478 C 0.14719 0.04676 0.76214 0.0
C479 C 0.1438 0.06113 0.77964 0.0
C480 C 0.12728 0.06347 0.81284 0.0
C481 C 0.11487 0.0511 0.82929 0.0
C482 C 0.11814 0.03681 0.81163 0.0
H483 H 0.11398 0.02618 0.65217 0.0
H484 H 0.11107 0.03807 0.6996 0.0
H485 H 0.13864 0.03641 0.67237 0.0
H486 H 0.15984 0.04523 0.7363 0.0
H487 H 0.15372 0.07044 0.76652 0.0
H488 H 0.263 0.81463 0.14635 0.0
H489 H 0.24904 0.82606 0.07937 0.0
H490 H 0.31532 0.84787 0.06109 0.0
H491 H 0.32974 0.83611 0.12888 0.0
H492 H 0.24505 0.85571 0.04783 0.0
H493 H 0.30819 0.82139 0.95175 0.0
H494 H 0.30309 0.81781 0.009 0.0
H495 H 0.31924 0.8341 0.99245 0.0
C496 C 0.27465 0.82195 0.12842 0.0
C497 C 0.29763 0.82426 0.14244 0.0
C498 C 0.26654 0.8286 0.09025 0.0
C499 C 0.28117 0.83769 0.06499 0.0
C500 C 0.30382 0.84073 0.07992 0.0
H501 H 0.23829 0.8374 0.79315 0.0
H502 H 0.25747 0.84917 0.85566 0.0
C503 C 0.31201 0.83405 0.11858 0.0
C504 C 0.27289 0.84237 0.02117 0.0
H505 H 0.27622 0.83104 0.91489 0.0
C506 C 0.25221 0.85071 0.01842 0.0
C507 C 0.28232 0.83592 0.9828 0.0
C508 C 0.30438 0.82674 0.98378 0.0
C509 C 0.2397 0.85166 0.9791 0.0
C510 C 0.24796 0.84393 0.94186 0.0
C511 C 0.2698 0.8369 0.94356 0.0
C512 C 0.23299 0.84074 0.90344 0.0
C513 C 0.21722 0.86035 0.97839 0.0
C514 C 0.21222 0.83265 0.90923 0.0
C515 C 0.20116 0.82594 0.87352 0.0
C516 C 0.21087 0.82706 0.83151 0.0
C517 C 0.23045 0.83628 0.82521 0.0
C518 C 0.24145 0.84303 0.86091 0.0
H519 H 0.21792 0.86998 0.00145 0.0
H520 H 0.21322 0.86462 0.94511 0.0
H521 H 0.20284 0.85289 0.98907 0.0
H522 H 0.20559 0.83043 0.94175 0.0
H523 H 0.18616 0.81887 0.87942 0.0
H524 H 0.33671 0.0652 0.19717 0.0
H525 H 0.3258 0.04033 0.22488 0.0
H526 H 0.39068 0.02229 0.17752 0.0
H527 H 0.40118 0.04687 0.14831 0.0
H528 H 0.35641 0.00308 0.16296 0.0
H529 H 0.35139 0.02267 0.33524 0.0
H530 H 0.33165 0.03192 0.29871 0.0
H531 H 0.36248 0.03436 0.29188 0.0
C532 C 0.34852 0.05588 0.19236 0.0
C533 C 0.36987 0.058 0.17083 0.0
C534 C 0.34235 0.0417 0.20852 0.0
C535 C 0.35765 0.02948 0.20422 0.0
C536 C 0.37861 0.03153 0.18142 0.0
H537 H 0.3831 0.95231 0.35743 0.0
H538 H 0.37799 0.97712 0.32541 0.0
C539 C 0.38461 0.04561 0.16476 0.0
C540 C 0.35247 0.01463 0.22434 0.0
H541 H 0.34394 0.9971 0.32247 0.0
C542 C 0.35349 0.00177 0.1978 0.0
C543 C 0.34881 0.01292 0.2699 0.0
C544 C 0.34871 0.02616 0.30072 0.0
C545 C 0.35192 0.98726 0.21564 0.0
C546 C 0.34842 0.98554 0.26124 0.0
C547 C 0.34645 0.99842 0.28751 0.0
C548 C 0.34958 0.97062 0.28304 0.0
C549 C 0.35537 0.97395 0.18575 0.0
C550 C 0.33484 0.95872 0.27094 0.0
C551 C 0.33795 0.94437 0.28892 0.0
C552 C 0.35558 0.94178 0.31983 0.0
C553 C 0.36938 0.95391 0.33364 0.0
C554 C 0.36646 0.96814 0.31536 0.0
H555 H 0.36307 0.97727 0.15385 0.0
H556 H 0.36687 0.96545 0.20113 0.0
H557 H 0.33831 0.96861 0.17912 0.0
H558 H 0.32128 0.96043 0.24694 0.0
H559 H 0.32696 0.93525 0.27786 0.0
H560 H 0.81922 0.83282 0.36166 0.0
H561 H 0.80817 0.84171 0.43499 0.0
H562 H 0.73655 0.83088 0.40795 0.0
H563 H 0.74733 0.82216 0.33522 0.0
H564 H 0.74319 0.85786 0.4597 0.0
H565 H 0.79084 0.80777 0.52249 0.0
H566 H 0.80684 0.82098 0.48971 0.0
H567 H 0.78413 0.81 0.46526 0.0
C568 C 0.80107 0.83273 0.37106 0.0
C569 C 0.78417 0.8266 0.34308 0.0
C570 C 0.79479 0.83775 0.41292 0.0
C571 C 0.77158 0.83675 0.42702 0.0
C572 C 0.75454 0.83174 0.39775 0.0
H573 H 0.67884 0.82722 0.63685 0.0
H574 H 0.69819 0.83617 0.57059 0.0
C575 C 0.76077 0.82668 0.35626 0.0
C576 C 0.7651 0.83885 0.47351 0.0
H577 H 0.76701 0.82054 0.57131 0.0
C578 C 0.74874 0.84992 0.48449 0.0
C579 C 0.77232 0.82844 0.50568 0.0
C580 C 0.78939 0.81605 0.49544 0.0
C581 C 0.73878 0.85053 0.52648 0.0
C582 C 0.74497 0.83955 0.55783 0.0
C583 C 0.76225 0.829 0.5474 0.0
C584 C 0.7324 0.83763 0.59997 0.0
C585 C 0.72151 0.86278 0.53648 0.0
C586 C 0.74498 0.83568 0.63889 0.0
C587 C 0.73402 0.83022 0.67641 0.0
C588 C 0.7102 0.82679 0.67592 0.0
C589 C 0.69717 0.82993 0.63822 0.0
C590 C 0.70824 0.83514 0.60035 0.0
H591 H 0.72531 0.87306 0.51711 0.0
H592 H 0.70383 0.85891 0.52732 0.0
H593 H 0.72151 0.86574 0.57176 0.0
H594 H 0.7636 0.83751 0.63949 0.0
H595 H 0.74445 0.82793 0.70515 0.0
H596 H 0.86318 0.06613 0.24698 0.0
H597 H 0.85866 0.04077 0.21734 0.0
H598 H 0.88591 0.02219 0.33707 0.0
H599 H 0.89095 0.04752 0.3665 0.0
H600 H 0.90805 0.01142 0.26602 0.0
H601 H 0.81286 0.00709 0.2411 0.0
H602 H 0.82555 0.02333 0.21578 0.0
H603 H 0.82592 0.02156 0.27438 0.0
C604 C 0.86782 0.05663 0.26727 0.0
C605 C 0.87745 0.05881 0.30905 0.0
C606 C 0.8651 0.04213 0.25037 0.0
C607 C 0.8717 0.02956 0.27516 0.0
C608 C 0.88064 0.03172 0.31742 0.0
H609 H 0.85342 0.93482 0.21634 0.0
H610 H 0.84944 0.96048 0.24425 0.0
C611 C 0.88348 0.0462 0.33422 0.0
C612 C 0.87129 0.01427 0.25576 0.0
H613 H 0.83615 0.98811 0.20759 0.0
C614 C 0.89229 0.0063 0.25344 0.0
C615 C 0.8507 0.00756 0.23965 0.0
C616 C 0.82743 0.01525 0.24318 0.0
C617 C 0.89336 0.99189 0.23509 0.0
C618 C 0.87294 0.98538 0.21759 0.0
C619 C 0.85183 0.99322 0.22046 0.0
C620 C 0.87323 0.97024 0.19736 0.0
C621 C 0.91629 0.98366 0.23538 0.0
C622 C 0.88726 0.96733 0.16076 0.0
C623 C 0.88966 0.95269 0.14492 0.0
C624 C 0.87788 0.94073 0.16513 0.0
C625 C 0.86276 0.94381 0.20014 0.0
C626 C 0.86046 0.95845 0.21612 0.0
H627 H 0.92854 0.98848 0.25972 0.0
H628 H 0.91379 0.97156 0.24286 0.0
H629 H 0.92448 0.98459 0.20262 0.0
H630 H 0.89688 0.97633 0.14522 0.0
H631 H 0.9013 0.95069 0.11769 0.0
H632 H 0.67758 0.16265 0.87631 0.0
H633 H 0.69466 0.15133 0.94246 0.0
H634 H 0.76077 0.1715 0.91083 0.0
H635 H 0.74423 0.18233 0.84514 0.0
H636 H 0.76602 0.14315 0.94459 0.0
H637 H 0.70688 0.17776 0.04836 0.0
H638 H 0.69376 0.16462 0.01124 0.0
H639 H 0.70906 0.18065 0.99016 0.0
C640 C 0.69583 0.16441 0.88326 0.0
C641 C 0.70947 0.17356 0.85593 0.0
C642 C 0.70554 0.15802 0.92111 0.0
C643 C 0.72893 0.16079 0.932 0.0
C644 C 0.74272 0.1692 0.90324 0.0
H645 H 0.82936 0.17894 0.11138 0.0
H646 H 0.80807 0.16868 0.04921 0.0
C647 C 0.73314 0.17549 0.86574 0.0
C648 C 0.73907 0.15638 0.97478 0.0
H649 H 0.73918 0.16713 0.0819 0.0
C650 C 0.75984 0.14807 0.9749 0.0
C651 C 0.73097 0.16274 0.0144 0.0
C652 C 0.70904 0.17201 0.01636 0.0
C653 C 0.7736 0.14694 0.0127 0.0
C654 C 0.76644 0.15437 0.05124 0.0
C655 C 0.74468 0.16149 0.05221 0.0
C656 C 0.78245 0.15703 0.0885 0.0
C657 C 0.79616 0.13838 0.01051 0.0
C658 C 0.77561 0.15352 0.13137 0.0
C659 C 0.78781 0.15939 0.16706 0.0
C660 C 0.80685 0.16905 0.16041 0.0
C661 C 0.81481 0.17151 0.11757 0.0
C662 C 0.80269 0.16557 0.08193 0.0
H663 H 0.79525 0.12925 0.98579 0.0
H664 H 0.8103 0.14615 0.00058 0.0
H665 H 0.80071 0.13344 0.04274 0.0
H666 H 0.75998 0.14702 0.13719 0.0
H667 H 0.78122 0.1573 0.19969 0.0
H668 H 0.63458 0.9415 0.76738 0.0
H669 H 0.6437 0.96659 0.73908 0.0
H670 H 0.59614 0.98618 0.83196 0.0
H671 H 0.58683 0.9612 0.86018 0.0
H672 H 0.58822 0.99436 0.74422 0.0
H673 H 0.68068 0.00242 0.79145 0.0
H674 H 0.67392 0.98501 0.76449 0.0
H675 H 0.66203 0.98878 0.81765 0.0
C676 C 0.62635 0.95118 0.78221 0.0
C677 C 0.60993 0.94939 0.8159 0.0
C678 C 0.63168 0.9655 0.76617 0.0
C679 C 0.62074 0.97823 0.78369 0.0
C680 C 0.60484 0.97649 0.81814 0.0
H681 H 0.63674 0.07344 0.74081 0.0
H682 H 0.63903 0.0477 0.76882 0.0
C683 C 0.59954 0.96221 0.83421 0.0
C684 C 0.6241 0.99323 0.76369 0.0
H685 H 0.66404 0.02094 0.74528 0.0
C686 C 0.6048 1.00017 0.7444 0.0
C687 C 0.64573 1.00077 0.76425 0.0
C688 C 0.66679 0.99397 0.78584 0.0
C689 C 0.60647 0.01449 0.72566 0.0
C690 C 0.62817 0.02198 0.72554 0.0
C691 C 0.64751 0.01508 0.745 0.0
C692 C 0.63058 0.03727 0.70694 0.0
C693 C 0.58481 0.02163 0.70708 0.0
C694 C 0.62604 0.03987 0.6625 0.0
C695 C 0.62457 0.05453 0.6465 0.0
C696 C 0.62786 0.06684 0.67462 0.0
C697 C 0.63408 0.06418 0.7184 0.0
C698 C 0.63541 0.04949 0.73444 0.0
H699 H 0.56877 0.01593 0.71868 0.0
H700 H 0.58381 0.03369 0.7161 0.0
H701 H 0.58526 0.02083 0.67088 0.0
H702 H 0.62267 0.03056 0.64059 0.0
H703 H 0.61994 0.05623 0.61252 0.0
H704 H 0.83235 0.6856 0.88558 0.0
H705 H 0.81569 0.67701 0.95493 0.0
H706 H 0.75721 0.65822 0.88549 0.0
H707 H 0.77339 0.66747 0.8166 0.0
H708 H 0.7435 0.67846 0.94075 0.0
H709 H 0.80337 0.64092 0.0295 0.0
H710 H 0.81816 0.65749 0.01118 0.0
H711 H 0.80631 0.64457 0.97163 0.0
C712 C 0.81654 0.67899 0.88512 0.0
C713 C 0.80416 0.67706 0.84606 0.0
C714 C 0.807 0.67405 0.92475 0.0
C715 C 0.78518 0.66688 0.92555 0.0
C716 C 0.77404 0.66368 0.88577 0.0
H717 H 0.68795 0.67095 0.14924 0.0
H718 H 0.70573 0.66055 0.08264 0.0
C719 C 0.78333 0.66888 0.84642 0.0
C720 C 0.77198 0.66564 0.9672 0.0
H721 H 0.77661 0.65547 0.07455 0.0
C722 C 0.75046 0.67305 0.96971 0.0
C723 C 0.78107 0.65869 0.00509 0.0
C724 C 0.8034 0.64984 0.00409 0.0
C725 C 0.73855 0.67457 0.00944 0.0
C726 C 0.74824 0.6683 0.0478 0.0
C727 C 0.76918 0.66023 0.04505 0.0
C728 C 0.73863 0.67197 0.09148 0.0
C729 C 0.71652 0.68378 0.01053 0.0
C730 C 0.75158 0.68122 0.11938 0.0
C731 C 0.74155 0.6871 0.15716 0.0
C732 C 0.71834 0.68381 0.16793 0.0
C733 C 0.70581 0.67373 0.14157 0.0
C734 C 0.71592 0.66783 0.10353 0.0
H735 H 0.71336 0.68976 0.9792 0.0
H736 H 0.70148 0.67627 0.01679 0.0
H737 H 0.71724 0.6922 0.03727 0.0
H738 H 0.76911 0.68455 0.11073 0.0
H739 H 0.75175 0.69471 0.17704 0.0
H740 H 0.63216 0.54718 0.3777 0.0
H741 H 0.63735 0.52158 0.35062 0.0
H742 H 0.64941 0.53871 0.22062 0.0
H743 H 0.64453 0.5644 0.24761 0.0
H744 H 0.60742 0.51013 0.28895 0.0
H745 H 0.69856 0.50551 0.23119 0.0
H746 H 0.68907 0.52 0.26853 0.0
H747 H 0.6834 0.52171 0.21094 0.0
C748 C 0.6365 0.54553 0.34355 0.0
C749 C 0.63781 0.55778 0.31469 0.0
C750 C 0.63947 0.5309 0.32815 0.0
C751 C 0.64389 0.52825 0.28368 0.0
C752 C 0.64644 0.54051 0.25521 0.0
H753 H 0.60193 0.4526 0.12914 0.0
H754 H 0.61123 0.47741 0.1586 0.0
C755 C 0.64352 0.55518 0.27063 0.0
C756 C 0.64264 0.51274 0.26628 0.0
H757 H 0.6723 0.48624 0.20776 0.0
C758 C 0.6217 0.50486 0.27159 0.0
C759 C 0.66131 0.50589 0.2437 0.0
C760 C 0.68445 0.51364 0.23852 0.0
C761 C 0.6187 0.49046 0.25406 0.0
C762 C 0.63704 0.48382 0.23023 0.0
C763 C 0.65823 0.49147 0.22578 0.0
C764 C 0.63401 0.46901 0.20921 0.0
C765 C 0.59585 0.48246 0.26086 0.0
C766 C 0.64429 0.45616 0.2273 0.0
C767 C 0.63894 0.44194 0.21062 0.0
C768 C 0.62332 0.44042 0.17554 0.0
C769 C 0.61394 0.4534 0.15628 0.0
C770 C 0.61924 0.46758 0.17302 0.0
H771 H 0.58515 0.48788 0.28667 0.0
H772 H 0.58582 0.48261 0.22986 0.0
H773 H 0.5988 0.47054 0.26999 0.0
H774 H 0.6557 0.4571 0.25532 0.0
H775 H 0.64647 0.43212 0.22604 0.0
H776 H 0.7263 0.33968 0.29853 0.0
H777 H 0.74717 0.3489 0.36292 0.0
H778 H 0.69111 0.33363 0.4455 0.0
H779 H 0.66964 0.32519 0.38077 0.0
H780 H 0.71423 0.35817 0.48108 0.0
H781 H 0.77669 0.31417 0.42681 0.0
H782 H 0.77272 0.32942 0.38925 0.0
H783 H 0.74899 0.31684 0.40064 0.0
C784 C 0.71804 0.33893 0.33031 0.0
C785 C 0.69652 0.33167 0.33499 0.0
C786 C 0.73004 0.34406 0.36707 0.0
C787 C 0.72107 0.34145 0.40907 0.0
C788 C 0.69844 0.33565 0.41338 0.0
H789 H 0.75383 0.31621 0.65967 0.0
H790 H 0.7376 0.32815 0.59507 0.0
C791 C 0.68614 0.33088 0.37643 0.0
C792 C 0.73638 0.34233 0.44802 0.0
H793 H 0.78319 0.32509 0.49477 0.0
C794 C 0.72954 0.35114 0.48385 0.0
C795 C 0.7564 0.33312 0.45165 0.0
C796 C 0.7641 0.32275 0.41527 0.0
C797 C 0.74161 0.3505 0.52377 0.0
C798 C 0.76085 0.34073 0.52792 0.0
C799 C 0.76856 0.33268 0.49133 0.0
C800 C 0.77056 0.33646 0.57104 0.0
C801 C 0.73319 0.35991 0.56158 0.0
C802 C 0.7946 0.33719 0.57926 0.0
C803 C 0.80402 0.33029 0.61649 0.0
C804 C 0.78953 0.32231 0.64527 0.0
C805 C 0.76544 0.3222 0.63787 0.0
C806 C 0.75606 0.32921 0.60121 0.0
H807 H 0.72458 0.37032 0.54987 0.0
H808 H 0.72019 0.3534 0.58059 0.0
H809 H 0.74769 0.36301 0.58377 0.0
H810 H 0.80612 0.34256 0.55598 0.0
H811 H 0.82265 0.3305 0.62146 0.0
H812 H 0.8928 0.45363 0.87519 0.0
H813 H 0.88498 0.47855 0.84576 0.0
H814 H 0.83672 0.45947 0.75319 0.0
H815 H 0.84505 0.43433 0.78181 0.0
H816 H 0.86683 0.47713 0.71314 0.0
H817 H 0.83277 0.50796 0.85591 0.0
H818 H 0.8599 0.49918 0.86892 0.0
H819 H 0.83509 0.48774 0.85518 0.0
C820 C 0.88014 0.45475 0.84919 0.0
C821 C 0.86954 0.44201 0.8308 0.0
C822 C 0.87555 0.46906 0.83256 0.0
C823 C 0.85998 0.47096 0.79765 0.0
C824 C 0.8487 0.45829 0.7803 0.0
H825 H 0.83749 0.56352 0.70509 0.0
H826 H 0.82962 0.53804 0.73185 0.0
C827 C 0.85342 0.44394 0.79675 0.0
C828 C 0.85754 0.48591 0.77648 0.0
H829 H 0.85004 0.52318 0.7987 0.0
C830 C 0.86273 0.48716 0.73173 0.0
C831 C 0.85183 0.49902 0.80039 0.0
C832 C 0.84433 0.49838 0.84764 0.0
C833 C 0.86366 0.50119 0.7109 0.0
C834 C 0.85987 0.51438 0.7357 0.0
C835 C 0.85333 0.51309 0.77981 0.0
C836 C 0.86402 0.52958 0.71729 0.0
C837 C 0.86893 0.50173 0.66257 0.0
C838 C 0.88598 0.53332 0.70044 0.0
C839 C 0.89045 0.54778 0.68495 0.0
C840 C 0.87315 0.55889 0.68649 0.0
C841 C 0.85113 0.55517 0.7033 0.0
C842 C 0.84663 0.54063 0.71866 0.0
H843 H 0.86347 0.49119 0.64602 0.0
H844 H 0.86011 0.51135 0.64651 0.0
H845 H 0.88796 0.50296 0.65783 0.0
H846 H 0.89987 0.52512 0.70012 0.0
H847 H 0.90765 0.55033 0.67258 0.0
H848 H 0.27374 0.30804 0.85225 0.0
H849 H 0.25725 0.31852 0.91808 0.0
H850 H 0.31126 0.35214 0.92181 0.0
H851 H 0.32861 0.34121 0.8552 0.0
H852 H 0.30575 0.34013 -0.0002 0.0
H853 H 0.21842 0.35427 0.94302 0.0
H854 H 0.22409 0.33552 0.92502 0.0
H855 H 0.24189 0.35079 0.90508 0.0
C856 C 0.28209 0.31779 0.86651 0.0
C857 C 0.3025 0.32382 0.84837 0.0
C858 C 0.27238 0.32393 0.90404 0.0
C859 C 0.28248 0.33646 0.92425 0.0
C860 C 0.3029 0.34263 0.90629 0.0
H861 H 0.19485 0.33857 0.15754 0.0
H862 H 0.21547 0.35112 0.0972 0.0
C863 C 0.31282 0.33637 0.86842 0.0
C864 C 0.27275 0.3416 0.96668 0.0
H865 H 0.22019 0.34284 0.01789 0.0
C866 C 0.2871 0.34127 0.00374 0.0
C867 C 0.24856 0.34382 0.97226 0.0
C868 C 0.23249 0.34631 0.934 0.0
C869 C 0.27753 0.34088 0.04597 0.0
C870 C 0.25306 0.34019 0.05094 0.0
C871 C 0.23894 0.34279 0.01431 0.0
C872 C 0.24208 0.33403 0.09118 0.0
C873 C 0.29379 0.34039 0.0846 0.0
C874 C 0.24997 0.32024 0.10768 0.0
C875 C 0.23842 0.31319 0.14201 0.0
C876 C 0.21831 0.31956 0.16023 0.0
C877 C 0.21032 0.33341 0.14408 0.0
C878 C 0.22213 0.3406 0.10977 0.0
H879 H 0.30904 0.34779 0.0788 0.0
H880 H 0.28506 0.34395 0.1153 0.0
H881 H 0.30048 0.32878 0.08873 0.0
H882 H 0.26462 0.31454 0.0929 0.0
H883 H 0.24494 0.30247 0.15339 0.0
H884 H 0.37526 0.44296 0.61508 0.0
H885 H 0.3731 0.46844 0.64478 0.0
H886 H 0.35078 0.45068 0.76911 0.0
H887 H 0.35257 0.42514 0.73943 0.0
H888 H 0.3279 0.4778 0.74449 0.0
H889 H 0.42392 0.48212 0.73083 0.0
H890 H 0.40943 0.47768 0.68044 0.0
H891 H 0.40862 0.46454 0.72505 0.0
C892 C 0.36947 0.44449 0.6485 0.0
C893 C 0.36429 0.43204 0.67506 0.0
C894 C 0.36837 0.45905 0.66548 0.0
C895 C 0.36227 0.46141 0.7094 0.0
C896 C 0.35567 0.44909 0.7352 0.0
H897 H 0.40209 0.53924 0.86266 0.0
H898 H 0.39493 0.51383 0.83532 0.0
C899 C 0.35668 0.43451 0.71818 0.0
C900 C 0.36436 0.47657 0.72917 0.0
H901 H 0.40385 0.50406 0.75245 0.0
C902 C 0.34448 0.48356 0.7463 0.0
C903 C 0.3861 0.48394 0.73218 0.0
C904 C 0.4083 0.47666 0.71655 0.0
C905 C 0.34571 0.49787 0.76566 0.0
C906 C 0.36735 0.50542 0.76742 0.0
C907 C 0.38725 0.49831 0.75086 0.0
C908 C 0.36996 0.52069 0.78634 0.0
C909 C 0.32394 0.50466 0.78473 0.0
C910 C 0.35821 0.533 0.76806 0.0
C911 C 0.36222 0.54754 0.78375 0.0
C912 C 0.3782 0.55004 0.81775 0.0
C913 C 0.38965 0.53768 0.83648 0.0
C914 C 0.38559 0.52315 0.82086 0.0
H915 H 0.31052 0.49599 0.79145 0.0
H916 H 0.32778 0.51077 0.81557 0.0
H917 H 0.31655 0.5128 0.76103 0.0
H918 H 0.34645 0.53143 0.74079 0.0
H919 H 0.35324 0.55685 0.76847 0.0
H920 H 0.24227 0.66957 0.33447 0.0
H921 H 0.25343 0.6627 0.40862 0.0
H922 H 0.18131 0.66217 0.44712 0.0
H923 H 0.16998 0.6692 0.37252 0.0
H924 H 0.20782 0.68238 0.49253 0.0
H925 H 0.25231 0.62741 0.49302 0.0
H926 H 0.26277 0.63949 0.45037 0.0
H927 H 0.23305 0.63317 0.44946 0.0
C928 C 0.22871 0.6675 0.35833 0.0
C929 C 0.20526 0.67005 0.34786 0.0
C930 C 0.23512 0.66343 0.4007 0.0
C931 C 0.21822 0.66179 0.43341 0.0
C932 C 0.19462 0.66324 0.42224 0.0
H933 H 0.24436 0.67855 0.71028 0.0
H934 H 0.22572 0.66791 0.64543 0.0
C935 C 0.18816 0.66724 0.37964 0.0
C936 C 0.22554 0.66156 0.47991 0.0
H937 H 0.26264 0.64451 0.55163 0.0
C938 C 0.21934 0.6739 0.50588 0.0
C939 C 0.24086 0.65061 0.49697 0.0
C940 C 0.24747 0.63685 0.47109 0.0
C941 C 0.22903 0.67609 0.54741 0.0
C942 C 0.2449 0.66536 0.56411 0.0
C943 C 0.25045 0.65269 0.53885 0.0
C944 C 0.25705 0.6679 0.60627 0.0
C945 C 0.22326 0.69038 0.57176 0.0
C946 C 0.28121 0.67021 0.6069 0.0
C947 C 0.29203 0.67595 0.64438 0.0
C948 C 0.27872 0.67959 0.68138 0.0
C949 C 0.25495 0.67598 0.68195 0.0
C950 C 0.24427 0.66997 0.64488 0.0
H951 H 0.21522 0.69894 0.55009 0.0
H952 H 0.21071 0.68783 0.59829 0.0
H953 H 0.23908 0.69535 0.58673 0.0
H954 H 0.29142 0.66859 0.5775 0.0
H955 H 0.31036 0.67868 0.64312 0.0
H956 H 0.1475 0.43605 0.25995 0.0
H957 H 0.15398 0.46126 0.23018 0.0
H958 H 0.11703 0.48046 0.33941 0.0
H959 H 0.11031 0.45533 0.36914 0.0
H960 H 0.10045 0.48955 0.25793 0.0
H961 H 0.19627 0.49639 0.26803 0.0
H962 H 0.18653 0.47933 0.24248 0.0
H963 H 0.18062 0.48247 0.29943 0.0
C964 C 0.14111 0.44566 0.278 0.0
C965 C 0.12835 0.44371 0.31684 0.0
C966 C 0.14494 0.46006 0.26106 0.0
C967 C 0.13617 0.47274 0.28278 0.0
C968 C 0.12403 0.47083 0.32223 0.0
H969 H 0.14673 0.56818 0.23528 0.0
H970 H 0.1523 0.54255 0.26244 0.0
C971 C 0.12022 0.45646 0.33918 0.0
C972 C 0.13768 0.48786 0.26255 0.0
H973 H 0.17553 0.51509 0.22855 0.0
C974 C 0.11687 0.49513 0.25155 0.0
C975 C 0.15912 0.49514 0.25445 0.0
C976 C 0.18194 0.48803 0.267 0.0
C977 C 0.11688 0.50945 0.23249 0.0
C978 C 0.1383 0.51663 0.2236 0.0
C979 C 0.15916 0.50946 0.23494 0.0
C980 C 0.139 0.53186 0.20409 0.0
C981 C 0.0939 0.51691 0.2227 0.0
C982 C 0.13066 0.53428 0.16155 0.0
C983 C 0.12748 0.54889 0.14593 0.0
C984 C 0.13261 0.56132 0.17261 0.0
C985 C 0.14259 0.55884 0.21397 0.0
C986 C 0.14578 0.54421 0.22956 0.0
H987 H 0.0792 0.51124 0.23952 0.0
H988 H 0.09421 0.52889 0.23279 0.0
H989 H 0.09063 0.51649 0.18696 0.0
H990 H 0.12558 0.52487 0.14123 0.0
H991 H 0.11983 0.55043 0.11387 0.0
H992 H 0.15326 0.15262 0.87032 0.0
H993 H 0.17851 0.16866 0.91516 0.0
H994 H 0.19361 0.13097 -0.00094 0.0
H995 H 0.16909 0.11489 0.95408 0.0
H996 H 0.17253 0.17519 0.00194 0.0
H997 H 0.2575 0.1473 0.97882 0.0
H998 H 0.23248 0.14229 0.94636 0.0
H999 H 0.2363 0.13455 0.00031 0.0
C1000 C 0.16238 0.14771 0.8978 0.0
C1001 C 0.15933 0.13247 0.90853 0.0
C1002 C 0.17671 0.15689 0.92343 0.0
C1003 C 0.18824 0.15095 0.96003 0.0
C1004 C 0.1854 0.13571 0.97034 0.0
H1005 H 0.26719 0.17654 0.1814 0.0
H1006 H 0.24192 0.16528 0.12666 0.0
C1007 C 0.17127 0.12654 0.94468 0.0
C1008 C 0.20189 0.1608 0.98949 0.0
H1009 H 0.25413 0.16364 0.04134 0.0
C1010 C 0.19055 0.1729 0.00991 0.0
C1011 C 0.22524 0.15757 0.00054 0.0
C1012 C 0.23859 0.14478 0.98001 0.0
C1013 C 0.20159 0.1814 0.04258 0.0
C1014 C 0.22484 0.17809 0.05372 0.0
C1015 C 0.23638 0.16631 0.03231 0.0
C1016 C 0.23712 0.1858 0.08988 0.0
C1017 C 0.18786 0.19305 0.0673 0.0
C1018 C 0.24211 0.20126 0.08833 0.0
C1019 C 0.25634 0.20784 0.12031 0.0
C1020 C 0.26609 0.1989 0.15339 0.0
C1021 C 0.26005 0.18365 0.15599 0.0
C1022 C 0.24566 0.17719 0.12468 0.0
H1023 H 0.16909 0.19275 0.05892 0.0
H1024 H 0.18977 0.19131 0.10309 0.0
H1025 H 0.19474 0.20437 0.05962 0.0
H1026 H 0.23604 0.20806 0.06129 0.0
H1027 H 0.26094 0.21959 0.11747 0.0
H1028 H 0.26027 0.79175 0.36652 0.0
H1029 H 0.23353 0.80277 0.42065 0.0
H1030 H 0.23238 0.8441 0.34703 0.0
H1031 H 0.25929 0.83336 0.29397 0.0
H1032 H 0.24728 0.84679 0.4346 0.0
H1033 H 0.16369 0.8155 0.42209 0.0
H1034 H 0.19057 0.80545 0.41366 0.0
H1035 H 0.18168 0.81931 0.37497 0.0
C1036 C 0.2537 0.80302 0.36139 0.0
C1037 C 0.26182 0.81177 0.32634 0.0
C1038 C 0.23845 0.80928 0.39217 0.0
C1039 C 0.2309 0.82422 0.38753 0.0
C1040 C 0.23795 0.83256 0.35104 0.0
H1041 H 0.16401 0.8941 0.52933 0.0
H1042 H 0.18732 0.87818 0.48163 0.0
C1043 C 0.25332 0.82642 0.32083 0.0
C1044 C 0.21836 0.83196 0.42315 0.0
H1045 H 0.16641 0.83408 0.4766 0.0
C1046 C 0.22978 0.84379 0.44446 0.0
C1047 C 0.19536 0.82827 0.43501 0.0
C1048 C 0.18189 0.81649 0.41034 0.0
C1049 C 0.2191 0.85177 0.47835 0.0
C1050 C 0.19584 0.84839 0.48956 0.0
C1051 C 0.18435 0.83653 0.46829 0.0
C1052 C 0.18255 0.85801 0.52015 0.0
C1053 C 0.23294 0.86368 0.5019 0.0
C1054 C 0.17189 0.85191 0.55743 0.0
C1055 C 0.15841 0.86102 0.58482 0.0
C1056 C 0.15527 0.87632 0.57501 0.0
C1057 C 0.16628 0.88239 0.538 0.0
C1058 C 0.17967 0.87331 0.51075 0.0
H1059 H 0.25188 0.86127 0.50041 0.0
H1060 H 0.22997 0.87469 0.48589 0.0
H1061 H 0.22769 0.86458 0.53676 0.0
H1062 H 0.17379 0.84011 0.56505 0.0
H1063 H 0.14996 0.85601 0.61292 0.0
H1064 H 0.33464 0.88246 0.47933 0.0
H1065 H 0.31921 0.86269 0.52657 0.0
H1066 H 0.31174 0.83346 0.41513 0.0
H1067 H 0.32802 0.85308 0.36751 0.0
H1068 H 0.27379 0.833 0.47485 0.0
H1069 H 0.3582 0.82456 0.55626 0.0
H1070 H 0.34764 0.84329 0.5649 0.0
H1071 H 0.35495 0.83721 0.51057 0.0
C1072 C 0.3295 0.87189 0.46469 0.0
C1073 C 0.33272 0.86928 0.41974 0.0
C1074 C 0.32087 0.86057 0.49182 0.0
C1075 C 0.31507 0.84647 0.47449 0.0
C1076 C 0.31671 0.84415 0.42919 0.0
H1077 H 0.24389 0.77449 0.61883 0.0
H1078 H 0.26604 0.78619 0.55974 0.0
C1079 C 0.32582 0.85539 0.40205 0.0
C1080 C 0.30759 0.83418 0.50404 0.0
H1081 H 0.32494 0.81349 0.59207 0.0
C1082 C 0.28486 0.8287 0.50048 0.0
C1083 C 0.32237 0.82843 0.53699 0.0
C1084 C 0.34721 0.83359 0.5421 0.0
C1085 C 0.27582 0.81845 0.53096 0.0
C1086 C 0.29047 0.81287 0.5646 0.0
C1087 C 0.31366 0.81777 0.56654 0.0
C1088 C 0.28144 0.80335 0.6008 0.0
C1089 C 0.25031 0.81449 0.52816 0.0
C1090 C 0.2847 0.80802 0.64426 0.0
C1091 C 0.2728 0.80096 0.67829 0.0
C1092 C 0.25703 0.78931 0.66934 0.0
C1093 C 0.25576 0.78355 0.62662 0.0
C1094 C 0.26808 0.79043 0.59266 0.0
H1095 H 0.24044 0.82282 0.50876 0.0
H1096 H 0.24833 0.80345 0.51175 0.0
H1097 H 0.24224 0.81386 0.56108 0.0
H1098 H 0.29516 0.81781 0.65167 0.0
H1099 H 0.27425 0.80564 0.71088 0.0
H1100 H 0.25247 0.21868 0.86184 0.0
H1101 H 0.28171 0.20857 0.91312 0.0
H1102 H 0.24474 0.16651 0.91651 0.0
H1103 H 0.21575 0.17633 0.86713 0.0
H1104 H 0.27653 0.19441 0.00048 0.0
H1105 H 0.31072 0.15535 0.87553 0.0
H1106 H 0.29314 0.17146 0.86172 0.0
H1107 H 0.27968 0.15433 0.88023 0.0
C1108 C 0.25053 0.20734 0.87413 0.0
C1109 C 0.23197 0.19824 0.86009 0.0
C1110 C 0.26718 0.2016 0.90333 0.0
C1111 C 0.26544 0.18672 0.91825 0.0
C1112 C 0.24645 0.17796 0.9054 0.0
H1113 H 0.32228 0.11557 0.06423 0.0
H1114 H 0.30008 0.13373 0.02105 0.0
C1115 C 0.2299 0.18362 0.87687 0.0
C1116 C 0.28348 0.17976 0.94611 0.0
H1117 H 0.3178 0.14861 0.95052 0.0
C1118 C 0.28604 0.18459 0.98949 0.0
C1119 C 0.29593 0.16703 0.93147 0.0
C1120 C 0.29493 0.16183 0.88453 0.0
C1121 C 0.29956 0.17637 0.01946 0.0
C1122 C 0.31046 0.16294 0.00555 0.0
C1123 C 0.309 0.1587 0.96146 0.0
C1124 C 0.32248 0.15259 0.03611 0.0
C1125 C 0.3011 0.18168 0.06615 0.0
C1126 C 0.34217 0.15719 0.05958 0.0
C1127 C 0.35455 0.14691 0.08505 0.0
C1128 C 0.34781 0.13174 0.08652 0.0
C1129 C 0.32784 0.12719 0.06372 0.0
C1130 C 0.31522 0.13755 0.03898 0.0
H1131 H 0.28946 0.19133 0.07237 0.0
H1132 H 0.29673 0.1724 0.08899 0.0
H1133 H 0.31904 0.18544 0.07329 0.0
H1134 H 0.34855 0.16856 0.05684 0.0
H1135 H 0.37007 0.15069 0.10183 0.0
H1136 H 0.82223 0.88106 0.07438 0.0
H1137 H 0.79827 0.86305 0.03404 0.0
H1138 H 0.84828 0.82821 0.06011 0.0
H1139 H 0.87197 0.84597 0.10185 0.0
H1140 H 0.81423 0.84796 0.95967 0.0
H1141 H 0.78719 0.80697 0.08738 0.0
H1142 H 0.79775 0.8256 0.10093 0.0
H1143 H 0.81748 0.81128 0.08358 0.0
C1144 C 0.82787 0.86948 0.07234 0.0
C1145 C 0.84893 0.86491 0.0913 0.0
C1146 C 0.8142 0.85921 0.04926 0.0
C1147 C 0.82141 0.84424 0.04459 0.0
C1148 C 0.84215 0.83958 0.06437 0.0
H1149 H 0.75968 0.78981 0.83463 0.0
H1150 H 0.78891 0.7978 0.88862 0.0
C1151 C 0.8557 0.84978 0.08792 0.0
C1152 C 0.80819 0.83395 0.01587 0.0
H1153 H 0.77507 0.80208 0.01513 0.0
C1154 C 0.80583 0.83786 0.97168 0.0
C1155 C 0.79745 0.82072 0.03166 0.0
C1156 C 0.79985 0.81588 0.07858 0.0
C1157 C 0.7924 0.82917 0.94309 0.0
C1158 C 0.78117 0.81616 0.9591 0.0
C1159 C 0.78397 0.81198 0.003 0.0
C1160 C 0.76391 0.8082 0.93198 0.0
C1161 C 0.78936 0.83435 0.89644 0.0
C1162 C 0.74028 0.81082 0.93978 0.0
C1163 C 0.72376 0.80647 0.90902 0.0
C1164 C 0.73059 0.79923 0.87027 0.0
C1165 C 0.75404 0.79537 0.86429 0.0
C1166 C 0.77069 0.79994 0.89496 0.0
H1167 H 0.79742 0.8455 0.89046 0.0
H1168 H 0.79749 0.82609 0.87399 0.0
H1169 H 0.77059 0.83503 0.88818 0.0
H1170 H 0.73475 0.81711 0.96826 0.0
H1171 H 0.70573 0.80944 0.91457 0.0
H1172 H 0.70907 0.16408 0.64848 0.0
H1173 H 0.7344 0.15407 0.59203 0.0
H1174 H 0.77815 0.19328 0.60141 0.0
H1175 H 0.75236 0.20364 0.65813 0.0
H1176 H 0.7691 0.18371 0.51406 0.0
H1177 H 0.79836 0.13652 0.61851 0.0
H1178 H 0.76732 0.1377 0.61423 0.0
H1179 H 0.78325 0.15263 0.64025 0.0
C1180 C 0.72404 0.17064 0.63861 0.0
C1181 C 0.72889 0.18459 0.65811 0.0
C1182 C 0.73853 0.16487 0.6063 0.0
C1183 C 0.75836 0.17279 0.59311 0.0
C1184 C 0.76298 0.18695 0.61146 0.0
H1185 H 0.86555 0.14787 0.40404 0.0
H1186 H 0.84053 0.16193 0.45402 0.0
C1187 C 0.74833 0.19282 0.64387 0.0
C1188 C 0.77436 0.16598 0.56087 0.0
H1189 H 0.80684 0.13458 0.54251 0.0
C1190 C 0.77761 0.17305 0.52034 0.0
C1191 C 0.7854 0.15209 0.56926 0.0
C1192 C 0.78362 0.14436 0.61308 0.0
C1193 C 0.79088 0.16625 0.48719 0.0
C1194 C 0.80132 0.15212 0.49516 0.0
C1195 C 0.79853 0.14529 0.53617 0.0
C1196 C 0.81535 0.14412 0.46181 0.0
C1197 C 0.79297 0.17407 0.44367 0.0
C1198 C 0.80974 0.12929 0.45029 0.0
C1199 C 0.82436 0.12105 0.42279 0.0
C1200 C 0.84468 0.12758 0.4059 0.0
C1201 C 0.8498 0.14262 0.41605 0.0
C1202 C 0.83544 0.15073 0.44433 0.0
H1203 H 0.77854 0.18207 0.43842 0.0
H1204 H 0.80921 0.18068 0.44329 0.0
H1205 H 0.79333 0.16595 0.41612 0.0
H1206 H 0.79436 0.12394 0.46358 0.0
H1207 H 0.82006 0.10947 0.41559 0.0
H1208 H 0.65945 0.12079 0.52341 0.0
H1209 H 0.6829 0.1375 0.47874 0.0
H1210 H 0.68075 0.17113 0.58027 0.0
H1211 H 0.65608 0.15453 0.62474 0.0
H1212 H 0.6731 0.18357 0.50392 0.0
H1213 H 0.7495 0.14676 0.48337 0.0
H1214 H 0.72384 0.13738 0.4653 0.0
H1215 H 0.72684 0.14244 0.52209 0.0
C1216 C 0.66426 0.13163 0.53667 0.0
C1217 C 0.65612 0.13628 0.5778 0.0
C1218 C 0.67786 0.14117 0.51115 0.0
C1219 C 0.68428 0.15542 0.52661 0.0
C1220 C 0.67631 0.1601 0.5679 0.0
H1221 H 0.77741 0.21655 0.3883 0.0
H1222 H 0.75112 0.207 0.44509 0.0
C1223 C 0.66229 0.15061 0.59331 0.0
C1224 C 0.69804 0.16563 0.49815 0.0
H1225 H 0.74452 0.16625 0.4289 0.0
C1226 C 0.68906 0.17994 0.48845 0.0
C1227 C 0.71887 0.1609 0.47762 0.0
C1228 C 0.7304 0.1461 0.48807 0.0
C1229 C 0.69976 0.18932 0.45737 0.0
C1230 C 0.71988 0.18426 0.43571 0.0
C1231 C 0.72919 0.17016 0.44605 0.0
C1232 C 0.7313 0.19306 0.40085 0.0
C1233 C 0.68915 0.20432 0.44663 0.0
C1234 C 0.7279 0.18898 0.35708 0.0
C1235 C 0.74256 0.19459 0.32453 0.0
C1236 C 0.76115 0.20413 0.33548 0.0
C1237 C 0.76323 0.20922 0.37887 0.0
C1238 C 0.74826 0.20379 0.41134 0.0
H1239 H 0.67186 0.20571 0.46213 0.0
H1240 H 0.70085 0.2134 0.45825 0.0
H1241 H 0.68721 0.20562 0.41069 0.0
H1242 H 0.71486 0.18071 0.34849 0.0
H1243 H 0.74047 0.19046 0.29145 0.0
H1244 H 0.62766 0.85996 0.8753 0.0
H1245 H 0.65369 0.84382 0.91801 0.0
H1246 H 0.6782 0.88245 0.98935 0.0
H1247 H 0.65231 0.89866 0.94701 0.0
H1248 H 0.71378 0.86096 0.95752 0.0
H1249 H 0.6413 0.83485 0.05176 0.0
H1250 H 0.6386 0.83606 0.99311 0.0
H1251 H 0.63834 0.85286 0.02523 0.0
C1252 C 0.63879 0.86503 0.89977 0.0
C1253 C 0.63791 0.88055 0.90802 0.0
C1254 C 0.65352 0.85579 0.92419 0.0
C1255 C 0.66758 0.86196 0.95703 0.0
C1256 C 0.66737 0.87751 0.96418 0.0
H1257 H 0.76377 0.84146 0.15815 0.0
H1258 H 0.73925 0.85192 0.10082 0.0
C1259 C 0.65259 0.88674 0.94 0.0
C1260 C 0.6821 0.85229 0.9851 0.0
H1261 H 0.67925 0.82821 0.07174 0.0
C1262 C 0.70629 0.85365 0.9822 0.0
C1263 C 0.67218 0.84279 0.01708 0.0
C1264 C 0.64619 0.8415 0.02243 0.0
C1265 C 0.72091 0.84608 0.0114 0.0
C1266 C 0.71101 0.83702 0.04466 0.0
C1267 C 0.68681 0.83512 0.04622 0.0
C1268 C 0.72528 0.83048 0.08021 0.0
C1269 C 0.7468 0.84809 0.00651 0.0
C1270 C 0.72471 0.81501 0.08917 0.0
C1271 C 0.73841 0.809 0.12275 0.0
C1272 C 0.75291 0.81841 0.14759 0.0
C1273 C 0.75287 0.83392 0.13934 0.0
C1274 C 0.73906 0.8399 0.10626 0.0
H1275 H 0.7523 0.85826 0.02476 0.0
H1276 H 0.75645 0.83833 0.01951 0.0
H1277 H 0.75166 0.84974 0.97166 0.0
H1278 H 0.714 0.80756 0.0697 0.0
H1279 H 0.73821 0.79699 0.12832 0.0
H1280 H 0.65049 0.64735 0.37524 0.0
H1281 H 0.67433 0.66391 0.42126 0.0
H1282 H 0.70118 0.62542 0.48985 0.0
H1283 H 0.67801 0.60883 0.44379 0.0
H1284 H 0.66947 0.66614 0.51067 0.0
H1285 H 0.7597 0.64984 0.46993 0.0
H1286 H 0.73545 0.64571 0.43445 0.0
H1287 H 0.74154 0.63392 0.48091 0.0
C1288 C 0.66191 0.64241 0.39943 0.0
C1289 C 0.6624 0.62678 0.4059 0.0
C1290 C 0.6754 0.65189 0.42573 0.0
C1291 C 0.68963 0.64592 0.45864 0.0
C1292 C 0.69073 0.63029 0.46405 0.0
H1293 H 0.76398 0.66817 0.68697 0.0
H1294 H 0.73978 0.65776 0.62889 0.0
C1295 C 0.67735 0.62081 0.43781 0.0
C1296 C 0.7016 0.65592 0.49019 0.0
H1297 H 0.75399 0.66191 0.53921 0.0
C1298 C 0.68806 0.66558 0.51613 0.0
C1299 C 0.72581 0.65502 0.49757 0.0
C1300 C 0.74151 0.64568 0.46892 0.0
C1301 C 0.69794 0.67379 0.5507 0.0
C1302 C 0.72191 0.67227 0.55939 0.0
C1303 C 0.73557 0.66303 0.5325 0.0
C1304 C 0.73304 0.67918 0.59808 0.0
C1305 C 0.68246 0.68315 0.57968 0.0
C1306 C 0.73653 0.69477 0.60091 0.0
C1307 C 0.75 0.70082 0.63485 0.0
C1308 C 0.76068 0.69125 0.66535 0.0
C1309 C 0.75602 0.67578 0.66374 0.0
C1310 C 0.74228 0.66981 0.63051 0.0
H1311 H 0.66408 0.68311 0.56857 0.0
H1312 H 0.68325 0.67884 0.61372 0.0
H1313 H 0.68874 0.69491 0.58028 0.0
H1314 H 0.72995 0.70212 0.57561 0.0
H1315 H 0.75357 0.71277 0.63512 0.0
H1316 H 0.64459 0.3531 0.11071 0.0
H1317 H 0.66982 0.33797 0.06321 0.0
H1318 H 0.68306 0.37687 0.98292 0.0
H1319 H 0.65841 0.39202 0.03026 0.0
H1320 H 0.66462 0.33263 0.97436 0.0
H1321 H 0.74807 0.36247 0.00278 0.0
H1322 H 0.72351 0.36462 0.03908 0.0
H1323 H 0.72444 0.37436 0.98761 0.0
C1324 C 0.6533 0.35847 0.08342 0.0
C1325 C 0.64975 0.37378 0.07444 0.0
C1326 C 0.66763 0.34982 0.05634 0.0
C1327 C 0.67879 0.35639 0.02023 0.0
C1328 C 0.67525 0.37167 0.01138 0.0
H1329 H 0.76549 0.33371 0.80554 0.0
H1330 H 0.73958 0.34459 0.85988 0.0
C1331 C 0.66103 0.38031 0.03837 0.0
C1332 C 0.69321 0.34722 0.99034 0.0
H1333 H 0.74702 0.34522 0.94409 0.0
C1334 C 0.68275 0.33519 0.9681 0.0
C1335 C 0.71669 0.35085 0.98168 0.0
C1336 C 0.72891 0.36369 0.00433 0.0
C1337 C 0.69488 0.32706 0.936 0.0
C1338 C 0.71837 0.33071 0.92737 0.0
C1339 C 0.72901 0.34241 0.95079 0.0
C1340 C 0.73191 0.32346 0.89192 0.0
C1341 C 0.68203 0.31543 0.90949 0.0
C1342 C 0.73581 0.30787 0.89107 0.0
C1343 C 0.75037 0.30156 0.85925 0.0
C1344 C 0.76153 0.31082 0.82861 0.0
C1345 C 0.75714 0.32632 0.82894 0.0
C1346 C 0.74239 0.33255 0.86005 0.0
H1347 H 0.66296 0.31585 0.91511 0.0
H1348 H 0.68547 0.31703 0.87405 0.0
H1349 H 0.68818 0.30407 0.91854 0.0
H1350 H 0.72842 0.30067 0.91597 0.0
H1351 H 0.75378 0.2896 0.85995 0.0
H1352 H 0.69767 0.32919 0.11922 0.0
H1353 H 0.72445 0.33845 0.06436 0.0
H1354 H 0.77337 0.30367 0.0975 0.0
H1355 H 0.74625 0.29413 0.15347 0.0
H1356 H 0.76958 0.34824 0.0909 0.0
H1357 H 0.77292 0.30527 0.95871 0.0
H1358 H 0.74707 0.30842 0.9912 0.0
H1359 H 0.77155 0.29907 0.01477 0.0
C1360 C 0.71391 0.32328 0.11445 0.0
C1361 C 0.71993 0.31099 0.14092 0.0
C1362 C 0.72916 0.32856 0.08273 0.0
C1363 C 0.75074 0.32168 0.07638 0.0
C1364 C 0.75657 0.30899 0.10144 0.0
H1365 H 0.86889 0.37131 0.98026 0.0
H1366 H 0.84224 0.35517 0.0207 0.0
C1367 C 0.74118 0.30363 0.13351 0.0
C1368 C 0.76802 0.32916 0.04791 0.0
H1369 H 0.79777 0.32624 0.95158 0.0
C1370 C 0.77589 0.34339 0.06059 0.0
C1371 C 0.77558 0.32298 0.00783 0.0
C1372 C 0.76636 0.30812 0.99186 0.0
C1373 C 0.79122 0.35165 0.03442 0.0
C1374 C 0.79974 0.34524 0.99515 0.0
C1375 C 0.79156 0.33105 0.982 0.0
C1376 C 0.81729 0.35319 0.96804 0.0
C1377 C 0.79728 0.36745 0.04841 0.0
C1378 C 0.81292 0.35664 0.92391 0.0
C1379 C 0.82858 0.36559 0.90019 0.0
C1380 C 0.84856 0.37135 0.92061 0.0
C1381 C 0.85334 0.36731 0.96405 0.0
C1382 C 0.83809 0.35811 0.98723 0.0
H1383 H 0.78363 0.37228 0.06994 0.0
H1384 H 0.81375 0.36727 0.06725 0.0
H1385 H 0.79951 0.37498 0.01977 0.0
H1386 H 0.79707 0.35285 0.9083 0.0
H1387 H 0.82466 0.36845 0.86657 0.0
H1388 H 0.76579 0.71282 0.33274 0.0
H1389 H 0.79391 0.7031 0.38667 0.0
H1390 H 0.73756 0.68366 0.46051 0.0
H1391 H 0.70978 0.69298 0.4069 0.0
H1392 H 0.77495 0.69648 0.51236 0.0
H1393 H 0.80347 0.65602 0.38417 0.0
H1394 H 0.80405 0.67571 0.3708 0.0
H1395 H 0.77673 0.66649 0.37982 0.0
C1396 C 0.75951 0.70682 0.3612 0.0
C1397 C 0.73579 0.70349 0.36567 0.0
C1398 C 0.7755 0.7012 0.39171 0.0
C1399 C 0.76776 0.6924 0.42703 0.0
C1400 C 0.74389 0.69024 0.43328 0.0
H1401 H 0.81836 0.61776 0.57358 0.0
H1402 H 0.79757 0.636 0.52769 0.0
C1403 C 0.72805 0.69559 0.40265 0.0
C1404 C 0.78416 0.68393 0.45489 0.0
H1405 H 0.81759 0.65225 0.45517 0.0
C1406 C 0.78498 0.68713 0.49973 0.0
C1407 C 0.79631 0.67134 0.43842 0.0
C1408 C 0.79512 0.66703 0.39074 0.0
C1409 C 0.79767 0.67805 0.52866 0.0
C1410 C 0.80917 0.66518 0.51243 0.0
C1411 C 0.80868 0.66212 0.46746 0.0
C1412 C 0.82099 0.6544 0.54183 0.0
C1413 C 0.79737 0.68166 0.57676 0.0
C1414 C 0.84091 0.6587 0.56495 0.0
C1415 C 0.85233 0.64851 0.59207 0.0
C1416 C 0.8445 0.63361 0.59537 0.0
C1417 C 0.82462 0.62922 0.57194 0.0
C1418 C 0.81285 0.63958 0.54558 0.0
H1419 H 0.78725 0.69195 0.58386 0.0
H1420 H 0.79002 0.67203 0.59518 0.0
H1421 H 0.81523 0.68347 0.58884 0.0
H1422 H 0.84797 0.66983 0.56114 0.0
H1423 H 0.8679 0.65213 0.60897 0.0
H1424 H 0.34353 0.34174 0.63933 0.0
H1425 H 0.32548 0.32127 0.59764 0.0
H1426 H 0.31261 0.35179 0.49087 0.0
H1427 H 0.33101 0.37209 0.53173 0.0
H1428 H 0.2861 0.3149 0.56414 0.0
H1429 H 0.34675 0.31938 0.42703 0.0
H1430 H 0.35119 0.3297 0.47712 0.0
H1431 H 0.33362 0.33747 0.4338 0.0
C1432 C 0.33683 0.34405 0.60693 0.0
C1433 C 0.33921 0.35841 0.5883 0.0
C1434 C 0.32663 0.33234 0.58309 0.0
C1435 C 0.31888 0.3348 0.54018 0.0
C1436 C 0.31957 0.34943 0.52305 0.0
H1437 H 0.21339 0.31305 0.38978 0.0
H1438 H 0.24133 0.31681 0.44806 0.0
C1439 C 0.32974 0.3611 0.54674 0.0
C1440 C 0.30933 0.32235 0.51334 0.0
H1441 H 0.30747 0.31006 0.40773 0.0
C1442 C 0.29097 0.31373 0.53019 0.0
C1443 C 0.31673 0.31985 0.46972 0.0
C1444 C 0.33838 0.32697 0.4512 0.0
C1445 C 0.2778 0.30439 0.50288 0.0
C1446 C 0.28291 0.30391 0.4578 0.0
C1447 C 0.30314 0.31083 0.44219 0.0
C1448 C 0.26498 0.29953 0.42581 0.0
C1449 C 0.25782 0.2956 0.52184 0.0
C1450 C 0.2689 0.28839 0.3941 0.0
C1451 C 0.25273 0.28615 0.36039 0.0
C1452 C 0.23284 0.29526 0.35789 0.0
C1453 C 0.22869 0.30597 0.39066 0.0
C1454 C 0.24455 0.30805 0.42426 0.0
H1455 H 0.26166 0.29213 0.55595 0.0
H1456 H 0.24204 0.30276 0.5221 0.0
H1457 H 0.25406 0.2854 0.5022 0.0
H1458 H 0.2846 0.28172 0.39501 0.0
H1459 H 0.25623 0.27782 0.33544 0.0
H1460 H 0.32343 0.60518 0.92577 0.0
H1461 H 0.29739 0.62255 0.96317 0.0
H1462 H 0.33286 0.66009 0.90391 0.0
H1463 H 0.3592 0.64269 0.86636 0.0
H1464 H 0.33025 0.66223 0.99302 0.0
H1465 H 0.24373 0.64943 0.92624 0.0
H1466 H 0.25761 0.63245 0.94371 0.0
H1467 H 0.2701 0.64331 0.89977 0.0
C1468 C 0.32539 0.61711 0.91991 0.0
C1469 C 0.34338 0.62258 0.89326 0.0
C1470 C 0.31037 0.62704 0.94107 0.0
C1471 C 0.31299 0.64261 0.93589 0.0
C1472 C 0.33042 0.64811 0.90802 0.0
H1473 H 0.24818 0.70562 0.12476 0.0
H1474 H 0.27091 0.69707 0.06138 0.0
C1475 C 0.34542 0.63816 0.8866 0.0
C1476 C 0.29937 0.65292 0.96396 0.0
H1477 H 0.24435 0.65903 0.00121 0.0
C1478 C 0.31142 0.66186 0.99421 0.0
C1479 C 0.27483 0.65252 0.96514 0.0
C1480 C 0.26086 0.64401 0.93159 0.0
C1481 C 0.29968 0.66936 0.02801 0.0
C1482 C 0.27524 0.66803 0.03115 0.0
C1483 C 0.2631 0.65992 0.99905 0.0
C1484 C 0.26214 0.67358 0.06962 0.0
C1485 C 0.31366 0.67786 0.06152 0.0
C1486 C 0.24972 0.66326 0.09515 0.0
C1487 C 0.23694 0.66808 0.13116 0.0
C1488 C 0.23604 0.68337 0.14224 0.0
C1489 C 0.24874 0.69375 0.11716 0.0
C1490 C 0.26171 0.68887 0.08101 0.0
H1491 H 0.33253 0.67533 0.05919 0.0
H1492 H 0.31128 0.69006 0.05594 0.0
H1493 H 0.30765 0.67522 0.09517 0.0
H1494 H 0.24992 0.6514 0.08718 0.0
H1495 H 0.22751 0.65979 0.15008 0.0
H1496 H 0.22703 0.71062 0.83423 0.0
H1497 H 0.20026 0.70056 0.88976 0.0
H1498 H 0.25826 0.69146 0.97484 0.0
H1499 H 0.28499 0.70085 0.91915 0.0
H1500 H 0.21065 0.66877 0.9148 0.0
H1501 H 0.20545 0.70676 0.0592 0.0
H1502 H 0.20649 0.71378 0.00369 0.0
H1503 H 0.23205 0.70621 0.02786 0.0
C1504 C 0.23392 0.70689 0.86535 0.0
C1505 C 0.25799 0.70637 0.87247 0.0
C1506 C 0.21867 0.70117 0.89697 0.0
C1507 C 0.22733 0.69532 0.9364 0.0
C1508 C 0.25123 0.69601 0.94485 0.0
H1509 H 0.17132 0.63564 0.13907 0.0
H1510 H 0.19542 0.65389 0.09889 0.0
C1511 C 0.26646 0.70135 0.91297 0.0
C1512 C 0.21248 0.68581 0.96448 0.0
H1513 H 0.19015 0.68228 0.0674 0.0
C1514 C 0.20576 0.67181 0.94791 0.0
C1515 C 0.20687 0.68968 0.00798 0.0
C1516 C 0.21292 0.70492 0.02611 0.0
C1517 C 0.19363 0.66147 0.97374 0.0
C1518 C 0.18732 0.66543 0.01702 0.0
C1519 C 0.19463 0.67933 0.03406 0.0
C1520 C 0.17211 0.65552 0.04365 0.0
C1521 C 0.18843 0.64617 0.95473 0.0
C1522 C 0.15065 0.65083 0.02669 0.0
C1523 C 0.13735 0.64016 0.04872 0.0
C1524 C 0.14476 0.63436 0.08904 0.0
C1525 C 0.1654 0.63983 0.10775 0.0
C1526 C 0.1791 0.65027 0.08496 0.0
H1527 H 0.2009 0.64319 0.92837 0.0
H1528 H 0.18908 0.6373 0.9802 0.0
H1529 H 0.1708 0.64626 0.94007 0.0
H1530 H 0.14441 0.65517 0.99577 0.0
H1531 H 0.1212 0.63643 0.0341 0.0
H1532 H 0.29041 0.33958 0.65591 0.0
H1533 H 0.26258 0.34914 0.60298 0.0
H1534 H 0.22772 0.30623 0.60148 0.0
H1535 H 0.25594 0.29645 0.65447 0.0
H1536 H 0.25761 0.33857 0.52089 0.0
H1537 H 0.17318 0.33438 0.60903 0.0
H1538 H 0.20068 0.33231 0.63675 0.0
H1539 H 0.18921 0.31717 0.60435 0.0
C1540 C 0.27674 0.33217 0.64462 0.0
C1541 C 0.27557 0.31717 0.65883 0.0
C1542 C 0.26079 0.33768 0.61441 0.0
C1543 C 0.2431 0.32841 0.59807 0.0
C1544 C 0.24112 0.31363 0.61384 0.0
H1545 H 0.14288 0.35402 0.39457 0.0
H1546 H 0.16833 0.3387 0.44071 0.0
C1547 C 0.25732 0.30802 0.64391 0.0
C1548 C 0.22806 0.33412 0.56237 0.0
H1549 H 0.17227 0.34377 0.53695 0.0
C1550 C 0.23891 0.33957 0.52432 0.0
C1551 C 0.20363 0.33521 0.56649 0.0
C1552 C 0.19094 0.32957 0.60645 0.0
C1553 C 0.22613 0.34659 0.49112 0.0
C1554 C 0.20194 0.34839 0.49634 0.0
C1555 C 0.19088 0.34234 0.53326 0.0
C1556 C 0.18804 0.35747 0.46549 0.0
C1557 C 0.23857 0.3522 0.45089 0.0
C1558 C 0.19087 0.37311 0.46417 0.0
C1559 C 0.17622 0.38194 0.43833 0.0
C1560 C 0.15863 0.37523 0.41315 0.0
C1561 C 0.15638 0.3595 0.4134 0.0
C1562 C 0.17083 0.35072 0.43974 0.0
H1563 H 0.25613 0.34713 0.44752 0.0
H1564 H 0.22832 0.34966 0.42103 0.0
H1565 H 0.24061 0.36457 0.45309 0.0
H1566 H 0.20391 0.37853 0.48426 0.0
H1567 H 0.17831 0.39403 0.43888 0.0
H1568 H 0.3721 0.2364 0.13092 0.0
H1569 H 0.38131 0.23851 0.05334 0.0
H1570 H 0.36738 0.19134 0.03605 0.0
H1571 H 0.35826 0.18909 0.11454 0.0
H1572 H 0.40958 0.22158 0.98384 0.0
H1573 H 0.31308 0.21575 0.9746 0.0
H1574 H 0.32705 0.21974 0.02614 0.0
H1575 H 0.33035 0.20163 0.00135 0.0
C1576 C 0.37197 0.22633 0.11102 0.0
C1577 C 0.36421 0.21263 0.12841 0.0
C1578 C 0.37727 0.22754 0.06671 0.0
C1579 C 0.37463 0.21511 0.03902 0.0
C1580 C 0.36936 0.20103 0.05711 0.0
H1581 H 0.32982 0.24891 0.78487 0.0
H1582 H 0.34111 0.22908 0.83637 0.0
C1583 C 0.3643 0.19976 0.10183 0.0
C1584 C 0.37283 0.21792 0.9915 0.0
H1585 H 0.33168 0.22806 0.9171 0.0
C1586 C 0.39265 0.22258 0.96854 0.0
C1587 C 0.35076 0.219 0.9714 0.0
C1588 C 0.32898 0.21381 0.99439 0.0
C1589 C 0.39075 0.2294 0.92726 0.0
C1590 C 0.36839 0.23218 0.90959 0.0
C1591 C 0.34882 0.22615 0.93073 0.0
C1592 C 0.36448 0.2432 0.87377 0.0
C1593 C 0.41271 0.23397 0.90386 0.0
C1594 C 0.37391 0.2577 0.87731 0.0
C1595 C 0.36774 0.26891 0.8477 0.0
C1596 C 0.35152 0.26601 0.81448 0.0
C1597 C 0.34234 0.25146 0.81025 0.0
C1598 C 0.34884 0.24012 0.83957 0.0
H1599 H 0.42673 0.22565 0.90981 0.0
H1600 H 0.40999 0.23504 0.86804 0.0
H1601 H 0.41882 0.24491 0.91696 0.0
H1602 H 0.38523 0.26062 0.90426 0.0
H1603 H 0.37496 0.28005 0.85206 0.0
H1604 H 0.90741 0.90024 0.29457 0.0
H1605 H 0.93302 0.89961 0.35837 0.0
H1606 H 0.97889 0.86911 0.29092 0.0
H1607 H 0.95359 0.86988 0.22664 0.0
H1608 H 0.9513 0.87693 0.41243 0.0
H1609 H 0.01986 0.9059 0.316 0.0
H1610 H 0.99032 0.90413 0.29697 0.0
H1611 H 0.00995 0.8885 0.29284 0.0
C1612 C 0.92273 0.89318 0.29362 0.0
C1613 C 0.92869 0.88526 0.25549 0.0
C1614 C 0.93733 0.89284 0.33006 0.0
C1615 C 0.95806 0.88458 0.32889 0.0
C1616 C 0.96319 0.8758 0.29203 0.0
H1617 H 0.0534 0.87162 0.54675 0.0
H1618 H 0.02499 0.86804 0.48819 0.0
C1619 C 0.94867 0.87619 0.25548 0.0
C1620 C 0.97504 0.88603 0.36489 0.0
H1621 H 0.02965 0.89869 0.38797 0.0
C1622 C 0.96846 0.88164 0.40719 0.0
C1623 C 0.99723 0.89246 0.35791 0.0
C1624 C 0.00476 0.89816 0.31359 0.0
C1625 C 0.98362 0.88341 0.44278 0.0
C1626 C 0.00602 0.88949 0.43556 0.0
C1627 C 0.01251 0.89394 0.39329 0.0
C1628 C 0.02292 0.89162 0.47145 0.0
C1629 C 0.97532 0.87909 0.48789 0.0
C1630 C 0.03162 0.90601 0.48062 0.0
C1631 C 0.04804 0.90807 0.51368 0.0
C1632 C 0.05605 0.89575 0.53806 0.0
C1633 C 0.04741 0.88134 0.52866 0.0
C1634 C 0.03107 0.87928 0.49546 0.0
H1635 H 0.95605 0.87841 0.48953 0.0
H1636 H 0.9824 0.86789 0.49646 0.0
H1637 H 0.98142 0.88727 0.51276 0.0
H1638 H 0.02563 0.91566 0.46223 0.0
H1639 H 0.05442 0.9193 0.52021 0.0
H1640 H 0.21176 0.74704 0.29031 0.0
H1641 H 0.20822 0.76802 0.34218 0.0
H1642 H 0.1525 0.74476 0.40812 0.0
H1643 H 0.15539 0.72422 0.35599 0.0
H1644 H 0.14282 0.77431 0.3986 0.0
H1645 H 0.2323 0.76745 0.46567 0.0
H1646 H 0.22996 0.77141 0.40829 0.0
H1647 H 0.21963 0.75377 0.42928 0.0
C1648 C 0.19872 0.74649 0.3158 0.0
C1649 C 0.18394 0.73395 0.31923 0.0
C1650 C 0.19679 0.75843 0.34554 0.0
C1651 C 0.18032 0.75787 0.37951 0.0
C1652 C 0.16532 0.74548 0.38222 0.0
H1653 H 0.1405 0.78269 0.62692 0.0
H1654 H 0.14061 0.77728 0.54881 0.0
C1655 C 0.16705 0.7337 0.35241 0.0
C1656 C 0.17874 0.76974 0.41354 0.0
H1657 H 0.20728 0.78366 0.50262 0.0
C1658 C 0.15704 0.77653 0.42098 0.0
C1659 C 0.19738 0.77288 0.44237 0.0
C1660 C 0.22111 0.76596 0.43637 0.0
C1661 C 0.15304 0.7855 0.45795 0.0
C1662 C 0.17115 0.78766 0.48847 0.0
C1663 C 0.19335 0.7819 0.47929 0.0
C1664 C 0.16684 0.79385 0.53277 0.0
C1665 C 0.12932 0.79234 0.46442 0.0
C1666 C 0.18095 0.80533 0.54964 0.0
C1667 C 0.18076 0.80852 0.59445 0.0
C1668 C 0.1668 0.80004 0.62309 0.0
C1669 C 0.15128 0.78947 0.60559 0.0
C1670 C 0.15131 0.7864 0.56082 0.0
H1671 H 0.12072 0.79452 0.43252 0.0
H1672 H 0.11823 0.78437 0.48296 0.0
H1673 H 0.13035 0.80304 0.48298 0.0
H1674 H 0.19323 0.81111 0.52869 0.0
H1675 H 0.19315 0.8166 0.60703 0.0
H1676 H 0.53274 0.11307 0.71407 0.0
H1677 H 0.50872 0.1139 0.77979 0.0
H1678 H 0.56943 0.12321 0.85789 0.0
H1679 H 0.59376 0.12241 0.7918 0.0
H1680 H 0.54088 0.0984 0.88701 0.0
H1681 H 0.48924 0.14999 0.8573 0.0
H1682 H 0.49033 0.13738 0.81148 0.0
H1683 H 0.51653 0.14633 0.83007 0.0
C1684 C 0.54097 0.11551 0.74512 0.0
C1685 C 0.56512 0.11768 0.74787 0.0
C1686 C 0.5272 0.11605 0.78259 0.0
C1687 C 0.53729 0.11876 0.82353 0.0
C1688 C 0.56135 0.1212 0.82644 0.0
H1689 H 0.45503 0.1278 0.06187 0.0
H1690 H 0.48354 0.13158 0.00351 0.0
C1691 C 0.57518 0.12078 0.78875 0.0
C1692 C 0.52274 0.11792 0.86332 0.0
H1693 H 0.47455 0.13302 0.91127 0.0
C1694 C 0.52655 0.10607 0.8927 0.0
C1695 C 0.50416 0.12799 0.87063 0.0
C1696 C 0.49988 0.14123 0.84094 0.0
C1697 C 0.51167 0.10369 0.9284 0.0
C1698 C 0.49244 0.11334 0.9345 0.0
C1699 C 0.48918 0.12554 0.90613 0.0
C1700 C 0.47536 0.11087 0.96993 0.0
C1701 C 0.51652 0.09083 0.95919 0.0
C1702 C 0.46116 0.09804 0.96996 0.0
C1703 C 0.44476 0.09588 0.00314 0.0
C1704 C 0.44235 0.10651 0.03677 0.0
C1705 C 0.45654 0.11938 0.03645 0.0
C1706 C 0.47282 0.12157 0.00318 0.0
H1707 H 0.53468 0.08673 0.9561 0.0
H1708 H 0.51337 0.09422 0.99365 0.0
H1709 H 0.50466 0.08137 0.95143 0.0
H1710 H 0.46264 0.08978 0.94412 0.0
H1711 H 0.43402 0.08589 0.00251 0.0
H1712 H 0.34928 0.73039 0.65028 0.0
H1713 H 0.35997 0.74884 0.595 0.0
H1714 H 0.30804 0.77918 0.64472 0.0
H1715 H 0.29667 0.76054 0.69998 0.0
H1716 H 0.30543 0.77412 0.55448 0.0
H1717 H 0.39541 0.78865 0.60122 0.0
H1718 H 0.39077 0.76873 0.59937 0.0
H1719 H 0.37523 0.77992 0.63877 0.0
C1720 C 0.34018 0.74103 0.64978 0.0
C1721 C 0.32205 0.74398 0.67943 0.0
C1722 C 0.34651 0.75164 0.6184 0.0
C1723 C 0.33503 0.7655 0.61616 0.0
C1724 C 0.31712 0.76858 0.64605 0.0
H1725 H 0.3458 0.82171 0.37953 0.0
H1726 H 0.34626 0.81777 0.45892 0.0
C1727 C 0.31067 0.75792 0.67753 0.0
C1728 C 0.34022 0.77591 0.57953 0.0
H1729 H 0.38544 0.79214 0.5245 0.0
C1730 C 0.32266 0.77863 0.54879 0.0
C1731 C 0.36285 0.78157 0.57183 0.0
C1732 C 0.38209 0.7797 0.60481 0.0
C1733 C 0.32744 0.78602 0.5093 0.0
C1734 C 0.35048 0.79055 0.50007 0.0
C1735 C 0.3678 0.78865 0.53178 0.0
C1736 C 0.35716 0.79463 0.45496 0.0
C1737 C 0.30821 0.78799 0.47623 0.0
C1738 C 0.36447 0.78315 0.42681 0.0
C1739 C 0.36386 0.78528 0.38166 0.0
C1740 C 0.35621 0.79899 0.36415 0.0
C1741 C 0.35187 0.81108 0.39239 0.0
C1742 C 0.35205 0.80884 0.43772 0.0
H1743 H 0.29099 0.7846 0.48938 0.0
H1744 H 0.30723 0.79991 0.4658 0.0
H1745 H 0.312 0.78115 0.44672 0.0
H1746 H 0.36843 0.77208 0.43955 0.0
H1747 H 0.36722 0.77577 0.36045 0.0
H1748 H 0.42849 0.91685 0.46797 0.0
H1749 H 0.45882 0.91405 0.52327 0.0
H1750 H 0.46457 0.86693 0.49256 0.0
H1751 H 0.43414 0.86963 0.43694 0.0
H1752 H 0.45969 0.87372 0.58334 0.0
H1753 H 0.52949 0.9073 0.50554 0.0
H1754 H 0.50194 0.91676 0.50689 0.0
H1755 H 0.50509 0.89985 0.47527 0.0
C1756 C 0.43629 0.9059 0.47279 0.0
C1757 C 0.42899 0.89345 0.44818 0.0
C1758 C 0.45373 0.90435 0.50413 0.0
C1759 C 0.46415 0.89034 0.51139 0.0
C1760 C 0.45686 0.87786 0.48703 0.0
H1761 H 0.57828 0.88633 0.70315 0.0
H1762 H 0.55588 0.88119 0.63637 0.0
C1763 C 0.43949 0.87942 0.4554 0.0
C1764 C 0.4816 0.8887 0.54643 0.0
H1765 H 0.53287 0.90325 0.58305 0.0
C1766 C 0.4759 0.87994 0.58301 0.0
C1767 C 0.50287 0.89665 0.54553 0.0
C1768 C 0.51037 0.90555 0.50601 0.0
C1769 C 0.49025 0.87973 0.62004 0.0
C1770 C 0.51062 0.88861 0.62041 0.0
C1771 C 0.5171 0.89656 0.58274 0.0
C1772 C 0.52407 0.89101 0.66091 0.0
C1773 C 0.48317 0.87036 0.65894 0.0
C1774 C 0.5136 0.89838 0.6963 0.0
C1775 C 0.52628 0.9014 0.73407 0.0
C1776 C 0.54972 0.89712 0.73712 0.0
C1777 C 0.56022 0.88971 0.70166 0.0
C1778 C 0.54749 0.88676 0.66363 0.0
H1779 H 0.47144 0.86103 0.6492 0.0
H1780 H 0.49861 0.86559 0.6757 0.0
H1781 H 0.4737 0.87754 0.68263 0.0
H1782 H 0.49566 0.90201 0.69442 0.0
H1783 H 0.51773 0.90715 0.76082 0.0
H1784 H 0.12097 0.23041 0.85625 0.0
H1785 H 0.11335 0.2333 0.93429 0.0
H1786 H 0.13969 0.18871 0.95772 0.0
H1787 H 0.14692 0.18564 0.87924 0.0
H1788 H 0.09497 0.21491 0.01619 0.0
H1789 H 0.19053 0.22269 0.99321 0.0
H1790 H 0.17073 0.22351 0.94759 0.0
H1791 H 0.17702 0.20583 0.97297 0.0
C1792 C 0.12381 0.22089 0.87771 0.0
C1793 C 0.13476 0.20789 0.86204 0.0
C1794 C 0.11945 0.22255 0.92229 0.0
C1795 C 0.1263 0.21131 0.95165 0.0
C1796 C 0.13426 0.19749 0.93542 0.0
H1797 H 0.18166 0.24406 0.19973 0.0
H1798 H 0.16936 0.22562 0.14491 0.0
C1799 C 0.1383 0.19573 0.89057 0.0
C1800 C 0.13098 0.21572 0.99732 0.0
H1801 H 0.17442 0.23085 0.05898 0.0
C1802 C 0.11239 0.21805 0.02618 0.0
C1803 C 0.15372 0.21994 0.00984 0.0
C1804 C 0.17423 0.21796 0.97944 0.0
C1805 C 0.11592 0.22499 0.06697 0.0
C1806 C 0.13848 0.22998 0.07839 0.0
C1807 C 0.15716 0.22696 0.05029 0.0
C1808 C 0.14294 0.23988 0.11644 0.0
C1809 C 0.09539 0.22724 0.0969 0.0
C1810 C 0.13203 0.25395 0.11889 0.0
C1811 C 0.13906 0.26449 0.15001 0.0
C1812 C 0.15728 0.26121 0.17904 0.0
C1813 C 0.16759 0.24691 0.17774 0.0
C1814 C 0.16053 0.23635 0.14657 0.0
H1815 H 0.08194 0.21848 0.0914 0.0
H1816 H 0.1007 0.22699 0.13181 0.0
H1817 H 0.08737 0.23831 0.08994 0.0
H1818 H 0.1189 0.2571 0.09526 0.0
H1819 H 0.13081 0.27542 0.15017 0.0
H1820 H 0.06005 0.08927 0.97213 0.0
H1821 H 0.03036 0.09235 0.02863 0.0
H1822 H 0.02328 0.13912 0.9945 0.0
H1823 H 0.05314 0.13616 0.93789 0.0
H1824 H 0.02765 0.1336 0.08515 0.0
H1825 H 0.95982 0.0977 0.01011 0.0
H1826 H 0.98763 0.08865 0.0138 0.0
H1827 H 0.98428 0.10493 0.97957 0.0
C1828 C 0.05215 0.10021 0.97658 0.0
C1829 C 0.05884 0.11247 0.95056 0.0
C1830 C 0.03508 0.10192 0.00862 0.0
C1831 C 0.02437 0.11589 0.0151 0.0
C1832 C 0.03123 0.12821 0.98963 0.0
H1833 H 0.9072 0.12115 0.19996 0.0
H1834 H 0.93077 0.12558 0.1341 0.0
C1835 C 0.04827 0.12651 0.95742 0.0
C1836 C 0.00669 0.11765 0.04979 0.0
H1837 H 0.9554 0.10313 0.08657 0.0
C1838 C 0.01167 0.12713 0.0852 0.0
C1839 C 0.98569 0.1094 0.04935 0.0
C1840 C 0.97888 0.09971 0.01096 0.0
C1841 C 0.99681 0.12787 0.12151 0.0
C1842 C 0.97667 0.11877 0.12242 0.0
C1843 C 0.97098 0.11 0.08588 0.0
C1844 C 0.96258 0.11707 0.16252 0.0
C1845 C 0.00306 0.13811 0.15901 0.0
C1846 C 0.97268 0.11072 0.19988 0.0
C1847 C 0.95934 0.10812 0.23714 0.0
C1848 C 0.9356 0.11179 0.23773 0.0
C1849 C 0.92549 0.11827 0.2004 0.0
C1850 C 0.93888 0.1208 0.16288 0.0
H1851 H 0.01456 0.14742 0.14815 0.0
H1852 H 0.98725 0.14295 0.17436 0.0
H1853 H 0.01252 0.13156 0.18424 0.0
H1854 H 0.99083 0.10748 0.19991 0.0
H1855 H 0.96761 0.10308 0.26538 0.0
H1856 H 0.61421 0.77809 0.84921 0.0
H1857 H 0.60725 0.77105 0.92532 0.0
H1858 H 0.64549 0.81 0.96823 0.0
H1859 H 0.65174 0.81735 0.89226 0.0
H1860 H 0.64962 0.76505 0.96569 0.0
H1861 H 0.59759 0.80426 0.06796 0.0
H1862 H 0.59308 0.80217 0.00971 0.0
H1863 H 0.61737 0.81274 0.02966 0.0
C1864 C 0.61984 0.78564 0.87491 0.0
C1865 C 0.63354 0.79823 0.86495 0.0
C1866 C 0.61596 0.78159 0.9184 0.0
C1867 C 0.6259 0.78999 0.95246 0.0
C1868 C 0.63719 0.80355 0.9426 0.0
H1869 H 0.68998 0.75727 0.19016 0.0
H1870 H 0.67707 0.77365 0.13023 0.0
C1871 C 0.64075 0.80775 0.89903 0.0
C1872 C 0.62964 0.78277 0.99552 0.0
H1873 H 0.62089 0.78629 0.10566 0.0
C1874 C 0.64311 0.76964 0.99621 0.0
C1875 C 0.62143 0.78889 0.03529 0.0
C1876 C 0.6064 0.80274 0.03593 0.0
C1877 C 0.64872 0.76249 0.03552 0.0
C1878 C 0.64067 0.76862 0.07529 0.0
C1879 C 0.62713 0.78173 0.07494 0.0
C1880 C 0.64581 0.76095 0.11695 0.0
C1881 C 0.6633 0.7484 0.03448 0.0
C1882 C 0.63219 0.74866 0.12963 0.0
C1883 C 0.6396 0.73925 0.16332 0.0
C1884 C 0.66075 0.742 0.18495 0.0
C1885 C 0.67363 0.75488 0.17403 0.0
C1886 C 0.66624 0.76428 0.14005 0.0
H1887 H 0.66926 0.74555 0.00092 0.0
H1888 H 0.67876 0.74978 0.05583 0.0
H1889 H 0.65302 0.73882 0.04741 0.0
H1890 H 0.6165 0.74588 0.11182 0.0
H1891 H 0.62922 0.72946 0.1712 0.0
H1892 H 0.09691 0.12108 0.69655 0.0
H1893 H 0.07312 0.12285 0.62997 0.0
H1894 H 0.01212 0.11114 0.7046 0.0
H1895 H 0.03554 0.10944 0.77078 0.0
H1896 H 0.04638 0.09912 0.59412 0.0
H1897 H 0.9912 0.14812 0.63475 0.0
H1898 H 0.01812 0.14417 0.66285 0.0
H1899 H 0.99194 0.13431 0.67749 0.0
C1900 C 0.07837 0.11911 0.69874 0.0
C1901 C 0.06806 0.11515 0.73878 0.0
C1902 C 0.06485 0.12009 0.66079 0.0
C1903 C 0.04084 0.11731 0.66259 0.0
C1904 C 0.03053 0.11361 0.70269 0.0
H1905 H 0.94169 0.08487 0.47658 0.0
H1906 H 0.97075 0.08847 0.53414 0.0
C1907 C 0.04398 0.11256 0.74043 0.0
C1908 C 0.02659 0.1172 0.62238 0.0
H1909 H 0.9771 0.1318 0.57818 0.0
C1910 C 0.03143 0.10641 0.59023 0.0
C1911 C 0.00723 0.12681 0.61729 0.0
C1912 C 0.00191 0.13911 0.64972 0.0
C1913 C 0.01676 0.10451 0.55401 0.0
C1914 C 0.99661 0.11351 0.55034 0.0
C1915 C 0.99239 0.12478 0.58142 0.0
C1916 C 0.9794 0.11122 0.51504 0.0
C1917 C 0.02286 0.09282 0.52018 0.0
C1918 C 0.97426 0.12293 0.486 0.0
C1919 C 0.95758 0.12094 0.45336 0.0
C1920 C 0.94565 0.10723 0.44941 0.0
C1921 C 0.95069 0.09554 0.47875 0.0
C1922 C 0.96739 0.09754 0.51141 0.0
H1923 H 0.04165 0.08997 0.52107 0.0
H1924 H 0.01288 0.08241 0.52694 0.0
H1925 H 0.01836 0.09673 0.48676 0.0
H1926 H 0.98322 0.1336 0.4885 0.0
H1927 H 0.95403 0.13016 0.43125 0.0
H1928 H 0.87119 0.27235 0.65584 0.0
H1929 H 0.88412 0.25469 0.59973 0.0
H1930 H 0.81981 0.2302 0.61197 0.0
H1931 H 0.80667 0.24784 0.66856 0.0
H1932 H 0.86659 0.21232 0.59954 0.0
H1933 H 0.84677 0.25746 0.479 0.0
H1934 H 0.86426 0.26255 0.52545 0.0
H1935 H 0.83444 0.2573 0.53329 0.0
C1936 C 0.85991 0.26308 0.64715 0.0
C1937 C 0.83778 0.26158 0.66622 0.0
C1938 C 0.86739 0.25297 0.61523 0.0
C1939 C 0.85288 0.24121 0.60173 0.0
C1940 C 0.83128 0.23918 0.62223 0.0
H1941 H 0.83984 0.18016 0.39161 0.0
H1942 H 0.84673 0.18918 0.46594 0.0
C1943 C 0.82376 0.2493 0.65433 0.0
C1944 C 0.85904 0.23231 0.56259 0.0
H1945 H 0.86165 0.23497 0.45166 0.0
C1946 C 0.86571 0.21723 0.56712 0.0
C1947 C 0.85793 0.23881 0.52055 0.0
C1948 C 0.85034 0.25488 0.51391 0.0
C1949 C 0.87128 0.20843 0.53029 0.0
C1950 C 0.86967 0.21487 0.48803 0.0
C1951 C 0.86331 0.23004 0.48395 0.0
C1952 C 0.87187 0.20602 0.44698 0.0
C1953 C 0.87889 0.1924 0.53715 0.0
C1954 C 0.88475 0.21183 0.41174 0.0
C1955 C 0.88036 0.20694 0.36912 0.0
C1956 C 0.86318 0.19606 0.36121 0.0
C1957 C 0.85299 0.18866 0.39693 0.0
C1958 C 0.85703 0.19376 0.43952 0.0
H1959 H 0.8879 0.19108 0.56905 0.0
H1960 H 0.86333 0.18502 0.5377 0.0
H1961 H 0.89066 0.18854 0.51067 0.0
H1962 H 0.89649 0.22119 0.41668 0.0
H1963 H 0.88868 0.21274 0.34219 0.0
H1964 H 0.44708 0.89824 0.26891 0.0
H1965 H 0.46958 0.89683 0.20157 0.0
H1966 H 0.40878 0.88179 0.13166 0.0
H1967 H 0.38585 0.88335 0.19944 0.0
H1968 H 0.47795 0.87252 0.14506 0.0
H1969 H 0.43075 0.91932 0.06317 0.0
H1970 H 0.42823 0.91574 0.12109 0.0
H1971 H 0.41347 0.90386 0.08267 0.0
C1972 C 0.43844 0.89456 0.23931 0.0
C1973 C 0.41465 0.891 0.23935 0.0
C1974 C 0.45137 0.89373 0.20087 0.0
C1975 C 0.44079 0.88938 0.1616 0.0
C1976 C 0.41716 0.88538 0.16159 0.0
H1977 H 0.52874 0.87679 0.92919 0.0
H1978 H 0.49958 0.87253 0.98622 0.0
C1979 C 0.40414 0.8862 0.20027 0.0
C1980 C 0.45472 0.88953 0.12091 0.0
H1981 H 0.46273 0.90902 0.02592 0.0
C1982 C 0.47448 0.88034 0.11865 0.0
C1983 C 0.45023 0.8999 0.08691 0.0
C1984 C 0.42963 0.91037 0.08842 0.0
C1985 C 0.49028 0.88152 0.08387 0.0
C1986 C 0.48597 0.89204 0.05019 0.0
C1987 C 0.46588 0.90095 0.0518 0.0
C1988 C 0.50292 0.89468 0.01459 0.0
C1989 C 0.512 0.87202 0.08447 0.0
C1990 C 0.51406 0.90865 0.01114 0.0
C1991 C 0.53065 0.91114 0.97857 0.0
C1992 C 0.5363 0.8997 0.94879 0.0
C1993 C 0.52485 0.88579 0.95188 0.0
C1994 C 0.50824 0.88331 0.98448 0.0
H1995 H 0.51494 0.86673 0.1169 0.0
H1996 H 0.51037 0.86295 0.0598 0.0
H1997 H 0.52749 0.87887 0.07595 0.0
H1998 H 0.51014 0.91757 0.03408 0.0
H1999 H 0.53913 0.92199 0.97687 0.0
H2000 H 0.62832 0.27627 0.35077 0.0
H2001 H 0.62115 0.25848 0.40984 0.0
H2002 H 0.68627 0.23649 0.38221 0.0
H2003 H 0.69379 0.2545 0.32288 0.0
H2004 H 0.61942 0.22613 0.41575 0.0
H2005 H 0.69237 0.25187 0.50937 0.0
H2006 H 0.68055 0.26053 0.46093 0.0
H2007 H 0.69927 0.24449 0.45623 0.0
C2008 C 0.64107 0.26758 0.35689 0.0
C2009 C 0.6618 0.26691 0.33259 0.0
C2010 C 0.63683 0.25735 0.39049 0.0
C2011 C 0.65324 0.24627 0.4006 0.0
C2012 C 0.67349 0.24507 0.37509 0.0
H2013 H 0.64718 0.18509 0.62334 0.0
H2014 H 0.64232 0.19325 0.54718 0.0
C2015 C 0.67776 0.25535 0.34129 0.0
C2016 C 0.65001 0.23716 0.44066 0.0
H2017 H 0.67028 0.23348 0.54486 0.0
C2018 C 0.63065 0.22757 0.44391 0.0
C2019 C 0.66459 0.23922 0.47738 0.0
C2020 C 0.68529 0.24965 0.4762 0.0
C2021 C 0.6253 0.22017 0.48335 0.0
C2022 C 0.63959 0.22255 0.52016 0.0
C2023 C 0.65925 0.23181 0.5165 0.0
C2024 C 0.63434 0.21628 0.56386 0.0
C2025 C 0.6041 0.21028 0.48606 0.0
C2026 C 0.6298 0.22627 0.59825 0.0
C2027 C 0.63251 0.22165 0.64146 0.0
C2028 C 0.6397 0.20696 0.65088 0.0
C2029 C 0.6413 0.19643 0.6168 0.0
C2030 C 0.63875 0.20111 0.5733 0.0
H2031 H 0.59352 0.21072 0.45571 0.0
H2032 H 0.60958 0.19849 0.49173 0.0
H2033 H 0.5931 0.21372 0.5142 0.0
H2034 H 0.62636 0.23802 0.59158 0.0
H2035 H 0.63135 0.22997 0.66725 0.0
H2036 H 0.40348 0.11918 0.28915 0.0
H2037 H 0.42678 0.12366 0.35527 0.0
H2038 H 0.48538 0.10181 0.29457 0.0
H2039 H 0.46245 0.09739 0.22882 0.0
H2040 H 0.44976 0.10191 0.40868 0.0
H2041 H 0.51182 0.14245 0.33614 0.0
H2042 H 0.48426 0.13796 0.31105 0.0
H2043 H 0.50874 0.12562 0.30431 0.0
C2044 C 0.42135 0.11539 0.28998 0.0
C2045 C 0.43119 0.108 0.25382 0.0
C2046 C 0.4346 0.11796 0.32765 0.0
C2047 C 0.45788 0.1133 0.32936 0.0
C2048 C 0.46759 0.10578 0.29349 0.0
H2049 H 0.55311 0.08913 0.52819 0.0
H2050 H 0.52295 0.091 0.47227 0.0
C2051 C 0.45441 0.10318 0.25606 0.0
C2052 C 0.47209 0.11573 0.36897 0.0
H2053 H 0.52389 0.13035 0.40256 0.0
C2054 C 0.46578 0.10833 0.40767 0.0
C2055 C 0.49278 0.1243 0.36766 0.0
C2056 C 0.49972 0.13316 0.32768 0.0
C2057 C 0.48037 0.10855 0.44443 0.0
C2058 C 0.50188 0.1162 0.44199 0.0
C2059 C 0.50751 0.12434 0.40415 0.0
C2060 C 0.51945 0.11514 0.47715 0.0
C2061 C 0.47278 0.1004 0.48527 0.0
C2062 C 0.5279 0.12815 0.4976 0.0
C2063 C 0.5453 0.12713 0.52935 0.0
C2064 C 0.55462 0.11309 0.54084 0.0
C2065 C 0.54619 0.1001 0.52013 0.0
C2066 C 0.52882 0.10113 0.48846 0.0
H2067 H 0.45356 0.09926 0.48675 0.0
H2068 H 0.48032 0.08894 0.48524 0.0
H2069 H 0.47883 0.10632 0.51515 0.0
H2070 H 0.52103 0.13908 0.48896 0.0
H2071 H 0.55149 0.13733 0.54475 0.0
H2072 H 0.86388 0.81324 0.12654 0.0
H2073 H 0.8808 0.8076 0.05418 0.0
H2074 H 0.85026 0.76334 0.059 0.0
H2075 H 0.83417 0.76869 0.13024 0.0
H2076 H 0.89223 0.76298 0.01894 0.0
H2077 H 0.83616 0.8084 0.95098 0.0
H2078 H 0.85918 0.81335 0.98815 0.0
H2079 H 0.83455 0.80296 0.00767 0.0
C2080 C 0.86144 0.8022 0.11246 0.0
C2081 C 0.84722 0.79155 0.1334 0.0
C2082 C 0.87093 0.79903 0.07107 0.0
C2083 C 0.86631 0.78517 0.05068 0.0
C2084 C 0.854 0.77414 0.07379 0.0
H2085 H 0.80542 0.74643 0.84452 0.0
H2086 H 0.82056 0.76348 0.90037 0.0
C2087 C 0.84465 0.77726 0.1146 0.0
C2088 C 0.87124 0.78223 0.0038 0.0
H2089 H 0.84603 0.78871 0.90454 0.0
C2090 C 0.88281 0.76883 0.99337 0.0
C2091 C 0.85904 0.78997 0.97053 0.0
C2092 C 0.84645 0.80448 0.97952 0.0
C2093 C 0.87977 0.76186 0.95261 0.0
C2094 C 0.86561 0.76891 0.92072 0.0
C2095 C 0.8566 0.78326 0.92924 0.0
C2096 C 0.85671 0.76058 0.88214 0.0
C2097 C 0.88972 0.74633 0.94607 0.0
C2098 C 0.87184 0.75376 0.85214 0.0
C2099 C 0.86322 0.74373 0.82096 0.0
C2100 C 0.83927 0.74072 0.81842 0.0
C2101 C 0.82396 0.74851 0.84592 0.0
C2102 C 0.83263 0.75828 0.87774 0.0
H2103 H 0.89671 0.7415 0.97689 0.0
H2104 H 0.87628 0.73855 0.93316 0.0
H2105 H 0.90417 0.74687 0.92211 0.0
H2106 H 0.89039 0.75573 0.85393 0.0
H2107 H 0.87537 0.73804 0.79955 0.0
H2108 H 0.1017 0.89477 0.79699 0.0
H2109 H 0.07961 0.89301 0.86561 0.0
H2110 H 0.01734 0.88321 0.79246 0.0
H2111 H 0.03916 0.88485 0.72431 0.0
H2112 H 0.0417 0.91181 0.885 0.0
H2113 H 0.01526 0.85207 0.89067 0.0
H2114 H 0.03899 0.85869 0.85706 0.0
H2115 H 0.00943 0.86062 0.83869 0.0
C2116 C 0.08342 0.8919 0.79574 0.0
C2117 C 0.07211 0.88996 0.75541 0.0
C2118 C 0.07084 0.89094 0.83485 0.0
C2119 C 0.04692 0.88781 0.83406 0.0
C2120 C 0.03587 0.88533 0.79386 0.0
H2121 H 0.92381 0.89247 0.98739 0.0
H2122 H 0.95432 0.89017 0.93195 0.0
C2123 C 0.04834 0.88637 0.75492 0.0
C2124 C 0.0328 0.8886 0.87441 0.0
H2125 H 0.99216 0.86927 0.93309 0.0
C2126 C 0.03119 0.90244 0.89616 0.0
C2127 C 0.01908 0.87637 0.88864 0.0
C2128 C 0.02092 0.86106 0.8678 0.0
C2129 C 0.01525 0.90461 0.93033 0.0
C2130 C 0.00085 0.89254 0.94332 0.0
C2131 C 0.00312 0.87853 0.92274 0.0
C2132 C 0.9826 0.89437 0.97695 0.0
C2133 C 0.01315 0.91997 0.95083 0.0
C2134 C 0.98847 0.89751 0.0205 0.0
C2135 C 0.97109 0.89888 0.05218 0.0
C2136 C 0.94758 0.89705 0.04079 0.0
C2137 C 0.94176 0.894 0.99708 0.0
C2138 C 0.95915 0.89262 0.96545 0.0
H2139 H 0.02219 0.92873 0.93132 0.0
H2140 H 0.9946 0.92319 0.95442 0.0
H2141 H 0.02103 0.91974 0.98393 0.0
H2142 H 0.00649 0.89868 0.03009 0.0
H2143 H 0.97609 0.90114 0.08568 0.0
H2144 H 0.85173 0.77465 0.33041 0.0
H2145 H 0.86145 0.7551 0.38244 0.0
H2146 H 0.79888 0.73108 0.34838 0.0
H2147 H 0.78857 0.75108 0.29662 0.0
H2148 H 0.80088 0.7349 0.43174 0.0
H2149 H 0.88671 0.71368 0.38412 0.0
H2150 H 0.88808 0.73376 0.38458 0.0
H2151 H 0.86884 0.72435 0.3468 0.0
C2152 C 0.84018 0.76509 0.3333 0.0
C2153 C 0.81925 0.76447 0.30973 0.0
C2154 C 0.84599 0.75374 0.36266 0.0
C2155 C 0.83121 0.74138 0.36871 0.0
C2156 C 0.8107 0.74041 0.34384 0.0
H2157 H 0.85595 0.68926 0.61078 0.0
H2158 H 0.85629 0.69338 0.53078 0.0
C2159 C 0.80477 0.75187 0.31449 0.0
C2160 C 0.83536 0.73118 0.40627 0.0
H2161 H 0.8797 0.71528 0.46448 0.0
C2162 C 0.8179 0.73016 0.43816 0.0
C2163 C 0.85742 0.72472 0.41474 0.0
C2164 C 0.87618 0.72406 0.38037 0.0
C2165 C 0.82267 0.72447 0.47981 0.0
C2166 C 0.84554 0.71981 0.48993 0.0
C2167 C 0.86235 0.71924 0.45684 0.0
C2168 C 0.85242 0.71741 0.53587 0.0
C2169 C 0.80361 0.72462 0.51374 0.0
C2170 C 0.852 0.7297 0.56445 0.0
C2171 C 0.85146 0.72738 0.60943 0.0
C2172 C 0.8515 0.71274 0.62644 0.0
C2173 C 0.85544 0.7006 0.5981 0.0
C2174 C 0.85561 0.70291 0.55269 0.0
H2175 H 0.78618 0.72377 0.49827 0.0
H2176 H 0.80567 0.71532 0.5376 0.0
H2177 H 0.80431 0.73539 0.53196 0.0
H2178 H 0.84994 0.741 0.5519 0.0
H2179 H 0.84886 0.73698 0.63064 0.0
H2180 H 0.45898 0.39324 0.71757 0.0
H2181 H 0.48308 0.39177 0.78307 0.0
H2182 H 0.4263 0.37148 0.85384 0.0
H2183 H 0.40187 0.37302 0.78821 0.0
H2184 H 0.44718 0.39591 0.89702 0.0
H2185 H 0.51318 0.35495 0.84062 0.0
H2186 H 0.50888 0.3702 0.80307 0.0
H2187 H 0.48548 0.35729 0.81369 0.0
C2188 C 0.45166 0.38832 0.74693 0.0
C2189 C 0.42856 0.38322 0.74782 0.0
C2190 C 0.46551 0.38741 0.78423 0.0
C2191 C 0.45656 0.38132 0.82302 0.0
C2192 C 0.43354 0.37611 0.82403 0.0
H2193 H 0.54603 0.36773 0.05077 0.0
H2194 H 0.51757 0.36377 0.99233 0.0
C2195 C 0.41965 0.37699 0.78659 0.0
C2196 C 0.47093 0.3813 0.86305 0.0
H2197 H 0.52326 0.36978 0.90325 0.0
C2198 C 0.46367 0.39004 0.89869 0.0
C2199 C 0.49229 0.3735 0.86522 0.0
C2200 C 0.50035 0.36333 0.82877 0.0
C2201 C 0.47774 0.39173 0.9358 0.0
C2202 C 0.49971 0.38464 0.93686 0.0
C2203 C 0.5065 0.37535 0.90207 0.0
C2204 C 0.51628 0.38713 0.97306 0.0
C2205 C 0.46906 0.40116 0.97338 0.0
C2206 C 0.5251 0.40155 0.98116 0.0
C2207 C 0.54133 0.40386 0.0144 0.0
C2208 C 0.5491 0.39174 0.03992 0.0
C2209 C 0.54029 0.3773 0.03165 0.0
C2210 C 0.52407 0.375 0.99836 0.0
H2211 H 0.44982 0.40222 0.97293 0.0
H2212 H 0.47444 0.39632 0.00528 0.0
H2213 H 0.47655 0.41262 0.97075 0.0
H2214 H 0.51965 0.41101 0.96134 0.0
H2215 H 0.5479 0.41509 0.0199 0.0
H2216 H 0.6245 0.26896 0.15596 0.0
H2217 H 0.61959 0.26231 0.07956 0.0
H2218 H 0.62345 0.30914 0.04366 0.0
H2219 H 0.62947 0.3158 0.12069 0.0
H2220 H 0.59543 0.26682 0.00858 0.0
H2221 H 0.68248 0.2934 0.9912 0.0
H2222 H 0.66792 0.29195 0.04294 0.0
H2223 H 0.65921 0.30607 0.00426 0.0
C2224 C 0.6234 0.27791 0.13202 0.0
C2225 C 0.62788 0.29284 0.14402 0.0
C2226 C 0.62061 0.2741 0.0882 0.0
C2227 C 0.62208 0.28517 0.05565 0.0
C2228 C 0.62303 0.30036 0.06817 0.0
H2229 H 0.6309 0.23809 0.8021 0.0
H2230 H 0.61737 0.25677 0.85518 0.0
C2231 C 0.62608 0.30419 0.11227 0.0
C2232 C 0.62639 0.28032 0.00988 0.0
H2233 H 0.66924 0.27892 0.93266 0.0
C2234 C 0.61139 0.26962 0.9915 0.0
C2235 C 0.64749 0.2838 0.98814 0.0
C2236 C 0.66533 0.29432 0.00763 0.0
C2237 C 0.6176 0.26147 0.95396 0.0
C2238 C 0.63885 0.26483 0.93241 0.0
C2239 C 0.65299 0.27635 0.94902 0.0
C2240 C 0.64808 0.25541 0.89603 0.0
C2241 C 0.60218 0.24855 0.94033 0.0
C2242 C 0.67064 0.24937 0.89902 0.0
C2243 C 0.6788 0.23932 0.86746 0.0
C2244 C 0.66433 0.23485 0.83305 0.0
C2245 C 0.64221 0.2413 0.82884 0.0
C2246 C 0.63438 0.25181 0.85945 0.0
H2247 H 0.59029 0.24503 0.96708 0.0
H2248 H 0.59126 0.25207 0.91227 0.0
H2249 H 0.61263 0.23864 0.93043 0.0
H2250 H 0.68167 0.25197 0.92671 0.0
H2251 H 0.69591 0.23441 0.8713 0.0
H2252 H 0.92396 0.58603 0.5138 0.0
H2253 H 0.95163 0.58821 0.45316 0.0
H2254 H 0.98207 0.62727 0.51382 0.0
H2255 H 0.95478 0.62504 0.57477 0.0
H2256 H 0.95771 0.61255 0.39621 0.0
H2257 H 0.03857 0.60067 0.48947 0.0
H2258 H 0.01001 0.59662 0.51094 0.0
H2259 H 0.02092 0.61553 0.51122 0.0
C2260 C 0.93664 0.59502 0.51429 0.0
C2261 C 0.93731 0.60531 0.54907 0.0
C2262 C 0.95239 0.59626 0.47968 0.0
C2263 C 0.96908 0.60777 0.47939 0.0
C2264 C 0.96965 0.61813 0.5139 0.0
H2265 H 0.07578 0.62799 0.28171 0.0
H2266 H 0.0499 0.63009 0.34554 0.0
C2267 C 0.95396 0.61687 0.54854 0.0
C2268 C 0.98548 0.60914 0.44234 0.0
H2269 H 0.04301 0.60753 0.41521 0.0
C2270 C 0.97636 0.61149 0.40036 0.0
C2271 C 0.00981 0.60788 0.44801 0.0
C2272 C 0.02047 0.60491 0.49225 0.0
C2273 C 0.99092 0.61241 0.36371 0.0
C2274 C 0.01517 0.61076 0.36923 0.0
C2275 C 0.02438 0.60884 0.41129 0.0
C2276 C 0.03095 0.60968 0.33127 0.0
C2277 C 0.98027 0.61503 0.31928 0.0
C2278 C 0.02902 0.59739 0.30291 0.0
C2279 C 0.04371 0.59614 0.2669 0.0
C2280 C 0.06066 0.60715 0.25857 0.0
C2281 C 0.06281 0.61938 0.28733 0.0
C2282 C 0.04809 0.62059 0.32367 0.0
H2283 H 0.96261 0.61999 0.32187 0.0
H2284 H 0.99134 0.62259 0.29923 0.0
H2285 H 0.97874 0.60414 0.30188 0.0
H2286 H 0.01615 0.58874 0.30873 0.0
H2287 H 0.04167 0.58655 0.24545 0.0
H2288 H 0.84945 0.26556 0.85562 0.0
H2289 H 0.8573 0.2618 0.93264 0.0
H2290 H 0.86635 0.30958 0.94982 0.0
H2291 H 0.8573 0.31346 0.87194 0.0
H2292 H 0.89058 0.26711 0.98965 0.0
H2293 H 0.81399 0.3024 0.03333 0.0
H2294 H 0.81965 0.29728 0.97724 0.0
H2295 H 0.8375 0.31103 0.00416 0.0
C2296 C 0.85358 0.27527 0.8755 0.0
C2297 C 0.85244 0.28981 0.85797 0.0
C2298 C 0.85812 0.27311 0.91967 0.0
C2299 C 0.8618 0.28542 0.94748 0.0
C2300 C 0.86288 0.29993 0.92931 0.0
H2301 H 0.86743 0.24315 0.20748 0.0
H2302 H 0.8787 0.26175 0.15242 0.0
C2303 C 0.85811 0.30213 0.8847 0.0
C2304 C 0.8621 0.2826 0.99541 0.0
H2305 H 0.82685 0.28529 0.08504 0.0
C2306 C 0.87702 0.27134 0.01101 0.0
C2307 C 0.84446 0.28821 0.0233 0.0
C2308 C 0.82788 0.30035 0.00884 0.0
C2309 C 0.87315 0.26431 0.05144 0.0
C2310 C 0.85443 0.26919 0.078 0.0
C2311 C 0.84104 0.28151 0.06443 0.0
C2312 C 0.84642 0.26032 0.11634 0.0
C2313 C 0.88786 0.25086 0.06321 0.0
C2314 C 0.82389 0.25419 0.11633 0.0
C2315 C 0.81718 0.24389 0.14846 0.0
C2316 C 0.83301 0.23941 0.18078 0.0
C2317 C 0.85501 0.24627 0.18247 0.0
C2318 C 0.86153 0.25681 0.15088 0.0
H2319 H 0.89836 0.24681 0.03508 0.0
H2320 H 0.90004 0.25396 0.08982 0.0
H2321 H 0.87683 0.24143 0.07484 0.0
H2322 H 0.81185 0.25678 0.09015 0.0
H2323 H 0.80012 0.23879 0.14645 0.0
H2324 H 0.94928 0.41613 0.97419 0.0
H2325 H 0.97922 0.41228 0.02966 0.0
H2326 H 0.98597 0.36599 0.99017 0.0
H2327 H 0.95583 0.36974 0.93448 0.0
H2328 H 0.98063 0.37013 0.08091 0.0
H2329 H 0.04979 0.40692 0.01455 0.0
H2330 H 0.02209 0.41612 0.01786 0.0
H2331 H 0.02573 0.40033 0.98179 0.0
C2332 C 0.95727 0.40516 0.97703 0.0
C2333 C 0.95026 0.39324 0.94999 0.0
C2334 C 0.97448 0.40301 0.00852 0.0
C2335 C 0.98505 0.38892 0.01348 0.0
C2336 C 0.97814 0.37698 0.98651 0.0
H2337 H 0.0986 0.38221 0.20542 0.0
H2338 H 0.07643 0.37823 0.13776 0.0
C2339 C 0.96095 0.37914 0.95479 0.0
C2340 C 0.0022 0.38656 0.04882 0.0
H2341 H 0.05251 0.40075 0.091 0.0
C2342 C 0.99656 0.37661 0.0828 0.0
C2343 C 0.02313 0.39486 0.05085 0.0
C2344 C 0.0307 0.40505 0.01408 0.0
C2345 C 0.01061 0.37547 0.12013 0.0
C2346 C 0.0306 0.38463 0.12361 0.0
C2347 C 0.03703 0.39385 0.08841 0.0
C2348 C 0.04379 0.38589 0.16494 0.0
C2349 C 0.00364 0.36473 0.15598 0.0
C2350 C 0.03277 0.39156 0.20236 0.0
C2351 C 0.04534 0.3939 0.24073 0.0
C2352 C 0.0692 0.39064 0.24239 0.0
C2353 C 0.0802 0.38476 0.20507 0.0
C2354 C 0.0676 0.3825 0.16649 0.0
H2355 H 0.99265 0.35546 0.14313 0.0
H2356 H 0.01913 0.35983 0.17225 0.0
H2357 H 0.99336 0.37087 0.18093 0.0
H2358 H 0.01453 0.39455 0.20156 0.0
H2359 H 0.0364 0.39848 0.26892 0.0
H2360 H 0.65882 0.68457 0.3857 0.0
H2361 H 0.65507 0.68757 0.46515 0.0
H2362 H 0.62189 0.73043 0.44549 0.0
H2363 H 0.62626 0.72762 0.3665 0.0
H2364 H 0.67965 0.71369 0.49627 0.0
H2365 H 0.58883 0.713 0.55584 0.0
H2366 H 0.59813 0.7029 0.50755 0.0
H2367 H 0.59244 0.72274 0.5048 0.0
C2368 C 0.64956 0.6942 0.39841 0.0
C2369 C 0.64285 0.70586 0.37024 0.0
C2370 C 0.64758 0.69595 0.44375 0.0
C2371 C 0.63816 0.70919 0.46118 0.0
C2372 C 0.62888 0.72002 0.43275 0.0
H2373 H 0.64338 0.77623 0.64503 0.0
H2374 H 0.63504 0.75693 0.59086 0.0
C2375 C 0.63134 0.71841 0.38758 0.0
C2376 C 0.6427 0.71347 0.50714 0.0
H2377 H 0.61586 0.72842 0.59651 0.0
C2378 C 0.6658 0.71652 0.5189 0.0
C2379 C 0.62458 0.71718 0.5363 0.0
C2380 C 0.59959 0.71366 0.52572 0.0
C2381 C 0.67112 0.72444 0.55729 0.0
C2382 C 0.65283 0.72903 0.58521 0.0
C2383 C 0.62987 0.72491 0.57506 0.0
C2384 C 0.65677 0.74001 0.62094 0.0
C2385 C 0.69603 0.72893 0.56568 0.0
C2386 C 0.67154 0.73685 0.65636 0.0
C2387 C 0.67661 0.748 0.68728 0.0
C2388 C 0.66675 0.76239 0.68344 0.0
C2389 C 0.65134 0.76529 0.64884 0.0
C2390 C 0.64645 0.75423 0.61793 0.0
H2391 H 0.70767 0.726 0.53796 0.0
H2392 H 0.69723 0.74121 0.57164 0.0
H2393 H 0.7025 0.7231 0.59531 0.0
H2394 H 0.67935 0.72585 0.65977 0.0
H2395 H 0.68838 0.74542 0.71387 0.0
H2396 H 0.56942 0.62565 0.46875 0.0
H2397 H 0.54222 0.62688 0.53031 0.0
H2398 H 0.52636 0.57986 0.51354 0.0
H2399 H 0.55411 0.57844 0.45315 0.0
H2400 H 0.49625 0.62179 0.5365 0.0
H2401 H 0.54358 0.5812 0.64074 0.0
H2402 H 0.55597 0.5889 0.59141 0.0
H2403 H 0.53596 0.57337 0.58868 0.0
C2404 C 0.56018 0.61557 0.47837 0.0
C2405 C 0.56404 0.60191 0.4566 0.0
C2406 C 0.54462 0.6163 0.51341 0.0
C2407 C 0.53262 0.60339 0.52704 0.0
C2408 C 0.53593 0.58985 0.50438 0.0
H2409 H 0.41122 0.59976 0.69653 0.0
H2410 H 0.43744 0.60184 0.63361 0.0
C2411 C 0.5517 0.58907 0.46976 0.0
C2412 C 0.51667 0.60405 0.56502 0.0
H2413 H 0.50529 0.58763 0.66343 0.0
C2414 C 0.49828 0.61441 0.56445 0.0
C2415 C 0.51961 0.59458 0.60175 0.0
C2416 C 0.53999 0.58401 0.60598 0.0
C2417 C 0.48247 0.61536 0.59934 0.0
C2418 C 0.48478 0.60539 0.6351 0.0
C2419 C 0.50339 0.59519 0.63585 0.0
C2420 C 0.46842 0.60532 0.67259 0.0
C2421 C 0.4638 0.62724 0.59785 0.0
C2422 C 0.47713 0.60635 0.71536 0.0
C2423 C 0.46231 0.60477 0.75114 0.0
C2424 C 0.43845 0.60233 0.74487 0.0
C2425 C 0.42954 0.60177 0.70216 0.0
C2426 C 0.44448 0.60307 0.66624 0.0
H2427 H 0.46879 0.6367 0.57608 0.0
H2428 H 0.44759 0.62224 0.58469 0.0
H2429 H 0.4601 0.63178 0.63095 0.0
H2430 H 0.49552 0.60808 0.72108 0.0
H2431 H 0.4696 0.60532 0.78377 0.0
H2432 H 0.13113 0.23898 0.67699 0.0
H2433 H 0.12292 0.25641 0.61736 0.0
H2434 H 0.192 0.27475 0.62819 0.0
H2435 H 0.20041 0.25732 0.68856 0.0
H2436 H 0.1458 0.29591 0.60604 0.0
H2437 H 0.16646 0.24619 0.50242 0.0
H2438 H 0.1481 0.24316 0.54929 0.0
H2439 H 0.17792 0.24839 0.557 0.0
C2440 C 0.14443 0.24696 0.66746 0.0
C2441 C 0.16652 0.24667 0.68701 0.0
C2442 C 0.13963 0.25696 0.63358 0.0
C2443 C 0.15686 0.2668 0.61849 0.0
C2444 C 0.17845 0.26729 0.63976 0.0
H2445 H 0.16857 0.31823 0.38123 0.0
H2446 H 0.1666 0.31241 0.45912 0.0
C2447 C 0.18324 0.25731 0.67405 0.0
C2448 C 0.15339 0.27456 0.57631 0.0
H2449 H 0.15184 0.26749 0.46691 0.0
C2450 C 0.14713 0.28978 0.57548 0.0
C2451 C 0.15522 0.26647 0.53675 0.0
C2452 C 0.16242 0.25016 0.53601 0.0
C2453 C 0.1421 0.29706 0.53569 0.0
C2454 C 0.14358 0.28886 0.4961 0.0
C2455 C 0.15023 0.2737 0.49728 0.0
C2456 C 0.13962 0.29566 0.4524 0.0
C2457 C 0.13482 0.31332 0.53636 0.0
C2458 C 0.12457 0.28853 0.42273 0.0
C2459 C 0.12618 0.29152 0.37798 0.0
C2460 C 0.14251 0.30192 0.36238 0.0
C2461 C 0.15544 0.31041 0.39252 0.0
C2462 C 0.15432 0.3071 0.4372 0.0
H2463 H 0.12853 0.31679 0.5692 0.0
H2464 H 0.15 0.32042 0.52795 0.0
H2465 H 0.12097 0.3155 0.51191 0.0
H2466 H 0.11313 0.27962 0.43371 0.0
H2467 H 0.11626 0.2847 0.35533 0.0
H2468 H 0.54134 0.58935 0.27241 0.0
H2469 H 0.51523 0.59094 0.20993 0.0
H2470 H 0.56003 0.62398 0.15026 0.0
H2471 H 0.58676 0.62215 0.21269 0.0
H2472 H 0.49082 0.61453 0.17739 0.0
H2473 H 0.55324 0.59316 0.0532 0.0
H2474 H 0.55881 0.59197 0.11116 0.0
H2475 H 0.56277 0.60947 0.08277 0.0
C2476 C 0.5457 0.59697 0.24603 0.0
C2477 C 0.56618 0.60557 0.24732 0.0
C2478 C 0.53072 0.59788 0.21035 0.0
C2479 C 0.53582 0.60742 0.17515 0.0
C2480 C 0.55601 0.61631 0.17667 0.0
H2481 H 0.45732 0.61959 0.93308 0.0
H2482 H 0.48424 0.62299 0.99426 0.0
C2483 C 0.57117 0.61532 0.21241 0.0
C2484 C 0.5198 0.60787 0.13718 0.0
H2485 H 0.51596 0.59998 0.02808 0.0
C2486 C 0.49635 0.61141 0.14471 0.0
C2487 C 0.52704 0.60378 0.09456 0.0
C2488 C 0.55178 0.59925 0.08481 0.0
C2489 C 0.47989 0.61079 0.11091 0.0
C2490 C 0.48707 0.60644 0.0686 0.0
C2491 C 0.51058 0.6033 0.06069 0.0
C2492 C 0.47029 0.60463 0.03236 0.0
C2493 C 0.45494 0.61477 0.12065 0.0
C2494 C 0.45363 0.59311 0.03356 0.0
C2495 C 0.4383 0.59107 0.99858 0.0
C2496 C 0.43938 0.60055 0.96191 0.0
C2497 C 0.45601 0.61214 0.96098 0.0
C2498 C 0.47142 0.61409 0.99581 0.0
H2499 H 0.45321 0.62102 0.15193 0.0
H2500 H 0.44745 0.62165 0.09386 0.0
H2501 H 0.44456 0.60429 0.12323 0.0
H2502 H 0.45272 0.58556 0.06131 0.0
H2503 H 0.42573 0.58203 0.00013 0.0
H2504 H 0.31026 0.75738 0.15366 0.0
H2505 H 0.32534 0.74001 0.09919 0.0
H2506 H 0.39547 0.74981 0.1408 0.0
H2507 H 0.38028 0.76812 0.19331 0.0
H2508 H 0.39634 0.75071 0.06103 0.0
H2509 H 0.34917 0.69916 0.09464 0.0
H2510 H 0.32694 0.71315 0.09021 0.0
H2511 H 0.3486 0.71452 0.13289 0.0
C2512 C 0.32886 0.75559 0.15176 0.0
C2513 C 0.34412 0.76407 0.17752 0.0
C2514 C 0.33753 0.74549 0.12089 0.0
C2515 C 0.36162 0.74324 0.11629 0.0
C2516 C 0.37684 0.75126 0.14364 0.0
H2517 H 0.35937 0.6914 0.8772 0.0
H2518 H 0.37554 0.69526 0.95061 0.0
C2519 C 0.36817 0.76169 0.17367 0.0
C2520 C 0.37062 0.73413 0.07909 0.0
H2521 H 0.35385 0.70507 0.01404 0.0
C2522 C 0.38755 0.74045 0.05151 0.0
C2523 C 0.36047 0.72024 0.06714 0.0
C2524 C 0.34553 0.71134 0.09827 0.0
C2525 C 0.39205 0.73439 0.01003 0.0
C2526 C 0.37823 0.72233 0.99468 0.0
C2527 C 0.36383 0.71474 0.02459 0.0
C2528 C 0.37477 0.71957 0.94707 0.0
C2529 C 0.41088 0.74146 0.98252 0.0
C2530 C 0.36992 0.73185 0.9197 0.0
C2531 C 0.36129 0.72966 0.87773 0.0
C2532 C 0.35657 0.71514 0.86236 0.0
C2533 C 0.36296 0.70274 0.88814 0.0
C2534 C 0.37203 0.70495 0.93025 0.0
H2535 H 0.42633 0.74396 0.00305 0.0
H2536 H 0.41631 0.73409 0.95507 0.0
H2537 H 0.40462 0.75234 0.96927 0.0
H2538 H 0.37095 0.74325 0.93181 0.0
H2539 H 0.35652 0.73945 0.85869 0.0
H2540 H 0.05678 0.37124 0.45115 0.0
H2541 H 0.02795 0.36796 0.50938 0.0
H2542 H 0.02458 0.41598 0.52656 0.0
H2543 H 0.05336 0.41937 0.46837 0.0
H2544 H 0.03225 0.37803 0.59759 0.0
H2545 H 0.95562 0.40284 0.51457 0.0
H2546 H 0.98114 0.39666 0.4852 0.0
H2547 H 0.98119 0.41443 0.51306 0.0
C2548 C 0.0498 0.38111 0.46719 0.0
C2549 C 0.05728 0.39557 0.4552 0.0
C2550 C 0.03335 0.37921 0.50038 0.0
C2551 C 0.02391 0.39173 0.52174 0.0
C2552 C 0.03135 0.40618 0.50985 0.0
H2553 H 0.96275 0.40831 0.76764 0.0
H2554 H 0.98652 0.4053 0.70216 0.0
C2555 C 0.04789 0.40809 0.47685 0.0
C2556 C 0.00717 0.38973 0.558 0.0
H2557 H 0.95266 0.39938 0.592 0.0
C2558 C 0.01474 0.38251 0.59619 0.0
C2559 C 0.98426 0.39542 0.55582 0.0
C2560 C 0.97493 0.40266 0.51482 0.0
C2561 C 0.00036 0.38152 0.63313 0.0
C2562 C 0.97794 0.38796 0.63175 0.0
C2563 C 0.96992 0.39451 0.59289 0.0
C2564 C 0.9635 0.38924 0.67153 0.0
C2565 C 0.0094 0.3739 0.67377 0.0
C2566 C 0.94255 0.38129 0.67565 0.0
C2567 C 0.9289 0.38292 0.71333 0.0
C2568 C 0.93592 0.39271 0.7469 0.0
C2569 C 0.95687 0.40068 0.74235 0.0
C2570 C 0.97053 0.39894 0.70507 0.0
H2571 H 0.0244 0.36646 0.66644 0.0
H2572 H 0.01524 0.38258 0.69741 0.0
H2573 H 0.99552 0.36717 0.68968 0.0
H2574 H 0.93683 0.37383 0.64984 0.0
H2575 H 0.91279 0.37669 0.71596 0.0
H2576 H 0.12961 0.72302 0.1561 0.0
H2577 H 0.12514 0.73062 0.08005 0.0
H2578 H 0.14692 0.68665 0.03787 0.0
H2579 H 0.15129 0.67892 0.1143 0.0
H2580 H 0.16782 0.73062 0.04232 0.0
H2581 H 0.10615 0.6995 0.936 0.0
H2582 H 0.10326 0.69999 0.99486 0.0
H2583 H 0.12447 0.68796 0.9697 0.0
C2584 C 0.13221 0.7147 0.13068 0.0
C2585 C 0.14128 0.70052 0.14092 0.0
C2586 C 0.12975 0.71907 0.08716 0.0
C2587 C 0.13646 0.70935 0.0533 0.0
C2588 C 0.14195 0.69439 0.06347 0.0
H2589 H 0.21187 0.74854 0.83295 0.0
H2590 H 0.20045 0.73138 0.89174 0.0
C2591 C 0.14428 0.68994 0.10724 0.0
C2592 C 0.14334 0.7159 0.01057 0.0
H2593 H 0.13422 0.71499 0.90017 0.0
C2594 C 0.16029 0.72725 0.0113 0.0
C2595 C 0.13398 0.71124 0.97005 0.0
C2596 C 0.11582 0.69908 0.96741 0.0
C2597 C 0.1677 0.73438 0.97301 0.0
C2598 C 0.15822 0.72988 0.93244 0.0
C2599 C 0.14154 0.71834 0.93135 0.0
C2600 C 0.1643 0.73799 0.89169 0.0
C2601 C 0.18523 0.74696 0.97658 0.0
C2602 C 0.14758 0.74703 0.87121 0.0
C2603 C 0.15406 0.75691 0.83784 0.0
C2604 C 0.17737 0.75788 0.82427 0.0
C2605 C 0.19381 0.74812 0.84291 0.0
C2606 C 0.18731 0.73826 0.87636 0.0
H2607 H 0.18713 0.75103 0.01074 0.0
H2608 H 0.20246 0.74285 0.96548 0.0
H2609 H 0.18021 0.75659 0.95556 0.0
H2610 H 0.12976 0.74702 0.88264 0.0
H2611 H 0.14096 0.76421 0.82389 0.0
H2612 H 0.95159 0.62306 0.74288 0.0
H2613 H 0.97417 0.6233 0.81046 0.0
H2614 H 0.9171 0.60249 0.87908 0.0
H2615 H 0.89403 0.60265 0.81151 0.0
H2616 H 0.94069 0.62367 0.92988 0.0
H2617 H 0.00186 0.58376 0.85203 0.0
H2618 H 0.99879 0.60086 0.82157 0.0
H2619 H 0.97422 0.58852 0.82801 0.0
C2620 C 0.9437 0.61878 0.77254 0.0
C2621 C 0.9212 0.61266 0.77195 0.0
C2622 C 0.95665 0.61885 0.81104 0.0
C2623 C 0.94754 0.61252 0.84939 0.0
C2624 C 0.9245 0.6073 0.84967 0.0
H2625 H 0.042 0.58106 0.05116 0.0
H2626 H 0.01089 0.58275 0.99696 0.0
C2627 C 0.91135 0.60742 0.81114 0.0
C2628 C 0.9627 0.61042 0.88801 0.0
H2629 H 0.01401 0.59461 0.91928 0.0
C2630 C 0.95665 0.61724 0.92779 0.0
C2631 C 0.98322 0.60172 0.88542 0.0
C2632 C 0.98981 0.59316 0.8446 0.0
C2633 C 0.97105 0.61599 0.96474 0.0
C2634 C 0.99226 0.60801 0.96133 0.0
C2635 C 0.99788 0.60085 0.92185 0.0
C2636 C 0.00923 0.60705 0.99773 0.0
C2637 C 0.96325 0.62308 0.00708 0.0
C2638 C 0.01855 0.62013 0.01646 0.0
C2639 C 0.03613 0.61917 0.04786 0.0
C2640 C 0.04502 0.60512 0.06037 0.0
C2641 C 0.03553 0.59204 0.04198 0.0
C2642 C 0.01774 0.593 0.01109 0.0
H2643 H 0.94403 0.62427 0.00828 0.0
H2644 H 0.96896 0.61639 0.03576 0.0
H2645 H 0.97088 0.63449 0.00972 0.0
H2646 H 0.01278 0.63111 0.00582 0.0
H2647 H 0.04326 0.62944 0.0613 0.0
H2648 H 0.37115 0.32184 0.61784 0.0
H2649 H 0.37274 0.31821 0.53814 0.0
H2650 H 0.37789 0.27038 0.55742 0.0
H2651 H 0.37473 0.27391 0.63619 0.0
H2652 H 0.39962 0.2987 0.46862 0.0
H2653 H 0.31007 0.28011 0.51013 0.0
H2654 H 0.32731 0.29159 0.54666 0.0
H2655 H 0.33259 0.27177 0.54239 0.0
C2656 C 0.37335 0.31063 0.60494 0.0
C2657 C 0.37165 0.29812 0.6327 0.0
C2658 C 0.37434 0.30857 0.55948 0.0
C2659 C 0.37459 0.29398 0.54207 0.0
C2660 C 0.37722 0.28171 0.57033 0.0
H2661 H 0.3732 0.23916 0.32682 0.0
H2662 H 0.38344 0.25777 0.38174 0.0
C2663 C 0.37553 0.28374 0.61536 0.0
C2664 C 0.36735 0.29108 0.49645 0.0
H2665 H 0.32419 0.27349 0.43979 0.0
C2666 C 0.38299 0.29345 0.46198 0.0
C2667 C 0.34542 0.28451 0.48782 0.0
C2668 C 0.32775 0.28196 0.5236 0.0
C2669 C 0.37791 0.28828 0.41954 0.0
C2670 C 0.35679 0.28054 0.41184 0.0
C2671 C 0.34041 0.27937 0.44562 0.0
C2672 C 0.35274 0.2714 0.37201 0.0
C2673 C 0.39551 0.29066 0.3837 0.0
C2674 C 0.33207 0.27285 0.3479 0.0
C2675 C 0.32592 0.26201 0.31674 0.0
C2676 C 0.34037 0.24954 0.30938 0.0
C2677 C 0.36163 0.24859 0.33182 0.0
C2678 C 0.36769 0.25937 0.36291 0.0
H2679 H 0.40586 0.30101 0.38959 0.0
H2680 H 0.40773 0.28102 0.38314 0.0
H2681 H 0.38703 0.2915 0.35118 0.0
H2682 H 0.32029 0.28205 0.35447 0.0
H2683 H 0.30947 0.26307 0.29981 0.0
H2684 H 0.43261 0.40815 0.51627 0.0
H2685 H 0.46177 0.40593 0.45842 0.0
H2686 H 0.47266 0.35946 0.49246 0.0
H2687 H 0.44337 0.36157 0.55044 0.0
H2688 H 0.50989 0.39674 0.4673 0.0
H2689 H 0.45802 0.35932 0.35872 0.0
H2690 H 0.44495 0.37011 0.40224 0.0
H2691 H 0.46138 0.35355 0.41477 0.0
C2692 C 0.44117 0.39745 0.5114 0.0
C2693 C 0.43565 0.38501 0.53772 0.0
C2694 C 0.45786 0.39621 0.47846 0.0
C2695 C 0.46921 0.38251 0.47107 0.0
C2696 C 0.46388 0.37009 0.49742 0.0
H2697 H 0.58695 0.37734 0.28581 0.0
H2698 H 0.56324 0.37315 0.35168 0.0
C2699 C 0.4472 0.37132 0.53052 0.0
C2700 C 0.48651 0.38137 0.43546 0.0
H2701 H 0.49484 0.36682 0.33339 0.0
C2702 C 0.50681 0.39006 0.43821 0.0
C2703 C 0.48227 0.37268 0.39762 0.0
C2704 C 0.46043 0.36343 0.39272 0.0
C2705 C 0.52273 0.39062 0.40346 0.0
C2706 C 0.51823 0.38218 0.36525 0.0
C2707 C 0.49826 0.37316 0.36299 0.0
C2708 C 0.53257 0.38393 0.32546 0.0
C2709 C 0.54367 0.40076 0.40694 0.0
C2710 C 0.52299 0.39113 0.28894 0.0
C2711 C 0.53639 0.39355 0.25163 0.0
C2712 C 0.55961 0.38871 0.24999 0.0
C2713 C 0.5691 0.38121 0.28627 0.0
C2714 C 0.55565 0.37885 0.32386 0.0
H2715 H 0.54304 0.40799 0.43654 0.0
H2716 H 0.55965 0.39381 0.40849 0.0
H2717 H 0.54499 0.40806 0.37759 0.0
H2718 H 0.50521 0.39513 0.28962 0.0
H2719 H 0.52855 0.39931 0.22416 0.0
loop_
_geom_bond_atom_site_label_1
_geom_bond_atom_site_label_2
_geom_bond_distance
_geom_bond_site_symmetry_2
_ccdc_geom_bond_type
In0 O1 2.294 . S
In0 O2 2.326 . S
In0 O6 2.266 . S
In0 O7 2.326 . S
In0 O8 2.266 . S
In0 O9 2.326 . S
In0 O11 2.294 . S
In0 O12 2.326 . S
O1 In0 2.294 . S
O1 C10 1.240 . S
O2 In0 2.326 . S
O2 C10 1.252 . S
C3 O6 1.252 . S
C3 O7 1.260 . S
C4 O11 1.240 . S
C4 O12 1.252 . S
C5 O8 1.252 . S
C5 O9 1.260 . S
O6 In0 2.266 . S
O6 C3 1.252 . S
O7 In0 2.326 . S
O7 C3 1.260 . S
O8 In0 2.266 . S
O8 C5 1.252 . S
O9 In0 2.326 . S
O9 C5 1.260 . S
C10 O1 1.240 . S
C10 O2 1.252 . S
O11 In0 2.294 . S
O11 C4 1.240 . S
O12 In0 2.326 . S
O12 C4 1.252 . S
In13 O14 2.294 . S
In13 O15 2.326 . S
In13 O19 2.266 . S
In13 O20 2.326 . S
In13 O21 2.266 . S
In13 O22 2.326 . S
In13 O24 2.294 . S
In13 O25 2.326 . S
O14 In13 2.294 . S
O14 C23 1.240 . S
O15 In13 2.326 . S
O15 C23 1.252 . S
C16 O19 1.252 . S
C16 O20 1.260 . S
C17 O24 1.240 . S
C17 O25 1.252 . S
C18 O21 1.252 . S
C18 O22 1.260 . S
O19 In13 2.266 . S
O19 C16 1.252 . S
O20 In13 2.326 . S
O20 C16 1.260 . S
O21 In13 2.266 . S
O21 C18 1.252 . S
O22 In13 2.326 . S
O22 C18 1.260 . S
C23 O14 1.240 . S
C23 O15 1.252 . S
O24 In13 2.294 . S
O24 C17 1.240 . S
O25 In13 2.326 . S
O25 C17 1.252 . S
In26 O27 2.294 . S
In26 O28 2.326 . S
In26 O32 2.266 . S
In26 O33 2.326 . S
In26 O34 2.266 . S
In26 O35 2.326 . S
In26 O37 2.294 . S
In26 O38 2.326 . S
O27 In26 2.294 . S
O27 C36 1.240 . S
O28 In26 2.326 . S
O28 C36 1.252 . S
C29 O32 1.252 . S
C29 O33 1.260 . S
C30 O37 1.240 . S
C30 O38 1.252 . S
C31 O34 1.252 . S
C31 O35 1.260 . S
O32 In26 2.266 . S
O32 C29 1.252 . S
O33 In26 2.326 . S
O33 C29 1.260 . S
O34 In26 2.266 . S
O34 C31 1.252 . S
O35 In26 2.326 . S
O35 C31 1.260 . S
C36 O27 1.240 . S
C36 O28 1.252 . S
O37 In26 2.294 . S
O37 C30 1.240 . S
O38 In26 2.326 . S
O38 C30 1.252 . S
In39 O40 2.294 . S
In39 O41 2.326 . S
In39 O45 2.266 . S
In39 O46 2.326 . S
In39 O47 2.266 . S
In39 O48 2.326 . S
In39 O50 2.294 . S
In39 O51 2.326 . S
O40 In39 2.294 . S
O40 C49 1.240 . S
O41 In39 2.326 . S
O41 C49 1.252 . S
C42 O45 1.252 . S
C42 O46 1.260 . S
C43 O50 1.240 . S
C43 O51 1.252 . S
C44 O47 1.252 . S
C44 O48 1.260 . S
O45 In39 2.266 . S
O45 C42 1.252 . S
O46 In39 2.326 . S
O46 C42 1.260 . S
O47 In39 2.266 . S
O47 C44 1.252 . S
O48 In39 2.326 . S
O48 C44 1.260 . S
C49 O40 1.240 . S
C49 O41 1.252 . S
O50 In39 2.294 . S
O50 C43 1.240 . S
O51 In39 2.326 . S
O51 C43 1.252 . S
In52 O53 2.294 . S
In52 O54 2.326 . S
In52 O58 2.266 . S
In52 O59 2.326 . S
In52 O60 2.266 . S
In52 O61 2.326 . S
In52 O63 2.294 . S
In52 O64 2.326 . S
O53 In52 2.294 . S
O53 C62 1.240 . S
O54 In52 2.326 . S
O54 C62 1.252 . S
C55 O58 1.252 . S
C55 O59 1.260 . S
C56 O63 1.240 . S
C56 O64 1.252 . S
C57 O60 1.252 . S
C57 O61 1.260 . S
O58 In52 2.266 . S
O58 C55 1.252 . S
O59 In52 2.326 . S
O59 C55 1.260 . S
O60 In52 2.266 . S
O60 C57 1.252 . S
O61 In52 2.326 . S
O61 C57 1.260 . S
C62 O53 1.240 . S
C62 O54 1.252 . S
O63 In52 2.294 . S
O63 C56 1.240 . S
O64 In52 2.326 . S
O64 C56 1.252 . S
In65 O66 2.294 . S
In65 O67 2.326 . S
In65 O71 2.266 . S
In65 O72 2.326 . S
In65 O73 2.266 . S
In65 O74 2.326 . S
In65 O76 2.294 . S
In65 O77 2.326 . S
O66 In65 2.294 . S
O66 C75 1.240 . S
O67 In65 2.326 . S
O67 C75 1.252 . S
C68 O71 1.252 . S
C68 O72 1.260 . S
C69 O76 1.240 . S
C69 O77 1.252 . S
C70 O73 1.252 . S
C70 O74 1.260 . S
O71 In65 2.266 . S
O71 C68 1.252 . S
O72 In65 2.326 . S
O72 C68 1.260 . S
O73 In65 2.266 . S
O73 C70 1.252 . S
O74 In65 2.326 . S
O74 C70 1.260 . S
C75 O66 1.240 . S
C75 O67 1.252 . S
O76 In65 2.294 . S
O76 C69 1.240 . S
O77 In65 2.326 . S
O77 C69 1.252 . S
In78 O79 2.294 . S
In78 O80 2.326 . S
In78 O84 2.266 . S
In78 O85 2.326 . S
In78 O86 2.266 . S
In78 O87 2.326 . S
In78 O89 2.294 . S
In78 O90 2.326 . S
O79 In78 2.294 . S
O79 C88 1.240 . S
O80 In78 2.326 . S
O80 C88 1.252 . S
C81 O84 1.252 . S
C81 O85 1.260 . S
C82 O89 1.240 . S
C82 O90 1.252 . S
C83 O86 1.252 . S
C83 O87 1.260 . S
O84 In78 2.266 . S
O84 C81 1.252 . S
O85 In78 2.326 . S
O85 C81 1.260 . S
O86 In78 2.266 . S
O86 C83 1.252 . S
O87 In78 2.326 . S
O87 C83 1.260 . S
C88 O79 1.240 . S
C88 O80 1.252 . S
O89 In78 2.294 . S
O89 C82 1.240 . S
O90 In78 2.326 . S
O90 C82 1.252 . S
In91 O92 2.294 . S
In91 O93 2.326 . S
In91 O97 2.266 . S
In91 O98 2.326 . S
In91 O99 2.266 . S
In91 O100 2.326 . S
In91 O102 2.294 . S
In91 O103 2.326 . S
O92 In91 2.294 . S
O92 C101 1.240 . S
O93 In91 2.326 . S
O93 C101 1.252 . S
C94 O97 1.252 . S
C94 O98 1.260 . S
C95 O102 1.240 . S
C95 O103 1.252 . S
C96 O99 1.252 . S
C96 O100 1.260 . S
O97 In91 2.266 . S
O97 C94 1.252 . S
O98 In91 2.326 . S
O98 C94 1.260 . S
O99 In91 2.266 . S
O99 C96 1.252 . S
O100 In91 2.326 . S
O100 C96 1.260 . S
C101 O92 1.240 . S
C101 O93 1.252 . S
O102 In91 2.294 . S
O102 C95 1.240 . S
O103 In91 2.326 . S
O103 C95 1.252 . S
In104 O105 2.294 . S
In104 O106 2.326 . S
In104 O110 2.266 . S
In104 O111 2.326 . S
In104 O112 2.266 . S
In104 O113 2.326 . S
In104 O115 2.294 . S
In104 O116 2.326 . S
O105 In104 2.294 . S
O105 C114 1.240 . S
O106 In104 2.326 . S
O106 C114 1.252 . S
C107 O110 1.252 . S
C107 O111 1.260 . S
C108 O115 1.240 . S
C108 O116 1.252 . S
C109 O112 1.252 . S
C109 O113 1.260 . S
O110 In104 2.266 . S
O110 C107 1.252 . S
O111 In104 2.326 . S
O111 C107 1.260 . S
O112 In104 2.266 . S
O112 C109 1.252 . S
O113 In104 2.326 . S
O113 C109 1.260 . S
C114 O105 1.240 . S
C114 O106 1.252 . S
O115 In104 2.294 . S
O115 C108 1.240 . S
O116 In104 2.326 . S
O116 C108 1.252 . S
In117 O118 2.294 . S
In117 O119 2.326 . S
In117 O123 2.266 . S
In117 O124 2.326 . S
In117 O125 2.266 . S
In117 O126 2.326 . S
In117 O128 2.294 . S
In117 O129 2.326 . S
O118 In117 2.294 . S
O118 C127 1.240 . S
O119 In117 2.326 . S
O119 C127 1.252 . S
C120 O123 1.252 . S
C120 O124 1.260 . S
C121 O128 1.240 . S
C121 O129 1.252 . S
C122 O125 1.252 . S
C122 O126 1.260 . S
O123 In117 2.266 . S
O123 C120 1.252 . S
O124 In117 2.326 . S
O124 C120 1.260 . S
O125 In117 2.266 . S
O125 C122 1.252 . S
O126 In117 2.326 . S
O126 C122 1.260 . S
C127 O118 1.240 . S
C127 O119 1.252 . S
O128 In117 2.294 . S
O128 C121 1.240 . S
O129 In117 2.326 . S
O129 C121 1.252 . S
In130 O131 2.294 . S
In130 O132 2.326 . S
In130 O136 2.266 . S
In130 O137 2.326 . S
In130 O138 2.266 . S
In130 O139 2.326 . S
In130 O141 2.294 . S
In130 O142 2.326 . S
O131 In130 2.294 . S
O131 C140 1.240 . S
O132 In130 2.326 . S
O132 C140 1.252 . S
C133 O136 1.252 . S
C133 O137 1.260 . S
C134 O141 1.240 . S
C134 O142 1.252 . S
C135 O138 1.252 . S
C135 O139 1.260 . S
O136 In130 2.266 . S
O136 C133 1.252 . S
O137 In130 2.326 . S
O137 C133 1.260 . S
O138 In130 2.266 . S
O138 C135 1.252 . S
O139 In130 2.326 . S
O139 C135 1.260 . S
C140 O131 1.240 . S
C140 O132 1.252 . S
O141 In130 2.294 . S
O141 C134 1.240 . S
O142 In130 2.326 . S
O142 C134 1.252 . S
In143 O144 2.294 . S
In143 O145 2.326 . S
In143 O149 2.266 . S
In143 O150 2.326 . S
In143 O151 2.266 . S
In143 O152 2.326 . S
In143 O154 2.294 . S
In143 O155 2.326 . S
O144 In143 2.294 . S
O144 C153 1.240 . S
O145 In143 2.326 . S
O145 C153 1.252 . S
C146 O149 1.252 . S
C146 O150 1.260 . S
C147 O154 1.240 . S
C147 O155 1.252 . S
C148 O151 1.252 . S
C148 O152 1.260 . S
O149 In143 2.266 . S
O149 C146 1.252 . S
O150 In143 2.326 . S
O150 C146 1.260 . S
O151 In143 2.266 . S
O151 C148 1.252 . S
O152 In143 2.326 . S
O152 C148 1.260 . S
C153 O144 1.240 . S
C153 O145 1.252 . S
O154 In143 2.294 . S
O154 C147 1.240 . S
O155 In143 2.326 . S
O155 C147 1.252 . S
In156 O157 2.294 . S
In156 O158 2.326 . S
In156 O162 2.266 . S
In156 O163 2.326 . S
In156 O164 2.266 . S
In156 O165 2.326 . S
In156 O167 2.294 . S
In156 O168 2.326 . S
O157 In156 2.294 . S
O157 C166 1.240 . S
O158 In156 2.326 . S
O158 C166 1.252 . S
C159 O162 1.252 . S
C159 O163 1.260 . S
C160 O167 1.240 . S
C160 O168 1.252 . S
C161 O164 1.252 . S
C161 O165 1.260 . S
O162 In156 2.266 . S
O162 C159 1.252 . S
O163 In156 2.326 . S
O163 C159 1.260 . S
O164 In156 2.266 . S
O164 C161 1.252 . S
O165 In156 2.326 . S
O165 C161 1.260 . S
C166 O157 1.240 . S
C166 O158 1.252 . S
O167 In156 2.294 . S
O167 C160 1.240 . S
O168 In156 2.326 . S
O168 C160 1.252 . S
In169 O170 2.294 . S
In169 O171 2.326 . S
In169 O175 2.266 . S
In169 O176 2.326 . S
In169 O177 2.266 . S
In169 O178 2.326 . S
In169 O180 2.294 . S
In169 O181 2.326 . S
O170 In169 2.294 . S
O170 C179 1.240 . S
O171 In169 2.326 . S
O171 C179 1.252 . S
C172 O175 1.252 . S
C172 O176 1.260 . S
C173 O180 1.240 . S
C173 O181 1.252 . S
C174 O177 1.252 . S
C174 O178 1.260 . S
O175 In169 2.266 . S
O175 C172 1.252 . S
O176 In169 2.326 . S
O176 C172 1.260 . S
O177 In169 2.266 . S
O177 C174 1.252 . S
O178 In169 2.326 . S
O178 C174 1.260 . S
C179 O170 1.240 . S
C179 O171 1.252 . S
O180 In169 2.294 . S
O180 C173 1.240 . S
O181 In169 2.326 . S
O181 C173 1.252 . S
In182 O183 2.294 . S
In182 O184 2.326 . S
In182 O188 2.266 . S
In182 O189 2.326 . S
In182 O190 2.266 . S
In182 O191 2.326 . S
In182 O193 2.294 . S
In182 O194 2.326 . S
O183 In182 2.294 . S
O183 C192 1.240 . S
O184 In182 2.326 . S
O184 C192 1.252 . S
C185 O188 1.252 . S
C185 O189 1.260 . S
C186 O193 1.240 . S
C186 O194 1.252 . S
C187 O190 1.252 . S
C187 O191 1.260 . S
O188 In182 2.266 . S
O188 C185 1.252 . S
O189 In182 2.326 . S
O189 C185 1.260 . S
O190 In182 2.266 . S
O190 C187 1.252 . S
O191 In182 2.326 . S
O191 C187 1.260 . S
C192 O183 1.240 . S
C192 O184 1.252 . S
O193 In182 2.294 . S
O193 C186 1.240 . S
O194 In182 2.326 . S
O194 C186 1.252 . S
In195 O196 2.294 . S
In195 O197 2.326 . S
In195 O201 2.266 . S
In195 O202 2.326 . S
In195 O203 2.266 . S
In195 O204 2.326 . S
In195 O206 2.294 . S
In195 O207 2.326 . S
O196 In195 2.294 . S
O196 C205 1.240 . S
O197 In195 2.326 . S
O197 C205 1.252 . S
C198 O201 1.252 . S
C198 O202 1.260 . S
C199 O206 1.240 . S
C199 O207 1.252 . S
C200 O203 1.252 . S
C200 O204 1.260 . S
O201 In195 2.266 . S
O201 C198 1.252 . S
O202 In195 2.326 . S
O202 C198 1.260 . S
O203 In195 2.266 . S
O203 C200 1.252 . S
O204 In195 2.326 . S
O204 C200 1.260 . S
C205 O196 1.240 . S
C205 O197 1.252 . S
O206 In195 2.294 . S
O206 C199 1.240 . S
O207 In195 2.326 . S
O207 C199 1.252 . S
In208 O209 2.294 . S
In208 O210 2.326 . S
In208 O214 2.266 . S
In208 O215 2.326 . S
In208 O216 2.266 . S
In208 O217 2.326 . S
In208 O219 2.294 . S
In208 O220 2.326 . S
O209 In208 2.294 . S
O209 C218 1.240 . S
O210 In208 2.326 . S
O210 C218 1.252 . S
C211 O214 1.252 . S
C211 O215 1.260 . S
C212 O219 1.240 . S
C212 O220 1.252 . S
C213 O216 1.252 . S
C213 O217 1.260 . S
O214 In208 2.266 . S
O214 C211 1.252 . S
O215 In208 2.326 . S
O215 C211 1.260 . S
O216 In208 2.266 . S
O216 C213 1.252 . S
O217 In208 2.326 . S
O217 C213 1.260 . S
C218 O209 1.240 . S
C218 O210 1.252 . S
O219 In208 2.294 . S
O219 C212 1.240 . S
O220 In208 2.326 . S
O220 C212 1.252 . S
In221 O222 2.294 . S
In221 O223 2.326 . S
In221 O227 2.266 . S
In221 O228 2.326 . S
In221 O229 2.266 . S
In221 O230 2.326 . S
In221 O232 2.294 . S
In221 O233 2.326 . S
O222 In221 2.294 . S
O222 C231 1.240 . S
O223 In221 2.326 . S
O223 C231 1.252 . S
C224 O227 1.252 . S
C224 O228 1.260 . S
C225 O232 1.240 . S
C225 O233 1.252 . S
C226 O229 1.252 . S
C226 O230 1.260 . S
O227 In221 2.266 . S
O227 C224 1.252 . S
O228 In221 2.326 . S
O228 C224 1.260 . S
O229 In221 2.266 . S
O229 C226 1.252 . S
O230 In221 2.326 . S
O230 C226 1.260 . S
C231 O222 1.240 . S
C231 O223 1.252 . S
O232 In221 2.294 . S
O232 C225 1.240 . S
O233 In221 2.326 . S
O233 C225 1.252 . S
In234 O235 2.294 . S
In234 O236 2.326 . S
In234 O240 2.266 . S
In234 O241 2.326 . S
In234 O242 2.266 . S
In234 O243 2.326 . S
In234 O245 2.294 . S
In234 O246 2.326 . S
O235 In234 2.294 . S
O235 C244 1.240 . S
O236 In234 2.326 . S
O236 C244 1.252 . S
C237 O240 1.252 . S
C237 O241 1.260 . S
C238 O245 1.240 . S
C238 O246 1.252 . S
C239 O242 1.252 . S
C239 O243 1.260 . S
O240 In234 2.266 . S
O240 C237 1.252 . S
O241 In234 2.326 . S
O241 C237 1.260 . S
O242 In234 2.266 . S
O242 C239 1.252 . S
O243 In234 2.326 . S
O243 C239 1.260 . S
C244 O235 1.240 . S
C244 O236 1.252 . S
O245 In234 2.294 . S
O245 C238 1.240 . S
O246 In234 2.326 . S
O246 C238 1.252 . S
In247 O248 2.294 . S
In247 O249 2.326 . S
In247 O253 2.266 . S
In247 O254 2.326 . S
In247 O255 2.266 . S
In247 O256 2.326 . S
In247 O258 2.294 . S
In247 O259 2.326 . S
O248 In247 2.294 . S
O248 C257 1.240 . S
O249 In247 2.326 . S
O249 C257 1.252 . S
C250 O253 1.252 . S
C250 O254 1.260 . S
C251 O258 1.240 . S
C251 O259 1.252 . S
C252 O255 1.252 . S
C252 O256 1.260 . S
O253 In247 2.266 . S
O253 C250 1.252 . S
O254 In247 2.326 . S
O254 C250 1.260 . S
O255 In247 2.266 . S
O255 C252 1.252 . S
O256 In247 2.326 . S
O256 C252 1.260 . S
C257 O248 1.240 . S
C257 O249 1.252 . S
O258 In247 2.294 . S
O258 C251 1.240 . S
O259 In247 2.326 . S
O259 C251 1.252 . S
In260 O261 2.294 . S
In260 O262 2.326 . S
In260 O266 2.266 . S
In260 O267 2.326 . S
In260 O268 2.266 . S
In260 O269 2.326 . S
In260 O271 2.294 . S
In260 O272 2.326 . S
O261 In260 2.294 . S
O261 C270 1.240 . S
O262 In260 2.326 . S
O262 C270 1.252 . S
C263 O266 1.252 . S
C263 O267 1.260 . S
C264 O271 1.240 . S
C264 O272 1.252 . S
C265 O268 1.252 . S
C265 O269 1.260 . S
O266 In260 2.266 . S
O266 C263 1.252 . S
O267 In260 2.326 . S
O267 C263 1.260 . S
O268 In260 2.266 . S
O268 C265 1.252 . S
O269 In260 2.326 . S
O269 C265 1.260 . S
C270 O261 1.240 . S
C270 O262 1.252 . S
O271 In260 2.294 . S
O271 C264 1.240 . S
O272 In260 2.326 . S
O272 C264 1.252 . S
In273 O274 2.294 . S
In273 O275 2.326 . S
In273 O279 2.266 . S
In273 O280 2.326 . S
In273 O281 2.266 . S
In273 O282 2.326 . S
In273 O284 2.294 . S
In273 O285 2.326 . S
O274 In273 2.294 . S
O274 C283 1.240 . S
O275 In273 2.326 . S
O275 C283 1.252 . S
C276 O279 1.252 . S
C276 O280 1.260 . S
C277 O284 1.240 . S
C277 O285 1.252 . S
C278 O281 1.252 . S
C278 O282 1.260 . S
O279 In273 2.266 . S
O279 C276 1.252 . S
O280 In273 2.326 . S
O280 C276 1.260 . S
O281 In273 2.266 . S
O281 C278 1.252 . S
O282 In273 2.326 . S
O282 C278 1.260 . S
C283 O274 1.240 . S
C283 O275 1.252 . S
O284 In273 2.294 . S
O284 C277 1.240 . S
O285 In273 2.326 . S
O285 C277 1.252 . S
In286 O287 2.294 . S
In286 O288 2.326 . S
In286 O292 2.266 . S
In286 O293 2.326 . S
In286 O294 2.266 . S
In286 O295 2.326 . S
In286 O297 2.294 . S
In286 O298 2.326 . S
O287 In286 2.294 . S
O287 C296 1.240 . S
O288 In286 2.326 . S
O288 C296 1.252 . S
C289 O292 1.252 . S
C289 O293 1.260 . S
C290 O297 1.240 . S
C290 O298 1.252 . S
C291 O294 1.252 . S
C291 O295 1.260 . S
O292 In286 2.266 . S
O292 C289 1.252 . S
O293 In286 2.326 . S
O293 C289 1.260 . S
O294 In286 2.266 . S
O294 C291 1.252 . S
O295 In286 2.326 . S
O295 C291 1.260 . S
C296 O287 1.240 . S
C296 O288 1.252 . S
O297 In286 2.294 . S
O297 C290 1.240 . S
O298 In286 2.326 . S
O298 C290 1.252 . S
In299 O300 2.294 . S
In299 O301 2.326 . S
In299 O305 2.266 . S
In299 O306 2.326 . S
In299 O307 2.266 . S
In299 O308 2.326 . S
In299 O310 2.294 . S
In299 O311 2.326 . S
O300 In299 2.294 . S
O300 C309 1.240 . S
O301 In299 2.326 . S
O301 C309 1.252 . S
C302 O305 1.252 . S
C302 O306 1.260 . S
C303 O310 1.240 . S
C303 O311 1.252 . S
C304 O307 1.252 . S
C304 O308 1.260 . S
O305 In299 2.266 . S
O305 C302 1.252 . S
O306 In299 2.326 . S
O306 C302 1.260 . S
O307 In299 2.266 . S
O307 C304 1.252 . S
O308 In299 2.326 . S
O308 C304 1.260 . S
C309 O300 1.240 . S
C309 O301 1.252 . S
O310 In299 2.294 . S
O310 C303 1.240 . S
O311 In299 2.326 . S
O311 C303 1.252 . S
In312 O313 2.294 . S
In312 O314 2.326 . S
In312 O318 2.266 . S
In312 O319 2.326 . S
In312 O320 2.266 . S
In312 O321 2.326 . S
In312 O323 2.294 . S
In312 O324 2.326 . S
O313 In312 2.294 . S
O313 C322 1.240 . S
O314 In312 2.326 . S
O314 C322 1.252 . S
C315 O318 1.252 . S
C315 O319 1.260 . S
C316 O323 1.240 . S
C316 O324 1.252 . S
C317 O320 1.252 . S
C317 O321 1.260 . S
O318 In312 2.266 . S
O318 C315 1.252 . S
O319 In312 2.326 . S
O319 C315 1.260 . S
O320 In312 2.266 . S
O320 C317 1.252 . S
O321 In312 2.326 . S
O321 C317 1.260 . S
C322 O313 1.240 . S
C322 O314 1.252 . S
O323 In312 2.294 . S
O323 C316 1.240 . S
O324 In312 2.326 . S
O324 C316 1.252 . S
In325 O326 2.294 . S
In325 O327 2.326 . S
In325 O331 2.266 . S
In325 O332 2.326 . S
In325 O333 2.266 . S
In325 O334 2.326 . S
In325 O336 2.294 . S
In325 O337 2.326 . S
O326 In325 2.294 . S
O326 C335 1.240 . S
O327 In325 2.326 . S
O327 C335 1.252 . S
C328 O331 1.252 . S
C328 O332 1.260 . S
C329 O336 1.240 . S
C329 O337 1.252 . S
C330 O333 1.252 . S
C330 O334 1.260 . S
O331 In325 2.266 . S
O331 C328 1.252 . S
O332 In325 2.326 . S
O332 C328 1.260 . S
O333 In325 2.266 . S
O333 C330 1.252 . S
O334 In325 2.326 . S
O334 C330 1.260 . S
C335 O326 1.240 . S
C335 O327 1.252 . S
O336 In325 2.294 . S
O336 C329 1.240 . S
O337 In325 2.326 . S
O337 C329 1.252 . S
In338 O339 2.294 . S
In338 O340 2.326 . S
In338 O344 2.266 . S
In338 O345 2.326 . S
In338 O346 2.266 . S
In338 O347 2.326 . S
In338 O349 2.294 . S
In338 O350 2.326 . S
O339 In338 2.294 . S
O339 C348 1.240 . S
O340 In338 2.326 . S
O340 C348 1.252 . S
C341 O344 1.252 . S
C341 O345 1.260 . S
C342 O349 1.240 . S
C342 O350 1.252 . S
C343 O346 1.252 . S
C343 O347 1.260 . S
O344 In338 2.266 . S
O344 C341 1.252 . S
O345 In338 2.326 . S
O345 C341 1.260 . S
O346 In338 2.266 . S
O346 C343 1.252 . S
O347 In338 2.326 . S
O347 C343 1.260 . S
C348 O339 1.240 . S
C348 O340 1.252 . S
O349 In338 2.294 . S
O349 C342 1.240 . S
O350 In338 2.326 . S
O350 C342 1.252 . S
In351 O352 2.294 . S
In351 O353 2.326 . S
In351 O357 2.266 . S
In351 O358 2.326 . S
In351 O359 2.266 . S
In351 O360 2.326 . S
In351 O362 2.294 . S
In351 O363 2.326 . S
O352 In351 2.294 . S
O352 C361 1.240 . S
O353 In351 2.326 . S
O353 C361 1.252 . S
C354 O357 1.252 . S
C354 O358 1.260 . S
C355 O362 1.240 . S
C355 O363 1.252 . S
C356 O359 1.252 . S
C356 O360 1.260 . S
O357 In351 2.266 . S
O357 C354 1.252 . S
O358 In351 2.326 . S
O358 C354 1.260 . S
O359 In351 2.266 . S
O359 C356 1.252 . S
O360 In351 2.326 . S
O360 C356 1.260 . S
C361 O352 1.240 . S
C361 O353 1.252 . S
O362 In351 2.294 . S
O362 C355 1.240 . S
O363 In351 2.326 . S
O363 C355 1.252 . S
In364 O365 2.294 . S
In364 O366 2.326 . S
In364 O370 2.266 . S
In364 O371 2.326 . S
In364 O372 2.266 . S
In364 O373 2.326 . S
In364 O375 2.294 . S
In364 O376 2.326 . S
O365 In364 2.294 . S
O365 C374 1.240 . S
O366 In364 2.326 . S
O366 C374 1.252 . S
C367 O370 1.252 . S
C367 O371 1.260 . S
C368 O375 1.240 . S
C368 O376 1.252 . S
C369 O372 1.252 . S
C369 O373 1.260 . S
O370 In364 2.266 . S
O370 C367 1.252 . S
O371 In364 2.326 . S
O371 C367 1.260 . S
O372 In364 2.266 . S
O372 C369 1.252 . S
O373 In364 2.326 . S
O373 C369 1.260 . S
C374 O365 1.240 . S
C374 O366 1.252 . S
O375 In364 2.294 . S
O375 C368 1.240 . S
O376 In364 2.326 . S
O376 C368 1.252 . S
In377 O378 2.294 . S
In377 O379 2.326 . S
In377 O383 2.266 . S
In377 O384 2.326 . S
In377 O385 2.266 . S
In377 O386 2.326 . S
In377 O388 2.294 . S
In377 O389 2.326 . S
O378 In377 2.294 . S
O378 C387 1.240 . S
O379 In377 2.326 . S
O379 C387 1.252 . S
C380 O383 1.252 . S
C380 O384 1.260 . S
C381 O388 1.240 . S
C381 O389 1.252 . S
C382 O385 1.252 . S
C382 O386 1.260 . S
O383 In377 2.266 . S
O383 C380 1.252 . S
O384 In377 2.326 . S
O384 C380 1.260 . S
O385 In377 2.266 . S
O385 C382 1.252 . S
O386 In377 2.326 . S
O386 C382 1.260 . S
C387 O378 1.240 . S
C387 O379 1.252 . S
O388 In377 2.294 . S
O388 C381 1.240 . S
O389 In377 2.326 . S
O389 C381 1.252 . S
In390 O391 2.294 . S
In390 O392 2.326 . S
In390 O396 2.266 . S
In390 O397 2.326 . S
In390 O398 2.266 . S
In390 O399 2.326 . S
In390 O401 2.294 . S
In390 O402 2.326 . S
O391 In390 2.294 . S
O391 C400 1.240 . S
O392 In390 2.326 . S
O392 C400 1.252 . S
C393 O396 1.252 . S
C393 O397 1.260 . S
C394 O401 1.240 . S
C394 O402 1.252 . S
C395 O398 1.252 . S
C395 O399 1.260 . S
O396 In390 2.266 . S
O396 C393 1.252 . S
O397 In390 2.326 . S
O397 C393 1.260 . S
O398 In390 2.266 . S
O398 C395 1.252 . S
O399 In390 2.326 . S
O399 C395 1.260 . S
C400 O391 1.240 . S
C400 O392 1.252 . S
O401 In390 2.294 . S
O401 C394 1.240 . S
O402 In390 2.326 . S
O402 C394 1.252 . S
In403 O404 2.294 . S
In403 O405 2.326 . S
In403 O409 2.266 . S
In403 O410 2.326 . S
In403 O411 2.266 . S
In403 O412 2.326 . S
In403 O414 2.294 . S
In403 O415 2.326 . S
O404 In403 2.294 . S
O404 C413 1.240 . S
O405 In403 2.326 . S
O405 C413 1.252 . S
C406 O409 1.252 . S
C406 O410 1.260 . S
C407 O414 1.240 . S
C407 O415 1.252 . S
C408 O411 1.252 . S
C408 O412 1.260 . S
O409 In403 2.266 . S
O409 C406 1.252 . S
O410 In403 2.326 . S
O410 C406 1.260 . S
O411 In403 2.266 . S
O411 C408 1.252 . S
O412 In403 2.326 . S
O412 C408 1.260 . S
C413 O404 1.240 . S
C413 O405 1.252 . S
O414 In403 2.294 . S
O414 C407 1.240 . S
O415 In403 2.326 . S
O415 C407 1.252 . S
H416 C424 0.929 . S
H417 C426 0.930 . S
H418 C428 0.930 . S
H419 C431 0.929 . S
H420 C434 0.930 . S
H421 C436 0.960 . S
H422 C436 0.960 . S
H423 C436 0.960 . S
C424 H416 0.929 . S
C424 C425 1.377 . S
C424 C426 1.384 . S
C425 C424 1.377 . S
C425 C431 1.390 . S
C426 H417 0.930 . S
C426 C424 1.384 . S
C426 C427 1.372 . S
C427 C426 1.372 . S
C427 C428 1.400 . S
C427 C432 1.490 . S
C428 H418 0.930 . S
C428 C427 1.400 . S
C428 C431 1.386 . S
H429 C445 0.930 . S
H430 C446 0.931 . S
C431 H419 0.929 . S
C431 C425 1.390 . S
C431 C428 1.386 . S
C432 C427 1.490 . S
C432 C434 1.395 . S
C432 C435 1.403 . S
H433 C439 0.930 . S
C434 H420 0.930 . S
C434 C432 1.395 . S
C434 C437 1.403 . S
C435 C432 1.403 . S
C435 C436 1.524 . S
C435 C439 1.400 . S
C436 H421 0.960 . S
C436 H422 0.960 . S
C436 H423 0.960 . S
C436 C435 1.524 . S
C437 C434 1.403 . S
C437 C438 1.392 . S
C437 C441 1.495 . S
C438 C437 1.392 . S
C438 C439 1.385 . S
C438 C440 1.478 . S
C439 H433 0.930 . S
C439 C435 1.400 . S
C439 C438 1.385 . S
C440 C438 1.478 . S
C440 C442 1.381 . S
C440 C446 1.383 . S
C441 C437 1.495 . S
C441 H447 0.959 . S
C441 H448 0.961 . S
C441 H449 0.960 . S
C442 C440 1.381 . S
C442 C443 1.394 . S
C442 H450 0.930 . S
C443 C442 1.394 . S
C443 C444 1.383 . S
C443 H451 0.929 . S
C444 C443 1.383 . S
C444 C445 1.377 . S
C445 H429 0.930 . S
C445 C444 1.377 . S
C445 C446 1.379 . S
C446 H430 0.931 . S
C446 C440 1.383 . S
C446 C445 1.379 . S
H447 C441 0.959 . S
H448 C441 0.961 . S
H449 C441 0.960 . S
H450 C442 0.930 . S
H451 C443 0.929 . S
H452 C460 0.929 . S
H453 C462 0.930 . S
H454 C464 0.930 . S
H455 C467 0.929 . S
H456 C470 0.930 . S
H457 C472 0.960 . S
H458 C472 0.960 . S
H459 C472 0.960 . S
C460 H452 0.929 . S
C460 C461 1.377 . S
C460 C462 1.384 . S
C461 C460 1.377 . S
C461 C467 1.390 . S
C462 H453 0.930 . S
C462 C460 1.384 . S
C462 C463 1.372 . S
C463 C462 1.372 . S
C463 C464 1.400 . S
C463 C468 1.490 . S
C464 H454 0.930 . S
C464 C463 1.400 . S
C464 C467 1.386 . S
H465 C481 0.930 . S
H466 C482 0.931 . S
C467 H455 0.929 . S
C467 C461 1.390 . S
C467 C464 1.386 . S
C468 C463 1.490 . S
C468 C470 1.395 . S
C468 C471 1.403 . S
H469 C475 0.930 . S
C470 H456 0.930 . S
C470 C468 1.395 . S
C470 C473 1.403 1_565 S
C471 C468 1.403 . S
C471 C472 1.524 . S
C471 C475 1.400 1_565 S
C472 H457 0.960 . S
C472 H458 0.960 . S
C472 H459 0.960 . S
C472 C471 1.524 . S
C473 C470 1.403 1_545 S
C473 C474 1.392 . S
C473 C477 1.495 . S
C474 C473 1.392 . S
C474 C475 1.385 . S
C474 C476 1.478 . S
C475 H469 0.930 . S
C475 C471 1.400 1_545 S
C475 C474 1.385 . S
C476 C474 1.478 . S
C476 C478 1.381 . S
C476 C482 1.383 . S
C477 C473 1.495 . S
C477 H483 0.959 . S
C477 H484 0.961 . S
C477 H485 0.960 . S
C478 C476 1.381 . S
C478 C479 1.394 . S
C478 H486 0.930 . S
C479 C478 1.394 . S
C479 C480 1.383 . S
C479 H487 0.929 . S
C480 C479 1.383 . S
C480 C481 1.377 . S
C481 H465 0.930 . S
C481 C480 1.377 . S
C481 C482 1.379 . S
C482 H466 0.931 . S
C482 C476 1.383 . S
C482 C481 1.379 . S
H483 C477 0.959 . S
H484 C477 0.961 . S
H485 C477 0.960 . S
H486 C478 0.930 . S
H487 C479 0.929 . S
H488 C496 0.929 . S
H489 C498 0.930 . S
H490 C500 0.930 . S
H491 C503 0.929 . S
H492 C506 0.930 . S
H493 C508 0.960 . S
H494 C508 0.960 1_554 S
H495 C508 0.960 . S
C496 H488 0.929 . S
C496 C497 1.377 . S
C496 C498 1.384 . S
C497 C496 1.377 . S
C497 C503 1.390 . S
C498 H489 0.930 . S
C498 C496 1.384 . S
C498 C499 1.372 . S
C499 C498 1.372 . S
C499 C500 1.400 . S
C499 C504 1.490 . S
C500 H490 0.930 . S
C500 C499 1.400 . S
C500 C503 1.386 . S
H501 C517 0.930 . S
H502 C518 0.931 . S
C503 H491 0.929 . S
C503 C497 1.390 . S
C503 C500 1.386 . S
C504 C499 1.490 . S
C504 C506 1.395 . S
C504 C507 1.403 1_554 S
H505 C511 0.930 . S
C506 H492 0.930 . S
C506 C504 1.395 . S
C506 C509 1.403 . S
C507 C504 1.403 1_556 S
C507 C508 1.524 . S
C507 C511 1.400 . S
C508 H493 0.960 . S
C508 H494 0.960 1_556 S
C508 H495 0.960 . S
C508 C507 1.524 . S
C509 C506 1.403 . S
C509 C510 1.392 1_554 S
C509 C513 1.495 . S
C510 C509 1.392 1_556 S
C510 C511 1.385 . S
C510 C512 1.478 . S
C511 H505 0.930 . S
C511 C507 1.400 . S
C511 C510 1.385 . S
C512 C510 1.478 . S
C512 C514 1.381 . S
C512 C518 1.383 . S
C513 C509 1.495 . S
C513 H519 0.959 . S
C513 H520 0.961 1_554 S
C513 H521 0.960 . S
C514 C512 1.381 . S
C514 C515 1.394 . S
C514 H522 0.930 . S
C515 C514 1.394 . S
C515 C516 1.383 . S
C515 H523 0.929 . S
C516 C515 1.383 . S
C516 C517 1.377 . S
C517 H501 0.930 . S
C517 C516 1.377 . S
C517 C518 1.379 . S
C518 H502 0.931 . S
C518 C512 1.383 . S
C518 C517 1.379 . S
H519 C513 0.959 . S
H520 C513 0.961 1_556 S
H521 C513 0.960 . S
H522 C514 0.930 . S
H523 C515 0.929 . S
H524 C532 0.929 . S
H525 C534 0.930 . S
H526 C536 0.930 . S
H527 C539 0.929 . S
H528 C542 0.930 . S
H529 C544 0.960 . S
H530 C544 0.960 . S
H531 C544 0.960 . S
C532 H524 0.929 . S
C532 C533 1.377 . S
C532 C534 1.384 . S
C533 C532 1.377 . S
C533 C539 1.390 . S
C534 H525 0.930 . S
C534 C532 1.384 . S
C534 C535 1.372 . S
C535 C534 1.372 . S
C535 C536 1.400 . S
C535 C540 1.490 . S
C536 H526 0.930 . S
C536 C535 1.400 . S
C536 C539 1.386 . S
H537 C553 0.930 . S
H538 C554 0.931 . S
C539 H527 0.929 . S
C539 C533 1.390 . S
C539 C536 1.386 . S
C540 C535 1.490 . S
C540 C542 1.395 . S
C540 C543 1.403 . S
H541 C547 0.930 . S
C542 H528 0.930 . S
C542 C540 1.395 . S
C542 C545 1.403 1_545 S
C543 C540 1.403 . S
C543 C544 1.524 . S
C543 C547 1.400 1_545 S
C544 H529 0.960 . S
C544 H530 0.960 . S
C544 H531 0.960 . S
C544 C543 1.524 . S
C545 C542 1.403 1_565 S
C545 C546 1.392 . S
C545 C549 1.495 . S
C546 C545 1.392 . S
C546 C547 1.385 . S
C546 C548 1.478 . S
C547 H541 0.930 . S
C547 C543 1.400 1_565 S
C547 C546 1.385 . S
C548 C546 1.478 . S
C548 C550 1.381 . S
C548 C554 1.383 . S
C549 C545 1.495 . S
C549 H555 0.959 . S
C549 H556 0.961 . S
C549 H557 0.960 . S
C550 C548 1.381 . S
C550 C551 1.394 . S
C550 H558 0.930 . S
C551 C550 1.394 . S
C551 C552 1.383 . S
C551 H559 0.929 . S
C552 C551 1.383 . S
C552 C553 1.377 . S
C553 H537 0.930 . S
C553 C552 1.377 . S
C553 C554 1.379 . S
C554 H538 0.931 . S
C554 C548 1.383 . S
C554 C553 1.379 . S
H555 C549 0.959 . S
H556 C549 0.961 . S
H557 C549 0.960 . S
H558 C550 0.930 . S
H559 C551 0.929 . S
H560 C568 0.929 . S
H561 C570 0.930 . S
H562 C572 0.930 . S
H563 C575 0.929 . S
H564 C578 0.930 . S
H565 C580 0.960 . S
H566 C580 0.960 . S
H567 C580 0.960 . S
C568 H560 0.929 . S
C568 C569 1.377 . S
C568 C570 1.384 . S
C569 C568 1.377 . S
C569 C575 1.390 . S
C570 H561 0.930 . S
C570 C568 1.384 . S
C570 C571 1.372 . S
C571 C570 1.372 . S
C571 C572 1.400 . S
C571 C576 1.490 . S
C572 H562 0.930 . S
C572 C571 1.400 . S
C572 C575 1.386 . S
H573 C589 0.930 . S
H574 C590 0.931 . S
C575 H563 0.929 . S
C575 C569 1.390 . S
C575 C572 1.386 . S
C576 C571 1.490 . S
C576 C578 1.395 . S
C576 C579 1.403 . S
H577 C583 0.930 . S
C578 H564 0.930 . S
C578 C576 1.395 . S
C578 C581 1.403 . S
C579 C576 1.403 . S
C579 C580 1.524 . S
C579 C583 1.400 . S
C580 H565 0.960 . S
C580 H566 0.960 . S
C580 H567 0.960 . S
C580 C579 1.524 . S
C581 C578 1.403 . S
C581 C582 1.392 . S
C581 C585 1.495 . S
C582 C581 1.392 . S
C582 C583 1.385 . S
C582 C584 1.478 . S
C583 H577 0.930 . S
C583 C579 1.400 . S
C583 C582 1.385 . S
C584 C582 1.478 . S
C584 C586 1.381 . S
C584 C590 1.383 . S
C585 C581 1.495 . S
C585 H591 0.959 . S
C585 H592 0.961 . S
C585 H593 0.960 . S
C586 C584 1.381 . S
C586 C587 1.394 . S
C586 H594 0.930 . S
C587 C586 1.394 . S
C587 C588 1.383 . S
C587 H595 0.929 . S
C588 C587 1.383 . S
C588 C589 1.377 . S
C589 H573 0.930 . S
C589 C588 1.377 . S
C589 C590 1.379 . S
C590 H574 0.931 . S
C590 C584 1.383 . S
C590 C589 1.379 . S
H591 C585 0.959 . S
H592 C585 0.961 . S
H593 C585 0.960 . S
H594 C586 0.930 . S
H595 C587 0.929 . S
H596 C604 0.929 . S
H597 C606 0.930 . S
H598 C608 0.930 . S
H599 C611 0.929 . S
H600 C614 0.930 . S
H601 C616 0.960 1_565 S
H602 C616 0.960 . S
H603 C616 0.960 . S
C604 H596 0.929 . S
C604 C605 1.377 . S
C604 C606 1.384 . S
C605 C604 1.377 . S
C605 C611 1.390 . S
C606 H597 0.930 . S
C606 C604 1.384 . S
C606 C607 1.372 . S
C607 C606 1.372 . S
C607 C608 1.400 . S
C607 C612 1.490 . S
C608 H598 0.930 . S
C608 C607 1.400 . S
C608 C611 1.386 . S
H609 C625 0.930 . S
H610 C626 0.931 . S
C611 H599 0.929 . S
C611 C605 1.390 . S
C611 C608 1.386 . S
C612 C607 1.490 . S
C612 C614 1.395 . S
C612 C615 1.403 . S
H613 C619 0.930 . S
C614 H600 0.930 . S
C614 C612 1.395 . S
C614 C617 1.351 1_545 S
C615 C612 1.403 . S
C615 C616 1.524 . S
C615 C619 1.400 1_545 S
C616 H601 0.960 1_545 S
C616 H602 0.960 . S
C616 H603 0.960 . S
C616 C615 1.524 . S
C617 C614 1.351 1_565 S
C617 C618 1.441 . S
C617 C621 1.500 . S
C618 C617 1.441 . S
C618 C619 1.385 . S
C618 C620 1.478 . S
C619 H613 0.930 . S
C619 C615 1.400 1_565 S
C619 C618 1.385 . S
C620 C618 1.478 . S
C620 C622 1.381 . S
C620 C626 1.383 . S
C621 C617 1.500 . S
C621 H627 0.959 1_565 S
C621 H628 0.961 . S
C621 H629 0.960 . S
C622 C620 1.381 . S
C622 C623 1.394 . S
C622 H630 0.930 . S
C623 C622 1.394 . S
C623 C624 1.383 . S
C623 H631 0.929 . S
C624 C623 1.383 . S
C624 C625 1.377 . S
C625 H609 0.930 . S
C625 C624 1.377 . S
C625 C626 1.379 . S
C626 H610 0.931 . S
C626 C620 1.383 . S
C626 C625 1.379 . S
H627 C621 0.959 1_545 S
H628 C621 0.961 . S
H629 C621 0.960 . S
H630 C622 0.930 . S
H631 C623 0.929 . S
H632 C640 0.929 . S
H633 C642 0.930 . S
H634 C644 0.930 . S
H635 C647 0.929 . S
H636 C650 0.930 . S
H637 C652 0.960 . S
H638 C652 0.960 . S
H639 C652 0.960 . S
C640 H632 0.929 . S
C640 C641 1.377 . S
C640 C642 1.384 . S
C641 C640 1.377 . S
C641 C647 1.390 . S
C642 H633 0.930 . S
C642 C640 1.384 . S
C642 C643 1.372 . S
C643 C642 1.372 . S
C643 C644 1.400 . S
C643 C648 1.490 . S
C644 H634 0.930 . S
C644 C643 1.400 . S
C644 C647 1.386 . S
H645 C661 0.930 . S
H646 C662 0.931 . S
C647 H635 0.929 . S
C647 C641 1.390 . S
C647 C644 1.386 . S
C648 C643 1.490 . S
C648 C650 1.395 . S
C648 C651 1.403 1_556 S
H649 C655 0.930 . S
C650 H636 0.930 . S
C650 C648 1.395 . S
C650 C653 1.403 . S
C651 C648 1.403 1_554 S
C651 C652 1.524 . S
C651 C655 1.400 . S
C652 H637 0.960 . S
C652 H638 0.960 . S
C652 H639 0.960 . S
C652 C651 1.524 . S
C653 C650 1.403 . S
C653 C654 1.392 1_556 S
C653 C657 1.495 . S
C654 C653 1.392 1_554 S
C654 C655 1.385 . S
C654 C656 1.478 . S
C655 H649 0.930 . S
C655 C651 1.400 . S
C655 C654 1.385 . S
C656 C654 1.478 . S
C656 C658 1.381 . S
C656 C662 1.383 . S
C657 C653 1.495 . S
C657 H663 0.959 . S
C657 H664 0.961 . S
C657 H665 0.960 . S
C658 C656 1.381 . S
C658 C659 1.394 . S
C658 H666 0.930 . S
C659 C658 1.394 . S
C659 C660 1.383 . S
C659 H667 0.929 . S
C660 C659 1.383 . S
C660 C661 1.377 . S
C661 H645 0.930 . S
C661 C660 1.377 . S
C661 C662 1.379 . S
C662 H646 0.931 . S
C662 C656 1.383 . S
C662 C661 1.379 . S
H663 C657 0.959 . S
H664 C657 0.961 . S
H665 C657 0.960 . S
H666 C658 0.930 . S
H667 C659 0.929 . S
H668 C676 0.929 . S
H669 C678 0.930 . S
H670 C680 0.930 . S
H671 C683 0.929 . S
H672 C686 0.930 . S
H673 C688 0.960 1_545 S
H674 C688 0.960 . S
H675 C688 0.960 . S
C676 H668 0.929 . S
C676 C677 1.377 . S
C676 C678 1.384 . S
C677 C676 1.377 . S
C677 C683 1.390 . S
C678 H669 0.930 . S
C678 C676 1.384 . S
C678 C679 1.372 . S
C679 C678 1.372 . S
C679 C680 1.400 . S
C679 C684 1.490 . S
C680 H670 0.930 . S
C680 C679 1.400 . S
C680 C683 1.386 . S
H681 C697 0.930 . S
H682 C698 0.931 . S
C683 H671 0.929 . S
C683 C677 1.390 . S
C683 C680 1.386 . S
C684 C679 1.490 . S
C684 C686 1.395 . S
C684 C687 1.403 . S
H685 C691 0.930 . S
C686 H672 0.930 . S
C686 C684 1.395 . S
C686 C689 1.368 1_565 S
C687 C684 1.403 . S
C687 C688 1.524 . S
C687 C691 1.400 1_565 S
C688 H673 0.960 1_565 S
C688 H674 0.960 . S
C688 H675 0.960 . S
C688 C687 1.524 . S
C689 C686 1.368 1_545 S
C689 C690 1.426 . S
C689 C693 1.497 . S
C690 C689 1.426 . S
C690 C691 1.385 . S
C690 C692 1.478 . S
C691 H685 0.930 . S
C691 C687 1.400 1_545 S
C691 C690 1.385 . S
C692 C690 1.478 . S
C692 C694 1.381 . S
C692 C698 1.383 . S
C693 C689 1.497 . S
C693 H699 0.959 1_545 S
C693 H700 0.961 . S
C693 H701 0.960 . S
C694 C692 1.381 . S
C694 C695 1.394 . S
C694 H702 0.930 . S
C695 C694 1.394 . S
C695 C696 1.383 . S
C695 H703 0.929 . S
C696 C695 1.383 . S
C696 C697 1.377 . S
C697 H681 0.930 . S
C697 C696 1.377 . S
C697 C698 1.379 . S
C698 H682 0.931 . S
C698 C692 1.383 . S
C698 C697 1.379 . S
H699 C693 0.959 1_565 S
H700 C693 0.961 . S
H701 C693 0.960 . S
H702 C694 0.930 . S
H703 C695 0.929 . S
H704 C712 0.929 . S
H705 C714 0.930 . S
H706 C716 0.930 . S
H707 C719 0.929 . S
H708 C722 0.930 . S
H709 C724 0.960 . S
H710 C724 0.960 . S
H711 C724 0.960 . S
C712 H704 0.929 . S
C712 C713 1.377 . S
C712 C714 1.384 . S
C713 C712 1.377 . S
C713 C719 1.390 . S
C714 H705 0.930 . S
C714 C712 1.384 . S
C714 C715 1.372 . S
C715 C714 1.372 . S
C715 C716 1.400 . S
C715 C720 1.490 . S
C716 H706 0.930 . S
C716 C715 1.400 . S
C716 C719 1.386 . S
H717 C733 0.930 . S
H718 C734 0.931 . S
C719 H707 0.929 . S
C719 C713 1.390 . S
C719 C716 1.386 . S
C720 C715 1.490 . S
C720 C722 1.395 . S
C720 C723 1.403 1_556 S
H721 C727 0.930 . S
C722 H708 0.930 . S
C722 C720 1.395 . S
C722 C725 1.403 . S
C723 C720 1.403 1_554 S
C723 C724 1.524 . S
C723 C727 1.400 . S
C724 H709 0.960 . S
C724 H710 0.960 . S
C724 H711 0.960 . S
C724 C723 1.524 . S
C725 C722 1.403 . S
C725 C726 1.392 1_556 S
C725 C729 1.495 . S
C726 C725 1.392 1_554 S
C726 C727 1.385 . S
C726 C728 1.478 . S
C727 H721 0.930 . S
C727 C723 1.400 . S
C727 C726 1.385 . S
C728 C726 1.478 . S
C728 C730 1.381 . S
C728 C734 1.383 . S
C729 C725 1.495 . S
C729 H735 0.959 . S
C729 H736 0.961 . S
C729 H737 0.960 . S
C730 C728 1.381 . S
C730 C731 1.394 . S
C730 H738 0.930 . S
C731 C730 1.394 . S
C731 C732 1.383 . S
C731 H739 0.929 . S
C732 C731 1.383 . S
C732 C733 1.377 . S
C733 H717 0.930 . S
C733 C732 1.377 . S
C733 C734 1.379 . S
C734 H718 0.931 . S
C734 C728 1.383 . S
C734 C733 1.379 . S
H735 C729 0.959 . S
H736 C729 0.961 . S
H737 C729 0.960 . S
H738 C730 0.930 . S
H739 C731 0.929 . S
H740 C748 0.929 . S
H741 C750 0.930 . S
H742 C752 0.930 . S
H743 C755 0.929 . S
H744 C758 0.930 . S
H745 C760 0.960 . S
H746 C760 0.960 . S
H747 C760 0.960 . S
C748 H740 0.929 . S
C748 C749 1.377 . S
C748 C750 1.384 . S
C749 C748 1.377 . S
C749 C755 1.390 . S
C750 H741 0.930 . S
C750 C748 1.384 . S
C750 C751 1.372 . S
C751 C750 1.372 . S
C751 C752 1.400 . S
C751 C756 1.490 . S
C752 H742 0.930 . S
C752 C751 1.400 . S
C752 C755 1.386 . S
H753 C769 0.930 . S
H754 C770 0.931 . S
C755 H743 0.929 . S
C755 C749 1.390 . S
C755 C752 1.386 . S
C756 C751 1.490 . S
C756 C758 1.395 . S
C756 C759 1.403 . S
H757 C763 0.930 . S
C758 H744 0.930 . S
C758 C756 1.395 . S
C758 C761 1.403 . S
C759 C756 1.403 . S
C759 C760 1.524 . S
C759 C763 1.400 . S
C760 H745 0.960 . S
C760 H746 0.960 . S
C760 H747 0.960 . S
C760 C759 1.524 . S
C761 C758 1.403 . S
C761 C762 1.392 . S
C761 C765 1.495 . S
C762 C761 1.392 . S
C762 C763 1.385 . S
C762 C764 1.478 . S
C763 H757 0.930 . S
C763 C759 1.400 . S
C763 C762 1.385 . S
C764 C762 1.478 . S
C764 C766 1.381 . S
C764 C770 1.383 . S
C765 C761 1.495 . S
C765 H771 0.959 . S
C765 H772 0.961 . S
C765 H773 0.960 . S
C766 C764 1.381 . S
C766 C767 1.394 . S
C766 H774 0.930 . S
C767 C766 1.394 . S
C767 C768 1.383 . S
C767 H775 0.929 . S
C768 C767 1.383 . S
C768 C769 1.377 . S
C769 H753 0.930 . S
C769 C768 1.377 . S
C769 C770 1.379 . S
C770 H754 0.931 . S
C770 C764 1.383 . S
C770 C769 1.379 . S
H771 C765 0.959 . S
H772 C765 0.961 . S
H773 C765 0.960 . S
H774 C766 0.930 . S
H775 C767 0.929 . S
H776 C784 0.929 . S
H777 C786 0.930 . S
H778 C788 0.930 . S
H779 C791 0.929 . S
H780 C794 0.930 . S
H781 C796 0.960 . S
H782 C796 0.960 . S
H783 C796 0.960 . S
C784 H776 0.929 . S
C784 C785 1.377 . S
C784 C786 1.384 . S
C785 C784 1.377 . S
C785 C791 1.390 . S
C786 H777 0.930 . S
C786 C784 1.384 . S
C786 C787 1.372 . S
C787 C786 1.372 . S
C787 C788 1.400 . S
C787 C792 1.490 . S
C788 H778 0.930 . S
C788 C787 1.400 . S
C788 C791 1.386 . S
H789 C805 0.930 . S
H790 C806 0.931 . S
C791 H779 0.929 . S
C791 C785 1.390 . S
C791 C788 1.386 . S
C792 C787 1.490 . S
C792 C794 1.395 . S
C792 C795 1.403 . S
H793 C799 0.930 . S
C794 H780 0.930 . S
C794 C792 1.395 . S
C794 C797 1.403 . S
C795 C792 1.403 . S
C795 C796 1.524 . S
C795 C799 1.400 . S
C796 H781 0.960 . S
C796 H782 0.960 . S
C796 H783 0.960 . S
C796 C795 1.524 . S
C797 C794 1.403 . S
C797 C798 1.392 . S
C797 C801 1.495 . S
C798 C797 1.392 . S
C798 C799 1.385 . S
C798 C800 1.478 . S
C799 H793 0.930 . S
C799 C795 1.400 . S
C799 C798 1.385 . S
C800 C798 1.478 . S
C800 C802 1.381 . S
C800 C806 1.383 . S
C801 C797 1.495 . S
C801 H807 0.959 . S
C801 H808 0.961 . S
C801 H809 0.960 . S
C802 C800 1.381 . S
C802 C803 1.394 . S
C802 H810 0.930 . S
C803 C802 1.394 . S
C803 C804 1.383 . S
C803 H811 0.929 . S
C804 C803 1.383 . S
C804 C805 1.377 . S
C805 H789 0.930 . S
C805 C804 1.377 . S
C805 C806 1.379 . S
C806 H790 0.931 . S
C806 C800 1.383 . S
C806 C805 1.379 . S
H807 C801 0.959 . S
H808 C801 0.961 . S
H809 C801 0.960 . S
H810 C802 0.930 . S
H811 C803 0.929 . S
H812 C820 0.929 . S
H813 C822 0.930 . S
H814 C824 0.930 . S
H815 C827 0.929 . S
H816 C830 0.930 . S
H817 C832 0.960 . S
H818 C832 0.960 . S
H819 C832 0.960 . S
C820 H812 0.929 . S
C820 C821 1.377 . S
C820 C822 1.384 . S
C821 C820 1.377 . S
C821 C827 1.390 . S
C822 H813 0.930 . S
C822 C820 1.384 . S
C822 C823 1.372 . S
C823 C822 1.372 . S
C823 C824 1.400 . S
C823 C828 1.490 . S
C824 H814 0.930 . S
C824 C823 1.400 . S
C824 C827 1.386 . S
H825 C841 0.930 . S
H826 C842 0.931 . S
C827 H815 0.929 . S
C827 C821 1.390 . S
C827 C824 1.386 . S
C828 C823 1.490 . S
C828 C830 1.395 . S
C828 C831 1.403 . S
H829 C835 0.930 . S
C830 H816 0.930 . S
C830 C828 1.395 . S
C830 C833 1.403 . S
C831 C828 1.403 . S
C831 C832 1.524 . S
C831 C835 1.400 . S
C832 H817 0.960 . S
C832 H818 0.960 . S
C832 H819 0.960 . S
C832 C831 1.524 . S
C833 C830 1.403 . S
C833 C834 1.392 . S
C833 C837 1.495 . S
C834 C833 1.392 . S
C834 C835 1.385 . S
C834 C836 1.478 . S
C835 H829 0.930 . S
C835 C831 1.400 . S
C835 C834 1.385 . S
C836 C834 1.478 . S
C836 C838 1.381 . S
C836 C842 1.383 . S
C837 C833 1.495 . S
C837 H843 0.959 . S
C837 H844 0.961 . S
C837 H845 0.960 . S
C838 C836 1.381 . S
C838 C839 1.394 . S
C838 H846 0.930 . S
C839 C838 1.394 . S
C839 C840 1.383 . S
C839 H847 0.929 . S
C840 C839 1.383 . S
C840 C841 1.377 . S
C841 H825 0.930 . S
C841 C840 1.377 . S
C841 C842 1.379 . S
C842 H826 0.931 . S
C842 C836 1.383 . S
C842 C841 1.379 . S
H843 C837 0.959 . S
H844 C837 0.961 . S
H845 C837 0.960 . S
H846 C838 0.930 . S
H847 C839 0.929 . S
H848 C856 0.929 . S
H849 C858 0.930 . S
H850 C860 0.930 . S
H851 C863 0.929 . S
H852 C866 0.930 . S
H853 C868 0.960 . S
H854 C868 0.960 . S
H855 C868 0.960 . S
C856 H848 0.929 . S
C856 C857 1.377 . S
C856 C858 1.384 . S
C857 C856 1.377 . S
C857 C863 1.390 . S
C858 H849 0.930 . S
C858 C856 1.384 . S
C858 C859 1.372 . S
C859 C858 1.372 . S
C859 C860 1.400 . S
C859 C864 1.490 . S
C860 H850 0.930 . S
C860 C859 1.400 . S
C860 C863 1.386 . S
H861 C877 0.930 . S
H862 C878 0.931 . S
C863 H851 0.929 . S
C863 C857 1.390 . S
C863 C860 1.386 . S
C864 C859 1.490 . S
C864 C866 1.395 1_556 S
C864 C867 1.403 . S
H865 C871 0.930 . S
C866 H852 0.930 . S
C866 C864 1.395 1_554 S
C866 C869 1.403 . S
C867 C864 1.403 . S
C867 C868 1.524 . S
C867 C871 1.400 . S
C868 H853 0.960 . S
C868 H854 0.960 . S
C868 H855 0.960 . S
C868 C867 1.524 . S
C869 C866 1.403 . S
C869 C870 1.392 . S
C869 C873 1.495 . S
C870 C869 1.392 . S
C870 C871 1.385 1_554 S
C870 C872 1.478 . S
C871 H865 0.930 . S
C871 C867 1.400 . S
C871 C870 1.385 1_556 S
C872 C870 1.478 . S
C872 C874 1.381 . S
C872 C878 1.383 . S
C873 C869 1.495 . S
C873 H879 0.959 . S
C873 H880 0.961 . S
C873 H881 0.960 . S
C874 C872 1.381 . S
C874 C875 1.394 . S
C874 H882 0.930 . S
C875 C874 1.394 . S
C875 C876 1.383 . S
C875 H883 0.929 . S
C876 C875 1.383 . S
C876 C877 1.377 . S
C877 H861 0.930 . S
C877 C876 1.377 . S
C877 C878 1.379 . S
C878 H862 0.931 . S
C878 C872 1.383 . S
C878 C877 1.379 . S
H879 C873 0.959 . S
H880 C873 0.961 . S
H881 C873 0.960 . S
H882 C874 0.930 . S
H883 C875 0.929 . S
H884 C892 0.929 . S
H885 C894 0.930 . S
H886 C896 0.930 . S
H887 C899 0.929 . S
H888 C902 0.930 . S
H889 C904 0.960 . S
H890 C904 0.960 . S
H891 C904 0.960 . S
C892 H884 0.929 . S
C892 C893 1.377 . S
C892 C894 1.384 . S
C893 C892 1.377 . S
C893 C899 1.390 . S
C894 H885 0.930 . S
C894 C892 1.384 . S
C894 C895 1.372 . S
C895 C894 1.372 . S
C895 C896 1.400 . S
C895 C900 1.490 . S
C896 H886 0.930 . S
C896 C895 1.400 . S
C896 C899 1.386 . S
H897 C913 0.930 . S
H898 C914 0.931 . S
C899 H887 0.929 . S
C899 C893 1.390 . S
C899 C896 1.386 . S
C900 C895 1.490 . S
C900 C902 1.395 . S
C900 C903 1.403 . S
H901 C907 0.930 . S
C902 H888 0.930 . S
C902 C900 1.395 . S
C902 C905 1.403 . S
C903 C900 1.403 . S
C903 C904 1.524 . S
C903 C907 1.400 . S
C904 H889 0.960 . S
C904 H890 0.960 . S
C904 H891 0.960 . S
C904 C903 1.524 . S
C905 C902 1.403 . S
C905 C906 1.392 . S
C905 C909 1.495 . S
C906 C905 1.392 . S
C906 C907 1.385 . S
C906 C908 1.478 . S
C907 H901 0.930 . S
C907 C903 1.400 . S
C907 C906 1.385 . S
C908 C906 1.478 . S
C908 C910 1.381 . S
C908 C914 1.383 . S
C909 C905 1.495 . S
C909 H915 0.959 . S
C909 H916 0.961 . S
C909 H917 0.960 . S
C910 C908 1.381 . S
C910 C911 1.394 . S
C910 H918 0.930 . S
C911 C910 1.394 . S
C911 C912 1.383 . S
C911 H919 0.929 . S
C912 C911 1.383 . S
C912 C913 1.377 . S
C913 H897 0.930 . S
C913 C912 1.377 . S
C913 C914 1.379 . S
C914 H898 0.931 . S
C914 C908 1.383 . S
C914 C913 1.379 . S
H915 C909 0.959 . S
H916 C909 0.961 . S
H917 C909 0.960 . S
H918 C910 0.930 . S
H919 C911 0.929 . S
H920 C928 0.929 . S
H921 C930 0.930 . S
H922 C932 0.930 . S
H923 C935 0.929 . S
H924 C938 0.930 . S
H925 C940 0.960 . S
H926 C940 0.960 . S
H927 C940 0.960 . S
C928 H920 0.929 . S
C928 C929 1.377 . S
C928 C930 1.384 . S
C929 C928 1.377 . S
C929 C935 1.390 . S
C930 H921 0.930 . S
C930 C928 1.384 . S
C930 C931 1.372 . S
C931 C930 1.372 . S
C931 C932 1.400 . S
C931 C936 1.490 . S
C932 H922 0.930 . S
C932 C931 1.400 . S
C932 C935 1.386 . S
H933 C949 0.930 . S
H934 C950 0.931 . S
C935 H923 0.929 . S
C935 C929 1.390 . S
C935 C932 1.386 . S
C936 C931 1.490 . S
C936 C938 1.395 . S
C936 C939 1.403 . S
H937 C943 0.930 . S
C938 H924 0.930 . S
C938 C936 1.395 . S
C938 C941 1.403 . S
C939 C936 1.403 . S
C939 C940 1.524 . S
C939 C943 1.400 . S
C940 H925 0.960 . S
C940 H926 0.960 . S
C940 H927 0.960 . S
C940 C939 1.524 . S
C941 C938 1.403 . S
C941 C942 1.392 . S
C941 C945 1.495 . S
C942 C941 1.392 . S
C942 C943 1.385 . S
C942 C944 1.478 . S
C943 H937 0.930 . S
C943 C939 1.400 . S
C943 C942 1.385 . S
C944 C942 1.478 . S
C944 C946 1.381 . S
C944 C950 1.383 . S
C945 C941 1.495 . S
C945 H951 0.959 . S
C945 H952 0.961 . S
C945 H953 0.960 . S
C946 C944 1.381 . S
C946 C947 1.394 . S
C946 H954 0.930 . S
C947 C946 1.394 . S
C947 C948 1.383 . S
C947 H955 0.929 . S
C948 C947 1.383 . S
C948 C949 1.377 . S
C949 H933 0.930 . S
C949 C948 1.377 . S
C949 C950 1.379 . S
C950 H934 0.931 . S
C950 C944 1.383 . S
C950 C949 1.379 . S
H951 C945 0.959 . S
H952 C945 0.961 . S
H953 C945 0.960 . S
H954 C946 0.930 . S
H955 C947 0.929 . S
H956 C964 0.929 . S
H957 C966 0.930 . S
H958 C968 0.930 . S
H959 C971 0.929 . S
H960 C974 0.930 . S
H961 C976 0.960 . S
H962 C976 0.960 . S
H963 C976 0.960 . S
C964 H956 0.929 . S
C964 C965 1.377 . S
C964 C966 1.384 . S
C965 C964 1.377 . S
C965 C971 1.390 . S
C966 H957 0.930 . S
C966 C964 1.384 . S
C966 C967 1.372 . S
C967 C966 1.372 . S
C967 C968 1.400 . S
C967 C972 1.490 . S
C968 H958 0.930 . S
C968 C967 1.400 . S
C968 C971 1.386 . S
H969 C985 0.930 . S
H970 C986 0.931 . S
C971 H959 0.929 . S
C971 C965 1.390 . S
C971 C968 1.386 . S
C972 C967 1.490 . S
C972 C974 1.395 . S
C972 C975 1.403 . S
H973 C979 0.930 . S
C974 H960 0.930 . S
C974 C972 1.395 . S
C974 C977 1.403 . S
C975 C972 1.403 . S
C975 C976 1.524 . S
C975 C979 1.400 . S
C976 H961 0.960 . S
C976 H962 0.960 . S
C976 H963 0.960 . S
C976 C975 1.524 . S
C977 C974 1.403 . S
C977 C978 1.392 . S
C977 C981 1.495 . S
C978 C977 1.392 . S
C978 C979 1.385 . S
C978 C980 1.478 . S
C979 H973 0.930 . S
C979 C975 1.400 . S
C979 C978 1.385 . S
C980 C978 1.478 . S
C980 C982 1.381 . S
C980 C986 1.383 . S
C981 C977 1.495 . S
C981 H987 0.959 . S
C981 H988 0.961 . S
C981 H989 0.960 . S
C982 C980 1.381 . S
C982 C983 1.394 . S
C982 H990 0.930 . S
C983 C982 1.394 . S
C983 C984 1.383 . S
C983 H991 0.929 . S
C984 C983 1.383 . S
C984 C985 1.377 . S
C985 H969 0.930 . S
C985 C984 1.377 . S
C985 C986 1.379 . S
C986 H970 0.931 . S
C986 C980 1.383 . S
C986 C985 1.379 . S
H987 C981 0.959 . S
H988 C981 0.961 . S
H989 C981 0.960 . S
H990 C982 0.930 . S
H991 C983 0.929 . S
H992 C1000 0.929 . S
H993 C1002 0.930 . S
H994 C1004 0.930 . S
H995 C1007 0.929 . S
H996 C1010 0.930 . S
H997 C1012 0.960 . S
H998 C1012 0.960 1_556 S
H999 C1012 0.960 . S
C1000 H992 0.929 . S
C1000 C1001 1.377 . S
C1000 C1002 1.384 . S
C1001 C1000 1.377 . S
C1001 C1007 1.390 . S
C1002 H993 0.930 . S
C1002 C1000 1.384 . S
C1002 C1003 1.372 . S
C1003 C1002 1.372 . S
C1003 C1004 1.400 1_556 S
C1003 C1008 1.490 1_556 S
C1004 H994 0.930 . S
C1004 C1003 1.400 1_554 S
C1004 C1007 1.386 1_554 S
H1005 C1021 0.930 . S
H1006 C1022 0.931 . S
C1007 H995 0.929 . S
C1007 C1001 1.390 . S
C1007 C1004 1.386 1_556 S
C1008 C1003 1.490 1_554 S
C1008 C1010 1.395 . S
C1008 C1011 1.403 . S
H1009 C1015 0.930 . S
C1010 H996 0.930 . S
C1010 C1008 1.395 . S
C1010 C1013 1.403 . S
C1011 C1008 1.403 . S
C1011 C1012 1.524 . S
C1011 C1015 1.400 . S
C1012 H997 0.960 . S
C1012 H998 0.960 1_554 S
C1012 H999 0.960 . S
C1012 C1011 1.524 . S
C1013 C1010 1.403 . S
C1013 C1014 1.392 . S
C1013 C1017 1.495 . S
C1014 C1013 1.392 . S
C1014 C1015 1.385 . S
C1014 C1016 1.478 . S
C1015 H1009 0.930 . S
C1015 C1011 1.400 . S
C1015 C1014 1.385 . S
C1016 C1014 1.478 . S
C1016 C1018 1.381 . S
C1016 C1022 1.383 . S
C1017 C1013 1.495 . S
C1017 H1023 0.959 . S
C1017 H1024 0.961 . S
C1017 H1025 0.960 . S
C1018 C1016 1.381 . S
C1018 C1019 1.394 . S
C1018 H1026 0.930 . S
C1019 C1018 1.394 . S
C1019 C1020 1.383 . S
C1019 H1027 0.929 . S
C1020 C1019 1.383 . S
C1020 C1021 1.377 . S
C1021 H1005 0.930 . S
C1021 C1020 1.377 . S
C1021 C1022 1.379 . S
C1022 H1006 0.931 . S
C1022 C1016 1.383 . S
C1022 C1021 1.379 . S
H1023 C1017 0.959 . S
H1024 C1017 0.961 . S
H1025 C1017 0.960 . S
H1026 C1018 0.930 . S
H1027 C1019 0.929 . S
H1028 C1036 0.929 . S
H1029 C1038 0.930 . S
H1030 C1040 0.930 . S
H1031 C1043 0.929 . S
H1032 C1046 0.930 . S
H1033 C1048 0.960 . S
H1034 C1048 0.960 . S
H1035 C1048 0.960 . S
C1036 H1028 0.929 . S
C1036 C1037 1.377 . S
C1036 C1038 1.384 . S
C1037 C1036 1.377 . S
C1037 C1043 1.390 . S
C1038 H1029 0.930 . S
C1038 C1036 1.384 . S
C1038 C1039 1.372 . S
C1039 C1038 1.372 . S
C1039 C1040 1.400 . S
C1039 C1044 1.490 . S
C1040 H1030 0.930 . S
C1040 C1039 1.400 . S
C1040 C1043 1.386 . S
H1041 C1057 0.930 . S
H1042 C1058 0.931 . S
C1043 H1031 0.929 . S
C1043 C1037 1.390 . S
C1043 C1040 1.386 . S
C1044 C1039 1.490 . S
C1044 C1046 1.395 . S
C1044 C1047 1.403 . S
H1045 C1051 0.930 . S
C1046 H1032 0.930 . S
C1046 C1044 1.395 . S
C1046 C1049 1.403 . S
C1047 C1044 1.403 . S
C1047 C1048 1.524 . S
C1047 C1051 1.400 . S
C1048 H1033 0.960 . S
C1048 H1034 0.960 . S
C1048 H1035 0.960 . S
C1048 C1047 1.524 . S
C1049 C1046 1.403 . S
C1049 C1050 1.392 . S
C1049 C1053 1.495 . S
C1050 C1049 1.392 . S
C1050 C1051 1.385 . S
C1050 C1052 1.478 . S
C1051 H1045 0.930 . S
C1051 C1047 1.400 . S
C1051 C1050 1.385 . S
C1052 C1050 1.478 . S
C1052 C1054 1.381 . S
C1052 C1058 1.383 . S
C1053 C1049 1.495 . S
C1053 H1059 0.959 . S
C1053 H1060 0.961 . S
C1053 H1061 0.960 . S
C1054 C1052 1.381 . S
C1054 C1055 1.394 . S
C1054 H1062 0.930 . S
C1055 C1054 1.394 . S
C1055 C1056 1.383 . S
C1055 H1063 0.929 . S
C1056 C1055 1.383 . S
C1056 C1057 1.377 . S
C1057 H1041 0.930 . S
C1057 C1056 1.377 . S
C1057 C1058 1.379 . S
C1058 H1042 0.931 . S
C1058 C1052 1.383 . S
C1058 C1057 1.379 . S
H1059 C1053 0.959 . S
H1060 C1053 0.961 . S
H1061 C1053 0.960 . S
H1062 C1054 0.930 . S
H1063 C1055 0.929 . S
H1064 C1072 0.929 . S
H1065 C1074 0.930 . S
H1066 C1076 0.930 . S
H1067 C1079 0.929 . S
H1068 C1082 0.930 . S
H1069 C1084 0.960 . S
H1070 C1084 0.960 . S
H1071 C1084 0.960 . S
C1072 H1064 0.929 . S
C1072 C1073 1.377 . S
C1072 C1074 1.384 . S
C1073 C1072 1.377 . S
C1073 C1079 1.390 . S
C1074 H1065 0.930 . S
C1074 C1072 1.384 . S
C1074 C1075 1.372 . S
C1075 C1074 1.372 . S
C1075 C1076 1.400 . S
C1075 C1080 1.490 . S
C1076 H1066 0.930 . S
C1076 C1075 1.400 . S
C1076 C1079 1.386 . S
H1077 C1093 0.930 . S
H1078 C1094 0.931 . S
C1079 H1067 0.929 . S
C1079 C1073 1.390 . S
C1079 C1076 1.386 . S
C1080 C1075 1.490 . S
C1080 C1082 1.395 . S
C1080 C1083 1.403 . S
H1081 C1087 0.930 . S
C1082 H1068 0.930 . S
C1082 C1080 1.395 . S
C1082 C1085 1.403 . S
C1083 C1080 1.403 . S
C1083 C1084 1.524 . S
C1083 C1087 1.400 . S
C1084 H1069 0.960 . S
C1084 H1070 0.960 . S
C1084 H1071 0.960 . S
C1084 C1083 1.524 . S
C1085 C1082 1.403 . S
C1085 C1086 1.392 . S
C1085 C1089 1.495 . S
C1086 C1085 1.392 . S
C1086 C1087 1.385 . S
C1086 C1088 1.478 . S
C1087 H1081 0.930 . S
C1087 C1083 1.400 . S
C1087 C1086 1.385 . S
C1088 C1086 1.478 . S
C1088 C1090 1.381 . S
C1088 C1094 1.383 . S
C1089 C1085 1.495 . S
C1089 H1095 0.959 . S
C1089 H1096 0.961 . S
C1089 H1097 0.960 . S
C1090 C1088 1.381 . S
C1090 C1091 1.394 . S
C1090 H1098 0.930 . S
C1091 C1090 1.394 . S
C1091 C1092 1.383 . S
C1091 H1099 0.929 . S
C1092 C1091 1.383 . S
C1092 C1093 1.377 . S
C1093 H1077 0.930 . S
C1093 C1092 1.377 . S
C1093 C1094 1.379 . S
C1094 H1078 0.931 . S
C1094 C1088 1.383 . S
C1094 C1093 1.379 . S
H1095 C1089 0.959 . S
H1096 C1089 0.961 . S
H1097 C1089 0.960 . S
H1098 C1090 0.930 . S
H1099 C1091 0.929 . S
H1100 C1108 0.929 . S
H1101 C1110 0.930 . S
H1102 C1112 0.930 . S
H1103 C1115 0.929 . S
H1104 C1118 0.930 . S
H1105 C1120 0.960 . S
H1106 C1120 0.960 . S
H1107 C1120 0.960 . S
C1108 H1100 0.929 . S
C1108 C1109 1.377 . S
C1108 C1110 1.384 . S
C1109 C1108 1.377 . S
C1109 C1115 1.390 . S
C1110 H1101 0.930 . S
C1110 C1108 1.384 . S
C1110 C1111 1.372 . S
C1111 C1110 1.372 . S
C1111 C1112 1.400 . S
C1111 C1116 1.490 . S
C1112 H1102 0.930 . S
C1112 C1111 1.400 . S
C1112 C1115 1.386 . S
H1113 C1129 0.930 . S
H1114 C1130 0.931 . S
C1115 H1103 0.929 . S
C1115 C1109 1.390 . S
C1115 C1112 1.386 . S
C1116 C1111 1.490 . S
C1116 C1118 1.395 . S
C1116 C1119 1.403 . S
H1117 C1123 0.930 . S
C1118 H1104 0.930 . S
C1118 C1116 1.395 . S
C1118 C1121 1.403 . S
C1119 C1116 1.403 . S
C1119 C1120 1.524 . S
C1119 C1123 1.400 . S
C1120 H1105 0.960 . S
C1120 H1106 0.960 . S
C1120 H1107 0.960 . S
C1120 C1119 1.524 . S
C1121 C1118 1.403 . S
C1121 C1122 1.392 . S
C1121 C1125 1.495 1_556 S
C1122 C1121 1.392 . S
C1122 C1123 1.385 . S
C1122 C1124 1.478 1_556 S
C1123 H1117 0.930 . S
C1123 C1119 1.400 . S
C1123 C1122 1.385 . S
C1124 C1122 1.478 1_554 S
C1124 C1126 1.381 . S
C1124 C1130 1.383 1_554 S
C1125 C1121 1.495 1_554 S
C1125 H1131 0.959 . S
C1125 H1132 0.961 . S
C1125 H1133 0.960 . S
C1126 C1124 1.381 . S
C1126 C1127 1.394 . S
C1126 H1134 0.930 . S
C1127 C1126 1.394 . S
C1127 C1128 1.383 . S
C1127 H1135 0.929 . S
C1128 C1127 1.383 . S
C1128 C1129 1.377 . S
C1129 H1113 0.930 . S
C1129 C1128 1.377 . S
C1129 C1130 1.379 1_554 S
C1130 H1114 0.931 . S
C1130 C1124 1.383 1_556 S
C1130 C1129 1.379 1_556 S
H1131 C1125 0.959 . S
H1132 C1125 0.961 . S
H1133 C1125 0.960 . S
H1134 C1126 0.930 . S
H1135 C1127 0.929 . S
H1136 C1144 0.929 . S
H1137 C1146 0.926 1_556 S
H1138 C1148 0.930 . S
H1139 C1151 0.929 . S
H1140 C1154 0.930 . S
H1141 C1156 0.960 . S
H1142 C1156 0.960 . S
H1143 C1156 0.960 . S
C1144 H1136 0.929 . S
C1144 C1145 1.377 . S
C1144 C1146 1.388 . S
C1145 C1144 1.377 . S
C1145 C1151 1.390 . S
C1146 H1137 0.926 1_554 S
C1146 C1144 1.388 . S
C1146 C1147 1.372 . S
C1147 C1146 1.372 . S
C1147 C1148 1.408 . S
C1147 C1152 1.482 1_554 S
C1148 H1138 0.930 . S
C1148 C1147 1.408 . S
C1148 C1151 1.386 . S
H1149 C1165 0.930 . S
H1150 C1166 0.931 . S
C1151 H1139 0.929 . S
C1151 C1145 1.390 . S
C1151 C1148 1.386 . S
C1152 C1147 1.482 1_556 S
C1152 C1154 1.395 . S
C1152 C1155 1.403 . S
H1153 C1159 0.930 . S
C1154 H1140 0.930 . S
C1154 C1152 1.395 . S
C1154 C1157 1.403 . S
C1155 C1152 1.403 . S
C1155 C1156 1.524 1_556 S
C1155 C1159 1.400 . S
C1156 H1141 0.960 . S
C1156 H1142 0.960 . S
C1156 H1143 0.960 . S
C1156 C1155 1.524 1_554 S
C1157 C1154 1.403 . S
C1157 C1158 1.392 . S
C1157 C1161 1.495 . S
C1158 C1157 1.392 . S
C1158 C1159 1.385 . S
C1158 C1160 1.478 . S
C1159 H1153 0.930 . S
C1159 C1155 1.400 . S
C1159 C1158 1.385 . S
C1160 C1158 1.478 . S
C1160 C1162 1.381 . S
C1160 C1166 1.383 . S
C1161 C1157 1.495 . S
C1161 H1167 0.959 . S
C1161 H1168 0.961 . S
C1161 H1169 0.960 . S
C1162 C1160 1.381 . S
C1162 C1163 1.394 . S
C1162 H1170 0.930 . S
C1163 C1162 1.394 . S
C1163 C1164 1.383 . S
C1163 H1171 0.929 . S
C1164 C1163 1.383 . S
C1164 C1165 1.377 . S
C1165 H1149 0.930 . S
C1165 C1164 1.377 . S
C1165 C1166 1.379 . S
C1166 H1150 0.931 . S
C1166 C1160 1.383 . S
C1166 C1165 1.379 . S
H1167 C1161 0.959 . S
H1168 C1161 0.961 . S
H1169 C1161 0.960 . S
H1170 C1162 0.930 . S
H1171 C1163 0.929 . S
H1172 C1180 0.929 . S
H1173 C1182 0.930 . S
H1174 C1184 0.930 . S
H1175 C1187 0.929 . S
H1176 C1190 0.930 . S
H1177 C1192 0.960 . S
H1178 C1192 0.960 . S
H1179 C1192 0.960 . S
C1180 H1172 0.929 . S
C1180 C1181 1.377 . S
C1180 C1182 1.384 . S
C1181 C1180 1.377 . S
C1181 C1187 1.390 . S
C1182 H1173 0.930 . S
C1182 C1180 1.384 . S
C1182 C1183 1.372 . S
C1183 C1182 1.372 . S
C1183 C1184 1.400 . S
C1183 C1188 1.490 . S
C1184 H1174 0.930 . S
C1184 C1183 1.400 . S
C1184 C1187 1.386 . S
H1185 C1201 0.930 . S
H1186 C1202 0.931 . S
C1187 H1175 0.929 . S
C1187 C1181 1.390 . S
C1187 C1184 1.386 . S
C1188 C1183 1.490 . S
C1188 C1190 1.395 . S
C1188 C1191 1.403 . S
H1189 C1195 0.930 . S
C1190 H1176 0.930 . S
C1190 C1188 1.395 . S
C1190 C1193 1.403 . S
C1191 C1188 1.403 . S
C1191 C1192 1.524 . S
C1191 C1195 1.400 . S
C1192 H1177 0.960 . S
C1192 H1178 0.960 . S
C1192 H1179 0.960 . S
C1192 C1191 1.524 . S
C1193 C1190 1.403 . S
C1193 C1194 1.392 . S
C1193 C1197 1.495 . S
C1194 C1193 1.392 . S
C1194 C1195 1.385 . S
C1194 C1196 1.478 . S
C1195 H1189 0.930 . S
C1195 C1191 1.400 . S
C1195 C1194 1.385 . S
C1196 C1194 1.478 . S
C1196 C1198 1.381 . S
C1196 C1202 1.383 . S
C1197 C1193 1.495 . S
C1197 H1203 0.959 . S
C1197 H1204 0.961 . S
C1197 H1205 0.960 . S
C1198 C1196 1.381 . S
C1198 C1199 1.394 . S
C1198 H1206 0.930 . S
C1199 C1198 1.394 . S
C1199 C1200 1.383 . S
C1199 H1207 0.929 . S
C1200 C1199 1.383 . S
C1200 C1201 1.377 . S
C1201 H1185 0.930 . S
C1201 C1200 1.377 . S
C1201 C1202 1.379 . S
C1202 H1186 0.931 . S
C1202 C1196 1.383 . S
C1202 C1201 1.379 . S
H1203 C1197 0.959 . S
H1204 C1197 0.961 . S
H1205 C1197 0.960 . S
H1206 C1198 0.930 . S
H1207 C1199 0.929 . S
H1208 C1216 0.929 . S
H1209 C1218 0.930 . S
H1210 C1220 0.930 . S
H1211 C1223 0.929 . S
H1212 C1226 0.930 . S
H1213 C1228 0.960 . S
H1214 C1228 0.960 . S
H1215 C1228 0.960 . S
C1216 H1208 0.929 . S
C1216 C1217 1.377 . S
C1216 C1218 1.384 . S
C1217 C1216 1.377 . S
C1217 C1223 1.390 . S
C1218 H1209 0.930 . S
C1218 C1216 1.384 . S
C1218 C1219 1.372 . S
C1219 C1218 1.372 . S
C1219 C1220 1.400 . S
C1219 C1224 1.490 . S
C1220 H1210 0.930 . S
C1220 C1219 1.400 . S
C1220 C1223 1.386 . S
H1221 C1237 0.930 . S
H1222 C1238 0.931 . S
C1223 H1211 0.929 . S
C1223 C1217 1.390 . S
C1223 C1220 1.386 . S
C1224 C1219 1.490 . S
C1224 C1226 1.395 . S
C1224 C1227 1.403 . S
H1225 C1231 0.930 . S
C1226 H1212 0.930 . S
C1226 C1224 1.395 . S
C1226 C1229 1.403 . S
C1227 C1224 1.403 . S
C1227 C1228 1.524 . S
C1227 C1231 1.400 . S
C1228 H1213 0.960 . S
C1228 H1214 0.960 . S
C1228 H1215 0.960 . S
C1228 C1227 1.524 . S
C1229 C1226 1.403 . S
C1229 C1230 1.392 . S
C1229 C1233 1.495 . S
C1230 C1229 1.392 . S
C1230 C1231 1.385 . S
C1230 C1232 1.478 . S
C1231 H1225 0.930 . S
C1231 C1227 1.400 . S
C1231 C1230 1.385 . S
C1232 C1230 1.478 . S
C1232 C1234 1.381 . S
C1232 C1238 1.383 . S
C1233 C1229 1.495 . S
C1233 H1239 0.959 . S
C1233 H1240 0.961 . S
C1233 H1241 0.960 . S
C1234 C1232 1.381 . S
C1234 C1235 1.394 . S
C1234 H1242 0.930 . S
C1235 C1234 1.394 . S
C1235 C1236 1.383 . S
C1235 H1243 0.929 . S
C1236 C1235 1.383 . S
C1236 C1237 1.377 . S
C1237 H1221 0.930 . S
C1237 C1236 1.377 . S
C1237 C1238 1.379 . S
C1238 H1222 0.931 . S
C1238 C1232 1.383 . S
C1238 C1237 1.379 . S
H1239 C1233 0.959 . S
H1240 C1233 0.961 . S
H1241 C1233 0.960 . S
H1242 C1234 0.930 . S
H1243 C1235 0.929 . S
H1244 C1252 0.929 . S
H1245 C1254 0.930 . S
H1246 C1256 0.930 . S
H1247 C1259 0.929 . S
H1248 C1262 0.930 1_556 S
H1249 C1264 0.960 . S
H1250 C1264 0.960 . S
H1251 C1264 0.960 . S
C1252 H1244 0.929 . S
C1252 C1253 1.377 . S
C1252 C1254 1.384 . S
C1253 C1252 1.377 . S
C1253 C1259 1.390 . S
C1254 H1245 0.930 . S
C1254 C1252 1.384 . S
C1254 C1255 1.372 . S
C1255 C1254 1.372 . S
C1255 C1256 1.400 1_556 S
C1255 C1260 1.490 1_556 S
C1256 H1246 0.930 . S
C1256 C1255 1.400 1_554 S
C1256 C1259 1.386 1_554 S
H1257 C1273 0.930 . S
H1258 C1274 0.931 . S
C1259 H1247 0.929 . S
C1259 C1253 1.390 . S
C1259 C1256 1.386 1_556 S
C1260 C1255 1.490 1_554 S
C1260 C1262 1.395 . S
C1260 C1263 1.403 . S
H1261 C1267 0.930 . S
C1262 H1248 0.930 1_554 S
C1262 C1260 1.395 . S
C1262 C1265 1.403 . S
C1263 C1260 1.403 . S
C1263 C1264 1.524 . S
C1263 C1267 1.400 . S
C1264 H1249 0.960 . S
C1264 H1250 0.960 . S
C1264 H1251 0.960 . S
C1264 C1263 1.524 . S
C1265 C1262 1.403 . S
C1265 C1266 1.392 . S
C1265 C1269 1.495 . S
C1266 C1265 1.392 . S
C1266 C1267 1.385 . S
C1266 C1268 1.478 . S
C1267 H1261 0.930 . S
C1267 C1263 1.400 . S
C1267 C1266 1.385 . S
C1268 C1266 1.478 . S
C1268 C1270 1.381 . S
C1268 C1274 1.383 . S
C1269 C1265 1.495 . S
C1269 H1275 0.959 1_554 S
C1269 H1276 0.961 . S
C1269 H1277 0.960 . S
C1270 C1268 1.381 . S
C1270 C1271 1.394 . S
C1270 H1278 0.930 . S
C1271 C1270 1.394 . S
C1271 C1272 1.383 . S
C1271 H1279 0.929 . S
C1272 C1271 1.383 . S
C1272 C1273 1.377 . S
C1273 H1257 0.930 . S
C1273 C1272 1.377 . S
C1273 C1274 1.379 . S
C1274 H1258 0.931 . S
C1274 C1268 1.383 . S
C1274 C1273 1.379 . S
H1275 C1269 0.959 1_556 S
H1276 C1269 0.961 . S
H1277 C1269 0.960 . S
H1278 C1270 0.930 . S
H1279 C1271 0.929 . S
H1280 C1288 0.929 . S
H1281 C1290 0.930 . S
H1282 C1292 0.930 . S
H1283 C1295 0.929 . S
H1284 C1298 0.930 . S
H1285 C1300 0.960 . S
H1286 C1300 0.960 . S
H1287 C1300 0.960 . S
C1288 H1280 0.929 . S
C1288 C1289 1.377 . S
C1288 C1290 1.384 . S
C1289 C1288 1.377 . S
C1289 C1295 1.390 . S
C1290 H1281 0.930 . S
C1290 C1288 1.384 . S
C1290 C1291 1.372 . S
C1291 C1290 1.372 . S
C1291 C1292 1.400 . S
C1291 C1296 1.490 . S
C1292 H1282 0.930 . S
C1292 C1291 1.400 . S
C1292 C1295 1.386 . S
H1293 C1309 0.930 . S
H1294 C1310 0.931 . S
C1295 H1283 0.929 . S
C1295 C1289 1.390 . S
C1295 C1292 1.386 . S
C1296 C1291 1.490 . S
C1296 C1298 1.395 . S
C1296 C1299 1.403 . S
H1297 C1303 0.930 . S
C1298 H1284 0.930 . S
C1298 C1296 1.395 . S
C1298 C1301 1.403 . S
C1299 C1296 1.403 . S
C1299 C1300 1.524 . S
C1299 C1303 1.400 . S
C1300 H1285 0.960 . S
C1300 H1286 0.960 . S
C1300 H1287 0.960 . S
C1300 C1299 1.524 . S
C1301 C1298 1.403 . S
C1301 C1302 1.392 . S
C1301 C1305 1.495 . S
C1302 C1301 1.392 . S
C1302 C1303 1.385 . S
C1302 C1304 1.478 . S
C1303 H1297 0.930 . S
C1303 C1299 1.400 . S
C1303 C1302 1.385 . S
C1304 C1302 1.478 . S
C1304 C1306 1.381 . S
C1304 C1310 1.383 . S
C1305 C1301 1.495 . S
C1305 H1311 0.959 . S
C1305 H1312 0.961 . S
C1305 H1313 0.960 . S
C1306 C1304 1.381 . S
C1306 C1307 1.394 . S
C1306 H1314 0.930 . S
C1307 C1306 1.394 . S
C1307 C1308 1.383 . S
C1307 H1315 0.929 . S
C1308 C1307 1.383 . S
C1308 C1309 1.377 . S
C1309 H1293 0.930 . S
C1309 C1308 1.377 . S
C1309 C1310 1.379 . S
C1310 H1294 0.931 . S
C1310 C1304 1.383 . S
C1310 C1309 1.379 . S
H1311 C1305 0.959 . S
H1312 C1305 0.961 . S
H1313 C1305 0.960 . S
H1314 C1306 0.930 . S
H1315 C1307 0.929 . S
H1316 C1324 0.929 . S
H1317 C1326 0.930 . S
H1318 C1328 0.924 1_556 S
H1319 C1331 0.929 . S
H1320 C1334 0.930 . S
H1321 C1336 0.960 . S
H1322 C1336 0.960 . S
H1323 C1336 0.960 . S
C1324 H1316 0.929 . S
C1324 C1325 1.377 . S
C1324 C1326 1.384 . S
C1325 C1324 1.377 . S
C1325 C1331 1.390 . S
C1326 H1317 0.930 . S
C1326 C1324 1.384 . S
C1326 C1327 1.372 . S
C1327 C1326 1.372 . S
C1327 C1328 1.400 . S
C1327 C1332 1.490 1_554 S
C1328 H1318 0.924 1_554 S
C1328 C1327 1.400 . S
C1328 C1331 1.386 . S
H1329 C1345 0.930 . S
H1330 C1346 0.931 . S
C1331 H1319 0.929 . S
C1331 C1325 1.390 . S
C1331 C1328 1.386 . S
C1332 C1327 1.490 1_556 S
C1332 C1334 1.395 . S
C1332 C1335 1.403 . S
H1333 C1339 0.930 . S
C1334 H1320 0.930 . S
C1334 C1332 1.395 . S
C1334 C1337 1.403 . S
C1335 C1332 1.403 . S
C1335 C1336 1.524 1_556 S
C1335 C1339 1.400 . S
C1336 H1321 0.960 . S
C1336 H1322 0.960 . S
C1336 H1323 0.960 . S
C1336 C1335 1.524 1_554 S
C1337 C1334 1.403 . S
C1337 C1338 1.392 . S
C1337 C1341 1.495 . S
C1338 C1337 1.392 . S
C1338 C1339 1.385 . S
C1338 C1340 1.478 . S
C1339 H1333 0.930 . S
C1339 C1335 1.400 . S
C1339 C1338 1.385 . S
C1340 C1338 1.478 . S
C1340 C1342 1.381 . S
C1340 C1346 1.383 . S
C1341 C1337 1.495 . S
C1341 H1347 0.959 . S
C1341 H1348 0.961 . S
C1341 H1349 0.960 . S
C1342 C1340 1.381 . S
C1342 C1343 1.394 . S
C1342 H1350 0.930 . S
C1343 C1342 1.394 . S
C1343 C1344 1.383 . S
C1343 H1351 0.929 . S
C1344 C1343 1.383 . S
C1344 C1345 1.377 . S
C1345 H1329 0.930 . S
C1345 C1344 1.377 . S
C1345 C1346 1.379 . S
C1346 H1330 0.931 . S
C1346 C1340 1.383 . S
C1346 C1345 1.379 . S
H1347 C1341 0.959 . S
H1348 C1341 0.961 . S
H1349 C1341 0.960 . S
H1350 C1342 0.930 . S
H1351 C1343 0.929 . S
H1352 C1360 0.929 . S
H1353 C1362 0.930 . S
H1354 C1364 0.930 . S
H1355 C1367 0.929 . S
H1356 C1370 0.930 . S
H1357 C1372 0.960 . S
H1358 C1372 0.960 . S
H1359 C1372 0.960 . S
C1360 H1352 0.929 . S
C1360 C1361 1.377 . S
C1360 C1362 1.384 . S
C1361 C1360 1.377 . S
C1361 C1367 1.390 . S
C1362 H1353 0.930 . S
C1362 C1360 1.384 . S
C1362 C1363 1.372 . S
C1363 C1362 1.372 . S
C1363 C1364 1.400 . S
C1363 C1368 1.490 . S
C1364 H1354 0.930 . S
C1364 C1363 1.400 . S
C1364 C1367 1.386 . S
H1365 C1381 0.930 . S
H1366 C1382 0.931 . S
C1367 H1355 0.929 . S
C1367 C1361 1.390 . S
C1367 C1364 1.386 . S
C1368 C1363 1.490 . S
C1368 C1370 1.395 . S
C1368 C1371 1.403 . S
H1369 C1375 0.930 . S
C1370 H1356 0.930 . S
C1370 C1368 1.395 . S
C1370 C1373 1.403 . S
C1371 C1368 1.403 . S
C1371 C1372 1.524 . S
C1371 C1375 1.400 . S
C1372 H1357 0.960 . S
C1372 H1358 0.960 . S
C1372 H1359 0.960 . S
C1372 C1371 1.524 . S
C1373 C1370 1.403 . S
C1373 C1374 1.392 . S
C1373 C1377 1.495 . S
C1374 C1373 1.392 . S
C1374 C1375 1.385 . S
C1374 C1376 1.478 1_554 S
C1375 H1369 0.930 . S
C1375 C1371 1.400 . S
C1375 C1374 1.385 . S
C1376 C1374 1.478 1_556 S
C1376 C1378 1.381 . S
C1376 C1382 1.383 1_556 S
C1377 C1373 1.495 . S
C1377 H1383 0.959 . S
C1377 H1384 0.961 . S
C1377 H1385 0.960 1_554 S
C1378 C1376 1.381 . S
C1378 C1379 1.394 . S
C1378 H1386 0.930 . S
C1379 C1378 1.394 . S
C1379 C1380 1.383 . S
C1379 H1387 0.929 . S
C1380 C1379 1.383 . S
C1380 C1381 1.377 . S
C1381 H1365 0.930 . S
C1381 C1380 1.377 . S
C1381 C1382 1.379 1_556 S
C1382 H1366 0.931 . S
C1382 C1376 1.383 1_554 S
C1382 C1381 1.379 1_554 S
H1383 C1377 0.959 . S
H1384 C1377 0.961 . S
H1385 C1377 0.960 1_556 S
H1386 C1378 0.930 . S
H1387 C1379 0.929 . S
H1388 C1396 0.929 . S
H1389 C1398 0.930 . S
H1390 C1400 0.930 . S
H1391 C1403 0.929 . S
H1392 C1406 0.930 . S
H1393 C1408 0.960 . S
H1394 C1408 0.960 . S
H1395 C1408 0.960 . S
C1396 H1388 0.929 . S
C1396 C1397 1.377 . S
C1396 C1398 1.384 . S
C1397 C1396 1.377 . S
C1397 C1403 1.390 . S
C1398 H1389 0.930 . S
C1398 C1396 1.384 . S
C1398 C1399 1.372 . S
C1399 C1398 1.372 . S
C1399 C1400 1.400 . S
C1399 C1404 1.490 . S
C1400 H1390 0.930 . S
C1400 C1399 1.400 . S
C1400 C1403 1.386 . S
H1401 C1417 0.930 . S
H1402 C1418 0.931 . S
C1403 H1391 0.929 . S
C1403 C1397 1.390 . S
C1403 C1400 1.386 . S
C1404 C1399 1.490 . S
C1404 C1406 1.395 . S
C1404 C1407 1.403 . S
H1405 C1411 0.930 . S
C1406 H1392 0.930 . S
C1406 C1404 1.395 . S
C1406 C1409 1.403 . S
C1407 C1404 1.403 . S
C1407 C1408 1.524 . S
C1407 C1411 1.400 . S
C1408 H1393 0.960 . S
C1408 H1394 0.960 . S
C1408 H1395 0.960 . S
C1408 C1407 1.524 . S
C1409 C1406 1.403 . S
C1409 C1410 1.392 . S
C1409 C1413 1.495 . S
C1410 C1409 1.392 . S
C1410 C1411 1.385 . S
C1410 C1412 1.478 . S
C1411 H1405 0.930 . S
C1411 C1407 1.400 . S
C1411 C1410 1.385 . S
C1412 C1410 1.478 . S
C1412 C1414 1.381 . S
C1412 C1418 1.383 . S
C1413 C1409 1.495 . S
C1413 H1419 0.959 . S
C1413 H1420 0.961 . S
C1413 H1421 0.960 . S
C1414 C1412 1.381 . S
C1414 C1415 1.394 . S
C1414 H1422 0.930 . S
C1415 C1414 1.394 . S
C1415 C1416 1.383 . S
C1415 H1423 0.929 . S
C1416 C1415 1.383 . S
C1416 C1417 1.377 . S
C1417 H1401 0.930 . S
C1417 C1416 1.377 . S
C1417 C1418 1.379 . S
C1418 H1402 0.931 . S
C1418 C1412 1.383 . S
C1418 C1417 1.379 . S
H1419 C1413 0.959 . S
H1420 C1413 0.961 . S
H1421 C1413 0.960 . S
H1422 C1414 0.930 . S
H1423 C1415 0.929 . S
H1424 C1432 0.929 . S
H1425 C1434 0.930 . S
H1426 C1436 0.930 . S
H1427 C1439 0.929 . S
H1428 C1442 0.930 . S
H1429 C1444 0.960 . S
H1430 C1444 0.960 . S
H1431 C1444 0.960 . S
C1432 H1424 0.929 . S
C1432 C1433 1.377 . S
C1432 C1434 1.384 . S
C1433 C1432 1.377 . S
C1433 C1439 1.390 . S
C1434 H1425 0.930 . S
C1434 C1432 1.384 . S
C1434 C1435 1.372 . S
C1435 C1434 1.372 . S
C1435 C1436 1.400 . S
C1435 C1440 1.490 . S
C1436 H1426 0.930 . S
C1436 C1435 1.400 . S
C1436 C1439 1.386 . S
H1437 C1453 0.930 . S
H1438 C1454 0.931 . S
C1439 H1427 0.929 . S
C1439 C1433 1.390 . S
C1439 C1436 1.386 . S
C1440 C1435 1.490 . S
C1440 C1442 1.395 . S
C1440 C1443 1.403 . S
H1441 C1447 0.930 . S
C1442 H1428 0.930 . S
C1442 C1440 1.395 . S
C1442 C1445 1.403 . S
C1443 C1440 1.403 . S
C1443 C1444 1.524 . S
C1443 C1447 1.400 . S
C1444 H1429 0.960 . S
C1444 H1430 0.960 . S
C1444 H1431 0.960 . S
C1444 C1443 1.524 . S
C1445 C1442 1.403 . S
C1445 C1446 1.392 . S
C1445 C1449 1.495 . S
C1446 C1445 1.392 . S
C1446 C1447 1.385 . S
C1446 C1448 1.478 . S
C1447 H1441 0.930 . S
C1447 C1443 1.400 . S
C1447 C1446 1.385 . S
C1448 C1446 1.478 . S
C1448 C1450 1.381 . S
C1448 C1454 1.383 . S
C1449 C1445 1.495 . S
C1449 H1455 0.959 . S
C1449 H1456 0.961 . S
C1449 H1457 0.960 . S
C1450 C1448 1.381 . S
C1450 C1451 1.394 . S
C1450 H1458 0.930 . S
C1451 C1450 1.394 . S
C1451 C1452 1.383 . S
C1451 H1459 0.929 . S
C1452 C1451 1.383 . S
C1452 C1453 1.377 . S
C1453 H1437 0.930 . S
C1453 C1452 1.377 . S
C1453 C1454 1.379 . S
C1454 H1438 0.931 . S
C1454 C1448 1.383 . S
C1454 C1453 1.379 . S
H1455 C1449 0.959 . S
H1456 C1449 0.961 . S
H1457 C1449 0.960 . S
H1458 C1450 0.930 . S
H1459 C1451 0.929 . S
H1460 C1468 0.929 . S
H1461 C1470 0.930 . S
H1462 C1472 0.930 . S
H1463 C1475 0.929 . S
H1464 C1478 0.930 . S
H1465 C1480 0.960 . S
H1466 C1480 0.960 . S
H1467 C1480 0.960 . S
C1468 H1460 0.929 . S
C1468 C1469 1.377 . S
C1468 C1470 1.384 1_556 S
C1469 C1468 1.377 . S
C1469 C1475 1.390 . S
C1470 H1461 0.930 . S
C1470 C1468 1.384 1_554 S
C1470 C1471 1.373 . S
C1471 C1470 1.373 . S
C1471 C1472 1.395 1_554 S
C1471 C1476 1.493 . S
C1472 H1462 0.930 . S
C1472 C1471 1.395 1_556 S
C1472 C1475 1.386 . S
H1473 C1489 0.930 . S
H1474 C1490 0.931 . S
C1475 H1463 0.929 . S
C1475 C1469 1.390 . S
C1475 C1472 1.386 . S
C1476 C1471 1.493 . S
C1476 C1478 1.395 . S
C1476 C1479 1.403 . S
H1477 C1483 0.930 . S
C1478 H1464 0.930 . S
C1478 C1476 1.395 . S
C1478 C1481 1.403 . S
C1479 C1476 1.403 . S
C1479 C1480 1.524 1_554 S
C1479 C1483 1.400 . S
C1480 H1465 0.960 . S
C1480 H1466 0.960 . S
C1480 H1467 0.960 . S
C1480 C1479 1.524 1_556 S
C1481 C1478 1.403 . S
C1481 C1482 1.392 . S
C1481 C1485 1.495 . S
C1482 C1481 1.392 . S
C1482 C1483 1.385 . S
C1482 C1484 1.478 . S
C1483 H1477 0.930 . S
C1483 C1479 1.400 . S
C1483 C1482 1.385 . S
C1484 C1482 1.478 . S
C1484 C1486 1.381 . S
C1484 C1490 1.383 . S
C1485 C1481 1.495 . S
C1485 H1491 0.959 . S
C1485 H1492 0.961 . S
C1485 H1493 0.960 . S
C1486 C1484 1.381 . S
C1486 C1487 1.394 . S
C1486 H1494 0.930 . S
C1487 C1486 1.394 . S
C1487 C1488 1.383 . S
C1487 H1495 0.929 . S
C1488 C1487 1.383 . S
C1488 C1489 1.377 . S
C1489 H1473 0.930 . S
C1489 C1488 1.377 . S
C1489 C1490 1.379 . S
C1490 H1474 0.931 . S
C1490 C1484 1.383 . S
C1490 C1489 1.379 . S
H1491 C1485 0.959 . S
H1492 C1485 0.961 . S
H1493 C1485 0.960 . S
H1494 C1486 0.930 . S
H1495 C1487 0.929 . S
H1496 C1504 0.929 . S
H1497 C1506 0.930 . S
H1498 C1508 0.930 . S
H1499 C1511 0.929 . S
H1500 C1514 0.930 . S
H1501 C1516 0.960 . S
H1502 C1516 0.960 . S
H1503 C1516 0.960 . S
C1504 H1496 0.929 . S
C1504 C1505 1.377 . S
C1504 C1506 1.384 . S
C1505 C1504 1.377 . S
C1505 C1511 1.390 . S
C1506 H1497 0.930 . S
C1506 C1504 1.384 . S
C1506 C1507 1.372 . S
C1507 C1506 1.372 . S
C1507 C1508 1.400 . S
C1507 C1512 1.490 . S
C1508 H1498 0.930 . S
C1508 C1507 1.400 . S
C1508 C1511 1.386 . S
H1509 C1525 0.930 . S
H1510 C1526 0.931 . S
C1511 H1499 0.929 . S
C1511 C1505 1.390 . S
C1511 C1508 1.386 . S
C1512 C1507 1.490 . S
C1512 C1514 1.395 . S
C1512 C1515 1.403 . S
H1513 C1519 0.930 . S
C1514 H1500 0.930 . S
C1514 C1512 1.395 . S
C1514 C1517 1.403 . S
C1515 C1512 1.403 . S
C1515 C1516 1.524 . S
C1515 C1519 1.400 . S
C1516 H1501 0.960 . S
C1516 H1502 0.960 . S
C1516 H1503 0.960 . S
C1516 C1515 1.524 . S
C1517 C1514 1.403 . S
C1517 C1518 1.392 . S
C1517 C1521 1.495 . S
C1518 C1517 1.392 . S
C1518 C1519 1.385 . S
C1518 C1520 1.478 . S
C1519 H1513 0.930 . S
C1519 C1515 1.400 . S
C1519 C1518 1.385 . S
C1520 C1518 1.478 . S
C1520 C1522 1.381 . S
C1520 C1526 1.383 1_556 S
C1521 C1517 1.495 . S
C1521 H1527 0.959 . S
C1521 H1528 0.961 . S
C1521 H1529 0.960 . S
C1522 C1520 1.381 . S
C1522 C1523 1.394 1_556 S
C1522 H1530 0.930 . S
C1523 C1522 1.394 1_554 S
C1523 C1524 1.383 . S
C1523 H1531 0.930 . S
C1524 C1523 1.383 . S
C1524 C1525 1.377 . S
C1525 H1509 0.930 . S
C1525 C1524 1.377 . S
C1525 C1526 1.379 . S
C1526 H1510 0.931 . S
C1526 C1520 1.383 1_554 S
C1526 C1525 1.379 . S
H1527 C1521 0.959 . S
H1528 C1521 0.961 . S
H1529 C1521 0.960 . S
H1530 C1522 0.930 . S
H1531 C1523 0.930 . S
H1532 C1540 0.929 . S
H1533 C1542 0.930 . S
H1534 C1544 0.930 . S
H1535 C1547 0.929 . S
H1536 C1550 0.930 . S
H1537 C1552 0.960 . S
H1538 C1552 0.960 . S
H1539 C1552 0.960 . S
C1540 H1532 0.929 . S
C1540 C1541 1.377 . S
C1540 C1542 1.384 . S
C1541 C1540 1.377 . S
C1541 C1547 1.390 . S
C1542 H1533 0.930 . S
C1542 C1540 1.384 . S
C1542 C1543 1.372 . S
C1543 C1542 1.372 . S
C1543 C1544 1.400 . S
C1543 C1548 1.490 . S
C1544 H1534 0.930 . S
C1544 C1543 1.400 . S
C1544 C1547 1.386 . S
H1545 C1561 0.930 . S
H1546 C1562 0.931 . S
C1547 H1535 0.929 . S
C1547 C1541 1.390 . S
C1547 C1544 1.386 . S
C1548 C1543 1.490 . S
C1548 C1550 1.395 . S
C1548 C1551 1.403 . S
H1549 C1555 0.930 . S
C1550 H1536 0.930 . S
C1550 C1548 1.395 . S
C1550 C1553 1.403 . S
C1551 C1548 1.403 . S
C1551 C1552 1.524 . S
C1551 C1555 1.400 . S
C1552 H1537 0.960 . S
C1552 H1538 0.960 . S
C1552 H1539 0.960 . S
C1552 C1551 1.524 . S
C1553 C1550 1.403 . S
C1553 C1554 1.392 . S
C1553 C1557 1.495 . S
C1554 C1553 1.392 . S
C1554 C1555 1.385 . S
C1554 C1556 1.478 . S
C1555 H1549 0.930 . S
C1555 C1551 1.400 . S
C1555 C1554 1.385 . S
C1556 C1554 1.478 . S
C1556 C1558 1.381 . S
C1556 C1562 1.383 . S
C1557 C1553 1.495 . S
C1557 H1563 0.959 . S
C1557 H1564 0.961 . S
C1557 H1565 0.960 . S
C1558 C1556 1.381 . S
C1558 C1559 1.394 . S
C1558 H1566 0.930 . S
C1559 C1558 1.394 . S
C1559 C1560 1.383 . S
C1559 H1567 0.929 . S
C1560 C1559 1.383 . S
C1560 C1561 1.377 . S
C1561 H1545 0.930 . S
C1561 C1560 1.377 . S
C1561 C1562 1.379 . S
C1562 H1546 0.931 . S
C1562 C1556 1.383 . S
C1562 C1561 1.379 . S
H1563 C1557 0.959 . S
H1564 C1557 0.961 . S
H1565 C1557 0.960 . S
H1566 C1558 0.930 . S
H1567 C1559 0.929 . S
H1568 C1576 0.929 . S
H1569 C1578 0.930 . S
H1570 C1580 0.930 . S
H1571 C1583 0.929 . S
H1572 C1586 0.930 . S
H1573 C1588 0.960 . S
H1574 C1588 0.960 . S
H1575 C1588 0.960 . S
C1576 H1568 0.929 . S
C1576 C1577 1.377 . S
C1576 C1578 1.384 . S
C1577 C1576 1.377 . S
C1577 C1583 1.390 . S
C1578 H1569 0.930 . S
C1578 C1576 1.384 . S
C1578 C1579 1.372 . S
C1579 C1578 1.372 . S
C1579 C1580 1.400 . S
C1579 C1584 1.490 . S
C1580 H1570 0.930 . S
C1580 C1579 1.400 . S
C1580 C1583 1.386 . S
H1581 C1597 0.930 . S
H1582 C1598 0.931 . S
C1583 H1571 0.929 . S
C1583 C1577 1.390 . S
C1583 C1580 1.386 . S
C1584 C1579 1.490 . S
C1584 C1586 1.395 1_554 S
C1584 C1587 1.403 . S
H1585 C1591 0.930 . S
C1586 H1572 0.930 . S
C1586 C1584 1.395 1_556 S
C1586 C1589 1.403 . S
C1587 C1584 1.403 . S
C1587 C1588 1.524 . S
C1587 C1591 1.400 1_554 S
C1588 H1573 0.960 . S
C1588 H1574 0.960 . S
C1588 H1575 0.960 . S
C1588 C1587 1.524 . S
C1589 C1586 1.403 . S
C1589 C1590 1.392 . S
C1589 C1593 1.495 . S
C1590 C1589 1.392 . S
C1590 C1591 1.385 . S
C1590 C1592 1.478 . S
C1591 H1585 0.930 . S
C1591 C1587 1.400 1_556 S
C1591 C1590 1.385 . S
C1592 C1590 1.478 . S
C1592 C1594 1.381 . S
C1592 C1598 1.383 . S
C1593 C1589 1.495 . S
C1593 H1599 0.959 . S
C1593 H1600 0.961 . S
C1593 H1601 0.960 . S
C1594 C1592 1.381 . S
C1594 C1595 1.394 . S
C1594 H1602 0.930 . S
C1595 C1594 1.394 . S
C1595 C1596 1.383 . S
C1595 H1603 0.929 . S
C1596 C1595 1.383 . S
C1596 C1597 1.377 . S
C1597 H1581 0.930 . S
C1597 C1596 1.377 . S
C1597 C1598 1.379 . S
C1598 H1582 0.931 . S
C1598 C1592 1.383 . S
C1598 C1597 1.379 . S
H1599 C1593 0.959 . S
H1600 C1593 0.961 . S
H1601 C1593 0.960 . S
H1602 C1594 0.930 . S
H1603 C1595 0.929 . S
H1604 C1612 0.929 . S
H1605 C1614 0.930 . S
H1606 C1616 0.930 . S
H1607 C1619 0.929 . S
H1608 C1622 0.930 . S
H1609 C1624 0.960 . S
H1610 C1624 0.960 1_655 S
H1611 C1624 0.960 . S
C1612 H1604 0.929 . S
C1612 C1613 1.377 . S
C1612 C1614 1.384 . S
C1613 C1612 1.377 . S
C1613 C1619 1.390 . S
C1614 H1605 0.930 . S
C1614 C1612 1.384 . S
C1614 C1615 1.372 . S
C1615 C1614 1.372 . S
C1615 C1616 1.400 . S
C1615 C1620 1.490 . S
C1616 H1606 0.930 . S
C1616 C1615 1.400 . S
C1616 C1619 1.386 . S
H1617 C1633 0.930 . S
H1618 C1634 0.931 . S
C1619 H1607 0.929 . S
C1619 C1613 1.390 . S
C1619 C1616 1.386 . S
C1620 C1615 1.490 . S
C1620 C1622 1.395 . S
C1620 C1623 1.403 1_655 S
H1621 C1627 0.930 . S
C1622 H1608 0.930 . S
C1622 C1620 1.395 . S
C1622 C1625 1.403 . S
C1623 C1620 1.403 1_455 S
C1623 C1624 1.524 . S
C1623 C1627 1.400 . S
C1624 H1609 0.960 . S
C1624 H1610 0.960 1_455 S
C1624 H1611 0.960 . S
C1624 C1623 1.524 . S
C1625 C1622 1.403 . S
C1625 C1626 1.392 1_655 S
C1625 C1629 1.495 . S
C1626 C1625 1.392 1_455 S
C1626 C1627 1.385 . S
C1626 C1628 1.478 . S
C1627 H1621 0.930 . S
C1627 C1623 1.400 . S
C1627 C1626 1.385 . S
C1628 C1626 1.478 . S
C1628 C1630 1.381 . S
C1628 C1634 1.383 . S
C1629 C1625 1.495 . S
C1629 H1635 0.959 . S
C1629 H1636 0.961 1_655 S
C1629 H1637 0.960 . S
C1630 C1628 1.381 . S
C1630 C1631 1.394 . S
C1630 H1638 0.930 . S
C1631 C1630 1.394 . S
C1631 C1632 1.383 . S
C1631 H1639 0.929 . S
C1632 C1631 1.383 . S
C1632 C1633 1.377 . S
C1633 H1617 0.930 . S
C1633 C1632 1.377 . S
C1633 C1634 1.379 . S
C1634 H1618 0.931 . S
C1634 C1628 1.383 . S
C1634 C1633 1.379 . S
H1635 C1629 0.959 . S
H1636 C1629 0.961 1_455 S
H1637 C1629 0.960 . S
H1638 C1630 0.930 . S
H1639 C1631 0.929 . S
H1640 C1648 0.929 . S
H1641 C1650 0.930 . S
H1642 C1652 0.930 . S
H1643 C1655 0.929 . S
H1644 C1658 0.930 . S
H1645 C1660 0.960 . S
H1646 C1660 0.960 . S
H1647 C1660 0.960 . S
C1648 H1640 0.929 . S
C1648 C1649 1.377 . S
C1648 C1650 1.384 . S
C1649 C1648 1.377 . S
C1649 C1655 1.390 . S
C1650 H1641 0.930 . S
C1650 C1648 1.384 . S
C1650 C1651 1.372 . S
C1651 C1650 1.372 . S
C1651 C1652 1.400 . S
C1651 C1656 1.490 . S
C1652 H1642 0.930 . S
C1652 C1651 1.400 . S
C1652 C1655 1.386 . S
H1653 C1669 0.930 . S
H1654 C1670 0.931 . S
C1655 H1643 0.929 . S
C1655 C1649 1.390 . S
C1655 C1652 1.386 . S
C1656 C1651 1.490 . S
C1656 C1658 1.395 . S
C1656 C1659 1.403 . S
H1657 C1663 0.930 . S
C1658 H1644 0.930 . S
C1658 C1656 1.395 . S
C1658 C1661 1.403 . S
C1659 C1656 1.403 . S
C1659 C1660 1.524 . S
C1659 C1663 1.400 . S
C1660 H1645 0.960 . S
C1660 H1646 0.960 . S
C1660 H1647 0.960 . S
C1660 C1659 1.524 . S
C1661 C1658 1.403 . S
C1661 C1662 1.392 . S
C1661 C1665 1.495 . S
C1662 C1661 1.392 . S
C1662 C1663 1.385 . S
C1662 C1664 1.478 . S
C1663 H1657 0.930 . S
C1663 C1659 1.400 . S
C1663 C1662 1.385 . S
C1664 C1662 1.478 . S
C1664 C1666 1.381 . S
C1664 C1670 1.383 . S
C1665 C1661 1.495 . S
C1665 H1671 0.959 . S
C1665 H1672 0.961 . S
C1665 H1673 0.960 . S
C1666 C1664 1.381 . S
C1666 C1667 1.394 . S
C1666 H1674 0.930 . S
C1667 C1666 1.394 . S
C1667 C1668 1.383 . S
C1667 H1675 0.929 . S
C1668 C1667 1.383 . S
C1668 C1669 1.377 . S
C1669 H1653 0.930 . S
C1669 C1668 1.377 . S
C1669 C1670 1.379 . S
C1670 H1654 0.931 . S
C1670 C1664 1.383 . S
C1670 C1669 1.379 . S
H1671 C1665 0.959 . S
H1672 C1665 0.961 . S
H1673 C1665 0.960 . S
H1674 C1666 0.930 . S
H1675 C1667 0.929 . S
H1676 C1684 0.929 . S
H1677 C1686 0.930 . S
H1678 C1688 0.930 . S
H1679 C1691 0.929 . S
H1680 C1694 0.930 . S
H1681 C1696 0.960 . S
H1682 C1696 0.960 . S
H1683 C1696 0.960 . S
C1684 H1676 0.929 . S
C1684 C1685 1.377 . S
C1684 C1686 1.384 . S
C1685 C1684 1.377 . S
C1685 C1691 1.390 . S
C1686 H1677 0.930 . S
C1686 C1684 1.384 . S
C1686 C1687 1.372 . S
C1687 C1686 1.372 . S
C1687 C1688 1.400 . S
C1687 C1692 1.490 . S
C1688 H1678 0.930 . S
C1688 C1687 1.400 . S
C1688 C1691 1.386 . S
H1689 C1705 0.930 . S
H1690 C1706 0.931 . S
C1691 H1679 0.929 . S
C1691 C1685 1.390 . S
C1691 C1688 1.386 . S
C1692 C1687 1.490 . S
C1692 C1694 1.395 . S
C1692 C1695 1.403 . S
H1693 C1699 0.930 . S
C1694 H1680 0.930 . S
C1694 C1692 1.395 . S
C1694 C1697 1.403 . S
C1695 C1692 1.403 . S
C1695 C1696 1.524 . S
C1695 C1699 1.400 . S
C1696 H1681 0.960 . S
C1696 H1682 0.960 . S
C1696 H1683 0.960 . S
C1696 C1695 1.524 . S
C1697 C1694 1.403 . S
C1697 C1698 1.392 . S
C1697 C1701 1.495 . S
C1698 C1697 1.392 . S
C1698 C1699 1.385 . S
C1698 C1700 1.478 . S
C1699 H1693 0.930 . S
C1699 C1695 1.400 . S
C1699 C1698 1.385 . S
C1700 C1698 1.478 . S
C1700 C1702 1.381 . S
C1700 C1706 1.383 . S
C1701 C1697 1.495 . S
C1701 H1707 0.959 . S
C1701 H1708 0.961 . S
C1701 H1709 0.960 . S
C1702 C1700 1.381 . S
C1702 C1703 1.394 . S
C1702 H1710 0.930 . S
C1703 C1702 1.394 . S
C1703 C1704 1.383 1_556 S
C1703 H1711 0.930 . S
C1704 C1703 1.383 1_554 S
C1704 C1705 1.377 . S
C1705 H1689 0.930 . S
C1705 C1704 1.377 . S
C1705 C1706 1.379 1_554 S
C1706 H1690 0.931 . S
C1706 C1700 1.383 . S
C1706 C1705 1.379 1_556 S
H1707 C1701 0.959 . S
H1708 C1701 0.961 . S
H1709 C1701 0.960 . S
H1710 C1702 0.930 . S
H1711 C1703 0.930 . S
H1712 C1720 0.929 . S
H1713 C1722 0.930 . S
H1714 C1724 0.930 . S
H1715 C1727 0.929 . S
H1716 C1730 0.930 . S
H1717 C1732 0.960 . S
H1718 C1732 0.960 . S
H1719 C1732 0.960 . S
C1720 H1712 0.929 . S
C1720 C1721 1.377 . S
C1720 C1722 1.384 . S
C1721 C1720 1.377 . S
C1721 C1727 1.390 . S
C1722 H1713 0.930 . S
C1722 C1720 1.384 . S
C1722 C1723 1.372 . S
C1723 C1722 1.372 . S
C1723 C1724 1.400 . S
C1723 C1728 1.490 . S
C1724 H1714 0.930 . S
C1724 C1723 1.400 . S
C1724 C1727 1.386 . S
H1725 C1741 0.930 . S
H1726 C1742 0.931 . S
C1727 H1715 0.929 . S
C1727 C1721 1.390 . S
C1727 C1724 1.386 . S
C1728 C1723 1.490 . S
C1728 C1730 1.395 . S
C1728 C1731 1.403 . S
H1729 C1735 0.930 . S
C1730 H1716 0.930 . S
C1730 C1728 1.395 . S
C1730 C1733 1.403 . S
C1731 C1728 1.403 . S
C1731 C1732 1.524 . S
C1731 C1735 1.400 . S
C1732 H1717 0.960 . S
C1732 H1718 0.960 . S
C1732 H1719 0.960 . S
C1732 C1731 1.524 . S
C1733 C1730 1.403 . S
C1733 C1734 1.392 . S
C1733 C1737 1.495 . S
C1734 C1733 1.392 . S
C1734 C1735 1.385 . S
C1734 C1736 1.478 . S
C1735 H1729 0.930 . S
C1735 C1731 1.400 . S
C1735 C1734 1.385 . S
C1736 C1734 1.478 . S
C1736 C1738 1.381 . S
C1736 C1742 1.383 . S
C1737 C1733 1.495 . S
C1737 H1743 0.959 . S
C1737 H1744 0.961 . S
C1737 H1745 0.960 . S
C1738 C1736 1.381 . S
C1738 C1739 1.394 . S
C1738 H1746 0.930 . S
C1739 C1738 1.394 . S
C1739 C1740 1.383 . S
C1739 H1747 0.929 . S
C1740 C1739 1.383 . S
C1740 C1741 1.377 . S
C1741 H1725 0.930 . S
C1741 C1740 1.377 . S
C1741 C1742 1.379 . S
C1742 H1726 0.931 . S
C1742 C1736 1.383 . S
C1742 C1741 1.379 . S
H1743 C1737 0.959 . S
H1744 C1737 0.961 . S
H1745 C1737 0.960 . S
H1746 C1738 0.930 . S
H1747 C1739 0.929 . S
H1748 C1756 0.929 . S
H1749 C1758 0.930 . S
H1750 C1760 0.930 . S
H1751 C1763 0.929 . S
H1752 C1766 0.930 . S
H1753 C1768 0.960 . S
H1754 C1768 0.960 . S
H1755 C1768 0.960 . S
C1756 H1748 0.929 . S
C1756 C1757 1.377 . S
C1756 C1758 1.384 . S
C1757 C1756 1.377 . S
C1757 C1763 1.390 . S
C1758 H1749 0.930 . S
C1758 C1756 1.384 . S
C1758 C1759 1.372 . S
C1759 C1758 1.372 . S
C1759 C1760 1.400 . S
C1759 C1764 1.490 . S
C1760 H1750 0.930 . S
C1760 C1759 1.400 . S
C1760 C1763 1.386 . S
H1761 C1777 0.930 . S
H1762 C1778 0.931 . S
C1763 H1751 0.929 . S
C1763 C1757 1.390 . S
C1763 C1760 1.386 . S
C1764 C1759 1.490 . S
C1764 C1766 1.395 . S
C1764 C1767 1.403 . S
H1765 C1771 0.930 . S
C1766 H1752 0.930 . S
C1766 C1764 1.395 . S
C1766 C1769 1.403 . S
C1767 C1764 1.403 . S
C1767 C1768 1.524 . S
C1767 C1771 1.400 . S
C1768 H1753 0.960 . S
C1768 H1754 0.960 . S
C1768 H1755 0.960 . S
C1768 C1767 1.524 . S
C1769 C1766 1.403 . S
C1769 C1770 1.392 . S
C1769 C1773 1.495 . S
C1770 C1769 1.392 . S
C1770 C1771 1.385 . S
C1770 C1772 1.478 . S
C1771 H1765 0.930 . S
C1771 C1767 1.400 . S
C1771 C1770 1.385 . S
C1772 C1770 1.478 . S
C1772 C1774 1.381 . S
C1772 C1778 1.383 . S
C1773 C1769 1.495 . S
C1773 H1779 0.959 . S
C1773 H1780 0.961 . S
C1773 H1781 0.960 . S
C1774 C1772 1.381 . S
C1774 C1775 1.394 . S
C1774 H1782 0.930 . S
C1775 C1774 1.394 . S
C1775 C1776 1.383 . S
C1775 H1783 0.929 . S
C1776 C1775 1.383 . S
C1776 C1777 1.377 . S
C1777 H1761 0.930 . S
C1777 C1776 1.377 . S
C1777 C1778 1.379 . S
C1778 H1762 0.931 . S
C1778 C1772 1.383 . S
C1778 C1777 1.379 . S
H1779 C1773 0.959 . S
H1780 C1773 0.961 . S
H1781 C1773 0.960 . S
H1782 C1774 0.930 . S
H1783 C1775 0.929 . S
H1784 C1792 0.929 . S
H1785 C1794 0.930 . S
H1786 C1796 0.930 . S
H1787 C1799 0.929 . S
H1788 C1802 0.930 . S
H1789 C1804 0.960 . S
H1790 C1804 0.960 . S
H1791 C1804 0.960 . S
C1792 H1784 0.929 . S
C1792 C1793 1.377 . S
C1792 C1794 1.384 . S
C1793 C1792 1.377 . S
C1793 C1799 1.390 . S
C1794 H1785 0.930 . S
C1794 C1792 1.384 . S
C1794 C1795 1.372 . S
C1795 C1794 1.372 . S
C1795 C1796 1.400 . S
C1795 C1800 1.490 . S
C1796 H1786 0.930 . S
C1796 C1795 1.400 . S
C1796 C1799 1.386 . S
H1797 C1813 0.930 . S
H1798 C1814 0.931 . S
C1799 H1787 0.929 . S
C1799 C1793 1.390 . S
C1799 C1796 1.386 . S
C1800 C1795 1.490 . S
C1800 C1802 1.395 1_556 S
C1800 C1803 1.403 . S
H1801 C1807 0.930 . S
C1802 H1788 0.930 . S
C1802 C1800 1.395 1_554 S
C1802 C1805 1.403 . S
C1803 C1800 1.403 . S
C1803 C1804 1.524 . S
C1803 C1807 1.400 1_556 S
C1804 H1789 0.960 . S
C1804 H1790 0.960 . S
C1804 H1791 0.960 . S
C1804 C1803 1.524 . S
C1805 C1802 1.403 . S
C1805 C1806 1.392 . S
C1805 C1809 1.495 . S
C1806 C1805 1.392 . S
C1806 C1807 1.385 . S
C1806 C1808 1.478 . S
C1807 H1801 0.930 . S
C1807 C1803 1.400 1_554 S
C1807 C1806 1.385 . S
C1808 C1806 1.478 . S
C1808 C1810 1.381 . S
C1808 C1814 1.383 . S
C1809 C1805 1.495 . S
C1809 H1815 0.959 . S
C1809 H1816 0.961 . S
C1809 H1817 0.960 . S
C1810 C1808 1.381 . S
C1810 C1811 1.394 . S
C1810 H1818 0.930 . S
C1811 C1810 1.394 . S
C1811 C1812 1.383 . S
C1811 H1819 0.929 . S
C1812 C1811 1.383 . S
C1812 C1813 1.377 . S
C1813 H1797 0.930 . S
C1813 C1812 1.377 . S
C1813 C1814 1.379 . S
C1814 H1798 0.931 . S
C1814 C1808 1.383 . S
C1814 C1813 1.379 . S
H1815 C1809 0.959 . S
H1816 C1809 0.961 . S
H1817 C1809 0.960 . S
H1818 C1810 0.930 . S
H1819 C1811 0.929 . S
H1820 C1828 0.929 . S
H1821 C1830 0.930 . S
H1822 C1832 0.930 . S
H1823 C1835 0.929 . S
H1824 C1838 0.930 . S
H1825 C1840 0.960 . S
H1826 C1840 0.960 . S
H1827 C1840 0.960 . S
C1828 H1820 0.929 . S
C1828 C1829 1.377 1_554 S
C1828 C1830 1.384 . S
C1829 C1828 1.377 1_556 S
C1829 C1835 1.390 . S
C1830 H1821 0.930 . S
C1830 C1828 1.384 . S
C1830 C1831 1.372 . S
C1831 C1830 1.372 . S
C1831 C1832 1.400 . S
C1831 C1836 1.490 . S
C1832 H1822 0.930 . S
C1832 C1831 1.400 . S
C1832 C1835 1.386 1_554 S
H1833 C1849 0.930 . S
H1834 C1850 0.931 . S
C1835 H1823 0.929 . S
C1835 C1829 1.390 . S
C1835 C1832 1.386 1_556 S
C1836 C1831 1.490 . S
C1836 C1838 1.395 . S
C1836 C1839 1.403 1_455 S
H1837 C1843 0.930 . S
C1838 H1824 0.930 . S
C1838 C1836 1.395 . S
C1838 C1841 1.403 . S
C1839 C1836 1.403 1_655 S
C1839 C1840 1.524 . S
C1839 C1843 1.400 . S
C1840 H1825 0.960 . S
C1840 H1826 0.960 . S
C1840 H1827 0.960 . S
C1840 C1839 1.524 . S
C1841 C1838 1.403 . S
C1841 C1842 1.392 1_455 S
C1841 C1845 1.495 . S
C1842 C1841 1.392 1_655 S
C1842 C1843 1.385 . S
C1842 C1844 1.478 . S
C1843 H1837 0.930 . S
C1843 C1839 1.400 . S
C1843 C1842 1.385 . S
C1844 C1842 1.478 . S
C1844 C1846 1.381 . S
C1844 C1850 1.383 . S
C1845 C1841 1.495 . S
C1845 H1851 0.959 . S
C1845 H1852 0.961 . S
C1845 H1853 0.960 . S
C1846 C1844 1.381 . S
C1846 C1847 1.394 . S
C1846 H1854 0.930 . S
C1847 C1846 1.394 . S
C1847 C1848 1.383 . S
C1847 H1855 0.929 . S
C1848 C1847 1.383 . S
C1848 C1849 1.377 . S
C1849 H1833 0.930 . S
C1849 C1848 1.377 . S
C1849 C1850 1.379 . S
C1850 H1834 0.931 . S
C1850 C1844 1.383 . S
C1850 C1849 1.379 . S
H1851 C1845 0.959 . S
H1852 C1845 0.961 . S
H1853 C1845 0.960 . S
H1854 C1846 0.930 . S
H1855 C1847 0.929 . S
H1856 C1864 0.929 . S
H1857 C1866 0.930 . S
H1858 C1868 0.930 . S
H1859 C1871 0.929 . S
H1860 C1874 0.930 . S
H1861 C1876 0.960 . S
H1862 C1876 0.960 . S
H1863 C1876 0.960 . S
C1864 H1856 0.929 . S
C1864 C1865 1.377 . S
C1864 C1866 1.384 . S
C1865 C1864 1.377 . S
C1865 C1871 1.390 . S
C1866 H1857 0.930 . S
C1866 C1864 1.384 . S
C1866 C1867 1.372 . S
C1867 C1866 1.372 . S
C1867 C1868 1.400 . S
C1867 C1872 1.490 . S
C1868 H1858 0.930 . S
C1868 C1867 1.400 . S
C1868 C1871 1.386 . S
H1869 C1885 0.930 . S
H1870 C1886 0.931 . S
C1871 H1859 0.929 . S
C1871 C1865 1.390 . S
C1871 C1868 1.386 . S
C1872 C1867 1.490 . S
C1872 C1874 1.395 . S
C1872 C1875 1.403 1_556 S
H1873 C1879 0.930 . S
C1874 H1860 0.930 . S
C1874 C1872 1.395 . S
C1874 C1877 1.403 . S
C1875 C1872 1.403 1_554 S
C1875 C1876 1.524 . S
C1875 C1879 1.400 . S
C1876 H1861 0.960 . S
C1876 H1862 0.960 . S
C1876 H1863 0.960 . S
C1876 C1875 1.524 . S
C1877 C1874 1.403 . S
C1877 C1878 1.392 1_556 S
C1877 C1881 1.495 . S
C1878 C1877 1.392 1_554 S
C1878 C1879 1.385 . S
C1878 C1880 1.478 . S
C1879 H1873 0.930 . S
C1879 C1875 1.400 . S
C1879 C1878 1.385 . S
C1880 C1878 1.478 . S
C1880 C1882 1.381 . S
C1880 C1886 1.383 . S
C1881 C1877 1.495 . S
C1881 H1887 0.959 . S
C1881 H1888 0.961 . S
C1881 H1889 0.960 . S
C1882 C1880 1.381 . S
C1882 C1883 1.394 . S
C1882 H1890 0.930 . S
C1883 C1882 1.394 . S
C1883 C1884 1.383 . S
C1883 H1891 0.929 . S
C1884 C1883 1.383 . S
C1884 C1885 1.377 . S
C1885 H1869 0.930 . S
C1885 C1884 1.377 . S
C1885 C1886 1.379 . S
C1886 H1870 0.931 . S
C1886 C1880 1.383 . S
C1886 C1885 1.379 . S
H1887 C1881 0.959 . S
H1888 C1881 0.961 . S
H1889 C1881 0.960 . S
H1890 C1882 0.930 . S
H1891 C1883 0.929 . S
H1892 C1900 0.929 . S
H1893 C1902 0.930 . S
H1894 C1904 0.930 . S
H1895 C1907 0.929 . S
H1896 C1910 0.930 . S
H1897 C1912 0.960 . S
H1898 C1912 0.992 . S
H1899 C1912 0.960 . S
C1900 H1892 0.929 . S
C1900 C1901 1.377 . S
C1900 C1902 1.384 . S
C1901 C1900 1.377 . S
C1901 C1907 1.390 . S
C1902 H1893 0.930 . S
C1902 C1900 1.384 . S
C1902 C1903 1.372 . S
C1903 C1902 1.372 . S
C1903 C1904 1.400 . S
C1903 C1908 1.490 . S
C1904 H1894 0.930 . S
C1904 C1903 1.400 . S
C1904 C1907 1.386 . S
H1905 C1921 0.930 . S
H1906 C1922 0.931 . S
C1907 H1895 0.929 . S
C1907 C1901 1.390 . S
C1907 C1904 1.386 . S
C1908 C1903 1.490 . S
C1908 C1910 1.395 . S
C1908 C1911 1.403 1_455 S
H1909 C1915 0.930 . S
C1910 H1896 0.930 . S
C1910 C1908 1.395 . S
C1910 C1913 1.403 . S
C1911 C1908 1.403 1_655 S
C1911 C1912 1.524 . S
C1911 C1915 1.400 . S
C1912 H1897 0.960 . S
C1912 H1898 0.992 . S
C1912 H1899 0.960 . S
C1912 C1911 1.524 . S
C1913 C1910 1.403 . S
C1913 C1914 1.392 1_455 S
C1913 C1917 1.495 . S
C1914 C1913 1.392 1_655 S
C1914 C1915 1.385 . S
C1914 C1916 1.478 . S
C1915 H1909 0.930 . S
C1915 C1911 1.400 . S
C1915 C1914 1.385 . S
C1916 C1914 1.478 . S
C1916 C1918 1.381 . S
C1916 C1922 1.383 . S
C1917 C1913 1.495 . S
C1917 H1923 0.959 . S
C1917 H1924 0.961 . S
C1917 H1925 0.960 . S
C1918 C1916 1.381 . S
C1918 C1919 1.394 . S
C1918 H1926 0.930 . S
C1919 C1918 1.394 . S
C1919 C1920 1.383 . S
C1919 H1927 0.929 . S
C1920 C1919 1.383 . S
C1920 C1921 1.377 . S
C1921 H1905 0.930 . S
C1921 C1920 1.377 . S
C1921 C1922 1.379 . S
C1922 H1906 0.931 . S
C1922 C1916 1.383 . S
C1922 C1921 1.379 . S
H1923 C1917 0.959 . S
H1924 C1917 0.961 . S
H1925 C1917 0.960 . S
H1926 C1918 0.930 . S
H1927 C1919 0.929 . S
H1928 C1936 0.929 . S
H1929 C1938 0.930 . S
H1930 C1940 0.930 . S
H1931 C1943 0.929 . S
H1932 C1946 0.930 . S
H1933 C1948 0.960 . S
H1934 C1948 0.960 . S
H1935 C1948 0.960 . S
C1936 H1928 0.929 . S
C1936 C1937 1.377 . S
C1936 C1938 1.384 . S
C1937 C1936 1.377 . S
C1937 C1943 1.390 . S
C1938 H1929 0.930 . S
C1938 C1936 1.384 . S
C1938 C1939 1.372 . S
C1939 C1938 1.372 . S
C1939 C1940 1.400 . S
C1939 C1944 1.490 . S
C1940 H1930 0.930 . S
C1940 C1939 1.400 . S
C1940 C1943 1.386 . S
H1941 C1957 0.930 . S
H1942 C1958 0.931 . S
C1943 H1931 0.929 . S
C1943 C1937 1.390 . S
C1943 C1940 1.386 . S
C1944 C1939 1.490 . S
C1944 C1946 1.395 . S
C1944 C1947 1.403 . S
H1945 C1951 0.930 . S
C1946 H1932 0.930 . S
C1946 C1944 1.395 . S
C1946 C1949 1.403 . S
C1947 C1944 1.403 . S
C1947 C1948 1.524 . S
C1947 C1951 1.400 . S
C1948 H1933 0.960 . S
C1948 H1934 0.960 . S
C1948 H1935 0.960 . S
C1948 C1947 1.524 . S
C1949 C1946 1.403 . S
C1949 C1950 1.392 . S
C1949 C1953 1.495 . S
C1950 C1949 1.392 . S
C1950 C1951 1.385 . S
C1950 C1952 1.478 . S
C1951 H1945 0.930 . S
C1951 C1947 1.400 . S
C1951 C1950 1.385 . S
C1952 C1950 1.478 . S
C1952 C1954 1.381 . S
C1952 C1958 1.383 . S
C1953 C1949 1.495 . S
C1953 H1959 0.959 . S
C1953 H1960 0.961 . S
C1953 H1961 0.960 . S
C1954 C1952 1.381 . S
C1954 C1955 1.394 . S
C1954 H1962 0.930 . S
C1955 C1954 1.394 . S
C1955 C1956 1.383 . S
C1955 H1963 0.929 . S
C1956 C1955 1.383 . S
C1956 C1957 1.377 . S
C1957 H1941 0.930 . S
C1957 C1956 1.377 . S
C1957 C1958 1.379 . S
C1958 H1942 0.931 . S
C1958 C1952 1.383 . S
C1958 C1957 1.379 . S
H1959 C1953 0.959 . S
H1960 C1953 0.961 . S
H1961 C1953 0.960 . S
H1962 C1954 0.930 . S
H1963 C1955 0.929 . S
H1964 C1972 0.929 . S
H1965 C1974 0.930 . S
H1966 C1976 0.930 . S
H1967 C1979 0.929 . S
H1968 C1982 0.930 . S
H1969 C1984 0.960 . S
H1970 C1984 0.960 . S
H1971 C1984 0.960 . S
C1972 H1964 0.929 . S
C1972 C1973 1.377 . S
C1972 C1974 1.384 . S
C1973 C1972 1.377 . S
C1973 C1979 1.390 . S
C1974 H1965 0.930 . S
C1974 C1972 1.384 . S
C1974 C1975 1.372 . S
C1975 C1974 1.372 . S
C1975 C1976 1.400 . S
C1975 C1980 1.490 . S
C1976 H1966 0.930 . S
C1976 C1975 1.400 . S
C1976 C1979 1.386 . S
H1977 C1993 0.930 . S
H1978 C1994 0.931 . S
C1979 H1967 0.929 . S
C1979 C1973 1.390 . S
C1979 C1976 1.386 . S
C1980 C1975 1.490 . S
C1980 C1982 1.395 . S
C1980 C1983 1.403 . S
H1981 C1987 0.930 . S
C1982 H1968 0.930 . S
C1982 C1980 1.395 . S
C1982 C1985 1.403 . S
C1983 C1980 1.403 . S
C1983 C1984 1.524 . S
C1983 C1987 1.400 . S
C1984 H1969 0.960 . S
C1984 H1970 0.960 . S
C1984 H1971 0.960 . S
C1984 C1983 1.524 . S
C1985 C1982 1.403 . S
C1985 C1986 1.392 . S
C1985 C1989 1.495 . S
C1986 C1985 1.392 . S
C1986 C1987 1.385 . S
C1986 C1988 1.478 . S
C1987 H1981 0.930 . S
C1987 C1983 1.400 . S
C1987 C1986 1.385 . S
C1988 C1986 1.478 . S
C1988 C1990 1.381 . S
C1988 C1994 1.383 . S
C1989 C1985 1.495 . S
C1989 H1995 0.959 . S
C1989 H1996 0.961 . S
C1989 H1997 0.960 . S
C1990 C1988 1.381 . S
C1990 C1991 1.394 . S
C1990 H1998 0.930 . S
C1991 C1990 1.394 . S
C1991 C1992 1.383 1_554 S
C1991 H1999 0.929 . S
C1992 C1991 1.383 1_556 S
C1992 C1993 1.377 . S
C1993 H1977 0.930 . S
C1993 C1992 1.377 . S
C1993 C1994 1.379 1_556 S
C1994 H1978 0.931 . S
C1994 C1988 1.383 . S
C1994 C1993 1.379 1_554 S
H1995 C1989 0.959 . S
H1996 C1989 0.961 . S
H1997 C1989 0.960 . S
H1998 C1990 0.930 . S
H1999 C1991 0.929 . S
H2000 C2008 0.929 . S
H2001 C2010 0.930 . S
H2002 C2012 0.930 . S
H2003 C2015 0.929 . S
H2004 C2018 0.930 . S
H2005 C2020 0.960 . S
H2006 C2020 0.960 . S
H2007 C2020 0.960 . S
C2008 H2000 0.929 . S
C2008 C2009 1.377 . S
C2008 C2010 1.384 . S
C2009 C2008 1.377 . S
C2009 C2015 1.390 . S
C2010 H2001 0.930 . S
C2010 C2008 1.384 . S
C2010 C2011 1.372 . S
C2011 C2010 1.372 . S
C2011 C2012 1.400 . S
C2011 C2016 1.490 . S
C2012 H2002 0.930 . S
C2012 C2011 1.400 . S
C2012 C2015 1.386 . S
H2013 C2029 0.930 . S
H2014 C2030 0.931 . S
C2015 H2003 0.929 . S
C2015 C2009 1.390 . S
C2015 C2012 1.386 . S
C2016 C2011 1.490 . S
C2016 C2018 1.395 . S
C2016 C2019 1.403 . S
H2017 C2023 0.930 . S
C2018 H2004 0.930 . S
C2018 C2016 1.395 . S
C2018 C2021 1.403 . S
C2019 C2016 1.403 . S
C2019 C2020 1.524 . S
C2019 C2023 1.400 . S
C2020 H2005 0.960 . S
C2020 H2006 0.960 . S
C2020 H2007 0.960 . S
C2020 C2019 1.524 . S
C2021 C2018 1.403 . S
C2021 C2022 1.392 . S
C2021 C2025 1.495 . S
C2022 C2021 1.392 . S
C2022 C2023 1.385 . S
C2022 C2024 1.478 . S
C2023 H2017 0.930 . S
C2023 C2019 1.400 . S
C2023 C2022 1.385 . S
C2024 C2022 1.478 . S
C2024 C2026 1.381 . S
C2024 C2030 1.383 . S
C2025 C2021 1.495 . S
C2025 H2031 0.959 . S
C2025 H2032 0.961 . S
C2025 H2033 0.960 . S
C2026 C2024 1.381 . S
C2026 C2027 1.394 . S
C2026 H2034 0.930 . S
C2027 C2026 1.394 . S
C2027 C2028 1.383 . S
C2027 H2035 0.929 . S
C2028 C2027 1.383 . S
C2028 C2029 1.377 . S
C2029 H2013 0.930 . S
C2029 C2028 1.377 . S
C2029 C2030 1.379 . S
C2030 H2014 0.931 . S
C2030 C2024 1.383 . S
C2030 C2029 1.379 . S
H2031 C2025 0.959 . S
H2032 C2025 0.961 . S
H2033 C2025 0.960 . S
H2034 C2026 0.930 . S
H2035 C2027 0.929 . S
H2036 C2044 0.929 . S
H2037 C2046 0.930 . S
H2038 C2048 0.930 . S
H2039 C2051 0.929 . S
H2040 C2054 0.930 . S
H2041 C2056 0.960 . S
H2042 C2056 0.960 . S
H2043 C2056 0.960 . S
C2044 H2036 0.929 . S
C2044 C2045 1.377 . S
C2044 C2046 1.384 . S
C2045 C2044 1.377 . S
C2045 C2051 1.390 . S
C2046 H2037 0.930 . S
C2046 C2044 1.384 . S
C2046 C2047 1.372 . S
C2047 C2046 1.372 . S
C2047 C2048 1.400 . S
C2047 C2052 1.490 . S
C2048 H2038 0.930 . S
C2048 C2047 1.400 . S
C2048 C2051 1.386 . S
H2049 C2065 0.930 . S
H2050 C2066 0.931 . S
C2051 H2039 0.929 . S
C2051 C2045 1.390 . S
C2051 C2048 1.386 . S
C2052 C2047 1.490 . S
C2052 C2054 1.395 . S
C2052 C2055 1.403 . S
H2053 C2059 0.930 . S
C2054 H2040 0.930 . S
C2054 C2052 1.395 . S
C2054 C2057 1.403 . S
C2055 C2052 1.403 . S
C2055 C2056 1.524 . S
C2055 C2059 1.400 . S
C2056 H2041 0.960 . S
C2056 H2042 0.960 . S
C2056 H2043 0.960 . S
C2056 C2055 1.524 . S
C2057 C2054 1.403 . S
C2057 C2058 1.392 . S
C2057 C2061 1.495 . S
C2058 C2057 1.392 . S
C2058 C2059 1.385 . S
C2058 C2060 1.478 . S
C2059 H2053 0.930 . S
C2059 C2055 1.400 . S
C2059 C2058 1.385 . S
C2060 C2058 1.478 . S
C2060 C2062 1.381 . S
C2060 C2066 1.383 . S
C2061 C2057 1.495 . S
C2061 H2067 0.959 . S
C2061 H2068 0.961 . S
C2061 H2069 0.960 . S
C2062 C2060 1.381 . S
C2062 C2063 1.394 . S
C2062 H2070 0.930 . S
C2063 C2062 1.394 . S
C2063 C2064 1.383 . S
C2063 H2071 0.929 . S
C2064 C2063 1.383 . S
C2064 C2065 1.377 . S
C2065 H2049 0.930 . S
C2065 C2064 1.377 . S
C2065 C2066 1.379 . S
C2066 H2050 0.931 . S
C2066 C2060 1.383 . S
C2066 C2065 1.379 . S
H2067 C2061 0.959 . S
H2068 C2061 0.961 . S
H2069 C2061 0.960 . S
H2070 C2062 0.930 . S
H2071 C2063 0.929 . S
H2072 C2080 0.929 . S
H2073 C2082 0.930 . S
H2074 C2084 0.930 . S
H2075 C2087 0.929 . S
H2076 C2090 0.930 . S
H2077 C2092 0.960 . S
H2078 C2092 0.960 . S
H2079 C2092 0.960 1_554 S
C2080 H2072 0.929 . S
C2080 C2081 1.377 . S
C2080 C2082 1.384 . S
C2081 C2080 1.377 . S
C2081 C2087 1.390 . S
C2082 H2073 0.930 . S
C2082 C2080 1.384 . S
C2082 C2083 1.372 . S
C2083 C2082 1.372 . S
C2083 C2084 1.400 . S
C2083 C2088 1.490 . S
C2084 H2074 0.930 . S
C2084 C2083 1.400 . S
C2084 C2087 1.386 . S
H2085 C2101 0.930 . S
H2086 C2102 0.931 . S
C2087 H2075 0.929 . S
C2087 C2081 1.390 . S
C2087 C2084 1.386 . S
C2088 C2083 1.490 . S
C2088 C2090 1.395 . S
C2088 C2091 1.403 1_554 S
H2089 C2095 0.930 . S
C2090 H2076 0.930 . S
C2090 C2088 1.395 . S
C2090 C2093 1.403 1_554 S
C2091 C2088 1.403 1_556 S
C2091 C2092 1.524 . S
C2091 C2095 1.400 . S
C2092 H2077 0.960 . S
C2092 H2078 0.960 . S
C2092 H2079 0.960 1_556 S
C2092 C2091 1.524 . S
C2093 C2090 1.403 1_556 S
C2093 C2094 1.392 . S
C2093 C2097 1.495 . S
C2094 C2093 1.392 . S
C2094 C2095 1.385 . S
C2094 C2096 1.478 . S
C2095 H2089 0.930 . S
C2095 C2091 1.400 . S
C2095 C2094 1.385 . S
C2096 C2094 1.478 . S
C2096 C2098 1.381 . S
C2096 C2102 1.383 . S
C2097 C2093 1.495 . S
C2097 H2103 0.959 1_556 S
C2097 H2104 0.962 . S
C2097 H2105 0.960 . S
C2098 C2096 1.381 . S
C2098 C2099 1.394 . S
C2098 H2106 0.930 . S
C2099 C2098 1.394 . S
C2099 C2100 1.383 . S
C2099 H2107 0.929 . S
C2100 C2099 1.383 . S
C2100 C2101 1.377 . S
C2101 H2085 0.930 . S
C2101 C2100 1.377 . S
C2101 C2102 1.379 . S
C2102 H2086 0.931 . S
C2102 C2096 1.383 . S
C2102 C2101 1.379 . S
H2103 C2097 0.959 1_554 S
H2104 C2097 0.962 . S
H2105 C2097 0.960 . S
H2106 C2098 0.930 . S
H2107 C2099 0.929 . S
H2108 C2116 0.929 . S
H2109 C2118 0.930 . S
H2110 C2120 0.930 . S
H2111 C2123 0.929 . S
H2112 C2126 0.930 . S
H2113 C2128 0.960 . S
H2114 C2128 0.960 . S
H2115 C2128 0.960 . S
C2116 H2108 0.929 . S
C2116 C2117 1.377 . S
C2116 C2118 1.384 . S
C2117 C2116 1.377 . S
C2117 C2123 1.390 . S
C2118 H2109 0.930 . S
C2118 C2116 1.384 . S
C2118 C2119 1.372 . S
C2119 C2118 1.372 . S
C2119 C2120 1.400 . S
C2119 C2124 1.490 . S
C2120 H2110 0.930 . S
C2120 C2119 1.400 . S
C2120 C2123 1.386 . S
H2121 C2137 0.930 . S
H2122 C2138 0.931 . S
C2123 H2111 0.929 . S
C2123 C2117 1.390 . S
C2123 C2120 1.386 . S
C2124 C2119 1.490 . S
C2124 C2126 1.395 . S
C2124 C2127 1.403 . S
H2125 C2131 0.930 . S
C2126 H2112 0.930 . S
C2126 C2124 1.395 . S
C2126 C2129 1.403 1_455 S
C2127 C2124 1.403 . S
C2127 C2128 1.524 . S
C2127 C2131 1.400 1_455 S
C2128 H2113 0.960 . S
C2128 H2114 0.960 . S
C2128 H2115 0.960 . S
C2128 C2127 1.524 . S
C2129 C2126 1.403 1_655 S
C2129 C2130 1.392 . S
C2129 C2133 1.495 . S
C2130 C2129 1.392 . S
C2130 C2131 1.385 . S
C2130 C2132 1.478 . S
C2131 H2125 0.930 . S
C2131 C2127 1.400 1_655 S
C2131 C2130 1.385 . S
C2132 C2130 1.478 . S
C2132 C2134 1.381 . S
C2132 C2138 1.383 . S
C2133 C2129 1.495 . S
C2133 H2139 0.959 . S
C2133 H2140 0.961 . S
C2133 H2141 0.960 . S
C2134 C2132 1.381 . S
C2134 C2135 1.394 1_556 S
C2134 H2142 0.930 . S
C2135 C2134 1.394 1_554 S
C2135 C2136 1.383 . S
C2135 H2143 0.929 . S
C2136 C2135 1.383 . S
C2136 C2137 1.377 1_554 S
C2137 H2121 0.930 . S
C2137 C2136 1.377 1_556 S
C2137 C2138 1.379 . S
C2138 H2122 0.931 . S
C2138 C2132 1.383 . S
C2138 C2137 1.379 . S
H2139 C2133 0.959 . S
H2140 C2133 0.961 . S
H2141 C2133 0.960 . S
H2142 C2134 0.930 . S
H2143 C2135 0.929 . S
H2144 C2152 0.929 . S
H2145 C2154 0.930 . S
H2146 C2156 0.930 . S
H2147 C2159 0.929 . S
H2148 C2162 0.930 . S
H2149 C2164 0.960 . S
H2150 C2164 0.960 . S
H2151 C2164 0.960 . S
C2152 H2144 0.929 . S
C2152 C2153 1.377 . S
C2152 C2154 1.384 . S
C2153 C2152 1.377 . S
C2153 C2159 1.390 . S
C2154 H2145 0.930 . S
C2154 C2152 1.384 . S
C2154 C2155 1.372 . S
C2155 C2154 1.372 . S
C2155 C2156 1.400 . S
C2155 C2160 1.490 . S
C2156 H2146 0.930 . S
C2156 C2155 1.400 . S
C2156 C2159 1.386 . S
H2157 C2173 0.930 . S
H2158 C2174 0.931 . S
C2159 H2147 0.929 . S
C2159 C2153 1.390 . S
C2159 C2156 1.386 . S
C2160 C2155 1.490 . S
C2160 C2162 1.395 . S
C2160 C2163 1.403 . S
H2161 C2167 0.930 . S
C2162 H2148 0.930 . S
C2162 C2160 1.395 . S
C2162 C2165 1.403 . S
C2163 C2160 1.403 . S
C2163 C2164 1.524 . S
C2163 C2167 1.400 . S
C2164 H2149 0.960 . S
C2164 H2150 0.960 . S
C2164 H2151 0.960 . S
C2164 C2163 1.524 . S
C2165 C2162 1.403 . S
C2165 C2166 1.392 . S
C2165 C2169 1.495 . S
C2166 C2165 1.392 . S
C2166 C2167 1.385 . S
C2166 C2168 1.478 . S
C2167 H2161 0.930 . S
C2167 C2163 1.400 . S
C2167 C2166 1.385 . S
C2168 C2166 1.478 . S
C2168 C2170 1.381 . S
C2168 C2174 1.383 . S
C2169 C2165 1.495 . S
C2169 H2175 0.959 . S
C2169 H2176 0.961 . S
C2169 H2177 0.960 . S
C2170 C2168 1.381 . S
C2170 C2171 1.394 . S
C2170 H2178 0.930 . S
C2171 C2170 1.394 . S
C2171 C2172 1.383 . S
C2171 H2179 0.929 . S
C2172 C2171 1.383 . S
C2172 C2173 1.377 . S
C2173 H2157 0.930 . S
C2173 C2172 1.377 . S
C2173 C2174 1.379 . S
C2174 H2158 0.931 . S
C2174 C2168 1.383 . S
C2174 C2173 1.379 . S
H2175 C2169 0.959 . S
H2176 C2169 0.961 . S
H2177 C2169 0.960 . S
H2178 C2170 0.930 . S
H2179 C2171 0.929 . S
H2180 C2188 0.929 . S
H2181 C2190 0.930 . S
H2182 C2192 0.930 . S
H2183 C2195 0.929 . S
H2184 C2198 0.930 . S
H2185 C2200 0.960 . S
H2186 C2200 0.960 . S
H2187 C2200 0.960 . S
C2188 H2180 0.929 . S
C2188 C2189 1.377 . S
C2188 C2190 1.384 . S
C2189 C2188 1.377 . S
C2189 C2195 1.390 . S
C2190 H2181 0.930 . S
C2190 C2188 1.384 . S
C2190 C2191 1.372 . S
C2191 C2190 1.372 . S
C2191 C2192 1.400 . S
C2191 C2196 1.490 . S
C2192 H2182 0.930 . S
C2192 C2191 1.400 . S
C2192 C2195 1.386 . S
H2193 C2209 0.930 . S
H2194 C2210 0.931 . S
C2195 H2183 0.929 . S
C2195 C2189 1.390 . S
C2195 C2192 1.386 . S
C2196 C2191 1.490 . S
C2196 C2198 1.395 . S
C2196 C2199 1.403 . S
H2197 C2203 0.930 . S
C2198 H2184 0.930 . S
C2198 C2196 1.395 . S
C2198 C2201 1.403 . S
C2199 C2196 1.403 . S
C2199 C2200 1.524 . S
C2199 C2203 1.400 . S
C2200 H2185 0.960 . S
C2200 H2186 0.960 . S
C2200 H2187 0.960 . S
C2200 C2199 1.524 . S
C2201 C2198 1.403 . S
C2201 C2202 1.392 . S
C2201 C2205 1.495 . S
C2202 C2201 1.392 . S
C2202 C2203 1.385 . S
C2202 C2204 1.478 . S
C2203 H2197 0.930 . S
C2203 C2199 1.400 . S
C2203 C2202 1.385 . S
C2204 C2202 1.478 . S
C2204 C2206 1.381 . S
C2204 C2210 1.383 . S
C2205 C2201 1.495 . S
C2205 H2211 0.959 . S
C2205 H2212 0.961 . S
C2205 H2213 0.960 . S
C2206 C2204 1.381 . S
C2206 C2207 1.394 . S
C2206 H2214 0.930 . S
C2207 C2206 1.394 . S
C2207 C2208 1.383 1_556 S
C2207 H2215 0.931 . S
C2208 C2207 1.383 1_554 S
C2208 C2209 1.377 . S
C2209 H2193 0.930 . S
C2209 C2208 1.377 . S
C2209 C2210 1.379 1_554 S
C2210 H2194 0.931 . S
C2210 C2204 1.383 . S
C2210 C2209 1.379 1_556 S
H2211 C2205 0.959 . S
H2212 C2205 0.961 . S
H2213 C2205 0.960 . S
H2214 C2206 0.930 . S
H2215 C2207 0.931 . S
H2216 C2224 0.929 . S
H2217 C2226 0.930 . S
H2218 C2228 0.930 . S
H2219 C2231 0.929 . S
H2220 C2234 0.930 . S
H2221 C2236 0.960 . S
H2222 C2236 0.960 1_554 S
H2223 C2236 0.960 . S
C2224 H2216 0.929 . S
C2224 C2225 1.377 . S
C2224 C2226 1.384 . S
C2225 C2224 1.377 . S
C2225 C2231 1.390 . S
C2226 H2217 0.930 . S
C2226 C2224 1.384 . S
C2226 C2227 1.372 . S
C2227 C2226 1.372 . S
C2227 C2228 1.400 . S
C2227 C2232 1.490 . S
C2228 H2218 0.930 . S
C2228 C2227 1.400 . S
C2228 C2231 1.386 . S
H2229 C2245 0.930 . S
H2230 C2246 0.931 . S
C2231 H2219 0.929 . S
C2231 C2225 1.390 . S
C2231 C2228 1.386 . S
C2232 C2227 1.490 . S
C2232 C2234 1.395 . S
C2232 C2235 1.403 1_554 S
H2233 C2239 0.930 . S
C2234 H2220 0.930 . S
C2234 C2232 1.395 . S
C2234 C2237 1.403 1_554 S
C2235 C2232 1.403 1_556 S
C2235 C2236 1.524 . S
C2235 C2239 1.400 . S
C2236 H2221 0.960 . S
C2236 H2222 0.960 1_556 S
C2236 H2223 0.960 . S
C2236 C2235 1.524 . S
C2237 C2234 1.403 1_556 S
C2237 C2238 1.392 . S
C2237 C2241 1.495 1_556 S
C2238 C2237 1.392 . S
C2238 C2239 1.385 . S
C2238 C2240 1.478 . S
C2239 H2233 0.930 . S
C2239 C2235 1.400 . S
C2239 C2238 1.385 . S
C2240 C2238 1.478 . S
C2240 C2242 1.381 . S
C2240 C2246 1.383 . S
C2241 C2237 1.495 1_554 S
C2241 H2247 0.959 . S
C2241 H2248 0.961 1_554 S
C2241 H2249 0.960 . S
C2242 C2240 1.381 . S
C2242 C2243 1.394 . S
C2242 H2250 0.930 . S
C2243 C2242 1.394 . S
C2243 C2244 1.383 . S
C2243 H2251 0.929 . S
C2244 C2243 1.383 . S
C2244 C2245 1.377 . S
C2245 H2229 0.930 . S
C2245 C2244 1.377 . S
C2245 C2246 1.379 . S
C2246 H2230 0.931 . S
C2246 C2240 1.383 . S
C2246 C2245 1.379 . S
H2247 C2241 0.959 . S
H2248 C2241 0.961 1_556 S
H2249 C2241 0.960 . S
H2250 C2242 0.930 . S
H2251 C2243 0.929 . S
H2252 C2260 0.929 . S
H2253 C2262 0.930 . S
H2254 C2264 0.930 . S
H2255 C2267 0.929 . S
H2256 C2270 0.930 . S
H2257 C2272 0.960 . S
H2258 C2272 0.960 . S
H2259 C2272 0.960 . S
C2260 H2252 0.929 . S
C2260 C2261 1.377 . S
C2260 C2262 1.384 . S
C2261 C2260 1.377 . S
C2261 C2267 1.390 . S
C2262 H2253 0.930 . S
C2262 C2260 1.384 . S
C2262 C2263 1.372 . S
C2263 C2262 1.372 . S
C2263 C2264 1.400 . S
C2263 C2268 1.490 . S
C2264 H2254 0.930 . S
C2264 C2263 1.400 . S
C2264 C2267 1.386 . S
H2265 C2281 0.930 . S
H2266 C2282 0.931 . S
C2267 H2255 0.929 . S
C2267 C2261 1.390 . S
C2267 C2264 1.386 . S
C2268 C2263 1.490 . S
C2268 C2270 1.395 . S
C2268 C2271 1.403 1_655 S
H2269 C2275 0.930 . S
C2270 H2256 0.930 . S
C2270 C2268 1.395 . S
C2270 C2273 1.403 . S
C2271 C2268 1.403 1_455 S
C2271 C2272 1.524 . S
C2271 C2275 1.400 . S
C2272 H2257 0.960 . S
C2272 H2258 0.960 . S
C2272 H2259 0.960 . S
C2272 C2271 1.524 . S
C2273 C2270 1.403 . S
C2273 C2274 1.392 1_655 S
C2273 C2277 1.495 . S
C2274 C2273 1.392 1_455 S
C2274 C2275 1.385 . S
C2274 C2276 1.478 . S
C2275 H2269 0.930 . S
C2275 C2271 1.400 . S
C2275 C2274 1.385 . S
C2276 C2274 1.478 . S
C2276 C2278 1.381 . S
C2276 C2282 1.383 . S
C2277 C2273 1.495 . S
C2277 H2283 0.959 . S
C2277 H2284 0.961 . S
C2277 H2285 0.960 . S
C2278 C2276 1.381 . S
C2278 C2279 1.394 . S
C2278 H2286 0.930 . S
C2279 C2278 1.394 . S
C2279 C2280 1.383 . S
C2279 H2287 0.929 . S
C2280 C2279 1.383 . S
C2280 C2281 1.377 . S
C2281 H2265 0.930 . S
C2281 C2280 1.377 . S
C2281 C2282 1.379 . S
C2282 H2266 0.931 . S
C2282 C2276 1.383 . S
C2282 C2281 1.379 . S
H2283 C2277 0.959 . S
H2284 C2277 0.961 . S
H2285 C2277 0.960 . S
H2286 C2278 0.930 . S
H2287 C2279 0.929 . S
H2288 C2296 0.929 . S
H2289 C2298 0.930 . S
H2290 C2300 0.930 . S
H2291 C2303 0.929 . S
H2292 C2306 0.930 . S
H2293 C2308 0.960 . S
H2294 C2308 0.960 . S
H2295 C2308 0.960 . S
C2296 H2288 0.929 . S
C2296 C2297 1.377 . S
C2296 C2298 1.384 . S
C2297 C2296 1.377 . S
C2297 C2303 1.390 . S
C2298 H2289 0.930 . S
C2298 C2296 1.384 . S
C2298 C2299 1.372 . S
C2299 C2298 1.372 . S
C2299 C2300 1.400 . S
C2299 C2304 1.490 . S
C2300 H2290 0.930 . S
C2300 C2299 1.400 . S
C2300 C2303 1.386 . S
H2301 C2317 0.930 . S
H2302 C2318 0.931 . S
C2303 H2291 0.929 . S
C2303 C2297 1.390 . S
C2303 C2300 1.386 . S
C2304 C2299 1.490 . S
C2304 C2306 1.395 . S
C2304 C2307 1.403 1_556 S
H2305 C2311 0.930 . S
C2306 H2292 0.930 . S
C2306 C2304 1.395 . S
C2306 C2309 1.403 . S
C2307 C2304 1.403 1_554 S
C2307 C2308 1.524 . S
C2307 C2311 1.400 . S
C2308 H2293 0.960 . S
C2308 H2294 0.960 . S
C2308 H2295 0.960 . S
C2308 C2307 1.524 . S
C2309 C2306 1.403 . S
C2309 C2310 1.392 1_556 S
C2309 C2313 1.495 . S
C2310 C2309 1.392 1_554 S
C2310 C2311 1.385 . S
C2310 C2312 1.478 . S
C2311 H2305 0.930 . S
C2311 C2307 1.400 . S
C2311 C2310 1.385 . S
C2312 C2310 1.478 . S
C2312 C2314 1.381 . S
C2312 C2318 1.383 . S
C2313 C2309 1.495 . S
C2313 H2319 0.959 . S
C2313 H2320 0.961 . S
C2313 H2321 0.960 . S
C2314 C2312 1.381 . S
C2314 C2315 1.394 . S
C2314 H2322 0.930 . S
C2315 C2314 1.394 . S
C2315 C2316 1.383 . S
C2315 H2323 0.929 . S
C2316 C2315 1.383 . S
C2316 C2317 1.377 . S
C2317 H2301 0.930 . S
C2317 C2316 1.377 . S
C2317 C2318 1.379 . S
C2318 H2302 0.931 . S
C2318 C2312 1.383 . S
C2318 C2317 1.379 . S
H2319 C2313 0.959 . S
H2320 C2313 0.961 . S
H2321 C2313 0.960 . S
H2322 C2314 0.930 . S
H2323 C2315 0.929 . S
H2324 C2332 0.929 . S
H2325 C2334 0.930 . S
H2326 C2336 0.930 . S
H2327 C2339 0.929 . S
H2328 C2342 0.930 . S
H2329 C2344 0.960 . S
H2330 C2344 0.960 . S
H2331 C2344 0.960 . S
C2332 H2324 0.929 . S
C2332 C2333 1.377 1_554 S
C2332 C2334 1.384 . S
C2333 C2332 1.377 1_556 S
C2333 C2339 1.390 . S
C2334 H2325 0.930 . S
C2334 C2332 1.384 . S
C2334 C2335 1.372 . S
C2335 C2334 1.372 . S
C2335 C2336 1.400 . S
C2335 C2340 1.490 . S
C2336 H2326 0.930 . S
C2336 C2335 1.400 . S
C2336 C2339 1.386 1_554 S
H2337 C2353 0.930 . S
H2338 C2354 0.931 . S
C2339 H2327 0.929 . S
C2339 C2333 1.390 . S
C2339 C2336 1.386 1_556 S
C2340 C2335 1.490 . S
C2340 C2342 1.395 . S
C2340 C2343 1.403 1_655 S
H2341 C2347 0.930 . S
C2342 H2328 0.930 . S
C2342 C2340 1.395 . S
C2342 C2345 1.403 . S
C2343 C2340 1.403 1_455 S
C2343 C2344 1.524 . S
C2343 C2347 1.400 . S
C2344 H2329 0.960 . S
C2344 H2330 0.960 . S
C2344 H2331 0.960 . S
C2344 C2343 1.524 . S
C2345 C2342 1.403 . S
C2345 C2346 1.392 1_655 S
C2345 C2349 1.495 . S
C2346 C2345 1.392 1_455 S
C2346 C2347 1.385 . S
C2346 C2348 1.478 . S
C2347 H2341 0.930 . S
C2347 C2343 1.400 . S
C2347 C2346 1.385 . S
C2348 C2346 1.478 . S
C2348 C2350 1.381 . S
C2348 C2354 1.383 . S
C2349 C2345 1.495 . S
C2349 H2355 0.959 . S
C2349 H2356 0.961 . S
C2349 H2357 0.960 . S
C2350 C2348 1.381 . S
C2350 C2351 1.394 . S
C2350 H2358 0.930 . S
C2351 C2350 1.394 . S
C2351 C2352 1.383 . S
C2351 H2359 0.929 . S
C2352 C2351 1.383 . S
C2352 C2353 1.377 . S
C2353 H2337 0.930 . S
C2353 C2352 1.377 . S
C2353 C2354 1.379 . S
C2354 H2338 0.931 . S
C2354 C2348 1.383 . S
C2354 C2353 1.379 . S
H2355 C2349 0.959 . S
H2356 C2349 0.961 . S
H2357 C2349 0.960 . S
H2358 C2350 0.930 . S
H2359 C2351 0.929 . S
H2360 C2368 0.929 . S
H2361 C2370 0.930 . S
H2362 C2372 0.930 . S
H2363 C2375 0.929 . S
H2364 C2378 0.930 . S
H2365 C2380 0.960 . S
H2366 C2380 0.960 . S
H2367 C2380 0.960 . S
C2368 H2360 0.929 . S
C2368 C2369 1.377 . S
C2368 C2370 1.384 . S
C2369 C2368 1.377 . S
C2369 C2375 1.390 . S
C2370 H2361 0.930 . S
C2370 C2368 1.384 . S
C2370 C2371 1.372 . S
C2371 C2370 1.372 . S
C2371 C2372 1.400 . S
C2371 C2376 1.490 . S
C2372 H2362 0.930 . S
C2372 C2371 1.400 . S
C2372 C2375 1.386 . S
H2373 C2389 0.930 . S
H2374 C2390 0.931 . S
C2375 H2363 0.929 . S
C2375 C2369 1.390 . S
C2375 C2372 1.386 . S
C2376 C2371 1.490 . S
C2376 C2378 1.395 . S
C2376 C2379 1.403 . S
H2377 C2383 0.930 . S
C2378 H2364 0.930 . S
C2378 C2376 1.395 . S
C2378 C2381 1.403 . S
C2379 C2376 1.403 . S
C2379 C2380 1.524 . S
C2379 C2383 1.400 . S
C2380 H2365 0.960 . S
C2380 H2366 0.960 . S
C2380 H2367 0.960 . S
C2380 C2379 1.524 . S
C2381 C2378 1.403 . S
C2381 C2382 1.392 . S
C2381 C2385 1.495 . S
C2382 C2381 1.392 . S
C2382 C2383 1.385 . S
C2382 C2384 1.478 . S
C2383 H2377 0.930 . S
C2383 C2379 1.400 . S
C2383 C2382 1.385 . S
C2384 C2382 1.478 . S
C2384 C2386 1.381 . S
C2384 C2390 1.383 . S
C2385 C2381 1.495 . S
C2385 H2391 0.959 . S
C2385 H2392 0.961 . S
C2385 H2393 0.960 . S
C2386 C2384 1.381 . S
C2386 C2387 1.394 . S
C2386 H2394 0.930 . S
C2387 C2386 1.394 . S
C2387 C2388 1.383 . S
C2387 H2395 0.929 . S
C2388 C2387 1.383 . S
C2388 C2389 1.377 . S
C2389 H2373 0.930 . S
C2389 C2388 1.377 . S
C2389 C2390 1.379 . S
C2390 H2374 0.931 . S
C2390 C2384 1.383 . S
C2390 C2389 1.379 . S
H2391 C2385 0.959 . S
H2392 C2385 0.961 . S
H2393 C2385 0.960 . S
H2394 C2386 0.930 . S
H2395 C2387 0.929 . S
H2396 C2404 0.929 . S
H2397 C2406 0.930 . S
H2398 C2408 0.930 . S
H2399 C2411 0.929 . S
H2400 C2414 0.930 . S
H2401 C2416 0.960 . S
H2402 C2416 0.960 . S
H2403 C2416 0.960 . S
C2404 H2396 0.929 . S
C2404 C2405 1.377 . S
C2404 C2406 1.384 . S
C2405 C2404 1.377 . S
C2405 C2411 1.390 . S
C2406 H2397 0.930 . S
C2406 C2404 1.384 . S
C2406 C2407 1.372 . S
C2407 C2406 1.372 . S
C2407 C2408 1.400 . S
C2407 C2412 1.490 . S
C2408 H2398 0.930 . S
C2408 C2407 1.400 . S
C2408 C2411 1.386 . S
H2409 C2425 0.930 . S
H2410 C2426 0.931 . S
C2411 H2399 0.929 . S
C2411 C2405 1.390 . S
C2411 C2408 1.386 . S
C2412 C2407 1.490 . S
C2412 C2414 1.395 . S
C2412 C2415 1.403 . S
H2413 C2419 0.930 . S
C2414 H2400 0.930 . S
C2414 C2412 1.395 . S
C2414 C2417 1.403 . S
C2415 C2412 1.403 . S
C2415 C2416 1.524 . S
C2415 C2419 1.400 . S
C2416 H2401 0.960 . S
C2416 H2402 0.960 . S
C2416 H2403 0.960 . S
C2416 C2415 1.524 . S
C2417 C2414 1.403 . S
C2417 C2418 1.392 . S
C2417 C2421 1.495 . S
C2418 C2417 1.392 . S
C2418 C2419 1.385 . S
C2418 C2420 1.478 . S
C2419 H2413 0.930 . S
C2419 C2415 1.400 . S
C2419 C2418 1.385 . S
C2420 C2418 1.478 . S
C2420 C2422 1.381 . S
C2420 C2426 1.383 . S
C2421 C2417 1.495 . S
C2421 H2427 0.959 . S
C2421 H2428 0.961 . S
C2421 H2429 0.960 . S
C2422 C2420 1.381 . S
C2422 C2423 1.394 . S
C2422 H2430 0.930 . S
C2423 C2422 1.394 . S
C2423 C2424 1.383 . S
C2423 H2431 0.929 . S
C2424 C2423 1.383 . S
C2424 C2425 1.377 . S
C2425 H2409 0.930 . S
C2425 C2424 1.377 . S
C2425 C2426 1.379 . S
C2426 H2410 0.931 . S
C2426 C2420 1.383 . S
C2426 C2425 1.379 . S
H2427 C2421 0.959 . S
H2428 C2421 0.961 . S
H2429 C2421 0.960 . S
H2430 C2422 0.930 . S
H2431 C2423 0.929 . S
H2432 C2440 0.929 . S
H2433 C2442 0.930 . S
H2434 C2444 0.930 . S
H2435 C2447 0.929 . S
H2436 C2450 0.930 . S
H2437 C2452 0.960 . S
H2438 C2452 0.960 . S
H2439 C2452 0.960 . S
C2440 H2432 0.929 . S
C2440 C2441 1.377 . S
C2440 C2442 1.384 . S
C2441 C2440 1.377 . S
C2441 C2447 1.390 . S
C2442 H2433 0.930 . S
C2442 C2440 1.384 . S
C2442 C2443 1.372 . S
C2443 C2442 1.372 . S
C2443 C2444 1.400 . S
C2443 C2448 1.490 . S
C2444 H2434 0.930 . S
C2444 C2443 1.400 . S
C2444 C2447 1.386 . S
H2445 C2461 0.930 . S
H2446 C2462 0.931 . S
C2447 H2435 0.929 . S
C2447 C2441 1.390 . S
C2447 C2444 1.386 . S
C2448 C2443 1.490 . S
C2448 C2450 1.395 . S
C2448 C2451 1.403 . S
H2449 C2455 0.930 . S
C2450 H2436 0.930 . S
C2450 C2448 1.395 . S
C2450 C2453 1.403 . S
C2451 C2448 1.403 . S
C2451 C2452 1.524 . S
C2451 C2455 1.400 . S
C2452 H2437 0.960 . S
C2452 H2438 0.960 . S
C2452 H2439 0.960 . S
C2452 C2451 1.524 . S
C2453 C2450 1.403 . S
C2453 C2454 1.392 . S
C2453 C2457 1.495 . S
C2454 C2453 1.392 . S
C2454 C2455 1.385 . S
C2454 C2456 1.478 . S
C2455 H2449 0.930 . S
C2455 C2451 1.400 . S
C2455 C2454 1.385 . S
C2456 C2454 1.478 . S
C2456 C2458 1.381 . S
C2456 C2462 1.383 . S
C2457 C2453 1.495 . S
C2457 H2463 0.959 . S
C2457 H2464 0.961 . S
C2457 H2465 0.960 . S
C2458 C2456 1.381 . S
C2458 C2459 1.394 . S
C2458 H2466 0.930 . S
C2459 C2458 1.394 . S
C2459 C2460 1.383 . S
C2459 H2467 0.929 . S
C2460 C2459 1.383 . S
C2460 C2461 1.377 . S
C2461 H2445 0.930 . S
C2461 C2460 1.377 . S
C2461 C2462 1.379 . S
C2462 H2446 0.931 . S
C2462 C2456 1.383 . S
C2462 C2461 1.379 . S
H2463 C2457 0.959 . S
H2464 C2457 0.961 . S
H2465 C2457 0.960 . S
H2466 C2458 0.930 . S
H2467 C2459 0.929 . S
H2468 C2476 0.929 . S
H2469 C2478 0.930 . S
H2470 C2480 0.930 . S
H2471 C2483 0.929 . S
H2472 C2486 0.930 . S
H2473 C2488 0.960 . S
H2474 C2488 0.960 . S
H2475 C2488 0.960 . S
C2476 H2468 0.929 . S
C2476 C2477 1.377 . S
C2476 C2478 1.384 . S
C2477 C2476 1.377 . S
C2477 C2483 1.390 . S
C2478 H2469 0.930 . S
C2478 C2476 1.384 . S
C2478 C2479 1.372 . S
C2479 C2478 1.372 . S
C2479 C2480 1.400 . S
C2479 C2484 1.490 . S
C2480 H2470 0.930 . S
C2480 C2479 1.400 . S
C2480 C2483 1.386 . S
H2481 C2497 0.930 . S
H2482 C2498 0.931 . S
C2483 H2471 0.929 . S
C2483 C2477 1.390 . S
C2483 C2480 1.386 . S
C2484 C2479 1.490 . S
C2484 C2486 1.395 . S
C2484 C2487 1.403 . S
H2485 C2491 0.930 . S
C2486 H2472 0.930 . S
C2486 C2484 1.395 . S
C2486 C2489 1.403 . S
C2487 C2484 1.403 . S
C2487 C2488 1.524 . S
C2487 C2491 1.400 . S
C2488 H2473 0.960 . S
C2488 H2474 0.960 . S
C2488 H2475 0.960 . S
C2488 C2487 1.524 . S
C2489 C2486 1.403 . S
C2489 C2490 1.392 . S
C2489 C2493 1.495 . S
C2490 C2489 1.392 . S
C2490 C2491 1.385 . S
C2490 C2492 1.478 . S
C2491 H2485 0.930 . S
C2491 C2487 1.400 . S
C2491 C2490 1.385 . S
C2492 C2490 1.478 . S
C2492 C2494 1.381 . S
C2492 C2498 1.383 . S
C2493 C2489 1.495 . S
C2493 H2499 0.959 . S
C2493 H2500 0.961 . S
C2493 H2501 0.960 . S
C2494 C2492 1.381 . S
C2494 C2495 1.394 . S
C2494 H2502 0.930 . S
C2495 C2494 1.394 . S
C2495 C2496 1.383 1_554 S
C2495 H2503 0.929 1_554 S
C2496 C2495 1.383 1_556 S
C2496 C2497 1.377 1_556 S
C2497 H2481 0.930 . S
C2497 C2496 1.377 1_554 S
C2497 C2498 1.379 . S
C2498 H2482 0.931 . S
C2498 C2492 1.383 . S
C2498 C2497 1.379 . S
H2499 C2493 0.959 . S
H2500 C2493 0.961 . S
H2501 C2493 0.960 . S
H2502 C2494 0.930 . S
H2503 C2495 0.929 1_556 S
H2504 C2512 0.929 . S
H2505 C2514 0.930 . S
H2506 C2516 0.930 . S
H2507 C2519 0.929 . S
H2508 C2522 0.930 . S
H2509 C2524 0.960 . S
H2510 C2524 0.960 . S
H2511 C2524 0.960 . S
C2512 H2504 0.929 . S
C2512 C2513 1.377 . S
C2512 C2514 1.384 . S
C2513 C2512 1.377 . S
C2513 C2519 1.390 . S
C2514 H2505 0.930 . S
C2514 C2512 1.384 . S
C2514 C2515 1.372 . S
C2515 C2514 1.372 . S
C2515 C2516 1.400 . S
C2515 C2520 1.490 . S
C2516 H2506 0.930 . S
C2516 C2515 1.400 . S
C2516 C2519 1.386 . S
H2517 C2533 0.930 . S
H2518 C2534 0.931 . S
C2519 H2507 0.929 . S
C2519 C2513 1.390 . S
C2519 C2516 1.386 . S
C2520 C2515 1.490 . S
C2520 C2522 1.395 . S
C2520 C2523 1.403 . S
H2521 C2527 0.930 . S
C2522 H2508 0.930 . S
C2522 C2520 1.395 . S
C2522 C2525 1.403 1_554 S
C2523 C2520 1.403 . S
C2523 C2524 1.524 . S
C2523 C2527 1.400 . S
C2524 H2509 0.960 . S
C2524 H2510 0.960 . S
C2524 H2511 0.960 . S
C2524 C2523 1.524 . S
C2525 C2522 1.403 1_556 S
C2525 C2526 1.392 . S
C2525 C2529 1.495 . S
C2526 C2525 1.392 . S
C2526 C2527 1.385 1_556 S
C2526 C2528 1.478 . S
C2527 H2521 0.930 . S
C2527 C2523 1.400 . S
C2527 C2526 1.385 1_554 S
C2528 C2526 1.478 . S
C2528 C2530 1.381 . S
C2528 C2534 1.383 . S
C2529 C2525 1.495 . S
C2529 H2535 0.959 . S
C2529 H2536 0.961 . S
C2529 H2537 0.960 . S
C2530 C2528 1.381 . S
C2530 C2531 1.394 . S
C2530 H2538 0.930 . S
C2531 C2530 1.394 . S
C2531 C2532 1.383 . S
C2531 H2539 0.929 . S
C2532 C2531 1.383 . S
C2532 C2533 1.377 . S
C2533 H2517 0.930 . S
C2533 C2532 1.377 . S
C2533 C2534 1.379 . S
C2534 H2518 0.931 . S
C2534 C2528 1.383 . S
C2534 C2533 1.379 . S
H2535 C2529 0.959 . S
H2536 C2529 0.961 . S
H2537 C2529 0.960 . S
H2538 C2530 0.930 . S
H2539 C2531 0.929 . S
H2540 C2548 0.929 . S
H2541 C2550 0.930 . S
H2542 C2552 0.930 . S
H2543 C2555 0.929 . S
H2544 C2558 0.930 . S
H2545 C2560 0.960 . S
H2546 C2560 0.960 . S
H2547 C2560 0.960 . S
C2548 H2540 0.929 . S
C2548 C2549 1.377 . S
C2548 C2550 1.384 . S
C2549 C2548 1.377 . S
C2549 C2555 1.390 . S
C2550 H2541 0.930 . S
C2550 C2548 1.384 . S
C2550 C2551 1.372 . S
C2551 C2550 1.372 . S
C2551 C2552 1.400 . S
C2551 C2556 1.490 . S
C2552 H2542 0.930 . S
C2552 C2551 1.400 . S
C2552 C2555 1.386 . S
H2553 C2569 0.930 . S
H2554 C2570 0.931 . S
C2555 H2543 0.929 . S
C2555 C2549 1.390 . S
C2555 C2552 1.386 . S
C2556 C2551 1.490 . S
C2556 C2558 1.395 . S
C2556 C2559 1.403 1_455 S
H2557 C2563 0.930 . S
C2558 H2544 0.930 . S
C2558 C2556 1.395 . S
C2558 C2561 1.403 . S
C2559 C2556 1.403 1_655 S
C2559 C2560 1.524 . S
C2559 C2563 1.400 . S
C2560 H2545 0.960 . S
C2560 H2546 0.960 . S
C2560 H2547 0.960 . S
C2560 C2559 1.524 . S
C2561 C2558 1.403 . S
C2561 C2562 1.392 1_455 S
C2561 C2565 1.495 . S
C2562 C2561 1.392 1_655 S
C2562 C2563 1.385 . S
C2562 C2564 1.478 . S
C2563 H2557 0.930 . S
C2563 C2559 1.400 . S
C2563 C2562 1.385 . S
C2564 C2562 1.478 . S
C2564 C2566 1.381 . S
C2564 C2570 1.383 . S
C2565 C2561 1.495 . S
C2565 H2571 0.959 . S
C2565 H2572 0.961 . S
C2565 H2573 0.960 . S
C2566 C2564 1.381 . S
C2566 C2567 1.394 . S
C2566 H2574 0.930 . S
C2567 C2566 1.394 . S
C2567 C2568 1.383 . S
C2567 H2575 0.929 . S
C2568 C2567 1.383 . S
C2568 C2569 1.377 . S
C2569 H2553 0.930 . S
C2569 C2568 1.377 . S
C2569 C2570 1.379 . S
C2570 H2554 0.931 . S
C2570 C2564 1.383 . S
C2570 C2569 1.379 . S
H2571 C2565 0.959 . S
H2572 C2565 0.961 . S
H2573 C2565 0.960 . S
H2574 C2566 0.930 . S
H2575 C2567 0.929 . S
H2576 C2584 0.929 . S
H2577 C2586 0.930 . S
H2578 C2588 0.930 . S
H2579 C2591 0.929 . S
H2580 C2594 0.930 . S
H2581 C2596 0.960 . S
H2582 C2596 0.960 . S
H2583 C2596 0.960 . S
C2584 H2576 0.929 . S
C2584 C2585 1.377 . S
C2584 C2586 1.384 . S
C2585 C2584 1.377 . S
C2585 C2591 1.390 . S
C2586 H2577 0.930 . S
C2586 C2584 1.384 . S
C2586 C2587 1.372 . S
C2587 C2586 1.372 . S
C2587 C2588 1.400 . S
C2587 C2592 1.490 . S
C2588 H2578 0.930 . S
C2588 C2587 1.400 . S
C2588 C2591 1.386 . S
H2589 C2605 0.930 . S
H2590 C2606 0.931 . S
C2591 H2579 0.929 . S
C2591 C2585 1.390 . S
C2591 C2588 1.386 . S
C2592 C2587 1.490 . S
C2592 C2594 1.395 . S
C2592 C2595 1.403 1_554 S
H2593 C2599 0.930 . S
C2594 H2580 0.930 . S
C2594 C2592 1.395 . S
C2594 C2597 1.403 . S
C2595 C2592 1.403 1_556 S
C2595 C2596 1.524 . S
C2595 C2599 1.400 . S
C2596 H2581 0.960 . S
C2596 H2582 0.960 . S
C2596 H2583 0.960 . S
C2596 C2595 1.524 . S
C2597 C2594 1.403 . S
C2597 C2598 1.392 1_554 S
C2597 C2601 1.495 . S
C2598 C2597 1.392 1_556 S
C2598 C2599 1.385 . S
C2598 C2600 1.478 . S
C2599 H2593 0.930 . S
C2599 C2595 1.400 . S
C2599 C2598 1.385 . S
C2600 C2598 1.478 . S
C2600 C2602 1.381 . S
C2600 C2606 1.383 . S
C2601 C2597 1.495 . S
C2601 H2607 0.959 . S
C2601 H2608 0.958 1_554 S
C2601 H2609 0.960 . S
C2602 C2600 1.381 . S
C2602 C2603 1.394 . S
C2602 H2610 0.930 . S
C2603 C2602 1.394 . S
C2603 C2604 1.383 . S
C2603 H2611 0.929 . S
C2604 C2603 1.383 . S
C2604 C2605 1.377 . S
C2605 H2589 0.930 . S
C2605 C2604 1.377 . S
C2605 C2606 1.379 . S
C2606 H2590 0.931 . S
C2606 C2600 1.383 . S
C2606 C2605 1.379 . S
H2607 C2601 0.959 . S
H2608 C2601 0.958 1_556 S
H2609 C2601 0.960 . S
H2610 C2602 0.930 . S
H2611 C2603 0.929 . S
H2612 C2620 0.929 . S
H2613 C2622 0.930 . S
H2614 C2624 0.930 . S
H2615 C2627 0.929 . S
H2616 C2630 0.930 . S
H2617 C2632 0.960 1_455 S
H2618 C2632 0.960 1_455 S
H2619 C2632 0.960 . S
C2620 H2612 0.929 . S
C2620 C2621 1.377 . S
C2620 C2622 1.384 . S
C2621 C2620 1.377 . S
C2621 C2627 1.390 . S
C2622 H2613 0.930 . S
C2622 C2620 1.384 . S
C2622 C2623 1.372 . S
C2623 C2622 1.372 . S
C2623 C2624 1.400 . S
C2623 C2628 1.490 . S
C2624 H2614 0.930 . S
C2624 C2623 1.400 . S
C2624 C2627 1.386 . S
H2625 C2641 0.930 . S
H2626 C2642 0.931 . S
C2627 H2615 0.929 . S
C2627 C2621 1.390 . S
C2627 C2624 1.386 . S
C2628 C2623 1.490 . S
C2628 C2630 1.395 . S
C2628 C2631 1.403 . S
H2629 C2635 0.930 . S
C2630 H2616 0.930 . S
C2630 C2628 1.395 . S
C2630 C2633 1.403 1_655 S
C2631 C2628 1.403 . S
C2631 C2632 1.524 . S
C2631 C2635 1.400 1_655 S
C2632 H2617 0.960 1_655 S
C2632 H2618 0.960 1_655 S
C2632 H2619 0.960 . S
C2632 C2631 1.524 . S
C2633 C2630 1.403 1_455 S
C2633 C2634 1.392 . S
C2633 C2637 1.495 . S
C2634 C2633 1.392 . S
C2634 C2635 1.385 . S
C2634 C2636 1.478 . S
C2635 H2629 0.930 . S
C2635 C2631 1.400 1_455 S
C2635 C2634 1.385 . S
C2636 C2634 1.478 . S
C2636 C2638 1.381 . S
C2636 C2642 1.383 . S
C2637 C2633 1.495 . S
C2637 H2643 0.959 1_455 S
C2637 H2644 0.961 1_455 S
C2637 H2645 0.960 . S
C2638 C2636 1.381 . S
C2638 C2639 1.394 . S
C2638 H2646 0.930 . S
C2639 C2638 1.394 . S
C2639 C2640 1.383 1_556 S
C2639 H2647 0.929 . S
C2640 C2639 1.383 1_554 S
C2640 C2641 1.377 . S
C2641 H2625 0.930 . S
C2641 C2640 1.377 . S
C2641 C2642 1.379 1_554 S
C2642 H2626 0.931 . S
C2642 C2636 1.383 . S
C2642 C2641 1.379 1_556 S
H2643 C2637 0.959 1_655 S
H2644 C2637 0.961 1_655 S
H2645 C2637 0.960 . S
H2646 C2638 0.930 . S
H2647 C2639 0.929 . S
H2648 C2656 0.929 . S
H2649 C2658 0.930 . S
H2650 C2660 0.930 . S
H2651 C2663 0.929 . S
H2652 C2666 0.930 . S
H2653 C2668 0.960 . S
H2654 C2668 0.960 . S
H2655 C2668 0.960 . S
C2656 H2648 0.929 . S
C2656 C2657 1.377 . S
C2656 C2658 1.384 . S
C2657 C2656 1.377 . S
C2657 C2663 1.390 . S
C2658 H2649 0.930 . S
C2658 C2656 1.384 . S
C2658 C2659 1.372 . S
C2659 C2658 1.372 . S
C2659 C2660 1.400 . S
C2659 C2664 1.490 . S
C2660 H2650 0.930 . S
C2660 C2659 1.400 . S
C2660 C2663 1.386 . S
H2661 C2677 0.930 . S
H2662 C2678 0.931 . S
C2663 H2651 0.929 . S
C2663 C2657 1.390 . S
C2663 C2660 1.386 . S
C2664 C2659 1.490 . S
C2664 C2666 1.395 . S
C2664 C2667 1.403 . S
H2665 C2671 0.930 . S
C2666 H2652 0.930 . S
C2666 C2664 1.395 . S
C2666 C2669 1.403 . S
C2667 C2664 1.403 . S
C2667 C2668 1.524 . S
C2667 C2671 1.400 . S
C2668 H2653 0.960 . S
C2668 H2654 0.960 . S
C2668 H2655 0.960 . S
C2668 C2667 1.524 . S
C2669 C2666 1.403 . S
C2669 C2670 1.392 . S
C2669 C2673 1.495 . S
C2670 C2669 1.392 . S
C2670 C2671 1.385 . S
C2670 C2672 1.478 . S
C2671 H2665 0.930 . S
C2671 C2667 1.400 . S
C2671 C2670 1.385 . S
C2672 C2670 1.478 . S
C2672 C2674 1.381 . S
C2672 C2678 1.383 . S
C2673 C2669 1.495 . S
C2673 H2679 0.959 . S
C2673 H2680 0.961 . S
C2673 H2681 0.960 . S
C2674 C2672 1.381 . S
C2674 C2675 1.394 . S
C2674 H2682 0.930 . S
C2675 C2674 1.394 . S
C2675 C2676 1.383 . S
C2675 H2683 0.929 . S
C2676 C2675 1.383 . S
C2676 C2677 1.377 . S
C2677 H2661 0.930 . S
C2677 C2676 1.377 . S
C2677 C2678 1.379 . S
C2678 H2662 0.931 . S
C2678 C2672 1.383 . S
C2678 C2677 1.379 . S
H2679 C2673 0.959 . S
H2680 C2673 0.961 . S
H2681 C2673 0.960 . S
H2682 C2674 0.930 . S
H2683 C2675 0.929 . S
H2684 C2692 0.929 . S
H2685 C2694 0.930 . S
H2686 C2696 0.930 . S
H2687 C2699 0.929 . S
H2688 C2702 0.930 . S
H2689 C2704 0.960 . S
H2690 C2704 0.960 . S
H2691 C2704 0.960 . S
C2692 H2684 0.929 . S
C2692 C2693 1.377 . S
C2692 C2694 1.384 . S
C2693 C2692 1.377 . S
C2693 C2699 1.390 . S
C2694 H2685 0.930 . S
C2694 C2692 1.384 . S
C2694 C2695 1.372 . S
C2695 C2694 1.372 . S
C2695 C2696 1.400 . S
C2695 C2700 1.490 . S
C2696 H2686 0.930 . S
C2696 C2695 1.400 . S
C2696 C2699 1.386 . S
H2697 C2713 0.930 . S
H2698 C2714 0.931 . S
C2699 H2687 0.929 . S
C2699 C2693 1.390 . S
C2699 C2696 1.386 . S
C2700 C2695 1.490 . S
C2700 C2702 1.395 . S
C2700 C2703 1.403 . S
H2701 C2707 0.930 . S
C2702 H2688 0.930 . S
C2702 C2700 1.395 . S
C2702 C2705 1.403 . S
C2703 C2700 1.403 . S
C2703 C2704 1.524 . S
C2703 C2707 1.400 . S
C2704 H2689 0.960 . S
C2704 H2690 0.960 . S
C2704 H2691 0.960 . S
C2704 C2703 1.524 . S
C2705 C2702 1.403 . S
C2705 C2706 1.392 . S
C2705 C2709 1.495 . S
C2706 C2705 1.392 . S
C2706 C2707 1.385 . S
C2706 C2708 1.478 . S
C2707 H2701 0.930 . S
C2707 C2703 1.400 . S
C2707 C2706 1.385 . S
C2708 C2706 1.478 . S
C2708 C2710 1.381 . S
C2708 C2714 1.383 . S
C2709 C2705 1.495 . S
C2709 H2715 0.959 . S
C2709 H2716 0.961 . S
C2709 H2717 0.960 . S
C2710 C2708 1.381 . S
C2710 C2711 1.394 . S
C2710 H2718 0.930 . S
C2711 C2710 1.394 . S
C2711 C2712 1.383 . S
C2711 H2719 0.929 . S
C2712 C2711 1.383 . S
C2712 C2713 1.377 . S
C2713 H2697 0.930 . S
C2713 C2712 1.377 . S
C2713 C2714 1.379 . S
C2714 H2698 0.931 . S
C2714 C2708 1.383 . S
C2714 C2713 1.379 . S
H2715 C2709 0.959 . S
H2716 C2709 0.961 . S
H2717 C2709 0.960 . S
H2718 C2710 0.930 . S
H2719 C2711 0.929 . S
C425 C81 1.911 . S
C444 C5 1.946 . S
C461 C18 1.372 . S
C480 C96 1.378 . S
C497 C55 1.912 . S
C516 C29 1.950 . S
C533 C42 1.372 . S
C552 C70 1.376 . S
C569 C185 1.926 . S
C588 C109 1.947 . S
C605 C120 1.373 . S
C624 C200 1.357 . S
C641 C159 1.924 . S
C660 C133 1.928 . S
C677 C146 1.373 . S
C696 C174 1.359 . S
C713 C211 1.919 . S
C732 C291 1.930 . S
C749 C302 1.373 . S
C768 C226 1.357 . S
C785 C237 1.921 . S
C804 C263 1.891 . S
C821 C276 1.366 . S
C840 C252 1.361 . S
C857 C393 1.912 . S
C876 C317 1.894 . S
C893 C406 1.368 . S
C912 C330 1.382 . S
C929 C367 1.916 . S
C948 C341 1.889 . S
C965 C356 1.373 . S
C984 C382 1.356 . S
C1001 C101 1.218 . S
C1020 C10 1.220 . S
C1037 C56 1.222 . S
C1056 C23 1.223 . S
C1073 C75 1.213 . S
C1092 C30 1.220 . S
C1109 C82 1.223 . S
C1128 C43 1.227 . S
C1145 C205 1.217 . S
C1164 C114 1.222 . S
C1181 C160 1.223 . S
C1200 C121 1.227 . S
C1217 C179 1.213 . S
C1236 C134 1.219 . S
C1253 C147 1.215 . S
C1272 C186 1.220 . S
C1289 C303 1.217 . S
C1308 C212 1.221 . S
C1325 C231 1.218 . S
C1344 C264 1.221 . S
C1361 C238 1.223 . S
C1380 C277 1.216 . S
C1397 C296 1.223 . S
C1416 C257 1.210 . S
C1433 C407 1.214 . S
C1452 C322 1.220 . S
C1469 C335 1.216 . S
C1488 C368 1.221 . S
C1505 C342 1.223 . S
C1524 C387 1.211 . S
C1541 C394 1.223 . S
C1560 C361 1.227 . S
C1577 C4 1.773 . S
C1596 C395 1.924 . S
C1613 C198 1.282 . S
C1632 C17 1.295 . S
C1649 C369 1.930 . S
C1668 C36 1.800 . S
C1685 C172 1.281 . S
C1704 C49 1.278 . S
C1721 C343 1.927 . S
C1740 C62 1.740 . S
C1757 C69 1.286 . S
C1776 C148 1.286 . S
C1793 C88 1.778 . S
C1812 C315 1.930 . S
C1829 C95 1.286 . S
C1848 C122 1.278 . S
C1865 C108 1.782 . S
C1884 C289 1.920 . S
C1901 C94 1.287 . S
C1920 C127 1.277 . S
C1937 C265 1.926 . S
C1956 C140 1.791 . S
C1973 C68 1.281 . S
C1992 C153 1.289 . S
C2009 C239 1.926 . S
C2028 C166 1.801 . S
C2045 C44 1.285 . S
C2064 C173 1.289 . S
C2081 C192 1.781 . S
C2100 C213 1.914 . S
C2117 C16 1.286 . S
C2136 C199 1.274 . S
C2153 C187 1.927 . S
C2172 C218 1.744 . S
C2189 C408 1.281 . S
C2208 C225 1.278 . S
C2225 C244 1.769 . S
C2244 C161 1.914 . S
C2261 C251 1.286 . S
C2280 C380 1.275 . S
C2297 C270 1.771 . S
C2316 C135 1.915 . S
C2333 C283 1.286 . S
C2352 C354 1.283 . S
C2369 C290 1.781 . S
C2388 C107 1.930 . S
C2405 C309 1.289 . S
C2424 C328 1.296 . S
C2441 C83 1.926 . S
C2460 C316 1.793 . S
C2477 C304 1.283 . S
C2496 C329 1.282 . S
C2513 C57 1.930 . S
C2532 C348 1.773 . S
C2549 C355 1.291 . S
C2568 C278 1.273 . S
C2585 C374 1.782 . S
C2604 C31 1.920 . S
C2621 C250 1.282 . S
C2640 C381 1.296 . S
C2657 C400 1.770 . S
C2676 C3 1.928 . S
C2693 C413 1.287 . S
C2712 C224 1.281 . S
