# Generated by pormake.
# Topology bcs, (6)-cn, num edge types: 1
# Building blocks:
#     Node 0, Type 0, BuildingBlock: VOLQOD_clean_sbu_1, # of connection points: 6
#     Node 1, Type 0, BuildingBlock: VOLQOD_clean_sbu_1, # of connection points: 6
#     Node 2, Type 0, BuildingBlock: VOLQOD_clean_sbu_1, # of connection points: 6
#     Node 3, Type 0, BuildingBlock: VOLQOD_clean_sbu_1, # of connection points: 6
#     Node 4, Type 0, BuildingBlock: VOLQOD_clean_sbu_1, # of connection points: 6
#     Node 5, Type 0, BuildingBlock: VOLQOD_clean_sbu_1, # of connection points: 6
#     Node 6, Type 0, BuildingBlock: VOLQOD_clean_sbu_1, # of connection points: 6
#     Node 7, Type 0, BuildingBlock: VOLQOD_clean_sbu_1, # of connection points: 6
#     Node 8, Type 0, BuildingBlock: VOLQOD_clean_sbu_1, # of connection points: 6
#     Node 9, Type 0, BuildingBlock: VOLQOD_clean_sbu_1, # of connection points: 6
#     Node 10, Type 0, BuildingBlock: VOLQOD_clean_sbu_1, # of connection points: 6
#     Node 11, Type 0, BuildingBlock: VOLQOD_clean_sbu_1, # of connection points: 6
#     Node 12, Type 0, BuildingBlock: VOLQOD_clean_sbu_1, # of connection points: 6
#     Node 13, Type 0, BuildingBlock: VOLQOD_clean_sbu_1, # of connection points: 6
#     Node 14, Type 0, BuildingBlock: VOLQOD_clean_sbu_1, # of connection points: 6
#     Node 15, Type 0, BuildingBlock: VOLQOD_clean_sbu_1, # of connection points: 6
#     Edge 16, Type (0, 0), BuildingBlock: CIFDUS_clean_linker_0, # of connection points: 2
#     Edge 17, Type (0, 0), BuildingBlock: CIFDUS_clean_linker_0, # of connection points: 2
#     Edge 18, Type (0, 0), BuildingBlock: CIFDUS_clean_linker_0, # of connection points: 2
#     Edge 19, Type (0, 0), BuildingBlock: CIFDUS_clean_linker_0, # of connection points: 2
#     Edge 20, Type (0, 0), BuildingBlock: CIFDUS_clean_linker_0, # of connection points: 2
#     Edge 21, Type (0, 0), BuildingBlock: CIFDUS_clean_linker_0, # of connection points: 2
#     Edge 22, Type (0, 0), BuildingBlock: CIFDUS_clean_linker_0, # of connection points: 2
#     Edge 23, Type (0, 0), BuildingBlock: CIFDUS_clean_linker_0, # of connection points: 2
#     Edge 24, Type (0, 0), BuildingBlock: CIFDUS_clean_linker_0, # of connection points: 2
#     Edge 25, Type (0, 0), BuildingBlock: CIFDUS_clean_linker_0, # of connection points: 2
#     Edge 26, Type (0, 0), BuildingBlock: CIFDUS_clean_linker_0, # of connection points: 2
#     Edge 27, Type (0, 0), BuildingBlock: CIFDUS_clean_linker_0, # of connection points: 2
#     Edge 28, Type (0, 0), BuildingBlock: CIFDUS_clean_linker_0, # of connection points: 2
#     Edge 29, Type (0, 0), BuildingBlock: CIFDUS_clean_linker_0, # of connection points: 2
#     Edge 30, Type (0, 0), BuildingBlock: CIFDUS_clean_linker_0, # of connection points: 2
#     Edge 31, Type (0, 0), BuildingBlock: CIFDUS_clean_linker_0, # of connection points: 2
#     Edge 32, Type (0, 0), BuildingBlock: CIFDUS_clean_linker_0, # of connection points: 2
#     Edge 33, Type (0, 0), BuildingBlock: CIFDUS_clean_linker_0, # of connection points: 2
#     Edge 34, Type (0, 0), BuildingBlock: CIFDUS_clean_linker_0, # of connection points: 2
#     Edge 35, Type (0, 0), BuildingBlock: CIFDUS_clean_linker_0, # of connection points: 2
#     Edge 36, Type (0, 0), BuildingBlock: CIFDUS_clean_linker_0, # of connection points: 2
#     Edge 37, Type (0, 0), BuildingBlock: CIFDUS_clean_linker_0, # of connection points: 2
#     Edge 38, Type (0, 0), BuildingBlock: CIFDUS_clean_linker_0, # of connection points: 2
#     Edge 39, Type (0, 0), BuildingBlock: CIFDUS_clean_linker_0, # of connection points: 2
#     Edge 40, Type (0, 0), BuildingBlock: CIFDUS_clean_linker_0, # of connection points: 2
#     Edge 41, Type (0, 0), BuildingBlock: CIFDUS_clean_linker_0, # of connection points: 2
#     Edge 42, Type (0, 0), BuildingBlock: CIFDUS_clean_linker_0, # of connection points: 2
#     Edge 43, Type (0, 0), BuildingBlock: CIFDUS_clean_linker_0, # of connection points: 2
#     Edge 44, Type (0, 0), BuildingBlock: CIFDUS_clean_linker_0, # of connection points: 2
#     Edge 45, Type (0, 0), BuildingBlock: CIFDUS_clean_linker_0, # of connection points: 2
#     Edge 46, Type (0, 0), BuildingBlock: CIFDUS_clean_linker_0, # of connection points: 2
#     Edge 47, Type (0, 0), BuildingBlock: CIFDUS_clean_linker_0, # of connection points: 2
#     Edge 48, Type (0, 0), BuildingBlock: CIFDUS_clean_linker_0, # of connection points: 2
#     Edge 49, Type (0, 0), BuildingBlock: CIFDUS_clean_linker_0, # of connection points: 2
#     Edge 50, Type (0, 0), BuildingBlock: CIFDUS_clean_linker_0, # of connection points: 2
#     Edge 51, Type (0, 0), BuildingBlock: CIFDUS_clean_linker_0, # of connection points: 2
#     Edge 52, Type (0, 0), BuildingBlock: CIFDUS_clean_linker_0, # of connection points: 2
#     Edge 53, Type (0, 0), BuildingBlock: CIFDUS_clean_linker_0, # of connection points: 2
#     Edge 54, Type (0, 0), BuildingBlock: CIFDUS_clean_linker_0, # of connection points: 2
#     Edge 55, Type (0, 0), BuildingBlock: CIFDUS_clean_linker_0, # of connection points: 2
#     Edge 56, Type (0, 0), BuildingBlock: CIFDUS_clean_linker_0, # of connection points: 2
#     Edge 57, Type (0, 0), BuildingBlock: CIFDUS_clean_linker_0, # of connection points: 2
#     Edge 58, Type (0, 0), BuildingBlock: CIFDUS_clean_linker_0, # of connection points: 2
#     Edge 59, Type (0, 0), BuildingBlock: CIFDUS_clean_linker_0, # of connection points: 2
#     Edge 60, Type (0, 0), BuildingBlock: CIFDUS_clean_linker_0, # of connection points: 2
#     Edge 61, Type (0, 0), BuildingBlock: CIFDUS_clean_linker_0, # of connection points: 2
#     Edge 62, Type (0, 0), BuildingBlock: CIFDUS_clean_linker_0, # of connection points: 2
#     Edge 63, Type (0, 0), BuildingBlock: CIFDUS_clean_linker_0, # of connection points: 2
# Relax obj value: 0.390
# Max RMSD: 0.283
# Mean RMSD: 0.278
data_MOF--net-bcs--node1-VOLQOD_clean_sbu_1--edge1-CIFDUS_clean_linker_0
_symmetry_space_group_name_H-M    P1
_symmetry_Int_Tables_number       1
_symmetry_cell_setting            triclinic
loop_
_symmetry_equiv_pos_as_xyz
'x, y, z'
_cell_length_a     32.654632
_cell_length_b     32.816353
_cell_length_c     32.653731
_cell_angle_alpha  90.064595
_cell_angle_beta   90.305563
_cell_angle_gamma 89.634806
loop_
_atom_site_label
_atom_site_type_symbol
_atom_site_fract_x
_atom_site_fract_y
_atom_site_fract_z
_atom_type_partial_charge
O0 O 0.09847 0.05902 0.02972 0.0
Zn1 Zn 0.0512 0.0277 0.05164 0.0
O2 O 0.02477 -0.0036 0.00838 0.0
Zn3 Zn 0.96676 0.00707 0.0093 0.0
Zn4 Zn 0.04644 0.01179 0.95599 0.0
Zn5 Zn 0.03392 0.93889 0.01603 0.0
O6 O 0.93519 0.95973 0.03194 0.0
O7 O 0.98334 0.91194 0.03563 0.0
O8 O 0.01295 0.06715 0.07903 0.0
O9 O 0.95486 0.05423 0.04611 0.0
O10 O 0.94675 0.02546 0.9547 0.0
O11 O 0.00486 0.0462 0.92635 0.0
O12 O 0.05811 0.96265 0.92152 0.0
O13 O 0.07529 0.99046 0.09341 0.0
O14 O 0.05282 0.91088 0.96475 0.0
O15 O 0.07411 0.9306 0.06135 0.0
C16 C 0.11505 0.06038 -0.00537 0.0
C17 C 0.94666 0.92375 0.04126 0.0
C18 C 0.96587 0.04559 0.92758 0.0
C19 C 0.97529 0.07461 0.07218 0.0
C20 C 0.06013 0.92466 0.92912 0.0
C21 C 0.08491 0.95291 0.09142 0.0
O22 O 0.0993 0.04269 0.96359 0.0
O23 O 0.33797 0.72215 0.21369 0.0
Zn24 Zn 0.35432 0.75754 0.2621 0.0
O25 O 0.30713 0.77328 0.2937 0.0
Zn26 Zn 0.29695 0.82966 0.29214 0.0
Zn27 Zn 0.26299 0.7455 0.27018 0.0
Zn28 Zn 0.30966 0.75664 0.3491 0.0
O29 O 0.30846 0.85476 0.34705 0.0
O30 O 0.33451 0.8023 0.38192 0.0
O31 O 0.38397 0.8063 0.24 0.0
O32 O 0.33758 0.85395 0.25452 0.0
O33 O 0.24169 0.84153 0.26725 0.0
O34 O 0.23337 0.78319 0.23349 0.0
O35 O 0.2221 0.73111 0.31117 0.0
O36 O 0.3887 0.72056 0.29632 0.0
O37 O 0.25227 0.74478 0.37042 0.0
O38 O 0.34476 0.70641 0.34665 0.0
C39 C 0.31021 0.69511 0.21404 0.0
C40 C 0.32818 0.84051 0.37778 0.0
C41 C 0.22357 0.8202 0.24 0.0
C42 C 0.37073 0.84282 0.23738 0.0
C43 C 0.22073 0.7343 0.34981 0.0
C44 C 0.37609 0.69757 0.32498 0.0
O45 O 0.28104 0.69659 0.23952 0.0
O46 O 0.49755 0.00093 0.49494 0.0
Zn47 Zn 0.54146 0.03059 0.52625 0.0
O48 O 0.57592 0.06375 0.49027 0.0
Zn49 Zn 0.6332 0.0492 0.49868 0.0
Zn50 Zn 0.55995 0.05493 0.4336 0.0
Zn51 Zn 0.5689 0.121 0.50208 0.0
O52 O 0.66738 0.09673 0.51805 0.0
O53 O 0.62156 0.14692 0.51841 0.0
O54 O 0.57428 0.99 0.55825 0.0
O55 O 0.63801 0.0064 0.54226 0.0
O56 O 0.65617 0.02408 0.44771 0.0
O57 O 0.6039 0.02447 0.40379 0.0
O58 O 0.54448 0.10665 0.40422 0.0
O59 O 0.51325 0.06574 0.5676 0.0
O60 O 0.54451 0.1513 0.4551 0.0
O61 O 0.53049 0.12833 0.54867 0.0
C62 C 0.48815 0.00146 0.4571 0.0
C63 C 0.65789 0.13391 0.5243 0.0
C64 C 0.64061 0.01483 0.41308 0.0
C65 C 0.6127 0.98507 0.56244 0.0
C66 C 0.53724 0.14227 0.41793 0.0
C67 C 0.51134 0.10417 0.57208 0.0
O68 O 0.50925 0.02111 0.4312 0.0
O69 O 0.40597 0.2341 0.87579 0.0
Zn70 Zn 0.35981 0.20702 0.84418 0.0
O71 O 0.32278 0.24827 0.82188 0.0
Zn72 Zn 0.27345 0.24952 0.85406 0.0
Zn73 Zn 0.34963 0.3004 0.82189 0.0
Zn74 Zn 0.30797 0.23618 0.76652 0.0
O75 O 0.22481 0.22653 0.82304 0.0
O76 O 0.25061 0.21836 0.7608 0.0
O77 O 0.32801 0.1705 0.88193 0.0
O78 O 0.28011 0.21387 0.90353 0.0
O79 O 0.25981 0.30724 0.86885 0.0
O80 O 0.3163 0.34115 0.85252 0.0
O81 O 0.35435 0.32447 0.76584 0.0
O82 O 0.38492 0.17411 0.79794 0.0
O83 O 0.31514 0.28319 0.7292 0.0
O84 O 0.34557 0.19412 0.74577 0.0
C85 C 0.42155 0.26925 0.87065 0.0
C86 C 0.22093 0.21637 0.78562 0.0
C87 C 0.28039 0.34002 0.86723 0.0
C88 C 0.2989 0.17978 0.90619 0.0
C89 C 0.33627 0.31533 0.73254 0.0
C90 C 0.37498 0.17293 0.76015 0.0
O91 O 0.40441 0.29624 0.84837 0.0
O92 O 0.0471 0.94812 0.49856 0.0
Zn93 Zn 0.0757 -0.00352 0.52242 0.0
O94 O 0.04506 0.01892 0.56847 0.0
Zn95 Zn 0.03338 0.07629 0.55998 0.0
Zn96 Zn -0.00606 0.98974 0.57416 0.0
Zn97 Zn 0.07679 0.01327 0.61829 0.0
O98 O 0.05557 0.11233 0.60472 0.0
O99 O 0.08426 0.06674 0.64609 0.0
O100 O 0.08437 0.03826 0.47889 0.0
O101 O 0.05755 0.09408 0.50695 0.0
O102 O 0.97354 0.08601 0.55404 0.0
O103 O 0.9464 0.02414 0.55406 0.0
O104 O 0.98579 0.97523 0.63342 0.0
O105 O 0.13162 0.97784 0.53942 0.0
O106 O 0.0489 0.97814 0.65953 0.0
O107 O 0.13251 0.99147 0.60603 0.0
C108 C 0.01625 0.92735 0.50953 0.0
C109 C 0.07464 0.10333 0.63758 0.0
C110 C 0.943 0.06256 0.54959 0.0
C111 C 0.07591 0.0761 0.47771 0.0
C112 C 0.01117 0.96954 0.66269 0.0
C113 C 0.15015 0.97888 0.5737 0.0
O114 O -0.00594 0.93841 0.53964 0.0
O115 O 0.22732 0.68587 0.73007 0.0
Zn116 Zn 0.26002 0.71352 0.77545 0.0
O117 O 0.2987 0.75211 0.7517 0.0
Zn118 Zn 0.35465 0.74214 0.76722 0.0
Zn119 Zn 0.29553 0.7527 0.69391 0.0
Zn120 Zn 0.2848 0.80521 0.76942 0.0
O121 O 0.38076 0.79391 0.78911 0.0
O122 O 0.32327 0.82273 0.8118 0.0
O123 O 0.28948 0.67713 0.81696 0.0
O124 O 0.35193 0.7045 0.81463 0.0
O125 O 0.38702 0.71592 0.72068 0.0
O126 O 0.34101 0.72122 0.67068 0.0
O127 O 0.29733 0.80857 0.66966 0.0
O128 O 0.21572 0.74339 0.80714 0.0
O129 O 0.28953 0.84624 0.72519 0.0
O130 O 0.22859 0.8078 0.79148 0.0
C131 C 0.22083 0.69982 0.69404 0.0
C132 C 0.36201 0.82011 0.8111 0.0
C133 C 0.3758 0.70943 0.68374 0.0
C134 C 0.32601 0.68057 0.8307 0.0
C135 C 0.29484 0.84323 0.68684 0.0
C136 C 0.20579 0.78096 0.80735 0.0
O137 O 0.24357 0.72692 0.67839 0.0
O138 O 0.53237 0.08061 0.06312 0.0
Zn139 Zn 0.49738 0.04742 0.02598 0.0
O140 O 0.4604 0.08249 -0.00508 0.0
Zn141 Zn 0.40539 0.06347 0.00147 0.0
Zn142 Zn 0.4639 0.13758 0.01413 0.0
Zn143 Zn 0.4728 0.08057 0.93721 0.0
O144 O 0.39113 0.02829 0.9538 0.0
O145 O 0.42905 0.05405 0.90402 0.0
O146 O 0.46683 0.00937 0.06264 0.0
O147 O 0.40249 0.02841 0.05086 0.0
O148 O 0.36514 0.10896 0.01099 0.0
O149 O 0.40859 0.15746 0.02992 0.0
O150 O 0.48498 0.17403 0.97067 0.0
O151 O 0.53489 0.01621 0.98912 0.0
O152 O 0.48624 0.13529 0.91497 0.0
O153 O 0.5215 0.04429 0.92856 0.0
C154 C 0.5306 0.11741 0.07517 0.0
C155 C 0.40193 0.02949 0.91645 0.0
C156 C 0.37221 0.14438 0.02524 0.0
C157 C 0.42884 0.00771 0.07082 0.0
C158 C 0.49153 0.16941 0.93264 0.0
C159 C 0.54188 0.01968 0.951 0.0
O160 O 0.50416 0.14232 0.06073 0.0
O161 O 0.3111 0.3934 0.30868 0.0
Zn162 Zn 0.28941 0.34405 0.33786 0.0
O163 O 0.25337 0.31229 0.30254 0.0
Zn164 Zn 0.19872 0.30915 0.3249 0.0
Zn165 Zn 0.24954 0.33995 0.25136 0.0
Zn166 Zn 0.27494 0.25786 0.29253 0.0
O167 O 0.18714 0.25249 0.34004 0.0
O168 O 0.2388 0.21441 0.3176 0.0
O169 O 0.25875 0.36613 0.38623 0.0
O170 O 0.19558 0.34322 0.37505 0.0
O171 O 0.15353 0.32577 0.28528 0.0
O172 O 0.19264 0.34225 0.23272 0.0
O173 O 0.27823 0.31035 0.20709 0.0
O174 O 0.33802 0.31048 0.35505 0.0
O175 O 0.28014 0.2473 0.23174 0.0
O176 O 0.33124 0.25384 0.31797 0.0
C177 C 0.29845 0.41177 0.27669 0.0
C178 C 0.20425 0.21797 0.33527 0.0
C179 C 0.15765 0.33631 0.24812 0.0
C180 C 0.22131 0.36319 0.39632 0.0
C181 C 0.28395 0.27238 0.20226 0.0
C182 C 0.3516 0.27615 0.34269 0.0
O183 O 0.27165 0.39599 0.25337 0.0
O184 O 0.54541 0.44164 0.0078 0.0
Zn185 Zn 0.57164 0.49301 0.02934 0.0
O186 O 0.53149 0.52561 0.05949 0.0
Zn187 Zn 0.52478 0.57908 0.03551 0.0
Zn188 Zn 0.47905 0.49898 0.05832 0.0
Zn189 Zn 0.54861 0.53142 0.11582 0.0
O190 O 0.54349 0.62427 0.07322 0.0
O191 O 0.56485 0.58826 0.12695 0.0
O192 O 0.59675 0.52544 0.9831 0.0
O193 O 0.56084 0.58307 0.98681 0.0
O194 O 0.46751 0.58789 0.01492 0.0
O195 O 0.44043 0.52606 0.01822 0.0
O196 O 0.45296 0.50143 0.11376 0.0
O197 O 0.61635 0.47286 0.06714 0.0
O198 O 0.50402 0.51908 0.15517 0.0
O199 O 0.59625 0.49516 0.12804 0.0
C200 C 0.51293 0.42331 0.01872 0.0
C201 C 0.55978 0.62202 0.10862 0.0
C202 C 0.4388 0.56304 0.00659 0.0
C203 C 0.58797 0.56096 0.96976 0.0
C204 C 0.46692 0.50917 0.1494 0.0
C205 C 0.6209 0.47478 0.10585 0.0
O206 O 0.48611 0.44069 0.04106 0.0
O207 O 0.72459 0.14482 0.2611 0.0
Zn208 Zn 0.74532 0.17197 0.31305 0.0
O209 O 0.77096 0.22432 0.30124 0.0
Zn210 Zn 0.82618 0.22558 0.32038 0.0
Zn211 Zn 0.77113 0.23383 0.24393 0.0
Zn212 Zn 0.74273 0.2681 0.32723 0.0
O213 O 0.8398 0.28267 0.34041 0.0
O214 O 0.77871 0.29942 0.36493 0.0
O215 O 0.7826 0.13808 0.34918 0.0
O216 O 0.82948 0.1847 0.36598 0.0
O217 O 0.86475 0.20841 0.27511 0.0
O218 O 0.82493 0.21803 0.22061 0.0
O219 O 0.75593 0.29118 0.22921 0.0
O220 O 0.69372 0.18025 0.34593 0.0
O221 O 0.72427 0.30973 0.28622 0.0
O222 O 0.6944 0.24729 0.35634 0.0
C223 C 0.7151 0.1631 0.22786 0.0
C224 C 0.81668 0.30658 0.36084 0.0
C225 C 0.85917 0.20777 0.23644 0.0
C226 C 0.81211 0.15041 0.37171 0.0
C227 C 0.73436 0.3166 0.2493 0.0
C228 C 0.6783 0.21247 0.36112 0.0
O229 O 0.72894 0.19824 0.21944 0.0
O230 O 0.0215 0.57176 0.57517 0.0
Zn231 Zn -0.00182 0.54053 0.52834 0.0
O232 O 0.96781 0.57524 0.49041 0.0
Zn233 Zn 0.91063 0.5611 0.49137 0.0
Zn234 Zn 0.97463 0.63119 0.50552 0.0
Zn235 Zn 0.98803 0.56765 0.4355 0.0
O236 O 0.89121 0.5404 0.43704 0.0
O237 O 0.95017 0.52994 0.40498 0.0
O238 O 0.96424 0.49628 0.55099 0.0
O239 O 0.90247 0.51346 0.52823 0.0
O240 O 0.87635 0.60634 0.51491 0.0
O241 O 0.9215 0.65642 0.5215 0.0
O242 O 0.00126 0.66199 0.46078 0.0
O243 O 0.04656 0.51584 0.50138 0.0
O244 O -0.00164 0.62086 0.40684 0.0
O245 O 0.04317 0.54043 0.43811 0.0
C246 C 0.02702 0.60978 0.57942 0.0
C247 C 0.91197 0.52329 0.40881 0.0
C248 C 0.88539 0.64264 0.5252 0.0
C249 C 0.92597 0.49012 0.54881 0.0
C250 C 0.00767 0.65494 0.42306 0.0
C251 C 0.06173 0.52039 0.46599 0.0
O252 O 0.01217 0.63531 0.55396 0.0
O253 O 0.8709 0.73557 0.38906 0.0
Zn254 Zn 0.84115 0.70041 0.34771 0.0
O255 O 0.81937 0.73365 0.30364 0.0
Zn256 Zn 0.76167 0.74265 0.31027 0.0
Zn257 Zn 0.84837 0.78408 0.30469 0.0
Zn258 Zn 0.82738 0.70645 0.2522 0.0
O259 O 0.73146 0.73661 0.2572 0.0
O260 O 0.77479 0.69823 0.22169 0.0
O261 O 0.79518 0.66822 0.37321 0.0
O262 O 0.73995 0.69839 0.34613 0.0
O263 O 0.75058 0.79914 0.33145 0.0
O264 O 0.81132 0.82863 0.32401 0.0
O265 O 0.86795 0.79883 0.24853 0.0
O266 O 0.8825 0.66094 0.32405 0.0
O267 O 0.86007 0.74096 0.214 0.0
O268 O 0.85798 0.65457 0.2606 0.0
C269 C 0.8949 0.7649 0.38074 0.0
C270 C 0.74005 0.71554 0.22567 0.0
C271 C 0.77372 0.8302 0.33383 0.0
C272 C 0.75646 0.67095 0.36845 0.0
C273 C 0.87172 0.77777 0.21599 0.0
C274 C 0.88178 0.64309 0.2894 0.0
O275 O 0.89433 0.78209 0.34574 0.0
O276 O 0.80031 0.24491 0.72318 0.0
Zn277 Zn 0.8198 0.28031 0.77017 0.0
O278 O 0.77471 0.30998 0.79551 0.0
Zn279 Zn 0.77823 0.36713 0.78425 0.0
Zn280 Zn 0.72461 0.28962 0.77417 0.0
Zn281 Zn 0.77369 0.30242 0.85375 0.0
O282 O 0.79967 0.39721 0.83312 0.0
O283 O 0.79826 0.35083 0.88257 0.0
O284 O 0.85969 0.31857 0.74374 0.0
O285 O 0.81854 0.37294 0.73989 0.0
O286 O 0.72504 0.39158 0.76389 0.0
O287 O 0.68989 0.33469 0.75504 0.0
O288 O 0.691 0.2641 0.81674 0.0
O289 O 0.84531 0.24291 0.81117 0.0
O290 O 0.71566 0.29391 0.87264 0.0
O291 O 0.80716 0.25257 0.8668 0.0
C292 C 0.76454 0.23838 0.7092 0.0
C293 C 0.80653 0.3866 0.87004 0.0
C294 C 0.69255 0.37313 0.75314 0.0
C295 C 0.85042 0.35335 0.72899 0.0
C296 C 0.68726 0.27489 0.85393 0.0
C297 C 0.83515 0.23334 0.84752 0.0
O298 O 0.7329 0.25353 0.72598 0.0
O299 O 0.83802 0.87696 0.84086 0.0
Zn300 Zn 0.79912 0.83325 0.86129 0.0
O301 O 0.77895 0.80056 0.81594 0.0
Zn302 Zn 0.72165 0.80614 0.80666 0.0
Zn303 Zn 0.80609 0.81911 0.76903 0.0
Zn304 Zn 0.79279 0.74441 0.82107 0.0
O305 O 0.69307 0.75282 0.81858 0.0
O306 O 0.7444 0.71432 0.84219 0.0
O307 O 0.7521 0.86099 0.89056 0.0
O308 O 0.70127 0.84648 0.8472 0.0
O309 O 0.70952 0.83068 0.75072 0.0
O310 O 0.77054 0.85758 0.73876 0.0
O311 O 0.81594 0.77473 0.72964 0.0
O312 O 0.83464 0.79811 0.89773 0.0
O313 O 0.80568 0.71898 0.76602 0.0
O314 O 0.84065 0.74175 0.85955 0.0
C315 C 0.86327 0.87265 0.81155 0.0
C316 C 0.7063 0.72022 0.83563 0.0
C317 C 0.73261 0.8545 0.73044 0.0
C318 C 0.71499 0.86489 0.8787 0.0
C319 C 0.81364 0.73627 0.73213 0.0
C320 C 0.85198 0.76416 0.88948 0.0
O321 O 0.85792 0.84612 0.78373 0.0
O322 O 0.57398 0.52143 0.46069 0.0
Zn323 Zn 0.53259 0.50112 0.49947 0.0
O324 O 0.49873 0.4591 0.47507 0.0
Zn325 Zn 0.44147 0.47571 0.47676 0.0
Zn326 Zn 0.51553 0.45085 0.41852 0.0
Zn327 Zn 0.50517 0.40907 0.50582 0.0
O328 O 0.40665 0.43837 0.51 0.0
O329 O 0.45243 0.39219 0.53017 0.0
O330 O 0.49957 0.54779 0.5204 0.0
O331 O 0.43611 0.53064 0.50316 0.0
O332 O 0.41833 0.48114 0.4207 0.0
O333 O 0.47245 0.47247 0.38077 0.0
O334 O 0.52332 0.39107 0.40734 0.0
O335 O 0.56379 0.48064 0.54704 0.0
O336 O 0.52196 0.36325 0.46941 0.0
O337 O 0.54488 0.41601 0.55272 0.0
C338 C 0.58534 0.51098 0.42506 0.0
C339 C 0.41606 0.40598 0.52914 0.0
C340 C 0.43496 0.48192 0.38559 0.0
C341 C 0.46138 0.55526 0.5194 0.0
C342 C 0.52569 0.36009 0.43078 0.0
C343 C 0.56545 0.44653 0.56511 0.0
O344 O 0.56698 0.48307 0.40501 0.0
O345 O 0.97803 0.52213 0.00995 0.0
Zn346 Zn 0.0259 0.52983 0.04781 0.0
O347 O 0.07114 0.55654 0.0211 0.0
Zn348 Zn 0.12095 0.52699 0.03105 0.0
Zn349 Zn 0.06039 0.56168 0.96306 0.0
Zn350 Zn 0.07812 0.60991 0.04413 0.0
O351 O 0.16408 0.56113 0.05826 0.0
O352 O 0.13776 0.62309 0.04937 0.0
O353 O 0.04204 0.47494 0.06831 0.0
O354 O 0.10984 0.47567 0.06208 0.0
O355 O 0.14449 0.51018 0.97834 0.0
O356 O 0.10272 0.53213 0.92903 0.0
O357 O 0.05541 0.62049 0.94746 0.0
O358 O 0.0109 0.55962 0.09866 0.0
O359 O 0.0503 0.65103 0.00805 0.0
O360 O 0.05364 0.61196 0.10073 0.0
C361 C 0.97551 0.52505 0.97114 0.0
C362 C 0.16773 0.59973 0.05846 0.0
C363 C 0.13505 0.51355 0.94074 0.0
C364 C 0.07692 0.4583 0.07308 0.0
C365 C 0.04657 0.65157 0.9692 0.0
C366 C 0.02638 0.58992 0.11735 0.0
O367 O 0.00533 0.53793 0.94986 0.0
H368 H 0.25366 0.18934 0.97481 0.0
H369 H 0.29888 0.09819 0.89084 0.0
H370 H 0.24652 0.05077 0.91365 0.0
H371 H 0.1801 0.0406 0.94753 0.0
H372 H 0.13554 0.13116 0.03237 0.0
H373 H 0.1953 0.17362 0.01902 0.0
C374 C 0.25277 0.15865 0.96245 0.0
C375 C 0.27921 0.14763 0.93044 0.0
C376 C 0.22199 0.13194 0.97494 0.0
C377 C 0.27857 0.10753 0.91529 0.0
C378 C 0.24825 0.08057 0.92789 0.0
C379 C 0.18379 0.06948 0.96328 0.0
C380 C 0.15313 0.08349 0.98986 0.0
C381 C 0.21841 0.09338 0.95589 0.0
C382 C 0.15861 0.12022 0.01123 0.0
C383 C 0.19272 0.14442 0.00368 0.0
H384 H 0.09656 0.87284 0.10574 0.0
H385 H 0.12769 -0.00778 0.15169 0.0
H386 H 0.17132 0.96131 0.20429 0.0
H387 H 0.20381 0.90052 0.23405 0.0
H388 H 0.17268 0.78153 0.18674 0.0
H389 H 0.12547 0.81241 0.13787 0.0
C390 C 0.11284 0.89216 0.12727 0.0
C391 C 0.1094 0.93466 0.12457 0.0
C392 C 0.13781 0.87433 0.15712 0.0
C393 C 0.13007 0.95931 0.15309 0.0
C394 C 0.15502 0.94171 0.1831 0.0
C395 C 0.18636 0.88135 0.21336 0.0
C396 C 0.19207 0.83892 0.2137 0.0
C397 C 0.15956 0.89926 0.18497 0.0
C398 C 0.16917 0.81439 0.1868 0.0
C399 C 0.14217 0.83195 0.15881 0.0
H400 H 0.45569 0.9321 0.48868 0.0
H401 H 0.43972 0.02097 0.39248 0.0
H402 H 0.3833 0.98177 0.36376 0.0
H403 H 0.3441 0.91933 0.36146 0.0
H404 H 0.36398 0.82617 0.45277 0.0
H405 H 0.41258 0.87041 0.48861 0.0
C406 C 0.43941 0.94302 0.46176 0.0
C407 C 0.45198 0.97908 0.44243 0.0
C408 C 0.40777 0.91961 0.4446 0.0
C409 C 0.43089 -0.00703 0.4075 0.0
C410 C 0.39856 0.97068 0.39117 0.0
C411 C 0.3583 0.90888 0.3897 0.0
C412 C 0.35056 0.86941 0.40432 0.0
C413 C 0.38749 0.9335 0.40884 0.0
C414 C 0.36954 0.8564 0.44081 0.0
C415 C 0.3975 0.88157 0.46114 0.0
H416 H 0.39296 0.20135 0.68648 0.0
H417 H 0.418 0.10068 0.7678 0.0
H418 H 0.46235 0.06931 0.71558 0.0
H419 H 0.49342 0.07141 0.64632 0.0
H420 H 0.47064 0.17586 0.56892 0.0
H421 H 0.42553 0.20514 0.62042 0.0
C422 C 0.4078 0.17229 0.69271 0.0
C423 C 0.4018 0.15278 0.73036 0.0
C424 C 0.43359 0.1554 0.66338 0.0
C425 C 0.42211 0.11591 0.73871 0.0
C426 C 0.44732 0.09811 0.70894 0.0
C427 C 0.47843 0.10052 0.6409 0.0
C428 C 0.48501 0.12148 0.60398 0.0
C429 C 0.45318 0.11765 0.6711 0.0
C430 C 0.46606 0.15938 0.59726 0.0
C431 C 0.44022 0.17604 0.62655 0.0
H432 H 0.20784 -0.00305 0.62999 0.0
H433 H 0.18386 0.91915 0.52617 0.0
H434 H 0.23946 0.87361 0.54722 0.0
H435 H 0.27914 0.84698 0.60524 0.0
H436 H 0.29816 0.92244 0.71198 0.0
H437 H 0.26165 0.9785 0.679 0.0
C438 C 0.21568 0.97065 0.61136 0.0
C439 C 0.191 0.96031 0.5777 0.0
C440 C 0.2465 0.94394 0.62449 0.0
C441 C 0.20205 0.92714 0.5528 0.0
C442 C 0.23366 0.90096 0.56497 0.0
C443 C 0.27667 0.87618 0.62068 0.0
C444 C 0.28944 0.88006 0.66165 0.0
C445 C 0.25385 0.90754 0.60239 0.0
C446 C 0.28721 0.91836 0.68087 0.0
C447 C 0.26614 0.95036 0.66214 0.0
H448 H 0.37395 0.89484 0.78276 0.0
H449 H 0.39291 0.81768 0.88783 0.0
H450 H 0.40453 0.87768 0.93101 0.0
H451 H 0.40245 0.95167 0.93951 0.0
H452 H 0.38468 0.02952 0.83454 0.0
H453 H 0.37806 0.9694 0.79019 0.0
C454 C 0.38235 0.89138 0.81479 0.0
C455 C 0.38375 0.85238 0.83228 0.0
C456 C 0.38728 0.9259 0.8394 0.0
C457 C 0.39308 0.84764 0.87388 0.0
C458 C 0.39879 0.88185 0.89856 0.0
C459 C 0.39639 0.9554 0.90701 0.0
C460 C 0.3925 -0.0054 0.89024 0.0
C461 C 0.39443 0.92104 0.88185 0.0
C462 C 0.38656 -0.00062 0.84797 0.0
C463 C 0.38336 0.96517 0.82271 0.0
H464 H 0.36943 0.22533 0.03854 0.0
H465 H 0.3016 0.1147 0.05789 0.0
H466 H 0.26421 0.14694 0.11394 0.0
H467 H 0.26235 0.20128 0.16627 0.0
H468 H 0.3311 0.31137 0.14696 0.0
H469 H 0.35723 0.28441 0.08241 0.0
C470 C 0.34552 0.20874 0.05424 0.0
C471 C 0.33919 0.16744 0.04525 0.0
C472 C 0.32548 0.22685 0.08734 0.0
C473 C 0.30741 0.14646 0.06476 0.0
C474 C 0.28648 0.16465 0.09724 0.0
C475 C 0.28276 0.21937 0.14762 0.0
C476 C 0.29593 0.25755 0.16165 0.0
C477 C 0.2973 0.20386 0.11041 0.0
C478 C 0.32122 0.28151 0.13689 0.0
C479 C 0.33603 0.26622 0.1 0.0
H480 H 0.14575 0.06552 0.43446 0.0
H481 H 0.03839 0.14215 0.44485 0.0
H482 H 0.06702 0.19 0.39577 0.0
H483 H 0.12543 0.21408 0.35775 0.0
H484 H 0.23609 0.14172 0.35146 0.0
H485 H 0.20295 0.08745 0.39054 0.0
C486 C 0.12838 0.09228 0.42519 0.0
C487 C 0.09028 0.10071 0.44328 0.0
C488 C 0.14575 0.12043 0.39818 0.0
C489 C 0.06799 0.13546 0.43148 0.0
C490 C 0.08433 0.16276 0.40353 0.0
C491 C 0.14235 0.18632 0.36458 0.0
C492 C 0.18342 0.18223 0.35257 0.0
C493 C 0.12372 0.15624 0.38797 0.0
C494 C 0.20453 0.14569 0.36075 0.0
C495 C 0.18566 0.11481 0.38322 0.0
H496 H 0.8536 0.19699 0.1546 0.0
H497 H 0.93549 0.17822 0.25726 0.0
H498 H 0.98171 0.13872 0.21356 0.0
H499 H -0.00574 0.10282 0.14828 0.0
H500 H 0.90853 0.11802 0.04826 0.0
H501 H 0.86831 0.16574 0.08901 0.0
C502 C 0.8818 0.1848 0.16749 0.0
C503 C 0.89077 0.19013 0.2093 0.0
C504 C 0.90729 0.16105 0.14273 0.0
C505 C 0.92769 0.17435 0.22522 0.0
C506 C 0.95402 0.15159 0.2003 0.0
C507 C 0.96711 0.11711 0.1353 0.0
C508 C 0.95406 0.10668 0.09557 0.0
C509 C 0.94344 0.14368 0.15934 0.0
C510 C 0.91881 0.12521 0.07902 0.0
C511 C 0.89587 0.15253 0.10224 0.0
H512 H 0.06581 0.70146 0.45797 0.0
H513 H 0.01752 0.66431 0.34045 0.0
H514 H 0.0793 0.68937 0.30702 0.0
H515 H 0.15014 0.71161 0.31283 0.0
H516 H 0.2012 0.7423 0.43121 0.0
H517 H 0.13494 0.729 0.46307 0.0
C518 C 0.06816 0.69996 0.42487 0.0
C519 C 0.03723 0.68092 0.40163 0.0
C520 C 0.10471 0.7119 0.40636 0.0
C521 C 0.04094 0.67885 0.35888 0.0
C522 C 0.07644 0.69268 0.33991 0.0
C523 C 0.14695 0.71561 0.34564 0.0
C524 C 0.18087 0.72726 0.36976 0.0
C525 C 0.10916 0.70741 0.36364 0.0
C526 C 0.17582 0.73273 0.41207 0.0
C527 C 0.1379 0.72539 0.43021 0.0
H528 H 0.69185 0.97133 0.58332 0.0
H529 H 0.56873 0.933 0.61065 0.0
H530 H 0.59491 0.88813 0.66452 0.0
H531 H 0.65279 0.86192 0.70569 0.0
H532 H 0.77533 0.90223 0.67804 0.0
H533 H 0.74912 0.94418 0.62258 0.0
C534 C 0.67064 0.95299 0.60081 0.0
C535 C 0.6284 0.95567 0.59302 0.0
C536 C 0.68576 0.92775 0.63193 0.0
C537 C 0.60143 0.93162 0.61605 0.0
C538 C 0.61636 0.906 0.64693 0.0
C539 C 0.67374 0.87977 0.68743 0.0
C540 C 0.71591 0.87901 0.69625 0.0
C541 C 0.65846 0.90418 0.65546 0.0
C542 C 0.74268 0.90233 0.67222 0.0
C543 C 0.72776 0.92635 0.64035 0.0
H544 H 0.5411 0.39021 0.94814 0.0
H545 H 0.46397 0.36526 0.05189 0.0
H546 H 0.43691 0.305 0.01748 0.0
H547 H 0.42391 0.26976 0.95253 0.0
H548 H 0.49293 0.30224 0.8456 0.0
H549 H 0.53573 0.34775 0.88664 0.0
C550 C 0.51921 0.37093 0.96363 0.0
C551 C 0.50383 0.38256 0.00202 0.0
C552 C 0.50227 0.3376 0.94282 0.0
C553 C 0.47559 0.3573 0.02188 0.0
C554 C 0.46014 0.32284 0.00226 0.0
C555 C 0.44948 0.28559 0.93879 0.0
C556 C 0.45554 0.28296 0.89642 0.0
C557 C 0.47157 0.31408 0.96188 0.0
C558 C 0.48804 0.304 0.87835 0.0
C559 C 0.51209 0.33032 0.90169 0.0
H560 H 0.9666 0.80405 0.37151 0.0
H561 H 0.87877 0.76842 0.4626 0.0
H562 H 0.91169 0.81299 0.51294 0.0
H563 H 0.95911 0.86957 0.52738 0.0
H564 H 0.04659 0.90469 0.4353 0.0
H565 H 0.02029 0.85269 0.3892 0.0
C566 C 0.95519 0.80549 0.40264 0.0
C567 C 0.92003 0.7836 0.41326 0.0
C568 C 0.97381 0.83158 0.43103 0.0
C569 C 0.90587 0.78505 0.45378 0.0
C570 C 0.92442 0.81085 0.48242 0.0
C571 C 0.97276 0.8655 0.49744 0.0
C572 C 0.00416 0.89167 0.48455 0.0
C573 C 0.95739 0.8355 0.47084 0.0
C574 C 0.02206 0.88539 0.44593 0.0
C575 C 0.00701 0.85566 0.41942 0.0
H576 H 0.49215 0.58897 0.58849 0.0
H577 H 0.39429 0.60041 0.49981 0.0
H578 H 0.362 0.65337 0.54142 0.0
H579 H 0.35794 0.69039 0.60538 0.0
H580 H 0.45182 0.67513 0.69795 0.0
H581 H 0.48985 0.62973 0.65198 0.0
C582 C 0.46419 0.60372 0.57799 0.0
C583 C 0.44544 0.591 0.54131 0.0
C584 C 0.44501 0.63291 0.60285 0.0
C585 C 0.40901 0.60974 0.5281 0.0
C586 C 0.39057 0.63987 0.55187 0.0
C587 C 0.3869 0.67751 0.61565 0.0
C588 C 0.40177 0.68575 0.65532 0.0
C589 C 0.40771 0.65073 0.58977 0.0
C590 C 0.43955 0.66903 0.66769 0.0
C591 C 0.46122 0.64305 0.64146 0.0
H592 H 0.54174 0.22496 0.96661 0.0
H593 H 0.49505 0.18236 0.85035 0.0
H594 H 0.55036 0.21723 0.81489 0.0
H595 H 0.6179 0.24768 0.8185 0.0
H596 H 0.6686 0.28421 0.93528 0.0
H597 H 0.60541 0.26366 0.96924 0.0
C598 C 0.54297 0.2243 0.93342 0.0
C599 C 0.51504 0.20052 0.91102 0.0
C600 C 0.57611 0.2422 0.9136 0.0
C601 C 0.51672 0.20006 0.8681 0.0
C602 C 0.54846 0.21963 0.84794 0.0
C603 C 0.61524 0.2513 0.85141 0.0
C604 C 0.64836 0.26611 0.87459 0.0
C605 C 0.57951 0.23863 0.87064 0.0
C606 C 0.64384 0.27194 0.91694 0.0
C607 C 0.60773 0.26035 0.9363 0.0
H608 H 0.04362 0.44363 0.14653 0.0
H609 H 0.1187 0.39007 0.05233 0.0
H610 H 0.13984 0.33567 0.09907 0.0
H611 H 0.15092 0.31568 0.16975 0.0
H612 H 0.0868 0.37734 0.26692 0.0
H613 H 0.04571 0.41504 0.21637 0.0
C614 C 0.0634 0.41909 0.13606 0.0
C615 C 0.0801 0.42058 0.09656 0.0
C616 C 0.07755 0.38973 0.16395 0.0
C617 C 0.10597 0.38928 0.0829 0.0
C618 C 0.11806 0.3584 0.1096 0.0
C619 C 0.12681 0.33633 0.17971 0.0
C620 C 0.12233 0.34477 0.22156 0.0
C621 C 0.10615 0.36001 0.15075 0.0
C622 C 0.09078 0.37075 0.23466 0.0
C623 C 0.06783 0.39271 0.20576 0.0
H624 H 0.56565 0.62411 0.92147 0.0
H625 H 0.66508 0.5398 0.94447 0.0
H626 H 0.70984 0.57995 0.90049 0.0
H627 H 0.72283 0.64378 0.86361 0.0
H628 H 0.62334 0.72872 0.84245 0.0
H629 H 0.57636 0.68323 0.87749 0.0
C630 C 0.59696 0.61414 0.91636 0.0
C631 C 0.61229 0.57948 0.93674 0.0
C632 C 0.62259 0.63773 0.89182 0.0
C633 C 0.65262 0.56647 0.92924 0.0
C634 C 0.67829 0.5896 0.90437 0.0
C635 C 0.69077 0.65216 0.86622 0.0
C636 C 0.67681 0.68999 0.85113 0.0
C637 C 0.66398 0.62607 0.8868 0.0
C638 C 0.63502 0.69999 0.85409 0.0
C639 C 0.60812 0.67404 0.87423 0.0
H640 H 0.73689 0.33469 0.16804 0.0
H641 H 0.69583 0.38157 0.28461 0.0
H642 H 0.66167 0.43825 0.25022 0.0
H643 H 0.63707 0.46981 0.18717 0.0
H644 H 0.67494 0.4214 0.07017 0.0
H645 H 0.71749 0.37048 0.10481 0.0
C646 C 0.72097 0.35761 0.18599 0.0
C647 C 0.71839 0.35353 0.22877 0.0
C648 C 0.70069 0.38975 0.16598 0.0
C649 C 0.69782 0.38364 0.25158 0.0
C650 C 0.67828 0.41611 0.23196 0.0
C651 C 0.65505 0.44854 0.16912 0.0
C652 C 0.65226 0.44903 0.12614 0.0
C653 C 0.67851 0.41874 0.18915 0.0
C654 C 0.67622 0.42151 0.10332 0.0
C655 C 0.70042 0.39224 0.1231 0.0
H656 H 0.84579 0.48111 0.43307 0.0
H657 H 0.94018 0.48232 0.34102 0.0
H658 H 0.92042 0.41371 0.31915 0.0
H659 H 0.87878 0.35178 0.32935 0.0
H660 H 0.78671 0.35135 0.42375 0.0
H661 H 0.80421 0.42098 0.44248 0.0
C662 C 0.86159 0.46692 0.40757 0.0
C663 C 0.89434 0.48699 0.38859 0.0
C664 C 0.85136 0.42705 0.39651 0.0
C665 C 0.91469 0.46765 0.35599 0.0
C666 C 0.90375 0.42824 0.34384 0.0
C667 C 0.86308 0.36677 0.35444 0.0
C668 C 0.83183 0.3463 0.37547 0.0
C669 C 0.87285 0.40722 0.36466 0.0
C670 C 0.81108 0.36637 0.40731 0.0
C671 C 0.8208 0.40629 0.41781 0.0
H672 H 0.65127 0.54237 0.46362 0.0
H673 H 0.59354 0.53254 0.34493 0.0
H674 H 0.64211 0.58165 0.31691 0.0
H675 H 0.69728 0.63126 0.32786 0.0
H676 H 0.75797 0.63802 0.44519 0.0
H677 H 0.71166 0.58614 0.47249 0.0
C678 C 0.64976 0.5506 0.43147 0.0
C679 C 0.61878 0.53429 0.40635 0.0
C680 C 0.67779 0.57861 0.41569 0.0
C681 C 0.6173 0.54463 0.3647 0.0
C682 C 0.64477 0.57294 0.34883 0.0
C683 C 0.70024 0.62129 0.35942 0.0
C684 C 0.73009 0.63886 0.38495 0.0
C685 C 0.67442 0.59083 0.37433 0.0
C686 C 0.73473 0.6251 0.42534 0.0
C687 C 0.70838 0.5955 0.44081 0.0
H688 H 0.84521 0.4561 0.84851 0.0
H689 H 0.8189 0.37998 0.95278 0.0
H690 H 0.86533 0.42036 -0.00486 0.0
H691 H 0.91966 0.47151 3e-05 0.0
H692 H 0.94939 0.54385 0.89404 0.0
H693 H 0.89496 0.5109 0.85496 0.0
C694 C 0.84899 0.44871 0.88069 0.0
C695 C 0.82896 0.41478 0.89733 0.0
C696 C 0.87668 0.47115 0.90445 0.0
C697 C 0.83426 0.40571 0.9391 0.0
C698 C 0.86088 0.42873 0.96332 0.0
C699 C 0.9137 0.48062 0.96862 0.0
C700 C 0.93875 0.50976 0.94981 0.0
C701 C 0.88323 0.46065 0.94595 0.0
C702 C 0.9308 0.52115 0.90905 0.0
C703 C 0.89972 0.50232 0.88669 0.0
H704 H 0.8504 0.852 0.18845 0.0
H705 H 0.92403 0.74656 0.15924 0.0
H706 H 0.94938 0.7806 0.09761 0.0
H707 H 0.9551 0.84279 0.05628 0.0
H708 H 0.87953 0.94741 0.08484 0.0
H709 H 0.84901 0.91052 0.14167 0.0
C710 C 0.87207 0.83663 0.16853 0.0
C711 C 0.8864 0.79752 0.17862 0.0
C712 C 0.88556 0.85592 0.13289 0.0
C713 C 0.91328 0.77707 0.15214 0.0
C714 C 0.92756 0.7964 0.11696 0.0
C715 C 0.93131 0.85721 0.07439 0.0
C716 C 0.92016 0.89802 0.06682 0.0
C717 C 0.91446 0.83614 0.1075 0.0
C718 C 0.88879 0.91607 0.09006 0.0
C719 C 0.87167 0.8952 0.12292 0.0
H720 H 0.9003 0.18981 0.81946 0.0
H721 H 0.81273 0.19556 0.91817 0.0
H722 H 0.84267 0.1344 0.94841 0.0
H723 H 0.895 0.08147 0.94851 0.0
H724 H 0.9859 0.07772 0.8531 0.0
H725 H 0.95243 0.13561 0.81902 0.0
C726 C 0.88773 0.17771 0.84759 0.0
C727 C 0.85447 0.19735 0.86664 0.0
C728 C 0.90524 0.1427 0.865 0.0
C729 C 0.83857 0.18127 0.90307 0.0
C730 C 0.85546 0.14615 0.92025 0.0
C731 C 0.90702 0.0927 0.91976 0.0
C732 C 0.94258 0.07527 0.90303 0.0
C733 C 0.88883 0.1268 0.90155 0.0
C734 C 0.95837 0.09067 0.86632 0.0
C735 C 0.93946 0.12386 0.84708 0.0
H736 H 0.72494 0.265 0.64285 0.0
H737 H 0.79179 0.16167 0.69021 0.0
H738 H 0.77065 0.12078 0.63068 0.0
H739 H 0.7234 0.11223 0.57187 0.0
H740 H 0.65626 0.2166 0.52628 0.0
H741 H 0.68842 0.25982 0.57757 0.0
C742 C 0.73545 0.23371 0.63959 0.0
C743 C 0.75901 0.21583 0.6708 0.0
C744 C 0.72313 0.21074 0.60567 0.0
C745 C 0.77329 0.17569 0.66639 0.0
C746 C 0.7611 0.15241 0.63252 0.0
C747 C 0.71686 0.14467 0.57231 0.0
C748 C 0.68675 0.16104 0.5459 0.0
C749 C 0.73466 0.16923 0.6028 0.0
C750 C 0.67878 0.20316 0.54669 0.0
C751 C 0.69696 0.22787 0.5762 0.0
H752 H 0.72138 -0.00521 0.4169 0.0
H753 H 0.60974 0.96921 0.35039 0.0
H754 H 0.6419 0.90994 0.31883 0.0
H755 H 0.69885 0.86082 0.31659 0.0
H756 H 0.81113 0.88711 0.38118 0.0
H757 H 0.78144 0.95058 0.40743 0.0
C758 C 0.70433 0.97669 0.39491 0.0
C759 C 0.66303 0.98596 0.38663 0.0
C760 C 0.72279 0.94233 0.37726 0.0
C761 C 0.64154 0.96266 0.35752 0.0
C762 C 0.65975 0.92848 0.33972 0.0
C763 C 0.71672 0.88058 0.33635 0.0
C764 C 0.7566 0.8692 0.3478 0.0
C765 C 0.69978 0.91721 0.35059 0.0
C766 C 0.78011 0.89532 0.37243 0.0
C767 C 0.76321 0.93152 0.38735 0.0
H768 H 0.8359 0.1779 0.44528 0.0
H769 H 0.81758 0.06726 0.37651 0.0
H770 H 0.84934 0.02752 0.43196 0.0
H771 H 0.89267 0.02676 0.49416 0.0
H772 H 0.91215 0.13856 0.56093 0.0
H773 H 0.86804 0.17529 0.51288 0.0
C774 C 0.83854 0.14501 0.44268 0.0
C775 C 0.82579 0.12549 0.40662 0.0
C776 C 0.8567 0.12268 0.47442 0.0
C777 C 0.82796 0.08285 0.40389 0.0
C778 C 0.84606 0.06022 0.43553 0.0
C779 C 0.88594 0.05881 0.49903 0.0
C780 C 0.90602 0.08017 0.53054 0.0
C781 C 0.86194 0.08007 0.47025 0.0
C782 C 0.89725 0.12169 0.53656 0.0
C783 C 0.87242 0.14275 0.5089 0.0
H784 H 0.66358 0.20661 0.1809 0.0
H785 H 0.69318 0.08312 0.21604 0.0
H786 H 0.63741 0.05791 0.17225 0.0
H787 H 0.58096 0.07163 0.12356 0.0
H788 H 0.55055 0.19609 0.092 0.0
H789 H 0.60601 0.22043 0.13559 0.0
C790 C 0.6582 0.17408 0.17871 0.0
C791 C 0.68288 0.14661 0.20096 0.0
C792 C 0.62579 0.16015 0.15457 0.0
C793 C 0.67476 0.10472 0.19879 0.0
C794 C 0.64289 0.09041 0.17391 0.0
C795 C 0.58638 0.10409 0.12637 0.0
C796 C 0.5618 0.13202 0.1044 0.0
C797 C 0.61825 0.11792 0.15165 0.0
C798 C 0.5689 0.17398 0.10866 0.0
C799 C 0.60075 0.18792 0.13338 0.0
H800 H 0.65371 0.90676 0.84369 0.0
H801 H 0.71513 0.88838 0.95954 0.0
H802 H 0.66668 0.93544 0.99261 0.0
H803 H 0.60572 0.98038 0.98813 0.0
H804 H 0.54744 -0.00019 0.87059 0.0
H805 H 0.59619 0.95359 0.83845 0.0
C806 C 0.65643 0.91286 0.87627 0.0
C807 C 0.68738 0.89377 0.89939 0.0
C808 C 0.62918 0.94012 0.89461 0.0
C809 C 0.69129 0.90269 0.94127 0.0
C810 C 0.66363 0.92946 0.96009 0.0
C811 C 0.6038 0.97448 0.95549 0.0
C812 C 0.57292 -0.00673 0.9318 0.0
C813 C 0.63226 0.94813 0.93703 0.0
C814 C 0.57101 0.98582 0.88947 0.0
C815 C 0.59875 0.9593 0.87107 0.0
H816 H 0.94978 -0.00084 0.70845 0.0
H817 H 0.03982 0.90282 0.70276 0.0
H818 H 0.0062 0.86741 0.75933 0.0
H819 H 0.9429 0.85766 0.79858 0.0
H820 H 0.85312 0.95417 0.80435 0.0
H821 H 0.89581 -0.00302 0.76087 0.0
C822 C 0.96235 0.97083 0.72035 0.0
C823 C -0.00385 0.95266 0.70115 0.0
C824 C 0.94307 0.95103 0.75284 0.0
C825 C 0.01326 0.91669 0.717 0.0
C826 C -0.00591 0.89656 0.74921 0.0
C827 C 0.9338 0.88882 0.79185 0.0
C828 C 0.89501 0.90284 0.80387 0.0
C829 C 0.95784 0.91251 0.76586 0.0
C830 C 0.88308 0.94306 0.79537 0.0
C831 C 0.90712 0.96718 0.76993 0.0
H832 H 0.15862 0.84512 0.78702 0.0
H833 H 0.17044 0.74834 0.87557 0.0
H834 H 0.11955 0.78189 0.91927 0.0
H835 H 0.082 0.84471 0.93718 0.0
H836 H 0.0726 0.94208 0.84856 0.0
H837 H 0.11168 0.90187 0.79961 0.0
C838 C 0.14943 0.83102 0.81556 0.0
C839 C 0.16877 0.79501 0.82872 0.0
C840 C 0.12103 0.85081 0.84066 0.0
C841 C 0.15608 0.77633 0.86511 0.0
C842 C 0.12726 0.79565 0.89018 0.0
C843 C 0.08779 0.85683 0.90689 0.0
C844 C 0.07556 0.89686 0.89703 0.0
C845 C 0.11108 0.83387 0.87909 0.0
C846 C 0.08257 0.91177 0.85734 0.0
C847 C 0.10495 0.88882 0.82929 0.0
H848 H 0.96439 0.44233 0.60534 0.0
H849 H 0.84683 0.46474 0.54776 0.0
H850 H 0.81413 0.41984 0.59676 0.0
H851 H 0.8175 0.38211 0.66063 0.0
H852 H 0.93361 0.35986 0.72008 0.0
H853 H 0.96881 0.39672 0.66507 0.0
C854 C 0.93173 0.43688 0.60309 0.0
C855 C 0.90788 0.45758 0.57362 0.0
C856 C 0.91297 0.41156 0.6318 0.0
C857 C 0.86572 0.44977 0.57067 0.0
C858 C 0.84698 0.42415 0.59865 0.0
C859 C 0.8506 0.38507 0.66124 0.0
C860 C 0.87315 0.36948 0.69434 0.0
C861 C 0.87009 0.40626 0.63013 0.0
C862 C 0.91593 0.3722 0.69476 0.0
C863 C 0.93585 0.3933 0.66353 0.0
H864 H 0.50324 0.21365 0.44268 0.0
H865 H 0.51433 0.13452 0.33747 0.0
H866 H 0.45933 0.17198 0.30298 0.0
H867 H 0.40175 0.22034 0.30727 0.0
H868 H 0.39137 0.29949 0.41246 0.0
H869 H 0.4531 0.26907 0.44219 0.0
C870 C 0.49447 0.20513 0.41177 0.0
C871 C 0.51242 0.17084 0.393 0.0
C872 C 0.46251 0.22634 0.39243 0.0
C873 C 0.50075 0.16053 0.35283 0.0
C874 C 0.46913 0.18178 0.33317 0.0
C875 C 0.41319 0.23111 0.33657 0.0
C876 C 0.39146 0.26126 0.35819 0.0
C877 C 0.44864 0.21352 0.35347 0.0
C878 C 0.40723 0.27584 0.39551 0.0
C879 C 0.44247 0.25845 0.41256 0.0
H880 H 0.62995 0.6525 0.08257 0.0
H881 H 0.5383 0.66531 0.17598 0.0
H882 H 0.58633 0.70342 0.21907 0.0
H883 H 0.65783 0.71955 0.23531 0.0
H884 H 0.75162 0.6969 0.14534 0.0
H885 H 0.69968 0.6762 0.09559 0.0
C886 C 0.62016 0.6654 0.11158 0.0
C887 C 0.58084 0.65703 0.12612 0.0
C888 C 0.64882 0.68425 0.13723 0.0
C889 C 0.56838 0.67235 0.16417 0.0
C890 C 0.59602 0.69347 0.18896 0.0
C891 C 0.66675 0.71093 0.20452 0.0
C892 C 0.70841 0.70905 0.1941 0.0
C893 C 0.63692 0.69751 0.1767 0.0
C894 C 0.7197 0.69782 0.15419 0.0
C895 C 0.69005 0.68613 0.12573 0.0
H896 H 0.18248 0.23781 0.71621 0.0
H897 H 0.17425 0.15726 0.81991 0.0
H898 H 0.1216 0.1174 0.78442 0.0
H899 H 0.08819 0.09903 0.71923 0.0
H900 H 0.09667 0.18007 0.6157 0.0
H901 H 0.13837 0.22698 0.65611 0.0
C902 C 0.16819 0.21218 0.73136 0.0
C903 C 0.18227 0.19986 0.7701 0.0
C904 C 0.13849 0.18942 0.71066 0.0
C905 C 0.16361 0.16707 0.78999 0.0
C906 C 0.13388 0.14416 0.76957 0.0
C907 C 0.09842 0.12745 0.7059 0.0
C908 C 0.09031 0.13579 0.6644 0.0
C909 C 0.12261 0.154 0.72918 0.0
C910 C 0.10285 0.17296 0.64754 0.0
C911 C 0.1269 0.19962 0.67053 0.0
H912 H 0.60812 0.22918 0.32388 0.0
H913 H 0.66056 0.19876 0.44113 0.0
H914 H 0.60639 0.2374 0.47567 0.0
H915 H 0.56026 0.29613 0.47041 0.0
H916 H 0.51602 0.33471 0.35175 0.0
H917 H 0.55049 0.27679 0.31968 0.0
C918 C 0.60619 0.22932 0.35707 0.0
C919 C 0.6381 0.21203 0.38015 0.0
C920 C 0.57775 0.25485 0.37621 0.0
C921 C 0.63602 0.21207 0.42299 0.0
C922 C 0.60573 0.23494 0.4426 0.0
C923 C 0.5573 0.29128 0.43767 0.0
C924 C 0.53711 0.32037 0.41317 0.0
C925 C 0.57894 0.25928 0.41928 0.0
C926 C 0.53267 0.31334 0.37096 0.0
C927 C 0.55227 0.28023 0.35265 0.0
H928 H 0.46775 0.9423 0.10493 0.0
H929 H 0.35828 0.01644 0.11314 0.0
H930 H 0.33312 0.97403 0.16847 0.0
H931 H 0.34011 0.91456 0.21144 0.0
H932 H 0.44649 0.83639 0.20135 0.0
H933 H 0.4754 0.88231 0.15007 0.0
C934 C 0.43853 0.94921 0.11907 0.0
C935 C 0.41476 0.98221 0.10487 0.0
C936 C 0.4238 0.92419 0.15045 0.0
C937 C 0.3769 0.99088 0.12324 0.0
C938 C 0.36256 0.96679 0.15498 0.0
C939 C 0.36991 0.90763 0.19853 0.0
C940 C 0.39112 0.8721 0.21017 0.0
C941 C 0.38551 0.93318 0.16841 0.0
C942 C 0.42953 0.86358 0.19282 0.0
C943 C 0.44597 0.88971 0.16344 0.0
H944 H -0.00716 0.70353 0.00551 0.0
H945 H 0.04558 0.67215 0.88854 0.0
H946 H 0.99019 0.70809 0.85334 0.0
H947 H 0.92115 0.73694 0.85585 0.0
H948 H 0.86713 0.76821 0.97191 0.0
H949 H 0.92874 0.74344 0.00779 0.0
C950 C -0.00704 0.70571 0.97237 0.0
C951 C 0.02265 0.6844 0.94956 0.0
C952 C 0.9602 0.72514 0.95231 0.0
C953 C 0.02264 0.68777 0.90668 0.0
C954 C 0.9908 0.70796 0.88654 0.0
C955 C 0.92304 0.73841 0.88903 0.0
C956 C 0.88951 0.75282 0.91155 0.0
C957 C 0.95836 0.72461 0.90904 0.0
C958 C 0.89252 0.75627 0.95426 0.0
C959 C 0.92767 0.74228 0.97463 0.0
H960 H 0.38513 0.5202 0.15199 0.0
H961 H 0.48919 0.4855 0.2263 0.0
H962 H 0.44358 0.46039 0.27952 0.0
H963 H 0.37533 0.43537 0.29706 0.0
H964 H 0.27179 0.46737 0.22062 0.0
H965 H 0.31585 0.50802 0.17697 0.0
C966 C 0.3977 0.50797 0.18029 0.0
C967 C 0.44017 0.50336 0.18487 0.0
C968 C 0.37139 0.49328 0.21042 0.0
C969 C 0.45641 0.48868 0.22198 0.0
C970 C 0.43037 0.47428 0.25236 0.0
C971 C 0.36213 0.45249 0.27178 0.0
C972 C 0.32074 0.44736 0.26119 0.0
C973 C 0.38788 0.47452 0.2459 0.0
C974 C 0.30386 0.47018 0.22876 0.0
C975 C 0.32903 0.49326 0.20366 0.0
H976 H 0.41277 0.64008 -0.00459 0.0
H977 H 0.39102 0.51688 0.95522 0.0
H978 H 0.34788 0.54218 0.89899 0.0
H979 H 0.32586 0.60047 0.85496 0.0
H980 H 0.35196 0.72282 0.89527 0.0
H981 H 0.38344 0.69688 0.95778 0.0
C982 C 0.39803 0.6187 0.97476 0.0
C983 C 0.40569 0.57685 0.97887 0.0
C984 C 0.37435 0.63343 0.94216 0.0
C985 C 0.38575 0.54939 0.95247 0.0
C986 C 0.36134 0.56384 0.92012 0.0
C987 C 0.33764 0.62118 0.87802 0.0
C988 C 0.33726 0.66331 0.87062 0.0
C989 C 0.35683 0.60594 0.91365 0.0
C990 C 0.35253 0.69018 0.9004 0.0
C991 C 0.37054 0.67543 0.93607 0.0
H992 H 0.06993 0.67907 0.57678 0.0
H993 H 0.05259 0.57095 0.64952 0.0
H994 H 0.11079 0.58984 0.69316 0.0
H995 H 0.16983 0.63499 0.70707 0.0
H996 H 0.18818 0.73963 0.62905 0.0
H997 H 0.12669 0.72374 0.59084 0.0
C998 C 0.07829 0.65996 0.60266 0.0
C999 C 0.05698 0.62384 0.61006 0.0
C1000 C 0.11256 0.66995 0.6262 0.0
C1001 C 0.06861 0.59906 0.64332 0.0
C1002 C 0.102 0.60968 0.66806 0.0
C1003 C 0.1603 0.65418 0.6817 0.0
C1004 C 0.18389 0.68812 0.67078 0.0
C1005 C 0.12485 0.64461 0.65913 0.0
C1006 C 0.17108 0.71289 0.63787 0.0
C1007 C 0.13566 0.7041 0.61606 0.0
H1008 H 0.33398 0.29102 0.65373 0.0
H1009 H 0.35211 0.39665 0.73038 0.0
H1010 H 0.36968 0.43721 0.67028 0.0
H1011 H 0.38961 0.43953 0.59811 0.0
H1012 H 0.38137 0.33134 0.52392 0.0
H1013 H 0.34894 0.29479 0.58049 0.0
C1014 C 0.34101 0.32312 0.65711 0.0
C1015 C 0.34213 0.3409 0.69623 0.0
C1016 C 0.35267 0.34563 0.6228 0.0
C1017 C 0.3516 0.38235 0.70046 0.0
C1018 C 0.3615 0.4055 0.66618 0.0
C1019 C 0.37924 0.4084 0.59413 0.0
C1020 C 0.38687 0.38803 0.55724 0.0
C1021 C 0.36342 0.38709 0.62747 0.0
C1022 C 0.37488 0.34743 0.55217 0.0
C1023 C 0.35687 0.32657 0.58455 0.0
H1024 H 0.29506 0.71613 0.13672 0.0
H1025 H 0.30967 0.61266 0.21647 0.0
H1026 H 0.27222 0.56984 0.16787 0.0
H1027 H 0.22197 0.56693 0.11211 0.0
H1028 H 0.19856 0.67398 0.03886 0.0
H1029 H 0.25307 0.71026 0.07475 0.0
C1030 C 0.29176 0.68371 0.14223 0.0
C1031 C 0.30504 0.66722 0.17958 0.0
C1032 C 0.26753 0.66031 0.11578 0.0
C1033 C 0.2999 0.62557 0.18745 0.0
C1034 C 0.27806 0.60132 0.15997 0.0
C1035 C 0.22963 0.59781 0.10327 0.0
C1036 C 0.20592 0.61813 0.07357 0.0
C1037 C 0.25952 0.61907 0.12543 0.0
C1038 C 0.21602 0.65808 0.06227 0.0
C1039 C 0.24718 0.6788 0.08272 0.0
H1040 H 0.70022 0.43717 0.70196 0.0
H1041 H 0.61186 0.35511 0.75381 0.0
H1042 H 0.56263 0.37286 0.70021 0.0
H1043 H 0.54958 0.40258 0.63263 0.0
H1044 H 0.63787 0.48408 0.57991 0.0
H1045 H 0.68264 0.4754 0.63961 0.0
C1046 C 0.66963 0.42445 0.70235 0.0
C1047 C 0.65968 0.39458 0.7312 0.0
C1048 C 0.64212 0.43357 0.67055 0.0
C1049 C 0.6201 0.37801 0.73148 0.0
C1050 C 0.59217 0.38774 0.70064 0.0
C1051 C 0.57858 0.41848 0.63442 0.0
C1052 C 0.59115 0.44295 0.60181 0.0
C1053 C 0.60374 0.41375 0.66888 0.0
C1054 C 0.62806 0.46454 0.60467 0.0
C1055 C 0.65352 0.45973 0.63876 0.0
H1056 H 0.95806 0.66754 0.27794 0.0
H1057 H 0.87953 0.56303 0.26889 0.0
H1058 H 0.92424 0.53308 0.21691 0.0
H1059 H 0.97439 0.54538 0.16331 0.0
H1060 H 0.0469 0.65502 0.16588 0.0
H1061 H 0.01582 0.67456 0.23094 0.0
C1062 C 0.95212 0.63723 0.26601 0.0
C1063 C 0.91596 0.61723 0.27694 0.0
C1064 C 0.97581 0.6222 0.23367 0.0
C1065 C 0.90762 0.5785 0.26099 0.0
C1066 C 0.93269 0.56189 0.23073 0.0
C1067 C 0.9838 0.57337 0.17824 0.0
C1068 C 0.01192 0.59939 0.1591 0.0
C1069 C 0.96501 0.58493 0.21488 0.0
C1070 C 0.02458 0.63493 0.17947 0.0
C1071 C 0.00695 0.64604 0.21675 0.0
H1072 H 0.84479 0.61185 0.58885 0.0
H1073 H 0.8687 0.72384 0.52471 0.0
H1074 H 0.84416 0.76318 0.58343 0.0
H1075 H 0.82717 0.76522 0.65591 0.0
H1076 H 0.8105 0.65316 0.72297 0.0
H1077 H 0.82166 0.61404 0.66017 0.0
C1078 C 0.843 0.64484 0.58722 0.0
C1079 C 0.85797 0.66514 0.55257 0.0
C1080 C 0.83171 0.66706 0.62207 0.0
C1081 C 0.85671 0.70782 0.55099 0.0
C1082 C 0.84334 0.73019 0.58475 0.0
C1083 C 0.82575 0.73222 0.65694 0.0
C1084 C 0.8188 0.7121 0.69429 0.0
C1085 C 0.83275 0.71007 0.62104 0.0
C1086 C 0.81646 0.66937 0.69477 0.0
C1087 C 0.82259 0.64702 0.65884 0.0
H1088 H 0.47234 0.53296 0.33395 0.0
H1089 H 0.35307 0.49098 0.37043 0.0
H1090 H 0.32297 0.55653 0.351 0.0
H1091 H 0.33409 0.62948 0.34049 0.0
H1092 H 0.45448 0.67307 0.30999 0.0
H1093 H 0.48132 0.60324 0.31202 0.0
C1094 C 0.43947 0.53754 0.33607 0.0
C1095 C 0.41504 0.50795 0.35488 0.0
C1096 C 0.42322 0.57623 0.32833 0.0
C1097 C 0.37246 0.51381 0.35666 0.0
C1098 C 0.35546 0.55151 0.34641 0.0
C1099 C 0.36628 0.62365 0.3346 0.0
C1100 C 0.39286 0.65618 0.32703 0.0
C1101 C 0.38119 0.58371 0.33549 0.0
C1102 C 0.43395 0.64834 0.31729 0.0
C1103 C 0.44909 0.60853 0.31794 0.0
H1104 H 0.20456 0.36507 0.84721 0.0
H1105 H 0.31381 0.4011 0.91212 0.0
H1106 H 0.27991 0.46408 0.93448 0.0
H1107 H 0.21657 0.50373 0.94224 0.0
H1108 H 0.10757 0.4683 0.87657 0.0
H1109 H 0.14455 0.41085 0.84597 0.0
C1110 C 0.22078 0.38687 0.86622 0.0
C1111 C 0.2609 0.37835 0.8793 0.0
C1112 C 0.20145 0.42313 0.87806 0.0
C1113 C 0.28251 0.40706 0.90258 0.0
C1114 C 0.26327 0.44298 0.9151 0.0
C1115 C 0.20139 0.4841 0.9202 0.0
C1116 C 0.15951 0.48959 0.9119 0.0
C1117 C 0.22245 0.45073 0.90384 0.0
C1118 C 0.13993 0.46454 0.88313 0.0
C1119 C 0.16086 0.43137 0.86624 0.0
H1120 H 0.21819 0.44324 0.38829 0.0
H1121 H 0.18348 0.34497 0.46783 0.0
H1122 H 0.13417 0.38965 0.50248 0.0
H1123 H 0.09193 0.45152 0.49975 0.0
H1124 H 0.11899 0.54502 0.41129 0.0
H1125 H 0.18025 0.50759 0.39004 0.0
C1126 C 0.20098 0.43236 0.41443 0.0
C1127 C 0.20446 0.39148 0.42623 0.0
C1128 C 0.17046 0.45703 0.43144 0.0
C1129 C 0.18143 0.37674 0.45904 0.0
C1130 C 0.15293 0.40206 0.47827 0.0
C1131 C 0.11173 0.464 0.47638 0.0
C1132 C 0.10092 0.5005 0.45661 0.0
C1133 C 0.14566 0.44147 0.46312 0.0
C1134 C 0.12653 0.5165 0.42632 0.0
C1135 C 0.16156 0.49526 0.41435 0.0
loop_
_geom_bond_atom_site_label_1
_geom_bond_atom_site_label_2
_geom_bond_distance
_geom_bond_site_symmetry_2
_ccdc_geom_bond_type
O0 Zn1 1.953 . S
O0 C16 1.225 1_554 S
Zn1 O0 1.953 . S
Zn1 O2 1.946 1_545 S
Zn1 O8 1.919 1_455 S
Zn1 O13 1.924 . S
O2 Zn1 1.946 1_565 S
O2 Zn3 1.896 1_465 S
O2 Zn4 1.953 1_564 S
O2 Zn5 1.973 . S
Zn3 O2 1.896 1_645 S
Zn3 O6 1.933 1_545 S
Zn3 O9 1.941 . S
Zn3 O10 1.965 1_554 S
Zn4 O2 1.953 1_546 S
Zn4 O11 1.938 1_455 S
Zn4 O12 1.906 1_545 S
Zn4 O22 1.953 . S
Zn5 O2 1.973 . S
Zn5 O7 1.932 1_455 S
Zn5 O14 1.977 1_554 S
Zn5 O15 1.910 . S
O6 Zn3 1.933 1_565 S
O6 C17 1.226 . S
O7 Zn5 1.932 1_655 S
O7 C17 1.307 . S
O8 Zn1 1.919 1_655 S
O8 C19 1.253 . S
O9 Zn3 1.941 . S
O9 C19 1.283 . S
O10 Zn3 1.965 1_556 S
O10 C18 1.303 . S
O11 Zn4 1.938 1_655 S
O11 C18 1.247 . S
O12 Zn4 1.906 1_565 S
O12 C20 1.304 . S
O13 Zn1 1.924 . S
O13 C21 1.311 1_545 S
O14 Zn5 1.977 1_556 S
O14 C20 1.272 . S
O15 Zn5 1.910 . S
O15 C21 1.231 . S
C16 O0 1.225 1_556 S
C16 O22 1.298 . S
C17 O6 1.226 . S
C17 O7 1.307 . S
C18 O10 1.303 . S
C18 O11 1.247 . S
C19 O8 1.253 . S
C19 O9 1.283 . S
C20 O12 1.304 . S
C20 O14 1.272 . S
C21 O13 1.311 1_565 S
C21 O15 1.231 . S
O22 Zn4 1.953 . S
O22 C16 1.298 . S
O23 Zn24 1.953 . S
O23 C39 1.225 . S
Zn24 O23 1.953 . S
Zn24 O25 1.949 . S
Zn24 O31 1.919 . S
Zn24 O36 1.924 . S
O25 Zn24 1.949 . S
O25 Zn26 1.923 . S
O25 Zn27 1.950 . S
O25 Zn28 1.945 . S
Zn26 O25 1.923 . S
Zn26 O29 1.933 . S
Zn26 O32 1.941 . S
Zn26 O33 1.965 . S
Zn27 O25 1.950 . S
Zn27 O34 1.938 . S
Zn27 O35 1.906 . S
Zn27 O45 1.953 . S
Zn28 O25 1.945 . S
Zn28 O30 1.932 . S
Zn28 O37 1.977 . S
Zn28 O38 1.910 . S
O29 Zn26 1.933 . S
O29 C40 1.226 . S
O30 Zn28 1.932 . S
O30 C40 1.307 . S
O31 Zn24 1.919 . S
O31 C42 1.253 . S
O32 Zn26 1.941 . S
O32 C42 1.283 . S
O33 Zn26 1.965 . S
O33 C41 1.303 . S
O34 Zn27 1.938 . S
O34 C41 1.247 . S
O35 Zn27 1.906 . S
O35 C43 1.304 . S
O36 Zn24 1.924 . S
O36 C44 1.311 . S
O37 Zn28 1.977 . S
O37 C43 1.272 . S
O38 Zn28 1.910 . S
O38 C44 1.231 . S
C39 O23 1.225 . S
C39 O45 1.298 . S
C40 O29 1.226 . S
C40 O30 1.307 . S
C41 O33 1.303 . S
C41 O34 1.247 . S
C42 O31 1.253 . S
C42 O32 1.283 . S
C43 O35 1.304 . S
C43 O37 1.272 . S
C44 O36 1.311 . S
C44 O38 1.231 . S
O45 Zn27 1.953 . S
O45 C39 1.298 . S
O46 Zn47 1.953 1_565 S
O46 C62 1.225 . S
Zn47 O46 1.953 1_545 S
Zn47 O48 1.949 . S
Zn47 O54 1.919 1_545 S
Zn47 O59 1.924 . S
O48 Zn47 1.949 . S
O48 Zn49 1.923 . S
O48 Zn50 1.950 . S
O48 Zn51 1.945 . S
Zn49 O48 1.923 . S
Zn49 O52 1.933 . S
Zn49 O55 1.941 . S
Zn49 O56 1.965 . S
Zn50 O48 1.950 . S
Zn50 O57 1.938 . S
Zn50 O58 1.906 . S
Zn50 O68 1.953 . S
Zn51 O48 1.945 . S
Zn51 O53 1.932 . S
Zn51 O60 1.977 . S
Zn51 O61 1.910 . S
O52 Zn49 1.933 . S
O52 C63 1.226 . S
O53 Zn51 1.932 . S
O53 C63 1.307 . S
O54 Zn47 1.919 1_565 S
O54 C65 1.253 . S
O55 Zn49 1.941 . S
O55 C65 1.283 1_545 S
O56 Zn49 1.965 . S
O56 C64 1.303 . S
O57 Zn50 1.938 . S
O57 C64 1.247 . S
O58 Zn50 1.906 . S
O58 C66 1.304 . S
O59 Zn47 1.924 . S
O59 C67 1.311 . S
O60 Zn51 1.977 . S
O60 C66 1.272 . S
O61 Zn51 1.910 . S
O61 C67 1.231 . S
C62 O46 1.225 . S
C62 O68 1.298 1_565 S
C63 O52 1.226 . S
C63 O53 1.307 . S
C64 O56 1.303 . S
C64 O57 1.247 . S
C65 O54 1.253 . S
C65 O55 1.283 1_565 S
C66 O58 1.304 . S
C66 O60 1.272 . S
C67 O59 1.311 . S
C67 O61 1.231 . S
O68 Zn50 1.953 . S
O68 C62 1.298 1_545 S
O69 Zn70 1.953 . S
O69 C85 1.225 . S
Zn70 O69 1.953 . S
Zn70 O71 1.949 . S
Zn70 O77 1.919 . S
Zn70 O82 1.924 . S
O71 Zn70 1.949 . S
O71 Zn72 1.923 . S
O71 Zn73 1.950 . S
O71 Zn74 1.945 . S
Zn72 O71 1.923 . S
Zn72 O75 1.933 . S
Zn72 O78 1.941 . S
Zn72 O79 1.965 . S
Zn73 O71 1.950 . S
Zn73 O80 1.938 . S
Zn73 O81 1.906 . S
Zn73 O91 1.953 . S
Zn74 O71 1.945 . S
Zn74 O76 1.932 . S
Zn74 O83 1.977 . S
Zn74 O84 1.910 . S
O75 Zn72 1.933 . S
O75 C86 1.226 . S
O76 Zn74 1.932 . S
O76 C86 1.307 . S
O77 Zn70 1.919 . S
O77 C88 1.253 . S
O78 Zn72 1.941 . S
O78 C88 1.283 . S
O79 Zn72 1.965 . S
O79 C87 1.303 . S
O80 Zn73 1.938 . S
O80 C87 1.247 . S
O81 Zn73 1.906 . S
O81 C89 1.304 . S
O82 Zn70 1.924 . S
O82 C90 1.311 . S
O83 Zn74 1.977 . S
O83 C89 1.272 . S
O84 Zn74 1.910 . S
O84 C90 1.231 . S
C85 O69 1.225 . S
C85 O91 1.298 . S
C86 O75 1.226 . S
C86 O76 1.307 . S
C87 O79 1.303 . S
C87 O80 1.247 . S
C88 O77 1.253 . S
C88 O78 1.283 . S
C89 O81 1.304 . S
C89 O83 1.272 . S
C90 O82 1.311 . S
C90 O84 1.231 . S
O91 Zn73 1.953 . S
O91 C85 1.298 . S
O92 Zn93 1.953 1_565 S
O92 C108 1.225 . S
Zn93 O92 1.953 1_545 S
Zn93 O94 1.949 . S
Zn93 O100 1.919 . S
Zn93 O105 1.924 1_545 S
O94 Zn93 1.949 . S
O94 Zn95 1.923 . S
O94 Zn96 1.950 1_455 S
O94 Zn97 1.945 . S
Zn95 O94 1.923 . S
Zn95 O98 1.933 . S
Zn95 O101 1.941 . S
Zn95 O102 1.965 1_455 S
Zn96 O94 1.950 1_655 S
Zn96 O103 1.938 . S
Zn96 O104 1.906 . S
Zn96 O114 1.953 1_545 S
Zn97 O94 1.945 . S
Zn97 O99 1.932 . S
Zn97 O106 1.977 . S
Zn97 O107 1.910 1_545 S
O98 Zn95 1.933 . S
O98 C109 1.226 . S
O99 Zn97 1.932 . S
O99 C109 1.307 . S
O100 Zn93 1.919 . S
O100 C111 1.253 . S
O101 Zn95 1.941 . S
O101 C111 1.283 . S
O102 Zn95 1.965 1_655 S
O102 C110 1.303 . S
O103 Zn96 1.938 . S
O103 C110 1.247 . S
O104 Zn96 1.906 . S
O104 C112 1.304 . S
O105 Zn93 1.924 1_565 S
O105 C113 1.311 . S
O106 Zn97 1.977 . S
O106 C112 1.272 1_455 S
O107 Zn97 1.910 1_565 S
O107 C113 1.231 . S
C108 O92 1.225 . S
C108 O114 1.298 1_455 S
C109 O98 1.226 . S
C109 O99 1.307 . S
C110 O102 1.303 . S
C110 O103 1.247 . S
C111 O100 1.253 . S
C111 O101 1.283 . S
C112 O104 1.304 . S
C112 O106 1.272 1_655 S
C113 O105 1.311 . S
C113 O107 1.231 . S
O114 Zn96 1.953 1_565 S
O114 C108 1.298 1_655 S
O115 Zn116 1.953 . S
O115 C131 1.225 . S
Zn116 O115 1.953 . S
Zn116 O117 1.949 . S
Zn116 O123 1.919 . S
Zn116 O128 1.924 . S
O117 Zn116 1.949 . S
O117 Zn118 1.923 . S
O117 Zn119 1.950 . S
O117 Zn120 1.945 . S
Zn118 O117 1.923 . S
Zn118 O121 1.933 . S
Zn118 O124 1.941 . S
Zn118 O125 1.965 . S
Zn119 O117 1.950 . S
Zn119 O126 1.938 . S
Zn119 O127 1.906 . S
Zn119 O137 1.953 . S
Zn120 O117 1.945 . S
Zn120 O122 1.932 . S
Zn120 O129 1.977 . S
Zn120 O130 1.910 . S
O121 Zn118 1.933 . S
O121 C132 1.226 . S
O122 Zn120 1.932 . S
O122 C132 1.307 . S
O123 Zn116 1.919 . S
O123 C134 1.253 . S
O124 Zn118 1.941 . S
O124 C134 1.283 . S
O125 Zn118 1.965 . S
O125 C133 1.303 . S
O126 Zn119 1.938 . S
O126 C133 1.247 . S
O127 Zn119 1.906 . S
O127 C135 1.304 . S
O128 Zn116 1.924 . S
O128 C136 1.311 . S
O129 Zn120 1.977 . S
O129 C135 1.272 . S
O130 Zn120 1.910 . S
O130 C136 1.231 . S
C131 O115 1.225 . S
C131 O137 1.298 . S
C132 O121 1.226 . S
C132 O122 1.307 . S
C133 O125 1.303 . S
C133 O126 1.247 . S
C134 O123 1.253 . S
C134 O124 1.283 . S
C135 O127 1.304 . S
C135 O129 1.272 . S
C136 O128 1.311 . S
C136 O130 1.231 . S
O137 Zn119 1.953 . S
O137 C131 1.298 . S
O138 Zn139 1.953 . S
O138 C154 1.225 . S
Zn139 O138 1.953 . S
Zn139 O140 1.949 . S
Zn139 O146 1.919 1_545 S
Zn139 O151 1.924 1_545 S
O140 Zn139 1.949 . S
O140 Zn141 1.923 . S
O140 Zn142 1.950 . S
O140 Zn143 1.945 1_554 S
Zn141 O140 1.923 . S
Zn141 O144 1.933 . S
Zn141 O147 1.955 . S
Zn141 O148 1.965 . S
Zn142 O140 1.950 . S
Zn142 O149 1.938 . S
Zn142 O150 1.923 . S
Zn142 O160 1.953 . S
Zn143 O140 1.945 1_556 S
Zn143 O145 1.932 . S
Zn143 O152 1.977 . S
Zn143 O153 1.910 1_545 S
O144 Zn141 1.933 . S
O144 C155 1.226 1_554 S
O145 Zn143 1.932 . S
O145 C155 1.307 . S
O146 Zn139 1.919 1_565 S
O146 C157 1.253 . S
O147 Zn141 1.955 . S
O147 C157 1.267 1_545 S
O148 Zn141 1.965 . S
O148 C156 1.303 . S
O149 Zn142 1.938 . S
O149 C156 1.247 . S
O150 Zn142 1.923 . S
O150 C158 1.286 1_554 S
O151 Zn139 1.924 1_565 S
O151 C159 1.311 . S
O152 Zn143 1.977 . S
O152 C158 1.272 . S
O153 Zn143 1.910 1_565 S
O153 C159 1.231 1_556 S
C154 O138 1.225 . S
C154 O160 1.298 . S
C155 O144 1.226 1_556 S
C155 O145 1.307 . S
C156 O148 1.303 . S
C156 O149 1.247 . S
C157 O146 1.253 . S
C157 O147 1.267 1_565 S
C158 O150 1.286 1_556 S
C158 O152 1.272 . S
C159 O151 1.311 . S
C159 O153 1.231 1_554 S
O160 Zn142 1.953 . S
O160 C154 1.298 . S
O161 Zn162 1.953 . S
O161 C177 1.225 . S
Zn162 O161 1.953 . S
Zn162 O163 1.949 . S
Zn162 O169 1.919 . S
Zn162 O174 1.924 . S
O163 Zn162 1.949 . S
O163 Zn164 1.923 . S
O163 Zn165 1.950 . S
O163 Zn166 1.945 . S
Zn164 O163 1.923 . S
Zn164 O167 1.933 . S
Zn164 O170 1.941 . S
Zn164 O171 1.965 . S
Zn165 O163 1.950 . S
Zn165 O172 1.938 . S
Zn165 O173 1.906 . S
Zn165 O183 1.953 . S
Zn166 O163 1.945 . S
Zn166 O168 1.932 . S
Zn166 O175 1.977 . S
Zn166 O176 1.910 . S
O167 Zn164 1.933 . S
O167 C178 1.226 . S
O168 Zn166 1.932 . S
O168 C178 1.307 . S
O169 Zn162 1.919 . S
O169 C180 1.253 . S
O170 Zn164 1.941 . S
O170 C180 1.283 . S
O171 Zn164 1.965 . S
O171 C179 1.303 . S
O172 Zn165 1.938 . S
O172 C179 1.247 . S
O173 Zn165 1.906 . S
O173 C181 1.304 . S
O174 Zn162 1.924 . S
O174 C182 1.311 . S
O175 Zn166 1.977 . S
O175 C181 1.272 . S
O176 Zn166 1.910 . S
O176 C182 1.231 . S
C177 O161 1.225 . S
C177 O183 1.298 . S
C178 O167 1.226 . S
C178 O168 1.307 . S
C179 O171 1.303 . S
C179 O172 1.247 . S
C180 O169 1.253 . S
C180 O170 1.283 . S
C181 O173 1.304 . S
C181 O175 1.272 . S
C182 O174 1.311 . S
C182 O176 1.231 . S
O183 Zn165 1.953 . S
O183 C177 1.298 . S
O184 Zn185 1.953 1_556 S
O184 C200 1.225 . S
Zn185 O184 1.953 1_554 S
Zn185 O186 1.949 . S
Zn185 O192 1.919 1_554 S
Zn185 O197 1.924 . S
O186 Zn185 1.949 . S
O186 Zn187 1.923 . S
O186 Zn188 1.950 . S
O186 Zn189 1.945 . S
Zn187 O186 1.923 . S
Zn187 O190 1.933 . S
Zn187 O193 1.941 1_554 S
Zn187 O194 1.965 . S
Zn188 O186 1.950 . S
Zn188 O195 1.938 . S
Zn188 O196 1.906 . S
Zn188 O206 1.953 1_554 S
Zn189 O186 1.945 . S
Zn189 O191 1.932 . S
Zn189 O198 1.977 . S
Zn189 O199 1.910 . S
O190 Zn187 1.933 . S
O190 C201 1.226 . S
O191 Zn189 1.932 . S
O191 C201 1.307 . S
O192 Zn185 1.919 1_556 S
O192 C203 1.253 . S
O193 Zn187 1.941 1_556 S
O193 C203 1.283 . S
O194 Zn187 1.965 . S
O194 C202 1.303 1_554 S
O195 Zn188 1.938 . S
O195 C202 1.247 1_554 S
O196 Zn188 1.906 . S
O196 C204 1.304 . S
O197 Zn185 1.924 . S
O197 C205 1.311 . S
O198 Zn189 1.977 . S
O198 C204 1.272 . S
O199 Zn189 1.910 . S
O199 C205 1.231 . S
C200 O184 1.225 . S
C200 O206 1.298 . S
C201 O190 1.226 . S
C201 O191 1.307 . S
C202 O194 1.303 1_556 S
C202 O195 1.247 1_556 S
C203 O192 1.253 . S
C203 O193 1.283 . S
C204 O196 1.304 . S
C204 O198 1.272 . S
C205 O197 1.311 . S
C205 O199 1.231 . S
O206 Zn188 1.953 1_556 S
O206 C200 1.298 . S
O207 Zn208 1.953 . S
O207 C223 1.225 . S
Zn208 O207 1.953 . S
Zn208 O209 1.949 . S
Zn208 O215 1.919 . S
Zn208 O220 1.924 . S
O209 Zn208 1.949 . S
O209 Zn210 1.923 . S
O209 Zn211 1.950 . S
O209 Zn212 1.945 . S
Zn210 O209 1.923 . S
Zn210 O213 1.933 . S
Zn210 O216 1.941 . S
Zn210 O217 1.965 . S
Zn211 O209 1.950 . S
Zn211 O218 1.938 . S
Zn211 O219 1.906 . S
Zn211 O229 1.953 . S
Zn212 O209 1.945 . S
Zn212 O214 1.932 . S
Zn212 O221 1.977 . S
Zn212 O222 1.910 . S
O213 Zn210 1.933 . S
O213 C224 1.226 . S
O214 Zn212 1.932 . S
O214 C224 1.307 . S
O215 Zn208 1.919 . S
O215 C226 1.253 . S
O216 Zn210 1.941 . S
O216 C226 1.283 . S
O217 Zn210 1.965 . S
O217 C225 1.303 . S
O218 Zn211 1.938 . S
O218 C225 1.247 . S
O219 Zn211 1.906 . S
O219 C227 1.304 . S
O220 Zn208 1.924 . S
O220 C228 1.311 . S
O221 Zn212 1.977 . S
O221 C227 1.272 . S
O222 Zn212 1.910 . S
O222 C228 1.231 . S
C223 O207 1.225 . S
C223 O229 1.298 . S
C224 O213 1.226 . S
C224 O214 1.307 . S
C225 O217 1.303 . S
C225 O218 1.247 . S
C226 O215 1.253 . S
C226 O216 1.283 . S
C227 O219 1.304 . S
C227 O221 1.272 . S
C228 O220 1.311 . S
C228 O222 1.231 . S
O229 Zn211 1.953 . S
O229 C223 1.298 . S
O230 Zn231 1.953 . S
O230 C246 1.225 . S
Zn231 O230 1.953 . S
Zn231 O232 1.949 . S
Zn231 O238 1.919 . S
Zn231 O243 1.924 . S
O232 Zn231 1.949 . S
O232 Zn233 1.923 1_455 S
O232 Zn234 1.950 . S
O232 Zn235 1.945 . S
Zn233 O232 1.923 1_655 S
Zn233 O236 1.933 . S
Zn233 O239 1.941 . S
Zn233 O240 1.965 . S
Zn234 O232 1.950 . S
Zn234 O241 1.938 . S
Zn234 O242 1.906 . S
Zn234 O252 1.953 . S
Zn235 O232 1.945 . S
Zn235 O237 1.919 1_455 S
Zn235 O244 1.977 . S
Zn235 O245 1.910 . S
O236 Zn233 1.933 . S
O236 C247 1.226 . S
O237 Zn235 1.919 1_655 S
O237 C247 1.322 . S
O238 Zn231 1.919 . S
O238 C249 1.253 1_455 S
O239 Zn233 1.941 . S
O239 C249 1.283 . S
O240 Zn233 1.965 . S
O240 C248 1.303 . S
O241 Zn234 1.938 . S
O241 C248 1.247 1_455 S
O242 Zn234 1.906 . S
O242 C250 1.304 . S
O243 Zn231 1.924 . S
O243 C251 1.311 . S
O244 Zn235 1.977 . S
O244 C250 1.272 . S
O245 Zn235 1.910 . S
O245 C251 1.231 . S
C246 O230 1.225 . S
C246 O252 1.298 . S
C247 O236 1.226 . S
C247 O237 1.322 . S
C248 O240 1.303 . S
C248 O241 1.247 1_655 S
C249 O238 1.253 1_655 S
C249 O239 1.283 . S
C250 O242 1.304 . S
C250 O244 1.272 . S
C251 O243 1.311 . S
C251 O245 1.231 . S
O252 Zn234 1.953 . S
O252 C246 1.298 . S
O253 Zn254 1.953 . S
O253 C269 1.225 . S
Zn254 O253 1.953 . S
Zn254 O255 1.949 . S
Zn254 O261 1.919 . S
Zn254 O266 1.924 . S
O255 Zn254 1.949 . S
O255 Zn256 1.923 . S
O255 Zn257 1.950 . S
O255 Zn258 1.945 . S
Zn256 O255 1.923 . S
Zn256 O259 1.933 . S
Zn256 O262 1.941 . S
Zn256 O263 1.965 . S
Zn257 O255 1.950 . S
Zn257 O264 1.938 . S
Zn257 O265 1.906 . S
Zn257 O275 1.953 . S
Zn258 O255 1.945 . S
Zn258 O260 1.932 . S
Zn258 O267 1.977 . S
Zn258 O268 1.910 . S
O259 Zn256 1.933 . S
O259 C270 1.226 . S
O260 Zn258 1.932 . S
O260 C270 1.307 . S
O261 Zn254 1.919 . S
O261 C272 1.253 . S
O262 Zn256 1.941 . S
O262 C272 1.283 . S
O263 Zn256 1.965 . S
O263 C271 1.303 . S
O264 Zn257 1.938 . S
O264 C271 1.247 . S
O265 Zn257 1.906 . S
O265 C273 1.304 . S
O266 Zn254 1.924 . S
O266 C274 1.311 . S
O267 Zn258 1.977 . S
O267 C273 1.272 . S
O268 Zn258 1.910 . S
O268 C274 1.231 . S
C269 O253 1.225 . S
C269 O275 1.298 . S
C270 O259 1.226 . S
C270 O260 1.307 . S
C271 O263 1.303 . S
C271 O264 1.247 . S
C272 O261 1.253 . S
C272 O262 1.283 . S
C273 O265 1.304 . S
C273 O267 1.272 . S
C274 O266 1.311 . S
C274 O268 1.231 . S
O275 Zn257 1.953 . S
O275 C269 1.298 . S
O276 Zn277 1.953 . S
O276 C292 1.225 . S
Zn277 O276 1.953 . S
Zn277 O278 1.949 . S
Zn277 O284 1.919 . S
Zn277 O289 1.924 . S
O278 Zn277 1.949 . S
O278 Zn279 1.923 . S
O278 Zn280 1.950 . S
O278 Zn281 1.945 . S
Zn279 O278 1.923 . S
Zn279 O282 1.933 . S
Zn279 O285 1.941 . S
Zn279 O286 1.965 . S
Zn280 O278 1.950 . S
Zn280 O287 1.938 . S
Zn280 O288 1.906 . S
Zn280 O298 1.953 . S
Zn281 O278 1.945 . S
Zn281 O283 1.932 . S
Zn281 O290 1.977 . S
Zn281 O291 1.910 . S
O282 Zn279 1.933 . S
O282 C293 1.226 . S
O283 Zn281 1.932 . S
O283 C293 1.307 . S
O284 Zn277 1.919 . S
O284 C295 1.253 . S
O285 Zn279 1.941 . S
O285 C295 1.283 . S
O286 Zn279 1.965 . S
O286 C294 1.303 . S
O287 Zn280 1.938 . S
O287 C294 1.247 . S
O288 Zn280 1.906 . S
O288 C296 1.304 . S
O289 Zn277 1.924 . S
O289 C297 1.311 . S
O290 Zn281 1.977 . S
O290 C296 1.272 . S
O291 Zn281 1.910 . S
O291 C297 1.231 . S
C292 O276 1.225 . S
C292 O298 1.298 . S
C293 O282 1.226 . S
C293 O283 1.307 . S
C294 O286 1.303 . S
C294 O287 1.247 . S
C295 O284 1.253 . S
C295 O285 1.283 . S
C296 O288 1.304 . S
C296 O290 1.272 . S
C297 O289 1.311 . S
C297 O291 1.231 . S
O298 Zn280 1.953 . S
O298 C292 1.298 . S
O299 Zn300 1.953 . S
O299 C315 1.225 . S
Zn300 O299 1.953 . S
Zn300 O301 1.949 . S
Zn300 O307 1.919 . S
Zn300 O312 1.924 . S
O301 Zn300 1.949 . S
O301 Zn302 1.923 . S
O301 Zn303 1.950 . S
O301 Zn304 1.945 . S
Zn302 O301 1.923 . S
Zn302 O305 1.933 . S
Zn302 O308 1.941 . S
Zn302 O309 1.965 . S
Zn303 O301 1.950 . S
Zn303 O310 1.938 . S
Zn303 O311 1.906 . S
Zn303 O321 1.953 . S
Zn304 O301 1.945 . S
Zn304 O306 1.932 . S
Zn304 O313 1.977 . S
Zn304 O314 1.910 . S
O305 Zn302 1.933 . S
O305 C316 1.226 . S
O306 Zn304 1.932 . S
O306 C316 1.307 . S
O307 Zn300 1.919 . S
O307 C318 1.253 . S
O308 Zn302 1.941 . S
O308 C318 1.283 . S
O309 Zn302 1.965 . S
O309 C317 1.303 . S
O310 Zn303 1.938 . S
O310 C317 1.247 . S
O311 Zn303 1.906 . S
O311 C319 1.304 . S
O312 Zn300 1.924 . S
O312 C320 1.311 . S
O313 Zn304 1.977 . S
O313 C319 1.272 . S
O314 Zn304 1.910 . S
O314 C320 1.231 . S
C315 O299 1.225 . S
C315 O321 1.298 . S
C316 O305 1.226 . S
C316 O306 1.307 . S
C317 O309 1.303 . S
C317 O310 1.247 . S
C318 O307 1.253 . S
C318 O308 1.283 . S
C319 O311 1.304 . S
C319 O313 1.272 . S
C320 O312 1.311 . S
C320 O314 1.231 . S
O321 Zn303 1.953 . S
O321 C315 1.298 . S
O322 Zn323 1.953 . S
O322 C338 1.225 . S
Zn323 O322 1.953 . S
Zn323 O324 1.949 . S
Zn323 O330 1.919 . S
Zn323 O335 1.924 . S
O324 Zn323 1.949 . S
O324 Zn325 1.923 . S
O324 Zn326 1.950 . S
O324 Zn327 1.945 . S
Zn325 O324 1.923 . S
Zn325 O328 1.933 . S
Zn325 O331 1.941 . S
Zn325 O332 1.965 . S
Zn326 O324 1.950 . S
Zn326 O333 1.938 . S
Zn326 O334 1.906 . S
Zn326 O344 1.953 . S
Zn327 O324 1.945 . S
Zn327 O329 1.932 . S
Zn327 O336 1.977 . S
Zn327 O337 1.910 . S
O328 Zn325 1.933 . S
O328 C339 1.226 . S
O329 Zn327 1.932 . S
O329 C339 1.307 . S
O330 Zn323 1.919 . S
O330 C341 1.253 . S
O331 Zn325 1.941 . S
O331 C341 1.283 . S
O332 Zn325 1.965 . S
O332 C340 1.303 . S
O333 Zn326 1.938 . S
O333 C340 1.247 . S
O334 Zn326 1.906 . S
O334 C342 1.304 . S
O335 Zn323 1.924 . S
O335 C343 1.311 . S
O336 Zn327 1.977 . S
O336 C342 1.272 . S
O337 Zn327 1.910 . S
O337 C343 1.231 . S
C338 O322 1.225 . S
C338 O344 1.298 . S
C339 O328 1.226 . S
C339 O329 1.307 . S
C340 O332 1.303 . S
C340 O333 1.247 . S
C341 O330 1.253 . S
C341 O331 1.283 . S
C342 O334 1.304 . S
C342 O336 1.272 . S
C343 O335 1.311 . S
C343 O337 1.231 . S
O344 Zn326 1.953 . S
O344 C338 1.298 . S
O345 Zn346 1.953 . S
O345 C361 1.225 1_455 S
Zn346 O345 1.953 . S
Zn346 O347 1.949 . S
Zn346 O353 1.919 . S
Zn346 O358 1.924 1_455 S
O347 Zn346 1.949 . S
O347 Zn348 1.923 . S
O347 Zn349 1.950 1_554 S
O347 Zn350 1.945 . S
Zn348 O347 1.923 . S
Zn348 O351 1.933 . S
Zn348 O354 1.941 . S
Zn348 O355 1.965 1_554 S
Zn349 O347 1.950 1_556 S
Zn349 O356 1.938 . S
Zn349 O357 1.906 . S
Zn349 O367 1.948 1_455 S
Zn350 O347 1.945 . S
Zn350 O352 1.932 . S
Zn350 O359 1.977 . S
Zn350 O360 1.910 . S
O351 Zn348 1.933 . S
O351 C362 1.226 . S
O352 Zn350 1.932 . S
O352 C362 1.307 . S
O353 Zn346 1.919 . S
O353 C364 1.253 . S
O354 Zn348 1.941 . S
O354 C364 1.283 . S
O355 Zn348 1.965 1_556 S
O355 C363 1.303 . S
O356 Zn349 1.938 . S
O356 C363 1.247 . S
O357 Zn349 1.906 . S
O357 C365 1.304 . S
O358 Zn346 1.924 1_655 S
O358 C366 1.311 . S
O359 Zn350 1.977 . S
O359 C365 1.272 1_554 S
O360 Zn350 1.910 . S
O360 C366 1.231 1_455 S
C361 O345 1.225 1_655 S
C361 O367 1.300 1_554 S
C362 O351 1.226 . S
C362 O352 1.307 . S
C363 O355 1.303 . S
C363 O356 1.247 . S
C364 O353 1.253 . S
C364 O354 1.283 . S
C365 O357 1.304 . S
C365 O359 1.272 1_556 S
C366 O358 1.311 . S
C366 O360 1.231 1_655 S
O367 Zn349 1.948 1_655 S
O367 C361 1.300 1_556 S
H368 C374 0.930 . S
H369 C377 0.930 . S
H370 C378 0.930 . S
H371 C379 0.930 . S
H372 C382 0.930 . S
H373 C383 0.930 . S
C374 H368 0.930 . S
C374 C375 1.355 . S
C374 C376 1.415 . S
C375 C374 1.355 . S
C375 C377 1.419 . S
C376 C374 1.415 . S
C376 C381 1.425 . S
C376 C383 1.409 . S
C377 H369 0.930 . S
C377 C375 1.419 . S
C377 C378 1.362 . S
C378 H370 0.930 . S
C378 C377 1.362 . S
C378 C381 1.409 . S
C379 H371 0.930 . S
C379 C380 1.355 . S
C379 C381 1.415 . S
C380 C379 1.355 . S
C380 C382 1.419 . S
C381 C376 1.425 . S
C381 C378 1.409 . S
C381 C379 1.415 . S
C382 H372 0.930 . S
C382 C380 1.419 . S
C382 C383 1.362 . S
C383 H373 0.930 . S
C383 C376 1.409 . S
C383 C382 1.362 . S
H384 C390 0.930 . S
H385 C393 0.930 1_545 S
H386 C394 0.930 . S
H387 C395 0.930 . S
H388 C398 0.930 . S
H389 C399 0.930 . S
C390 H384 0.930 . S
C390 C391 1.355 . S
C390 C392 1.415 . S
C391 C390 1.355 . S
C391 C393 1.419 . S
C392 C390 1.415 . S
C392 C397 1.425 . S
C392 C399 1.409 . S
C393 H385 0.930 1_565 S
C393 C391 1.419 . S
C393 C394 1.362 . S
C394 H386 0.930 . S
C394 C393 1.362 . S
C394 C397 1.409 . S
C395 H387 0.930 . S
C395 C396 1.355 . S
C395 C397 1.415 . S
C396 C395 1.355 . S
C396 C398 1.419 . S
C397 C392 1.425 . S
C397 C394 1.409 . S
C397 C395 1.415 . S
C398 H388 0.930 . S
C398 C396 1.419 . S
C398 C399 1.362 . S
C399 H389 0.930 . S
C399 C392 1.409 . S
C399 C398 1.362 . S
H400 C406 0.930 . S
H401 C409 0.930 1_545 S
H402 C410 0.930 . S
H403 C411 0.930 . S
H404 C414 0.930 . S
H405 C415 0.930 . S
C406 H400 0.930 . S
C406 C407 1.355 . S
C406 C408 1.415 . S
C407 C406 1.355 . S
C407 C409 1.419 . S
C408 C406 1.415 . S
C408 C413 1.425 . S
C408 C415 1.409 . S
C409 H401 0.930 1_565 S
C409 C407 1.419 . S
C409 C410 1.362 . S
C410 H402 0.930 . S
C410 C409 1.362 . S
C410 C413 1.409 . S
C411 H403 0.930 . S
C411 C412 1.355 . S
C411 C413 1.415 . S
C412 C411 1.355 . S
C412 C414 1.419 . S
C413 C408 1.425 . S
C413 C410 1.409 . S
C413 C411 1.415 . S
C414 H404 0.930 . S
C414 C412 1.419 . S
C414 C415 1.362 . S
C415 H405 0.930 . S
C415 C408 1.409 . S
C415 C414 1.362 . S
H416 C422 0.930 . S
H417 C425 0.930 . S
H418 C426 0.930 . S
H419 C427 0.930 . S
H420 C430 0.930 . S
H421 C431 0.930 . S
C422 H416 0.930 . S
C422 C423 1.355 . S
C422 C424 1.415 . S
C423 C422 1.355 . S
C423 C425 1.419 . S
C424 C422 1.415 . S
C424 C429 1.425 . S
C424 C431 1.409 . S
C425 H417 0.930 . S
C425 C423 1.419 . S
C425 C426 1.362 . S
C426 H418 0.930 . S
C426 C425 1.362 . S
C426 C429 1.409 . S
C427 H419 0.930 . S
C427 C428 1.355 . S
C427 C429 1.415 . S
C428 C427 1.355 . S
C428 C430 1.419 . S
C429 C424 1.425 . S
C429 C426 1.409 . S
C429 C427 1.415 . S
C430 H420 0.930 . S
C430 C428 1.419 . S
C430 C431 1.362 . S
C431 H421 0.930 . S
C431 C424 1.409 . S
C431 C430 1.362 . S
H432 C438 0.930 . S
H433 C441 0.930 . S
H434 C442 0.930 . S
H435 C443 0.930 . S
H436 C446 0.930 . S
H437 C447 0.930 . S
C438 H432 0.930 . S
C438 C439 1.355 . S
C438 C440 1.415 . S
C439 C438 1.355 . S
C439 C441 1.419 . S
C440 C438 1.415 . S
C440 C445 1.425 . S
C440 C447 1.409 . S
C441 H433 0.930 . S
C441 C439 1.419 . S
C441 C442 1.362 . S
C442 H434 0.930 . S
C442 C441 1.362 . S
C442 C445 1.409 . S
C443 H435 0.930 . S
C443 C444 1.355 . S
C443 C445 1.415 . S
C444 C443 1.355 . S
C444 C446 1.419 . S
C445 C440 1.425 . S
C445 C442 1.409 . S
C445 C443 1.415 . S
C446 H436 0.930 . S
C446 C444 1.419 . S
C446 C447 1.362 . S
C447 H437 0.930 . S
C447 C440 1.409 . S
C447 C446 1.362 . S
H448 C454 0.930 . S
H449 C457 0.930 . S
H450 C458 0.930 . S
H451 C459 0.930 . S
H452 C462 0.930 1_545 S
H453 C463 0.930 . S
C454 H448 0.930 . S
C454 C455 1.355 . S
C454 C456 1.415 . S
C455 C454 1.355 . S
C455 C457 1.419 . S
C456 C454 1.415 . S
C456 C461 1.425 . S
C456 C463 1.409 . S
C457 H449 0.930 . S
C457 C455 1.419 . S
C457 C458 1.362 . S
C458 H450 0.930 . S
C458 C457 1.362 . S
C458 C461 1.409 . S
C459 H451 0.930 . S
C459 C460 1.355 . S
C459 C461 1.415 . S
C460 C459 1.355 . S
C460 C462 1.419 . S
C461 C456 1.425 . S
C461 C458 1.409 . S
C461 C459 1.415 . S
C462 H452 0.930 1_565 S
C462 C460 1.419 . S
C462 C463 1.362 . S
C463 H453 0.930 . S
C463 C456 1.409 . S
C463 C462 1.362 . S
H464 C470 0.930 . S
H465 C473 0.930 . S
H466 C474 0.930 . S
H467 C475 0.930 . S
H468 C478 0.930 . S
H469 C479 0.930 . S
C470 H464 0.930 . S
C470 C471 1.355 . S
C470 C472 1.415 . S
C471 C470 1.355 . S
C471 C473 1.419 . S
C472 C470 1.415 . S
C472 C477 1.425 . S
C472 C479 1.409 . S
C473 H465 0.930 . S
C473 C471 1.419 . S
C473 C474 1.362 . S
C474 H466 0.930 . S
C474 C473 1.362 . S
C474 C477 1.409 . S
C475 H467 0.930 . S
C475 C476 1.355 . S
C475 C477 1.415 . S
C476 C475 1.355 . S
C476 C478 1.419 . S
C477 C472 1.425 . S
C477 C474 1.409 . S
C477 C475 1.415 . S
C478 H468 0.930 . S
C478 C476 1.419 . S
C478 C479 1.362 . S
C479 H469 0.930 . S
C479 C472 1.409 . S
C479 C478 1.362 . S
H480 C486 0.930 . S
H481 C489 0.930 . S
H482 C490 0.930 . S
H483 C491 0.930 . S
H484 C494 0.930 . S
H485 C495 0.930 . S
C486 H480 0.930 . S
C486 C487 1.355 . S
C486 C488 1.415 . S
C487 C486 1.355 . S
C487 C489 1.419 . S
C488 C486 1.415 . S
C488 C493 1.425 . S
C488 C495 1.409 . S
C489 H481 0.930 . S
C489 C487 1.419 . S
C489 C490 1.362 . S
C490 H482 0.930 . S
C490 C489 1.362 . S
C490 C493 1.409 . S
C491 H483 0.930 . S
C491 C492 1.355 . S
C491 C493 1.415 . S
C492 C491 1.355 . S
C492 C494 1.419 . S
C493 C488 1.425 . S
C493 C490 1.409 . S
C493 C491 1.415 . S
C494 H484 0.930 . S
C494 C492 1.419 . S
C494 C495 1.362 . S
C495 H485 0.930 . S
C495 C488 1.409 . S
C495 C494 1.362 . S
H496 C502 0.930 . S
H497 C505 0.930 . S
H498 C506 0.930 . S
H499 C507 0.930 . S
H500 C510 0.930 . S
H501 C511 0.930 . S
C502 H496 0.930 . S
C502 C503 1.355 . S
C502 C504 1.415 . S
C503 C502 1.355 . S
C503 C505 1.419 . S
C504 C502 1.415 . S
C504 C509 1.425 . S
C504 C511 1.409 . S
C505 H497 0.930 . S
C505 C503 1.419 . S
C505 C506 1.362 . S
C506 H498 0.930 . S
C506 C505 1.362 . S
C506 C509 1.409 . S
C507 H499 0.930 . S
C507 C508 1.355 . S
C507 C509 1.415 . S
C508 C507 1.355 . S
C508 C510 1.419 . S
C509 C504 1.425 . S
C509 C506 1.409 . S
C509 C507 1.415 . S
C510 H500 0.930 . S
C510 C508 1.419 . S
C510 C511 1.362 . S
C511 H501 0.930 . S
C511 C504 1.409 . S
C511 C510 1.362 . S
H512 C518 0.930 . S
H513 C521 0.930 . S
H514 C522 0.930 . S
H515 C523 0.930 . S
H516 C526 0.930 . S
H517 C527 0.930 . S
C518 H512 0.930 . S
C518 C519 1.355 . S
C518 C520 1.415 . S
C519 C518 1.355 . S
C519 C521 1.419 . S
C520 C518 1.415 . S
C520 C525 1.425 . S
C520 C527 1.409 . S
C521 H513 0.930 . S
C521 C519 1.419 . S
C521 C522 1.362 . S
C522 H514 0.930 . S
C522 C521 1.362 . S
C522 C525 1.409 . S
C523 H515 0.930 . S
C523 C524 1.355 . S
C523 C525 1.415 . S
C524 C523 1.355 . S
C524 C526 1.419 . S
C525 C520 1.425 . S
C525 C522 1.409 . S
C525 C523 1.415 . S
C526 H516 0.930 . S
C526 C524 1.419 . S
C526 C527 1.362 . S
C527 H517 0.930 . S
C527 C520 1.409 . S
C527 C526 1.362 . S
H528 C534 0.930 . S
H529 C537 0.930 . S
H530 C538 0.930 . S
H531 C539 0.930 . S
H532 C542 0.930 . S
H533 C543 0.930 . S
C534 H528 0.930 . S
C534 C535 1.355 . S
C534 C536 1.415 . S
C535 C534 1.355 . S
C535 C537 1.419 . S
C536 C534 1.415 . S
C536 C541 1.425 . S
C536 C543 1.409 . S
C537 H529 0.930 . S
C537 C535 1.419 . S
C537 C538 1.362 . S
C538 H530 0.930 . S
C538 C537 1.362 . S
C538 C541 1.409 . S
C539 H531 0.930 . S
C539 C540 1.355 . S
C539 C541 1.415 . S
C540 C539 1.355 . S
C540 C542 1.419 . S
C541 C536 1.425 . S
C541 C538 1.409 . S
C541 C539 1.415 . S
C542 H532 0.930 . S
C542 C540 1.419 . S
C542 C543 1.362 . S
C543 H533 0.930 . S
C543 C536 1.409 . S
C543 C542 1.362 . S
H544 C550 0.930 . S
H545 C553 0.930 . S
H546 C554 0.930 . S
H547 C555 0.930 . S
H548 C558 0.930 . S
H549 C559 0.930 . S
C550 H544 0.930 . S
C550 C551 1.355 . S
C550 C552 1.415 . S
C551 C550 1.355 . S
C551 C553 1.419 . S
C552 C550 1.415 . S
C552 C557 1.425 . S
C552 C559 1.409 . S
C553 H545 0.930 . S
C553 C551 1.419 . S
C553 C554 1.362 . S
C554 H546 0.930 . S
C554 C553 1.362 . S
C554 C557 1.409 . S
C555 H547 0.930 . S
C555 C556 1.355 . S
C555 C557 1.415 . S
C556 C555 1.355 . S
C556 C558 1.419 . S
C557 C552 1.425 . S
C557 C554 1.409 . S
C557 C555 1.415 . S
C558 H548 0.930 . S
C558 C556 1.419 . S
C558 C559 1.362 . S
C559 H549 0.930 . S
C559 C552 1.409 . S
C559 C558 1.362 . S
H560 C566 0.930 . S
H561 C569 0.930 . S
H562 C570 0.930 . S
H563 C571 0.930 . S
H564 C574 0.930 . S
H565 C575 0.930 . S
C566 H560 0.930 . S
C566 C567 1.355 . S
C566 C568 1.415 . S
C567 C566 1.355 . S
C567 C569 1.419 . S
C568 C566 1.415 . S
C568 C573 1.425 . S
C568 C575 1.409 . S
C569 H561 0.930 . S
C569 C567 1.419 . S
C569 C570 1.362 . S
C570 H562 0.930 . S
C570 C569 1.362 . S
C570 C573 1.409 . S
C571 H563 0.930 . S
C571 C572 1.355 . S
C571 C573 1.415 . S
C572 C571 1.355 . S
C572 C574 1.419 1_655 S
C573 C568 1.425 . S
C573 C570 1.409 . S
C573 C571 1.415 . S
C574 H564 0.930 . S
C574 C572 1.419 1_455 S
C574 C575 1.362 1_455 S
C575 H565 0.930 . S
C575 C568 1.409 . S
C575 C574 1.362 1_655 S
H576 C582 0.930 . S
H577 C585 0.930 . S
H578 C586 0.930 . S
H579 C587 0.930 . S
H580 C590 0.930 . S
H581 C591 0.930 . S
C582 H576 0.930 . S
C582 C583 1.355 . S
C582 C584 1.415 . S
C583 C582 1.355 . S
C583 C585 1.419 . S
C584 C582 1.415 . S
C584 C589 1.425 . S
C584 C591 1.409 . S
C585 H577 0.930 . S
C585 C583 1.419 . S
C585 C586 1.362 . S
C586 H578 0.930 . S
C586 C585 1.362 . S
C586 C589 1.409 . S
C587 H579 0.930 . S
C587 C588 1.355 . S
C587 C589 1.415 . S
C588 C587 1.355 . S
C588 C590 1.419 . S
C589 C584 1.425 . S
C589 C586 1.409 . S
C589 C587 1.415 . S
C590 H580 0.930 . S
C590 C588 1.419 . S
C590 C591 1.362 . S
C591 H581 0.930 . S
C591 C584 1.409 . S
C591 C590 1.362 . S
H592 C598 0.930 . S
H593 C601 0.930 . S
H594 C602 0.930 . S
H595 C603 0.930 . S
H596 C606 0.930 . S
H597 C607 0.930 . S
C598 H592 0.930 . S
C598 C599 1.355 . S
C598 C600 1.415 . S
C599 C598 1.355 . S
C599 C601 1.419 . S
C600 C598 1.415 . S
C600 C605 1.425 . S
C600 C607 1.409 . S
C601 H593 0.930 . S
C601 C599 1.419 . S
C601 C602 1.362 . S
C602 H594 0.930 . S
C602 C601 1.362 . S
C602 C605 1.409 . S
C603 H595 0.930 . S
C603 C604 1.355 . S
C603 C605 1.415 . S
C604 C603 1.355 . S
C604 C606 1.419 . S
C605 C600 1.425 . S
C605 C602 1.409 . S
C605 C603 1.415 . S
C606 H596 0.930 . S
C606 C604 1.419 . S
C606 C607 1.362 . S
C607 H597 0.930 . S
C607 C600 1.409 . S
C607 C606 1.362 . S
H608 C614 0.930 . S
H609 C617 0.930 . S
H610 C618 0.930 . S
H611 C619 0.930 . S
H612 C622 0.930 . S
H613 C623 0.930 . S
C614 H608 0.930 . S
C614 C615 1.355 . S
C614 C616 1.415 . S
C615 C614 1.355 . S
C615 C617 1.419 . S
C616 C614 1.415 . S
C616 C621 1.425 . S
C616 C623 1.409 . S
C617 H609 0.930 . S
C617 C615 1.419 . S
C617 C618 1.362 . S
C618 H610 0.930 . S
C618 C617 1.362 . S
C618 C621 1.409 . S
C619 H611 0.930 . S
C619 C620 1.355 . S
C619 C621 1.415 . S
C620 C619 1.355 . S
C620 C622 1.419 . S
C621 C616 1.425 . S
C621 C618 1.409 . S
C621 C619 1.415 . S
C622 H612 0.930 . S
C622 C620 1.419 . S
C622 C623 1.362 . S
C623 H613 0.930 . S
C623 C616 1.409 . S
C623 C622 1.362 . S
H624 C630 0.930 . S
H625 C633 0.930 . S
H626 C634 0.930 . S
H627 C635 0.930 . S
H628 C638 0.930 . S
H629 C639 0.930 . S
C630 H624 0.930 . S
C630 C631 1.355 . S
C630 C632 1.415 . S
C631 C630 1.355 . S
C631 C633 1.419 . S
C632 C630 1.415 . S
C632 C637 1.425 . S
C632 C639 1.409 . S
C633 H625 0.930 . S
C633 C631 1.419 . S
C633 C634 1.362 . S
C634 H626 0.930 . S
C634 C633 1.362 . S
C634 C637 1.409 . S
C635 H627 0.930 . S
C635 C636 1.355 . S
C635 C637 1.415 . S
C636 C635 1.355 . S
C636 C638 1.419 . S
C637 C632 1.425 . S
C637 C634 1.409 . S
C637 C635 1.415 . S
C638 H628 0.930 . S
C638 C636 1.419 . S
C638 C639 1.362 . S
C639 H629 0.930 . S
C639 C632 1.409 . S
C639 C638 1.362 . S
H640 C646 0.930 . S
H641 C649 0.930 . S
H642 C650 0.930 . S
H643 C651 0.930 . S
H644 C654 0.930 . S
H645 C655 0.930 . S
C646 H640 0.930 . S
C646 C647 1.355 . S
C646 C648 1.415 . S
C647 C646 1.355 . S
C647 C649 1.419 . S
C648 C646 1.415 . S
C648 C653 1.425 . S
C648 C655 1.409 . S
C649 H641 0.930 . S
C649 C647 1.419 . S
C649 C650 1.362 . S
C650 H642 0.930 . S
C650 C649 1.362 . S
C650 C653 1.409 . S
C651 H643 0.930 . S
C651 C652 1.355 . S
C651 C653 1.415 . S
C652 C651 1.355 . S
C652 C654 1.419 . S
C653 C648 1.425 . S
C653 C650 1.409 . S
C653 C651 1.415 . S
C654 H644 0.930 . S
C654 C652 1.419 . S
C654 C655 1.362 . S
C655 H645 0.930 . S
C655 C648 1.409 . S
C655 C654 1.362 . S
H656 C662 0.930 . S
H657 C665 0.930 . S
H658 C666 0.930 . S
H659 C667 0.930 . S
H660 C670 0.930 . S
H661 C671 0.930 . S
C662 H656 0.930 . S
C662 C663 1.355 . S
C662 C664 1.415 . S
C663 C662 1.355 . S
C663 C665 1.419 . S
C664 C662 1.415 . S
C664 C669 1.425 . S
C664 C671 1.409 . S
C665 H657 0.930 . S
C665 C663 1.419 . S
C665 C666 1.362 . S
C666 H658 0.930 . S
C666 C665 1.362 . S
C666 C669 1.409 . S
C667 H659 0.930 . S
C667 C668 1.355 . S
C667 C669 1.415 . S
C668 C667 1.355 . S
C668 C670 1.419 . S
C669 C664 1.425 . S
C669 C666 1.409 . S
C669 C667 1.415 . S
C670 H660 0.930 . S
C670 C668 1.419 . S
C670 C671 1.362 . S
C671 H661 0.930 . S
C671 C664 1.409 . S
C671 C670 1.362 . S
H672 C678 0.930 . S
H673 C681 0.930 . S
H674 C682 0.930 . S
H675 C683 0.930 . S
H676 C686 0.930 . S
H677 C687 0.930 . S
C678 H672 0.930 . S
C678 C679 1.355 . S
C678 C680 1.415 . S
C679 C678 1.355 . S
C679 C681 1.419 . S
C680 C678 1.415 . S
C680 C685 1.425 . S
C680 C687 1.409 . S
C681 H673 0.930 . S
C681 C679 1.419 . S
C681 C682 1.362 . S
C682 H674 0.930 . S
C682 C681 1.362 . S
C682 C685 1.409 . S
C683 H675 0.930 . S
C683 C684 1.355 . S
C683 C685 1.415 . S
C684 C683 1.355 . S
C684 C686 1.419 . S
C685 C680 1.425 . S
C685 C682 1.409 . S
C685 C683 1.415 . S
C686 H676 0.930 . S
C686 C684 1.419 . S
C686 C687 1.362 . S
C687 H677 0.930 . S
C687 C680 1.409 . S
C687 C686 1.362 . S
H688 C694 0.930 . S
H689 C697 0.930 . S
H690 C698 0.930 . S
H691 C699 0.930 1_554 S
H692 C702 0.930 . S
H693 C703 0.930 . S
C694 H688 0.930 . S
C694 C695 1.355 . S
C694 C696 1.415 . S
C695 C694 1.355 . S
C695 C697 1.419 . S
C696 C694 1.415 . S
C696 C701 1.425 . S
C696 C703 1.409 . S
C697 H689 0.930 . S
C697 C695 1.419 . S
C697 C698 1.362 . S
C698 H690 0.930 . S
C698 C697 1.362 . S
C698 C701 1.409 . S
C699 H691 0.930 1_556 S
C699 C700 1.355 . S
C699 C701 1.415 . S
C700 C699 1.355 . S
C700 C702 1.419 . S
C701 C696 1.425 . S
C701 C698 1.409 . S
C701 C699 1.415 . S
C702 H692 0.930 . S
C702 C700 1.419 . S
C702 C703 1.362 . S
C703 H693 0.930 . S
C703 C696 1.409 . S
C703 C702 1.362 . S
H704 C710 0.930 . S
H705 C713 0.930 . S
H706 C714 0.930 . S
H707 C715 0.930 . S
H708 C718 0.930 . S
H709 C719 0.930 . S
C710 H704 0.930 . S
C710 C711 1.355 . S
C710 C712 1.415 . S
C711 C710 1.355 . S
C711 C713 1.419 . S
C712 C710 1.415 . S
C712 C717 1.425 . S
C712 C719 1.409 . S
C713 H705 0.930 . S
C713 C711 1.419 . S
C713 C714 1.362 . S
C714 H706 0.930 . S
C714 C713 1.362 . S
C714 C717 1.409 . S
C715 H707 0.930 . S
C715 C716 1.355 . S
C715 C717 1.415 . S
C716 C715 1.355 . S
C716 C718 1.419 . S
C717 C712 1.425 . S
C717 C714 1.409 . S
C717 C715 1.415 . S
C718 H708 0.930 . S
C718 C716 1.419 . S
C718 C719 1.362 . S
C719 H709 0.930 . S
C719 C712 1.409 . S
C719 C718 1.362 . S
H720 C726 0.930 . S
H721 C729 0.930 . S
H722 C730 0.930 . S
H723 C731 0.930 . S
H724 C734 0.930 . S
H725 C735 0.930 . S
C726 H720 0.930 . S
C726 C727 1.355 . S
C726 C728 1.415 . S
C727 C726 1.355 . S
C727 C729 1.419 . S
C728 C726 1.415 . S
C728 C733 1.425 . S
C728 C735 1.409 . S
C729 H721 0.930 . S
C729 C727 1.419 . S
C729 C730 1.362 . S
C730 H722 0.930 . S
C730 C729 1.362 . S
C730 C733 1.409 . S
C731 H723 0.930 . S
C731 C732 1.355 . S
C731 C733 1.415 . S
C732 C731 1.355 . S
C732 C734 1.419 . S
C733 C728 1.425 . S
C733 C730 1.409 . S
C733 C731 1.415 . S
C734 H724 0.930 . S
C734 C732 1.419 . S
C734 C735 1.362 . S
C735 H725 0.930 . S
C735 C728 1.409 . S
C735 C734 1.362 . S
H736 C742 0.930 . S
H737 C745 0.930 . S
H738 C746 0.930 . S
H739 C747 0.930 . S
H740 C750 0.930 . S
H741 C751 0.930 . S
C742 H736 0.930 . S
C742 C743 1.355 . S
C742 C744 1.415 . S
C743 C742 1.355 . S
C743 C745 1.419 . S
C744 C742 1.415 . S
C744 C749 1.425 . S
C744 C751 1.409 . S
C745 H737 0.930 . S
C745 C743 1.419 . S
C745 C746 1.362 . S
C746 H738 0.930 . S
C746 C745 1.362 . S
C746 C749 1.409 . S
C747 H739 0.930 . S
C747 C748 1.355 . S
C747 C749 1.415 . S
C748 C747 1.355 . S
C748 C750 1.419 . S
C749 C744 1.425 . S
C749 C746 1.409 . S
C749 C747 1.415 . S
C750 H740 0.930 . S
C750 C748 1.419 . S
C750 C751 1.362 . S
C751 H741 0.930 . S
C751 C744 1.409 . S
C751 C750 1.362 . S
H752 C758 0.930 1_545 S
H753 C761 0.930 . S
H754 C762 0.930 . S
H755 C763 0.930 . S
H756 C766 0.930 . S
H757 C767 0.930 . S
C758 H752 0.930 1_565 S
C758 C759 1.355 . S
C758 C760 1.415 . S
C759 C758 1.355 . S
C759 C761 1.419 . S
C760 C758 1.415 . S
C760 C765 1.425 . S
C760 C767 1.409 . S
C761 H753 0.930 . S
C761 C759 1.419 . S
C761 C762 1.362 . S
C762 H754 0.930 . S
C762 C761 1.362 . S
C762 C765 1.409 . S
C763 H755 0.930 . S
C763 C764 1.355 . S
C763 C765 1.415 . S
C764 C763 1.355 . S
C764 C766 1.419 . S
C765 C760 1.425 . S
C765 C762 1.409 . S
C765 C763 1.415 . S
C766 H756 0.930 . S
C766 C764 1.419 . S
C766 C767 1.362 . S
C767 H757 0.930 . S
C767 C760 1.409 . S
C767 C766 1.362 . S
H768 C774 0.930 . S
H769 C777 0.930 . S
H770 C778 0.930 . S
H771 C779 0.930 . S
H772 C782 0.930 . S
H773 C783 0.930 . S
C774 H768 0.930 . S
C774 C775 1.355 . S
C774 C776 1.415 . S
C775 C774 1.355 . S
C775 C777 1.419 . S
C776 C774 1.415 . S
C776 C781 1.425 . S
C776 C783 1.409 . S
C777 H769 0.930 . S
C777 C775 1.419 . S
C777 C778 1.362 . S
C778 H770 0.930 . S
C778 C777 1.362 . S
C778 C781 1.409 . S
C779 H771 0.930 . S
C779 C780 1.355 . S
C779 C781 1.415 . S
C780 C779 1.355 . S
C780 C782 1.419 . S
C781 C776 1.425 . S
C781 C778 1.409 . S
C781 C779 1.415 . S
C782 H772 0.930 . S
C782 C780 1.419 . S
C782 C783 1.362 . S
C783 H773 0.930 . S
C783 C776 1.409 . S
C783 C782 1.362 . S
H784 C790 0.930 . S
H785 C793 0.930 . S
H786 C794 0.930 . S
H787 C795 0.930 . S
H788 C798 0.930 . S
H789 C799 0.930 . S
C790 H784 0.930 . S
C790 C791 1.355 . S
C790 C792 1.415 . S
C791 C790 1.355 . S
C791 C793 1.419 . S
C792 C790 1.415 . S
C792 C797 1.425 . S
C792 C799 1.409 . S
C793 H785 0.930 . S
C793 C791 1.419 . S
C793 C794 1.362 . S
C794 H786 0.930 . S
C794 C793 1.362 . S
C794 C797 1.409 . S
C795 H787 0.930 . S
C795 C796 1.355 . S
C795 C797 1.415 . S
C796 C795 1.355 . S
C796 C798 1.419 . S
C797 C792 1.425 . S
C797 C794 1.409 . S
C797 C795 1.415 . S
C798 H788 0.930 . S
C798 C796 1.419 . S
C798 C799 1.362 . S
C799 H789 0.930 . S
C799 C792 1.409 . S
C799 C798 1.362 . S
H800 C806 0.930 . S
H801 C809 0.930 . S
H802 C810 0.930 1_554 S
H803 C811 0.930 . S
H804 C814 0.930 . S
H805 C815 0.930 . S
C806 H800 0.930 . S
C806 C807 1.355 . S
C806 C808 1.415 . S
C807 C806 1.355 . S
C807 C809 1.419 . S
C808 C806 1.415 . S
C808 C813 1.425 . S
C808 C815 1.409 . S
C809 H801 0.930 . S
C809 C807 1.419 . S
C809 C810 1.362 . S
C810 H802 0.930 1_556 S
C810 C809 1.362 . S
C810 C813 1.409 . S
C811 H803 0.930 . S
C811 C812 1.355 . S
C811 C813 1.415 1_554 S
C812 C811 1.355 . S
C812 C814 1.419 1_554 S
C813 C808 1.425 . S
C813 C810 1.409 . S
C813 C811 1.415 1_556 S
C814 H804 0.930 . S
C814 C812 1.419 1_556 S
C814 C815 1.362 . S
C815 H805 0.930 . S
C815 C808 1.409 . S
C815 C814 1.362 . S
H816 C822 0.930 . S
H817 C825 0.930 1_455 S
H818 C826 0.930 . S
H819 C827 0.930 . S
H820 C830 0.930 . S
H821 C831 0.930 1_545 S
C822 H816 0.930 . S
C822 C823 1.355 . S
C822 C824 1.415 1_545 S
C823 C822 1.355 . S
C823 C825 1.419 1_545 S
C824 C822 1.415 1_565 S
C824 C829 1.425 . S
C824 C831 1.409 . S
C825 H817 0.930 1_655 S
C825 C823 1.419 1_565 S
C825 C826 1.362 . S
C826 H818 0.930 . S
C826 C825 1.362 . S
C826 C829 1.409 . S
C827 H819 0.930 . S
C827 C828 1.355 . S
C827 C829 1.415 . S
C828 C827 1.355 . S
C828 C830 1.419 . S
C829 C824 1.425 . S
C829 C826 1.409 . S
C829 C827 1.415 . S
C830 H820 0.930 . S
C830 C828 1.419 . S
C830 C831 1.362 . S
C831 H821 0.930 1_565 S
C831 C824 1.409 . S
C831 C830 1.362 . S
H832 C838 0.930 . S
H833 C841 0.930 . S
H834 C842 0.930 . S
H835 C843 0.930 . S
H836 C846 0.930 . S
H837 C847 0.930 . S
C838 H832 0.930 . S
C838 C839 1.355 . S
C838 C840 1.415 . S
C839 C838 1.355 . S
C839 C841 1.419 . S
C840 C838 1.415 . S
C840 C845 1.425 . S
C840 C847 1.409 . S
C841 H833 0.930 . S
C841 C839 1.419 . S
C841 C842 1.362 . S
C842 H834 0.930 . S
C842 C841 1.362 . S
C842 C845 1.409 . S
C843 H835 0.930 . S
C843 C844 1.355 . S
C843 C845 1.415 . S
C844 C843 1.355 . S
C844 C846 1.419 . S
C845 C840 1.425 . S
C845 C842 1.409 . S
C845 C843 1.415 . S
C846 H836 0.930 . S
C846 C844 1.419 . S
C846 C847 1.362 . S
C847 H837 0.930 . S
C847 C840 1.409 . S
C847 C846 1.362 . S
H848 C854 0.930 . S
H849 C857 0.930 . S
H850 C858 0.930 . S
H851 C859 0.930 . S
H852 C862 0.930 . S
H853 C863 0.930 . S
C854 H848 0.930 . S
C854 C855 1.355 . S
C854 C856 1.415 . S
C855 C854 1.355 . S
C855 C857 1.419 . S
C856 C854 1.415 . S
C856 C861 1.425 . S
C856 C863 1.409 . S
C857 H849 0.930 . S
C857 C855 1.419 . S
C857 C858 1.362 . S
C858 H850 0.930 . S
C858 C857 1.362 . S
C858 C861 1.409 . S
C859 H851 0.930 . S
C859 C860 1.355 . S
C859 C861 1.415 . S
C860 C859 1.355 . S
C860 C862 1.419 . S
C861 C856 1.425 . S
C861 C858 1.409 . S
C861 C859 1.415 . S
C862 H852 0.930 . S
C862 C860 1.419 . S
C862 C863 1.362 . S
C863 H853 0.930 . S
C863 C856 1.409 . S
C863 C862 1.362 . S
H864 C870 0.930 . S
H865 C873 0.930 . S
H866 C874 0.930 . S
H867 C875 0.930 . S
H868 C878 0.930 . S
H869 C879 0.930 . S
C870 H864 0.930 . S
C870 C871 1.355 . S
C870 C872 1.415 . S
C871 C870 1.355 . S
C871 C873 1.419 . S
C872 C870 1.415 . S
C872 C877 1.425 . S
C872 C879 1.409 . S
C873 H865 0.930 . S
C873 C871 1.419 . S
C873 C874 1.362 . S
C874 H866 0.930 . S
C874 C873 1.362 . S
C874 C877 1.409 . S
C875 H867 0.930 . S
C875 C876 1.355 . S
C875 C877 1.415 . S
C876 C875 1.355 . S
C876 C878 1.419 . S
C877 C872 1.425 . S
C877 C874 1.409 . S
C877 C875 1.415 . S
C878 H868 0.930 . S
C878 C876 1.419 . S
C878 C879 1.362 . S
C879 H869 0.930 . S
C879 C872 1.409 . S
C879 C878 1.362 . S
H880 C886 0.930 . S
H881 C889 0.930 . S
H882 C890 0.930 . S
H883 C891 0.930 . S
H884 C894 0.930 . S
H885 C895 0.930 . S
C886 H880 0.930 . S
C886 C887 1.355 . S
C886 C888 1.415 . S
C887 C886 1.355 . S
C887 C889 1.419 . S
C888 C886 1.415 . S
C888 C893 1.425 . S
C888 C895 1.409 . S
C889 H881 0.930 . S
C889 C887 1.419 . S
C889 C890 1.362 . S
C890 H882 0.930 . S
C890 C889 1.362 . S
C890 C893 1.409 . S
C891 H883 0.930 . S
C891 C892 1.355 . S
C891 C893 1.415 . S
C892 C891 1.355 . S
C892 C894 1.419 . S
C893 C888 1.425 . S
C893 C890 1.409 . S
C893 C891 1.415 . S
C894 H884 0.930 . S
C894 C892 1.419 . S
C894 C895 1.362 . S
C895 H885 0.930 . S
C895 C888 1.409 . S
C895 C894 1.362 . S
H896 C902 0.930 . S
H897 C905 0.930 . S
H898 C906 0.930 . S
H899 C907 0.930 . S
H900 C910 0.930 . S
H901 C911 0.930 . S
C902 H896 0.930 . S
C902 C903 1.355 . S
C902 C904 1.415 . S
C903 C902 1.355 . S
C903 C905 1.419 . S
C904 C902 1.415 . S
C904 C909 1.425 . S
C904 C911 1.409 . S
C905 H897 0.930 . S
C905 C903 1.419 . S
C905 C906 1.362 . S
C906 H898 0.930 . S
C906 C905 1.362 . S
C906 C909 1.409 . S
C907 H899 0.930 . S
C907 C908 1.355 . S
C907 C909 1.415 . S
C908 C907 1.355 . S
C908 C910 1.419 . S
C909 C904 1.425 . S
C909 C906 1.409 . S
C909 C907 1.415 . S
C910 H900 0.930 . S
C910 C908 1.419 . S
C910 C911 1.362 . S
C911 H901 0.930 . S
C911 C904 1.409 . S
C911 C910 1.362 . S
H912 C918 0.930 . S
H913 C921 0.930 . S
H914 C922 0.930 . S
H915 C923 0.930 . S
H916 C926 0.930 . S
H917 C927 0.930 . S
C918 H912 0.930 . S
C918 C919 1.355 . S
C918 C920 1.415 . S
C919 C918 1.355 . S
C919 C921 1.419 . S
C920 C918 1.415 . S
C920 C925 1.425 . S
C920 C927 1.409 . S
C921 H913 0.930 . S
C921 C919 1.419 . S
C921 C922 1.362 . S
C922 H914 0.930 . S
C922 C921 1.362 . S
C922 C925 1.409 . S
C923 H915 0.930 . S
C923 C924 1.355 . S
C923 C925 1.415 . S
C924 C923 1.355 . S
C924 C926 1.419 . S
C925 C920 1.425 . S
C925 C922 1.409 . S
C925 C923 1.415 . S
C926 H916 0.930 . S
C926 C924 1.419 . S
C926 C927 1.362 . S
C927 H917 0.930 . S
C927 C920 1.409 . S
C927 C926 1.362 . S
H928 C934 0.930 . S
H929 C937 0.930 . S
H930 C938 0.930 . S
H931 C939 0.930 . S
H932 C942 0.930 . S
H933 C943 0.930 . S
C934 H928 0.930 . S
C934 C935 1.355 . S
C934 C936 1.415 . S
C935 C934 1.355 . S
C935 C937 1.419 . S
C936 C934 1.415 . S
C936 C941 1.425 . S
C936 C943 1.409 . S
C937 H929 0.930 . S
C937 C935 1.419 . S
C937 C938 1.362 . S
C938 H930 0.930 . S
C938 C937 1.362 . S
C938 C941 1.409 . S
C939 H931 0.930 . S
C939 C940 1.355 . S
C939 C941 1.415 . S
C940 C939 1.355 . S
C940 C942 1.419 . S
C941 C936 1.425 . S
C941 C938 1.409 . S
C941 C939 1.415 . S
C942 H932 0.930 . S
C942 C940 1.419 . S
C942 C943 1.362 . S
C943 H933 0.930 . S
C943 C936 1.409 . S
C943 C942 1.362 . S
H944 C950 0.930 . S
H945 C953 0.930 . S
H946 C954 0.930 . S
H947 C955 0.930 . S
H948 C958 0.930 . S
H949 C959 0.930 . S
C950 H944 0.930 . S
C950 C951 1.355 1_655 S
C950 C952 1.415 . S
C951 C950 1.355 1_455 S
C951 C953 1.419 . S
C952 C950 1.415 . S
C952 C957 1.425 . S
C952 C959 1.409 . S
C953 H945 0.930 . S
C953 C951 1.419 . S
C953 C954 1.362 . S
C954 H946 0.930 . S
C954 C953 1.362 . S
C954 C957 1.409 1_455 S
C955 H947 0.930 . S
C955 C956 1.355 . S
C955 C957 1.415 . S
C956 C955 1.355 . S
C956 C958 1.419 . S
C957 C952 1.425 . S
C957 C954 1.409 1_655 S
C957 C955 1.415 . S
C958 H948 0.930 . S
C958 C956 1.419 . S
C958 C959 1.362 . S
C959 H949 0.930 . S
C959 C952 1.409 . S
C959 C958 1.362 . S
H960 C966 0.930 . S
H961 C969 0.930 . S
H962 C970 0.930 . S
H963 C971 0.930 . S
H964 C974 0.930 . S
H965 C975 0.930 . S
C966 H960 0.930 . S
C966 C967 1.355 . S
C966 C968 1.415 . S
C967 C966 1.355 . S
C967 C969 1.419 . S
C968 C966 1.415 . S
C968 C973 1.425 . S
C968 C975 1.409 . S
C969 H961 0.930 . S
C969 C967 1.419 . S
C969 C970 1.362 . S
C970 H962 0.930 . S
C970 C969 1.362 . S
C970 C973 1.409 . S
C971 H963 0.930 . S
C971 C972 1.355 . S
C971 C973 1.415 . S
C972 C971 1.355 . S
C972 C974 1.419 . S
C973 C968 1.425 . S
C973 C970 1.409 . S
C973 C971 1.415 . S
C974 H964 0.930 . S
C974 C972 1.419 . S
C974 C975 1.362 . S
C975 H965 0.930 . S
C975 C968 1.409 . S
C975 C974 1.362 . S
H976 C982 0.930 . S
H977 C985 0.930 1_554 S
H978 C986 0.930 . S
H979 C987 0.930 . S
H980 C990 0.930 . S
H981 C991 0.930 . S
C982 H976 0.930 . S
C982 C983 1.355 . S
C982 C984 1.415 . S
C983 C982 1.355 . S
C983 C985 1.419 . S
C984 C982 1.415 . S
C984 C989 1.425 . S
C984 C991 1.409 . S
C985 H977 0.930 1_556 S
C985 C983 1.419 . S
C985 C986 1.362 . S
C986 H978 0.930 . S
C986 C985 1.362 . S
C986 C989 1.409 . S
C987 H979 0.930 . S
C987 C988 1.355 . S
C987 C989 1.415 . S
C988 C987 1.355 . S
C988 C990 1.419 . S
C989 C984 1.425 . S
C989 C986 1.409 . S
C989 C987 1.415 . S
C990 H980 0.930 . S
C990 C988 1.419 . S
C990 C991 1.362 . S
C991 H981 0.930 . S
C991 C984 1.409 . S
C991 C990 1.362 . S
H992 C998 0.930 . S
H993 C1001 0.930 . S
H994 C1002 0.930 . S
H995 C1003 0.930 . S
H996 C1006 0.930 . S
H997 C1007 0.930 . S
C998 H992 0.930 . S
C998 C999 1.355 . S
C998 C1000 1.415 . S
C999 C998 1.355 . S
C999 C1001 1.419 . S
C1000 C998 1.415 . S
C1000 C1005 1.425 . S
C1000 C1007 1.409 . S
C1001 H993 0.930 . S
C1001 C999 1.419 . S
C1001 C1002 1.362 . S
C1002 H994 0.930 . S
C1002 C1001 1.362 . S
C1002 C1005 1.409 . S
C1003 H995 0.930 . S
C1003 C1004 1.355 . S
C1003 C1005 1.415 . S
C1004 C1003 1.355 . S
C1004 C1006 1.419 . S
C1005 C1000 1.425 . S
C1005 C1002 1.409 . S
C1005 C1003 1.415 . S
C1006 H996 0.930 . S
C1006 C1004 1.419 . S
C1006 C1007 1.362 . S
C1007 H997 0.930 . S
C1007 C1000 1.409 . S
C1007 C1006 1.362 . S
H1008 C1014 0.930 . S
H1009 C1017 0.930 . S
H1010 C1018 0.930 . S
H1011 C1019 0.930 . S
H1012 C1022 0.930 . S
H1013 C1023 0.930 . S
C1014 H1008 0.930 . S
C1014 C1015 1.355 . S
C1014 C1016 1.415 . S
C1015 C1014 1.355 . S
C1015 C1017 1.419 . S
C1016 C1014 1.415 . S
C1016 C1021 1.425 . S
C1016 C1023 1.409 . S
C1017 H1009 0.930 . S
C1017 C1015 1.419 . S
C1017 C1018 1.362 . S
C1018 H1010 0.930 . S
C1018 C1017 1.362 . S
C1018 C1021 1.409 . S
C1019 H1011 0.930 . S
C1019 C1020 1.355 . S
C1019 C1021 1.415 . S
C1020 C1019 1.355 . S
C1020 C1022 1.419 . S
C1021 C1016 1.425 . S
C1021 C1018 1.409 . S
C1021 C1019 1.415 . S
C1022 H1012 0.930 . S
C1022 C1020 1.419 . S
C1022 C1023 1.362 . S
C1023 H1013 0.930 . S
C1023 C1016 1.409 . S
C1023 C1022 1.362 . S
H1024 C1030 0.930 . S
H1025 C1033 0.930 . S
H1026 C1034 0.930 . S
H1027 C1035 0.930 . S
H1028 C1038 0.930 . S
H1029 C1039 0.930 . S
C1030 H1024 0.930 . S
C1030 C1031 1.355 . S
C1030 C1032 1.415 . S
C1031 C1030 1.355 . S
C1031 C1033 1.419 . S
C1032 C1030 1.415 . S
C1032 C1037 1.425 . S
C1032 C1039 1.409 . S
C1033 H1025 0.930 . S
C1033 C1031 1.419 . S
C1033 C1034 1.362 . S
C1034 H1026 0.930 . S
C1034 C1033 1.362 . S
C1034 C1037 1.409 . S
C1035 H1027 0.930 . S
C1035 C1036 1.355 . S
C1035 C1037 1.415 . S
C1036 C1035 1.355 . S
C1036 C1038 1.419 . S
C1037 C1032 1.425 . S
C1037 C1034 1.409 . S
C1037 C1035 1.415 . S
C1038 H1028 0.930 . S
C1038 C1036 1.419 . S
C1038 C1039 1.362 . S
C1039 H1029 0.930 . S
C1039 C1032 1.409 . S
C1039 C1038 1.362 . S
H1040 C1046 0.930 . S
H1041 C1049 0.930 . S
H1042 C1050 0.930 . S
H1043 C1051 0.930 . S
H1044 C1054 0.930 . S
H1045 C1055 0.930 . S
C1046 H1040 0.930 . S
C1046 C1047 1.355 . S
C1046 C1048 1.415 . S
C1047 C1046 1.355 . S
C1047 C1049 1.419 . S
C1048 C1046 1.415 . S
C1048 C1053 1.425 . S
C1048 C1055 1.409 . S
C1049 H1041 0.930 . S
C1049 C1047 1.419 . S
C1049 C1050 1.362 . S
C1050 H1042 0.930 . S
C1050 C1049 1.362 . S
C1050 C1053 1.409 . S
C1051 H1043 0.930 . S
C1051 C1052 1.355 . S
C1051 C1053 1.415 . S
C1052 C1051 1.355 . S
C1052 C1054 1.419 . S
C1053 C1048 1.425 . S
C1053 C1050 1.409 . S
C1053 C1051 1.415 . S
C1054 H1044 0.930 . S
C1054 C1052 1.419 . S
C1054 C1055 1.362 . S
C1055 H1045 0.930 . S
C1055 C1048 1.409 . S
C1055 C1054 1.362 . S
H1056 C1062 0.930 . S
H1057 C1065 0.930 . S
H1058 C1066 0.930 . S
H1059 C1067 0.930 . S
H1060 C1070 0.930 . S
H1061 C1071 0.930 . S
C1062 H1056 0.930 . S
C1062 C1063 1.355 . S
C1062 C1064 1.415 . S
C1063 C1062 1.355 . S
C1063 C1065 1.419 . S
C1064 C1062 1.415 . S
C1064 C1069 1.425 . S
C1064 C1071 1.409 . S
C1065 H1057 0.930 . S
C1065 C1063 1.419 . S
C1065 C1066 1.362 . S
C1066 H1058 0.930 . S
C1066 C1065 1.362 . S
C1066 C1069 1.409 . S
C1067 H1059 0.930 . S
C1067 C1068 1.355 . S
C1067 C1069 1.415 . S
C1068 C1067 1.355 . S
C1068 C1070 1.419 . S
C1069 C1064 1.425 . S
C1069 C1066 1.409 . S
C1069 C1067 1.415 . S
C1070 H1060 0.930 . S
C1070 C1068 1.419 . S
C1070 C1071 1.362 . S
C1071 H1061 0.930 . S
C1071 C1064 1.409 . S
C1071 C1070 1.362 . S
H1072 C1078 0.930 . S
H1073 C1081 0.930 . S
H1074 C1082 0.930 . S
H1075 C1083 0.930 . S
H1076 C1086 0.930 . S
H1077 C1087 0.930 . S
C1078 H1072 0.930 . S
C1078 C1079 1.355 . S
C1078 C1080 1.415 . S
C1079 C1078 1.355 . S
C1079 C1081 1.419 . S
C1080 C1078 1.415 . S
C1080 C1085 1.425 . S
C1080 C1087 1.409 . S
C1081 H1073 0.930 . S
C1081 C1079 1.419 . S
C1081 C1082 1.362 . S
C1082 H1074 0.930 . S
C1082 C1081 1.362 . S
C1082 C1085 1.409 . S
C1083 H1075 0.930 . S
C1083 C1084 1.355 . S
C1083 C1085 1.415 . S
C1084 C1083 1.355 . S
C1084 C1086 1.419 . S
C1085 C1080 1.425 . S
C1085 C1082 1.409 . S
C1085 C1083 1.415 . S
C1086 H1076 0.930 . S
C1086 C1084 1.419 . S
C1086 C1087 1.362 . S
C1087 H1077 0.930 . S
C1087 C1080 1.409 . S
C1087 C1086 1.362 . S
H1088 C1094 0.930 . S
H1089 C1097 0.930 . S
H1090 C1098 0.930 . S
H1091 C1099 0.930 . S
H1092 C1102 0.930 . S
H1093 C1103 0.930 . S
C1094 H1088 0.930 . S
C1094 C1095 1.355 . S
C1094 C1096 1.415 . S
C1095 C1094 1.355 . S
C1095 C1097 1.419 . S
C1096 C1094 1.415 . S
C1096 C1101 1.425 . S
C1096 C1103 1.409 . S
C1097 H1089 0.930 . S
C1097 C1095 1.419 . S
C1097 C1098 1.362 . S
C1098 H1090 0.930 . S
C1098 C1097 1.362 . S
C1098 C1101 1.409 . S
C1099 H1091 0.930 . S
C1099 C1100 1.355 . S
C1099 C1101 1.415 . S
C1100 C1099 1.355 . S
C1100 C1102 1.419 . S
C1101 C1096 1.425 . S
C1101 C1098 1.409 . S
C1101 C1099 1.415 . S
C1102 H1092 0.930 . S
C1102 C1100 1.419 . S
C1102 C1103 1.362 . S
C1103 H1093 0.930 . S
C1103 C1096 1.409 . S
C1103 C1102 1.362 . S
H1104 C1110 0.930 . S
H1105 C1113 0.930 . S
H1106 C1114 0.930 . S
H1107 C1115 0.930 . S
H1108 C1118 0.930 . S
H1109 C1119 0.930 . S
C1110 H1104 0.930 . S
C1110 C1111 1.355 . S
C1110 C1112 1.415 . S
C1111 C1110 1.355 . S
C1111 C1113 1.419 . S
C1112 C1110 1.415 . S
C1112 C1117 1.425 . S
C1112 C1119 1.409 . S
C1113 H1105 0.930 . S
C1113 C1111 1.419 . S
C1113 C1114 1.362 . S
C1114 H1106 0.930 . S
C1114 C1113 1.362 . S
C1114 C1117 1.409 . S
C1115 H1107 0.930 . S
C1115 C1116 1.355 . S
C1115 C1117 1.415 . S
C1116 C1115 1.355 . S
C1116 C1118 1.419 . S
C1117 C1112 1.425 . S
C1117 C1114 1.409 . S
C1117 C1115 1.415 . S
C1118 H1108 0.930 . S
C1118 C1116 1.419 . S
C1118 C1119 1.362 . S
C1119 H1109 0.930 . S
C1119 C1112 1.409 . S
C1119 C1118 1.362 . S
H1120 C1126 0.930 . S
H1121 C1129 0.930 . S
H1122 C1130 0.930 . S
H1123 C1131 0.930 . S
H1124 C1134 0.930 . S
H1125 C1135 0.930 . S
C1126 H1120 0.930 . S
C1126 C1127 1.355 . S
C1126 C1128 1.415 . S
C1127 C1126 1.355 . S
C1127 C1129 1.419 . S
C1128 C1126 1.415 . S
C1128 C1133 1.425 . S
C1128 C1135 1.409 . S
C1129 H1121 0.930 . S
C1129 C1127 1.419 . S
C1129 C1130 1.362 . S
C1130 H1122 0.930 . S
C1130 C1129 1.362 . S
C1130 C1133 1.409 . S
C1131 H1123 0.930 . S
C1131 C1132 1.355 . S
C1131 C1133 1.415 . S
C1132 C1131 1.355 . S
C1132 C1134 1.419 . S
C1133 C1128 1.425 . S
C1133 C1130 1.409 . S
C1133 C1131 1.415 . S
C1134 H1124 0.930 . S
C1134 C1132 1.419 . S
C1134 C1135 1.362 . S
C1135 H1125 0.930 . S
C1135 C1128 1.409 . S
C1135 C1134 1.362 . S
C375 C88 1.366 . S
C380 C16 1.376 . S
C391 C21 1.336 . S
C396 C41 1.413 . S
C407 C62 1.591 . S
C412 C40 1.584 . S
C423 C90 1.310 . S
C428 C67 1.307 . S
C439 C113 1.220 . S
C444 C135 1.189 . S
C455 C132 1.581 . S
C460 C155 1.594 1_565 S
C471 C156 1.374 . S
C476 C181 1.306 . S
C487 C111 1.302 . S
C492 C178 1.343 . S
C503 C225 1.362 . S
C508 C19 1.326 . S
C519 C250 1.493 . S
C524 C43 1.546 . S
C535 C65 1.340 . S
C540 C317 1.364 . S
C551 C200 1.495 . S
C556 C85 1.521 . S
C567 C269 1.496 . S
C572 C108 1.523 1_655 S
C583 C341 1.319 . S
C588 C133 1.358 . S
C599 C158 1.468 . S
C604 C296 1.530 . S
C615 C364 1.304 . S
C620 C179 1.350 . S
C631 C203 1.346 . S
C636 C316 1.358 . S
C647 C227 1.258 . S
C652 C205 1.279 . S
C663 C247 1.562 . S
C668 C224 1.578 . S
C679 C338 1.370 . S
C684 C272 1.358 . S
C695 C293 1.600 . S
C700 C361 1.588 1_556 S
C711 C273 0.942 . S
C716 C17 0.989 . S
C727 C297 1.022 . S
C732 C18 1.091 . S
C743 C292 0.741 . S
C748 C63 0.705 . S
C759 C64 1.151 1_565 S
C764 C271 1.128 . S
C775 C226 1.111 . S
C780 C110 1.139 . S
C791 C223 0.764 . S
C796 C154 0.712 . S
C807 C318 1.104 . S
C812 C159 1.033 . S
C823 C112 0.958 . S
C828 C315 1.020 . S
C839 C136 1.100 . S
C844 C20 1.086 . S
C855 C249 0.859 . S
C860 C295 0.912 . S
C871 C66 1.036 . S
C876 C182 1.146 . S
C887 C201 0.767 . S
C892 C270 0.807 . S
C903 C86 0.742 . S
C908 C109 0.737 . S
C919 C228 1.096 . S
C924 C342 1.108 . S
C935 C157 0.904 . S
C940 C42 0.912 . S
C951 C365 1.155 . S
C956 C320 1.044 . S
C967 C204 1.060 . S
C972 C177 1.004 . S
C983 C202 1.123 . S
C988 C134 1.107 . S
C999 C246 0.764 . S
C1004 C131 0.763 . S
C1015 C89 1.011 . S
C1020 C339 1.065 . S
C1031 C39 0.744 . S
C1036 C362 0.730 . S
C1047 C294 1.409 . S
C1052 C343 1.366 . S
C1063 C274 1.213 . S
C1068 C366 1.209 . S
C1079 C248 1.357 . S
C1084 C319 1.234 . S
C1095 C340 1.106 . S
C1100 C44 1.115 . S
C1111 C87 1.130 . S
C1116 C363 1.151 . S
C1127 C180 1.105 . S
C1132 C251 1.053 . S
