# Generated by pormake.
# Topology rac, (4)-cn, num edge types: 1
# Building blocks:
#     Node 0, Type 0, BuildingBlock: NAHDIM_clean_sbu_0, # of connection points: 4
#     Node 1, Type 0, BuildingBlock: NAHDIM_clean_sbu_0, # of connection points: 4
#     Node 2, Type 0, BuildingBlock: NAHDIM_clean_sbu_0, # of connection points: 4
#     Node 3, Type 0, BuildingBlock: NAHDIM_clean_sbu_0, # of connection points: 4
#     Node 4, Type 0, BuildingBlock: NAHDIM_clean_sbu_0, # of connection points: 4
#     Node 5, Type 0, BuildingBlock: NAHDIM_clean_sbu_0, # of connection points: 4
#     Node 6, Type 0, BuildingBlock: NAHDIM_clean_sbu_0, # of connection points: 4
#     Node 7, Type 0, BuildingBlock: NAHDIM_clean_sbu_0, # of connection points: 4
#     Edge 8, Type (0, 0), BuildingBlock: FUNLAD_clean_linker_0, # of connection points: 2
#     Edge 9, Type (0, 0), BuildingBlock: FUNLAD_clean_linker_0, # of connection points: 2
#     Edge 10, Type (0, 0), BuildingBlock: FUNLAD_clean_linker_0, # of connection points: 2
#     Edge 11, Type (0, 0), BuildingBlock: FUNLAD_clean_linker_0, # of connection points: 2
#     Edge 12, Type (0, 0), BuildingBlock: FUNLAD_clean_linker_0, # of connection points: 2
#     Edge 13, Type (0, 0), BuildingBlock: FUNLAD_clean_linker_0, # of connection points: 2
#     Edge 14, Type (0, 0), BuildingBlock: FUNLAD_clean_linker_0, # of connection points: 2
#     Edge 15, Type (0, 0), BuildingBlock: FUNLAD_clean_linker_0, # of connection points: 2
#     Edge 16, Type (0, 0), BuildingBlock: FUNLAD_clean_linker_0, # of connection points: 2
#     Edge 17, Type (0, 0), BuildingBlock: FUNLAD_clean_linker_0, # of connection points: 2
#     Edge 18, Type (0, 0), BuildingBlock: FUNLAD_clean_linker_0, # of connection points: 2
#     Edge 19, Type (0, 0), BuildingBlock: FUNLAD_clean_linker_0, # of connection points: 2
#     Edge 20, Type (0, 0), BuildingBlock: FUNLAD_clean_linker_0, # of connection points: 2
#     Edge 21, Type (0, 0), BuildingBlock: FUNLAD_clean_linker_0, # of connection points: 2
#     Edge 22, Type (0, 0), BuildingBlock: FUNLAD_clean_linker_0, # of connection points: 2
#     Edge 23, Type (0, 0), BuildingBlock: FUNLAD_clean_linker_0, # of connection points: 2
# Relax obj value: 0.229
# Max RMSD: 0.117
# Mean RMSD: 0.117
data_MOF--net-rac--node1-NAHDIM_clean_sbu_0--edge1-FUNLAD_clean_linker_0
_symmetry_space_group_name_H-M    P1
_symmetry_Int_Tables_number       1
_symmetry_cell_setting            triclinic
loop_
_symmetry_equiv_pos_as_xyz
'x, y, z'
_cell_length_a     46.061399
_cell_length_b     24.007928
_cell_length_c     48.399633
_cell_angle_alpha  89.689271
_cell_angle_beta   89.807745
_cell_angle_gamma 90.139963
loop_
_atom_site_label
_atom_site_type_symbol
_atom_site_fract_x
_atom_site_fract_y
_atom_site_fract_z
_atom_type_partial_charge
C0 C 0.43963 0.29276 0.05721 0.0
O1 O 0.44512 0.28204 0.08331 0.0
O2 O 0.39503 0.23371 0.11079 0.0
Zn3 Zn 0.38289 0.24827 0.07131 0.0
O4 O 0.35513 0.31208 0.07107 0.0
C5 C 0.33639 0.17675 0.07191 0.0
O6 O 0.33292 0.20905 0.09351 0.0
O7 O 0.41587 0.2757 0.0469 0.0
C8 C 0.34631 0.32816 0.04752 0.0
O9 O 0.35584 0.30268 0.02532 0.0
C10 C 0.39719 0.27404 0.1276 0.0
O11 O 0.39285 0.32503 0.11854 0.0
O12 O 0.35921 0.18296 0.05725 0.0
C13 C 0.06194 0.68164 0.06145 0.0
O14 O 0.06685 0.67789 0.08812 0.0
O15 O 0.09677 0.77197 0.10753 0.0
Zn16 Zn 0.10838 0.7555 0.06826 0.0
O17 O 0.13954 0.6984 0.071 0.0
C18 C 0.12364 0.87152 0.05875 0.0
O19 O 0.10364 0.88046 0.07762 0.0
O20 O 0.07622 0.71722 0.04728 0.0
C21 C 0.15021 0.6781 0.04907 0.0
O22 O 0.14051 0.69539 0.02501 0.0
C23 C 0.11754 0.78217 0.12396 0.0
O24 O 0.144 0.78619 0.11388 0.0
O25 O 0.12739 0.82225 0.04998 0.0
C26 C 0.44399 0.20733 0.44969 0.0
O27 O 0.4482 0.21835 0.42337 0.0
O28 O 0.39759 0.26696 0.39882 0.0
Zn29 Zn 0.38781 0.2568 0.43928 0.0
O30 O 0.35722 0.1982 0.44229 0.0
C31 C 0.36674 0.36967 0.43931 0.0
O32 O 0.38208 0.3724 0.41642 0.0
O33 O 0.42117 0.22543 0.46145 0.0
C34 C 0.33154 0.20628 0.43378 0.0
O35 O 0.32507 0.25371 0.42164 0.0
C36 C 0.39653 0.2266 0.38195 0.0
O37 O 0.3903 0.17647 0.39129 0.0
O38 O 0.36857 0.32618 0.45432 0.0
C39 C 0.06793 0.81279 0.44039 0.0
O40 O 0.07752 0.82799 0.41587 0.0
O41 O 0.10464 0.72398 0.3914 0.0
Zn42 Zn 0.11394 0.74146 0.43109 0.0
O43 O 0.1408 0.80661 0.42866 0.0
C44 C 0.13922 0.63172 0.43919 0.0
O45 O 0.1237 0.61928 0.41734 0.0
O46 O 0.07923 0.77038 0.45197 0.0
C47 C 0.1482 0.83372 0.44994 0.0
O48 O 0.13876 0.8175 0.47435 0.0
C49 C 0.12685 0.7185 0.37598 0.0
O50 O 0.15272 0.71983 0.38734 0.0
O51 O 0.13655 0.6797 0.44989 0.0
C52 C 0.5506 0.70576 0.94621 0.0
O53 O 0.5468 0.71462 0.91968 0.0
O54 O 0.59587 0.76478 0.89453 0.0
Zn55 Zn 0.60655 0.75595 0.93491 0.0
O56 O 0.63625 0.69581 0.93797 0.0
C57 C 0.63581 0.86137 0.93188 0.0
O58 O 0.62848 0.85563 0.90586 0.0
O59 O 0.5731 0.72555 0.95782 0.0
C60 C 0.66262 0.70158 0.93082 0.0
O61 O 0.67138 0.749 0.91995 0.0
C62 C 0.59889 0.72477 0.87766 0.0
O63 O 0.60769 0.67616 0.88694 0.0
O64 O 0.62656 0.82573 0.94943 0.0
C65 C 0.94083 0.29671 0.94075 0.0
O66 O 0.93783 0.30366 0.91399 0.0
O67 O 0.8924 0.24522 0.89154 0.0
Zn68 Zn 0.88508 0.25111 0.93274 0.0
O69 O 0.86139 0.32 0.93795 0.0
C70 C 0.85942 0.1412 0.93195 0.0
O71 O 0.87684 0.13565 0.9106 0.0
O72 O 0.92179 0.26837 0.95383 0.0
C73 C 0.84119 0.32472 0.95566 0.0
O74 O 0.83487 0.28245 0.97197 0.0
C75 C 0.87249 0.26329 0.87575 0.0
O76 O 0.84813 0.2811 0.88674 0.0
O77 O 0.86085 0.18555 0.94613 0.0
C78 C 0.55124 0.78717 0.55496 0.0
O79 O 0.54679 0.77571 0.5812 0.0
O80 O 0.59601 0.72544 0.60572 0.0
Zn81 Zn 0.60646 0.73371 0.56522 0.0
O82 O 0.63858 0.78938 0.56162 0.0
C83 C 0.6343 0.62793 0.56716 0.0
O84 O 0.62946 0.63581 0.5936 0.0
O85 O 0.57382 0.76812 0.54314 0.0
C86 C 0.66367 0.78216 0.57177 0.0
O87 O 0.66895 0.73721 0.58649 0.0
C88 C 0.59941 0.7656 0.62243 0.0
O89 O 0.60861 0.81389 0.61291 0.0
O90 O 0.62365 0.66234 0.54987 0.0
C91 C 0.92694 0.17909 0.55824 0.0
O92 O 0.9178 0.16414 0.58294 0.0
O93 O 0.88855 0.26935 0.60643 0.0
Zn94 Zn 0.87973 0.24772 0.56718 0.0
O95 O 0.85392 0.18119 0.57074 0.0
C96 C 0.85842 0.35843 0.55559 0.0
O97 O 0.87947 0.37261 0.57242 0.0
O98 O 0.91487 0.22043 0.54643 0.0
C99 C 0.84791 0.15087 0.55014 0.0
O100 O 0.85815 0.16444 0.52564 0.0
C101 C 0.86577 0.27817 0.62063 0.0
O102 O 0.84043 0.27585 0.60827 0.0
O103 O 0.85608 0.30776 0.54844 0.0
C104 C 0.28721 0.13613 0.08003 0.0
C105 C 0.31305 0.13692 0.06448 0.0
C106 C 0.2645 0.10032 0.07321 0.0
C107 C 0.2669 0.06427 0.05053 0.0
C108 C 0.29293 0.06404 0.03527 0.0
C109 C 0.31574 0.1004 0.04201 0.0
C110 C 0.24317 0.02438 0.04376 0.0
C111 C 0.21496 0.03594 0.04881 0.0
C112 C 0.19067 0.99481 0.04741 0.0
C113 C 0.16427 0.00858 0.06029 0.0
C114 C 0.14187 0.96947 0.06269 0.0
C115 C 0.14522 0.91558 0.05204 0.0
H116 H 0.2129 0.9298 0.02442 0.0
C117 C 0.17086 0.90279 0.03752 0.0
C118 C 0.19337 0.94191 0.03523 0.0
H119 H 0.17408 0.86175 0.02887 0.0
H120 H 0.28439 0.1633 0.09762 0.0
H121 H 0.24534 0.10025 0.08621 0.0
H122 H 0.29554 0.03602 0.01797 0.0
H123 H 0.33541 0.09983 0.02969 0.0
H124 H 0.24951 0.98446 0.03536 0.0
H125 H 0.2094 0.07722 0.05621 0.0
H126 H 0.16133 0.04912 0.06962 0.0
H127 H 0.12236 0.98092 0.07383 0.0
C128 C 0.17328 0.55312 0.4298 0.0
C129 C 0.16358 0.59524 0.44762 0.0
C130 C 0.19895 0.52437 0.43534 0.0
C131 C 0.21533 0.53666 0.459 0.0
C132 C 0.2047 0.57603 0.47779 0.0
C133 C 0.17922 0.6056 0.472 0.0
C134 C 0.24383 0.50961 0.46385 0.0
C135 C 0.26283 0.50215 0.44298 0.0
C136 C 0.29135 0.47384 0.44567 0.0
C137 C 0.31258 0.48419 0.42541 0.0
C138 C 0.33809 0.45294 0.4246 0.0
C139 C 0.34283 0.40993 0.44386 0.0
H140 H 0.28077 0.42336 0.48173 0.0
C141 C 0.32231 0.40149 0.46511 0.0
C142 C 0.29679 0.43312 0.46602 0.0
H143 H 0.32522 0.36855 0.48022 0.0
H144 H 0.16174 0.54388 0.4109 0.0
H145 H 0.20621 0.49306 0.42086 0.0
H146 H 0.21677 0.58566 0.49633 0.0
H147 H 0.17222 0.63761 0.48622 0.0
H148 H 0.24978 0.49888 0.4849 0.0
H149 H 0.25736 0.51844 0.42264 0.0
H150 H 0.30899 0.51534 0.40951 0.0
H151 H 0.35341 0.46076 0.40799 0.0
C152 C 0.67074 0.93671 0.9186 0.0
C153 C 0.65881 0.90205 0.93924 0.0
C154 C 0.69531 0.969 0.92387 0.0
C155 C 0.70861 0.96758 0.94996 0.0
C156 C 0.69565 0.93591 0.97117 0.0
C157 C 0.67109 0.90302 0.96583 0.0
C158 C 0.73615 0.99835 0.95506 0.0
C159 C 0.75702 0.00193 0.9355 0.0
C160 C 0.78464 0.03378 0.93815 0.0
C161 C 0.80728 0.02202 0.9196 0.0
C162 C 0.83226 0.05506 0.91871 0.0
C163 C 0.83516 0.10119 0.93623 0.0
H164 H 0.77096 0.08938 0.97099 0.0
C165 C 0.8131 0.11164 0.95572 0.0
C166 C 0.78805 0.07833 0.95667 0.0
H167 H 0.81458 0.147 0.96946 0.0
H168 H 0.66168 0.93764 0.89798 0.0
H169 H 0.70411 0.99457 0.90733 0.0
H170 H 0.70523 0.93481 0.99158 0.0
H171 H 0.66238 0.87699 0.98223 0.0
H172 H 0.73973 0.0156 0.97545 0.0
H173 H 0.7539 0.97954 0.91626 0.0
H174 H 0.8053 0.988 0.90509 0.0
H175 H 0.84879 0.04563 0.90348 0.0
C176 C 0.67225 0.5577 0.57882 0.0
C177 C 0.65674 0.5873 0.55855 0.0
C178 C 0.69653 0.52627 0.57169 0.0
C179 C 0.70584 0.52328 0.54407 0.0
C180 C 0.6893 0.5496 0.52351 0.0
C181 C 0.6651 0.58187 0.53069 0.0
C182 C 0.73295 0.4933 0.53678 0.0
C183 C 0.75675 0.49719 0.55281 0.0
C184 C 0.78396 0.46501 0.54873 0.0
C185 C 0.80925 0.48349 0.56198 0.0
C186 C 0.83416 0.45044 0.56256 0.0
C187 C 0.83426 0.39769 0.55014 0.0
H188 H 0.76541 0.39761 0.52468 0.0
C189 C 0.80949 0.38046 0.53548 0.0
C190 C 0.78456 0.41374 0.53479 0.0
H191 H 0.80881 0.34001 0.5257 0.0
H192 H 0.66633 0.56039 0.60045 0.0
H193 H 0.70829 0.50488 0.58792 0.0
H194 H 0.69582 0.54714 0.50202 0.0
H195 H 0.65355 0.60395 0.51456 0.0
H196 H 0.73353 0.46974 0.51771 0.0
H197 H 0.75627 0.52552 0.57027 0.0
H198 H 0.80943 0.5228 0.57288 0.0
H199 H 0.85283 0.46517 0.57398 0.0
C200 C 0.40675 0.3085 0.17543 0.0
C201 C 0.40304 0.26368 0.15723 0.0
C202 C 0.41047 0.2991 0.20371 0.0
C203 C 0.41023 0.24448 0.2145 0.0
C204 C 0.40761 0.19968 0.19613 0.0
C205 C 0.40399 0.2091 0.16781 0.0
C206 C 0.41234 0.23236 0.24464 0.0
C207 C 0.40542 0.26948 0.26441 0.0
C208 C 0.40521 0.25644 0.29449 0.0
C209 C 0.40686 0.30065 0.31329 0.0
C210 C 0.40479 0.29086 0.34171 0.0
C211 C 0.4007 0.23654 0.35199 0.0
H212 H 0.39927 0.16675 0.29109 0.0
C213 C 0.39936 0.19213 0.33324 0.0
C214 C 0.40152 0.2019 0.30479 0.0
H215 H 0.39604 0.1498 0.34046 0.0
H216 H 0.40656 0.35106 0.16789 0.0
H217 H 0.41358 0.33486 0.21685 0.0
H218 H 0.40768 0.15717 0.20376 0.0
H219 H 0.40136 0.17359 0.15433 0.0
H220 H 0.41872 0.19048 0.25053 0.0
H221 H 0.39909 0.31141 0.25861 0.0
H222 H 0.40948 0.3431 0.30596 0.0
H223 H 0.40582 0.32608 0.35558 0.0
C224 C 0.0978 0.729 0.33243 0.0
C225 C 0.12418 0.71651 0.34558 0.0
C226 C 0.09646 0.73326 0.30359 0.0
C227 C 0.12155 0.72497 0.28739 0.0
C228 C 0.14747 0.7099 0.30062 0.0
C229 C 0.14883 0.70594 0.32932 0.0
C230 C 0.12235 0.73269 0.25689 0.0
C231 C 0.10179 0.7587 0.24187 0.0
C232 C 0.1056 0.76887 0.2118 0.0
C233 C 0.08151 0.7664 0.19417 0.0
C234 C 0.08509 0.77252 0.16557 0.0
C235 C 0.11283 0.78207 0.1542 0.0
H236 H 0.15191 0.7857 0.21363 0.0
C237 C 0.13662 0.78766 0.17206 0.0
C238 C 0.13306 0.78122 0.20051 0.0
H239 H 0.15822 0.79573 0.16404 0.0
H240 H 0.07839 0.73709 0.34443 0.0
H241 H 0.07583 0.7435 0.29432 0.0
H242 H 0.16708 0.70267 0.28874 0.0
H243 H 0.16944 0.69577 0.33878 0.0
H244 H 0.14168 0.71782 0.24634 0.0
H245 H 0.08169 0.77238 0.25132 0.0
H246 H 0.06006 0.75788 0.20244 0.0
H247 H 0.06628 0.76836 0.15237 0.0
C248 C 0.60072 0.69117 0.82882 0.0
C249 C 0.59425 0.73363 0.84771 0.0
C250 C 0.59818 0.70042 0.80041 0.0
C251 C 0.58873 0.75235 0.79019 0.0
C252 C 0.58191 0.7945 0.80914 0.0
C253 C 0.58459 0.78529 0.83757 0.0
C254 C 0.58758 0.76545 0.76009 0.0
C255 C 0.5872 0.72646 0.74013 0.0
C256 C 0.58864 0.73933 0.71001 0.0
C257 C 0.58133 0.69729 0.69117 0.0
C258 C 0.58423 0.7061 0.66272 0.0
C259 C 0.59463 0.75725 0.65243 0.0
H260 H 0.60556 0.82389 0.71324 0.0
C261 C 0.60159 0.79965 0.67119 0.0
C262 C 0.59881 0.79078 0.69964 0.0
H263 H 0.60989 0.83941 0.66396 0.0
H264 H 0.60847 0.65101 0.83593 0.0
H265 H 0.60456 0.6672 0.78671 0.0
H266 H 0.57482 0.83503 0.80193 0.0
H267 H 0.57948 0.81896 0.85156 0.0
H268 H 0.58671 0.80918 0.75442 0.0
H269 H 0.58547 0.68282 0.74584 0.0
H270 H 0.57365 0.65712 0.69849 0.0
H271 H 0.57871 0.67251 0.64884 0.0
C272 C 0.89339 0.28152 0.66534 0.0
C273 C 0.86709 0.28616 0.65087 0.0
C274 C 0.8938 0.28477 0.69424 0.0
C275 C 0.8678 0.29248 0.70917 0.0
C276 C 0.84179 0.29899 0.69449 0.0
C277 C 0.8414 0.29578 0.66577 0.0
C278 C 0.86629 0.294 0.73987 0.0
C279 C 0.88755 0.27694 0.75703 0.0
C280 C 0.88407 0.27557 0.78766 0.0
C281 C 0.9022 0.24085 0.80346 0.0
C282 C 0.89875 0.23692 0.83217 0.0
C283 C 0.87693 0.26745 0.84558 0.0
H284 H 0.84948 0.33718 0.79048 0.0
C285 C 0.85931 0.30319 0.82992 0.0
C286 C 0.86305 0.30781 0.80142 0.0
H287 H 0.84277 0.32831 0.83975 0.0
H288 H 0.91359 0.27446 0.6544 0.0
H289 H 0.91448 0.28113 0.70456 0.0
H290 H 0.82146 0.30558 0.70531 0.0
H291 H 0.82076 0.29993 0.6553 0.0
H292 H 0.84562 0.30669 0.74854 0.0
H293 H 0.9075 0.26007 0.7486 0.0
H294 H 0.91881 0.21605 0.79353 0.0
H295 H 0.91281 0.20937 0.84378 0.0
C296 C 0.44721 0.35958 0.01774 0.0
C297 C 0.45748 0.33466 0.04219 0.0
C298 C 0.46155 0.40564 0.00616 0.0
C299 C 0.4865 0.42779 0.01881 0.0
C300 C 0.4977 0.40071 0.04223 0.0
C301 C 0.48329 0.35492 0.0539 0.0
C302 C 0.50144 0.47884 0.00834 0.0
C303 C 0.48801 0.51921 0.99371 0.0
C304 C 0.50307 0.57022 0.9834 0.0
C305 C 0.49282 0.59625 0.95931 0.0
C306 C 0.50745 0.64209 0.94794 0.0
C307 C 0.53246 0.66352 0.96067 0.0
H308 H 0.53509 0.57592 0.01617 0.0
C309 C 0.5417 0.63963 0.98573 0.0
C310 C 0.5272 0.59343 0.99697 0.0
H311 H 0.5608 0.65524 0.99617 0.0
H312 H 0.42748 0.34488 0.00807 0.0
H313 H 0.45284 0.42384 0.98746 0.0
H314 H 0.51714 0.41623 0.05214 0.0
H315 H 0.49189 0.33658 0.07265 0.0
H316 H 0.52418 0.48377 0.01366 0.0
H317 H 0.46531 0.51442 0.98827 0.0
H318 H 0.474 0.57987 0.94868 0.0
H319 H 0.49964 0.65966 0.9287 0.0
C320 C 0.04693 0.62671 0.01987 0.0
C321 C 0.04354 0.63912 0.04804 0.0
C322 C 0.03243 0.58115 0.00832 0.0
C323 C 0.01411 0.54739 0.02473 0.0
C324 C 0.00959 0.56172 0.05246 0.0
C325 C 0.02435 0.60671 0.06407 0.0
C326 C -0.00097 0.49753 0.01363 0.0
C327 C 0.00991 0.46614 0.99306 0.0
C328 C 0.99435 0.41737 0.98132 0.0
C329 C -0.00034 0.40304 0.9537 0.0
C330 C 0.98344 0.36123 0.94098 0.0
C331 C 0.96179 0.33223 0.95573 0.0
H332 H 0.97021 0.39396 0.01832 0.0
C333 C 0.95798 0.34356 0.98397 0.0
C334 C 0.97408 0.38576 0.99666 0.0
H335 H 0.94159 0.32175 0.99597 0.0
H336 H 0.06156 0.65096 0.00698 0.0
H337 H 0.03564 0.57256 0.9866 0.0
H338 H 0.99526 0.53698 0.06544 0.0
H339 H 0.02114 0.61542 0.08581 0.0
H340 H 0.97856 0.48601 0.02328 0.0
H341 H 0.03042 0.47785 0.9835 0.0
H342 H 0.01551 0.42597 0.94153 0.0
H343 H 0.98709 0.3532 0.91924 0.0
C344 C 0.54305 0.85506 0.51618 0.0
C345 C 0.53371 0.83092 0.54123 0.0
C346 C 0.52919 0.90226 0.50551 0.0
C347 C 0.50565 0.92631 0.51968 0.0
C348 C 0.49526 0.90015 0.54377 0.0
C349 C 0.50923 0.85322 0.55455 0.0
C350 C 0.49134 0.97835 0.51002 0.0
C351 C 0.50505 0.01802 0.495 0.0
C352 C 0.49064 0.06994 0.48532 0.0
C353 C 0.50071 0.09578 0.46103 0.0
C354 C 0.48645 0.1423 0.45015 0.0
C355 C 0.462 0.16448 0.46357 0.0
H356 H 0.45953 0.07675 0.51902 0.0
C357 C 0.45306 0.14081 0.48886 0.0
C358 C 0.4672 0.09403 0.49963 0.0
H359 H 0.43443 0.15708 0.49987 0.0
H360 H 0.56172 0.83873 0.50526 0.0
H361 H 0.53713 0.91982 0.48628 0.0
H362 H 0.47687 0.9172 0.55486 0.0
H363 H 0.50135 0.83549 0.5738 0.0
H364 H 0.46892 0.98454 0.51626 0.0
H365 H 0.52746 0.01186 0.48873 0.0
H366 H 0.51903 0.0787 0.44984 0.0
H367 H 0.49404 0.15969 0.43072 0.0
C368 C 0.95917 0.09563 0.55624 0.0
C369 C 0.94747 0.14285 0.54311 0.0
C370 C 0.9757 0.05727 0.5414 0.0
C371 C 0.98079 0.06511 0.51298 0.0
C372 C 0.97033 0.11371 0.50017 0.0
C373 C 0.95371 0.15211 0.51502 0.0
C374 C 0.99705 0.02387 0.49614 0.0
C375 C -0.00154 0.9691 0.50251 0.0
C376 C 0.01465 0.92777 0.48567 0.0
C377 C 0.0247 0.87875 0.49841 0.0
C378 C 0.04115 0.8401 0.48355 0.0
C379 C 0.04766 0.84953 0.45553 0.0
H380 H 0.01169 0.97175 0.44637 0.0
C381 C 0.03642 0.89724 0.44247 0.0
C382 C 0.02004 0.93583 0.4573 0.0
H383 H 0.04071 0.90547 0.42081 0.0
H384 H 0.95509 0.08754 0.57795 0.0
H385 H 0.98438 0.02166 0.55236 0.0
H386 H 0.97432 0.12124 0.47839 0.0
H387 H 0.9451 0.18814 0.5043 0.0
H388 H 0.00761 0.03944 0.47756 0.0
H389 H 0.98787 0.95359 0.52109 0.0
H390 H 0.02048 0.87104 0.52013 0.0
H391 H 0.04941 0.8037 0.49421 0.0
C392 C 0.18537 0.61315 0.0266 0.0
C393 C 0.1732 0.63557 0.05073 0.0
C394 C 0.20717 0.57297 0.02826 0.0
C395 C 0.21733 0.55468 0.05416 0.0
C396 C 0.20483 0.57655 0.07822 0.0
C397 C 0.1831 0.61675 0.07656 0.0
C398 C 0.24022 0.51181 0.05706 0.0
C399 C 0.26028 0.5015 0.03747 0.0
C400 C 0.28288 0.45815 0.04066 0.0
C401 C 0.29429 0.43307 0.01689 0.0
C402 C 0.31506 0.39106 0.01908 0.0
C403 C 0.32503 0.37372 0.04514 0.0
H404 H 0.28606 0.46169 0.08547 0.0
C405 C 0.31425 0.39993 0.06891 0.0
C406 C 0.29346 0.44186 0.06672 0.0
H407 H 0.32179 0.38797 0.08928 0.0
H408 H 0.17798 0.62642 0.00639 0.0
H409 H 0.21549 0.55579 0.00922 0.0
H410 H 0.21206 0.5628 0.09842 0.0
H411 H 0.17407 0.633 0.09557 0.0
H412 H 0.24059 0.4885 0.07634 0.0
H413 H 0.25994 0.5244 0.01809 0.0
H414 H 0.28674 0.44534 0.99657 0.0
H415 H 0.32311 0.37194 0.00036 0.0
C416 C 0.2808 0.17033 0.4284 0.0
C417 C 0.30907 0.16336 0.43861 0.0
C418 C 0.25958 0.12976 0.43336 0.0
C419 C 0.26633 0.08143 0.4486 0.0
C420 C 0.29442 0.07503 0.45917 0.0
C421 C 0.31564 0.11533 0.45408 0.0
C422 C 0.24468 0.03701 0.45407 0.0
C423 C 0.2228 0.02556 0.43666 0.0
C424 C 0.20304 0.9775 0.44082 0.0
C425 C 0.19134 0.95131 0.41756 0.0
C426 C 0.17357 0.90455 0.42056 0.0
C427 C 0.1668 0.88351 0.44697 0.0
H428 H 0.20375 0.97751 0.48573 0.0
C429 C 0.17782 0.91066 0.47034 0.0
C430 C 0.19579 0.95726 0.46731 0.0
H431 H 0.17273 0.89577 0.49096 0.0
H432 H 0.275 0.20716 0.41665 0.0
H433 H 0.2379 0.13682 0.42557 0.0
H434 H 0.30009 0.03836 0.47112 0.0
H435 H 0.33717 0.10886 0.46243 0.0
H436 H 0.24841 0.01 0.47178 0.0
H437 H 0.22081 0.04891 0.41748 0.0
H438 H 0.1964 0.96642 0.39696 0.0
H439 H 0.16518 0.8849 0.40213 0.0
C440 C 0.71259 0.661 0.92822 0.0
C441 C 0.68321 0.65552 0.93556 0.0
C442 C 0.732 0.61745 0.93315 0.0
C443 C 0.72237 0.56762 0.94574 0.0
C444 C 0.69293 0.56214 0.95276 0.0
C445 C 0.67358 0.60556 0.94781 0.0
C446 C 0.74179 0.51946 0.95088 0.0
C447 C 0.77094 0.52288 0.95159 0.0
C448 C 0.78947 0.47299 0.95473 0.0
C449 C 0.81625 0.47167 0.94095 0.0
C450 C 0.8333 0.42376 0.94168 0.0
C451 C 0.82408 0.37652 0.95663 0.0
H452 H 0.76065 0.427 0.98228 0.0
C453 C 0.79794 0.37879 0.97158 0.0
C454 C 0.78074 0.42659 0.97063 0.0
H455 H 0.79042 0.34325 0.98351 0.0
H456 H 0.72061 0.69884 0.91855 0.0
H457 H 0.75426 0.62295 0.92654 0.0
H458 H 0.68485 0.52411 0.96222 0.0
H459 H 0.65104 0.59988 0.95367 0.0
H460 H 0.73141 0.47919 0.95392 0.0
H461 H 0.78182 0.56244 0.94821 0.0
H462 H 0.82358 0.50714 0.92884 0.0
H463 H 0.85352 0.42353 0.93019 0.0
C464 C 0.71443 0.81746 0.57798 0.0
C465 C 0.68681 0.82334 0.56613 0.0
C466 C 0.73626 0.85645 0.57234 0.0
C467 C 0.73078 0.9021 0.55476 0.0
C468 C 0.70338 0.90726 0.54254 0.0
C469 C 0.68155 0.86855 0.54828 0.0
C470 C 0.75302 0.9451 0.54862 0.0
C471 C 0.77398 0.95906 0.56658 0.0
C472 C 0.79391 0.0066 0.5617 0.0
C473 C 0.80424 0.0363 0.5845 0.0
C474 C 0.82182 0.0831 0.58072 0.0
C475 C 0.82978 0.10067 0.55399 0.0
H476 H 0.79562 1.00019 0.51693 0.0
C477 C 0.82025 0.06986 0.53115 0.0
C478 C 0.80247 0.02321 0.53495 0.0
H479 H 0.8263 0.08201 0.51032 0.0
H480 H 0.71923 0.78273 0.59158 0.0
H481 H 0.75742 0.85027 0.58149 0.0
H482 H 0.69868 0.94183 0.52878 0.0
H483 H 0.66056 0.87407 0.53862 0.0
H484 H 0.75034 0.96936 0.52979 0.0
H485 H 0.77486 0.9387 0.58666 0.0
H486 H 0.79815 0.02402 0.60532 0.0
H487 H 0.82906 0.1056 0.59878 0.0
loop_
_geom_bond_atom_site_label_1
_geom_bond_atom_site_label_2
_geom_bond_distance
_geom_bond_site_symmetry_2
_ccdc_geom_bond_type
C0 O1 1.160 . S
C0 O7 1.185 . S
O1 C0 1.160 . S
O2 Zn3 1.899 . S
O2 C10 1.284 . S
Zn3 O2 1.899 . S
Zn3 O4 2.032 . S
Zn3 O7 2.086 . S
Zn3 O12 1.977 . S
O4 Zn3 2.032 . S
O4 C8 1.278 . S
C5 O6 1.203 . S
C5 O12 1.267 . S
O6 C5 1.203 . S
O7 C0 1.185 . S
O7 Zn3 2.086 . S
C8 O4 1.278 . S
C8 O9 1.211 . S
O9 C8 1.211 . S
C10 O2 1.284 . S
C10 O11 1.273 . S
O11 C10 1.273 . S
O12 Zn3 1.977 . S
O12 C5 1.267 . S
C13 O14 1.160 . S
C13 O20 1.185 . S
O14 C13 1.160 . S
O15 Zn16 1.899 . S
O15 C23 1.284 . S
Zn16 O15 1.899 . S
Zn16 O17 2.032 . S
Zn16 O20 2.086 . S
Zn16 O25 1.977 . S
O17 Zn16 2.032 . S
O17 C21 1.278 . S
C18 O19 1.203 . S
C18 O25 1.267 . S
O19 C18 1.203 . S
O20 C13 1.185 . S
O20 Zn16 2.086 . S
C21 O17 1.278 . S
C21 O22 1.211 . S
O22 C21 1.211 . S
C23 O15 1.284 . S
C23 O24 1.273 . S
O24 C23 1.273 . S
O25 Zn16 1.977 . S
O25 C18 1.267 . S
C26 O27 1.160 . S
C26 O33 1.185 . S
O27 C26 1.160 . S
O28 Zn29 1.899 . S
O28 C36 1.284 . S
Zn29 O28 1.899 . S
Zn29 O30 2.032 . S
Zn29 O33 2.086 . S
Zn29 O38 1.977 . S
O30 Zn29 2.032 . S
O30 C34 1.278 . S
C31 O32 1.203 . S
C31 O38 1.267 . S
O32 C31 1.203 . S
O33 C26 1.185 . S
O33 Zn29 2.086 . S
C34 O30 1.278 . S
C34 O35 1.211 . S
O35 C34 1.211 . S
C36 O28 1.284 . S
C36 O37 1.273 . S
O37 C36 1.273 . S
O38 Zn29 1.977 . S
O38 C31 1.267 . S
C39 O40 1.160 . S
C39 O46 1.185 . S
O40 C39 1.160 . S
O41 Zn42 1.899 . S
O41 C49 1.284 . S
Zn42 O41 1.899 . S
Zn42 O43 2.032 . S
Zn42 O46 2.086 . S
Zn42 O51 1.977 . S
O43 Zn42 2.032 . S
O43 C47 1.278 . S
C44 O45 1.203 . S
C44 O51 1.267 . S
O45 C44 1.203 . S
O46 C39 1.185 . S
O46 Zn42 2.086 . S
C47 O43 1.278 . S
C47 O48 1.211 . S
O48 C47 1.211 . S
C49 O41 1.284 . S
C49 O50 1.273 . S
O50 C49 1.273 . S
O51 Zn42 1.977 . S
O51 C44 1.267 . S
C52 O53 1.160 . S
C52 O59 1.185 . S
O53 C52 1.160 . S
O54 Zn55 1.899 . S
O54 C62 1.284 . S
Zn55 O54 1.899 . S
Zn55 O56 2.032 . S
Zn55 O59 2.086 . S
Zn55 O64 1.977 . S
O56 Zn55 2.032 . S
O56 C60 1.278 . S
C57 O58 1.203 . S
C57 O64 1.267 . S
O58 C57 1.203 . S
O59 C52 1.185 . S
O59 Zn55 2.086 . S
C60 O56 1.278 . S
C60 O61 1.211 . S
O61 C60 1.211 . S
C62 O54 1.284 . S
C62 O63 1.273 . S
O63 C62 1.273 . S
O64 Zn55 1.977 . S
O64 C57 1.267 . S
C65 O66 1.160 . S
C65 O72 1.185 . S
O66 C65 1.160 . S
O67 Zn68 1.899 . S
O67 C75 1.284 . S
Zn68 O67 1.899 . S
Zn68 O69 2.032 . S
Zn68 O72 2.086 . S
Zn68 O77 1.977 . S
O69 Zn68 2.032 . S
O69 C73 1.278 . S
C70 O71 1.203 . S
C70 O77 1.267 . S
O71 C70 1.203 . S
O72 C65 1.185 . S
O72 Zn68 2.086 . S
C73 O69 1.278 . S
C73 O74 1.211 . S
O74 C73 1.211 . S
C75 O67 1.284 . S
C75 O76 1.273 . S
O76 C75 1.273 . S
O77 Zn68 1.977 . S
O77 C70 1.267 . S
C78 O79 1.160 . S
C78 O85 1.185 . S
O79 C78 1.160 . S
O80 Zn81 1.899 . S
O80 C88 1.284 . S
Zn81 O80 1.899 . S
Zn81 O82 2.032 . S
Zn81 O85 2.086 . S
Zn81 O90 1.977 . S
O82 Zn81 2.032 . S
O82 C86 1.278 . S
C83 O84 1.203 . S
C83 O90 1.267 . S
O84 C83 1.203 . S
O85 C78 1.185 . S
O85 Zn81 2.086 . S
C86 O82 1.278 . S
C86 O87 1.211 . S
O87 C86 1.211 . S
C88 O80 1.284 . S
C88 O89 1.273 . S
O89 C88 1.273 . S
O90 Zn81 1.977 . S
O90 C83 1.267 . S
C91 O92 1.160 . S
C91 O98 1.185 . S
O92 C91 1.160 . S
O93 Zn94 1.899 . S
O93 C101 1.284 . S
Zn94 O93 1.899 . S
Zn94 O95 2.032 . S
Zn94 O98 2.086 . S
Zn94 O103 1.977 . S
O95 Zn94 2.032 . S
O95 C99 1.278 . S
C96 O97 1.203 . S
C96 O103 1.267 . S
O97 C96 1.203 . S
O98 C91 1.185 . S
O98 Zn94 2.086 . S
C99 O95 1.278 . S
C99 O100 1.211 . S
O100 C99 1.211 . S
C101 O93 1.284 . S
C101 O102 1.273 . S
O102 C101 1.273 . S
O103 Zn94 1.977 . S
O103 C96 1.267 . S
C104 C105 1.386 . S
C104 C106 1.383 . S
C104 H120 0.951 . S
C105 C104 1.386 . S
C105 C109 1.383 . S
C106 C104 1.383 . S
C106 C107 1.402 . S
C106 H121 0.951 . S
C107 C106 1.402 . S
C107 C108 1.375 . S
C107 C110 1.481 . S
C108 C107 1.375 . S
C108 C109 1.367 . S
C108 H122 0.951 . S
C109 C105 1.383 . S
C109 C108 1.367 . S
C109 H123 0.950 . S
C110 C107 1.481 . S
C110 C111 1.297 . S
C110 H124 0.950 . S
C111 C110 1.297 . S
C111 C112 1.479 1_545 S
C111 H125 0.950 . S
C112 C111 1.479 1_565 S
C112 C113 1.375 . S
C112 C118 1.404 . S
C113 C112 1.375 . S
C113 C114 1.369 . S
C113 H126 0.950 . S
C114 C113 1.369 . S
C114 C115 1.392 . S
C114 H127 0.951 . S
C115 C114 1.392 . S
C115 C117 1.384 . S
H116 C118 0.949 . S
C117 C115 1.384 . S
C117 C118 1.385 . S
C117 H119 0.950 . S
C118 C112 1.404 . S
C118 H116 0.949 . S
C118 C117 1.385 . S
H119 C117 0.950 . S
H120 C104 0.951 . S
H121 C106 0.951 . S
H122 C108 0.951 . S
H123 C109 0.950 . S
H124 C110 0.950 . S
H125 C111 0.950 . S
H126 C113 0.950 . S
H127 C114 0.951 . S
C128 C129 1.386 . S
C128 C130 1.383 . S
C128 H144 0.951 . S
C129 C128 1.386 . S
C129 C133 1.383 . S
C130 C128 1.383 . S
C130 C131 1.402 . S
C130 H145 0.951 . S
C131 C130 1.402 . S
C131 C132 1.375 . S
C131 C134 1.481 . S
C132 C131 1.375 . S
C132 C133 1.367 . S
C132 H146 0.951 . S
C133 C129 1.383 . S
C133 C132 1.367 . S
C133 H147 0.950 . S
C134 C131 1.481 . S
C134 C135 1.297 . S
C134 H148 0.950 . S
C135 C134 1.297 . S
C135 C136 1.479 . S
C135 H149 0.950 . S
C136 C135 1.479 . S
C136 C137 1.375 . S
C136 C142 1.404 . S
C137 C136 1.375 . S
C137 C138 1.369 . S
C137 H150 0.950 . S
C138 C137 1.369 . S
C138 C139 1.392 . S
C138 H151 0.951 . S
C139 C138 1.392 . S
C139 C141 1.384 . S
H140 C142 0.949 . S
C141 C139 1.384 . S
C141 C142 1.385 . S
C141 H143 0.950 . S
C142 C136 1.404 . S
C142 H140 0.949 . S
C142 C141 1.385 . S
H143 C141 0.950 . S
H144 C128 0.951 . S
H145 C130 0.951 . S
H146 C132 0.951 . S
H147 C133 0.950 . S
H148 C134 0.950 . S
H149 C135 0.950 . S
H150 C137 0.950 . S
H151 C138 0.951 . S
C152 C153 1.386 . S
C152 C154 1.383 . S
C152 H168 0.951 . S
C153 C152 1.386 . S
C153 C157 1.383 . S
C154 C152 1.383 . S
C154 C155 1.402 . S
C154 H169 0.951 . S
C155 C154 1.402 . S
C155 C156 1.375 . S
C155 C158 1.481 1_565 S
C156 C155 1.375 . S
C156 C157 1.367 . S
C156 H170 0.951 . S
C157 C153 1.383 . S
C157 C156 1.367 . S
C157 H171 0.950 . S
C158 C155 1.481 1_545 S
C158 C159 1.297 . S
C158 H172 0.950 . S
C159 C158 1.297 . S
C159 C160 1.479 . S
C159 H173 0.950 . S
C160 C159 1.479 . S
C160 C161 1.375 . S
C160 C166 1.404 . S
C161 C160 1.375 . S
C161 C162 1.369 . S
C161 H174 0.950 . S
C162 C161 1.369 . S
C162 C163 1.392 . S
C162 H175 0.951 . S
C163 C162 1.392 . S
C163 C165 1.384 . S
H164 C166 0.949 . S
C165 C163 1.384 . S
C165 C166 1.385 . S
C165 H167 0.950 . S
C166 C160 1.404 . S
C166 H164 0.949 . S
C166 C165 1.385 . S
H167 C165 0.950 . S
H168 C152 0.951 . S
H169 C154 0.951 . S
H170 C156 0.951 . S
H171 C157 0.950 . S
H172 C158 0.950 . S
H173 C159 0.950 . S
H174 C161 0.950 . S
H175 C162 0.951 . S
C176 C177 1.386 . S
C176 C178 1.383 . S
C176 H192 0.951 . S
C177 C176 1.386 . S
C177 C181 1.383 . S
C178 C176 1.383 . S
C178 C179 1.402 . S
C178 H193 0.951 . S
C179 C178 1.402 . S
C179 C180 1.375 . S
C179 C182 1.481 . S
C180 C179 1.375 . S
C180 C181 1.367 . S
C180 H194 0.951 . S
C181 C177 1.383 . S
C181 C180 1.367 . S
C181 H195 0.950 . S
C182 C179 1.481 . S
C182 C183 1.297 . S
C182 H196 0.950 . S
C183 C182 1.297 . S
C183 C184 1.479 . S
C183 H197 0.950 . S
C184 C183 1.479 . S
C184 C185 1.375 . S
C184 C190 1.404 . S
C185 C184 1.375 . S
C185 C186 1.369 . S
C185 H198 0.950 . S
C186 C185 1.369 . S
C186 C187 1.392 . S
C186 H199 0.951 . S
C187 C186 1.392 . S
C187 C189 1.384 . S
H188 C190 0.949 . S
C189 C187 1.384 . S
C189 C190 1.385 . S
C189 H191 0.950 . S
C190 C184 1.404 . S
C190 H188 0.949 . S
C190 C189 1.385 . S
H191 C189 0.950 . S
H192 C176 0.951 . S
H193 C178 0.951 . S
H194 C180 0.951 . S
H195 C181 0.950 . S
H196 C182 0.950 . S
H197 C183 0.950 . S
H198 C185 0.950 . S
H199 C186 0.951 . S
C200 C201 1.386 . S
C200 C202 1.383 . S
C200 H216 0.951 . S
C201 C200 1.386 . S
C201 C205 1.383 . S
C202 C200 1.383 . S
C202 C203 1.402 . S
C202 H217 0.951 . S
C203 C202 1.402 . S
C203 C204 1.375 . S
C203 C206 1.481 . S
C204 C203 1.375 . S
C204 C205 1.367 . S
C204 H218 0.951 . S
C205 C201 1.383 . S
C205 C204 1.367 . S
C205 H219 0.950 . S
C206 C203 1.481 . S
C206 C207 1.297 . S
C206 H220 0.950 . S
C207 C206 1.297 . S
C207 C208 1.479 . S
C207 H221 0.950 . S
C208 C207 1.479 . S
C208 C209 1.375 . S
C208 C214 1.404 . S
C209 C208 1.375 . S
C209 C210 1.369 . S
C209 H222 0.950 . S
C210 C209 1.369 . S
C210 C211 1.392 . S
C210 H223 0.951 . S
C211 C210 1.392 . S
C211 C213 1.384 . S
H212 C214 0.949 . S
C213 C211 1.384 . S
C213 C214 1.385 . S
C213 H215 0.950 . S
C214 C208 1.404 . S
C214 H212 0.949 . S
C214 C213 1.385 . S
H215 C213 0.950 . S
H216 C200 0.951 . S
H217 C202 0.951 . S
H218 C204 0.951 . S
H219 C205 0.950 . S
H220 C206 0.950 . S
H221 C207 0.950 . S
H222 C209 0.950 . S
H223 C210 0.951 . S
C224 C225 1.386 . S
C224 C226 1.383 . S
C224 H240 0.951 . S
C225 C224 1.386 . S
C225 C229 1.383 . S
C226 C224 1.383 . S
C226 C227 1.402 . S
C226 H241 0.951 . S
C227 C226 1.402 . S
C227 C228 1.375 . S
C227 C230 1.481 . S
C228 C227 1.375 . S
C228 C229 1.367 . S
C228 H242 0.951 . S
C229 C225 1.383 . S
C229 C228 1.367 . S
C229 H243 0.950 . S
C230 C227 1.481 . S
C230 C231 1.297 . S
C230 H244 0.950 . S
C231 C230 1.297 . S
C231 C232 1.479 . S
C231 H245 0.950 . S
C232 C231 1.479 . S
C232 C233 1.375 . S
C232 C238 1.404 . S
C233 C232 1.375 . S
C233 C234 1.369 . S
C233 H246 0.950 . S
C234 C233 1.369 . S
C234 C235 1.392 . S
C234 H247 0.951 . S
C235 C234 1.392 . S
C235 C237 1.384 . S
H236 C238 0.949 . S
C237 C235 1.384 . S
C237 C238 1.385 . S
C237 H239 0.950 . S
C238 C232 1.404 . S
C238 H236 0.949 . S
C238 C237 1.385 . S
H239 C237 0.950 . S
H240 C224 0.951 . S
H241 C226 0.951 . S
H242 C228 0.951 . S
H243 C229 0.950 . S
H244 C230 0.950 . S
H245 C231 0.950 . S
H246 C233 0.950 . S
H247 C234 0.951 . S
C248 C249 1.386 . S
C248 C250 1.383 . S
C248 H264 0.951 . S
C249 C248 1.386 . S
C249 C253 1.383 . S
C250 C248 1.383 . S
C250 C251 1.402 . S
C250 H265 0.951 . S
C251 C250 1.402 . S
C251 C252 1.375 . S
C251 C254 1.481 . S
C252 C251 1.375 . S
C252 C253 1.367 . S
C252 H266 0.951 . S
C253 C249 1.383 . S
C253 C252 1.367 . S
C253 H267 0.950 . S
C254 C251 1.481 . S
C254 C255 1.297 . S
C254 H268 0.950 . S
C255 C254 1.297 . S
C255 C256 1.479 . S
C255 H269 0.950 . S
C256 C255 1.479 . S
C256 C257 1.375 . S
C256 C262 1.404 . S
C257 C256 1.375 . S
C257 C258 1.369 . S
C257 H270 0.950 . S
C258 C257 1.369 . S
C258 C259 1.392 . S
C258 H271 0.951 . S
C259 C258 1.392 . S
C259 C261 1.384 . S
H260 C262 0.949 . S
C261 C259 1.384 . S
C261 C262 1.385 . S
C261 H263 0.950 . S
C262 C256 1.404 . S
C262 H260 0.949 . S
C262 C261 1.385 . S
H263 C261 0.950 . S
H264 C248 0.951 . S
H265 C250 0.951 . S
H266 C252 0.951 . S
H267 C253 0.950 . S
H268 C254 0.950 . S
H269 C255 0.950 . S
H270 C257 0.950 . S
H271 C258 0.951 . S
C272 C273 1.386 . S
C272 C274 1.383 . S
C272 H288 0.951 . S
C273 C272 1.386 . S
C273 C277 1.383 . S
C274 C272 1.383 . S
C274 C275 1.402 . S
C274 H289 0.951 . S
C275 C274 1.402 . S
C275 C276 1.375 . S
C275 C278 1.481 . S
C276 C275 1.375 . S
C276 C277 1.367 . S
C276 H290 0.951 . S
C277 C273 1.383 . S
C277 C276 1.367 . S
C277 H291 0.950 . S
C278 C275 1.481 . S
C278 C279 1.297 . S
C278 H292 0.950 . S
C279 C278 1.297 . S
C279 C280 1.479 . S
C279 H293 0.950 . S
C280 C279 1.479 . S
C280 C281 1.375 . S
C280 C286 1.404 . S
C281 C280 1.375 . S
C281 C282 1.369 . S
C281 H294 0.950 . S
C282 C281 1.369 . S
C282 C283 1.392 . S
C282 H295 0.951 . S
C283 C282 1.392 . S
C283 C285 1.384 . S
H284 C286 0.949 . S
C285 C283 1.384 . S
C285 C286 1.385 . S
C285 H287 0.950 . S
C286 C280 1.404 . S
C286 H284 0.949 . S
C286 C285 1.385 . S
H287 C285 0.950 . S
H288 C272 0.951 . S
H289 C274 0.951 . S
H290 C276 0.951 . S
H291 C277 0.950 . S
H292 C278 0.950 . S
H293 C279 0.950 . S
H294 C281 0.950 . S
H295 C282 0.951 . S
C296 C297 1.386 . S
C296 C298 1.383 1_554 S
C296 H312 0.951 1_554 S
C297 C296 1.386 . S
C297 C301 1.383 . S
C298 C296 1.383 1_556 S
C298 C299 1.402 1_556 S
C298 H313 0.951 . S
C299 C298 1.402 1_554 S
C299 C300 1.375 . S
C299 C302 1.481 . S
C300 C299 1.375 . S
C300 C301 1.367 . S
C300 H314 0.951 . S
C301 C297 1.383 . S
C301 C300 1.367 . S
C301 H315 0.950 . S
C302 C299 1.481 . S
C302 C303 1.297 1_554 S
C302 H316 0.950 . S
C303 C302 1.297 1_556 S
C303 C304 1.479 . S
C303 H317 0.950 . S
C304 C303 1.479 . S
C304 C305 1.375 . S
C304 C310 1.383 1_556 S
C305 C304 1.375 . S
C305 C306 1.369 . S
C305 H318 0.950 . S
C306 C305 1.369 . S
C306 C307 1.392 . S
C306 H319 0.951 . S
C307 C306 1.392 . S
C307 C309 1.384 . S
H308 C310 0.976 . S
C309 C307 1.384 . S
C309 C310 1.379 1_556 S
C309 H311 0.950 1_556 S
C310 C304 1.383 1_554 S
C310 H308 0.976 . S
C310 C309 1.379 1_554 S
H311 C309 0.950 1_554 S
H312 C296 0.951 1_556 S
H313 C298 0.951 . S
H314 C300 0.951 . S
H315 C301 0.950 . S
H316 C302 0.950 . S
H317 C303 0.950 . S
H318 C305 0.950 . S
H319 C306 0.951 . S
C320 C321 1.386 . S
C320 C322 1.383 . S
C320 H336 0.951 . S
C321 C320 1.386 . S
C321 C325 1.383 . S
C322 C320 1.383 . S
C322 C323 1.402 . S
C322 H337 0.951 . S
C323 C322 1.402 . S
C323 C324 1.375 . S
C323 C326 1.481 1_455 S
C324 C323 1.375 . S
C324 C325 1.367 . S
C324 H338 0.951 1_455 S
C325 C321 1.383 . S
C325 C324 1.367 . S
C325 H339 0.950 . S
C326 C323 1.481 1_655 S
C326 C327 1.297 1_655 S
C326 H340 0.950 . S
C327 C326 1.297 1_455 S
C327 C328 1.479 1_454 S
C327 H341 0.950 . S
C328 C327 1.479 1_656 S
C328 C329 1.375 . S
C328 C334 1.404 1_556 S
C329 C328 1.375 . S
C329 C330 1.369 . S
C329 H342 0.950 1_655 S
C330 C329 1.369 . S
C330 C331 1.392 . S
C330 H343 0.951 . S
C331 C330 1.392 . S
C331 C333 1.384 . S
H332 C334 0.949 . S
C333 C331 1.384 . S
C333 C334 1.385 1_556 S
C333 H335 0.950 . S
C334 C328 1.404 1_554 S
C334 H332 0.949 . S
C334 C333 1.385 1_554 S
H335 C333 0.950 . S
H336 C320 0.951 . S
H337 C322 0.951 . S
H338 C324 0.951 1_655 S
H339 C325 0.950 . S
H340 C326 0.950 . S
H341 C327 0.950 . S
H342 C329 0.950 1_455 S
H343 C330 0.951 . S
C344 C345 1.386 . S
C344 C346 1.383 . S
C344 H360 0.951 . S
C345 C344 1.386 . S
C345 C349 1.383 . S
C346 C344 1.383 . S
C346 C347 1.402 . S
C346 H361 0.951 . S
C347 C346 1.402 . S
C347 C348 1.375 . S
C347 C350 1.481 . S
C348 C347 1.375 . S
C348 C349 1.367 . S
C348 H362 0.951 . S
C349 C345 1.383 . S
C349 C348 1.367 . S
C349 H363 0.950 . S
C350 C347 1.481 . S
C350 C351 1.297 . S
C350 H364 0.950 1_565 S
C351 C350 1.297 . S
C351 C352 1.479 1_565 S
C351 H365 0.950 . S
C352 C351 1.479 1_545 S
C352 C353 1.375 . S
C352 C358 1.404 . S
C353 C352 1.375 . S
C353 C354 1.369 . S
C353 H366 0.950 . S
C354 C353 1.369 . S
C354 C355 1.392 . S
C354 H367 0.951 . S
C355 C354 1.392 . S
C355 C357 1.384 . S
H356 C358 0.949 . S
C357 C355 1.384 . S
C357 C358 1.385 . S
C357 H359 0.950 . S
C358 C352 1.404 . S
C358 H356 0.949 . S
C358 C357 1.385 . S
H359 C357 0.950 . S
H360 C344 0.951 . S
H361 C346 0.951 . S
H362 C348 0.951 . S
H363 C349 0.950 . S
H364 C350 0.950 1_545 S
H365 C351 0.950 . S
H366 C353 0.950 . S
H367 C354 0.951 . S
C368 C369 1.386 . S
C368 C370 1.383 . S
C368 H384 0.951 . S
C369 C368 1.386 . S
C369 C373 1.383 . S
C370 C368 1.383 . S
C370 C371 1.402 . S
C370 H385 0.951 . S
C371 C370 1.402 . S
C371 C372 1.375 . S
C371 C374 1.481 1_545 S
C372 C371 1.375 . S
C372 C373 1.367 . S
C372 H386 0.951 . S
C373 C369 1.383 . S
C373 C372 1.367 . S
C373 H387 0.950 . S
C374 C371 1.481 1_565 S
C374 C375 1.297 1_655 S
C374 H388 0.950 . S
C375 C374 1.297 1_455 S
C375 C376 1.479 . S
C375 H389 0.950 . S
C376 C375 1.479 . S
C376 C377 1.375 . S
C376 C382 1.404 . S
C377 C376 1.375 . S
C377 C378 1.369 . S
C377 H390 0.950 . S
C378 C377 1.369 . S
C378 C379 1.392 . S
C378 H391 0.951 . S
C379 C378 1.392 . S
C379 C381 1.384 . S
H380 C382 0.949 1_655 S
C381 C379 1.384 . S
C381 C382 1.385 . S
C381 H383 0.950 . S
C382 C376 1.404 . S
C382 H380 0.949 1_455 S
C382 C381 1.385 . S
H383 C381 0.950 . S
H384 C368 0.951 . S
H385 C370 0.951 . S
H386 C372 0.951 . S
H387 C373 0.950 . S
H388 C374 0.950 . S
H389 C375 0.950 . S
H390 C377 0.950 . S
H391 C378 0.951 . S
C392 C393 1.386 . S
C392 C394 1.383 . S
C392 H408 0.951 . S
C393 C392 1.386 . S
C393 C397 1.383 . S
C394 C392 1.383 . S
C394 C395 1.402 . S
C394 H409 0.951 . S
C395 C394 1.402 . S
C395 C396 1.375 . S
C395 C398 1.481 . S
C396 C395 1.375 . S
C396 C397 1.367 . S
C396 H410 0.951 . S
C397 C393 1.383 . S
C397 C396 1.367 . S
C397 H411 0.950 . S
C398 C395 1.481 . S
C398 C399 1.297 . S
C398 H412 0.950 . S
C399 C398 1.297 . S
C399 C400 1.479 . S
C399 H413 0.950 . S
C400 C399 1.479 . S
C400 C401 1.375 . S
C400 C406 1.404 . S
C401 C400 1.375 . S
C401 C402 1.369 . S
C401 H414 0.950 . S
C402 C401 1.369 . S
C402 C403 1.392 . S
C402 H415 0.951 . S
C403 C402 1.392 . S
C403 C405 1.384 . S
H404 C406 0.949 . S
C405 C403 1.384 . S
C405 C406 1.385 . S
C405 H407 0.950 . S
C406 C400 1.404 . S
C406 H404 0.949 . S
C406 C405 1.385 . S
H407 C405 0.950 . S
H408 C392 0.951 . S
H409 C394 0.951 . S
H410 C396 0.951 . S
H411 C397 0.950 . S
H412 C398 0.950 . S
H413 C399 0.950 . S
H414 C401 0.950 . S
H415 C402 0.951 . S
C416 C417 1.386 . S
C416 C418 1.383 . S
C416 H432 0.951 . S
C417 C416 1.386 . S
C417 C421 1.383 . S
C418 C416 1.383 . S
C418 C419 1.402 . S
C418 H433 0.951 . S
C419 C418 1.402 . S
C419 C420 1.375 . S
C419 C422 1.481 . S
C420 C419 1.375 . S
C420 C421 1.367 . S
C420 H434 0.951 . S
C421 C417 1.383 . S
C421 C420 1.367 . S
C421 H435 0.950 . S
C422 C419 1.481 . S
C422 C423 1.297 1_545 S
C422 H436 0.950 1_545 S
C423 C422 1.297 1_565 S
C423 C424 1.479 . S
C423 H437 0.950 . S
C424 C423 1.479 . S
C424 C425 1.375 . S
C424 C430 1.404 . S
C425 C424 1.375 . S
C425 C426 1.369 . S
C425 H438 0.950 . S
C426 C425 1.369 . S
C426 C427 1.392 . S
C426 H439 0.951 . S
C427 C426 1.392 . S
C427 C429 1.384 . S
H428 C430 0.949 . S
C429 C427 1.384 . S
C429 C430 1.385 . S
C429 H431 0.950 . S
C430 C424 1.404 . S
C430 H428 0.949 . S
C430 C429 1.385 . S
H431 C429 0.950 . S
H432 C416 0.951 . S
H433 C418 0.951 . S
H434 C420 0.951 . S
H435 C421 0.950 . S
H436 C422 0.950 1_565 S
H437 C423 0.950 . S
H438 C425 0.950 . S
H439 C426 0.951 . S
C440 C441 1.386 . S
C440 C442 1.383 . S
C440 H456 0.951 . S
C441 C440 1.386 . S
C441 C445 1.383 . S
C442 C440 1.383 . S
C442 C443 1.402 . S
C442 H457 0.951 . S
C443 C442 1.402 . S
C443 C444 1.375 . S
C443 C446 1.481 . S
C444 C443 1.375 . S
C444 C445 1.367 . S
C444 H458 0.951 . S
C445 C441 1.383 . S
C445 C444 1.367 . S
C445 H459 0.950 . S
C446 C443 1.481 . S
C446 C447 1.297 . S
C446 H460 0.950 . S
C447 C446 1.297 . S
C447 C448 1.479 . S
C447 H461 0.950 . S
C448 C447 1.479 . S
C448 C449 1.375 . S
C448 C454 1.404 . S
C449 C448 1.375 . S
C449 C450 1.369 . S
C449 H462 0.950 . S
C450 C449 1.369 . S
C450 C451 1.392 . S
C450 H463 0.951 . S
C451 C450 1.392 . S
C451 C453 1.384 . S
H452 C454 0.949 . S
C453 C451 1.384 . S
C453 C454 1.385 . S
C453 H455 0.950 . S
C454 C448 1.404 . S
C454 H452 0.949 . S
C454 C453 1.385 . S
H455 C453 0.950 . S
H456 C440 0.951 . S
H457 C442 0.951 . S
H458 C444 0.951 . S
H459 C445 0.950 . S
H460 C446 0.950 . S
H461 C447 0.950 . S
H462 C449 0.950 . S
H463 C450 0.951 . S
C464 C465 1.386 . S
C464 C466 1.383 . S
C464 H480 0.951 . S
C465 C464 1.386 . S
C465 C469 1.383 . S
C466 C464 1.383 . S
C466 C467 1.402 . S
C466 H481 0.951 . S
C467 C466 1.402 . S
C467 C468 1.375 . S
C467 C470 1.481 . S
C468 C467 1.375 . S
C468 C469 1.367 . S
C468 H482 0.951 . S
C469 C465 1.383 . S
C469 C468 1.367 . S
C469 H483 0.950 . S
C470 C467 1.481 . S
C470 C471 1.297 . S
C470 H484 0.950 . S
C471 C470 1.297 . S
C471 C472 1.479 1_565 S
C471 H485 0.950 . S
C472 C471 1.479 1_545 S
C472 C473 1.375 . S
C472 C478 1.404 . S
C473 C472 1.375 . S
C473 C474 1.369 . S
C473 H486 0.950 . S
C474 C473 1.369 . S
C474 C475 1.392 . S
C474 H487 0.951 . S
C475 C474 1.392 . S
C475 C477 1.384 . S
H476 C478 0.949 . S
C477 C475 1.384 . S
C477 C478 1.385 . S
C477 H479 0.950 . S
C478 C472 1.404 . S
C478 H476 0.949 . S
C478 C477 1.385 . S
H479 C477 0.950 . S
H480 C464 0.951 . S
H481 C466 0.951 . S
H482 C468 0.951 . S
H483 C469 0.950 . S
H484 C470 0.950 . S
H485 C471 0.950 . S
H486 C473 0.950 . S
H487 C474 0.951 . S
C105 C5 1.292 . S
C115 C18 1.315 . S
C129 C44 1.292 . S
C139 C31 1.316 . S
C153 C57 1.320 . S
C163 C70 1.203 . S
C177 C83 1.308 . S
C187 C96 1.191 . S
C201 C10 1.491 . S
C211 C36 1.428 . S
C225 C49 1.455 . S
C235 C23 1.508 . S
C249 C62 1.499 . S
C259 C88 1.501 . S
C273 C101 1.485 . S
C283 C75 1.473 . S
C297 C0 1.410 . S
C307 C52 1.433 . S
C321 C13 1.416 . S
C331 C65 1.492 . S
C345 C78 1.410 . S
C355 C26 1.429 . S
C369 C91 1.429 . S
C379 C39 1.490 . S
C393 C21 0.501 . S
C403 C8 0.647 . S
C417 C34 0.589 . S
C427 C47 0.454 . S
C441 C60 0.579 . S
C451 C73 0.623 . S
C465 C86 0.536 . S
C475 C99 0.647 . S
