# Generated by pormake.
# Topology yfd, (5)-cn, num edge types: 1
# Building blocks:
#     Node 0, Type 0, BuildingBlock: BEQFEK_clean_sbu_0, # of connection points: 5
#     Node 1, Type 0, BuildingBlock: BEQFEK_clean_sbu_0, # of connection points: 5
#     Node 2, Type 0, BuildingBlock: BEQFEK_clean_sbu_0, # of connection points: 5
#     Node 3, Type 0, BuildingBlock: BEQFEK_clean_sbu_0, # of connection points: 5
#     Node 4, Type 0, BuildingBlock: BEQFEK_clean_sbu_0, # of connection points: 5
#     Node 5, Type 0, BuildingBlock: BEQFEK_clean_sbu_0, # of connection points: 5
#     Node 6, Type 0, BuildingBlock: BEQFEK_clean_sbu_0, # of connection points: 5
#     Node 7, Type 0, BuildingBlock: BEQFEK_clean_sbu_0, # of connection points: 5
#     Node 8, Type 0, BuildingBlock: BEQFEK_clean_sbu_0, # of connection points: 5
#     Node 9, Type 0, BuildingBlock: BEQFEK_clean_sbu_0, # of connection points: 5
#     Node 10, Type 0, BuildingBlock: BEQFEK_clean_sbu_0, # of connection points: 5
#     Node 11, Type 0, BuildingBlock: BEQFEK_clean_sbu_0, # of connection points: 5
#     Node 12, Type 0, BuildingBlock: BEQFEK_clean_sbu_0, # of connection points: 5
#     Node 13, Type 0, BuildingBlock: BEQFEK_clean_sbu_0, # of connection points: 5
#     Node 14, Type 0, BuildingBlock: BEQFEK_clean_sbu_0, # of connection points: 5
#     Node 15, Type 0, BuildingBlock: BEQFEK_clean_sbu_0, # of connection points: 5
#     Edge 16, Type (0, 0), BuildingBlock: XUDNAN_clean_linker_2, # of connection points: 2
#     Edge 17, Type (0, 0), BuildingBlock: XUDNAN_clean_linker_2, # of connection points: 2
#     Edge 18, Type (0, 0), BuildingBlock: XUDNAN_clean_linker_2, # of connection points: 2
#     Edge 19, Type (0, 0), BuildingBlock: XUDNAN_clean_linker_2, # of connection points: 2
#     Edge 20, Type (0, 0), BuildingBlock: XUDNAN_clean_linker_2, # of connection points: 2
#     Edge 21, Type (0, 0), BuildingBlock: XUDNAN_clean_linker_2, # of connection points: 2
#     Edge 22, Type (0, 0), BuildingBlock: XUDNAN_clean_linker_2, # of connection points: 2
#     Edge 23, Type (0, 0), BuildingBlock: XUDNAN_clean_linker_2, # of connection points: 2
#     Edge 24, Type (0, 0), BuildingBlock: XUDNAN_clean_linker_2, # of connection points: 2
#     Edge 25, Type (0, 0), BuildingBlock: XUDNAN_clean_linker_2, # of connection points: 2
#     Edge 26, Type (0, 0), BuildingBlock: XUDNAN_clean_linker_2, # of connection points: 2
#     Edge 27, Type (0, 0), BuildingBlock: XUDNAN_clean_linker_2, # of connection points: 2
#     Edge 28, Type (0, 0), BuildingBlock: XUDNAN_clean_linker_2, # of connection points: 2
#     Edge 29, Type (0, 0), BuildingBlock: XUDNAN_clean_linker_2, # of connection points: 2
#     Edge 30, Type (0, 0), BuildingBlock: XUDNAN_clean_linker_2, # of connection points: 2
#     Edge 31, Type (0, 0), BuildingBlock: XUDNAN_clean_linker_2, # of connection points: 2
#     Edge 32, Type (0, 0), BuildingBlock: XUDNAN_clean_linker_2, # of connection points: 2
#     Edge 33, Type (0, 0), BuildingBlock: XUDNAN_clean_linker_2, # of connection points: 2
#     Edge 34, Type (0, 0), BuildingBlock: XUDNAN_clean_linker_2, # of connection points: 2
#     Edge 35, Type (0, 0), BuildingBlock: XUDNAN_clean_linker_2, # of connection points: 2
#     Edge 36, Type (0, 0), BuildingBlock: XUDNAN_clean_linker_2, # of connection points: 2
#     Edge 37, Type (0, 0), BuildingBlock: XUDNAN_clean_linker_2, # of connection points: 2
#     Edge 38, Type (0, 0), BuildingBlock: XUDNAN_clean_linker_2, # of connection points: 2
#     Edge 39, Type (0, 0), BuildingBlock: XUDNAN_clean_linker_2, # of connection points: 2
#     Edge 40, Type (0, 0), BuildingBlock: XUDNAN_clean_linker_2, # of connection points: 2
#     Edge 41, Type (0, 0), BuildingBlock: XUDNAN_clean_linker_2, # of connection points: 2
#     Edge 42, Type (0, 0), BuildingBlock: XUDNAN_clean_linker_2, # of connection points: 2
#     Edge 43, Type (0, 0), BuildingBlock: XUDNAN_clean_linker_2, # of connection points: 2
#     Edge 44, Type (0, 0), BuildingBlock: XUDNAN_clean_linker_2, # of connection points: 2
#     Edge 45, Type (0, 0), BuildingBlock: XUDNAN_clean_linker_2, # of connection points: 2
#     Edge 46, Type (0, 0), BuildingBlock: XUDNAN_clean_linker_2, # of connection points: 2
#     Edge 47, Type (0, 0), BuildingBlock: XUDNAN_clean_linker_2, # of connection points: 2
#     Edge 48, Type (0, 0), BuildingBlock: XUDNAN_clean_linker_2, # of connection points: 2
#     Edge 49, Type (0, 0), BuildingBlock: XUDNAN_clean_linker_2, # of connection points: 2
#     Edge 50, Type (0, 0), BuildingBlock: XUDNAN_clean_linker_2, # of connection points: 2
#     Edge 51, Type (0, 0), BuildingBlock: XUDNAN_clean_linker_2, # of connection points: 2
#     Edge 52, Type (0, 0), BuildingBlock: XUDNAN_clean_linker_2, # of connection points: 2
#     Edge 53, Type (0, 0), BuildingBlock: XUDNAN_clean_linker_2, # of connection points: 2
#     Edge 54, Type (0, 0), BuildingBlock: XUDNAN_clean_linker_2, # of connection points: 2
#     Edge 55, Type (0, 0), BuildingBlock: XUDNAN_clean_linker_2, # of connection points: 2
# Relax obj value: 0.569
# Max RMSD: 0.253
# Mean RMSD: 0.253
data_MOF--net-yfd--node1-BEQFEK_clean_sbu_0--edge1-XUDNAN_clean_linker_2
_symmetry_space_group_name_H-M    P1
_symmetry_Int_Tables_number       1
_symmetry_cell_setting            triclinic
loop_
_symmetry_equiv_pos_as_xyz
'x, y, z'
_cell_length_a     66.648116
_cell_length_b     66.456902
_cell_length_c     25.828783
_cell_angle_alpha  90.148605
_cell_angle_beta   89.996753
_cell_angle_gamma 90.01766
loop_
_atom_site_label
_atom_site_type_symbol
_atom_site_fract_x
_atom_site_fract_y
_atom_site_fract_z
_atom_type_partial_charge
Co0 Co 0.52863 0.09398 0.16198 0.0
Co1 Co 0.53055 0.14122 0.16892 0.0
C2 C 0.49331 0.11785 0.1985 0.0
O3 O 0.50255 0.10163 0.18933 0.0
O4 O 0.50172 0.13491 0.19164 0.0
C5 C 0.51054 0.05519 0.15034 0.0
O6 O 0.49699 0.06214 0.18268 0.0
C7 C 0.52207 0.17944 0.11791 0.0
C8 C 0.5444 0.20027 0.15117 0.0
C9 C 0.52977 0.19886 0.11305 0.0
N10 N 0.53206 0.16979 0.15574 0.0
N11 N 0.54516 0.18246 0.17613 0.0
C12 C 0.50557 0.16991 0.08706 0.0
H13 H 0.49725 0.15897 0.11125 0.0
H14 H 0.51206 0.16151 0.05392 0.0
H15 H 0.49505 0.18147 0.07212 0.0
C16 C 0.54312 0.10146 0.05749 0.0
N17 N 0.53514 0.10843 0.10191 0.0
N18 N 0.53828 0.12792 0.10559 0.0
C19 C 0.54945 0.13373 0.06436 0.0
C20 C 0.55251 0.11719 0.03223 0.0
C21 C 0.54458 0.07958 0.04381 0.0
H22 H 0.55372 0.07173 0.07342 0.0
H23 H 0.52932 0.07294 0.04362 0.0
H24 H 0.55155 0.07707 0.00538 0.0
O25 O 0.55003 0.09885 0.21315 0.0
O26 O 0.55054 0.1323 0.22378 0.0
H27 H 0.56395 0.15957 0.09763 0.0
H28 H 0.57262 0.15309 0.03336 0.0
C29 C 0.55932 0.15386 0.0591 0.0
H30 H 0.54858 0.16461 0.04175 0.0
H31 H 0.55528 0.17868 0.20536 0.0
O32 O 0.52642 0.06532 0.14236 0.0
C33 C 0.55704 0.11466 0.23469 0.0
Co34 Co 0.4262 0.52796 0.65774 0.0
Co35 Co 0.37939 0.52931 0.66961 0.0
C36 C 0.40323 0.49145 0.69092 0.0
O37 O 0.41907 0.50093 0.67939 0.0
O38 O 0.38613 0.50015 0.68991 0.0
C39 C 0.46598 0.51317 0.65929 0.0
O40 O 0.45999 0.50439 0.70212 0.0
C41 C 0.33891 0.52057 0.62946 0.0
C42 C 0.32095 0.54547 0.66189 0.0
C43 C 0.31984 0.52913 0.62844 0.0
N44 N 0.35066 0.53144 0.66154 0.0
N45 N 0.3397 0.54611 0.68141 0.0
C46 C 0.34665 0.50392 0.59587 0.0
H47 H 0.36328 0.50439 0.59377 0.0
H48 H 0.34018 0.50499 0.55636 0.0
H49 H 0.34211 0.48927 0.61273 0.0
C50 C 0.41733 0.54409 0.55593 0.0
N51 N 0.41108 0.53567 0.60033 0.0
N52 N 0.39154 0.53779 0.60507 0.0
C53 C 0.38487 0.54851 0.56391 0.0
C54 C 0.40098 0.55257 0.53126 0.0
C55 C 0.43897 0.54644 0.54142 0.0
H56 H 0.44587 0.53132 0.53778 0.0
H57 H 0.44097 0.55465 0.50446 0.0
H58 H 0.44693 0.55476 0.57253 0.0
O59 O 0.42232 0.54802 0.71293 0.0
O60 O 0.38913 0.5486 0.72537 0.0
H61 H 0.35888 0.56294 0.59573 0.0
H62 H 0.36316 0.56824 0.52789 0.0
C63 C 0.36401 0.55653 0.55835 0.0
H64 H 0.35381 0.54406 0.54743 0.0
H65 H 0.34527 0.55716 0.70636 0.0
O66 O 0.45449 0.5258 0.63744 0.0
C67 C 0.40685 0.55474 0.73627 0.0
Co68 Co 0.97665 0.42977 0.16648 0.0
Co69 Co 0.98252 0.38273 0.15123 0.0
C70 C 0.01752 0.41059 0.17389 0.0
O71 O 1.00586 0.42576 0.17209 0.0
O72 O 0.01084 0.39261 0.16849 0.0
C73 C 0.97323 0.47593 0.15911 0.0
O74 O 0.96491 0.49173 0.18097 0.0
C75 C 0.99429 0.3429 0.10202 0.0
C76 C 0.96722 0.32524 0.12095 0.0
C77 C 0.98517 0.32417 0.09407 0.0
N78 N 0.98204 0.35442 0.13152 0.0
N79 N 0.96609 0.34352 0.14319 0.0
C80 C 0.01335 0.35037 0.07832 0.0
H81 H 0.01386 0.36706 0.07918 0.0
H82 H 0.01476 0.34484 0.03789 0.0
H83 H 0.02625 0.34451 0.10087 0.0
C84 C 0.95647 0.42519 0.06358 0.0
N85 N 0.96651 0.41778 0.10467 0.0
N86 N 0.97066 0.39863 0.09607 0.0
C87 C 0.96426 0.39378 0.04788 0.0
C88 C 0.95511 0.41045 0.02573 0.0
C89 C 0.9482 0.44599 0.06003 0.0
H90 H 0.9494 0.45382 0.09752 0.0
H91 H 0.95612 0.45424 0.02887 0.0
H92 H 0.93209 0.44547 0.04961 0.0
O93 O 0.96321 0.41772 0.22526 0.0
O94 O 0.9646 0.38464 0.21504 0.0
H95 H 0.95921 0.36202 0.04864 0.0
H96 H 0.95909 0.37281 0.98488 0.0
C97 C 0.96634 0.37345 0.02352 0.0
H98 H 0.98247 0.36975 0.01935 0.0
H99 H 0.95396 0.34886 0.16477 0.0
O100 O 0.97025 0.45874 0.17907 0.0
C101 C 0.95882 0.40015 0.24011 0.0
Co102 Co 0.09456 0.98607 0.66029 0.0
Co103 Co 0.14161 0.98486 0.66136 0.0
C104 C 0.11881 0.02197 0.69308 0.0
O105 O 0.10274 0.0122 0.68647 0.0
O106 O 0.13589 0.01405 0.68348 0.0
C107 C 0.0557 1.00409 0.65447 0.0
O108 O 0.06311 0.01776 0.68594 0.0
C109 C 0.18277 0.9912 0.6186 0.0
C110 C 0.20005 0.96864 0.66258 0.0
C111 C 0.20193 0.98318 0.62454 0.0
N112 N 0.17017 0.98163 0.65126 0.0
N113 N 0.18068 0.96818 0.67734 0.0
C114 C 0.1768 1.00854 0.58519 0.0
H115 H 0.16067 0.01215 0.59051 0.0
H116 H 0.17967 1.00492 0.54394 0.0
H117 H 0.1861 0.02185 0.59521 0.0
C118 C 0.10037 0.97157 0.55475 0.0
N119 N 0.10804 0.97916 0.59883 0.0
N120 N 0.12769 0.97721 0.59868 0.0
C121 C 0.13304 0.96754 0.55448 0.0
C122 C 0.11589 0.96399 0.52492 0.0
C123 C 0.07834 0.96898 0.5451 0.0
H124 H 0.07152 0.96063 0.5778 0.0
H125 H 0.07118 0.98402 0.54291 0.0
H126 H 0.07513 0.96064 0.50885 0.0
O127 O 0.0994 0.96528 0.71188 0.0
O128 O 0.13282 0.96545 0.71816 0.0
H129 H 0.16076 0.954 0.57821 0.0
H130 H 0.1537 0.94857 0.51189 0.0
C131 C 0.15377 0.96021 0.54274 0.0
H132 H 0.16299 0.97301 0.52911 0.0
H133 H 0.17461 0.95862 0.70525 0.0
O134 O 0.06585 0.9884 0.6444 0.0
C135 C 0.11558 0.95885 0.73199 0.0
Co136 Co 0.52599 0.4213 0.84655 0.0
Co137 Co 0.52959 0.3746 0.83951 0.0
C138 C 0.4907 0.39677 0.81633 0.0
O139 O 0.49942 0.4133 0.82516 0.0
O140 O 0.50001 0.38001 0.82037 0.0
C141 C 0.50984 0.46086 0.85004 0.0
O142 O 0.49656 0.45393 0.81692 0.0
C143 C 0.52486 0.33371 0.88388 0.0
C144 C 0.5443 0.31566 0.83251 0.0
C145 C 0.53192 0.31428 0.87548 0.0
N146 N 0.5329 0.34598 0.84788 0.0
N147 N 0.54451 0.33503 0.81736 0.0
C148 C 0.50967 0.34029 0.92305 0.0
H149 H 0.50469 0.35593 0.91529 0.0
H150 H 0.51626 0.3396 0.9624 0.0
H151 H 0.49661 0.32993 0.92225 0.0
C152 C 0.54173 0.41477 0.95026 0.0
N153 N 0.53427 0.40739 0.90577 0.0
N154 N 0.53789 0.38798 0.90263 0.0
C155 C 0.54884 0.38261 0.94464 0.0
C156 C 0.55162 0.39948 0.97614 0.0
C157 C 0.53947 0.43623 0.96728 0.0
H158 H 0.52404 0.44152 0.95879 0.0
H159 H 0.54225 0.438 0.0094 0.0
H160 H 0.55023 0.44577 0.94561 0.0
O161 O 0.54543 0.4173 0.79113 0.0
O162 O 0.54798 0.38414 0.78165 0.0
H163 H 0.5735 0.36452 0.97193 0.0
H164 H 0.54942 0.35254 0.97364 0.0
C165 C 0.55912 0.36273 0.95077 0.0
H166 H 0.56208 0.35581 0.91246 0.0
H167 H 0.55261 0.3408 0.78616 0.0
O168 O 0.52457 0.44989 0.86306 0.0
C169 C 0.55297 0.40203 0.76861 0.0
Co170 Co 0.09785 0.52934 0.34215 0.0
Co171 Co 0.14471 0.52796 0.34177 0.0
C172 C 0.11909 0.49281 0.30539 0.0
O173 O 0.10355 0.50316 0.31437 0.0
O174 O 0.13668 0.49966 0.31507 0.0
C175 C 0.05719 0.54406 0.33835 0.0
O176 O 0.06422 0.55937 0.31192 0.0
C177 C 0.18415 0.5185 0.38987 0.0
C178 C 0.20295 0.54302 0.35888 0.0
C179 C 0.20321 0.52709 0.39342 0.0
N180 N 0.17321 0.52907 0.35541 0.0
N181 N 0.18471 0.54349 0.33648 0.0
C182 C 0.17567 0.50204 0.42263 0.0
H183 H 0.15902 0.50239 0.42179 0.0
H184 H 0.18111 0.50343 0.4631 0.0
H185 H 0.18074 0.48731 0.4071 0.0
C186 C 0.10352 0.54156 0.44918 0.0
N187 N 0.11104 0.53426 0.40464 0.0
N188 N 0.1307 0.53592 0.40458 0.0
C189 C 0.13621 0.54536 0.44901 0.0
C190 C 0.11915 0.54895 0.47888 0.0
C191 C 0.08153 0.54425 0.45936 0.0
H192 H 0.07563 0.55615 0.4335 0.0
H193 H 0.07349 0.53001 0.45087 0.0
H194 H 0.07841 0.54871 0.49991 0.0
O195 O 0.10522 0.54974 0.29207 0.0
O196 O 0.13843 0.54842 0.28552 0.0
H197 H 0.16399 0.5587 0.42495 0.0
H198 H 0.1569 0.56444 0.49107 0.0
C199 C 0.15698 0.55265 0.46057 0.0
H200 H 0.16614 0.53988 0.47462 0.0
H201 H 0.17981 0.55428 0.31009 0.0
O202 O 0.06897 0.53016 0.35273 0.0
C203 C 0.12152 0.55583 0.27202 0.0
Co204 Co 0.98851 0.09443 0.85887 0.0
Co205 Co 0.98926 0.14092 0.84126 0.0
C206 C 0.02626 0.1135 0.82636 0.0
O207 O 0.01609 0.09826 0.83974 0.0
O208 O 0.01826 0.13107 0.82441 0.0
C209 C 0.9681 0.05824 0.88618 0.0
O210 O 0.95179 0.06886 0.87789 0.0
C211 C 0.99839 0.18178 0.88232 0.0
C212 C 0.97696 0.20057 0.83892 0.0
C213 C 0.99106 0.2014 0.87838 0.0
N214 N 0.98894 0.17006 0.84718 0.0
N215 N 0.97635 0.18153 0.82096 0.0
C216 C 0.01244 0.17376 0.92243 0.0
H217 H 0.0113 0.15713 0.92481 0.0
H218 H 0.00916 0.18061 0.96075 0.0
H219 H 0.02805 0.17774 0.9116 0.0
C220 C 0.9749 0.10657 0.96253 0.0
N221 N 0.98194 0.11113 0.91519 0.0
N222 N 0.97881 0.13029 0.90572 0.0
C223 C 0.96773 0.13796 0.94516 0.0
C224 C 0.96508 0.12315 0.9827 0.0
C225 C 0.97639 0.08632 0.9874 0.0
H226 H 0.98822 0.07709 0.96895 0.0
H227 H 0.9802 0.08789 0.02897 0.0
H228 H 0.9616 0.07876 0.98517 0.0
O229 O 0.97082 0.09935 0.79934 0.0
O230 O 0.97078 0.13213 0.78314 0.0
H231 H 0.9547 0.16311 0.90539 0.0
H232 H 0.94506 0.15904 0.97027 0.0
C233 C 0.95863 0.15853 0.94538 0.0
H234 H 0.96968 0.1694 0.96115 0.0
H235 H 0.96665 0.17616 0.79236 0.0
O236 O 0.98513 0.06617 0.87782 0.0
C237 C 0.9649 0.11426 0.77259 0.0
Co238 Co 0.42336 0.98776 0.3475 0.0
Co239 Co 0.37675 0.98727 0.33782 0.0
C240 C 0.40226 0.02542 0.32296 0.0
O241 O 0.41797 0.01564 0.33388 0.0
O242 O 0.38511 0.01671 0.32129 0.0
C243 C 0.46432 0.99779 0.34255 0.0
O244 O 0.45849 0.00916 0.30384 0.0
C245 C 0.33907 0.99558 0.39182 0.0
C246 C 0.31702 0.97645 0.3513 0.0
C247 C 0.31919 0.98902 0.39399 0.0
N248 N 0.34818 0.9869 0.35093 0.0
N249 N 0.33482 0.97571 0.3264 0.0
C250 C 0.34949 0.00997 0.42751 0.0
H251 H 0.36152 0.01809 0.40648 0.0
H252 H 0.35666 1.00153 0.45952 0.0
H253 H 0.3387 0.02095 0.4441 0.0
C254 C 0.41548 0.96998 0.44741 0.0
N255 N 0.40884 0.97897 0.40425 0.0
N256 N 0.38941 0.9763 0.39936 0.0
C257 C 0.38323 0.96428 0.43868 0.0
C258 C 0.39964 0.95986 0.4703 0.0
C259 C 0.43675 0.97117 0.46609 0.0
H260 H 0.44284 0.98644 0.45889 0.0
H261 H 0.43782 0.96796 0.50814 0.0
H262 H 0.44604 0.96011 0.44455 0.0
O263 O 0.41742 0.97088 0.28769 0.0
O264 O 0.38435 0.96922 0.27716 0.0
H265 H 0.36375 0.93985 0.46088 0.0
H266 H 0.35287 0.96449 0.46523 0.0
C267 C 0.36291 0.95477 0.44182 0.0
H268 H 0.35642 0.95296 0.40259 0.0
H269 H 0.33805 0.96686 0.29399 0.0
O270 O 0.45185 0.98581 0.36302 0.0
C271 C 0.40216 0.96429 0.26341 0.0
Co272 Co 0.48505 0.92284 0.83641 0.0
Co273 Co 0.48757 0.8755 0.83357 0.0
C274 C 0.52268 0.90238 0.80327 0.0
O275 O 0.51203 0.91792 0.81063 0.0
O276 O 0.51579 0.88471 0.81162 0.0
C277 C 0.49725 0.96334 0.85858 0.0
O278 O 0.51527 0.95677 0.84689 0.0
C279 C 0.49852 0.83808 0.88692 0.0
C280 C 0.47758 0.81588 0.85352 0.0
C281 C 0.49183 0.81826 0.89225 0.0
N282 N 0.48826 0.84696 0.84828 0.0
N283 N 0.47602 0.83346 0.82786 0.0
C284 C 0.51438 0.8487 0.91767 0.0
H285 H 0.52188 0.86021 0.89342 0.0
H286 H 0.50739 0.8566 0.95094 0.0
H287 H 0.52568 0.83787 0.93237 0.0
C288 C 0.47112 0.91519 0.94168 0.0
N289 N 0.4795 0.90848 0.89748 0.0
N290 N 0.47811 0.88875 0.8954 0.0
C291 C 0.4677 0.88244 0.93748 0.0
C292 C 0.46333 0.899 0.96845 0.0
C293 C 0.46793 0.93695 0.95432 0.0
H294 H 0.45764 0.9436 0.9253 0.0
H295 H 0.48252 0.9449 0.9527 0.0
H296 H 0.46131 0.93921 0.99327 0.0
O297 O 0.46528 0.91508 0.78385 0.0
O298 O 0.46762 0.88165 0.77632 0.0
H299 H 0.44635 0.86156 0.97021 0.0
H300 H 0.47143 0.85222 0.9639 0.0
C301 C 0.4598 0.86156 0.94492 0.0
H302 H 0.45592 0.85473 0.90704 0.0
H303 H 0.46586 0.83652 0.79814 0.0
O304 O 0.48227 0.9518 0.85182 0.0
C305 C 0.45996 0.89854 0.76303 0.0
Co306 Co 0.59285 0.48574 0.35937 0.0
Co307 Co 0.6392 0.48597 0.34105 0.0
C308 C 0.6125 0.52287 0.32249 0.0
O309 O 0.59709 0.51299 0.33598 0.0
O310 O 0.62994 0.51472 0.32204 0.0
C311 C 0.55647 0.46667 0.39116 0.0
O312 O 0.56658 0.44994 0.38363 0.0
C313 C 0.67906 0.49562 0.38323 0.0
C314 C 0.69835 0.47281 0.34602 0.0
C315 C 0.69847 0.48781 0.38348 0.0
N316 N 0.66806 0.48555 0.34784 0.0
N317 N 0.67981 0.47216 0.32513 0.0
C318 C 0.6703 0.51048 0.42053 0.0
H319 H 0.65367 0.5098 0.41995 0.0
H320 H 0.6759 0.5076 0.46029 0.0
H321 H 0.67495 0.52588 0.40914 0.0
C322 C 0.60519 0.47421 0.4645 0.0
N323 N 0.60958 0.48038 0.41625 0.0
N324 N 0.62858 0.47675 0.40643 0.0
C325 C 0.63628 0.4662 0.44664 0.0
C326 C 0.62169 0.46444 0.48497 0.0
C327 C 0.58511 0.47632 0.48984 0.0
H328 H 0.57596 0.48796 0.47044 0.0
H329 H 0.58685 0.48087 0.53088 0.0
H330 H 0.57743 0.46154 0.48945 0.0
O331 O 0.59759 0.466 0.30341 0.0
O332 O 0.63026 0.46672 0.28518 0.0
H333 H 0.66082 0.45191 0.40714 0.0
H334 H 0.65696 0.44338 0.47301 0.0
C335 C 0.65657 0.45659 0.44688 0.0
H336 H 0.66775 0.46762 0.46126 0.0
H337 H 0.6749 0.46178 0.29752 0.0
O338 O 0.56466 0.48338 0.3801 0.0
C339 C 0.61258 0.46 0.27704 0.0
Co340 Co 0.0299 0.58805 0.86409 0.0
Co341 Co 0.02976 0.63517 0.84966 0.0
C342 C 0.99198 0.609 0.83776 0.0
O343 O 1.00172 0.59336 0.85018 0.0
O344 O 1.00069 0.62614 0.83479 0.0
C345 C 0.02 0.54634 0.86618 0.0
O346 O 1.0065 0.55173 0.83185 0.0
C347 C 0.02096 0.67378 0.90032 0.0
C348 C 0.04012 0.69545 0.85888 0.0
C349 C 0.02746 0.69378 0.90139 0.0
N350 N 0.0298 0.66415 0.86037 0.0
N351 N 0.04099 0.67732 0.83524 0.0
C352 C 1.0066 0.66366 0.93645 0.0
H353 H 0.99854 0.65138 0.91605 0.0
H354 H 0.01503 0.65679 0.96894 0.0
H355 H 0.99561 0.67461 0.95226 0.0
C356 C 0.04935 0.59846 0.96123 0.0
N357 N 0.03925 0.60399 0.91854 0.0
N358 N 0.04111 0.6235 0.9115 0.0
C359 C 0.05348 0.63081 0.94875 0.0
C360 C 0.05874 0.6152 0.98175 0.0
C361 C 0.05214 0.57709 0.97806 0.0
H362 H 0.0618 0.56916 0.94957 0.0
H363 H 0.03738 0.56939 0.97919 0.0
H364 H 0.05925 0.57617 0.01683 0.0
O365 O 0.04623 0.59337 0.80232 0.0
O366 O 0.04742 0.62649 0.78943 0.0
H367 H 0.06471 0.65676 0.90866 0.0
H368 H 0.07699 0.65167 0.96972 0.0
C369 C 0.06243 0.65146 0.94888 0.0
H370 H 0.05213 0.66196 0.96907 0.0
H371 H 0.04997 0.67373 0.8034 0.0
O372 O 0.03234 0.55936 0.88298 0.0
C373 C 0.05238 0.60851 0.77661 0.0
Co374 Co 0.92377 0.02773 0.34328 0.0
Co375 Co 0.87682 0.02939 0.33772 0.0
C376 C 0.90121 0.99119 0.31381 0.0
O377 O 0.91755 1.00027 0.32289 0.0
O378 O 0.88429 1.00021 0.31755 0.0
C379 C 0.96401 0.01477 0.36426 0.0
O380 O 0.95735 0.99672 0.3526 0.0
C381 C 0.83891 0.02036 0.39074 0.0
C382 C 0.81766 0.04204 0.35677 0.0
C383 C 0.81937 0.02772 0.39558 0.0
N384 N 0.8483 0.03026 0.35222 0.0
N385 N 0.83536 0.04298 0.33152 0.0
C386 C 0.84878 1.00416 0.42183 0.0
H387 H 0.86015 0.99622 0.39805 0.0
H388 H 0.85668 0.01095 0.45538 0.0
H389 H 0.83752 0.99319 0.43618 0.0
C390 C 0.91671 0.04354 0.44758 0.0
N391 N 0.90971 0.03557 0.40312 0.0
N392 N 0.89024 0.0385 0.39999 0.0
C393 C 0.88445 0.04948 0.44177 0.0
C394 C 0.90101 0.05268 0.47364 0.0
C395 C 0.9385 0.04491 0.46118 0.0
H396 H 0.94531 0.02973 0.45878 0.0
H397 H 0.94101 0.05103 0.50059 0.0
H398 H 0.9461 0.05493 0.43307 0.0
O399 O 0.91768 0.04658 0.2874 0.0
O400 O 0.88451 0.04856 0.27925 0.0
H401 H 0.86468 0.07207 0.47393 0.0
H402 H 0.85404 0.04745 0.46737 0.0
C403 C 0.86408 0.05856 0.44866 0.0
H404 H 0.85767 0.06273 0.41057 0.0
H405 H 0.83888 0.05297 0.30172 0.0
O406 O 0.95255 0.02982 0.35817 0.0
C407 C 0.90221 0.05386 0.26543 0.0
Co408 Co 0.48872 0.59662 0.15565 0.0
Co409 Co 0.48731 0.64335 0.16781 0.0
C410 C 0.52517 0.61797 0.18767 0.0
O411 O 0.51603 0.60188 0.17607 0.0
O412 O 0.51634 0.6351 0.18661 0.0
C413 C 0.49966 0.5556 0.13456 0.0
O414 O 0.51771 0.56069 0.15035 0.0
C415 C 0.49447 0.68402 0.12389 0.0
C416 C 0.47747 0.7033 0.17797 0.0
C417 C 0.48902 0.70392 0.13335 0.0
N418 N 0.4863 0.67226 0.16085 0.0
N419 N 0.47618 0.68395 0.19302 0.0
C420 C 0.50825 0.67642 0.08253 0.0
H421 H 0.51328 0.66087 0.09139 0.0
H422 H 0.50036 0.67631 0.04479 0.0
H423 H 0.52142 0.68656 0.0789 0.0
C424 C 0.47337 0.60559 0.05322 0.0
N425 N 0.48116 0.61196 0.0983 0.0
N426 N 0.47793 0.63135 0.10394 0.0
C427 C 0.46678 0.63768 0.06311 0.0
C428 C 0.46353 0.62145 0.02982 0.0
C429 C 0.47501 0.58449 0.03322 0.0
H430 H 0.46342 0.57504 0.05205 0.0
H431 H 0.49006 0.57833 0.04228 0.0
H432 H 0.47276 0.58386 0.99067 0.0
O433 O 0.47056 0.60166 0.21327 0.0
O434 O 0.46865 0.63464 0.22585 0.0
H435 H 0.45535 0.66474 0.09851 0.0
H436 H 0.44179 0.65637 0.04161 0.0
C437 C 0.45685 0.65782 0.05962 0.0
H438 H 0.46595 0.66782 0.03462 0.0
H439 H 0.46828 0.6787 0.22516 0.0
O440 O 0.48552 0.56829 0.13757 0.0
C441 C 0.46357 0.61668 0.23788 0.0
Co442 Co 0.91926 0.50254 0.62355 0.0
Co443 Co 0.8748 0.49226 0.65216 0.0
C444 C 0.89379 0.53213 0.67991 0.0
O445 O 0.90993 0.52601 0.66 0.0
O446 O 0.87805 0.52119 0.6794 0.0
C447 C 0.94428 0.52866 0.57252 0.0
O448 O 0.92779 0.53939 0.57618 0.0
C449 C 0.83338 0.49679 0.61918 0.0
C450 C 0.81797 0.47018 0.65088 0.0
C451 C 0.81509 0.48673 0.61902 0.0
N452 N 0.84639 0.48672 0.64943 0.0
N453 N 0.83699 0.47093 0.66888 0.0
C454 C 0.83927 0.51433 0.58626 0.0
H455 H 0.85583 0.51559 0.58354 0.0
H456 H 0.8327 0.51284 0.54693 0.0
H457 H 0.83342 0.52836 0.60405 0.0
C458 C 0.90837 0.48474 0.52568 0.0
N459 N 0.90246 0.49353 0.57017 0.0
N460 N 0.88488 0.48637 0.58375 0.0
C461 C 0.87957 0.47185 0.5494 0.0
C462 C 0.89448 0.47015 0.51166 0.0
C463 C 0.92789 0.48912 0.49915 0.0
H464 H 0.94049 0.48305 0.52243 0.0
H465 H 0.92977 0.5056 0.49537 0.0
H466 H 0.92842 0.48252 0.45968 0.0
O467 O 0.92181 0.48066 0.67548 0.0
O468 O 0.89025 0.47442 0.70091 0.0
H469 H 0.86425 0.44364 0.53402 0.0
H470 H 0.84835 0.46473 0.54982 0.0
C471 C 0.86284 0.45727 0.55859 0.0
H472 H 0.86272 0.45273 0.59986 0.0
H473 H 0.84382 0.46013 0.69227 0.0
O474 O 0.94478 0.51122 0.59279 0.0
C475 C 0.90922 0.4713 0.70409 0.0
Co476 Co 0.02389 0.92191 0.1422 0.0
Co477 Co 0.02722 0.87526 0.15693 0.0
C478 C 0.98816 0.89851 0.17411 0.0
O479 O 0.99692 0.91454 0.16071 0.0
O480 O 0.99766 0.88177 0.17574 0.0
C481 C 0.00989 0.96192 0.14464 0.0
O482 O 1.00098 0.95586 0.18722 0.0
C483 C 0.02279 0.83337 0.11605 0.0
C484 C 0.04127 0.81624 0.17135 0.0
C485 C 0.02965 0.81403 0.12714 0.0
N486 N 0.03023 0.84629 0.15173 0.0
N487 N 0.04126 0.83585 0.18457 0.0
C488 C 0.00845 0.83935 0.07431 0.0
H489 H 1.00237 0.85463 0.08189 0.0
H490 H 0.01628 0.83943 0.03647 0.0
H491 H 0.99602 0.82826 0.07178 0.0
C492 C 0.0417 0.91297 0.04261 0.0
N493 N 0.03305 0.90657 0.08649 0.0
N494 N 0.03655 0.88727 0.09294 0.0
C495 C 0.04872 0.88104 0.05396 0.0
C496 C 0.05239 0.8972 0.02088 0.0
C497 C 0.04004 0.93407 0.02271 0.0
H498 H 0.02439 0.93946 0.02739 0.0
H499 H 0.04413 0.93501 0.98114 0.0
H500 H 0.05008 0.94405 0.04546 0.0
O501 O 0.04204 0.91896 0.20163 0.0
O502 O 0.04502 0.88599 0.21446 0.0
H503 H 0.06142 0.8554 0.09273 0.0
H504 H 0.07425 0.86265 0.03394 0.0
C505 C 0.05938 0.86122 0.05291 0.0
H506 H 0.05039 0.85026 0.0303 0.0
H507 H 0.04887 0.84214 0.21601 0.0
O508 O 0.02211 0.95019 0.12197 0.0
C509 C 0.04935 0.90418 0.22665 0.0
Co510 Co 0.59612 0.03362 0.64494 0.0
Co511 Co 0.64248 0.03216 0.6617 0.0
C512 C 0.61509 0.9951 0.67215 0.0
O513 O 0.6 1.0056 0.6597 0.0
O514 O 0.63261 1.00299 0.67551 0.0
C515 C 0.55459 0.02473 0.62763 0.0
O516 O 0.558 1.00816 0.65382 0.0
C517 C 0.68342 0.0242 0.62057 0.0
C518 C 0.70234 0.04024 0.67734 0.0
C519 C 0.70326 0.02921 0.63174 0.0
N520 N 0.67144 0.03216 0.65747 0.0
N521 N 0.68292 0.04167 0.69129 0.0
C522 C 0.67602 0.0111 0.57744 0.0
H523 H 0.66038 1.00614 0.58502 0.0
H524 H 0.67631 0.01954 0.54054 0.0
H525 H 0.68599 0.99783 0.57292 0.0
C526 C 0.60735 0.05049 0.54595 0.0
N527 N 0.61262 0.04176 0.59069 0.0
N528 N 0.63203 0.04367 0.59815 0.0
C529 C 0.63953 0.05499 0.55889 0.0
C530 C 0.62401 0.05966 0.52474 0.0
C531 C 0.58657 0.05021 0.52393 0.0
H532 H 0.57753 0.06213 0.54293 0.0
H533 H 0.5795 0.03537 0.53106 0.0
H534 H 0.58669 0.05298 0.48158 0.0
O535 O 0.60092 0.04997 0.70628 0.0
O536 O 0.63367 0.04988 0.72183 0.0
H537 H 0.66681 0.06422 0.59691 0.0
H538 H 0.65994 0.07905 0.54093 0.0
C539 C 0.66024 0.06366 0.55753 0.0
H540 H 0.66986 0.05427 0.53216 0.0
H541 H 0.67748 0.04936 0.72365 0.0
O542 O 0.56833 0.03785 0.62404 0.0
C543 C 0.61586 0.05552 0.73334 0.0
H544 H 0.5352 0.03555 0.08214 0.0
H545 H 0.47301 0.04033 0.13094 0.0
H546 H 0.46263 0.02012 0.05534 0.0
H547 H 0.52634 0.04013 0.94726 0.0
H548 H 0.5451 0.02204 0.92814 0.0
H549 H 0.54815 0.03618 0.9872 0.0
H550 H 0.55129 1.00335 0.04047 0.0
H551 H 0.54909 0.98906 0.98147 0.0
H552 H 0.53219 0.98426 0.03451 0.0
H553 H 0.45878 1.00162 0.97149 0.0
H554 H 0.46224 0.97954 0.89528 0.0
H555 H 0.52703 0.9862 0.9024 0.0
C556 C 0.51942 0.0321 0.07738 0.0
C557 C 0.5049 0.03964 0.11221 0.0
C558 C 0.48442 0.03467 0.10484 0.0
C559 C 0.47834 0.02343 0.06166 0.0
C560 C 0.49294 0.01719 0.02657 0.0
C561 C 0.5131 0.02091 0.03459 0.0
C562 C 0.52581 0.01202 0.99174 0.0
C563 C 0.537 0.02858 0.96183 0.0
C564 C 0.54045 0.99623 0.01334 0.0
C565 C 0.50965 1.00244 0.95873 0.0
C566 C 0.49077 1.006 0.97893 0.0
C567 C 0.47349 0.99855 0.95556 0.0
C568 C 0.47562 0.9861 0.91212 0.0
C569 C 0.49493 0.98084 0.89344 0.0
C570 C 0.51207 0.98989 0.91572 0.0
H571 H 0.52919 0.49669 0.40317 0.0
H572 H 0.54648 0.43837 0.46368 0.0
H573 H 0.52601 0.44463 0.54175 0.0
H574 H 0.53215 0.52307 0.51603 0.0
H575 H 0.5105 0.53884 0.50599 0.0
H576 H 0.52398 0.52891 0.45124 0.0
H577 H 0.49162 0.51232 0.41531 0.0
H578 H 0.47783 0.52298 0.46871 0.0
H579 H 0.47691 0.49626 0.45675 0.0
H580 H 0.50853 0.45993 0.61927 0.0
H581 H 0.4879 0.47935 0.68125 0.0
H582 H 0.48124 0.52685 0.56764 0.0
C583 C 0.52805 0.48491 0.43193 0.0
C584 C 0.53951 0.46715 0.4277 0.0
C585 C 0.53771 0.45206 0.46605 0.0
C586 C 0.52633 0.45558 0.51084 0.0
C587 C 0.51647 0.47398 0.51561 0.0
C588 C 0.51658 0.48806 0.47632 0.0
C589 C 0.50511 0.50681 0.49131 0.0
C590 C 0.51876 0.5255 0.49113 0.0
C591 C 0.48677 0.50975 0.45594 0.0
C592 C 0.49893 0.50127 0.54567 0.0
C593 C 0.50579 0.48239 0.55928 0.0
C594 C 0.50261 0.47449 0.60851 0.0
C595 C 0.49099 0.48567 0.64354 0.0
C596 C 0.4824 0.50425 0.62861 0.0
C597 C 0.48721 0.51248 0.57985 0.0
H598 H 0.95744 0.49231 0.07369 0.0
H599 H 0.01201 0.46633 0.13451 0.0
H600 H 0.03015 0.47642 0.05453 0.0
H601 H 0.96821 0.47692 0.93345 0.0
H602 H 0.956 0.49934 0.91009 0.0
H603 H 0.94726 0.48735 0.96845 0.0
H604 H 0.95145 0.5209 0.01867 0.0
H605 H 0.96009 0.53294 0.96081 0.0
H606 H 0.97547 0.53342 0.01824 0.0
H607 H 0.04303 0.49728 0.9796 0.0
H608 H 0.0488 0.52299 0.91195 0.0
H609 H 0.98467 0.52976 0.89283 0.0
C610 C 0.97307 0.48818 0.06918 0.0
C611 C 0.98342 0.47842 0.10931 0.0
C612 C 1.00387 0.47343 0.10322 0.0
C613 C 0.01419 0.47908 0.05805 0.0
C614 C 1.0035 0.4889 0.01897 0.0
C615 C 0.98318 0.49272 0.02351 0.0
C616 C 0.97519 0.50431 0.97772 0.0
C617 C 0.96083 0.49119 0.9455 0.0
C618 C 0.96498 0.52405 0.99492 0.0
C619 C 0.99453 0.50817 0.94892 0.0
C620 C 0.01073 0.49907 0.97295 0.0
C621 C 0.03043 0.5037 0.95899 0.0
C622 C 0.0336 0.51832 0.92067 0.0
C623 C 0.01713 0.52782 0.89633 0.0
C624 C 0.99746 0.52204 0.90922 0.0
H625 H 0.0343 0.97873 0.59231 0.0
H626 H 0.04138 0.04175 0.63341 0.0
H627 H 0.02089 0.05136 0.55788 0.0
H628 H 0.0388 0.9847 0.45859 0.0
H629 H 0.02011 0.96631 0.44096 0.0
H630 H 0.0338 0.9637 0.50067 0.0
H631 H 1.00089 0.96296 0.55392 0.0
H632 H 0.98693 0.96445 0.4944 0.0
H633 H 0.98259 0.98263 0.54509 0.0
H634 H 1.00278 0.05418 0.47343 0.0
H635 H 0.98123 0.04995 0.39671 0.0
H636 H 0.9855 0.98501 0.41206 0.0
C637 C 0.03115 0.99453 0.58613 0.0
C638 C 0.0395 0.0095 0.61846 0.0
C639 C 0.03504 0.03002 0.60924 0.0
C640 C 0.02365 0.03564 0.56608 0.0
C641 C 0.01674 0.02054 0.53312 0.0
C642 C 0.01982 1.0004 0.54343 0.0
C643 C 0.01064 0.98713 0.50212 0.0
C644 C 0.0268 0.97473 0.47393 0.0
C645 C 0.99429 0.9735 0.52526 0.0
C646 C 1.00182 1.00298 0.46701 0.0
C647 C 1.00585 0.02215 0.48509 0.0
C648 C 0.99928 0.03926 0.45923 0.0
C649 C 0.98717 0.03667 0.4155 0.0
C650 C 0.98139 0.01715 0.399 0.0
C651 C 0.98962 1.00013 0.4237 0.0
H652 H 0.53523 0.4812 0.91392 0.0
H653 H 0.47299 0.47807 0.8647 0.0
H654 H 0.46335 0.5001 0.93766 0.0
H655 H 0.52635 0.47829 0.04668 0.0
H656 H 0.54565 0.49584 0.06557 0.0
H657 H 0.54833 0.48143 0.00688 0.0
H658 H 0.55251 0.51392 0.95274 0.0
H659 H 0.55078 0.52847 0.01144 0.0
H660 H 0.53407 0.53366 0.95824 0.0
H661 H 0.46012 0.51927 0.02045 0.0
H662 H 0.46425 0.54097 0.09709 0.0
H663 H 0.52875 0.53181 0.09121 0.0
C664 C 0.51963 0.48553 0.91775 0.0
C665 C 0.50482 0.47788 0.88397 0.0
C666 C 0.48458 0.48388 0.89005 0.0
C667 C 0.47893 0.49615 0.93172 0.0
C668 C 0.49376 0.50232 0.9663 0.0
C669 C 0.51375 0.4977 0.95897 0.0
C670 C 0.52675 0.50626 1.00162 0.0
C671 C 0.53739 0.48945 0.03197 0.0
C672 C 0.54191 0.52149 0.9797 0.0
C673 C 0.5109 0.51647 0.0342 0.0
C674 C 0.49195 0.51372 0.01356 0.0
C675 C 0.47489 0.52175 0.03667 0.0
C676 C 0.4774 0.53394 0.08035 0.0
C677 C 0.49686 0.53832 0.09955 0.0
C678 C 0.5137 0.52873 0.07752 0.0
H679 H 0.97553 0.50624 0.53576 0.0
H680 H 0.94825 0.56547 0.5269 0.0
H681 H 0.97243 0.57505 0.45887 0.0
H682 H 0.02631 0.52233 0.5183 0.0
H683 H 0.033 0.50056 0.48031 0.0
H684 H 0.01344 0.49877 0.52806 0.0
H685 H 0.98904 0.48561 0.45716 0.0
H686 H 0.00848 0.48781 0.40902 0.0
H687 H 0.98484 0.50048 0.39993 0.0
H688 H 0.9999 0.57822 0.39264 0.0
H689 H 0.03064 0.57567 0.33934 0.0
H690 H 0.03858 0.51398 0.39047 0.0
C691 C 0.97476 0.5213 0.51996 0.0
C692 C 0.96008 0.53512 0.53656 0.0
C693 C 0.95944 0.55464 0.51464 0.0
C694 C 0.97299 0.56018 0.47579 0.0
C695 C 0.98693 0.54598 0.45929 0.0
C696 C 0.98801 0.52701 0.48101 0.0
C697 C 1.00464 0.51467 0.45731 0.0
C698 C 0.02027 0.50875 0.49844 0.0
C699 C 0.99624 0.49605 0.42919 0.0
C700 C 0.01299 0.5298 0.41951 0.0
C701 C 1.0025 0.54771 0.42075 0.0
C702 C 0.00819 0.56423 0.39101 0.0
C703 C 0.02557 0.56262 0.3607 0.0
C704 C 0.03697 0.54466 0.36095 0.0
C705 C 0.03014 0.5279 0.38935 0.0
H706 H 0.02396 0.97725 0.05358 0.0
H707 H 0.97757 0.98561 0.16945 0.0
H708 H 0.95909 1.00784 0.10952 0.0
H709 H 0.02299 0.02904 0.00771 0.0
H710 H 0.02838 0.02153 0.94205 0.0
H711 H 0.03746 1.00663 0.99517 0.0
H712 H 0.01993 0.9754 0.95513 0.0
H713 H 0.01011 0.99042 0.903 0.0
H714 H 0.99329 0.97606 0.94318 0.0
H715 H 0.9445 0.02684 0.03364 0.0
H716 H 0.93931 0.0487 0.95761 0.0
H717 H 0.99642 0.02913 0.89461 0.0
C718 C 0.01004 0.98392 0.06672 0.0
C719 C 1.00174 0.97908 0.11537 0.0
C720 C 0.9838 0.98859 0.1316 0.0
C721 C 0.97319 1.00116 0.0978 0.0
C722 C 0.98108 1.00442 0.04859 0.0
C723 C 0.99946 0.99668 0.03389 0.0
C724 C 1.00526 1.00331 0.98007 0.0
C725 C 0.02466 0.01588 0.98135 0.0
C726 C 1.00726 0.98521 0.94319 0.0
C727 C 0.98721 0.01601 0.96665 0.0
C728 C 0.97322 0.01612 0.00615 0.0
C729 C 0.95541 0.027 1.00261 0.0
C730 C 0.95247 0.03916 0.95897 0.0
C731 C 0.96758 0.04069 0.92065 0.0
C732 C 0.98465 0.02821 0.92342 0.0
H733 H 0.48165 0.97625 0.42042 0.0
H734 H 0.48637 0.03234 0.33562 0.0
H735 H 0.50777 0.04635 0.4048 0.0
H736 H 0.47776 0.99603 0.54304 0.0
H737 H 0.49329 0.97776 0.57543 0.0
H738 H 0.48 0.97088 0.51736 0.0
H739 H 0.51294 0.96002 0.47236 0.0
H740 H 0.52632 0.96578 0.53114 0.0
H741 H 0.53394 0.97712 0.47093 0.0
H742 H 0.52403 0.05573 0.48844 0.0
H743 H 0.54303 0.05709 0.57009 0.0
H744 H 0.52965 0.99403 0.5975 0.0
C745 C 0.48766 0.99128 0.41567 0.0
C746 C 0.48195 1.00347 0.37347 0.0
C747 C 0.49028 0.02293 0.36817 0.0
C748 C 0.50232 0.03104 0.4074 0.0
C749 C 0.50625 0.0192 0.45062 0.0
C750 C 0.4999 0.99946 0.45402 0.0
C751 C 0.50644 0.98988 0.50432 0.0
C752 C 0.48829 0.98326 0.53694 0.0
C753 C 0.52077 0.97216 0.49407 0.0
C754 C 0.51722 1.00745 0.52904 0.0
C755 C 0.51659 0.0243 0.49778 0.0
C756 C 0.52506 0.04252 0.51272 0.0
C757 C 0.53572 0.04315 0.55927 0.0
C758 C 0.53828 0.02551 0.58932 0.0
C759 C 0.52807 1.00773 0.57524 0.0
H760 H 0.53126 0.24018 0.12002 0.0
H761 H 0.52248 0.19154 0.00992 0.0
H762 H 0.51902 0.21606 0.93965 0.0
H763 H 0.49705 0.27663 0.05821 0.0
H764 H 0.51325 0.29778 0.07108 0.0
H765 H 0.51314 0.27653 0.11432 0.0
H766 H 0.55152 0.27255 0.10236 0.0
H767 H 0.55174 0.29378 0.05921 0.0
H768 H 0.56168 0.26992 0.038 0.0
H769 H 0.51951 0.24534 0.87965 0.0
H770 H 0.52351 0.27773 0.83415 0.0
H771 H 0.53206 0.30805 0.98135 0.0
C772 C 0.52822 0.23474 0.08125 0.0
C773 C 0.52635 0.21385 0.07114 0.0
C774 C 0.52296 0.20736 0.01955 0.0
C775 C 0.52122 0.22123 0.97901 0.0
C776 C 0.523 0.24165 0.99031 0.0
C777 C 0.5264 0.24845 0.04013 0.0
C778 C 0.52881 0.2712 0.04103 0.0
C779 C 0.51206 0.28112 0.07306 0.0
C780 C 0.54968 0.27721 0.06134 0.0
C781 C 0.52659 0.27603 0.98384 0.0
C782 C 0.5232 0.25872 0.9554 0.0
C783 C 0.52185 0.25904 0.90157 0.0
C784 C 0.52417 0.27749 0.87606 0.0
C785 C 0.52761 0.29546 0.90421 0.0
C786 C 0.5287 0.2947 0.95891 0.0
H787 H 0.29482 0.55544 0.57938 0.0
H788 H 0.30538 0.49167 0.60129 0.0
H789 H 0.2764 0.48389 0.54463 0.0
H790 H 0.24081 0.55339 0.57824 0.0
H791 H 0.23832 0.57235 0.52887 0.0
H792 H 0.25964 0.57271 0.57172 0.0
H793 H 0.28363 0.57202 0.49277 0.0
H794 H 0.26239 0.5717 0.44969 0.0
H795 H 0.28116 0.55226 0.44523 0.0
H796 H 0.24548 0.48334 0.48555 0.0
H797 H 0.21699 0.49007 0.42649 0.0
H798 H 0.22747 0.55418 0.44233 0.0
C799 C 0.29099 0.53983 0.57243 0.0
C800 C 0.30248 0.52415 0.59447 0.0
C801 C 0.29705 0.50393 0.5841 0.0
C802 C 0.2805 0.49938 0.55227 0.0
C803 C 0.26955 0.51522 0.53087 0.0
C804 C 0.2747 0.53505 0.54035 0.0
C805 C 0.26091 0.54935 0.51176 0.0
C806 C 0.24923 0.56274 0.54993 0.0
C807 C 0.27273 0.56208 0.47253 0.0
C808 C 0.24715 0.53452 0.48473 0.0
C809 C 0.25221 0.5149 0.49649 0.0
C810 C 0.2414 0.49867 0.47624 0.0
C811 C 0.22512 0.50263 0.44301 0.0
C812 C 0.21986 0.52265 0.43008 0.0
C813 C 0.23114 0.5387 0.45131 0.0
H814 H 0.96063 0.30051 0.03552 0.0
H815 H 0.02307 0.30807 0.07834 0.0
H816 H 0.0318 0.2776 0.02743 0.0
H817 H 0.95907 0.24723 0.04262 0.0
H818 H 0.94267 0.24429 0.98764 0.0
H819 H 0.94167 0.26694 0.02595 0.0
H820 H 0.94805 0.28838 0.94392 0.0
H821 H 0.94892 0.2658 0.90527 0.0
H822 H 0.96968 0.28319 0.90418 0.0
H823 H 0.03303 0.24458 0.97438 0.0
H824 H 0.02708 0.21432 0.92027 0.0
H825 H 0.96389 0.22935 0.91156 0.0
C826 C 0.9762 0.29586 0.03399 0.0
C827 C 0.9912 0.30683 0.06068 0.0
C828 C 0.01136 0.3002 0.05749 0.0
C829 C 0.01642 0.28278 0.02897 0.0
C830 C 1.00117 0.27222 0.00348 0.0
C831 C 0.98149 0.27872 0.00535 0.0
C832 C 0.96781 0.26492 0.97464 0.0
C833 C 0.95187 0.25528 0.00982 0.0
C834 C 0.95804 0.27625 0.92931 0.0
C835 C 0.98275 0.24943 0.9555 0.0
C836 C 1.00192 0.25376 0.97269 0.0
C837 C 0.01806 0.24116 0.96072 0.0
C838 C 0.01452 0.22386 0.93031 0.0
C839 C 0.99499 0.2193 0.91193 0.0
C840 C 0.97902 0.23242 0.92473 0.0
H841 H 0.20904 0.98669 0.51942 0.0
H842 H 0.23809 0.98959 0.66939 0.0
H843 H 0.27092 0.99408 0.62661 0.0
H844 H 0.24626 0.9578 0.45888 0.0
H845 H 0.2447 0.96996 0.39671 0.0
H846 H 0.22313 0.96942 0.4386 0.0
H847 H 0.22077 1.00828 0.43501 0.0
H848 H 0.24228 0.00894 0.39273 0.0
H849 H 0.24235 0.02325 0.45211 0.0
H850 H 0.30076 0.99509 0.56842 0.0
H851 H 0.32574 0.99263 0.49898 0.0
H852 H 0.27803 0.98958 0.3849 0.0
C853 C 0.22222 0.98902 0.54315 0.0
C854 C 0.22097 0.98833 0.59783 0.0
C855 C 0.2387 0.99036 0.62753 0.0
C856 C 0.25741 0.99294 0.60355 0.0
C857 C 0.25822 0.99329 0.54965 0.0
C858 C 0.24113 0.99143 0.51969 0.0
C859 C 0.24646 0.99078 0.46247 0.0
C860 C 0.23974 0.9708 0.43773 0.0
C861 C 0.23743 0.00889 0.43389 0.0
C862 C 0.2692 0.99224 0.46511 0.0
C863 C 0.2756 0.99386 0.5158 0.0
C864 C 0.29591 0.99436 0.52847 0.0
C865 C 0.31008 0.99323 0.48841 0.0
C866 C 0.30401 0.99177 0.43593 0.0
C867 C 0.28321 0.99116 0.42445 0.0
H868 H 0.48852 0.70977 0.02715 0.0
H869 H 0.49885 0.74042 0.17314 0.0
H870 H 0.50345 0.77249 0.1266 0.0
H871 H 0.524 0.73994 0.94812 0.0
H872 H 0.50756 0.74008 0.8927 0.0
H873 H 0.50721 0.71911 0.93682 0.0
H874 H 0.46901 0.724 0.95014 0.0
H875 H 0.46926 0.74502 0.90635 0.0
H876 H 0.45968 0.74814 0.97114 0.0
H877 H 0.504 0.80162 0.06573 0.0
H878 H 0.50025 0.82592 0.99512 0.0
H879 H 0.49014 0.77695 0.88672 0.0
C880 C 0.49243 0.72309 0.04912 0.0
C881 C 0.49379 0.7225 0.10381 0.0
C882 C 0.49795 0.74049 0.13127 0.0
C883 C 0.50062 0.75877 0.10514 0.0
C884 C 0.49897 0.75893 0.05136 0.0
C885 C 0.49498 0.74159 0.02354 0.0
C886 C 0.49249 0.74627 0.96632 0.0
C887 C 0.50879 0.73572 0.93409 0.0
C888 C 0.47135 0.74052 0.9474 0.0
C889 C 0.49541 0.76896 0.96653 0.0
C890 C 0.4993 0.77588 0.01598 0.0
C891 C 0.50148 0.79633 0.02661 0.0
C892 C 0.4996 0.81009 0.98578 0.0
C893 C 0.49574 0.80346 0.93451 0.0
C894 C 0.49357 0.78254 0.92513 0.0
H895 H 0.79164 0.45981 0.56575 0.0
H896 H 0.7975 0.52337 0.60069 0.0
H897 H 0.7683 0.53068 0.54483 0.0
H898 H 0.77823 0.46572 0.43242 0.0
H899 H 0.76064 0.44511 0.43196 0.0
H900 H 0.78158 0.44484 0.47601 0.0
H901 H 0.75724 0.44052 0.5534 0.0
H902 H 0.73622 0.44072 0.50956 0.0
H903 H 0.73719 0.45837 0.56259 0.0
H904 H 0.73838 0.53103 0.48407 0.0
H905 H 0.71069 0.52443 0.42262 0.0
H906 H 0.72446 0.46068 0.42648 0.0
C907 C 0.78667 0.47524 0.56193 0.0
C908 C 0.79701 0.49106 0.58714 0.0
C909 C 0.79011 0.51107 0.58091 0.0
C910 C 0.77342 0.51534 0.54953 0.0
C911 C 0.76375 0.49944 0.52451 0.0
C912 C 0.77013 0.47978 0.53033 0.0
C913 C 0.75742 0.4655 0.49821 0.0
C914 C 0.77023 0.45466 0.45722 0.0
C915 C 0.74636 0.45039 0.53303 0.0
C916 C 0.74291 0.48017 0.47338 0.0
C917 C 0.74671 0.49967 0.4893 0.0
C918 C 0.73521 0.51579 0.47163 0.0
C919 C 0.71938 0.51189 0.43699 0.0
C920 C 0.71519 0.49202 0.42019 0.0
C921 C 0.72729 0.47604 0.43851 0.0
H922 H 0.02845 0.80572 0.02139 0.0
H923 H 0.0234 0.77785 0.17249 0.0
H924 H 0.02023 0.74454 0.13101 0.0
H925 H 0.99347 0.77156 0.95254 0.0
H926 H 0.00848 0.77108 0.89448 0.0
H927 H 0.0086 0.79304 0.93561 0.0
H928 H 0.04727 0.79075 0.94292 0.0
H929 H 0.04726 0.76874 0.90211 0.0
H930 H 0.0586 0.76774 0.96541 0.0
H931 H 0.02024 0.71408 0.07446 0.0
H932 H 0.02317 0.68836 0.00668 0.0
H933 H 0.02744 0.73509 0.89013 0.0
C934 C 0.02606 0.7927 0.04564 0.0
C935 C 0.02578 0.7945 0.10035 0.0
C936 C 0.0235 0.7769 0.13061 0.0
C937 C 0.02166 0.75789 0.10737 0.0
C938 C 0.02222 0.75656 0.05356 0.0
C939 C 0.02434 0.77345 0.02292 0.0
C940 C 0.02569 0.76754 0.96604 0.0
C941 C 0.008 0.77633 0.93535 0.0
C942 C 0.04591 0.77408 0.94276 0.0
C943 C 0.02421 0.74473 0.9697 0.0
C944 C 0.02211 0.7388 0.02061 0.0
C945 C 0.02137 0.71856 0.03432 0.0
C946 C 0.02276 0.70396 0.99513 0.0
C947 C 0.02464 0.7095 0.94238 0.0
C948 C 0.02553 0.73028 0.92984 0.0
H949 H 0.7782 0.02995 0.38832 0.0
H950 H 0.8261 0.01925 0.49864 0.0
H951 H 0.8013 0.01524 0.56798 0.0
H952 H 0.74889 0.06011 0.47262 0.0
H953 H 0.72498 0.05094 0.45002 0.0
H954 H 0.74633 0.05082 0.40731 0.0
H955 H 0.74157 0.0126 0.39171 0.0
H956 H 0.72021 0.01261 0.43452 0.0
H957 H 0.74089 0.99575 0.44628 0.0
H958 H 0.77174 0.01512 0.62736 0.0
H959 H 0.73935 0.01913 0.67255 0.0
H960 H 0.71 0.03061 0.52573 0.0
C961 C 0.78344 0.02637 0.4269 0.0
C962 C 0.80422 0.02405 0.43717 0.0
C963 C 0.8104 0.02 0.48862 0.0
C964 C 0.79634 0.01797 0.52872 0.0
C965 C 0.77605 0.02019 0.51721 0.0
C966 C 0.76955 0.02433 0.4676 0.0
C967 C 0.74691 0.02724 0.46651 0.0
C968 C 0.74146 0.04854 0.44803 0.0
C969 C 0.7368 0.01109 0.43274 0.0
C970 C 0.74179 0.02439 0.52337 0.0
C971 C 0.75886 0.02024 0.55179 0.0
C972 C 0.75824 0.01809 0.60541 0.0
C973 C 0.73977 0.02041 0.63077 0.0
C974 C 0.72203 0.02472 0.60271 0.0
C975 C 0.7231 0.02658 0.54814 0.0
H976 H 0.48239 0.10806 0.29548 0.0
H977 H 0.45864 0.11933 0.1428 0.0
H978 H 0.42692 0.10238 0.16712 0.0
H979 H 0.46812 0.06143 0.30277 0.0
H980 H 0.46183 0.06038 0.37067 0.0
H981 H 0.47942 0.07874 0.34808 0.0
H982 H 0.45789 0.10749 0.3866 0.0
H983 H 0.44024 0.08915 0.41051 0.0
H984 H 0.43171 0.10939 0.36974 0.0
H985 H 0.40171 0.07681 0.20096 0.0
H986 H 0.38675 0.04612 0.23961 0.0
H987 H 0.42691 0.05178 0.37035 0.0
C988 C 0.46993 0.10819 0.26857 0.0
C989 C 0.47259 0.11576 0.21808 0.0
C990 C 0.45654 0.11445 0.18241 0.0
C991 C 0.43851 0.10466 0.19589 0.0
C992 C 0.4367 0.09637 0.24539 0.0
C993 C 0.45193 0.09845 0.28156 0.0
C994 C 0.44801 0.08552 0.32872 0.0
C995 C 0.46536 0.07064 0.33805 0.0
C996 C 0.44423 0.09868 0.37673 0.0
C997 C 0.42902 0.07475 0.31213 0.0
C998 C 0.42232 0.08151 0.2646 0.0
C999 C 0.40647 0.07187 0.2389 0.0
C1000 C 0.39789 0.0545 0.26128 0.0
C1001 C 0.4054 0.0468 0.30845 0.0
C1002 C 0.42053 0.05765 0.33491 0.0
H1003 H 0.47894 0.40428 0.71897 0.0
H1004 H 0.45669 0.39692 0.87466 0.0
H1005 H 0.42562 0.41506 0.85106 0.0
H1006 H 0.46792 0.45127 0.70961 0.0
H1007 H 0.46076 0.45235 0.64226 0.0
H1008 H 0.47727 0.4329 0.66411 0.0
H1009 H 0.45322 0.40549 0.6294 0.0
H1010 H 0.43671 0.4249 0.60578 0.0
H1011 H 0.4272 0.40571 0.64843 0.0
H1012 H 0.40145 0.44143 0.81692 0.0
H1013 H 0.38787 0.47254 0.77714 0.0
H1014 H 0.42663 0.46359 0.64479 0.0
C1015 C 0.4668 0.40514 0.74676 0.0
C1016 C 0.46979 0.39837 0.7979 0.0
C1017 C 0.45428 0.40111 0.83464 0.0
C1018 C 0.43663 0.41162 0.82156 0.0
C1019 C 0.43467 0.4193 0.77146 0.0
C1020 C 0.44927 0.4158 0.73429 0.0
C1021 C 0.44573 0.42861 0.68668 0.0
C1022 C 0.464 0.44208 0.67504 0.0
C1023 C 0.44039 0.41538 0.6398 0.0
C1024 C 0.42781 0.44092 0.70409 0.0
C1025 C 0.42115 0.43497 0.75237 0.0
C1026 C 0.40618 0.44578 0.77847 0.0
C1027 C 0.39842 0.4634 0.75552 0.0
C1028 C 0.40594 0.47024 0.70749 0.0
C1029 C 0.42026 0.45839 0.68096 0.0
H1030 H 0.10352 0.48888 0.21089 0.0
H1031 H 0.12292 0.4543 0.34306 0.0
H1032 H 0.1031 0.42512 0.31149 0.0
H1033 H 0.05592 0.47655 0.22051 0.0
H1034 H 0.04998 0.47586 0.15245 0.0
H1035 H 0.07047 0.491 0.17493 0.0
H1036 H 0.09476 0.47249 0.11259 0.0
H1037 H 0.07412 0.45744 0.08926 0.0
H1038 H 0.09635 0.44542 0.11416 0.0
H1039 H 0.07511 0.4026 0.27515 0.0
H1040 H 0.04253 0.39028 0.24076 0.0
H1041 H 0.04025 0.44105 0.13636 0.0
C1042 C 0.10467 0.47468 0.23119 0.0
C1043 C 0.11539 0.47355 0.27824 0.0
C1044 C 0.11555 0.45518 0.30576 0.0
C1045 C 0.1041 0.43862 0.28827 0.0
C1046 C 0.09256 0.44071 0.24327 0.0
C1047 C 0.09302 0.45832 0.21479 0.0
C1048 C 0.0768 0.45852 0.17366 0.0
C1049 C 0.06246 0.47653 0.1809 0.0
C1050 C 0.08607 0.45845 0.11918 0.0
C1051 C 0.0664 0.43878 0.18491 0.0
C1052 C 0.07594 0.42834 0.22411 0.0
C1053 C 0.06784 0.41048 0.2437 0.0
C1054 C 0.04936 0.40351 0.22383 0.0
C1055 C 0.03896 0.41464 0.18565 0.0
C1056 C 0.04798 0.43213 0.16515 0.0
H1057 H 0.10758 0.03139 0.7898 0.0
H1058 H 0.12106 0.05777 0.64122 0.0
H1059 H 0.10363 0.08912 0.66775 0.0
H1060 H 0.06034 0.04597 0.79387 0.0
H1061 H 0.05858 0.05068 0.86249 0.0
H1062 H 0.07689 0.03329 0.83835 0.0
H1063 H 0.10533 0.05346 0.883 0.0
H1064 H 0.08701 0.0709 0.90809 0.0
H1065 H 0.1079 0.08002 0.87054 0.0
H1066 H 0.07782 0.11428 0.70368 0.0
H1067 H 0.04754 0.12951 0.74402 0.0
H1068 H 0.05138 0.08637 0.86885 0.0
C1069 C 0.10803 0.04431 0.76433 0.0
C1070 C 0.11642 0.04251 0.71438 0.0
C1071 C 0.11555 0.05918 0.68052 0.0
C1072 C 0.10546 0.07698 0.6952 0.0
C1073 C 0.09638 0.0779 0.74401 0.0
C1074 C 0.09794 0.06201 0.7784 0.0
C1075 C 0.08445 0.06508 0.82493 0.0
C1076 C 0.06917 0.04775 0.83014 0.0
C1077 C 0.09692 0.06751 0.87458 0.0
C1078 C 0.07426 0.08463 0.81046 0.0
C1079 C 0.08149 0.09212 0.76419 0.0
C1080 C 0.07249 0.10882 0.74064 0.0
C1081 C 0.05535 0.11753 0.76397 0.0
C1082 C 0.04727 0.10934 0.80999 0.0
C1083 C 0.05745 0.09323 0.83421 0.0
H1084 H 0.58731 0.9709 0.62873 0.0
H1085 H 0.6313 0.97261 0.75188 0.0
H1086 H 0.6156 0.94238 0.7911 0.0
H1087 H 0.54789 0.96333 0.70377 0.0
H1088 H 0.53395 0.94716 0.66066 0.0
H1089 H 0.55183 0.96457 0.63477 0.0
H1090 H 0.57057 0.93563 0.58852 0.0
H1091 H 0.55255 0.91793 0.61369 0.0
H1092 H 0.57896 0.91416 0.62514 0.0
H1093 H 0.59023 0.91684 0.8266 0.0
H1094 H 0.55878 0.89978 0.85356 0.0
H1095 H 0.53134 0.91579 0.70783 0.0
C1096 C 0.59426 0.96433 0.66263 0.0
C1097 C 0.61072 0.97393 0.68684 0.0
C1098 C 0.61904 0.96523 0.73193 0.0
C1099 C 0.61007 0.94811 0.75461 0.0
C1100 C 0.59299 0.93976 0.73132 0.0
C1101 C 0.58541 0.9475 0.68567 0.0
C1102 C 0.56537 0.93813 0.67196 0.0
C1103 C 0.5488 0.95425 0.66762 0.0
C1104 C 0.56697 0.92572 0.62186 0.0
C1105 C 0.56218 0.92466 0.71838 0.0
C1106 C 0.57843 0.92532 0.75174 0.0
C1107 C 0.57775 0.91574 0.79992 0.0
C1108 C 0.5599 0.90591 0.81486 0.0
C1109 C 0.54295 0.90587 0.78191 0.0
C1110 C 0.5444 0.91489 0.73268 0.0
H1111 H 0.53451 0.60818 0.28516 0.0
H1112 H 0.56053 0.61805 0.13428 0.0
H1113 H 0.59118 0.5998 0.16132 0.0
H1114 H 0.58359 0.60659 0.36435 0.0
H1115 H 0.57351 0.58652 0.4033 0.0
H1116 H 0.55709 0.6057 0.37812 0.0
H1117 H 0.53506 0.57806 0.33589 0.0
H1118 H 0.55145 0.55889 0.36003 0.0
H1119 H 0.54641 0.5604 0.29158 0.0
H1120 H 0.61525 0.57367 0.1981 0.0
H1121 H 0.62901 0.54284 0.23901 0.0
H1122 H 0.58644 0.54934 0.36446 0.0
C1123 C 0.5473 0.60772 0.25927 0.0
C1124 C 0.5456 0.61534 0.20856 0.0
C1125 C 0.56196 0.61317 0.1741 0.0
C1126 C 0.57935 0.60263 0.18911 0.0
C1127 C 0.58012 0.59425 0.23869 0.0
C1128 C 0.56453 0.59697 0.27351 0.0
C1129 C 0.56705 0.58364 0.32056 0.0
C1130 C 0.57052 0.59638 0.36948 0.0
C1131 C 0.54894 0.56942 0.32733 0.0
C1132 C 0.58582 0.57218 0.30571 0.0
C1133 C 0.59355 0.57877 0.25907 0.0
C1134 C 0.60962 0.56879 0.2353 0.0
C1135 C 0.61746 0.55133 0.25889 0.0
C1136 C 0.60896 0.54386 0.30519 0.0
C1137 C 0.59347 0.55493 0.32951 0.0
H1138 H 0.9667 0.57951 0.87023 0.0
H1139 H 0.96971 0.63068 0.76698 0.0
H1140 H 0.93765 0.62 0.72664 0.0
H1141 H 0.95274 0.54549 0.78237 0.0
H1142 H 0.9363 0.53108 0.82356 0.0
H1143 H 0.95622 0.54554 0.85158 0.0
H1144 H 0.93072 0.56416 0.90984 0.0
H1145 H 0.9105 0.54984 0.88149 0.0
H1146 H 0.90969 0.57696 0.88088 0.0
H1147 H 0.9103 0.59908 0.6843 0.0
H1148 H 0.89122 0.5708 0.64593 0.0
H1149 H 0.90468 0.53428 0.77946 0.0
C1150 C 0.96021 0.58895 0.8405 0.0
C1151 C 0.97067 0.60604 0.82202 0.0
C1152 C 0.96184 0.61775 0.78242 0.0
C1153 C 0.94362 0.61173 0.75921 0.0
C1154 C 0.93417 0.59421 0.77682 0.0
C1155 C 0.94206 0.58322 0.81736 0.0
C1156 C 0.93071 0.56368 0.8251 0.0
C1157 C 0.94482 0.54538 0.82027 0.0
C1158 C 0.91975 0.56367 0.87744 0.0
C1159 C 0.91594 0.56467 0.78054 0.0
C1160 C 0.91785 0.58256 0.75359 0.0
C1161 C 0.90807 0.58543 0.70631 0.0
C1162 C 0.89698 0.56936 0.68497 0.0
C1163 C 0.8956 0.5507 0.71097 0.0
C1164 C 0.90444 0.54878 0.76039 0.0
H1165 H 0.90635 0.9781 0.21569 0.0
H1166 H 0.90359 0.9578 0.37416 0.0
H1167 H 0.91924 0.9255 0.34858 0.0
H1168 H 0.90185 0.92571 0.14937 0.0
H1169 H 0.91981 0.93338 0.10109 0.0
H1170 H 0.90272 0.95156 0.12849 0.0
H1171 H 0.93288 0.97397 0.1543 0.0
H1172 H 0.9501 0.95591 0.12818 0.0
H1173 H 0.95221 0.96353 0.19507 0.0
H1174 H 0.9427 0.89951 0.30997 0.0
H1175 H 0.97152 0.88404 0.26413 0.0
H1176 H 0.95915 0.92115 0.13064 0.0
C1177 C 0.90777 0.96624 0.24412 0.0
C1178 C 0.90294 0.97004 0.29642 0.0
C1179 C 0.90636 0.95481 0.33353 0.0
C1180 C 0.91538 0.93644 0.31927 0.0
C1181 C 0.92089 0.93346 0.26759 0.0
C1182 C 0.91686 0.9479 0.23037 0.0
C1183 C 0.92734 0.94292 0.17983 0.0
C1184 C 0.91201 0.9381 0.13717 0.0
C1185 C 0.94146 0.9601 0.16337 0.0
C1186 C 0.93899 0.92426 0.19521 0.0
C1187 C 0.93469 0.91861 0.24549 0.0
C1188 C 0.94568 0.90341 0.27006 0.0
C1189 C 0.96196 0.89451 0.24358 0.0
C1190 C 0.96731 0.90106 0.19339 0.0
C1191 C 0.95501 0.91541 0.16838 0.0
H1192 H 0.57953 0.07028 0.76251 0.0
H1193 H 0.64221 0.06991 0.8083 0.0
H1194 H 0.63341 0.09001 0.88634 0.0
H1195 H 0.56694 0.12057 0.80785 0.0
H1196 H 0.54236 0.11287 0.82913 0.0
H1197 H 0.55411 0.10033 0.77512 0.0
H1198 H 0.54994 0.06591 0.82127 0.0
H1199 H 0.53805 0.07831 0.87502 0.0
H1200 H 0.55979 0.06278 0.88575 0.0
H1201 H 0.61652 0.10756 0.964 0.0
H1202 H 0.59349 0.11924 0.03344 0.0
H1203 H 0.54258 0.1079 0.93374 0.0
C1204 C 0.5916 0.07457 0.78834 0.0
C1205 C 0.61163 0.0685 0.77903 0.0
C1206 C 0.62678 0.07443 0.81441 0.0
C1207 C 0.6219 0.08589 0.85874 0.0
C1208 C 0.60187 0.09138 0.86678 0.0
C1209 C 0.58703 0.08585 0.8323 0.0
C1210 C 0.56644 0.09214 0.8508 0.0
C1211 C 0.55691 0.10739 0.8135 0.0
C1212 C 0.55277 0.07369 0.85868 0.0
C1213 C 0.57183 0.10189 0.90174 0.0
C1214 C 0.59233 0.10151 0.91038 0.0
C1215 C 0.60053 0.10828 0.95703 0.0
C1216 C 0.5874 0.11503 0.99606 0.0
C1217 C 0.5664 0.11492 0.98803 0.0
C1218 C 0.55863 0.10871 0.93996 0.0
H1219 H 0.41008 0.54257 0.43276 0.0
H1220 H 0.3969 0.59347 0.53158 0.0
H1221 H 0.40809 0.61675 0.46229 0.0
H1222 H 0.45425 0.56023 0.38746 0.0
H1223 H 0.45199 0.55046 0.32254 0.0
H1224 H 0.43907 0.5383 0.37485 0.0
H1225 H 0.40511 0.5424 0.32706 0.0
H1226 H 0.41798 0.55426 0.27387 0.0
H1227 H 0.3974 0.56697 0.30529 0.0
H1228 H 0.42616 0.63394 0.38622 0.0
H1229 H 0.44743 0.64299 0.31073 0.0
H1230 H 0.44832 0.58018 0.26423 0.0
C1231 C 0.40866 0.55865 0.43865 0.0
C1232 C 0.4022 0.56635 0.4866 0.0
C1233 C 0.40131 0.58741 0.49431 0.0
C1234 C 0.40777 0.60069 0.45532 0.0
C1235 C 0.41493 0.59258 0.40893 0.0
C1236 C 0.41507 0.57199 0.40031 0.0
C1237 C 0.42539 0.56677 0.35 0.0
C1238 C 0.44375 0.55315 0.3593 0.0
C1239 C 0.41058 0.55703 0.31179 0.0
C1240 C 0.43161 0.5875 0.33225 0.0
C1241 C 0.42537 0.60231 0.36618 0.0
C1242 C 0.43078 0.62246 0.35893 0.0
C1243 C 0.4429 0.62749 0.31605 0.0
C1244 C 0.44959 0.61237 0.28135 0.0
C1245 C 0.44349 0.59223 0.28963 0.0
H1246 H 0.91942 0.42478 0.98686 0.0
H1247 H 0.97846 0.404 0.94115 0.0
H1248 H 0.97146 0.41398 0.85078 0.0
H1249 H 0.8926 0.41205 0.86593 0.0
H1250 H 0.87763 0.43462 0.86806 0.0
H1251 H 0.88613 0.42321 0.92739 0.0
H1252 H 0.90281 0.4569 0.95499 0.0
H1253 H 0.89418 0.46834 0.89598 0.0
H1254 H 0.92049 0.46874 0.91192 0.0
H1255 H 0.95989 0.43008 0.7687 0.0
H1256 H 0.94432 0.45038 0.69973 0.0
H1257 H 0.89275 0.46136 0.79836 0.0
C1258 C 0.93078 0.42218 0.9577 0.0
C1259 C 0.94949 0.41361 0.97082 0.0
C1260 C 0.96392 0.41023 0.93159 0.0
C1261 C 0.9601 0.41594 0.88028 0.0
C1262 C 0.94174 0.42497 0.86887 0.0
C1263 C 0.92726 0.42796 0.90638 0.0
C1264 C 0.90946 0.43944 0.88483 0.0
C1265 C 0.89032 0.42656 0.88666 0.0
C1266 C 0.90657 0.45954 0.91365 0.0
C1267 C 0.91636 0.44277 0.82959 0.0
C1268 C 0.93499 0.4342 0.8212 0.0
C1269 C 0.94517 0.43655 0.77452 0.0
C1270 C 0.93622 0.44817 0.73564 0.0
C1271 C 0.91723 0.45727 0.74346 0.0
C1272 C 0.90706 0.45421 0.79081 0.0
H1273 H 0.05935 0.94129 0.26418 0.0
H1274 H 0.07022 0.87766 0.28939 0.0
H1275 H 0.09238 0.88625 0.36341 0.0
H1276 H 0.10913 0.95949 0.29771 0.0
H1277 H 0.09948 0.98172 0.32915 0.0
H1278 H 0.08586 0.97048 0.27618 0.0
H1279 H 0.05414 0.96755 0.33394 0.0
H1280 H 0.06758 0.97893 0.38679 0.0
H1281 H 0.05587 0.95471 0.39518 0.0
H1282 H 0.11141 0.90228 0.43949 0.0
H1283 H 0.12353 0.92382 0.51167 0.0
H1284 H 0.10041 0.97648 0.43373 0.0
C1285 C 0.06652 0.92906 0.28467 0.0
C1286 C 0.06305 0.90875 0.27064 0.0
C1287 C 0.07264 0.89333 0.29922 0.0
C1288 C 0.08533 0.89808 0.34119 0.0
C1289 C 0.08835 0.91832 0.35388 0.0
C1290 C 0.07912 0.93351 0.32634 0.0
C1291 C 0.08357 0.954 0.34928 0.0
C1292 C 0.09521 0.96719 0.31078 0.0
C1293 C 0.06414 0.9644 0.36737 0.0
C1294 C 0.09659 0.94806 0.39464 0.0
C1295 C 0.09935 0.92744 0.39665 0.0
C1296 C 0.10963 0.91845 0.43765 0.0
C1297 C 0.11664 0.93077 0.47822 0.0
C1298 C 0.11331 0.95179 0.47734 0.0
C1299 C 0.10364 0.96051 0.43438 0.0
H1300 H 0.57987 0.42837 0.99489 0.0
H1301 H 0.55161 0.3761 0.06333 0.0
H1302 H 0.56905 0.38323 0.14618 0.0
H1303 H 0.62805 0.42653 0.06787 0.0
H1304 H 0.62895 0.45354 0.07406 0.0
H1305 H 0.61725 0.44218 0.01824 0.0
H1306 H 0.58452 0.4619 0.03727 0.0
H1307 H 0.59603 0.47329 0.09304 0.0
H1308 H 0.57283 0.4596 0.09988 0.0
H1309 H 0.58481 0.39932 0.22448 0.0
H1310 H 0.5981 0.42246 0.29139 0.0
H1311 H 0.61624 0.46439 0.17229 0.0
C1312 C 0.57764 0.41822 0.02711 0.0
C1313 C 0.56433 0.40174 0.02301 0.0
C1314 C 0.56187 0.38871 0.06571 0.0
C1315 C 0.57169 0.3927 0.11284 0.0
C1316 C 0.58405 0.40964 0.11628 0.0
C1317 C 0.58717 0.4221 0.07432 0.0
C1318 C 0.5994 0.44047 0.08924 0.0
C1319 C 0.61961 0.44068 0.06065 0.0
C1320 C 0.58748 0.45996 0.07929 0.0
C1321 C 0.60224 0.43675 0.14662 0.0
C1322 C 0.59343 0.41877 0.16135 0.0
C1323 C 0.59224 0.41311 0.21318 0.0
C1324 C 0.59985 0.42629 0.25089 0.0
C1325 C 0.60872 0.4448 0.23663 0.0
C1326 C 0.61028 0.44992 0.18383 0.0
H1327 H 0.10594 0.53685 0.57266 0.0
H1328 H 0.12463 0.58959 0.48764 0.0
H1329 H 0.11187 0.61146 0.55845 0.0
H1330 H 0.06074 0.5558 0.61149 0.0
H1331 H 0.06035 0.54408 0.67435 0.0
H1332 H 0.0743 0.53273 0.62236 0.0
H1333 H 0.10674 0.53341 0.6777 0.0
H1334 H 0.09281 0.54439 0.73047 0.0
H1335 H 0.11496 0.55678 0.70629 0.0
H1336 H 0.09251 0.62746 0.63458 0.0
H1337 H 0.07058 0.63561 0.70955 0.0
H1338 H 0.06442 0.57178 0.7412 0.0
C1339 C 0.10813 0.55298 0.57022 0.0
C1340 C 0.11667 0.56161 0.52564 0.0
C1341 C 0.1186 0.58277 0.52236 0.0
C1342 C 0.11124 0.59526 0.56216 0.0
C1343 C 0.10203 0.58629 0.60487 0.0
C1344 C 0.10075 0.56556 0.60928 0.0
C1345 C 0.08857 0.55952 0.65606 0.0
C1346 C 0.06989 0.54732 0.64008 0.0
C1347 C 0.10155 0.54784 0.69493 0.0
C1348 C 0.08285 0.58 0.67692 0.0
C1349 C 0.09077 0.59535 0.64734 0.0
C1350 C 0.08649 0.61552 0.65837 0.0
C1351 C 0.07395 0.62003 0.70088 0.0
C1352 C 0.06575 0.60441 0.73158 0.0
C1353 C 0.07045 0.5842 0.71905 0.0
H1354 H 0.93697 0.07378 0.24562 0.0
H1355 H 0.87584 0.06772 0.19001 0.0
H1356 H 0.88398 0.09051 0.11674 0.0
H1357 H 0.94494 0.12657 0.20825 0.0
H1358 H 0.97064 0.12184 0.19026 0.0
H1359 H 0.95909 0.10732 0.24104 0.0
H1360 H 0.96795 0.07424 0.19244 0.0
H1361 H 0.97971 0.08865 0.14215 0.0
H1362 H 0.96004 0.0711 0.12614 0.0
H1363 H 0.90078 0.11035 0.0429 0.0
H1364 H 0.92422 0.12365 0.97671 0.0
H1365 H 0.97352 0.11748 0.08422 0.0
C1366 C 0.92508 0.07741 0.21863 0.0
C1367 C 0.90572 0.06887 0.22364 0.0
C1368 C 0.89074 0.07412 0.18721 0.0
C1369 C 0.89525 0.08709 0.14554 0.0
C1370 C 0.9147 0.09491 0.14141 0.0
C1371 C 0.92929 0.09028 0.17741 0.0
C1372 C 0.94947 0.09902 0.16278 0.0
C1373 C 0.95644 0.11462 0.20298 0.0
C1374 C 0.9652 0.08226 0.15543 0.0
C1375 C 0.94425 0.10893 0.11196 0.0
C1376 C 0.9241 0.10662 0.10025 0.0
C1377 C 0.91642 0.11268 0.05243 0.0
C1378 C 0.92978 0.12043 0.01521 0.0
C1379 C 0.95054 0.12203 0.02603 0.0
C1380 C 0.95761 0.11697 0.07568 0.0
H1381 H 0.42794 0.9308 0.4846 0.0
H1382 H 0.37516 0.95707 0.55543 0.0
H1383 H 0.3816 0.93735 0.63505 0.0
H1384 H 0.42737 0.88082 0.55166 0.0
H1385 H 0.45428 0.88102 0.55864 0.0
H1386 H 0.44274 0.89304 0.50367 0.0
H1387 H 0.46086 0.92643 0.52656 0.0
H1388 H 0.47245 0.91456 0.5813 0.0
H1389 H 0.45777 0.93708 0.59029 0.0
H1390 H 0.39731 0.92019 0.71129 0.0
H1391 H 0.4211 0.90824 0.7779 0.0
H1392 H 0.4646 0.89429 0.65885 0.0
C1393 C 0.41751 0.9321 0.51654 0.0
C1394 C 0.40111 0.94554 0.51416 0.0
C1395 C 0.38769 0.94671 0.5564 0.0
C1396 C 0.39128 0.93557 0.60171 0.0
C1397 C 0.40828 0.92326 0.60383 0.0
C1398 C 0.42114 0.92144 0.56214 0.0
C1399 C 0.4399 0.90981 0.57634 0.0
C1400 C 0.44113 0.88999 0.54576 0.0
C1401 C 0.45885 0.92274 0.56817 0.0
C1402 C 0.43602 0.90596 0.63323 0.0
C1403 C 0.41749 0.91346 0.64808 0.0
C1404 C 0.41155 0.91374 0.69982 0.0
C1405 C 0.42509 0.90685 0.73737 0.0
C1406 C 0.4443 0.89972 0.72306 0.0
C1407 C 0.44962 0.89878 0.67032 0.0
H1408 H 0.47414 0.90905 0.06552 0.0
H1409 H 0.42251 0.89495 0.97087 0.0
H1410 H 0.39994 0.90712 0.04076 0.0
H1411 H 0.45121 0.89841 0.19546 0.0
H1412 H 0.46417 0.91953 0.2239 0.0
H1413 H 0.47543 0.90586 0.17102 0.0
H1414 H 0.47889 0.9392 0.11989 0.0
H1415 H 0.46727 0.95291 0.17187 0.0
H1416 H 0.45685 0.95416 0.10755 0.0
H1417 H 0.38348 0.92599 0.11721 0.0
H1418 H 0.37519 0.94783 0.19258 0.0
H1419 H 0.43837 0.94956 0.2334 0.0
C1420 C 0.45805 0.90762 0.06077 0.0
C1421 C 0.44995 0.90058 0.01384 0.0
C1422 C 0.42888 0.89976 0.00746 0.0
C1423 C 0.41601 0.90679 0.04675 0.0
C1424 C 0.42452 0.91454 0.09201 0.0
C1425 C 0.44512 0.9147 0.09928 0.0
C1426 C 0.45084 0.92578 0.14817 0.0
C1427 C 0.46101 0.91154 0.18694 0.0
C1428 C 0.46424 0.94409 0.13612 0.0
C1429 C 0.43035 0.93224 0.1669 0.0
C1430 C 0.41524 0.92559 0.13457 0.0
C1431 C 0.39522 0.93098 0.14319 0.0
C1432 C 0.39063 0.94345 0.18595 0.0
C1433 C 0.40605 0.95048 0.2191 0.0
C1434 C 0.42607 0.94451 0.20922 0.0
H1435 H 0.57159 0.43748 0.74748 0.0
H1436 H 0.56793 0.37549 0.69509 0.0
H1437 H 0.59087 0.38366 0.62233 0.0
H1438 H 0.56914 0.45935 0.62652 0.0
H1439 H 0.58592 0.47975 0.64206 0.0
H1440 H 0.57152 0.46803 0.69243 0.0
H1441 H 0.6044 0.46067 0.74293 0.0
H1442 H 0.61891 0.47216 0.69206 0.0
H1443 H 0.62425 0.44673 0.71183 0.0
H1444 H 0.61032 0.40028 0.54849 0.0
H1445 H 0.62309 0.42348 0.48117 0.0
H1446 H 0.61534 0.47378 0.58581 0.0
C1447 C 0.57579 0.42544 0.72131 0.0
C1448 C 0.56789 0.40581 0.72701 0.0
C1449 C 0.57383 0.39061 0.69166 0.0
C1450 C 0.5869 0.39513 0.65034 0.0
C1451 C 0.59412 0.4148 0.64553 0.0
C1452 C 0.58879 0.42964 0.68044 0.0
C1453 C 0.59701 0.44997 0.66498 0.0
C1454 C 0.57988 0.46515 0.65595 0.0
C1455 C 0.61204 0.45784 0.70536 0.0
C1456 C 0.6074 0.4445 0.61493 0.0
C1457 C 0.60576 0.42413 0.60434 0.0
C1458 C 0.61217 0.41611 0.55714 0.0
C1459 C 0.61961 0.42935 0.51929 0.0
C1460 C 0.62059 0.45029 0.52899 0.0
C1461 C 0.61522 0.45775 0.57811 0.0
H1462 H 0.05289 0.61668 0.08503 0.0
H1463 H 0.09887 0.61018 0.96825 0.0
H1464 H 0.12329 0.59993 0.03562 0.0
H1465 H 0.08732 0.63292 0.19624 0.0
H1466 H 0.07266 0.61845 0.24148 0.0
H1467 H 0.06069 0.63002 0.18648 0.0
H1468 H 0.04638 0.5953 0.15913 0.0
H1469 H 0.0584 0.58365 0.21345 0.0
H1470 H 0.06336 0.57455 0.1489 0.0
H1471 H 0.1402 0.58353 0.11271 0.0
H1472 H 0.14768 0.56334 0.19109 0.0
H1473 H 0.0908 0.58179 0.25727 0.0
C1474 C 0.06841 0.61415 0.07438 0.0
C1475 C 0.07432 0.61474 0.02218 0.0
C1476 C 0.09439 0.61036 0.00857 0.0
C1477 C 0.10828 0.60447 0.04654 0.0
C1478 C 0.10183 0.60324 0.09785 0.0
C1479 C 0.08239 0.6083 0.11184 0.0
C1480 C 0.07825 0.60314 0.16778 0.0
C1481 C 0.07451 0.62228 0.19989 0.0
C1482 C 0.06057 0.58828 0.17253 0.0
C1483 C 0.09794 0.59338 0.18232 0.0
C1484 C 0.11156 0.59382 0.14202 0.0
C1485 C 0.12986 0.58358 0.14501 0.0
C1486 C 0.13404 0.57217 0.18966 0.0
C1487 C 0.11982 0.57097 0.23022 0.0
C1488 C 0.102 0.58241 0.22698 0.0
H1489 H 0.9504 0.07766 0.74234 0.0
H1490 H 0.949 0.14091 0.70092 0.0
H1491 H 0.92808 0.13249 0.62435 0.0
H1492 H 0.95642 0.05914 0.61697 0.0
H1493 H 0.94137 0.03699 0.6274 0.0
H1494 H 0.95421 0.04856 0.68094 0.0
H1495 H 0.92044 0.05172 0.73026 0.0
H1496 H 0.90746 0.0403 0.67649 0.0
H1497 H 0.89968 0.0646 0.70027 0.0
H1498 H 0.9099 0.11615 0.5472 0.0
H1499 H 0.89794 0.0937 0.4767 0.0
H1500 H 0.91125 0.0417 0.57098 0.0
C1501 C 0.94552 0.08991 0.71779 0.0
C1502 C 0.95136 0.11002 0.72796 0.0
C1503 C 0.94469 0.12541 0.6942 0.0
C1504 C 0.93275 0.12075 0.65068 0.0
C1505 C 0.9275 0.10067 0.64168 0.0
C1506 C 0.93373 0.08554 0.67452 0.0
C1507 C 0.9275 0.06499 0.65488 0.0
C1508 C 0.94597 0.05165 0.64442 0.0
C1509 C 0.9129 0.05481 0.69274 0.0
C1510 C 0.91706 0.07075 0.60514 0.0
C1511 C 0.91699 0.0914 0.59821 0.0
C1512 C 0.90954 0.10003 0.55284 0.0
C1513 C 0.90262 0.08721 0.51318 0.0
C1514 C 0.90323 0.06606 0.51922 0.0
C1515 C 0.91006 0.05784 0.56625 0.0
H1516 H 0.43341 0.5945 0.01532 0.0
H1517 H 0.46454 0.6437 0.94074 0.0
H1518 H 0.44792 0.63502 0.85768 0.0
H1519 H 0.44156 0.5606 0.91991 0.0
H1520 H 0.41801 0.54743 0.92522 0.0
H1521 H 0.42811 0.56042 0.98045 0.0
H1522 H 0.39538 0.58119 0.9892 0.0
H1523 H 0.38501 0.56809 0.93412 0.0
H1524 H 0.38617 0.5952 0.93445 0.0
H1525 H 0.43376 0.61675 0.7808 0.0
H1526 H 0.42224 0.59148 0.71694 0.0
H1527 H 0.40045 0.55369 0.84103 0.0
C1528 C 0.43617 0.60384 0.98178 0.0
C1529 C 0.45019 0.61977 0.9841 0.0
C1530 C 0.45364 0.63161 0.93968 0.0
C1531 C 0.44432 0.6267 0.89242 0.0
C1532 C 0.43146 0.61008 0.89069 0.0
C1533 C 0.42718 0.59898 0.93448 0.0
C1534 C 0.4151 0.58029 0.92146 0.0
C1535 C 0.42637 0.56107 0.9377 0.0
C1536 C 0.39417 0.58126 0.94628 0.0
C1537 C 0.41384 0.58211 0.86312 0.0
C1538 C 0.42315 0.59955 0.8462 0.0
C1539 C 0.42592 0.60341 0.79368 0.0
C1540 C 0.41936 0.58899 0.75771 0.0
C1541 C 0.41001 0.57101 0.77426 0.0
C1542 C 0.40686 0.56771 0.82753 0.0
H1543 H 0.96777 0.40579 0.34131 0.0
H1544 H 0.91859 0.39518 0.23567 0.0
H1545 H 0.89462 0.4075 0.30164 0.0
H1546 H 0.93825 0.39429 0.46686 0.0
H1547 H 0.9517 0.41391 0.5004 0.0
H1548 H 0.96397 0.39959 0.45017 0.0
H1549 H 0.97277 0.43283 0.40318 0.0
H1550 H 0.96013 0.44722 0.45218 0.0
H1551 H 0.95288 0.44985 0.38535 0.0
H1552 H 0.87773 0.42945 0.36938 0.0
H1553 H 0.8692 0.45461 0.43716 0.0
H1554 H 0.92853 0.4476 0.50305 0.0
C1555 C 0.95182 0.40477 0.33361 0.0
C1556 C 0.9449 0.39887 0.28425 0.0
C1557 C 0.92405 0.39887 0.27404 0.0
C1558 C 0.91037 0.40608 0.31116 0.0
C1559 C 0.91776 0.41288 0.35865 0.0
C1560 C 0.93799 0.41163 0.3706 0.0
C1561 C 0.94249 0.42188 0.42177 0.0
C1562 C 0.94951 0.4065 0.4622 0.0
C1563 C 0.95797 0.43894 0.41516 0.0
C1564 C 0.92196 0.43013 0.43517 0.0
C1565 C 0.90781 0.4248 0.39853 0.0
C1566 C 0.88853 0.43314 0.39921 0.0
C1567 C 0.88378 0.44743 0.43776 0.0
C1568 C 0.89822 0.45317 0.47508 0.0
C1569 C 0.91721 0.4437 0.47471 0.0
H1570 H 0.11893 0.96302 0.83643 0.0
H1571 H 0.1053 0.92009 0.71535 0.0
H1572 H 0.09288 0.89597 0.78074 0.0
H1573 H 0.1316 0.92497 0.94249 0.0
H1574 H 0.1194 0.94037 0.99065 0.0
H1575 H 0.13174 0.95199 0.93624 0.0
H1576 H 0.09877 0.97068 0.91355 0.0
H1577 H 0.08631 0.95899 0.96728 0.0
H1578 H 0.07616 0.95632 0.90297 0.0
H1579 H 0.07569 0.87969 0.85635 0.0
H1580 H 0.05575 0.87283 0.93549 0.0
H1581 H 0.0813 0.92573 0.00824 0.0
C1582 C 0.11437 0.94809 0.82429 0.0
C1583 C 0.11367 0.94302 0.77133 0.0
C1584 C 0.10649 0.92388 0.75606 0.0
C1585 C 0.09937 0.91015 0.79292 0.0
C1586 C 0.0995 0.91581 0.84494 0.0
C1587 C 0.10706 0.93427 0.86072 0.0
C1588 C 0.10292 0.93792 0.91765 0.0
C1589 C 0.12259 0.93886 0.94859 0.0
C1590 C 0.09029 0.9571 0.92578 0.0
C1591 C 0.09106 0.91916 0.93073 0.0
C1592 C 0.08947 0.90641 0.88861 0.0
C1593 C 0.07726 0.8893 0.88998 0.0
C1594 C 0.06601 0.88547 0.935 0.0
C1595 C 0.06694 0.89881 0.97761 0.0
C1596 C 0.08027 0.91533 0.97601 0.0
H1597 H 0.55834 0.12387 0.33812 0.0
H1598 H 0.59273 0.09743 0.2132 0.0
H1599 H 0.61864 0.08648 0.27548 0.0
H1600 H 0.60219 0.13833 0.42497 0.0
H1601 H 0.58857 0.13097 0.48217 0.0
H1602 H 0.57527 0.14092 0.42708 0.0
H1603 H 0.55286 0.109 0.42458 0.0
H1604 H 0.56601 0.09907 0.47953 0.0
H1605 H 0.56456 0.08458 0.42061 0.0
H1606 H 0.63731 0.07289 0.35173 0.0
H1607 H 0.64579 0.05666 0.43525 0.0
H1608 H 0.59996 0.09209 0.51141 0.0
C1609 C 0.57182 0.11661 0.32392 0.0
C1610 C 0.57391 0.11193 0.27094 0.0
C1611 C 0.59116 0.10148 0.25367 0.0
C1612 C 0.60595 0.09525 0.28874 0.0
C1613 C 0.60325 0.0995 0.34114 0.0
C1614 C 0.58662 0.11001 0.35872 0.0
C1615 C 0.5857 0.10992 0.41735 0.0
C1616 C 0.58808 0.13131 0.43917 0.0
C1617 C 0.56614 0.10005 0.4366 0.0
C1618 C 0.60386 0.09707 0.4298 0.0
C1619 C 0.61405 0.09149 0.38544 0.0
C1620 C 0.62979 0.07758 0.38688 0.0
C1621 C 0.63464 0.06851 0.43443 0.0
C1622 C 0.62363 0.07329 0.47949 0.0
C1623 C 0.60879 0.08846 0.47745 0.0
loop_
_geom_bond_atom_site_label_1
_geom_bond_atom_site_label_2
_geom_bond_distance
_geom_bond_site_symmetry_2
_ccdc_geom_bond_type
Co0 O3 1.970 . S
Co0 N17 1.989 . S
Co0 O25 1.967 . S
Co0 O32 1.920 . S
Co1 O4 1.966 . S
Co1 N10 2.022 . S
Co1 N18 1.993 . S
Co1 O26 1.941 . S
C2 O3 1.258 . S
C2 O4 1.263 . S
O3 Co0 1.970 . S
O3 C2 1.258 . S
O4 Co1 1.966 . S
O4 C2 1.263 . S
C5 O6 1.235 . S
C5 O32 1.289 . S
O6 C5 1.235 . S
C7 C9 1.400 . S
C7 N10 1.351 . S
C7 C12 1.501 . S
C8 C9 1.387 . S
C8 N11 1.341 . S
C9 C7 1.400 . S
C9 C8 1.387 . S
N10 Co1 2.022 . S
N10 C7 1.351 . S
N10 N11 1.365 . S
N11 C8 1.341 . S
N11 N10 1.365 . S
N11 H31 0.862 . S
C12 C7 1.501 . S
C12 H13 0.961 . S
C12 H14 0.961 . S
C12 H15 0.960 . S
H13 C12 0.961 . S
H14 C12 0.961 . S
H15 C12 0.960 . S
C16 N17 1.342 1_556 S
C16 C20 1.401 . S
C16 C21 1.499 . S
N17 Co0 1.989 . S
N17 C16 1.342 1_554 S
N17 N18 1.388 . S
N18 Co1 1.993 . S
N18 N17 1.388 . S
N18 C19 1.346 1_554 S
C19 N18 1.346 1_556 S
C19 C20 1.396 . S
C19 C29 1.510 . S
C20 C16 1.401 . S
C20 C19 1.396 . S
C21 C16 1.499 . S
C21 H22 0.959 . S
C21 H23 0.960 . S
C21 H24 0.961 . S
H22 C21 0.959 . S
H23 C21 0.960 . S
H24 C21 0.961 . S
O25 Co0 1.967 . S
O25 C33 1.258 . S
O26 Co1 1.941 . S
O26 C33 1.266 . S
H27 C29 0.959 . S
H28 C29 0.961 . S
C29 C19 1.510 . S
C29 H27 0.959 . S
C29 H28 0.961 . S
C29 H30 0.960 . S
H30 C29 0.960 . S
H31 N11 0.862 . S
O32 Co0 1.920 . S
O32 C5 1.289 . S
C33 O25 1.258 . S
C33 O26 1.266 . S
Co34 O37 1.970 . S
Co34 N51 1.989 . S
Co34 O59 1.967 . S
Co34 O66 1.920 . S
Co35 O38 1.966 . S
Co35 N44 2.022 . S
Co35 N52 1.993 . S
Co35 O60 1.941 . S
C36 O37 1.258 . S
C36 O38 1.263 . S
O37 Co34 1.970 . S
O37 C36 1.258 . S
O38 Co35 1.966 . S
O38 C36 1.263 . S
C39 O40 1.235 . S
C39 O66 1.289 . S
O40 C39 1.235 . S
C41 C43 1.400 . S
C41 N44 1.351 . S
C41 C46 1.501 . S
C42 C43 1.387 . S
C42 N45 1.341 . S
C43 C41 1.400 . S
C43 C42 1.387 . S
N44 Co35 2.022 . S
N44 C41 1.351 . S
N44 N45 1.365 . S
N45 C42 1.341 . S
N45 N44 1.365 . S
N45 H65 0.862 . S
C46 C41 1.501 . S
C46 H47 0.961 . S
C46 H48 0.961 . S
C46 H49 0.960 . S
H47 C46 0.961 . S
H48 C46 0.961 . S
H49 C46 0.960 . S
C50 N51 1.342 . S
C50 C54 1.401 . S
C50 C55 1.499 . S
N51 Co34 1.989 . S
N51 C50 1.342 . S
N51 N52 1.388 . S
N52 Co35 1.993 . S
N52 N51 1.388 . S
N52 C53 1.346 . S
C53 N52 1.346 . S
C53 C54 1.396 . S
C53 C63 1.510 . S
C54 C50 1.401 . S
C54 C53 1.396 . S
C55 C50 1.499 . S
C55 H56 0.959 . S
C55 H57 0.960 . S
C55 H58 0.961 . S
H56 C55 0.959 . S
H57 C55 0.960 . S
H58 C55 0.961 . S
O59 Co34 1.967 . S
O59 C67 1.258 . S
O60 Co35 1.941 . S
O60 C67 1.266 . S
H61 C63 0.959 . S
H62 C63 0.961 . S
C63 C53 1.510 . S
C63 H61 0.959 . S
C63 H62 0.961 . S
C63 H64 0.960 . S
H64 C63 0.960 . S
H65 N45 0.862 . S
O66 Co34 1.920 . S
O66 C39 1.289 . S
C67 O59 1.258 . S
C67 O60 1.266 . S
Co68 O71 1.970 1_655 S
Co68 N85 1.989 . S
Co68 O93 1.967 . S
Co68 O100 1.920 . S
Co69 O72 1.966 1_655 S
Co69 N78 2.022 . S
Co69 N86 1.993 . S
Co69 O94 1.941 . S
C70 O71 1.258 . S
C70 O72 1.263 . S
O71 Co68 1.970 1_455 S
O71 C70 1.258 . S
O72 Co69 1.966 1_455 S
O72 C70 1.263 . S
C73 O74 1.235 1_655 S
C73 O100 1.289 . S
O74 C73 1.235 1_455 S
C75 C77 1.400 . S
C75 N78 1.351 . S
C75 C80 1.501 1_655 S
C76 C77 1.387 . S
C76 N79 1.341 . S
C77 C75 1.400 . S
C77 C76 1.387 . S
N78 Co69 2.022 . S
N78 C75 1.351 . S
N78 N79 1.365 . S
N79 C76 1.341 . S
N79 N78 1.365 . S
N79 H99 0.862 . S
C80 C75 1.501 1_455 S
C80 H81 0.961 . S
C80 H82 0.961 . S
C80 H83 0.960 . S
H81 C80 0.961 . S
H82 C80 0.961 . S
H83 C80 0.960 . S
C84 N85 1.342 1_556 S
C84 C88 1.401 . S
C84 C89 1.499 . S
N85 Co68 1.989 . S
N85 C84 1.342 1_554 S
N85 N86 1.388 . S
N86 Co69 1.993 . S
N86 N85 1.388 . S
N86 C87 1.346 1_554 S
C87 N86 1.346 1_556 S
C87 C88 1.396 . S
C87 C97 1.510 . S
C88 C84 1.401 . S
C88 C87 1.396 . S
C89 C84 1.499 . S
C89 H90 0.959 . S
C89 H91 0.960 . S
C89 H92 0.961 . S
H90 C89 0.959 . S
H91 C89 0.960 . S
H92 C89 0.961 . S
O93 Co68 1.967 . S
O93 C101 1.258 . S
O94 Co69 1.941 . S
O94 C101 1.266 . S
H95 C97 0.959 . S
H96 C97 0.961 . S
C97 C87 1.510 . S
C97 H95 0.959 . S
C97 H96 0.961 . S
C97 H98 0.960 . S
H98 C97 0.960 . S
H99 N79 0.862 . S
O100 Co68 1.920 . S
O100 C73 1.289 . S
C101 O93 1.258 . S
C101 O94 1.266 . S
Co102 O105 1.970 1_565 S
Co102 N119 1.989 . S
Co102 O127 1.967 . S
Co102 O134 1.920 . S
Co103 O106 1.966 1_565 S
Co103 N112 2.022 . S
Co103 N120 1.993 . S
Co103 O128 1.941 . S
C104 O105 1.258 . S
C104 O106 1.263 . S
O105 Co102 1.970 1_545 S
O105 C104 1.258 . S
O106 Co103 1.966 1_545 S
O106 C104 1.263 . S
C107 O108 1.235 1_565 S
C107 O134 1.289 . S
O108 C107 1.235 1_545 S
C109 C111 1.400 . S
C109 N112 1.351 . S
C109 C114 1.501 1_565 S
C110 C111 1.387 . S
C110 N113 1.341 . S
C111 C109 1.400 . S
C111 C110 1.387 . S
N112 Co103 2.022 . S
N112 C109 1.351 . S
N112 N113 1.365 . S
N113 C110 1.341 . S
N113 N112 1.365 . S
N113 H133 0.862 . S
C114 C109 1.501 1_545 S
C114 H115 0.961 . S
C114 H116 0.961 . S
C114 H117 0.960 . S
H115 C114 0.961 . S
H116 C114 0.961 . S
H117 C114 0.960 . S
C118 N119 1.342 . S
C118 C122 1.401 . S
C118 C123 1.499 . S
N119 Co102 1.989 . S
N119 C118 1.342 . S
N119 N120 1.388 . S
N120 Co103 1.993 . S
N120 N119 1.388 . S
N120 C121 1.346 . S
C121 N120 1.346 . S
C121 C122 1.396 . S
C121 C131 1.510 . S
C122 C118 1.401 . S
C122 C121 1.396 . S
C123 C118 1.499 . S
C123 H124 0.959 . S
C123 H125 0.960 . S
C123 H126 0.961 . S
H124 C123 0.959 . S
H125 C123 0.960 . S
H126 C123 0.961 . S
O127 Co102 1.967 . S
O127 C135 1.258 . S
O128 Co103 1.941 . S
O128 C135 1.266 . S
H129 C131 0.959 . S
H130 C131 0.961 . S
C131 C121 1.510 . S
C131 H129 0.959 . S
C131 H130 0.961 . S
C131 H132 0.960 . S
H132 C131 0.960 . S
H133 N113 0.862 . S
O134 Co102 1.920 . S
O134 C107 1.289 . S
C135 O127 1.258 . S
C135 O128 1.266 . S
Co136 O139 1.970 . S
Co136 N153 1.989 . S
Co136 O161 1.967 . S
Co136 O168 1.920 . S
Co137 O140 1.966 . S
Co137 N146 2.022 . S
Co137 N154 1.993 . S
Co137 O162 1.941 . S
C138 O139 1.258 . S
C138 O140 1.263 . S
O139 Co136 1.970 . S
O139 C138 1.258 . S
O140 Co137 1.966 . S
O140 C138 1.263 . S
C141 O142 1.235 . S
C141 O168 1.289 . S
O142 C141 1.235 . S
C143 C145 1.400 . S
C143 N146 1.351 . S
C143 C148 1.501 . S
C144 C145 1.387 . S
C144 N147 1.341 . S
C145 C143 1.400 . S
C145 C144 1.387 . S
N146 Co137 2.022 . S
N146 C143 1.351 . S
N146 N147 1.365 . S
N147 C144 1.341 . S
N147 N146 1.365 . S
N147 H167 0.862 . S
C148 C143 1.501 . S
C148 H149 0.961 . S
C148 H150 0.961 . S
C148 H151 0.960 . S
H149 C148 0.961 . S
H150 C148 0.961 . S
H151 C148 0.960 . S
C152 N153 1.342 1_554 S
C152 C156 1.401 . S
C152 C157 1.499 . S
N153 Co136 1.989 . S
N153 C152 1.342 1_556 S
N153 N154 1.388 . S
N154 Co137 1.993 . S
N154 N153 1.388 . S
N154 C155 1.346 1_556 S
C155 N154 1.346 1_554 S
C155 C156 1.396 . S
C155 C165 1.510 . S
C156 C152 1.401 . S
C156 C155 1.396 . S
C157 C152 1.499 . S
C157 H158 0.959 . S
C157 H159 0.960 . S
C157 H160 0.961 . S
H158 C157 0.959 . S
H159 C157 0.960 . S
H160 C157 0.961 . S
O161 Co136 1.967 . S
O161 C169 1.258 . S
O162 Co137 1.941 . S
O162 C169 1.266 . S
H163 C165 0.959 . S
H164 C165 0.961 . S
C165 C155 1.510 . S
C165 H163 0.959 . S
C165 H164 0.961 . S
C165 H166 0.960 . S
H166 C165 0.960 . S
H167 N147 0.862 . S
O168 Co136 1.920 . S
O168 C141 1.289 . S
C169 O161 1.258 . S
C169 O162 1.266 . S
Co170 O173 1.970 . S
Co170 N187 1.989 . S
Co170 O195 1.967 . S
Co170 O202 1.920 . S
Co171 O174 1.966 . S
Co171 N180 2.022 . S
Co171 N188 1.993 . S
Co171 O196 1.941 . S
C172 O173 1.258 . S
C172 O174 1.263 . S
O173 Co170 1.970 . S
O173 C172 1.258 . S
O174 Co171 1.966 . S
O174 C172 1.263 . S
C175 O176 1.235 . S
C175 O202 1.289 . S
O176 C175 1.235 . S
C177 C179 1.400 . S
C177 N180 1.351 . S
C177 C182 1.501 . S
C178 C179 1.387 . S
C178 N181 1.341 . S
C179 C177 1.400 . S
C179 C178 1.387 . S
N180 Co171 2.022 . S
N180 C177 1.351 . S
N180 N181 1.365 . S
N181 C178 1.341 . S
N181 N180 1.365 . S
N181 H201 0.862 . S
C182 C177 1.501 . S
C182 H183 0.961 . S
C182 H184 0.961 . S
C182 H185 0.960 . S
H183 C182 0.961 . S
H184 C182 0.961 . S
H185 C182 0.960 . S
C186 N187 1.342 . S
C186 C190 1.401 . S
C186 C191 1.499 . S
N187 Co170 1.989 . S
N187 C186 1.342 . S
N187 N188 1.388 . S
N188 Co171 1.993 . S
N188 N187 1.388 . S
N188 C189 1.346 . S
C189 N188 1.346 . S
C189 C190 1.396 . S
C189 C199 1.510 . S
C190 C186 1.401 . S
C190 C189 1.396 . S
C191 C186 1.499 . S
C191 H192 0.959 . S
C191 H193 0.960 . S
C191 H194 0.961 . S
H192 C191 0.959 . S
H193 C191 0.960 . S
H194 C191 0.961 . S
O195 Co170 1.967 . S
O195 C203 1.258 . S
O196 Co171 1.941 . S
O196 C203 1.266 . S
H197 C199 0.959 . S
H198 C199 0.961 . S
C199 C189 1.510 . S
C199 H197 0.959 . S
C199 H198 0.961 . S
C199 H200 0.960 . S
H200 C199 0.960 . S
H201 N181 0.862 . S
O202 Co170 1.920 . S
O202 C175 1.289 . S
C203 O195 1.258 . S
C203 O196 1.266 . S
Co204 O207 1.970 1_655 S
Co204 N221 1.989 . S
Co204 O229 1.967 . S
Co204 O236 1.920 . S
Co205 O208 1.966 1_655 S
Co205 N214 2.022 . S
Co205 N222 1.993 . S
Co205 O230 1.941 . S
C206 O207 1.258 . S
C206 O208 1.263 . S
O207 Co204 1.970 1_455 S
O207 C206 1.258 . S
O208 Co205 1.966 1_455 S
O208 C206 1.263 . S
C209 O210 1.235 1_655 S
C209 O236 1.289 . S
O210 C209 1.235 1_455 S
C211 C213 1.400 . S
C211 N214 1.351 . S
C211 C216 1.501 1_655 S
C212 C213 1.387 . S
C212 N215 1.341 . S
C213 C211 1.400 . S
C213 C212 1.387 . S
N214 Co205 2.022 . S
N214 C211 1.351 . S
N214 N215 1.365 . S
N215 C212 1.341 . S
N215 N214 1.365 . S
N215 H235 0.862 . S
C216 C211 1.501 1_455 S
C216 H217 0.961 . S
C216 H218 0.961 . S
C216 H219 0.960 . S
H217 C216 0.961 . S
H218 C216 0.961 . S
H219 C216 0.960 . S
C220 N221 1.342 1_554 S
C220 C224 1.401 . S
C220 C225 1.499 . S
N221 Co204 1.989 . S
N221 C220 1.342 1_556 S
N221 N222 1.388 . S
N222 Co205 1.993 . S
N222 N221 1.388 . S
N222 C223 1.346 1_556 S
C223 N222 1.346 1_554 S
C223 C224 1.396 . S
C223 C233 1.510 . S
C224 C220 1.401 . S
C224 C223 1.396 . S
C225 C220 1.499 . S
C225 H226 0.959 . S
C225 H227 0.960 . S
C225 H228 0.961 . S
H226 C225 0.959 . S
H227 C225 0.960 . S
H228 C225 0.961 . S
O229 Co204 1.967 . S
O229 C237 1.258 . S
O230 Co205 1.941 . S
O230 C237 1.266 . S
H231 C233 0.959 . S
H232 C233 0.961 . S
C233 C223 1.510 . S
C233 H231 0.959 . S
C233 H232 0.961 . S
C233 H234 0.960 . S
H234 C233 0.960 . S
H235 N215 0.862 . S
O236 Co204 1.920 . S
O236 C209 1.289 . S
C237 O229 1.258 . S
C237 O230 1.266 . S
Co238 O241 1.970 1_565 S
Co238 N255 1.989 . S
Co238 O263 1.967 . S
Co238 O270 1.920 . S
Co239 O242 1.966 1_565 S
Co239 N248 2.022 . S
Co239 N256 1.993 . S
Co239 O264 1.941 . S
C240 O241 1.258 . S
C240 O242 1.263 . S
O241 Co238 1.970 1_545 S
O241 C240 1.258 . S
O242 Co239 1.966 1_545 S
O242 C240 1.263 . S
C243 O244 1.235 1_565 S
C243 O270 1.289 . S
O244 C243 1.235 1_545 S
C245 C247 1.400 . S
C245 N248 1.351 . S
C245 C250 1.501 1_565 S
C246 C247 1.387 . S
C246 N249 1.341 . S
C247 C245 1.400 . S
C247 C246 1.387 . S
N248 Co239 2.022 . S
N248 C245 1.351 . S
N248 N249 1.365 . S
N249 C246 1.341 . S
N249 N248 1.365 . S
N249 H269 0.862 . S
C250 C245 1.501 1_545 S
C250 H251 0.961 . S
C250 H252 0.961 . S
C250 H253 0.960 . S
H251 C250 0.961 . S
H252 C250 0.961 . S
H253 C250 0.960 . S
C254 N255 1.342 . S
C254 C258 1.401 . S
C254 C259 1.499 . S
N255 Co238 1.989 . S
N255 C254 1.342 . S
N255 N256 1.388 . S
N256 Co239 1.993 . S
N256 N255 1.388 . S
N256 C257 1.346 . S
C257 N256 1.346 . S
C257 C258 1.396 . S
C257 C267 1.510 . S
C258 C254 1.401 . S
C258 C257 1.396 . S
C259 C254 1.499 . S
C259 H260 0.959 . S
C259 H261 0.960 . S
C259 H262 0.961 . S
H260 C259 0.959 . S
H261 C259 0.960 . S
H262 C259 0.961 . S
O263 Co238 1.967 . S
O263 C271 1.258 . S
O264 Co239 1.941 . S
O264 C271 1.266 . S
H265 C267 0.959 . S
H266 C267 0.961 . S
C267 C257 1.510 . S
C267 H265 0.959 . S
C267 H266 0.961 . S
C267 H268 0.960 . S
H268 C267 0.960 . S
H269 N249 0.862 . S
O270 Co238 1.920 . S
O270 C243 1.289 . S
C271 O263 1.258 . S
C271 O264 1.266 . S
Co272 O275 1.970 . S
Co272 N289 1.989 . S
Co272 O297 1.967 . S
Co272 O304 1.920 . S
Co273 O276 1.966 . S
Co273 N282 2.022 . S
Co273 N290 1.993 . S
Co273 O298 1.941 . S
C274 O275 1.258 . S
C274 O276 1.263 . S
O275 Co272 1.970 . S
O275 C274 1.258 . S
O276 Co273 1.966 . S
O276 C274 1.263 . S
C277 O278 1.235 . S
C277 O304 1.289 . S
O278 C277 1.235 . S
C279 C281 1.400 . S
C279 N282 1.351 . S
C279 C284 1.501 . S
C280 C281 1.387 . S
C280 N283 1.341 . S
C281 C279 1.400 . S
C281 C280 1.387 . S
N282 Co273 2.022 . S
N282 C279 1.351 . S
N282 N283 1.365 . S
N283 C280 1.341 . S
N283 N282 1.365 . S
N283 H303 0.862 . S
C284 C279 1.501 . S
C284 H285 0.961 . S
C284 H286 0.961 . S
C284 H287 0.960 . S
H285 C284 0.961 . S
H286 C284 0.961 . S
H287 C284 0.960 . S
C288 N289 1.342 1_554 S
C288 C292 1.401 . S
C288 C293 1.499 . S
N289 Co272 1.989 . S
N289 C288 1.342 1_556 S
N289 N290 1.388 . S
N290 Co273 1.993 . S
N290 N289 1.388 . S
N290 C291 1.346 1_556 S
C291 N290 1.346 1_554 S
C291 C292 1.396 . S
C291 C301 1.510 . S
C292 C288 1.401 . S
C292 C291 1.396 . S
C293 C288 1.499 . S
C293 H294 0.959 . S
C293 H295 0.960 . S
C293 H296 0.961 . S
H294 C293 0.959 . S
H295 C293 0.960 . S
H296 C293 0.961 . S
O297 Co272 1.967 . S
O297 C305 1.258 . S
O298 Co273 1.941 . S
O298 C305 1.266 . S
H299 C301 0.959 . S
H300 C301 0.961 . S
C301 C291 1.510 . S
C301 H299 0.959 . S
C301 H300 0.961 . S
C301 H302 0.960 . S
H302 C301 0.960 . S
H303 N283 0.862 . S
O304 Co272 1.920 . S
O304 C277 1.289 . S
C305 O297 1.258 . S
C305 O298 1.266 . S
Co306 O309 1.970 . S
Co306 N323 1.989 . S
Co306 O331 1.967 . S
Co306 O338 1.920 . S
Co307 O310 1.966 . S
Co307 N316 2.022 . S
Co307 N324 1.993 . S
Co307 O332 1.941 . S
C308 O309 1.258 . S
C308 O310 1.263 . S
O309 Co306 1.970 . S
O309 C308 1.258 . S
O310 Co307 1.966 . S
O310 C308 1.263 . S
C311 O312 1.235 . S
C311 O338 1.289 . S
O312 C311 1.235 . S
C313 C315 1.400 . S
C313 N316 1.351 . S
C313 C318 1.501 . S
C314 C315 1.387 . S
C314 N317 1.341 . S
C315 C313 1.400 . S
C315 C314 1.387 . S
N316 Co307 2.022 . S
N316 C313 1.351 . S
N316 N317 1.365 . S
N317 C314 1.341 . S
N317 N316 1.365 . S
N317 H337 0.862 . S
C318 C313 1.501 . S
C318 H319 0.961 . S
C318 H320 0.961 . S
C318 H321 0.960 . S
H319 C318 0.961 . S
H320 C318 0.961 . S
H321 C318 0.960 . S
C322 N323 1.342 . S
C322 C326 1.401 . S
C322 C327 1.499 . S
N323 Co306 1.989 . S
N323 C322 1.342 . S
N323 N324 1.388 . S
N324 Co307 1.993 . S
N324 N323 1.388 . S
N324 C325 1.346 . S
C325 N324 1.346 . S
C325 C326 1.396 . S
C325 C335 1.510 . S
C326 C322 1.401 . S
C326 C325 1.396 . S
C327 C322 1.499 . S
C327 H328 0.959 . S
C327 H329 0.960 . S
C327 H330 0.961 . S
H328 C327 0.959 . S
H329 C327 0.960 . S
H330 C327 0.961 . S
O331 Co306 1.967 . S
O331 C339 1.258 . S
O332 Co307 1.941 . S
O332 C339 1.266 . S
H333 C335 0.959 . S
H334 C335 0.961 . S
C335 C325 1.510 . S
C335 H333 0.959 . S
C335 H334 0.961 . S
C335 H336 0.960 . S
H336 C335 0.960 . S
H337 N317 0.862 . S
O338 Co306 1.920 . S
O338 C311 1.289 . S
C339 O331 1.258 . S
C339 O332 1.266 . S
Co340 O343 1.970 1_455 S
Co340 N357 1.989 . S
Co340 O365 1.967 . S
Co340 O372 1.920 . S
Co341 O344 1.966 1_455 S
Co341 N350 2.022 . S
Co341 N358 1.993 . S
Co341 O366 1.941 . S
C342 O343 1.258 . S
C342 O344 1.263 . S
O343 Co340 1.970 1_655 S
O343 C342 1.258 . S
O344 Co341 1.966 1_655 S
O344 C342 1.263 . S
C345 O346 1.235 1_455 S
C345 O372 1.289 . S
O346 C345 1.235 1_655 S
C347 C349 1.400 . S
C347 N350 1.351 . S
C347 C352 1.501 1_455 S
C348 C349 1.387 . S
C348 N351 1.341 . S
C349 C347 1.400 . S
C349 C348 1.387 . S
N350 Co341 2.022 . S
N350 C347 1.351 . S
N350 N351 1.365 . S
N351 C348 1.341 . S
N351 N350 1.365 . S
N351 H371 0.862 . S
C352 C347 1.501 1_655 S
C352 H353 0.961 . S
C352 H354 0.961 . S
C352 H355 0.960 . S
H353 C352 0.961 . S
H354 C352 0.961 . S
H355 C352 0.960 . S
C356 N357 1.342 1_554 S
C356 C360 1.401 . S
C356 C361 1.499 . S
N357 Co340 1.989 . S
N357 C356 1.342 1_556 S
N357 N358 1.388 . S
N358 Co341 1.993 . S
N358 N357 1.388 . S
N358 C359 1.346 1_556 S
C359 N358 1.346 1_554 S
C359 C360 1.396 . S
C359 C369 1.510 . S
C360 C356 1.401 . S
C360 C359 1.396 . S
C361 C356 1.499 . S
C361 H362 0.959 . S
C361 H363 0.960 . S
C361 H364 0.961 . S
H362 C361 0.959 . S
H363 C361 0.960 . S
H364 C361 0.961 . S
O365 Co340 1.967 . S
O365 C373 1.258 . S
O366 Co341 1.941 . S
O366 C373 1.266 . S
H367 C369 0.959 . S
H368 C369 0.961 . S
C369 C359 1.510 . S
C369 H367 0.959 . S
C369 H368 0.961 . S
C369 H370 0.960 . S
H370 C369 0.960 . S
H371 N351 0.862 . S
O372 Co340 1.920 . S
O372 C345 1.289 . S
C373 O365 1.258 . S
C373 O366 1.266 . S
Co374 O377 1.970 1_545 S
Co374 N391 1.989 . S
Co374 O399 1.967 . S
Co374 O406 1.920 . S
Co375 O378 1.966 1_545 S
Co375 N384 2.022 . S
Co375 N392 1.993 . S
Co375 O400 1.941 . S
C376 O377 1.258 . S
C376 O378 1.263 . S
O377 Co374 1.970 1_565 S
O377 C376 1.258 . S
O378 Co375 1.966 1_565 S
O378 C376 1.263 . S
C379 O380 1.235 1_545 S
C379 O406 1.289 . S
O380 C379 1.235 1_565 S
C381 C383 1.400 . S
C381 N384 1.351 . S
C381 C386 1.501 1_545 S
C382 C383 1.387 . S
C382 N385 1.341 . S
C383 C381 1.400 . S
C383 C382 1.387 . S
N384 Co375 2.022 . S
N384 C381 1.351 . S
N384 N385 1.365 . S
N385 C382 1.341 . S
N385 N384 1.365 . S
N385 H405 0.862 . S
C386 C381 1.501 1_565 S
C386 H387 0.961 . S
C386 H388 0.961 . S
C386 H389 0.960 . S
H387 C386 0.961 . S
H388 C386 0.961 . S
H389 C386 0.960 . S
C390 N391 1.342 . S
C390 C394 1.401 . S
C390 C395 1.499 . S
N391 Co374 1.989 . S
N391 C390 1.342 . S
N391 N392 1.388 . S
N392 Co375 1.993 . S
N392 N391 1.388 . S
N392 C393 1.346 . S
C393 N392 1.346 . S
C393 C394 1.396 . S
C393 C403 1.510 . S
C394 C390 1.401 . S
C394 C393 1.396 . S
C395 C390 1.499 . S
C395 H396 0.959 . S
C395 H397 0.960 . S
C395 H398 0.961 . S
H396 C395 0.959 . S
H397 C395 0.960 . S
H398 C395 0.961 . S
O399 Co374 1.967 . S
O399 C407 1.258 . S
O400 Co375 1.941 . S
O400 C407 1.266 . S
H401 C403 0.959 . S
H402 C403 0.961 . S
C403 C393 1.510 . S
C403 H401 0.959 . S
C403 H402 0.961 . S
C403 H404 0.960 . S
H404 C403 0.960 . S
H405 N385 0.862 . S
O406 Co374 1.920 . S
O406 C379 1.289 . S
C407 O399 1.258 . S
C407 O400 1.266 . S
Co408 O411 1.970 . S
Co408 N425 1.989 . S
Co408 O433 1.967 . S
Co408 O440 1.920 . S
Co409 O412 1.966 . S
Co409 N418 2.022 . S
Co409 N426 1.993 . S
Co409 O434 1.941 . S
C410 O411 1.258 . S
C410 O412 1.263 . S
O411 Co408 1.970 . S
O411 C410 1.258 . S
O412 Co409 1.966 . S
O412 C410 1.263 . S
C413 O414 1.235 . S
C413 O440 1.289 . S
O414 C413 1.235 . S
C415 C417 1.400 . S
C415 N418 1.351 . S
C415 C420 1.501 . S
C416 C417 1.387 . S
C416 N419 1.341 . S
C417 C415 1.400 . S
C417 C416 1.387 . S
N418 Co409 2.022 . S
N418 C415 1.351 . S
N418 N419 1.365 . S
N419 C416 1.341 . S
N419 N418 1.365 . S
N419 H439 0.862 . S
C420 C415 1.501 . S
C420 H421 0.961 . S
C420 H422 0.961 . S
C420 H423 0.960 . S
H421 C420 0.961 . S
H422 C420 0.961 . S
H423 C420 0.960 . S
C424 N425 1.342 1_556 S
C424 C428 1.401 . S
C424 C429 1.499 . S
N425 Co408 1.989 . S
N425 C424 1.342 1_554 S
N425 N426 1.388 . S
N426 Co409 1.993 . S
N426 N425 1.388 . S
N426 C427 1.346 1_554 S
C427 N426 1.346 1_556 S
C427 C428 1.396 . S
C427 C437 1.510 . S
C428 C424 1.401 . S
C428 C427 1.396 . S
C429 C424 1.499 . S
C429 H430 0.959 . S
C429 H431 0.960 . S
C429 H432 0.961 . S
H430 C429 0.959 . S
H431 C429 0.960 . S
H432 C429 0.961 . S
O433 Co408 1.967 . S
O433 C441 1.258 . S
O434 Co409 1.941 . S
O434 C441 1.266 . S
H435 C437 0.959 . S
H436 C437 0.961 . S
C437 C427 1.510 . S
C437 H435 0.959 . S
C437 H436 0.961 . S
C437 H438 0.960 . S
H438 C437 0.960 . S
H439 N419 0.862 . S
O440 Co408 1.920 . S
O440 C413 1.289 . S
C441 O433 1.258 . S
C441 O434 1.266 . S
Co442 O445 1.970 . S
Co442 N459 1.989 . S
Co442 O467 1.967 . S
Co442 O474 1.920 . S
Co443 O446 1.966 . S
Co443 N452 2.022 . S
Co443 N460 1.993 . S
Co443 O468 1.941 . S
C444 O445 1.258 . S
C444 O446 1.263 . S
O445 Co442 1.970 . S
O445 C444 1.258 . S
O446 Co443 1.966 . S
O446 C444 1.263 . S
C447 O448 1.235 . S
C447 O474 1.289 . S
O448 C447 1.235 . S
C449 C451 1.400 . S
C449 N452 1.351 . S
C449 C454 1.501 . S
C450 C451 1.387 . S
C450 N453 1.341 . S
C451 C449 1.400 . S
C451 C450 1.387 . S
N452 Co443 2.022 . S
N452 C449 1.351 . S
N452 N453 1.365 . S
N453 C450 1.341 . S
N453 N452 1.365 . S
N453 H473 0.862 . S
C454 C449 1.501 . S
C454 H455 0.961 . S
C454 H456 0.961 . S
C454 H457 0.960 . S
H455 C454 0.961 . S
H456 C454 0.961 . S
H457 C454 0.960 . S
C458 N459 1.342 . S
C458 C462 1.401 . S
C458 C463 1.499 . S
N459 Co442 1.989 . S
N459 C458 1.342 . S
N459 N460 1.388 . S
N460 Co443 1.993 . S
N460 N459 1.388 . S
N460 C461 1.346 . S
C461 N460 1.346 . S
C461 C462 1.396 . S
C461 C471 1.510 . S
C462 C458 1.401 . S
C462 C461 1.396 . S
C463 C458 1.499 . S
C463 H464 0.959 . S
C463 H465 0.960 . S
C463 H466 0.961 . S
H464 C463 0.959 . S
H465 C463 0.960 . S
H466 C463 0.961 . S
O467 Co442 1.967 . S
O467 C475 1.258 . S
O468 Co443 1.941 . S
O468 C475 1.266 . S
H469 C471 0.959 . S
H470 C471 0.961 . S
C471 C461 1.510 . S
C471 H469 0.959 . S
C471 H470 0.961 . S
C471 H472 0.960 . S
H472 C471 0.960 . S
H473 N453 0.862 . S
O474 Co442 1.920 . S
O474 C447 1.289 . S
C475 O467 1.258 . S
C475 O468 1.266 . S
Co476 O479 1.970 1_455 S
Co476 N493 1.989 . S
Co476 O501 1.967 . S
Co476 O508 1.920 . S
Co477 O480 1.966 1_455 S
Co477 N486 2.022 . S
Co477 N494 1.993 . S
Co477 O502 1.941 . S
C478 O479 1.258 . S
C478 O480 1.263 . S
O479 Co476 1.970 1_655 S
O479 C478 1.258 . S
O480 Co477 1.966 1_655 S
O480 C478 1.263 . S
C481 O482 1.235 1_455 S
C481 O508 1.289 . S
O482 C481 1.235 1_655 S
C483 C485 1.400 . S
C483 N486 1.351 . S
C483 C488 1.501 1_455 S
C484 C485 1.387 . S
C484 N487 1.341 . S
C485 C483 1.400 . S
C485 C484 1.387 . S
N486 Co477 2.022 . S
N486 C483 1.351 . S
N486 N487 1.365 . S
N487 C484 1.341 . S
N487 N486 1.365 . S
N487 H507 0.862 . S
C488 C483 1.501 1_655 S
C488 H489 0.961 . S
C488 H490 0.961 . S
C488 H491 0.960 . S
H489 C488 0.961 . S
H490 C488 0.961 . S
H491 C488 0.960 . S
C492 N493 1.342 1_556 S
C492 C496 1.401 . S
C492 C497 1.499 . S
N493 Co476 1.989 . S
N493 C492 1.342 1_554 S
N493 N494 1.388 . S
N494 Co477 1.993 . S
N494 N493 1.388 . S
N494 C495 1.346 1_554 S
C495 N494 1.346 1_556 S
C495 C496 1.396 . S
C495 C505 1.510 . S
C496 C492 1.401 . S
C496 C495 1.396 . S
C497 C492 1.499 . S
C497 H498 0.959 . S
C497 H499 0.960 . S
C497 H500 0.961 . S
H498 C497 0.959 . S
H499 C497 0.960 . S
H500 C497 0.961 . S
O501 Co476 1.967 . S
O501 C509 1.258 . S
O502 Co477 1.941 . S
O502 C509 1.266 . S
H503 C505 0.959 . S
H504 C505 0.961 . S
C505 C495 1.510 . S
C505 H503 0.959 . S
C505 H504 0.961 . S
C505 H506 0.960 . S
H506 C505 0.960 . S
H507 N487 0.862 . S
O508 Co476 1.920 . S
O508 C481 1.289 . S
C509 O501 1.258 . S
C509 O502 1.266 . S
Co510 O513 1.970 1_545 S
Co510 N527 1.989 . S
Co510 O535 1.967 . S
Co510 O542 1.920 . S
Co511 O514 1.966 1_545 S
Co511 N520 2.022 . S
Co511 N528 1.993 . S
Co511 O536 1.941 . S
C512 O513 1.258 . S
C512 O514 1.263 . S
O513 Co510 1.970 1_565 S
O513 C512 1.258 . S
O514 Co511 1.966 1_565 S
O514 C512 1.263 . S
C515 O516 1.235 1_545 S
C515 O542 1.289 . S
O516 C515 1.235 1_565 S
C517 C519 1.400 . S
C517 N520 1.351 . S
C517 C522 1.501 1_545 S
C518 C519 1.387 . S
C518 N521 1.341 . S
C519 C517 1.400 . S
C519 C518 1.387 . S
N520 Co511 2.022 . S
N520 C517 1.351 . S
N520 N521 1.365 . S
N521 C518 1.341 . S
N521 N520 1.365 . S
N521 H541 0.862 . S
C522 C517 1.501 1_565 S
C522 H523 0.961 . S
C522 H524 0.961 . S
C522 H525 0.960 . S
H523 C522 0.961 . S
H524 C522 0.961 . S
H525 C522 0.960 . S
C526 N527 1.342 . S
C526 C530 1.401 . S
C526 C531 1.499 . S
N527 Co510 1.989 . S
N527 C526 1.342 . S
N527 N528 1.388 . S
N528 Co511 1.993 . S
N528 N527 1.388 . S
N528 C529 1.346 . S
C529 N528 1.346 . S
C529 C530 1.396 . S
C529 C539 1.510 . S
C530 C526 1.401 . S
C530 C529 1.396 . S
C531 C526 1.499 . S
C531 H532 0.959 . S
C531 H533 0.960 . S
C531 H534 0.961 . S
H532 C531 0.959 . S
H533 C531 0.960 . S
H534 C531 0.961 . S
O535 Co510 1.967 . S
O535 C543 1.258 . S
O536 Co511 1.941 . S
O536 C543 1.266 . S
H537 C539 0.959 . S
H538 C539 0.961 . S
C539 C529 1.510 . S
C539 H537 0.959 . S
C539 H538 0.961 . S
C539 H540 0.960 . S
H540 C539 0.960 . S
H541 N521 0.862 . S
O542 Co510 1.920 . S
O542 C515 1.289 . S
C543 O535 1.258 . S
C543 O536 1.266 . S
H544 C556 0.930 . S
H545 C558 0.930 . S
H546 C559 0.930 1_556 S
H547 C563 0.959 1_556 S
H548 C563 0.959 . S
H549 C563 0.961 . S
H550 C564 0.960 . S
H551 C564 0.961 . S
H552 C564 0.959 . S
H553 C567 0.929 . S
H554 C568 0.931 . S
H555 C570 0.930 . S
C556 H544 0.930 . S
C556 C557 1.399 . S
C556 C561 1.399 . S
C557 C556 1.399 . S
C557 C558 1.376 . S
C558 H545 0.930 . S
C558 C557 1.376 . S
C558 C559 1.388 . S
C559 H546 0.930 1_554 S
C559 C558 1.388 . S
C559 C560 1.390 . S
C560 C559 1.390 . S
C560 C561 1.394 . S
C560 C566 1.465 1_544 S
C561 C556 1.399 . S
C561 C560 1.394 . S
C561 C562 1.516 1_545 S
C562 C561 1.516 1_565 S
C562 C563 1.502 . S
C562 C564 1.561 . S
C562 C565 1.526 1_554 S
C563 H547 0.959 1_554 S
C563 H548 0.959 . S
C563 H549 0.961 . S
C563 C562 1.502 . S
C564 H550 0.960 . S
C564 H551 0.961 . S
C564 H552 0.959 . S
C564 C562 1.561 . S
C565 C562 1.526 1_556 S
C565 C566 1.396 . S
C565 C570 1.390 . S
C566 C560 1.465 1_566 S
C566 C565 1.396 . S
C566 C567 1.399 . S
C567 H553 0.929 . S
C567 C566 1.399 . S
C567 C568 1.385 . S
C568 H554 0.931 . S
C568 C567 1.385 . S
C568 C569 1.389 . S
C569 C568 1.389 . S
C569 C570 1.387 . S
C570 H555 0.930 . S
C570 C565 1.390 . S
C570 C569 1.387 . S
H571 C583 0.930 . S
H572 C585 0.930 . S
H573 C586 0.930 . S
H574 C590 0.959 . S
H575 C590 0.959 . S
H576 C590 0.961 . S
H577 C591 0.960 . S
H578 C591 0.961 . S
H579 C591 0.959 . S
H580 C594 0.929 . S
H581 C595 0.931 . S
H582 C597 0.930 . S
C583 H571 0.930 . S
C583 C584 1.399 . S
C583 C588 1.399 . S
C584 C583 1.399 . S
C584 C585 1.376 . S
C585 H572 0.930 . S
C585 C584 1.376 . S
C585 C586 1.388 . S
C586 H573 0.930 . S
C586 C585 1.388 . S
C586 C587 1.390 . S
C587 C586 1.390 . S
C587 C588 1.394 . S
C587 C593 1.465 . S
C588 C583 1.399 . S
C588 C587 1.394 . S
C588 C589 1.516 . S
C589 C588 1.516 . S
C589 C590 1.502 . S
C589 C591 1.561 . S
C589 C592 1.526 . S
C590 H574 0.959 . S
C590 H575 0.959 . S
C590 H576 0.961 . S
C590 C589 1.502 . S
C591 H577 0.960 . S
C591 H578 0.961 . S
C591 H579 0.959 . S
C591 C589 1.561 . S
C592 C589 1.526 . S
C592 C593 1.396 . S
C592 C597 1.390 . S
C593 C587 1.465 . S
C593 C592 1.396 . S
C593 C594 1.399 . S
C594 H580 0.929 . S
C594 C593 1.399 . S
C594 C595 1.385 . S
C595 H581 0.931 . S
C595 C594 1.385 . S
C595 C596 1.389 . S
C596 C595 1.389 . S
C596 C597 1.387 . S
C597 H582 0.930 . S
C597 C592 1.390 . S
C597 C596 1.387 . S
H598 C610 0.930 . S
H599 C612 0.930 1_556 S
H600 C613 0.930 . S
H601 C617 0.959 . S
H602 C617 0.959 . S
H603 C617 0.961 . S
H604 C618 0.960 . S
H605 C618 0.961 . S
H606 C618 0.959 1_455 S
H607 C621 0.929 . S
H608 C622 0.931 . S
H609 C624 0.930 1_654 S
C610 H598 0.930 . S
C610 C611 1.399 . S
C610 C615 1.399 . S
C611 C610 1.399 . S
C611 C612 1.376 1_655 S
C612 H599 0.930 1_554 S
C612 C611 1.376 1_455 S
C612 C613 1.388 1_554 S
C613 H600 0.930 . S
C613 C612 1.388 1_556 S
C613 C614 1.390 . S
C614 C613 1.390 . S
C614 C615 1.394 1_456 S
C614 C620 1.465 . S
C615 C610 1.399 . S
C615 C614 1.394 1_654 S
C615 C616 1.516 . S
C616 C615 1.516 . S
C616 C617 1.502 . S
C616 C618 1.561 . S
C616 C619 1.531 . S
C617 H601 0.959 . S
C617 H602 0.959 . S
C617 H603 0.961 . S
C617 C616 1.502 . S
C618 H604 0.960 . S
C618 H605 0.961 . S
C618 H606 0.959 1_655 S
C618 C616 1.561 . S
C619 C616 1.531 . S
C619 C620 1.391 1_654 S
C619 C624 1.389 1_654 S
C620 C614 1.465 . S
C620 C619 1.391 1_456 S
C620 C621 1.399 . S
C621 H607 0.929 . S
C621 C620 1.399 . S
C621 C622 1.385 . S
C622 H608 0.931 . S
C622 C621 1.385 . S
C622 C623 1.389 . S
C623 C622 1.389 . S
C623 C624 1.387 . S
C624 H609 0.930 1_456 S
C624 C619 1.389 1_456 S
C624 C623 1.387 . S
H625 C637 0.930 . S
H626 C639 0.930 . S
H627 C640 0.930 . S
H628 C644 0.962 1_545 S
H629 C644 0.959 . S
H630 C644 0.961 . S
H631 C645 0.960 1_455 S
H632 C645 0.961 . S
H633 C645 0.959 . S
H634 C648 0.929 . S
H635 C649 0.931 . S
H636 C651 0.936 . S
C637 H625 0.930 . S
C637 C638 1.399 . S
C637 C642 1.399 . S
C638 C637 1.399 . S
C638 C639 1.376 1_565 S
C639 H626 0.930 . S
C639 C638 1.376 1_545 S
C639 C640 1.388 . S
C640 H627 0.930 . S
C640 C639 1.388 . S
C640 C641 1.390 . S
C641 C640 1.390 . S
C641 C642 1.394 1_545 S
C641 C647 1.465 1_455 S
C642 C637 1.399 . S
C642 C641 1.394 1_565 S
C642 C643 1.516 . S
C643 C642 1.516 . S
C643 C644 1.502 . S
C643 C645 1.561 1_455 S
C643 C646 1.526 1_455 S
C644 H628 0.962 1_565 S
C644 H629 0.959 . S
C644 H630 0.961 . S
C644 C643 1.502 . S
C645 H631 0.960 1_655 S
C645 H632 0.961 . S
C645 H633 0.959 . S
C645 C643 1.561 1_655 S
C646 C643 1.526 1_655 S
C646 C647 1.396 1_565 S
C646 C651 1.391 . S
C647 C641 1.465 1_655 S
C647 C646 1.396 1_545 S
C647 C648 1.399 . S
C648 H634 0.929 . S
C648 C647 1.399 . S
C648 C649 1.385 . S
C649 H635 0.931 . S
C649 C648 1.385 . S
C649 C650 1.389 . S
C650 C649 1.389 . S
C650 C651 1.379 1_545 S
C651 H636 0.936 . S
C651 C646 1.391 . S
C651 C650 1.379 1_565 S
H652 C664 0.930 . S
H653 C666 0.930 . S
H654 C667 0.930 . S
H655 C671 0.959 . S
H656 C671 0.959 . S
H657 C671 0.961 . S
H658 C672 0.960 . S
H659 C672 0.961 . S
H660 C672 0.959 . S
H661 C675 0.929 . S
H662 C676 0.931 . S
H663 C678 0.930 . S
C664 H652 0.930 . S
C664 C665 1.399 . S
C664 C669 1.399 . S
C665 C664 1.399 . S
C665 C666 1.376 . S
C666 H653 0.930 . S
C666 C665 1.376 . S
C666 C667 1.388 . S
C667 H654 0.930 . S
C667 C666 1.388 . S
C667 C668 1.390 . S
C668 C667 1.390 . S
C668 C669 1.394 . S
C668 C674 1.465 1_556 S
C669 C664 1.399 . S
C669 C668 1.394 . S
C669 C670 1.516 . S
C670 C669 1.516 . S
C670 C671 1.502 1_556 S
C670 C672 1.561 . S
C670 C673 1.526 1_556 S
C671 H655 0.959 . S
C671 H656 0.959 . S
C671 H657 0.961 . S
C671 C670 1.502 1_554 S
C672 H658 0.960 . S
C672 H659 0.961 . S
C672 H660 0.959 . S
C672 C670 1.561 . S
C673 C670 1.526 1_554 S
C673 C674 1.396 . S
C673 C678 1.390 . S
C674 C668 1.465 1_554 S
C674 C673 1.396 . S
C674 C675 1.399 . S
C675 H661 0.929 . S
C675 C674 1.399 . S
C675 C676 1.385 . S
C676 H662 0.931 . S
C676 C675 1.385 . S
C676 C677 1.389 . S
C677 C676 1.389 . S
C677 C678 1.387 . S
C678 H663 0.930 . S
C678 C673 1.390 . S
C678 C677 1.387 . S
H679 C691 0.930 . S
H680 C693 0.930 . S
H681 C694 0.930 . S
H682 C698 0.959 . S
H683 C698 0.959 . S
H684 C698 0.961 . S
H685 C699 0.960 1_655 S
H686 C699 0.961 . S
H687 C699 0.959 1_655 S
H688 C702 0.929 . S
H689 C703 0.931 . S
H690 C705 0.930 . S
C691 H679 0.930 . S
C691 C692 1.399 . S
C691 C696 1.399 . S
C692 C691 1.399 . S
C692 C693 1.376 . S
C693 H680 0.930 . S
C693 C692 1.376 . S
C693 C694 1.388 . S
C694 H681 0.930 . S
C694 C693 1.388 . S
C694 C695 1.390 . S
C695 C694 1.390 . S
C695 C696 1.394 . S
C695 C701 1.465 1_655 S
C696 C691 1.399 . S
C696 C695 1.394 . S
C696 C697 1.516 1_655 S
C697 C696 1.516 1_455 S
C697 C698 1.502 . S
C697 C699 1.561 . S
C697 C700 1.526 . S
C698 H682 0.959 . S
C698 H683 0.959 . S
C698 H684 0.961 . S
C698 C697 1.502 . S
C699 H685 0.960 1_455 S
C699 H686 0.961 . S
C699 H687 0.959 1_455 S
C699 C697 1.561 . S
C700 C697 1.526 . S
C700 C701 1.396 . S
C700 C705 1.390 . S
C701 C695 1.465 1_455 S
C701 C700 1.396 . S
C701 C702 1.399 . S
C702 H688 0.929 . S
C702 C701 1.399 . S
C702 C703 1.385 . S
C703 H689 0.931 . S
C703 C702 1.385 . S
C703 C704 1.389 . S
C704 C703 1.389 . S
C704 C705 1.387 . S
C705 H690 0.930 . S
C705 C700 1.390 . S
C705 C704 1.387 . S
H706 C718 0.930 . S
H707 C720 0.930 . S
H708 C721 0.930 . S
H709 C725 0.959 1_554 S
H710 C725 0.959 . S
H711 C725 0.961 1_565 S
H712 C726 0.960 . S
H713 C726 0.961 1_545 S
H714 C726 0.959 . S
H715 C729 0.929 . S
H716 C730 0.931 . S
H717 C732 0.930 . S
C718 H706 0.930 . S
C718 C719 1.399 . S
C718 C723 1.399 . S
C719 C718 1.399 . S
C719 C720 1.376 1_455 S
C720 H707 0.930 . S
C720 C719 1.376 1_655 S
C720 C721 1.388 . S
C721 H708 0.930 . S
C721 C720 1.388 . S
C721 C722 1.390 . S
C722 C721 1.390 . S
C722 C723 1.394 1_655 S
C722 C728 1.465 1_564 S
C723 C718 1.399 . S
C723 C722 1.394 1_455 S
C723 C724 1.518 1_554 S
C724 C723 1.518 1_556 S
C724 C725 1.501 1_565 S
C724 C726 1.562 . S
C724 C727 1.524 1_565 S
C725 H709 0.959 1_556 S
C725 H710 0.959 . S
C725 H711 0.961 1_545 S
C725 C724 1.501 1_545 S
C726 H712 0.960 . S
C726 H713 0.961 1_565 S
C726 H714 0.959 . S
C726 C724 1.562 . S
C727 C724 1.524 1_545 S
C727 C728 1.396 1_455 S
C727 C732 1.390 . S
C728 C722 1.465 1_546 S
C728 C727 1.396 1_655 S
C728 C729 1.399 1_556 S
C729 H715 0.929 . S
C729 C728 1.399 1_554 S
C729 C730 1.385 1_554 S
C730 H716 0.931 . S
C730 C729 1.385 1_556 S
C730 C731 1.389 . S
C731 C730 1.389 . S
C731 C732 1.387 1_655 S
C732 H717 0.930 . S
C732 C727 1.390 . S
C732 C731 1.387 1_455 S
H733 C745 0.930 . S
H734 C747 0.930 . S
H735 C748 0.930 . S
H736 C752 0.959 . S
H737 C752 0.959 . S
H738 C752 0.961 . S
H739 C753 0.960 . S
H740 C753 0.961 . S
H741 C753 0.959 . S
H742 C756 0.929 . S
H743 C757 0.931 . S
H744 C759 0.930 . S
C745 H733 0.930 . S
C745 C746 1.399 . S
C745 C750 1.399 . S
C746 C745 1.399 . S
C746 C747 1.376 1_565 S
C747 H734 0.930 . S
C747 C746 1.376 1_545 S
C747 C748 1.388 . S
C748 H735 0.930 . S
C748 C747 1.388 . S
C748 C749 1.390 . S
C749 C748 1.390 . S
C749 C750 1.394 1_545 S
C749 C755 1.465 . S
C750 C745 1.399 . S
C750 C749 1.394 1_565 S
C750 C751 1.516 . S
C751 C750 1.516 . S
C751 C752 1.502 . S
C751 C753 1.561 . S
C751 C754 1.526 . S
C752 H736 0.959 . S
C752 H737 0.959 . S
C752 H738 0.961 . S
C752 C751 1.502 . S
C753 H739 0.960 . S
C753 H740 0.961 . S
C753 H741 0.959 . S
C753 C751 1.561 . S
C754 C751 1.526 . S
C754 C755 1.396 1_565 S
C754 C759 1.390 . S
C755 C749 1.465 . S
C755 C754 1.396 1_545 S
C755 C756 1.399 . S
C756 H742 0.929 . S
C756 C755 1.399 . S
C756 C757 1.385 . S
C757 H743 0.931 . S
C757 C756 1.385 . S
C757 C758 1.389 . S
C758 C757 1.389 . S
C758 C759 1.387 1_545 S
C759 H744 0.930 . S
C759 C754 1.390 . S
C759 C758 1.387 1_565 S
H760 C772 0.930 . S
H761 C774 0.930 . S
H762 C775 0.930 . S
H763 C779 0.959 . S
H764 C779 0.959 . S
H765 C779 0.961 . S
H766 C780 0.960 . S
H767 C780 0.961 . S
H768 C780 0.959 . S
H769 C783 0.929 . S
H770 C784 0.931 . S
H771 C786 0.928 1_554 S
C772 H760 0.930 . S
C772 C773 1.399 . S
C772 C777 1.399 . S
C773 C772 1.399 . S
C773 C774 1.376 1_554 S
C774 H761 0.930 . S
C774 C773 1.376 1_556 S
C774 C775 1.388 . S
C775 H762 0.930 . S
C775 C774 1.388 . S
C775 C776 1.390 . S
C776 C775 1.390 . S
C776 C777 1.394 1_556 S
C776 C782 1.465 . S
C777 C772 1.399 . S
C777 C776 1.394 1_554 S
C777 C778 1.516 . S
C778 C777 1.516 . S
C778 C779 1.502 . S
C778 C780 1.561 . S
C778 C781 1.526 . S
C779 H763 0.959 . S
C779 H764 0.959 . S
C779 H765 0.961 . S
C779 C778 1.502 . S
C780 H766 0.960 . S
C780 H767 0.961 . S
C780 H768 0.959 . S
C780 C778 1.561 . S
C781 C778 1.526 . S
C781 C782 1.396 1_554 S
C781 C786 1.389 1_554 S
C782 C776 1.465 . S
C782 C781 1.396 1_556 S
C782 C783 1.399 . S
C783 H769 0.929 . S
C783 C782 1.399 . S
C783 C784 1.385 . S
C784 H770 0.931 . S
C784 C783 1.385 . S
C784 C785 1.389 . S
C785 C784 1.389 . S
C785 C786 1.389 . S
C786 H771 0.928 1_556 S
C786 C781 1.389 1_556 S
C786 C785 1.389 . S
H787 C799 0.930 . S
H788 C801 0.930 . S
H789 C802 0.930 . S
H790 C806 0.959 . S
H791 C806 0.959 . S
H792 C806 0.961 . S
H793 C807 0.960 . S
H794 C807 0.961 . S
H795 C807 0.959 . S
H796 C810 0.929 . S
H797 C811 0.931 . S
H798 C813 0.930 . S
C799 H787 0.930 . S
C799 C800 1.399 . S
C799 C804 1.399 . S
C800 C799 1.399 . S
C800 C801 1.376 . S
C801 H788 0.930 . S
C801 C800 1.376 . S
C801 C802 1.388 . S
C802 H789 0.930 . S
C802 C801 1.388 . S
C802 C803 1.390 . S
C803 C802 1.390 . S
C803 C804 1.394 . S
C803 C809 1.465 . S
C804 C799 1.399 . S
C804 C803 1.394 . S
C804 C805 1.516 . S
C805 C804 1.516 . S
C805 C806 1.502 . S
C805 C807 1.561 . S
C805 C808 1.526 . S
C806 H790 0.959 . S
C806 H791 0.959 . S
C806 H792 0.961 . S
C806 C805 1.502 . S
C807 H793 0.960 . S
C807 H794 0.961 . S
C807 H795 0.959 . S
C807 C805 1.561 . S
C808 C805 1.526 . S
C808 C809 1.396 . S
C808 C813 1.390 . S
C809 C803 1.465 . S
C809 C808 1.396 . S
C809 C810 1.399 . S
C810 H796 0.929 . S
C810 C809 1.399 . S
C810 C811 1.385 . S
C811 H797 0.931 . S
C811 C810 1.385 . S
C811 C812 1.389 . S
C812 C811 1.389 . S
C812 C813 1.387 . S
C813 H798 0.930 . S
C813 C808 1.390 . S
C813 C812 1.387 . S
H814 C826 0.917 1_556 S
H815 C828 0.914 1_455 S
H816 C829 0.930 . S
H817 C833 0.959 . S
H818 C833 0.959 . S
H819 C833 0.961 . S
H820 C834 0.960 . S
H821 C834 0.961 . S
H822 C834 0.959 1_455 S
H823 C837 0.945 . S
H824 C838 0.931 1_455 S
H825 C840 0.930 . S
C826 H814 0.917 1_554 S
C826 C827 1.415 . S
C826 C831 1.396 1_554 S
C827 C826 1.415 . S
C827 C828 1.401 . S
C828 H815 0.914 1_655 S
C828 C827 1.401 . S
C828 C829 1.384 1_655 S
C829 H816 0.930 . S
C829 C828 1.384 1_455 S
C829 C830 1.390 1_455 S
C830 C829 1.390 1_655 S
C830 C831 1.394 1_554 S
C830 C836 1.465 . S
C831 C826 1.396 1_556 S
C831 C830 1.394 1_556 S
C831 C832 1.516 . S
C832 C831 1.516 . S
C832 C833 1.502 . S
C832 C834 1.561 . S
C832 C835 1.526 . S
C833 H817 0.959 . S
C833 H818 0.959 . S
C833 H819 0.961 . S
C833 C832 1.502 . S
C834 H820 0.960 . S
C834 H821 0.961 . S
C834 H822 0.959 1_655 S
C834 C832 1.561 . S
C835 C832 1.526 . S
C835 C836 1.396 1_556 S
C835 C840 1.390 . S
C836 C830 1.465 . S
C836 C835 1.396 1_554 S
C836 C837 1.389 1_655 S
C837 H823 0.945 . S
C837 C836 1.389 1_455 S
C837 C838 1.381 1_455 S
C838 H824 0.931 1_655 S
C838 C837 1.381 1_655 S
C838 C839 1.389 1_554 S
C839 C838 1.389 1_556 S
C839 C840 1.387 . S
C840 H825 0.930 . S
C840 C835 1.390 . S
C840 C839 1.387 . S
H841 C853 0.930 . S
H842 C855 0.930 . S
H843 C856 0.930 . S
H844 C860 0.959 . S
H845 C860 0.959 . S
H846 C860 0.961 . S
H847 C861 0.960 . S
H848 C861 0.961 . S
H849 C861 0.959 . S
H850 C864 0.929 . S
H851 C865 0.931 . S
H852 C867 0.930 . S
C853 H841 0.930 . S
C853 C854 1.399 1_545 S
C853 C858 1.399 1_545 S
C854 C853 1.399 1_565 S
C854 C855 1.376 . S
C855 H842 0.930 . S
C855 C854 1.376 . S
C855 C856 1.388 . S
C856 H843 0.930 . S
C856 C855 1.388 . S
C856 C857 1.390 . S
C857 C856 1.390 . S
C857 C858 1.394 . S
C857 C863 1.465 . S
C858 C853 1.399 1_565 S
C858 C857 1.394 . S
C858 C859 1.516 1_565 S
C859 C858 1.516 1_545 S
C859 C860 1.502 . S
C859 C861 1.561 . S
C859 C862 1.526 1_545 S
C860 H844 0.959 . S
C860 H845 0.959 . S
C860 H846 0.961 . S
C860 C859 1.502 . S
C861 H847 0.960 . S
C861 H848 0.961 . S
C861 H849 0.959 . S
C861 C859 1.561 . S
C862 C859 1.526 1_565 S
C862 C863 1.396 . S
C862 C867 1.390 1_565 S
C863 C857 1.465 . S
C863 C862 1.396 . S
C863 C864 1.399 . S
C864 H850 0.929 . S
C864 C863 1.399 . S
C864 C865 1.385 . S
C865 H851 0.931 . S
C865 C864 1.385 . S
C865 C866 1.389 . S
C866 C865 1.389 . S
C866 C867 1.387 1_565 S
C867 H852 0.930 . S
C867 C862 1.390 1_545 S
C867 C866 1.387 1_545 S
H868 C880 0.941 . S
H869 C882 0.930 . S
H870 C883 0.930 . S
H871 C887 0.959 . S
H872 C887 0.959 . S
H873 C887 0.961 . S
H874 C888 0.960 . S
H875 C888 0.961 . S
H876 C888 0.959 . S
H877 C891 0.929 . S
H878 C892 0.931 . S
H879 C894 0.930 . S
C880 H868 0.941 . S
C880 C881 1.386 1_556 S
C880 C885 1.401 . S
C881 C880 1.386 1_554 S
C881 C882 1.376 . S
C882 H869 0.930 . S
C882 C881 1.376 . S
C882 C883 1.388 . S
C883 H870 0.930 . S
C883 C882 1.388 . S
C883 C884 1.390 . S
C884 C883 1.390 . S
C884 C885 1.394 1_554 S
C884 C890 1.465 . S
C885 C880 1.401 . S
C885 C884 1.394 1_556 S
C885 C886 1.516 . S
C886 C885 1.516 . S
C886 C887 1.502 . S
C886 C888 1.561 . S
C886 C889 1.526 . S
C887 H871 0.959 . S
C887 H872 0.959 . S
C887 H873 0.961 . S
C887 C886 1.502 . S
C888 H874 0.960 . S
C888 H875 0.961 . S
C888 H876 0.959 . S
C888 C886 1.561 . S
C889 C886 1.526 . S
C889 C890 1.396 1_556 S
C889 C894 1.390 . S
C890 C884 1.465 . S
C890 C889 1.396 1_554 S
C890 C891 1.399 . S
C891 H877 0.929 . S
C891 C890 1.399 . S
C891 C892 1.385 . S
C892 H878 0.931 . S
C892 C891 1.385 . S
C892 C893 1.389 1_554 S
C893 C892 1.389 1_556 S
C893 C894 1.387 . S
C894 H879 0.930 . S
C894 C889 1.390 . S
C894 C893 1.387 . S
H895 C907 0.930 . S
H896 C909 0.930 . S
H897 C910 0.930 . S
H898 C914 0.959 . S
H899 C914 0.959 . S
H900 C914 0.961 . S
H901 C915 0.960 . S
H902 C915 0.961 . S
H903 C915 0.959 . S
H904 C918 0.929 . S
H905 C919 0.931 . S
H906 C921 0.930 . S
C907 H895 0.930 . S
C907 C908 1.399 . S
C907 C912 1.399 . S
C908 C907 1.399 . S
C908 C909 1.376 . S
C909 H896 0.930 . S
C909 C908 1.376 . S
C909 C910 1.388 . S
C910 H897 0.930 . S
C910 C909 1.388 . S
C910 C911 1.390 . S
C911 C910 1.390 . S
C911 C912 1.394 . S
C911 C917 1.465 . S
C912 C907 1.399 . S
C912 C911 1.394 . S
C912 C913 1.516 . S
C913 C912 1.516 . S
C913 C914 1.502 . S
C913 C915 1.561 . S
C913 C916 1.526 . S
C914 H898 0.959 . S
C914 H899 0.959 . S
C914 H900 0.961 . S
C914 C913 1.502 . S
C915 H901 0.960 . S
C915 H902 0.961 . S
C915 H903 0.959 . S
C915 C913 1.561 . S
C916 C913 1.526 . S
C916 C917 1.396 . S
C916 C921 1.390 . S
C917 C911 1.465 . S
C917 C916 1.396 . S
C917 C918 1.399 . S
C918 H904 0.929 . S
C918 C917 1.399 . S
C918 C919 1.385 . S
C919 H905 0.931 . S
C919 C918 1.385 . S
C919 C920 1.389 . S
C920 C919 1.389 . S
C920 C921 1.387 . S
C921 H906 0.930 . S
C921 C916 1.390 . S
C921 C920 1.387 . S
H922 C934 0.921 1_556 S
H923 C936 0.930 . S
H924 C937 0.930 . S
H925 C941 0.959 . S
H926 C941 0.959 . S
H927 C941 0.961 . S
H928 C942 0.960 . S
H929 C942 0.961 . S
H930 C942 0.959 . S
H931 C945 0.929 . S
H932 C946 0.931 . S
H933 C948 0.930 . S
C934 H922 0.921 1_554 S
C934 C935 1.410 . S
C934 C939 1.397 1_554 S
C935 C934 1.410 . S
C935 C936 1.376 . S
C936 H923 0.930 . S
C936 C935 1.376 . S
C936 C937 1.388 . S
C937 H924 0.930 . S
C937 C936 1.388 . S
C937 C938 1.390 . S
C938 C937 1.390 . S
C938 C939 1.394 1_554 S
C938 C944 1.465 . S
C939 C934 1.397 1_556 S
C939 C938 1.394 1_556 S
C939 C940 1.516 . S
C940 C939 1.516 . S
C940 C941 1.502 1_455 S
C940 C942 1.561 . S
C940 C943 1.526 . S
C941 H925 0.959 . S
C941 H926 0.959 . S
C941 H927 0.961 . S
C941 C940 1.502 1_655 S
C942 H928 0.960 . S
C942 H929 0.961 . S
C942 H930 0.959 . S
C942 C940 1.561 . S
C943 C940 1.526 . S
C943 C944 1.396 1_556 S
C943 C948 1.390 . S
C944 C938 1.465 . S
C944 C943 1.396 1_554 S
C944 C945 1.399 . S
C945 H931 0.929 . S
C945 C944 1.399 . S
C945 C946 1.385 . S
C946 H932 0.931 . S
C946 C945 1.385 . S
C946 C947 1.389 1_554 S
C947 C946 1.389 1_556 S
C947 C948 1.387 . S
C948 H933 0.930 . S
C948 C943 1.390 . S
C948 C947 1.387 . S
H949 C961 0.930 . S
H950 C963 0.930 . S
H951 C964 0.930 . S
H952 C968 0.959 . S
H953 C968 0.959 . S
H954 C968 0.961 . S
H955 C969 0.960 . S
H956 C969 0.961 . S
H957 C969 0.959 . S
H958 C972 0.929 . S
H959 C973 0.931 . S
H960 C975 0.930 . S
C961 H949 0.930 . S
C961 C962 1.399 1_565 S
C961 C966 1.399 1_565 S
C962 C961 1.399 1_545 S
C962 C963 1.376 . S
C963 H950 0.930 . S
C963 C962 1.376 . S
C963 C964 1.388 . S
C964 H951 0.930 . S
C964 C963 1.388 . S
C964 C965 1.390 . S
C965 C964 1.390 . S
C965 C966 1.394 . S
C965 C971 1.465 . S
C966 C961 1.399 1_545 S
C966 C965 1.394 . S
C966 C967 1.516 1_545 S
C967 C966 1.516 1_565 S
C967 C968 1.502 . S
C967 C969 1.561 . S
C967 C970 1.526 1_565 S
C968 H952 0.959 . S
C968 H953 0.959 . S
C968 H954 0.961 . S
C968 C967 1.502 . S
C969 H955 0.960 . S
C969 H956 0.961 . S
C969 H957 0.959 . S
C969 C967 1.561 . S
C970 C967 1.526 1_545 S
C970 C971 1.396 . S
C970 C975 1.390 1_545 S
C971 C965 1.465 . S
C971 C970 1.396 . S
C971 C972 1.399 . S
C972 H958 0.929 . S
C972 C971 1.399 . S
C972 C973 1.385 . S
C973 H959 0.931 . S
C973 C972 1.385 . S
C973 C974 1.389 . S
C974 C973 1.389 . S
C974 C975 1.387 1_545 S
C975 H960 0.930 . S
C975 C970 1.390 1_565 S
C975 C974 1.387 1_565 S
H976 C988 0.930 . S
H977 C990 0.930 . S
H978 C991 0.930 . S
H979 C995 0.959 . S
H980 C995 0.959 . S
H981 C995 0.961 . S
H982 C996 0.960 . S
H983 C996 0.961 . S
H984 C996 0.959 . S
H985 C999 0.929 . S
H986 C1000 0.931 . S
H987 C1002 0.930 . S
C988 H976 0.930 . S
C988 C989 1.399 . S
C988 C993 1.399 . S
C989 C988 1.399 . S
C989 C990 1.376 . S
C990 H977 0.930 . S
C990 C989 1.376 . S
C990 C991 1.388 . S
C991 H978 0.930 . S
C991 C990 1.388 . S
C991 C992 1.390 . S
C992 C991 1.390 . S
C992 C993 1.394 . S
C992 C998 1.465 . S
C993 C988 1.399 . S
C993 C992 1.394 . S
C993 C994 1.516 . S
C994 C993 1.516 . S
C994 C995 1.502 . S
C994 C996 1.561 . S
C994 C997 1.526 . S
C995 H979 0.959 . S
C995 H980 0.959 . S
C995 H981 0.961 . S
C995 C994 1.502 . S
C996 H982 0.960 . S
C996 H983 0.961 . S
C996 H984 0.959 . S
C996 C994 1.561 . S
C997 C994 1.526 . S
C997 C998 1.396 . S
C997 C1002 1.390 . S
C998 C992 1.465 . S
C998 C997 1.396 . S
C998 C999 1.399 . S
C999 H985 0.929 . S
C999 C998 1.399 . S
C999 C1000 1.385 . S
C1000 H986 0.931 . S
C1000 C999 1.385 . S
C1000 C1001 1.389 . S
C1001 C1000 1.389 . S
C1001 C1002 1.387 . S
C1002 H987 0.930 . S
C1002 C997 1.390 . S
C1002 C1001 1.387 . S
H1003 C1015 0.930 . S
H1004 C1017 0.930 . S
H1005 C1018 0.930 . S
H1006 C1022 0.959 . S
H1007 C1022 0.959 . S
H1008 C1022 0.961 . S
H1009 C1023 0.960 . S
H1010 C1023 0.961 . S
H1011 C1023 0.959 . S
H1012 C1026 0.929 . S
H1013 C1027 0.931 . S
H1014 C1029 0.930 . S
C1015 H1003 0.930 . S
C1015 C1016 1.399 . S
C1015 C1020 1.399 . S
C1016 C1015 1.399 . S
C1016 C1017 1.376 . S
C1017 H1004 0.930 . S
C1017 C1016 1.376 . S
C1017 C1018 1.388 . S
C1018 H1005 0.930 . S
C1018 C1017 1.388 . S
C1018 C1019 1.390 . S
C1019 C1018 1.390 . S
C1019 C1020 1.394 . S
C1019 C1025 1.465 . S
C1020 C1015 1.399 . S
C1020 C1019 1.394 . S
C1020 C1021 1.516 . S
C1021 C1020 1.516 . S
C1021 C1022 1.502 . S
C1021 C1023 1.561 . S
C1021 C1024 1.526 . S
C1022 H1006 0.959 . S
C1022 H1007 0.959 . S
C1022 H1008 0.961 . S
C1022 C1021 1.502 . S
C1023 H1009 0.960 . S
C1023 H1010 0.961 . S
C1023 H1011 0.959 . S
C1023 C1021 1.561 . S
C1024 C1021 1.526 . S
C1024 C1025 1.396 . S
C1024 C1029 1.390 . S
C1025 C1019 1.465 . S
C1025 C1024 1.396 . S
C1025 C1026 1.399 . S
C1026 H1012 0.929 . S
C1026 C1025 1.399 . S
C1026 C1027 1.385 . S
C1027 H1013 0.931 . S
C1027 C1026 1.385 . S
C1027 C1028 1.389 . S
C1028 C1027 1.389 . S
C1028 C1029 1.387 . S
C1029 H1014 0.930 . S
C1029 C1024 1.390 . S
C1029 C1028 1.387 . S
H1030 C1042 0.930 . S
H1031 C1044 0.930 . S
H1032 C1045 0.930 . S
H1033 C1049 0.959 . S
H1034 C1049 0.959 . S
H1035 C1049 0.961 . S
H1036 C1050 0.960 . S
H1037 C1050 0.961 . S
H1038 C1050 0.959 . S
H1039 C1053 0.929 . S
H1040 C1054 0.931 . S
H1041 C1056 0.930 . S
C1042 H1030 0.930 . S
C1042 C1043 1.399 . S
C1042 C1047 1.399 . S
C1043 C1042 1.399 . S
C1043 C1044 1.376 . S
C1044 H1031 0.930 . S
C1044 C1043 1.376 . S
C1044 C1045 1.388 . S
C1045 H1032 0.930 . S
C1045 C1044 1.388 . S
C1045 C1046 1.390 . S
C1046 C1045 1.390 . S
C1046 C1047 1.394 . S
C1046 C1052 1.465 . S
C1047 C1042 1.399 . S
C1047 C1046 1.394 . S
C1047 C1048 1.516 . S
C1048 C1047 1.516 . S
C1048 C1049 1.502 . S
C1048 C1050 1.561 . S
C1048 C1051 1.526 . S
C1049 H1033 0.959 . S
C1049 H1034 0.959 . S
C1049 H1035 0.961 . S
C1049 C1048 1.502 . S
C1050 H1036 0.960 . S
C1050 H1037 0.961 . S
C1050 H1038 0.959 . S
C1050 C1048 1.561 . S
C1051 C1048 1.526 . S
C1051 C1052 1.396 . S
C1051 C1056 1.390 . S
C1052 C1046 1.465 . S
C1052 C1051 1.396 . S
C1052 C1053 1.399 . S
C1053 H1039 0.929 . S
C1053 C1052 1.399 . S
C1053 C1054 1.385 . S
C1054 H1040 0.931 . S
C1054 C1053 1.385 . S
C1054 C1055 1.389 . S
C1055 C1054 1.389 . S
C1055 C1056 1.387 . S
C1056 H1041 0.930 . S
C1056 C1051 1.390 . S
C1056 C1055 1.387 . S
H1057 C1069 0.930 . S
H1058 C1071 0.930 . S
H1059 C1072 0.930 . S
H1060 C1076 0.959 . S
H1061 C1076 0.959 . S
H1062 C1076 0.961 . S
H1063 C1077 0.960 . S
H1064 C1077 0.961 . S
H1065 C1077 0.959 . S
H1066 C1080 0.929 . S
H1067 C1081 0.931 . S
H1068 C1083 0.930 . S
C1069 H1057 0.930 . S
C1069 C1070 1.399 . S
C1069 C1074 1.399 . S
C1070 C1069 1.399 . S
C1070 C1071 1.376 . S
C1071 H1058 0.930 . S
C1071 C1070 1.376 . S
C1071 C1072 1.388 . S
C1072 H1059 0.930 . S
C1072 C1071 1.388 . S
C1072 C1073 1.390 . S
C1073 C1072 1.390 . S
C1073 C1074 1.394 . S
C1073 C1079 1.465 . S
C1074 C1069 1.399 . S
C1074 C1073 1.394 . S
C1074 C1075 1.516 . S
C1075 C1074 1.516 . S
C1075 C1076 1.502 . S
C1075 C1077 1.561 . S
C1075 C1078 1.526 . S
C1076 H1060 0.959 . S
C1076 H1061 0.959 . S
C1076 H1062 0.961 . S
C1076 C1075 1.502 . S
C1077 H1063 0.960 . S
C1077 H1064 0.961 . S
C1077 H1065 0.959 . S
C1077 C1075 1.561 . S
C1078 C1075 1.526 . S
C1078 C1079 1.396 . S
C1078 C1083 1.390 . S
C1079 C1073 1.465 . S
C1079 C1078 1.396 . S
C1079 C1080 1.399 . S
C1080 H1066 0.929 . S
C1080 C1079 1.399 . S
C1080 C1081 1.385 . S
C1081 H1067 0.931 . S
C1081 C1080 1.385 . S
C1081 C1082 1.389 . S
C1082 C1081 1.389 . S
C1082 C1083 1.387 . S
C1083 H1068 0.930 . S
C1083 C1078 1.390 . S
C1083 C1082 1.387 . S
H1084 C1096 0.930 . S
H1085 C1098 0.930 . S
H1086 C1099 0.930 . S
H1087 C1103 0.959 . S
H1088 C1103 0.959 . S
H1089 C1103 0.961 . S
H1090 C1104 0.960 . S
H1091 C1104 0.961 . S
H1092 C1104 0.959 . S
H1093 C1107 0.929 . S
H1094 C1108 0.931 . S
H1095 C1110 0.930 . S
C1096 H1084 0.930 . S
C1096 C1097 1.399 . S
C1096 C1101 1.399 . S
C1097 C1096 1.399 . S
C1097 C1098 1.376 . S
C1098 H1085 0.930 . S
C1098 C1097 1.376 . S
C1098 C1099 1.388 . S
C1099 H1086 0.930 . S
C1099 C1098 1.388 . S
C1099 C1100 1.390 . S
C1100 C1099 1.390 . S
C1100 C1101 1.394 . S
C1100 C1106 1.465 . S
C1101 C1096 1.399 . S
C1101 C1100 1.394 . S
C1101 C1102 1.516 . S
C1102 C1101 1.516 . S
C1102 C1103 1.502 . S
C1102 C1104 1.561 . S
C1102 C1105 1.526 . S
C1103 H1087 0.959 . S
C1103 H1088 0.959 . S
C1103 H1089 0.961 . S
C1103 C1102 1.502 . S
C1104 H1090 0.960 . S
C1104 H1091 0.961 . S
C1104 H1092 0.959 . S
C1104 C1102 1.561 . S
C1105 C1102 1.526 . S
C1105 C1106 1.396 . S
C1105 C1110 1.390 . S
C1106 C1100 1.465 . S
C1106 C1105 1.396 . S
C1106 C1107 1.399 . S
C1107 H1093 0.929 . S
C1107 C1106 1.399 . S
C1107 C1108 1.385 . S
C1108 H1094 0.931 . S
C1108 C1107 1.385 . S
C1108 C1109 1.389 . S
C1109 C1108 1.389 . S
C1109 C1110 1.387 . S
C1110 H1095 0.930 . S
C1110 C1105 1.390 . S
C1110 C1109 1.387 . S
H1111 C1123 0.930 . S
H1112 C1125 0.930 . S
H1113 C1126 0.930 . S
H1114 C1130 0.959 . S
H1115 C1130 0.959 . S
H1116 C1130 0.961 . S
H1117 C1131 0.960 . S
H1118 C1131 0.961 . S
H1119 C1131 0.959 . S
H1120 C1134 0.929 . S
H1121 C1135 0.931 . S
H1122 C1137 0.930 . S
C1123 H1111 0.930 . S
C1123 C1124 1.399 . S
C1123 C1128 1.399 . S
C1124 C1123 1.399 . S
C1124 C1125 1.376 . S
C1125 H1112 0.930 . S
C1125 C1124 1.376 . S
C1125 C1126 1.388 . S
C1126 H1113 0.930 . S
C1126 C1125 1.388 . S
C1126 C1127 1.390 . S
C1127 C1126 1.390 . S
C1127 C1128 1.394 . S
C1127 C1133 1.465 . S
C1128 C1123 1.399 . S
C1128 C1127 1.394 . S
C1128 C1129 1.516 . S
C1129 C1128 1.516 . S
C1129 C1130 1.502 . S
C1129 C1131 1.561 . S
C1129 C1132 1.526 . S
C1130 H1114 0.959 . S
C1130 H1115 0.959 . S
C1130 H1116 0.961 . S
C1130 C1129 1.502 . S
C1131 H1117 0.960 . S
C1131 H1118 0.961 . S
C1131 H1119 0.959 . S
C1131 C1129 1.561 . S
C1132 C1129 1.526 . S
C1132 C1133 1.396 . S
C1132 C1137 1.390 . S
C1133 C1127 1.465 . S
C1133 C1132 1.396 . S
C1133 C1134 1.399 . S
C1134 H1120 0.929 . S
C1134 C1133 1.399 . S
C1134 C1135 1.385 . S
C1135 H1121 0.931 . S
C1135 C1134 1.385 . S
C1135 C1136 1.389 . S
C1136 C1135 1.389 . S
C1136 C1137 1.387 . S
C1137 H1122 0.930 . S
C1137 C1132 1.390 . S
C1137 C1136 1.387 . S
H1138 C1150 0.930 . S
H1139 C1152 0.930 . S
H1140 C1153 0.930 . S
H1141 C1157 0.959 . S
H1142 C1157 0.959 . S
H1143 C1157 0.961 . S
H1144 C1158 0.960 . S
H1145 C1158 0.961 . S
H1146 C1158 0.959 . S
H1147 C1161 0.929 . S
H1148 C1162 0.931 . S
H1149 C1164 0.930 . S
C1150 H1138 0.930 . S
C1150 C1151 1.399 . S
C1150 C1155 1.399 . S
C1151 C1150 1.399 . S
C1151 C1152 1.376 . S
C1152 H1139 0.930 . S
C1152 C1151 1.376 . S
C1152 C1153 1.388 . S
C1153 H1140 0.930 . S
C1153 C1152 1.388 . S
C1153 C1154 1.390 . S
C1154 C1153 1.390 . S
C1154 C1155 1.394 . S
C1154 C1160 1.465 . S
C1155 C1150 1.399 . S
C1155 C1154 1.394 . S
C1155 C1156 1.516 . S
C1156 C1155 1.516 . S
C1156 C1157 1.502 . S
C1156 C1158 1.561 . S
C1156 C1159 1.526 . S
C1157 H1141 0.959 . S
C1157 H1142 0.959 . S
C1157 H1143 0.961 . S
C1157 C1156 1.502 . S
C1158 H1144 0.960 . S
C1158 H1145 0.961 . S
C1158 H1146 0.959 . S
C1158 C1156 1.561 . S
C1159 C1156 1.526 . S
C1159 C1160 1.396 . S
C1159 C1164 1.390 . S
C1160 C1154 1.465 . S
C1160 C1159 1.396 . S
C1160 C1161 1.399 . S
C1161 H1147 0.929 . S
C1161 C1160 1.399 . S
C1161 C1162 1.385 . S
C1162 H1148 0.931 . S
C1162 C1161 1.385 . S
C1162 C1163 1.389 . S
C1163 C1162 1.389 . S
C1163 C1164 1.387 . S
C1164 H1149 0.930 . S
C1164 C1159 1.390 . S
C1164 C1163 1.387 . S
H1165 C1177 0.930 . S
H1166 C1179 0.930 . S
H1167 C1180 0.930 . S
H1168 C1184 0.959 . S
H1169 C1184 0.959 . S
H1170 C1184 0.961 . S
H1171 C1185 0.960 . S
H1172 C1185 0.961 . S
H1173 C1185 0.959 . S
H1174 C1188 0.929 . S
H1175 C1189 0.931 . S
H1176 C1191 0.930 . S
C1177 H1165 0.930 . S
C1177 C1178 1.399 . S
C1177 C1182 1.399 . S
C1178 C1177 1.399 . S
C1178 C1179 1.376 . S
C1179 H1166 0.930 . S
C1179 C1178 1.376 . S
C1179 C1180 1.388 . S
C1180 H1167 0.930 . S
C1180 C1179 1.388 . S
C1180 C1181 1.390 . S
C1181 C1180 1.390 . S
C1181 C1182 1.394 . S
C1181 C1187 1.465 . S
C1182 C1177 1.399 . S
C1182 C1181 1.394 . S
C1182 C1183 1.516 . S
C1183 C1182 1.516 . S
C1183 C1184 1.502 . S
C1183 C1185 1.561 . S
C1183 C1186 1.526 . S
C1184 H1168 0.959 . S
C1184 H1169 0.959 . S
C1184 H1170 0.961 . S
C1184 C1183 1.502 . S
C1185 H1171 0.960 . S
C1185 H1172 0.961 . S
C1185 H1173 0.959 . S
C1185 C1183 1.561 . S
C1186 C1183 1.526 . S
C1186 C1187 1.396 . S
C1186 C1191 1.390 . S
C1187 C1181 1.465 . S
C1187 C1186 1.396 . S
C1187 C1188 1.399 . S
C1188 H1174 0.929 . S
C1188 C1187 1.399 . S
C1188 C1189 1.385 . S
C1189 H1175 0.931 . S
C1189 C1188 1.385 . S
C1189 C1190 1.389 . S
C1190 C1189 1.389 . S
C1190 C1191 1.387 . S
C1191 H1176 0.930 . S
C1191 C1186 1.390 . S
C1191 C1190 1.387 . S
H1192 C1204 0.930 . S
H1193 C1206 0.930 . S
H1194 C1207 0.930 . S
H1195 C1211 0.959 . S
H1196 C1211 0.959 . S
H1197 C1211 0.961 . S
H1198 C1212 0.960 . S
H1199 C1212 0.961 . S
H1200 C1212 0.959 . S
H1201 C1215 0.929 . S
H1202 C1216 0.931 . S
H1203 C1218 0.930 . S
C1204 H1192 0.930 . S
C1204 C1205 1.399 . S
C1204 C1209 1.399 . S
C1205 C1204 1.399 . S
C1205 C1206 1.376 . S
C1206 H1193 0.930 . S
C1206 C1205 1.376 . S
C1206 C1207 1.388 . S
C1207 H1194 0.930 . S
C1207 C1206 1.388 . S
C1207 C1208 1.390 . S
C1208 C1207 1.390 . S
C1208 C1209 1.394 . S
C1208 C1214 1.465 . S
C1209 C1204 1.399 . S
C1209 C1208 1.394 . S
C1209 C1210 1.516 . S
C1210 C1209 1.516 . S
C1210 C1211 1.502 . S
C1210 C1212 1.561 . S
C1210 C1213 1.526 . S
C1211 H1195 0.959 . S
C1211 H1196 0.959 . S
C1211 H1197 0.961 . S
C1211 C1210 1.502 . S
C1212 H1198 0.960 . S
C1212 H1199 0.961 . S
C1212 H1200 0.959 . S
C1212 C1210 1.561 . S
C1213 C1210 1.526 . S
C1213 C1214 1.396 . S
C1213 C1218 1.390 . S
C1214 C1208 1.465 . S
C1214 C1213 1.396 . S
C1214 C1215 1.399 . S
C1215 H1201 0.929 . S
C1215 C1214 1.399 . S
C1215 C1216 1.385 . S
C1216 H1202 0.931 . S
C1216 C1215 1.385 . S
C1216 C1217 1.389 . S
C1217 C1216 1.389 . S
C1217 C1218 1.387 . S
C1218 H1203 0.930 . S
C1218 C1213 1.390 . S
C1218 C1217 1.387 . S
H1219 C1231 0.930 . S
H1220 C1233 0.930 . S
H1221 C1234 0.930 . S
H1222 C1238 0.959 . S
H1223 C1238 0.959 . S
H1224 C1238 0.961 . S
H1225 C1239 0.960 . S
H1226 C1239 0.961 . S
H1227 C1239 0.959 . S
H1228 C1242 0.929 . S
H1229 C1243 0.931 . S
H1230 C1245 0.930 . S
C1231 H1219 0.930 . S
C1231 C1232 1.399 . S
C1231 C1236 1.399 . S
C1232 C1231 1.399 . S
C1232 C1233 1.376 . S
C1233 H1220 0.930 . S
C1233 C1232 1.376 . S
C1233 C1234 1.388 . S
C1234 H1221 0.930 . S
C1234 C1233 1.388 . S
C1234 C1235 1.390 . S
C1235 C1234 1.390 . S
C1235 C1236 1.394 . S
C1235 C1241 1.465 . S
C1236 C1231 1.399 . S
C1236 C1235 1.394 . S
C1236 C1237 1.516 . S
C1237 C1236 1.516 . S
C1237 C1238 1.502 . S
C1237 C1239 1.561 . S
C1237 C1240 1.526 . S
C1238 H1222 0.959 . S
C1238 H1223 0.959 . S
C1238 H1224 0.961 . S
C1238 C1237 1.502 . S
C1239 H1225 0.960 . S
C1239 H1226 0.961 . S
C1239 H1227 0.959 . S
C1239 C1237 1.561 . S
C1240 C1237 1.526 . S
C1240 C1241 1.396 . S
C1240 C1245 1.390 . S
C1241 C1235 1.465 . S
C1241 C1240 1.396 . S
C1241 C1242 1.399 . S
C1242 H1228 0.929 . S
C1242 C1241 1.399 . S
C1242 C1243 1.385 . S
C1243 H1229 0.931 . S
C1243 C1242 1.385 . S
C1243 C1244 1.389 . S
C1244 C1243 1.389 . S
C1244 C1245 1.387 . S
C1245 H1230 0.930 . S
C1245 C1240 1.390 . S
C1245 C1244 1.387 . S
H1246 C1258 0.930 . S
H1247 C1260 0.930 . S
H1248 C1261 0.930 . S
H1249 C1265 0.959 . S
H1250 C1265 0.959 . S
H1251 C1265 0.961 . S
H1252 C1266 0.960 . S
H1253 C1266 0.961 . S
H1254 C1266 0.959 . S
H1255 C1269 0.929 . S
H1256 C1270 0.931 . S
H1257 C1272 0.930 . S
C1258 H1246 0.930 . S
C1258 C1259 1.399 . S
C1258 C1263 1.399 . S
C1259 C1258 1.399 . S
C1259 C1260 1.376 . S
C1260 H1247 0.930 . S
C1260 C1259 1.376 . S
C1260 C1261 1.388 . S
C1261 H1248 0.930 . S
C1261 C1260 1.388 . S
C1261 C1262 1.390 . S
C1262 C1261 1.390 . S
C1262 C1263 1.394 . S
C1262 C1268 1.465 . S
C1263 C1258 1.399 . S
C1263 C1262 1.394 . S
C1263 C1264 1.516 . S
C1264 C1263 1.516 . S
C1264 C1265 1.502 . S
C1264 C1266 1.561 . S
C1264 C1267 1.526 . S
C1265 H1249 0.959 . S
C1265 H1250 0.959 . S
C1265 H1251 0.961 . S
C1265 C1264 1.502 . S
C1266 H1252 0.960 . S
C1266 H1253 0.961 . S
C1266 H1254 0.959 . S
C1266 C1264 1.561 . S
C1267 C1264 1.526 . S
C1267 C1268 1.396 . S
C1267 C1272 1.390 . S
C1268 C1262 1.465 . S
C1268 C1267 1.396 . S
C1268 C1269 1.399 . S
C1269 H1255 0.929 . S
C1269 C1268 1.399 . S
C1269 C1270 1.385 . S
C1270 H1256 0.931 . S
C1270 C1269 1.385 . S
C1270 C1271 1.389 . S
C1271 C1270 1.389 . S
C1271 C1272 1.387 . S
C1272 H1257 0.930 . S
C1272 C1267 1.390 . S
C1272 C1271 1.387 . S
H1273 C1285 0.930 . S
H1274 C1287 0.930 . S
H1275 C1288 0.930 . S
H1276 C1292 0.959 . S
H1277 C1292 0.959 . S
H1278 C1292 0.961 . S
H1279 C1293 0.960 . S
H1280 C1293 0.961 . S
H1281 C1293 0.959 . S
H1282 C1296 0.929 . S
H1283 C1297 0.931 . S
H1284 C1299 0.930 . S
C1285 H1273 0.930 . S
C1285 C1286 1.399 . S
C1285 C1290 1.399 . S
C1286 C1285 1.399 . S
C1286 C1287 1.376 . S
C1287 H1274 0.930 . S
C1287 C1286 1.376 . S
C1287 C1288 1.388 . S
C1288 H1275 0.930 . S
C1288 C1287 1.388 . S
C1288 C1289 1.390 . S
C1289 C1288 1.390 . S
C1289 C1290 1.394 . S
C1289 C1295 1.465 . S
C1290 C1285 1.399 . S
C1290 C1289 1.394 . S
C1290 C1291 1.516 . S
C1291 C1290 1.516 . S
C1291 C1292 1.502 . S
C1291 C1293 1.561 . S
C1291 C1294 1.526 . S
C1292 H1276 0.959 . S
C1292 H1277 0.959 . S
C1292 H1278 0.961 . S
C1292 C1291 1.502 . S
C1293 H1279 0.960 . S
C1293 H1280 0.961 . S
C1293 H1281 0.959 . S
C1293 C1291 1.561 . S
C1294 C1291 1.526 . S
C1294 C1295 1.396 . S
C1294 C1299 1.390 . S
C1295 C1289 1.465 . S
C1295 C1294 1.396 . S
C1295 C1296 1.399 . S
C1296 H1282 0.929 . S
C1296 C1295 1.399 . S
C1296 C1297 1.385 . S
C1297 H1283 0.931 . S
C1297 C1296 1.385 . S
C1297 C1298 1.389 . S
C1298 C1297 1.389 . S
C1298 C1299 1.387 . S
C1299 H1284 0.930 . S
C1299 C1294 1.390 . S
C1299 C1298 1.387 . S
H1300 C1312 0.930 . S
H1301 C1314 0.930 . S
H1302 C1315 0.930 . S
H1303 C1319 0.959 . S
H1304 C1319 0.959 . S
H1305 C1319 0.961 . S
H1306 C1320 0.960 . S
H1307 C1320 0.961 . S
H1308 C1320 0.959 . S
H1309 C1323 0.929 . S
H1310 C1324 0.931 . S
H1311 C1326 0.930 . S
C1312 H1300 0.930 . S
C1312 C1313 1.399 . S
C1312 C1317 1.399 . S
C1313 C1312 1.399 . S
C1313 C1314 1.376 . S
C1314 H1301 0.930 . S
C1314 C1313 1.376 . S
C1314 C1315 1.388 . S
C1315 H1302 0.930 . S
C1315 C1314 1.388 . S
C1315 C1316 1.390 . S
C1316 C1315 1.390 . S
C1316 C1317 1.394 . S
C1316 C1322 1.465 . S
C1317 C1312 1.399 . S
C1317 C1316 1.394 . S
C1317 C1318 1.516 . S
C1318 C1317 1.516 . S
C1318 C1319 1.502 . S
C1318 C1320 1.561 . S
C1318 C1321 1.526 . S
C1319 H1303 0.959 . S
C1319 H1304 0.959 . S
C1319 H1305 0.961 . S
C1319 C1318 1.502 . S
C1320 H1306 0.960 . S
C1320 H1307 0.961 . S
C1320 H1308 0.959 . S
C1320 C1318 1.561 . S
C1321 C1318 1.526 . S
C1321 C1322 1.396 . S
C1321 C1326 1.390 . S
C1322 C1316 1.465 . S
C1322 C1321 1.396 . S
C1322 C1323 1.399 . S
C1323 H1309 0.929 . S
C1323 C1322 1.399 . S
C1323 C1324 1.385 . S
C1324 H1310 0.931 . S
C1324 C1323 1.385 . S
C1324 C1325 1.389 . S
C1325 C1324 1.389 . S
C1325 C1326 1.387 . S
C1326 H1311 0.930 . S
C1326 C1321 1.390 . S
C1326 C1325 1.387 . S
H1327 C1339 0.930 . S
H1328 C1341 0.930 . S
H1329 C1342 0.930 . S
H1330 C1346 0.959 . S
H1331 C1346 0.959 . S
H1332 C1346 0.961 . S
H1333 C1347 0.960 . S
H1334 C1347 0.961 . S
H1335 C1347 0.959 . S
H1336 C1350 0.929 . S
H1337 C1351 0.931 . S
H1338 C1353 0.930 . S
C1339 H1327 0.930 . S
C1339 C1340 1.399 . S
C1339 C1344 1.399 . S
C1340 C1339 1.399 . S
C1340 C1341 1.376 . S
C1341 H1328 0.930 . S
C1341 C1340 1.376 . S
C1341 C1342 1.388 . S
C1342 H1329 0.930 . S
C1342 C1341 1.388 . S
C1342 C1343 1.390 . S
C1343 C1342 1.390 . S
C1343 C1344 1.394 . S
C1343 C1349 1.465 . S
C1344 C1339 1.399 . S
C1344 C1343 1.394 . S
C1344 C1345 1.516 . S
C1345 C1344 1.516 . S
C1345 C1346 1.502 . S
C1345 C1347 1.561 . S
C1345 C1348 1.526 . S
C1346 H1330 0.959 . S
C1346 H1331 0.959 . S
C1346 H1332 0.961 . S
C1346 C1345 1.502 . S
C1347 H1333 0.960 . S
C1347 H1334 0.961 . S
C1347 H1335 0.959 . S
C1347 C1345 1.561 . S
C1348 C1345 1.526 . S
C1348 C1349 1.396 . S
C1348 C1353 1.390 . S
C1349 C1343 1.465 . S
C1349 C1348 1.396 . S
C1349 C1350 1.399 . S
C1350 H1336 0.929 . S
C1350 C1349 1.399 . S
C1350 C1351 1.385 . S
C1351 H1337 0.931 . S
C1351 C1350 1.385 . S
C1351 C1352 1.389 . S
C1352 C1351 1.389 . S
C1352 C1353 1.387 . S
C1353 H1338 0.930 . S
C1353 C1348 1.390 . S
C1353 C1352 1.387 . S
H1354 C1366 0.930 . S
H1355 C1368 0.930 . S
H1356 C1369 0.930 . S
H1357 C1373 0.959 . S
H1358 C1373 0.959 . S
H1359 C1373 0.961 . S
H1360 C1374 0.960 . S
H1361 C1374 0.961 . S
H1362 C1374 0.959 . S
H1363 C1377 0.929 . S
H1364 C1378 0.931 . S
H1365 C1380 0.930 . S
C1366 H1354 0.930 . S
C1366 C1367 1.399 . S
C1366 C1371 1.399 . S
C1367 C1366 1.399 . S
C1367 C1368 1.376 . S
C1368 H1355 0.930 . S
C1368 C1367 1.376 . S
C1368 C1369 1.388 . S
C1369 H1356 0.930 . S
C1369 C1368 1.388 . S
C1369 C1370 1.390 . S
C1370 C1369 1.390 . S
C1370 C1371 1.394 . S
C1370 C1376 1.465 . S
C1371 C1366 1.399 . S
C1371 C1370 1.394 . S
C1371 C1372 1.516 . S
C1372 C1371 1.516 . S
C1372 C1373 1.502 . S
C1372 C1374 1.561 . S
C1372 C1375 1.526 . S
C1373 H1357 0.959 . S
C1373 H1358 0.959 . S
C1373 H1359 0.961 . S
C1373 C1372 1.502 . S
C1374 H1360 0.960 . S
C1374 H1361 0.961 . S
C1374 H1362 0.959 . S
C1374 C1372 1.561 . S
C1375 C1372 1.526 . S
C1375 C1376 1.396 . S
C1375 C1380 1.390 . S
C1376 C1370 1.465 . S
C1376 C1375 1.396 . S
C1376 C1377 1.399 . S
C1377 H1363 0.929 . S
C1377 C1376 1.399 . S
C1377 C1378 1.385 . S
C1378 H1364 0.931 . S
C1378 C1377 1.385 . S
C1378 C1379 1.389 . S
C1379 C1378 1.389 . S
C1379 C1380 1.387 . S
C1380 H1365 0.930 . S
C1380 C1375 1.390 . S
C1380 C1379 1.387 . S
H1381 C1393 0.930 . S
H1382 C1395 0.930 . S
H1383 C1396 0.930 . S
H1384 C1400 0.959 . S
H1385 C1400 0.959 . S
H1386 C1400 0.961 . S
H1387 C1401 0.960 . S
H1388 C1401 0.961 . S
H1389 C1401 0.959 . S
H1390 C1404 0.929 . S
H1391 C1405 0.931 . S
H1392 C1407 0.930 . S
C1393 H1381 0.930 . S
C1393 C1394 1.399 . S
C1393 C1398 1.399 . S
C1394 C1393 1.399 . S
C1394 C1395 1.376 . S
C1395 H1382 0.930 . S
C1395 C1394 1.376 . S
C1395 C1396 1.388 . S
C1396 H1383 0.930 . S
C1396 C1395 1.388 . S
C1396 C1397 1.390 . S
C1397 C1396 1.390 . S
C1397 C1398 1.394 . S
C1397 C1403 1.465 . S
C1398 C1393 1.399 . S
C1398 C1397 1.394 . S
C1398 C1399 1.516 . S
C1399 C1398 1.516 . S
C1399 C1400 1.502 . S
C1399 C1401 1.561 . S
C1399 C1402 1.526 . S
C1400 H1384 0.959 . S
C1400 H1385 0.959 . S
C1400 H1386 0.961 . S
C1400 C1399 1.502 . S
C1401 H1387 0.960 . S
C1401 H1388 0.961 . S
C1401 H1389 0.959 . S
C1401 C1399 1.561 . S
C1402 C1399 1.526 . S
C1402 C1403 1.396 . S
C1402 C1407 1.390 . S
C1403 C1397 1.465 . S
C1403 C1402 1.396 . S
C1403 C1404 1.399 . S
C1404 H1390 0.929 . S
C1404 C1403 1.399 . S
C1404 C1405 1.385 . S
C1405 H1391 0.931 . S
C1405 C1404 1.385 . S
C1405 C1406 1.389 . S
C1406 C1405 1.389 . S
C1406 C1407 1.387 . S
C1407 H1392 0.930 . S
C1407 C1402 1.390 . S
C1407 C1406 1.387 . S
H1408 C1420 0.930 . S
H1409 C1422 0.930 . S
H1410 C1423 0.930 . S
H1411 C1427 0.959 . S
H1412 C1427 0.959 . S
H1413 C1427 0.961 . S
H1414 C1428 0.960 . S
H1415 C1428 0.961 . S
H1416 C1428 0.959 . S
H1417 C1431 0.929 . S
H1418 C1432 0.931 . S
H1419 C1434 0.930 . S
C1420 H1408 0.930 . S
C1420 C1421 1.399 . S
C1420 C1425 1.399 . S
C1421 C1420 1.399 . S
C1421 C1422 1.376 . S
C1422 H1409 0.930 . S
C1422 C1421 1.376 . S
C1422 C1423 1.388 . S
C1423 H1410 0.930 . S
C1423 C1422 1.388 . S
C1423 C1424 1.390 . S
C1424 C1423 1.390 . S
C1424 C1425 1.394 . S
C1424 C1430 1.465 . S
C1425 C1420 1.399 . S
C1425 C1424 1.394 . S
C1425 C1426 1.516 . S
C1426 C1425 1.516 . S
C1426 C1427 1.502 . S
C1426 C1428 1.561 . S
C1426 C1429 1.526 . S
C1427 H1411 0.959 . S
C1427 H1412 0.959 . S
C1427 H1413 0.961 . S
C1427 C1426 1.502 . S
C1428 H1414 0.960 . S
C1428 H1415 0.961 . S
C1428 H1416 0.959 . S
C1428 C1426 1.561 . S
C1429 C1426 1.526 . S
C1429 C1430 1.396 . S
C1429 C1434 1.390 . S
C1430 C1424 1.465 . S
C1430 C1429 1.396 . S
C1430 C1431 1.399 . S
C1431 H1417 0.929 . S
C1431 C1430 1.399 . S
C1431 C1432 1.385 . S
C1432 H1418 0.931 . S
C1432 C1431 1.385 . S
C1432 C1433 1.389 . S
C1433 C1432 1.389 . S
C1433 C1434 1.387 . S
C1434 H1419 0.930 . S
C1434 C1429 1.390 . S
C1434 C1433 1.387 . S
H1435 C1447 0.930 . S
H1436 C1449 0.930 . S
H1437 C1450 0.930 . S
H1438 C1454 0.959 . S
H1439 C1454 0.959 . S
H1440 C1454 0.961 . S
H1441 C1455 0.960 . S
H1442 C1455 0.961 . S
H1443 C1455 0.959 . S
H1444 C1458 0.929 . S
H1445 C1459 0.931 . S
H1446 C1461 0.930 . S
C1447 H1435 0.930 . S
C1447 C1448 1.399 . S
C1447 C1452 1.399 . S
C1448 C1447 1.399 . S
C1448 C1449 1.376 . S
C1449 H1436 0.930 . S
C1449 C1448 1.376 . S
C1449 C1450 1.388 . S
C1450 H1437 0.930 . S
C1450 C1449 1.388 . S
C1450 C1451 1.390 . S
C1451 C1450 1.390 . S
C1451 C1452 1.394 . S
C1451 C1457 1.465 . S
C1452 C1447 1.399 . S
C1452 C1451 1.394 . S
C1452 C1453 1.516 . S
C1453 C1452 1.516 . S
C1453 C1454 1.502 . S
C1453 C1455 1.561 . S
C1453 C1456 1.526 . S
C1454 H1438 0.959 . S
C1454 H1439 0.959 . S
C1454 H1440 0.961 . S
C1454 C1453 1.502 . S
C1455 H1441 0.960 . S
C1455 H1442 0.961 . S
C1455 H1443 0.959 . S
C1455 C1453 1.561 . S
C1456 C1453 1.526 . S
C1456 C1457 1.396 . S
C1456 C1461 1.390 . S
C1457 C1451 1.465 . S
C1457 C1456 1.396 . S
C1457 C1458 1.399 . S
C1458 H1444 0.929 . S
C1458 C1457 1.399 . S
C1458 C1459 1.385 . S
C1459 H1445 0.931 . S
C1459 C1458 1.385 . S
C1459 C1460 1.389 . S
C1460 C1459 1.389 . S
C1460 C1461 1.387 . S
C1461 H1446 0.930 . S
C1461 C1456 1.390 . S
C1461 C1460 1.387 . S
H1462 C1474 0.930 . S
H1463 C1476 0.930 . S
H1464 C1477 0.930 . S
H1465 C1481 0.959 . S
H1466 C1481 0.959 . S
H1467 C1481 0.961 . S
H1468 C1482 0.960 . S
H1469 C1482 0.961 . S
H1470 C1482 0.959 . S
H1471 C1485 0.929 . S
H1472 C1486 0.931 . S
H1473 C1488 0.930 . S
C1474 H1462 0.930 . S
C1474 C1475 1.399 . S
C1474 C1479 1.399 . S
C1475 C1474 1.399 . S
C1475 C1476 1.376 . S
C1476 H1463 0.930 . S
C1476 C1475 1.376 . S
C1476 C1477 1.388 . S
C1477 H1464 0.930 . S
C1477 C1476 1.388 . S
C1477 C1478 1.390 . S
C1478 C1477 1.390 . S
C1478 C1479 1.394 . S
C1478 C1484 1.465 . S
C1479 C1474 1.399 . S
C1479 C1478 1.394 . S
C1479 C1480 1.516 . S
C1480 C1479 1.516 . S
C1480 C1481 1.502 . S
C1480 C1482 1.561 . S
C1480 C1483 1.526 . S
C1481 H1465 0.959 . S
C1481 H1466 0.959 . S
C1481 H1467 0.961 . S
C1481 C1480 1.502 . S
C1482 H1468 0.960 . S
C1482 H1469 0.961 . S
C1482 H1470 0.959 . S
C1482 C1480 1.561 . S
C1483 C1480 1.526 . S
C1483 C1484 1.396 . S
C1483 C1488 1.390 . S
C1484 C1478 1.465 . S
C1484 C1483 1.396 . S
C1484 C1485 1.399 . S
C1485 H1471 0.929 . S
C1485 C1484 1.399 . S
C1485 C1486 1.385 . S
C1486 H1472 0.931 . S
C1486 C1485 1.385 . S
C1486 C1487 1.389 . S
C1487 C1486 1.389 . S
C1487 C1488 1.387 . S
C1488 H1473 0.930 . S
C1488 C1483 1.390 . S
C1488 C1487 1.387 . S
H1489 C1501 0.930 . S
H1490 C1503 0.930 . S
H1491 C1504 0.930 . S
H1492 C1508 0.959 . S
H1493 C1508 0.959 . S
H1494 C1508 0.961 . S
H1495 C1509 0.960 . S
H1496 C1509 0.961 . S
H1497 C1509 0.959 . S
H1498 C1512 0.929 . S
H1499 C1513 0.931 . S
H1500 C1515 0.930 . S
C1501 H1489 0.930 . S
C1501 C1502 1.399 . S
C1501 C1506 1.399 . S
C1502 C1501 1.399 . S
C1502 C1503 1.376 . S
C1503 H1490 0.930 . S
C1503 C1502 1.376 . S
C1503 C1504 1.388 . S
C1504 H1491 0.930 . S
C1504 C1503 1.388 . S
C1504 C1505 1.390 . S
C1505 C1504 1.390 . S
C1505 C1506 1.394 . S
C1505 C1511 1.465 . S
C1506 C1501 1.399 . S
C1506 C1505 1.394 . S
C1506 C1507 1.516 . S
C1507 C1506 1.516 . S
C1507 C1508 1.502 . S
C1507 C1509 1.561 . S
C1507 C1510 1.526 . S
C1508 H1492 0.959 . S
C1508 H1493 0.959 . S
C1508 H1494 0.961 . S
C1508 C1507 1.502 . S
C1509 H1495 0.960 . S
C1509 H1496 0.961 . S
C1509 H1497 0.959 . S
C1509 C1507 1.561 . S
C1510 C1507 1.526 . S
C1510 C1511 1.396 . S
C1510 C1515 1.390 . S
C1511 C1505 1.465 . S
C1511 C1510 1.396 . S
C1511 C1512 1.399 . S
C1512 H1498 0.929 . S
C1512 C1511 1.399 . S
C1512 C1513 1.385 . S
C1513 H1499 0.931 . S
C1513 C1512 1.385 . S
C1513 C1514 1.389 . S
C1514 C1513 1.389 . S
C1514 C1515 1.387 . S
C1515 H1500 0.930 . S
C1515 C1510 1.390 . S
C1515 C1514 1.387 . S
H1516 C1528 0.930 . S
H1517 C1530 0.930 . S
H1518 C1531 0.930 . S
H1519 C1535 0.959 . S
H1520 C1535 0.959 . S
H1521 C1535 0.961 . S
H1522 C1536 0.960 . S
H1523 C1536 0.961 . S
H1524 C1536 0.959 . S
H1525 C1539 0.929 . S
H1526 C1540 0.931 . S
H1527 C1542 0.930 . S
C1528 H1516 0.930 . S
C1528 C1529 1.399 . S
C1528 C1533 1.399 . S
C1529 C1528 1.399 . S
C1529 C1530 1.376 . S
C1530 H1517 0.930 . S
C1530 C1529 1.376 . S
C1530 C1531 1.388 . S
C1531 H1518 0.930 . S
C1531 C1530 1.388 . S
C1531 C1532 1.390 . S
C1532 C1531 1.390 . S
C1532 C1533 1.394 . S
C1532 C1538 1.465 . S
C1533 C1528 1.399 . S
C1533 C1532 1.394 . S
C1533 C1534 1.516 . S
C1534 C1533 1.516 . S
C1534 C1535 1.502 . S
C1534 C1536 1.561 . S
C1534 C1537 1.526 . S
C1535 H1519 0.959 . S
C1535 H1520 0.959 . S
C1535 H1521 0.961 . S
C1535 C1534 1.502 . S
C1536 H1522 0.960 . S
C1536 H1523 0.961 . S
C1536 H1524 0.959 . S
C1536 C1534 1.561 . S
C1537 C1534 1.526 . S
C1537 C1538 1.396 . S
C1537 C1542 1.390 . S
C1538 C1532 1.465 . S
C1538 C1537 1.396 . S
C1538 C1539 1.399 . S
C1539 H1525 0.929 . S
C1539 C1538 1.399 . S
C1539 C1540 1.385 . S
C1540 H1526 0.931 . S
C1540 C1539 1.385 . S
C1540 C1541 1.389 . S
C1541 C1540 1.389 . S
C1541 C1542 1.387 . S
C1542 H1527 0.930 . S
C1542 C1537 1.390 . S
C1542 C1541 1.387 . S
H1543 C1555 0.930 . S
H1544 C1557 0.930 . S
H1545 C1558 0.930 . S
H1546 C1562 0.959 . S
H1547 C1562 0.959 . S
H1548 C1562 0.961 . S
H1549 C1563 0.960 . S
H1550 C1563 0.961 . S
H1551 C1563 0.959 . S
H1552 C1566 0.929 . S
H1553 C1567 0.931 . S
H1554 C1569 0.930 . S
C1555 H1543 0.930 . S
C1555 C1556 1.399 . S
C1555 C1560 1.399 . S
C1556 C1555 1.399 . S
C1556 C1557 1.376 . S
C1557 H1544 0.930 . S
C1557 C1556 1.376 . S
C1557 C1558 1.388 . S
C1558 H1545 0.930 . S
C1558 C1557 1.388 . S
C1558 C1559 1.390 . S
C1559 C1558 1.390 . S
C1559 C1560 1.394 . S
C1559 C1565 1.465 . S
C1560 C1555 1.399 . S
C1560 C1559 1.394 . S
C1560 C1561 1.516 . S
C1561 C1560 1.516 . S
C1561 C1562 1.502 . S
C1561 C1563 1.561 . S
C1561 C1564 1.526 . S
C1562 H1546 0.959 . S
C1562 H1547 0.959 . S
C1562 H1548 0.961 . S
C1562 C1561 1.502 . S
C1563 H1549 0.960 . S
C1563 H1550 0.961 . S
C1563 H1551 0.959 . S
C1563 C1561 1.561 . S
C1564 C1561 1.526 . S
C1564 C1565 1.396 . S
C1564 C1569 1.390 . S
C1565 C1559 1.465 . S
C1565 C1564 1.396 . S
C1565 C1566 1.399 . S
C1566 H1552 0.929 . S
C1566 C1565 1.399 . S
C1566 C1567 1.385 . S
C1567 H1553 0.931 . S
C1567 C1566 1.385 . S
C1567 C1568 1.389 . S
C1568 C1567 1.389 . S
C1568 C1569 1.387 . S
C1569 H1554 0.930 . S
C1569 C1564 1.390 . S
C1569 C1568 1.387 . S
H1570 C1582 0.930 . S
H1571 C1584 0.930 . S
H1572 C1585 0.930 . S
H1573 C1589 0.959 . S
H1574 C1589 0.959 . S
H1575 C1589 0.961 . S
H1576 C1590 0.960 . S
H1577 C1590 0.961 . S
H1578 C1590 0.959 . S
H1579 C1593 0.929 . S
H1580 C1594 0.931 . S
H1581 C1596 0.930 . S
C1582 H1570 0.930 . S
C1582 C1583 1.399 . S
C1582 C1587 1.399 . S
C1583 C1582 1.399 . S
C1583 C1584 1.376 . S
C1584 H1571 0.930 . S
C1584 C1583 1.376 . S
C1584 C1585 1.388 . S
C1585 H1572 0.930 . S
C1585 C1584 1.388 . S
C1585 C1586 1.390 . S
C1586 C1585 1.390 . S
C1586 C1587 1.394 . S
C1586 C1592 1.465 . S
C1587 C1582 1.399 . S
C1587 C1586 1.394 . S
C1587 C1588 1.516 . S
C1588 C1587 1.516 . S
C1588 C1589 1.502 . S
C1588 C1590 1.561 . S
C1588 C1591 1.526 . S
C1589 H1573 0.959 . S
C1589 H1574 0.959 . S
C1589 H1575 0.961 . S
C1589 C1588 1.502 . S
C1590 H1576 0.960 . S
C1590 H1577 0.961 . S
C1590 H1578 0.959 . S
C1590 C1588 1.561 . S
C1591 C1588 1.526 . S
C1591 C1592 1.396 . S
C1591 C1596 1.390 . S
C1592 C1586 1.465 . S
C1592 C1591 1.396 . S
C1592 C1593 1.399 . S
C1593 H1579 0.929 . S
C1593 C1592 1.399 . S
C1593 C1594 1.385 . S
C1594 H1580 0.931 . S
C1594 C1593 1.385 . S
C1594 C1595 1.389 . S
C1595 C1594 1.389 . S
C1595 C1596 1.387 . S
C1596 H1581 0.930 . S
C1596 C1591 1.390 . S
C1596 C1595 1.387 . S
H1597 C1609 0.930 . S
H1598 C1611 0.930 . S
H1599 C1612 0.930 . S
H1600 C1616 0.959 . S
H1601 C1616 0.959 . S
H1602 C1616 0.961 . S
H1603 C1617 0.960 . S
H1604 C1617 0.961 . S
H1605 C1617 0.959 . S
H1606 C1620 0.929 . S
H1607 C1621 0.931 . S
H1608 C1623 0.930 . S
C1609 H1597 0.930 . S
C1609 C1610 1.399 . S
C1609 C1614 1.399 . S
C1610 C1609 1.399 . S
C1610 C1611 1.376 . S
C1611 H1598 0.930 . S
C1611 C1610 1.376 . S
C1611 C1612 1.388 . S
C1612 H1599 0.930 . S
C1612 C1611 1.388 . S
C1612 C1613 1.390 . S
C1613 C1612 1.390 . S
C1613 C1614 1.394 . S
C1613 C1619 1.465 . S
C1614 C1609 1.399 . S
C1614 C1613 1.394 . S
C1614 C1615 1.516 . S
C1615 C1614 1.516 . S
C1615 C1616 1.502 . S
C1615 C1617 1.561 . S
C1615 C1618 1.526 . S
C1616 H1600 0.959 . S
C1616 H1601 0.959 . S
C1616 H1602 0.961 . S
C1616 C1615 1.502 . S
C1617 H1603 0.960 . S
C1617 H1604 0.961 . S
C1617 H1605 0.959 . S
C1617 C1615 1.561 . S
C1618 C1615 1.526 . S
C1618 C1619 1.396 . S
C1618 C1623 1.390 . S
C1619 C1613 1.465 . S
C1619 C1618 1.396 . S
C1619 C1620 1.399 . S
C1620 H1606 0.929 . S
C1620 C1619 1.399 . S
C1620 C1621 1.385 . S
C1621 H1607 0.931 . S
C1621 C1620 1.385 . S
C1621 C1622 1.389 . S
C1622 C1621 1.389 . S
C1622 C1623 1.387 . S
C1623 H1608 0.930 . S
C1623 C1618 1.390 . S
C1623 C1622 1.387 . S
C557 C5 0.698 . S
C569 C277 0.804 . S
C584 C311 0.765 . S
C596 C39 0.749 . S
C611 C73 0.677 . S
C623 C345 0.813 . S
C638 C107 0.787 . S
C650 C379 0.724 . S
C665 C141 0.715 . S
C677 C413 0.793 . S
C692 C447 0.674 . S
C704 C175 0.804 . S
C719 C481 0.698 . S
C731 C209 0.774 . S
C746 C243 0.755 . S
C758 C515 0.759 . S
C773 C9 1.233 . S
C785 C145 1.255 . S
C800 C43 1.299 . S
C812 C179 1.311 . S
C827 C77 1.305 . S
C839 C213 1.286 . S
C854 C111 1.230 . S
C866 C247 1.221 . S
C881 C417 1.242 . S
C893 C281 1.247 . S
C908 C451 1.304 . S
C920 C315 1.306 . S
C935 C485 1.236 . S
C947 C349 1.241 . S
C962 C383 1.230 . S
C974 C519 1.228 . S
C989 C2 2.083 . S
C1001 C240 2.078 . S
C1016 C138 2.082 . S
C1028 C36 2.076 . S
C1043 C172 2.097 . S
C1055 C70 2.092 . S
C1070 C104 2.076 . S
C1082 C206 2.070 . S
C1097 C512 2.076 . S
C1109 C274 2.064 . S
C1124 C410 2.052 . S
C1136 C308 2.061 . S
C1151 C342 2.058 . S
C1163 C444 2.052 . S
C1178 C376 2.050 . S
C1190 C478 2.057 . S
C1205 C543 1.348 . S
C1217 C20 1.272 . S
C1232 C54 1.336 . S
C1244 C441 1.377 . S
C1259 C88 1.264 . S
C1271 C475 1.341 . S
C1286 C509 1.344 . S
C1298 C122 1.267 . S
C1313 C156 1.343 . S
C1325 C339 1.367 . S
C1340 C190 1.283 . S
C1352 C373 1.356 . S
C1367 C407 1.368 . S
C1379 C224 1.311 . S
C1394 C258 1.311 . S
C1406 C305 1.352 . S
C1421 C292 1.289 . S
C1433 C271 1.371 . S
C1448 C169 1.374 . S
C1460 C326 1.297 . S
C1475 C360 1.349 . S
C1487 C203 1.379 . S
C1502 C237 1.381 . S
C1514 C394 1.341 . S
C1529 C428 1.300 . S
C1541 C67 1.341 . S
C1556 C101 1.349 . S
C1568 C462 1.265 . S
C1583 C135 1.354 . S
C1595 C496 1.343 . S
C1610 C33 1.348 . S
C1622 C530 1.265 . S
