# Generated by pormake.
# Topology sml, (6)-cn, num edge types: 1
# Building blocks:
#     Node 0, Type 0, BuildingBlock: OJICUG_clean_sbu_0, # of connection points: 6
#     Node 1, Type 0, BuildingBlock: OJICUG_clean_sbu_0, # of connection points: 6
#     Node 2, Type 0, BuildingBlock: OJICUG_clean_sbu_0, # of connection points: 6
#     Node 3, Type 0, BuildingBlock: OJICUG_clean_sbu_0, # of connection points: 6
#     Node 4, Type 0, BuildingBlock: OJICUG_clean_sbu_0, # of connection points: 6
#     Node 5, Type 0, BuildingBlock: OJICUG_clean_sbu_0, # of connection points: 6
#     Edge 6, Type (0, 0), BuildingBlock: FUNLAD_clean_linker_1, # of connection points: 2
#     Edge 7, Type (0, 0), BuildingBlock: FUNLAD_clean_linker_1, # of connection points: 2
#     Edge 8, Type (0, 0), BuildingBlock: FUNLAD_clean_linker_1, # of connection points: 2
#     Edge 9, Type (0, 0), BuildingBlock: FUNLAD_clean_linker_1, # of connection points: 2
#     Edge 10, Type (0, 0), BuildingBlock: FUNLAD_clean_linker_1, # of connection points: 2
#     Edge 11, Type (0, 0), BuildingBlock: FUNLAD_clean_linker_1, # of connection points: 2
#     Edge 12, Type (0, 0), BuildingBlock: FUNLAD_clean_linker_1, # of connection points: 2
#     Edge 13, Type (0, 0), BuildingBlock: FUNLAD_clean_linker_1, # of connection points: 2
#     Edge 14, Type (0, 0), BuildingBlock: FUNLAD_clean_linker_1, # of connection points: 2
#     Edge 15, Type (0, 0), BuildingBlock: FUNLAD_clean_linker_1, # of connection points: 2
#     Edge 16, Type (0, 0), BuildingBlock: FUNLAD_clean_linker_1, # of connection points: 2
#     Edge 17, Type (0, 0), BuildingBlock: FUNLAD_clean_linker_1, # of connection points: 2
#     Edge 18, Type (0, 0), BuildingBlock: FUNLAD_clean_linker_1, # of connection points: 2
#     Edge 19, Type (0, 0), BuildingBlock: FUNLAD_clean_linker_1, # of connection points: 2
#     Edge 20, Type (0, 0), BuildingBlock: FUNLAD_clean_linker_1, # of connection points: 2
#     Edge 21, Type (0, 0), BuildingBlock: FUNLAD_clean_linker_1, # of connection points: 2
#     Edge 22, Type (0, 0), BuildingBlock: FUNLAD_clean_linker_1, # of connection points: 2
#     Edge 23, Type (0, 0), BuildingBlock: FUNLAD_clean_linker_1, # of connection points: 2
# Relax obj value: 0.230
# Max RMSD: 0.261
# Mean RMSD: 0.261
data_MOF--net-sml--node1-OJICUG_clean_sbu_0--edge1-FUNLAD_clean_linker_1
_symmetry_space_group_name_H-M    P1
_symmetry_Int_Tables_number       1
_symmetry_cell_setting            triclinic
loop_
_symmetry_equiv_pos_as_xyz
'x, y, z'
_cell_length_a     43.420564
_cell_length_b     43.42236
_cell_length_c     15.948045
_cell_angle_alpha  90.037575
_cell_angle_beta   89.918871
_cell_angle_gamma 120.13275
loop_
_atom_site_label
_atom_site_type_symbol
_atom_site_fract_x
_atom_site_fract_y
_atom_site_fract_z
_atom_type_partial_charge
Sc0 Sc 0.18138 0.367 -0.00147 0.0
Sc1 Sc 0.25553 0.44814 0.06266 0.0
Sc2 Sc 0.18639 0.44808 0.94659 0.0
O3 O 0.20788 0.42115 0.00244 0.0
C4 C 0.16729 0.38546 0.81458 0.0
C5 C 0.26232 0.38668 0.97219 0.0
C6 C 0.26791 0.49733 0.90163 0.0
C7 C 0.21056 0.38292 0.18673 0.0
C8 C 0.11869 0.38382 0.03249 0.0
C9 C 0.22239 0.49614 0.10923 0.0
O10 O 0.17283 0.36576 0.86405 0.0
O11 O 0.2761 0.41768 0.00338 0.0
O12 O 0.23526 0.48389 0.88195 0.0
O13 O 0.18718 0.36324 0.13306 0.0
O14 O 0.13596 0.41605 0.00848 0.0
O15 O 0.24163 0.48283 0.12842 0.0
O16 O 0.13086 0.36267 0.02734 0.0
O17 O 0.23733 0.41295 0.16884 0.0
O18 O 0.20178 0.48607 0.04616 0.0
O19 O 0.22893 0.36525 0.96895 0.0
O20 O 0.16904 0.41427 0.83766 0.0
O21 O 0.27848 0.48697 0.96428 0.0
Sc22 Sc 0.73229 0.18679 0.29298 0.0
Sc23 Sc 0.81031 0.24582 0.39887 0.0
Sc24 Sc 0.79787 0.1636 0.33054 0.0
O25 O 0.7802 0.19868 0.3404 0.0
C26 C 0.7157 0.11174 0.36747 0.0
C27 C 0.73128 0.22767 0.4509 0.0
C28 C 0.81587 0.19137 0.51992 0.0
C29 C 0.78193 0.27025 0.25037 0.0
C30 C 0.76414 0.16026 0.14986 0.0
C31 C 0.87011 0.23536 0.30668 0.0
O32 O 0.70577 0.13189 0.33414 0.0
O33 O 0.76493 0.24794 0.45018 0.0
O34 O 0.81522 0.17144 0.4604 0.0
O35 O 0.75222 0.24107 0.24983 0.0
O36 O 0.78272 0.15317 0.19957 0.0
O37 O 0.86063 0.25302 0.35297 0.0
O38 O 0.74537 0.17355 0.17375 0.0
O39 O 0.80887 0.27467 0.29158 0.0
O40 O 0.84937 0.20312 0.28725 0.0
O41 O 0.71561 0.19932 0.40778 0.0
O42 O 0.74815 0.12018 0.37332 0.0
O43 O 0.81207 0.21835 0.50906 0.0
Sc44 Sc 0.63547 0.81319 0.70213 0.0
Sc45 Sc 0.5533 0.80648 0.75432 0.0
Sc46 Sc 0.55595 0.74529 0.61334 0.0
O47 O 0.58149 0.78829 0.68998 0.0
C48 C 0.6253 0.79452 0.50712 0.0
C49 C 0.62132 0.87813 0.6889 0.0
C50 C 0.51077 0.78393 0.5828 0.0
C51 C 0.61185 0.81744 0.88859 0.0
C52 C 0.61419 0.73186 0.70228 0.0
C53 C 0.50297 0.72214 0.7686 0.0
O54 O 0.6444 0.81058 0.57024 0.0
O55 O 0.58962 0.86089 0.71711 0.0
O56 O 0.52105 0.76244 0.56027 0.0
O57 O 0.63426 0.8191 0.83515 0.0
O58 O 0.58657 0.72181 0.65758 0.0
O59 O 0.51275 0.75361 0.79363 0.0
O60 O 0.63408 0.76387 0.72594 0.0
O61 O 0.58133 0.81229 0.86919 0.0
O62 O 0.51711 0.71517 0.70727 0.0
O63 O 0.6412 0.86464 0.68011 0.0
O64 O 0.5924 0.77145 0.51225 0.0
O65 O 0.52151 0.80241 0.64912 0.0
Sc66 Sc 0.80632 0.55083 0.98294 0.0
Sc67 Sc 0.7307 0.53739 0.09664 0.0
Sc68 Sc 0.79732 0.624 0.0412 0.0
O69 O 0.77807 0.57061 0.04033 0.0
C70 C 0.86838 0.62043 0.06711 0.0
C71 C 0.77462 0.49951 0.14245 0.0
C72 C 0.76731 0.60218 0.22672 0.0
C73 C 0.72739 0.49252 0.93382 0.0
C74 C 0.81486 0.61152 0.85527 0.0
C75 C 0.71421 0.59366 0.01409 0.0
O76 O 0.85524 0.58804 0.04541 0.0
O77 O 0.7514 0.508 0.16151 0.0
O78 O 0.79087 0.6243 0.17637 0.0
O79 O 0.76038 0.51052 0.91585 0.0
O80 O 0.80487 0.62739 0.90627 0.0
O81 O 0.70385 0.56187 0.03625 0.0
O82 O 0.81916 0.58572 0.87638 0.0
O83 O 0.71367 0.49936 0.99647 0.0
O84 O 0.74633 0.61858 0.01777 0.0
O85 O 0.79577 0.51288 0.0806 0.0
O86 O 0.85119 0.63689 0.06363 0.0
O87 O 0.74293 0.57134 0.20467 0.0
Sc88 Sc 0.18882 0.82186 0.30228 0.0
Sc89 Sc 0.19616 0.75067 0.38527 0.0
Sc90 Sc 0.2611 0.81051 0.24405 0.0
O91 O 0.21535 0.79427 0.31042 0.0
C92 C 0.21512 0.82543 0.11397 0.0
C93 C 0.12542 0.74169 0.29899 0.0
C94 C 0.22344 0.72618 0.2276 0.0
C95 C 0.17944 0.80146 0.4956 0.0
C96 C 0.26999 0.88344 0.31456 0.0
C97 C 0.27982 0.78572 0.41441 0.0
O98 O 0.19539 0.8282 0.16865 0.0
O99 O 0.14264 0.72972 0.3384 0.0
O100 O 0.24576 0.75734 0.20198 0.0
O101 O 0.17802 0.81914 0.43413 0.0
O102 O 0.28241 0.86523 0.28181 0.0
O103 O 0.24784 0.76587 0.43878 0.0
O104 O 0.2369 0.87148 0.32636 0.0
O105 O 0.18694 0.77684 0.48814 0.0
O106 O 0.28802 0.80386 0.34745 0.0
O107 O 0.13857 0.77434 0.27958 0.0
O108 O 0.23942 0.81849 0.13159 0.0
O109 O 0.20335 0.71996 0.29065 0.0
Sc110 Sc 0.4585 0.27206 0.57644 0.0
Sc111 Sc 0.4494 0.19658 0.67702 0.0
Sc112 Sc 0.37345 0.19911 0.61433 0.0
O113 O 0.42692 0.22236 0.62209 0.0
C114 C 0.39353 0.27859 0.64789 0.0
C115 C 0.49929 0.27749 0.73878 0.0
C116 C 0.38662 0.18223 0.80178 0.0
C117 C 0.5035 0.23331 0.53444 0.0
C118 C 0.40227 0.2342 0.43243 0.0
C119 C 0.38213 0.13221 0.58484 0.0
O120 O 0.42325 0.29204 0.61016 0.0
O121 O 0.49231 0.2453 0.73265 0.0
O122 O 0.36615 0.18202 0.74428 0.0
O123 O 0.50021 0.26086 0.53821 0.0
O124 O 0.37711 0.21423 0.48276 0.0
O125 O 0.41102 0.1446 0.62617 0.0
O126 O 0.43399 0.25574 0.45583 0.0
O127 O 0.48187 0.20407 0.56946 0.0
O128 O 0.36648 0.14965 0.57167 0.0
O129 O 0.48373 0.29009 0.69535 0.0
O130 O 0.37365 0.24546 0.65885 0.0
O131 O 0.41817 0.18847 0.78818 0.0
H132 H 0.38312 0.32347 0.64096 0.0
C133 C 0.38079 0.30195 0.68017 0.0
H134 H 0.36311 0.27364 0.7934 0.0
H135 H 0.33626 0.41327 0.82687 0.0
H136 H 0.39928 0.45168 0.79965 0.0
H137 H 0.43788 0.42629 0.77091 0.0
H138 H 0.41336 0.36239 0.76599 0.0
C139 C 0.36443 0.29503 0.75519 0.0
C140 C 0.34293 0.31119 0.78308 0.0
C141 C 0.35833 0.34859 0.79182 0.0
C142 C 0.33667 0.3632 0.81538 0.0
C143 C 0.35192 0.40069 0.8151 0.0
C144 C 0.38802 0.42308 0.79869 0.0
C145 C 0.4097 0.40879 0.78201 0.0
C146 C 0.39519 0.37201 0.77856 0.0
H147 H 0.31181 0.38416 0.96931 0.0
C148 C 0.28638 0.3751 0.93843 0.0
H149 H 0.25269 0.34642 0.83811 0.0
H150 H 0.3041 0.2382 0.76831 0.0
H151 H 0.2424 0.19991 0.80627 0.0
H152 H 0.20657 0.22499 0.86156 0.0
H153 H 0.23218 0.28855 0.87792 0.0
C154 C 0.27793 0.35477 0.86931 0.0
C155 C 0.30046 0.34026 0.83792 0.0
C156 C 0.2853 0.30284 0.83112 0.0
C157 C 0.30634 0.28833 0.80217 0.0
C158 C 0.28993 0.25086 0.79257 0.0
C159 C 0.25435 0.22843 0.81372 0.0
C160 C 0.23417 0.24254 0.84462 0.0
C161 C 0.24927 0.27922 0.85337 0.0
H162 H 0.0724 0.38864 0.07135 0.0
C163 C 0.08336 0.37096 0.07082 0.0
H164 H 0.07661 0.32161 0.11151 0.0
H165 H 0.97137 0.29708 0.4076 0.0
H166 H 0.02507 0.31023 0.48364 0.0
H167 H 0.08216 0.33179 0.40921 0.0
H168 H 0.08589 0.34027 0.25845 0.0
C169 C 0.06525 0.33889 0.10793 0.0
C170 C 0.03105 0.32736 0.15247 0.0
C171 C 0.02945 0.32302 0.24082 0.0
C172 C 0.99664 0.31089 0.28386 0.0
C173 C 0.99567 0.30635 0.37192 0.0
C174 C 0.02629 0.31382 0.41631 0.0
C175 C 0.05843 0.32595 0.37442 0.0
C176 C 0.06017 0.3306 0.28777 0.0
H177 H 0.91277 0.23677 0.22929 0.0
C178 C 0.90623 0.25271 0.27037 0.0
H179 H 0.92528 0.30371 0.32421 0.0
H180 H 0.02413 0.33015 0.98199 0.0
H181 H 0.97111 0.31923 0.90706 0.0
H182 H 0.91537 0.30227 0.98281 0.0
H183 H 0.91191 0.29514 0.13409 0.0
C184 C 0.93055 0.28716 0.28226 0.0
C185 C 0.96552 0.3031 0.23846 0.0
C186 C 0.96738 0.30854 0.15043 0.0
C187 C -0.0 0.31995 0.10712 0.0
C188 C 0.0005 0.32298 0.01861 0.0
C189 C 0.97016 0.31653 0.97464 0.0
C190 C 0.93869 0.3068 0.01729 0.0
C191 C 0.93709 0.3027 0.10408 0.0
H192 H 0.66035 0.06947 0.39574 0.0
C193 C 0.68827 0.07778 0.40475 0.0
H194 H 0.72504 0.0673 0.46642 0.0
H195 H 0.63291 0.97285 0.75985 0.0
H196 H 0.66501 0.02986 0.83177 0.0
H197 H 0.69907 0.08567 0.75181 0.0
H198 H 0.70244 0.08482 0.59975 0.0
C199 C 0.69721 0.05818 0.45325 0.0
C200 C 0.67043 0.02594 0.49885 0.0
C201 C 0.66882 0.02699 0.58755 0.0
C202 C 0.64866 0.99496 0.63359 0.0
C203 C 0.64792 0.99655 0.72214 0.0
C204 C 0.66605 0.02904 0.76402 0.0
C205 C 0.68526 0.06047 0.71898 0.0
C206 C 0.68706 0.05961 0.63181 0.0
H207 H 0.66391 0.93054 0.64603 0.0
C208 C 0.63552 0.91493 0.65921 0.0
H209 H 0.58571 0.91223 0.64499 0.0
H210 H 0.66503 0.01484 0.32869 0.0
H211 H 0.62826 0.95868 0.25745 0.0
H212 H 0.59129 0.90355 0.33774 0.0
H213 H 0.59119 0.90425 0.49006 0.0
C214 C 0.61444 0.92806 0.63775 0.0
C215 C 0.62982 0.96211 0.5907 0.0
C216 C 0.62852 0.96147 0.50192 0.0
C217 C 0.64929 0.99339 0.4557 0.0
C218 C 0.64915 0.99162 0.36703 0.0
C219 C 0.6282 0.95951 0.32529 0.0
C220 C 0.60741 0.92845 0.3705 0.0
C221 C 0.60766 0.9292 0.45781 0.0
H222 H 0.61101 0.67951 0.69497 0.0
C223 C 0.62321 0.70479 0.72819 0.0
H224 H 0.65749 0.73548 0.82637 0.0
H225 H 0.62236 0.57031 0.91126 0.0
H226 H 0.5606 0.55484 0.9265 0.0
H227 H 0.54207 0.59889 0.89603 0.0
H228 H 0.58492 0.65822 0.848 0.0
C229 C 0.64511 0.71025 0.79297 0.0
C230 C 0.65592 0.68392 0.81652 0.0
C231 C 0.6307 0.64991 0.84848 0.0
C232 C 0.64172 0.6252 0.87088 0.0
C233 C 0.61569 0.59063 0.89727 0.0
C234 C 0.58012 0.58133 0.90571 0.0
C235 C 0.56966 0.60607 0.8882 0.0
C236 C 0.59453 0.64 0.86003 0.0
H237 H 0.67298 0.60876 0.02216 0.0
C238 C 0.68865 0.60274 0.97907 0.0
H239 H 0.70818 0.60654 0.85685 0.0
H240 H 0.71057 0.74614 0.75304 0.0
H241 H 0.77277 0.76285 0.74548 0.0
H242 H 0.79284 0.72223 0.79613 0.0
H243 H 0.75086 0.66429 0.85183 0.0
C244 C 0.69105 0.61153 0.89768 0.0
C245 C 0.67825 0.63541 0.86643 0.0
C246 C 0.70351 0.66955 0.83504 0.0
C247 C 0.6922 0.69358 0.80893 0.0
C248 C 0.71778 0.72712 0.77566 0.0
C249 C 0.7536 0.73707 0.7707 0.0
C250 C 0.76487 0.71412 0.7988 0.0
C251 C 0.74032 0.68078 0.83056 0.0
H252 H 0.08096 0.68773 0.2719 0.0
C253 C 0.08899 0.71582 0.27154 0.0
H254 H 0.07382 0.75389 0.24473 0.0
H255 H 0.95757 0.66468 0.97523 0.0
H256 H 0.0007 0.71564 0.89482 0.0
H257 H 0.05783 0.75999 0.95761 0.0
H258 H 0.07284 0.75302 0.09984 0.0
C259 C 0.06587 0.72583 0.24574 0.0
C260 C 0.03046 0.69976 0.21019 0.0
C261 C 0.02237 0.70416 0.12637 0.0
C262 C 0.98904 0.67913 0.09074 0.0
C263 C 0.98202 0.68356 0.00621 0.0
C264 C 0.00664 0.71253 0.95912 0.0
C265 C 0.03886 0.73743 0.9944 0.0
C266 C 0.04702 0.73318 0.07649 0.0
H267 H 0.91535 0.6687 0.11365 0.0
C268 C 0.90526 0.64087 0.09772 0.0
H269 H 0.91735 0.59932 0.09416 0.0
H270 H 0.03482 0.68611 0.37676 0.0
H271 H 0.99104 0.63571 0.45697 0.0
H272 H 0.93439 0.59095 0.39263 0.0
H273 H 0.92112 0.59668 0.24765 0.0
C274 C 0.92679 0.62726 0.10669 0.0
C275 C 0.96348 0.65026 0.1395 0.0
C276 C 0.97161 0.64559 0.22282 0.0
C277 C 0.00482 0.67076 0.25895 0.0
C278 C 0.01093 0.66691 0.34455 0.0
C279 C 0.98578 0.63828 0.39177 0.0
C280 C 0.95385 0.61314 0.35564 0.0
C281 C 0.94659 0.61674 0.27235 0.0
H282 H 0.33743 0.085 0.52827 0.0
C283 C 0.3647 0.09591 0.55013 0.0
H284 H 0.40792 0.08666 0.56065 0.0
H285 H 0.30194 0.91859 0.5414 0.0
H286 H 0.32685 0.92533 0.68091 0.0
H287 H 0.36751 0.98496 0.7389 0.0
H288 H 0.38374 0.03821 0.65758 0.0
C289 C 0.38083 0.07676 0.53902 0.0
C290 C 0.36082 0.04087 0.49928 0.0
C291 C 0.35209 0.01007 0.54724 0.0
C292 C 0.3284 0.9757 0.51414 0.0
C293 C 0.31971 0.94534 0.56371 0.0
C294 C 0.33384 0.94883 0.64382 0.0
C295 C 0.35673 0.9824 0.67647 0.0
C296 C 0.36581 0.01276 0.62912 0.0
H297 H 0.32274 0.93243 0.31893 0.0
C298 C 0.29565 0.91976 0.34294 0.0
H299 H 0.26074 0.92331 0.42988 0.0
H300 H 0.37679 0.09399 0.38466 0.0
H301 H 0.3499 0.08698 0.24712 0.0
H302 H 0.30675 0.02768 0.1931 0.0
H303 H 0.28952 0.97477 0.27607 0.0
C304 C 0.28702 0.93648 0.40125 0.0
C305 C 0.31366 0.97223 0.4331 0.0
C306 C 0.32332 0.0029 0.38388 0.0
C307 C 0.34748 0.03723 0.41628 0.0
C308 C 0.35745 0.06735 0.36462 0.0
C309 C 0.34265 0.06375 0.28522 0.0
C310 C 0.31826 0.03029 0.25469 0.0
C311 C 0.30868 0.00012 0.303 0.0
H312 H 0.14856 0.38944 0.68934 0.0
C313 C 0.16054 0.37667 0.72453 0.0
H314 H 0.18651 0.34665 0.7154 0.0
H315 H 0.13544 0.29102 0.34465 0.0
H316 H 0.10478 0.23584 0.42364 0.0
H317 H 0.10511 0.23636 0.57833 0.0
H318 H 0.13631 0.29203 0.65522 0.0
C319 C 0.17391 0.35922 0.68208 0.0
C320 C 0.17398 0.35883 0.58816 0.0
C321 C 0.1554 0.32612 0.54402 0.0
C322 C 0.15491 0.32582 0.45457 0.0
C323 C 0.13652 0.29275 0.41237 0.0
C324 C 0.1188 0.2609 0.45695 0.0
C325 C 0.11899 0.26119 0.54408 0.0
C326 C 0.13702 0.29333 0.58744 0.0
H327 H 0.23031 0.38325 0.31345 0.0
C328 C 0.2062 0.37262 0.27594 0.0
H329 H 0.15008 0.34813 0.27981 0.0
H330 H 0.21814 0.42612 0.65044 0.0
H331 H 0.24416 0.48132 0.57233 0.0
H332 H 0.23521 0.48116 0.41956 0.0
H333 H 0.20151 0.42568 0.3439 0.0
C334 C 0.17456 0.35798 0.31547 0.0
C335 C 0.17273 0.35824 0.40922 0.0
C336 C 0.18983 0.39107 0.45352 0.0
C337 C 0.19214 0.39129 0.54252 0.0
C338 C 0.21312 0.42436 0.58377 0.0
C339 C 0.22861 0.45632 0.53952 0.0
C340 C 0.22378 0.45623 0.45351 0.0
C341 C 0.20468 0.4241 0.41071 0.0
H342 H 0.74892 0.16087 0.01899 0.0
C343 C 0.7668 0.15662 0.05878 0.0
H344 H 0.81302 0.15178 0.06065 0.0
H345 H 0.77792 0.11738 0.662 0.0
H346 H 0.75769 0.05761 0.71158 0.0
H347 H 0.75688 0.04516 0.86268 0.0
H348 H 0.77678 0.09287 0.96523 0.0
C349 C 0.79383 0.15474 0.02303 0.0
C350 C 0.8012 0.16296 0.93233 0.0
C351 C 0.79082 0.13521 0.87317 0.0
C352 C 0.79211 0.14265 0.78587 0.0
C353 C 0.77925 0.11387 0.72863 0.0
C354 C 0.76718 0.07922 0.75638 0.0
C355 C 0.76659 0.07217 0.84149 0.0
C356 C 0.778 0.09972 0.89958 0.0
H357 H 0.83492 0.16861 0.61752 0.0
C358 C 0.81947 0.18159 0.60622 0.0
H359 H 0.7861 0.19906 0.65682 0.0
H360 H 0.82813 0.22292 0.02989 0.0
H361 H 0.85064 0.28338 0.98137 0.0
H362 H 0.85438 0.29681 0.83018 0.0
H363 H 0.83465 0.24969 0.72684 0.0
C364 C 0.80185 0.18645 0.66934 0.0
C365 C 0.80488 0.17822 0.75844 0.0
C366 C 0.81757 0.20627 0.81789 0.0
C367 C 0.81577 0.19864 0.90486 0.0
C368 C 0.82828 0.22713 0.96299 0.0
C369 C 0.84159 0.26203 0.93598 0.0
C370 C 0.84361 0.26957 0.85092 0.0
C371 C 0.83198 0.24219 0.79228 0.0
H372 H 0.67054 0.82319 0.41984 0.0
C373 C 0.64218 0.80413 0.42396 0.0
H374 H 0.59477 0.77172 0.35687 0.0
H375 H 0.67608 0.88626 0.05694 0.0
H376 H 0.6803 0.93218 0.15193 0.0
H377 H 0.66495 0.91884 0.30158 0.0
H378 H 0.64475 0.85991 0.3569 0.0
C379 C 0.62297 0.79141 0.35375 0.0
C380 C 0.63892 0.80233 0.26929 0.0
C381 C 0.64987 0.83702 0.23864 0.0
C382 C 0.65796 0.84457 0.15227 0.0
C383 C 0.66898 0.87922 0.12207 0.0
C384 C 0.6716 0.90573 0.17581 0.0
C385 C 0.6629 0.8982 0.26004 0.0
C386 C 0.65169 0.86421 0.29124 0.0
H387 H 0.60115 0.81886 0.02259 0.0
C388 C 0.62067 0.81999 0.97793 0.0
H389 H 0.6695 0.8205 0.96325 0.0
H390 H 0.62551 0.73565 0.31191 0.0
H391 H 0.62435 0.69119 0.21706 0.0
H392 H 0.63707 0.70418 0.06619 0.0
H393 H 0.65123 0.76177 0.00947 0.0
C394 C 0.65027 0.82097 0.00615 0.0
C395 C 0.65392 0.81727 0.09716 0.0
C396 C 0.64679 0.78397 0.12916 0.0
C397 C 0.63916 0.77643 0.21565 0.0
C398 C 0.63111 0.74258 0.24626 0.0
C399 C 0.63047 0.7169 0.1926 0.0
C400 C 0.63766 0.72422 0.10768 0.0
C401 C 0.64565 0.75731 0.0759 0.0
H402 H 0.837 0.61455 0.72967 0.0
C403 C 0.81976 0.62113 0.76561 0.0
H404 H 0.78091 0.63673 0.75855 0.0
H405 H 0.81746 0.69739 0.38755 0.0
H406 H 0.83193 0.75073 0.467 0.0
H407 H 0.83195 0.75006 0.62174 0.0
H408 H 0.81732 0.69602 0.69802 0.0
C409 C 0.79899 0.63082 0.72429 0.0
C410 C 0.79828 0.63108 0.63048 0.0
C411 C 0.80769 0.66302 0.58661 0.0
C412 C 0.80823 0.66353 0.4972 0.0
C413 C 0.81695 0.69562 0.45527 0.0
C414 C 0.8253 0.72641 0.5001 0.0
C415 C 0.8253 0.72604 0.58724 0.0
C416 C 0.81675 0.69483 0.63028 0.0
H417 H 0.74453 0.59437 0.35313 0.0
C418 C 0.76859 0.6106 0.31678 0.0
H419 H 0.82358 0.64841 0.3236 0.0
H420 H 0.77044 0.56307 0.69235 0.0
H421 H 0.75936 0.51075 0.61397 0.0
H422 H 0.76986 0.51403 0.4613 0.0
H423 H 0.78991 0.56928 0.386 0.0
C424 C 0.79895 0.63224 0.35786 0.0
C425 C 0.79995 0.63226 0.45166 0.0
C426 C 0.79144 0.6005 0.49573 0.0
C427 C 0.78864 0.59941 0.58467 0.0
C428 C 0.77575 0.5662 0.62573 0.0
C429 C 0.76885 0.53578 0.58133 0.0
C430 C 0.77452 0.53756 0.49538 0.0
C431 C 0.78568 0.56944 0.45278 0.0
H432 H 0.16291 0.82931 0.58495 0.0
C433 C 0.17278 0.8108 0.57952 0.0
H434 H 0.18966 0.77949 0.64419 0.0
H435 H 0.21448 0.89322 0.94444 0.0
H436 H 0.25515 0.9403 0.85007 0.0
H437 H 0.2603 0.92717 0.70187 0.0
H438 H 0.22509 0.86744 0.64702 0.0
C439 C 0.18036 0.79848 0.64872 0.0
C440 C 0.17475 0.80838 0.73377 0.0
C441 C 0.19637 0.84364 0.76416 0.0
C442 C 0.19444 0.85106 0.85002 0.0
C443 C 0.21576 0.8863 0.87979 0.0
C444 C 0.23904 0.91346 0.82639 0.0
C445 C 0.2419 0.90606 0.74293 0.0
C446 C 0.22115 0.87158 0.71199 0.0
H447 H 0.22796 0.82855 0.98042 0.0
C448 C 0.20897 0.82858 0.02501 0.0
H449 H 0.15895 0.82558 0.03897 0.0
H450 H 0.12571 0.73964 0.69193 0.0
H451 H 0.08569 0.69307 0.78759 0.0
H452 H 0.08525 0.70546 0.93849 0.0
H453 H 0.12416 0.76476 0.99416 0.0
C454 C 0.17951 0.82771 0.99644 0.0
C455 C 0.17244 0.82309 0.90533 0.0
C456 C 0.14902 0.7886 0.87391 0.0
C457 C 0.14997 0.78128 0.78763 0.0
C458 C 0.12654 0.74647 0.75749 0.0
C459 C 0.10339 0.71953 0.81163 0.0
C460 C 0.10312 0.72652 0.89655 0.0
C461 C 0.12561 0.76061 0.92771 0.0
H462 H 0.4159 0.25147 0.30148 0.0
C463 C 0.39586 0.23077 0.34137 0.0
H464 H 0.35159 0.17848 0.34422 0.0
H465 H 0.3643 0.22868 0.9438 0.0
H466 H 0.33269 0.25819 0.9904 0.0
H467 H 0.31802 0.25825 0.13993 0.0
H468 H 0.33555 0.22906 0.24393 0.0
C469 C 0.37027 0.20077 0.3058 0.0
C470 C 0.37263 0.19473 0.21487 0.0
C471 C 0.36064 0.21019 0.15443 0.0
C472 C 0.36787 0.20885 0.06782 0.0
C473 C 0.35808 0.22715 0.00977 0.0
C474 C 0.34017 0.2446 0.03585 0.0
C475 C 0.33201 0.24473 0.12005 0.0
C476 C 0.34223 0.22793 0.17901 0.0
H477 H 0.34549 0.16527 0.90101 0.0
C478 C 0.37392 0.17765 0.88923 0.0
H479 H 0.42551 0.20461 0.94121 0.0
H480 H 0.39921 0.16235 0.31519 0.0
H481 H 0.43036 0.13206 0.26927 0.0
H482 H 0.43968 0.12637 0.11875 0.0
H483 H 0.41888 0.15189 0.01336 0.0
C484 C 0.39705 0.19191 0.9531 0.0
C485 C 0.38579 0.19059 0.04186 0.0
C486 C 0.39659 0.17401 0.10246 0.0
C487 C 0.39036 0.17642 0.18904 0.0
C488 C 0.40303 0.16115 0.24846 0.0
C489 C 0.42093 0.14362 0.22299 0.0
C490 C 0.42617 0.14042 0.13828 0.0
C491 C 0.41416 0.1553 0.07845 0.0
H492 H 0.24895 0.53943 0.20235 0.0
C493 C 0.22895 0.52879 0.15313 0.0
H494 H 0.19706 0.53891 0.07069 0.0
H495 H 0.24042 0.67167 0.33443 0.0
H496 H 0.21253 0.62776 0.44526 0.0
H497 H 0.19154 0.56425 0.41855 0.0
H498 H 0.19904 0.54443 0.28173 0.0
C499 C 0.21557 0.54857 0.12302 0.0
C500 C 0.23105 0.58673 0.14433 0.0
C501 C 0.22544 0.59737 0.22412 0.0
C502 C 0.236 0.63363 0.23839 0.0
C503 C 0.2315 0.64414 0.31945 0.0
C504 C 0.21579 0.61927 0.38368 0.0
C505 C 0.20409 0.58354 0.3687 0.0
C506 C 0.20867 0.57253 0.28988 0.0
H507 H 0.19716 0.67059 0.18707 0.0
C508 C 0.22274 0.69516 0.18965 0.0
H509 H 0.27873 0.71748 0.18697 0.0
H510 H 0.25241 0.5763 0.99013 0.0
H511 H 0.28346 0.62117 0.88299 0.0
H512 H 0.29967 0.6837 0.90683 0.0
H513 H 0.28494 0.70172 0.03845 0.0
C514 C 0.25271 0.69374 0.18005 0.0
C515 C 0.25036 0.65856 0.17166 0.0
C516 C 0.25922 0.64868 0.09494 0.0
C517 C 0.24957 0.61263 0.08115 0.0
C518 C 0.25855 0.60324 0.00352 0.0
C519 C 0.27649 0.62875 0.94159 0.0
C520 C 0.28568 0.66398 0.95508 0.0
C521 C 0.27705 0.67396 0.03066 0.0
H522 H 0.72283 0.26796 0.51543 0.0
C523 C 0.70937 0.24111 0.48993 0.0
H524 H 0.66054 0.19762 0.45057 0.0
H525 H 0.59338 0.28205 0.65656 0.0
H526 H 0.62334 0.2785 0.78172 0.0
H527 H 0.66625 0.25711 0.77332 0.0
H528 H 0.67985 0.23968 0.63985 0.0
C529 C 0.67382 0.22377 0.47981 0.0
C530 C 0.65257 0.24191 0.48646 0.0
C531 C 0.64483 0.25159 0.56524 0.0
C532 C 0.61939 0.26305 0.57042 0.0
C533 C 0.61207 0.27269 0.64958 0.0
C534 C 0.62912 0.27083 0.72172 0.0
C535 C 0.65335 0.25885 0.71695 0.0
C536 C 0.66103 0.24907 0.63986 0.0
H537 H 0.53486 0.21133 0.47989 0.0
C538 C 0.53603 0.23598 0.49879 0.0
H539 H 0.57001 0.28985 0.53199 0.0
H540 H 0.66767 0.23361 0.32381 0.0
H541 H 0.64021 0.24093 0.19862 0.0
H542 H 0.59426 0.25835 0.20907 0.0
H543 H 0.576 0.26921 0.34495 0.0
C544 C 0.56798 0.26572 0.50626 0.0
C545 C 0.60087 0.26338 0.49751 0.0
C546 C 0.61113 0.25705 0.41811 0.0
C547 C 0.63724 0.2466 0.41244 0.0
C548 C 0.64739 0.2409 0.33198 0.0
C549 C 0.63199 0.24519 0.25959 0.0
C550 C 0.60616 0.25505 0.26543 0.0
C551 C 0.59575 0.26096 0.34365 0.0
H552 H 0.28527 0.54 0.80635 0.0
C553 C 0.29428 0.52986 0.85734 0.0
H554 H 0.33602 0.54064 0.94142 0.0
H555 H 0.42993 0.66573 0.66391 0.0
H556 H 0.41193 0.61901 0.55954 0.0
H557 H 0.36705 0.55683 0.5933 0.0
H558 H 0.33931 0.54119 0.73062 0.0
C559 C 0.32754 0.54971 0.88732 0.0
C560 C 0.35154 0.58715 0.86126 0.0
C561 C 0.36809 0.59533 0.78144 0.0
C562 C 0.39521 0.63078 0.76336 0.0
C563 C 0.41034 0.63886 0.68199 0.0
C564 C 0.40004 0.61237 0.62139 0.0
C565 C 0.37469 0.5774 0.64032 0.0
C566 C 0.35887 0.56879 0.71939 0.0
H567 H 0.47138 0.6666 0.80913 0.0
C568 C 0.47153 0.6917 0.80565 0.0
H569 H 0.43977 0.71603 0.80794 0.0
H570 H 0.31985 0.58177 0.01348 0.0
H571 H 0.33556 0.6295 0.11368 0.0
H572 H 0.3843 0.69049 0.08377 0.0
H573 H 0.41754 0.70412 0.953 0.0
C574 C 0.44077 0.69165 0.81514 0.0
C575 C 0.40695 0.65733 0.82663 0.0
C576 C 0.38797 0.64997 0.90296 0.0
C577 C 0.36016 0.61477 0.92037 0.0
C578 C 0.34163 0.60795 0.99753 0.0
C579 C 0.35029 0.63513 0.05547 0.0
C580 C 0.37768 0.66948 0.03854 0.0
C581 C 0.39656 0.67694 0.96343 0.0
H582 H 0.81042 0.32526 0.20324 0.0
C583 C 0.78409 0.30231 0.21364 0.0
H584 H 0.72895 0.28444 0.2237 0.0
H585 H 0.81153 0.45774 0.3032 0.0
H586 H 0.82444 0.44028 0.43716 0.0
H587 H 0.80668 0.37763 0.46521 0.0
H588 H 0.77649 0.33222 0.35892 0.0
C589 C 0.75548 0.3065 0.21043 0.0
C590 C 0.76006 0.34252 0.19926 0.0
C591 C 0.77628 0.36841 0.26356 0.0
C592 C 0.78521 0.40422 0.24869 0.0
C593 C 0.80322 0.42995 0.31206 0.0
C594 C 0.81089 0.42031 0.38917 0.0
C595 C 0.80099 0.38506 0.40488 0.0
C596 C 0.78391 0.3593 0.34307 0.0
H597 H 0.75342 0.45572 0.23521 0.0
C598 C 0.7725 0.46823 0.18451 0.0
H599 H 0.80578 0.46254 0.09669 0.0
H600 H 0.72395 0.29792 0.0692 0.0
H601 H 0.70637 0.31414 0.93938 0.0
H602 H 0.72054 0.37597 0.91429 0.0
H603 H 0.75201 0.42185 0.01879 0.0
C604 C 0.78834 0.45129 0.15071 0.0
C605 C 0.77657 0.41361 0.17085 0.0
C606 C 0.75777 0.38705 0.1092 0.0
C607 C 0.74945 0.35141 0.1236 0.0
C608 C 0.73095 0.32543 0.06104 0.0
C609 C 0.7207 0.33437 0.98639 0.0
C610 C 0.72873 0.36919 0.97221 0.0
C611 C 0.74693 0.39531 0.03269 0.0
H612 H 0.30463 0.77609 0.52568 0.0
C613 C 0.30901 0.78563 0.46137 0.0
H614 H 0.34417 0.80412 0.35766 0.0
H615 H 0.49052 0.86433 0.53152 0.0
H616 H 0.49244 0.91874 0.48772 0.0
H617 H 0.43859 0.91755 0.43403 0.0
H618 H 0.3826 0.86194 0.4233 0.0
C619 C 0.34002 0.79497 0.42233 0.0
C620 C 0.37074 0.79546 0.46399 0.0
C621 C 0.40308 0.82834 0.47123 0.0
C622 C 0.43389 0.82914 0.50365 0.0
C623 C 0.4661 0.86225 0.50858 0.0
C624 C 0.46762 0.8937 0.48343 0.0
C625 C 0.43733 0.89301 0.45306 0.0
C626 C 0.40538 0.86084 0.44693 0.0
H627 H 0.47381 0.77105 0.47542 0.0
C628 C 0.48209 0.78476 0.53532 0.0
H629 H 0.47174 0.81265 0.62997 0.0
H630 H 0.31406 0.72727 0.44949 0.0
H631 H 0.31145 0.67336 0.49948 0.0
H632 H 0.36343 0.67553 0.56806 0.0
H633 H 0.41856 0.73148 0.5846 0.0
C634 C 0.46372 0.79895 0.57002 0.0
C635 C 0.43214 0.79717 0.52997 0.0
C636 C 0.39962 0.76432 0.52449 0.0
C637 C 0.36907 0.76332 0.48923 0.0
C638 C 0.33762 0.72989 0.47917 0.0
C639 C 0.33581 0.69863 0.50717 0.0
C640 C 0.3651 0.69983 0.54545 0.0
C641 C 0.39669 0.73219 0.55417 0.0
H642 H 0.71601 0.45334 0.83209 0.0
C643 C 0.70454 0.45996 0.88488 0.0
H644 H 0.66019 0.44265 0.96519 0.0
H645 H 0.57634 0.33334 0.65305 0.0
H646 H 0.59822 0.38484 0.56148 0.0
H647 H 0.6423 0.44475 0.6124 0.0
H648 H 0.66538 0.45336 0.75383 0.0
C649 C 0.671 0.43697 0.90963 0.0
C650 C 0.6487 0.40109 0.8721 0.0
C651 C 0.63491 0.39708 0.78977 0.0
C652 C 0.60816 0.36293 0.76177 0.0
C653 C 0.59564 0.35904 0.67832 0.0
C654 C 0.60813 0.3883 0.62506 0.0
C655 C 0.63303 0.42199 0.65365 0.0
C656 C 0.64623 0.42653 0.73509 0.0
H657 H 0.53149 0.32861 0.80213 0.0
C658 C 0.53009 0.30343 0.78781 0.0
H659 H 0.5594 0.27653 0.78161 0.0
H660 H 0.67496 0.39831 0.02617 0.0
H661 H 0.65545 0.34568 0.11281 0.0
H662 H 0.60753 0.28692 0.06494 0.0
H663 H 0.57877 0.28045 0.92997 0.0
C664 C 0.55951 0.30094 0.7971 0.0
C665 C 0.59387 0.33351 0.81763 0.0
C666 C 0.61036 0.33669 0.89588 0.0
C667 C 0.63783 0.37059 0.92336 0.0
C668 C 0.65362 0.37324 0.00268 0.0
C669 C 0.64276 0.34324 0.05285 0.0
C670 C 0.6158 0.31014 0.02586 0.0
C671 C 0.5995 0.30678 0.94851 0.0
loop_
_geom_bond_atom_site_label_1
_geom_bond_atom_site_label_2
_geom_bond_distance
_geom_bond_site_symmetry_2
_ccdc_geom_bond_type
Sc0 O3 2.025 . S
Sc0 O10 2.105 1_554 S
Sc0 O13 2.105 . S
Sc0 O16 2.105 . S
Sc0 O19 2.105 1_554 S
Sc1 O3 2.025 . S
Sc1 O11 2.105 . S
Sc1 O15 2.105 . S
Sc1 O17 2.105 . S
Sc1 O21 2.105 1_554 S
Sc2 O3 2.025 1_556 S
Sc2 O12 2.105 . S
Sc2 O14 2.105 . S
Sc2 O18 2.105 1_556 S
Sc2 O20 2.105 . S
O3 Sc0 2.025 . S
O3 Sc1 2.025 . S
O3 Sc2 2.025 1_554 S
C4 O10 1.268 . S
C4 O20 1.268 . S
C5 O11 1.268 1_556 S
C5 O19 1.268 . S
C6 O12 1.268 . S
C6 O21 1.268 . S
C7 O13 1.268 . S
C7 O17 1.268 . S
C8 O14 1.268 1_554 S
C8 O16 1.268 . S
C9 O15 1.268 . S
C9 O18 1.268 . S
O10 Sc0 2.105 1_556 S
O10 C4 1.268 . S
O11 Sc1 2.105 . S
O11 C5 1.268 1_554 S
O12 Sc2 2.105 . S
O12 C6 1.268 . S
O13 Sc0 2.105 . S
O13 C7 1.268 . S
O14 Sc2 2.105 . S
O14 C8 1.268 1_556 S
O15 Sc1 2.105 . S
O15 C9 1.268 . S
O16 Sc0 2.105 . S
O16 C8 1.268 . S
O17 Sc1 2.105 . S
O17 C7 1.268 . S
O18 Sc2 2.105 1_554 S
O18 C9 1.268 . S
O19 Sc0 2.105 1_556 S
O19 C5 1.268 . S
O20 Sc2 2.105 . S
O20 C4 1.268 . S
O21 Sc1 2.105 1_556 S
O21 C6 1.268 . S
Sc22 O25 2.025 . S
Sc22 O32 2.105 . S
Sc22 O35 2.105 . S
Sc22 O38 2.105 . S
Sc22 O41 2.105 . S
Sc23 O25 2.025 . S
Sc23 O33 2.105 . S
Sc23 O37 2.105 . S
Sc23 O39 2.105 . S
Sc23 O43 2.105 . S
Sc24 O25 2.025 . S
Sc24 O34 2.105 . S
Sc24 O36 2.105 . S
Sc24 O40 2.105 . S
Sc24 O42 2.105 . S
O25 Sc22 2.025 . S
O25 Sc23 2.025 . S
O25 Sc24 2.025 . S
C26 O32 1.268 . S
C26 O42 1.268 . S
C27 O33 1.268 . S
C27 O41 1.268 . S
C28 O34 1.268 . S
C28 O43 1.268 . S
C29 O35 1.268 . S
C29 O39 1.268 . S
C30 O36 1.268 . S
C30 O38 1.268 . S
C31 O37 1.268 . S
C31 O40 1.268 . S
O32 Sc22 2.105 . S
O32 C26 1.268 . S
O33 Sc23 2.105 . S
O33 C27 1.268 . S
O34 Sc24 2.105 . S
O34 C28 1.268 . S
O35 Sc22 2.105 . S
O35 C29 1.268 . S
O36 Sc24 2.105 . S
O36 C30 1.268 . S
O37 Sc23 2.105 . S
O37 C31 1.268 . S
O38 Sc22 2.105 . S
O38 C30 1.268 . S
O39 Sc23 2.105 . S
O39 C29 1.268 . S
O40 Sc24 2.105 . S
O40 C31 1.268 . S
O41 Sc22 2.105 . S
O41 C27 1.268 . S
O42 Sc24 2.105 . S
O42 C26 1.268 . S
O43 Sc23 2.105 . S
O43 C28 1.268 . S
Sc44 O47 2.025 . S
Sc44 O54 2.105 . S
Sc44 O57 2.105 . S
Sc44 O60 2.105 . S
Sc44 O63 2.105 . S
Sc45 O47 2.025 . S
Sc45 O55 2.105 . S
Sc45 O59 2.105 . S
Sc45 O61 2.105 . S
Sc45 O65 2.105 . S
Sc46 O47 2.025 . S
Sc46 O56 2.105 . S
Sc46 O58 2.105 . S
Sc46 O62 2.105 . S
Sc46 O64 2.105 . S
O47 Sc44 2.025 . S
O47 Sc45 2.025 . S
O47 Sc46 2.025 . S
C48 O54 1.268 . S
C48 O64 1.268 . S
C49 O55 1.268 . S
C49 O63 1.268 . S
C50 O56 1.268 . S
C50 O65 1.268 . S
C51 O57 1.268 . S
C51 O61 1.268 . S
C52 O58 1.268 . S
C52 O60 1.268 . S
C53 O59 1.268 . S
C53 O62 1.268 . S
O54 Sc44 2.105 . S
O54 C48 1.268 . S
O55 Sc45 2.105 . S
O55 C49 1.268 . S
O56 Sc46 2.105 . S
O56 C50 1.268 . S
O57 Sc44 2.105 . S
O57 C51 1.268 . S
O58 Sc46 2.105 . S
O58 C52 1.268 . S
O59 Sc45 2.105 . S
O59 C53 1.268 . S
O60 Sc44 2.105 . S
O60 C52 1.268 . S
O61 Sc45 2.105 . S
O61 C51 1.268 . S
O62 Sc46 2.105 . S
O62 C53 1.268 . S
O63 Sc44 2.105 . S
O63 C49 1.268 . S
O64 Sc46 2.105 . S
O64 C48 1.268 . S
O65 Sc45 2.105 . S
O65 C50 1.268 . S
Sc66 O69 2.025 1_556 S
Sc66 O76 2.105 . S
Sc66 O79 2.105 . S
Sc66 O82 2.105 . S
Sc66 O85 2.105 1_556 S
Sc67 O69 2.025 . S
Sc67 O77 2.105 . S
Sc67 O81 2.105 . S
Sc67 O83 2.105 1_554 S
Sc67 O87 2.105 . S
Sc68 O69 2.025 . S
Sc68 O78 2.105 . S
Sc68 O80 2.105 1_554 S
Sc68 O84 2.105 1_554 S
Sc68 O86 2.105 . S
O69 Sc66 2.025 1_554 S
O69 Sc67 2.025 . S
O69 Sc68 2.025 . S
C70 O76 1.268 1_554 S
C70 O86 1.268 . S
C71 O77 1.268 . S
C71 O85 1.268 . S
C72 O78 1.268 . S
C72 O87 1.268 . S
C73 O79 1.268 . S
C73 O83 1.268 . S
C74 O80 1.268 . S
C74 O82 1.268 . S
C75 O81 1.268 1_556 S
C75 O84 1.268 . S
O76 Sc66 2.105 . S
O76 C70 1.268 1_556 S
O77 Sc67 2.105 . S
O77 C71 1.268 . S
O78 Sc68 2.105 . S
O78 C72 1.268 . S
O79 Sc66 2.105 . S
O79 C73 1.268 . S
O80 Sc68 2.105 1_556 S
O80 C74 1.268 . S
O81 Sc67 2.105 . S
O81 C75 1.268 1_554 S
O82 Sc66 2.105 . S
O82 C74 1.268 . S
O83 Sc67 2.105 1_556 S
O83 C73 1.268 . S
O84 Sc68 2.105 1_556 S
O84 C75 1.268 . S
O85 Sc66 2.105 1_554 S
O85 C71 1.268 . S
O86 Sc68 2.105 . S
O86 C70 1.268 . S
O87 Sc67 2.105 . S
O87 C72 1.268 . S
Sc88 O91 2.025 . S
Sc88 O98 2.105 . S
Sc88 O101 2.105 . S
Sc88 O104 2.105 . S
Sc88 O107 2.105 . S
Sc89 O91 2.025 . S
Sc89 O99 2.105 . S
Sc89 O103 2.105 . S
Sc89 O105 2.105 . S
Sc89 O109 2.105 . S
Sc90 O91 2.025 . S
Sc90 O100 2.105 . S
Sc90 O102 2.105 . S
Sc90 O106 2.105 . S
Sc90 O108 2.105 . S
O91 Sc88 2.025 . S
O91 Sc89 2.025 . S
O91 Sc90 2.025 . S
C92 O98 1.268 . S
C92 O108 1.268 . S
C93 O99 1.268 . S
C93 O107 1.268 . S
C94 O100 1.268 . S
C94 O109 1.268 . S
C95 O101 1.268 . S
C95 O105 1.268 . S
C96 O102 1.268 . S
C96 O104 1.268 . S
C97 O103 1.268 . S
C97 O106 1.268 . S
O98 Sc88 2.105 . S
O98 C92 1.268 . S
O99 Sc89 2.105 . S
O99 C93 1.268 . S
O100 Sc90 2.105 . S
O100 C94 1.268 . S
O101 Sc88 2.105 . S
O101 C95 1.268 . S
O102 Sc90 2.105 . S
O102 C96 1.268 . S
O103 Sc89 2.105 . S
O103 C97 1.268 . S
O104 Sc88 2.105 . S
O104 C96 1.268 . S
O105 Sc89 2.105 . S
O105 C95 1.268 . S
O106 Sc90 2.105 . S
O106 C97 1.268 . S
O107 Sc88 2.105 . S
O107 C93 1.268 . S
O108 Sc90 2.105 . S
O108 C92 1.268 . S
O109 Sc89 2.105 . S
O109 C94 1.268 . S
Sc110 O113 2.025 . S
Sc110 O120 2.105 . S
Sc110 O123 2.105 . S
Sc110 O126 2.105 . S
Sc110 O129 2.105 . S
Sc111 O113 2.025 . S
Sc111 O121 2.105 . S
Sc111 O125 2.105 . S
Sc111 O127 2.105 . S
Sc111 O131 2.105 . S
Sc112 O113 2.025 . S
Sc112 O122 2.105 . S
Sc112 O124 2.105 . S
Sc112 O128 2.105 . S
Sc112 O130 2.105 . S
O113 Sc110 2.025 . S
O113 Sc111 2.025 . S
O113 Sc112 2.025 . S
C114 O120 1.268 . S
C114 O130 1.268 . S
C115 O121 1.268 . S
C115 O129 1.268 . S
C116 O122 1.268 . S
C116 O131 1.268 . S
C117 O123 1.268 . S
C117 O127 1.268 . S
C118 O124 1.268 . S
C118 O126 1.268 . S
C119 O125 1.268 . S
C119 O128 1.268 . S
O120 Sc110 2.105 . S
O120 C114 1.268 . S
O121 Sc111 2.105 . S
O121 C115 1.268 . S
O122 Sc112 2.105 . S
O122 C116 1.268 . S
O123 Sc110 2.105 . S
O123 C117 1.268 . S
O124 Sc112 2.105 . S
O124 C118 1.268 . S
O125 Sc111 2.105 . S
O125 C119 1.268 . S
O126 Sc110 2.105 . S
O126 C118 1.268 . S
O127 Sc111 2.105 . S
O127 C117 1.268 . S
O128 Sc112 2.105 . S
O128 C119 1.268 . S
O129 Sc110 2.105 . S
O129 C115 1.268 . S
O130 Sc112 2.105 . S
O130 C114 1.268 . S
O131 Sc111 2.105 . S
O131 C116 1.268 . S
H132 C133 0.951 . S
C133 H132 0.951 . S
C133 C139 1.265 . S
H134 C139 0.950 . S
H135 C143 0.949 . S
H136 C144 0.950 . S
H137 C145 0.951 . S
H138 C146 0.951 . S
C139 C133 1.265 . S
C139 H134 0.950 . S
C139 C140 1.478 . S
C140 C139 1.478 . S
C140 C141 1.397 . S
C140 C157 1.394 . S
C141 C140 1.397 . S
C141 C142 1.438 . S
C141 C146 1.429 . S
C142 C141 1.438 . S
C142 C143 1.428 . S
C142 C155 1.394 . S
C143 H135 0.949 . S
C143 C142 1.428 . S
C143 C144 1.345 . S
C144 H136 0.950 . S
C144 C143 1.345 . S
C144 C145 1.424 . S
C145 H137 0.951 . S
C145 C144 1.424 . S
C145 C146 1.347 . S
C146 H138 0.951 . S
C146 C141 1.429 . S
C146 C145 1.347 . S
H147 C148 0.945 1_554 S
C148 H147 0.945 1_556 S
C148 C154 1.265 . S
H149 C154 0.950 . S
H150 C158 0.949 . S
H151 C159 0.950 . S
H152 C160 0.951 . S
H153 C161 0.951 . S
C154 C148 1.265 . S
C154 H149 0.950 . S
C154 C155 1.478 . S
C155 C142 1.394 . S
C155 C154 1.478 . S
C155 C156 1.397 . S
C156 C155 1.397 . S
C156 C157 1.438 . S
C156 C161 1.429 . S
C157 C140 1.394 . S
C157 C156 1.438 . S
C157 C158 1.428 . S
C158 H150 0.949 . S
C158 C157 1.428 . S
C158 C159 1.345 . S
C159 H151 0.950 . S
C159 C158 1.345 . S
C159 C160 1.424 . S
C160 H152 0.951 . S
C160 C159 1.424 . S
C160 C161 1.347 . S
C161 H153 0.951 . S
C161 C156 1.429 . S
C161 C160 1.347 . S
H162 C163 0.951 . S
C163 H162 0.951 . S
C163 C169 1.265 . S
H164 C169 0.950 . S
H165 C173 0.949 . S
H166 C174 0.950 . S
H167 C175 0.951 . S
H168 C176 0.951 . S
C169 C163 1.265 . S
C169 H164 0.950 . S
C169 C170 1.478 . S
C170 C169 1.478 . S
C170 C171 1.397 . S
C170 C187 1.394 . S
C171 C170 1.397 . S
C171 C172 1.438 1_455 S
C171 C176 1.429 . S
C172 C171 1.438 1_655 S
C172 C173 1.428 . S
C172 C185 1.394 . S
C173 H165 0.949 . S
C173 C172 1.428 . S
C173 C174 1.345 1_655 S
C174 H166 0.950 . S
C174 C173 1.345 1_455 S
C174 C175 1.424 . S
C175 H167 0.951 . S
C175 C174 1.424 . S
C175 C176 1.347 . S
C176 H168 0.951 . S
C176 C171 1.429 . S
C176 C175 1.347 . S
H177 C178 0.951 . S
C178 H177 0.951 . S
C178 C184 1.265 . S
H179 C184 0.950 . S
H180 C188 0.949 . S
H181 C189 0.950 . S
H182 C190 0.951 . S
H183 C191 0.951 . S
C184 C178 1.265 . S
C184 H179 0.950 . S
C184 C185 1.478 . S
C185 C172 1.394 . S
C185 C184 1.478 . S
C185 C186 1.397 . S
C186 C185 1.397 . S
C186 C187 1.438 1_655 S
C186 C191 1.429 . S
C187 C170 1.394 . S
C187 C186 1.438 1_455 S
C187 C188 1.428 1_554 S
C188 H180 0.949 . S
C188 C187 1.428 1_556 S
C188 C189 1.345 1_455 S
C189 H181 0.950 . S
C189 C188 1.345 1_655 S
C189 C190 1.424 . S
C190 H182 0.951 . S
C190 C189 1.424 . S
C190 C191 1.347 1_556 S
C191 H183 0.951 . S
C191 C186 1.429 . S
C191 C190 1.347 1_554 S
H192 C193 0.951 . S
C193 H192 0.951 . S
C193 C199 1.265 . S
H194 C199 0.950 . S
H195 C203 0.949 . S
H196 C204 0.950 . S
H197 C205 0.951 . S
H198 C206 0.951 . S
C199 C193 1.265 . S
C199 H194 0.950 . S
C199 C200 1.478 . S
C200 C199 1.478 . S
C200 C201 1.397 . S
C200 C217 1.394 . S
C201 C200 1.397 . S
C201 C202 1.438 1_545 S
C201 C206 1.429 . S
C202 C201 1.438 1_565 S
C202 C203 1.428 . S
C202 C215 1.394 . S
C203 H195 0.949 . S
C203 C202 1.428 . S
C203 C204 1.345 1_565 S
C204 H196 0.950 . S
C204 C203 1.345 1_545 S
C204 C205 1.424 . S
C205 H197 0.951 . S
C205 C204 1.424 . S
C205 C206 1.347 . S
C206 H198 0.951 . S
C206 C201 1.429 . S
C206 C205 1.347 . S
H207 C208 0.951 . S
C208 H207 0.951 . S
C208 C214 1.265 . S
H209 C214 0.950 . S
H210 C218 0.949 . S
H211 C219 0.950 . S
H212 C220 0.951 . S
H213 C221 0.951 . S
C214 C208 1.265 . S
C214 H209 0.950 . S
C214 C215 1.478 . S
C215 C202 1.394 . S
C215 C214 1.478 . S
C215 C216 1.397 . S
C216 C215 1.397 . S
C216 C217 1.438 1_565 S
C216 C221 1.429 . S
C217 C200 1.394 . S
C217 C216 1.438 1_545 S
C217 C218 1.428 . S
C218 H210 0.949 . S
C218 C217 1.428 . S
C218 C219 1.345 1_545 S
C219 H211 0.950 . S
C219 C218 1.345 1_565 S
C219 C220 1.424 . S
C220 H212 0.951 . S
C220 C219 1.424 . S
C220 C221 1.347 . S
C221 H213 0.951 . S
C221 C216 1.429 . S
C221 C220 1.347 . S
H222 C223 0.951 . S
C223 H222 0.951 . S
C223 C229 1.265 . S
H224 C229 0.950 . S
H225 C233 0.949 . S
H226 C234 0.950 . S
H227 C235 0.951 . S
H228 C236 0.951 . S
C229 C223 1.265 . S
C229 H224 0.950 . S
C229 C230 1.478 . S
C230 C229 1.478 . S
C230 C231 1.397 . S
C230 C247 1.394 . S
C231 C230 1.397 . S
C231 C232 1.438 . S
C231 C236 1.429 . S
C232 C231 1.438 . S
C232 C233 1.428 . S
C232 C245 1.394 . S
C233 H225 0.949 . S
C233 C232 1.428 . S
C233 C234 1.345 . S
C234 H226 0.950 . S
C234 C233 1.345 . S
C234 C235 1.424 . S
C235 H227 0.951 . S
C235 C234 1.424 . S
C235 C236 1.347 . S
C236 H228 0.951 . S
C236 C231 1.429 . S
C236 C235 1.347 . S
H237 C238 0.951 1_554 S
C238 H237 0.951 1_556 S
C238 C244 1.265 . S
H239 C244 0.950 . S
H240 C248 0.949 . S
H241 C249 0.950 . S
H242 C250 0.951 . S
H243 C251 0.951 . S
C244 C238 1.265 . S
C244 H239 0.950 . S
C244 C245 1.478 . S
C245 C232 1.394 . S
C245 C244 1.478 . S
C245 C246 1.397 . S
C246 C245 1.397 . S
C246 C247 1.438 . S
C246 C251 1.429 . S
C247 C230 1.394 . S
C247 C246 1.438 . S
C247 C248 1.428 . S
C248 H240 0.949 . S
C248 C247 1.428 . S
C248 C249 1.345 . S
C249 H241 0.950 . S
C249 C248 1.345 . S
C249 C250 1.424 . S
C250 H242 0.951 . S
C250 C249 1.424 . S
C250 C251 1.347 . S
C251 H243 0.951 . S
C251 C246 1.429 . S
C251 C250 1.347 . S
H252 C253 0.951 . S
C253 H252 0.951 . S
C253 C259 1.265 . S
H254 C259 0.950 . S
H255 C263 0.949 1_556 S
H256 C264 0.950 . S
H257 C265 0.951 1_556 S
H258 C266 0.951 . S
C259 C253 1.265 . S
C259 H254 0.950 . S
C259 C260 1.478 . S
C260 C259 1.478 . S
C260 C261 1.397 . S
C260 C277 1.394 . S
C261 C260 1.397 . S
C261 C262 1.438 1_455 S
C261 C266 1.429 . S
C262 C261 1.438 1_655 S
C262 C263 1.428 . S
C262 C275 1.394 . S
C263 H255 0.949 1_554 S
C263 C262 1.428 . S
C263 C264 1.345 1_654 S
C264 H256 0.950 . S
C264 C263 1.345 1_456 S
C264 C265 1.424 1_556 S
C265 H257 0.951 1_554 S
C265 C264 1.424 1_554 S
C265 C266 1.347 . S
C266 H258 0.951 . S
C266 C261 1.429 . S
C266 C265 1.347 . S
H267 C268 0.951 . S
C268 H267 0.951 . S
C268 C274 1.265 . S
H269 C274 0.950 . S
H270 C278 0.949 . S
H271 C279 0.950 . S
H272 C280 0.951 . S
H273 C281 0.951 . S
C274 C268 1.265 . S
C274 H269 0.950 . S
C274 C275 1.478 . S
C275 C262 1.394 . S
C275 C274 1.478 . S
C275 C276 1.397 . S
C276 C275 1.397 . S
C276 C277 1.438 1_655 S
C276 C281 1.429 . S
C277 C260 1.394 . S
C277 C276 1.438 1_455 S
C277 C278 1.428 . S
C278 H270 0.949 . S
C278 C277 1.428 . S
C278 C279 1.345 1_455 S
C279 H271 0.950 . S
C279 C278 1.345 1_655 S
C279 C280 1.424 . S
C280 H272 0.951 . S
C280 C279 1.424 . S
C280 C281 1.347 . S
C281 H273 0.951 . S
C281 C276 1.429 . S
C281 C280 1.347 . S
H282 C283 0.951 . S
C283 H282 0.951 . S
C283 C289 1.265 . S
H284 C289 0.950 . S
H285 C293 0.949 . S
H286 C294 0.950 . S
H287 C295 0.951 . S
H288 C296 0.954 . S
C289 C283 1.265 . S
C289 H284 0.950 . S
C289 C290 1.478 . S
C290 C289 1.478 . S
C290 C291 1.424 . S
C290 C307 1.394 . S
C291 C290 1.424 . S
C291 C292 1.419 1_545 S
C291 C296 1.422 . S
C292 C291 1.419 1_565 S
C292 C293 1.428 . S
C292 C305 1.394 . S
C293 H285 0.949 . S
C293 C292 1.428 . S
C293 C294 1.345 . S
C294 H286 0.950 . S
C294 C293 1.345 . S
C294 C295 1.424 . S
C295 H287 0.951 . S
C295 C294 1.424 . S
C295 C296 1.343 1_565 S
C296 H288 0.954 . S
C296 C291 1.422 . S
C296 C295 1.343 1_545 S
H297 C298 0.951 . S
C298 H297 0.951 . S
C298 C304 1.265 . S
H299 C304 0.950 . S
H300 C308 0.949 . S
H301 C309 0.950 . S
H302 C310 0.951 . S
H303 C311 0.954 . S
C304 C298 1.265 . S
C304 H299 0.950 . S
C304 C305 1.478 . S
C305 C292 1.394 . S
C305 C304 1.478 . S
C305 C306 1.424 . S
C306 C305 1.424 . S
C306 C307 1.419 1_565 S
C306 C311 1.422 . S
C307 C290 1.394 . S
C307 C306 1.419 1_545 S
C307 C308 1.428 . S
C308 H300 0.949 . S
C308 C307 1.428 . S
C308 C309 1.345 . S
C309 H301 0.950 . S
C309 C308 1.345 . S
C309 C310 1.424 . S
C310 H302 0.951 . S
C310 C309 1.424 . S
C310 C311 1.342 1_545 S
C311 H303 0.954 . S
C311 C306 1.422 . S
C311 C310 1.342 1_565 S
H312 C313 0.951 . S
C313 H312 0.951 . S
C313 C319 1.265 . S
H314 C319 0.950 . S
H315 C323 0.949 . S
H316 C324 0.950 . S
H317 C325 0.951 . S
H318 C326 0.951 . S
C319 C313 1.265 . S
C319 H314 0.950 . S
C319 C320 1.478 . S
C320 C319 1.478 . S
C320 C321 1.397 . S
C320 C337 1.394 . S
C321 C320 1.397 . S
C321 C322 1.438 . S
C321 C326 1.429 . S
C322 C321 1.438 . S
C322 C323 1.428 . S
C322 C335 1.394 . S
C323 H315 0.949 . S
C323 C322 1.428 . S
C323 C324 1.345 . S
C324 H316 0.950 . S
C324 C323 1.345 . S
C324 C325 1.424 . S
C325 H317 0.951 . S
C325 C324 1.424 . S
C325 C326 1.347 . S
C326 H318 0.951 . S
C326 C321 1.429 . S
C326 C325 1.347 . S
H327 C328 0.951 . S
C328 H327 0.951 . S
C328 C334 1.265 . S
H329 C334 0.950 . S
H330 C338 0.949 . S
H331 C339 0.950 . S
H332 C340 0.951 . S
H333 C341 0.951 . S
C334 C328 1.265 . S
C334 H329 0.950 . S
C334 C335 1.478 . S
C335 C322 1.394 . S
C335 C334 1.478 . S
C335 C336 1.397 . S
C336 C335 1.397 . S
C336 C337 1.438 . S
C336 C341 1.429 . S
C337 C320 1.394 . S
C337 C336 1.438 . S
C337 C338 1.428 . S
C338 H330 0.949 . S
C338 C337 1.428 . S
C338 C339 1.345 . S
C339 H331 0.950 . S
C339 C338 1.345 . S
C339 C340 1.424 . S
C340 H332 0.951 . S
C340 C339 1.424 . S
C340 C341 1.347 . S
C341 H333 0.951 . S
C341 C336 1.429 . S
C341 C340 1.347 . S
H342 C343 0.951 . S
C343 H342 0.951 . S
C343 C349 1.265 . S
H344 C349 0.950 . S
H345 C353 0.949 . S
H346 C354 0.950 . S
H347 C355 0.951 . S
H348 C356 0.951 . S
C349 C343 1.265 . S
C349 H344 0.950 . S
C349 C350 1.478 1_554 S
C350 C349 1.478 1_556 S
C350 C351 1.397 . S
C350 C367 1.394 . S
C351 C350 1.397 . S
C351 C352 1.438 . S
C351 C356 1.429 . S
C352 C351 1.438 . S
C352 C353 1.428 . S
C352 C365 1.394 . S
C353 H345 0.949 . S
C353 C352 1.428 . S
C353 C354 1.345 . S
C354 H346 0.950 . S
C354 C353 1.345 . S
C354 C355 1.424 . S
C355 H347 0.951 . S
C355 C354 1.424 . S
C355 C356 1.347 . S
C356 H348 0.951 . S
C356 C351 1.429 . S
C356 C355 1.347 . S
H357 C358 0.951 . S
C358 H357 0.951 . S
C358 C364 1.265 . S
H359 C364 0.950 . S
H360 C368 0.949 1_554 S
H361 C369 0.950 . S
H362 C370 0.951 . S
H363 C371 0.951 . S
C364 C358 1.265 . S
C364 H359 0.950 . S
C364 C365 1.478 . S
C365 C352 1.394 . S
C365 C364 1.478 . S
C365 C366 1.397 . S
C366 C365 1.397 . S
C366 C367 1.438 . S
C366 C371 1.429 . S
C367 C350 1.394 . S
C367 C366 1.438 . S
C367 C368 1.428 . S
C368 H360 0.949 1_556 S
C368 C367 1.428 . S
C368 C369 1.345 . S
C369 H361 0.950 . S
C369 C368 1.345 . S
C369 C370 1.424 . S
C370 H362 0.951 . S
C370 C369 1.424 . S
C370 C371 1.347 . S
C371 H363 0.951 . S
C371 C366 1.429 . S
C371 C370 1.347 . S
H372 C373 0.951 . S
C373 H372 0.951 . S
C373 C379 1.265 . S
H374 C379 0.950 . S
H375 C383 0.949 . S
H376 C384 0.950 . S
H377 C385 0.951 . S
H378 C386 0.951 . S
C379 C373 1.265 . S
C379 H374 0.950 . S
C379 C380 1.478 . S
C380 C379 1.478 . S
C380 C381 1.397 . S
C380 C397 1.394 . S
C381 C380 1.397 . S
C381 C382 1.438 . S
C381 C386 1.429 . S
C382 C381 1.438 . S
C382 C383 1.428 . S
C382 C395 1.394 . S
C383 H375 0.949 . S
C383 C382 1.428 . S
C383 C384 1.345 . S
C384 H376 0.950 . S
C384 C383 1.345 . S
C384 C385 1.424 . S
C385 H377 0.951 . S
C385 C384 1.424 . S
C385 C386 1.347 . S
C386 H378 0.951 . S
C386 C381 1.429 . S
C386 C385 1.347 . S
H387 C388 0.951 . S
C388 H387 0.951 . S
C388 C394 1.265 . S
H389 C394 0.950 . S
H390 C398 0.949 . S
H391 C399 0.950 . S
H392 C400 0.951 . S
H393 C401 0.951 . S
C394 C388 1.265 . S
C394 H389 0.950 . S
C394 C395 1.478 1_556 S
C395 C382 1.394 . S
C395 C394 1.478 1_554 S
C395 C396 1.397 . S
C396 C395 1.397 . S
C396 C397 1.438 . S
C396 C401 1.429 . S
C397 C380 1.394 . S
C397 C396 1.438 . S
C397 C398 1.428 . S
C398 H390 0.949 . S
C398 C397 1.428 . S
C398 C399 1.345 . S
C399 H391 0.950 . S
C399 C398 1.345 . S
C399 C400 1.424 . S
C400 H392 0.951 . S
C400 C399 1.424 . S
C400 C401 1.347 . S
C401 H393 0.951 . S
C401 C396 1.429 . S
C401 C400 1.347 . S
H402 C403 0.951 . S
C403 H402 0.951 . S
C403 C409 1.265 . S
H404 C409 0.950 . S
H405 C413 0.949 . S
H406 C414 0.950 . S
H407 C415 0.951 . S
H408 C416 0.951 . S
C409 C403 1.265 . S
C409 H404 0.950 . S
C409 C410 1.478 . S
C410 C409 1.478 . S
C410 C411 1.397 . S
C410 C427 1.394 . S
C411 C410 1.397 . S
C411 C412 1.438 . S
C411 C416 1.429 . S
C412 C411 1.438 . S
C412 C413 1.428 . S
C412 C425 1.394 . S
C413 H405 0.949 . S
C413 C412 1.428 . S
C413 C414 1.345 . S
C414 H406 0.950 . S
C414 C413 1.345 . S
C414 C415 1.424 . S
C415 H407 0.951 . S
C415 C414 1.424 . S
C415 C416 1.347 . S
C416 H408 0.951 . S
C416 C411 1.429 . S
C416 C415 1.347 . S
H417 C418 0.951 . S
C418 H417 0.951 . S
C418 C424 1.265 . S
H419 C424 0.950 . S
H420 C428 0.949 . S
H421 C429 0.950 . S
H422 C430 0.951 . S
H423 C431 0.951 . S
C424 C418 1.265 . S
C424 H419 0.950 . S
C424 C425 1.478 . S
C425 C412 1.394 . S
C425 C424 1.478 . S
C425 C426 1.397 . S
C426 C425 1.397 . S
C426 C427 1.438 . S
C426 C431 1.429 . S
C427 C410 1.394 . S
C427 C426 1.438 . S
C427 C428 1.428 . S
C428 H420 0.949 . S
C428 C427 1.428 . S
C428 C429 1.345 . S
C429 H421 0.950 . S
C429 C428 1.345 . S
C429 C430 1.424 . S
C430 H422 0.951 . S
C430 C429 1.424 . S
C430 C431 1.347 . S
C431 H423 0.951 . S
C431 C426 1.429 . S
C431 C430 1.347 . S
H432 C433 0.951 . S
C433 H432 0.951 . S
C433 C439 1.265 . S
H434 C439 0.950 . S
H435 C443 0.949 . S
H436 C444 0.950 . S
H437 C445 0.951 . S
H438 C446 0.951 . S
C439 C433 1.265 . S
C439 H434 0.950 . S
C439 C440 1.478 . S
C440 C439 1.478 . S
C440 C441 1.397 . S
C440 C457 1.394 . S
C441 C440 1.397 . S
C441 C442 1.438 . S
C441 C446 1.429 . S
C442 C441 1.438 . S
C442 C443 1.428 . S
C442 C455 1.394 . S
C443 H435 0.949 . S
C443 C442 1.428 . S
C443 C444 1.345 . S
C444 H436 0.950 . S
C444 C443 1.345 . S
C444 C445 1.424 . S
C445 H437 0.951 . S
C445 C444 1.424 . S
C445 C446 1.347 . S
C446 H438 0.951 . S
C446 C441 1.429 . S
C446 C445 1.347 . S
H447 C448 0.951 . S
C448 H447 0.951 . S
C448 C454 1.265 . S
H449 C454 0.950 . S
H450 C458 0.949 . S
H451 C459 0.950 . S
H452 C460 0.951 . S
H453 C461 0.951 . S
C454 C448 1.265 . S
C454 H449 0.950 . S
C454 C455 1.478 1_554 S
C455 C442 1.394 . S
C455 C454 1.478 1_556 S
C455 C456 1.397 . S
C456 C455 1.397 . S
C456 C457 1.438 . S
C456 C461 1.429 . S
C457 C440 1.394 . S
C457 C456 1.438 . S
C457 C458 1.428 . S
C458 H450 0.949 . S
C458 C457 1.428 . S
C458 C459 1.345 . S
C459 H451 0.950 . S
C459 C458 1.345 . S
C459 C460 1.424 . S
C460 H452 0.951 . S
C460 C459 1.424 . S
C460 C461 1.347 . S
C461 H453 0.951 . S
C461 C456 1.429 . S
C461 C460 1.347 . S
H462 C463 0.951 . S
C463 H462 0.951 . S
C463 C469 1.265 . S
H464 C469 0.950 . S
H465 C473 0.949 . S
H466 C474 0.950 . S
H467 C475 0.951 . S
H468 C476 0.951 . S
C469 C463 1.265 . S
C469 H464 0.950 . S
C469 C470 1.478 . S
C470 C469 1.478 . S
C470 C471 1.397 . S
C470 C487 1.394 . S
C471 C470 1.397 . S
C471 C472 1.438 . S
C471 C476 1.429 . S
C472 C471 1.438 . S
C472 C473 1.428 . S
C472 C485 1.394 . S
C473 H465 0.949 . S
C473 C472 1.428 . S
C473 C474 1.345 . S
C474 H466 0.950 . S
C474 C473 1.345 . S
C474 C475 1.424 . S
C475 H467 0.951 . S
C475 C474 1.424 . S
C475 C476 1.347 . S
C476 H468 0.951 . S
C476 C471 1.429 . S
C476 C475 1.347 . S
H477 C478 0.951 . S
C478 H477 0.951 . S
C478 C484 1.265 . S
H479 C484 0.950 . S
H480 C488 0.949 . S
H481 C489 0.950 . S
H482 C490 0.951 . S
H483 C491 0.951 . S
C484 C478 1.265 . S
C484 H479 0.950 . S
C484 C485 1.478 1_556 S
C485 C472 1.394 . S
C485 C484 1.478 1_554 S
C485 C486 1.397 . S
C486 C485 1.397 . S
C486 C487 1.438 . S
C486 C491 1.429 . S
C487 C470 1.394 . S
C487 C486 1.438 . S
C487 C488 1.428 . S
C488 H480 0.949 . S
C488 C487 1.428 . S
C488 C489 1.345 . S
C489 H481 0.950 . S
C489 C488 1.345 . S
C489 C490 1.424 . S
C490 H482 0.951 . S
C490 C489 1.424 . S
C490 C491 1.347 . S
C491 H483 0.951 . S
C491 C486 1.429 . S
C491 C490 1.347 . S
H492 C493 0.951 . S
C493 H492 0.951 . S
C493 C499 1.265 . S
H494 C499 0.950 . S
H495 C503 0.949 . S
H496 C504 0.950 . S
H497 C505 0.951 . S
H498 C506 0.951 . S
C499 C493 1.265 . S
C499 H494 0.950 . S
C499 C500 1.478 . S
C500 C499 1.478 . S
C500 C501 1.397 . S
C500 C517 1.394 . S
C501 C500 1.397 . S
C501 C502 1.438 . S
C501 C506 1.429 . S
C502 C501 1.438 . S
C502 C503 1.428 . S
C502 C515 1.394 . S
C503 H495 0.949 . S
C503 C502 1.428 . S
C503 C504 1.345 . S
C504 H496 0.950 . S
C504 C503 1.345 . S
C504 C505 1.424 . S
C505 H497 0.951 . S
C505 C504 1.424 . S
C505 C506 1.347 . S
C506 H498 0.951 . S
C506 C501 1.429 . S
C506 C505 1.347 . S
H507 C508 0.951 . S
C508 H507 0.951 . S
C508 C514 1.265 . S
H509 C514 0.950 . S
H510 C518 0.949 . S
H511 C519 0.950 . S
H512 C520 0.951 . S
H513 C521 0.951 . S
C514 C508 1.265 . S
C514 H509 0.950 . S
C514 C515 1.478 . S
C515 C502 1.394 . S
C515 C514 1.478 . S
C515 C516 1.397 . S
C516 C515 1.397 . S
C516 C517 1.438 . S
C516 C521 1.429 . S
C517 C500 1.394 . S
C517 C516 1.438 . S
C517 C518 1.428 . S
C518 H510 0.949 . S
C518 C517 1.428 . S
C518 C519 1.345 1_554 S
C519 H511 0.950 . S
C519 C518 1.345 1_556 S
C519 C520 1.424 . S
C520 H512 0.951 . S
C520 C519 1.424 . S
C520 C521 1.347 1_556 S
C521 H513 0.951 . S
C521 C516 1.429 . S
C521 C520 1.347 1_554 S
H522 C523 0.951 . S
C523 H522 0.951 . S
C523 C529 1.265 . S
H524 C529 0.950 . S
H525 C533 0.949 . S
H526 C534 0.950 . S
H527 C535 0.951 . S
H528 C536 0.951 . S
C529 C523 1.265 . S
C529 H524 0.950 . S
C529 C530 1.478 . S
C530 C529 1.478 . S
C530 C531 1.397 . S
C530 C547 1.394 . S
C531 C530 1.397 . S
C531 C532 1.438 . S
C531 C536 1.429 . S
C532 C531 1.438 . S
C532 C533 1.428 . S
C532 C545 1.394 . S
C533 H525 0.949 . S
C533 C532 1.428 . S
C533 C534 1.345 . S
C534 H526 0.950 . S
C534 C533 1.345 . S
C534 C535 1.424 . S
C535 H527 0.951 . S
C535 C534 1.424 . S
C535 C536 1.347 . S
C536 H528 0.951 . S
C536 C531 1.429 . S
C536 C535 1.347 . S
H537 C538 0.951 . S
C538 H537 0.951 . S
C538 C544 1.265 . S
H539 C544 0.950 . S
H540 C548 0.949 . S
H541 C549 0.950 . S
H542 C550 0.951 . S
H543 C551 0.951 . S
C544 C538 1.265 . S
C544 H539 0.950 . S
C544 C545 1.478 . S
C545 C532 1.394 . S
C545 C544 1.478 . S
C545 C546 1.397 . S
C546 C545 1.397 . S
C546 C547 1.438 . S
C546 C551 1.429 . S
C547 C530 1.394 . S
C547 C546 1.438 . S
C547 C548 1.428 . S
C548 H540 0.949 . S
C548 C547 1.428 . S
C548 C549 1.345 . S
C549 H541 0.950 . S
C549 C548 1.345 . S
C549 C550 1.424 . S
C550 H542 0.951 . S
C550 C549 1.424 . S
C550 C551 1.347 . S
C551 H543 0.951 . S
C551 C546 1.429 . S
C551 C550 1.347 . S
H552 C553 0.951 . S
C553 H552 0.951 . S
C553 C559 1.265 . S
H554 C559 0.950 . S
H555 C563 0.949 . S
H556 C564 0.950 . S
H557 C565 0.951 . S
H558 C566 0.951 . S
C559 C553 1.265 . S
C559 H554 0.950 . S
C559 C560 1.478 . S
C560 C559 1.478 . S
C560 C561 1.397 . S
C560 C577 1.394 . S
C561 C560 1.397 . S
C561 C562 1.438 . S
C561 C566 1.429 . S
C562 C561 1.438 . S
C562 C563 1.428 . S
C562 C575 1.394 . S
C563 H555 0.949 . S
C563 C562 1.428 . S
C563 C564 1.345 . S
C564 H556 0.950 . S
C564 C563 1.345 . S
C564 C565 1.424 . S
C565 H557 0.951 . S
C565 C564 1.424 . S
C565 C566 1.347 . S
C566 H558 0.951 . S
C566 C561 1.429 . S
C566 C565 1.347 . S
H567 C568 0.951 . S
C568 H567 0.951 . S
C568 C574 1.265 . S
H569 C574 0.950 . S
H570 C578 0.949 . S
H571 C579 0.950 . S
H572 C580 0.951 . S
H573 C581 0.951 . S
C574 C568 1.265 . S
C574 H569 0.950 . S
C574 C575 1.478 . S
C575 C562 1.394 . S
C575 C574 1.478 . S
C575 C576 1.397 . S
C576 C575 1.397 . S
C576 C577 1.438 . S
C576 C581 1.429 . S
C577 C560 1.394 . S
C577 C576 1.438 . S
C577 C578 1.428 . S
C578 H570 0.949 . S
C578 C577 1.428 . S
C578 C579 1.345 1_556 S
C579 H571 0.950 . S
C579 C578 1.345 1_554 S
C579 C580 1.424 . S
C580 H572 0.951 . S
C580 C579 1.424 . S
C580 C581 1.347 1_554 S
C581 H573 0.951 . S
C581 C576 1.429 . S
C581 C580 1.347 1_556 S
H582 C583 0.951 . S
C583 H582 0.951 . S
C583 C589 1.265 . S
H584 C589 0.950 . S
H585 C593 0.949 . S
H586 C594 0.950 . S
H587 C595 0.951 . S
H588 C596 0.951 . S
C589 C583 1.265 . S
C589 H584 0.950 . S
C589 C590 1.478 . S
C590 C589 1.478 . S
C590 C591 1.397 . S
C590 C607 1.394 . S
C591 C590 1.397 . S
C591 C592 1.438 . S
C591 C596 1.429 . S
C592 C591 1.438 . S
C592 C593 1.428 . S
C592 C605 1.394 . S
C593 H585 0.949 . S
C593 C592 1.428 . S
C593 C594 1.345 . S
C594 H586 0.950 . S
C594 C593 1.345 . S
C594 C595 1.424 . S
C595 H587 0.951 . S
C595 C594 1.424 . S
C595 C596 1.347 . S
C596 H588 0.951 . S
C596 C591 1.429 . S
C596 C595 1.347 . S
H597 C598 0.951 . S
C598 H597 0.951 . S
C598 C604 1.265 . S
H599 C604 0.950 . S
H600 C608 0.949 . S
H601 C609 0.950 . S
H602 C610 0.951 . S
H603 C611 0.952 . S
C604 C598 1.265 . S
C604 H599 0.950 . S
C604 C605 1.478 . S
C605 C592 1.394 . S
C605 C604 1.478 . S
C605 C606 1.397 . S
C606 C605 1.397 . S
C606 C607 1.438 . S
C606 C611 1.425 1_554 S
C607 C590 1.394 . S
C607 C606 1.438 . S
C607 C608 1.428 . S
C608 H600 0.949 . S
C608 C607 1.428 . S
C608 C609 1.345 1_554 S
C609 H601 0.950 . S
C609 C608 1.345 1_556 S
C609 C610 1.424 . S
C610 H602 0.951 . S
C610 C609 1.424 . S
C610 C611 1.350 . S
C611 H603 0.952 . S
C611 C606 1.425 1_556 S
C611 C610 1.350 . S
H612 C613 0.951 . S
C613 H612 0.951 . S
C613 C619 1.265 . S
H614 C619 0.950 . S
H615 C623 0.949 . S
H616 C624 0.950 . S
H617 C625 0.951 . S
H618 C626 0.951 . S
C619 C613 1.265 . S
C619 H614 0.950 . S
C619 C620 1.478 . S
C620 C619 1.478 . S
C620 C621 1.397 . S
C620 C637 1.394 . S
C621 C620 1.397 . S
C621 C622 1.438 . S
C621 C626 1.429 . S
C622 C621 1.438 . S
C622 C623 1.428 . S
C622 C635 1.394 . S
C623 H615 0.949 . S
C623 C622 1.428 . S
C623 C624 1.345 . S
C624 H616 0.950 . S
C624 C623 1.345 . S
C624 C625 1.424 . S
C625 H617 0.951 . S
C625 C624 1.424 . S
C625 C626 1.347 . S
C626 H618 0.951 . S
C626 C621 1.429 . S
C626 C625 1.347 . S
H627 C628 0.951 . S
C628 H627 0.951 . S
C628 C634 1.265 . S
H629 C634 0.950 . S
H630 C638 0.949 . S
H631 C639 0.950 . S
H632 C640 0.951 . S
H633 C641 0.951 . S
C634 C628 1.265 . S
C634 H629 0.950 . S
C634 C635 1.478 . S
C635 C622 1.394 . S
C635 C634 1.478 . S
C635 C636 1.397 . S
C636 C635 1.397 . S
C636 C637 1.438 . S
C636 C641 1.429 . S
C637 C620 1.394 . S
C637 C636 1.438 . S
C637 C638 1.428 . S
C638 H630 0.949 . S
C638 C637 1.428 . S
C638 C639 1.345 . S
C639 H631 0.950 . S
C639 C638 1.345 . S
C639 C640 1.424 . S
C640 H632 0.951 . S
C640 C639 1.424 . S
C640 C641 1.347 . S
C641 H633 0.951 . S
C641 C636 1.429 . S
C641 C640 1.347 . S
H642 C643 0.951 . S
C643 H642 0.951 . S
C643 C649 1.265 . S
H644 C649 0.950 . S
H645 C653 0.949 . S
H646 C654 0.950 . S
H647 C655 0.951 . S
H648 C656 0.951 . S
C649 C643 1.265 . S
C649 H644 0.950 . S
C649 C650 1.478 . S
C650 C649 1.478 . S
C650 C651 1.397 . S
C650 C667 1.394 . S
C651 C650 1.397 . S
C651 C652 1.438 . S
C651 C656 1.429 . S
C652 C651 1.438 . S
C652 C653 1.428 . S
C652 C665 1.394 . S
C653 H645 0.949 . S
C653 C652 1.428 . S
C653 C654 1.345 . S
C654 H646 0.950 . S
C654 C653 1.345 . S
C654 C655 1.424 . S
C655 H647 0.951 . S
C655 C654 1.424 . S
C655 C656 1.347 . S
C656 H648 0.951 . S
C656 C651 1.429 . S
C656 C655 1.347 . S
H657 C658 0.951 . S
C658 H657 0.951 . S
C658 C664 1.265 . S
H659 C664 0.950 . S
H660 C668 0.949 . S
H661 C669 0.950 . S
H662 C670 0.951 . S
H663 C671 0.951 . S
C664 C658 1.265 . S
C664 H659 0.950 . S
C664 C665 1.478 . S
C665 C652 1.394 . S
C665 C664 1.478 . S
C665 C666 1.397 . S
C666 C665 1.397 . S
C666 C667 1.438 . S
C666 C671 1.429 . S
C667 C650 1.394 . S
C667 C666 1.438 . S
C667 C668 1.428 . S
C668 H660 0.949 . S
C668 C667 1.428 . S
C668 C669 1.345 1_556 S
C669 H661 0.950 . S
C669 C668 1.345 1_554 S
C669 C670 1.424 . S
C670 H662 0.951 . S
C670 C669 1.424 . S
C670 C671 1.347 1_554 S
C671 H663 0.951 . S
C671 C666 1.429 . S
C671 C670 1.347 1_556 S
C133 C114 1.668 . S
C148 C5 1.680 . S
C163 C8 1.687 . S
C178 C31 1.652 . S
C193 C26 1.685 . S
C208 C49 1.650 . S
C223 C52 1.675 . S
C238 C75 1.673 . S
C253 C93 1.686 . S
C268 C70 1.650 . S
C283 C119 1.651 . S
C298 C96 1.687 . S
C313 C4 1.201 . S
C328 C7 1.206 . S
C343 C30 1.188 . S
C358 C28 1.231 . S
C373 C48 1.233 . S
C388 C51 1.188 . S
C403 C74 1.201 . S
C418 C72 1.206 . S
C433 C95 1.235 . S
C448 C92 1.188 . S
C463 C118 1.205 . S
C478 C116 1.250 . S
C493 C9 1.132 . S
C508 C94 1.184 . S
C523 C27 1.099 . S
C538 C117 1.097 . S
C553 C6 1.144 . S
C568 C53 1.195 . S
C583 C29 1.220 . S
C598 C71 1.177 . S
C613 C97 1.231 . S
C628 C50 1.220 . S
C643 C73 1.144 . S
C658 C115 1.196 . S
