# Generated by pormake.
# Topology fee, (5)-cn, num edge types: 1
# Building blocks:
#     Node 0, Type 0, BuildingBlock: XOMCOT_clean_sbu_0, # of connection points: 5
#     Node 1, Type 0, BuildingBlock: XOMCOT_clean_sbu_0, # of connection points: 5
#     Node 2, Type 0, BuildingBlock: XOMCOT_clean_sbu_0, # of connection points: 5
#     Node 3, Type 0, BuildingBlock: XOMCOT_clean_sbu_0, # of connection points: 5
#     Edge 4, Type (0, 0), BuildingBlock: XUDNAN_clean_linker_2, # of connection points: 2
#     Edge 5, Type (0, 0), BuildingBlock: XUDNAN_clean_linker_2, # of connection points: 2
#     Edge 6, Type (0, 0), BuildingBlock: XUDNAN_clean_linker_2, # of connection points: 2
#     Edge 7, Type (0, 0), BuildingBlock: XUDNAN_clean_linker_2, # of connection points: 2
#     Edge 8, Type (0, 0), BuildingBlock: XUDNAN_clean_linker_2, # of connection points: 2
#     Edge 9, Type (0, 0), BuildingBlock: XUDNAN_clean_linker_2, # of connection points: 2
#     Edge 10, Type (0, 0), BuildingBlock: XUDNAN_clean_linker_2, # of connection points: 2
#     Edge 11, Type (0, 0), BuildingBlock: XUDNAN_clean_linker_2, # of connection points: 2
#     Edge 12, Type (0, 0), BuildingBlock: XUDNAN_clean_linker_2, # of connection points: 2
#     Edge 13, Type (0, 0), BuildingBlock: XUDNAN_clean_linker_2, # of connection points: 2
# Relax obj value: 0.155
# Max RMSD: 0.169
# Mean RMSD: 0.151
data_MOF--net-fee--node1-XOMCOT_clean_sbu_0--edge1-XUDNAN_clean_linker_2
_symmetry_space_group_name_H-M    P1
_symmetry_Int_Tables_number       1
_symmetry_cell_setting            triclinic
loop_
_symmetry_equiv_pos_as_xyz
'x, y, z'
_cell_length_a     38.388829
_cell_length_b     38.470343
_cell_length_c     17.66866
_cell_angle_alpha  95.896094
_cell_angle_beta   95.850939
_cell_angle_gamma 90.179374
loop_
_atom_site_label
_atom_site_type_symbol
_atom_site_fract_x
_atom_site_fract_y
_atom_site_fract_z
_atom_type_partial_charge
Co0 Co 0.18102 0.53404 0.08669 0.0
C1 C 0.17412 0.53703 0.25688 0.0
C2 C 0.1782 0.58704 0.21464 0.0
C3 C 0.17356 0.59237 0.29072 0.0
N4 N 0.17875 0.55245 0.19281 0.0
N5 N 0.1709 0.56104 0.31741 0.0
H6 H 0.17162 0.50923 0.25921 0.0
H7 H 0.17978 0.60729 0.1771 0.0
C8 C 0.22229 0.59827 0.06102 0.0
O9 O 0.19411 0.61285 0.03043 0.0
N10 N 0.18306 0.51705 0.97994 0.0
C11 C 0.18659 0.48373 0.9499 0.0
C12 C 0.18428 0.48276 0.87133 0.0
C13 C 0.17802 0.53574 0.91923 0.0
N14 N 0.17871 0.51546 0.85213 0.0
C15 C 0.20271 0.47001 0.14556 0.0
C16 C 0.26967 0.47003 0.10117 0.0
C17 C 0.25726 0.44008 0.12933 0.0
C18 C 0.22357 0.44068 0.15334 0.0
C19 C 0.24798 0.49888 0.09433 0.0
N20 N 0.2147 0.49861 0.11572 0.0
H21 H 0.17605 0.46865 0.15928 0.0
H22 H 0.25755 0.52026 0.06699 0.0
H23 H 0.18962 0.46142 0.98238 0.0
H24 H 0.17322 0.56349 0.92398 0.0
O25 O 0.13885 0.50717 0.08636 0.0
O26 O 0.14003 0.56192 0.05834 0.0
O27 O 0.22059 0.56787 0.08325 0.0
C28 C 0.12164 0.53414 0.06598 0.0
H29 H 0.17181 0.61748 0.32382 0.0
H30 H 0.18515 0.45957 0.83136 0.0
H31 H 0.29559 0.47082 0.08218 0.0
H32 H 0.21253 0.41793 0.17395 0.0
Co33 Co 0.463 0.18641 0.0991 0.0
C34 C 0.45837 0.18877 0.27033 0.0
C35 C 0.41302 0.16761 0.19926 0.0
C36 C 0.40622 0.16859 0.27388 0.0
N37 N 0.44563 0.18015 0.19629 0.0
N38 N 0.43454 0.18202 0.31866 0.0
H39 H 0.48361 0.20086 0.28895 0.0
H40 H 0.3948 0.15925 0.14993 0.0
C41 C 0.40915 0.2384 0.03407 0.0
O42 O 0.42465 0.24189 0.97245 0.0
N43 N 0.47909 0.19165 1.0002 0.0
C44 C 0.51116 0.20186 0.98545 0.0
C45 C 0.51165 0.20123 0.90743 0.0
C46 C 0.46115 0.1834 0.93095 0.0
N47 N 0.48002 0.19003 0.87338 0.0
C48 C 0.52474 0.21706 0.18596 0.0
C49 C 0.5157 0.2837 0.14278 0.0
C50 C 0.54779 0.27533 0.18088 0.0
C51 C 0.55178 0.24188 0.20502 0.0
C52 C 0.48925 0.25835 0.12573 0.0
N53 N 0.49411 0.22505 0.14513 0.0
H54 H 0.52913 0.19086 0.20126 0.0
H55 H 0.46605 0.26556 0.09271 0.0
H56 H 0.53273 0.20959 0.02807 0.0
H57 H 0.43434 0.17385 0.92308 0.0
O58 O 0.49516 0.14856 0.10985 0.0
O59 O 0.44034 0.14215 0.05736 0.0
O60 O 0.42194 0.21873 0.08375 0.0
C61 C 0.46994 0.12773 0.07822 0.0
H62 H 0.38203 0.16042 0.29375 0.0
H63 H 0.53315 0.20968 0.87825 0.0
H64 H 0.51142 0.30943 0.12399 0.0
H65 H 0.57626 0.23435 0.23463 0.0
Co66 Co 0.8116 0.54055 0.12195 0.0
C67 C 0.8148 0.54938 0.95597 0.0
C68 C 0.76236 0.55107 0.9877 0.0
C69 C 0.76127 0.55559 0.91116 0.0
N70 N 0.7959 0.54698 1.01593 0.0
N71 N 0.79428 0.55459 0.89131 0.0
H72 H 0.84291 0.54713 0.95878 0.0
H73 H 0.74014 0.55109 0.02076 0.0
C74 C 0.78604 0.6119 0.13993 0.0
O75 O 0.81441 0.62023 0.10978 0.0
N76 N 0.82664 0.53374 0.22751 0.0
C77 C 0.83816 0.50318 0.25128 0.0
C78 C 0.84262 0.50644 0.32983 0.0
C79 C 0.82406 0.55527 0.29221 0.0
N80 N 0.83383 0.53905 0.35517 0.0
C81 C 0.77024 0.47805 0.07669 0.0
C82 C 0.72762 0.48805 0.19421 0.0
C83 C 0.7252 0.45639 0.14714 0.0
C84 C 0.7461 0.45184 0.08627 0.0
C85 C 0.75159 0.51364 0.18208 0.0
N86 N 0.77309 0.50815 0.12513 0.0
H87 H 0.78755 0.47379 0.0321 0.0
H88 H 0.75407 0.53714 0.22136 0.0
H89 H 0.8416 0.47959 0.21408 0.0
H90 H 0.81404 0.58155 0.29349 0.0
O91 O 0.84673 0.50802 0.08928 0.0
O92 O 0.85548 0.56502 0.11593 0.0
O93 O 0.7812 0.58054 0.15396 0.0
C94 C 0.86825 0.53459 0.09562 0.0
H95 H 0.73802 0.55994 0.87346 0.0
H96 H 0.8505 0.4861 0.36583 0.0
H97 H 0.71171 0.49264 0.24141 0.0
H98 H 0.74499 0.42764 0.04885 0.0
Co99 Co 0.46818 0.81365 0.09067 0.0
C100 C 0.45569 0.82512 0.92394 0.0
C101 C 0.443 0.77299 0.94609 0.0
C102 C 0.4395 0.77446 0.86828 0.0
N103 N 0.4533 0.80465 0.98143 0.0
N104 N 0.44746 0.80716 0.8544 0.0
H105 H 0.46517 0.85187 0.93194 0.0
H106 H 0.44 0.74978 0.97469 0.0
C107 C 0.42326 0.76271 0.16436 0.0
O108 O 0.44279 0.76745 0.22995 0.0
N109 N 0.48378 0.82307 0.19955 0.0
C110 C 0.51705 0.82041 0.23114 0.0
C111 C 0.51799 0.82725 0.30915 0.0
C112 C 0.46536 0.83412 0.25885 0.0
N113 N 0.48553 0.83558 0.32663 0.0
C114 C 0.52747 0.7829 0.03014 0.0
C115 C 0.53937 0.73188 0.12852 0.0
C116 C 0.566 0.74034 0.08456 0.0
C117 C 0.5589 0.76487 0.03191 0.0
C118 C 0.50802 0.75052 0.12465 0.0
N119 N 0.50324 0.77716 0.0791 0.0
H120 H 0.52368 0.80337 0.99274 0.0
H121 H 0.4894 0.74518 0.16308 0.0
H122 H 0.53915 0.81312 0.19989 0.0
H123 H 0.43736 0.83819 0.25313 0.0
O124 O 0.49752 0.85178 0.07405 0.0
O125 O 0.44196 0.85729 0.09599 0.0
O126 O 0.42995 0.77902 0.10771 0.0
C127 C 0.4712 0.8722 0.0836 0.0
H128 H 0.43258 0.75286 0.82499 0.0
H129 H 0.54059 0.82513 0.35033 0.0
H130 H 0.54365 0.71289 0.16962 0.0
H131 H 0.57828 0.77149 0.99506 0.0
H132 H 0.20475 0.48614 0.72266 0.0
H133 H 0.13759 0.56849 0.80819 0.0
H134 H 0.12577 0.58638 0.67809 0.0
H135 H 0.2427 0.53516 0.58954 0.0
H136 H 0.24437 0.49866 0.51743 0.0
H137 H 0.24659 0.49134 0.61683 0.0
H138 H 0.19349 0.4487 0.58667 0.0
H139 H 0.19099 0.45605 0.48715 0.0
H140 H 0.15322 0.46339 0.53923 0.0
H141 H 0.12184 0.59616 0.54064 0.0
H142 H 0.12861 0.59959 0.40442 0.0
H143 H 0.1984 0.51122 0.40492 0.0
C144 C 0.18729 0.50771 0.7138 0.0
C145 C 0.1721 0.52594 0.77585 0.0
C146 C 0.14987 0.55441 0.76201 0.0
C147 C 0.14275 0.56457 0.68811 0.0
C148 C 0.15807 0.54605 0.62839 0.0
C149 C 0.18004 0.51835 0.64024 0.0
C150 C 0.1942 0.50389 0.56627 0.0
C151 C 0.23435 0.50749 0.57294 0.0
C152 C 0.18225 0.46574 0.5435 0.0
C153 C 0.17689 0.52795 0.51112 0.0
C154 C 0.156 0.55189 0.54841 0.0
C155 C 0.13807 0.57754 0.51081 0.0
C156 C 0.14217 0.57935 0.43351 0.0
C157 C 0.16407 0.55575 0.39421 0.0
C158 C 0.18113 0.52926 0.4333 0.0
H159 H 0.51747 0.17754 0.75041 0.0
H160 H 0.41415 0.20407 0.81593 0.0
H161 H 0.3928 0.20792 0.68089 0.0
H162 H 0.5175 0.234 0.59866 0.0
H163 H 0.53948 0.20331 0.53627 0.0
H164 H 0.54731 0.20294 0.6385 0.0
H165 H 0.52932 0.13748 0.62581 0.0
H166 H 0.52176 0.13758 0.52355 0.0
H167 H 0.48736 0.12371 0.57637 0.0
H168 H 0.38249 0.20968 0.54105 0.0
H169 H 0.38212 0.20423 0.40099 0.0
H170 H 0.49158 0.17551 0.42192 0.0
C171 C 0.4904 0.18423 0.73615 0.0
C172 C 0.46743 0.1904 0.79378 0.0
C173 C 0.43208 0.19872 0.77286 0.0
C174 C 0.4198 0.20132 0.69633 0.0
C175 C 0.44312 0.19538 0.64115 0.0
C176 C 0.47757 0.18664 0.65966 0.0
C177 C 0.49667 0.18039 0.58835 0.0
C178 C 0.52704 0.20674 0.59061 0.0
C179 C 0.50953 0.14254 0.57792 0.0
C180 C 0.46747 0.18696 0.52702 0.0
C181 C 0.43696 0.19584 0.55925 0.0
C182 C 0.40615 0.2026 0.51505 0.0
C183 C 0.40618 0.19932 0.43555 0.0
C184 C 0.43672 0.18917 0.40064 0.0
C185 C 0.46799 0.18361 0.44718 0.0
H186 H 0.75686 0.53756 0.75294 0.0
H187 H 0.85685 0.57999 0.85992 0.0
H188 H 0.87606 0.58546 0.73241 0.0
H189 H 0.79014 0.48642 0.59959 0.0
H190 H 0.75391 0.49404 0.53025 0.0
H191 H 0.74739 0.49566 0.62995 0.0
H192 H 0.72277 0.55817 0.62602 0.0
H193 H 0.72946 0.5568 0.52626 0.0
H194 H 0.74874 0.59171 0.59348 0.0
H195 H 0.8854 0.58382 0.59257 0.0
H196 H 0.8849 0.57192 0.45153 0.0
H197 H 0.77919 0.53098 0.436 0.0
C198 C 0.78258 0.54855 0.74968 0.0
C199 C 0.80528 0.55844 0.81673 0.0
C200 C 0.83907 0.57193 0.80961 0.0
C201 C 0.85011 0.57543 0.73735 0.0
C202 C 0.82707 0.56538 0.67252 0.0
C203 C 0.79405 0.55209 0.67802 0.0
C204 C 0.77504 0.54139 0.59954 0.0
C205 C 0.76611 0.50204 0.58926 0.0
C206 C 0.74205 0.56333 0.58552 0.0
C207 C 0.80272 0.55021 0.549 0.0
C208 C 0.83242 0.56443 0.59214 0.0
C209 C 0.86211 0.57319 0.55824 0.0
C210 C 0.86161 0.56661 0.47843 0.0
C211 C 0.83174 0.55149 0.43379 0.0
C212 C 0.80187 0.54352 0.46934 0.0
H213 H 0.47616 0.7718 0.73669 0.0
H214 H 0.4254 0.86866 0.80459 0.0
H215 H 0.42739 0.88661 0.67371 0.0
H216 H 0.53536 0.80937 0.62066 0.0
H217 H 0.5338 0.77145 0.55134 0.0
H218 H 0.52723 0.76666 0.6492 0.0
H219 H 0.46771 0.73537 0.60402 0.0
H220 H 0.47396 0.74031 0.50604 0.0
H221 H 0.43502 0.75685 0.54534 0.0
H222 H 0.43275 0.89177 0.53024 0.0
H223 H 0.44768 0.88694 0.39555 0.0
H224 H 0.49825 0.78851 0.42806 0.0
C225 C 0.46537 0.79674 0.7238 0.0
C226 C 0.45026 0.81874 0.78015 0.0
C227 C 0.43706 0.85152 0.76194 0.0
C228 C 0.43793 0.86175 0.68776 0.0
C229 C 0.45266 0.83912 0.63302 0.0
C230 C 0.46668 0.80754 0.6509 0.0
C231 C 0.48243 0.78845 0.58362 0.0
C232 C 0.52205 0.78372 0.60234 0.0
C233 C 0.46365 0.75316 0.55828 0.0
C234 C 0.47491 0.81396 0.52452 0.0
C235 C 0.4573 0.84287 0.55331 0.0
C236 C 0.44683 0.86937 0.50761 0.0
C237 C 0.45518 0.86642 0.4313 0.0
C238 C 0.47431 0.83757 0.40225 0.0
C239 C 0.48394 0.81102 0.44948 0.0
H240 H 0.9228 0.58273 0.12355 0.0
H241 H 0.89651 0.47641 0.02685 0.0
H242 H 0.95745 0.4676 0.99806 0.0
H243 H 0.9867 0.60073 0.98996 0.0
H244 H 0.01592 0.6252 0.06276 0.0
H245 H 0.9695 0.62456 0.07092 0.0
H246 H 0.98093 0.60232 0.20458 0.0
H247 H 0.02733 0.60303 0.19698 0.0
H248 H 0.00609 0.5633 0.21505 0.0
H249 H 0.02089 0.46829 0.98758 0.0
H250 H 0.08474 0.47779 0.99928 0.0
H251 H 0.07209 0.58385 0.10126 0.0
C252 C 0.92985 0.55777 0.09547 0.0
C253 C 0.90485 0.53025 0.07718 0.0
C254 C 0.91515 0.49783 0.04144 0.0
C255 C 0.9497 0.49262 0.02449 0.0
C256 C 0.97374 0.52008 0.04358 0.0
C257 C 0.96446 0.55202 0.07843 0.0
C258 C 0.99619 0.57632 0.09684 0.0
C259 C 0.99181 0.60862 0.05246 0.0
C260 C 0.00303 0.58685 0.1835 0.0
C261 C 0.02478 0.55278 0.06803 0.0
C262 C 0.01096 0.52057 0.03704 0.0
C263 C 0.032 0.49351 1.01078 0.0
C264 C 0.06821 0.49915 0.01775 0.0
C265 C 0.08318 0.53162 0.05029 0.0
C266 C 0.06116 0.55908 0.07445 0.0
H267 H 0.42084 0.92449 0.08152 0.0
H268 H 0.53229 0.90604 0.07671 0.0
H269 H 0.54259 0.96824 0.06846 0.0
H270 H 0.41564 0.99115 0.94761 0.0
H271 H 0.38497 0.01781 0.99751 0.0
H272 H 0.38525 0.97122 1.00207 0.0
H273 H 0.39381 0.98093 0.15005 0.0
H274 H 0.39336 0.02752 0.14593 0.0
H275 H 0.42994 0.00773 0.19679 0.0
H276 H 0.5425 0.03153 0.06554 0.0
H277 H 0.5315 0.09461 0.06849 0.0
H278 H 0.42024 0.07496 0.07114 0.0
C279 C 0.44732 0.93366 0.07866 0.0
C280 C 0.47571 0.91022 0.07961 0.0
C281 C 0.51001 0.92325 0.07574 0.0
C282 C 0.51624 0.95865 0.07097 0.0
C283 C 0.48793 0.981 0.0697 0.0
C284 C 0.45412 0.9693 0.07337 0.0
C285 C 0.42877 0.9996 0.07187 0.0
C286 C 0.40208 0.99464 1.00051 0.0
C287 C 0.41039 0.00421 0.14556 0.0
C288 C 0.45384 0.02992 0.06775 0.0
C289 C 0.4878 0.0183 0.06648 0.0
C290 C 0.51601 0.04103 0.06587 0.0
C291 C 0.50951 0.07681 0.06762 0.0
C292 C 0.47506 0.08958 0.06939 0.0
C293 C 0.44676 0.06577 0.06843 0.0
H294 H 0.38351 0.29373 0.95892 0.0
H295 H 0.37285 0.23984 0.1599 0.0
H296 H 0.33233 0.28504 0.20511 0.0
H297 H 0.38468 0.37912 0.05152 0.0
H298 H 0.35952 0.398 0.97455 0.0
H299 H 0.38564 0.36005 0.95418 0.0
H300 H 0.331 0.3264 0.88468 0.0
H301 H 0.30478 0.36444 0.90385 0.0
H302 H 0.29239 0.32315 0.93384 0.0
H303 H 0.29619 0.33817 0.23329 0.0
H304 H 0.26409 0.39376 0.23818 0.0
H305 H 0.29737 0.41248 0.01807 0.0
C306 C 0.3722 0.29104 1.01174 0.0
C307 C 0.38146 0.26315 0.05576 0.0
C308 C 0.36623 0.2609 0.125 0.0
C309 C 0.34319 0.2865 0.15134 0.0
C310 C 0.33541 0.31413 0.10768 0.0
C311 C 0.34911 0.31638 0.03894 0.0
C312 C 0.33723 0.34929 1.00411 0.0
C313 C 0.36864 0.37301 0.99563 0.0
C314 C 0.31502 0.34027 0.92706 0.0
C315 C 0.31521 0.36542 0.06463 0.0
C316 C 0.31443 0.3447 0.12379 0.0
C317 C 0.2963 0.35446 0.18688 0.0
C318 C 0.27809 0.38605 0.18909 0.0
C319 C 0.27815 0.40756 0.1286 0.0
C320 C 0.29715 0.39697 0.0658 0.0
H321 H 0.67548 0.41757 0.05082 0.0
H322 H 0.72381 0.43101 0.28489 0.0
H323 H 0.68506 0.38479 0.31845 0.0
H324 H 0.58839 0.40531 0.09736 0.0
H325 H 0.57618 0.37312 0.01744 0.0
H326 H 0.6092 0.40565 1.01043 0.0
H327 H 0.65294 0.35691 0.97526 0.0
H328 H 0.61999 0.32422 0.9819 0.0
H329 H 0.66188 0.32313 0.03784 0.0
H330 H 0.64068 0.33752 0.32702 0.0
H331 H 0.59176 0.29435 0.31086 0.0
H332 H 0.57091 0.31322 0.07274 0.0
C333 C 0.67809 0.41042 0.10882 0.0
C334 C 0.7026 0.42773 0.16532 0.0
C335 C 0.70501 0.41813 0.24095 0.0
C336 C 0.68325 0.39184 0.26045 0.0
C337 C 0.65904 0.37552 0.20375 0.0
C338 C 0.65621 0.3845 0.12954 0.0
C339 C 0.62692 0.36398 0.08042 0.0
C340 C 0.59849 0.38848 0.04963 0.0
C341 C 0.6413 0.34067 1.01499 0.0
C342 C 0.61363 0.34232 0.13873 0.0
C343 C 0.63276 0.34906 0.20931 0.0
C344 C 0.62547 0.33202 0.27202 0.0
C345 C 0.59776 0.30754 0.26238 0.0
C346 C 0.57745 0.30073 0.19088 0.0
C347 C 0.5857 0.31831 0.12838 0.0
H348 H 0.58684 0.67289 0.10647 0.0
H349 H 0.62692 0.77782 0.09664 0.0
H350 H 0.68722 0.75696 0.11944 0.0
H351 H 0.65287 0.64902 0.25665 0.0
H352 H 0.6559 0.60461 0.21429 0.0
H353 H 0.6154 0.62781 0.20064 0.0
H354 H 0.6155 0.61564 0.05365 0.0
H355 H 0.65585 0.59228 0.06694 0.0
H356 H 0.65316 0.62839 1.00927 0.0
H357 H 0.74304 0.72489 0.13632 0.0
H358 H 0.79131 0.68276 0.14334 0.0
H359 H 0.71606 0.59851 0.14577 0.0
C360 C 0.60833 0.69147 0.10984 0.0
C361 C 0.60212 0.72693 0.09889 0.0
C362 C 0.63098 0.7504 0.10322 0.0
C363 C 0.66537 0.7389 0.11696 0.0
C364 C 0.67063 0.70383 0.12678 0.0
C365 C 0.64301 0.68038 0.12342 0.0
C366 C 0.65623 0.64378 0.13285 0.0
C367 C 0.64439 0.63053 0.20544 0.0
C368 C 0.64449 0.61854 0.06142 0.0
C369 C 0.69549 0.65036 0.14089 0.0
C370 C 0.70315 0.68525 0.13769 0.0
C371 C 0.73745 0.69754 0.13974 0.0
C372 C 0.76469 0.67343 0.14371 0.0
C373 C 0.7575 0.63746 0.14582 0.0
C374 C 0.72244 0.62595 0.14576 0.0
H375 H 0.36024 0.75786 0.07159 0.0
H376 H 0.42643 0.70304 0.23317 0.0
H377 H 0.38347 0.65464 0.21834 0.0
H378 H 0.27903 0.73406 0.1403 0.0
H379 H 0.25437 0.72926 0.04731 0.0
H380 H 0.29126 0.75906 0.06601 0.0
H381 H 0.31932 0.72767 0.9509 0.0
H382 H 0.28252 0.69773 0.93192 0.0
H383 H 0.32633 0.68122 0.94646 0.0
H384 H 0.3347 0.61241 0.18756 0.0
H385 H 0.27973 0.57969 0.15036 0.0
H386 H 0.2413 0.66184 1.01328 0.0
C387 C 0.36565 0.7355 0.10327 0.0
C388 C 0.39673 0.73415 0.15345 0.0
C389 C 0.40276 0.70474 0.19481 0.0
C390 C 0.3786 0.677 0.18646 0.0
C391 C 0.34818 0.67914 0.13722 0.0
C392 C 0.34127 0.70768 0.09684 0.0
C393 C 0.30539 0.70381 0.05126 0.0
C394 C 0.28108 0.7333 0.07783 0.0
C395 C 0.30859 0.70252 0.965 0.0
C396 C 0.29341 0.66869 0.07257 0.0
C397 C 0.31888 0.65492 0.12148 0.0
C398 C 0.31448 0.62288 0.14938 0.0
C399 C 0.28304 0.60443 0.12758 0.0
C400 C 0.25596 0.61808 0.07877 0.0
C401 C 0.26139 0.65068 0.05066 0.0
loop_
_geom_bond_atom_site_label_1
_geom_bond_atom_site_label_2
_geom_bond_distance
_geom_bond_site_symmetry_2
_ccdc_geom_bond_type
Co0 N4 2.148 . S
Co0 N10 2.128 1_554 S
Co0 N20 2.194 . S
Co0 O25 2.351 . S
Co0 O26 2.155 . S
Co0 O27 2.096 . S
C1 N4 1.301 . S
C1 N5 1.328 . S
C1 H6 0.930 . S
C2 C3 1.333 . S
C2 N4 1.317 . S
C2 H7 0.930 . S
C3 C2 1.333 . S
C3 N5 1.350 . S
C3 H29 0.931 . S
N4 Co0 2.148 . S
N4 C1 1.301 . S
N4 C2 1.317 . S
N5 C1 1.328 . S
N5 C3 1.350 . S
H6 C1 0.930 . S
H7 C2 0.930 . S
C8 O9 1.224 . S
C8 O27 1.247 . S
O9 C8 1.224 . S
N10 Co0 2.128 1_556 S
N10 C11 1.355 . S
N10 C13 1.311 . S
C11 N10 1.355 . S
C11 C12 1.363 . S
C11 H23 0.929 . S
C12 C11 1.363 . S
C12 N14 1.375 . S
C12 H30 0.931 . S
C13 N10 1.311 . S
C13 N14 1.347 . S
C13 H24 0.929 . S
N14 C12 1.375 . S
N14 C13 1.347 . S
C15 C18 1.365 . S
C15 N20 1.328 . S
C15 H21 0.929 . S
C16 C17 1.362 . S
C16 C19 1.378 . S
C16 H31 0.929 . S
C17 C16 1.362 . S
C17 C18 1.366 . S
C18 C15 1.365 . S
C18 C17 1.366 . S
C18 H32 0.930 . S
C19 C16 1.378 . S
C19 N20 1.315 . S
C19 H22 0.930 . S
N20 Co0 2.194 . S
N20 C15 1.328 . S
N20 C19 1.315 . S
H21 C15 0.929 . S
H22 C19 0.930 . S
H23 C11 0.929 . S
H24 C13 0.929 . S
O25 Co0 2.351 . S
O25 C28 1.244 . S
O26 Co0 2.155 . S
O26 C28 1.240 . S
O27 Co0 2.096 . S
O27 C8 1.247 . S
C28 O25 1.244 . S
C28 O26 1.240 . S
H29 C3 0.931 . S
H30 C12 0.931 . S
H31 C16 0.929 . S
H32 C18 0.930 . S
Co33 N37 2.148 . S
Co33 N43 2.128 1_554 S
Co33 N53 2.194 . S
Co33 O58 2.351 . S
Co33 O59 2.155 . S
Co33 O60 2.096 . S
C34 N37 1.301 . S
C34 N38 1.328 . S
C34 H39 0.930 . S
C35 C36 1.333 . S
C35 N37 1.317 . S
C35 H40 0.930 . S
C36 C35 1.333 . S
C36 N38 1.350 . S
C36 H62 0.931 . S
N37 Co33 2.148 . S
N37 C34 1.301 . S
N37 C35 1.317 . S
N38 C34 1.328 . S
N38 C36 1.350 . S
H39 C34 0.930 . S
H40 C35 0.930 . S
C41 O42 1.224 . S
C41 O60 1.247 . S
O42 C41 1.224 . S
N43 Co33 2.128 1_556 S
N43 C44 1.355 . S
N43 C46 1.311 . S
C44 N43 1.355 . S
C44 C45 1.363 . S
C44 H56 0.929 . S
C45 C44 1.363 . S
C45 N47 1.375 . S
C45 H63 0.931 . S
C46 N43 1.311 . S
C46 N47 1.347 . S
C46 H57 0.929 . S
N47 C45 1.375 . S
N47 C46 1.347 . S
C48 C51 1.365 . S
C48 N53 1.328 . S
C48 H54 0.929 . S
C49 C50 1.362 . S
C49 C52 1.378 . S
C49 H64 0.929 . S
C50 C49 1.362 . S
C50 C51 1.366 . S
C51 C48 1.365 . S
C51 C50 1.366 . S
C51 H65 0.930 . S
C52 C49 1.378 . S
C52 N53 1.315 . S
C52 H55 0.930 . S
N53 Co33 2.194 . S
N53 C48 1.328 . S
N53 C52 1.315 . S
H54 C48 0.929 . S
H55 C52 0.930 . S
H56 C44 0.929 . S
H57 C46 0.929 . S
O58 Co33 2.351 . S
O58 C61 1.244 . S
O59 Co33 2.155 . S
O59 C61 1.240 . S
O60 Co33 2.096 . S
O60 C41 1.247 . S
C61 O58 1.244 . S
C61 O59 1.240 . S
H62 C36 0.931 . S
H63 C45 0.931 . S
H64 C49 0.929 . S
H65 C51 0.930 . S
Co66 N70 2.148 . S
Co66 N76 2.128 . S
Co66 N86 2.194 . S
Co66 O91 2.351 . S
Co66 O92 2.155 . S
Co66 O93 2.096 . S
C67 N70 1.301 1_556 S
C67 N71 1.328 . S
C67 H72 0.930 . S
C68 C69 1.333 . S
C68 N70 1.317 1_556 S
C68 H73 0.930 1_556 S
C69 C68 1.333 . S
C69 N71 1.350 . S
C69 H95 0.931 . S
N70 Co66 2.148 . S
N70 C67 1.301 1_554 S
N70 C68 1.317 1_554 S
N71 C67 1.328 . S
N71 C69 1.350 . S
H72 C67 0.930 . S
H73 C68 0.930 1_554 S
C74 O75 1.224 . S
C74 O93 1.247 . S
O75 C74 1.224 . S
N76 Co66 2.128 . S
N76 C77 1.355 . S
N76 C79 1.311 . S
C77 N76 1.355 . S
C77 C78 1.363 . S
C77 H89 0.929 . S
C78 C77 1.363 . S
C78 N80 1.375 . S
C78 H96 0.931 . S
C79 N76 1.311 . S
C79 N80 1.347 . S
C79 H90 0.929 . S
N80 C78 1.375 . S
N80 C79 1.347 . S
C81 C84 1.365 . S
C81 N86 1.328 . S
C81 H87 0.929 . S
C82 C83 1.362 . S
C82 C85 1.378 . S
C82 H97 0.929 . S
C83 C82 1.362 . S
C83 C84 1.366 . S
C84 C81 1.365 . S
C84 C83 1.366 . S
C84 H98 0.930 . S
C85 C82 1.378 . S
C85 N86 1.315 . S
C85 H88 0.930 . S
N86 Co66 2.194 . S
N86 C81 1.328 . S
N86 C85 1.315 . S
H87 C81 0.929 . S
H88 C85 0.930 . S
H89 C77 0.929 . S
H90 C79 0.929 . S
O91 Co66 2.351 . S
O91 C94 1.244 . S
O92 Co66 2.155 . S
O92 C94 1.240 . S
O93 Co66 2.096 . S
O93 C74 1.247 . S
C94 O91 1.244 . S
C94 O92 1.240 . S
H95 C69 0.931 . S
H96 C78 0.931 . S
H97 C82 0.929 . S
H98 C84 0.930 . S
Co99 N103 2.148 . S
Co99 N109 2.128 . S
Co99 N119 2.194 . S
Co99 O124 2.351 . S
Co99 O125 2.155 . S
Co99 O126 2.096 . S
C100 N103 1.301 1_556 S
C100 N104 1.328 . S
C100 H105 0.930 . S
C101 C102 1.333 . S
C101 N103 1.317 1_556 S
C101 H106 0.930 . S
C102 C101 1.333 . S
C102 N104 1.350 . S
C102 H128 0.931 . S
N103 Co99 2.148 . S
N103 C100 1.301 1_554 S
N103 C101 1.317 1_554 S
N104 C100 1.328 . S
N104 C102 1.350 . S
H105 C100 0.930 . S
H106 C101 0.930 . S
C107 O108 1.224 . S
C107 O126 1.247 . S
O108 C107 1.224 . S
N109 Co99 2.128 . S
N109 C110 1.355 . S
N109 C112 1.311 . S
C110 N109 1.355 . S
C110 C111 1.363 . S
C110 H122 0.929 . S
C111 C110 1.363 . S
C111 N113 1.375 . S
C111 H129 0.931 . S
C112 N109 1.311 . S
C112 N113 1.347 . S
C112 H123 0.929 . S
N113 C111 1.375 . S
N113 C112 1.347 . S
C114 C117 1.365 . S
C114 N119 1.328 . S
C114 H120 0.929 . S
C115 C116 1.362 . S
C115 C118 1.378 . S
C115 H130 0.929 . S
C116 C115 1.362 . S
C116 C117 1.366 . S
C117 C114 1.365 . S
C117 C116 1.366 . S
C117 H131 0.930 . S
C118 C115 1.378 . S
C118 N119 1.315 . S
C118 H121 0.930 . S
N119 Co99 2.194 . S
N119 C114 1.328 . S
N119 C118 1.315 . S
H120 C114 0.929 . S
H121 C118 0.930 . S
H122 C110 0.929 . S
H123 C112 0.929 . S
O124 Co99 2.351 . S
O124 C127 1.244 . S
O125 Co99 2.155 . S
O125 C127 1.240 . S
O126 Co99 2.096 . S
O126 C107 1.247 . S
C127 O124 1.244 . S
C127 O125 1.240 . S
H128 C102 0.931 . S
H129 C111 0.931 . S
H130 C115 0.929 . S
H131 C117 0.930 . S
H132 C144 0.930 . S
H133 C146 0.930 . S
H134 C147 0.930 . S
H135 C151 0.959 . S
H136 C151 0.959 . S
H137 C151 0.961 . S
H138 C152 0.960 . S
H139 C152 0.961 . S
H140 C152 0.959 . S
H141 C155 0.929 . S
H142 C156 0.931 . S
H143 C158 0.930 . S
C144 H132 0.930 . S
C144 C145 1.399 . S
C144 C149 1.399 . S
C145 C144 1.399 . S
C145 C146 1.376 . S
C146 H133 0.930 . S
C146 C145 1.376 . S
C146 C147 1.388 . S
C147 H134 0.930 . S
C147 C146 1.388 . S
C147 C148 1.390 . S
C148 C147 1.390 . S
C148 C149 1.394 . S
C148 C154 1.465 . S
C149 C144 1.399 . S
C149 C148 1.394 . S
C149 C150 1.516 . S
C150 C149 1.516 . S
C150 C151 1.502 . S
C150 C152 1.561 . S
C150 C153 1.526 . S
C151 H135 0.959 . S
C151 H136 0.959 . S
C151 H137 0.961 . S
C151 C150 1.502 . S
C152 H138 0.960 . S
C152 H139 0.961 . S
C152 H140 0.959 . S
C152 C150 1.561 . S
C153 C150 1.526 . S
C153 C154 1.396 . S
C153 C158 1.390 . S
C154 C148 1.465 . S
C154 C153 1.396 . S
C154 C155 1.399 . S
C155 H141 0.929 . S
C155 C154 1.399 . S
C155 C156 1.385 . S
C156 H142 0.931 . S
C156 C155 1.385 . S
C156 C157 1.389 . S
C157 C156 1.389 . S
C157 C158 1.387 . S
C158 H143 0.930 . S
C158 C153 1.390 . S
C158 C157 1.387 . S
H159 C171 0.930 . S
H160 C173 0.930 . S
H161 C174 0.930 . S
H162 C178 0.959 . S
H163 C178 0.959 . S
H164 C178 0.961 . S
H165 C179 0.960 . S
H166 C179 0.961 . S
H167 C179 0.959 . S
H168 C182 0.929 . S
H169 C183 0.931 . S
H170 C185 0.930 . S
C171 H159 0.930 . S
C171 C172 1.399 . S
C171 C176 1.399 . S
C172 C171 1.399 . S
C172 C173 1.376 . S
C173 H160 0.930 . S
C173 C172 1.376 . S
C173 C174 1.388 . S
C174 H161 0.930 . S
C174 C173 1.388 . S
C174 C175 1.390 . S
C175 C174 1.390 . S
C175 C176 1.394 . S
C175 C181 1.465 . S
C176 C171 1.399 . S
C176 C175 1.394 . S
C176 C177 1.516 . S
C177 C176 1.516 . S
C177 C178 1.502 . S
C177 C179 1.561 . S
C177 C180 1.526 . S
C178 H162 0.959 . S
C178 H163 0.959 . S
C178 H164 0.961 . S
C178 C177 1.502 . S
C179 H165 0.960 . S
C179 H166 0.961 . S
C179 H167 0.959 . S
C179 C177 1.561 . S
C180 C177 1.526 . S
C180 C181 1.396 . S
C180 C185 1.390 . S
C181 C175 1.465 . S
C181 C180 1.396 . S
C181 C182 1.399 . S
C182 H168 0.929 . S
C182 C181 1.399 . S
C182 C183 1.385 . S
C183 H169 0.931 . S
C183 C182 1.385 . S
C183 C184 1.389 . S
C184 C183 1.389 . S
C184 C185 1.387 . S
C185 H170 0.930 . S
C185 C180 1.390 . S
C185 C184 1.387 . S
H186 C198 0.930 . S
H187 C200 0.930 . S
H188 C201 0.930 . S
H189 C205 0.959 . S
H190 C205 0.959 . S
H191 C205 0.961 . S
H192 C206 0.960 . S
H193 C206 0.961 . S
H194 C206 0.959 . S
H195 C209 0.929 . S
H196 C210 0.931 . S
H197 C212 0.930 . S
C198 H186 0.930 . S
C198 C199 1.399 . S
C198 C203 1.399 . S
C199 C198 1.399 . S
C199 C200 1.376 . S
C200 H187 0.930 . S
C200 C199 1.376 . S
C200 C201 1.388 . S
C201 H188 0.930 . S
C201 C200 1.388 . S
C201 C202 1.390 . S
C202 C201 1.390 . S
C202 C203 1.394 . S
C202 C208 1.465 . S
C203 C198 1.399 . S
C203 C202 1.394 . S
C203 C204 1.516 . S
C204 C203 1.516 . S
C204 C205 1.502 . S
C204 C206 1.561 . S
C204 C207 1.526 . S
C205 H189 0.959 . S
C205 H190 0.959 . S
C205 H191 0.961 . S
C205 C204 1.502 . S
C206 H192 0.960 . S
C206 H193 0.961 . S
C206 H194 0.959 . S
C206 C204 1.561 . S
C207 C204 1.526 . S
C207 C208 1.396 . S
C207 C212 1.390 . S
C208 C202 1.465 . S
C208 C207 1.396 . S
C208 C209 1.399 . S
C209 H195 0.929 . S
C209 C208 1.399 . S
C209 C210 1.385 . S
C210 H196 0.931 . S
C210 C209 1.385 . S
C210 C211 1.389 . S
C211 C210 1.389 . S
C211 C212 1.387 . S
C212 H197 0.930 . S
C212 C207 1.390 . S
C212 C211 1.387 . S
H213 C225 0.930 . S
H214 C227 0.930 . S
H215 C228 0.930 . S
H216 C232 0.959 . S
H217 C232 0.959 . S
H218 C232 0.961 . S
H219 C233 0.960 . S
H220 C233 0.961 . S
H221 C233 0.959 . S
H222 C236 0.929 . S
H223 C237 0.931 . S
H224 C239 0.930 . S
C225 H213 0.930 . S
C225 C226 1.399 . S
C225 C230 1.399 . S
C226 C225 1.399 . S
C226 C227 1.376 . S
C227 H214 0.930 . S
C227 C226 1.376 . S
C227 C228 1.388 . S
C228 H215 0.930 . S
C228 C227 1.388 . S
C228 C229 1.390 . S
C229 C228 1.390 . S
C229 C230 1.394 . S
C229 C235 1.465 . S
C230 C225 1.399 . S
C230 C229 1.394 . S
C230 C231 1.516 . S
C231 C230 1.516 . S
C231 C232 1.502 . S
C231 C233 1.561 . S
C231 C234 1.526 . S
C232 H216 0.959 . S
C232 H217 0.959 . S
C232 H218 0.961 . S
C232 C231 1.502 . S
C233 H219 0.960 . S
C233 H220 0.961 . S
C233 H221 0.959 . S
C233 C231 1.561 . S
C234 C231 1.526 . S
C234 C235 1.396 . S
C234 C239 1.390 . S
C235 C229 1.465 . S
C235 C234 1.396 . S
C235 C236 1.399 . S
C236 H222 0.929 . S
C236 C235 1.399 . S
C236 C237 1.385 . S
C237 H223 0.931 . S
C237 C236 1.385 . S
C237 C238 1.389 . S
C238 C237 1.389 . S
C238 C239 1.387 . S
C239 H224 0.930 . S
C239 C234 1.390 . S
C239 C238 1.387 . S
H240 C252 0.930 . S
H241 C254 0.930 . S
H242 C255 0.930 . S
H243 C259 0.959 1_556 S
H244 C259 0.936 1_455 S
H245 C259 0.961 . S
H246 C260 0.960 . S
H247 C260 0.961 1_455 S
H248 C260 0.959 1_455 S
H249 C263 0.929 . S
H250 C264 0.931 . S
H251 C266 0.930 . S
C252 H240 0.930 . S
C252 C253 1.399 . S
C252 C257 1.399 . S
C253 C252 1.399 . S
C253 C254 1.376 . S
C254 H241 0.930 . S
C254 C253 1.376 . S
C254 C255 1.388 . S
C255 H242 0.930 . S
C255 C254 1.388 . S
C255 C256 1.390 . S
C256 C255 1.390 . S
C256 C257 1.394 . S
C256 C262 1.465 1_655 S
C257 C252 1.399 . S
C257 C256 1.394 . S
C257 C258 1.516 . S
C258 C257 1.516 . S
C258 C259 1.502 . S
C258 C260 1.561 . S
C258 C261 1.526 1_655 S
C259 H243 0.959 1_554 S
C259 H244 0.936 1_655 S
C259 H245 0.961 . S
C259 C258 1.502 . S
C260 H246 0.960 . S
C260 H247 0.961 1_655 S
C260 H248 0.959 1_655 S
C260 C258 1.561 . S
C261 C258 1.526 1_455 S
C261 C262 1.396 . S
C261 C266 1.390 . S
C262 C256 1.465 1_455 S
C262 C261 1.396 . S
C262 C263 1.399 . S
C263 H249 0.929 . S
C263 C262 1.399 . S
C263 C264 1.385 . S
C264 H250 0.931 . S
C264 C263 1.385 . S
C264 C265 1.389 . S
C265 C264 1.389 . S
C265 C266 1.387 . S
C266 H251 0.930 . S
C266 C261 1.390 . S
C266 C265 1.387 . S
H267 C279 0.930 . S
H268 C281 0.930 . S
H269 C282 0.930 . S
H270 C286 0.959 . S
H271 C286 0.959 1_545 S
H272 C286 0.961 . S
H273 C287 0.961 1_565 S
H274 C287 0.960 . S
H275 C287 0.959 1_554 S
H276 C290 0.929 . S
H277 C291 0.931 . S
H278 C293 0.930 1_556 S
C279 H267 0.930 . S
C279 C280 1.399 . S
C279 C284 1.399 . S
C280 C279 1.399 . S
C280 C281 1.376 . S
C281 H268 0.930 . S
C281 C280 1.376 . S
C281 C282 1.388 . S
C282 H269 0.930 . S
C282 C281 1.388 . S
C282 C283 1.390 . S
C283 C282 1.390 . S
C283 C284 1.394 . S
C283 C289 1.465 1_565 S
C284 C279 1.399 . S
C284 C283 1.394 . S
C284 C285 1.516 1_565 S
C285 C284 1.516 1_545 S
C285 C286 1.502 1_544 S
C285 C287 1.561 1_554 S
C285 C288 1.526 . S
C286 H270 0.959 . S
C286 H271 0.959 1_565 S
C286 H272 0.961 . S
C286 C285 1.502 1_566 S
C287 H273 0.961 1_545 S
C287 H274 0.960 . S
C287 H275 0.959 1_556 S
C287 C285 1.561 1_556 S
C288 C285 1.526 . S
C288 C289 1.396 . S
C288 C293 1.390 . S
C289 C283 1.465 1_545 S
C289 C288 1.396 . S
C289 C290 1.399 . S
C290 H276 0.929 . S
C290 C289 1.399 . S
C290 C291 1.385 . S
C291 H277 0.931 . S
C291 C290 1.385 . S
C291 C292 1.389 . S
C292 C291 1.389 . S
C292 C293 1.387 . S
C293 H278 0.930 1_554 S
C293 C288 1.390 . S
C293 C292 1.387 . S
H294 C306 0.930 . S
H295 C308 0.930 . S
H296 C309 0.930 . S
H297 C313 0.959 . S
H298 C313 0.959 . S
H299 C313 0.961 . S
H300 C314 0.960 . S
H301 C314 0.961 . S
H302 C314 0.959 . S
H303 C317 0.929 . S
H304 C318 0.931 . S
H305 C320 0.930 . S
C306 H294 0.930 . S
C306 C307 1.399 1_556 S
C306 C311 1.399 . S
C307 C306 1.399 1_554 S
C307 C308 1.376 . S
C308 H295 0.930 . S
C308 C307 1.376 . S
C308 C309 1.388 . S
C309 H296 0.930 . S
C309 C308 1.388 . S
C309 C310 1.390 . S
C310 C309 1.390 . S
C310 C311 1.394 1_554 S
C310 C316 1.465 . S
C311 C306 1.399 . S
C311 C310 1.394 1_556 S
C311 C312 1.516 . S
C312 C311 1.516 . S
C312 C313 1.502 . S
C312 C314 1.561 . S
C312 C315 1.526 1_556 S
C313 H297 0.959 . S
C313 H298 0.959 . S
C313 H299 0.961 . S
C313 C312 1.502 . S
C314 H300 0.960 . S
C314 H301 0.961 . S
C314 H302 0.959 . S
C314 C312 1.561 . S
C315 C312 1.526 1_554 S
C315 C316 1.396 . S
C315 C320 1.390 1_554 S
C316 C310 1.465 . S
C316 C315 1.396 . S
C316 C317 1.399 . S
C317 H303 0.929 . S
C317 C316 1.399 . S
C317 C318 1.385 . S
C318 H304 0.931 . S
C318 C317 1.385 . S
C318 C319 1.389 . S
C319 C318 1.389 . S
C319 C320 1.387 1_554 S
C320 H305 0.930 . S
C320 C315 1.390 1_556 S
C320 C319 1.387 1_556 S
H321 C333 0.930 1_556 S
H322 C335 0.930 . S
H323 C336 0.930 . S
H324 C340 0.959 . S
H325 C340 0.959 . S
H326 C340 0.961 . S
H327 C341 0.960 . S
H328 C341 0.961 . S
H329 C341 0.959 . S
H330 C344 0.929 . S
H331 C345 0.931 . S
H332 C347 0.930 1_556 S
C333 H321 0.930 1_554 S
C333 C334 1.399 . S
C333 C338 1.399 . S
C334 C333 1.399 . S
C334 C335 1.376 . S
C335 H322 0.930 . S
C335 C334 1.376 . S
C335 C336 1.388 . S
C336 H323 0.930 . S
C336 C335 1.388 . S
C336 C337 1.390 . S
C337 C336 1.390 . S
C337 C338 1.394 . S
C337 C343 1.465 . S
C338 C333 1.399 . S
C338 C337 1.394 . S
C338 C339 1.523 . S
C339 C338 1.523 . S
C339 C340 1.495 1_554 S
C339 C341 1.553 1_554 S
C339 C342 1.535 . S
C340 H324 0.959 . S
C340 H325 0.959 . S
C340 H326 0.961 . S
C340 C339 1.495 1_556 S
C341 H327 0.960 . S
C341 H328 0.961 . S
C341 H329 0.959 . S
C341 C339 1.553 1_556 S
C342 C339 1.535 . S
C342 C343 1.396 . S
C342 C347 1.390 . S
C343 C337 1.465 . S
C343 C342 1.396 . S
C343 C344 1.399 . S
C344 H330 0.929 . S
C344 C343 1.399 . S
C344 C345 1.385 . S
C345 H331 0.931 . S
C345 C344 1.385 . S
C345 C346 1.389 . S
C346 C345 1.389 . S
C346 C347 1.387 . S
C347 H332 0.930 1_554 S
C347 C342 1.390 . S
C347 C346 1.387 . S
H348 C360 0.930 . S
H349 C362 0.930 . S
H350 C363 0.930 . S
H351 C367 0.959 . S
H352 C367 0.959 1_556 S
H353 C367 0.961 1_556 S
H354 C368 0.968 . S
H355 C368 0.968 . S
H356 C368 0.955 1_554 S
H357 C371 0.929 . S
H358 C372 0.931 . S
H359 C374 0.930 . S
C360 H348 0.930 . S
C360 C361 1.399 . S
C360 C365 1.399 . S
C361 C360 1.399 . S
C361 C362 1.376 . S
C362 H349 0.930 . S
C362 C361 1.376 . S
C362 C363 1.388 . S
C363 H350 0.930 . S
C363 C362 1.388 . S
C363 C364 1.390 . S
C364 C363 1.390 . S
C364 C365 1.394 . S
C364 C370 1.465 . S
C365 C360 1.399 . S
C365 C364 1.394 . S
C365 C366 1.516 . S
C366 C365 1.516 . S
C366 C367 1.502 . S
C366 C368 1.550 1_554 S
C366 C369 1.526 . S
C367 H351 0.959 . S
C367 H352 0.959 1_554 S
C367 H353 0.961 1_554 S
C367 C366 1.502 . S
C368 H354 0.968 . S
C368 H355 0.968 . S
C368 H356 0.955 1_556 S
C368 C366 1.550 1_556 S
C369 C366 1.526 . S
C369 C370 1.396 . S
C369 C374 1.390 . S
C370 C364 1.465 . S
C370 C369 1.396 . S
C370 C371 1.399 . S
C371 H357 0.929 . S
C371 C370 1.399 . S
C371 C372 1.385 . S
C372 H358 0.931 . S
C372 C371 1.385 . S
C372 C373 1.389 . S
C373 C372 1.389 . S
C373 C374 1.387 . S
C374 H359 0.930 . S
C374 C369 1.390 . S
C374 C373 1.387 . S
H375 C387 0.930 . S
H376 C389 0.930 . S
H377 C390 0.930 . S
H378 C394 0.959 . S
H379 C394 0.959 . S
H380 C394 0.961 . S
H381 C395 0.960 . S
H382 C395 0.961 . S
H383 C395 0.959 . S
H384 C398 0.929 . S
H385 C399 0.931 . S
H386 C401 0.930 1_556 S
C387 H375 0.930 . S
C387 C388 1.399 . S
C387 C392 1.399 . S
C388 C387 1.399 . S
C388 C389 1.376 . S
C389 H376 0.930 . S
C389 C388 1.376 . S
C389 C390 1.388 . S
C390 H377 0.930 . S
C390 C389 1.388 . S
C390 C391 1.390 . S
C391 C390 1.390 . S
C391 C392 1.394 . S
C391 C397 1.465 . S
C392 C387 1.399 . S
C392 C391 1.394 . S
C392 C393 1.516 . S
C393 C392 1.516 . S
C393 C394 1.502 1_554 S
C393 C395 1.561 1_554 S
C393 C396 1.526 . S
C394 H378 0.959 . S
C394 H379 0.959 . S
C394 H380 0.961 . S
C394 C393 1.502 1_556 S
C395 H381 0.960 . S
C395 H382 0.961 . S
C395 H383 0.959 . S
C395 C393 1.561 1_556 S
C396 C393 1.526 . S
C396 C397 1.396 . S
C396 C401 1.390 . S
C397 C391 1.465 . S
C397 C396 1.396 . S
C397 C398 1.399 . S
C398 H384 0.929 . S
C398 C397 1.399 . S
C398 C399 1.385 . S
C399 H385 0.931 . S
C399 C398 1.385 . S
C399 C400 1.389 . S
C400 C399 1.389 . S
C400 C401 1.387 . S
C401 H386 0.930 1_554 S
C401 C396 1.390 . S
C401 C400 1.387 . S
C145 N14 1.456 . S
C157 N5 1.435 . S
C172 N47 1.496 . S
C184 N38 1.425 . S
C199 N71 1.500 . S
C211 N80 1.412 . S
C226 N104 1.446 . S
C238 N113 1.443 . S
C253 C94 0.985 . S
C265 C28 0.984 . S
C280 C127 0.982 . S
C292 C61 0.977 . S
C307 C41 1.477 . S
C319 C17 1.492 . S
C334 C83 1.240 . S
C346 C50 1.235 . S
C361 C116 1.500 . S
C373 C74 1.489 . S
C388 C107 1.776 . S
C400 C8 1.766 . S
