# Generated by pormake.
# Topology oof, (8)-cn, num edge types: 1
# Building blocks:
#     Node 0, Type 0, BuildingBlock: EBIMEJ_clean_sbu_0, # of connection points: 8
#     Node 1, Type 0, BuildingBlock: EBIMEJ_clean_sbu_0, # of connection points: 8
#     Node 2, Type 0, BuildingBlock: EBIMEJ_clean_sbu_0, # of connection points: 8
#     Node 3, Type 0, BuildingBlock: EBIMEJ_clean_sbu_0, # of connection points: 8
#     Edge 4, Type (0, 0), BuildingBlock: FUNLAD_clean_linker_1, # of connection points: 2
#     Edge 5, Type (0, 0), BuildingBlock: FUNLAD_clean_linker_1, # of connection points: 2
#     Edge 6, Type (0, 0), BuildingBlock: FUNLAD_clean_linker_1, # of connection points: 2
#     Edge 7, Type (0, 0), BuildingBlock: FUNLAD_clean_linker_1, # of connection points: 2
#     Edge 8, Type (0, 0), BuildingBlock: FUNLAD_clean_linker_1, # of connection points: 2
#     Edge 9, Type (0, 0), BuildingBlock: FUNLAD_clean_linker_1, # of connection points: 2
#     Edge 10, Type (0, 0), BuildingBlock: FUNLAD_clean_linker_1, # of connection points: 2
#     Edge 11, Type (0, 0), BuildingBlock: FUNLAD_clean_linker_1, # of connection points: 2
#     Edge 12, Type (0, 0), BuildingBlock: FUNLAD_clean_linker_1, # of connection points: 2
#     Edge 13, Type (0, 0), BuildingBlock: FUNLAD_clean_linker_1, # of connection points: 2
#     Edge 14, Type (0, 0), BuildingBlock: FUNLAD_clean_linker_1, # of connection points: 2
#     Edge 15, Type (0, 0), BuildingBlock: FUNLAD_clean_linker_1, # of connection points: 2
#     Edge 16, Type (0, 0), BuildingBlock: FUNLAD_clean_linker_1, # of connection points: 2
#     Edge 17, Type (0, 0), BuildingBlock: FUNLAD_clean_linker_1, # of connection points: 2
#     Edge 18, Type (0, 0), BuildingBlock: FUNLAD_clean_linker_1, # of connection points: 2
#     Edge 19, Type (0, 0), BuildingBlock: FUNLAD_clean_linker_1, # of connection points: 2
# Relax obj value: 0.054
# Max RMSD: 0.154
# Mean RMSD: 0.154
data_MOF--net-oof--node1-EBIMEJ_clean_sbu_0--edge1-FUNLAD_clean_linker_1
_symmetry_space_group_name_H-M    P1
_symmetry_Int_Tables_number       1
_symmetry_cell_setting            triclinic
loop_
_symmetry_equiv_pos_as_xyz
'x, y, z'
_cell_length_a     15.648892
_cell_length_b     70.085022
_cell_length_c     18.254663
_cell_angle_alpha  79.159821
_cell_angle_beta   123.0893
_cell_angle_gamma 96.300578
loop_
_atom_site_label
_atom_site_type_symbol
_atom_site_fract_x
_atom_site_fract_y
_atom_site_fract_z
_atom_type_partial_charge
Co0 Co 0.95705 0.1779 0.31396 0.0
Co1 Co 0.94414 0.15788 0.15732 0.0
Co2 Co 0.99517 0.13357 0.33049 0.0
H3 H 0.98994 0.15622 0.30871 0.0
O4 O 0.02141 0.16114 0.28308 0.0
H5 H 0.96682 0.13489 0.18485 0.0
O6 O 0.93222 0.12956 0.20711 0.0
Co7 Co 0.01583 0.11345 0.19092 0.0
O8 O 0.98017 0.12711 0.06837 0.0
O9 O 0.88184 0.15262 0.03373 0.0
O10 O 0.01519 0.09174 0.28474 0.0
O11 O 0.98162 0.10575 0.36798 0.0
O12 O 0.95488 0.19894 0.3784 0.0
O13 O 0.07701 0.19746 0.36463 0.0
O14 O 0.14291 0.12941 0.25624 0.0
O15 O 0.08058 0.15824 0.17448 0.0
C16 C 0.01044 0.14958 0.47558 0.0
C17 C 0.90247 0.2004 0.13546 0.0
C18 C 0.03497 0.08366 0.14201 0.0
C19 C 0.79074 0.15026 0.24018 0.0
C20 C 0.92109 0.1411 0.013 0.0
C21 C 0.99734 0.09087 0.34616 0.0
C22 C 0.03858 0.20636 0.39335 0.0
C23 C 0.15499 0.14685 0.22769 0.0
O24 O 0.95808 0.16436 0.42256 0.0
O25 O 0.05008 0.13837 0.45423 0.0
O26 O 0.93169 0.18711 0.11347 0.0
O27 O 0.89736 0.19772 0.20403 0.0
O28 O 0.10688 0.09463 0.18746 0.0
O29 O 0.9517 0.08947 0.12455 0.0
O30 O 0.82131 0.1673 0.22676 0.0
O31 O 0.85251 0.13686 0.29576 0.0
Co32 Co 0.01441 0.92893 0.82569 0.0
Co33 Co 0.0514 0.90791 0.69661 0.0
Co34 Co 0.06978 0.88352 0.85866 0.0
H35 H 0.05852 0.90676 0.83413 0.0
O36 O 0.10041 0.91136 0.81856 0.0
H37 H 0.04218 0.88527 0.71318 0.0
O38 O 0.00307 0.88141 0.73241 0.0
Co39 Co 0.0648 0.86258 0.70866 0.0
O40 O 0.08928 0.87529 0.61231 0.0
O41 O 0.01188 0.90366 0.57503 0.0
O42 O 0.12171 0.84347 0.8206 0.0
O43 O 0.06617 0.85426 0.89618 0.0
O44 O 0.91673 0.94704 0.82411 0.0
O45 O 0.07183 0.95255 0.89497 0.0
O46 O 0.20666 0.86983 0.80063 0.0
O47 O 0.19581 0.90137 0.74682 0.0
C48 C 0.09282 0.90107 1.00304 0.0
C49 C 0.06055 0.95034 0.68399 0.0
C50 C 0.95447 0.83571 0.62875 0.0
C51 C 0.86183 0.89822 0.76997 0.0
C52 C 0.05125 0.89106 0.55938 0.0
C53 C 0.10351 0.84086 0.88189 0.0
C54 C 0.9859 0.95797 0.87299 0.0
C55 C 0.24773 0.88632 0.7974 0.0
O56 O 0.04717 0.91651 0.94954 0.0
O57 O 0.12138 0.88771 0.9816 0.0
O58 O 0.08314 0.9352 0.66873 0.0
O59 O 0.02863 0.94988 0.73607 0.0
O60 O 0.05012 0.83534 0.67454 0.0
O61 O 0.92147 0.85146 0.62654 0.0
O62 O 0.88489 0.91505 0.74501 0.0
O63 O 0.92965 0.8861 0.82936 0.0
Co64 Co 0.49473 0.67767 0.32455 0.0
Co65 Co 0.44893 0.65794 0.15259 0.0
Co66 Co 0.48103 0.63225 0.31667 0.0
H67 H 0.4995 0.65489 0.30676 0.0
O68 O 0.53276 0.65853 0.28164 0.0
H69 H 0.45851 0.63471 0.1728 0.0
O70 O 0.41951 0.63002 0.19138 0.0
Co71 Co 0.49851 0.6127 0.17545 0.0
O72 O 0.45519 0.62649 0.05019 0.0
O73 O 0.37987 0.65469 0.02567 0.0
O74 O 0.49065 0.59123 0.26644 0.0
O75 O 0.44191 0.60508 0.33999 0.0
O76 O 0.52123 0.70427 0.36677 0.0
O77 O 0.6428 0.68781 0.39914 0.0
O78 O 0.6314 0.62648 0.24852 0.0
O79 O 0.57965 0.65525 0.16371 0.0
C80 C 0.51394 0.64783 0.47258 0.0
C81 C 0.42844 0.70052 0.14424 0.0
C82 C 0.51682 0.58207 0.13195 0.0
C83 C 0.29858 0.65696 0.24058 0.0
C84 C 0.40541 0.64189 0.99903 0.0
C85 C 0.46131 0.59021 0.32048 0.0
C86 C 0.61624 0.70344 0.40498 0.0
C87 C 0.64979 0.64322 0.21904 0.0
O88 O 0.48735 0.66497 0.43013 0.0
O89 O 0.53389 0.63485 0.44306 0.0
O90 O 0.45366 0.68726 0.11915 0.0
O91 O 0.42793 0.69768 0.21512 0.0
O92 O 0.5659 0.58593 0.20941 0.0
O93 O 0.45672 0.59558 0.07855 0.0
O94 O 0.34579 0.67305 0.24658 0.0
O95 O 0.34276 0.64058 0.27578 0.0
Co96 Co 0.50006 0.4298 0.80632 0.0
Co97 Co 0.54379 0.40601 0.69088 0.0
Co98 Co 0.56037 0.38424 0.8582 0.0
H99 H 0.54732 0.40726 0.82531 0.0
O100 O 0.59005 0.4113 0.80999 0.0
H101 H 0.53002 0.38353 0.7116 0.0
O102 O 0.49194 0.38048 0.73252 0.0
Co103 Co 0.54738 0.36007 0.71061 0.0
O104 O 0.56003 0.36947 0.60593 0.0
O105 O 0.50729 0.40013 0.57114 0.0
O106 O 0.59448 0.34157 0.82285 0.0
O107 O 0.55771 0.35536 0.90448 0.0
O108 O 0.43588 0.45723 0.76479 0.0
O109 O 0.53983 0.44824 0.8977 0.0
O110 O 0.68689 0.36716 0.80601 0.0
O111 O 0.68682 0.39801 0.74644 0.0
C112 C 0.58366 0.4055 0.99351 0.0
C113 C 0.54546 0.44829 0.66191 0.0
C114 C 0.45883 0.33189 0.63074 0.0
C115 C 0.3514 0.39876 0.77015 0.0
C116 C 0.53257 0.3855 0.55366 0.0
C117 C 0.58473 0.34068 0.88824 0.0
C118 C 0.48287 0.46178 0.84103 0.0
C119 C 0.7331 0.38285 0.80055 0.0
O120 O 0.53819 0.42012 0.93353 0.0
O121 O 0.61228 0.39074 0.97936 0.0
O122 O 0.57943 0.43289 0.65865 0.0
O123 O 0.50465 0.44851 0.70663 0.0
O124 O 0.54312 0.33871 0.64484 0.0
O125 O 0.4233 0.34127 0.66038 0.0
O126 O 0.36921 0.41505 0.73664 0.0
O127 O 0.42197 0.38732 0.83069 0.0
H128 H 0.83799 0.15231 0.86864 0.0
C129 C 0.90637 0.14493 0.92416 0.0
H130 H 0.04892 0.13328 0.9703 0.0
H131 H 0.9668 0.11233 0.61891 0.0
H132 H 0.00424 0.08108 0.71255 0.0
H133 H 0.02891 0.0777 0.85971 0.0
H134 H 0.00753 0.10513 0.91079 0.0
C135 C 0.97986 0.14017 0.91334 0.0
C136 C 0.97113 0.14289 0.82618 0.0
C137 C 0.98242 0.12654 0.79639 0.0
C138 C 0.97457 0.12872 0.71366 0.0
C139 C 0.97887 0.11186 0.68337 0.0
C140 C 0.99883 0.09371 0.73598 0.0
C141 C 0.01161 0.09176 0.81841 0.0
C142 C 1.00063 0.10777 0.84748 0.0
H143 H 0.09065 0.13752 0.6185 0.0
C144 C 0.02305 0.14521 0.56345 0.0
H145 H 0.88272 0.15762 0.5185 0.0
H146 H 0.96698 0.17789 0.87106 0.0
H147 H 0.94419 0.20957 0.78328 0.0
H148 H 0.92858 0.21336 0.63944 0.0
H149 H 0.93696 0.1855 0.58321 0.0
C150 C 0.95051 0.15018 0.57479 0.0
C151 C 0.96067 0.14743 0.66257 0.0
C152 C 0.95274 0.16386 0.69378 0.0
C153 C 0.95915 0.16164 0.77592 0.0
C154 C 0.95745 0.17851 0.80744 0.0
C155 C 0.94567 0.19688 0.75813 0.0
C156 C 0.93708 0.19902 0.67725 0.0
C157 C 0.94133 0.18281 0.64547 0.0
H158 H 0.14844 0.89377 0.50581 0.0
C159 C 0.07097 0.89584 0.48734 0.0
H160 H 0.92003 0.90201 0.38117 0.0
H161 H 0.00348 0.94203 0.08641 0.0
H162 H 0.91183 0.96665 0.09181 0.0
H163 H 0.87492 0.96297 0.20878 0.0
H164 H 0.9259 0.93408 0.31922 0.0
C165 C 0.99823 0.90015 0.40091 0.0
C166 C 0.0234 0.90253 0.33079 0.0
C167 C 0.99815 0.91995 0.26922 0.0
C168 C 0.02489 0.92253 0.2045 0.0
C169 C 0.99066 0.9395 0.13989 0.0
C170 C 0.93685 0.95379 0.14161 0.0
C171 C 0.91571 0.95169 0.20726 0.0
C172 C 0.94548 0.93499 0.27027 0.0
H173 H 0.07205 0.88228 0.10292 0.0
C174 C 0.09393 0.89689 0.08625 0.0
H175 H 0.12968 0.92527 0.11477 0.0
H176 H 0.05555 0.86495 0.41677 0.0
H177 H 0.16251 0.84132 0.42306 0.0
H178 H 0.24915 0.84942 0.34156 0.0
H179 H 0.22147 0.88049 0.24706 0.0
C180 C 0.10764 0.91088 0.13372 0.0
C181 C 0.08297 0.90817 0.20449 0.0
C182 C 0.11278 0.89122 0.26963 0.0
C183 C 0.07522 0.88769 0.32676 0.0
C184 C 0.0902 0.86911 0.3785 0.0
C185 C 0.15057 0.85534 0.38201 0.0
C186 C 0.19866 0.85983 0.33562 0.0
C187 C 0.18073 0.8776 0.28041 0.0
H188 H 0.36662 0.66087 0.87289 0.0
C189 C 0.39156 0.64639 0.91004 0.0
H190 H 0.44896 0.61966 0.91868 0.0
H191 H 0.29368 0.65855 0.50194 0.0
H192 H 0.12435 0.65974 0.47437 0.0
H193 H 0.09536 0.65135 0.59659 0.0
H194 H 0.23565 0.64173 0.74717 0.0
C195 C 0.4217 0.63394 0.88011 0.0
C196 C 0.43718 0.63973 0.80455 0.0
C197 C 0.3541 0.64516 0.71646 0.0
C198 C 0.37079 0.64979 0.64556 0.0
C199 C 0.286 0.65505 0.55838 0.0
C200 C 0.18809 0.65571 0.54146 0.0
C201 C 0.1718 0.65098 0.61028 0.0
C202 C 0.25331 0.64563 0.69668 0.0
H203 H 0.53318 0.6274 0.58948 0.0
C204 C 0.51497 0.6423 0.55596 0.0
H205 H 0.46441 0.66943 0.5516 0.0
H206 H 0.61462 0.63022 0.96499 0.0
H207 H 0.78345 0.62884 0.99214 0.0
H208 H 0.8119 0.63685 0.86956 0.0
H209 H 0.6715 0.64635 0.71906 0.0
C210 C 0.48647 0.65475 0.58704 0.0
C211 C 0.47022 0.64874 0.66204 0.0
C212 C 0.55326 0.64322 0.75005 0.0
C213 C 0.53671 0.63868 0.82103 0.0
C214 C 0.6218 0.63354 0.90826 0.0
C215 C 0.71958 0.63279 0.92502 0.0
C216 C 0.73558 0.63731 0.85602 0.0
C217 C 0.65394 0.64261 0.76965 0.0
H218 H 0.59258 0.42097 0.09159 0.0
C219 C 0.59695 0.40653 0.08008 0.0
H220 H 0.59046 0.37664 0.12198 0.0
H221 H 0.68861 0.42248 0.45702 0.0
H222 H 0.84111 0.43544 0.46135 0.0
H223 H 0.87792 0.42877 0.35346 0.0
H224 H 0.76181 0.40939 0.23962 0.0
C225 C 0.59469 0.39121 0.13615 0.0
C226 C 0.57834 0.39396 0.20806 0.0
C227 C 0.64866 0.40482 0.27664 0.0
C228 C 0.62904 0.40814 0.34122 0.0
C229 C 0.69999 0.41934 0.40721 0.0
C230 C 0.788 0.42685 0.41057 0.0
C231 C 0.80855 0.42315 0.34961 0.0
C232 C 0.7405 0.41216 0.28384 0.0
H233 H 0.54027 0.37192 0.45846 0.0
C234 C 0.5307 0.3859 0.47075 0.0
H235 H 0.52385 0.4161 0.42741 0.0
H236 H 0.42447 0.37304 0.0858 0.0
H237 H 0.2721 0.36035 0.08201 0.0
H238 H 0.2397 0.3659 0.19389 0.0
H239 H 0.35926 0.38433 0.31059 0.0
C240 C 0.52721 0.40178 0.41453 0.0
C241 C 0.54131 0.39997 0.34035 0.0
C242 C 0.4705 0.38927 0.27139 0.0
C243 C 0.4891 0.3862 0.20589 0.0
C244 C 0.41561 0.37567 0.1378 0.0
C245 C 0.32731 0.36834 0.13442 0.0
C246 C 0.30904 0.37146 0.19753 0.0
C247 C 0.379 0.3819 0.26483 0.0
H248 H 0.66021 0.13266 0.226 0.0
C249 C 0.68255 0.14689 0.20529 0.0
H250 H 0.63955 0.17628 0.15124 0.0
H251 H 0.23868 0.12463 0.12341 0.0
H252 H 0.20959 0.11684 0.98748 0.0
H253 H 0.32751 0.12868 0.93837 0.0
H254 H 0.47601 0.14844 0.02577 0.0
C255 C 0.61739 0.1617 0.16834 0.0
C256 C 0.53259 0.15948 0.18203 0.0
C257 C 0.44649 0.14823 0.12998 0.0
C258 C 0.37899 0.14151 0.15826 0.0
C259 C 0.2931 0.13014 0.1053 0.0
C260 C 0.27531 0.12557 0.02697 0.0
C261 C 0.34185 0.1322 0.99942 0.0
C262 C 0.42679 0.14341 0.05019 0.0
H263 H 0.26304 0.16838 0.21999 0.0
C264 C 0.25423 0.15319 0.24248 0.0
H265 H 0.31288 0.12485 0.27942 0.0
H266 H 0.68744 0.18247 0.29217 0.0
H267 H 0.71769 0.19032 0.42847 0.0
H268 H 0.60137 0.1782 0.47912 0.0
H269 H 0.45455 0.15802 0.39384 0.0
C270 C 0.32384 0.1403 0.2634 0.0
C271 C 0.3983 0.1463 0.23815 0.0
C272 C 0.48229 0.15824 0.28838 0.0
C273 C 0.54923 0.16506 0.25959 0.0
C274 C 0.63415 0.17676 0.31135 0.0
C275 C 0.65227 0.18143 0.38959 0.0
C276 C 0.58674 0.17462 0.41805 0.0
C277 C 0.50257 0.16314 0.36831 0.0
H278 H 0.70198 0.90626 0.70415 0.0
C279 C 0.75658 0.89459 0.74551 0.0
H280 H 0.78857 0.8682 0.83444 0.0
H281 H 0.54829 0.91188 0.94588 0.0
H282 H 0.72404 0.91678 0.06436 0.0
H283 H 0.86688 0.90528 0.06336 0.0
H284 H 0.83615 0.88933 0.94435 0.0
C285 C 0.73365 0.87956 0.78937 0.0
C286 C 0.64925 0.88193 0.79984 0.0
C287 C 0.66946 0.89087 0.87132 0.0
C288 C 0.58742 0.8972 0.87237 0.0
C289 C 0.60858 0.90665 0.94272 0.0
C290 C 0.70879 0.90957 0.01082 0.0
C291 C 0.78936 0.90318 0.01024 0.0
C292 C 0.77054 0.89402 0.94137 0.0
H293 H 0.39955 0.87344 0.87904 0.0
C294 C 0.35783 0.88665 0.83748 0.0
H295 H 0.35754 0.9127 0.75736 0.0
H296 H 0.58863 0.86281 0.66141 0.0
H297 H 0.41318 0.85607 0.54745 0.0
H298 H 0.26977 0.86674 0.55002 0.0
H299 H 0.29961 0.88465 0.66294 0.0
C300 C 0.40014 0.90004 0.80397 0.0
C301 C 0.48649 0.89415 0.8029 0.0
C302 C 0.46642 0.8842 0.73402 0.0
C303 C 0.54853 0.878 0.73283 0.0
C304 C 0.52794 0.86796 0.66432 0.0
C305 C 0.42799 0.86396 0.59896 0.0
C306 C 0.34717 0.87 0.60009 0.0
C307 C 0.36554 0.88017 0.666 0.0
H308 H 0.81591 0.64611 0.2989 0.0
C309 C 0.74902 0.64704 0.23197 0.0
H310 H 0.68798 0.65138 0.09462 0.0
H311 H 0.05284 0.70123 0.10811 0.0
H312 H 0.9072 0.7221 1.00288 0.0
H313 H 0.73653 0.7131 0.97599 0.0
H314 H 0.70964 0.68302 0.05167 0.0
C315 C 0.75612 0.65085 0.16085 0.0
C316 C 0.85527 0.65555 0.17079 0.0
C317 C 0.86868 0.67351 0.12708 0.0
C318 C 0.96707 0.67901 0.14442 0.0
C319 C 0.97935 0.69656 0.09791 0.0
C320 C 0.89659 0.70866 0.03759 0.0
C321 C 0.80047 0.70358 0.02237 0.0
C322 C 0.78613 0.68623 0.06636 0.0
H323 H 0.14609 0.64423 0.17718 0.0
C324 C 0.18988 0.65723 0.20207 0.0
H325 H 0.19306 0.68365 0.24436 0.0
H326 H 0.85135 0.61761 0.24502 0.0
H327 H 0.99897 0.59853 0.3622 0.0
H328 H 0.17328 0.61184 0.41852 0.0
H329 H 0.20007 0.64361 0.35308 0.0
C330 C 0.1498 0.67084 0.21677 0.0
C331 C 0.05077 0.66692 0.20771 0.0
C332 C 0.03795 0.64963 0.25547 0.0
C333 C 0.93889 0.64307 0.23092 0.0
C334 C 0.92608 0.62407 0.26749 0.0
C335 C 0.01007 0.61289 0.33402 0.0
C336 C 0.10804 0.62031 0.36524 0.0
C337 C 0.12233 0.63846 0.32658 0.0
H338 H 0.88768 0.39465 0.8601 0.0
C339 C 0.84115 0.38179 0.83702 0.0
H340 H 0.82403 0.35606 0.78487 0.0
H341 H 0.13994 0.42212 0.74015 0.0
H342 H 0.98812 0.44159 0.64109 0.0
H343 H 0.81946 0.42862 0.60779 0.0
H344 H 0.8032 0.39634 0.67613 0.0
C345 C 0.8721 0.36845 0.81283 0.0
C346 C 0.96208 0.37249 0.80646 0.0
C347 C 0.96661 0.39 0.75501 0.0
C348 C 0.06102 0.3965 0.76641 0.0
C349 C 0.06806 0.41564 0.72734 0.0
C350 C 0.98162 0.4271 0.67115 0.0
C351 C 0.88682 0.41984 0.65269 0.0
C352 C 0.87882 0.40145 0.69349 0.0
H353 H 0.18398 0.39639 0.6879 0.0
C354 C 0.25069 0.39484 0.755 0.0
H355 H 0.31137 0.38873 0.89229 0.0
H356 H 0.97171 0.33691 0.90321 0.0
H357 H 0.11673 0.31516 0.98598 0.0
H358 H 0.27586 0.32431 0.9897 0.0
H359 H 0.29169 0.35533 0.91269 0.0
C360 C 0.24321 0.38979 0.8258 0.0
C361 C 0.14584 0.38391 0.81756 0.0
C362 C 0.13793 0.36535 0.86088 0.0
C363 C 0.0459 0.35981 0.85679 0.0
C364 C 0.04009 0.34167 0.90358 0.0
C365 C 0.12258 0.32905 0.95109 0.0
C366 C 0.2121 0.3342 0.95314 0.0
C367 C 0.22024 0.35211 0.90881 0.0
H368 H 0.45392 0.30685 0.57114 0.0
C369 C 0.41252 0.31414 0.59 0.0
H370 H 0.2817 0.31351 0.59678 0.0
H371 H 0.03966 0.25641 0.3093 0.0
H372 H 0.95595 0.28678 0.22071 0.0
H373 H 0.02099 0.31773 0.27952 0.0
H374 H 0.17074 0.31846 0.42735 0.0
C375 C 0.32516 0.30621 0.58001 0.0
C376 C 0.28486 0.28736 0.54531 0.0
C377 C 0.19588 0.28706 0.45962 0.0
C378 C 0.15749 0.26915 0.42612 0.0
C379 C 0.07077 0.26947 0.33898 0.0
C380 C 0.02222 0.28684 0.28711 0.0
C381 C 0.05891 0.30426 0.3202 0.0
C382 C 0.14481 0.30447 0.40524 0.0
H383 H 0.0387 0.23119 0.45218 0.0
C384 C 0.08153 0.22426 0.43363 0.0
H385 H 0.21286 0.22563 0.42723 0.0
H386 H 0.45224 0.28237 0.71512 0.0
H387 H 0.5367 0.25202 0.8032 0.0
H388 H 0.47203 0.2211 0.74415 0.0
H389 H 0.3218 0.22036 0.59664 0.0
C390 C 0.16825 0.23263 0.44378 0.0
C391 C 0.20714 0.25144 0.479 0.0
C392 C 0.29613 0.25174 0.56466 0.0
C393 C 0.33442 0.26965 0.59822 0.0
C394 C 0.42127 0.26932 0.6853 0.0
C395 C 0.47023 0.25196 0.7369 0.0
C396 C 0.43375 0.23455 0.70368 0.0
C397 C 0.34758 0.23434 0.61881 0.0
H398 H 0.65384 0.32206 0.02084 0.0
C399 C 0.6177 0.32194 0.95049 0.0
H400 H 0.58098 0.30608 0.84941 0.0
H401 H 0.9412 0.25024 0.02019 0.0
H402 H 0.97067 0.27337 0.9195 0.0
H403 H 0.87168 0.30359 0.84411 0.0
H404 H 0.74345 0.31098 0.86959 0.0
C405 C 0.61876 0.30567 0.92043 0.0
C406 C 0.68615 0.28838 0.97591 0.0
C407 C 0.761 0.28402 0.96002 0.0
C408 C 0.81764 0.2664 1.00279 0.0
C409 C 0.89397 0.26302 0.98771 0.0
C410 C 0.9123 0.27627 0.93049 0.0
C411 C 0.8566 0.29329 0.88806 0.0
C412 C 0.78241 0.29726 0.90281 0.0
H413 H 0.83006 0.22064 0.00697 0.0
C414 C 0.86481 0.21961 0.07782 0.0
H415 H 0.89935 0.23345 0.18405 0.0
H416 H 0.54865 0.29173 0.02074 0.0
H417 H 0.52049 0.26884 0.123 0.0
H418 H 0.6175 0.23836 0.19683 0.0
H419 H 0.74253 0.23049 0.16862 0.0
C420 C 0.86252 0.23494 0.11268 0.0
C421 C 0.79896 0.25287 0.06095 0.0
C422 C 0.72521 0.2574 0.07791 0.0
C423 C 0.66897 0.27508 0.03544 0.0
C424 C 0.59458 0.27877 0.05224 0.0
C425 C 0.57725 0.2657 0.11053 0.0
C426 C 0.63191 0.24854 0.15213 0.0
C427 C 0.70434 0.24429 0.13579 0.0
H428 H 0.76884 0.71724 0.47612 0.0
C429 C 0.68802 0.71933 0.447 0.0
H430 H 0.57533 0.73841 0.41983 0.0
H431 H 0.88024 0.7901 0.7135 0.0
H432 H 0.80193 0.77075 0.78697 0.0
H433 H 0.68839 0.74312 0.7237 0.0
H434 H 0.65307 0.73454 0.58687 0.0
C435 C 0.65575 0.73638 0.44708 0.0
C436 C 0.72751 0.75276 0.48649 0.0
C437 C 0.74637 0.75782 0.56583 0.0
C438 C 0.81121 0.77392 0.60195 0.0
C439 C 0.8305 0.77825 0.68244 0.0
C440 C 0.78629 0.76722 0.72548 0.0
C441 C 0.72241 0.75165 0.68988 0.0
C442 C 0.70256 0.74692 0.61116 0.0
H443 H 0.8057 0.82108 0.55204 0.0
C444 C 0.88774 0.81922 0.58765 0.0
H445 H 0.00673 0.79996 0.63053 0.0
H446 H 0.70274 0.74805 0.33031 0.0
H447 H 0.78209 0.76728 0.25768 0.0
H448 H 0.89698 0.7947 0.32195 0.0
H449 H 0.93244 0.80318 0.45902 0.0
C450 C 0.92495 0.80196 0.5961 0.0
C451 C 0.85629 0.78515 0.55814 0.0
C452 C 0.838 0.78003 0.47915 0.0
C453 C 0.77292 0.76397 0.44282 0.0
C454 C 0.75322 0.75976 0.36201 0.0
C455 C 0.79792 0.77075 0.31932 0.0
C456 C 0.86252 0.7862 0.35545 0.0
C457 C 0.88237 0.79089 0.43424 0.0
H458 H 0.36706 0.72151 0.01836 0.0
C459 C 0.38999 0.71975 0.08713 0.0
H460 H 0.39884 0.73232 0.18764 0.0
H461 H 0.30534 0.81276 0.89862 0.0
H462 H 0.45824 0.80612 0.90543 0.0
H463 H 0.55026 0.77532 0.98668 0.0
H464 H 0.48933 0.7509 0.06084 0.0
C465 C 0.37543 0.73437 0.11863 0.0
C466 C 0.317 0.75263 0.0634 0.0
C467 C 0.35381 0.76687 0.02059 0.0
C468 C 0.30102 0.7848 0.97446 0.0
C469 C 0.3408 0.79879 0.93333 0.0
C470 C 0.42917 0.79524 0.93728 0.0
C471 C 0.48096 0.7779 0.98299 0.0
C472 C 0.44455 0.76391 0.02477 0.0
H473 H 0.15548 0.82059 0.00874 0.0
C474 C 0.13572 0.82173 0.94107 0.0
H475 H 0.13009 0.8081 0.84477 0.0
H476 H 0.22697 0.72912 0.14139 0.0
H477 H 0.07768 0.73634 0.13897 0.0
H478 H 0.98354 0.76679 0.05491 0.0
H479 H 0.04093 0.79068 0.97598 0.0
C480 C 0.15131 0.80656 0.9131 0.0
C481 C 0.21159 0.78869 0.97147 0.0
C482 C 0.17569 0.77459 0.01543 0.0
C483 C 0.22886 0.7567 0.06208 0.0
C484 C 0.19097 0.74301 0.10573 0.0
C485 C 0.10446 0.74685 0.10409 0.0
C486 C 0.05168 0.76404 0.05706 0.0
C487 C 0.08595 0.77771 0.01248 0.0
H488 H 0.1263 0.06267 0.13608 0.0
C489 C 0.04912 0.06604 0.11476 0.0
H490 H 0.89409 0.05781 0.04153 0.0
H491 H 0.94166 1.00972 0.80293 0.0
H492 H 0.84265 0.0372 0.69613 0.0
H493 H 0.8064 0.06442 0.74304 0.0
H494 H 0.87213 0.06467 0.89768 0.0
C495 C 0.97184 0.05421 0.06547 0.0
C496 C 0.98806 0.03674 0.03693 0.0
C497 C 0.94637 0.03635 0.94579 0.0
C498 C 0.9639 1.02017 0.9181 0.0
C499 C 0.927 0.02106 0.82736 0.0
C500 C 0.87057 0.03685 0.76525 0.0
C501 C 0.85022 0.05218 0.79167 0.0
C502 C 0.8882 0.0521 0.88076 0.0
H503 H 0.88755 0.97792 0.87572 0.0
C504 C 0.96633 0.97496 0.90037 0.0
H505 H 0.11978 0.98346 0.98064 0.0
H506 H 0.06417 0.03086 0.21434 0.0
H507 H 0.15498 1.00258 0.32039 0.0
H508 H 0.18673 0.97482 0.27319 0.0
H509 H 0.1267 0.97504 0.11939 0.0
C510 C 0.04063 0.98676 0.95322 0.0
C511 C 0.01941 1.00379 0.98098 0.0
C512 C 0.0583 1.00393 0.07185 0.0
C513 C 0.0418 1.02022 0.09959 0.0
C514 C 0.07721 1.01927 0.19002 0.0
C515 C 0.12893 1.00305 0.25161 0.0
C516 C 0.14676 0.98741 0.22503 0.0
C517 C 0.11211 0.98777 0.13644 0.0
H518 H 0.96389 0.07156 0.43745 0.0
C519 C 0.99544 0.07191 0.39684 0.0
H520 H 0.06869 0.05559 0.36054 0.0
H521 H 0.12732 1.00723 0.74053 0.0
H522 H 0.22733 0.03512 0.80663 0.0
H523 H 0.24629 0.0639 0.71524 0.0
H524 H 0.16427 0.06509 0.55721 0.0
C525 C 0.03703 0.05567 0.40069 0.0
C526 C 0.03805 0.03732 0.45834 0.0
C527 C 0.08943 0.03659 0.55147 0.0
C528 C 0.08138 1.01972 0.60476 0.0
C529 C 0.13152 1.01959 0.69707 0.0
C530 C 0.18936 0.03549 0.73596 0.0
C531 C 0.1998 0.05172 0.68447 0.0
C532 C 0.15122 0.05229 0.5935 0.0
H533 H 0.10857 0.96906 0.60126 0.0
C534 C 0.06869 0.96903 0.63488 0.0
H535 H 0.98161 0.98578 0.65579 0.0
H536 H 0.93824 0.03314 0.28372 0.0
H537 H 0.84276 1.00486 0.21847 0.0
H538 H 0.82606 0.97587 0.31027 0.0
H539 H 0.90597 0.97487 0.46793 0.0
C540 C 0.02184 0.98532 0.62293 0.0
C541 C 0.02574 1.00327 0.56576 0.0
C542 C 0.97652 1.00379 0.47298 0.0
C543 C 0.98397 0.02072 0.41955 0.0
C544 C 0.93483 0.02073 0.32739 0.0
C545 C 0.87955 1.0046 0.28896 0.0
C546 C 0.87039 0.98826 0.34067 0.0
C547 C 0.91751 0.98782 0.43141 0.0
H548 H 0.57829 0.55264 0.16347 0.0
C549 C 0.52672 0.56342 0.10932 0.0
H550 H 0.4255 0.57014 0.97109 0.0
H551 H 0.61509 0.50897 0.88184 0.0
H552 H 0.68063 0.53919 0.84055 0.0
H553 H 0.65594 0.5702 0.87164 0.0
H554 H 0.56796 0.57113 0.94657 0.0
C555 C 0.47468 0.55923 0.02606 0.0
C556 C 0.48687 0.54025 1.00534 0.0
C557 C 0.53552 0.53989 0.95884 0.0
C558 C 0.54732 0.52197 0.93858 0.0
C559 C 0.60142 0.52212 0.89669 0.0
C560 C 0.64005 0.53937 0.87308 0.0
C561 C 0.62616 0.55683 0.89059 0.0
C562 C 0.57511 0.55717 0.93334 0.0
H563 H 0.42282 0.49161 0.8045 0.0
C564 C 0.47245 0.48087 0.86018 0.0
H565 H 0.56807 0.47435 0.99904 0.0
H566 H 0.38207 0.53558 0.08811 0.0
H567 H 0.31682 0.50538 0.12974 0.0
H568 H 0.33967 0.47442 0.09714 0.0
H569 H 0.42585 0.47351 0.02068 0.0
C570 C 0.52124 0.48528 0.943 0.0
C571 C 0.50773 0.50435 0.96233 0.0
C572 C 0.45905 0.50472 0.00885 0.0
C573 C 0.44771 0.52262 0.02949 0.0
C574 C 0.39494 0.52246 0.07258 0.0
C575 C 0.35645 0.50521 0.09638 0.0
C576 C 0.36934 0.48778 0.07804 0.0
C577 C 0.41942 0.48746 0.03443 0.0
H578 H 0.61975 0.46899 0.60556 0.0
C579 C 0.55417 0.46679 0.61199 0.0
H580 H 0.41574 0.47791 0.5785 0.0
H581 H 0.52245 0.56659 0.53166 0.0
H582 H 0.48803 0.56336 0.64743 0.0
H583 H 0.45269 0.53125 0.7086 0.0
H584 H 0.45907 0.50214 0.65917 0.0
C585 C 0.48188 0.48053 0.57292 0.0
C586 C 0.4919 0.50002 0.52756 0.0
C587 C 0.48703 0.51704 0.55686 0.0
C588 C 0.50084 0.53573 0.51748 0.0
C589 C 0.50461 0.55221 0.55392 0.0
C590 C 0.48673 0.55054 0.62168 0.0
C591 C 0.46781 0.53246 0.65672 0.0
C592 C 0.47037 0.51584 0.62662 0.0
H593 H 0.38603 0.56843 0.37185 0.0
C594 C 0.45024 0.5709 0.36356 0.0
H595 H 0.58677 0.56 0.39193 0.0
H596 H 0.48815 0.47084 0.44412 0.0
H597 H 0.52108 0.47411 0.3274 0.0
H598 H 0.55197 0.50631 0.26349 0.0
H599 H 0.54458 0.53545 0.31244 0.0
C600 C 0.52161 0.55711 0.39882 0.0
C601 C 0.51349 0.53755 0.44497 0.0
C602 C 0.51857 0.52052 0.41578 0.0
C603 C 0.50575 0.5018 0.45577 0.0
C604 C 0.50393 0.48527 0.42056 0.0
C605 C 0.5212 0.48696 0.35242 0.0
C606 C 0.53785 0.50509 0.316 0.0
C607 C 0.53448 0.52173 0.34562 0.0
loop_
_geom_bond_atom_site_label_1
_geom_bond_atom_site_label_2
_geom_bond_distance
_geom_bond_site_symmetry_2
_ccdc_geom_bond_type
Co0 H3 2.400 1_655 S
Co0 O4 2.009 1_655 S
Co0 O12 2.115 . S
Co0 O13 2.315 1_655 S
Co0 O24 2.053 . S
Co0 O27 2.094 . S
Co0 O30 2.122 . S
Co1 O4 2.126 1_655 S
Co1 H5 2.388 . S
Co1 O6 2.053 . S
Co1 O9 2.047 . S
Co1 O15 2.113 1_655 S
Co1 O26 2.063 1_655 S
Co2 H3 2.388 . S
Co2 O4 2.053 . S
Co2 O6 2.126 1_455 S
Co2 O11 2.063 1_455 S
Co2 O25 2.047 . S
Co2 O31 2.113 1_455 S
H3 Co0 2.400 1_455 S
H3 Co2 2.388 . S
H3 O4 0.760 . S
O4 Co0 2.009 1_455 S
O4 Co1 2.126 1_455 S
O4 Co2 2.053 . S
O4 H3 0.760 . S
H5 Co1 2.388 . S
H5 O6 0.760 . S
H5 Co7 2.400 1_655 S
O6 Co1 2.053 . S
O6 Co2 2.126 1_655 S
O6 H5 0.760 . S
O6 Co7 2.009 1_655 S
Co7 H5 2.400 1_455 S
Co7 O6 2.009 1_455 S
Co7 O8 2.053 . S
Co7 O10 2.094 . S
Co7 O14 2.122 . S
Co7 O28 2.115 . S
Co7 O29 2.315 1_455 S
O8 Co7 2.053 . S
O8 C20 1.259 1_455 S
O9 Co1 2.047 . S
O9 C20 1.257 . S
O10 Co7 2.094 . S
O10 C21 1.253 . S
O11 Co2 2.063 1_655 S
O11 C21 1.268 1_655 S
O12 Co0 2.115 . S
O12 C22 1.281 1_655 S
O13 Co0 2.315 1_455 S
O13 C22 1.252 . S
O14 Co7 2.122 . S
O14 C23 1.272 . S
O15 Co1 2.113 1_455 S
O15 C23 1.245 . S
C16 O24 1.259 1_455 S
C16 O25 1.257 . S
C17 O26 1.268 1_655 S
C17 O27 1.253 . S
C18 O28 1.281 1_655 S
C18 O29 1.252 . S
C19 O30 1.272 . S
C19 O31 1.245 . S
C20 O8 1.259 1_655 S
C20 O9 1.257 . S
C21 O10 1.253 . S
C21 O11 1.268 1_455 S
C22 O12 1.281 1_455 S
C22 O13 1.252 . S
C23 O14 1.272 . S
C23 O15 1.245 . S
O24 Co0 2.053 . S
O24 C16 1.259 1_655 S
O25 Co2 2.047 . S
O25 C16 1.257 . S
O26 Co1 2.063 1_455 S
O26 C17 1.268 1_455 S
O27 Co0 2.094 . S
O27 C17 1.253 . S
O28 Co7 2.115 . S
O28 C18 1.281 1_455 S
O29 Co7 2.315 1_655 S
O29 C18 1.252 . S
O30 Co0 2.122 . S
O30 C19 1.272 . S
O31 Co2 2.113 1_655 S
O31 C19 1.245 . S
Co32 H35 2.400 1_655 S
Co32 O36 2.009 1_655 S
Co32 O44 2.115 . S
Co32 O45 2.315 1_655 S
Co32 O56 2.053 1_655 S
Co32 O59 2.094 . S
Co32 O62 2.122 . S
Co33 O36 2.126 . S
Co33 H37 2.388 1_455 S
Co33 O38 2.053 1_455 S
Co33 O41 2.047 1_455 S
Co33 O47 2.113 . S
Co33 O58 2.063 . S
Co34 H35 2.388 . S
Co34 O36 2.053 . S
Co34 O38 2.126 1_455 S
Co34 O43 2.063 . S
Co34 O57 2.047 . S
Co34 O63 2.113 1_455 S
H35 Co32 2.400 1_455 S
H35 Co34 2.388 . S
H35 O36 0.760 . S
O36 Co32 2.009 1_455 S
O36 Co33 2.126 . S
O36 Co34 2.053 . S
O36 H35 0.760 . S
H37 Co33 2.388 1_655 S
H37 O38 0.760 . S
H37 Co39 2.400 1_655 S
O38 Co33 2.053 1_655 S
O38 Co34 2.126 1_655 S
O38 H37 0.760 . S
O38 Co39 2.009 1_655 S
Co39 H37 2.400 1_455 S
Co39 O38 2.009 1_455 S
Co39 O40 2.053 . S
Co39 O42 2.094 . S
Co39 O46 2.122 . S
Co39 O60 2.115 . S
Co39 O61 2.315 1_455 S
O40 Co39 2.053 . S
O40 C52 1.259 1_455 S
O41 Co33 2.047 1_655 S
O41 C52 1.257 . S
O42 Co39 2.094 . S
O42 C53 1.253 . S
O43 Co34 2.063 . S
O43 C53 1.268 . S
O44 Co32 2.115 . S
O44 C54 1.281 1_655 S
O45 Co32 2.315 1_455 S
O45 C54 1.252 . S
O46 Co39 2.122 . S
O46 C55 1.272 . S
O47 Co33 2.113 . S
O47 C55 1.245 . S
C48 O56 1.259 . S
C48 O57 1.257 . S
C49 O58 1.268 1_655 S
C49 O59 1.253 . S
C50 O60 1.281 1_655 S
C50 O61 1.252 . S
C51 O62 1.272 . S
C51 O63 1.245 . S
C52 O40 1.259 1_655 S
C52 O41 1.257 . S
C53 O42 1.253 . S
C53 O43 1.268 . S
C54 O44 1.281 1_455 S
C54 O45 1.252 . S
C55 O46 1.272 . S
C55 O47 1.245 . S
O56 Co32 2.053 1_455 S
O56 C48 1.259 . S
O57 Co34 2.047 . S
O57 C48 1.257 . S
O58 Co33 2.063 . S
O58 C49 1.268 1_455 S
O59 Co32 2.094 . S
O59 C49 1.253 . S
O60 Co39 2.115 . S
O60 C50 1.281 1_455 S
O61 Co39 2.315 1_655 S
O61 C50 1.252 . S
O62 Co32 2.122 . S
O62 C51 1.272 . S
O63 Co34 2.113 1_655 S
O63 C51 1.245 . S
Co64 H67 2.400 . S
Co64 O68 2.009 . S
Co64 O76 2.115 . S
Co64 O77 2.315 . S
Co64 O88 2.053 . S
Co64 O91 2.094 . S
Co64 O94 2.122 . S
Co65 O68 2.126 . S
Co65 H69 2.388 . S
Co65 O70 2.053 . S
Co65 O73 2.047 . S
Co65 O79 2.113 . S
Co65 O90 2.063 . S
Co66 H67 2.388 . S
Co66 O68 2.053 . S
Co66 O70 2.126 . S
Co66 O75 2.063 . S
Co66 O89 2.047 . S
Co66 O95 2.113 . S
H67 Co64 2.400 . S
H67 Co66 2.388 . S
H67 O68 0.760 . S
O68 Co64 2.009 . S
O68 Co65 2.126 . S
O68 Co66 2.053 . S
O68 H67 0.760 . S
H69 Co65 2.388 . S
H69 O70 0.760 . S
H69 Co71 2.400 . S
O70 Co65 2.053 . S
O70 Co66 2.126 . S
O70 H69 0.760 . S
O70 Co71 2.009 . S
Co71 H69 2.400 . S
Co71 O70 2.009 . S
Co71 O72 2.053 . S
Co71 O74 2.094 . S
Co71 O78 2.122 . S
Co71 O92 2.115 . S
Co71 O93 2.315 . S
O72 Co71 2.053 . S
O72 C84 1.259 . S
O73 Co65 2.047 . S
O73 C84 1.257 . S
O74 Co71 2.094 . S
O74 C85 1.253 . S
O75 Co66 2.063 . S
O75 C85 1.268 . S
O76 Co64 2.115 . S
O76 C86 1.281 . S
O77 Co64 2.315 . S
O77 C86 1.252 . S
O78 Co71 2.122 . S
O78 C87 1.272 . S
O79 Co65 2.113 . S
O79 C87 1.245 . S
C80 O88 1.259 . S
C80 O89 1.257 . S
C81 O90 1.268 . S
C81 O91 1.253 . S
C82 O92 1.281 . S
C82 O93 1.252 . S
C83 O94 1.272 . S
C83 O95 1.245 . S
C84 O72 1.259 . S
C84 O73 1.257 . S
C85 O74 1.253 . S
C85 O75 1.268 . S
C86 O76 1.281 . S
C86 O77 1.252 . S
C87 O78 1.272 . S
C87 O79 1.245 . S
O88 Co64 2.053 . S
O88 C80 1.259 . S
O89 Co66 2.047 . S
O89 C80 1.257 . S
O90 Co65 2.063 . S
O90 C81 1.268 . S
O91 Co64 2.094 . S
O91 C81 1.253 . S
O92 Co71 2.115 . S
O92 C82 1.281 . S
O93 Co71 2.315 . S
O93 C82 1.252 . S
O94 Co64 2.122 . S
O94 C83 1.272 . S
O95 Co66 2.113 . S
O95 C83 1.245 . S
Co96 H99 2.400 . S
Co96 O100 2.009 . S
Co96 O108 2.115 . S
Co96 O109 2.315 . S
Co96 O120 2.053 . S
Co96 O123 2.094 . S
Co96 O126 2.122 . S
Co97 O100 2.126 . S
Co97 H101 2.388 . S
Co97 O102 2.053 . S
Co97 O105 2.047 . S
Co97 O111 2.113 . S
Co97 O122 2.063 . S
Co98 H99 2.388 . S
Co98 O100 2.053 . S
Co98 O102 2.126 . S
Co98 O107 2.063 . S
Co98 O121 2.047 . S
Co98 O127 2.113 . S
H99 Co96 2.400 . S
H99 Co98 2.388 . S
H99 O100 0.760 . S
O100 Co96 2.009 . S
O100 Co97 2.126 . S
O100 Co98 2.053 . S
O100 H99 0.760 . S
H101 Co97 2.388 . S
H101 O102 0.760 . S
H101 Co103 2.400 . S
O102 Co97 2.053 . S
O102 Co98 2.126 . S
O102 H101 0.760 . S
O102 Co103 2.009 . S
Co103 H101 2.400 . S
Co103 O102 2.009 . S
Co103 O104 2.053 . S
Co103 O106 2.094 . S
Co103 O110 2.122 . S
Co103 O124 2.115 . S
Co103 O125 2.315 . S
O104 Co103 2.053 . S
O104 C116 1.259 . S
O105 Co97 2.047 . S
O105 C116 1.257 . S
O106 Co103 2.094 . S
O106 C117 1.253 . S
O107 Co98 2.063 . S
O107 C117 1.268 . S
O108 Co96 2.115 . S
O108 C118 1.281 . S
O109 Co96 2.315 . S
O109 C118 1.252 . S
O110 Co103 2.122 . S
O110 C119 1.272 . S
O111 Co97 2.113 . S
O111 C119 1.245 . S
C112 O120 1.259 . S
C112 O121 1.257 . S
C113 O122 1.268 . S
C113 O123 1.253 . S
C114 O124 1.281 . S
C114 O125 1.252 . S
C115 O126 1.272 . S
C115 O127 1.245 . S
C116 O104 1.259 . S
C116 O105 1.257 . S
C117 O106 1.253 . S
C117 O107 1.268 . S
C118 O108 1.281 . S
C118 O109 1.252 . S
C119 O110 1.272 . S
C119 O111 1.245 . S
O120 Co96 2.053 . S
O120 C112 1.259 . S
O121 Co98 2.047 . S
O121 C112 1.257 . S
O122 Co97 2.063 . S
O122 C113 1.268 . S
O123 Co96 2.094 . S
O123 C113 1.253 . S
O124 Co103 2.115 . S
O124 C114 1.281 . S
O125 Co103 2.315 . S
O125 C114 1.252 . S
O126 Co96 2.122 . S
O126 C115 1.272 . S
O127 Co98 2.113 . S
O127 C115 1.245 . S
H128 C129 0.951 . S
C129 H128 0.951 . S
C129 C135 1.265 1_655 S
H130 C135 0.950 . S
H131 C139 0.949 . S
H132 C140 0.950 . S
H133 C141 0.951 . S
H134 C142 0.951 . S
C135 C129 1.265 1_455 S
C135 H130 0.950 . S
C135 C136 1.478 . S
C136 C135 1.478 . S
C136 C137 1.397 . S
C136 C153 1.394 1_455 S
C137 C136 1.397 . S
C137 C138 1.438 . S
C137 C142 1.429 . S
C138 C137 1.438 . S
C138 C139 1.428 . S
C138 C151 1.394 1_455 S
C139 H131 0.949 . S
C139 C138 1.428 . S
C139 C140 1.345 . S
C140 H132 0.950 . S
C140 C139 1.345 . S
C140 C141 1.424 . S
C141 H133 0.951 . S
C141 C140 1.424 . S
C141 C142 1.347 . S
C142 H134 0.951 . S
C142 C137 1.429 . S
C142 C141 1.347 . S
H143 C144 0.951 . S
C144 H143 0.951 . S
C144 C150 1.265 1_455 S
H145 C150 0.950 . S
H146 C154 0.949 . S
H147 C155 0.950 . S
H148 C156 0.951 . S
H149 C157 0.951 . S
C150 C144 1.265 1_655 S
C150 H145 0.950 . S
C150 C151 1.478 . S
C151 C138 1.394 1_655 S
C151 C150 1.478 . S
C151 C152 1.397 . S
C152 C151 1.397 . S
C152 C153 1.438 . S
C152 C157 1.429 . S
C153 C136 1.394 1_655 S
C153 C152 1.438 . S
C153 C154 1.428 . S
C154 H146 0.949 . S
C154 C153 1.428 . S
C154 C155 1.345 . S
C155 H147 0.950 . S
C155 C154 1.345 . S
C155 C156 1.424 . S
C156 H148 0.951 . S
C156 C155 1.424 . S
C156 C157 1.347 . S
C157 H149 0.951 . S
C157 C152 1.429 . S
C157 C156 1.347 . S
H158 C159 0.951 . S
C159 H158 0.951 . S
C159 C165 1.265 1_455 S
H160 C165 0.950 . S
H161 C169 0.949 . S
H162 C170 0.950 . S
H163 C171 0.951 . S
H164 C172 0.951 1_655 S
C165 C159 1.265 1_655 S
C165 H160 0.950 . S
C165 C166 1.478 . S
C166 C165 1.478 . S
C166 C167 1.397 1_655 S
C166 C183 1.394 . S
C167 C166 1.397 1_455 S
C167 C168 1.438 . S
C167 C172 1.429 . S
C168 C167 1.438 . S
C168 C169 1.428 . S
C168 C181 1.394 . S
C169 H161 0.949 . S
C169 C168 1.428 . S
C169 C170 1.345 . S
C170 H162 0.950 . S
C170 C169 1.345 . S
C170 C171 1.424 . S
C171 H163 0.951 . S
C171 C170 1.424 . S
C171 C172 1.347 . S
C172 H164 0.951 1_455 S
C172 C167 1.429 . S
C172 C171 1.347 . S
H173 C174 0.951 1_655 S
C174 H173 0.951 1_455 S
C174 C180 1.265 . S
H175 C180 0.950 . S
H176 C184 0.949 . S
H177 C185 0.950 . S
H178 C186 0.951 . S
H179 C187 0.951 . S
C180 C174 1.265 . S
C180 H175 0.950 . S
C180 C181 1.478 . S
C181 C168 1.394 . S
C181 C180 1.478 . S
C181 C182 1.397 . S
C182 C181 1.397 . S
C182 C183 1.438 1_455 S
C182 C187 1.429 . S
C183 C166 1.394 . S
C183 C182 1.438 1_655 S
C183 C184 1.428 . S
C184 H176 0.949 . S
C184 C183 1.428 . S
C184 C185 1.345 . S
C185 H177 0.950 . S
C185 C184 1.345 . S
C185 C186 1.424 . S
C186 H178 0.951 . S
C186 C185 1.424 . S
C186 C187 1.347 1_655 S
C187 H179 0.951 . S
C187 C182 1.429 . S
C187 C186 1.347 1_455 S
H188 C189 0.951 . S
C189 H188 0.951 . S
C189 C195 1.265 . S
H190 C195 0.950 . S
H191 C199 0.949 . S
H192 C200 0.950 . S
H193 C201 0.951 . S
H194 C202 0.951 . S
C195 C189 1.265 . S
C195 H190 0.950 . S
C195 C196 1.478 . S
C196 C195 1.478 . S
C196 C197 1.397 . S
C196 C213 1.394 . S
C197 C196 1.397 . S
C197 C198 1.438 . S
C197 C202 1.429 . S
C198 C197 1.438 . S
C198 C199 1.428 . S
C198 C211 1.394 . S
C199 H191 0.949 . S
C199 C198 1.428 . S
C199 C200 1.345 . S
C200 H192 0.950 . S
C200 C199 1.345 . S
C200 C201 1.424 . S
C201 H193 0.951 . S
C201 C200 1.424 . S
C201 C202 1.347 . S
C202 H194 0.951 . S
C202 C197 1.429 . S
C202 C201 1.347 . S
H203 C204 0.951 . S
C204 H203 0.951 . S
C204 C210 1.265 . S
H205 C210 0.950 . S
H206 C214 0.949 . S
H207 C215 0.950 . S
H208 C216 0.951 . S
H209 C217 0.951 . S
C210 C204 1.265 . S
C210 H205 0.950 . S
C210 C211 1.478 . S
C211 C198 1.394 . S
C211 C210 1.478 . S
C211 C212 1.397 . S
C212 C211 1.397 . S
C212 C213 1.438 . S
C212 C217 1.429 . S
C213 C196 1.394 . S
C213 C212 1.438 . S
C213 C214 1.428 . S
C214 H206 0.949 . S
C214 C213 1.428 . S
C214 C215 1.345 . S
C215 H207 0.950 . S
C215 C214 1.345 . S
C215 C216 1.424 . S
C216 H208 0.951 . S
C216 C215 1.424 . S
C216 C217 1.347 . S
C217 H209 0.951 . S
C217 C212 1.429 . S
C217 C216 1.347 . S
H218 C219 0.951 . S
C219 H218 0.951 . S
C219 C225 1.265 . S
H220 C225 0.950 . S
H221 C229 0.949 . S
H222 C230 0.950 . S
H223 C231 0.951 . S
H224 C232 0.951 . S
C225 C219 1.265 . S
C225 H220 0.950 . S
C225 C226 1.478 . S
C226 C225 1.478 . S
C226 C227 1.397 . S
C226 C243 1.394 . S
C227 C226 1.397 . S
C227 C228 1.438 . S
C227 C232 1.429 . S
C228 C227 1.438 . S
C228 C229 1.428 . S
C228 C241 1.394 . S
C229 H221 0.949 . S
C229 C228 1.428 . S
C229 C230 1.345 . S
C230 H222 0.950 . S
C230 C229 1.345 . S
C230 C231 1.424 . S
C231 H223 0.951 . S
C231 C230 1.424 . S
C231 C232 1.347 . S
C232 H224 0.951 . S
C232 C227 1.429 . S
C232 C231 1.347 . S
H233 C234 0.951 . S
C234 H233 0.951 . S
C234 C240 1.265 . S
H235 C240 0.950 . S
H236 C244 0.949 . S
H237 C245 0.950 . S
H238 C246 0.951 . S
H239 C247 0.951 . S
C240 C234 1.265 . S
C240 H235 0.950 . S
C240 C241 1.478 . S
C241 C228 1.394 . S
C241 C240 1.478 . S
C241 C242 1.397 . S
C242 C241 1.397 . S
C242 C243 1.438 . S
C242 C247 1.429 . S
C243 C226 1.394 . S
C243 C242 1.438 . S
C243 C244 1.428 . S
C244 H236 0.949 . S
C244 C243 1.428 . S
C244 C245 1.345 . S
C245 H237 0.950 . S
C245 C244 1.345 . S
C245 C246 1.424 . S
C246 H238 0.951 . S
C246 C245 1.424 . S
C246 C247 1.347 . S
C247 H239 0.951 . S
C247 C242 1.429 . S
C247 C246 1.347 . S
H248 C249 0.951 . S
C249 H248 0.951 . S
C249 C255 1.265 . S
H250 C255 0.950 . S
H251 C259 0.949 . S
H252 C260 0.950 . S
H253 C261 0.951 . S
H254 C262 0.951 . S
C255 C249 1.265 . S
C255 H250 0.950 . S
C255 C256 1.478 . S
C256 C255 1.478 . S
C256 C257 1.397 . S
C256 C273 1.394 . S
C257 C256 1.397 . S
C257 C258 1.438 . S
C257 C262 1.429 . S
C258 C257 1.438 . S
C258 C259 1.428 . S
C258 C271 1.394 . S
C259 H251 0.949 . S
C259 C258 1.428 . S
C259 C260 1.345 . S
C260 H252 0.950 . S
C260 C259 1.345 . S
C260 C261 1.424 . S
C261 H253 0.951 . S
C261 C260 1.424 . S
C261 C262 1.347 . S
C262 H254 0.951 . S
C262 C257 1.429 . S
C262 C261 1.347 . S
H263 C264 0.951 . S
C264 H263 0.951 . S
C264 C270 1.265 . S
H265 C270 0.950 . S
H266 C274 0.949 . S
H267 C275 0.950 . S
H268 C276 0.951 . S
H269 C277 0.951 . S
C270 C264 1.265 . S
C270 H265 0.950 . S
C270 C271 1.478 . S
C271 C258 1.394 . S
C271 C270 1.478 . S
C271 C272 1.397 . S
C272 C271 1.397 . S
C272 C273 1.438 . S
C272 C277 1.429 . S
C273 C256 1.394 . S
C273 C272 1.438 . S
C273 C274 1.428 . S
C274 H266 0.949 . S
C274 C273 1.428 . S
C274 C275 1.345 . S
C275 H267 0.950 . S
C275 C274 1.345 . S
C275 C276 1.424 . S
C276 H268 0.951 . S
C276 C275 1.424 . S
C276 C277 1.347 . S
C277 H269 0.951 . S
C277 C272 1.429 . S
C277 C276 1.347 . S
H278 C279 0.951 . S
C279 H278 0.951 . S
C279 C285 1.265 . S
H280 C285 0.950 . S
H281 C289 0.949 . S
H282 C290 0.950 . S
H283 C291 0.951 . S
H284 C292 0.951 . S
C285 C279 1.265 . S
C285 H280 0.950 . S
C285 C286 1.478 . S
C286 C285 1.478 . S
C286 C287 1.397 . S
C286 C303 1.394 . S
C287 C286 1.397 . S
C287 C288 1.438 . S
C287 C292 1.429 . S
C288 C287 1.438 . S
C288 C289 1.428 . S
C288 C301 1.394 . S
C289 H281 0.949 . S
C289 C288 1.428 . S
C289 C290 1.345 . S
C290 H282 0.950 . S
C290 C289 1.345 . S
C290 C291 1.424 . S
C291 H283 0.951 . S
C291 C290 1.424 . S
C291 C292 1.347 . S
C292 H284 0.951 . S
C292 C287 1.429 . S
C292 C291 1.347 . S
H293 C294 0.951 . S
C294 H293 0.951 . S
C294 C300 1.265 . S
H295 C300 0.950 . S
H296 C304 0.949 . S
H297 C305 0.950 . S
H298 C306 0.951 . S
H299 C307 0.951 . S
C300 C294 1.265 . S
C300 H295 0.950 . S
C300 C301 1.478 . S
C301 C288 1.394 . S
C301 C300 1.478 . S
C301 C302 1.397 . S
C302 C301 1.397 . S
C302 C303 1.438 . S
C302 C307 1.429 . S
C303 C286 1.394 . S
C303 C302 1.438 . S
C303 C304 1.428 . S
C304 H296 0.949 . S
C304 C303 1.428 . S
C304 C305 1.345 . S
C305 H297 0.950 . S
C305 C304 1.345 . S
C305 C306 1.424 . S
C306 H298 0.951 . S
C306 C305 1.424 . S
C306 C307 1.347 . S
C307 H299 0.951 . S
C307 C302 1.429 . S
C307 C306 1.347 . S
H308 C309 0.951 . S
C309 H308 0.951 . S
C309 C315 1.265 . S
H310 C315 0.950 . S
H311 C319 0.949 . S
H312 C320 0.950 . S
H313 C321 0.951 . S
H314 C322 0.951 . S
C315 C309 1.265 . S
C315 H310 0.950 . S
C315 C316 1.478 . S
C316 C315 1.478 . S
C316 C317 1.397 . S
C316 C333 1.394 . S
C317 C316 1.397 . S
C317 C318 1.438 1_655 S
C317 C322 1.429 . S
C318 C317 1.438 1_455 S
C318 C319 1.428 . S
C318 C331 1.394 . S
C319 H311 0.949 . S
C319 C318 1.428 . S
C319 C320 1.345 . S
C320 H312 0.950 . S
C320 C319 1.345 . S
C320 C321 1.424 1_455 S
C321 H313 0.951 . S
C321 C320 1.424 1_655 S
C321 C322 1.347 . S
C322 H314 0.951 . S
C322 C317 1.429 . S
C322 C321 1.347 . S
H323 C324 0.951 . S
C324 H323 0.951 . S
C324 C330 1.265 . S
H325 C330 0.950 . S
H326 C334 0.949 . S
H327 C335 0.950 . S
H328 C336 0.951 . S
H329 C337 0.951 . S
C330 C324 1.265 . S
C330 H325 0.950 . S
C330 C331 1.478 . S
C331 C318 1.394 . S
C331 C330 1.478 . S
C331 C332 1.397 . S
C332 C331 1.397 . S
C332 C333 1.438 1_455 S
C332 C337 1.429 . S
C333 C316 1.394 . S
C333 C332 1.438 1_655 S
C333 C334 1.428 . S
C334 H326 0.949 . S
C334 C333 1.428 . S
C334 C335 1.345 . S
C335 H327 0.950 . S
C335 C334 1.345 . S
C335 C336 1.424 1_655 S
C336 H328 0.951 . S
C336 C335 1.424 1_455 S
C336 C337 1.347 . S
C337 H329 0.951 . S
C337 C332 1.429 . S
C337 C336 1.347 . S
H338 C339 0.951 . S
C339 H338 0.951 . S
C339 C345 1.265 . S
H340 C345 0.950 . S
H341 C349 0.949 . S
H342 C350 0.950 . S
H343 C351 0.951 . S
H344 C352 0.951 . S
C345 C339 1.265 . S
C345 H340 0.950 . S
C345 C346 1.478 . S
C346 C345 1.478 . S
C346 C347 1.397 . S
C346 C363 1.394 . S
C347 C346 1.397 . S
C347 C348 1.438 1_655 S
C347 C352 1.429 . S
C348 C347 1.438 1_455 S
C348 C349 1.428 . S
C348 C361 1.394 . S
C349 H341 0.949 . S
C349 C348 1.428 . S
C349 C350 1.345 . S
C350 H342 0.950 . S
C350 C349 1.345 . S
C350 C351 1.424 1_455 S
C351 H343 0.951 . S
C351 C350 1.424 1_655 S
C351 C352 1.347 . S
C352 H344 0.951 . S
C352 C347 1.429 . S
C352 C351 1.347 . S
H353 C354 0.951 . S
C354 H353 0.951 . S
C354 C360 1.265 . S
H355 C360 0.950 . S
H356 C364 0.949 . S
H357 C365 0.950 . S
H358 C366 0.951 . S
H359 C367 0.951 . S
C360 C354 1.265 . S
C360 H355 0.950 . S
C360 C361 1.478 . S
C361 C348 1.394 . S
C361 C360 1.478 . S
C361 C362 1.397 . S
C362 C361 1.397 . S
C362 C363 1.438 1_455 S
C362 C367 1.429 . S
C363 C346 1.394 . S
C363 C362 1.438 1_655 S
C363 C364 1.428 . S
C364 H356 0.949 . S
C364 C363 1.428 . S
C364 C365 1.345 . S
C365 H357 0.950 . S
C365 C364 1.345 . S
C365 C366 1.424 1_655 S
C366 H358 0.951 . S
C366 C365 1.424 1_455 S
C366 C367 1.347 . S
C367 H359 0.951 . S
C367 C362 1.429 . S
C367 C366 1.347 . S
H368 C369 0.951 . S
C369 H368 0.951 . S
C369 C375 1.265 . S
H370 C375 0.950 . S
H371 C379 0.949 . S
H372 C380 0.950 . S
H373 C381 0.951 . S
H374 C382 0.951 . S
C375 C369 1.265 . S
C375 H370 0.950 . S
C375 C376 1.478 . S
C376 C375 1.478 . S
C376 C377 1.397 . S
C376 C393 1.394 . S
C377 C376 1.397 . S
C377 C378 1.438 . S
C377 C382 1.429 . S
C378 C377 1.438 . S
C378 C379 1.428 . S
C378 C391 1.394 . S
C379 H371 0.949 . S
C379 C378 1.428 . S
C379 C380 1.345 . S
C380 H372 0.950 . S
C380 C379 1.345 . S
C380 C381 1.424 . S
C381 H373 0.951 . S
C381 C380 1.424 . S
C381 C382 1.347 . S
C382 H374 0.951 . S
C382 C377 1.429 . S
C382 C381 1.347 . S
H383 C384 0.951 . S
C384 H383 0.951 . S
C384 C390 1.265 . S
H385 C390 0.950 . S
H386 C394 0.949 . S
H387 C395 0.950 . S
H388 C396 0.951 . S
H389 C397 0.951 . S
C390 C384 1.265 . S
C390 H385 0.950 . S
C390 C391 1.478 . S
C391 C378 1.394 . S
C391 C390 1.478 . S
C391 C392 1.397 . S
C392 C391 1.397 . S
C392 C393 1.438 . S
C392 C397 1.429 . S
C393 C376 1.394 . S
C393 C392 1.438 . S
C393 C394 1.428 . S
C394 H386 0.949 . S
C394 C393 1.428 . S
C394 C395 1.345 . S
C395 H387 0.950 . S
C395 C394 1.345 . S
C395 C396 1.424 . S
C396 H388 0.951 . S
C396 C395 1.424 . S
C396 C397 1.347 . S
C397 H389 0.951 . S
C397 C392 1.429 . S
C397 C396 1.347 . S
H398 C399 0.951 . S
C399 H398 0.951 . S
C399 C405 1.265 . S
H400 C405 0.950 . S
H401 C409 0.949 . S
H402 C410 0.950 . S
H403 C411 0.951 . S
H404 C412 0.951 . S
C405 C399 1.265 . S
C405 H400 0.950 . S
C405 C406 1.478 . S
C406 C405 1.478 . S
C406 C407 1.397 . S
C406 C423 1.394 1_556 S
C407 C406 1.397 . S
C407 C408 1.438 . S
C407 C412 1.429 . S
C408 C407 1.438 . S
C408 C409 1.428 . S
C408 C421 1.394 1_556 S
C409 H401 0.949 . S
C409 C408 1.428 . S
C409 C410 1.345 . S
C410 H402 0.950 . S
C410 C409 1.345 . S
C410 C411 1.424 . S
C411 H403 0.951 . S
C411 C410 1.424 . S
C411 C412 1.347 . S
C412 H404 0.951 . S
C412 C407 1.429 . S
C412 C411 1.347 . S
H413 C414 0.951 . S
C414 H413 0.951 . S
C414 C420 1.265 . S
H415 C420 0.950 . S
H416 C424 0.949 . S
H417 C425 0.950 . S
H418 C426 0.951 . S
H419 C427 0.951 . S
C420 C414 1.265 . S
C420 H415 0.950 . S
C420 C421 1.478 . S
C421 C408 1.394 1_554 S
C421 C420 1.478 . S
C421 C422 1.397 . S
C422 C421 1.397 . S
C422 C423 1.438 . S
C422 C427 1.429 . S
C423 C406 1.394 1_554 S
C423 C422 1.438 . S
C423 C424 1.428 . S
C424 H416 0.949 . S
C424 C423 1.428 . S
C424 C425 1.345 . S
C425 H417 0.950 . S
C425 C424 1.345 . S
C425 C426 1.424 . S
C426 H418 0.951 . S
C426 C425 1.424 . S
C426 C427 1.347 . S
C427 H419 0.951 . S
C427 C422 1.429 . S
C427 C426 1.347 . S
H428 C429 0.951 . S
C429 H428 0.951 . S
C429 C435 1.265 . S
H430 C435 0.950 . S
H431 C439 0.949 . S
H432 C440 0.950 . S
H433 C441 0.951 . S
H434 C442 0.951 . S
C435 C429 1.265 . S
C435 H430 0.950 . S
C435 C436 1.478 . S
C436 C435 1.478 . S
C436 C437 1.397 . S
C436 C453 1.394 . S
C437 C436 1.397 . S
C437 C438 1.438 . S
C437 C442 1.429 . S
C438 C437 1.438 . S
C438 C439 1.428 . S
C438 C451 1.394 . S
C439 H431 0.949 . S
C439 C438 1.428 . S
C439 C440 1.345 . S
C440 H432 0.950 . S
C440 C439 1.345 . S
C440 C441 1.424 . S
C441 H433 0.951 . S
C441 C440 1.424 . S
C441 C442 1.347 . S
C442 H434 0.951 . S
C442 C437 1.429 . S
C442 C441 1.347 . S
H443 C444 0.951 . S
C444 H443 0.951 . S
C444 C450 1.265 . S
H445 C450 0.950 . S
H446 C454 0.949 . S
H447 C455 0.950 . S
H448 C456 0.951 . S
H449 C457 0.951 . S
C450 C444 1.265 . S
C450 H445 0.950 . S
C450 C451 1.478 . S
C451 C438 1.394 . S
C451 C450 1.478 . S
C451 C452 1.397 . S
C452 C451 1.397 . S
C452 C453 1.438 . S
C452 C457 1.429 . S
C453 C436 1.394 . S
C453 C452 1.438 . S
C453 C454 1.428 . S
C454 H446 0.949 . S
C454 C453 1.428 . S
C454 C455 1.345 . S
C455 H447 0.950 . S
C455 C454 1.345 . S
C455 C456 1.424 . S
C456 H448 0.951 . S
C456 C455 1.424 . S
C456 C457 1.347 . S
C457 H449 0.951 . S
C457 C452 1.429 . S
C457 C456 1.347 . S
H458 C459 0.951 . S
C459 H458 0.951 . S
C459 C465 1.265 . S
H460 C465 0.950 . S
H461 C469 0.949 . S
H462 C470 0.950 . S
H463 C471 0.951 . S
H464 C472 0.951 . S
C465 C459 1.265 . S
C465 H460 0.950 . S
C465 C466 1.478 . S
C466 C465 1.478 . S
C466 C467 1.397 1_554 S
C466 C483 1.394 . S
C467 C466 1.397 1_556 S
C467 C468 1.438 . S
C467 C472 1.429 . S
C468 C467 1.438 . S
C468 C469 1.428 . S
C468 C481 1.394 . S
C469 H461 0.949 . S
C469 C468 1.428 . S
C469 C470 1.345 . S
C470 H462 0.950 . S
C470 C469 1.345 . S
C470 C471 1.424 . S
C471 H463 0.951 . S
C471 C470 1.424 . S
C471 C472 1.347 . S
C472 H464 0.951 . S
C472 C467 1.429 . S
C472 C471 1.347 . S
H473 C474 0.951 . S
C474 H473 0.951 . S
C474 C480 1.265 . S
H475 C480 0.950 . S
H476 C484 0.949 . S
H477 C485 0.950 . S
H478 C486 0.951 . S
H479 C487 0.951 . S
C480 C474 1.265 . S
C480 H475 0.950 . S
C480 C481 1.478 . S
C481 C468 1.394 . S
C481 C480 1.478 . S
C481 C482 1.397 1_556 S
C482 C481 1.397 1_554 S
C482 C483 1.438 . S
C482 C487 1.429 . S
C483 C466 1.394 . S
C483 C482 1.438 . S
C483 C484 1.428 . S
C484 H476 0.949 . S
C484 C483 1.428 . S
C484 C485 1.345 . S
C485 H477 0.950 . S
C485 C484 1.345 . S
C485 C486 1.424 . S
C486 H478 0.951 . S
C486 C485 1.424 . S
C486 C487 1.347 . S
C487 H479 0.951 . S
C487 C482 1.429 . S
C487 C486 1.347 . S
H488 C489 0.951 1_455 S
C489 H488 0.951 1_655 S
C489 C495 1.265 . S
H490 C495 0.950 . S
H491 C499 0.949 1_565 S
H492 C500 0.950 . S
H493 C501 0.951 . S
H494 C502 0.951 . S
C495 C489 1.265 . S
C495 H490 0.950 . S
C495 C496 1.478 . S
C496 C495 1.478 . S
C496 C497 1.397 1_554 S
C496 C513 1.394 1_645 S
C497 C496 1.397 1_556 S
C497 C498 1.438 . S
C497 C502 1.429 . S
C498 C497 1.438 . S
C498 C499 1.428 . S
C498 C511 1.394 1_645 S
C499 H491 0.949 1_545 S
C499 C498 1.428 . S
C499 C500 1.345 . S
C500 H492 0.950 . S
C500 C499 1.345 . S
C500 C501 1.424 . S
C501 H493 0.951 . S
C501 C500 1.424 . S
C501 C502 1.347 . S
C502 H494 0.951 . S
C502 C497 1.429 . S
C502 C501 1.347 . S
H503 C504 0.951 1_655 S
C504 H503 0.951 1_455 S
C504 C510 1.265 . S
H505 C510 0.950 . S
H506 C514 0.949 1_545 S
H507 C515 0.950 . S
H508 C516 0.951 . S
H509 C517 0.951 . S
C510 C504 1.265 . S
C510 H505 0.950 . S
C510 C511 1.478 . S
C511 C498 1.394 1_465 S
C511 C510 1.478 . S
C511 C512 1.397 1_556 S
C512 C511 1.397 1_554 S
C512 C513 1.438 . S
C512 C517 1.429 . S
C513 C496 1.394 1_465 S
C513 C512 1.438 . S
C513 C514 1.428 . S
C514 H506 0.949 1_565 S
C514 C513 1.428 . S
C514 C515 1.345 . S
C515 H507 0.950 . S
C515 C514 1.345 . S
C515 C516 1.424 . S
C516 H508 0.951 . S
C516 C515 1.424 . S
C516 C517 1.347 . S
C517 H509 0.951 . S
C517 C512 1.429 . S
C517 C516 1.347 . S
H518 C519 0.951 1_655 S
C519 H518 0.951 1_455 S
C519 C525 1.265 . S
H520 C525 0.950 . S
H521 C529 0.949 . S
H522 C530 0.950 . S
H523 C531 0.951 . S
H524 C532 0.951 . S
C525 C519 1.265 . S
C525 H520 0.950 . S
C525 C526 1.478 . S
C526 C525 1.478 . S
C526 C527 1.397 . S
C526 C543 1.394 1_455 S
C527 C526 1.397 . S
C527 C528 1.438 1_545 S
C527 C532 1.429 . S
C528 C527 1.438 1_565 S
C528 C529 1.428 . S
C528 C541 1.394 1_455 S
C529 H521 0.949 . S
C529 C528 1.428 . S
C529 C530 1.345 . S
C530 H522 0.950 . S
C530 C529 1.345 . S
C530 C531 1.424 1_565 S
C531 H523 0.951 . S
C531 C530 1.424 1_545 S
C531 C532 1.347 . S
C532 H524 0.951 . S
C532 C527 1.429 . S
C532 C531 1.347 . S
H533 C534 0.953 . S
C534 H533 0.953 . S
C534 C540 1.264 1_455 S
H535 C540 0.950 . S
H536 C544 0.949 . S
H537 C545 0.950 . S
H538 C546 0.951 . S
H539 C547 0.951 . S
C540 C534 1.264 1_655 S
C540 H535 0.950 . S
C540 C541 1.478 . S
C541 C528 1.394 1_655 S
C541 C540 1.478 . S
C541 C542 1.397 . S
C542 C541 1.397 . S
C542 C543 1.438 1_565 S
C542 C547 1.429 . S
C543 C526 1.394 1_655 S
C543 C542 1.438 1_545 S
C543 C544 1.428 . S
C544 H536 0.949 . S
C544 C543 1.428 . S
C544 C545 1.345 . S
C545 H537 0.950 . S
C545 C544 1.345 . S
C545 C546 1.424 1_545 S
C546 H538 0.951 . S
C546 C545 1.424 1_565 S
C546 C547 1.347 . S
C547 H539 0.951 . S
C547 C542 1.429 . S
C547 C546 1.347 . S
H548 C549 0.951 . S
C549 H548 0.951 . S
C549 C555 1.265 . S
H550 C555 0.950 1_556 S
H551 C559 0.949 . S
H552 C560 0.950 . S
H553 C561 0.951 . S
H554 C562 0.951 . S
C555 C549 1.265 . S
C555 H550 0.950 1_554 S
C555 C556 1.478 . S
C556 C555 1.478 . S
C556 C557 1.397 1_554 S
C556 C573 1.394 . S
C557 C556 1.397 1_556 S
C557 C558 1.438 . S
C557 C562 1.429 . S
C558 C557 1.438 . S
C558 C559 1.428 . S
C558 C571 1.394 . S
C559 H551 0.949 . S
C559 C558 1.428 . S
C559 C560 1.345 . S
C560 H552 0.950 . S
C560 C559 1.345 . S
C560 C561 1.424 . S
C561 H553 0.951 . S
C561 C560 1.424 . S
C561 C562 1.347 . S
C562 H554 0.951 . S
C562 C557 1.429 . S
C562 C561 1.347 . S
H563 C564 0.951 . S
C564 H563 0.951 . S
C564 C570 1.265 . S
H565 C570 0.950 1_554 S
H566 C574 0.949 . S
H567 C575 0.950 . S
H568 C576 0.951 . S
H569 C577 0.951 . S
C570 C564 1.265 . S
C570 H565 0.950 1_556 S
C570 C571 1.478 . S
C571 C558 1.394 . S
C571 C570 1.478 . S
C571 C572 1.397 1_556 S
C572 C571 1.397 1_554 S
C572 C573 1.438 . S
C572 C577 1.429 . S
C573 C556 1.394 . S
C573 C572 1.438 . S
C573 C574 1.428 . S
C574 H566 0.949 . S
C574 C573 1.428 . S
C574 C575 1.345 . S
C575 H567 0.950 . S
C575 C574 1.345 . S
C575 C576 1.424 . S
C576 H568 0.951 . S
C576 C575 1.424 . S
C576 C577 1.347 . S
C577 H569 0.951 . S
C577 C572 1.429 . S
C577 C576 1.347 . S
H578 C579 0.951 . S
C579 H578 0.951 . S
C579 C585 1.265 . S
H580 C585 0.950 . S
H581 C589 0.949 . S
H582 C590 0.950 . S
H583 C591 0.951 . S
H584 C592 0.951 . S
C585 C579 1.265 . S
C585 H580 0.950 . S
C585 C586 1.478 . S
C586 C585 1.478 . S
C586 C587 1.397 . S
C586 C603 1.394 . S
C587 C586 1.397 . S
C587 C588 1.438 . S
C587 C592 1.429 . S
C588 C587 1.438 . S
C588 C589 1.428 . S
C588 C601 1.394 . S
C589 H581 0.949 . S
C589 C588 1.428 . S
C589 C590 1.345 . S
C590 H582 0.950 . S
C590 C589 1.345 . S
C590 C591 1.424 . S
C591 H583 0.951 . S
C591 C590 1.424 . S
C591 C592 1.347 . S
C592 H584 0.951 . S
C592 C587 1.429 . S
C592 C591 1.347 . S
H593 C594 0.951 . S
C594 H593 0.951 . S
C594 C600 1.265 . S
H595 C600 0.950 . S
H596 C604 0.949 . S
H597 C605 0.950 . S
H598 C606 0.951 . S
H599 C607 0.951 . S
C600 C594 1.265 . S
C600 H595 0.950 . S
C600 C601 1.478 . S
C601 C588 1.394 . S
C601 C600 1.478 . S
C601 C602 1.397 . S
C602 C601 1.397 . S
C602 C603 1.438 . S
C602 C607 1.429 . S
C603 C586 1.394 . S
C603 C602 1.438 . S
C603 C604 1.428 . S
C604 H596 0.949 . S
C604 C603 1.428 . S
C604 C605 1.345 . S
C605 H597 0.950 . S
C605 C604 1.345 . S
C605 C606 1.424 . S
C606 H598 0.951 . S
C606 C605 1.424 . S
C606 C607 1.347 . S
C607 H599 0.951 . S
C607 C602 1.429 . S
C607 C606 1.347 . S
C129 C20 1.532 1_556 S
C144 C16 1.532 . S
C159 C52 1.493 1_455 S
C174 C48 1.493 1_554 S
C189 C84 1.498 1_556 S
C204 C80 1.498 . S
C219 C112 1.495 1_554 S
C234 C116 1.495 . S
C249 C19 0.540 . S
C264 C23 0.540 . S
C279 C51 0.671 . S
C294 C55 0.671 . S
C309 C87 0.673 . S
C324 C83 0.673 . S
C339 C119 0.668 . S
C354 C115 0.668 . S
C369 C114 1.870 . S
C384 C22 1.870 . S
C399 C117 2.048 . S
C414 C17 2.048 . S
C429 C86 1.801 . S
C444 C50 1.801 . S
C459 C81 2.047 . S
C474 C53 2.047 . S
C489 C18 1.868 . S
C504 C54 1.868 . S
C519 C21 1.727 . S
C534 C49 1.726 1_455 S
C549 C82 1.880 . S
C564 C118 1.880 . S
C579 C113 1.729 . S
C594 C85 1.729 . S
