# Generated by pormake.
# Topology umf, (4)-cn, num edge types: 1
# Building blocks:
#     Node 0, Type 0, BuildingBlock: CEKHIL_clean_sbu_0, # of connection points: 4
#     Node 1, Type 0, BuildingBlock: CEKHIL_clean_sbu_0, # of connection points: 4
#     Node 2, Type 0, BuildingBlock: CEKHIL_clean_sbu_0, # of connection points: 4
#     Node 3, Type 0, BuildingBlock: CEKHIL_clean_sbu_0, # of connection points: 4
#     Node 4, Type 0, BuildingBlock: CEKHIL_clean_sbu_0, # of connection points: 4
#     Node 5, Type 0, BuildingBlock: CEKHIL_clean_sbu_0, # of connection points: 4
#     Node 6, Type 0, BuildingBlock: CEKHIL_clean_sbu_0, # of connection points: 4
#     Node 7, Type 0, BuildingBlock: CEKHIL_clean_sbu_0, # of connection points: 4
#     Edge 8, Type (0, 0), BuildingBlock: FUNLAD_clean_linker_0, # of connection points: 2
#     Edge 9, Type (0, 0), BuildingBlock: FUNLAD_clean_linker_0, # of connection points: 2
#     Edge 10, Type (0, 0), BuildingBlock: FUNLAD_clean_linker_0, # of connection points: 2
#     Edge 11, Type (0, 0), BuildingBlock: FUNLAD_clean_linker_0, # of connection points: 2
#     Edge 12, Type (0, 0), BuildingBlock: FUNLAD_clean_linker_0, # of connection points: 2
#     Edge 13, Type (0, 0), BuildingBlock: FUNLAD_clean_linker_0, # of connection points: 2
#     Edge 14, Type (0, 0), BuildingBlock: FUNLAD_clean_linker_0, # of connection points: 2
#     Edge 15, Type (0, 0), BuildingBlock: FUNLAD_clean_linker_0, # of connection points: 2
#     Edge 16, Type (0, 0), BuildingBlock: FUNLAD_clean_linker_0, # of connection points: 2
#     Edge 17, Type (0, 0), BuildingBlock: FUNLAD_clean_linker_0, # of connection points: 2
#     Edge 18, Type (0, 0), BuildingBlock: FUNLAD_clean_linker_0, # of connection points: 2
#     Edge 19, Type (0, 0), BuildingBlock: FUNLAD_clean_linker_0, # of connection points: 2
#     Edge 20, Type (0, 0), BuildingBlock: FUNLAD_clean_linker_0, # of connection points: 2
#     Edge 21, Type (0, 0), BuildingBlock: FUNLAD_clean_linker_0, # of connection points: 2
#     Edge 22, Type (0, 0), BuildingBlock: FUNLAD_clean_linker_0, # of connection points: 2
#     Edge 23, Type (0, 0), BuildingBlock: FUNLAD_clean_linker_0, # of connection points: 2
# Relax obj value: 0.166
# Max RMSD: 0.288
# Mean RMSD: 0.281
data_MOF--net-umf--node1-CEKHIL_clean_sbu_0--edge1-FUNLAD_clean_linker_0
_symmetry_space_group_name_H-M    P1
_symmetry_Int_Tables_number       1
_symmetry_cell_setting            triclinic
loop_
_symmetry_equiv_pos_as_xyz
'x, y, z'
_cell_length_a     32.362021
_cell_length_b     30.869707
_cell_length_c     61.205184
_cell_angle_alpha  89.994101
_cell_angle_beta   90.000475
_cell_angle_gamma 90.01293
loop_
_atom_site_label
_atom_site_type_symbol
_atom_site_fract_x
_atom_site_fract_y
_atom_site_fract_z
_atom_type_partial_charge
Co0 Co 0.07108 0.26992 0.14271 0.0
O1 O 0.09473 0.29029 0.1694 0.0
O2 O 0.12323 0.24052 0.14818 0.0
C3 C 0.05371 0.33493 0.12949 0.0
O4 O 0.0543 0.24323 0.11332 0.0
Co5 Co 0.97706 0.28314 0.13739 0.0
O6 O 0.9887 0.26436 0.10706 0.0
C7 C 0.00588 0.21452 0.16617 0.0
C8 C 0.12442 0.26295 0.16624 0.0
C9 C 0.02207 0.24607 0.10092 0.0
O10 O 0.04244 0.22275 0.1593 0.0
O11 O 0.97432 0.23677 0.16048 0.0
O12 O 0.09114 0.32037 0.12716 0.0
O13 O 0.02976 0.31212 0.14195 0.0
Co14 Co 0.74599 0.07097 0.64321 0.0
O15 O 0.69127 0.07991 0.63241 0.0
O16 O 0.71581 0.0168 0.64385 0.0
C17 C 0.74778 0.12772 0.66617 0.0
O18 O 0.80119 0.05149 0.65603 0.0
Co19 Co 0.81135 0.13938 0.63069 0.0
O20 O 0.8432 0.10956 0.65394 0.0
C21 C 0.78763 0.07502 0.59798 0.0
C22 C 0.68498 0.03909 0.63605 0.0
C23 C 0.83499 0.07154 0.66081 0.0
O24 O 0.76567 0.05702 0.61288 0.0
O25 O 0.8066 0.11094 0.601 0.0
O26 O 0.72975 0.09186 0.67166 0.0
O27 O 0.75915 0.13031 0.64583 0.0
Co28 Co 0.94421 0.76487 0.14647 0.0
O29 O 0.92808 0.74223 0.17427 0.0
O30 O 0.88688 0.77981 0.15249 0.0
C31 C 0.97582 0.7055 0.13416 0.0
O32 O 0.9518 0.79078 0.11587 0.0
Co33 Co 0.03775 0.77666 0.13899 0.0
O34 O 0.0199 0.78617 0.10841 0.0
C35 C 0.99487 0.83963 0.16611 0.0
C36 C 0.89228 0.75971 0.17103 0.0
C37 C 0.98277 0.79387 0.10261 0.0
O38 O 0.96121 0.82047 0.16081 0.0
O39 O 0.03043 0.82571 0.16028 0.0
O40 O 0.93592 0.70925 0.13278 0.0
O41 O 0.99456 0.73479 0.14566 0.0
Co42 Co 0.2526 0.91993 0.64209 0.0
O43 O 0.30753 0.9057 0.63305 0.0
O44 O 0.28658 0.97147 0.64249 0.0
C45 C 0.24452 0.8654 0.66593 0.0
O46 O 0.19807 0.94521 0.65317 0.0
Co47 Co 0.18233 0.8578 0.62957 0.0
O48 O 0.15318 0.88957 0.65304 0.0
C49 C 0.21364 0.91685 0.59612 0.0
C50 C 0.31641 0.94622 0.63602 0.0
C51 C 0.16355 0.92763 0.65888 0.0
O52 O 0.23734 0.93261 0.61091 0.0
O53 O 0.18936 0.88487 0.5997 0.0
O54 O 0.26446 0.90024 0.67126 0.0
O55 O 0.23459 0.86201 0.64538 0.0
Co56 Co 0.03677 0.74233 0.86012 0.0
O57 O 0.06012 0.72346 0.83306 0.0
O58 O 0.08867 0.7724 0.85477 0.0
C59 C 0.02049 0.67653 0.87267 0.0
O60 O 0.02056 0.76719 0.89004 0.0
Co61 Co 0.94325 0.72805 0.86619 0.0
O62 O 0.95637 0.74253 0.89691 0.0
C63 C 0.97035 0.79936 0.83862 0.0
C64 C 0.0899 0.75055 0.83653 0.0
C65 C 0.98942 0.76153 0.90297 0.0
O66 O 0.0074 0.79005 0.8443 0.0
O67 O 0.93896 0.77734 0.84477 0.0
O68 O 0.05774 0.6916 0.87491 0.0
O69 O 0.99583 0.69942 0.8606 0.0
Co70 Co 0.24767 0.08441 0.37089 0.0
O71 O 0.30326 0.09911 0.3784 0.0
O72 O 0.28004 0.032 0.37498 0.0
C73 C 0.24154 0.13 0.34249 0.0
O74 O 0.19145 0.05881 0.36238 0.0
Co75 Co 0.18155 0.15398 0.378 0.0
O76 O 0.14993 0.11655 0.35779 0.0
C77 C 0.20815 0.10324 0.41577 0.0
C78 C 0.3109 0.05798 0.37899 0.0
C79 C 0.15754 0.07631 0.35557 0.0
O80 O 0.23227 0.08298 0.40267 0.0
O81 O 0.1853 0.13474 0.40953 0.0
O82 O 0.2595 0.09272 0.34042 0.0
O83 O 0.2328 0.14141 0.36245 0.0
Co84 Co 0.95199 0.23287 0.86082 0.0
O85 O 0.9303 0.2542 0.83384 0.0
O86 O 0.89722 0.2088 0.85572 0.0
C87 C 0.975 0.29639 0.87337 0.0
O88 O 0.96588 0.20669 0.89075 0.0
Co89 Co 0.0465 0.23661 0.86639 0.0
O90 O 0.03295 0.22203 0.89704 0.0
C91 C 0.01186 0.16888 0.83893 0.0
C92 C 0.89792 0.23074 0.83749 0.0
C93 C 0.99793 0.20781 0.90335 0.0
O94 O 0.97608 0.18195 0.84499 0.0
O95 O 0.04533 0.18774 0.84467 0.0
O96 O 0.93645 0.28554 0.87567 0.0
O97 O 0.99708 0.27112 0.86112 0.0
Co98 Co 0.73608 0.90075 0.3704 0.0
O99 O 0.68164 0.8843 0.37924 0.0
O100 O 0.70019 0.95123 0.37073 0.0
C101 C 0.74492 0.84755 0.34574 0.0
O102 O 0.79039 0.92769 0.3598 0.0
Co103 Co 0.80669 0.83786 0.38212 0.0
O104 O 0.83665 0.87317 0.36027 0.0
C105 C 0.77644 0.89689 0.41602 0.0
C106 C 0.67112 0.92441 0.37663 0.0
C107 C 0.82598 0.91143 0.35489 0.0
O108 O 0.75182 0.91262 0.40162 0.0
O109 O 0.8001 0.86456 0.41208 0.0
O110 O 0.72442 0.88228 0.3409 0.0
O111 O 0.75494 0.84339 0.3662 0.0
C112 C 0.07089 0.4037 0.11023 0.0
C113 C 0.04153 0.37749 0.1208 0.0
C114 C 0.06123 0.44623 0.10449 0.0
C115 C 0.02197 0.4632 0.10922 0.0
C116 C 0.99177 0.436 0.11835 0.0
C117 C 0.00152 0.39353 0.12423 0.0
C118 C 0.01213 0.50959 0.1062 0.0
C119 C 0.04049 0.5412 0.10876 0.0
C120 C 0.02819 0.58704 0.11167 0.0
C121 C 0.05052 0.61316 0.12631 0.0
C122 C 0.03497 0.65347 0.13274 0.0
C123 C 0.99693 0.66794 0.12456 0.0
H124 H 0.97539 0.58527 0.08977 0.0
C125 C 0.9767 0.64367 0.10839 0.0
C126 C 0.99235 0.60373 0.10184 0.0
H127 H 0.94781 0.65475 0.10139 0.0
H128 H 0.10184 0.3919 0.10707 0.0
H129 H 0.08476 0.46592 0.09679 0.0
H130 H 0.96112 0.44825 0.12191 0.0
H131 H 0.97816 0.37383 0.13212 0.0
H132 H 0.9796 0.51798 0.10506 0.0
H133 H 0.07243 0.53281 0.11218 0.0
H134 H 0.07859 0.60122 0.13384 0.0
H135 H 0.05133 0.67189 0.14507 0.0
C136 C 0.38907 0.93353 0.62436 0.0
C137 C 0.35904 0.9618 0.63282 0.0
C138 C 0.43013 0.94662 0.62253 0.0
C139 C 0.44216 0.98823 0.62934 0.0
C140 C 0.41186 0.01706 0.63703 0.0
C141 C 0.37063 0.00395 0.63882 0.0
C142 C 0.48582 0.00271 0.62843 0.0
C143 C 0.5182 0.97521 0.62912 0.0
C144 C 0.56169 0.99032 0.62922 0.0
C145 C 0.59215 0.96479 0.63933 0.0
C146 C 0.63289 0.97969 0.64095 0.0
C147 C 0.6437 0.02031 0.63237 0.0
H148 H 0.55111 0.0495 0.61078 0.0
C149 C 0.61371 0.04471 0.62125 0.0
C150 C 0.57323 0.02981 0.61957 0.0
H151 H 0.62131 0.07581 0.6141 0.0
H152 H 0.38097 0.90101 0.61927 0.0
H153 H 0.45217 0.92404 0.61568 0.0
H154 H 0.42024 0.04952 0.6421 0.0
H155 H 0.34809 0.02648 0.64529 0.0
H156 H 0.49127 0.03742 0.6286 0.0
H157 H 0.51293 0.94073 0.63122 0.0
H158 H 0.58416 0.93389 0.64658 0.0
H159 H 0.65547 0.96013 0.6495 0.0
C160 C 0.96527 0.36176 0.89639 0.0
C161 C 0.99019 0.33794 0.88194 0.0
C162 C 0.97548 0.40424 0.9018 0.0
C163 C 0.01067 0.42378 0.89268 0.0
C164 C 0.0375 0.39875 0.87979 0.0
C165 C 0.02728 0.35607 0.87438 0.0
C166 C 0.01834 0.47084 0.89484 0.0
C167 C 0.98714 0.49976 0.89556 0.0
C168 C 0.99387 0.54678 0.89257 0.0
C169 C 0.96365 0.57124 0.88166 0.0
C170 C 0.97139 0.61429 0.87591 0.0
C171 C 0.00937 0.63352 0.8812 0.0
H172 H 0.05391 0.54956 0.90836 0.0
C173 C 0.03832 0.61 0.89352 0.0
C174 C 0.03064 0.56704 0.89921 0.0
H175 H 0.06758 0.6243 0.8982 0.0
H176 H 0.93695 0.34816 0.90288 0.0
H177 H 0.95507 0.42211 0.91253 0.0
H178 H 0.06514 0.413 0.87285 0.0
H179 H 0.04723 0.33819 0.8634 0.0
H180 H 0.0499 0.48202 0.89268 0.0
H181 H 0.95535 0.48842 0.89536 0.0
H182 H 0.93482 0.55643 0.87663 0.0
H183 H 0.94837 0.63187 0.86661 0.0
C184 C 0.36414 -0.0012 0.38123 0.0
C185 C 0.35347 0.04269 0.38305 0.0
C186 C 0.40542 0.98579 0.38339 0.0
C187 C 0.43682 0.01664 0.38729 0.0
C188 C 0.4256 0.06017 0.38996 0.0
C189 C 0.38456 0.07307 0.38782 0.0
C190 C 0.48157 0.00561 0.3884 0.0
C191 C 0.49774 0.96809 0.38123 0.0
C192 C 0.54273 0.95886 0.38139 0.0
C193 C 0.55551 0.91573 0.38339 0.0
C194 C 0.5973 0.90509 0.38246 0.0
C195 C 0.62739 0.9373 0.3791 0.0
H196 H 0.56391 0.02493 0.37616 0.0
C197 C 0.61479 0.98065 0.37718 0.0
C198 C 0.57277 0.99141 0.37835 0.0
H199 H 0.63726 0.00608 0.37442 0.0
H200 H 0.34076 0.97465 0.37775 0.0
H201 H 0.41223 0.95166 0.38191 0.0
H202 H 0.44885 0.08461 0.3932 0.0
H203 H 0.37739 0.10718 0.38952 0.0
H204 H 0.50227 0.03025 0.39481 0.0
H205 H 0.47777 0.94263 0.37514 0.0
H206 H 0.53303 0.89006 0.38559 0.0
H207 H 0.60586 0.87129 0.38392 0.0
C208 C 0.03074 0.18392 0.93825 0.0
C209 C 0.99468 0.19481 0.92661 0.0
C210 C 0.02994 0.17896 0.96091 0.0
C211 C 0.99305 0.18528 0.97261 0.0
C212 C 0.95641 0.19304 0.96083 0.0
C213 C 0.95717 0.19781 0.93804 0.0
C214 C 0.99186 0.18595 0.99698 0.0
C215 C 0.02492 0.19608 0.00955 0.0
C216 C 0.02307 0.20397 0.03361 0.0
C217 C 0.06017 0.20621 0.0456 0.0
C218 C 0.06013 0.21821 0.06772 0.0
C219 C 0.02291 0.22868 0.07827 0.0
H220 H 0.95645 0.21285 0.03602 0.0
C221 C 0.98574 0.22507 0.06644 0.0
C222 C 0.98576 0.21306 0.04446 0.0
H223 H 0.95635 0.23266 0.07399 0.0
H224 H 0.06005 0.18045 0.92987 0.0
H225 H 0.05851 0.17091 0.96913 0.0
H226 H 0.92739 0.19742 0.96937 0.0
H227 H 0.92888 0.2061 0.92956 0.0
H228 H 0.96193 0.18084 1.00449 0.0
H229 H 0.05473 0.20124 1.00188 0.0
H230 H 0.08946 0.19964 0.0377 0.0
H231 H 0.08931 0.22072 0.07629 0.0
C232 C 0.80429 0.07218 0.55758 0.0
C233 C 0.79182 0.05136 0.57693 0.0
C234 C 0.80679 0.04897 0.53787 0.0
C235 C 0.79734 0.00437 0.53724 0.0
C236 C 0.7861 0.98356 0.55669 0.0
C237 C 0.78296 0.00672 0.57619 0.0
C238 C 0.79892 0.97822 0.5168 0.0
C239 C 0.79003 0.99459 0.49696 0.0
C240 C 0.78659 0.96762 0.47682 0.0
C241 C 0.76084 0.98216 0.45993 0.0
C242 C 0.75679 0.95847 0.44062 0.0
C243 C 0.77893 0.91968 0.43744 0.0
H244 H 0.82947 0.91679 0.48631 0.0
C245 C 0.80483 0.90496 0.45436 0.0
C246 C 0.80859 0.92862 0.47386 0.0
H247 H 0.82264 0.87552 0.45244 0.0
H248 H 0.81158 0.10642 0.55761 0.0
H249 H 0.81653 0.06587 0.52326 0.0
H250 H 0.77895 0.94925 0.55676 0.0
H251 H 0.77374 0.98937 0.59079 0.0
H252 H 0.80364 0.94355 0.51852 0.0
H253 H 0.78148 0.02853 0.49563 0.0
H254 H 0.7436 0.01206 0.46168 0.0
H255 H 0.73669 0.97119 0.42801 0.0
C256 C 0.00939 0.8189 0.06643 0.0
C257 C 0.97601 0.80427 0.07921 0.0
C258 C 0.00583 0.8225 0.04377 0.0
C259 C 0.96883 0.81109 0.03321 0.0
C260 C 0.93462 0.79915 0.0461 0.0
C261 C 0.93814 0.79571 0.06888 0.0
C262 C 0.96507 0.80994 0.00892 0.0
C263 C 0.99762 0.80448 0.99529 0.0
C264 C 0.99399 0.79733 0.97123 0.0
C265 C 0.02947 0.80114 0.95802 0.0
C266 C 0.02812 0.79093 0.93568 0.0
C267 C 0.99123 0.77632 0.92609 0.0
H268 H 0.92902 0.77895 0.97083 0.0
C269 C 0.95559 0.77349 0.93924 0.0
C270 C 0.95693 0.78362 0.96143 0.0
H271 H 0.92649 0.76236 0.93253 0.0
H272 H 0.03883 0.82663 0.0739 0.0
H273 H 0.03239 0.83377 0.03468 0.0
H274 H 0.9055 0.79075 0.03846 0.0
H275 H 0.91185 0.7844 0.07823 0.0
H276 H 0.93399 0.81114 1.00236 0.0
H277 H 0.02864 0.80325 1.00198 0.0
H278 H 0.05858 0.81132 0.9651 0.0
H279 H 0.05617 0.79339 0.92611 0.0
C280 C 0.23504 0.05652 0.44599 0.0
C281 C 0.20548 0.08655 0.43855 0.0
C282 C 0.23083 0.03634 0.46627 0.0
C283 C 0.19705 0.04582 0.47993 0.0
C284 C 0.16773 0.07629 0.4727 0.0
C285 C 0.172 0.09669 0.4523 0.0
C286 C 0.19096 0.02294 0.50121 0.0
C287 C 0.22273 0.0065 0.51285 0.0
C288 C 0.21846 0.9831 0.53402 0.0
C289 C 0.25231 0.98322 0.54832 0.0
C290 C 0.2506 0.96123 0.5682 0.0
C291 C 0.21517 0.9377 0.57424 0.0
H292 H 0.15668 0.95748 0.52893 0.0
C293 C 0.18147 0.93648 0.55973 0.0
C294 C 0.18298 0.95921 0.53982 0.0
H295 H 0.15374 0.91868 0.56392 0.0
H296 H 0.26116 0.04761 0.43588 0.0
H297 H 0.25351 0.01219 0.47076 0.0
H298 H 0.14124 0.08404 0.48279 0.0
H299 H 0.14843 0.11928 0.44702 0.0
H300 H 0.1598 0.02097 0.50773 0.0
H301 H 0.25409 0.01233 0.50726 0.0
H302 H 0.28022 0.00084 0.5442 0.0
H303 H 0.27729 0.96267 0.57887 0.0
C304 C 0.15422 0.28158 0.20254 0.0
C305 C 0.15397 0.25426 0.18413 0.0
C306 C 0.17516 0.26965 0.22154 0.0
C307 C 0.19634 0.23002 0.22255 0.0
C308 C 0.19884 0.20434 0.2036 0.0
C309 C 0.17765 0.21621 0.18456 0.0
C310 C 0.2145 0.21351 0.24324 0.0
C311 C 0.19852 0.22235 0.26318 0.0
C312 C 0.21169 0.19988 0.2836 0.0
C313 C 0.2017 0.21778 0.30413 0.0
C314 C 0.21152 0.19577 0.32356 0.0
C315 C 0.23132 0.15538 0.3227 0.0
H316 H 0.23811 0.14312 0.26774 0.0
C317 C 0.24115 0.13765 0.30219 0.0
C318 C 0.2313 0.15932 0.28297 0.0
H319 H 0.256 0.10632 0.30083 0.0
H320 H 0.13675 0.31151 0.20263 0.0
H321 H 0.17393 0.29112 0.2355 0.0
H322 H 0.21547 0.17388 0.20387 0.0
H323 H 0.17805 0.19452 0.17065 0.0
H324 H 0.23979 0.19073 0.24161 0.0
H325 H 0.17331 0.24536 0.26466 0.0
H326 H 0.186 0.24871 0.30513 0.0
H327 H 0.20334 0.2101 0.33912 0.0
C328 C 0.841 0.18973 0.81882 0.0
C329 C 0.86621 0.22657 0.82026 0.0
C330 C 0.8169 0.18265 0.80013 0.0
C331 C 0.81766 0.21217 0.78259 0.0
C332 C 0.84062 0.25056 0.78484 0.0
C333 C 0.86479 0.25747 0.80339 0.0
C334 C 0.79528 0.20109 0.76207 0.0
C335 C 0.80497 0.21759 0.74222 0.0
C336 C 0.78634 0.20134 0.72153 0.0
C337 C 0.80886 0.20434 0.70189 0.0
C338 C 0.79478 0.18364 0.68287 0.0
C339 C 0.75814 0.15939 0.68338 0.0
H340 H 0.72809 0.17991 0.73556 0.0
C341 C 0.73386 0.1599 0.7024 0.0
C342 C 0.74752 0.18097 0.72119 0.0
H343 H 0.70493 0.14225 0.70308 0.0
H344 H 0.84154 0.16535 0.83154 0.0
H345 H 0.79899 0.15308 0.799 0.0
H346 H 0.84072 0.27506 0.77221 0.0
H347 H 0.88345 0.28658 0.80421 0.0
H348 H 0.77264 0.17525 0.76322 0.0
H349 H 0.83024 0.24049 0.74071 0.0
H350 H 0.83846 0.22072 0.70154 0.0
H351 H 0.81382 0.18429 0.66834 0.0
C352 C 0.73227 0.81569 0.30931 0.0
C353 C 0.75726 0.81781 0.32804 0.0
C354 C 0.74655 0.79608 0.29025 0.0
C355 C 0.78676 0.77897 0.2893 0.0
C356 C 0.81043 0.77779 0.30862 0.0
C357 C 0.79572 0.79692 0.32792 0.0
C358 C 0.80554 0.76423 0.26832 0.0
C359 C 0.79281 0.7786 0.24852 0.0
C360 C 0.81478 0.76945 0.22762 0.0
C361 C 0.80843 0.79725 0.20968 0.0
C362 C 0.83169 0.79263 0.1905 0.0
C363 C 0.86171 0.76003 0.18896 0.0
H364 H 0.84736 0.71154 0.23828 0.0
C365 C 0.86607 0.73047 0.20629 0.0
C366 C 0.84271 0.73488 0.22533 0.0
H367 H 0.88859 0.70456 0.20542 0.0
H368 H 0.70203 0.83078 0.30911 0.0
H369 H 0.7263 0.79562 0.2762 0.0
H370 H 0.8412 0.76398 0.30851 0.0
H371 H 0.81543 0.7977 0.3422 0.0
H372 H 0.83311 0.74441 0.26953 0.0
H373 H 0.7674 0.80143 0.24759 0.0
H374 H 0.78667 0.82381 0.21082 0.0
H375 H 0.82773 0.81591 0.17743 0.0
C376 C 0.25456 0.83464 0.70285 0.0
C377 C 0.23176 0.83507 0.68331 0.0
C378 C 0.23941 0.81382 0.72137 0.0
C379 C 0.20057 0.79352 0.72093 0.0
C380 C 0.17931 0.79082 0.70089 0.0
C381 C 0.19485 0.81136 0.68215 0.0
C382 C 0.18104 0.77636 0.7412 0.0
C383 C 0.18952 0.79231 0.7613 0.0
C384 C 0.16745 0.77884 0.78153 0.0
C385 C 0.16632 0.80733 0.79949 0.0
C386 C 0.14301 0.79732 0.81811 0.0
C387 C 0.12055 0.75851 0.81909 0.0
H388 H 0.14857 0.7151 0.7702 0.0
C389 C 0.12378 0.72889 0.80172 0.0
C390 C 0.1471 0.73877 0.7832 0.0
H391 H 0.10727 0.69836 0.80214 0.0
H392 H 0.28365 0.85186 0.70407 0.0
H393 H 0.25787 0.8147 0.7361 0.0
H394 H 0.1497 0.77454 0.69998 0.0
H395 H 0.17688 0.81076 0.66723 0.0
H396 H 0.15652 0.75271 0.73917 0.0
H397 H 0.2112 0.81895 0.76295 0.0
H398 H 0.18225 0.83817 0.79878 0.0
H399 H 0.14105 0.82078 0.83123 0.0
C400 C 0.96287 0.15322 0.18072 0.0
C401 C 0.0008 0.17515 0.17967 0.0
C402 C 0.96088 0.11133 0.18944 0.0
C403 C 0.99697 0.09068 0.19718 0.0
C404 C 0.03374 0.11463 0.1982 0.0
C405 C 0.03571 0.15628 0.18951 0.0
C406 C -0.00043 0.04331 0.2016 0.0
C407 C 0.97108 0.01458 0.1948 0.0
C408 C 0.97979 0.96768 0.19216 0.0
C409 C 0.94639 0.93887 0.19146 0.0
C410 C 0.95198 0.89631 0.18444 0.0
C411 C 0.99113 0.88171 0.1776 0.0
H412 H 0.046 0.97377 0.18667 0.0
C413 C 0.02516 0.90966 0.17967 0.0
C414 C 0.01956 0.95231 0.18684 0.0
H415 H 0.05569 0.8995 0.17455 0.0
H416 H 0.93529 0.16722 0.1736 0.0
H417 H 0.93138 0.09497 0.18914 0.0
H418 H 0.06187 0.10007 0.2044 0.0
H419 H 0.06529 0.17276 0.18945 0.0
H420 H 0.02854 0.03115 0.20816 0.0
H421 H 0.94129 0.02556 0.18892 0.0
H422 H 0.91547 0.94988 0.19539 0.0
H423 H 0.92506 0.87555 0.18334 0.0
C424 C 0.10407 0.93072 0.68446 0.0
C425 C 0.13225 0.95271 0.67096 0.0
C426 C 0.06856 0.95142 0.69203 0.0
C427 C 0.06018 0.99439 0.68587 0.0
C428 C 0.09042 0.0176 0.6742 0.0
C429 C 0.12628 -0.00308 0.66679 0.0
C430 C 0.01901 0.01459 0.68936 0.0
C431 C 0.98374 0.99122 0.69054 0.0
C432 C 0.94216 0.01067 0.68738 0.0
C433 C 0.91077 0.98526 0.67796 0.0
C434 C 0.87397 0.00432 0.67078 0.0
C435 C 0.8681 0.04914 0.67293 0.0
H436 H 0.95676 0.07486 0.69979 0.0
C437 C 0.8977 0.0737 0.68432 0.0
C438 C 0.93424 0.05464 0.69162 0.0
H439 H 0.89345 0.1082 0.68669 0.0
H440 H 0.10854 0.89678 0.68835 0.0
H441 H 0.04708 0.93306 0.70191 0.0
H442 H 0.08507 0.05099 0.66954 0.0
H443 H 0.14763 0.01463 0.65649 0.0
H444 H 0.01735 0.04951 0.68751 0.0
H445 H 0.9853 0.9561 0.69044 0.0
H446 H 0.91579 0.95112 0.67483 0.0
H447 H 0.85158 0.98459 0.66217 0.0
C448 C 0.97802 0.11333 0.81537 0.0
C449 C 0.01345 0.12788 0.82648 0.0
C450 C 0.97575 0.07101 0.80746 0.0
C451 C 0.00872 0.04212 0.81083 0.0
C452 C 0.04555 0.05795 0.82006 0.0
C453 C 0.04795 0.10049 0.82783 0.0
C454 C 0.00471 0.99474 0.80698 0.0
C455 C 0.96813 0.97364 0.80775 0.0
C456 C 0.96502 0.926 0.81101 0.0
C457 C 0.93056 0.90932 0.82222 0.0
C458 C 0.93038 0.86649 0.82972 0.0
C459 C 0.96478 0.8398 0.82612 0.0
H460 H 0.02337 0.90854 0.79573 0.0
C461 C 0.99727 0.8551 0.81296 0.0
C462 C 0.99724 0.89764 0.80529 0.0
H463 H 0.0238 0.8348 0.80951 0.0
H464 H 0.95125 0.13412 0.81359 0.0
H465 H 0.94757 0.06077 0.79948 0.0
H466 H 0.07171 0.03659 0.82253 0.0
H467 H 0.07576 0.11086 0.83618 0.0
H468 H 0.03324 0.9763 0.80697 0.0
H469 H 0.93974 0.99198 0.80956 0.0
H470 H 0.90496 0.93027 0.82653 0.0
H471 H 0.90487 0.85547 0.83974 0.0
C472 C 0.89015 0.91791 0.33284 0.0
C473 C 0.85849 0.93833 0.34475 0.0
C474 C 0.92653 0.93997 0.32782 0.0
C475 C 0.93216 0.98292 0.33478 0.0
C476 C 0.89893 0.00465 0.34477 0.0
C477 C 0.86232 0.9825 0.34977 0.0
C478 C 0.97293 0.00487 0.33312 0.0
C479 C 0.00914 0.98311 0.33426 0.0
C480 C 0.04977 0.0051 0.33662 0.0
C481 C 0.08185 0.98408 0.34796 0.0
C482 C 0.11854 0.00607 0.35298 0.0
C483 C 0.12367 0.04943 0.34665 0.0
H484 H 0.03338 0.06379 0.31907 0.0
C485 C 0.09297 0.06913 0.33374 0.0
C486 C 0.05653 0.04721 0.3287 0.0
H487 H 0.09645 0.10226 0.32818 0.0
H488 H 0.88766 0.88405 0.32835 0.0
H489 H 0.95067 0.92279 0.31918 0.0
H490 H 0.90224 0.03803 0.34994 0.0
H491 H 0.83842 -0.00096 0.35893 0.0
H492 H 0.97294 0.04003 0.33362 0.0
H493 H 0.00886 0.9481 0.33601 0.0
H494 H 0.0777 0.95133 0.35393 0.0
H495 H 0.14167 0.99001 0.36288 0.0
loop_
_geom_bond_atom_site_label_1
_geom_bond_atom_site_label_2
_geom_bond_distance
_geom_bond_site_symmetry_2
_ccdc_geom_bond_type
Co0 O1 2.216 . S
Co0 O2 2.091 . S
Co0 O4 2.004 . S
Co0 O10 2.021 . S
Co0 O12 2.137 . S
Co0 O13 2.244 . S
O1 Co0 2.216 . S
O1 C8 1.247 . S
O2 Co0 2.091 . S
O2 C8 1.261 . S
C3 O12 1.247 . S
C3 O13 1.272 . S
O4 Co0 2.004 . S
O4 C9 1.259 . S
Co5 O6 2.061 . S
Co5 O11 2.052 . S
Co5 O13 2.135 . S
O6 Co5 2.061 . S
O6 C9 1.235 . S
C7 O10 1.238 . S
C7 O11 1.241 . S
C8 O1 1.247 . S
C8 O2 1.261 . S
C9 O4 1.259 . S
C9 O6 1.235 . S
O10 Co0 2.021 . S
O10 C7 1.238 . S
O11 Co5 2.052 . S
O11 C7 1.241 . S
O12 Co0 2.137 . S
O12 C3 1.247 . S
O13 Co0 2.244 . S
O13 C3 1.272 . S
O13 Co5 2.135 . S
Co14 O15 2.216 . S
Co14 O16 2.091 . S
Co14 O18 2.004 . S
Co14 O24 2.021 . S
Co14 O26 2.137 . S
Co14 O27 2.244 . S
O15 Co14 2.216 . S
O15 C22 1.247 . S
O16 Co14 2.091 . S
O16 C22 1.261 . S
C17 O26 1.247 . S
C17 O27 1.272 . S
O18 Co14 2.004 . S
O18 C23 1.259 . S
Co19 O20 2.061 . S
Co19 O25 2.052 . S
Co19 O27 2.135 . S
O20 Co19 2.061 . S
O20 C23 1.235 . S
C21 O24 1.238 . S
C21 O25 1.241 . S
C22 O15 1.247 . S
C22 O16 1.261 . S
C23 O18 1.259 . S
C23 O20 1.235 . S
O24 Co14 2.021 . S
O24 C21 1.238 . S
O25 Co19 2.052 . S
O25 C21 1.241 . S
O26 Co14 2.137 . S
O26 C17 1.247 . S
O27 Co14 2.244 . S
O27 C17 1.272 . S
O27 Co19 2.135 . S
Co28 O29 2.216 . S
Co28 O30 2.091 . S
Co28 O32 2.004 . S
Co28 O38 2.021 . S
Co28 O40 2.137 . S
Co28 O41 2.244 . S
O29 Co28 2.216 . S
O29 C36 1.247 . S
O30 Co28 2.091 . S
O30 C36 1.261 . S
C31 O40 1.247 . S
C31 O41 1.272 . S
O32 Co28 2.004 . S
O32 C37 1.259 . S
Co33 O34 2.061 . S
Co33 O39 2.052 . S
Co33 O41 2.135 . S
O34 Co33 2.061 . S
O34 C37 1.235 . S
C35 O38 1.238 . S
C35 O39 1.241 . S
C36 O29 1.247 . S
C36 O30 1.261 . S
C37 O32 1.259 . S
C37 O34 1.235 . S
O38 Co28 2.021 . S
O38 C35 1.238 . S
O39 Co33 2.052 . S
O39 C35 1.241 . S
O40 Co28 2.137 . S
O40 C31 1.247 . S
O41 Co28 2.244 . S
O41 C31 1.272 . S
O41 Co33 2.135 . S
Co42 O43 2.216 . S
Co42 O44 2.091 . S
Co42 O46 2.004 . S
Co42 O52 2.021 . S
Co42 O54 2.137 . S
Co42 O55 2.244 . S
O43 Co42 2.216 . S
O43 C50 1.247 . S
O44 Co42 2.091 . S
O44 C50 1.261 . S
C45 O54 1.247 . S
C45 O55 1.272 . S
O46 Co42 2.004 . S
O46 C51 1.259 . S
Co47 O48 2.061 . S
Co47 O53 2.052 . S
Co47 O55 2.135 . S
O48 Co47 2.061 . S
O48 C51 1.235 . S
C49 O52 1.238 . S
C49 O53 1.241 . S
C50 O43 1.247 . S
C50 O44 1.261 . S
C51 O46 1.259 . S
C51 O48 1.235 . S
O52 Co42 2.021 . S
O52 C49 1.238 . S
O53 Co47 2.052 . S
O53 C49 1.241 . S
O54 Co42 2.137 . S
O54 C45 1.247 . S
O55 Co42 2.244 . S
O55 C45 1.272 . S
O55 Co47 2.135 . S
Co56 O57 2.216 . S
Co56 O58 2.091 . S
Co56 O60 2.004 . S
Co56 O66 2.021 . S
Co56 O68 2.137 . S
Co56 O69 2.244 . S
O57 Co56 2.216 . S
O57 C64 1.247 . S
O58 Co56 2.091 . S
O58 C64 1.261 . S
C59 O68 1.247 . S
C59 O69 1.272 . S
O60 Co56 2.004 . S
O60 C65 1.259 . S
Co61 O62 2.061 . S
Co61 O67 2.052 . S
Co61 O69 2.135 . S
O62 Co61 2.061 . S
O62 C65 1.235 . S
C63 O66 1.238 . S
C63 O67 1.241 . S
C64 O57 1.247 . S
C64 O58 1.261 . S
C65 O60 1.259 . S
C65 O62 1.235 . S
O66 Co56 2.021 . S
O66 C63 1.238 . S
O67 Co61 2.052 . S
O67 C63 1.241 . S
O68 Co56 2.137 . S
O68 C59 1.247 . S
O69 Co56 2.244 . S
O69 C59 1.272 . S
O69 Co61 2.135 . S
Co70 O71 2.216 . S
Co70 O72 2.091 . S
Co70 O74 2.004 . S
Co70 O80 2.021 . S
Co70 O82 2.137 . S
Co70 O83 2.244 . S
O71 Co70 2.216 . S
O71 C78 1.247 . S
O72 Co70 2.091 . S
O72 C78 1.261 . S
C73 O82 1.247 . S
C73 O83 1.272 . S
O74 Co70 2.004 . S
O74 C79 1.259 . S
Co75 O76 2.061 . S
Co75 O81 2.052 . S
Co75 O83 2.135 . S
O76 Co75 2.061 . S
O76 C79 1.235 . S
C77 O80 1.238 . S
C77 O81 1.241 . S
C78 O71 1.247 . S
C78 O72 1.261 . S
C79 O74 1.259 . S
C79 O76 1.235 . S
O80 Co70 2.021 . S
O80 C77 1.238 . S
O81 Co75 2.052 . S
O81 C77 1.241 . S
O82 Co70 2.137 . S
O82 C73 1.247 . S
O83 Co70 2.244 . S
O83 C73 1.272 . S
O83 Co75 2.135 . S
Co84 O85 2.216 . S
Co84 O86 2.091 . S
Co84 O88 2.004 . S
Co84 O94 2.021 . S
Co84 O96 2.137 . S
Co84 O97 2.244 . S
O85 Co84 2.216 . S
O85 C92 1.247 . S
O86 Co84 2.091 . S
O86 C92 1.261 . S
C87 O96 1.247 . S
C87 O97 1.272 . S
O88 Co84 2.004 . S
O88 C93 1.259 . S
Co89 O90 2.061 . S
Co89 O95 2.052 . S
Co89 O97 2.135 . S
O90 Co89 2.061 . S
O90 C93 1.235 . S
C91 O94 1.238 . S
C91 O95 1.241 . S
C92 O85 1.247 . S
C92 O86 1.261 . S
C93 O88 1.259 . S
C93 O90 1.235 . S
O94 Co84 2.021 . S
O94 C91 1.238 . S
O95 Co89 2.052 . S
O95 C91 1.241 . S
O96 Co84 2.137 . S
O96 C87 1.247 . S
O97 Co84 2.244 . S
O97 C87 1.272 . S
O97 Co89 2.135 . S
Co98 O99 2.216 . S
Co98 O100 2.091 . S
Co98 O102 2.004 . S
Co98 O108 2.021 . S
Co98 O110 2.137 . S
Co98 O111 2.244 . S
O99 Co98 2.216 . S
O99 C106 1.247 . S
O100 Co98 2.091 . S
O100 C106 1.261 . S
C101 O110 1.247 . S
C101 O111 1.272 . S
O102 Co98 2.004 . S
O102 C107 1.259 . S
Co103 O104 2.061 . S
Co103 O109 2.052 . S
Co103 O111 2.135 . S
O104 Co103 2.061 . S
O104 C107 1.235 . S
C105 O108 1.238 . S
C105 O109 1.241 . S
C106 O99 1.247 . S
C106 O100 1.261 . S
C107 O102 1.259 . S
C107 O104 1.235 . S
O108 Co98 2.021 . S
O108 C105 1.238 . S
O109 Co103 2.052 . S
O109 C105 1.241 . S
O110 Co98 2.137 . S
O110 C101 1.247 . S
O111 Co98 2.244 . S
O111 C101 1.272 . S
O111 Co103 2.135 . S
C112 C113 1.386 . S
C112 C114 1.383 . S
C112 H128 0.951 . S
C113 C112 1.386 . S
C113 C117 1.383 . S
C114 C112 1.383 . S
C114 C115 1.402 . S
C114 H129 0.951 . S
C115 C114 1.402 . S
C115 C116 1.375 . S
C115 C118 1.481 . S
C116 C115 1.375 . S
C116 C117 1.367 . S
C116 H130 0.951 . S
C117 C113 1.383 . S
C117 C116 1.367 . S
C117 H131 0.950 . S
C118 C115 1.481 . S
C118 C119 1.297 . S
C118 H132 0.950 1_455 S
C119 C118 1.297 . S
C119 C120 1.479 1_455 S
C119 H133 0.950 . S
C120 C119 1.479 1_655 S
C120 C121 1.376 . S
C120 C126 1.404 . S
C121 C120 1.376 . S
C121 C122 1.375 . S
C121 H134 0.943 1_655 S
C122 C121 1.375 . S
C122 C123 1.392 . S
C122 H135 0.951 . S
C123 C122 1.392 . S
C123 C125 1.384 . S
H124 C126 0.949 . S
C125 C123 1.384 . S
C125 C126 1.385 . S
C125 H127 0.950 . S
C126 C120 1.404 . S
C126 H124 0.949 . S
C126 C125 1.385 . S
H127 C125 0.950 . S
H128 C112 0.951 . S
H129 C114 0.951 . S
H130 C116 0.951 . S
H131 C117 0.950 . S
H132 C118 0.950 1_655 S
H133 C119 0.950 . S
H134 C121 0.943 1_455 S
H135 C122 0.951 . S
C136 C137 1.386 . S
C136 C138 1.383 . S
C136 H152 0.951 . S
C137 C136 1.386 . S
C137 C141 1.383 . S
C138 C136 1.383 . S
C138 C139 1.402 . S
C138 H153 0.951 . S
C139 C138 1.402 . S
C139 C140 1.375 . S
C139 C142 1.481 . S
C140 C139 1.375 . S
C140 C141 1.367 . S
C140 H154 0.951 . S
C141 C137 1.383 . S
C141 C140 1.367 . S
C141 H155 0.950 . S
C142 C139 1.481 . S
C142 C143 1.297 . S
C142 H156 0.950 . S
C143 C142 1.297 . S
C143 C144 1.480 . S
C143 H157 0.950 . S
C144 C143 1.480 . S
C144 C145 1.375 1_565 S
C144 C150 1.403 1_565 S
C145 C144 1.375 1_545 S
C145 C146 1.369 . S
C145 H158 0.950 1_545 S
C146 C145 1.369 . S
C146 C147 1.392 . S
C146 H159 0.951 . S
C147 C146 1.392 . S
C147 C149 1.384 . S
H148 C150 0.949 . S
C149 C147 1.384 . S
C149 C150 1.385 . S
C149 H151 0.950 . S
C150 C144 1.403 1_545 S
C150 H148 0.949 . S
C150 C149 1.385 . S
H151 C149 0.950 . S
H152 C136 0.951 . S
H153 C138 0.951 . S
H154 C140 0.951 . S
H155 C141 0.950 . S
H156 C142 0.950 . S
H157 C143 0.950 . S
H158 C145 0.950 1_565 S
H159 C146 0.951 . S
C160 C161 1.386 . S
C160 C162 1.383 . S
C160 H176 0.951 . S
C161 C160 1.386 . S
C161 C165 1.383 . S
C162 C160 1.383 . S
C162 C163 1.402 . S
C162 H177 0.951 . S
C163 C162 1.402 . S
C163 C164 1.375 1_655 S
C163 C166 1.481 1_655 S
C164 C163 1.375 1_455 S
C164 C165 1.367 1_455 S
C164 H178 0.951 . S
C165 C161 1.383 . S
C165 C164 1.367 1_655 S
C165 H179 0.950 1_655 S
C166 C163 1.481 1_455 S
C166 C167 1.297 1_455 S
C166 H180 0.950 . S
C167 C166 1.297 1_655 S
C167 C168 1.479 1_655 S
C167 H181 0.950 . S
C168 C167 1.479 1_455 S
C168 C169 1.375 1_455 S
C168 C174 1.404 . S
C169 C168 1.375 1_655 S
C169 C170 1.369 1_655 S
C169 H182 0.950 . S
C170 C169 1.369 1_455 S
C170 C171 1.392 . S
C170 H183 0.951 1_455 S
C171 C170 1.392 . S
C171 C173 1.384 . S
H172 C174 0.949 . S
C173 C171 1.384 . S
C173 C174 1.385 . S
C173 H175 0.950 . S
C174 C168 1.404 . S
C174 H172 0.949 . S
C174 C173 1.385 . S
H175 C173 0.950 . S
H176 C160 0.951 . S
H177 C162 0.951 . S
H178 C164 0.951 . S
H179 C165 0.950 1_455 S
H180 C166 0.950 . S
H181 C167 0.950 . S
H182 C169 0.950 . S
H183 C170 0.951 1_655 S
C184 C185 1.386 . S
C184 C186 1.383 . S
C184 H200 0.951 1_545 S
C185 C184 1.386 . S
C185 C189 1.383 . S
C186 C184 1.383 . S
C186 C187 1.402 . S
C186 H201 0.951 1_545 S
C187 C186 1.402 . S
C187 C188 1.375 . S
C187 C190 1.481 . S
C188 C187 1.375 . S
C188 C189 1.367 . S
C188 H202 0.951 . S
C189 C185 1.383 . S
C189 C188 1.367 . S
C189 H203 0.950 . S
C190 C187 1.481 . S
C190 C191 1.297 1_545 S
C190 H204 0.950 . S
C191 C190 1.297 1_565 S
C191 C192 1.479 . S
C191 H205 0.950 . S
C192 C191 1.479 . S
C192 C193 1.375 . S
C192 C198 1.404 1_565 S
C193 C192 1.375 . S
C193 C194 1.369 . S
C193 H206 0.950 . S
C194 C193 1.369 . S
C194 C195 1.392 . S
C194 H207 0.951 . S
C195 C194 1.392 . S
C195 C197 1.386 . S
H196 C198 0.949 . S
C197 C195 1.386 . S
C197 C198 1.384 1_565 S
C197 H199 0.949 1_565 S
C198 C192 1.404 1_545 S
C198 H196 0.949 . S
C198 C197 1.384 1_545 S
H199 C197 0.949 1_545 S
H200 C184 0.951 1_565 S
H201 C186 0.951 1_565 S
H202 C188 0.951 . S
H203 C189 0.950 . S
H204 C190 0.950 . S
H205 C191 0.950 . S
H206 C193 0.950 . S
H207 C194 0.951 . S
C208 C209 1.386 . S
C208 C210 1.383 . S
C208 H224 0.951 . S
C209 C208 1.386 . S
C209 C213 1.383 . S
C210 C208 1.383 . S
C210 C211 1.402 . S
C210 H225 0.951 1_655 S
C211 C210 1.402 . S
C211 C212 1.375 . S
C211 C214 1.481 . S
C212 C211 1.375 . S
C212 C213 1.367 . S
C212 H226 0.951 . S
C213 C209 1.383 . S
C213 C212 1.367 . S
C213 H227 0.950 . S
C214 C211 1.481 . S
C214 C215 1.297 1_656 S
C214 H228 0.950 1_556 S
C215 C214 1.297 1_454 S
C215 C216 1.479 . S
C215 H229 0.950 1_554 S
C216 C215 1.479 . S
C216 C217 1.375 . S
C216 C222 1.404 . S
C217 C216 1.375 . S
C217 C218 1.369 . S
C217 H230 0.950 . S
C218 C217 1.369 . S
C218 C219 1.392 . S
C218 H231 0.951 . S
C219 C218 1.392 . S
C219 C221 1.384 . S
H220 C222 0.958 . S
C221 C219 1.384 . S
C221 C222 1.385 . S
C221 H223 0.950 . S
C222 C216 1.404 . S
C222 H220 0.958 . S
C222 C221 1.385 . S
H223 C221 0.950 . S
H224 C208 0.951 . S
H225 C210 0.951 1_455 S
H226 C212 0.951 . S
H227 C213 0.950 . S
H228 C214 0.950 1_554 S
H229 C215 0.950 1_556 S
H230 C217 0.950 . S
H231 C218 0.951 . S
C232 C233 1.386 . S
C232 C234 1.383 . S
C232 H248 0.951 . S
C233 C232 1.386 . S
C233 C237 1.383 . S
C234 C232 1.383 . S
C234 C235 1.402 . S
C234 H249 0.951 . S
C235 C234 1.402 . S
C235 C236 1.375 . S
C235 C238 1.481 1_545 S
C236 C235 1.375 . S
C236 C237 1.367 . S
C236 H250 0.951 1_545 S
C237 C233 1.383 . S
C237 C236 1.367 . S
C237 H251 0.950 . S
C238 C235 1.481 1_565 S
C238 C239 1.297 1_565 S
C238 H252 0.950 . S
C239 C238 1.297 1_545 S
C239 C240 1.479 1_545 S
C239 H253 0.950 . S
C240 C239 1.479 1_565 S
C240 C241 1.375 . S
C240 C246 1.404 . S
C241 C240 1.375 . S
C241 C242 1.369 . S
C241 H254 0.950 1_565 S
C242 C241 1.369 . S
C242 C243 1.392 . S
C242 H255 0.951 . S
C243 C242 1.392 . S
C243 C245 1.384 . S
H244 C246 0.949 . S
C245 C243 1.384 . S
C245 C246 1.385 . S
C245 H247 0.950 . S
C246 C240 1.404 . S
C246 H244 0.949 . S
C246 C245 1.385 . S
H247 C245 0.950 . S
H248 C232 0.951 . S
H249 C234 0.951 . S
H250 C236 0.951 1_565 S
H251 C237 0.950 . S
H252 C238 0.950 . S
H253 C239 0.950 . S
H254 C241 0.950 1_545 S
H255 C242 0.951 . S
C256 C257 1.386 . S
C256 C258 1.383 . S
C256 H272 0.951 . S
C257 C256 1.386 . S
C257 C261 1.383 . S
C258 C256 1.383 . S
C258 C259 1.402 . S
C258 H273 0.951 . S
C259 C258 1.402 . S
C259 C260 1.375 . S
C259 C262 1.481 1_655 S
C260 C259 1.375 . S
C260 C261 1.367 . S
C260 H274 0.951 . S
C261 C257 1.383 . S
C261 C260 1.367 . S
C261 H275 0.950 . S
C262 C259 1.481 1_455 S
C262 C263 1.299 1_554 S
C262 H276 0.950 . S
C263 C262 1.299 1_556 S
C263 C264 1.476 . S
C263 H277 0.952 1_556 S
C264 C263 1.476 . S
C264 C265 1.375 . S
C264 C270 1.404 . S
C265 C264 1.375 . S
C265 C266 1.369 . S
C265 H278 0.950 . S
C266 C265 1.369 . S
C266 C267 1.392 . S
C266 H279 0.951 . S
C267 C266 1.392 . S
C267 C269 1.384 . S
H268 C270 0.949 . S
C269 C267 1.384 . S
C269 C270 1.385 . S
C269 H271 0.950 . S
C270 C264 1.404 . S
C270 H268 0.949 . S
C270 C269 1.385 . S
H271 C269 0.950 . S
H272 C256 0.951 . S
H273 C258 0.951 . S
H274 C260 0.951 . S
H275 C261 0.950 . S
H276 C262 0.950 . S
H277 C263 0.952 1_554 S
H278 C265 0.950 . S
H279 C266 0.951 . S
C280 C281 1.386 . S
C280 C282 1.383 . S
C280 H296 0.951 . S
C281 C280 1.386 . S
C281 C285 1.383 . S
C282 C280 1.383 . S
C282 C283 1.402 . S
C282 H297 0.951 . S
C283 C282 1.402 . S
C283 C284 1.375 . S
C283 C286 1.481 . S
C284 C283 1.375 . S
C284 C285 1.367 . S
C284 H298 0.951 . S
C285 C281 1.383 . S
C285 C284 1.367 . S
C285 H299 0.950 . S
C286 C283 1.481 . S
C286 C287 1.297 . S
C286 H300 0.950 1_545 S
C287 C286 1.297 . S
C287 C288 1.479 1_545 S
C287 H301 0.950 . S
C288 C287 1.479 1_565 S
C288 C289 1.375 . S
C288 C294 1.404 . S
C289 C288 1.375 . S
C289 C290 1.369 . S
C289 H302 0.950 . S
C290 C289 1.369 . S
C290 C291 1.392 . S
C290 H303 0.951 . S
C291 C290 1.392 . S
C291 C293 1.384 . S
H292 C294 0.949 . S
C293 C291 1.384 . S
C293 C294 1.385 . S
C293 H295 0.950 . S
C294 C288 1.404 . S
C294 H292 0.949 . S
C294 C293 1.385 . S
H295 C293 0.950 . S
H296 C280 0.951 . S
H297 C282 0.951 . S
H298 C284 0.951 . S
H299 C285 0.950 . S
H300 C286 0.950 1_565 S
H301 C287 0.950 . S
H302 C289 0.950 . S
H303 C290 0.951 . S
C304 C305 1.386 . S
C304 C306 1.383 . S
C304 H320 0.951 . S
C305 C304 1.386 . S
C305 C309 1.383 . S
C306 C304 1.383 . S
C306 C307 1.402 . S
C306 H321 0.951 . S
C307 C306 1.402 . S
C307 C308 1.375 . S
C307 C310 1.481 . S
C308 C307 1.375 . S
C308 C309 1.367 . S
C308 H322 0.951 . S
C309 C305 1.383 . S
C309 C308 1.367 . S
C309 H323 0.950 . S
C310 C307 1.481 . S
C310 C311 1.297 . S
C310 H324 0.950 . S
C311 C310 1.297 . S
C311 C312 1.479 . S
C311 H325 0.950 . S
C312 C311 1.479 . S
C312 C313 1.375 . S
C312 C318 1.404 . S
C313 C312 1.375 . S
C313 C314 1.369 . S
C313 H326 0.950 . S
C314 C313 1.369 . S
C314 C315 1.392 . S
C314 H327 0.951 . S
C315 C314 1.392 . S
C315 C317 1.384 . S
H316 C318 0.949 . S
C317 C315 1.384 . S
C317 C318 1.385 . S
C317 H319 0.950 . S
C318 C312 1.404 . S
C318 H316 0.949 . S
C318 C317 1.385 . S
H319 C317 0.950 . S
H320 C304 0.951 . S
H321 C306 0.951 . S
H322 C308 0.951 . S
H323 C309 0.950 . S
H324 C310 0.950 . S
H325 C311 0.950 . S
H326 C313 0.950 . S
H327 C314 0.951 . S
C328 C329 1.386 . S
C328 C330 1.383 . S
C328 H344 0.951 . S
C329 C328 1.386 . S
C329 C333 1.383 . S
C330 C328 1.383 . S
C330 C331 1.402 . S
C330 H345 0.951 . S
C331 C330 1.402 . S
C331 C332 1.375 . S
C331 C334 1.481 . S
C332 C331 1.375 . S
C332 C333 1.367 . S
C332 H346 0.951 . S
C333 C329 1.383 . S
C333 C332 1.367 . S
C333 H347 0.950 . S
C334 C331 1.481 . S
C334 C335 1.297 . S
C334 H348 0.950 . S
C335 C334 1.297 . S
C335 C336 1.479 . S
C335 H349 0.950 . S
C336 C335 1.479 . S
C336 C337 1.375 . S
C336 C342 1.404 . S
C337 C336 1.375 . S
C337 C338 1.369 . S
C337 H350 0.950 . S
C338 C337 1.369 . S
C338 C339 1.392 . S
C338 H351 0.951 . S
C339 C338 1.392 . S
C339 C341 1.384 . S
H340 C342 0.949 . S
C341 C339 1.384 . S
C341 C342 1.385 . S
C341 H343 0.950 . S
C342 C336 1.404 . S
C342 H340 0.949 . S
C342 C341 1.385 . S
H343 C341 0.950 . S
H344 C328 0.951 . S
H345 C330 0.951 . S
H346 C332 0.951 . S
H347 C333 0.950 . S
H348 C334 0.950 . S
H349 C335 0.950 . S
H350 C337 0.950 . S
H351 C338 0.951 . S
C352 C353 1.386 . S
C352 C354 1.383 . S
C352 H368 0.951 . S
C353 C352 1.386 . S
C353 C357 1.383 . S
C354 C352 1.383 . S
C354 C355 1.402 . S
C354 H369 0.951 . S
C355 C354 1.402 . S
C355 C356 1.375 . S
C355 C358 1.481 . S
C356 C355 1.375 . S
C356 C357 1.367 . S
C356 H370 0.951 . S
C357 C353 1.383 . S
C357 C356 1.367 . S
C357 H371 0.950 . S
C358 C355 1.481 . S
C358 C359 1.297 . S
C358 H372 0.950 . S
C359 C358 1.297 . S
C359 C360 1.479 . S
C359 H373 0.950 . S
C360 C359 1.479 . S
C360 C361 1.375 . S
C360 C366 1.404 . S
C361 C360 1.375 . S
C361 C362 1.369 . S
C361 H374 0.950 . S
C362 C361 1.369 . S
C362 C363 1.392 . S
C362 H375 0.951 . S
C363 C362 1.392 . S
C363 C365 1.384 . S
H364 C366 0.949 . S
C365 C363 1.384 . S
C365 C366 1.385 . S
C365 H367 0.950 . S
C366 C360 1.404 . S
C366 H364 0.949 . S
C366 C365 1.385 . S
H367 C365 0.950 . S
H368 C352 0.951 . S
H369 C354 0.951 . S
H370 C356 0.951 . S
H371 C357 0.950 . S
H372 C358 0.950 . S
H373 C359 0.950 . S
H374 C361 0.950 . S
H375 C362 0.951 . S
C376 C377 1.386 . S
C376 C378 1.383 . S
C376 H392 0.951 . S
C377 C376 1.386 . S
C377 C381 1.383 . S
C378 C376 1.383 . S
C378 C379 1.402 . S
C378 H393 0.951 . S
C379 C378 1.402 . S
C379 C380 1.375 . S
C379 C382 1.481 . S
C380 C379 1.375 . S
C380 C381 1.367 . S
C380 H394 0.951 . S
C381 C377 1.383 . S
C381 C380 1.367 . S
C381 H395 0.950 . S
C382 C379 1.481 . S
C382 C383 1.297 . S
C382 H396 0.950 . S
C383 C382 1.297 . S
C383 C384 1.479 . S
C383 H397 0.950 . S
C384 C383 1.479 . S
C384 C385 1.375 . S
C384 C390 1.404 . S
C385 C384 1.375 . S
C385 C386 1.369 . S
C385 H398 0.950 . S
C386 C385 1.369 . S
C386 C387 1.392 . S
C386 H399 0.951 . S
C387 C386 1.392 . S
C387 C389 1.384 . S
H388 C390 0.949 . S
C389 C387 1.384 . S
C389 C390 1.385 . S
C389 H391 0.950 . S
C390 C384 1.404 . S
C390 H388 0.949 . S
C390 C389 1.385 . S
H391 C389 0.950 . S
H392 C376 0.951 . S
H393 C378 0.951 . S
H394 C380 0.951 . S
H395 C381 0.950 . S
H396 C382 0.950 . S
H397 C383 0.950 . S
H398 C385 0.950 . S
H399 C386 0.951 . S
C400 C401 1.386 . S
C400 C402 1.383 . S
C400 H416 0.951 . S
C401 C400 1.386 . S
C401 C405 1.383 . S
C402 C400 1.383 . S
C402 C403 1.402 . S
C402 H417 0.951 . S
C403 C402 1.402 . S
C403 C404 1.375 . S
C403 C406 1.481 . S
C404 C403 1.375 . S
C404 C405 1.367 . S
C404 H418 0.951 . S
C405 C401 1.383 . S
C405 C404 1.367 . S
C405 H419 0.950 . S
C406 C403 1.481 . S
C406 C407 1.297 1_545 S
C406 H420 0.953 . S
C407 C406 1.297 1_565 S
C407 C408 1.478 1_455 S
C407 H421 0.950 . S
C408 C407 1.478 1_655 S
C408 C409 1.377 . S
C408 C414 1.405 . S
C409 C408 1.377 . S
C409 C410 1.369 . S
C409 H422 0.950 . S
C410 C409 1.369 . S
C410 C411 1.392 . S
C410 H423 0.951 . S
C411 C410 1.392 . S
C411 C413 1.384 . S
H412 C414 0.949 1_455 S
C413 C411 1.384 . S
C413 C414 1.385 . S
C413 H415 0.950 . S
C414 C408 1.405 . S
C414 H412 0.949 1_655 S
C414 C413 1.385 . S
H415 C413 0.950 . S
H416 C400 0.951 . S
H417 C402 0.951 . S
H418 C404 0.951 . S
H419 C405 0.950 . S
H420 C406 0.953 . S
H421 C407 0.950 . S
H422 C409 0.950 . S
H423 C410 0.951 . S
C424 C425 1.386 . S
C424 C426 1.383 . S
C424 H440 0.951 . S
C425 C424 1.386 . S
C425 C429 1.383 . S
C426 C424 1.383 . S
C426 C427 1.402 . S
C426 H441 0.951 . S
C427 C426 1.402 . S
C427 C428 1.375 . S
C427 C430 1.481 . S
C428 C427 1.375 . S
C428 C429 1.367 . S
C428 H442 0.951 1_565 S
C429 C425 1.383 . S
C429 C428 1.367 . S
C429 H443 0.950 . S
C430 C427 1.481 . S
C430 C431 1.297 1_455 S
C430 H444 0.950 1_565 S
C431 C430 1.297 1_655 S
C431 C432 1.479 . S
C431 H445 0.950 . S
C432 C431 1.479 . S
C432 C433 1.375 . S
C432 C438 1.404 1_565 S
C433 C432 1.375 . S
C433 C434 1.369 1_565 S
C433 H446 0.950 . S
C434 C433 1.369 1_545 S
C434 C435 1.392 . S
C434 H447 0.951 . S
C435 C434 1.392 . S
C435 C437 1.384 . S
H436 C438 0.949 . S
C437 C435 1.384 . S
C437 C438 1.385 . S
C437 H439 0.950 . S
C438 C432 1.404 1_545 S
C438 H436 0.949 . S
C438 C437 1.385 . S
H439 C437 0.950 . S
H440 C424 0.951 . S
H441 C426 0.951 . S
H442 C428 0.951 1_545 S
H443 C429 0.950 . S
H444 C430 0.950 1_545 S
H445 C431 0.950 . S
H446 C433 0.950 . S
H447 C434 0.951 . S
C448 C449 1.386 . S
C448 C450 1.383 . S
C448 H464 0.951 . S
C449 C448 1.386 . S
C449 C453 1.383 . S
C450 C448 1.383 . S
C450 C451 1.402 . S
C450 H465 0.951 . S
C451 C450 1.402 . S
C451 C452 1.375 . S
C451 C454 1.481 . S
C452 C451 1.375 . S
C452 C453 1.367 . S
C452 H466 0.951 1_655 S
C453 C449 1.383 . S
C453 C452 1.367 . S
C453 H467 0.950 . S
C454 C451 1.481 . S
C454 C455 1.297 1_545 S
C454 H468 0.950 1_655 S
C455 C454 1.297 1_565 S
C455 C456 1.475 1_655 S
C455 H469 0.950 . S
C456 C455 1.475 1_455 S
C456 C457 1.373 1_455 S
C456 C462 1.411 . S
C457 C456 1.373 1_655 S
C457 C458 1.369 1_655 S
C457 H470 0.950 . S
C458 C457 1.369 1_455 S
C458 C459 1.392 . S
C458 H471 0.951 . S
C459 C458 1.392 . S
C459 C461 1.384 . S
H460 C462 0.949 . S
C461 C459 1.384 . S
C461 C462 1.385 . S
C461 H463 0.950 . S
C462 C456 1.411 . S
C462 H460 0.949 . S
C462 C461 1.385 . S
H463 C461 0.950 . S
H464 C448 0.951 . S
H465 C450 0.951 . S
H466 C452 0.951 1_455 S
H467 C453 0.950 . S
H468 C454 0.950 1_455 S
H469 C455 0.950 . S
H470 C457 0.950 . S
H471 C458 0.951 . S
C472 C473 1.386 . S
C472 C474 1.383 . S
C472 H488 0.951 . S
C473 C472 1.386 . S
C473 C477 1.383 . S
C474 C472 1.383 . S
C474 C475 1.402 . S
C474 H489 0.951 . S
C475 C474 1.402 . S
C475 C476 1.375 . S
C475 C478 1.481 1_565 S
C476 C475 1.375 . S
C476 C477 1.367 . S
C476 H490 0.951 1_565 S
C477 C473 1.383 . S
C477 C476 1.367 . S
C477 H491 0.950 . S
C478 C475 1.481 1_545 S
C478 C479 1.297 1_655 S
C478 H492 0.950 . S
C479 C478 1.297 1_455 S
C479 C480 1.479 . S
C479 H493 0.942 1_455 S
C480 C479 1.479 . S
C480 C481 1.375 . S
C480 C486 1.404 . S
C481 C480 1.375 . S
C481 C482 1.369 . S
C481 H494 0.950 . S
C482 C481 1.369 . S
C482 C483 1.392 . S
C482 H495 0.951 . S
C483 C482 1.392 . S
C483 C485 1.384 . S
H484 C486 0.949 . S
C485 C483 1.384 . S
C485 C486 1.385 . S
C485 H487 0.950 . S
C486 C480 1.404 . S
C486 H484 0.949 . S
C486 C485 1.385 . S
H487 C485 0.950 . S
H488 C472 0.951 . S
H489 C474 0.951 . S
H490 C476 0.951 1_545 S
H491 C477 0.950 . S
H492 C478 0.950 . S
H493 C479 0.942 1_655 S
H494 C481 0.950 . S
H495 C482 0.951 . S
C113 C3 1.337 . S
C123 C31 1.353 . S
C137 C50 1.374 . S
C147 C22 1.370 . S
C161 C87 1.346 . S
C171 C59 1.334 . S
C185 C78 1.379 . S
C195 C106 1.379 . S
C209 C93 1.478 . S
C219 C9 1.485 . S
C233 C21 1.464 . S
C243 C105 1.447 . S
C257 C37 1.427 . S
C267 C65 1.528 . S
C281 C77 1.483 . S
C291 C49 1.434 . S
C305 C8 1.366 . S
C315 C73 1.407 . S
C329 C92 1.404 . S
C339 C17 1.344 . S
C353 C101 1.316 . S
C363 C36 1.421 . S
C377 C45 1.354 . S
C387 C64 1.354 . S
C401 C7 0.875 . S
C411 C35 0.819 . S
C425 C51 0.865 . S
C435 C23 0.940 . S
C449 C91 0.874 . S
C459 C63 0.849 . S
C473 C107 0.894 . S
C483 C79 0.797 . S
