# Generated by pormake.
# Topology vbb, (4)-cn, num edge types: 1
# Building blocks:
#     Node 0, Type 0, BuildingBlock: NAWXER_clean_sbu_0, # of connection points: 4
#     Node 1, Type 0, BuildingBlock: NAWXER_clean_sbu_0, # of connection points: 4
#     Node 2, Type 0, BuildingBlock: NAWXER_clean_sbu_0, # of connection points: 4
#     Node 3, Type 0, BuildingBlock: NAWXER_clean_sbu_0, # of connection points: 4
#     Node 4, Type 0, BuildingBlock: NAWXER_clean_sbu_0, # of connection points: 4
#     Node 5, Type 0, BuildingBlock: NAWXER_clean_sbu_0, # of connection points: 4
#     Node 6, Type 0, BuildingBlock: NAWXER_clean_sbu_0, # of connection points: 4
#     Node 7, Type 0, BuildingBlock: NAWXER_clean_sbu_0, # of connection points: 4
#     Node 8, Type 0, BuildingBlock: NAWXER_clean_sbu_0, # of connection points: 4
#     Node 9, Type 0, BuildingBlock: NAWXER_clean_sbu_0, # of connection points: 4
#     Node 10, Type 0, BuildingBlock: NAWXER_clean_sbu_0, # of connection points: 4
#     Node 11, Type 0, BuildingBlock: NAWXER_clean_sbu_0, # of connection points: 4
#     Node 12, Type 0, BuildingBlock: NAWXER_clean_sbu_0, # of connection points: 4
#     Node 13, Type 0, BuildingBlock: NAWXER_clean_sbu_0, # of connection points: 4
#     Node 14, Type 0, BuildingBlock: NAWXER_clean_sbu_0, # of connection points: 4
#     Node 15, Type 0, BuildingBlock: NAWXER_clean_sbu_0, # of connection points: 4
#     Node 16, Type 0, BuildingBlock: NAWXER_clean_sbu_0, # of connection points: 4
#     Node 17, Type 0, BuildingBlock: NAWXER_clean_sbu_0, # of connection points: 4
#     Node 18, Type 0, BuildingBlock: NAWXER_clean_sbu_0, # of connection points: 4
#     Node 19, Type 0, BuildingBlock: NAWXER_clean_sbu_0, # of connection points: 4
#     Node 20, Type 0, BuildingBlock: NAWXER_clean_sbu_0, # of connection points: 4
#     Node 21, Type 0, BuildingBlock: NAWXER_clean_sbu_0, # of connection points: 4
#     Node 22, Type 0, BuildingBlock: NAWXER_clean_sbu_0, # of connection points: 4
#     Node 23, Type 0, BuildingBlock: NAWXER_clean_sbu_0, # of connection points: 4
#     Node 24, Type 0, BuildingBlock: NAWXER_clean_sbu_0, # of connection points: 4
#     Node 25, Type 0, BuildingBlock: NAWXER_clean_sbu_0, # of connection points: 4
#     Node 26, Type 0, BuildingBlock: NAWXER_clean_sbu_0, # of connection points: 4
#     Node 27, Type 0, BuildingBlock: NAWXER_clean_sbu_0, # of connection points: 4
#     Node 28, Type 0, BuildingBlock: NAWXER_clean_sbu_0, # of connection points: 4
#     Node 29, Type 0, BuildingBlock: NAWXER_clean_sbu_0, # of connection points: 4
#     Node 30, Type 0, BuildingBlock: NAWXER_clean_sbu_0, # of connection points: 4
#     Node 31, Type 0, BuildingBlock: NAWXER_clean_sbu_0, # of connection points: 4
#     Edge 32, Type (0, 0), BuildingBlock: EZIPEK_clean_linker_0, # of connection points: 2
#     Edge 33, Type (0, 0), BuildingBlock: EZIPEK_clean_linker_0, # of connection points: 2
#     Edge 34, Type (0, 0), BuildingBlock: EZIPEK_clean_linker_0, # of connection points: 2
#     Edge 35, Type (0, 0), BuildingBlock: EZIPEK_clean_linker_0, # of connection points: 2
#     Edge 36, Type (0, 0), BuildingBlock: EZIPEK_clean_linker_0, # of connection points: 2
#     Edge 37, Type (0, 0), BuildingBlock: EZIPEK_clean_linker_0, # of connection points: 2
#     Edge 38, Type (0, 0), BuildingBlock: EZIPEK_clean_linker_0, # of connection points: 2
#     Edge 39, Type (0, 0), BuildingBlock: EZIPEK_clean_linker_0, # of connection points: 2
#     Edge 40, Type (0, 0), BuildingBlock: EZIPEK_clean_linker_0, # of connection points: 2
#     Edge 41, Type (0, 0), BuildingBlock: EZIPEK_clean_linker_0, # of connection points: 2
#     Edge 42, Type (0, 0), BuildingBlock: EZIPEK_clean_linker_0, # of connection points: 2
#     Edge 43, Type (0, 0), BuildingBlock: EZIPEK_clean_linker_0, # of connection points: 2
#     Edge 44, Type (0, 0), BuildingBlock: EZIPEK_clean_linker_0, # of connection points: 2
#     Edge 45, Type (0, 0), BuildingBlock: EZIPEK_clean_linker_0, # of connection points: 2
#     Edge 46, Type (0, 0), BuildingBlock: EZIPEK_clean_linker_0, # of connection points: 2
#     Edge 47, Type (0, 0), BuildingBlock: EZIPEK_clean_linker_0, # of connection points: 2
#     Edge 48, Type (0, 0), BuildingBlock: EZIPEK_clean_linker_0, # of connection points: 2
#     Edge 49, Type (0, 0), BuildingBlock: EZIPEK_clean_linker_0, # of connection points: 2
#     Edge 50, Type (0, 0), BuildingBlock: EZIPEK_clean_linker_0, # of connection points: 2
#     Edge 51, Type (0, 0), BuildingBlock: EZIPEK_clean_linker_0, # of connection points: 2
#     Edge 52, Type (0, 0), BuildingBlock: EZIPEK_clean_linker_0, # of connection points: 2
#     Edge 53, Type (0, 0), BuildingBlock: EZIPEK_clean_linker_0, # of connection points: 2
#     Edge 54, Type (0, 0), BuildingBlock: EZIPEK_clean_linker_0, # of connection points: 2
#     Edge 55, Type (0, 0), BuildingBlock: EZIPEK_clean_linker_0, # of connection points: 2
#     Edge 56, Type (0, 0), BuildingBlock: EZIPEK_clean_linker_0, # of connection points: 2
#     Edge 57, Type (0, 0), BuildingBlock: EZIPEK_clean_linker_0, # of connection points: 2
#     Edge 58, Type (0, 0), BuildingBlock: EZIPEK_clean_linker_0, # of connection points: 2
#     Edge 59, Type (0, 0), BuildingBlock: EZIPEK_clean_linker_0, # of connection points: 2
#     Edge 60, Type (0, 0), BuildingBlock: EZIPEK_clean_linker_0, # of connection points: 2
#     Edge 61, Type (0, 0), BuildingBlock: EZIPEK_clean_linker_0, # of connection points: 2
#     Edge 62, Type (0, 0), BuildingBlock: EZIPEK_clean_linker_0, # of connection points: 2
#     Edge 63, Type (0, 0), BuildingBlock: EZIPEK_clean_linker_0, # of connection points: 2
#     Edge 64, Type (0, 0), BuildingBlock: EZIPEK_clean_linker_0, # of connection points: 2
#     Edge 65, Type (0, 0), BuildingBlock: EZIPEK_clean_linker_0, # of connection points: 2
#     Edge 66, Type (0, 0), BuildingBlock: EZIPEK_clean_linker_0, # of connection points: 2
#     Edge 67, Type (0, 0), BuildingBlock: EZIPEK_clean_linker_0, # of connection points: 2
#     Edge 68, Type (0, 0), BuildingBlock: EZIPEK_clean_linker_0, # of connection points: 2
#     Edge 69, Type (0, 0), BuildingBlock: EZIPEK_clean_linker_0, # of connection points: 2
#     Edge 70, Type (0, 0), BuildingBlock: EZIPEK_clean_linker_0, # of connection points: 2
#     Edge 71, Type (0, 0), BuildingBlock: EZIPEK_clean_linker_0, # of connection points: 2
#     Edge 72, Type (0, 0), BuildingBlock: EZIPEK_clean_linker_0, # of connection points: 2
#     Edge 73, Type (0, 0), BuildingBlock: EZIPEK_clean_linker_0, # of connection points: 2
#     Edge 74, Type (0, 0), BuildingBlock: EZIPEK_clean_linker_0, # of connection points: 2
#     Edge 75, Type (0, 0), BuildingBlock: EZIPEK_clean_linker_0, # of connection points: 2
#     Edge 76, Type (0, 0), BuildingBlock: EZIPEK_clean_linker_0, # of connection points: 2
#     Edge 77, Type (0, 0), BuildingBlock: EZIPEK_clean_linker_0, # of connection points: 2
#     Edge 78, Type (0, 0), BuildingBlock: EZIPEK_clean_linker_0, # of connection points: 2
#     Edge 79, Type (0, 0), BuildingBlock: EZIPEK_clean_linker_0, # of connection points: 2
#     Edge 80, Type (0, 0), BuildingBlock: EZIPEK_clean_linker_0, # of connection points: 2
#     Edge 81, Type (0, 0), BuildingBlock: EZIPEK_clean_linker_0, # of connection points: 2
#     Edge 82, Type (0, 0), BuildingBlock: EZIPEK_clean_linker_0, # of connection points: 2
#     Edge 83, Type (0, 0), BuildingBlock: EZIPEK_clean_linker_0, # of connection points: 2
#     Edge 84, Type (0, 0), BuildingBlock: EZIPEK_clean_linker_0, # of connection points: 2
#     Edge 85, Type (0, 0), BuildingBlock: EZIPEK_clean_linker_0, # of connection points: 2
#     Edge 86, Type (0, 0), BuildingBlock: EZIPEK_clean_linker_0, # of connection points: 2
#     Edge 87, Type (0, 0), BuildingBlock: EZIPEK_clean_linker_0, # of connection points: 2
#     Edge 88, Type (0, 0), BuildingBlock: EZIPEK_clean_linker_0, # of connection points: 2
#     Edge 89, Type (0, 0), BuildingBlock: EZIPEK_clean_linker_0, # of connection points: 2
#     Edge 90, Type (0, 0), BuildingBlock: EZIPEK_clean_linker_0, # of connection points: 2
#     Edge 91, Type (0, 0), BuildingBlock: EZIPEK_clean_linker_0, # of connection points: 2
#     Edge 92, Type (0, 0), BuildingBlock: EZIPEK_clean_linker_0, # of connection points: 2
#     Edge 93, Type (0, 0), BuildingBlock: EZIPEK_clean_linker_0, # of connection points: 2
#     Edge 94, Type (0, 0), BuildingBlock: EZIPEK_clean_linker_0, # of connection points: 2
#     Edge 95, Type (0, 0), BuildingBlock: EZIPEK_clean_linker_0, # of connection points: 2
# Relax obj value: 0.012
# Max RMSD: 0.099
# Mean RMSD: 0.097
data_MOF--net-vbb--node1-NAWXER_clean_sbu_0--edge1-EZIPEK_clean_linker_0
_symmetry_space_group_name_H-M    P1
_symmetry_Int_Tables_number       1
_symmetry_cell_setting            triclinic
loop_
_symmetry_equiv_pos_as_xyz
'x, y, z'
_cell_length_a     39.09295
_cell_length_b     17.184809
_cell_length_c     83.274782
_cell_angle_alpha  89.813979
_cell_angle_beta   90.117514
_cell_angle_gamma 90.274677
loop_
_atom_site_label
_atom_site_type_symbol
_atom_site_fract_x
_atom_site_fract_y
_atom_site_fract_z
_atom_type_partial_charge
C0 C 0.58452 0.95636 0.0848 0.0
C1 C 0.46021 0.89305 0.08256 0.0
O2 O 0.56473 0.01266 0.08103 0.0
Zn3 Zn 0.5116 0.03446 0.07741 0.0
O4 O 0.57189 0.88935 0.08789 0.0
Zn5 Zn 0.52342 0.91609 0.08448 0.0
O6 O 0.52333 0.93719 0.05934 0.0
O7 O 0.51087 0.06102 0.05486 0.0
O8 O 0.48354 0.84606 0.0871 0.0
O9 O 0.46845 0.96193 0.07836 0.0
O10 O 0.49997 0.10679 0.09438 0.0
O11 O 0.51517 -0.00808 0.10382 0.0
C12 C 0.51821 -0.00642 0.04958 0.0
C13 C 0.50532 0.06155 0.10626 0.0
C14 C 0.72145 0.08288 0.08196 0.0
C15 C 0.83725 0.19939 0.08029 0.0
O16 O 0.74909 0.04933 0.07798 0.0
Zn17 Zn 0.77975 0.13878 0.08011 0.0
O18 O 0.72194 0.15577 0.08531 0.0
Zn19 Zn 0.75911 0.24923 0.08622 0.0
O20 O 0.74448 0.31998 0.06894 0.0
O21 O 0.76697 0.21145 0.05972 0.0
O22 O 0.81332 0.24847 0.08273 0.0
O23 O 0.82951 0.12819 0.07797 0.0
O24 O 0.77731 0.16048 0.10547 0.0
O25 O 0.75919 0.27992 0.10897 0.0
C26 C 0.75366 0.27845 0.05709 0.0
C27 C 0.77074 0.21688 0.11496 0.0
C28 C 0.50578 0.19459 0.23192 0.0
C29 C 0.49722 0.14867 0.17345 0.0
O30 O 0.51328 0.25151 0.2227 0.0
Zn31 Zn 0.51535 0.28155 0.19839 0.0
O32 O 0.4957 0.12995 0.22599 0.0
Zn33 Zn 0.49862 0.16134 0.20324 0.0
O34 O 0.55133 0.17483 0.20127 0.0
O35 O 0.56494 0.29618 0.19523 0.0
O36 O 0.49197 0.09639 0.18413 0.0
O37 O 0.50381 0.218 0.17781 0.0
O38 O 0.48006 0.36086 0.19731 0.0
O39 O 0.45861 0.24287 0.20124 0.0
C40 C 0.57388 0.22595 0.19792 0.0
C41 C 0.45425 0.31589 0.19914 0.0
C42 C 0.70764 0.08493 0.20257 0.0
C43 C 0.81982 0.95456 0.19955 0.0
O44 O 0.73334 0.12548 0.20697 0.0
Zn45 Zn 0.78613 0.11499 0.21095 0.0
O46 O 0.71184 0.01358 0.19882 0.0
Zn47 Zn 0.7616 0.0098 0.20168 0.0
O48 O 0.76459 0.01042 0.22689 0.0
O49 O 0.78761 0.12106 0.23477 0.0
O50 O 0.79131 0.92292 0.19587 0.0
O51 O 0.82045 0.0236 0.20528 0.0
O52 O 0.80032 0.19568 0.19524 0.0
O53 O 0.77581 0.0927 0.1841 0.0
C54 C 0.7738 0.05569 0.23823 0.0
C55 C 0.78932 0.16017 0.18277 0.0
C56 C 0.53425 0.93223 0.98167 0.0
C57 C 0.54634 0.88444 0.9235 0.0
O58 O 0.5482 0.87167 0.97578 0.0
Zn59 Zn 0.54278 0.89842 0.95291 0.0
O60 O 0.52255 0.98449 0.97231 0.0
Zn61 Zn 0.5203 0.01338 0.94805 0.0
O62 O 0.4701 0.01691 0.94533 0.0
O63 O 0.48895 0.89795 0.95016 0.0
O64 O 0.53315 0.94931 0.92754 0.0
O65 O 0.5563 0.83669 0.93431 0.0
O66 O 0.57923 0.98663 0.95118 0.0
O67 O 0.55434 0.09988 0.94758 0.0
C68 C 0.46415 0.94427 0.94732 0.0
C69 C 0.58155 0.06019 0.94972 0.0
C70 C 0.22887 0.61512 0.94146 0.0
C71 C 0.33526 0.77518 0.94294 0.0
O72 O 0.25864 0.5855 0.93992 0.0
Zn73 Zn 0.28404 0.68445 0.942 0.0
O74 O 0.22551 0.68813 0.94366 0.0
Zn75 Zn 0.25454 0.79135 0.94578 0.0
O76 O 0.23891 0.84554 0.92614 0.0
O77 O 0.26584 0.73634 0.92087 0.0
O78 O 0.3075 0.81232 0.94514 0.0
O79 O 0.33412 0.70186 0.9406 0.0
O80 O 0.27345 0.70841 0.96625 0.0
O81 O 0.24378 0.8173 0.96819 0.0
C82 C 0.24942 0.79574 0.91593 0.0
C83 C 0.25802 0.75864 0.97482 0.0
C84 C 0.51658 0.775 0.79685 0.0
C85 C 0.52755 0.83766 0.855 0.0
O86 O 0.52964 0.8379 0.80228 0.0
Zn87 Zn 0.52177 0.81984 0.82529 0.0
O88 O 0.50294 0.7261 0.80653 0.0
Zn89 Zn 0.49497 0.71172 0.83148 0.0
O90 O 0.44495 0.71799 0.8336 0.0
O91 O 0.46794 0.83234 0.82761 0.0
O92 O 0.50903 0.77942 0.85123 0.0
O93 O 0.54029 0.87921 0.84373 0.0
O94 O 0.55408 0.72538 0.82859 0.0
O95 O 0.52511 0.62146 0.83621 0.0
C96 C 0.4416 0.79069 0.83085 0.0
C97 C 0.5537 0.65474 0.83316 0.0
C98 C 0.22949 0.84084 0.84858 0.0
C99 C 0.24711 0.94661 0.79405 0.0
O100 O 0.22404 0.80112 0.83588 0.0
Zn101 Zn 0.23529 0.88505 0.82068 0.0
O102 O 0.23925 0.91158 0.8476 0.0
Zn103 Zn 0.25123 -0.00213 0.83069 0.0
O104 O 0.21331 0.07194 0.83437 0.0
O105 O 0.19419 0.9597 0.82522 0.0
O106 O 0.25404 -0.00693 0.80554 0.0
O107 O 0.23509 0.87905 0.79714 0.0
O108 O 0.28825 0.89549 0.8254 0.0
O109 O 0.30043 0.0104 0.83593 0.0
C110 C 0.18826 0.02838 0.83022 0.0
C111 C 0.31008 0.94331 0.83119 0.0
C112 C 0.5053 0.62156 0.53932 0.0
C113 C 0.49468 0.65207 0.59853 0.0
O114 O 0.51725 0.56608 0.54782 0.0
Zn115 Zn 0.52125 0.53239 0.572 0.0
O116 O 0.49214 0.68028 0.54627 0.0
Zn117 Zn 0.49882 0.64704 0.5689 0.0
O118 O 0.5529 0.64697 0.57162 0.0
O119 O 0.57064 0.52578 0.57477 0.0
O120 O 0.48593 0.70448 0.58842 0.0
O121 O 0.50799 0.58877 0.59364 0.0
O122 O 0.48977 0.44418 0.57253 0.0
O123 O 0.46277 0.55624 0.57082 0.0
C124 C 0.57718 0.59846 0.57389 0.0
C125 C 0.46185 0.48222 0.57186 0.0
C126 C 0.78492 0.65627 0.55179 0.0
C127 C 0.79359 0.6548 0.6115 0.0
O128 O 0.77817 0.71986 0.55898 0.0
Zn129 Zn 0.77524 0.76715 0.58226 0.0
O130 O 0.79325 0.59595 0.5599 0.0
Zn131 Zn 0.78957 0.64364 0.58141 0.0
O132 O 0.73662 0.66213 0.5818 0.0
O133 O 0.72556 0.78747 0.58371 0.0
O134 O 0.79745 0.59474 0.60269 0.0
O135 O 0.786 0.71951 0.6049 0.0
O136 O 0.81253 0.84403 0.58126 0.0
O137 O 0.83095 0.7224 0.58041 0.0
C138 C 0.71498 0.71726 0.58266 0.0
C139 C 0.83709 0.7954 0.58048 0.0
C140 C 0.51276 0.69859 0.72846 0.0
C141 C 0.5045 0.66238 0.66823 0.0
O142 O 0.52553 0.74996 0.71922 0.0
Zn143 Zn 0.5294 0.78041 0.69522 0.0
O144 O 0.4995 0.63732 0.72224 0.0
Zn145 Zn 0.50712 0.66072 0.6988 0.0
O146 O 0.56012 0.66163 0.69757 0.0
O147 O 0.57997 0.77992 0.69272 0.0
O148 O 0.497 0.60661 0.67788 0.0
O149 O 0.51526 0.72633 0.67403 0.0
O150 O 0.49453 0.86461 0.69494 0.0
O151 O 0.4712 0.74782 0.69708 0.0
C152 C 0.58525 0.70723 0.69491 0.0
C153 C 0.4679 0.82119 0.69605 0.0
C154 C 0.71575 0.54829 0.69876 0.0
C155 C 0.82949 0.42313 0.69873 0.0
O156 O 0.74078 0.58964 0.70381 0.0
Zn157 Zn 0.79379 0.58182 0.7082 0.0
O158 O 0.72072 0.47754 0.69473 0.0
Zn159 Zn 0.77005 0.47429 0.69908 0.0
O160 O 0.76957 0.48084 0.72421 0.0
O161 O 0.79686 0.58667 0.7319 0.0
O162 O 0.80179 0.38712 0.69529 0.0
O163 O 0.82839 0.49363 0.70334 0.0
O164 O 0.81042 0.65819 0.69227 0.0
O165 O 0.78712 0.55306 0.68137 0.0
C166 C 0.78087 0.52403 0.73548 0.0
C167 C 0.80184 0.61908 0.67985 0.0
C168 C 0.52117 0.55945 0.4712 0.0
C169 C 0.53534 0.52446 0.41358 0.0
O170 O 0.53044 0.48969 0.46786 0.0
Zn171 Zn 0.54233 0.42398 0.44631 0.0
O172 O 0.51635 0.60789 0.45991 0.0
Zn173 Zn 0.52772 0.53965 0.4423 0.0
O174 O 0.48578 0.4551 0.44174 0.0
O175 O 0.50897 0.34049 0.44646 0.0
O176 O 0.52585 0.5847 0.4211 0.0
O177 O 0.54221 0.46174 0.42135 0.0
O178 O 0.58958 0.39491 0.44955 0.0
O179 O 0.58242 0.5209 0.44545 0.0
C180 C 0.48263 0.38105 0.44354 0.0
C181 C 0.60221 0.46269 0.44802 0.0
C182 C 0.28261 0.25747 0.47798 0.0
C183 C 0.25873 0.35452 0.42358 0.0
O184 O 0.27136 0.32516 0.47465 0.0
Zn185 Zn 0.271 0.31459 0.45126 0.0
O186 O 0.28948 0.21011 0.4667 0.0
Zn187 Zn 0.28588 0.20231 0.44166 0.0
O188 O 0.33426 0.18771 0.4361 0.0
O189 O 0.32411 0.30473 0.44594 0.0
O190 O 0.26986 0.28475 0.4243 0.0
O191 O 0.25569 0.39455 0.43637 0.0
O192 O 0.22995 0.23643 0.44834 0.0
O193 O 0.24933 0.12361 0.44009 0.0
C194 C 0.34506 0.25471 0.44035 0.0
C195 C 0.22424 0.16592 0.44444 0.0
C196 C 0.52247 0.32553 0.29484 0.0
C197 C 0.53979 0.45413 0.34722 0.0
O198 O 0.53509 0.39344 0.29678 0.0
Zn199 Zn 0.53306 0.39723 0.32046 0.0
O200 O 0.51287 0.28653 0.30708 0.0
Zn201 Zn 0.50883 0.29776 0.33197 0.0
O202 O 0.4591 0.30242 0.33461 0.0
O203 O 0.47987 0.41071 0.32422 0.0
O204 O 0.52499 0.38765 0.34763 0.0
O205 O 0.5497 0.4831 0.33388 0.0
O206 O 0.56714 0.3066 0.32748 0.0
O207 O 0.53756 0.21086 0.33858 0.0
C208 C 0.45434 0.37145 0.3294 0.0
C209 C 0.56618 0.23895 0.33397 0.0
C210 C 0.31688 0.49956 0.32978 0.0
C211 C 0.19462 0.57933 0.32904 0.0
O212 O 0.30702 0.56988 0.33146 0.0
Zn213 Zn 0.25691 0.55217 0.32919 0.0
O214 O 0.29478 0.44623 0.32737 0.0
Zn215 Zn 0.24209 0.42888 0.32615 0.0
O216 O 0.23838 0.39226 0.3037 0.0
O217 O 0.2532 0.51642 0.30519 0.0
O218 O 0.20062 0.50676 0.32748 0.0
O219 O 0.21937 0.62781 0.33025 0.0
O220 O 0.248 0.4937 0.35071 0.0
O221 O 0.23706 0.36979 0.3465 0.0
C222 C 0.24636 0.45634 0.2968 0.0
C223 C 0.24238 0.42586 0.35628 0.0
C224 C 1.00616 0.05274 0.60474 0.0
C225 C 0.02045 0.00831 0.54597 0.0
O226 O 0.02034 -0.01018 0.6003 0.0
Zn227 Zn 0.03766 0.93159 0.57996 0.0
O228 O 0.99802 0.10342 0.59413 0.0
Zn229 Zn 1.01279 0.04457 0.57477 0.0
O230 O 0.97952 0.94883 0.57674 0.0
O231 O 1.00748 0.83962 0.58187 0.0
O232 O 1.00692 0.06981 0.5517 0.0
O233 O 0.03205 0.95608 0.55541 0.0
O234 O 0.08792 0.93873 0.58277 0.0
O235 O 0.06599 0.05316 0.57674 0.0
C236 C 0.97941 0.87578 0.57948 0.0
C237 C 0.09196 0.01128 0.57995 0.0
C238 C 0.30599 0.13181 0.60227 0.0
C239 C 0.29956 0.16902 0.54408 0.0
O240 O 0.28939 0.19166 0.59777 0.0
Zn241 Zn 0.27626 0.25065 0.57671 0.0
O242 O 0.31917 0.08663 0.5919 0.0
Zn243 Zn 0.30347 0.14219 0.57283 0.0
O244 O 0.3349 0.24146 0.57379 0.0
O245 O 0.30402 0.34466 0.57951 0.0
O246 O 0.31285 0.10995 0.55093 0.0
O247 O 0.28554 0.22246 0.5524 0.0
O248 O 0.2264 0.24569 0.57787 0.0
O249 O 0.24939 0.12969 0.57437 0.0
C250 C 0.33309 0.31404 0.57673 0.0
C251 C 0.22294 0.17224 0.57632 0.0
C252 C 0.07266 0.1494 0.69471 0.0
C253 C 0.96444 0.29423 0.69324 0.0
O254 O 0.04593 0.10953 0.69797 0.0
Zn255 Zn 0.99312 0.12511 0.70139 0.0
O256 O 0.06993 0.22216 0.69189 0.0
Zn257 Zn 0.02033 0.23109 0.6941 0.0
O258 O 1.01481 0.22052 0.7191 0.0
O259 O 0.98884 0.10975 0.72482 0.0
O260 O 0.99345 0.32457 0.68995 0.0
O261 O 0.96219 0.2232 0.69764 0.0
O262 O 0.97535 0.05684 0.68433 0.0
O263 O 1.00331 0.15994 0.6751 0.0
C264 C 1.00324 0.17257 0.7295 0.0
C265 C 0.98657 0.09724 0.67255 0.0
C266 C 0.20704 0.00909 0.69343 0.0
C267 C 0.32595 0.91464 0.6953 0.0
O268 O 0.22966 0.05951 0.69716 0.0
Zn269 Zn 0.28254 0.0702 0.69988 0.0
O270 O 0.2158 0.93881 0.69086 0.0
Zn271 Zn 0.26523 0.95074 0.6948 0.0
O272 O 0.2679 0.97836 0.71932 0.0
O273 O 0.28574 0.09989 0.72249 0.0
O274 O 0.30003 0.87061 0.69287 0.0
O275 O 0.32194 0.98698 0.69819 0.0
O276 O 0.29244 0.13562 0.68099 0.0
O277 O 0.27919 0.01487 0.67478 0.0
C278 C 0.27573 0.03522 0.72847 0.0
C279 C 0.28823 0.08279 0.6704 0.0
C280 C 0.04387 0.87815 0.42051 0.0
C281 C 0.03863 0.92177 0.47962 0.0
O282 O 0.05379 0.82755 0.43078 0.0
Zn283 Zn 0.04352 0.88713 0.45064 0.0
O284 O 0.0317 0.94252 0.42528 0.0
Zn285 Zn 0.02208 0.00485 0.44604 0.0
O286 O 0.0574 0.08718 0.44306 0.0
O287 O 0.08052 0.97421 0.44901 0.0
O288 O 0.02848 0.97684 0.47048 0.0
O289 O 0.04956 0.85842 0.47351 0.0
O290 O 0.99012 0.89016 0.44936 0.0
O291 O 0.97116 0.00889 0.4446 0.0
C292 C 0.08405 0.04606 0.44566 0.0
C293 C 0.96523 0.93651 0.44699 0.0
C294 C 0.77146 0.7214 0.4841 0.0
C295 C 0.75058 0.773 0.42627 0.0
O296 O 0.75455 0.77876 0.47851 0.0
Zn297 Zn 0.76139 0.75707 0.45561 0.0
O298 O 0.78626 0.67452 0.47447 0.0
Zn299 Zn 0.79162 0.65637 0.44934 0.0
O300 O 0.84076 0.67801 0.44535 0.0
O301 O 0.81358 0.78453 0.45237 0.0
O302 O 0.76774 0.71206 0.42958 0.0
O303 O 0.74197 0.81765 0.43777 0.0
O304 O 0.73381 0.64996 0.45358 0.0
O305 O 0.76913 0.55429 0.44734 0.0
C306 C 0.84118 0.75082 0.44822 0.0
C307 C 0.73894 0.57815 0.45039 0.0
C308 C 0.93869 0.79152 0.33119 0.0
C309 C 0.05191 0.66012 0.32803 0.0
O310 O 0.9425 0.71796 0.33257 0.0
Zn311 Zn 0.99281 0.71229 0.32896 0.0
O312 O 0.96461 0.8336 0.32778 0.0
Zn313 Zn 0.01668 0.82563 0.3227 0.0
O314 O 0.01825 0.84743 0.29932 0.0
O315 O 0.99606 0.73153 0.30422 0.0
O316 O 0.05085 0.73249 0.32464 0.0
O317 O 0.02433 0.62295 0.33127 0.0
O318 O 1.01086 0.77759 0.34846 0.0
O319 O 0.03383 0.88933 0.34073 0.0
C320 C 1.00554 0.78354 0.29421 0.0
C321 C 0.02557 0.84181 0.35195 0.0
C322 C 0.69508 0.07204 0.33879 0.0
C323 C 0.81032 0.95364 0.34001 0.0
O324 O 0.72255 0.10517 0.34345 0.0
Zn325 Zn 0.75446 0.01848 0.34021 0.0
O326 O 0.69593 0.00143 0.33406 0.0
Zn327 Zn 0.73212 0.91111 0.33156 0.0
O328 O 0.71705 0.83522 0.34789 0.0
O329 O 0.74116 0.93879 0.3587 0.0
O330 O 0.78608 0.90895 0.3353 0.0
O331 O 0.80387 0.02346 0.3442 0.0
O332 O 0.75496 0.00655 0.31471 0.0
O333 O 0.73089 0.89432 0.30822 0.0
C334 C 0.72742 0.87162 0.36032 0.0
C335 C 0.74566 0.95752 0.30401 0.0
C336 C 0.971 0.33965 0.07966 0.0
C337 C 0.07083 0.51674 0.07871 0.0
O338 O 0.96422 0.41147 0.07721 0.0
Zn339 Zn 0.98926 0.52072 0.07471 0.0
O340 O 1.00186 0.31825 0.0818 0.0
Zn341 Zn 0.02236 0.42223 0.07944 0.0
O342 O 1.00314 0.47919 0.10018 0.0
O343 O 0.97037 0.57773 0.093 0.0
O344 O 0.07149 0.4433 0.08089 0.0
O345 O 0.04211 0.55049 0.0764 0.0
O346 O 0.97863 0.54543 0.05235 0.0
O347 O 1.0131 0.4445 0.05489 0.0
C348 C 0.98398 0.53644 0.10401 0.0
C349 C 0.99634 0.49162 0.04602 0.0
C350 C 0.31656 0.80492 0.07622 0.0
C351 C 0.19699 0.69701 0.07761 0.0
O352 O 0.31214 0.73192 0.07461 0.0
Zn353 Zn 0.27412 0.64787 0.07209 0.0
O354 O 0.29039 0.84923 0.07724 0.0
Zn355 Zn 0.25408 0.7675 0.07644 0.0
O356 O 0.26784 0.70786 0.09714 0.0
O357 O 0.28291 0.58744 0.09213 0.0
O358 O 0.20337 0.76926 0.07989 0.0
O359 O 0.22136 0.65109 0.07425 0.0
O360 O 0.27967 0.62416 0.04882 0.0
O361 O 0.25664 0.73965 0.05227 0.0
C362 C 0.27696 0.64148 0.1023 0.0
C363 C 0.26742 0.68691 0.04288 0.0
C364 C 0.06498 0.67968 0.19199 0.0
C365 C 0.95195 0.8071 0.1929 0.0
O366 O 0.04031 0.63566 0.19658 0.0
Zn367 Zn 0.98603 0.64138 0.20001 0.0
O368 O 0.05918 0.75048 0.18835 0.0
Zn369 Zn 1.00963 0.74881 0.19218 0.0
O370 O 1.00681 0.73456 0.21766 0.0
O371 O 0.98153 0.62205 0.22302 0.0
O372 O 0.98003 0.83938 0.18882 0.0
O373 O 0.95152 0.73564 0.19719 0.0
O374 O 0.96909 0.56853 0.18372 0.0
O375 O 0.99326 0.67393 0.17343 0.0
C376 C 0.99542 0.68497 0.22786 0.0
C377 C 0.97814 0.60846 0.17153 0.0
C378 C 0.31334 0.41925 0.19662 0.0
C379 C 0.1948 0.52161 0.19409 0.0
O380 O 0.3092 0.4903 0.2003 0.0
Zn381 Zn 0.27172 0.57494 0.20137 0.0
O382 O 0.28739 0.37722 0.19302 0.0
Zn383 Zn 0.25181 0.45811 0.19539 0.0
O384 O 0.26418 0.52558 0.17535 0.0
O385 O 0.28676 0.63761 0.18271 0.0
O386 O 0.20187 0.44994 0.19185 0.0
O387 O 0.21852 0.56982 0.19771 0.0
O388 O 0.27437 0.60057 0.22439 0.0
O389 O 0.2544 0.48157 0.22026 0.0
C390 C 0.27792 0.59041 0.1716 0.0
C391 C 0.26316 0.53587 0.22989 0.0
C392 C 0.0392 0.35936 0.92236 0.0
C393 C 0.0266 0.42421 0.97974 0.0
O394 O 0.04235 0.30913 0.93359 0.0
Zn395 Zn 0.0353 0.38187 0.95145 0.0
O396 O 0.03244 0.43007 0.92563 0.0
Zn397 Zn 0.02502 0.50408 0.94524 0.0
O398 O 0.06598 0.57095 0.94335 0.0
O399 O 0.07987 0.4495 0.94885 0.0
O400 O 0.02276 0.48022 0.96983 0.0
O401 O 0.03517 0.35717 0.97459 0.0
O402 O 0.983 0.40913 0.94816 0.0
O403 O 0.97671 0.53354 0.94193 0.0
C404 C 0.08886 0.51946 0.94581 0.0
C405 C 0.96366 0.46659 0.94478 0.0
C406 C 0.74285 0.38141 0.92904 0.0
C407 C 0.75091 0.35097 0.98867 0.0
O408 O 0.73189 0.43223 0.93894 0.0
Zn409 Zn 0.74702 0.37702 0.95868 0.0
O410 O 0.75826 0.32117 0.93437 0.0
Zn411 Zn 0.77289 0.26652 0.95615 0.0
O412 O 0.74535 0.1721 0.95352 0.0
O413 O 0.71407 0.27795 0.95665 0.0
O414 O 0.76326 0.29492 0.98049 0.0
O415 O 0.73954 0.41063 0.98127 0.0
O416 O 0.80095 0.38826 0.95558 0.0
O417 O 0.82313 0.2709 0.95451 0.0
C418 C 0.71608 0.20444 0.95443 0.0
C419 C 0.82716 0.34454 0.95421 0.0
C420 C 0.04956 0.14046 0.83236 0.0
C421 C 0.94269 0.29657 0.83215 0.0
O422 O 0.02013 0.11099 0.83528 0.0
Zn423 Zn 0.99346 0.2066 0.83149 0.0
O424 O 0.05236 0.21189 0.82834 0.0
Zn425 Zn 0.02258 0.31239 0.82498 0.0
O426 O 0.04202 0.37519 0.84271 0.0
O427 O 1.01271 0.2717 0.85074 0.0
O428 O 0.97033 0.33319 0.82895 0.0
O429 O 0.94361 0.2229 0.83419 0.0
O430 O 0.99961 0.21968 0.80668 0.0
O431 O 0.02688 0.32948 0.80155 0.0
C432 C 0.03054 0.33196 0.85403 0.0
C433 C 1.01189 0.26796 0.79654 0.0
C434 C 0.69333 0.54206 0.83405 0.0
C435 C 0.81526 0.46211 0.83724 0.0
O436 O 0.71809 0.58976 0.83627 0.0
Zn437 Zn 0.75635 0.51543 0.83581 0.0
O438 O 0.69967 0.47009 0.83217 0.0
Zn439 Zn 0.74057 0.39361 0.83042 0.0
O440 O 0.73 0.32752 0.84938 0.0
O441 O 0.74485 0.44776 0.85596 0.0
O442 O 0.79317 0.40968 0.83396 0.0
O443 O 0.8059 0.53254 0.83932 0.0
O444 O 0.75707 0.48999 0.81151 0.0
O445 O 0.73957 0.37002 0.80697 0.0
C446 C 0.73515 0.37968 0.86006 0.0
C447 C 0.75027 0.43563 0.80165 0.0
C448 C 0.47901 0.04771 0.13377 0.0
C449 C 0.50136 0.08808 0.12307 0.0
C450 C 0.52262 0.16636 0.14552 0.0
C451 C 0.49783 0.13069 0.15593 0.0
N452 N 0.44543 0.05646 0.15799 0.0
N453 N 0.54103 0.19397 0.11838 0.0
C454 C 0.47399 0.07687 0.14949 0.0
C455 C 0.52165 0.15062 0.12878 0.0
N456 N 0.46287 0.98062 0.1292 0.0
N457 N 0.54876 0.21122 0.15145 0.0
H458 H 0.54481 0.17969 0.10638 0.0
H459 H 0.55187 0.2474 0.12148 0.0
H460 H 0.55194 0.22686 0.16337 0.0
H461 H 0.56993 0.22768 0.14465 0.0
H462 H 0.44945 0.9453 0.13723 0.0
H463 H 0.46533 0.95586 0.1179 0.0
H464 H 0.42561 0.02319 0.15314 0.0
H465 H 0.43939 0.08068 0.16909 0.0
C466 C 0.76288 0.23837 0.16081 0.0
C467 C 0.79081 0.19342 0.1663 0.0
C468 C 0.80838 0.17107 0.13836 0.0
C469 C 0.77787 0.2086 0.1327 0.0
N470 N 0.72249 0.26189 0.13929 0.0
N471 N 0.8389 0.1118 0.16067 0.0
C472 C 0.75436 0.239 0.14413 0.0
C473 C 0.81339 0.15921 0.15515 0.0
N474 N 0.74384 0.27875 0.17167 0.0
N475 N 0.83316 0.1474 0.12791 0.0
H476 H 0.84487 0.10643 0.17285 0.0
H477 H 0.85289 0.07467 0.15336 0.0
H478 H 0.83085 0.1476 0.11551 0.0
H479 H 0.85769 0.13179 0.13155 0.0
H480 H 0.72505 0.31854 0.1684 0.0
H481 H 0.74927 0.27801 0.18395 0.0
H482 H 0.70313 0.27708 0.14724 0.0
H483 H 0.71378 0.25683 0.12751 0.0
C484 C 0.53444 0.78285 0.88331 0.0
C485 C 0.53634 0.84813 0.87248 0.0
C486 C 0.55686 0.92645 0.89513 0.0
C487 C 0.5475 0.86654 0.90608 0.0
N488 N 0.51879 0.74297 0.91006 0.0
N489 N 0.54246 -0.01155 0.87003 0.0
C490 C 0.53394 0.7961 0.90007 0.0
C491 C 0.54592 0.92186 0.87886 0.0
N492 N 0.53443 0.70758 0.87801 0.0
N493 N 0.57623 -0.01208 0.90025 0.0
H494 H 0.53115 -0.00983 0.85872 0.0
H495 H 0.54669 0.0436 0.87487 0.0
H496 H 0.58589 -0.00887 0.91193 0.0
H497 H 0.58585 0.03017 0.89245 0.0
H498 H 0.5361 0.66033 0.88586 0.0
H499 H 0.53747 0.69095 0.86615 0.0
H500 H 0.50536 0.69472 0.90574 0.0
H501 H 0.51623 0.75074 0.92239 0.0
C502 C 0.20365 0.83249 0.87587 0.0
C503 C 0.22883 0.80708 0.86488 0.0
C504 C 0.26777 0.77896 0.88707 0.0
C505 C 0.24214 0.80171 0.89833 0.0
N506 N 0.18199 0.82582 0.90303 0.0
N507 N 0.28071 0.7371 0.85996 0.0
C508 C 0.20892 0.82147 0.89264 0.0
C509 C 0.25929 0.77295 0.87054 0.0
N510 N 0.17506 0.86915 0.87027 0.0
N511 N 0.30085 0.76781 0.8919 0.0
H512 H 0.27523 0.73308 0.84772 0.0
H513 H 0.30185 0.70457 0.8635 0.0
H514 H 0.30927 0.77569 0.90361 0.0
H515 H 0.32097 0.75822 0.88399 0.0
H516 H 0.15791 0.89792 0.87773 0.0
H517 H 0.1696 0.87405 0.85803 0.0
H518 H 0.1568 0.83306 0.89922 0.0
H519 H 0.18405 0.81339 0.91524 0.0
C520 C 0.46813 0.63075 0.62566 0.0
C521 C 0.49428 0.66508 0.61615 0.0
C522 C 0.52819 0.69117 0.64043 0.0
C523 C 0.5017 0.65738 0.65021 0.0
N524 N 0.44296 0.61343 0.65201 0.0
N525 N 0.5506 0.72041 0.61387 0.0
C526 C 0.4708 0.63154 0.64278 0.0
C527 C 0.5244 0.69435 0.62343 0.0
N528 N 0.44116 0.59468 0.61825 0.0
N529 N 0.55688 0.72258 0.64735 0.0
H530 H 0.54805 0.72885 0.60151 0.0
H531 H 0.57552 0.7299 0.61783 0.0
H532 H 0.56391 0.71442 0.65923 0.0
H533 H 0.57361 0.76027 0.64147 0.0
H534 H 0.42373 0.55901 0.62424 0.0
H535 H 0.43742 0.59648 0.60584 0.0
H536 H 0.41868 0.6031 0.64729 0.0
H537 H 0.443 0.61589 0.6645 0.0
C538 C 0.83065 0.61019 0.65316 0.0
C539 C 0.8066 0.64766 0.66321 0.0
C540 C 0.7743 0.69047 0.63961 0.0
C541 C 0.79845 0.65302 0.62935 0.0
N542 N 0.85504 0.59886 0.62653 0.0
N543 N 0.76116 0.73963 0.66621 0.0
C544 C 0.82828 0.61914 0.63617 0.0
C545 C 0.78048 0.69369 0.65644 0.0
N546 N 0.85528 0.56429 0.6599 0.0
N547 N 0.74434 0.71901 0.63353 0.0
H548 H 0.76498 0.74211 0.6786 0.0
H549 H 0.7439 0.78082 0.66195 0.0
H550 H 0.73819 0.71937 0.62141 0.0
H551 H 0.72404 0.73694 0.64068 0.0
H552 H 0.87092 0.52755 0.65327 0.0
H553 H 0.85892 0.56047 0.6723 0.0
H554 H 0.87864 0.58078 0.63097 0.0
H555 H 0.85504 0.60779 0.61415 0.0
C556 C 0.57027 0.51515 0.38846 0.0
C557 C 0.53788 0.52528 0.39581 0.0
C558 C 0.51039 0.52212 0.36935 0.0
C559 C 0.54167 0.49746 0.36252 0.0
N560 N 0.60164 0.46983 0.36516 0.0
N561 N 0.47653 0.53653 0.3935 0.0
C562 C 0.57189 0.49516 0.37189 0.0
C563 C 0.50778 0.52983 0.3863 0.0
N564 N 0.59939 0.52573 0.3973 0.0
N565 N 0.48313 0.53706 0.35953 0.0
H566 H 0.47348 0.54293 0.40585 0.0
H567 H 0.45341 0.53036 0.38739 0.0
H568 H 0.48471 0.53227 0.34706 0.0
H569 H 0.46027 0.56107 0.36349 0.0
H570 H 0.62385 0.52578 0.39239 0.0
H571 H 0.59884 0.54166 0.40938 0.0
H572 H 0.62362 0.45745 0.37176 0.0
H573 H 0.60376 0.45777 0.35293 0.0
C574 C 0.219 0.3676 0.38194 0.0
C575 C 0.24385 0.41474 0.37411 0.0
C576 C 0.27015 0.44352 0.40046 0.0
C577 C 0.24941 0.38554 0.40756 0.0
N578 N 0.20391 0.29089 0.40537 0.0
N579 N 0.29559 0.49474 0.37641 0.0
C580 C 0.22373 0.34725 0.39837 0.0
C581 C 0.26977 0.45305 0.38351 0.0
N582 N 0.18989 0.34591 0.37396 0.0
N583 N 0.29073 0.48915 0.40988 0.0
H584 H 0.29733 0.50751 0.36427 0.0
H585 H 0.31765 0.51197 0.38249 0.0
H586 H 0.29318 0.48173 0.42224 0.0
H587 H 0.30296 0.53921 0.40569 0.0
H588 H 0.16939 0.31775 0.37949 0.0
H589 H 0.18443 0.36366 0.36226 0.0
H590 H 0.18812 0.25342 0.39888 0.0
H591 H 0.20441 0.27938 0.41768 0.0
C592 C 0.02472 0.03825 0.63366 0.0
C593 C 0.99926 0.06203 0.62232 0.0
C594 C 0.96123 0.09542 0.64479 0.0
C595 C 0.98623 0.06873 0.65581 0.0
N596 N 0.03752 -0.00362 0.66084 0.0
N597 N 0.93968 0.09195 0.61748 0.0
C598 C 1.01644 0.03366 0.65021 0.0
C599 C 0.96641 0.08472 0.62797 0.0
N600 N 0.0575 0.02381 0.62886 0.0
N601 N 0.93283 0.13229 0.6504 0.0
H602 H 0.94181 0.08107 0.60523 0.0
H603 H 0.91456 0.10086 0.62116 0.0
H604 H 0.92757 0.13692 0.66265 0.0
H605 H 0.91559 0.16133 0.64297 0.0
H606 H 0.07779 0.01671 0.63686 0.0
H607 H 0.06551 0.02576 0.61701 0.0
H608 H 0.05828 0.96271 0.65733 0.0
H609 H 0.03207 -0.00764 0.67308 0.0
C610 C 0.28336 0.05413 0.62509 0.0
C611 C 0.30568 0.1132 0.61956 0.0
C612 C 0.32037 0.14537 0.64735 0.0
C613 C 0.29378 0.09582 0.65291 0.0
N614 N 0.24404 0.01643 0.64581 0.0
N615 N 0.33811 0.22977 0.62579 0.0
C616 C 0.27369 0.05341 0.64146 0.0
C617 C 0.32202 0.16338 0.63077 0.0
N618 N 0.27023 0.00025 0.61468 0.0
N619 N 0.34508 0.17244 0.65755 0.0
H620 H 0.33816 0.24791 0.61388 0.0
H621 H 0.34782 0.27099 0.63377 0.0
H622 H 0.34685 0.15557 0.66954 0.0
H623 H 0.36635 0.20368 0.65352 0.0
H624 H 0.25692 0.95094 0.61854 0.0
H625 H 0.27508 0.00072 0.60239 0.0
H626 H 0.22692 -0.00692 0.63749 0.0
H627 H 0.23404 0.0162 0.65734 0.0
C628 C 1.00419 0.83716 0.38021 0.0
C629 C 0.03075 0.85821 0.36933 0.0
C630 C 0.06536 0.89918 0.39223 0.0
C631 C 0.0419 0.86298 0.403 0.0
N632 N 0.98947 0.79071 0.4068 0.0
N633 N 0.08994 0.89587 0.36565 0.0
C634 C 1.01166 0.82884 0.39681 0.0
C635 C 0.06243 0.88514 0.37549 0.0
N636 N 0.97127 0.83022 0.37485 0.0
N637 N 0.08884 0.95154 0.39772 0.0
H638 H 0.0893 0.88442 0.35338 0.0
H639 H 0.11427 0.90904 0.37007 0.0
H640 H 0.08849 0.97134 0.40948 0.0
H641 H 0.1049 0.98331 0.39013 0.0
H642 H 0.9505 0.82184 0.38249 0.0
H643 H 0.96431 0.84318 0.36305 0.0
H644 H 0.9685 0.75905 0.40259 0.0
H645 H 0.99368 0.78514 0.41912 0.0
C646 C 0.71314 0.8381 0.40526 0.0
C647 C 0.74173 0.79066 0.40902 0.0
C648 C 0.75069 0.77369 0.3799 0.0
C649 C 0.7278 0.83543 0.37664 0.0
N650 N 0.69246 0.93782 0.38748 0.0
N651 N 0.79285 0.7269 0.39856 0.0
C652 C 0.71053 0.87106 0.38968 0.0
C653 C 0.76177 0.76108 0.396 0.0
N654 N 0.68765 0.84956 0.41617 0.0
N655 N 0.76335 0.72946 0.36771 0.0
H656 H 0.80533 0.72482 0.40955 0.0
H657 H 0.80885 0.70955 0.38927 0.0
H658 H 0.75744 0.73883 0.35567 0.0
H659 H 0.77732 0.67881 0.36976 0.0
H660 H 0.66537 0.87993 0.41335 0.0
H661 H 0.68635 0.81969 0.42707 0.0
H662 H 0.68193 0.96895 0.39698 0.0
H663 H 0.6914 0.96619 0.37649 0.0
C664 C 0.94674 0.58713 0.14537 0.0
C665 C 0.97632 0.57701 0.15503 0.0
C666 C 1.01042 0.55351 0.1311 0.0
C667 C 0.98054 0.55559 0.12138 0.0
N668 N 0.91878 0.55846 0.12 0.0
N669 N 0.03361 0.52797 0.15748 0.0
C670 C 0.94814 0.56799 0.12869 0.0
C671 C 1.00721 0.55241 0.148 0.0
N672 N 0.91767 0.61655 0.15201 0.0
N673 N 0.04209 0.55809 0.12425 0.0
H674 H 0.032 0.52644 0.16999 0.0
H675 H 0.05542 0.50174 0.15281 0.0
H676 H 0.04561 0.5674 0.11199 0.0
H677 H 0.06454 0.56276 0.13095 0.0
H678 H 0.89654 0.6335 0.14522 0.0
H679 H 0.91561 0.62826 0.16426 0.0
H680 H 0.89451 0.55958 0.12514 0.0
H681 H 0.9187 0.54232 0.10794 0.0
C682 C 0.2988 0.55737 0.14361 0.0
C683 C 0.28127 0.60892 0.15418 0.0
C684 C 0.25706 0.6745 0.13068 0.0
C685 C 0.27864 0.63021 0.12019 0.0
N686 N 0.32861 0.54815 0.11837 0.0
N687 N 0.24839 0.72672 0.15726 0.0
C688 C 0.30212 0.57726 0.12713 0.0
C689 C 0.26252 0.67155 0.14755 0.0
N690 N 0.31143 0.48795 0.14893 0.0
N691 N 0.2295 0.71509 0.12498 0.0
H692 H 0.24903 0.72445 0.16974 0.0
H693 H 0.23827 0.7785 0.15278 0.0
H694 H 0.22181 0.71746 0.11307 0.0
H695 H 0.2112 0.73954 0.13249 0.0
H696 H 0.32158 0.44657 0.14117 0.0
H697 H 0.30844 0.4674 0.16058 0.0
H698 H 0.34784 0.51424 0.1235 0.0
H699 H 0.33402 0.56605 0.10669 0.0
C700 C 0.06761 0.34962 0.87881 0.0
C701 C 0.0349 0.34939 0.87136 0.0
C702 C 1.00781 0.32971 0.89753 0.0
C703 C 0.03976 0.33884 0.90518 0.0
N704 N 0.09991 0.36881 0.90346 0.0
N705 N 0.97383 0.36165 0.87426 0.0
C706 C 0.06972 0.35215 0.89592 0.0
C707 C 1.00499 0.34613 0.88095 0.0
N708 N 0.09648 0.34436 0.86969 0.0
N709 N 0.98008 0.30502 0.90611 0.0
H710 H 0.97106 0.37777 0.86223 0.0
H711 H 0.9516 0.36733 0.88104 0.0
H712 H 0.98142 0.29242 0.91837 0.0
H713 H 0.95692 0.2897 0.90072 0.0
H714 H 0.12073 0.33576 0.87457 0.0
H715 H 0.0959 0.34335 0.85717 0.0
H716 H 0.12168 0.38789 0.89739 0.0
H717 H 0.10249 0.36757 0.91594 0.0
C718 C 0.76836 0.36936 0.90179 0.0
C719 C 0.73931 0.38812 0.91121 0.0
C720 C 0.70484 0.39279 0.88645 0.0
C721 C 0.73319 0.36465 0.87756 0.0
N722 N 0.78975 0.31059 0.87746 0.0
N723 N 0.6782 0.40794 0.91255 0.0
C724 C 0.76413 0.34732 0.88552 0.0
C725 C 0.70698 0.39744 0.90357 0.0
N726 N 0.80039 0.37713 0.90818 0.0
N727 N 0.6762 0.41691 0.87847 0.0
H728 H 0.67857 0.4118 0.92502 0.0
H729 H 0.65361 0.40676 0.90771 0.0
H730 H 0.67323 0.41036 0.86608 0.0
H731 H 0.65638 0.44698 0.88398 0.0
H732 H 0.82261 0.37139 0.9014 0.0
H733 H 0.80458 0.39871 0.91972 0.0
H734 H 0.81172 0.2899 0.88312 0.0
H735 H 0.78739 0.29419 0.86544 0.0
C736 C 0.36323 0.88648 0.08925 0.0
C737 C 0.35277 0.8334 0.07717 0.0
C738 C 0.41346 0.81083 0.07043 0.0
C739 C 0.42346 0.86993 0.08132 0.0
N740 N 0.40603 0.97845 0.098 0.0
N741 N 0.36858 0.75765 0.05379 0.0
C742 C 0.39783 0.91246 0.0897 0.0
C743 C 0.37809 0.79901 0.06709 0.0
N744 N 0.34099 0.90859 0.10102 0.0
N745 N 0.43759 0.7664 0.06297 0.0
H746 H 0.34332 0.74705 0.05058 0.0
H747 H 0.38575 0.74011 0.04498 0.0
H748 H 0.4638 0.77661 0.06387 0.0
H749 H 0.43164 0.71581 0.05667 0.0
H750 H 0.34864 0.9403 0.11106 0.0
H751 H 0.31592 0.88829 0.10182 0.0
H752 H 0.3876 0.01543 0.10276 0.0
H753 H 0.43067 0.00084 0.09886 0.0
C754 C 0.88526 0.27056 0.0946 0.0
C755 C 0.87368 0.22658 0.08106 0.0
C756 C 0.93143 0.23591 0.06928 0.0
C757 C 0.94146 0.28624 0.08187 0.0
N758 N 0.92974 0.34977 0.10688 0.0
N759 N 0.88463 0.17623 0.05452 0.0
C760 C 0.91899 0.30177 0.09476 0.0
C761 C 0.89667 0.21031 0.06825 0.0
N762 N 0.86422 0.28234 0.10745 0.0
N763 N 0.95514 0.21368 0.0582 0.0
H764 H 0.85914 0.15996 0.05292 0.0
H765 H 0.89903 0.17031 0.0441 0.0
H766 H 0.98048 0.23289 0.05861 0.0
H767 H 0.95065 0.17145 0.04951 0.0
H768 H 0.87258 0.30236 0.11857 0.0
H769 H 0.83833 0.26922 0.10751 0.0
H770 H 0.91363 0.37488 0.11532 0.0
H771 H 0.95523 0.36687 0.10822 0.0
C772 C 0.39494 0.32063 0.21064 0.0
C773 C 0.41863 0.34537 0.1987 0.0
C774 C 0.37405 0.42435 0.18638 0.0
C775 C 0.34898 0.38952 0.19662 0.0
N776 N 0.33569 0.29854 0.21791 0.0
N777 N 0.42782 0.40559 0.1728 0.0
C778 C 0.35941 0.33492 0.20844 0.0
C779 C 0.4074 0.39279 0.18586 0.0
N780 N 0.40662 0.28796 0.22457 0.0
N781 N 0.36695 0.48959 0.17761 0.0
H782 H 0.45203 0.38124 0.17154 0.0
H783 H 0.41909 0.43346 0.16244 0.0
H784 H 0.34378 0.51867 0.17807 0.0
H785 H 0.38563 0.52023 0.17124 0.0
H786 H 0.39092 0.2754 0.23434 0.0
H787 H 0.43262 0.28209 0.22709 0.0
H788 H 0.34169 0.25236 0.22553 0.0
H789 H 0.30962 0.31069 0.21737 0.0
C790 C 0.86474 0.89194 0.18208 0.0
C791 C 0.85293 0.91323 0.19759 0.0
C792 C 0.90889 0.8793 0.20908 0.0
C793 C 0.91953 0.85134 0.19391 0.0
N794 N 0.90639 0.82059 0.16637 0.0
N795 N 0.86146 0.9143 0.22628 0.0
C796 C 0.8971 0.85468 0.18051 0.0
C797 C 0.87444 0.90351 0.21122 0.0
N798 N 0.84583 0.91041 0.16879 0.0
N799 N 0.93193 0.88364 0.22143 0.0
H800 H 0.83608 0.92982 0.22836 0.0
H801 H 0.87471 0.90058 0.23677 0.0
H802 H 0.95731 0.86591 0.2203 0.0
H803 H 0.92682 0.91076 0.23232 0.0
H804 H 0.85483 0.90438 0.1571 0.0
H805 H 0.82212 0.93773 0.16941 0.0
H806 H 0.88963 0.8127 0.15677 0.0
H807 H 0.93035 0.79553 0.16462 0.0
C808 C 0.67311 0.10539 0.96392 0.0
C809 C 0.68363 0.16002 0.95218 0.0
C810 C 0.62855 0.14422 0.93796 0.0
C811 C 0.61647 0.09611 0.95066 0.0
N812 N 0.62735 0.03153 0.97616 0.0
N813 N 0.67252 0.2312 0.92777 0.0
C814 C 0.63893 0.07612 0.96365 0.0
C815 C 0.6616 0.17934 0.93915 0.0
N816 N 0.69593 0.08083 0.97533 0.0
N817 N 0.60936 0.15239 0.9243 0.0
H818 H 0.69774 0.25071 0.9271 0.0
H819 H 0.65654 0.25651 0.91924 0.0
H820 H 0.58536 0.12689 0.92279 0.0
H821 H 0.61814 0.17891 0.91384 0.0
H822 H 0.69173 0.03342 0.98289 0.0
H823 H 0.72043 0.10416 0.97658 0.0
H824 H 0.64012 0.02603 0.98708 0.0
H825 H 0.60402 0.00262 0.97624 0.0
C826 C 0.18537 0.52792 0.95397 0.0
C827 C 0.19672 0.5695 0.94032 0.0
C828 C 0.13859 0.56524 0.929 0.0
C829 C 0.1261 0.53641 0.9439 0.0
N830 N 0.13775 0.48944 0.97078 0.0
N831 N 0.18518 0.62702 0.9145 0.0
C832 C 0.14962 0.51626 0.95636 0.0
C833 C 0.17361 0.58719 0.92766 0.0
N834 N 0.20889 0.50022 0.96469 0.0
N835 N 0.11741 0.56816 0.91592 0.0
H836 H 0.21112 0.63803 0.91256 0.0
H837 H 0.16912 0.65148 0.90589 0.0
H838 H 0.09188 0.55041 0.91625 0.0
H839 H 0.12586 0.58099 0.90436 0.0
H840 H 0.20288 0.46315 0.97419 0.0
H841 H 0.23513 0.50888 0.96322 0.0
H842 H 0.15295 0.48338 0.98098 0.0
H843 H 0.11209 0.47764 0.97297 0.0
C844 C 0.61251 0.64987 0.8457 0.0
C845 C 0.58752 0.61637 0.83522 0.0
C846 C 0.63248 0.53659 0.82317 0.0
C847 C 0.65677 0.56656 0.83448 0.0
N848 N 0.66543 0.62951 0.86005 0.0
N849 N 0.57284 0.51699 0.81601 0.0
C850 C 0.64548 0.6165 0.84681 0.0
C851 C 0.59717 0.55558 0.82475 0.0
N852 N 0.60556 0.71539 0.85429 0.0
N853 N 0.64307 0.49351 0.81035 0.0
H854 H 0.54701 0.53151 0.81621 0.0
H855 H 0.57783 0.46639 0.8096 0.0
H856 H 0.66823 0.47695 0.80847 0.0
H857 H 0.62723 0.47943 0.8007 0.0
H858 H 0.62426 0.74632 0.86057 0.0
H859 H 0.58214 0.74323 0.854 0.0
H860 H 0.6567 0.65946 0.8701 0.0
H861 H 0.68893 0.60246 0.8619 0.0
C862 C 0.10411 0.10895 0.84673 0.0
C863 C 0.08177 0.09567 0.83354 0.0
C864 C 0.12929 0.04228 0.818 0.0
C865 C 0.15176 0.0536 0.83136 0.0
N866 N 0.15785 0.07789 0.85978 0.0
N867 N 0.07083 0.03556 0.80807 0.0
C868 C 0.13842 0.0814 0.84613 0.0
C869 C 0.09369 0.05724 0.81969 0.0
N870 N 0.09268 0.1497 0.85971 0.0
N871 N 0.14212 0.02104 0.80341 0.0
H872 H 0.04468 0.04674 0.80897 0.0
H873 H 0.07707 0.00032 0.79837 0.0
H874 H 0.16777 0.00879 0.80146 0.0
H875 H 0.12789 0.02154 0.79283 0.0
H876 H 0.10874 0.17023 0.86876 0.0
H877 H 0.06719 0.16635 0.86099 0.0
H878 H 0.14828 0.08974 0.87117 0.0
H879 H 0.18262 0.05577 0.86001 0.0
C880 C 0.42348 0.38668 0.58572 0.0
C881 C 0.42805 0.44287 0.57347 0.0
C882 C 0.36793 0.42446 0.56525 0.0
C883 C 0.36519 0.36068 0.57608 0.0
N884 N 0.39437 0.27008 0.59396 0.0
N885 N 0.40478 0.51246 0.55055 0.0
C886 C 0.39409 0.33834 0.58549 0.0
C887 C 0.40022 0.46179 0.56307 0.0
N888 N 0.44621 0.3821 0.5982 0.0
N889 N 0.34 0.44851 0.55668 0.0
H890 H 0.4268 0.54528 0.54877 0.0
H891 H 0.38735 0.51882 0.54117 0.0
H892 H 0.31707 0.4176 0.55612 0.0
H893 H 0.33899 0.50151 0.55059 0.0
H894 H 0.44198 0.34753 0.60832 0.0
H895 H 0.46703 0.41979 0.59946 0.0
H896 H 0.41638 0.24834 0.59941 0.0
H897 H 0.37416 0.23082 0.5943 0.0
C898 C 0.89296 0.80676 0.56621 0.0
C899 C 0.87347 0.81969 0.58032 0.0
C900 C 0.92581 0.85432 0.59501 0.0
C901 C 0.94535 0.83873 0.58103 0.0
N902 N 0.94905 0.78557 0.55449 0.0
N903 N 0.8715 0.842 0.60888 0.0
C904 C 0.92932 0.81002 0.567 0.0
C905 C 0.88994 0.83966 0.59495 0.0
N906 N 0.87652 0.79419 0.55195 0.0
N907 N 0.94154 0.88536 0.60821 0.0
H908 H 0.84505 0.83398 0.60924 0.0
H909 H 0.8826 0.84705 0.6202 0.0
H910 H 0.96806 0.89106 0.60909 0.0
H911 H 0.92837 0.90821 0.61796 0.0
H912 H 0.88897 0.79172 0.54092 0.0
H913 H 0.8499 0.79311 0.55096 0.0
H914 H 0.9393 0.75749 0.54441 0.0
H915 H 0.97573 0.7874 0.55491 0.0
C916 C 0.40929 0.823 0.70838 0.0
C917 C 0.4322 0.85102 0.69626 0.0
C918 C 0.38428 0.91658 0.68287 0.0
C919 C 0.36144 0.88548 0.69457 0.0
N920 N 0.35091 0.80154 0.71724 0.0
N921 N 0.44006 0.91106 0.67027 0.0
C922 C 0.37358 0.83629 0.70692 0.0
C923 C 0.41939 0.89485 0.68311 0.0
N924 N 0.42172 0.78526 0.72163 0.0
N925 N 0.37229 0.96682 0.67143 0.0
H926 H 0.46576 0.89548 0.66977 0.0
H927 H 0.43121 0.93436 0.6595 0.0
H928 H 0.34635 0.97751 0.66969 0.0
H929 H 0.38812 0.00043 0.66408 0.0
H930 H 0.40743 0.77454 0.73195 0.0
H931 H 0.44699 0.76846 0.72293 0.0
H932 H 0.3574 0.75699 0.72513 0.0
H933 H 0.32475 0.81303 0.71719 0.0
C934 C 0.8762 0.36549 0.68179 0.0
C935 C 0.86392 0.38755 0.69719 0.0
C936 C 0.92106 0.36556 0.70886 0.0
C937 C 0.93268 0.34009 0.69369 0.0
N938 N 0.92226 0.31036 0.66593 0.0
N939 N 0.8758 0.42021 0.72494 0.0
C940 C 0.91056 0.33919 0.68018 0.0
C941 C 0.88672 0.39079 0.7106 0.0
N942 N 0.85571 0.37428 0.66857 0.0
N943 N 0.94263 0.36162 0.72183 0.0
H944 H 0.85052 0.4346 0.72725 0.0
H945 H 0.8919 0.43449 0.73445 0.0
H946 H 0.9686 0.34891 0.72078 0.0
H947 H 0.9349 0.36753 0.7337 0.0
H948 H 0.86414 0.36787 0.65682 0.0
H949 H 0.83055 0.39375 0.66915 0.0
H950 H 0.90671 0.29846 0.65608 0.0
H951 H 0.94777 0.295 0.66416 0.0
C952 C 0.66053 0.46821 0.43545 0.0
C953 C 0.6397 0.47537 0.4493 0.0
C954 C 0.6896 0.51887 0.46478 0.0
C955 C 0.70856 0.5259 0.45036 0.0
N956 N 0.71223 0.50951 0.42168 0.0
N957 N 0.63374 0.50807 0.47727 0.0
C958 C 0.69434 0.4997 0.43563 0.0
C959 C 0.65415 0.49998 0.46408 0.0
N960 N 0.64792 0.43156 0.42215 0.0
N961 N 0.70579 0.52992 0.47915 0.0
H962 H 0.60795 0.49212 0.47734 0.0
H963 H 0.64181 0.53466 0.48785 0.0
H964 H 0.73186 0.54295 0.4799 0.0
H965 H 0.69438 0.5189 0.49022 0.0
H966 H 0.66277 0.41806 0.41218 0.0
H967 H 0.62315 0.4088 0.42162 0.0
H968 H 0.70164 0.50097 0.41034 0.0
H969 H 0.7373 0.53045 0.42142 0.0
C970 C 0.12927 0.14053 0.4555 0.0
C971 C 0.11959 0.07868 0.44516 0.0
C972 C 0.1767 0.08312 0.43299 0.0
C973 C 0.18815 0.1363 0.44478 0.0
N974 N 0.17564 0.20198 0.46992 0.0
N975 N 0.1405 0.97292 0.42833 0.0
C976 C 0.1645 0.16188 0.45674 0.0
C977 C 0.14511 0.04417 0.43523 0.0
N978 N 0.10533 0.17705 0.46469 0.0
N979 N 0.19491 0.07176 0.41922 0.0
H980 H 0.11929 0.93756 0.43019 0.0
H981 H 0.16003 0.94465 0.42217 0.0
H982 H 0.21667 0.10402 0.41628 0.0
H983 H 0.18566 0.03778 0.40979 0.0
H984 H 0.11035 0.22868 0.47082 0.0
H985 H 0.07996 0.15875 0.46552 0.0
H986 H 0.16005 0.21389 0.47973 0.0
H987 H 0.2011 0.21597 0.47211 0.0
C988 C 0.63578 0.10112 0.34906 0.0
C989 C 0.66217 0.11499 0.3377 0.0
C990 C 0.62235 0.19514 0.32219 0.0
C991 C 0.59861 0.19359 0.33518 0.0
N992 N 0.58734 0.15651 0.36274 0.0
N993 N 0.68132 0.18138 0.31377 0.0
C994 C 0.6066 0.14991 0.34916 0.0
C995 C 0.65582 0.16476 0.32445 0.0
N996 N 0.63752 0.03894 0.3592 0.0
N997 N 0.61222 0.22002 0.30733 0.0
H998 H 0.7057 0.15722 0.31458 0.0
H999 H 0.6789 0.22355 0.30482 0.0
H1000 H 0.58699 0.23469 0.3047 0.0
H1001 H 0.62761 0.21616 0.29717 0.0
H1002 H 0.61772 0.02341 0.36696 0.0
H1003 H 0.65633 -0.00307 0.35801 0.0
H1004 H 0.59422 0.13028 0.37357 0.0
H1005 H 0.56688 0.19484 0.36373 0.0
C1006 C 0.13822 0.58919 0.34329 0.0
C1007 C 0.15826 0.60363 0.32934 0.0
C1008 C 0.10601 0.62913 0.31394 0.0
C1009 C 0.08639 0.6242 0.32822 0.0
N1010 N 0.08414 0.60825 0.35697 0.0
N1011 N 0.16193 0.64722 0.3019 0.0
C1012 C 0.10251 0.60583 0.34303 0.0
C1013 C 0.14232 0.62655 0.31481 0.0
N1014 N 0.1533 0.55897 0.35674 0.0
N1015 N 0.08963 0.63464 0.29947 0.0
H1016 H 0.18861 0.64574 0.30213 0.0
H1017 H 0.15197 0.67193 0.29147 0.0
H1018 H 0.06299 0.63497 0.29851 0.0
H1019 H 0.10212 0.63095 0.28846 0.0
H1020 H 0.13952 0.53831 0.36658 0.0
H1021 H 0.17962 0.5504 0.35772 0.0
H1022 H 0.09525 0.60511 0.36832 0.0
H1023 H 0.05784 0.61804 0.35721 0.0
C1024 C 0.54497 0.02389 0.02303 0.0
C1025 C 0.52184 0.97876 0.03219 0.0
C1026 C 0.51117 0.89482 1.00885 0.0
C1027 C 0.53135 0.94564 0.99923 0.0
N1028 N 0.55926 0.07239 0.99684 0.0
N1029 N 0.47748 0.88072 0.03312 0.0
C1030 C 0.54577 0.01435 1.00617 0.0
C1031 C 0.50353 0.9164 0.02494 0.0
N1032 N 0.56735 0.07373 0.03041 0.0
N1033 N 0.49848 0.82716 1.00258 0.0
H1034 H 0.47005 0.89752 0.04461 0.0
H1035 H 0.46094 0.84021 0.02795 0.0
H1036 H 0.50123 0.81161 0.99057 0.0
H1037 H 0.48699 0.78397 1.00956 0.0
H1038 H 0.58729 0.1014 0.02433 0.0
H1039 H 0.56845 0.08099 0.04283 0.0
H1040 H 0.56654 0.12629 1.00147 0.0
H1041 H 0.56008 0.07113 0.98439 0.0
C1042 C 0.78338 0.32077 0.03182 0.0
C1043 C 0.75227 0.30893 0.04022 0.0
C1044 C 0.72017 0.34281 0.0156 0.0
C1045 C 0.7513 0.34471 1.00671 0.0
N1046 N 0.81274 0.32802 1.00634 0.0
N1047 N 0.69078 0.30334 0.04011 0.0
C1048 C 0.78293 0.33179 0.01485 0.0
C1049 C 0.72055 0.31967 0.03216 0.0
N1050 N 0.81351 0.32386 0.04019 0.0
N1051 N 0.6901 0.36142 1.00815 0.0
H1052 H 0.69013 0.28723 0.05219 0.0
H1053 H 0.66692 0.30066 0.03457 0.0
H1054 H 0.68827 0.37336 0.99591 0.0
H1055 H 0.66721 0.36988 0.01424 0.0
H1056 H 0.83674 0.34059 0.03513 0.0
H1057 H 0.8148 0.31736 0.05264 0.0
H1058 H 0.83569 0.30813 1.01117 0.0
H1059 H 0.81429 0.33978 0.99411 0.0
C1060 C 0.48159 0.21902 0.25925 0.0
C1061 C 0.51048 0.2078 0.24936 0.0
C1062 C 0.54722 0.2759 0.26883 0.0
C1063 C 0.5182 0.2889 0.27873 0.0
N1064 N 0.45826 0.2645 0.28441 0.0
N1065 N 0.57143 0.20657 0.24614 0.0
C1066 C 0.4856 0.25731 0.2743 0.0
C1067 C 0.54352 0.23053 0.25465 0.0
N1068 N 0.45003 0.19655 0.25383 0.0
N1069 N 0.57829 0.30715 0.27287 0.0
H1070 H 0.56921 0.1718 0.23593 0.0
H1071 H 0.59661 0.21432 0.2499 0.0
H1072 H 0.58291 0.33656 0.28357 0.0
H1073 H 0.59933 0.30789 0.26524 0.0
H1074 H 0.42708 0.2123 0.25919 0.0
H1075 H 0.44662 0.16387 0.24342 0.0
H1076 H 0.43542 0.23386 0.28309 0.0
H1077 H 0.45852 0.29916 0.29462 0.0
C1078 C 0.73226 0.01553 0.26012 0.0
C1079 C 0.76663 0.03106 0.25519 0.0
C1080 C 0.78696 0.98335 0.28144 0.0
C1081 C 0.7526 0.97659 0.28684 0.0
N1082 N 0.69264 -0.00074 0.28227 0.0
N1083 N 0.82686 0.03379 0.26159 0.0
C1084 C 0.72528 -0.00403 0.27642 0.0
C1085 C 0.79403 0.01664 0.26604 0.0
N1086 N 0.70608 0.01789 0.24923 0.0
N1087 N 0.81278 0.95463 0.2908 0.0
H1088 H 0.8334 0.05306 0.25011 0.0
H1089 H 0.84746 0.03334 0.26953 0.0
H1090 H 0.80837 0.92837 0.30193 0.0
H1091 H 0.83804 0.95011 0.28702 0.0
H1092 H 0.68145 -0.00206 0.25174 0.0
H1093 H 0.70922 0.0334 0.23726 0.0
H1094 H 0.67227 0.02287 0.27584 0.0
H1095 H 0.68634 0.98453 0.29406 0.0
C1096 C 0.28012 0.78928 1.00232 0.0
C1097 C 0.25772 0.74589 0.99244 0.0
C1098 C 0.24537 0.65673 0.01497 0.0
C1099 C 0.26598 0.70353 0.02524 0.0
N1100 N 0.29728 0.82485 0.0291 0.0
N1101 N 0.21475 0.64626 0.98959 0.0
C1102 C 0.28159 0.77293 0.01905 0.0
C1103 C 0.2392 0.68163 0.99884 0.0
N1104 N 0.30125 0.84412 0.99562 0.0
N1105 N 0.23128 0.58908 0.02064 0.0
H1106 H 0.20931 0.66409 0.97787 0.0
H1107 H 0.1978 0.60422 0.99387 0.0
H1108 H 0.23307 0.57138 0.03258 0.0
H1109 H 0.21946 0.54792 1.01332 0.0
H1110 H 0.32151 0.86998 1.0018 0.0
H1111 H 0.30037 0.85949 0.9835 0.0
H1112 H 0.30488 0.88036 0.02547 0.0
H1113 H 0.30043 0.81607 0.04134 0.0
C1114 C 0.52726 0.66341 0.75742 0.0
C1115 C 0.51245 0.71611 0.74618 0.0
C1116 C 0.49876 0.80517 0.76854 0.0
C1117 C 0.51645 0.75652 0.77937 0.0
N1118 N 0.55254 0.64531 0.78387 0.0
N1119 N 0.49146 0.84823 0.74135 0.0
C1120 C 0.53188 0.68692 0.77376 0.0
C1121 C 0.50045 0.79016 0.75179 0.0
N1122 N 0.5378 0.59164 0.75249 0.0
N1123 N 0.47885 0.86423 0.77423 0.0
H1124 H 0.49051 0.84306 0.72897 0.0
H1125 H 0.4874 0.90537 0.74502 0.0
H1126 H 0.47676 0.87755 0.78639 0.0
H1127 H 0.46173 0.89499 0.76703 0.0
H1128 H 0.54464 0.54731 0.76041 0.0
H1129 H 0.53802 0.57438 0.74052 0.0
H1130 H 0.5675 0.5987 0.78021 0.0
H1131 H 0.55733 0.66191 0.7957 0.0
C1132 C 0.29147 0.96272 0.75335 0.0
C1133 C 0.27212 0.02271 0.74598 0.0
C1134 C 0.23947 0.03947 0.77078 0.0
C1135 C 0.25536 0.97202 0.77739 0.0
N1136 N 0.29691 0.86904 0.77507 0.0
N1137 N 0.22462 0.11152 0.74673 0.0
C1138 C 0.28145 0.93334 0.76867 0.0
C1139 C 0.24549 0.05985 0.75447 0.0
N1140 N 0.3201 0.93563 0.74582 0.0
N1141 N 0.21896 0.08509 0.78006 0.0
H1142 H 0.22842 0.12919 0.73488 0.0
H1143 H 0.20199 0.13243 0.75166 0.0
H1144 H 0.21319 0.07266 0.79197 0.0
H1145 H 0.21006 0.13934 0.77638 0.0
H1146 H 0.33735 0.89712 0.75103 0.0
H1147 H 0.32839 0.95731 0.73476 0.0
H1148 H 0.31301 0.83274 0.7686 0.0
H1149 H 0.29252 0.84935 0.78673 0.0
C1150 C 0.4904 0.53913 0.49722 0.0
C1151 C 0.51472 0.58188 0.4882 0.0
C1152 C 0.52704 0.66276 0.51194 0.0
C1153 C 0.5061 0.61296 0.52146 0.0
N1154 N 0.47266 0.49392 0.52332 0.0
N1155 N 0.5596 0.67855 0.4873 0.0
C1156 C 0.48911 0.54844 0.51414 0.0
C1157 C 0.53371 0.64288 0.49558 0.0
N1158 N 0.4677 0.49108 0.48956 0.0
N1159 N 0.5413 0.72788 0.5186 0.0
H1160 H 0.56565 0.6648 0.47546 0.0
H1161 H 0.57696 0.71703 0.49252 0.0
H1162 H 0.53879 0.74197 0.5307 0.0
H1163 H 0.55368 0.77083 0.51191 0.0
H1164 H 0.44702 0.46466 0.49531 0.0
H1165 H 0.46726 0.48419 0.47711 0.0
H1166 H 0.46352 0.44141 0.51875 0.0
H1167 H 0.47077 0.49719 0.53573 0.0
C1168 C 0.81093 0.67214 0.52464 0.0
C1169 C 0.78156 0.65652 0.53403 0.0
C1170 C 0.74482 0.68173 0.51051 0.0
C1171 C 0.77411 0.70553 0.50165 0.0
N1172 N 0.83423 0.73644 0.5011 0.0
N1173 N 0.72027 0.64965 0.53651 0.0
C1174 C 0.80701 0.70372 0.50892 0.0
C1175 C 0.74839 0.66198 0.52709 0.0
N1176 N 0.84261 0.65688 0.53081 0.0
N1177 N 0.71383 0.67564 0.50297 0.0
H1178 H 0.72203 0.62974 0.54833 0.0
H1179 H 0.69537 0.66194 0.53289 0.0
H1180 H 0.71007 0.69077 0.49097 0.0
H1181 H 0.69227 0.6506 0.50822 0.0
H1182 H 0.86501 0.66006 0.52409 0.0
H1183 H 0.84614 0.63423 0.54233 0.0
H1184 H 0.85826 0.74396 0.5063 0.0
H1185 H 0.8318 0.76358 0.48993 0.0
C1186 C 0.77747 0.40631 0.77478 0.0
C1187 C 0.75561 0.45303 0.78423 0.0
C1188 C 0.75387 0.55084 0.76242 0.0
C1189 C 0.77334 0.50086 0.75246 0.0
N1190 N 0.797 0.37202 0.7483 0.0
N1191 N 0.71808 0.56412 0.7859 0.0
C1192 C 0.78294 0.42578 0.75834 0.0
C1193 C 0.74253 0.5238 0.77771 0.0
N1194 N 0.79492 0.34605 0.78169 0.0
N1195 N 0.74573 0.62417 0.75728 0.0
H1196 H 0.70923 0.54762 0.79716 0.0
H1197 H 0.70428 0.61008 0.78098 0.0
H1198 H 0.75034 0.64458 0.7457 0.0
H1199 H 0.73604 0.66689 0.76483 0.0
H1200 H 0.81447 0.31635 0.77588 0.0
H1201 H 0.79243 0.3305 0.79374 0.0
H1202 H 0.80051 0.31401 0.75157 0.0
H1203 H 0.80245 0.38258 0.73629 0.0
C1204 C 0.31354 0.27033 0.50424 0.0
C1205 C 0.28858 0.23156 0.49476 0.0
C1206 C 0.27827 0.1372 0.51659 0.0
C1207 C 0.3008 0.18045 0.5265 0.0
N1208 N 0.3405 0.28642 0.53031 0.0
N1209 N 0.25191 0.11937 0.49051 0.0
C1210 C 0.31885 0.24612 0.5204 0.0
C1211 C 0.27244 0.16215 0.50051 0.0
N1212 N 0.33364 0.327 0.49747 0.0
N1213 N 0.26086 0.07507 0.52294 0.0
H1214 H 0.24498 0.13718 0.47902 0.0
H1215 H 0.24286 0.06378 0.49312 0.0
H1216 H 0.26592 0.05271 0.53435 0.0
H1217 H 0.24048 0.04702 0.51735 0.0
H1218 H 0.35476 0.35195 0.5031 0.0
H1219 H 0.33106 0.3453 0.48558 0.0
H1220 H 0.35076 0.34088 0.5276 0.0
H1221 H 0.34748 0.26609 0.54166 0.0
C1222 C 0.27943 0.44518 0.2711 0.0
C1223 C 0.2487 0.46517 0.2791 0.0
C1224 C 0.23097 0.54377 0.25583 0.0
C1225 C 0.26048 0.51951 0.24739 0.0
N1226 N 0.31096 0.43961 0.24604 0.0
N1227 N 0.19246 0.52088 0.27822 0.0
C1228 C 0.28413 0.46775 0.25475 0.0
C1229 C 0.22365 0.5108 0.27117 0.0
N1230 N 0.30473 0.40752 0.27935 0.0
N1231 N 0.21025 0.59938 0.2493 0.0
H1232 H 0.18633 0.49636 0.28934 0.0
H1233 H 0.17177 0.54698 0.27249 0.0
H1234 H 0.21488 0.62445 0.23808 0.0
H1235 H 0.19021 0.6253 0.25548 0.0
H1236 H 0.32936 0.39987 0.2749 0.0
H1237 H 0.30165 0.38757 0.29111 0.0
H1238 H 0.32663 0.39455 0.24998 0.0
H1239 H 0.31656 0.4587 0.23443 0.0
C1240 C 1.01116 0.90168 0.50654 0.0
C1241 C 0.0375 0.93625 0.49724 0.0
C1242 C 0.05205 0.02252 0.51988 0.0
C1243 C 0.02342 -0.0067 0.52848 0.0
N1244 N 0.97259 0.91401 0.52919 0.0
N1245 N 0.08204 0.03296 0.49446 0.0
C1246 C 1.00213 0.93526 0.52156 0.0
C1247 C 0.05766 -0.00224 0.50376 0.0
N1248 N 0.99504 0.8361 0.50112 0.0
N1249 N 0.07459 0.07166 0.52734 0.0
H1250 H 0.08888 0.01225 0.48315 0.0
H1251 H 0.09452 0.08434 0.49763 0.0
H1252 H 0.0706 0.09317 0.53888 0.0
H1253 H 0.09817 0.08756 0.52251 0.0
H1254 H 0.97806 0.80347 0.50806 0.0
H1255 H 1.00084 0.81043 0.49014 0.0
H1256 H 0.95405 0.87814 0.52406 0.0
H1257 H 0.9651 0.93836 0.54009 0.0
C1258 C 0.03794 0.21265 0.7538 0.0
C1259 C 1.00553 0.19438 0.74682 0.0
C1260 C 0.97718 0.2301 0.77209 0.0
C1261 C 1.00963 0.24781 0.77912 0.0
N1262 N 0.0711 0.23863 0.77785 0.0
N1263 N 0.94407 0.20321 0.74804 0.0
C1264 C 0.04006 0.23527 0.77023 0.0
C1265 C 0.97509 0.20708 0.75568 0.0
N1266 N 0.06686 0.21063 0.7446 0.0
N1267 N 0.9482 0.2328 0.78124 0.0
H1268 H 0.9412 0.18775 0.73602 0.0
H1269 H 0.92127 0.22225 0.75309 0.0
H1270 H 0.94778 0.2532 0.79296 0.0
H1271 H 0.92475 0.20973 0.77764 0.0
H1272 H 0.09026 0.23398 0.7482 0.0
H1273 H 0.06724 0.19079 0.73282 0.0
H1274 H 0.09385 0.2197 0.77274 0.0
H1275 H 0.07405 0.25357 0.78989 0.0
C1276 C 0.02928 0.70727 0.253 0.0
C1277 C 0.99713 0.70485 0.24517 0.0
C1278 C 0.96986 0.7507 0.2698 0.0
C1279 C 1.00265 0.76453 0.27681 0.0
N1280 N 0.06416 0.76339 0.27408 0.0
N1281 N 0.93695 0.7347 0.24532 0.0
C1282 C 0.03257 0.74579 0.26803 0.0
C1283 C 0.96743 0.72971 0.25333 0.0
N1284 N 0.0562 0.66816 0.24655 0.0
N1285 N 0.94099 0.75442 0.27896 0.0
H1286 H 0.93391 0.71774 0.23339 0.0
H1287 H 0.91542 0.76136 0.25015 0.0
H1288 H 0.94147 0.76714 0.29114 0.0
H1289 H 0.91695 0.73712 0.27485 0.0
H1290 H 0.07942 0.66068 0.25251 0.0
H1291 H 0.05373 0.63538 0.23608 0.0
H1292 H 0.08658 0.75783 0.26744 0.0
H1293 H 0.06784 0.78893 0.28529 0.0
C1294 C 0.9934 0.39473 1.00506 0.0
C1295 C 0.01858 0.43974 0.9969 0.0
C1296 C 0.01952 0.53233 0.0194 0.0
C1297 C 0.9987 0.48104 0.02843 0.0
N1298 N 0.96686 0.36093 0.03045 0.0
N1299 N 0.05879 0.54725 0.99726 0.0
C1300 C 0.986 0.41138 0.02143 0.0
C1301 C 0.03234 0.50773 1.00431 0.0
N1302 N 0.97498 0.33943 0.99699 0.0
N1303 N 0.02704 0.60474 0.02519 0.0
H1304 H 0.06918 0.53151 0.98628 0.0
H1305 H 0.07254 0.5913 1.00296 0.0
H1306 H 0.01839 0.62449 0.03628 0.0
H1307 H 0.03912 0.64783 0.01841 0.0
H1308 H 0.95383 0.31097 1.00187 0.0
H1309 H 0.97853 0.3271 0.98487 0.0
H1310 H 0.96063 0.30477 0.02674 0.0
H1311 H 0.95854 0.37406 0.04203 0.0
C1312 C 0.6412 0.96503 0.07084 0.0
C1313 C 0.62201 0.97211 0.0852 0.0
C1314 C 0.67116 0.03589 0.09824 0.0
C1315 C 0.68858 0.03845 0.08327 0.0
N1316 N 0.68905 0.01152 0.05485 0.0
N1317 N 0.61732 0.0185 0.11235 0.0
C1318 C 0.67354 0.00354 0.06947 0.0
C1319 C 0.63673 0.00818 0.09889 0.0
N1320 N 0.62822 0.92197 0.05845 0.0
N1321 N 0.68789 0.05822 0.11192 0.0
H1322 H 0.59266 -0.00433 0.11352 0.0
H1323 H 0.62483 0.05313 0.12198 0.0
H1324 H 0.71324 0.07752 0.11193 0.0
H1325 H 0.67788 0.05097 0.1234 0.0
H1326 H 0.64206 0.90806 0.0482 0.0
H1327 H 0.60443 0.8943 0.05904 0.0
H1328 H 0.67762 -0.00448 0.04405 0.0
H1329 H 0.71248 0.03974 0.0533 0.0
C1330 C 0.61972 0.13945 0.18676 0.0
C1331 C 0.60992 0.19964 0.19752 0.0
C1332 C 0.66305 0.17995 0.21257 0.0
C1333 C 0.67405 0.12472 0.20089 0.0
N1334 N 0.66712 0.07609 0.17385 0.0
N1335 N 0.62534 0.28691 0.21901 0.0
C1336 C 0.65371 0.11163 0.18706 0.0
C1337 C 0.63279 0.22371 0.20976 0.0
N1338 N 0.59652 0.10631 0.17654 0.0
N1339 N 0.68013 0.18789 0.22682 0.0
H1340 H 0.60268 0.31816 0.21796 0.0
H1341 H 0.64289 0.31226 0.22687 0.0
H1342 H 0.70213 0.15738 0.22979 0.0
H1343 H 0.67065 0.21966 0.23646 0.0
H1344 H 0.602 0.05717 0.16971 0.0
H1345 H 0.57098 0.12227 0.17604 0.0
H1346 H 0.65396 0.07207 0.16298 0.0
H1347 H 0.69269 0.05968 0.17302 0.0
C1348 C 0.4089 0.91461 0.93257 0.0
C1349 C 0.42904 0.90989 0.94672 0.0
C1350 C 0.38943 0.81113 0.95767 0.0
C1351 C 0.36823 0.81927 0.94391 0.0
N1352 N 0.35341 0.89463 0.92034 0.0
N1353 N 0.43412 0.86789 0.97426 0.0
C1354 C 0.37657 0.87603 0.93202 0.0
C1355 C 0.41802 0.86206 0.95971 0.0
N1356 N 0.42126 0.95242 0.91932 0.0
N1357 N 0.38213 0.75526 0.96889 0.0
H1358 H 0.45413 0.90698 0.97635 0.0
H1359 H 0.42551 0.84035 0.98465 0.0
H1360 H 0.36045 0.7198 0.96834 0.0
H1361 H 0.39872 0.74048 0.9782 0.0
H1362 H 0.40949 0.94956 0.9081 0.0
H1363 H 0.44479 0.98119 0.91913 0.0
H1364 H 0.35677 0.94097 0.91239 0.0
H1365 H 0.32933 0.86894 0.91958 0.0
C1366 C 0.39243 0.84905 0.8462 0.0
C1367 C 0.40765 0.82959 0.83126 0.0
C1368 C 0.36354 0.90488 0.81706 0.0
C1369 C 0.3463 0.91719 0.83181 0.0
N1370 N 0.3423 0.89627 0.86034 0.0
N1371 N 0.40633 0.83211 0.80234 0.0
C1372 C 0.36033 0.88848 0.8464 0.0
C1373 C 0.39289 0.85602 0.81664 0.0
N1374 N 0.40912 0.83158 0.86019 0.0
N1375 N 0.35195 0.94116 0.80347 0.0
H1376 H 0.42765 0.79599 0.8016 0.0
H1377 H 0.39494 0.84254 0.79124 0.0
H1378 H 0.33075 0.97787 0.80348 0.0
H1379 H 0.36484 0.94077 0.79255 0.0
H1380 H 0.40149 0.85163 0.87141 0.0
H1381 H 0.43214 0.80113 0.86051 0.0
H1382 H 0.34917 0.86976 0.87111 0.0
H1383 H 0.31927 0.92652 0.86098 0.0
C1384 C 0.6591 0.71607 0.56754 0.0
C1385 C 0.67805 0.69588 0.58152 0.0
C1386 C 0.62936 0.61721 0.59111 0.0
C1387 C 0.61234 0.62943 0.57629 0.0
N1388 N 0.61279 0.68157 0.54938 0.0
N1389 N 0.68303 0.61598 0.60542 0.0
C1390 C 0.62757 0.67703 0.56426 0.0
C1391 C 0.66368 0.64323 0.59296 0.0
N1392 N 0.67142 0.77132 0.55719 0.0
N1393 N 0.61233 0.58368 0.6037 0.0
H1394 H 0.708 0.63417 0.60756 0.0
H1395 H 0.67522 0.57056 0.6129 0.0
H1396 H 0.58701 0.56467 0.60297 0.0
H1397 H 0.62217 0.58176 0.61534 0.0
H1398 H 0.65707 0.7947 0.54781 0.0
H1399 H 0.69519 0.79812 0.55855 0.0
H1400 H 0.62439 0.70818 0.53954 0.0
H1401 H 0.59022 0.6523 0.54641 0.0
C1402 C 0.64144 0.68229 0.70858 0.0
C1403 C 0.61996 0.67203 0.69501 0.0
C1404 C 0.66212 0.58285 0.68336 0.0
C1405 C 0.68158 0.5859 0.69771 0.0
N1406 N 0.68479 0.62414 0.72556 0.0
N1407 N 0.60572 0.59233 0.67191 0.0
C1408 C 0.66993 0.63197 0.71077 0.0
C1409 C 0.62901 0.61637 0.6831 0.0
N1410 N 0.63422 0.73845 0.71963 0.0
N1411 N 0.67547 0.55089 0.66976 0.0
H1412 H 0.58045 0.61071 0.6718 0.0
H1413 H 0.61043 0.54692 0.66395 0.0
H1414 H 0.70008 0.52804 0.66918 0.0
H1415 H 0.66336 0.55471 0.65861 0.0
H1416 H 0.65093 0.7536 0.72888 0.0
H1417 H 0.61282 0.77424 0.71882 0.0
H1418 H 0.67545 0.6508 0.73586 0.0
H1419 H 0.704 0.58376 0.72792 0.0
C1420 C 0.43003 0.34577 0.42744 0.0
C1421 C 0.44835 0.34287 0.4422 0.0
C1422 C 0.40182 0.2651 0.45417 0.0
C1423 C 0.38202 0.27568 0.44003 0.0
N1424 N 0.37544 0.3319 0.4137 0.0
N1425 N 0.45022 0.3076 0.47026 0.0
C1426 C 0.39569 0.3174 0.42677 0.0
C1427 C 0.434 0.30391 0.45571 0.0
N1428 N 0.4459 0.37322 0.41393 0.0
N1429 N 0.38976 0.21776 0.46614 0.0
H1430 H 0.47367 0.33559 0.47194 0.0
H1431 H 0.43929 0.28858 0.48097 0.0
H1432 H 0.36612 0.1895 0.46548 0.0
H1433 H 0.40421 0.20115 0.47607 0.0
H1434 H 0.43525 0.36995 0.40249 0.0
H1435 H 0.47114 0.39324 0.41393 0.0
H1436 H 0.38227 0.36992 0.40447 0.0
H1437 H 0.35075 0.30924 0.41253 0.0
C1438 C 0.40799 0.45563 0.31679 0.0
C1439 C 0.41994 0.40901 0.32987 0.0
C1440 C 0.36423 0.42199 0.3428 0.0
C1441 C 0.35343 0.47558 0.33071 0.0
N1442 N 0.36755 0.55236 0.30733 0.0
N1443 N 0.41252 0.37289 0.35772 0.0
C1444 C 0.37633 0.4961 0.3182 0.0
C1445 C 0.39904 0.39981 0.34361 0.0
N1446 N 0.42548 0.45758 0.30259 0.0
N1447 N 0.34133 0.38908 0.35318 0.0
H1448 H 0.43845 0.36091 0.35923 0.0
H1449 H 0.39873 0.37203 0.36843 0.0
H1450 H 0.3152 0.39928 0.35269 0.0
H1451 H 0.34792 0.34459 0.36113 0.0
H1452 H 0.41585 0.48313 0.29218 0.0
H1453 H 0.44799 0.42722 0.30059 0.0
H1454 H 0.38475 0.57569 0.29906 0.0
H1455 H 0.34395 0.58029 0.3074 0.0
C1456 C 0.13433 0.10971 0.59071 0.0
C1457 C 0.12627 0.04948 0.57958 0.0
C1458 C 0.17867 0.08167 0.56467 0.0
C1459 C 0.1888 0.13361 0.57708 0.0
N1460 N 0.1793 0.183 0.60381 0.0
N1461 N 0.14236 0.97412 0.55639 0.0
C1462 C 0.16751 0.14374 0.59064 0.0
C1463 C 0.14915 0.03365 0.56678 0.0
N1464 N 0.11009 0.1369 0.60103 0.0
N1465 N 0.19613 0.08159 0.55047 0.0
H1466 H 0.12007 0.94068 0.55688 0.0
H1467 H 0.15992 0.95443 0.54796 0.0
H1468 H 0.21662 0.11908 0.5482 0.0
H1469 H 0.18815 0.05084 0.54037 0.0
H1470 H 0.11389 0.18569 0.60823 0.0
H1471 H 0.08501 0.1167 0.60115 0.0
H1472 H 0.16607 0.18448 0.61465 0.0
H1473 H 0.20375 0.20728 0.60449 0.0
C1474 C 0.16219 0.09552 0.68113 0.0
C1475 C 0.17106 0.0359 0.6923 0.0
C1476 C 0.11592 0.05335 0.70574 0.0
C1477 C 0.10615 0.10866 0.69376 0.0
N1478 N 0.11615 0.16028 0.66717 0.0
N1479 N 0.15387 0.94864 0.71359 0.0
C1480 C 0.12812 0.1232 0.68059 0.0
C1481 C 0.14694 0.01115 0.70394 0.0
N1482 N 0.18633 0.12802 0.67132 0.0
N1483 N 0.09686 0.04413 0.71937 0.0
H1484 H 0.177 0.91884 0.71335 0.0
H1485 H 0.1356 0.92233 0.72093 0.0
H1486 H 0.07415 0.07334 0.72153 0.0
H1487 H 0.10513 0.01245 0.72932 0.0
H1488 H 0.18167 0.17711 0.66428 0.0
H1489 H 0.21181 0.11118 0.6713 0.0
H1490 H 0.13036 0.16532 0.65663 0.0
H1491 H 0.09076 0.17748 0.66583 0.0
C1492 C 0.92142 0.85825 0.46163 0.0
C1493 C 0.93022 0.90177 0.44771 0.0
C1494 C 0.87876 0.85069 0.43431 0.0
C1495 C 0.87316 0.79841 0.44737 0.0
N1496 N 0.89262 0.74479 0.47253 0.0
N1497 N 0.91963 0.93116 0.41982 0.0
C1498 C 0.89556 0.79992 0.46075 0.0
C1499 C 0.90942 0.89622 0.43378 0.0
N1500 N 0.93726 0.87443 0.47586 0.0
N1501 N 0.85463 0.85783 0.42253 0.0
H1502 H 0.94153 0.96582 0.41904 0.0
H1503 H 0.90769 0.92127 0.40881 0.0
H1504 H 0.83206 0.82543 0.42249 0.0
H1505 H 0.85572 0.90034 0.4136 0.0
H1506 H 0.92948 0.85045 0.48678 0.0
H1507 H 0.95559 0.9185 0.47697 0.0
H1508 H 0.91036 0.73862 0.4818 0.0
H1509 H 0.87419 0.70074 0.47222 0.0
C1510 C 0.8958 0.89462 0.32333 0.0
C1511 C 0.90528 0.8322 0.33382 0.0
C1512 C 0.85375 0.85756 0.34993 0.0
C1513 C 0.84555 0.92157 0.33983 0.0
N1514 N 0.86275 0.01206 0.31925 0.0
N1515 N 0.89674 0.76702 0.35933 0.0
C1516 C 0.868 0.94383 0.32736 0.0
C1517 C 0.88515 0.81689 0.34773 0.0
N1518 N 0.91215 0.9049 0.30897 0.0
N1519 N 0.83134 0.8354 0.36166 0.0
H1520 H 0.9197 0.73694 0.35853 0.0
H1521 H 0.88522 0.76076 0.37053 0.0
H1522 H 0.80971 0.86778 0.36457 0.0
H1523 H 0.83338 0.78326 0.36795 0.0
H1524 H 0.90342 0.94225 0.3 0.0
H1525 H 0.93258 0.87129 0.30524 0.0
H1526 H 0.88047 0.0361 0.31132 0.0
H1527 H 0.84207 0.04849 0.32148 0.0
C1528 C 0.15751 0.6009 0.09123 0.0
C1529 C 0.16238 0.66088 0.07953 0.0
C1530 C 0.10918 0.6193 0.06628 0.0
C1531 C 0.10277 0.56487 0.07888 0.0
N1532 N 0.11759 0.51742 0.10532 0.0
N1533 N 0.1399 0.73453 0.05726 0.0
C1534 C 0.12593 0.55977 0.09195 0.0
C1535 C 0.137 0.67306 0.06762 0.0
N1536 N 0.18353 0.58024 0.10133 0.0
N1537 N 0.09023 0.61591 0.05249 0.0
H1538 H 0.16047 0.77332 0.05753 0.0
H1539 H 0.12051 0.75086 0.04936 0.0
H1540 H 0.07138 0.57383 0.05059 0.0
H1541 H 0.09572 0.64869 0.04227 0.0
H1542 H 0.18273 0.53091 0.10863 0.0
H1543 H 0.20716 0.60788 0.10143 0.0
H1544 H 0.13165 0.51989 0.11595 0.0
H1545 H 0.09499 0.48555 0.10641 0.0
C1546 C 0.114 0.61623 0.17728 0.0
C1547 C 0.10008 0.64655 0.19169 0.0
C1548 C 0.14445 0.58076 0.20736 0.0
C1549 C 0.15952 0.55291 0.19304 0.0
N1550 N 0.16205 0.55297 0.16415 0.0
N1551 N 0.10866 0.67885 0.21941 0.0
C1552 C 0.14519 0.57295 0.17788 0.0
C1553 C 0.11719 0.63476 0.20644 0.0
N1554 N 0.09742 0.62906 0.16308 0.0
N1555 N 0.15586 0.55441 0.2219 0.0
H1556 H 0.08973 0.72143 0.21884 0.0
H1557 H 0.12281 0.67918 0.23003 0.0
H1558 H 0.17549 0.51374 0.22297 0.0
H1559 H 0.14365 0.56701 0.23269 0.0
H1560 H 0.10433 0.60335 0.15228 0.0
H1561 H 0.07564 0.66374 0.16223 0.0
H1562 H 0.1553 0.5727 0.15275 0.0
H1563 H 0.18418 0.51927 0.16423 0.0
C1564 C 0.87551 0.43437 0.96287 0.0
C1565 C 0.8615 0.38135 0.95142 0.0
C1566 C 0.90987 0.41072 0.93345 0.0
C1567 C 0.92619 0.45284 0.94586 0.0
N1568 N 0.92635 0.49901 0.97311 0.0
N1569 N 0.86726 0.31474 0.926 0.0
C1570 C 0.90937 0.46369 0.96073 0.0
C1571 C 0.87924 0.36828 0.93675 0.0
N1572 N 0.85662 0.45734 0.97578 0.0
N1573 N 0.92337 0.41303 0.91834 0.0
H1574 H 0.84423 0.28484 0.92741 0.0
H1575 H 0.88124 0.29645 0.91607 0.0
H1576 H 0.94554 0.44466 0.91568 0.0
H1577 H 0.91091 0.39066 0.90829 0.0
H1578 H 0.86415 0.50208 0.98344 0.0
H1579 H 0.83214 0.43669 0.97816 0.0
H1580 H 0.91747 0.49885 0.9849 0.0
H1581 H 0.95047 0.52449 0.97178 0.0
C1582 C 0.89254 0.34479 0.84855 0.0
C1583 C 0.91047 0.34276 0.83368 0.0
C1584 C 0.86868 0.43437 0.82207 0.0
C1585 C 0.85156 0.43766 0.837 0.0
N1586 N 0.85102 0.4115 0.86527 0.0
N1587 N 0.91933 0.39957 0.80726 0.0
C1588 C 0.86478 0.39759 0.8505 0.0
C1589 C 0.8998 0.39219 0.82078 0.0
N1590 N 0.90173 0.29604 0.8608 0.0
N1591 N 0.85426 0.46861 0.80885 0.0
H1592 H 0.9413 0.3675 0.80514 0.0
H1593 H 0.91508 0.44191 0.79851 0.0
H1594 H 0.83262 0.5038 0.80951 0.0
H1595 H 0.86249 0.45864 0.79715 0.0
H1596 H 0.88722 0.28828 0.87116 0.0
H1597 H 0.92297 0.2598 0.86036 0.0
H1598 H 0.8615 0.3909 0.87596 0.0
H1599 H 0.83081 0.45021 0.8669 0.0
loop_
_geom_bond_atom_site_label_1
_geom_bond_atom_site_label_2
_geom_bond_distance
_geom_bond_site_symmetry_2
_ccdc_geom_bond_type
C0 O2 1.247 . S
C0 O4 1.265 . S
C1 O8 1.247 . S
C1 O9 1.258 1_565 S
O2 C0 1.247 . S
O2 Zn3 2.028 . S
Zn3 O2 2.028 . S
Zn3 O7 2.035 . S
Zn3 O9 2.035 . S
Zn3 O10 2.028 . S
O4 C0 1.265 . S
O4 Zn5 2.031 1_545 S
Zn5 O4 2.031 1_565 S
Zn5 O6 2.028 . S
Zn5 O8 2.028 . S
Zn5 O11 2.035 . S
O6 Zn5 2.028 . S
O6 C12 1.247 . S
O7 Zn3 2.035 . S
O7 C12 1.258 1_545 S
O8 C1 1.247 . S
O8 Zn5 2.028 . S
O9 C1 1.258 1_545 S
O9 Zn3 2.035 . S
O10 Zn3 2.028 . S
O10 C13 1.247 . S
O11 Zn5 2.035 . S
O11 C13 1.258 1_565 S
C12 O6 1.247 . S
C12 O7 1.258 1_565 S
C13 O10 1.247 . S
C13 O11 1.258 1_545 S
C14 O16 1.247 . S
C14 O18 1.258 . S
C15 O22 1.247 . S
C15 O23 1.258 . S
O16 C14 1.247 . S
O16 Zn17 2.028 . S
Zn17 O16 2.028 . S
Zn17 O21 2.035 . S
Zn17 O23 2.035 . S
Zn17 O24 2.028 . S
O18 C14 1.258 . S
O18 Zn19 2.035 . S
Zn19 O18 2.035 . S
Zn19 O20 2.028 . S
Zn19 O22 2.028 . S
Zn19 O25 2.035 . S
O20 Zn19 2.028 . S
O20 C26 1.247 . S
O21 Zn17 2.035 . S
O21 C26 1.258 . S
O22 C15 1.247 . S
O22 Zn19 2.028 . S
O23 C15 1.258 . S
O23 Zn17 2.035 . S
O24 Zn17 2.028 . S
O24 C27 1.247 . S
O25 Zn19 2.035 . S
O25 C27 1.258 . S
C26 O20 1.247 . S
C26 O21 1.258 . S
C27 O24 1.247 . S
C27 O25 1.258 . S
C28 O30 1.247 . S
C28 O32 1.258 . S
C29 O36 1.247 . S
C29 O37 1.258 . S
O30 C28 1.247 . S
O30 Zn31 2.028 . S
Zn31 O30 2.028 . S
Zn31 O35 2.035 . S
Zn31 O37 2.035 . S
Zn31 O38 2.028 . S
O32 C28 1.258 . S
O32 Zn33 2.035 . S
Zn33 O32 2.035 . S
Zn33 O34 2.028 . S
Zn33 O36 2.028 . S
Zn33 O39 2.035 . S
O34 Zn33 2.028 . S
O34 C40 1.247 . S
O35 Zn31 2.035 . S
O35 C40 1.258 . S
O36 C29 1.247 . S
O36 Zn33 2.028 . S
O37 C29 1.258 . S
O37 Zn31 2.035 . S
O38 Zn31 2.028 . S
O38 C41 1.247 . S
O39 Zn33 2.035 . S
O39 C41 1.258 . S
C40 O34 1.247 . S
C40 O35 1.258 . S
C41 O38 1.247 . S
C41 O39 1.258 . S
C42 O44 1.247 . S
C42 O46 1.258 . S
C43 O50 1.247 . S
C43 O51 1.258 1_565 S
O44 C42 1.247 . S
O44 Zn45 2.028 . S
Zn45 O44 2.028 . S
Zn45 O49 2.035 . S
Zn45 O51 2.035 . S
Zn45 O52 2.028 . S
O46 C42 1.258 . S
O46 Zn47 2.035 1_545 S
Zn47 O46 2.035 1_565 S
Zn47 O48 2.028 . S
Zn47 O50 2.028 . S
Zn47 O53 2.035 . S
O48 Zn47 2.028 . S
O48 C54 1.247 . S
O49 Zn45 2.035 . S
O49 C54 1.258 1_545 S
O50 C43 1.247 . S
O50 Zn47 2.028 . S
O51 C43 1.258 1_545 S
O51 Zn45 2.035 . S
O52 Zn45 2.028 . S
O52 C55 1.247 . S
O53 Zn47 2.035 . S
O53 C55 1.258 1_565 S
C54 O48 1.247 . S
C54 O49 1.258 1_565 S
C55 O52 1.247 . S
C55 O53 1.258 1_545 S
C56 O58 1.247 1_545 S
C56 O60 1.258 . S
C57 O64 1.247 1_565 S
C57 O65 1.258 . S
O58 C56 1.247 1_565 S
O58 Zn59 2.028 . S
Zn59 O58 2.028 . S
Zn59 O63 2.035 . S
Zn59 O65 2.035 . S
Zn59 O66 2.028 . S
O60 C56 1.258 . S
O60 Zn61 2.035 . S
Zn61 O60 2.035 . S
Zn61 O62 2.025 1_545 S
Zn61 O64 2.028 . S
Zn61 O67 2.035 . S
O62 Zn61 2.025 1_565 S
O62 C68 1.252 . S
O63 Zn59 2.035 . S
O63 C68 1.258 . S
O64 C57 1.247 1_545 S
O64 Zn61 2.028 . S
O65 C57 1.258 . S
O65 Zn59 2.035 . S
O66 Zn59 2.028 . S
O66 C69 1.247 1_565 S
O67 Zn61 2.035 . S
O67 C69 1.258 . S
C68 O62 1.252 . S
C68 O63 1.258 . S
C69 O66 1.247 1_545 S
C69 O67 1.258 . S
C70 O72 1.247 . S
C70 O74 1.258 . S
C71 O78 1.247 . S
C71 O79 1.258 . S
O72 C70 1.247 . S
O72 Zn73 2.028 . S
Zn73 O72 2.028 . S
Zn73 O77 2.035 . S
Zn73 O79 2.035 . S
Zn73 O80 2.028 . S
O74 C70 1.258 . S
O74 Zn75 2.035 . S
Zn75 O74 2.035 . S
Zn75 O76 2.028 . S
Zn75 O78 2.028 . S
Zn75 O81 2.035 . S
O76 Zn75 2.028 . S
O76 C82 1.247 . S
O77 Zn73 2.035 . S
O77 C82 1.258 . S
O78 C71 1.247 . S
O78 Zn75 2.028 . S
O79 C71 1.258 . S
O79 Zn73 2.035 . S
O80 Zn73 2.028 . S
O80 C83 1.247 . S
O81 Zn75 2.035 . S
O81 C83 1.258 . S
C82 O76 1.247 . S
C82 O77 1.258 . S
C83 O80 1.247 . S
C83 O81 1.258 . S
C84 O86 1.247 . S
C84 O88 1.258 . S
C85 O92 1.247 . S
C85 O93 1.258 . S
O86 C84 1.247 . S
O86 Zn87 2.028 . S
Zn87 O86 2.028 . S
Zn87 O91 2.035 . S
Zn87 O93 2.035 . S
Zn87 O94 2.028 . S
O88 C84 1.258 . S
O88 Zn89 2.035 . S
Zn89 O88 2.035 . S
Zn89 O90 2.028 . S
Zn89 O92 2.028 . S
Zn89 O95 2.035 . S
O90 Zn89 2.028 . S
O90 C96 1.247 . S
O91 Zn87 2.035 . S
O91 C96 1.258 . S
O92 C85 1.247 . S
O92 Zn89 2.028 . S
O93 C85 1.258 . S
O93 Zn87 2.035 . S
O94 Zn87 2.028 . S
O94 C97 1.247 . S
O95 Zn89 2.035 . S
O95 C97 1.258 . S
C96 O90 1.247 . S
C96 O91 1.258 . S
C97 O94 1.247 . S
C97 O95 1.258 . S
C98 O100 1.247 . S
C98 O102 1.258 1_565 S
C99 O106 1.247 . S
C99 O107 1.258 1_545 S
O100 C98 1.247 . S
O100 Zn101 2.028 . S
Zn101 O100 2.028 . S
Zn101 O105 2.035 . S
Zn101 O107 2.035 . S
Zn101 O108 2.028 . S
O102 C98 1.258 1_545 S
O102 Zn103 2.035 . S
Zn103 O102 2.035 . S
Zn103 O104 2.028 . S
Zn103 O106 2.028 . S
Zn103 O109 2.035 1_545 S
O104 Zn103 2.028 . S
O104 C110 1.247 . S
O105 Zn101 2.035 . S
O105 C110 1.258 1_565 S
O106 C99 1.247 . S
O106 Zn103 2.028 . S
O107 C99 1.258 1_565 S
O107 Zn101 2.035 . S
O108 Zn101 2.028 . S
O108 C111 1.247 . S
O109 Zn103 2.035 1_565 S
O109 C111 1.258 . S
C110 O104 1.247 . S
C110 O105 1.258 1_545 S
C111 O108 1.247 . S
C111 O109 1.258 . S
C112 O114 1.247 . S
C112 O116 1.258 . S
C113 O120 1.247 . S
C113 O121 1.258 . S
O114 C112 1.247 . S
O114 Zn115 2.028 . S
Zn115 O114 2.028 . S
Zn115 O119 2.035 . S
Zn115 O121 2.035 . S
Zn115 O122 2.028 . S
O116 C112 1.258 . S
O116 Zn117 2.035 . S
Zn117 O116 2.035 . S
Zn117 O118 2.028 . S
Zn117 O120 2.028 . S
Zn117 O123 2.035 . S
O118 Zn117 2.028 . S
O118 C124 1.247 . S
O119 Zn115 2.035 . S
O119 C124 1.258 . S
O120 C113 1.247 . S
O120 Zn117 2.028 . S
O121 C113 1.258 . S
O121 Zn115 2.035 . S
O122 Zn115 2.028 . S
O122 C125 1.247 . S
O123 Zn117 2.035 . S
O123 C125 1.258 . S
C124 O118 1.247 . S
C124 O119 1.258 . S
C125 O122 1.247 . S
C125 O123 1.258 . S
C126 O128 1.247 . S
C126 O130 1.258 . S
C127 O134 1.247 . S
C127 O135 1.258 . S
O128 C126 1.247 . S
O128 Zn129 2.028 . S
Zn129 O128 2.028 . S
Zn129 O133 2.035 . S
Zn129 O135 2.035 . S
Zn129 O136 2.028 . S
O130 C126 1.258 . S
O130 Zn131 2.035 . S
Zn131 O130 2.035 . S
Zn131 O132 2.028 . S
Zn131 O134 2.028 . S
Zn131 O137 2.035 . S
O132 Zn131 2.028 . S
O132 C138 1.247 . S
O133 Zn129 2.035 . S
O133 C138 1.258 . S
O134 C127 1.247 . S
O134 Zn131 2.028 . S
O135 C127 1.258 . S
O135 Zn129 2.035 . S
O136 Zn129 2.028 . S
O136 C139 1.247 . S
O137 Zn131 2.035 . S
O137 C139 1.258 . S
C138 O132 1.247 . S
C138 O133 1.258 . S
C139 O136 1.247 . S
C139 O137 1.258 . S
C140 O142 1.247 . S
C140 O144 1.258 . S
C141 O148 1.247 . S
C141 O149 1.258 . S
O142 C140 1.247 . S
O142 Zn143 2.028 . S
Zn143 O142 2.028 . S
Zn143 O147 2.035 . S
Zn143 O149 2.035 . S
Zn143 O150 2.028 . S
O144 C140 1.258 . S
O144 Zn145 2.035 . S
Zn145 O144 2.035 . S
Zn145 O146 2.028 . S
Zn145 O148 2.028 . S
Zn145 O151 2.035 . S
O146 Zn145 2.028 . S
O146 C152 1.247 . S
O147 Zn143 2.035 . S
O147 C152 1.258 . S
O148 C141 1.247 . S
O148 Zn145 2.028 . S
O149 C141 1.258 . S
O149 Zn143 2.035 . S
O150 Zn143 2.028 . S
O150 C153 1.247 . S
O151 Zn145 2.035 . S
O151 C153 1.258 . S
C152 O146 1.247 . S
C152 O147 1.258 . S
C153 O150 1.247 . S
C153 O151 1.258 . S
C154 O156 1.247 . S
C154 O158 1.258 . S
C155 O162 1.247 . S
C155 O163 1.258 . S
O156 C154 1.247 . S
O156 Zn157 2.028 . S
Zn157 O156 2.028 . S
Zn157 O161 2.035 . S
Zn157 O163 2.035 . S
Zn157 O164 2.028 . S
O158 C154 1.258 . S
O158 Zn159 2.035 . S
Zn159 O158 2.035 . S
Zn159 O160 2.028 . S
Zn159 O162 2.028 . S
Zn159 O165 2.035 . S
O160 Zn159 2.028 . S
O160 C166 1.247 . S
O161 Zn157 2.035 . S
O161 C166 1.258 . S
O162 C155 1.247 . S
O162 Zn159 2.028 . S
O163 C155 1.258 . S
O163 Zn157 2.035 . S
O164 Zn157 2.028 . S
O164 C167 1.247 . S
O165 Zn159 2.035 . S
O165 C167 1.258 . S
C166 O160 1.247 . S
C166 O161 1.258 . S
C167 O164 1.247 . S
C167 O165 1.258 . S
C168 O170 1.247 . S
C168 O172 1.258 . S
C169 O176 1.247 . S
C169 O177 1.258 . S
O170 C168 1.247 . S
O170 Zn171 2.028 . S
Zn171 O170 2.028 . S
Zn171 O175 2.035 . S
Zn171 O177 2.035 . S
Zn171 O178 2.028 . S
O172 C168 1.258 . S
O172 Zn173 2.035 . S
Zn173 O172 2.035 . S
Zn173 O174 2.028 . S
Zn173 O176 2.028 . S
Zn173 O179 2.035 . S
O174 Zn173 2.028 . S
O174 C180 1.247 . S
O175 Zn171 2.035 . S
O175 C180 1.258 . S
O176 C169 1.247 . S
O176 Zn173 2.028 . S
O177 C169 1.258 . S
O177 Zn171 2.035 . S
O178 Zn171 2.028 . S
O178 C181 1.247 . S
O179 Zn173 2.035 . S
O179 C181 1.258 . S
C180 O174 1.247 . S
C180 O175 1.258 . S
C181 O178 1.247 . S
C181 O179 1.258 . S
C182 O184 1.247 . S
C182 O186 1.258 . S
C183 O190 1.247 . S
C183 O191 1.258 . S
O184 C182 1.247 . S
O184 Zn185 2.028 . S
Zn185 O184 2.028 . S
Zn185 O189 2.035 . S
Zn185 O191 2.035 . S
Zn185 O192 2.028 . S
O186 C182 1.258 . S
O186 Zn187 2.035 . S
Zn187 O186 2.035 . S
Zn187 O188 2.028 . S
Zn187 O190 2.028 . S
Zn187 O193 2.035 . S
O188 Zn187 2.028 . S
O188 C194 1.247 . S
O189 Zn185 2.035 . S
O189 C194 1.258 . S
O190 C183 1.247 . S
O190 Zn187 2.028 . S
O191 C183 1.258 . S
O191 Zn185 2.035 . S
O192 Zn185 2.028 . S
O192 C195 1.247 . S
O193 Zn187 2.035 . S
O193 C195 1.258 . S
C194 O188 1.247 . S
C194 O189 1.258 . S
C195 O192 1.247 . S
C195 O193 1.258 . S
C196 O198 1.247 . S
C196 O200 1.258 . S
C197 O204 1.247 . S
C197 O205 1.258 . S
O198 C196 1.247 . S
O198 Zn199 2.028 . S
Zn199 O198 2.028 . S
Zn199 O203 2.035 . S
Zn199 O205 2.035 . S
Zn199 O206 2.028 . S
O200 C196 1.258 . S
O200 Zn201 2.035 . S
Zn201 O200 2.035 . S
Zn201 O202 2.028 . S
Zn201 O204 2.028 . S
Zn201 O207 2.035 . S
O202 Zn201 2.028 . S
O202 C208 1.247 . S
O203 Zn199 2.035 . S
O203 C208 1.258 . S
O204 C197 1.247 . S
O204 Zn201 2.028 . S
O205 C197 1.258 . S
O205 Zn199 2.035 . S
O206 Zn199 2.028 . S
O206 C209 1.247 . S
O207 Zn201 2.035 . S
O207 C209 1.258 . S
C208 O202 1.247 . S
C208 O203 1.258 . S
C209 O206 1.247 . S
C209 O207 1.258 . S
C210 O212 1.247 . S
C210 O214 1.258 . S
C211 O218 1.247 . S
C211 O219 1.258 . S
O212 C210 1.247 . S
O212 Zn213 2.028 . S
Zn213 O212 2.028 . S
Zn213 O217 2.035 . S
Zn213 O219 2.035 . S
Zn213 O220 2.028 . S
O214 C210 1.258 . S
O214 Zn215 2.035 . S
Zn215 O214 2.035 . S
Zn215 O216 2.028 . S
Zn215 O218 2.028 . S
Zn215 O221 2.035 . S
O216 Zn215 2.028 . S
O216 C222 1.247 . S
O217 Zn213 2.035 . S
O217 C222 1.258 . S
O218 C211 1.247 . S
O218 Zn215 2.028 . S
O219 C211 1.258 . S
O219 Zn213 2.035 . S
O220 Zn213 2.028 . S
O220 C223 1.247 . S
O221 Zn215 2.035 . S
O221 C223 1.258 . S
C222 O216 1.247 . S
C222 O217 1.258 . S
C223 O220 1.247 . S
C223 O221 1.258 . S
C224 O226 1.247 1_545 S
C224 O228 1.258 1_455 S
C225 O232 1.249 1_565 S
C225 O233 1.255 1_655 S
O226 C224 1.247 1_565 S
O226 Zn227 2.028 . S
Zn227 O226 2.028 . S
Zn227 O231 2.035 1_455 S
Zn227 O233 2.035 . S
Zn227 O234 2.028 1_565 S
O228 C224 1.258 1_655 S
O228 Zn229 2.035 . S
Zn229 O228 2.035 . S
Zn229 O230 2.028 . S
Zn229 O232 2.028 . S
Zn229 O235 2.035 1_655 S
O230 Zn229 2.028 . S
O230 C236 1.247 1_545 S
O231 Zn227 2.035 1_655 S
O231 C236 1.258 . S
O232 C225 1.249 1_545 S
O232 Zn229 2.028 . S
O233 C225 1.255 1_455 S
O233 Zn227 2.035 . S
O234 Zn227 2.028 1_545 S
O234 C237 1.247 . S
O235 Zn229 2.035 1_455 S
O235 C237 1.258 . S
C236 O230 1.247 1_565 S
C236 O231 1.258 . S
C237 O234 1.247 . S
C237 O235 1.258 . S
C238 O240 1.247 . S
C238 O242 1.258 . S
C239 O246 1.247 . S
C239 O247 1.258 . S
O240 C238 1.247 . S
O240 Zn241 2.028 . S
Zn241 O240 2.028 . S
Zn241 O245 2.035 . S
Zn241 O247 2.035 . S
Zn241 O248 2.028 . S
O242 C238 1.258 . S
O242 Zn243 2.035 . S
Zn243 O242 2.035 . S
Zn243 O244 2.028 . S
Zn243 O246 2.028 . S
Zn243 O249 2.035 . S
O244 Zn243 2.028 . S
O244 C250 1.247 . S
O245 Zn241 2.035 . S
O245 C250 1.258 . S
O246 C239 1.247 . S
O246 Zn243 2.028 . S
O247 C239 1.258 . S
O247 Zn241 2.035 . S
O248 Zn241 2.028 . S
O248 C251 1.247 . S
O249 Zn243 2.035 . S
O249 C251 1.258 . S
C250 O244 1.247 . S
C250 O245 1.258 . S
C251 O248 1.247 . S
C251 O249 1.258 . S
C252 O254 1.247 . S
C252 O256 1.258 . S
C253 O260 1.247 . S
C253 O261 1.258 . S
O254 C252 1.247 . S
O254 Zn255 2.028 1_455 S
Zn255 O254 2.028 1_655 S
Zn255 O259 2.035 . S
Zn255 O261 2.035 . S
Zn255 O262 2.028 . S
O256 C252 1.258 . S
O256 Zn257 2.035 . S
Zn257 O256 2.035 . S
Zn257 O258 2.028 . S
Zn257 O260 2.028 1_455 S
Zn257 O263 2.035 . S
O258 Zn257 2.028 . S
O258 C264 1.245 1_455 S
O259 Zn255 2.035 . S
O259 C264 1.260 . S
O260 C253 1.247 . S
O260 Zn257 2.028 1_655 S
O261 C253 1.258 . S
O261 Zn255 2.035 . S
O262 Zn255 2.028 . S
O262 C265 1.248 1_655 S
O263 Zn257 2.035 . S
O263 C265 1.257 . S
C264 O258 1.245 1_655 S
C264 O259 1.260 . S
C265 O262 1.248 1_455 S
C265 O263 1.257 . S
C266 O268 1.247 . S
C266 O270 1.246 1_545 S
C267 O274 1.247 . S
C267 O275 1.258 1_565 S
O268 C266 1.247 . S
O268 Zn269 2.028 . S
Zn269 O268 2.028 . S
Zn269 O273 2.035 . S
Zn269 O275 2.035 . S
Zn269 O276 2.028 . S
O270 C266 1.246 1_565 S
O270 Zn271 2.042 . S
Zn271 O270 2.042 . S
Zn271 O272 2.028 . S
Zn271 O274 2.028 . S
Zn271 O277 2.035 . S
O272 Zn271 2.028 . S
O272 C278 1.247 . S
O273 Zn269 2.035 . S
O273 C278 1.258 1_545 S
O274 C267 1.247 . S
O274 Zn271 2.028 . S
O275 C267 1.258 1_545 S
O275 Zn269 2.035 . S
O276 Zn269 2.028 . S
O276 C279 1.247 . S
O277 Zn271 2.035 . S
O277 C279 1.258 1_565 S
C278 O272 1.247 . S
C278 O273 1.258 1_565 S
C279 O276 1.247 . S
C279 O277 1.258 1_545 S
C280 O282 1.248 1_655 S
C280 O284 1.257 1_565 S
C281 O288 1.245 1_455 S
C281 O289 1.259 1_545 S
O282 C280 1.248 1_455 S
O282 Zn283 2.028 . S
Zn283 O282 2.028 . S
Zn283 O287 2.035 . S
Zn283 O289 2.035 . S
Zn283 O290 2.028 1_455 S
O284 C280 1.257 1_545 S
O284 Zn285 2.035 . S
Zn285 O284 2.035 . S
Zn285 O286 2.028 1_655 S
Zn285 O288 2.028 . S
Zn285 O291 2.035 1_545 S
O286 Zn285 2.028 1_455 S
O286 C292 1.247 . S
O287 Zn283 2.035 . S
O287 C292 1.258 1_565 S
O288 C281 1.245 1_655 S
O288 Zn285 2.028 . S
O289 C281 1.259 1_565 S
O289 Zn283 2.035 . S
O290 Zn283 2.028 1_655 S
O290 C293 1.247 . S
O291 Zn285 2.035 1_565 S
O291 C293 1.258 . S
C292 O286 1.247 . S
C292 O287 1.258 1_545 S
C293 O290 1.247 . S
C293 O291 1.258 . S
C294 O296 1.247 . S
C294 O298 1.258 . S
C295 O302 1.247 . S
C295 O303 1.258 . S
O296 C294 1.247 . S
O296 Zn297 2.028 . S
Zn297 O296 2.028 . S
Zn297 O301 2.035 . S
Zn297 O303 2.035 . S
Zn297 O304 2.028 . S
O298 C294 1.258 . S
O298 Zn299 2.035 . S
Zn299 O298 2.035 . S
Zn299 O300 2.028 . S
Zn299 O302 2.028 . S
Zn299 O305 2.035 . S
O300 Zn299 2.028 . S
O300 C306 1.247 . S
O301 Zn297 2.035 . S
O301 C306 1.258 . S
O302 C295 1.247 . S
O302 Zn299 2.028 . S
O303 C295 1.258 . S
O303 Zn297 2.035 . S
O304 Zn297 2.028 . S
O304 C307 1.247 . S
O305 Zn299 2.035 . S
O305 C307 1.258 . S
C306 O300 1.247 . S
C306 O301 1.258 . S
C307 O304 1.247 . S
C307 O305 1.258 . S
C308 O310 1.247 . S
C308 O312 1.258 . S
C309 O316 1.247 . S
C309 O317 1.258 . S
O310 C308 1.247 . S
O310 Zn311 2.028 . S
Zn311 O310 2.028 . S
Zn311 O315 2.035 . S
Zn311 O317 2.035 1_655 S
Zn311 O318 2.028 . S
O312 C308 1.258 . S
O312 Zn313 2.035 1_655 S
Zn313 O312 2.035 1_455 S
Zn313 O314 2.028 . S
Zn313 O316 2.028 . S
Zn313 O319 2.035 . S
O314 Zn313 2.028 . S
O314 C320 1.249 . S
O315 Zn311 2.035 . S
O315 C320 1.255 1_655 S
O316 C309 1.247 . S
O316 Zn313 2.028 . S
O317 C309 1.258 . S
O317 Zn311 2.035 1_455 S
O318 Zn311 2.028 . S
O318 C321 1.247 . S
O319 Zn313 2.035 . S
O319 C321 1.258 1_455 S
C320 O314 1.249 . S
C320 O315 1.255 1_455 S
C321 O318 1.247 . S
C321 O319 1.258 1_655 S
C322 O324 1.247 . S
C322 O326 1.258 1_545 S
C323 O330 1.247 . S
C323 O331 1.244 1_565 S
O324 C322 1.247 . S
O324 Zn325 2.028 . S
Zn325 O324 2.028 . S
Zn325 O329 2.035 . S
Zn325 O331 2.043 . S
Zn325 O332 2.028 . S
O326 C322 1.258 1_565 S
O326 Zn327 2.035 . S
Zn327 O326 2.035 . S
Zn327 O328 2.028 . S
Zn327 O330 2.028 . S
Zn327 O333 2.035 . S
O328 Zn327 2.028 . S
O328 C334 1.247 . S
O329 Zn325 2.035 . S
O329 C334 1.258 1_545 S
O330 C323 1.247 . S
O330 Zn327 2.028 . S
O331 C323 1.244 1_545 S
O331 Zn325 2.043 . S
O332 Zn325 2.028 . S
O332 C335 1.247 . S
O333 Zn327 2.035 . S
O333 C335 1.258 1_565 S
C334 O328 1.247 . S
C334 O329 1.258 1_565 S
C335 O332 1.247 . S
C335 O333 1.258 1_545 S
C336 O338 1.247 . S
C336 O340 1.258 . S
C337 O344 1.247 . S
C337 O345 1.258 . S
O338 C336 1.247 . S
O338 Zn339 2.028 . S
Zn339 O338 2.028 . S
Zn339 O343 2.035 . S
Zn339 O345 2.035 1_655 S
Zn339 O346 2.028 . S
O340 C336 1.258 . S
O340 Zn341 2.035 1_655 S
Zn341 O340 2.035 1_455 S
Zn341 O342 2.028 . S
Zn341 O344 2.028 . S
Zn341 O347 2.035 . S
O342 Zn341 2.028 . S
O342 C348 1.247 . S
O343 Zn339 2.035 . S
O343 C348 1.258 1_655 S
O344 C337 1.247 . S
O344 Zn341 2.028 . S
O345 C337 1.258 . S
O345 Zn339 2.035 1_455 S
O346 Zn339 2.028 . S
O346 C349 1.249 . S
O347 Zn341 2.035 . S
O347 C349 1.255 1_455 S
C348 O342 1.247 . S
C348 O343 1.258 1_455 S
C349 O346 1.249 . S
C349 O347 1.255 1_655 S
C350 O352 1.247 . S
C350 O354 1.258 . S
C351 O358 1.247 . S
C351 O359 1.258 . S
O352 C350 1.247 . S
O352 Zn353 2.028 . S
Zn353 O352 2.028 . S
Zn353 O357 2.035 . S
Zn353 O359 2.035 . S
Zn353 O360 2.028 . S
O354 C350 1.258 . S
O354 Zn355 2.035 . S
Zn355 O354 2.035 . S
Zn355 O356 2.028 . S
Zn355 O358 2.028 . S
Zn355 O361 2.035 . S
O356 Zn355 2.028 . S
O356 C362 1.247 . S
O357 Zn353 2.035 . S
O357 C362 1.258 . S
O358 C351 1.247 . S
O358 Zn355 2.028 . S
O359 C351 1.258 . S
O359 Zn353 2.035 . S
O360 Zn353 2.028 . S
O360 C363 1.247 . S
O361 Zn355 2.035 . S
O361 C363 1.258 . S
C362 O356 1.247 . S
C362 O357 1.258 . S
C363 O360 1.247 . S
C363 O361 1.258 . S
C364 O366 1.247 . S
C364 O368 1.258 . S
C365 O372 1.247 . S
C365 O373 1.258 . S
O366 C364 1.247 . S
O366 Zn367 2.028 1_455 S
Zn367 O366 2.028 1_655 S
Zn367 O371 2.035 . S
Zn367 O373 2.035 . S
Zn367 O374 2.028 . S
O368 C364 1.258 . S
O368 Zn369 2.035 . S
Zn369 O368 2.035 . S
Zn369 O370 2.028 . S
Zn369 O372 2.028 1_455 S
Zn369 O375 2.035 . S
O370 Zn369 2.028 . S
O370 C376 1.245 1_455 S
O371 Zn367 2.035 . S
O371 C376 1.260 . S
O372 C365 1.247 . S
O372 Zn369 2.028 1_655 S
O373 C365 1.258 . S
O373 Zn367 2.035 . S
O374 Zn367 2.028 . S
O374 C377 1.248 1_655 S
O375 Zn369 2.035 . S
O375 C377 1.257 . S
C376 O370 1.245 1_655 S
C376 O371 1.260 . S
C377 O374 1.248 1_455 S
C377 O375 1.257 . S
C378 O380 1.247 . S
C378 O382 1.258 . S
C379 O386 1.247 . S
C379 O387 1.258 . S
O380 C378 1.247 . S
O380 Zn381 2.028 . S
Zn381 O380 2.028 . S
Zn381 O385 2.035 . S
Zn381 O387 2.035 . S
Zn381 O388 2.028 . S
O382 C378 1.258 . S
O382 Zn383 2.035 . S
Zn383 O382 2.035 . S
Zn383 O384 2.028 . S
Zn383 O386 2.028 . S
Zn383 O389 2.035 . S
O384 Zn383 2.028 . S
O384 C390 1.247 . S
O385 Zn381 2.035 . S
O385 C390 1.258 . S
O386 C379 1.247 . S
O386 Zn383 2.028 . S
O387 C379 1.258 . S
O387 Zn381 2.035 . S
O388 Zn381 2.028 . S
O388 C391 1.247 . S
O389 Zn383 2.035 . S
O389 C391 1.258 . S
C390 O384 1.247 . S
C390 O385 1.258 . S
C391 O388 1.247 . S
C391 O389 1.258 . S
C392 O394 1.248 1_655 S
C392 O396 1.257 . S
C393 O400 1.245 1_455 S
C393 O401 1.260 . S
O394 C392 1.248 1_455 S
O394 Zn395 2.028 . S
Zn395 O394 2.028 . S
Zn395 O399 2.035 . S
Zn395 O401 2.035 . S
Zn395 O402 2.028 1_455 S
O396 C392 1.257 . S
O396 Zn397 2.035 . S
Zn397 O396 2.035 . S
Zn397 O398 2.028 1_655 S
Zn397 O400 2.028 . S
Zn397 O403 2.035 . S
O398 Zn397 2.028 1_455 S
O398 C404 1.247 . S
O399 Zn395 2.035 . S
O399 C404 1.258 . S
O400 C393 1.245 1_655 S
O400 Zn397 2.028 . S
O401 C393 1.260 . S
O401 Zn395 2.035 . S
O402 Zn395 2.028 1_655 S
O402 C405 1.247 . S
O403 Zn397 2.035 . S
O403 C405 1.258 . S
C404 O398 1.247 . S
C404 O399 1.258 . S
C405 O402 1.247 . S
C405 O403 1.258 . S
C406 O408 1.247 . S
C406 O410 1.258 . S
C407 O414 1.247 . S
C407 O415 1.258 . S
O408 C406 1.247 . S
O408 Zn409 2.028 . S
Zn409 O408 2.028 . S
Zn409 O413 2.035 . S
Zn409 O415 2.035 . S
Zn409 O416 2.028 . S
O410 C406 1.258 . S
O410 Zn411 2.035 . S
Zn411 O410 2.035 . S
Zn411 O412 2.028 . S
Zn411 O414 2.028 . S
Zn411 O417 2.035 . S
O412 Zn411 2.028 . S
O412 C418 1.247 . S
O413 Zn409 2.035 . S
O413 C418 1.258 . S
O414 C407 1.247 . S
O414 Zn411 2.028 . S
O415 C407 1.258 . S
O415 Zn409 2.035 . S
O416 Zn409 2.028 . S
O416 C419 1.247 . S
O417 Zn411 2.035 . S
O417 C419 1.258 . S
C418 O412 1.247 . S
C418 O413 1.258 . S
C419 O416 1.247 . S
C419 O417 1.258 . S
C420 O422 1.247 . S
C420 O424 1.258 . S
C421 O428 1.247 . S
C421 O429 1.258 . S
O422 C420 1.247 . S
O422 Zn423 2.028 1_455 S
Zn423 O422 2.028 1_655 S
Zn423 O427 2.035 . S
Zn423 O429 2.035 . S
Zn423 O430 2.028 . S
O424 C420 1.258 . S
O424 Zn425 2.035 . S
Zn425 O424 2.035 . S
Zn425 O426 2.028 . S
Zn425 O428 2.028 1_455 S
Zn425 O431 2.035 . S
O426 Zn425 2.028 . S
O426 C432 1.248 1_455 S
O427 Zn423 2.035 . S
O427 C432 1.257 . S
O428 C421 1.247 . S
O428 Zn425 2.028 1_655 S
O429 C421 1.258 . S
O429 Zn423 2.035 . S
O430 Zn423 2.028 . S
O430 C433 1.245 1_655 S
O431 Zn425 2.035 . S
O431 C433 1.260 . S
C432 O426 1.248 1_655 S
C432 O427 1.257 . S
C433 O430 1.245 1_455 S
C433 O431 1.260 . S
C434 O436 1.247 . S
C434 O438 1.258 . S
C435 O442 1.247 . S
C435 O443 1.258 . S
O436 C434 1.247 . S
O436 Zn437 2.028 . S
Zn437 O436 2.028 . S
Zn437 O441 2.035 . S
Zn437 O443 2.035 . S
Zn437 O444 2.028 . S
O438 C434 1.258 . S
O438 Zn439 2.035 . S
Zn439 O438 2.035 . S
Zn439 O440 2.028 . S
Zn439 O442 2.028 . S
Zn439 O445 2.035 . S
O440 Zn439 2.028 . S
O440 C446 1.247 . S
O441 Zn437 2.035 . S
O441 C446 1.258 . S
O442 C435 1.247 . S
O442 Zn439 2.028 . S
O443 C435 1.258 . S
O443 Zn437 2.035 . S
O444 Zn437 2.028 . S
O444 C447 1.247 . S
O445 Zn439 2.035 . S
O445 C447 1.258 . S
C446 O440 1.247 . S
C446 O441 1.258 . S
C447 O444 1.247 . S
C447 O445 1.258 . S
C448 C449 1.363 . S
C448 C454 1.379 . S
C448 N456 1.356 1_545 S
C449 C448 1.363 . S
C449 C455 1.363 . S
C450 C451 1.363 . S
C450 C455 1.379 . S
C450 N457 1.356 . S
C451 C450 1.363 . S
C451 C454 1.363 . S
N452 C454 1.356 . S
N452 H464 0.984 . S
N452 H465 0.985 . S
N453 C455 1.356 . S
N453 H458 0.984 . S
N453 H459 0.985 . S
C454 C448 1.379 . S
C454 C451 1.363 . S
C454 N452 1.356 . S
C455 C449 1.363 . S
C455 C450 1.379 . S
C455 N453 1.356 . S
N456 C448 1.356 1_565 S
N456 H462 0.984 . S
N456 H463 0.984 . S
N457 C450 1.356 . S
N457 H460 0.984 . S
N457 H461 0.985 . S
H458 N453 0.984 . S
H459 N453 0.985 . S
H460 N457 0.984 . S
H461 N457 0.985 . S
H462 N456 0.984 . S
H463 N456 0.984 . S
H464 N452 0.984 . S
H465 N452 0.985 . S
C466 C467 1.363 . S
C466 C472 1.379 . S
C466 N474 1.356 . S
C467 C466 1.363 . S
C467 C473 1.363 . S
C468 C469 1.363 . S
C468 C473 1.379 . S
C468 N475 1.356 . S
C469 C468 1.363 . S
C469 C472 1.363 . S
N470 C472 1.356 . S
N470 H482 0.984 . S
N470 H483 0.985 . S
N471 C473 1.356 1_565 S
N471 H476 0.984 . S
N471 H477 0.985 . S
C472 C466 1.379 . S
C472 C469 1.363 . S
C472 N470 1.356 . S
C473 C467 1.363 . S
C473 C468 1.379 . S
C473 N471 1.356 1_545 S
N474 C466 1.356 . S
N474 H480 0.984 . S
N474 H481 0.984 . S
N475 C468 1.356 . S
N475 H478 0.984 . S
N475 H479 0.985 . S
H476 N471 0.984 . S
H477 N471 0.985 . S
H478 N475 0.984 . S
H479 N475 0.985 . S
H480 N474 0.984 . S
H481 N474 0.984 . S
H482 N470 0.984 . S
H483 N470 0.985 . S
C484 C485 1.363 . S
C484 C490 1.379 . S
C484 N492 1.356 . S
C485 C484 1.363 . S
C485 C491 1.363 . S
C486 C487 1.363 . S
C486 C491 1.379 . S
C486 N493 1.356 1_565 S
C487 C486 1.363 . S
C487 C490 1.363 . S
N488 C490 1.356 . S
N488 H500 0.984 . S
N488 H501 0.985 . S
N489 C491 1.356 . S
N489 H494 0.984 . S
N489 H495 0.985 . S
C490 C484 1.379 . S
C490 C487 1.363 . S
C490 N488 1.356 . S
C491 C485 1.363 . S
C491 C486 1.379 . S
C491 N489 1.356 . S
N492 C484 1.356 . S
N492 H498 0.984 . S
N492 H499 0.984 . S
N493 C486 1.356 1_545 S
N493 H496 0.984 . S
N493 H497 0.985 . S
H494 N489 0.984 . S
H495 N489 0.985 . S
H496 N493 0.984 . S
H497 N493 0.985 . S
H498 N492 0.984 . S
H499 N492 0.984 . S
H500 N488 0.984 . S
H501 N488 0.985 . S
C502 C503 1.363 . S
C502 C508 1.379 . S
C502 N510 1.356 1_565 S
C503 C502 1.363 . S
C503 C509 1.363 . S
C504 C505 1.363 . S
C504 C509 1.379 . S
C504 N511 1.356 . S
C505 C504 1.363 . S
C505 C508 1.363 . S
N506 C508 1.356 . S
N506 H518 0.984 . S
N506 H519 0.985 . S
N507 C509 1.356 . S
N507 H512 0.984 . S
N507 H513 0.985 . S
C508 C502 1.379 . S
C508 C505 1.363 . S
C508 N506 1.356 . S
C509 C503 1.363 . S
C509 C504 1.379 . S
C509 N507 1.356 . S
N510 C502 1.356 1_545 S
N510 H516 0.984 . S
N510 H517 0.984 . S
N511 C504 1.356 . S
N511 H514 0.984 . S
N511 H515 0.985 . S
H512 N507 0.984 . S
H513 N507 0.985 . S
H514 N511 0.984 . S
H515 N511 0.985 . S
H516 N510 0.984 . S
H517 N510 0.984 . S
H518 N506 0.984 . S
H519 N506 0.985 . S
C520 C521 1.363 . S
C520 C526 1.379 . S
C520 N528 1.356 . S
C521 C520 1.363 . S
C521 C527 1.363 . S
C522 C523 1.363 . S
C522 C527 1.379 . S
C522 N529 1.356 . S
C523 C522 1.363 . S
C523 C526 1.363 . S
N524 C526 1.356 . S
N524 H536 0.984 . S
N524 H537 0.985 . S
N525 C527 1.356 . S
N525 H530 0.984 . S
N525 H531 0.985 . S
C526 C520 1.379 . S
C526 C523 1.363 . S
C526 N524 1.356 . S
C527 C521 1.363 . S
C527 C522 1.379 . S
C527 N525 1.356 . S
N528 C520 1.356 . S
N528 H534 0.984 . S
N528 H535 0.984 . S
N529 C522 1.356 . S
N529 H532 0.984 . S
N529 H533 0.985 . S
H530 N525 0.984 . S
H531 N525 0.985 . S
H532 N529 0.984 . S
H533 N529 0.985 . S
H534 N528 0.984 . S
H535 N528 0.984 . S
H536 N524 0.984 . S
H537 N524 0.985 . S
C538 C539 1.363 . S
C538 C544 1.379 . S
C538 N546 1.356 . S
C539 C538 1.363 . S
C539 C545 1.363 . S
C540 C541 1.363 . S
C540 C545 1.379 . S
C540 N547 1.356 . S
C541 C540 1.363 . S
C541 C544 1.363 . S
N542 C544 1.356 . S
N542 H554 0.984 . S
N542 H555 0.985 . S
N543 C545 1.356 . S
N543 H548 0.984 . S
N543 H549 0.985 . S
C544 C538 1.379 . S
C544 C541 1.363 . S
C544 N542 1.356 . S
C545 C539 1.363 . S
C545 C540 1.379 . S
C545 N543 1.356 . S
N546 C538 1.356 . S
N546 H552 0.984 . S
N546 H553 0.984 . S
N547 C540 1.356 . S
N547 H550 0.984 . S
N547 H551 0.985 . S
H548 N543 0.984 . S
H549 N543 0.985 . S
H550 N547 0.984 . S
H551 N547 0.985 . S
H552 N546 0.984 . S
H553 N546 0.984 . S
H554 N542 0.984 . S
H555 N542 0.985 . S
C556 C557 1.363 . S
C556 C562 1.379 . S
C556 N564 1.356 . S
C557 C556 1.363 . S
C557 C563 1.363 . S
C558 C559 1.363 . S
C558 C563 1.379 . S
C558 N565 1.356 . S
C559 C558 1.363 . S
C559 C562 1.363 . S
N560 C562 1.356 . S
N560 H572 0.984 . S
N560 H573 0.985 . S
N561 C563 1.356 . S
N561 H566 0.984 . S
N561 H567 0.985 . S
C562 C556 1.379 . S
C562 C559 1.363 . S
C562 N560 1.356 . S
C563 C557 1.363 . S
C563 C558 1.379 . S
C563 N561 1.356 . S
N564 C556 1.356 . S
N564 H570 0.984 . S
N564 H571 0.984 . S
N565 C558 1.356 . S
N565 H568 0.984 . S
N565 H569 0.985 . S
H566 N561 0.984 . S
H567 N561 0.985 . S
H568 N565 0.984 . S
H569 N565 0.985 . S
H570 N564 0.984 . S
H571 N564 0.984 . S
H572 N560 0.984 . S
H573 N560 0.985 . S
C574 C575 1.363 . S
C574 C580 1.379 . S
C574 N582 1.356 . S
C575 C574 1.363 . S
C575 C581 1.363 . S
C576 C577 1.363 . S
C576 C581 1.379 . S
C576 N583 1.356 . S
C577 C576 1.363 . S
C577 C580 1.363 . S
N578 C580 1.356 . S
N578 H590 0.984 . S
N578 H591 0.985 . S
N579 C581 1.356 . S
N579 H584 0.984 . S
N579 H585 0.985 . S
C580 C574 1.379 . S
C580 C577 1.363 . S
C580 N578 1.356 . S
C581 C575 1.363 . S
C581 C576 1.379 . S
C581 N579 1.356 . S
N582 C574 1.356 . S
N582 H588 0.984 . S
N582 H589 0.984 . S
N583 C576 1.356 . S
N583 H586 0.984 . S
N583 H587 0.985 . S
H584 N579 0.984 . S
H585 N579 0.985 . S
H586 N583 0.984 . S
H587 N583 0.985 . S
H588 N582 0.984 . S
H589 N582 0.984 . S
H590 N578 0.984 . S
H591 N578 0.985 . S
C592 C593 1.363 . S
C592 C598 1.379 . S
C592 N600 1.356 . S
C593 C592 1.363 . S
C593 C599 1.363 1_455 S
C594 C595 1.363 1_655 S
C594 C599 1.379 . S
C594 N601 1.356 . S
C595 C594 1.363 1_455 S
C595 C598 1.363 . S
N596 C598 1.356 . S
N596 H608 0.984 . S
N596 H609 0.985 . S
N597 C599 1.356 . S
N597 H602 0.984 . S
N597 H603 0.985 . S
C598 C592 1.379 . S
C598 C595 1.363 . S
C598 N596 1.356 . S
C599 C593 1.363 1_655 S
C599 C594 1.379 . S
C599 N597 1.356 . S
N600 C592 1.356 . S
N600 H606 0.984 . S
N600 H607 0.984 . S
N601 C594 1.356 . S
N601 H604 0.984 . S
N601 H605 0.985 . S
H602 N597 0.984 . S
H603 N597 0.985 . S
H604 N601 0.984 . S
H605 N601 0.985 . S
H606 N600 0.984 . S
H607 N600 0.984 . S
H608 N596 0.984 . S
H609 N596 0.985 . S
C610 C611 1.363 . S
C610 C616 1.379 . S
C610 N618 1.356 . S
C611 C610 1.363 . S
C611 C617 1.363 . S
C612 C613 1.363 . S
C612 C617 1.379 . S
C612 N619 1.356 . S
C613 C612 1.363 . S
C613 C616 1.363 . S
N614 C616 1.356 1_565 S
N614 H626 0.984 . S
N614 H627 0.985 . S
N615 C617 1.356 . S
N615 H620 0.984 . S
N615 H621 0.985 . S
C616 C610 1.379 . S
C616 C613 1.363 . S
C616 N614 1.356 1_545 S
C617 C611 1.363 . S
C617 C612 1.379 . S
C617 N615 1.356 . S
N618 C610 1.356 . S
N618 H624 0.984 . S
N618 H625 0.984 . S
N619 C612 1.356 . S
N619 H622 0.984 . S
N619 H623 0.985 . S
H620 N615 0.984 . S
H621 N615 0.985 . S
H622 N619 0.984 . S
H623 N619 0.985 . S
H624 N618 0.984 . S
H625 N618 0.984 . S
H626 N614 0.984 . S
H627 N614 0.985 . S
C628 C629 1.363 . S
C628 C634 1.379 . S
C628 N636 1.356 . S
C629 C628 1.363 . S
C629 C635 1.363 1_655 S
C630 C631 1.363 1_455 S
C630 C635 1.379 . S
C630 N637 1.356 . S
C631 C630 1.363 1_655 S
C631 C634 1.363 . S
N632 C634 1.356 . S
N632 H644 0.984 . S
N632 H645 0.985 . S
N633 C635 1.356 . S
N633 H638 0.984 . S
N633 H639 0.985 . S
C634 C628 1.379 . S
C634 C631 1.363 . S
C634 N632 1.356 . S
C635 C629 1.363 1_455 S
C635 C630 1.379 . S
C635 N633 1.356 . S
N636 C628 1.356 . S
N636 H642 0.984 . S
N636 H643 0.984 . S
N637 C630 1.356 . S
N637 H640 0.984 1_565 S
N637 H641 0.985 1_565 S
H638 N633 0.984 . S
H639 N633 0.985 . S
H640 N637 0.984 1_545 S
H641 N637 0.985 1_545 S
H642 N636 0.984 . S
H643 N636 0.984 . S
H644 N632 0.984 . S
H645 N632 0.985 . S
C646 C647 1.363 . S
C646 C652 1.379 . S
C646 N654 1.356 . S
C647 C646 1.363 . S
C647 C653 1.363 . S
C648 C649 1.363 . S
C648 C653 1.379 . S
C648 N655 1.356 . S
C649 C648 1.363 . S
C649 C652 1.363 . S
N650 C652 1.356 1_545 S
N650 H662 0.984 . S
N650 H663 0.985 . S
N651 C653 1.356 . S
N651 H656 0.984 . S
N651 H657 0.985 . S
C652 C646 1.379 . S
C652 C649 1.363 . S
C652 N650 1.356 1_565 S
C653 C647 1.363 . S
C653 C648 1.379 . S
C653 N651 1.356 . S
N654 C646 1.356 . S
N654 H660 0.984 . S
N654 H661 0.984 . S
N655 C648 1.356 . S
N655 H658 0.984 . S
N655 H659 0.985 . S
H656 N651 0.984 . S
H657 N651 0.985 . S
H658 N655 0.984 . S
H659 N655 0.985 . S
H660 N654 0.984 . S
H661 N654 0.984 . S
H662 N650 0.984 . S
H663 N650 0.985 . S
C664 C665 1.363 1_655 S
C664 C670 1.379 . S
C664 N672 1.356 . S
C665 C664 1.363 1_455 S
C665 C671 1.363 . S
C666 C667 1.363 . S
C666 C671 1.379 . S
C666 N673 1.356 . S
C667 C666 1.363 . S
C667 C670 1.363 1_455 S
N668 C670 1.356 . S
N668 H680 0.984 . S
N668 H681 0.985 . S
N669 C671 1.356 . S
N669 H674 0.984 . S
N669 H675 0.985 . S
C670 C664 1.379 . S
C670 C667 1.363 1_655 S
C670 N668 1.356 . S
C671 C665 1.363 . S
C671 C666 1.379 . S
C671 N669 1.356 . S
N672 C664 1.356 . S
N672 H678 0.984 . S
N672 H679 0.984 . S
N673 C666 1.356 . S
N673 H676 0.984 . S
N673 H677 0.985 . S
H674 N669 0.984 . S
H675 N669 0.985 . S
H676 N673 0.984 . S
H677 N673 0.985 . S
H678 N672 0.984 . S
H679 N672 0.984 . S
H680 N668 0.984 . S
H681 N668 0.985 . S
C682 C683 1.363 . S
C682 C688 1.379 . S
C682 N690 1.356 . S
C683 C682 1.363 . S
C683 C689 1.363 . S
C684 C685 1.363 . S
C684 C689 1.379 . S
C684 N691 1.356 . S
C685 C684 1.363 . S
C685 C688 1.363 . S
N686 C688 1.356 . S
N686 H698 0.984 . S
N686 H699 0.985 . S
N687 C689 1.356 . S
N687 H692 0.984 . S
N687 H693 0.985 . S
C688 C682 1.379 . S
C688 C685 1.363 . S
C688 N686 1.356 . S
C689 C683 1.363 . S
C689 C684 1.379 . S
C689 N687 1.356 . S
N690 C682 1.356 . S
N690 H696 0.984 . S
N690 H697 0.984 . S
N691 C684 1.356 . S
N691 H694 0.984 . S
N691 H695 0.985 . S
H692 N687 0.984 . S
H693 N687 0.985 . S
H694 N691 0.984 . S
H695 N691 0.985 . S
H696 N690 0.984 . S
H697 N690 0.984 . S
H698 N686 0.984 . S
H699 N686 0.985 . S
C700 C701 1.363 1_455 S
C700 C706 1.379 . S
C700 N708 1.356 . S
C701 C700 1.363 1_655 S
C701 C707 1.363 . S
C702 C703 1.363 . S
C702 C707 1.379 . S
C702 N709 1.356 . S
C703 C702 1.363 . S
C703 C706 1.363 1_655 S
N704 C706 1.356 . S
N704 H716 0.984 . S
N704 H717 0.985 . S
N705 C707 1.356 . S
N705 H710 0.984 . S
N705 H711 0.985 . S
C706 C700 1.379 . S
C706 C703 1.363 1_455 S
C706 N704 1.356 . S
C707 C701 1.363 . S
C707 C702 1.379 . S
C707 N705 1.356 . S
N708 C700 1.356 . S
N708 H714 0.984 . S
N708 H715 0.984 . S
N709 C702 1.356 . S
N709 H712 0.984 . S
N709 H713 0.985 . S
H710 N705 0.984 . S
H711 N705 0.985 . S
H712 N709 0.984 . S
H713 N709 0.985 . S
H714 N708 0.984 . S
H715 N708 0.984 . S
H716 N704 0.984 . S
H717 N704 0.985 . S
C718 C719 1.363 . S
C718 C724 1.379 . S
C718 N726 1.356 . S
C719 C718 1.363 . S
C719 C725 1.363 . S
C720 C721 1.363 . S
C720 C725 1.379 . S
C720 N727 1.356 . S
C721 C720 1.363 . S
C721 C724 1.363 . S
N722 C724 1.356 . S
N722 H734 0.984 . S
N722 H735 0.985 . S
N723 C725 1.356 . S
N723 H728 0.984 . S
N723 H729 0.985 . S
C724 C718 1.379 . S
C724 C721 1.363 . S
C724 N722 1.356 . S
C725 C719 1.363 . S
C725 C720 1.379 . S
C725 N723 1.356 . S
N726 C718 1.356 . S
N726 H732 0.984 . S
N726 H733 0.984 . S
N727 C720 1.356 . S
N727 H730 0.984 . S
N727 H731 0.985 . S
H728 N723 0.984 . S
H729 N723 0.985 . S
H730 N727 0.984 . S
H731 N727 0.985 . S
H732 N726 0.984 . S
H733 N726 0.984 . S
H734 N722 0.984 . S
H735 N722 0.985 . S
C736 C737 1.363 . S
C736 C742 1.379 . S
C736 N744 1.356 . S
C737 C736 1.363 . S
C737 C743 1.363 . S
C738 C739 1.363 . S
C738 C743 1.379 . S
C738 N745 1.356 . S
C739 C738 1.363 . S
C739 C742 1.363 . S
N740 C742 1.356 . S
N740 H752 0.984 1_565 S
N740 H753 0.985 1_565 S
N741 C743 1.356 . S
N741 H746 0.984 . S
N741 H747 0.985 . S
C742 C736 1.379 . S
C742 C739 1.363 . S
C742 N740 1.356 . S
C743 C737 1.363 . S
C743 C738 1.379 . S
C743 N741 1.356 . S
N744 C736 1.356 . S
N744 H750 0.984 . S
N744 H751 0.984 . S
N745 C738 1.356 . S
N745 H748 0.984 . S
N745 H749 0.985 . S
H746 N741 0.984 . S
H747 N741 0.985 . S
H748 N745 0.984 . S
H749 N745 0.985 . S
H750 N744 0.984 . S
H751 N744 0.984 . S
H752 N740 0.984 1_545 S
H753 N740 0.985 1_545 S
C754 C755 1.363 . S
C754 C760 1.379 . S
C754 N762 1.356 . S
C755 C754 1.363 . S
C755 C761 1.363 . S
C756 C757 1.363 . S
C756 C761 1.379 . S
C756 N763 1.356 . S
C757 C756 1.363 . S
C757 C760 1.363 . S
N758 C760 1.356 . S
N758 H770 0.984 . S
N758 H771 0.985 . S
N759 C761 1.356 . S
N759 H764 0.984 . S
N759 H765 0.985 . S
C760 C754 1.379 . S
C760 C757 1.363 . S
C760 N758 1.356 . S
C761 C755 1.363 . S
C761 C756 1.379 . S
C761 N759 1.356 . S
N762 C754 1.356 . S
N762 H768 0.984 . S
N762 H769 0.984 . S
N763 C756 1.356 . S
N763 H766 0.984 . S
N763 H767 0.985 . S
H764 N759 0.984 . S
H765 N759 0.985 . S
H766 N763 0.984 . S
H767 N763 0.985 . S
H768 N762 0.984 . S
H769 N762 0.984 . S
H770 N758 0.984 . S
H771 N758 0.985 . S
C772 C773 1.363 . S
C772 C778 1.379 . S
C772 N780 1.356 . S
C773 C772 1.363 . S
C773 C779 1.363 . S
C774 C775 1.363 . S
C774 C779 1.379 . S
C774 N781 1.356 . S
C775 C774 1.363 . S
C775 C778 1.363 . S
N776 C778 1.356 . S
N776 H788 0.984 . S
N776 H789 0.985 . S
N777 C779 1.356 . S
N777 H782 0.984 . S
N777 H783 0.985 . S
C778 C772 1.379 . S
C778 C775 1.363 . S
C778 N776 1.356 . S
C779 C773 1.363 . S
C779 C774 1.379 . S
C779 N777 1.356 . S
N780 C772 1.356 . S
N780 H786 0.984 . S
N780 H787 0.984 . S
N781 C774 1.356 . S
N781 H784 0.984 . S
N781 H785 0.985 . S
H782 N777 0.984 . S
H783 N777 0.985 . S
H784 N781 0.984 . S
H785 N781 0.985 . S
H786 N780 0.984 . S
H787 N780 0.984 . S
H788 N776 0.984 . S
H789 N776 0.985 . S
C790 C791 1.363 . S
C790 C796 1.379 . S
C790 N798 1.356 . S
C791 C790 1.363 . S
C791 C797 1.363 . S
C792 C793 1.363 . S
C792 C797 1.379 . S
C792 N799 1.356 . S
C793 C792 1.363 . S
C793 C796 1.363 . S
N794 C796 1.356 . S
N794 H806 0.984 . S
N794 H807 0.985 . S
N795 C797 1.356 . S
N795 H800 0.984 1_565 S
N795 H801 0.985 1_565 S
C796 C790 1.379 . S
C796 C793 1.363 . S
C796 N794 1.356 . S
C797 C791 1.363 . S
C797 C792 1.379 . S
C797 N795 1.356 . S
N798 C790 1.356 . S
N798 H804 0.984 . S
N798 H805 0.984 . S
N799 C792 1.356 . S
N799 H802 0.984 . S
N799 H803 0.985 . S
H800 N795 0.984 1_545 S
H801 N795 0.985 1_545 S
H802 N799 0.984 . S
H803 N799 0.985 . S
H804 N798 0.984 . S
H805 N798 0.984 . S
H806 N794 0.984 . S
H807 N794 0.985 . S
C808 C809 1.363 . S
C808 C814 1.379 . S
C808 N816 1.356 . S
C809 C808 1.363 . S
C809 C815 1.363 . S
C810 C811 1.363 . S
C810 C815 1.379 . S
C810 N817 1.356 . S
C811 C810 1.363 . S
C811 C814 1.363 . S
N812 C814 1.356 . S
N812 H824 0.984 1_545 S
N812 H825 0.985 1_545 S
N813 C815 1.356 . S
N813 H818 0.984 . S
N813 H819 0.985 . S
C814 C808 1.379 . S
C814 C811 1.363 . S
C814 N812 1.356 . S
C815 C809 1.363 . S
C815 C810 1.379 . S
C815 N813 1.356 . S
N816 C808 1.356 . S
N816 H822 0.984 . S
N816 H823 0.984 . S
N817 C810 1.356 . S
N817 H820 0.984 . S
N817 H821 0.985 . S
H818 N813 0.984 . S
H819 N813 0.985 . S
H820 N817 0.984 . S
H821 N817 0.985 . S
H822 N816 0.984 . S
H823 N816 0.984 . S
H824 N812 0.984 1_565 S
H825 N812 0.985 1_565 S
C826 C827 1.363 . S
C826 C832 1.379 . S
C826 N834 1.356 . S
C827 C826 1.363 . S
C827 C833 1.363 . S
C828 C829 1.363 . S
C828 C833 1.379 . S
C828 N835 1.356 . S
C829 C828 1.363 . S
C829 C832 1.363 . S
N830 C832 1.356 . S
N830 H842 0.984 . S
N830 H843 0.985 . S
N831 C833 1.356 . S
N831 H836 0.984 . S
N831 H837 0.985 . S
C832 C826 1.379 . S
C832 C829 1.363 . S
C832 N830 1.356 . S
C833 C827 1.363 . S
C833 C828 1.379 . S
C833 N831 1.356 . S
N834 C826 1.356 . S
N834 H840 0.984 . S
N834 H841 0.984 . S
N835 C828 1.356 . S
N835 H838 0.984 . S
N835 H839 0.985 . S
H836 N831 0.984 . S
H837 N831 0.985 . S
H838 N835 0.984 . S
H839 N835 0.985 . S
H840 N834 0.984 . S
H841 N834 0.984 . S
H842 N830 0.984 . S
H843 N830 0.985 . S
C844 C845 1.363 . S
C844 C850 1.379 . S
C844 N852 1.356 . S
C845 C844 1.363 . S
C845 C851 1.363 . S
C846 C847 1.363 . S
C846 C851 1.379 . S
C846 N853 1.356 . S
C847 C846 1.363 . S
C847 C850 1.363 . S
N848 C850 1.356 . S
N848 H860 0.984 . S
N848 H861 0.985 . S
N849 C851 1.356 . S
N849 H854 0.984 . S
N849 H855 0.985 . S
C850 C844 1.379 . S
C850 C847 1.363 . S
C850 N848 1.356 . S
C851 C845 1.363 . S
C851 C846 1.379 . S
C851 N849 1.356 . S
N852 C844 1.356 . S
N852 H858 0.984 . S
N852 H859 0.984 . S
N853 C846 1.356 . S
N853 H856 0.984 . S
N853 H857 0.985 . S
H854 N849 0.984 . S
H855 N849 0.985 . S
H856 N853 0.984 . S
H857 N853 0.985 . S
H858 N852 0.984 . S
H859 N852 0.984 . S
H860 N848 0.984 . S
H861 N848 0.985 . S
C862 C863 1.363 . S
C862 C868 1.379 . S
C862 N870 1.356 . S
C863 C862 1.363 . S
C863 C869 1.363 . S
C864 C865 1.363 . S
C864 C869 1.379 . S
C864 N871 1.356 . S
C865 C864 1.363 . S
C865 C868 1.363 . S
N866 C868 1.356 . S
N866 H878 0.984 . S
N866 H879 0.985 . S
N867 C869 1.356 . S
N867 H872 0.984 . S
N867 H873 0.985 . S
C868 C862 1.379 . S
C868 C865 1.363 . S
C868 N866 1.356 . S
C869 C863 1.363 . S
C869 C864 1.379 . S
C869 N867 1.356 . S
N870 C862 1.356 . S
N870 H876 0.984 . S
N870 H877 0.984 . S
N871 C864 1.356 . S
N871 H874 0.984 1_545 S
N871 H875 0.985 1_545 S
H872 N867 0.984 . S
H873 N867 0.985 . S
H874 N871 0.984 1_565 S
H875 N871 0.985 1_565 S
H876 N870 0.984 . S
H877 N870 0.984 . S
H878 N866 0.984 . S
H879 N866 0.985 . S
C880 C881 1.363 . S
C880 C886 1.379 . S
C880 N888 1.356 . S
C881 C880 1.363 . S
C881 C887 1.363 . S
C882 C883 1.363 . S
C882 C887 1.379 . S
C882 N889 1.356 . S
C883 C882 1.363 . S
C883 C886 1.363 . S
N884 C886 1.356 . S
N884 H896 0.984 . S
N884 H897 0.985 . S
N885 C887 1.356 . S
N885 H890 0.984 . S
N885 H891 0.985 . S
C886 C880 1.379 . S
C886 C883 1.363 . S
C886 N884 1.356 . S
C887 C881 1.363 . S
C887 C882 1.379 . S
C887 N885 1.356 . S
N888 C880 1.356 . S
N888 H894 0.984 . S
N888 H895 0.984 . S
N889 C882 1.356 . S
N889 H892 0.984 . S
N889 H893 0.985 . S
H890 N885 0.984 . S
H891 N885 0.985 . S
H892 N889 0.984 . S
H893 N889 0.985 . S
H894 N888 0.984 . S
H895 N888 0.984 . S
H896 N884 0.984 . S
H897 N884 0.985 . S
C898 C899 1.363 . S
C898 C904 1.379 . S
C898 N906 1.356 . S
C899 C898 1.363 . S
C899 C905 1.363 . S
C900 C901 1.363 . S
C900 C905 1.379 . S
C900 N907 1.356 . S
C901 C900 1.363 . S
C901 C904 1.363 . S
N902 C904 1.356 . S
N902 H914 0.984 . S
N902 H915 0.985 . S
N903 C905 1.356 . S
N903 H908 0.984 . S
N903 H909 0.985 . S
C904 C898 1.379 . S
C904 C901 1.363 . S
C904 N902 1.356 . S
C905 C899 1.363 . S
C905 C900 1.379 . S
C905 N903 1.356 . S
N906 C898 1.356 . S
N906 H912 0.984 . S
N906 H913 0.984 . S
N907 C900 1.356 . S
N907 H910 0.984 1_565 S
N907 H911 0.985 1_565 S
H908 N903 0.984 . S
H909 N903 0.985 . S
H910 N907 0.984 1_545 S
H911 N907 0.985 1_545 S
H912 N906 0.984 . S
H913 N906 0.984 . S
H914 N902 0.984 . S
H915 N902 0.985 . S
C916 C917 1.363 . S
C916 C922 1.379 . S
C916 N924 1.356 . S
C917 C916 1.363 . S
C917 C923 1.363 . S
C918 C919 1.363 . S
C918 C923 1.379 . S
C918 N925 1.356 . S
C919 C918 1.363 . S
C919 C922 1.363 . S
N920 C922 1.356 . S
N920 H932 0.984 . S
N920 H933 0.985 . S
N921 C923 1.356 . S
N921 H926 0.984 . S
N921 H927 0.985 . S
C922 C916 1.379 . S
C922 C919 1.363 . S
C922 N920 1.356 . S
C923 C917 1.363 . S
C923 C918 1.379 . S
C923 N921 1.356 . S
N924 C916 1.356 . S
N924 H930 0.984 . S
N924 H931 0.984 . S
N925 C918 1.356 . S
N925 H928 0.984 1_565 S
N925 H929 0.985 1_565 S
H926 N921 0.984 . S
H927 N921 0.985 . S
H928 N925 0.984 1_545 S
H929 N925 0.985 1_545 S
H930 N924 0.984 . S
H931 N924 0.984 . S
H932 N920 0.984 . S
H933 N920 0.985 . S
C934 C935 1.363 . S
C934 C940 1.379 . S
C934 N942 1.356 . S
C935 C934 1.363 . S
C935 C941 1.363 . S
C936 C937 1.363 . S
C936 C941 1.379 . S
C936 N943 1.356 . S
C937 C936 1.363 . S
C937 C940 1.363 . S
N938 C940 1.356 . S
N938 H950 0.984 . S
N938 H951 0.985 . S
N939 C941 1.356 . S
N939 H944 0.984 . S
N939 H945 0.985 . S
C940 C934 1.379 . S
C940 C937 1.363 . S
C940 N938 1.356 . S
C941 C935 1.363 . S
C941 C936 1.379 . S
C941 N939 1.356 . S
N942 C934 1.356 . S
N942 H948 0.984 . S
N942 H949 0.984 . S
N943 C936 1.356 . S
N943 H946 0.984 . S
N943 H947 0.985 . S
H944 N939 0.984 . S
H945 N939 0.985 . S
H946 N943 0.984 . S
H947 N943 0.985 . S
H948 N942 0.984 . S
H949 N942 0.984 . S
H950 N938 0.984 . S
H951 N938 0.985 . S
C952 C953 1.363 . S
C952 C958 1.379 . S
C952 N960 1.356 . S
C953 C952 1.363 . S
C953 C959 1.363 . S
C954 C955 1.363 . S
C954 C959 1.379 . S
C954 N961 1.356 . S
C955 C954 1.363 . S
C955 C958 1.363 . S
N956 C958 1.356 . S
N956 H968 0.984 . S
N956 H969 0.985 . S
N957 C959 1.356 . S
N957 H962 0.984 . S
N957 H963 0.985 . S
C958 C952 1.379 . S
C958 C955 1.363 . S
C958 N956 1.356 . S
C959 C953 1.363 . S
C959 C954 1.379 . S
C959 N957 1.356 . S
N960 C952 1.356 . S
N960 H966 0.984 . S
N960 H967 0.984 . S
N961 C954 1.356 . S
N961 H964 0.984 . S
N961 H965 0.985 . S
H962 N957 0.984 . S
H963 N957 0.985 . S
H964 N961 0.984 . S
H965 N961 0.985 . S
H966 N960 0.984 . S
H967 N960 0.984 . S
H968 N956 0.984 . S
H969 N956 0.985 . S
C970 C971 1.363 . S
C970 C976 1.379 . S
C970 N978 1.356 . S
C971 C970 1.363 . S
C971 C977 1.363 . S
C972 C973 1.363 . S
C972 C977 1.379 . S
C972 N979 1.356 . S
C973 C972 1.363 . S
C973 C976 1.363 . S
N974 C976 1.356 . S
N974 H986 0.984 . S
N974 H987 0.985 . S
N975 C977 1.356 . S
N975 H980 0.984 1_545 S
N975 H981 0.985 1_545 S
C976 C970 1.379 . S
C976 C973 1.363 . S
C976 N974 1.356 . S
C977 C971 1.363 . S
C977 C972 1.379 . S
C977 N975 1.356 . S
N978 C970 1.356 . S
N978 H984 0.984 . S
N978 H985 0.984 . S
N979 C972 1.356 . S
N979 H982 0.984 . S
N979 H983 0.985 . S
H980 N975 0.984 1_565 S
H981 N975 0.985 1_565 S
H982 N979 0.984 . S
H983 N979 0.985 . S
H984 N978 0.984 . S
H985 N978 0.984 . S
H986 N974 0.984 . S
H987 N974 0.985 . S
C988 C989 1.363 . S
C988 C994 1.379 . S
C988 N996 1.356 . S
C989 C988 1.363 . S
C989 C995 1.363 . S
C990 C991 1.363 . S
C990 C995 1.379 . S
C990 N997 1.356 . S
C991 C990 1.363 . S
C991 C994 1.363 . S
N992 C994 1.356 . S
N992 H1004 0.984 . S
N992 H1005 0.985 . S
N993 C995 1.356 . S
N993 H998 0.984 . S
N993 H999 0.985 . S
C994 C988 1.379 . S
C994 C991 1.363 . S
C994 N992 1.356 . S
C995 C989 1.363 . S
C995 C990 1.379 . S
C995 N993 1.356 . S
N996 C988 1.356 . S
N996 H1002 0.984 1_545 S
N996 H1003 0.984 1_545 S
N997 C990 1.356 . S
N997 H1000 0.984 . S
N997 H1001 0.985 . S
H998 N993 0.984 . S
H999 N993 0.985 . S
H1000 N997 0.984 . S
H1001 N997 0.985 . S
H1002 N996 0.984 1_565 S
H1003 N996 0.984 1_565 S
H1004 N992 0.984 . S
H1005 N992 0.985 . S
C1006 C1007 1.363 . S
C1006 C1012 1.379 . S
C1006 N1014 1.356 . S
C1007 C1006 1.363 . S
C1007 C1013 1.363 . S
C1008 C1009 1.363 . S
C1008 C1013 1.379 . S
C1008 N1015 1.356 . S
C1009 C1008 1.363 . S
C1009 C1012 1.363 . S
N1010 C1012 1.356 . S
N1010 H1022 0.984 . S
N1010 H1023 0.985 . S
N1011 C1013 1.356 . S
N1011 H1016 0.984 . S
N1011 H1017 0.985 . S
C1012 C1006 1.379 . S
C1012 C1009 1.363 . S
C1012 N1010 1.356 . S
C1013 C1007 1.363 . S
C1013 C1008 1.379 . S
C1013 N1011 1.356 . S
N1014 C1006 1.356 . S
N1014 H1020 0.984 . S
N1014 H1021 0.984 . S
N1015 C1008 1.356 . S
N1015 H1018 0.984 . S
N1015 H1019 0.985 . S
H1016 N1011 0.984 . S
H1017 N1011 0.985 . S
H1018 N1015 0.984 . S
H1019 N1015 0.985 . S
H1020 N1014 0.984 . S
H1021 N1014 0.984 . S
H1022 N1010 0.984 . S
H1023 N1010 0.985 . S
C1024 C1025 1.363 1_545 S
C1024 C1030 1.379 1_554 S
C1024 N1032 1.356 . S
C1025 C1024 1.363 1_565 S
C1025 C1031 1.363 . S
C1026 C1027 1.363 1_565 S
C1026 C1031 1.379 1_556 S
C1026 N1033 1.356 . S
C1027 C1026 1.363 1_545 S
C1027 C1030 1.363 . S
N1028 C1030 1.356 . S
N1028 H1040 0.984 . S
N1028 H1041 0.985 . S
N1029 C1031 1.356 . S
N1029 H1034 0.984 . S
N1029 H1035 0.985 . S
C1030 C1024 1.379 1_556 S
C1030 C1027 1.363 . S
C1030 N1028 1.356 . S
C1031 C1025 1.363 . S
C1031 C1026 1.379 1_554 S
C1031 N1029 1.356 . S
N1032 C1024 1.356 . S
N1032 H1038 0.984 . S
N1032 H1039 0.984 . S
N1033 C1026 1.356 . S
N1033 H1036 0.984 . S
N1033 H1037 0.985 . S
H1034 N1029 0.984 . S
H1035 N1029 0.985 . S
H1036 N1033 0.984 . S
H1037 N1033 0.985 . S
H1038 N1032 0.984 . S
H1039 N1032 0.984 . S
H1040 N1028 0.984 . S
H1041 N1028 0.985 . S
C1042 C1043 1.363 . S
C1042 C1048 1.379 1_554 S
C1042 N1050 1.356 . S
C1043 C1042 1.363 . S
C1043 C1049 1.363 . S
C1044 C1045 1.363 . S
C1044 C1049 1.379 1_556 S
C1044 N1051 1.356 . S
C1045 C1044 1.363 . S
C1045 C1048 1.363 . S
N1046 C1048 1.356 . S
N1046 H1058 0.984 . S
N1046 H1059 0.985 . S
N1047 C1049 1.356 . S
N1047 H1052 0.984 . S
N1047 H1053 0.985 . S
C1048 C1042 1.379 1_556 S
C1048 C1045 1.363 . S
C1048 N1046 1.356 . S
C1049 C1043 1.363 . S
C1049 C1044 1.379 1_554 S
C1049 N1047 1.356 . S
N1050 C1042 1.356 . S
N1050 H1056 0.984 . S
N1050 H1057 0.984 . S
N1051 C1044 1.356 . S
N1051 H1054 0.984 . S
N1051 H1055 0.985 . S
H1052 N1047 0.984 . S
H1053 N1047 0.985 . S
H1054 N1051 0.984 . S
H1055 N1051 0.985 . S
H1056 N1050 0.984 . S
H1057 N1050 0.984 . S
H1058 N1046 0.984 . S
H1059 N1046 0.985 . S
C1060 C1061 1.363 . S
C1060 C1066 1.379 . S
C1060 N1068 1.356 . S
C1061 C1060 1.363 . S
C1061 C1067 1.363 . S
C1062 C1063 1.363 . S
C1062 C1067 1.379 . S
C1062 N1069 1.356 . S
C1063 C1062 1.363 . S
C1063 C1066 1.363 . S
N1064 C1066 1.356 . S
N1064 H1076 0.984 . S
N1064 H1077 0.985 . S
N1065 C1067 1.356 . S
N1065 H1070 0.984 . S
N1065 H1071 0.985 . S
C1066 C1060 1.379 . S
C1066 C1063 1.363 . S
C1066 N1064 1.356 . S
C1067 C1061 1.363 . S
C1067 C1062 1.379 . S
C1067 N1065 1.356 . S
N1068 C1060 1.356 . S
N1068 H1074 0.984 . S
N1068 H1075 0.984 . S
N1069 C1062 1.356 . S
N1069 H1072 0.984 . S
N1069 H1073 0.985 . S
H1070 N1065 0.984 . S
H1071 N1065 0.985 . S
H1072 N1069 0.984 . S
H1073 N1069 0.985 . S
H1074 N1068 0.984 . S
H1075 N1068 0.984 . S
H1076 N1064 0.984 . S
H1077 N1064 0.985 . S
C1078 C1079 1.363 . S
C1078 C1084 1.379 . S
C1078 N1086 1.356 . S
C1079 C1078 1.363 . S
C1079 C1085 1.363 1_565 S
C1080 C1081 1.363 . S
C1080 C1085 1.379 . S
C1080 N1087 1.356 . S
C1081 C1080 1.363 . S
C1081 C1084 1.363 1_545 S
N1082 C1084 1.356 . S
N1082 H1094 0.984 . S
N1082 H1095 0.985 . S
N1083 C1085 1.356 . S
N1083 H1088 0.984 . S
N1083 H1089 0.985 . S
C1084 C1078 1.379 . S
C1084 C1081 1.363 1_565 S
C1084 N1082 1.356 . S
C1085 C1079 1.363 1_545 S
C1085 C1080 1.379 . S
C1085 N1083 1.356 . S
N1086 C1078 1.356 . S
N1086 H1092 0.984 . S
N1086 H1093 0.984 . S
N1087 C1080 1.356 . S
N1087 H1090 0.984 . S
N1087 H1091 0.985 . S
H1088 N1083 0.984 . S
H1089 N1083 0.985 . S
H1090 N1087 0.984 . S
H1091 N1087 0.985 . S
H1092 N1086 0.984 . S
H1093 N1086 0.984 . S
H1094 N1082 0.984 . S
H1095 N1082 0.985 . S
C1096 C1097 1.363 . S
C1096 C1102 1.379 1_556 S
C1096 N1104 1.356 . S
C1097 C1096 1.363 . S
C1097 C1103 1.363 . S
C1098 C1099 1.363 . S
C1098 C1103 1.379 1_554 S
C1098 N1105 1.356 . S
C1099 C1098 1.363 . S
C1099 C1102 1.363 . S
N1100 C1102 1.356 . S
N1100 H1112 0.984 . S
N1100 H1113 0.985 . S
N1101 C1103 1.356 . S
N1101 H1106 0.984 . S
N1101 H1107 0.985 . S
C1102 C1096 1.379 1_554 S
C1102 C1099 1.363 . S
C1102 N1100 1.356 . S
C1103 C1097 1.363 . S
C1103 C1098 1.379 1_556 S
C1103 N1101 1.356 . S
N1104 C1096 1.356 . S
N1104 H1110 0.984 . S
N1104 H1111 0.984 . S
N1105 C1098 1.356 . S
N1105 H1108 0.984 . S
N1105 H1109 0.985 . S
H1106 N1101 0.984 . S
H1107 N1101 0.985 . S
H1108 N1105 0.984 . S
H1109 N1105 0.985 . S
H1110 N1104 0.984 . S
H1111 N1104 0.984 . S
H1112 N1100 0.984 . S
H1113 N1100 0.985 . S
C1114 C1115 1.363 . S
C1114 C1120 1.379 . S
C1114 N1122 1.356 . S
C1115 C1114 1.363 . S
C1115 C1121 1.363 . S
C1116 C1117 1.363 . S
C1116 C1121 1.379 . S
C1116 N1123 1.356 . S
C1117 C1116 1.363 . S
C1117 C1120 1.363 . S
N1118 C1120 1.356 . S
N1118 H1130 0.984 . S
N1118 H1131 0.985 . S
N1119 C1121 1.356 . S
N1119 H1124 0.984 . S
N1119 H1125 0.985 . S
C1120 C1114 1.379 . S
C1120 C1117 1.363 . S
C1120 N1118 1.356 . S
C1121 C1115 1.363 . S
C1121 C1116 1.379 . S
C1121 N1119 1.356 . S
N1122 C1114 1.356 . S
N1122 H1128 0.984 . S
N1122 H1129 0.984 . S
N1123 C1116 1.356 . S
N1123 H1126 0.984 . S
N1123 H1127 0.985 . S
H1124 N1119 0.984 . S
H1125 N1119 0.985 . S
H1126 N1123 0.984 . S
H1127 N1123 0.985 . S
H1128 N1122 0.984 . S
H1129 N1122 0.984 . S
H1130 N1118 0.984 . S
H1131 N1118 0.985 . S
C1132 C1133 1.363 . S
C1132 C1138 1.379 . S
C1132 N1140 1.356 . S
C1133 C1132 1.363 . S
C1133 C1139 1.363 1_565 S
C1134 C1135 1.363 . S
C1134 C1139 1.379 . S
C1134 N1141 1.356 . S
C1135 C1134 1.363 . S
C1135 C1138 1.363 1_545 S
N1136 C1138 1.356 . S
N1136 H1148 0.984 . S
N1136 H1149 0.985 . S
N1137 C1139 1.356 . S
N1137 H1142 0.984 . S
N1137 H1143 0.985 . S
C1138 C1132 1.379 . S
C1138 C1135 1.363 1_565 S
C1138 N1136 1.356 . S
C1139 C1133 1.363 1_545 S
C1139 C1134 1.379 . S
C1139 N1137 1.356 . S
N1140 C1132 1.356 . S
N1140 H1146 0.984 . S
N1140 H1147 0.984 . S
N1141 C1134 1.356 . S
N1141 H1144 0.984 . S
N1141 H1145 0.985 . S
H1142 N1137 0.984 . S
H1143 N1137 0.985 . S
H1144 N1141 0.984 . S
H1145 N1141 0.985 . S
H1146 N1140 0.984 . S
H1147 N1140 0.984 . S
H1148 N1136 0.984 . S
H1149 N1136 0.985 . S
C1150 C1151 1.363 . S
C1150 C1156 1.379 . S
C1150 N1158 1.356 . S
C1151 C1150 1.363 . S
C1151 C1157 1.363 . S
C1152 C1153 1.363 . S
C1152 C1157 1.379 . S
C1152 N1159 1.356 . S
C1153 C1152 1.363 . S
C1153 C1156 1.363 . S
N1154 C1156 1.356 . S
N1154 H1166 0.984 . S
N1154 H1167 0.985 . S
N1155 C1157 1.356 . S
N1155 H1160 0.984 . S
N1155 H1161 0.985 . S
C1156 C1150 1.379 . S
C1156 C1153 1.363 . S
C1156 N1154 1.356 . S
C1157 C1151 1.363 . S
C1157 C1152 1.379 . S
C1157 N1155 1.356 . S
N1158 C1150 1.356 . S
N1158 H1164 0.984 . S
N1158 H1165 0.984 . S
N1159 C1152 1.356 . S
N1159 H1162 0.984 . S
N1159 H1163 0.985 . S
H1160 N1155 0.984 . S
H1161 N1155 0.985 . S
H1162 N1159 0.984 . S
H1163 N1159 0.985 . S
H1164 N1158 0.984 . S
H1165 N1158 0.984 . S
H1166 N1154 0.984 . S
H1167 N1154 0.985 . S
C1168 C1169 1.363 . S
C1168 C1174 1.379 . S
C1168 N1176 1.356 . S
C1169 C1168 1.363 . S
C1169 C1175 1.363 . S
C1170 C1171 1.363 . S
C1170 C1175 1.379 . S
C1170 N1177 1.356 . S
C1171 C1170 1.363 . S
C1171 C1174 1.363 . S
N1172 C1174 1.356 . S
N1172 H1184 0.984 . S
N1172 H1185 0.985 . S
N1173 C1175 1.356 . S
N1173 H1178 0.984 . S
N1173 H1179 0.985 . S
C1174 C1168 1.379 . S
C1174 C1171 1.363 . S
C1174 N1172 1.356 . S
C1175 C1169 1.363 . S
C1175 C1170 1.379 . S
C1175 N1173 1.356 . S
N1176 C1168 1.356 . S
N1176 H1182 0.984 . S
N1176 H1183 0.984 . S
N1177 C1170 1.356 . S
N1177 H1180 0.984 . S
N1177 H1181 0.985 . S
H1178 N1173 0.984 . S
H1179 N1173 0.985 . S
H1180 N1177 0.984 . S
H1181 N1177 0.985 . S
H1182 N1176 0.984 . S
H1183 N1176 0.984 . S
H1184 N1172 0.984 . S
H1185 N1172 0.985 . S
C1186 C1187 1.363 . S
C1186 C1192 1.379 . S
C1186 N1194 1.356 . S
C1187 C1186 1.363 . S
C1187 C1193 1.363 . S
C1188 C1189 1.363 . S
C1188 C1193 1.379 . S
C1188 N1195 1.356 . S
C1189 C1188 1.363 . S
C1189 C1192 1.363 . S
N1190 C1192 1.356 . S
N1190 H1202 0.984 . S
N1190 H1203 0.985 . S
N1191 C1193 1.356 . S
N1191 H1196 0.984 . S
N1191 H1197 0.985 . S
C1192 C1186 1.379 . S
C1192 C1189 1.363 . S
C1192 N1190 1.356 . S
C1193 C1187 1.363 . S
C1193 C1188 1.379 . S
C1193 N1191 1.356 . S
N1194 C1186 1.356 . S
N1194 H1200 0.984 . S
N1194 H1201 0.984 . S
N1195 C1188 1.356 . S
N1195 H1198 0.984 . S
N1195 H1199 0.985 . S
H1196 N1191 0.984 . S
H1197 N1191 0.985 . S
H1198 N1195 0.984 . S
H1199 N1195 0.985 . S
H1200 N1194 0.984 . S
H1201 N1194 0.984 . S
H1202 N1190 0.984 . S
H1203 N1190 0.985 . S
C1204 C1205 1.363 . S
C1204 C1210 1.379 . S
C1204 N1212 1.356 . S
C1205 C1204 1.363 . S
C1205 C1211 1.363 . S
C1206 C1207 1.363 . S
C1206 C1211 1.379 . S
C1206 N1213 1.356 . S
C1207 C1206 1.363 . S
C1207 C1210 1.363 . S
N1208 C1210 1.356 . S
N1208 H1220 0.984 . S
N1208 H1221 0.985 . S
N1209 C1211 1.356 . S
N1209 H1214 0.984 . S
N1209 H1215 0.985 . S
C1210 C1204 1.379 . S
C1210 C1207 1.363 . S
C1210 N1208 1.356 . S
C1211 C1205 1.363 . S
C1211 C1206 1.379 . S
C1211 N1209 1.356 . S
N1212 C1204 1.356 . S
N1212 H1218 0.984 . S
N1212 H1219 0.984 . S
N1213 C1206 1.356 . S
N1213 H1216 0.984 . S
N1213 H1217 0.985 . S
H1214 N1209 0.984 . S
H1215 N1209 0.985 . S
H1216 N1213 0.984 . S
H1217 N1213 0.985 . S
H1218 N1212 0.984 . S
H1219 N1212 0.984 . S
H1220 N1208 0.984 . S
H1221 N1208 0.985 . S
C1222 C1223 1.363 . S
C1222 C1228 1.379 . S
C1222 N1230 1.356 . S
C1223 C1222 1.363 . S
C1223 C1229 1.363 . S
C1224 C1225 1.363 . S
C1224 C1229 1.379 . S
C1224 N1231 1.356 . S
C1225 C1224 1.363 . S
C1225 C1228 1.363 . S
N1226 C1228 1.356 . S
N1226 H1238 0.984 . S
N1226 H1239 0.985 . S
N1227 C1229 1.356 . S
N1227 H1232 0.984 . S
N1227 H1233 0.985 . S
C1228 C1222 1.379 . S
C1228 C1225 1.363 . S
C1228 N1226 1.356 . S
C1229 C1223 1.363 . S
C1229 C1224 1.379 . S
C1229 N1227 1.356 . S
N1230 C1222 1.356 . S
N1230 H1236 0.984 . S
N1230 H1237 0.984 . S
N1231 C1224 1.356 . S
N1231 H1234 0.984 . S
N1231 H1235 0.985 . S
H1232 N1227 0.984 . S
H1233 N1227 0.985 . S
H1234 N1231 0.984 . S
H1235 N1231 0.985 . S
H1236 N1230 0.984 . S
H1237 N1230 0.984 . S
H1238 N1226 0.984 . S
H1239 N1226 0.985 . S
C1240 C1241 1.363 1_665 S
C1240 C1246 1.379 . S
C1240 N1248 1.356 . S
C1241 C1240 1.363 1_445 S
C1241 C1247 1.363 . S
C1242 C1243 1.363 1_445 S
C1242 C1247 1.379 . S
C1242 N1249 1.356 . S
C1243 C1242 1.363 1_665 S
C1243 C1246 1.363 . S
N1244 C1246 1.356 . S
N1244 H1256 0.984 . S
N1244 H1257 0.985 . S
N1245 C1247 1.356 . S
N1245 H1250 0.984 . S
N1245 H1251 0.985 . S
C1246 C1240 1.379 . S
C1246 C1243 1.363 . S
C1246 N1244 1.356 . S
C1247 C1241 1.363 . S
C1247 C1242 1.379 . S
C1247 N1245 1.356 . S
N1248 C1240 1.356 . S
N1248 H1254 0.984 . S
N1248 H1255 0.984 . S
N1249 C1242 1.356 . S
N1249 H1252 0.984 . S
N1249 H1253 0.985 . S
H1250 N1245 0.984 . S
H1251 N1245 0.985 . S
H1252 N1249 0.984 . S
H1253 N1249 0.985 . S
H1254 N1248 0.984 . S
H1255 N1248 0.984 . S
H1256 N1244 0.984 . S
H1257 N1244 0.985 . S
C1258 C1259 1.363 1_455 S
C1258 C1264 1.379 . S
C1258 N1266 1.356 . S
C1259 C1258 1.363 1_655 S
C1259 C1265 1.363 . S
C1260 C1261 1.363 1_655 S
C1260 C1265 1.379 . S
C1260 N1267 1.356 . S
C1261 C1260 1.363 1_455 S
C1261 C1264 1.363 . S
N1262 C1264 1.356 . S
N1262 H1274 0.984 . S
N1262 H1275 0.985 . S
N1263 C1265 1.356 . S
N1263 H1268 0.984 . S
N1263 H1269 0.985 . S
C1264 C1258 1.379 . S
C1264 C1261 1.363 . S
C1264 N1262 1.356 . S
C1265 C1259 1.363 . S
C1265 C1260 1.379 . S
C1265 N1263 1.356 . S
N1266 C1258 1.356 . S
N1266 H1272 0.984 . S
N1266 H1273 0.984 . S
N1267 C1260 1.356 . S
N1267 H1270 0.984 . S
N1267 H1271 0.985 . S
H1268 N1263 0.984 . S
H1269 N1263 0.985 . S
H1270 N1267 0.984 . S
H1271 N1267 0.985 . S
H1272 N1266 0.984 . S
H1273 N1266 0.984 . S
H1274 N1262 0.984 . S
H1275 N1262 0.985 . S
C1276 C1277 1.363 1_455 S
C1276 C1282 1.379 . S
C1276 N1284 1.356 . S
C1277 C1276 1.363 1_655 S
C1277 C1283 1.363 . S
C1278 C1279 1.363 1_655 S
C1278 C1283 1.379 . S
C1278 N1285 1.356 . S
C1279 C1278 1.363 1_455 S
C1279 C1282 1.363 . S
N1280 C1282 1.356 . S
N1280 H1292 0.984 . S
N1280 H1293 0.985 . S
N1281 C1283 1.356 . S
N1281 H1286 0.984 . S
N1281 H1287 0.985 . S
C1282 C1276 1.379 . S
C1282 C1279 1.363 . S
C1282 N1280 1.356 . S
C1283 C1277 1.363 . S
C1283 C1278 1.379 . S
C1283 N1281 1.356 . S
N1284 C1276 1.356 . S
N1284 H1290 0.984 . S
N1284 H1291 0.984 . S
N1285 C1278 1.356 . S
N1285 H1288 0.984 . S
N1285 H1289 0.985 . S
H1286 N1281 0.984 . S
H1287 N1281 0.985 . S
H1288 N1285 0.984 . S
H1289 N1285 0.985 . S
H1290 N1284 0.984 . S
H1291 N1284 0.984 . S
H1292 N1280 0.984 . S
H1293 N1280 0.985 . S
C1294 C1295 1.363 1_655 S
C1294 C1300 1.379 1_556 S
C1294 N1302 1.356 . S
C1295 C1294 1.363 1_455 S
C1295 C1301 1.363 . S
C1296 C1297 1.363 1_455 S
C1296 C1301 1.379 1_554 S
C1296 N1303 1.356 . S
C1297 C1296 1.363 1_655 S
C1297 C1300 1.363 . S
N1298 C1300 1.356 . S
N1298 H1310 0.984 . S
N1298 H1311 0.985 . S
N1299 C1301 1.356 . S
N1299 H1304 0.984 . S
N1299 H1305 0.985 . S
C1300 C1294 1.379 1_554 S
C1300 C1297 1.363 . S
C1300 N1298 1.356 . S
C1301 C1295 1.363 . S
C1301 C1296 1.379 1_556 S
C1301 N1299 1.356 . S
N1302 C1294 1.356 . S
N1302 H1308 0.984 . S
N1302 H1309 0.984 . S
N1303 C1296 1.356 . S
N1303 H1306 0.984 . S
N1303 H1307 0.985 . S
H1304 N1299 0.984 . S
H1305 N1299 0.985 . S
H1306 N1303 0.984 . S
H1307 N1303 0.985 . S
H1308 N1302 0.984 . S
H1309 N1302 0.984 . S
H1310 N1298 0.984 . S
H1311 N1298 0.985 . S
C1312 C1313 1.363 . S
C1312 C1318 1.379 . S
C1312 N1320 1.356 . S
C1313 C1312 1.363 . S
C1313 C1319 1.363 . S
C1314 C1315 1.363 . S
C1314 C1319 1.379 . S
C1314 N1321 1.356 . S
C1315 C1314 1.363 . S
C1315 C1318 1.363 . S
N1316 C1318 1.356 . S
N1316 H1328 0.984 . S
N1316 H1329 0.985 . S
N1317 C1319 1.356 . S
N1317 H1322 0.984 . S
N1317 H1323 0.985 . S
C1318 C1312 1.379 . S
C1318 C1315 1.363 . S
C1318 N1316 1.356 . S
C1319 C1313 1.363 . S
C1319 C1314 1.379 . S
C1319 N1317 1.356 . S
N1320 C1312 1.356 . S
N1320 H1326 0.990 . S
N1320 H1327 0.984 . S
N1321 C1314 1.356 . S
N1321 H1324 0.984 . S
N1321 H1325 0.985 . S
H1322 N1317 0.984 . S
H1323 N1317 0.985 . S
H1324 N1321 0.984 . S
H1325 N1321 0.985 . S
H1326 N1320 0.990 . S
H1327 N1320 0.984 . S
H1328 N1316 0.984 . S
H1329 N1316 0.985 . S
C1330 C1331 1.363 . S
C1330 C1336 1.379 . S
C1330 N1338 1.356 . S
C1331 C1330 1.363 . S
C1331 C1337 1.363 . S
C1332 C1333 1.363 . S
C1332 C1337 1.379 . S
C1332 N1339 1.356 . S
C1333 C1332 1.363 . S
C1333 C1336 1.363 . S
N1334 C1336 1.356 . S
N1334 H1346 0.984 . S
N1334 H1347 0.985 . S
N1335 C1337 1.356 . S
N1335 H1340 0.984 . S
N1335 H1341 0.985 . S
C1336 C1330 1.379 . S
C1336 C1333 1.363 . S
C1336 N1334 1.356 . S
C1337 C1331 1.363 . S
C1337 C1332 1.379 . S
C1337 N1335 1.356 . S
N1338 C1330 1.356 . S
N1338 H1344 0.984 . S
N1338 H1345 0.984 . S
N1339 C1332 1.356 . S
N1339 H1342 0.984 . S
N1339 H1343 0.985 . S
H1340 N1335 0.984 . S
H1341 N1335 0.985 . S
H1342 N1339 0.984 . S
H1343 N1339 0.985 . S
H1344 N1338 0.984 . S
H1345 N1338 0.984 . S
H1346 N1334 0.984 . S
H1347 N1334 0.985 . S
C1348 C1349 1.363 . S
C1348 C1354 1.379 . S
C1348 N1356 1.356 . S
C1349 C1348 1.363 . S
C1349 C1355 1.363 . S
C1350 C1351 1.363 . S
C1350 C1355 1.379 . S
C1350 N1357 1.356 . S
C1351 C1350 1.363 . S
C1351 C1354 1.363 . S
N1352 C1354 1.356 . S
N1352 H1364 0.984 . S
N1352 H1365 0.985 . S
N1353 C1355 1.356 . S
N1353 H1358 0.984 . S
N1353 H1359 0.985 . S
C1354 C1348 1.379 . S
C1354 C1351 1.363 . S
C1354 N1352 1.356 . S
C1355 C1349 1.363 . S
C1355 C1350 1.379 . S
C1355 N1353 1.356 . S
N1356 C1348 1.356 . S
N1356 H1362 0.985 . S
N1356 H1363 0.984 . S
N1357 C1350 1.356 . S
N1357 H1360 0.984 . S
N1357 H1361 0.985 . S
H1358 N1353 0.984 . S
H1359 N1353 0.985 . S
H1360 N1357 0.984 . S
H1361 N1357 0.985 . S
H1362 N1356 0.985 . S
H1363 N1356 0.984 . S
H1364 N1352 0.984 . S
H1365 N1352 0.985 . S
C1366 C1367 1.363 . S
C1366 C1372 1.379 . S
C1366 N1374 1.356 . S
C1367 C1366 1.363 . S
C1367 C1373 1.363 . S
C1368 C1369 1.363 . S
C1368 C1373 1.379 . S
C1368 N1375 1.356 . S
C1369 C1368 1.363 . S
C1369 C1372 1.363 . S
N1370 C1372 1.356 . S
N1370 H1382 0.984 . S
N1370 H1383 0.985 . S
N1371 C1373 1.356 . S
N1371 H1376 0.984 . S
N1371 H1377 0.985 . S
C1372 C1366 1.379 . S
C1372 C1369 1.363 . S
C1372 N1370 1.356 . S
C1373 C1367 1.363 . S
C1373 C1368 1.379 . S
C1373 N1371 1.356 . S
N1374 C1366 1.356 . S
N1374 H1380 0.984 . S
N1374 H1381 0.984 . S
N1375 C1368 1.356 . S
N1375 H1378 0.984 . S
N1375 H1379 0.992 . S
H1376 N1371 0.984 . S
H1377 N1371 0.985 . S
H1378 N1375 0.984 . S
H1379 N1375 0.992 . S
H1380 N1374 0.984 . S
H1381 N1374 0.984 . S
H1382 N1370 0.984 . S
H1383 N1370 0.985 . S
C1384 C1385 1.363 . S
C1384 C1390 1.379 . S
C1384 N1392 1.356 . S
C1385 C1384 1.363 . S
C1385 C1391 1.363 . S
C1386 C1387 1.363 . S
C1386 C1391 1.379 . S
C1386 N1393 1.356 . S
C1387 C1386 1.363 . S
C1387 C1390 1.363 . S
N1388 C1390 1.356 . S
N1388 H1400 0.984 . S
N1388 H1401 0.985 . S
N1389 C1391 1.356 . S
N1389 H1394 0.984 . S
N1389 H1395 0.985 . S
C1390 C1384 1.379 . S
C1390 C1387 1.363 . S
C1390 N1388 1.356 . S
C1391 C1385 1.363 . S
C1391 C1386 1.379 . S
C1391 N1389 1.356 . S
N1392 C1384 1.356 . S
N1392 H1398 0.984 . S
N1392 H1399 0.984 . S
N1393 C1386 1.356 . S
N1393 H1396 0.984 . S
N1393 H1397 0.985 . S
H1394 N1389 0.984 . S
H1395 N1389 0.985 . S
H1396 N1393 0.984 . S
H1397 N1393 0.985 . S
H1398 N1392 0.984 . S
H1399 N1392 0.984 . S
H1400 N1388 0.984 . S
H1401 N1388 0.985 . S
C1402 C1403 1.363 . S
C1402 C1408 1.379 . S
C1402 N1410 1.356 . S
C1403 C1402 1.363 . S
C1403 C1409 1.363 . S
C1404 C1405 1.363 . S
C1404 C1409 1.379 . S
C1404 N1411 1.356 . S
C1405 C1404 1.363 . S
C1405 C1408 1.363 . S
N1406 C1408 1.356 . S
N1406 H1418 0.984 . S
N1406 H1419 0.985 . S
N1407 C1409 1.356 . S
N1407 H1412 0.984 . S
N1407 H1413 0.985 . S
C1408 C1402 1.379 . S
C1408 C1405 1.363 . S
C1408 N1406 1.356 . S
C1409 C1403 1.363 . S
C1409 C1404 1.379 . S
C1409 N1407 1.356 . S
N1410 C1402 1.356 . S
N1410 H1416 0.984 . S
N1410 H1417 0.984 . S
N1411 C1404 1.356 . S
N1411 H1414 0.984 . S
N1411 H1415 0.985 . S
H1412 N1407 0.984 . S
H1413 N1407 0.985 . S
H1414 N1411 0.984 . S
H1415 N1411 0.985 . S
H1416 N1410 0.984 . S
H1417 N1410 0.984 . S
H1418 N1406 0.984 . S
H1419 N1406 0.985 . S
C1420 C1421 1.363 . S
C1420 C1426 1.379 . S
C1420 N1428 1.356 . S
C1421 C1420 1.363 . S
C1421 C1427 1.363 . S
C1422 C1423 1.363 . S
C1422 C1427 1.379 . S
C1422 N1429 1.356 . S
C1423 C1422 1.363 . S
C1423 C1426 1.363 . S
N1424 C1426 1.356 . S
N1424 H1436 0.984 . S
N1424 H1437 0.985 . S
N1425 C1427 1.356 . S
N1425 H1430 0.984 . S
N1425 H1431 0.985 . S
C1426 C1420 1.379 . S
C1426 C1423 1.363 . S
C1426 N1424 1.356 . S
C1427 C1421 1.363 . S
C1427 C1422 1.379 . S
C1427 N1425 1.356 . S
N1428 C1420 1.356 . S
N1428 H1434 0.984 . S
N1428 H1435 0.984 . S
N1429 C1422 1.356 . S
N1429 H1432 0.984 . S
N1429 H1433 0.985 . S
H1430 N1425 0.984 . S
H1431 N1425 0.985 . S
H1432 N1429 0.984 . S
H1433 N1429 0.985 . S
H1434 N1428 0.984 . S
H1435 N1428 0.984 . S
H1436 N1424 0.984 . S
H1437 N1424 0.985 . S
C1438 C1439 1.363 . S
C1438 C1444 1.379 . S
C1438 N1446 1.356 . S
C1439 C1438 1.363 . S
C1439 C1445 1.363 . S
C1440 C1441 1.363 . S
C1440 C1445 1.379 . S
C1440 N1447 1.356 . S
C1441 C1440 1.363 . S
C1441 C1444 1.363 . S
N1442 C1444 1.356 . S
N1442 H1454 0.984 . S
N1442 H1455 0.985 . S
N1443 C1445 1.356 . S
N1443 H1448 0.984 . S
N1443 H1449 0.985 . S
C1444 C1438 1.379 . S
C1444 C1441 1.363 . S
C1444 N1442 1.356 . S
C1445 C1439 1.363 . S
C1445 C1440 1.379 . S
C1445 N1443 1.356 . S
N1446 C1438 1.356 . S
N1446 H1452 0.984 . S
N1446 H1453 0.984 . S
N1447 C1440 1.356 . S
N1447 H1450 0.984 . S
N1447 H1451 0.985 . S
H1448 N1443 0.984 . S
H1449 N1443 0.985 . S
H1450 N1447 0.984 . S
H1451 N1447 0.985 . S
H1452 N1446 0.984 . S
H1453 N1446 0.984 . S
H1454 N1442 0.984 . S
H1455 N1442 0.985 . S
C1456 C1457 1.363 . S
C1456 C1462 1.379 . S
C1456 N1464 1.356 . S
C1457 C1456 1.363 . S
C1457 C1463 1.363 . S
C1458 C1459 1.363 . S
C1458 C1463 1.379 . S
C1458 N1465 1.356 . S
C1459 C1458 1.363 . S
C1459 C1462 1.363 . S
N1460 C1462 1.356 . S
N1460 H1472 0.984 . S
N1460 H1473 0.985 . S
N1461 C1463 1.356 . S
N1461 H1466 0.984 . S
N1461 H1467 0.985 . S
C1462 C1456 1.379 . S
C1462 C1459 1.363 . S
C1462 N1460 1.356 . S
C1463 C1457 1.363 . S
C1463 C1458 1.379 . S
C1463 N1461 1.356 . S
N1464 C1456 1.356 . S
N1464 H1470 0.984 . S
N1464 H1471 0.984 . S
N1465 C1458 1.356 . S
N1465 H1468 0.984 . S
N1465 H1469 0.985 . S
H1466 N1461 0.984 . S
H1467 N1461 0.985 . S
H1468 N1465 0.984 . S
H1469 N1465 0.985 . S
H1470 N1464 0.984 . S
H1471 N1464 0.984 . S
H1472 N1460 0.984 . S
H1473 N1460 0.985 . S
C1474 C1475 1.363 . S
C1474 C1480 1.379 . S
C1474 N1482 1.356 . S
C1475 C1474 1.363 . S
C1475 C1481 1.363 . S
C1476 C1477 1.363 . S
C1476 C1481 1.379 . S
C1476 N1483 1.356 . S
C1477 C1476 1.363 . S
C1477 C1480 1.363 . S
N1478 C1480 1.356 . S
N1478 H1490 0.984 . S
N1478 H1491 0.985 . S
N1479 C1481 1.356 . S
N1479 H1484 0.984 . S
N1479 H1485 0.985 1_545 S
C1480 C1474 1.379 . S
C1480 C1477 1.363 . S
C1480 N1478 1.356 . S
C1481 C1475 1.363 . S
C1481 C1476 1.379 . S
C1481 N1479 1.356 . S
N1482 C1474 1.356 . S
N1482 H1488 0.984 . S
N1482 H1489 0.984 . S
N1483 C1476 1.356 . S
N1483 H1486 0.984 . S
N1483 H1487 0.985 . S
H1484 N1479 0.984 . S
H1485 N1479 0.985 1_565 S
H1486 N1483 0.984 . S
H1487 N1483 0.985 . S
H1488 N1482 0.984 . S
H1489 N1482 0.984 . S
H1490 N1478 0.984 . S
H1491 N1478 0.985 . S
C1492 C1493 1.363 . S
C1492 C1498 1.379 . S
C1492 N1500 1.356 . S
C1493 C1492 1.363 . S
C1493 C1499 1.363 . S
C1494 C1495 1.363 . S
C1494 C1499 1.379 . S
C1494 N1501 1.356 . S
C1495 C1494 1.363 . S
C1495 C1498 1.363 . S
N1496 C1498 1.356 . S
N1496 H1508 0.984 . S
N1496 H1509 0.985 . S
N1497 C1499 1.356 . S
N1497 H1502 0.984 . S
N1497 H1503 0.985 . S
C1498 C1492 1.379 . S
C1498 C1495 1.363 . S
C1498 N1496 1.356 . S
C1499 C1493 1.363 . S
C1499 C1494 1.379 . S
C1499 N1497 1.356 . S
N1500 C1492 1.356 . S
N1500 H1506 0.984 . S
N1500 H1507 0.984 . S
N1501 C1494 1.356 . S
N1501 H1504 0.984 . S
N1501 H1505 0.985 . S
H1502 N1497 0.984 . S
H1503 N1497 0.985 . S
H1504 N1501 0.984 . S
H1505 N1501 0.985 . S
H1506 N1500 0.984 . S
H1507 N1500 0.984 . S
H1508 N1496 0.984 . S
H1509 N1496 0.985 . S
C1510 C1511 1.363 . S
C1510 C1516 1.379 . S
C1510 N1518 1.356 . S
C1511 C1510 1.363 . S
C1511 C1517 1.363 . S
C1512 C1513 1.363 . S
C1512 C1517 1.379 . S
C1512 N1519 1.356 . S
C1513 C1512 1.363 . S
C1513 C1516 1.363 . S
N1514 C1516 1.356 . S
N1514 H1526 0.983 1_565 S
N1514 H1527 0.985 . S
N1515 C1517 1.356 . S
N1515 H1520 0.984 . S
N1515 H1521 0.985 . S
C1516 C1510 1.379 . S
C1516 C1513 1.363 . S
C1516 N1514 1.356 . S
C1517 C1511 1.363 . S
C1517 C1512 1.379 . S
C1517 N1515 1.356 . S
N1518 C1510 1.356 . S
N1518 H1524 0.984 . S
N1518 H1525 0.984 . S
N1519 C1512 1.356 . S
N1519 H1522 0.984 . S
N1519 H1523 0.985 . S
H1520 N1515 0.984 . S
H1521 N1515 0.985 . S
H1522 N1519 0.984 . S
H1523 N1519 0.985 . S
H1524 N1518 0.984 . S
H1525 N1518 0.984 . S
H1526 N1514 0.983 1_545 S
H1527 N1514 0.985 . S
C1528 C1529 1.363 . S
C1528 C1534 1.379 . S
C1528 N1536 1.356 . S
C1529 C1528 1.363 . S
C1529 C1535 1.363 . S
C1530 C1531 1.363 . S
C1530 C1535 1.379 . S
C1530 N1537 1.356 . S
C1531 C1530 1.363 . S
C1531 C1534 1.363 . S
N1532 C1534 1.356 . S
N1532 H1544 0.984 . S
N1532 H1545 0.985 . S
N1533 C1535 1.356 . S
N1533 H1538 0.984 . S
N1533 H1539 0.985 . S
C1534 C1528 1.379 . S
C1534 C1531 1.363 . S
C1534 N1532 1.356 . S
C1535 C1529 1.363 . S
C1535 C1530 1.379 . S
C1535 N1533 1.356 . S
N1536 C1528 1.356 . S
N1536 H1542 0.984 . S
N1536 H1543 0.984 . S
N1537 C1530 1.356 . S
N1537 H1540 0.984 . S
N1537 H1541 0.985 . S
H1538 N1533 0.984 . S
H1539 N1533 0.985 . S
H1540 N1537 0.984 . S
H1541 N1537 0.985 . S
H1542 N1536 0.984 . S
H1543 N1536 0.984 . S
H1544 N1532 0.984 . S
H1545 N1532 0.985 . S
C1546 C1547 1.363 . S
C1546 C1552 1.379 . S
C1546 N1554 1.356 . S
C1547 C1546 1.363 . S
C1547 C1553 1.363 . S
C1548 C1549 1.363 . S
C1548 C1553 1.379 . S
C1548 N1555 1.356 . S
C1549 C1548 1.363 . S
C1549 C1552 1.363 . S
N1550 C1552 1.356 . S
N1550 H1562 0.984 . S
N1550 H1563 0.985 . S
N1551 C1553 1.356 . S
N1551 H1556 0.984 . S
N1551 H1557 0.985 . S
C1552 C1546 1.379 . S
C1552 C1549 1.363 . S
C1552 N1550 1.356 . S
C1553 C1547 1.363 . S
C1553 C1548 1.379 . S
C1553 N1551 1.356 . S
N1554 C1546 1.356 . S
N1554 H1560 0.984 . S
N1554 H1561 0.984 . S
N1555 C1548 1.356 . S
N1555 H1558 0.984 . S
N1555 H1559 0.985 . S
H1556 N1551 0.984 . S
H1557 N1551 0.985 . S
H1558 N1555 0.984 . S
H1559 N1555 0.985 . S
H1560 N1554 0.984 . S
H1561 N1554 0.984 . S
H1562 N1550 0.984 . S
H1563 N1550 0.985 . S
C1564 C1565 1.363 . S
C1564 C1570 1.379 . S
C1564 N1572 1.356 . S
C1565 C1564 1.363 . S
C1565 C1571 1.363 . S
C1566 C1567 1.363 . S
C1566 C1571 1.379 . S
C1566 N1573 1.356 . S
C1567 C1566 1.363 . S
C1567 C1570 1.363 . S
N1568 C1570 1.356 . S
N1568 H1580 0.984 . S
N1568 H1581 0.985 . S
N1569 C1571 1.356 . S
N1569 H1574 0.984 . S
N1569 H1575 0.985 . S
C1570 C1564 1.379 . S
C1570 C1567 1.363 . S
C1570 N1568 1.356 . S
C1571 C1565 1.363 . S
C1571 C1566 1.379 . S
C1571 N1569 1.356 . S
N1572 C1564 1.356 . S
N1572 H1578 0.984 . S
N1572 H1579 0.984 . S
N1573 C1566 1.356 . S
N1573 H1576 0.984 . S
N1573 H1577 0.985 . S
H1574 N1569 0.984 . S
H1575 N1569 0.985 . S
H1576 N1573 0.984 . S
H1577 N1573 0.985 . S
H1578 N1572 0.984 . S
H1579 N1572 0.984 . S
H1580 N1568 0.984 . S
H1581 N1568 0.985 . S
C1582 C1583 1.363 . S
C1582 C1588 1.379 . S
C1582 N1590 1.356 . S
C1583 C1582 1.363 . S
C1583 C1589 1.363 . S
C1584 C1585 1.363 . S
C1584 C1589 1.379 . S
C1584 N1591 1.356 . S
C1585 C1584 1.363 . S
C1585 C1588 1.363 . S
N1586 C1588 1.356 . S
N1586 H1598 0.984 . S
N1586 H1599 0.985 . S
N1587 C1589 1.356 . S
N1587 H1592 0.984 . S
N1587 H1593 0.985 . S
C1588 C1582 1.379 . S
C1588 C1585 1.363 . S
C1588 N1586 1.356 . S
C1589 C1583 1.363 . S
C1589 C1584 1.379 . S
C1589 N1587 1.356 . S
N1590 C1582 1.356 . S
N1590 H1596 0.984 . S
N1590 H1597 0.984 . S
N1591 C1584 1.356 . S
N1591 H1594 0.984 . S
N1591 H1595 0.985 . S
H1592 N1587 0.984 . S
H1593 N1587 0.985 . S
H1594 N1591 0.984 . S
H1595 N1591 0.985 . S
H1596 N1590 0.984 . S
H1597 N1590 0.984 . S
H1598 N1586 0.984 . S
H1599 N1586 0.985 . S
C449 C13 1.594 . S
C451 C29 1.594 . S
C467 C55 1.589 . S
C469 C27 1.590 . S
C485 C85 1.596 . S
C487 C57 1.596 . S
C503 C98 1.589 . S
C505 C82 1.589 . S
C521 C113 1.594 . S
C523 C141 1.594 . S
C539 C167 1.589 . S
C541 C127 1.589 . S
C557 C169 1.595 . S
C559 C197 1.595 . S
C575 C223 1.591 . S
C577 C183 1.591 . S
C593 C224 1.582 . S
C595 C265 1.580 . S
C611 C238 1.595 . S
C613 C279 1.593 . S
C629 C321 1.582 . S
C631 C280 1.581 . S
C647 C295 1.595 . S
C649 C334 1.593 . S
C665 C377 1.580 . S
C667 C348 1.582 . S
C683 C390 1.595 . S
C685 C362 1.596 . S
C701 C432 1.580 . S
C703 C392 1.580 . S
C719 C406 1.594 . S
C721 C446 1.594 . S
C737 C350 1.653 . S
C739 C1 1.652 . S
C755 C15 1.651 . S
C757 C336 1.647 . S
C773 C41 1.653 . S
C775 C378 1.654 . S
C791 C43 1.650 . S
C793 C365 1.646 . S
C809 C418 1.653 . S
C811 C69 1.653 . S
C827 C70 1.651 . S
C829 C404 1.647 . S
C845 C97 1.654 . S
C847 C434 1.653 . S
C863 C420 1.650 . S
C865 C110 1.647 . S
C881 C125 1.653 . S
C883 C250 1.653 . S
C899 C139 1.651 . S
C901 C236 1.647 . S
C917 C153 1.653 . S
C919 C267 1.653 . S
C935 C155 1.651 . S
C937 C253 1.647 . S
C953 C181 1.653 . S
C955 C307 1.653 . S
C971 C292 1.650 . S
C973 C195 1.647 . S
C989 C322 1.653 . S
C991 C209 1.653 . S
C1007 C211 1.651 . S
C1009 C309 1.648 . S
C1025 C12 1.598 . S
C1027 C56 1.596 . S
C1043 C26 1.595 . S
C1045 C407 1.594 . S
C1061 C28 1.597 . S
C1063 C196 1.595 . S
C1079 C54 1.595 . S
C1081 C335 1.595 . S
C1097 C83 1.595 . S
C1099 C363 1.593 . S
C1115 C140 1.597 . S
C1117 C84 1.595 . S
C1133 C278 1.595 . S
C1135 C99 1.595 . S
C1151 C168 1.595 . S
C1153 C112 1.597 . S
C1169 C126 1.595 . S
C1171 C294 1.593 . S
C1187 C447 1.595 . S
C1189 C166 1.595 . S
C1205 C182 1.593 . S
C1207 C239 1.593 . S
C1223 C222 1.594 . S
C1225 C391 1.593 . S
C1241 C281 1.586 . S
C1243 C225 1.584 . S
C1259 C264 1.585 . S
C1261 C433 1.585 . S
C1277 C376 1.585 . S
C1279 C320 1.584 . S
C1295 C393 1.586 . S
C1297 C349 1.584 . S
C1313 C0 1.363 . S
C1315 C14 1.363 . S
C1331 C40 1.363 . S
C1333 C42 1.363 . S
C1349 C68 1.362 . S
C1351 C71 1.363 . S
C1367 C96 1.362 . S
C1369 C111 1.363 . S
C1385 C138 1.363 . S
C1387 C124 1.363 . S
C1403 C152 1.363 . S
C1405 C154 1.363 . S
C1421 C180 1.363 . S
C1423 C194 1.363 . S
C1439 C208 1.363 . S
C1441 C210 1.363 . S
C1457 C237 1.367 . S
C1459 C251 1.371 . S
C1475 C266 1.368 . S
C1477 C252 1.371 . S
C1493 C293 1.368 . S
C1495 C306 1.371 . S
C1511 C308 1.367 . S
C1513 C323 1.372 . S
C1529 C351 1.368 . S
C1531 C337 1.371 . S
C1547 C364 1.368 . S
C1549 C379 1.371 . S
C1565 C419 1.368 . S
C1567 C405 1.372 . S
C1583 C421 1.368 . S
C1585 C435 1.372 . S
