# Generated by pormake.
# Topology ukv, (4)-cn, num edge types: 1
# Building blocks:
#     Node 0, Type 0, BuildingBlock: QUQFOY_clean_sbu_1, # of connection points: 4
#     Node 1, Type 0, BuildingBlock: QUQFOY_clean_sbu_1, # of connection points: 4
#     Node 2, Type 0, BuildingBlock: QUQFOY_clean_sbu_1, # of connection points: 4
#     Node 3, Type 0, BuildingBlock: QUQFOY_clean_sbu_1, # of connection points: 4
#     Node 4, Type 0, BuildingBlock: QUQFOY_clean_sbu_1, # of connection points: 4
#     Node 5, Type 0, BuildingBlock: QUQFOY_clean_sbu_1, # of connection points: 4
#     Node 6, Type 0, BuildingBlock: QUQFOY_clean_sbu_1, # of connection points: 4
#     Node 7, Type 0, BuildingBlock: QUQFOY_clean_sbu_1, # of connection points: 4
#     Node 8, Type 0, BuildingBlock: QUQFOY_clean_sbu_1, # of connection points: 4
#     Node 9, Type 0, BuildingBlock: QUQFOY_clean_sbu_1, # of connection points: 4
#     Node 10, Type 0, BuildingBlock: QUQFOY_clean_sbu_1, # of connection points: 4
#     Node 11, Type 0, BuildingBlock: QUQFOY_clean_sbu_1, # of connection points: 4
#     Node 12, Type 0, BuildingBlock: QUQFOY_clean_sbu_1, # of connection points: 4
#     Node 13, Type 0, BuildingBlock: QUQFOY_clean_sbu_1, # of connection points: 4
#     Node 14, Type 0, BuildingBlock: QUQFOY_clean_sbu_1, # of connection points: 4
#     Node 15, Type 0, BuildingBlock: QUQFOY_clean_sbu_1, # of connection points: 4
#     Node 16, Type 0, BuildingBlock: QUQFOY_clean_sbu_1, # of connection points: 4
#     Node 17, Type 0, BuildingBlock: QUQFOY_clean_sbu_1, # of connection points: 4
#     Node 18, Type 0, BuildingBlock: QUQFOY_clean_sbu_1, # of connection points: 4
#     Node 19, Type 0, BuildingBlock: QUQFOY_clean_sbu_1, # of connection points: 4
#     Node 20, Type 0, BuildingBlock: QUQFOY_clean_sbu_1, # of connection points: 4
#     Node 21, Type 0, BuildingBlock: QUQFOY_clean_sbu_1, # of connection points: 4
#     Node 22, Type 0, BuildingBlock: QUQFOY_clean_sbu_1, # of connection points: 4
#     Node 23, Type 0, BuildingBlock: QUQFOY_clean_sbu_1, # of connection points: 4
#     Node 24, Type 0, BuildingBlock: QUQFOY_clean_sbu_1, # of connection points: 4
#     Node 25, Type 0, BuildingBlock: QUQFOY_clean_sbu_1, # of connection points: 4
#     Node 26, Type 0, BuildingBlock: QUQFOY_clean_sbu_1, # of connection points: 4
#     Node 27, Type 0, BuildingBlock: QUQFOY_clean_sbu_1, # of connection points: 4
#     Node 28, Type 0, BuildingBlock: QUQFOY_clean_sbu_1, # of connection points: 4
#     Node 29, Type 0, BuildingBlock: QUQFOY_clean_sbu_1, # of connection points: 4
#     Node 30, Type 0, BuildingBlock: QUQFOY_clean_sbu_1, # of connection points: 4
#     Node 31, Type 0, BuildingBlock: QUQFOY_clean_sbu_1, # of connection points: 4
#     Node 32, Type 0, BuildingBlock: QUQFOY_clean_sbu_1, # of connection points: 4
#     Node 33, Type 0, BuildingBlock: QUQFOY_clean_sbu_1, # of connection points: 4
#     Node 34, Type 0, BuildingBlock: QUQFOY_clean_sbu_1, # of connection points: 4
#     Node 35, Type 0, BuildingBlock: QUQFOY_clean_sbu_1, # of connection points: 4
#     Edge 36, Type (0, 0), BuildingBlock: UVAHIK_clean_linker_0, # of connection points: 2
#     Edge 37, Type (0, 0), BuildingBlock: UVAHIK_clean_linker_0, # of connection points: 2
#     Edge 38, Type (0, 0), BuildingBlock: UVAHIK_clean_linker_0, # of connection points: 2
#     Edge 39, Type (0, 0), BuildingBlock: UVAHIK_clean_linker_0, # of connection points: 2
#     Edge 40, Type (0, 0), BuildingBlock: UVAHIK_clean_linker_0, # of connection points: 2
#     Edge 41, Type (0, 0), BuildingBlock: UVAHIK_clean_linker_0, # of connection points: 2
#     Edge 42, Type (0, 0), BuildingBlock: UVAHIK_clean_linker_0, # of connection points: 2
#     Edge 43, Type (0, 0), BuildingBlock: UVAHIK_clean_linker_0, # of connection points: 2
#     Edge 44, Type (0, 0), BuildingBlock: UVAHIK_clean_linker_0, # of connection points: 2
#     Edge 45, Type (0, 0), BuildingBlock: UVAHIK_clean_linker_0, # of connection points: 2
#     Edge 46, Type (0, 0), BuildingBlock: UVAHIK_clean_linker_0, # of connection points: 2
#     Edge 47, Type (0, 0), BuildingBlock: UVAHIK_clean_linker_0, # of connection points: 2
#     Edge 48, Type (0, 0), BuildingBlock: UVAHIK_clean_linker_0, # of connection points: 2
#     Edge 49, Type (0, 0), BuildingBlock: UVAHIK_clean_linker_0, # of connection points: 2
#     Edge 50, Type (0, 0), BuildingBlock: UVAHIK_clean_linker_0, # of connection points: 2
#     Edge 51, Type (0, 0), BuildingBlock: UVAHIK_clean_linker_0, # of connection points: 2
#     Edge 52, Type (0, 0), BuildingBlock: UVAHIK_clean_linker_0, # of connection points: 2
#     Edge 53, Type (0, 0), BuildingBlock: UVAHIK_clean_linker_0, # of connection points: 2
#     Edge 54, Type (0, 0), BuildingBlock: UVAHIK_clean_linker_0, # of connection points: 2
#     Edge 55, Type (0, 0), BuildingBlock: UVAHIK_clean_linker_0, # of connection points: 2
#     Edge 56, Type (0, 0), BuildingBlock: UVAHIK_clean_linker_0, # of connection points: 2
#     Edge 57, Type (0, 0), BuildingBlock: UVAHIK_clean_linker_0, # of connection points: 2
#     Edge 58, Type (0, 0), BuildingBlock: UVAHIK_clean_linker_0, # of connection points: 2
#     Edge 59, Type (0, 0), BuildingBlock: UVAHIK_clean_linker_0, # of connection points: 2
#     Edge 60, Type (0, 0), BuildingBlock: UVAHIK_clean_linker_0, # of connection points: 2
#     Edge 61, Type (0, 0), BuildingBlock: UVAHIK_clean_linker_0, # of connection points: 2
#     Edge 62, Type (0, 0), BuildingBlock: UVAHIK_clean_linker_0, # of connection points: 2
#     Edge 63, Type (0, 0), BuildingBlock: UVAHIK_clean_linker_0, # of connection points: 2
#     Edge 64, Type (0, 0), BuildingBlock: UVAHIK_clean_linker_0, # of connection points: 2
#     Edge 65, Type (0, 0), BuildingBlock: UVAHIK_clean_linker_0, # of connection points: 2
#     Edge 66, Type (0, 0), BuildingBlock: UVAHIK_clean_linker_0, # of connection points: 2
#     Edge 67, Type (0, 0), BuildingBlock: UVAHIK_clean_linker_0, # of connection points: 2
#     Edge 68, Type (0, 0), BuildingBlock: UVAHIK_clean_linker_0, # of connection points: 2
#     Edge 69, Type (0, 0), BuildingBlock: UVAHIK_clean_linker_0, # of connection points: 2
#     Edge 70, Type (0, 0), BuildingBlock: UVAHIK_clean_linker_0, # of connection points: 2
#     Edge 71, Type (0, 0), BuildingBlock: UVAHIK_clean_linker_0, # of connection points: 2
#     Edge 72, Type (0, 0), BuildingBlock: UVAHIK_clean_linker_0, # of connection points: 2
#     Edge 73, Type (0, 0), BuildingBlock: UVAHIK_clean_linker_0, # of connection points: 2
#     Edge 74, Type (0, 0), BuildingBlock: UVAHIK_clean_linker_0, # of connection points: 2
#     Edge 75, Type (0, 0), BuildingBlock: UVAHIK_clean_linker_0, # of connection points: 2
#     Edge 76, Type (0, 0), BuildingBlock: UVAHIK_clean_linker_0, # of connection points: 2
#     Edge 77, Type (0, 0), BuildingBlock: UVAHIK_clean_linker_0, # of connection points: 2
#     Edge 78, Type (0, 0), BuildingBlock: UVAHIK_clean_linker_0, # of connection points: 2
#     Edge 79, Type (0, 0), BuildingBlock: UVAHIK_clean_linker_0, # of connection points: 2
#     Edge 80, Type (0, 0), BuildingBlock: UVAHIK_clean_linker_0, # of connection points: 2
#     Edge 81, Type (0, 0), BuildingBlock: UVAHIK_clean_linker_0, # of connection points: 2
#     Edge 82, Type (0, 0), BuildingBlock: UVAHIK_clean_linker_0, # of connection points: 2
#     Edge 83, Type (0, 0), BuildingBlock: UVAHIK_clean_linker_0, # of connection points: 2
#     Edge 84, Type (0, 0), BuildingBlock: UVAHIK_clean_linker_0, # of connection points: 2
#     Edge 85, Type (0, 0), BuildingBlock: UVAHIK_clean_linker_0, # of connection points: 2
#     Edge 86, Type (0, 0), BuildingBlock: UVAHIK_clean_linker_0, # of connection points: 2
#     Edge 87, Type (0, 0), BuildingBlock: UVAHIK_clean_linker_0, # of connection points: 2
#     Edge 88, Type (0, 0), BuildingBlock: UVAHIK_clean_linker_0, # of connection points: 2
#     Edge 89, Type (0, 0), BuildingBlock: UVAHIK_clean_linker_0, # of connection points: 2
#     Edge 90, Type (0, 0), BuildingBlock: UVAHIK_clean_linker_0, # of connection points: 2
#     Edge 91, Type (0, 0), BuildingBlock: UVAHIK_clean_linker_0, # of connection points: 2
#     Edge 92, Type (0, 0), BuildingBlock: UVAHIK_clean_linker_0, # of connection points: 2
#     Edge 93, Type (0, 0), BuildingBlock: UVAHIK_clean_linker_0, # of connection points: 2
#     Edge 94, Type (0, 0), BuildingBlock: UVAHIK_clean_linker_0, # of connection points: 2
#     Edge 95, Type (0, 0), BuildingBlock: UVAHIK_clean_linker_0, # of connection points: 2
#     Edge 96, Type (0, 0), BuildingBlock: UVAHIK_clean_linker_0, # of connection points: 2
#     Edge 97, Type (0, 0), BuildingBlock: UVAHIK_clean_linker_0, # of connection points: 2
#     Edge 98, Type (0, 0), BuildingBlock: UVAHIK_clean_linker_0, # of connection points: 2
#     Edge 99, Type (0, 0), BuildingBlock: UVAHIK_clean_linker_0, # of connection points: 2
#     Edge 100, Type (0, 0), BuildingBlock: UVAHIK_clean_linker_0, # of connection points: 2
#     Edge 101, Type (0, 0), BuildingBlock: UVAHIK_clean_linker_0, # of connection points: 2
#     Edge 102, Type (0, 0), BuildingBlock: UVAHIK_clean_linker_0, # of connection points: 2
#     Edge 103, Type (0, 0), BuildingBlock: UVAHIK_clean_linker_0, # of connection points: 2
#     Edge 104, Type (0, 0), BuildingBlock: UVAHIK_clean_linker_0, # of connection points: 2
#     Edge 105, Type (0, 0), BuildingBlock: UVAHIK_clean_linker_0, # of connection points: 2
#     Edge 106, Type (0, 0), BuildingBlock: UVAHIK_clean_linker_0, # of connection points: 2
#     Edge 107, Type (0, 0), BuildingBlock: UVAHIK_clean_linker_0, # of connection points: 2
# Relax obj value: 0.155
# Max RMSD: 0.531
# Mean RMSD: 0.442
data_MOF--net-ukv--node1-QUQFOY_clean_sbu_1--edge1-UVAHIK_clean_linker_0
_symmetry_space_group_name_H-M    P1
_symmetry_Int_Tables_number       1
_symmetry_cell_setting            triclinic
loop_
_symmetry_equiv_pos_as_xyz
'x, y, z'
_cell_length_a     93.633542
_cell_length_b     94.735707
_cell_length_c     29.249791
_cell_angle_alpha  89.294646
_cell_angle_beta   90.261428
_cell_angle_gamma 119.3563
loop_
_atom_site_label
_atom_site_type_symbol
_atom_site_fract_x
_atom_site_fract_y
_atom_site_fract_z
_atom_type_partial_charge
O0 O 0.33539 0.0926 0.14931 0.0
Cd1 Cd 0.31852 0.09575 0.11303 0.0
Cd2 Cd 0.35821 0.12159 0.16006 0.0
O3 O 0.36101 0.10271 0.13505 0.0
O4 O 0.30233 0.07711 0.07642 0.0
O5 O 0.29656 0.08437 0.14276 0.0
C6 C 0.29204 0.07429 0.10924 0.0
C7 C 0.36138 0.12914 0.23565 0.0
C8 C 0.34661 0.09109 0.12977 0.0
C9 C 0.33978 0.13224 0.08752 0.0
O10 O 0.35164 0.13432 0.11363 0.0
O11 O 0.32661 0.1186 0.08408 0.0
O12 O 0.37369 0.13563 0.20772 0.0
O13 O 0.34744 0.11788 0.2207 0.0
O14 O 0.91793 0.23478 0.10289 0.0
Cd15 Cd 0.90805 0.21345 0.14001 0.0
Cd16 Cd 0.88761 0.22557 0.16173 0.0
O17 O 0.90318 0.24599 0.12432 0.0
O18 O 0.92517 0.20676 0.13203 0.0
O19 O 0.91974 0.21386 0.19848 0.0
C20 C 0.92878 0.20994 0.17458 0.0
C21 C 0.88515 0.22281 0.24045 0.0
C22 C 0.91493 0.24648 0.10141 0.0
C23 C 0.87251 0.19439 0.11095 0.0
O24 O 0.87086 0.20619 0.12471 0.0
O25 O 0.88601 0.19436 0.1168 0.0
O26 O 0.8773 0.22868 0.21779 0.0
O27 O 0.89513 0.21964 0.21833 0.0
O28 O 0.75319 0.67248 0.08463 0.0
Cd29 Cd 0.77423 0.67965 0.12248 0.0
Cd30 Cd 0.75681 0.64648 0.14103 0.0
O31 O 0.73847 0.64629 0.1008 0.0
O32 O 0.78497 0.70394 0.11968 0.0
O33 O 0.77532 0.68975 0.18344 0.0
C34 C 0.78174 0.70358 0.1626 0.0
C35 C 0.75723 0.645 0.22013 0.0
C36 C 0.74019 0.65894 0.08023 0.0
C37 C 0.7891 0.65909 0.09309 0.0
O38 O 0.77603 0.64674 0.10687 0.0
O39 O 0.79114 0.67331 0.09821 0.0
O40 O 0.75042 0.63185 0.19646 0.0
O41 O 0.76278 0.65865 0.1986 0.0
O42 O 0.09534 0.32493 0.39909 0.0
Cd43 Cd 0.10851 0.31782 0.35838 0.0
Cd44 Cd 0.12396 0.35022 0.34243 0.0
O45 O 0.10604 0.3509 0.3815 0.0
O46 O 0.09439 0.29368 0.35965 0.0
O47 O 0.09842 0.30858 0.29739 0.0
C48 C 0.09081 0.29462 0.31753 0.0
C49 C 0.12791 0.35513 0.26458 0.0
C50 C 0.09557 0.33837 0.40311 0.0
C51 C 0.14363 0.33715 0.38917 0.0
O52 O 0.14267 0.34965 0.37787 0.0
O53 O 0.1317 0.32305 0.38132 0.0
O54 O 0.1335 0.36701 0.293 0.0
O55 O 0.11923 0.34058 0.28059 0.0
O56 O 0.68064 0.75541 0.40608 0.0
Cd57 Cd 0.68556 0.77601 0.36898 0.0
Cd58 Cd 0.65241 0.7547 0.34926 0.0
O59 O 0.65531 0.73753 0.38625 0.0
O60 O 0.71016 0.7889 0.37192 0.0
O61 O 0.69649 0.77858 0.3082 0.0
C62 C 0.71034 0.78585 0.32914 0.0
C63 C 0.65177 0.75704 0.27035 0.0
C64 C 0.66843 0.74117 0.40804 0.0
C65 C 0.66042 0.78552 0.39767 0.0
O66 O 0.64944 0.77143 0.38594 0.0
O67 O 0.67556 0.79021 0.39094 0.0
O68 O 0.63836 0.74791 0.29256 0.0
O69 O 0.66529 0.76374 0.29303 0.0
O70 O 0.22134 0.91463 0.33509 0.0
Cd71 Cd 0.20118 0.90061 0.29529 0.0
Cd72 Cd 0.21761 0.88343 0.28929 0.0
O73 O 0.23583 0.90212 0.32609 0.0
O74 O 0.19213 0.9152 0.27792 0.0
O75 O 0.20422 0.90678 0.22901 0.0
C76 C 0.19788 0.91588 0.23743 0.0
C77 C 0.22053 0.87578 0.2168 0.0
C78 C 0.23426 0.9137 0.34223 0.0
C79 C 0.18421 0.86684 0.33365 0.0
O80 O 0.19732 0.86662 0.32418 0.0
O81 O 0.18267 0.87914 0.32341 0.0
O82 O 0.22529 0.87087 0.25211 0.0
O83 O 0.21513 0.88582 0.22281 0.0
O84 O 0.67535 0.90152 0.88815 0.0
Cd85 Cd 0.68258 0.88792 0.85031 0.0
Cd86 Cd 0.64961 0.87177 0.83714 0.0
O87 O 0.64872 0.88954 0.87512 0.0
O88 O 0.70692 0.90179 0.85246 0.0
O89 O 0.69264 0.89747 0.7889 0.0
C90 C 0.70653 0.90506 0.80977 0.0
C91 C 0.64392 0.86776 0.7598 0.0
C92 C 0.66153 0.90074 0.89352 0.0
C93 C 0.66377 0.85338 0.8853 0.0
O94 O 0.65081 0.85356 0.87307 0.0
O95 O 0.6778 0.86557 0.87715 0.0
O96 O 0.63222 0.86198 0.78968 0.0
O97 O 0.65879 0.87652 0.77408 0.0
O98 O 0.0753 0.7623 0.85338 0.0
Cd99 Cd 0.08865 0.78337 0.81666 0.0
Cd100 Cd 0.10316 0.76584 0.79378 0.0
O101 O 0.08461 0.74643 0.82857 0.0
O102 O 0.07486 0.79395 0.82399 0.0
O103 O 0.07841 0.78516 0.75774 0.0
C104 C 0.07101 0.79105 0.78146 0.0
C105 C 0.10809 0.7675 0.71622 0.0
C106 C 0.07466 0.74859 0.85303 0.0
C107 C 0.12325 0.79622 0.84732 0.0
O108 O 0.12189 0.78307 0.83238 0.0
O109 O 0.11166 0.79947 0.84184 0.0
O110 O 0.11353 0.76025 0.743 0.0
O111 O 0.09895 0.77283 0.73331 0.0
O112 O 0.24658 0.32411 0.90408 0.0
Cd113 Cd 0.22545 0.31851 0.8683 0.0
Cd114 Cd 0.24549 0.35111 0.8473 0.0
O115 O 0.26383 0.34926 0.88204 0.0
O116 O 0.21321 0.2943 0.87367 0.0
O117 O 0.22323 0.30743 0.80852 0.0
C118 C 0.21637 0.29391 0.831 0.0
C119 C 0.2431 0.35247 0.76858 0.0
C120 C 0.2608 0.33647 0.90434 0.0
C121 C 0.21435 0.34192 0.89848 0.0
O122 O 0.22838 0.35321 0.88599 0.0
O123 O 0.21018 0.32714 0.89138 0.0
O124 O 0.25164 0.36558 0.7915 0.0
O125 O 0.23683 0.3388 0.79038 0.0
O126 O 0.90573 0.68334 0.58381 0.0
Cd127 Cd 0.89186 0.6883 0.62814 0.0
Cd128 Cd 0.88001 0.65633 0.64143 0.0
O129 O 0.89949 0.6584 0.60311 0.0
O130 O 0.90409 0.71252 0.62696 0.0
O131 O 0.90263 0.69797 0.68808 0.0
C132 C 0.90885 0.71195 0.668 0.0
C133 C 0.87563 0.65069 0.71884 0.0
C134 C 0.90802 0.67126 0.57979 0.0
C135 C 0.85742 0.6666 0.59818 0.0
O136 O 0.8604 0.65505 0.60578 0.0
O137 O 0.86793 0.68105 0.60871 0.0
O138 O 0.8714 0.63911 0.68984 0.0
O139 O 0.88337 0.66546 0.70382 0.0
O140 O 0.32473 0.24352 0.6008 0.0
Cd141 Cd 0.31797 0.22284 0.63964 0.0
Cd142 Cd 0.3506 0.23922 0.65496 0.0
O143 O 0.35121 0.25782 0.61588 0.0
O144 O 0.29358 0.21238 0.64014 0.0
O145 O 0.30869 0.22203 0.70217 0.0
C146 C 0.29445 0.21559 0.68306 0.0
C147 C 0.35695 0.23976 0.73145 0.0
C148 C 0.33845 0.25634 0.59594 0.0
C149 C 0.33741 0.20744 0.6075 0.0
O150 O 0.35001 0.22031 0.62014 0.0
O151 O 0.32315 0.20557 0.6138 0.0
O152 O 0.36843 0.2459 0.70095 0.0
O153 O 0.34199 0.23455 0.71856 0.0
O154 O 0.76741 0.07356 0.60364 0.0
Cd155 Cd 0.78798 0.08519 0.64348 0.0
Cd156 Cd 0.7711 0.10126 0.66258 0.0
O157 O 0.75169 0.08348 0.6263 0.0
O158 O 0.7975 0.0704 0.63731 0.0
O159 O 0.78759 0.07366 0.70217 0.0
C160 C 0.79332 0.06599 0.6792 0.0
C161 C 0.77357 0.10446 0.74111 0.0
C162 C 0.75387 0.0736 0.60221 0.0
C163 C 0.80326 0.12012 0.61406 0.0
O164 O 0.78973 0.11932 0.62485 0.0
O165 O 0.8057 0.10822 0.62237 0.0
O166 O 0.76599 0.11043 0.71764 0.0
O167 O 0.77857 0.09578 0.72002 0.0
O168 O 0.98766 0.40896 0.45708 0.0
Cd169 Cd 0.97852 0.42176 0.49139 0.0
Cd170 Cd 0.01154 0.44051 0.50473 0.0
O171 O 0.01346 0.42128 0.47996 0.0
O172 O 0.95463 0.40551 0.49858 0.0
O173 O 0.97189 0.41485 0.55652 0.0
C174 C 0.95747 0.40488 0.54157 0.0
C175 C 0.01554 0.45042 0.57789 0.0
C176 C 0.00166 0.40985 0.45871 0.0
C177 C 0.99525 0.45503 0.4484 0.0
O178 O 0.0086 0.45516 0.45781 0.0
O179 O 0.9816 0.44338 0.46237 0.0
O180 O 0.02803 0.4544 0.55157 0.0
O181 O 1.00122 0.43981 0.56376 0.0
O182 O 0.55528 0.56765 0.42925 0.0
Cd183 Cd 0.54309 0.54779 0.4717 0.0
Cd184 Cd 0.52914 0.56716 0.49569 0.0
O185 O 0.54777 0.58482 0.45607 0.0
O186 O 0.55771 0.53763 0.47478 0.0
O187 O 0.55307 0.54942 0.53301 0.0
C188 C 0.56104 0.54283 0.5162 0.0
C189 C 0.5271 0.5669 0.57481 0.0
C190 C 0.55644 0.58159 0.42942 0.0
C191 C 0.5074 0.5349 0.45124 0.0
O192 O 0.50958 0.54879 0.46232 0.0
O193 O 0.51889 0.53142 0.45585 0.0
O194 O 0.5218 0.57485 0.55036 0.0
O195 O 0.5342 0.56012 0.55407 0.0
O196 O 0.42125 0.01099 0.44831 0.0
Cd197 Cd 0.44196 0.02218 0.48859 0.0
Cd198 Cd 0.43317 0.98836 0.48651 0.0
O199 O 0.41353 0.98489 0.44724 0.0
O200 O 0.44711 0.0451 0.47897 0.0
O201 O 0.43954 0.03273 0.5459 0.0
C202 C 0.44327 0.0454 0.52092 0.0
C203 C 0.43256 0.97907 0.55897 0.0
C204 C 0.41134 0.99666 0.43568 0.0
C205 C 0.46683 0.01253 0.45515 0.0
O206 O 0.45585 0.99775 0.45733 0.0
O207 O 0.46383 0.02372 0.46691 0.0
O208 O 0.43019 0.9697 0.52463 0.0
O209 O 0.43354 0.99304 0.55175 0.0
O210 O 0.73193 0.69361 0.62473 0.0
Cd211 Cd 0.73623 0.67609 0.6515 0.0
Cd212 Cd 0.76239 0.71505 0.61457 0.0
O213 O 0.74409 0.71868 0.64208 0.0
O214 O 0.71714 0.65664 0.67882 0.0
O215 O 0.72765 0.6571 0.6104 0.0
C216 C 0.71663 0.64931 0.64134 0.0
C217 C 0.76791 0.71388 0.53814 0.0
C218 C 0.73215 0.70465 0.64921 0.0
C219 C 0.77272 0.6963 0.68327 0.0
O220 O 0.77544 0.70916 0.6614 0.0
O221 O 0.75898 0.68316 0.68138 0.0
O222 O 0.77493 0.72753 0.55945 0.0
O223 O 0.75701 0.70117 0.55978 0.0
O224 O 0.3353 0.11403 0.70577 0.0
Cd225 Cd 0.34378 0.13382 0.66274 0.0
Cd226 Cd 0.31165 0.11826 0.64407 0.0
O227 O 0.30998 0.09883 0.68149 0.0
O228 O 0.36791 0.14211 0.66554 0.0
O229 O 0.35319 0.13155 0.60335 0.0
C230 C 0.36699 0.13693 0.62449 0.0
C231 C 0.30645 0.11869 0.56685 0.0
C232 C 0.32185 0.10076 0.70686 0.0
C233 C 0.32532 0.15052 0.68989 0.0
O234 O 0.31263 0.13725 0.68001 0.0
O235 O 0.33955 0.15247 0.68197 0.0
O236 O 0.29455 0.11232 0.59605 0.0
O237 O 0.32119 0.12367 0.58151 0.0
O238 O 0.92668 0.2319 0.66044 0.0
Cd239 Cd 0.90876 0.22974 0.70348 0.0
Cd240 Cd 0.92226 0.20349 0.65355 0.0
O241 O 0.94431 0.22386 0.66863 0.0
O242 O 0.91329 0.24972 0.73648 0.0
O243 O 0.89594 0.23976 0.6783 0.0
C244 C 0.90353 0.25116 0.70771 0.0
C245 C 0.91428 0.19181 0.58274 0.0
C246 C 0.9405 0.23473 0.67579 0.0
C247 C 0.8972 0.19468 0.73708 0.0
O248 O 0.90592 0.19246 0.70751 0.0
O249 O 0.89682 0.20798 0.73995 0.0
O250 O 0.92228 0.18746 0.61043 0.0
O251 O 0.91162 0.20343 0.59471 0.0
O252 O 0.31139 0.26138 0.14621 0.0
Cd253 Cd 0.32805 0.25751 0.18123 0.0
Cd254 Cd 0.2903 0.2312 0.13504 0.0
O255 O 0.28558 0.24904 0.15887 0.0
O256 O 0.34519 0.27639 0.21507 0.0
O257 O 0.34945 0.2677 0.14891 0.0
C258 C 0.35491 0.27816 0.18152 0.0
C259 C 0.29422 0.22678 0.0596 0.0
C260 C 0.2994 0.26127 0.16637 0.0
C261 C 0.30738 0.22094 0.20978 0.0
O262 O 0.2951 0.21817 0.18454 0.0
O263 O 0.32044 0.23474 0.21063 0.0
O264 O 0.27973 0.21938 0.07766 0.0
O265 O 0.30621 0.23729 0.08393 0.0
O266 O 0.76343 0.0681 0.16581 0.0
Cd267 Cd 0.76465 0.0853 0.20915 0.0
Cd268 Cd 0.79254 0.07338 0.15752 0.0
O269 O 0.77227 0.05116 0.17304 0.0
O270 O 0.74476 0.07956 0.24616 0.0
O271 O 0.7524 0.09624 0.18612 0.0
C272 C 0.74167 0.08824 0.21762 0.0
C273 C 0.80484 0.08152 0.08677 0.0
C274 C 0.76078 0.05429 0.17975 0.0
C275 C 0.8006 0.09853 0.23926 0.0
O276 O 0.80308 0.08992 0.21036 0.0
O277 O 0.7869 0.09837 0.24275 0.0
O278 O 0.80941 0.07396 0.11532 0.0
O279 O 0.79263 0.08359 0.09779 0.0
O280 O 0.88758 0.67559 0.17086 0.0
Cd281 Cd 0.86522 0.66758 0.14004 0.0
Cd282 Cd 0.88214 0.69968 0.11555 0.0
O283 O 0.90264 0.70076 0.14599 0.0
O284 O 0.85512 0.64403 0.15516 0.0
O285 O 0.86189 0.65375 0.08493 0.0
C286 C 0.85694 0.64159 0.1129 0.0
C287 C 0.87836 0.70127 0.03783 0.0
C288 C 0.90124 0.68858 0.16845 0.0
C289 C 0.85199 0.68902 0.17242 0.0
O290 O 0.86511 0.70093 0.15713 0.0
O291 O 0.84908 0.67456 0.16632 0.0
O292 O 0.88639 0.71427 0.06157 0.0
O293 O 0.87339 0.68741 0.05803 0.0
O294 O 0.57343 0.98754 0.97772 0.0
Cd295 Cd 0.56387 0.99992 0.01233 0.0
Cd296 Cd 0.53702 0.96789 0.00495 0.0
O297 O 0.55288 0.9625 0.97079 0.0
O298 O 0.58363 0.02182 0.01797 0.0
O299 O 0.57104 0.00639 0.07782 0.0
C300 C 0.58305 0.01957 0.06156 0.0
C301 C 0.5308 0.964 0.08099 0.0
C302 C 0.56777 0.97311 0.96375 0.0
C303 C 0.53286 0.9946 0.96346 0.0
O304 O 0.5268 0.97943 0.96923 0.0
O305 O 0.54708 0.00452 0.97821 0.0
O306 O 0.52146 0.95299 0.05238 0.0
O307 O 0.54409 0.97631 0.06616 0.0
O308 O 0.98189 0.59308 0.96657 0.0
Cd309 Cd 0.9707 0.57038 0.99679 0.0
Cd310 Cd 0.0021 0.58364 0.02659 0.0
O311 O 0.00644 0.60531 0.9979 0.0
O312 O 0.94772 0.56291 0.97682 0.0
O313 O 0.9553 0.56705 0.04918 0.0
C314 C 0.94411 0.5638 0.01871 0.0
C315 C 0.00269 0.57742 0.10251 0.0
C316 C 0.99571 0.60567 0.97199 0.0
C317 C 0.99056 0.55469 0.96834 0.0
O318 O 0.00296 0.5671 0.98405 0.0
O319 O 0.97626 0.55298 0.97291 0.0
O320 O 0.01614 0.5857 0.07973 0.0
O321 O 0.98898 0.57414 0.08298 0.0
O322 O 0.41349 0.42871 0.96468 0.0
Cd323 Cd 0.4333 0.44494 0.00316 0.0
Cd324 Cd 0.41064 0.45713 0.00608 0.0
O325 O 0.39519 0.43709 0.96889 0.0
O326 O 0.44658 0.43356 0.01221 0.0
O327 O 0.43419 0.43864 0.06831 0.0
C328 C 0.44231 0.43178 0.05466 0.0
C329 C 0.40947 0.45905 0.0848 0.0
C330 C 0.39946 0.42703 0.95504 0.0
C331 C 0.44375 0.47827 0.96292 0.0
O332 O 0.42926 0.47573 0.96984 0.0
O333 O 0.44816 0.46813 0.97647 0.0
O334 O 0.40172 0.46418 0.05874 0.0
O335 O 0.41715 0.45257 0.06564 0.0
O336 O 0.68592 0.7472 0.81793 0.0
Cd337 Cd 0.67751 0.76098 0.85072 0.0
Cd338 Cd 0.71142 0.77864 0.86708 0.0
O339 O 0.71237 0.75981 0.83493 0.0
O340 O 0.65292 0.74704 0.85189 0.0
O341 O 0.66829 0.75373 0.91384 0.0
C342 C 0.65403 0.74574 0.89552 0.0
C343 C 0.71215 0.78348 0.9447 0.0
C344 C 0.69998 0.74822 0.81588 0.0
C345 C 0.69682 0.79525 0.81235 0.0
O346 O 0.70987 0.79541 0.82544 0.0
O347 O 0.6828 0.78317 0.82149 0.0
O348 O 0.72572 0.78907 0.92199 0.0
O349 O 0.69866 0.77434 0.92358 0.0
O350 O 0.24548 0.93075 0.74633 0.0
Cd351 Cd 0.2328 0.90836 0.77791 0.0
Cd352 Cd 0.21638 0.92439 0.80524 0.0
O353 O 0.23434 0.94482 0.77325 0.0
O354 O 0.24766 0.89935 0.76387 0.0
O355 O 0.24303 0.90443 0.83404 0.0
C356 C 0.25107 0.90025 0.80682 0.0
C357 C 0.21314 0.91859 0.88254 0.0
C358 C 0.24505 0.94392 0.74884 0.0
C359 C 0.19771 0.8951 0.7474 0.0
O360 O 0.19847 0.90784 0.76362 0.0
O361 O 0.2096 0.89224 0.75264 0.0
O362 O 0.2072 0.9271 0.86414 0.0
O363 O 0.22179 0.91452 0.85731 0.0
O364 O 0.11325 0.32404 0.81158 0.0
Cd365 Cd 0.13525 0.33194 0.84491 0.0
Cd366 Cd 0.11871 0.29959 0.86823 0.0
O367 O 0.09885 0.29843 0.83397 0.0
O368 O 0.14556 0.35604 0.83795 0.0
O369 O 0.13708 0.34321 0.90416 0.0
C370 C 0.14283 0.35654 0.88088 0.0
C371 C 0.12072 0.29776 0.9466 0.0
C372 C 0.09997 0.31061 0.81208 0.0
C373 C 0.14961 0.31113 0.81418 0.0
O374 O 0.1367 0.29903 0.8297 0.0
O375 O 0.15191 0.32546 0.81911 0.0
O376 O 0.11354 0.28479 0.92233 0.0
O377 O 0.12591 0.31161 0.92629 0.0
O378 O 0.42187 0.00501 0.02868 0.0
Cd379 Cd 0.43213 0.9931 0.99477 0.0
Cd380 Cd 0.45511 0.02667 0.98742 0.0
O381 O 0.43858 0.03133 0.02004 0.0
O382 O 0.41465 0.97017 0.00453 0.0
O383 O 0.42064 0.98196 0.93648 0.0
C384 C 0.4113 0.96953 0.96162 0.0
C385 C 0.45955 0.02681 0.91096 0.0
C386 C 0.42525 0.0196 0.03476 0.0
C387 C 0.46708 0.00597 0.03022 0.0
O388 O 0.46946 0.0203 0.0252 0.0
O389 O 0.45359 0.99384 0.018 0.0
O390 O 0.4679 0.03994 0.93401 0.0
O391 O 0.44769 0.01437 0.9309 0.0
O392 O 0.03038 0.41686 0.06205 0.0
Cd393 Cd 0.04242 0.43954 0.0319 0.0
Cd394 Cd 0.01239 0.42794 0.99765 0.0
O395 O 0.00723 0.40559 0.02311 0.0
O396 O 0.06594 0.44628 0.04335 0.0
O397 O 0.05481 0.44098 0.97449 0.0
C398 C 0.06725 0.44426 0.00037 0.0
C399 C 0.01099 0.43501 0.92244 0.0
C400 C 0.01674 0.40454 0.05242 0.0
C401 C 0.02345 0.45527 0.06318 0.0
O402 O 0.0114 0.44338 0.04427 0.0
O403 O 0.03787 0.4573 0.05856 0.0
O404 O 0.99781 0.42673 0.94633 0.0
O405 O 0.02485 0.43806 0.94041 0.0
O406 O 0.60556 0.57732 0.00847 0.0
Cd407 Cd 0.58397 0.57261 0.03823 0.0
Cd408 Cd 0.59614 0.54648 0.00289 0.0
O409 O 0.61743 0.56432 0.03291 0.0
O410 O 0.58481 0.5915 0.06951 0.0
O411 O 0.5727 0.58218 0.00246 0.0
C412 C 0.57718 0.59289 0.03429 0.0
C413 C 0.58978 0.5439 0.92563 0.0
C414 C 0.61645 0.57717 0.03382 0.0
C415 C 0.56804 0.53636 0.07173 0.0
O416 O 0.57718 0.53282 0.04764 0.0
O417 O 0.56943 0.55049 0.07115 0.0
O418 O 0.59647 0.53607 0.94405 0.0
O419 O 0.58747 0.55369 0.95087 0.0
O420 O 0.01776 0.60139 0.57218 0.0
Cd421 Cd 0.02991 0.59055 0.543 0.0
Cd422 Cd 0.99823 0.5698 0.52206 0.0
O423 O 0.99253 0.58675 0.54625 0.0
O424 O 0.0532 0.60756 0.55126 0.0
O425 O 0.04134 0.60066 0.48356 0.0
C426 C 0.05393 0.61016 0.50778 0.0
C427 C 0.99501 0.55973 0.44943 0.0
C428 C 0.00319 0.59888 0.56814 0.0
C429 C 0.01475 0.5569 0.58254 0.0
O430 O 1.00117 0.55533 0.56899 0.0
O431 O 0.02811 0.56969 0.57285 0.0
O432 O 0.98265 0.55446 0.47697 0.0
O433 O 0.00884 0.57186 0.46178 0.0
O434 O 0.43406 0.4286 0.56064 0.0
Cd435 Cd 0.44788 0.45011 0.52522 0.0
Cd436 Cd 0.46481 0.4339 0.51076 0.0
O437 O 0.44633 0.41438 0.54476 0.0
O438 O 0.43322 0.4599 0.52631 0.0
O439 O 0.43935 0.45151 0.46312 0.0
C440 C 0.43086 0.45698 0.48321 0.0
C441 C 0.46991 0.43586 0.43321 0.0
C442 C 0.43478 0.41556 0.5636 0.0
C443 C 0.48242 0.46512 0.56104 0.0
O444 O 0.48224 0.45213 0.54964 0.0
O445 O 0.47027 0.46722 0.55192 0.0
O446 O 0.4757 0.4289 0.45995 0.0
O447 O 0.46042 0.44069 0.45054 0.0
O448 O 0.57905 0.98939 0.54777 0.0
Cd449 Cd 0.55978 0.98109 0.5021 0.0
Cd450 Cd 0.57403 0.01477 0.49993 0.0
O451 O 0.59294 0.016 0.53855 0.0
O452 O 0.55149 0.95725 0.50602 0.0
O453 O 0.5635 0.97188 0.44433 0.0
C454 C 0.55743 0.95815 0.4658 0.0
C455 C 0.57207 0.01865 0.42386 0.0
C456 C 0.59142 0.00305 0.55649 0.0
C457 C 0.53951 0.99666 0.52926 0.0
O458 O 0.55286 0.00995 0.53203 0.0
O459 O 0.53941 0.98398 0.5147 0.0
O460 O 0.57787 0.03094 0.45096 0.0
O461 O 0.56969 0.00484 0.43962 0.0
O462 O 0.27062 0.31904 0.30845 0.0
Cd463 Cd 0.25763 0.32795 0.3434 0.0
Cd464 Cd 0.24111 0.29583 0.3656 0.0
O465 O 0.25924 0.29359 0.3321 0.0
O466 O 0.27061 0.35154 0.32828 0.0
O467 O 0.26861 0.34184 0.39834 0.0
C468 C 0.2748 0.35411 0.3706 0.0
C469 C 0.23665 0.29547 0.4434 0.0
C470 C 0.27006 0.30536 0.30876 0.0
C471 C 0.22236 0.30806 0.31272 0.0
O472 O 0.22298 0.29546 0.32502 0.0
O473 O 0.23436 0.32208 0.32058 0.0
O474 O 0.23149 0.28207 0.42144 0.0
O475 O 0.24544 0.30896 0.42152 0.0
O476 O 0.67588 0.90264 0.30341 0.0
Cd477 Cd 0.66707 0.88114 0.33899 0.0
Cd478 Cd 0.69925 0.89674 0.36283 0.0
O479 O 0.70126 0.91686 0.32868 0.0
O480 O 0.64301 0.87191 0.32892 0.0
O481 O 0.65465 0.87986 0.39646 0.0
C482 C 0.64179 0.87492 0.37111 0.0
C483 C 0.70085 0.89359 0.44083 0.0
C484 C 0.68942 0.91577 0.30467 0.0
C485 C 0.68769 0.86651 0.30891 0.0
O486 O 0.69997 0.87928 0.32362 0.0
O487 O 0.6732 0.86421 0.31459 0.0
O488 O 0.71403 0.90142 0.41657 0.0
O489 O 0.68686 0.88862 0.42089 0.0
O490 O 0.09845 0.76936 0.26555 0.0
Cd491 Cd 0.11843 0.78415 0.30469 0.0
Cd492 Cd 0.0999 0.79906 0.31005 0.0
O493 O 0.08179 0.77933 0.27607 0.0
O494 O 0.12995 0.77118 0.30922 0.0
O495 O 0.11794 0.77548 0.36803 0.0
C496 C 0.12535 0.76826 0.35134 0.0
C497 C 0.09836 0.8056 0.38491 0.0
C498 C 0.08463 0.76859 0.25962 0.0
C499 C 0.1329 0.81787 0.26558 0.0
O500 O 0.11898 0.81672 0.27259 0.0
O501 O 0.13568 0.80656 0.27847 0.0
O502 O 0.09195 0.81004 0.35245 0.0
O503 O 0.10473 0.79662 0.37485 0.0
C504 C 0.19107 0.93709 0.21061 0.0
C505 C 0.1998 0.92871 0.2047 0.0
C506 C 0.1958 0.9517 0.18723 0.0
C507 C 0.21624 0.98749 0.16955 0.0
H508 H 0.24568 0.00132 0.06568 0.0
C509 C 0.26867 0.05265 0.15331 0.0
C510 C 0.27633 0.05892 0.11105 0.0
C511 C 0.25556 0.03688 0.1568 0.0
C512 C 0.23725 0.9978 0.09417 0.0
H513 H 0.21943 0.92831 0.16683 0.0
H514 H 0.22829 0.95397 0.12846 0.0
H515 H 0.22824 0.97276 0.08073 0.0
H516 H 0.27553 0.05404 0.03866 0.0
H517 H 0.25196 0.02689 0.04405 0.0
H518 H 0.22459 0.01249 0.18158 0.0
C519 C 0.21749 0.94931 0.14984 0.0
C520 C 0.2274 0.98125 0.10344 0.0
C521 C 0.21245 0.9345 0.1722 0.0
C522 C 0.26991 0.04948 0.07178 0.0
C523 C 0.25649 0.0338 0.07506 0.0
C524 C 0.2257 0.00401 0.15945 0.0
C525 C 0.20971 0.95853 0.15852 0.0
C526 C 0.21735 0.97583 0.14262 0.0
C527 C 0.24946 0.02704 0.11789 0.0
C528 C 0.23698 0.00947 0.12299 0.0
H529 H 0.18109 0.93277 0.23501 0.0
H530 H 0.18899 0.95799 0.19354 0.0
H531 H 0.20879 0.98407 0.20013 0.0
H532 H 0.27344 0.05957 0.18429 0.0
H533 H 0.25087 0.03221 0.19063 0.0
C534 C 0.95402 0.20731 0.16662 0.0
C535 C 0.94414 0.21135 0.19341 0.0
C536 C 0.96999 0.21169 0.18031 0.0
C537 C 0.99968 0.22896 0.27732 0.0
H538 H 0.03152 0.2483 0.17947 0.0
C539 C 0.0683 0.26572 0.3185 0.0
C540 C 0.07667 0.28076 0.29564 0.0
C541 C 0.05298 0.25377 0.30308 0.0
C542 C 0.02282 0.24296 0.20726 0.0
H543 H 0.94291 0.2222 0.25707 0.0
H544 H 0.97073 0.23011 0.28046 0.0
H545 H 0.00249 0.23353 0.16134 0.0
H546 H 0.07603 0.29458 0.23681 0.0
H547 H 0.0493 0.27398 0.21047 0.0
H548 H 0.01992 0.23937 0.32343 0.0
C549 C 0.96618 0.22337 0.24915 0.0
C550 C 0.00612 0.23426 0.19682 0.0
C551 C 0.95018 0.21887 0.23564 0.0
C552 C 0.06994 0.28313 0.25519 0.0
C553 C 0.05457 0.27124 0.23998 0.0
C554 C 0.01637 0.23779 0.28778 0.0
C555 C 0.97649 0.22032 0.22094 0.0
C556 C 0.99428 0.22749 0.23179 0.0
C557 C 0.04562 0.25662 0.26465 0.0
C558 C 0.02815 0.24526 0.25295 0.0
H559 H 0.94969 0.20141 0.13403 0.0
H560 H 0.97742 0.20879 0.15823 0.0
H561 H 0.99097 0.2237 0.30513 0.0
H562 H 0.07321 0.26346 0.34961 0.0
H563 H 0.04665 0.24252 0.32231 0.0
C564 C 0.73966 0.7923 0.33295 0.0
C565 C 0.72538 0.78771 0.30711 0.0
C566 C 0.75212 0.78962 0.31643 0.0
C567 C 0.76642 0.76801 0.29429 0.0
H568 H 0.77358 0.7639 0.16597 0.0
C569 C 0.77495 0.71632 0.22697 0.0
C570 C 0.78316 0.71805 0.18549 0.0
C571 C 0.77345 0.72918 0.24444 0.0
C572 C 0.7721 0.76523 0.20207 0.0
H573 H 0.71383 0.77844 0.2416 0.0
H574 H 0.73519 0.77345 0.21334 0.0
H575 H 0.76167 0.7805 0.18829 0.0
H576 H 0.79738 0.73501 0.13159 0.0
H577 H 0.79512 0.75764 0.16265 0.0
H578 H 0.77679 0.7527 0.30806 0.0
C579 C 0.73697 0.77919 0.24622 0.0
C580 C 0.76503 0.77461 0.21485 0.0
C581 C 0.7246 0.78198 0.26258 0.0
C582 C 0.79086 0.73327 0.16349 0.0
C583 C 0.78946 0.7462 0.18115 0.0
C584 C 0.77367 0.75879 0.28155 0.0
C585 C 0.75052 0.78222 0.27385 0.0
C586 C 0.76141 0.77553 0.26096 0.0
C587 C 0.78021 0.74414 0.22096 0.0
C588 C 0.77592 0.75668 0.23515 0.0
H589 H 0.74073 0.79691 0.36723 0.0
H590 H 0.76258 0.79252 0.33813 0.0
H591 H 0.7638 0.76833 0.33015 0.0
H592 H 0.76885 0.70474 0.24476 0.0
H593 H 0.76609 0.72699 0.27488 0.0
C594 C 0.71897 0.92618 0.74809 0.0
C595 C 0.72089 0.91891 0.78803 0.0
C596 C 0.73134 0.94147 0.73381 0.0
C597 C 0.765 0.97814 0.78494 0.0
H598 H 0.77077 0.99413 0.66008 0.0
C599 C 0.7972 0.04181 0.67037 0.0
C600 C 0.79243 0.05093 0.69756 0.0
C601 C 0.79282 0.02588 0.6827 0.0
C602 C 0.76961 0.9899 0.69513 0.0
H603 H 0.73792 0.92121 0.84172 0.0
H604 H 0.75968 0.94758 0.81601 0.0
H605 H 0.75537 0.96513 0.67518 0.0
H606 H 0.78046 0.0509 0.76087 0.0
H607 H 0.77264 0.02318 0.78202 0.0
H608 H 0.77919 0.0029 0.80491 0.0
C609 C 0.74842 0.94178 0.79654 0.0
C610 C 0.76056 0.97322 0.70382 0.0
C611 C 0.73599 0.92657 0.81105 0.0
C612 C 0.78434 0.04423 0.73913 0.0
C613 C 0.77988 0.02828 0.75133 0.0
C614 C 0.77414 0.9948 0.77624 0.0
C615 C 0.74598 0.94974 0.75892 0.0
C616 C 0.75772 0.96715 0.74893 0.0
C617 C 0.78352 0.01869 0.72241 0.0
C618 C 0.77616 0.00094 0.73132 0.0
H619 H 0.70747 0.92062 0.72964 0.0
H620 H 0.72892 0.9472 0.70484 0.0
H621 H 0.76298 0.974 0.8202 0.0
H622 H 0.80355 0.04666 0.63825 0.0
H623 H 0.79616 0.01898 0.66014 0.0
C624 C 0.0492 0.78383 0.72235 0.0
C625 C 0.05661 0.79178 0.76312 0.0
C626 C 0.0334 0.78073 0.71104 0.0
C627 C 0.99605 0.7739 0.77075 0.0
H628 H 0.97859 0.76649 0.64768 0.0
C629 C 0.93065 0.74106 0.66335 0.0
C630 C 0.92305 0.72631 0.68782 0.0
C631 C 0.94628 0.75331 0.6756 0.0
C632 C 0.98321 0.76877 0.68237 0.0
H633 H 0.05398 0.80423 0.82148 0.0
H634 H 0.02664 0.79923 0.80107 0.0
H635 H 0.00809 0.78144 0.65916 0.0
H636 H 0.92529 0.71341 0.74674 0.0
H637 H 0.9525 0.73458 0.76773 0.0
H638 H 0.97117 0.76108 0.79395 0.0
C639 C 0.03279 0.79492 0.77856 0.0
C640 C 1.00018 0.77718 0.6889 0.0
C641 C 0.04854 0.79791 0.79005 0.0
C642 C 0.93079 0.72462 0.72713 0.0
C643 C 0.94644 0.73683 0.73925 0.0
C644 C 0.97908 0.76557 0.76423 0.0
C645 C 0.02472 0.78563 0.74005 0.0
C646 C 0.00683 0.77938 0.73312 0.0
C647 C 0.95467 0.75105 0.7125 0.0
C648 C 0.97245 0.76241 0.71992 0.0
H649 H 0.05507 0.77893 0.70086 0.0
H650 H 0.0276 0.77347 0.68123 0.0
H651 H 1.00066 0.77522 0.80534 0.0
H652 H 0.92497 0.74281 0.63308 0.0
H653 H 0.95209 0.76426 0.65488 0.0
C654 C 0.26463 0.20702 0.6857 0.0
C655 C 0.28 0.21422 0.70731 0.0
C656 C 0.25195 0.20924 0.70266 0.0
C657 C 0.23547 0.22928 0.71772 0.0
H658 H 0.2309 0.23858 0.84373 0.0
C659 C 0.22278 0.27994 0.76922 0.0
C660 C 0.21498 0.27903 0.81093 0.0
C661 C 0.22515 0.2672 0.75535 0.0
C662 C 0.23168 0.23573 0.80841 0.0
H663 H 0.29361 0.228 0.76618 0.0
H664 H 0.27172 0.23221 0.79521 0.0
H665 H 0.24524 0.2237 0.8264 0.0
H666 H 0.20232 0.26345 0.86894 0.0
H667 H 0.20636 0.24109 0.84448 0.0
H668 H 0.2222 0.24158 0.69968 0.0
C669 C 0.2693 0.22472 0.76537 0.0
C670 C 0.24011 0.22737 0.79845 0.0
C671 C 0.28194 0.22237 0.74862 0.0
C672 C 0.20845 0.26456 0.83669 0.0
C673 C 0.21086 0.25179 0.82286 0.0
C674 C 0.22698 0.23756 0.7277 0.0
C675 C 0.25442 0.21883 0.74136 0.0
C676 C 0.24267 0.2246 0.75287 0.0
C677 C 0.21983 0.25324 0.78297 0.0
C678 C 0.22556 0.24146 0.77302 0.0
H679 H 0.26267 0.20046 0.65413 0.0
H680 H 0.2405 0.20416 0.68403 0.0
H681 H 0.23726 0.22751 0.68216 0.0
H682 H 0.22815 0.29096 0.74879 0.0
H683 H 0.23225 0.26885 0.72466 0.0
C684 C 0.91083 0.27853 0.73756 0.0
C685 C 0.90263 0.26633 0.70516 0.0
C686 C 0.91264 0.29395 0.73072 0.0
C687 C 0.90003 0.31844 0.65663 0.0
H688 H 0.9451 0.35177 0.67484 0.0
C689 C 0.93231 0.37786 0.55172 0.0
C690 C 0.94563 0.39147 0.57117 0.0
C691 C 0.92367 0.36351 0.57711 0.0
C692 C 0.93235 0.34277 0.67046 0.0
H693 H 0.88891 0.26042 0.64176 0.0
H694 H 0.89231 0.28735 0.62935 0.0
H695 H 0.93605 0.3246 0.70336 0.0
H696 H 0.95915 0.40126 0.63393 0.0
H697 H 0.94383 0.37638 0.6785 0.0
H698 H 0.89663 0.33664 0.62185 0.0
C699 C 0.8972 0.28502 0.66038 0.0
C700 C 0.92713 0.3271 0.68689 0.0
C701 C 0.89531 0.26955 0.66738 0.0
C702 C 0.94908 0.39093 0.61776 0.0
C703 C 0.94037 0.37662 0.64323 0.0
C704 C 0.90527 0.33418 0.64011 0.0
C705 C 0.90639 0.29757 0.69115 0.0
C706 C 0.91102 0.31463 0.6793 0.0
C707 C 0.92811 0.3625 0.62257 0.0
C708 C 0.92162 0.34645 0.64592 0.0
H709 H 0.91646 0.27639 0.76728 0.0
H710 H 0.91948 0.30323 0.75564 0.0
H711 H 0.88747 0.30918 0.65075 0.0
H712 H 0.92933 0.37788 0.51591 0.0
H713 H 0.91435 0.35289 0.55997 0.0
C714 C 0.58625 0.53986 0.51984 0.0
C715 C 0.57545 0.54409 0.5409 0.0
C716 C 0.60197 0.54523 0.53776 0.0
C717 C 0.63731 0.56974 0.55522 0.0
H718 H 0.64869 0.58701 0.67736 0.0
C719 C 0.69683 0.62861 0.58811 0.0
C720 C 0.703 0.63289 0.63254 0.0
C721 C 0.68257 0.61397 0.58016 0.0
C722 C 0.64602 0.5821 0.64326 0.0
H723 H 0.57197 0.55569 0.60002 0.0
H724 H 0.59917 0.56565 0.62959 0.0
H725 H 0.62114 0.56609 0.66165 0.0
H726 H 0.69989 0.62483 0.70313 0.0
H727 H 0.67575 0.59871 0.6891 0.0
H728 H 0.66242 0.58497 0.53751 0.0
C729 C 0.59579 0.55801 0.59986 0.0
C730 C 0.62993 0.57021 0.63393 0.0
C731 C 0.58005 0.55236 0.58255 0.0
C732 C 0.69524 0.62185 0.66856 0.0
C733 C 0.68126 0.60693 0.66043 0.0
C734 C 0.65354 0.58119 0.56495 0.0
C735 C 0.60731 0.55522 0.57657 0.0
C736 C 0.62508 0.56454 0.58915 0.0
C737 C 0.67435 0.60295 0.6163 0.0
C738 C 0.65798 0.58826 0.60847 0.0
H739 H 0.58298 0.5333 0.48798 0.0
H740 H 0.61016 0.54223 0.51968 0.0
H741 H 0.63432 0.56578 0.52024 0.0
H742 H 0.70251 0.63698 0.55976 0.0
H743 H 0.67766 0.61178 0.54584 0.0
C744 C 0.37763 0.125 0.56692 0.0
C745 C 0.3803 0.13445 0.60601 0.0
C746 C 0.38826 0.11909 0.55613 0.0
C747 C 0.41628 0.10805 0.61525 0.0
H748 H 0.42386 0.09815 0.49263 0.0
C749 C 0.4476 0.07346 0.51115 0.0
C750 C 0.44145 0.05914 0.53747 0.0
C751 C 0.44343 0.08534 0.52152 0.0
C752 C 0.42213 0.10102 0.52717 0.0
H753 H 0.39712 0.14641 0.66188 0.0
H754 H 0.41586 0.13646 0.64239 0.0
H755 H 0.41136 0.11513 0.50329 0.0
H756 H 0.42681 0.04646 0.59684 0.0
H757 H 0.41928 0.06706 0.61462 0.0
H758 H 0.42705 0.09393 0.63912 0.0
C759 C 0.40528 0.13319 0.62084 0.0
C760 C 0.41475 0.11062 0.53324 0.0
C761 C 0.39461 0.13904 0.63173 0.0
C762 C 0.43182 0.05739 0.57605 0.0
C763 C 0.42752 0.06924 0.58624 0.0
C764 C 0.42371 0.09849 0.60918 0.0
C765 C 0.40187 0.12259 0.58405 0.0
C766 C 0.41145 0.11401 0.57735 0.0
C767 C 0.43287 0.08314 0.55823 0.0
C768 C 0.42647 0.09461 0.56505 0.0
H769 H 0.36672 0.12124 0.54636 0.0
H770 H 0.38518 0.11093 0.52761 0.0
H771 H 0.41377 0.11023 0.64977 0.0
H772 H 0.45519 0.07524 0.48142 0.0
H773 H 0.44812 0.09605 0.49989 0.0
C774 C 0.37948 0.30128 0.21726 0.0
C775 C 0.37123 0.29268 0.17812 0.0
C776 C 0.39386 0.31623 0.21317 0.0
C777 C 0.42281 0.34584 0.12439 0.0
H778 H 0.42603 0.37711 0.21349 0.0
C779 C 0.43412 0.41423 0.12419 0.0
C780 C 0.44381 0.4199 0.08461 0.0
C781 C 0.43153 0.39998 0.14581 0.0
C782 C 0.42522 0.36862 0.18782 0.0
H783 H 0.37174 0.29264 0.10416 0.0
H784 H 0.39582 0.3189 0.09659 0.0
H785 H 0.40852 0.34869 0.22891 0.0
H786 H 0.46029 0.4164 0.04044 0.0
H787 H 0.45679 0.39213 0.08014 0.0
H788 H 0.43781 0.36577 0.08084 0.0
C789 C 0.39195 0.31408 0.13076 0.0
C790 C 0.41535 0.3521 0.1972 0.0
C791 C 0.37793 0.29895 0.13497 0.0
C792 C 0.4525 0.41214 0.07044 0.0
C793 C 0.45027 0.39806 0.09295 0.0
C794 C 0.43213 0.36237 0.11422 0.0
C795 C 0.39998 0.32319 0.16975 0.0
C796 C 0.41332 0.34044 0.16459 0.0
C797 C 0.43893 0.39119 0.1292 0.0
C798 C 0.43279 0.37404 0.14482 0.0
H799 H 0.37463 0.29661 0.25103 0.0
H800 H 0.39983 0.32248 0.24417 0.0
H801 H 0.42237 0.33736 0.09925 0.0
H802 H 0.42731 0.41997 0.13627 0.0
H803 H 0.42262 0.39531 0.17319 0.0
C804 C 0.7205 0.09332 0.17997 0.0
C805 C 0.72536 0.0872 0.21732 0.0
C806 C 0.7041 0.08936 0.17476 0.0
C807 C 0.66352 0.05592 0.20472 0.0
H808 H 0.64834 0.08233 0.14174 0.0
C809 C 0.59765 0.02721 0.13703 0.0
C810 C 0.59669 0.03096 0.09088 0.0
C811 C 0.61194 0.03656 0.1622 0.0
C812 C 0.65237 0.0748 0.15944 0.0
H813 H 0.71709 0.0734 0.28062 0.0
H814 H 0.68858 0.06668 0.27188 0.0
H815 H 0.67659 0.09474 0.169 0.0
H816 H 0.60948 0.04818 0.03602 0.0
H817 H 0.63431 0.06429 0.07947 0.0
H818 H 0.63963 0.03586 0.19352 0.0
C819 C 0.69735 0.07421 0.24603 0.0
C820 C 0.66856 0.08192 0.17504 0.0
C821 C 0.71373 0.07814 0.25117 0.0
C822 C 0.60984 0.04489 0.07144 0.0
C823 C 0.62408 0.05423 0.09654 0.0
C824 C 0.64737 0.04882 0.18912 0.0
C825 C 0.69221 0.07924 0.20687 0.0
C826 C 0.67446 0.07246 0.19675 0.0
C827 C 0.62553 0.04988 0.14175 0.0
C828 C 0.64172 0.05807 0.16511 0.0
H829 H 0.72914 0.10034 0.15326 0.0
H830 H 0.70059 0.09338 0.14401 0.0
H831 H 0.66766 0.04819 0.22066 0.0
H832 H 0.58768 0.01661 0.1531 0.0
H833 H 0.61255 0.03304 0.19721 0.0
C834 C 0.85387 0.61456 0.13297 0.0
C835 C 0.85647 0.62634 0.09938 0.0
C836 C 0.85799 0.60251 0.12448 0.0
C837 C 0.86946 0.58187 0.0385 0.0
H838 H 0.90357 0.58797 0.1246 0.0
C839 C 0.91963 0.56593 0.99492 0.0
C840 C 0.9286 0.56359 0.02996 0.0
C841 C 0.90699 0.56919 0.00522 0.0
C842 C 0.89379 0.58562 0.10082 0.0
H843 H 0.86381 0.63366 0.02897 0.0
H844 H 0.8706 0.61232 0.01386 0.0
H845 H 0.88727 0.60101 0.13767 0.0
H846 H 0.93037 0.56136 0.10324 0.0
H847 H 0.90766 0.56606 0.12139 0.0
H848 H 0.87584 0.56639 0.00166 0.0
C849 C 0.86554 0.61256 0.0469 0.0
C850 C 0.88448 0.59323 0.10828 0.0
C851 C 0.86163 0.62477 0.05556 0.0
C852 C 0.92378 0.56327 0.0755 0.0
C853 C 0.91086 0.56617 0.08584 0.0
C854 C 0.87853 0.57392 0.0315 0.0
C855 C 0.86452 0.60183 0.08202 0.0
C856 C 0.87252 0.59177 0.07666 0.0
C857 C 0.90273 0.56987 0.05091 0.0
C858 C 0.8912 0.57608 0.06185 0.0
H859 H 0.84982 0.61532 0.16702 0.0
H860 H 0.85693 0.59428 0.15196 0.0
H861 H 0.86022 0.58048 0.01377 0.0
H862 H 0.92305 0.56633 0.9594 0.0
H863 H 0.9013 0.57214 0.97718 0.0
C864 C 0.62389 0.72698 0.90591 0.0
C865 C 0.63994 0.73378 0.92274 0.0
C866 C 0.61111 0.71348 0.92774 0.0
C867 C 0.59043 0.6782 0.95232 0.0
H868 H 0.59709 0.66436 0.07169 0.0
C869 C 0.57554 0.61327 0.98364 0.0
C870 C 0.57551 0.60747 0.02794 0.0
C871 C 0.57752 0.62872 0.97679 0.0
C872 C 0.59455 0.66787 0.03864 0.0
H873 H 0.65505 0.73257 0.97729 0.0
H874 H 0.63343 0.70874 0.0132 0.0
H875 H 0.61074 0.69276 0.05264 0.0
H876 H 0.57581 0.61248 0.10005 0.0
H877 H 0.57794 0.63895 0.08847 0.0
H878 H 0.57335 0.65344 0.93947 0.0
C879 C 0.63019 0.71386 0.98441 0.0
C880 C 0.60281 0.68434 0.0272 0.0
C881 C 0.64279 0.72759 0.96343 0.0
C882 C 0.576 0.61679 0.06545 0.0
C883 C 0.57743 0.63208 0.05865 0.0
C884 C 0.58164 0.6618 0.96446 0.0
C885 C 0.61423 0.70618 0.96598 0.0
C886 C 0.60184 0.68964 0.98269 0.0
C887 C 0.57905 0.63864 0.01418 0.0
C888 C 0.58449 0.65623 0.00652 0.0
H889 H 0.62131 0.73169 0.87492 0.0
H890 H 0.59895 0.70841 0.91328 0.0
H891 H 0.589 0.68155 0.91783 0.0
H892 H 0.57529 0.60639 0.95405 0.0
H893 H 0.57895 0.63315 0.94193 0.0
C894 C 0.38454 0.94428 0.974 0.0
C895 C 0.39593 0.95596 0.9436 0.0
C896 C 0.36866 0.93349 0.95955 0.0
C897 C 0.34127 0.91561 0.86124 0.0
H898 H 0.30996 0.9211 0.93439 0.0
C899 C 0.27807 0.90187 0.79248 0.0
C900 C 0.26546 0.89913 0.82319 0.0
C901 C 0.29328 0.90459 0.80855 0.0
C902 C 0.31831 0.91894 0.91407 0.0
H903 H 0.39999 0.96453 0.87324 0.0
H904 H 0.37221 0.94539 0.84782 0.0
H905 H 0.33824 0.93321 0.95888 0.0
H906 H 0.25831 0.8955 0.89451 0.0
H907 H 0.28448 0.89923 0.92257 0.0
H908 H 0.32136 0.90124 0.81646 0.0
C909 C 0.37561 0.94474 0.88291 0.0
C910 C 0.33462 0.92603 0.9281 0.0
C911 C 0.39149 0.95571 0.89751 0.0
C912 C 0.26788 0.89776 0.87006 0.0
C913 C 0.28298 0.9001 0.88611 0.0
C914 C 0.32483 0.90821 0.84758 0.0
C915 C 0.36388 0.93396 0.91427 0.0
C916 C 0.34634 0.92474 0.90138 0.0
C917 C 0.29617 0.90432 0.85576 0.0
C918 C 0.31317 0.9101 0.87323 0.0
H919 H 0.38756 0.94407 0.0097 0.0
H920 H 0.35989 0.92519 0.98428 0.0
H921 H 0.35007 0.91435 0.84021 0.0
H922 H 0.27663 0.90308 0.75612 0.0
H923 H 0.30303 0.90792 0.78389 0.0
C924 C 0.15023 0.38573 0.87507 0.0
C925 C 0.14362 0.37123 0.90061 0.0
C926 C 0.14748 0.39835 0.88826 0.0
C927 C 0.12766 0.4154 0.89919 0.0
H928 H 0.1182 0.42193 0.02344 0.0
C929 C 0.08043 0.43537 0.94165 0.0
C930 C 0.08151 0.44314 0.98313 0.0
C931 C 0.09209 0.43082 0.93033 0.0
C932 C 0.12106 0.42059 0.9885 0.0
H933 H 0.13007 0.35909 0.96202 0.0
H934 H 0.12491 0.38076 0.98441 0.0
H935 H 0.13245 0.40679 0.00982 0.0
H936 H 0.0965 0.45358 0.04326 0.0
H937 H 0.11719 0.44623 0.02269 0.0
H938 H 0.11643 0.42934 0.87788 0.0
C939 C 0.13243 0.38264 0.9545 0.0
C940 C 0.12905 0.41164 0.98066 0.0
C941 C 0.13536 0.37012 0.9416 0.0
C942 C 0.09524 0.44747 0.0112 0.0
C943 C 0.10702 0.44309 -0.00038 0.0
C944 C 0.11986 0.42451 0.90705 0.0
C945 C 0.13787 0.39666 0.92699 0.0
C946 C 0.13198 0.40846 0.93584 0.0
C947 C 0.10524 0.43411 0.95995 0.0
C948 C 0.11595 0.42678 0.95174 0.0
H949 H 0.15682 0.38704 0.84355 0.0
H950 H 0.1523 0.40914 0.86694 0.0
H951 H 0.12953 0.41315 0.86412 0.0
H952 H 0.06997 0.43179 0.91935 0.0
H953 H 0.09014 0.42381 0.89969 0.0
C954 C 0.08145 0.63484 0.51497 0.0
C955 C 0.06773 0.62503 0.48798 0.0
C956 C 0.09271 0.65057 0.5007 0.0
C957 C 0.10471 0.67979 0.40246 0.0
H958 H 0.11472 0.7112 0.49835 0.0
C959 C 0.1341 0.74726 0.3575 0.0
C960 C 0.12614 0.75507 0.37681 0.0
C961 C 0.13155 0.73243 0.3752 0.0
C962 C 0.11207 0.70261 0.47116 0.0
H963 H 0.05571 0.62358 0.42331 0.0
H964 H 0.07513 0.65103 0.39869 0.0
H965 H 0.10147 0.68249 0.5177 0.0
H966 H 0.11041 0.75415 0.43225 0.0
H967 H 0.10574 0.72823 0.46268 0.0
H968 H 0.1143 0.6998 0.35556 0.0
C969 C 0.07737 0.64659 0.43071 0.0
C970 C 0.10465 0.68611 0.48231 0.0
C971 C 0.06618 0.63081 0.44485 0.0
C972 C 0.11672 0.74845 0.41656 0.0
C973 C 0.11407 0.73355 0.43408 0.0
C974 C 0.11205 0.69627 0.39129 0.0
C975 C 0.09043 0.65687 0.45924 0.0
C976 C 0.10049 0.67445 0.44796 0.0
C977 C 0.1209 0.72503 0.41244 0.0
C978 C 0.11545 0.70786 0.42537 0.0
H979 H 0.08308 0.63068 0.54824 0.0
H980 H 0.10283 0.658 0.52303 0.0
H981 H 0.1019 0.67118 0.37521 0.0
H982 H 0.14159 0.75215 0.32711 0.0
H983 H 0.13735 0.72642 0.35842 0.0
C984 C 0.40683 0.46167 0.48377 0.0
C985 C 0.41662 0.45668 0.46026 0.0
C986 C 0.39083 0.45673 0.46928 0.0
C987 C 0.35978 0.43283 0.37933 0.0
H988 H 0.33118 0.41475 0.48462 0.0
C989 C 0.2963 0.37202 0.42605 0.0
C990 C 0.28769 0.37028 0.38525 0.0
C991 C 0.31051 0.38657 0.43551 0.0
C992 C 0.33896 0.41971 0.45479 0.0
H993 H 0.41808 0.44437 0.39993 0.0
H994 H 0.39027 0.43548 0.3753 0.0
H995 H 0.3599 0.43415 0.49582 0.0
H996 H 0.28632 0.38281 0.32426 0.0
H997 H 0.31077 0.40835 0.34146 0.0
H998 H 0.33913 0.41729 0.3386 0.0
C999 C 0.39478 0.44325 0.4048 0.0
C1000 C 0.35545 0.4311 0.46113 0.0
C1001 C 0.41082 0.44832 0.41903 0.0
C1002 C 0.29283 0.38374 0.35579 0.0
C1003 C 0.30692 0.39835 0.36549 0.0
C1004 C 0.34332 0.42128 0.37303 0.0
C1005 C 0.38427 0.44657 0.43128 0.0
C1006 C 0.36623 0.43737 0.42358 0.0
C1007 C 0.3163 0.39977 0.40461 0.0
C1008 C 0.33284 0.41414 0.41082 0.0
H1009 H 0.41106 0.46835 0.5153 0.0
H1010 H 0.38327 0.45998 0.48965 0.0
H1011 H 0.36762 0.43761 0.34956 0.0
H1012 H 0.29268 0.36185 0.44936 0.0
H1013 H 0.31745 0.38708 0.46575 0.0
C1014 C 0.57001 0.94706 0.41153 0.0
C1015 C 0.5594 0.94458 0.44828 0.0
C1016 C 0.57466 0.93548 0.40131 0.0
C1017 C 0.5792 0.90311 0.45947 0.0
H1018 H 0.59191 0.89722 0.33842 0.0
C1019 C 0.6278 0.88374 0.42758 0.0
C1020 C 0.62715 0.87564 0.38705 0.0
C1021 C 0.61595 0.88826 0.43668 0.0
C1022 C 0.58817 0.89843 0.37245 0.0
H1023 H 0.54427 0.9274 0.50072 0.0
H1024 H 0.55202 0.90705 0.48214 0.0
H1025 H 0.57714 0.91216 0.34731 0.0
H1026 H 0.61265 0.8645 0.32659 0.0
H1027 H 0.59175 0.87196 0.34311 0.0
H1028 H 0.59027 0.88942 0.48462 0.0
C1029 C 0.55715 0.91814 0.46202 0.0
C1030 C 0.57988 0.90722 0.37758 0.0
C1031 C 0.55259 0.92976 0.47239 0.0
C1032 C 0.6136 0.87087 0.35794 0.0
C1033 C 0.60169 0.8753 0.36717 0.0
C1034 C 0.58743 0.89426 0.45433 0.0
C1035 C 0.56871 0.9211 0.42743 0.0
C1036 C 0.57562 0.91001 0.42124 0.0
C1037 C 0.60311 0.88468 0.40561 0.0
C1038 C 0.59238 0.89212 0.41085 0.0
H1039 H 0.57554 0.95837 0.39238 0.0
H1040 H 0.58367 0.93827 0.37464 0.0
H1041 H 0.57628 0.90511 0.49372 0.0
H1042 H 0.63809 0.88763 0.45071 0.0
H1043 H 0.61752 0.89553 0.46654 0.0
C1044 C 0.37321 0.23276 0.78534 0.0
C1045 C 0.36043 0.23626 0.77816 0.0
C1046 C 0.37397 0.22521 0.82588 0.0
C1047 C 0.35648 0.21175 0.94253 0.0
H1048 H 0.3568 0.17236 0.90961 0.0
C1049 C 0.35355 0.16202 0.06939 0.0
C1050 C 0.34187 0.14602 0.05827 0.0
C1051 C 0.35657 0.17489 0.03971 0.0
C1052 C 0.35672 0.18332 0.91931 0.0
H1053 H 0.33961 0.23643 0.80952 0.0
H1054 H 0.34168 0.22432 0.88154 0.0
H1055 H 0.36324 0.19338 0.85203 0.0
H1056 H 0.3239 0.13108 0.00781 0.0
H1057 H 0.3295 0.15355 0.95553 0.0
H1058 H 0.3498 0.20138 0.01009 0.0
C1059 C 0.35065 0.22671 0.85523 0.0
C1060 C 0.36061 0.19547 0.88652 0.0
C1061 C 0.34952 0.23374 0.81407 0.0
C1062 C 0.33295 0.14325 0.01745 0.0
C1063 C 0.33619 0.15607 0.98743 0.0
C1064 C 0.35287 0.19966 0.97571 0.0
C1065 C 0.36218 0.22137 0.86034 0.0
C1066 C 0.36025 0.20971 0.89745 0.0
C1067 C 0.34819 0.17196 0.99799 0.0
C1068 C 0.35266 0.18521 0.96405 0.0
H1069 H 0.38182 0.23458 0.75823 0.0
H1070 H 0.38322 0.22155 0.82922 0.0
H1071 H 0.35613 0.2226 0.95192 0.0
H1072 H 0.36056 0.16457 0.10072 0.0
H1073 H 0.36591 0.18704 0.0485 0.0
C1074 C 0.77489 0.12019 0.81121 0.0
C1075 C 0.7784 0.10909 0.78923 0.0
C1076 C 0.78232 0.12696 0.85305 0.0
C1077 C 0.82091 0.14006 0.90719 0.0
H1078 H 0.80171 0.1426 0.02183 0.0
C1079 C 0.86141 0.16942 0.06296 0.0
C1080 C 0.85911 0.18138 0.08421 0.0
C1081 C 0.84971 0.15863 0.03251 0.0
C1082 C 0.80721 0.14198 0.98995 0.0
H1083 H 0.79143 0.0955 0.79571 0.0
H1084 H 0.80441 0.10747 0.86787 0.0
H1085 H 0.78382 0.12727 0.95793 0.0
H1086 H 0.84214 0.19063 0.09236 0.0
H1087 H 0.82184 0.17181 0.03899 0.0
H1088 H 0.8442 0.15502 0.93805 0.0
C1089 C 0.79604 0.11096 0.85277 0.0
C1090 C 0.797 0.13326 0.95355 0.0
C1091 C 0.78853 0.10409 0.81144 0.0
C1092 C 0.84438 0.18164 0.07637 0.0
C1093 C 0.83267 0.1708 0.04596 0.0
C1094 C 0.83106 0.14874 0.94331 0.0
C1095 C 0.79344 0.12283 0.87317 0.0
C1096 C 0.80382 0.13212 0.91205 0.0
C1097 C 0.83546 0.15951 0.02263 0.0
C1098 C 0.82437 0.14972 0.98522 0.0
H1099 H 0.76712 0.12428 0.79501 0.0
H1100 H 0.78016 0.13613 0.86819 0.0
H1101 H 0.82641 0.13975 0.87502 0.0
H1102 H 0.87252 0.16877 0.06843 0.0
H1103 H 0.85201 0.14983 0.01572 0.0
C1104 C 0.87681 0.65938 0.79978 0.0
C1105 C 0.8698 0.64723 0.76666 0.0
C1106 C 0.86923 0.65734 0.84229 0.0
C1107 C 0.85089 0.64435 0.93649 0.0
H1108 H 0.81017 0.64485 0.91572 0.0
C1109 C 0.79997 0.64129 0.06487 0.0
C1110 C 0.80109 0.65666 0.06631 0.0
C1111 C 0.80941 0.63821 0.03383 0.0
C1112 C 0.82139 0.64447 0.92192 0.0
H1113 H 0.84988 0.62308 0.75291 0.0
H1114 H 0.83636 0.61981 0.82676 0.0
H1115 H 0.82466 0.64137 0.85103 0.0
H1116 H 0.81372 0.68109 0.03812 0.0
H1117 H 0.82997 0.67554 0.98344 0.0
H1118 H 0.84755 0.64766 0.00738 0.0
C1119 C 0.84785 0.63073 0.81995 0.0
C1120 C 0.82961 0.6424 0.88516 0.0
C1121 C 0.85563 0.63261 0.77785 0.0
C1122 C 0.81255 0.66913 0.03792 0.0
C1123 C 0.82182 0.66598 0.00656 0.0
C1124 C 0.84242 0.64603 0.97346 0.0
C1125 C 0.85438 0.64325 0.85193 0.0
C1126 C 0.84463 0.64275 0.89201 0.0
C1127 C 0.82 0.65042 0.00362 0.0
C1128 C 0.82793 0.64662 0.9661 0.0
H1129 H 0.88771 0.67077 0.79207 0.0
H1130 H 0.87437 0.66721 0.8664 0.0
H1131 H 0.86251 0.64473 0.94238 0.0
H1132 H 0.79134 0.63145 0.08649 0.0
H1133 H 0.80788 0.62614 0.03196 0.0
C1134 C 0.23129 0.33837 0.69538 0.0
C1135 C 0.23903 0.35289 0.7198 0.0
C1136 C 0.22447 0.33787 0.65263 0.0
C1137 C 0.22115 0.35974 0.55332 0.0
H1138 H 0.17513 0.32724 0.55966 0.0
C1139 C 0.1709 0.35475 0.42596 0.0
C1140 C 0.15805 0.33916 0.41575 0.0
C1141 C 0.18322 0.35683 0.45684 0.0
C1142 C 0.188 0.33616 0.5568 0.0
H1143 H 0.24676 0.37854 0.71696 0.0
H1144 H 0.23458 0.37751 0.6416 0.0
H1145 H 0.19279 0.33145 0.62499 0.0
H1146 H 0.14882 0.31348 0.42754 0.0
H1147 H 0.17036 0.3171 0.48116 0.0
H1148 H 0.21611 0.36498 0.48531 0.0
C1149 C 0.23393 0.3666 0.65584 0.0
C1150 C 0.1981 0.3385 0.59428 0.0
C1151 C 0.24086 0.36716 0.69892 0.0
C1152 C 0.15842 0.32566 0.43488 0.0
C1153 C 0.17072 0.32774 0.46581 0.0
C1154 C 0.21094 0.35749 0.51556 0.0
C1155 C 0.22511 0.35177 0.63322 0.0
C1156 C 0.21479 0.3501 0.59284 0.0
C1157 C 0.18296 0.34336 0.47829 0.0
C1158 C 0.19425 0.34556 0.51686 0.0
H1159 H 0.22981 0.32719 0.71016 0.0
H1160 H 0.218 0.32642 0.63552 0.0
H1161 H 0.23397 0.36884 0.55149 0.0
H1162 H 0.17109 0.36544 0.41165 0.0
H1163 H 0.19241 0.36901 0.46581 0.0
C1164 C 0.66692 0.81206 0.43354 0.0
C1165 C 0.65541 0.79607 0.42197 0.0
C1166 C 0.6623 0.82129 0.46048 0.0
C1167 C 0.63402 0.81517 0.55191 0.0
H1168 H 0.64787 0.8608 0.53648 0.0
C1169 C 0.62585 0.84927 0.69889 0.0
C1170 C 0.64063 0.86294 0.71135 0.0
C1171 C 0.62411 0.84252 0.65562 0.0
C1172 C 0.64388 0.84804 0.54114 0.0
H1173 H 0.62981 0.77759 0.4277 0.0
H1174 H 0.62192 0.79357 0.47514 0.0
H1175 H 0.65226 0.84609 0.4744 0.0
H1176 H 0.66444 0.88131 0.68667 0.0
H1177 H 0.6612 0.86984 0.61088 0.0
H1178 H 0.62653 0.81711 0.6192 0.0
C1179 C 0.63449 0.79894 0.46339 0.0
C1180 C 0.64642 0.83967 0.50573 0.0
C1181 C 0.63905 0.78981 0.43617 0.0
C1182 C 0.65298 0.87064 0.67825 0.0
C1183 C 0.65111 0.86405 0.63471 0.0
C1184 C 0.63167 0.82354 0.58735 0.0
C1185 C 0.64613 0.81463 0.47667 0.0
C1186 C 0.64183 0.82324 0.51127 0.0
C1187 C 0.63703 0.8494 0.6238 0.0
C1188 C 0.63696 0.84018 0.58292 0.0
H1189 H 0.6796 0.81729 0.42293 0.0
H1190 H 0.67154 0.83333 0.47051 0.0
H1191 H 0.63048 0.80254 0.5573 0.0
H1192 H 0.61604 0.84313 0.72351 0.0
H1193 H 0.61295 0.83143 0.64789 0.0
C1194 C 0.16251 0.85617 0.39426 0.0
C1195 C 0.17168 0.85334 0.36139 0.0
C1196 C 0.15368 0.8444 0.4277 0.0
C1197 C 0.13709 0.80152 0.46153 0.0
H1198 H 0.14798 0.81854 0.58432 0.0
C1199 C 0.13066 0.77742 0.65938 0.0
C1200 C 0.11402 0.77172 0.66887 0.0
C1201 C 0.13733 0.78494 0.61744 0.0
C1202 C 0.14497 0.81363 0.55015 0.0
H1203 H 0.17745 0.83548 0.3347 0.0
H1204 H 0.1618 0.81486 0.39248 0.0
H1205 H 0.15855 0.83705 0.51868 0.0
H1206 H 0.09099 0.76807 0.64117 0.0
H1207 H 0.10244 0.78012 0.5663 0.0
H1208 H 0.12292 0.77812 0.49351 0.0
C1209 C 0.16164 0.82621 0.39298 0.0
C1210 C 0.15082 0.82422 0.51266 0.0
C1211 C 0.17064 0.83803 0.36 0.0
C1212 C 0.10386 0.77239 0.63451 0.0
C1213 C 0.11042 0.77933 0.59189 0.0
C1214 C 0.13087 0.79093 0.49914 0.0
C1215 C 0.1537 0.82956 0.42835 0.0
C1216 C 0.14688 0.81828 0.46794 0.0
C1217 C 0.12733 0.78631 0.58387 0.0
C1218 C 0.13479 0.79696 0.54369 0.0
H1219 H 0.16307 0.86784 0.39611 0.0
H1220 H 0.14738 0.84714 0.45415 0.0
H1221 H 0.13397 0.7967 0.42745 0.0
H1222 H 0.13877 0.77718 0.68556 0.0
H1223 H 0.15041 0.79028 0.61189 0.0
C1224 C 0.64714 0.82543 0.91901 0.0
C1225 C 0.66237 0.83964 0.91354 0.0
C1226 C 0.6452 0.81357 0.95129 0.0
C1227 C 0.66092 0.81169 0.06219 0.0
H1228 H 0.64088 0.76513 0.04817 0.0
C1229 C 0.66653 0.77282 0.20099 0.0
C1230 C 0.65171 0.76148 0.22165 0.0
C1231 C 0.66654 0.77974 0.15876 0.0
C1232 C 0.6463 0.77809 0.05243 0.0
H1233 H 0.68772 0.85199 0.93577 0.0
H1234 H 0.68422 0.83143 0.9925 0.0
H1235 H 0.64397 0.78249 0.9811 0.0
H1236 H 0.62538 0.74756 0.21233 0.0
H1237 H 0.62555 0.75959 0.13717 0.0
H1238 H 0.6631 0.80741 0.13314 0.0
C1239 C 0.67382 0.82952 0.97176 0.0
C1240 C 0.64814 0.78799 0.01423 0.0
C1241 C 0.67582 0.84126 0.93915 0.0
C1242 C 0.63699 0.75628 0.19729 0.0
C1243 C 0.63706 0.76312 0.15436 0.0
C1244 C 0.65898 0.80186 0.10006 0.0
C1245 C 0.65839 0.8158 0.97905 0.0
C1246 C 0.6558 0.80493 0.01876 0.0
C1247 C 0.65182 0.77534 0.13567 0.0
C1248 C 0.65203 0.78506 0.09545 0.0
H1249 H 0.63655 0.82375 0.89962 0.0
H1250 H 0.63319 0.80312 0.95632 0.0
H1251 H 0.66647 0.82465 0.06687 0.0
H1252 H 0.67812 0.77708 0.21851 0.0
H1253 H 0.67804 0.7891 0.14504 0.0
C1254 C 0.13659 0.81667 0.909 0.0
C1255 C 0.13772 0.80684 0.87524 0.0
C1256 C 0.14926 0.82453 0.94056 0.0
C1257 C 0.19168 0.84196 0.96689 0.0
H1258 H 0.17777 0.8255 0.09019 0.0
C1259 C 0.21462 0.85209 0.16843 0.0
C1260 C 0.21902 0.86851 0.17165 0.0
C1261 C 0.20888 0.84399 0.12705 0.0
C1262 C 0.182 0.83002 0.05589 0.0
H1263 H 0.15346 0.79844 0.84608 0.0
H1264 H 0.17585 0.81269 0.90066 0.0
H1265 H 0.15871 0.81362 0.02681 0.0
H1266 H 0.22263 0.88976 0.13363 0.0
H1267 H 0.21352 0.87587 0.06118 0.0
H1268 H 0.21475 0.85897 0.99649 0.0
C1269 C 0.16503 0.81403 0.90288 0.0
C1270 C 0.171 0.82335 0.01979 0.0
C1271 C 0.15222 0.80589 0.87185 0.0
C1272 C 0.21924 0.87708 0.13202 0.0
C1273 C 0.214 0.86909 0.09046 0.0
C1274 C 0.20264 0.84888 0.00329 0.0
C1275 C 0.1634 0.82299 0.93824 0.0
C1276 C 0.17564 0.82948 0.97523 0.0
C1277 C 0.20782 0.85228 0.08814 0.0
C1278 C 0.19775 0.84322 0.04833 0.0
H1279 H 0.12556 0.81757 0.91264 0.0
H1280 H 0.14782 0.83144 0.96766 0.0
H1281 H 0.1955 0.84678 0.9326 0.0
H1282 H 0.21428 0.84519 0.19862 0.0
H1283 H 0.20436 0.83106 0.12616 0.0
C1284 C 0.18735 0.33423 0.93628 0.0
C1285 C 0.20338 0.34611 0.92434 0.0
C1286 C 0.17776 0.33805 0.9647 0.0
C1287 C 0.15819 0.35209 0.0121 0.0
H1288 H 0.18035 0.37228 0.12474 0.0
C1289 C 0.14637 0.37267 0.20184 0.0
C1290 C 0.13303 0.35785 0.21606 0.0
C1291 C 0.15359 0.37411 0.15906 0.0
C1292 C 0.17404 0.36698 0.0931 0.0
H1293 H 0.22152 0.37153 0.93108 0.0
H1294 H 0.20487 0.37804 0.98092 0.0
H1295 H 0.19576 0.36915 0.06269 0.0
H1296 H 0.11579 0.33344 0.19493 0.0
H1297 H 0.12819 0.33604 0.1201 0.0
H1298 H 0.13631 0.34948 0.04329 0.0
C1299 C 0.19978 0.36579 0.96846 0.0
C1300 C 0.18287 0.36513 0.05761 0.0
C1301 C 0.20929 0.36203 0.93978 0.0
C1302 C 0.12615 0.34498 0.1851 0.0
C1303 C 0.13324 0.34648 0.14211 0.0
C1304 C 0.14933 0.35401 0.0476 0.0
C1305 C 0.18407 0.35378 0.982 0.0
C1306 C 0.17495 0.35731 0.01718 0.0
C1307 C 0.14749 0.36082 0.1295 0.0
C1308 C 0.15709 0.3611 0.08893 0.0
H1309 H 0.18238 0.32188 0.92471 0.0
H1310 H 0.16569 0.32852 0.9748 0.0
H1311 H 0.1519 0.3462 0.98109 0.0
H1312 H 0.15192 0.38285 0.22482 0.0
H1313 H 0.1644 0.3854 0.14994 0.0
C1314 C 0.76756 0.65938 0.29387 0.0
C1315 C 0.76051 0.64479 0.26961 0.0
C1316 C 0.77406 0.66021 0.33732 0.0
C1317 C 0.77801 0.63959 0.43829 0.0
H1318 H 0.82408 0.6717 0.42819 0.0
C1319 C 0.83039 0.64734 0.56274 0.0
C1320 C 0.84241 0.66335 0.57265 0.0
C1321 C 0.81758 0.64429 0.53255 0.0
C1322 C 0.81121 0.66288 0.43193 0.0
H1323 H 0.75347 0.61931 0.27359 0.0
H1324 H 0.76503 0.62089 0.35007 0.0
H1325 H 0.80599 0.66639 0.36294 0.0
H1326 H 0.84969 0.68865 0.56106 0.0
H1327 H 0.82743 0.6833 0.50813 0.0
H1328 H 0.78352 0.63532 0.50692 0.0
C1329 C 0.76541 0.63159 0.33518 0.0
C1330 C 0.80088 0.65997 0.39469 0.0
C1331 C 0.75885 0.63073 0.29142 0.0
C1332 C 0.84073 0.67619 0.55401 0.0
C1333 C 0.82801 0.67314 0.52357 0.0
C1334 C 0.78847 0.64232 0.47575 0.0
C1335 C 0.77368 0.64652 0.35753 0.0
C1336 C 0.78417 0.64863 0.3977 0.0
C1337 C 0.81662 0.65718 0.51144 0.0
C1338 C 0.80513 0.65419 0.473 0.0
H1339 H 0.76893 0.67041 0.27833 0.0
H1340 H 0.7802 0.67179 0.35416 0.0
H1341 H 0.76517 0.6306 0.44113 0.0
H1342 H 0.83125 0.63715 0.57678 0.0
H1343 H 0.80901 0.63188 0.52369 0.0
C1344 C 0.35079 0.12642 0.31544 0.0
C1345 C 0.36273 0.13546 0.28227 0.0
C1346 C 0.35063 0.13336 0.35717 0.0
C1347 C 0.35517 0.16943 0.39757 0.0
H1348 H 0.35805 0.15606 0.52172 0.0
C1349 C 0.32794 0.18596 0.54816 0.0
C1350 C 0.33966 0.19556 0.58075 0.0
C1351 C 0.33157 0.17729 0.51636 0.0
C1352 C 0.35729 0.1599 0.48719 0.0
H1353 H 0.38426 0.15859 0.26744 0.0
H1354 H 0.38356 0.17089 0.33993 0.0
H1355 H 0.36471 0.14393 0.45687 0.0
H1356 H 0.36369 0.20239 0.60851 0.0
H1357 H 0.36982 0.18684 0.55346 0.0
H1358 H 0.34685 0.18465 0.42726 0.0
C1359 C 0.37459 0.15835 0.33378 0.0
C1360 C 0.36111 0.15304 0.45035 0.0
C1361 C 0.37497 0.15131 0.29244 0.0
C1362 C 0.35449 0.19522 0.58344 0.0
C1363 C 0.358 0.18631 0.55214 0.0
C1364 C 0.35091 0.17591 0.43415 0.0
C1365 C 0.36224 0.14952 0.36596 0.0
C1366 C 0.35998 0.15773 0.40536 0.0
C1367 C 0.34684 0.17784 0.51726 0.0
C1368 C 0.35173 0.17105 0.47917 0.0
H1369 H 0.34123 0.11418 0.30851 0.0
H1370 H 0.34089 0.12644 0.38146 0.0
H1371 H 0.35405 0.17305 0.36303 0.0
H1372 H 0.31641 0.18598 0.5453 0.0
H1373 H 0.32272 0.17067 0.48993 0.0
C1374 C 0.81308 0.1477 0.57923 0.0
C1375 C 0.81556 0.13441 0.58785 0.0
C1376 C 0.8233 0.16009 0.54899 0.0
C1377 C 0.84656 0.16469 0.44654 0.0
H1378 H 0.86432 0.21101 0.45997 0.0
C1379 C 0.88796 0.20895 0.31015 0.0
C1380 C 0.88132 0.21785 0.28903 0.0
C1381 C 0.88196 0.20128 0.35225 0.0
C1382 C 0.85938 0.19809 0.45596 0.0
H1383 H 0.83149 0.12434 0.57383 0.0
H1384 H 0.8493 0.14601 0.52113 0.0
H1385 H 0.85036 0.19262 0.52504 0.0
H1386 H 0.86417 0.22682 0.29742 0.0
H1387 H 0.85389 0.21353 0.37189 0.0
H1388 H 0.85504 0.17001 0.37739 0.0
C1389 C 0.83927 0.14665 0.53735 0.0
C1390 C 0.85146 0.18762 0.493 0.0
C1391 C 0.82912 0.1343 0.56773 0.0
C1392 C 0.86949 0.22 0.31275 0.0
C1393 C 0.86363 0.21245 0.35534 0.0
C1394 C 0.85439 0.17509 0.40975 0.0
C1395 C 0.83615 0.15938 0.52659 0.0
C1396 C 0.84511 0.17081 0.48864 0.0
C1397 C 0.86939 0.20253 0.37449 0.0
C1398 C 0.86104 0.19187 0.4142 0.0
H1399 H 0.80283 0.14824 0.59442 0.0
H1400 H 0.8206 0.16974 0.54125 0.0
H1401 H 0.84125 0.15177 0.44172 0.0
H1402 H 0.89713 0.2071 0.29303 0.0
H1403 H 0.88669 0.19381 0.36653 0.0
C1404 C 0.01091 0.48064 0.40288 0.0
C1405 C 0.99589 0.46864 0.42101 0.0
C1406 C 0.01178 0.4934 0.37644 0.0
C1407 C 0.98016 0.50501 0.30652 0.0
H1408 H 0.03128 0.54989 0.27534 0.0
C1409 C 0.98798 0.55945 0.16917 0.0
C1410 C 0.00277 0.56967 0.1466 0.0
C1411 C 0.98753 0.54931 0.20482 0.0
C1412 C 0.01944 0.53944 0.28208 0.0
H1413 H 0.96999 0.46088 0.42609 0.0
H1414 H 0.97149 0.48322 0.38019 0.0
H1415 H 0.02891 0.52678 0.34069 0.0
H1416 H 0.02892 0.57826 0.14629 0.0
H1417 H 0.02816 0.56071 0.20831 0.0
H1418 H 0.97067 0.51746 0.24769 0.0
C1419 C 0.98264 0.48273 0.38607 0.0
C1420 C 0.0179 0.52489 0.32342 0.0
C1421 C 0.98176 0.46987 0.4125 0.0
C1422 C 0.01728 0.57044 0.16276 0.0
C1423 C 0.01681 0.56024 0.19836 0.0
C1424 C 0.98167 0.51952 0.26531 0.0
C1425 C 0.99768 0.49465 0.3676 0.0
C1426 C 0.99856 0.5076 0.33634 0.0
C1427 C 0.00181 0.54902 0.21839 0.0
C1428 C 1.00096 0.53679 0.2523 0.0
H1429 H 0.02208 0.48009 0.40843 0.0
H1430 H 0.02351 0.50191 0.36188 0.0
H1431 H 0.96835 0.49446 0.31286 0.0
H1432 H 0.9766 0.55874 0.15801 0.0
H1433 H 0.97585 0.54154 0.22087 0.0
C1434 C 0.47913 0.52723 0.42434 0.0
C1435 C 0.4917 0.52326 0.42954 0.0
C1436 C 0.46525 0.51752 0.39841 0.0
C1437 C 0.44209 0.47803 0.34027 0.0
H1438 H 0.4354 0.50369 0.24715 0.0
C1439 C 0.41859 0.45478 0.16127 0.0
C1440 C 0.41106 0.46175 0.13469 0.0
C1441 C 0.42335 0.45968 0.20611 0.0
C1442 C 0.43665 0.49625 0.27349 0.0
H1443 H 0.49893 0.5053 0.41414 0.0
H1444 H 0.47471 0.4884 0.36842 0.0
H1445 H 0.45356 0.51709 0.31062 0.0
H1446 H 0.4012 0.4782 0.1357 0.0
H1447 H 0.40925 0.48659 0.21472 0.0
H1448 H 0.42546 0.45718 0.30229 0.0
C1449 C 0.4756 0.49902 0.38467 0.0
C1450 C 0.44718 0.50397 0.30993 0.0
C1451 C 0.48954 0.50877 0.41063 0.0
C1452 C 0.4071 0.47271 0.15522 0.0
C1453 C 0.41183 0.4776 0.20038 0.0
C1454 C 0.43139 0.47026 0.30399 0.0
C1455 C 0.46357 0.50359 0.37709 0.0
C1456 C 0.45041 0.49501 0.34293 0.0
C1457 C 0.42064 0.47164 0.22569 0.0
C1458 C 0.429 0.47933 0.26922 0.0
H1459 H 0.48026 0.53819 0.43889 0.0
H1460 H 0.45606 0.52122 0.39375 0.0
H1461 H 0.4442 0.47081 0.36556 0.0
H1462 H 0.42165 0.44615 0.14668 0.0
H1463 H 0.4302 0.45488 0.22414 0.0
C1464 C 0.50892 0.96059 0.13503 0.0
C1465 C 0.52531 0.96465 0.12731 0.0
C1466 C 0.50507 0.96764 0.1713 0.0
C1467 C 0.5122 0.98327 0.286 0.0
H1468 H 0.51652 0.03672 0.28173 0.0
C1469 C 0.49102 0.00868 0.44078 0.0
C1470 C 0.4821 0.01668 0.43089 0.0
C1471 C 0.50276 0.00944 0.40978 0.0
C1472 C 0.51525 0.0248 0.27936 0.0
H1473 H 0.54983 0.9766 0.15534 0.0
H1474 H 0.54304 0.98845 0.21853 0.0
H1475 H 0.51894 0.02721 0.19841 0.0
H1476 H 0.4793 0.03281 0.3837 0.0
H1477 H 0.49778 0.03287 0.32847 0.0
H1478 H 0.50835 0.98811 0.36197 0.0
C1479 C 0.53331 0.98063 0.19587 0.0
C1480 C 0.51679 0.01866 0.22655 0.0
C1481 C 0.53718 0.97363 0.16003 0.0
C1482 C 0.48605 0.02654 0.39199 0.0
C1483 C 0.49705 0.02661 0.36005 0.0
C1484 C 0.51099 0.99435 0.32942 0.0
C1485 C 0.51765 0.97911 0.19868 0.0
C1486 C 0.51486 0.98998 0.23044 0.0
C1487 C 0.50493 0.01726 0.36694 0.0
C1488 C 0.51206 0.01302 0.32686 0.0
H1489 H 0.49946 0.95342 0.11059 0.0
H1490 H 0.49258 0.96515 0.17573 0.0
H1491 H 0.51134 0.97169 0.29382 0.0
H1492 H 0.48836 0.00125 0.4714 0.0
H1493 H 0.50927 0.00302 0.41857 0.0
C1494 C 0.79867 0.71154 0.72808 0.0
C1495 C 0.7859 0.69672 0.71245 0.0
C1496 C 0.81078 0.71193 0.75706 0.0
C1497 C 0.81859 0.68552 0.83655 0.0
H1498 H 0.86268 0.72218 0.83653 0.0
C1499 C 0.86684 0.68834 0.96273 0.0
C1500 C 0.87321 0.70207 0.99047 0.0
C1501 C 0.85876 0.68787 0.922 0.0
C1502 C 0.85042 0.71185 0.83673 0.0
H1503 H 0.77617 0.67071 0.71364 0.0
H1504 H 0.79758 0.67139 0.76267 0.0
H1505 H 0.84321 0.72053 0.77808 0.0
H1506 H 0.87746 0.72666 0.99539 0.0
H1507 H 0.86338 0.72585 0.92413 0.0
H1508 H 0.82588 0.67688 0.89512 0.0
C1509 C 0.798 0.68273 0.75389 0.0
C1510 C 0.8392 0.71093 0.8035 0.0
C1511 C 0.78574 0.68232 0.72552 0.0
C1512 C 0.87262 0.71586 0.97478 0.0
C1513 C 0.86457 0.71541 0.93397 0.0
C1514 C 0.82987 0.68633 0.86924 0.0
C1515 C 0.81058 0.69752 0.7706 0.0
C1516 C 0.82301 0.6979 0.80347 0.0
C1517 C 0.85699 0.70117 0.90819 0.0
C1518 C 0.84581 0.69962 0.87014 0.0
H1519 H 0.7991 0.72285 0.71888 0.0
H1520 H 0.82003 0.72354 0.76978 0.0
H1521 H 0.80621 0.67544 0.83842 0.0
H1522 H 0.86755 0.67775 0.97351 0.0
H1523 H 0.85335 0.67691 0.90211 0.0
C1524 C 0.33635 0.17471 0.74092 0.0
C1525 C 0.32333 0.16288 0.71533 0.0
C1526 C 0.33354 0.18418 0.77204 0.0
C1527 C 0.30516 0.19794 0.81071 0.0
H1528 H 0.31886 0.19267 0.93218 0.0
C1529 C 0.31342 0.22626 0.00177 0.0
C1530 C 0.29738 0.22229 0.01402 0.0
C1531 C 0.31638 0.22029 0.96169 0.0
C1532 C 0.31505 0.19432 0.89842 0.0
H1533 H 0.29754 0.15286 0.69895 0.0
H1534 H 0.29276 0.16953 0.75305 0.0
H1535 H 0.32523 0.18103 0.86662 0.0
H1536 H 0.27195 0.20963 0.99265 0.0
H1537 H 0.27728 0.19958 0.92136 0.0
H1538 H 0.29484 0.21117 0.84302 0.0
C1539 C 0.30504 0.17132 0.74937 0.0
C1540 C 0.3188 0.18778 0.86094 0.0
C1541 C 0.30779 0.16172 0.7186 0.0
C1542 C 0.28444 0.21288 0.9841 0.0
C1543 C 0.28747 0.20716 0.94335 0.0
C1544 C 0.30146 0.20459 0.84837 0.0
C1545 C 0.31773 0.18212 0.77774 0.0
C1546 C 0.31407 0.18967 0.81669 0.0
C1547 C 0.30343 0.21049 0.93246 0.0
C1548 C 0.30657 0.20298 0.89245 0.0
H1549 H 0.34848 0.17599 0.73899 0.0
H1550 H 0.34357 0.19266 0.79301 0.0
H1551 H 0.30122 0.19938 0.77696 0.0
H1552 H 0.32366 0.23343 0.0241 0.0
H1553 H 0.3288 0.22309 0.954 0.0
C1554 C 0.88262 0.1843 0.81215 0.0
C1555 C 0.88755 0.18129 0.76977 0.0
C1556 C 0.87444 0.1717 0.84394 0.0
C1557 C 0.8484 0.128 0.85472 0.0
H1558 H 0.8631 0.13437 0.98076 0.0
C1559 C 0.80766 0.09442 0.00986 0.0
C1560 C 0.81425 0.08892 0.04446 0.0
C1561 C 0.81729 0.10328 0.97261 0.0
C1562 C 0.85893 0.1324 0.94563 0.0
H1563 H 0.88733 0.1626 0.727 0.0
H1564 H 0.87274 0.14062 0.78218 0.0
H1565 H 0.8785 0.15542 0.92346 0.0
H1566 H 0.83593 0.08801 0.06657 0.0
H1567 H 0.85288 0.10391 0.00178 0.0
H1568 H 0.82852 0.10521 0.87741 0.0
C1569 C 0.87538 0.15274 0.79091 0.0
C1570 C 0.86767 0.14446 0.91298 0.0
C1571 C 0.88377 0.16535 0.75944 0.0
C1572 C 0.83049 0.09201 0.04028 0.0
C1573 C 0.84021 0.10115 0.00339 0.0
C1574 C 0.83948 0.11608 0.88762 0.0
C1575 C 0.87083 0.15583 0.83365 0.0
C1576 C 0.86227 0.14253 0.86744 0.0
C1577 C 0.83375 0.10706 0.96959 0.0
C1578 C 0.84442 0.11838 0.93356 0.0
H1579 H 0.88539 0.19643 0.82118 0.0
H1580 H 0.87086 0.17434 0.87652 0.0
H1581 H 0.84404 0.12618 0.81977 0.0
H1582 H 0.79521 0.09227 0.01216 0.0
H1583 H 0.81206 0.10783 0.9473 0.0
C1584 C 0.29094 0.19464 0.252 0.0
C1585 C 0.3063 0.20771 0.23974 0.0
C1586 C 0.28984 0.1825 0.28181 0.0
C1587 C 0.31154 0.16228 0.32733 0.0
H1588 H 0.28529 0.15511 0.43611 0.0
C1589 C 0.31652 0.12884 0.48775 0.0
C1590 C 0.30363 0.12242 0.51954 0.0
C1591 C 0.31521 0.13606 0.44719 0.0
C1592 C 0.29231 0.1565 0.40546 0.0
H1593 H 0.33257 0.21798 0.24803 0.0
H1594 H 0.33059 0.1965 0.29952 0.0
H1595 H 0.28642 0.17405 0.37784 0.0
H1596 H 0.27852 0.11675 0.53128 0.0
H1597 H 0.27608 0.12897 0.46023 0.0
H1598 H 0.31725 0.14454 0.35421 0.0
C1599 C 0.31944 0.1958 0.28618 0.0
C1600 C 0.29307 0.16755 0.37224 0.0
C1601 C 0.32055 0.20812 0.257 0.0
C1602 C 0.28881 0.12187 0.50784 0.0
C1603 C 0.28751 0.12911 0.46728 0.0
C1604 C 0.31051 0.15093 0.36016 0.0
C1605 C 0.30407 0.183 0.29931 0.0
C1606 C 0.30281 0.17067 0.33313 0.0
C1607 C 0.30105 0.13716 0.43764 0.0
C1608 C 0.301 0.14798 0.40004 0.0
H1609 H 0.27973 0.19397 0.23939 0.0
H1610 H 0.27785 0.17273 0.29136 0.0
H1611 H 0.31908 0.16444 0.29726 0.0
H1612 H 0.32795 0.12904 0.49533 0.0
H1613 H 0.32572 0.14163 0.42489 0.0
C1614 C 0.90101 0.18918 0.50663 0.0
C1615 C 0.90705 0.18279 0.5403 0.0
C1616 C 0.89227 0.17981 0.46937 0.0
C1617 C 0.86423 0.13833 0.44223 0.0
H1618 H 0.86904 0.154 0.317 0.0
C1619 C 0.81104 0.11334 0.3131 0.0
C1620 C 0.81418 0.1087 0.27053 0.0
C1621 C 0.82384 0.12194 0.34377 0.0
C1622 C 0.86763 0.14944 0.35178 0.0
H1623 H 0.90912 0.16176 0.56064 0.0
H1624 H 0.89344 0.14525 0.4959 0.0
H1625 H 0.89013 0.16983 0.37358 0.0
H1626 H 0.83329 0.10993 0.22611 0.0
H1627 H 0.85566 0.1253 0.27937 0.0
H1628 H 0.84143 0.11828 0.42104 0.0
C1629 C 0.89566 0.15757 0.49824 0.0
C1630 C 0.87963 0.15851 0.38407 0.0
C1631 C 0.90468 0.16705 0.53511 0.0
C1632 C 0.83045 0.11325 0.25877 0.0
C1633 C 0.84327 0.12208 0.28911 0.0
C1634 C 0.85209 0.12945 0.41024 0.0
C1635 C 0.88915 0.16378 0.46546 0.0
C1636 C 0.87782 0.15322 0.4298 0.0
C1637 C 0.84004 0.12628 0.33212 0.0
C1638 C 0.85351 0.1351 0.36499 0.0
H1639 H 0.90263 0.20126 0.50972 0.0
H1640 H 0.88729 0.18485 0.44483 0.0
H1641 H 0.8626 0.13393 0.47722 0.0
H1642 H 0.79864 0.10998 0.32319 0.0
H1643 H 0.8211 0.12523 0.37662 0.0
C1644 C 0.78376 0.72621 0.46575 0.0
C1645 C 0.7735 0.71239 0.49211 0.0
C1646 C 0.79097 0.72476 0.42547 0.0
C1647 C 0.80789 0.70129 0.38202 0.0
H1648 H 0.80326 0.71362 0.25818 0.0
C1649 C 0.82857 0.67968 0.22757 0.0
C1650 C 0.84072 0.69213 0.20062 0.0
C1651 C 0.81949 0.68309 0.25892 0.0
C1652 C 0.80465 0.71022 0.29268 0.0
H1653 H 0.76224 0.68619 0.49591 0.0
H1654 H 0.7752 0.68379 0.42656 0.0
H1655 H 0.78879 0.71825 0.32168 0.0
H1656 H 0.85196 0.71771 0.18309 0.0
H1657 H 0.83582 0.72354 0.23765 0.0
H1658 H 0.82419 0.69389 0.3537 0.0
C1659 C 0.77748 0.69567 0.43678 0.0
C1660 C 0.79644 0.71286 0.32875 0.0
C1661 C 0.77004 0.69707 0.47638 0.0
C1662 C 0.84281 0.70787 0.20367 0.0
C1663 C 0.83356 0.71122 0.23468 0.0
C1664 C 0.81622 0.6989 0.34624 0.0
C1665 C 0.78826 0.70952 0.41157 0.0
C1666 C 0.79771 0.70801 0.37348 0.0
C1667 C 0.82222 0.69896 0.26355 0.0
C1668 C 0.81425 0.70282 0.30114 0.0
H1669 H 0.78664 0.73816 0.477 0.0
H1670 H 0.79929 0.73559 0.40649 0.0
H1671 H 0.80929 0.69776 0.41641 0.0
H1672 H 0.82655 0.66741 0.22591 0.0
H1673 H 0.8106 0.67339 0.28042 0.0
C1674 C 0.5333 0.00758 0.89018 0.0
C1675 C 0.52491 1.0003 0.93055 0.0
C1676 C 0.52498 0.0092 0.85284 0.0
C1677 C 0.47891 0.98736 0.81059 0.0
H1678 H 0.51181 0.01977 0.68772 0.0
C1679 C 0.44678 0.96752 0.60538 0.0
C1680 C 0.43771 0.97576 0.60343 0.0
C1681 C 0.45731 0.96997 0.64221 0.0
C1682 C 0.50347 0.01137 0.71366 0.0
H1683 H 0.50171 0.99051 0.96606 0.0
H1684 H 0.48742 0.99517 0.9023 0.0
H1685 H 0.52265 0.02445 0.77358 0.0
H1686 H 0.43011 0.9904 0.6415 0.0
H1687 H 0.44799 0.99423 0.70579 0.0
H1688 H 0.45412 0.97005 0.76939 0.0
C1689 C 0.50015 0.99853 0.89791 0.0
C1690 C 0.51043 0.01453 0.768 0.0
C1691 C 0.50837 0.99611 0.93483 0.0
C1692 C 0.43731 0.98428 0.64168 0.0
C1693 C 0.44771 0.9866 0.6783 0.0
C1694 C 0.46652 0.97981 0.76436 0.0
C1695 C 0.50812 0.00429 0.85546 0.0
C1696 C 0.49882 0.00293 0.81258 0.0
C1697 C 0.45902 0.98092 0.67647 0.0
C1698 C 0.47301 0.98744 0.71034 0.0
H1699 H 0.546 0.01062 0.88595 0.0
H1700 H 0.53178 0.01311 0.82123 0.0
H1701 H 0.47351 0.98088 0.84204 0.0
H1702 H 0.44705 0.96057 0.57658 0.0
H1703 H 0.46496 0.96437 0.64203 0.0
C1704 C 0.0099 0.47081 0.60894 0.0
C1705 C 0.01657 0.46093 0.61555 0.0
C1706 C 0.00957 0.48048 0.64367 0.0
C1707 C 0.01476 0.49869 0.81808 0.0
H1708 H 0.99037 0.52091 0.79756 0.0
C1709 C 0.98005 0.53035 0.91817 0.0
C1710 C 0.99302 0.54266 0.94266 0.0
C1711 C 0.98289 0.52029 0.88953 0.0
C1712 C 0.99708 0.51446 0.80432 0.0
H1713 H 0.02973 0.45417 0.66231 0.0
H1714 H 0.02959 0.46936 0.72146 0.0
H1715 H 0.99524 0.50976 0.73817 0.0
H1716 H 0.01888 0.55322 0.95903 0.0
H1717 H 0.02378 0.53566 0.90864 0.0
H1718 H 0.01594 0.50582 0.8883 0.0
C1719 C 0.02328 0.47098 0.69263 0.0
C1720 C 1.00057 0.50731 0.76806 0.0
C1721 C 0.02383 0.46146 0.6569 0.0
C1722 C 0.00865 0.54397 0.9402 0.0
C1723 C 0.01146 0.53382 0.91172 0.0
C1724 C 0.01141 0.50623 0.85439 0.0
C1725 C 0.01489 0.48116 0.69278 0.0
C1726 C 0.00954 0.49769 0.7687 0.0
C1727 C 0.99872 0.52226 0.88497 0.0
C1728 C 0.00226 0.5139 0.84787 0.0
H1729 H 0.0047 0.4711 0.57588 0.0
H1730 H 0.00382 0.48702 0.6293 0.0
H1731 H 0.02185 0.49342 0.83189 0.0
H1732 H 0.96785 0.5289 0.91959 0.0
H1733 H 0.97282 0.51135 0.86949 0.0
C1734 C 0.52582 0.55191 0.64638 0.0
C1735 C 0.52372 0.56401 0.62438 0.0
C1736 C 0.52045 0.54717 0.69111 0.0
C1737 C 0.49087 0.54764 0.77442 0.0
H1738 H 0.50679 0.52341 0.8453 0.0
C1739 C 0.44862 0.49799 0.89981 0.0
C1740 C 0.45501 0.49239 0.9346 0.0
C1741 C 0.45902 0.51014 0.86947 0.0
C1742 C 0.50225 0.53038 0.82695 0.0
H1743 H 0.51538 0.58148 0.63317 0.0
H1744 H 0.50671 0.57377 0.71252 0.0
H1745 H 0.52279 0.54004 0.78181 0.0
H1746 H 0.4773 0.4957 0.96665 0.0
H1747 H 0.4956 0.51776 0.91579 0.0
H1748 H 0.47093 0.53897 0.82142 0.0
C1749 C 0.51193 0.56745 0.69455 0.0
C1750 C 0.51134 0.53971 0.7895 0.0
C1751 C 0.51704 0.572 0.64916 0.0
C1752 C 0.47206 0.49972 0.93982 0.0
C1753 C 0.48253 0.51228 0.91026 0.0
C1754 C 0.48208 0.5388 0.81288 0.0
C1755 C 0.5131 0.5546 0.71574 0.0
C1756 C 0.50536 0.54776 0.76117 0.0
C1757 C 0.47618 0.51743 0.87381 0.0
C1758 C 0.48716 0.52933 0.83839 0.0
H1759 H 0.53086 0.54542 0.6283 0.0
H1760 H 0.52133 0.53705 0.70526 0.0
H1761 H 0.48576 0.55366 0.75393 0.0
H1762 H 0.4355 0.49242 0.89459 0.0
H1763 H 0.45345 0.51325 0.84149 0.0
C1764 C 0.68723 0.8775 0.51116 0.0
C1765 C 0.70164 0.88874 0.48865 0.0
C1766 C 0.68798 0.8706 0.5529 0.0
C1767 C 0.71519 0.86061 0.61788 0.0
H1768 H 0.68214 0.84846 0.71241 0.0
C1769 C 0.7135 0.8222 0.77355 0.0
C1770 C 0.69806 0.80892 0.78415 0.0
C1771 C 0.71488 0.83441 0.74367 0.0
C1772 C 0.69142 0.85173 0.68626 0.0
H1773 H 0.72814 0.90234 0.49372 0.0
H1774 H 0.72938 0.89067 0.5677 0.0
H1775 H 0.68332 0.86617 0.64944 0.0
H1776 H 0.6719 0.79849 0.77307 0.0
H1777 H 0.67433 0.81974 0.7205 0.0
H1778 H 0.72308 0.84588 0.65388 0.0
C1779 C 0.71752 0.88692 0.55236 0.0
C1780 C 0.6921 0.86187 0.65022 0.0
C1781 C 0.7168 0.89368 0.51017 0.0
C1782 C 0.68398 0.80851 0.76558 0.0
C1783 C 0.68537 0.82075 0.73565 0.0
C1784 C 0.71454 0.8505 0.65391 0.0
C1785 C 0.70311 0.87503 0.57366 0.0
C1786 C 0.70377 0.86614 0.61511 0.0
C1787 C 0.70086 0.83367 0.72365 0.0
C1788 C 0.70245 0.84569 0.68804 0.0
H1789 H 0.67539 0.8734 0.49538 0.0
H1790 H 0.67676 0.86113 0.56775 0.0
H1791 H 0.72416 0.86345 0.59106 0.0
H1792 H 0.7246 0.823 0.78754 0.0
H1793 H 0.72697 0.84434 0.73569 0.0
C1794 C 0.17275 0.88966 0.70268 0.0
C1795 C 0.18332 0.88419 0.71949 0.0
C1796 C 0.16006 0.88019 0.6728 0.0
C1797 C 0.13304 0.8396 0.63159 0.0
H1798 H 0.1364 0.86054 0.51436 0.0
C1799 C 0.1027 0.80429 0.46857 0.0
C1800 C 0.10041 0.81233 0.43115 0.0
C1801 C 0.10856 0.81229 0.50993 0.0
C1802 C 0.13484 0.85455 0.54717 0.0
H1803 H 0.18829 0.86411 0.71976 0.0
H1804 H 0.16573 0.84735 0.66793 0.0
H1805 H 0.15509 0.87564 0.57537 0.0
H1806 H 0.1007 0.83436 0.40886 0.0
H1807 H 0.11088 0.84831 0.4811 0.0
H1808 H 0.11264 0.81855 0.60398 0.0
C1809 C 0.16748 0.85907 0.67788 0.0
C1810 C 0.14574 0.86322 0.58201 0.0
C1811 C 0.18041 0.86869 0.70727 0.0
C1812 C 0.10255 0.82793 0.4371 0.0
C1813 C 0.10861 0.83599 0.47839 0.0
C1814 C 0.12184 0.83098 0.59701 0.0
C1815 C 0.15744 0.86492 0.65966 0.0
C1816 C 0.14512 0.85577 0.62422 0.0
C1817 C 0.11261 0.82859 0.51451 0.0
C1818 C 0.12279 0.83824 0.55389 0.0
H1819 H 0.17462 0.90153 0.71132 0.0
H1820 H 0.15243 0.88492 0.65927 0.0
H1821 H 0.13227 0.83365 0.66408 0.0
H1822 H 0.10082 0.79212 0.46512 0.0
H1823 H 0.11103 0.80603 0.53706 0.0
C1824 C 0.1593 0.29263 0.7835 0.0
C1825 C 0.16118 0.30829 0.7865 0.0
C1826 C 0.16855 0.28938 0.75221 0.0
C1827 C 0.18312 0.29934 0.64001 0.0
H1828 H 0.21777 0.28888 0.6625 0.0
C1829 C 0.23166 0.30971 0.50725 0.0
C1830 C 0.2308 0.2955 0.49032 0.0
C1831 C 0.22347 0.30928 0.54742 0.0
C1832 C 0.20796 0.29158 0.65594 0.0
H1833 H 0.17508 0.33302 0.76108 0.0
H1834 H 0.1911 0.32722 0.70629 0.0
H1835 H 0.20287 0.29213 0.72745 0.0
H1836 H 0.22161 0.26991 0.50389 0.0
H1837 H 0.20773 0.26938 0.57556 0.0
H1838 H 0.18849 0.29954 0.56883 0.0
C1839 C 0.18233 0.31751 0.72794 0.0
C1840 C 0.19955 0.29346 0.69286 0.0
C1841 C 0.17322 0.32081 0.75947 0.0
C1842 C 0.22249 0.28106 0.51611 0.0
C1843 C 0.21456 0.28072 0.55699 0.0
C1844 C 0.19156 0.29762 0.60327 0.0
C1845 C 0.17971 0.30168 0.7232 0.0
C1846 C 0.18745 0.29787 0.68503 0.0
C1847 C 0.21459 0.29473 0.57206 0.0
C1848 C 0.20432 0.29414 0.61097 0.0
H1849 H 0.15025 0.28273 0.80413 0.0
H1850 H 0.16641 0.27711 0.74911 0.0
H1851 H 0.17354 0.30238 0.63335 0.0
H1852 H 0.23787 0.32101 0.48818 0.0
H1853 H 0.22365 0.32024 0.55844 0.0
C1854 C 0.56015 0.03089 0.37024 0.0
C1855 C 0.56494 0.01918 0.37937 0.0
C1856 C 0.54919 0.02862 0.33462 0.0
C1857 C 0.49843 0.99713 0.26129 0.0
H1858 H 0.53515 0.0128 0.13717 0.0
C1859 C 0.4755 0.98815 0.07262 0.0
C1860 C 0.47958 0.00342 0.05422 0.0
C1861 C 0.48582 0.98661 0.10442 0.0
C1862 C 0.5282 0.00957 0.1687 0.0
H1863 H 0.56334 0.99684 0.35592 0.0
H1864 H 0.54462 0.99308 0.2942 0.0
H1865 H 0.55266 0.02017 0.21507 0.0
H1866 H 0.49882 0.02852 0.04898 0.0
H1867 H 0.51672 0.02577 0.1049 0.0
H1868 H 0.48032 0.98915 0.19697 0.0
C1869 C 0.5488 0.00371 0.31502 0.0
C1870 C 0.53947 0.01468 0.21762 0.0
C1871 C 0.55972 0.00597 0.35011 0.0
C1872 C 0.49515 0.01664 0.06348 0.0
C1873 C 0.50555 0.01503 0.09494 0.0
C1874 C 0.49316 0.99439 0.20554 0.0
C1875 C 0.54265 0.01445 0.30863 0.0
C1876 C 0.53044 0.01108 0.27077 0.0
C1877 C 0.50045 1.00025 0.11788 0.0
C1878 C 0.50734 1.00043 0.16332 0.0
H1879 H 0.56405 0.04127 0.39218 0.0
H1880 H 0.54544 0.03762 0.32854 0.0
H1881 H 0.4883 0.99255 0.28587 0.0
H1882 H 0.46373 0.97766 0.0656 0.0
H1883 H 0.48155 0.97505 0.12157 0.0
C1884 C 0.0031 0.55827 0.36978 0.0
C1885 C 0.99411 0.55062 0.40808 0.0
C1886 C 0.00397 0.54944 0.33304 0.0
C1887 C 0.99592 0.4951 0.25576 0.0
H1888 H 0.02431 0.51735 0.15486 0.0
C1889 C 0.00401 0.46176 0.10382 0.0
C1890 C 0.02026 0.46607 0.09259 0.0
C1891 C 1.00069 0.47111 0.13382 0.0
C1892 C 0.01638 0.51088 0.18354 0.0
H1893 H 0.97834 0.52755 0.43848 0.0
H1894 H 0.97986 0.51238 0.38282 0.0
H1895 H 0.01908 0.53202 0.20465 0.0
H1896 H 0.04575 0.48396 0.10301 0.0
H1897 H 0.03986 0.50054 0.15527 0.0
H1898 H 0.99386 0.47353 0.22669 0.0
C1899 C 0.98704 0.52501 0.3731 0.0
C1900 C 0.01274 0.5195 0.21568 0.0
C1901 C 0.9856 0.53396 0.40868 0.0
C1902 C 0.03312 0.48029 0.11106 0.0
C1903 C 0.02975 0.4898 0.14078 0.0
C1904 C 0.99937 0.48658 0.22304 0.0
C1905 C 0.99713 0.5313 0.32998 0.0
C1906 C 0.0025 0.51317 0.25864 0.0
C1907 C 0.01351 0.48512 0.153 0.0
C1908 C 0.00982 0.49437 0.18707 0.0
H1909 H 0.00968 0.5714 0.36794 0.0
H1910 H 0.0113 0.55821 0.30698 0.0
H1911 H 0.98762 0.48617 0.28009 0.0
H1912 H 0.99378 0.45092 0.09023 0.0
H1913 H 0.98806 0.46733 0.14227 0.0
C1914 C 0.49039 0.44098 0.37199 0.0
C1915 C 0.47566 0.44019 0.38555 0.0
C1916 C 0.49778 0.4484 0.33058 0.0
C1917 C 0.49845 0.47912 0.24989 0.0
H1918 H 0.52991 0.47083 0.18712 0.0
C1919 C 0.54961 0.52823 0.13995 0.0
C1920 C 0.55558 0.52378 0.102 0.0
C1921 C 0.53816 0.51644 0.16936 0.0
C1922 C 0.52098 0.47321 0.20358 0.0
H1923 H 0.45631 0.44518 0.36471 0.0
H1924 H 0.46871 0.45735 0.29141 0.0
H1925 H 0.5118 0.45155 0.24401 0.0
H1926 H 0.55395 0.50345 0.06445 0.0
H1927 H 0.53346 0.48281 0.11474 0.0
H1928 H 0.5072 0.50046 0.20847 0.0
C1929 C 0.47499 0.4529 0.31347 0.0
C1930 C 0.51073 0.46223 0.23684 0.0
C1931 C 0.46776 0.44575 0.3553 0.0
C1932 C 0.54966 0.50725 0.09367 0.0
C1933 C 0.53797 0.49542 0.12267 0.0
C1934 C 0.50847 0.48992 0.21608 0.0
C1935 C 0.49044 0.45495 0.30141 0.0
C1936 C 0.49964 0.46526 0.26138 0.0
C1937 C 0.53213 0.49986 0.16111 0.0
C1938 C 0.52022 0.48738 0.1934 0.0
H1939 H 0.49681 0.43687 0.39471 0.0
H1940 H 0.50973 0.44985 0.32299 0.0
H1941 H 0.49026 0.48207 0.26821 0.0
H1942 H 0.55407 0.54087 0.14759 0.0
H1943 H 0.53433 0.5204 0.19915 0.0
C1944 C 0.02848 0.54617 0.6352 0.0
C1945 C 0.01479 0.54358 0.60927 0.0
C1946 C 0.02812 0.53361 0.66166 0.0
C1947 C 0.99367 0.48652 0.70448 0.0
H1948 H 0.04202 0.49425 0.77331 0.0
C1949 C 0.99585 0.442 0.86369 0.0
C1950 C 0.01045 0.44261 0.87843 0.0
C1951 C 0.99595 0.45168 0.82707 0.0
C1952 C 0.03081 0.49227 0.75704 0.0
H1953 H 0.99017 0.52564 0.5895 0.0
H1954 H 0.9897 0.5038 0.6343 0.0
H1955 H 0.04333 0.51771 0.71206 0.0
H1956 H 0.0364 0.45303 0.86426 0.0
H1957 H 0.03656 0.46956 0.80026 0.0
H1958 H 0.98135 0.46093 0.74993 0.0
C1959 C 1.00062 0.5155 0.63546 0.0
C1960 C 0.03157 0.50721 0.71877 0.0
C1961 C 1.00089 0.52809 0.60951 0.0
C1962 C 0.02494 0.45232 0.85395 0.0
C1963 C 0.02503 0.46196 0.81731 0.0
C1964 C 0.99301 0.47157 0.74303 0.0
C1965 C 0.01417 0.51809 0.66219 0.0
C1966 C 0.01342 0.50489 0.69205 0.0
C1967 C 0.01063 0.46212 0.8042 0.0
C1968 C 0.01127 0.47411 0.76976 0.0
H1969 H 0.03933 0.558 0.63594 0.0
H1970 H 0.03872 0.53641 0.68236 0.0
H1971 H 0.98236 0.48477 0.68937 0.0
H1972 H 0.98446 0.43469 0.88194 0.0
H1973 H 0.98463 0.45155 0.81865 0.0
C1974 C 0.57455 0.54802 0.86129 0.0
C1975 C 0.58344 0.54069 0.87829 0.0
C1976 C 0.56621 0.54315 0.81981 0.0
C1977 C 0.56138 0.52084 0.71343 0.0
H1978 H 0.51538 0.50791 0.72764 0.0
C1979 C 0.50994 0.47505 0.59727 0.0
C1980 C 0.4965 0.47737 0.58746 0.0
C1981 C 0.52244 0.48559 0.62621 0.0
C1982 C 0.52824 0.51176 0.72266 0.0
H1983 H 0.59149 0.5233 0.86356 0.0
H1984 H 0.57696 0.51487 0.79067 0.0
H1985 H 0.53432 0.52144 0.78998 0.0
H1986 H 0.48618 0.49317 0.59836 0.0
H1987 H 0.50805 0.51159 0.64896 0.0
H1988 H 0.55513 0.51076 0.64627 0.0
C1989 C 0.57645 0.52436 0.80964 0.0
C1990 C 0.53909 0.51952 0.7584 0.0
C1991 C 0.58471 0.52915 0.85143 0.0
C1992 C 0.49627 0.49095 0.60549 0.0
C1993 C 0.50877 0.50147 0.63459 0.0
C1994 C 0.5505 0.51315 0.6774 0.0
C1995 C 0.5667 0.53095 0.79423 0.0
C1996 C 0.55572 0.52398 0.75439 0.0
C1997 C 0.52178 0.49868 0.64609 0.0
C1998 C 0.53377 0.50837 0.68189 0.0
H1999 H 0.57339 0.55702 0.88095 0.0
H2000 H 0.55893 0.54855 0.80842 0.0
H2001 H 0.57416 0.52422 0.70945 0.0
H2002 H 0.51058 0.46478 0.58379 0.0
H2003 H 0.53221 0.48302 0.63471 0.0
C2004 C 0.52405 0.01022 0.55646 0.0
C2005 C 0.52435 0.99585 0.54688 0.0
C2006 C 0.51169 0.00983 0.5838 0.0
C2007 C 0.49609 0.98507 0.6882 0.0
H2008 H 0.47634 0.02385 0.70022 0.0
C2009 C 0.45417 0.01184 0.83869 0.0
C2010 C 0.46501 0.02478 0.86582 0.0
C2011 C 0.46004 0.00686 0.80234 0.0
C2012 C 0.48076 0.01523 0.7022 0.0
H2013 H 0.51053 0.96965 0.55185 0.0
H2014 H 0.48917 0.96902 0.60052 0.0
H2015 H 0.48405 0.01455 0.62185 0.0
H2016 H 0.4903 0.0436 0.87408 0.0
H2017 H 0.5005 0.03505 0.80895 0.0
H2018 H 0.4965 0.98029 0.7683 0.0
C2019 C 0.49851 0.98059 0.58711 0.0
C2020 C 0.48531 0.00893 0.65289 0.0
C2021 C 0.51084 0.98095 0.55956 0.0
C2022 C 0.48167 0.03351 0.8537 0.0
C2023 C 0.48757 0.02842 0.8172 0.0
C2024 C 0.49367 0.9875 0.74413 0.0
C2025 C 0.49956 0.99509 0.6023 0.0
C2026 C 0.49227 0.99538 0.6466 0.0
C2027 C 0.47691 0.01441 0.79316 0.0
C2028 C 0.48295 0.00824 0.75481 0.0
H2029 H 0.53407 0.02189 0.54597 0.0
H2030 H 0.51284 0.02122 0.59484 0.0
H2031 H 0.50109 0.9773 0.67943 0.0
H2032 H 0.44123 0.00503 0.84694 0.0
H2033 H 0.45136 0.9966 0.78285 0.0
C2034 C 0.12556 0.28361 0.01264 0.0
C2035 C 0.12469 0.29705 0.99518 0.0
C2036 C 0.13265 0.28437 0.05539 0.0
C2037 C 0.16419 0.31484 0.12782 0.0
H2038 H 0.15137 0.2792 0.21393 0.0
C2039 C 0.20602 0.32002 0.27841 0.0
C2040 C 0.20807 0.30647 0.2866 0.0
C2041 C 0.19341 0.31883 0.25017 0.0
C2042 C 0.15517 0.28924 0.19008 0.0
H2043 H 0.12878 0.321 0.01052 0.0
H2044 H 0.14147 0.32247 0.08491 0.0
H2045 H 0.13302 0.27679 0.15119 0.0
H2046 H 0.1981 0.28089 0.27284 0.0
H2047 H 0.17646 0.27892 0.22262 0.0
H2048 H 0.1866 0.32704 0.16498 0.0
C2049 C 0.13695 0.31151 0.06525 0.0
C2050 C 0.14462 0.28786 0.15427 0.0
C2051 C 0.12978 0.3107 0.02272 0.0
C2052 C 0.19685 0.29156 0.26731 0.0
C2053 C 0.18435 0.29041 0.23869 0.0
C2054 C 0.17477 0.31616 0.16331 0.0
C2055 C 0.13898 0.29858 0.08132 0.0
C2056 C 0.14915 0.30055 0.12234 0.0
C2057 C 0.18265 0.3041 0.22903 0.0
C2058 C 0.17054 0.30327 0.19445 0.0
H2059 H 0.12173 0.2729 0.99215 0.0
H2060 H 0.1341 0.27422 0.06675 0.0
H2061 H 0.16816 0.32475 0.10337 0.0
H2062 H 0.21434 0.33164 0.29319 0.0
H2063 H 0.19226 0.32954 0.24429 0.0
C2064 C 0.72595 0.79981 0.01475 0.0
C2065 C 0.71159 0.78895 0.99151 0.0
C2066 C 0.72498 0.80712 0.0552 0.0
C2067 C 0.70058 0.82264 0.10098 0.0
H2068 H 0.71358 0.81904 0.22478 0.0
C2069 C 0.6782 0.8439 0.2527 0.0
C2070 C 0.69054 0.85507 0.28139 0.0
C2071 C 0.68168 0.83491 0.22156 0.0
C2072 C 0.71003 0.82022 0.19026 0.0
H2073 H 0.68497 0.77656 0.99402 0.0
H2074 H 0.68344 0.78964 0.06305 0.0
H2075 H 0.71921 0.80533 0.16196 0.0
H2076 H 0.71589 0.86469 0.30218 0.0
H2077 H 0.72183 0.84877 0.2481 0.0
H2078 H 0.69129 0.83733 0.12861 0.0
C2079 C 0.69537 0.79235 0.05049 0.0
C2080 C 0.71331 0.81248 0.1545 0.0
C2081 C 0.6963 0.78487 0.01085 0.0
C2082 C 0.70613 0.85627 0.28029 0.0
C2083 C 0.70955 0.84712 0.24951 0.0
C2084 C 0.69735 0.83036 0.13645 0.0
C2085 C 0.70966 0.80381 0.07238 0.0
C2086 C 0.70827 0.81339 0.10978 0.0
C2087 C 0.6975 0.83675 0.21885 0.0
C2088 C 0.70168 0.82894 0.18158 0.0
H2089 H 0.7379 0.80321 0.00066 0.0
H2090 H 0.73615 0.816 0.07157 0.0
H2091 H 0.69679 0.82364 0.0666 0.0
H2092 H 0.66606 0.84263 0.25272 0.0
H2093 H 0.6721 0.82684 0.19866 0.0
C2094 C 0.2004 0.91707 0.95935 0.0
C2095 C 0.20856 0.91188 0.92939 0.0
C2096 C 0.19413 0.90892 0.00107 0.0
C2097 C 0.17886 0.86838 0.05129 0.0
H2098 H 0.18192 0.88862 0.168 0.0
C2099 C 0.15781 0.83055 0.2154 0.0
C2100 C 0.14525 0.83171 0.23818 0.0
C2101 C 0.1675 0.84223 0.1828 0.0
C2102 C 0.18112 0.88289 0.13562 0.0
H2103 H 0.21692 0.8944 0.92023 0.0
H2104 H 0.20559 0.88006 0.99119 0.0
H2105 H 0.19498 0.90561 0.10004 0.0
H2106 H 0.1341 0.84684 0.24802 0.0
H2107 H 0.15126 0.86737 0.1915 0.0
H2108 H 0.16491 0.84577 0.08658 0.0
C2109 C 0.20423 0.8905 0.98339 0.0
C2110 C 0.18843 0.89255 0.09675 0.0
C2111 C 0.21079 0.8988 0.94254 0.0
C2112 C 0.14354 0.8455 0.23057 0.0
C2113 C 0.1534 0.85731 0.19845 0.0
C2114 C 0.17172 0.8588 0.09004 0.0
C2115 C 0.19562 0.89527 0.01289 0.0
C2116 C 0.18752 0.88535 0.05427 0.0
C2117 C 0.16499 0.85541 0.17296 0.0
C2118 C 0.17298 0.86593 0.13265 0.0
H2119 H 0.19846 0.9271 0.95002 0.0
H2120 H 0.18748 0.91284 0.02301 0.0
H2121 H 0.17754 0.86246 0.01886 0.0
H2122 H 0.15953 0.82014 0.22068 0.0
H2123 H 0.17651 0.84063 0.16389 0.0
C2124 C 0.30495 0.07694 0.75881 0.0
C2125 C 0.32021 0.08822 0.74032 0.0
C2126 C 0.30415 0.06754 0.79718 0.0
C2127 C 0.33066 0.05882 0.87721 0.0
H2128 H 0.30502 0.06512 0.97014 0.0
C2129 C 0.32708 0.06705 0.08482 0.0
C2130 C 0.34267 0.08073 0.08911 0.0
C2131 C 0.32174 0.05955 0.0425 0.0
C2132 C 0.31196 0.06281 0.94462 0.0
H2133 H 0.34641 0.09725 0.74414 0.0
H2134 H 0.34512 0.08137 0.81062 0.0
H2135 H 0.29922 0.06696 0.89011 0.0
H2136 H 0.3658 0.09577 0.05449 0.0
H2137 H 0.35662 0.08253 0.98102 0.0
H2138 H 0.34451 0.05642 0.9324 0.0
C2139 C 0.33368 0.07951 0.79606 0.0
C2140 C 0.3086 0.06382 0.8985 0.0
C2141 C 0.33446 0.08884 0.75807 0.0
C2142 C 0.35361 0.08542 0.05208 0.0
C2143 C 0.34837 0.07777 0.00999 0.0
C2144 C 0.3342 0.05809 0.92337 0.0
C2145 C 0.3186 0.06924 0.81744 0.0
C2146 C 0.31856 0.06283 0.86425 0.0
C2147 C 0.33211 0.06535 0.00421 0.0
C2148 C 0.32543 0.06094 0.95738 0.0
H2149 H 0.29375 0.07613 0.74559 0.0
H2150 H 0.2923 0.05956 0.81234 0.0
H2151 H 0.33825 0.05748 0.85171 0.0
H2152 H 0.31861 0.06288 0.11337 0.0
H2153 H 0.30919 0.04989 0.03903 0.0
C2154 C 0.94062 0.26626 0.06259 0.0
C2155 C 0.92354 0.25905 0.06637 0.0
C2156 C 0.94842 0.27321 0.02116 0.0
C2157 C 0.9395 0.27822 0.89741 0.0
H2158 H 0.96989 0.2622 0.87752 0.0
C2159 C 0.95042 0.23876 0.75624 0.0
C2160 C 0.94712 0.24501 0.71637 0.0
C2161 C 0.95334 0.24701 0.7974 0.0
C2162 C 0.96141 0.26673 0.88232 0.0
H2163 H 0.90133 0.25468 0.03178 0.0
H2164 H 0.91456 0.26587 0.95903 0.0
H2165 H 0.96342 0.26592 0.95452 0.0
H2166 H 0.94569 0.26533 0.68697 0.0
H2167 H 0.95143 0.28018 0.75871 0.0
H2168 H 0.9362 0.27727 0.82505 0.0
C2169 C 0.92226 0.26683 0.98783 0.0
C2170 C 0.95788 0.2692 0.92684 0.0
C2171 C 0.91456 0.26036 0.02975 0.0
C2172 C 0.94814 0.26027 0.71748 0.0
C2173 C 0.95129 0.26868 0.75864 0.0
C2174 C 0.94276 0.27538 0.85284 0.0
C2175 C 0.93917 0.2724 0.98215 0.0
C2176 C 0.94621 0.27418 0.93523 0.0
C2177 C 0.95327 0.26184 0.79954 0.0
C2178 C 0.95311 0.26878 0.84492 0.0
H2179 H 0.94778 0.26538 0.09059 0.0
H2180 H 0.96153 0.278 0.0189 0.0
H2181 H 0.93091 0.28262 0.90216 0.0
H2182 H 0.94959 0.22694 0.7564 0.0
H2183 H 0.95453 0.24114 0.82802 0.0
C2184 C 0.73333 0.71007 0.73305 0.0
C2185 C 0.72492 0.70041 0.69557 0.0
C2186 C 0.72825 0.70446 0.77761 0.0
C2187 C 0.7153 0.69197 0.87167 0.0
H2188 H 0.7008 0.64626 0.88732 0.0
C2189 C 0.72243 0.669 0.04638 0.0
C2190 C 0.72832 0.65796 0.0456 0.0
C2191 C 0.71521 0.67154 0.00746 0.0
C2192 C 0.70498 0.65908 0.8838 0.0
H2193 H 0.70357 0.6782 0.67502 0.0
H2194 H 0.69419 0.66865 0.75287 0.0
H2195 H 0.70171 0.65713 0.81149 0.0
H2196 H 0.73067 0.64033 0.00489 0.0
H2197 H 0.7191 0.64531 0.93628 0.0
H2198 H 0.72031 0.69434 0.94295 0.0
C2199 C 0.70517 0.68022 0.7481 0.0
C2200 C 0.70519 0.66532 0.84004 0.0
C2201 C 0.71045 0.68573 0.70344 0.0
C2202 C 0.72593 0.64871 0.00644 0.0
C2203 C 0.71923 0.65162 0.96698 0.0
C2204 C 0.71554 0.68583 0.91517 0.0
C2205 C 0.71442 0.68918 0.78589 0.0
C2206 C 0.71097 0.682 0.83308 0.0
C2207 C 0.71444 0.66363 0.96623 0.0
C2208 C 0.71097 0.66938 0.92174 0.0
H2209 H 0.74451 0.72149 0.72817 0.0
H2210 H 0.73588 0.71174 0.80536 0.0
H2211 H 0.7193 0.70476 0.86816 0.0
H2212 H 0.7242 0.67629 0.07635 0.0
H2213 H 0.71112 0.6804 0.00916 0.0
C2214 C 0.08177 0.32103 0.78453 0.0
C2215 C 0.08661 0.3092 0.78265 0.0
C2216 C 0.07291 0.32286 0.74859 0.0
C2217 C 0.05684 0.3072 0.63031 0.0
H2218 H 0.07634 0.3531 0.60361 0.0
C2219 C 0.06942 0.32693 0.44635 0.0
C2220 C 0.08548 0.33959 0.43951 0.0
C2221 C 0.06179 0.32471 0.48883 0.0
C2222 C 0.07083 0.34022 0.61022 0.0
H2223 H 0.08514 0.28926 0.74399 0.0
H2224 H 0.07067 0.2929 0.68012 0.0
H2225 H 0.07701 0.34418 0.68064 0.0
H2226 H 0.10556 0.3608 0.46952 0.0
H2227 H 0.09294 0.35657 0.54396 0.0
H2228 H 0.05258 0.30333 0.55904 0.0
C2229 C 0.07295 0.30049 0.70962 0.0
C2230 C 0.07089 0.33499 0.65505 0.0
C2231 C 0.08135 0.29835 0.74629 0.0
C2232 C 0.09311 0.35101 0.47395 0.0
C2233 C 0.08574 0.3485 0.51691 0.0
C2234 C 0.05728 0.31245 0.58524 0.0
C2235 C 0.06936 0.31334 0.70913 0.0
C2236 C 0.06482 0.31844 0.66527 0.0
C2237 C 0.0704 0.33469 0.52585 0.0
C2238 C 0.06524 0.32911 0.57411 0.0
H2239 H 0.0857 0.3295 0.81255 0.0
H2240 H 0.06984 0.33247 0.75058 0.0
H2241 H 0.0513 0.29432 0.63694 0.0
H2242 H 0.06326 0.31804 0.41994 0.0
H2243 H 0.04969 0.31439 0.49347 0.0
C2244 C 0.65838 0.72358 0.47722 0.0
C2245 C 0.66934 0.72963 0.44044 0.0
C2246 C 0.66199 0.71689 0.51546 0.0
C2247 C 0.69926 0.71998 0.57195 0.0
H2248 H 0.66748 0.70034 0.66926 0.0
C2249 C 0.71402 0.74471 0.74904 0.0
C2250 C 0.70212 0.73764 0.78335 0.0
C2251 C 0.71231 0.73653 0.70819 0.0
C2252 C 0.67674 0.70551 0.64286 0.0
H2253 H 0.69167 0.73194 0.41201 0.0
H2254 H 0.69729 0.71896 0.47664 0.0
H2255 H 0.65823 0.69746 0.59155 0.0
H2256 H 0.68081 0.71556 0.80582 0.0
H2257 H 0.67867 0.70062 0.7366 0.0
H2258 H 0.7178 0.72726 0.62295 0.0
C2259 C 0.6864 0.72016 0.4778 0.0
C2260 C 0.67129 0.70416 0.59772 0.0
C2261 C 0.68306 0.72738 0.44026 0.0
C2262 C 0.68998 0.72137 0.77931 0.0
C2263 C 0.68862 0.71293 0.73912 0.0
C2264 C 0.70473 0.7208 0.61692 0.0
C2265 C 0.67648 0.71575 0.51729 0.0
C2266 C 0.68237 0.71254 0.56202 0.0
C2267 C 0.69881 0.72092 0.70126 0.0
C2268 C 0.69353 0.71483 0.65356 0.0
H2269 H 0.64783 0.72541 0.47831 0.0
H2270 H 0.65399 0.71391 0.54479 0.0
H2271 H 0.70841 0.7264 0.54591 0.0
H2272 H 0.72353 0.75726 0.75138 0.0
H2273 H 0.72066 0.7433 0.68078 0.0
C2274 C 0.25306 0.92032 0.40866 0.0
C2275 C 0.24672 0.92556 0.373 0.0
C2276 C 0.26166 0.93077 0.44432 0.0
C2277 C 0.2639 0.96704 0.4989 0.0
H2278 H 0.28596 0.95469 0.58977 0.0
C2279 C 0.24639 0.96107 0.68319 0.0
C2280 C 0.25471 0.95658 0.71493 0.0
C2281 C 0.25298 0.96653 0.63962 0.0
C2282 C 0.28022 0.95885 0.56495 0.0
H2283 H 0.24587 0.94618 0.34338 0.0
H2284 H 0.26193 0.96483 0.40358 0.0
H2285 H 0.28504 0.9465 0.51191 0.0
H2286 H 0.27753 0.95696 0.72974 0.0
H2287 H 0.28981 0.96801 0.65544 0.0
H2288 H 0.25969 0.97999 0.55148 0.0
C2289 C 0.25955 0.95245 0.4059 0.0
C2290 C 0.27937 0.95375 0.51995 0.0
C2291 C 0.25049 0.94183 0.37103 0.0
C2292 C 0.27083 0.9602 0.70543 0.0
C2293 C 0.27769 0.96623 0.6624 0.0
C2294 C 0.26527 0.97265 0.54355 0.0
C2295 C 0.26446 0.94685 0.44444 0.0
C2296 C 0.27003 0.95662 0.48719 0.0
C2297 C 0.26823 0.96796 0.62747 0.0
C2298 C 0.27221 0.96748 0.57814 0.0
H2299 H 0.2502 0.90778 0.41099 0.0
H2300 H 0.26494 0.92574 0.47324 0.0
H2301 H 0.25681 0.96987 0.47495 0.0
H2302 H 0.23389 0.95831 0.6897 0.0
H2303 H 0.24516 0.96777 0.61446 0.0
C2304 C 0.67289 0.92799 0.92789 0.0
C2305 C 0.6605 0.91173 0.92673 0.0
C2306 C 0.67512 0.93726 0.9668 0.0
C2307 C 0.65972 0.93389 0.08801 0.0
H2308 H 0.70629 0.95659 0.11341 0.0
C2309 C 0.67953 0.93325 0.2692 0.0
C2310 C 0.69161 0.92861 0.2722 0.0
C2311 C 0.6777 0.94036 0.22906 0.0
C2312 C 0.69322 0.95025 0.10715 0.0
H2313 H 0.63986 0.89275 0.96315 0.0
H2314 H 0.64418 0.90833 0.03183 0.0
H2315 H 0.697 0.95055 0.03549 0.0
H2316 H 0.7122 0.92903 0.23797 0.0
H2317 H 0.70864 0.9405 0.16736 0.0
H2318 H 0.65593 0.93175 0.15989 0.0
C2319 C 0.65195 0.91439 0.0027 0.0
C2320 C 0.6878 0.94701 0.06194 0.0
C2321 C 0.64943 0.90532 0.96319 0.0
C2322 C 0.70291 0.9327 0.23654 0.0
C2323 C 0.70079 0.93933 0.19584 0.0
C2324 C 0.66514 0.93667 0.13329 0.0
C2325 C 0.66543 0.93022 0.00605 0.0
C2326 C 0.67095 0.93788 0.05186 0.0
C2327 C 0.68747 0.94227 0.19049 0.0
C2328 C 0.68199 0.944 0.14361 0.0
H2329 H 0.6815 0.93322 0.89981 0.0
H2330 H 0.68519 0.94957 0.96709 0.0
H2331 H 0.64666 0.92752 0.08177 0.0
H2332 H 0.67069 0.93021 0.29653 0.0
H2333 H 0.66776 0.94308 0.2272 0.0
C2334 C 0.07302 0.74095 0.22768 0.0
C2335 C 0.07251 0.75548 0.23079 0.0
C2336 C 0.0646 0.72998 0.19304 0.0
C2337 C 0.06355 0.72283 0.09326 0.0
H2338 H 0.0249 0.71653 0.02762 0.0
C2339 C 0.06724 0.72433 0.90353 0.0
C2340 C 0.06376 0.73625 0.88664 0.0
C2341 C 0.06047 0.71648 0.94521 0.0
C2342 C 0.03572 0.7181 0.04548 0.0
H2343 H 0.06142 0.76916 0.20339 0.0
H2344 H 0.04704 0.75022 0.14172 0.0
H2345 H 0.02764 0.72306 0.10884 0.0
H2346 H 0.04832 0.74717 0.8955 0.0
H2347 H 0.03725 0.73429 0.96801 0.0
H2348 H 0.07258 0.71965 0.03009 0.0
C2349 C 0.05376 0.74715 0.16645 0.0
C2350 C 0.03723 0.72178 0.09208 0.0
C2351 C 0.06206 0.75807 0.20159 0.0
C2352 C 0.05162 0.73838 0.90839 0.0
C2353 C 0.04506 0.73075 0.9501 0.0
C2354 C 0.06219 0.71946 0.04674 0.0
C2355 C 0.05569 0.73345 0.16038 0.0
C2356 C 0.05158 0.72504 0.11578 0.0
C2357 C 0.05039 0.72067 0.97086 0.0
C2358 C 0.04876 0.71811 0.02148 0.0
H2359 H 0.08074 0.7385 0.25041 0.0
H2360 H 0.06606 0.71938 0.18979 0.0
H2361 H 0.07483 0.72532 0.11033 0.0
H2362 H 0.07629 0.72216 0.88696 0.0
H2363 H 0.06431 0.70824 0.95917 0.0
C2364 C 0.27132 0.29079 0.24082 0.0
C2365 C 0.27968 0.30269 0.27365 0.0
C2366 C 0.27777 0.29268 0.19675 0.0
C2367 C 0.30471 0.32871 0.12552 0.0
H2368 H 0.28091 0.29761 0.0313 0.0
C2369 C 0.27637 0.32289 0.93043 0.0
C2370 C 0.27321 0.33586 0.93401 0.0
C2371 C 0.28473 0.31969 0.9652 0.0
C2372 C 0.28808 0.30661 0.05647 0.0
H2373 H 0.30262 0.324 0.28973 0.0
H2374 H 0.31465 0.32648 0.21443 0.0
H2375 H 0.28368 0.28814 0.10589 0.0
H2376 H 0.27682 0.3561 0.9752 0.0
H2377 H 0.29046 0.35015 0.03709 0.0
H2378 H 0.30977 0.34718 0.07559 0.0
C2379 C 0.30253 0.3164 0.22093 0.0
C2380 C 0.28939 0.30108 0.10004 0.0
C2381 C 0.29581 0.31482 0.26453 0.0
C2382 C 0.27937 0.34618 0.97145 0.0
C2383 C 0.28728 0.34271 0.00696 0.0
C2384 C 0.30389 0.33424 0.08159 0.0
C2385 C 0.29291 0.30636 0.18513 0.0
C2386 C 0.2966 0.312 0.13623 0.0
C2387 C 0.28951 0.32901 0.00527 0.0
C2388 C 0.29452 0.32329 0.0473 0.0
H2389 H 0.25885 0.28127 0.2471 0.0
H2390 H 0.26989 0.28439 0.17104 0.0
H2391 H 0.31061 0.33774 0.1516 0.0
H2392 H 0.27168 0.31476 0.90166 0.0
H2393 H 0.28665 0.3094 0.96149 0.0
C2394 C 0.92366 0.70185 0.22579 0.0
C2395 C 0.91489 0.68921 0.19521 0.0
C2396 C 0.93228 0.69969 0.26199 0.0
C2397 C 0.94899 0.69145 0.33995 0.0
H2398 H 0.91488 0.65168 0.39424 0.0
C2399 C 0.93005 0.68708 0.52328 0.0
C2400 C 0.91933 0.67201 0.54349 0.0
C2401 C 0.93729 0.68793 0.48112 0.0
C2402 C 0.92495 0.66257 0.37979 0.0
H2403 H 0.91002 0.66542 0.17412 0.0
H2404 H 0.9254 0.66183 0.2363 0.0
H2405 H 0.91416 0.65657 0.31368 0.0
H2406 H 0.90984 0.64612 0.53896 0.0
H2407 H 0.92298 0.64759 0.46571 0.0
H2408 H 0.95941 0.69769 0.40687 0.0
C2409 C 0.92534 0.67321 0.23334 0.0
C2410 C 0.92448 0.66543 0.33312 0.0
C2411 C 0.91659 0.67529 0.19768 0.0
C2412 C 0.9178 0.6579 0.52377 0.0
C2413 C 0.92523 0.65877 0.48154 0.0
C2414 C 0.94963 0.68847 0.38673 0.0
C2415 C 0.93228 0.68489 0.26767 0.0
C2416 C 0.93593 0.68029 0.31318 0.0
C2417 C 0.93411 0.67373 0.45819 0.0
C2418 C 0.93697 0.67446 0.40782 0.0
H2419 H 0.92244 0.71265 0.22465 0.0
H2420 H 0.93746 0.70891 0.28794 0.0
H2421 H 0.95816 0.70288 0.32533 0.0
H2422 H 0.93181 0.69823 0.53818 0.0
H2423 H 0.94402 0.69972 0.46484 0.0
C2424 C 0.34984 0.27163 0.52359 0.0
C2425 C 0.33958 0.26831 0.56156 0.0
C2426 C 0.34743 0.2787 0.48417 0.0
C2427 C 0.31312 0.28192 0.42916 0.0
H2428 H 0.34373 0.29625 0.328 0.0
C2429 C 0.31646 0.2845 0.21745 0.0
C2430 C 0.30225 0.26956 0.21068 0.0
C2431 C 0.321 0.29079 0.26148 0.0
C2432 C 0.335 0.29265 0.35577 0.0
H2433 H 0.32004 0.27126 0.59059 0.0
H2434 H 0.31678 0.28499 0.52367 0.0
H2435 H 0.35371 0.29754 0.405 0.0
H2436 H 0.28086 0.2502 0.24395 0.0
H2437 H 0.28896 0.26057 0.32022 0.0
H2438 H 0.29453 0.27767 0.38009 0.0
C2439 C 0.32603 0.2813 0.52267 0.0
C2440 C 0.34073 0.29306 0.40026 0.0
C2441 C 0.32806 0.27369 0.56146 0.0
C2442 C 0.29193 0.26171 0.24806 0.0
C2443 C 0.29659 0.26781 0.29206 0.0
C2444 C 0.30749 0.28199 0.3849 0.0
C2445 C 0.33496 0.28298 0.48234 0.0
C2446 C 0.32973 0.28673 0.43734 0.0
C2447 C 0.31155 0.28208 0.29972 0.0
C2448 C 0.31815 0.28636 0.34722 0.0
H2449 H 0.35866 0.26736 0.52274 0.0
H2450 H 0.35455 0.27953 0.45422 0.0
H2451 H 0.30409 0.27697 0.45619 0.0
H2452 H 0.32446 0.29094 0.18895 0.0
H2453 H 0.33231 0.30207 0.26562 0.0
C2454 C 0.74256 0.04968 0.55173 0.0
C2455 C 0.74162 0.06305 0.56834 0.0
C2456 C 0.73462 0.04218 0.51149 0.0
C2457 C 0.7239 0.05518 0.40503 0.0
H2458 H 0.719 0.01409 0.36557 0.0
C2459 C 0.75297 0.03899 0.25413 0.0
C2460 C 0.74894 0.04598 0.21718 0.0
C2461 C 0.74369 0.03476 0.29431 0.0
C2462 C 0.72 0.02547 0.37608 0.0
H2463 H 0.72993 0.07773 0.55916 0.0
H2464 H 0.71562 0.06434 0.48896 0.0
H2465 H 0.71611 0.01828 0.44656 0.0
H2466 H 0.73084 0.05184 0.19056 0.0
H2467 H 0.71478 0.04476 0.2614 0.0
H2468 H 0.72853 0.06257 0.33494 0.0
C2469 C 0.72293 0.05996 0.5064 0.0
C2470 C 0.71848 0.02795 0.42247 0.0
C2471 C 0.73099 0.06755 0.54687 0.0
C2472 C 0.73439 0.04682 0.21906 0.0
C2473 C 0.72517 0.04272 0.2594 0.0
C2474 C 0.72513 0.05258 0.35871 0.0
C2475 C 0.72544 0.04781 0.4868 0.0
C2476 C 0.72146 0.04321 0.43786 0.0
C2477 C 0.73026 0.03746 0.29811 0.0
C2478 C 0.72404 0.03803 0.34411 0.0
H2479 H 0.75046 0.04575 0.56798 0.0
H2480 H 0.737 0.03296 0.49786 0.0
H2481 H 0.72645 0.06714 0.41515 0.0
H2482 H 0.76402 0.03802 0.25346 0.0
H2483 H 0.74791 0.03076 0.32369 0.0
C2484 C 0.99175 0.38298 0.42233 0.0
C2485 C 0.00449 0.39878 0.43009 0.0
C2486 C 0.99285 0.37384 0.38674 0.0
C2487 C 0.02009 0.37708 0.28721 0.0
H2488 H 0.97849 0.35686 0.2239 0.0
C2489 C 0.99597 0.38463 0.10542 0.0
C2490 C 0.01092 0.39026 0.08259 0.0
C2491 C 0.99313 0.37607 0.14664 0.0
C2492 C 0.99028 0.3626 0.24076 0.0
H2493 H 0.02888 0.41696 0.40951 0.0
H2494 H 0.03051 0.40175 0.34605 0.0
H2495 H 0.9791 0.36145 0.30476 0.0
H2496 H 0.03344 0.38917 0.08003 0.0
H2497 H 0.02788 0.37288 0.1495 0.0
H2498 H 0.03146 0.38027 0.22252 0.0
C2499 C 0.01982 0.39588 0.36783 0.0
C2500 C 0.99063 0.36495 0.28791 0.0
C2501 C 0.01891 0.40477 0.40431 0.0
C2502 C 0.02188 0.3851 0.09758 0.0
C2503 C 0.01878 0.376 0.13795 0.0
C2504 C 0.01979 0.37532 0.23983 0.0
C2505 C 0.00646 0.38058 0.35703 0.0
C2506 C 0.00566 0.3733 0.31129 0.0
C2507 C 0.00507 0.37264 0.16524 0.0
C2508 C 0.00493 0.36913 0.21541 0.0
H2509 H 0.98058 0.37801 0.44234 0.0
H2510 H 0.98257 0.3619 0.38099 0.0
H2511 H 0.03186 0.38268 0.30418 0.0
H2512 H 0.98735 0.38852 0.09454 0.0
H2513 H 0.98235 0.3738 0.16577 0.0
C2514 C 0.62051 0.57934 0.11857 0.0
C2515 C 0.62055 0.58658 0.07639 0.0
C2516 C 0.62001 0.58661 0.15935 0.0
C2517 C 0.62005 0.60422 0.24427 0.0
H2518 H 0.58751 0.61816 0.23499 0.0
C2519 C 0.58429 0.60176 0.40303 0.0
C2520 C 0.56734 0.59343 0.39547 0.0
C2521 C 0.59514 0.60868 0.36626 0.0
C2522 C 0.59668 0.61438 0.23831 0.0
H2523 H 0.62195 0.60784 0.04366 0.0
H2524 H 0.62166 0.62085 0.11492 0.0
H2525 H 0.59994 0.61504 0.16602 0.0
H2526 H 0.54826 0.58647 0.34484 0.0
H2527 H 0.56695 0.5981 0.28058 0.0
H2528 H 0.6156 0.60198 0.31607 0.0
C2529 C 0.62147 0.60933 0.11663 0.0
C2530 C 0.60402 0.61281 0.19865 0.0
C2531 C 0.62178 0.60196 0.07583 0.0
C2532 C 0.56132 0.59315 0.35142 0.0
C2533 C 0.57212 0.59987 0.31459 0.0
C2534 C 0.61254 0.60557 0.28386 0.0
C2535 C 0.61974 0.60136 0.15881 0.0
C2536 C 0.61522 0.60694 0.20099 0.0
C2537 C 0.58918 0.607 0.32121 0.0
C2538 C 0.60014 0.60989 0.2812 0.0
H2539 H 0.61949 0.56745 0.12013 0.0
H2540 H 0.61855 0.57998 0.191 0.0
H2541 H 0.62894 0.60009 0.24747 0.0
H2542 H 0.58914 0.60189 0.43682 0.0
H2543 H 0.60818 0.61438 0.37283 0.0
C2544 C 0.42092 0.03333 0.10067 0.0
C2545 C 0.41432 0.02235 0.06475 0.0
C2546 C 0.41121 0.03188 0.13847 0.0
C2547 C 0.3769 0.99753 0.19607 0.0
H2548 H 0.39279 0.02881 0.29349 0.0
C2549 C 0.39252 0.00537 0.40127 0.0
C2550 C 0.39868 0.99451 0.40211 0.0
C2551 C 0.38461 0.00683 0.3624 0.0
C2552 C 0.38767 0.01981 0.26698 0.0
H2553 H 0.392 0.00304 0.03613 0.0
H2554 H 0.37477 0.00113 0.10071 0.0
H2555 H 0.39699 0.03818 0.21496 0.0
H2556 H 0.39976 0.97534 0.36555 0.0
H2557 H 0.38674 0.97828 0.29717 0.0
H2558 H 0.36768 0.97916 0.24809 0.0
C2559 C 0.38758 0.0103 0.1012 0.0
C2560 C 0.39035 0.02526 0.22161 0.0
C2561 C 0.3974 0.01148 0.06397 0.0
C2562 C 0.39515 0.98384 0.36571 0.0
C2563 C 0.38756 0.98552 0.32642 0.0
C2564 C 0.37388 0.99209 0.24141 0.0
C2565 C 0.39465 0.01957 0.1405 0.0
C2566 C 0.38627 0.01421 0.18574 0.0
C2567 C 0.38313 0.99776 0.32322 0.0
C2568 C 0.38047 0.00314 0.27739 0.0
H2569 H 0.43395 0.0418 0.10201 0.0
H2570 H 0.41724 0.03931 0.1678 0.0
H2571 H 0.37329 0.98851 0.16969 0.0
H2572 H 0.39484 0.01354 0.42943 0.0
H2573 H 0.38085 0.01596 0.36186 0.0
C2574 C 0.57092 0.96004 0.89419 0.0
C2575 C 0.57807 0.96992 0.93218 0.0
C2576 C 0.58049 0.96148 0.85606 0.0
C2577 C 0.61701 0.99478 0.80289 0.0
H2578 H 0.60049 0.96508 0.70171 0.0
C2579 C 0.60676 0.99107 0.59453 0.0
C2580 C 0.60271 0.00349 0.5922 0.0
C2581 C 0.61274 0.98802 0.63509 0.0
C2582 C 0.60577 0.9736 0.72935 0.0
H2583 H 0.60105 0.98707 0.96339 0.0
H2584 H 0.61789 0.989 0.8978 0.0
H2585 H 0.59402 0.95462 0.77903 0.0
H2586 H 0.60322 0.02351 0.62825 0.0
H2587 H 0.61282 0.01784 0.69962 0.0
H2588 H 0.6287 0.01377 0.75319 0.0
C2589 C 0.60483 0.98073 0.89629 0.0
C2590 C 0.60179 0.96754 0.77398 0.0
C2591 C 0.5952 0.97952 0.93406 0.0
C2592 C 0.60635 0.01391 0.62926 0.0
C2593 C 0.61192 0.01061 0.67027 0.0
C2594 C 0.62129 1.0008 0.75828 0.0
C2595 C 0.59743 0.97266 0.85558 0.0
C2596 C 0.6063 0.97816 0.81108 0.0
C2597 C 0.61421 0.99699 0.67453 0.0
C2598 C 0.61469 0.99043 0.7208 0.0
H2599 H 0.55774 0.95253 0.89182 0.0
H2600 H 0.57423 0.95502 0.82557 0.0
H2601 H 0.62091 0.00343 0.83035 0.0
H2602 H 0.60419 0.98298 0.566 0.0
H2603 H 0.61494 0.97782 0.63646 0.0
C2604 C 0.98482 0.60181 0.62345 0.0
C2605 C 0.99856 0.60908 0.59479 0.0
C2606 C 0.98338 0.61047 0.65978 0.0
C2607 C 0.98287 0.62897 0.74105 0.0
H2608 H 0.02608 0.65325 0.79435 0.0
C2609 C 0.98784 0.62375 0.93003 0.0
C2610 C 0.99986 0.61952 0.94115 0.0
C2611 C 0.98902 0.63224 0.88955 0.0
C2612 C 0.01388 0.64646 0.78022 0.0
H2613 H 0.02028 0.63157 0.57693 0.0
H2614 H 0.01717 0.64709 0.63807 0.0
H2615 H 0.02346 0.64834 0.71334 0.0
H2616 H 0.0234 0.62238 0.92202 0.0
H2617 H 0.02515 0.63623 0.85064 0.0
H2618 H 0.97338 0.62523 0.80858 0.0
C2619 C 0.00797 0.63448 0.63461 0.0
C2620 C 0.01231 0.64387 0.73311 0.0
C2621 C 0.00967 0.62567 0.59915 0.0
C2622 C 0.014 0.62556 0.91419 0.0
C2623 C 0.01495 0.63359 0.87299 0.0
C2624 C 0.98446 0.6311 0.78832 0.0
C2625 C 0.99549 0.62669 0.66749 0.0
C2626 C 0.99681 0.63407 0.71332 0.0
C2627 C 0.00189 0.63601 0.85852 0.0
C2628 C 1.00007 0.63888 0.80893 0.0
H2629 H 0.97614 0.589 0.62085 0.0
H2630 H 0.97358 0.60385 0.68404 0.0
H2631 H 0.97067 0.62209 0.72694 0.0
H2632 H 0.97688 0.61935 0.95077 0.0
H2633 H 0.97909 0.63454 0.88087 0.0
C2634 C 0.40628 0.39721 0.58969 0.0
C2635 C 0.42311 0.40277 0.5943 0.0
C2636 C 0.39558 0.38906 0.62592 0.0
C2637 C 0.39589 0.37804 0.75101 0.0
H2638 H 0.36632 0.39551 0.75963 0.0
C2639 C 0.38831 0.39939 0.92312 0.0
C2640 C 0.3895 0.41472 0.92123 0.0
C2641 C 0.38348 0.38953 0.88459 0.0
C2642 C 0.37466 0.39068 0.75817 0.0
H2643 H 0.44191 0.40323 0.6383 0.0
H2644 H 0.42379 0.39019 0.70238 0.0
H2645 H 0.3762 0.39328 0.68592 0.0
H2646 H 0.38519 0.43125 0.87953 0.0
H2647 H 0.37793 0.41489 0.81179 0.0
H2648 H 0.39612 0.3775 0.82355 0.0
C2649 C 0.41835 0.39128 0.6708 0.0
C2650 C 0.38012 0.38902 0.71526 0.0
C2651 C 0.42891 0.39889 0.63394 0.0
C2652 C 0.38428 0.41941 0.88184 0.0
C2653 C 0.38003 0.40985 0.84279 0.0
C2654 C 0.39096 0.38032 0.79401 0.0
C2655 C 0.40165 0.38707 0.6683 0.0
C2656 C 0.39176 0.38373 0.71123 0.0
C2657 C 0.38052 0.39517 0.84273 0.0
C2658 C 0.38117 0.38776 0.79834 0.0
H2659 H 0.40157 0.40003 0.55909 0.0
H2660 H 0.38275 0.38539 0.62153 0.0
H2661 H 0.40404 0.37299 0.74952 0.0
H2662 H 0.39212 0.39546 0.95351 0.0
H2663 H 0.38325 0.37801 0.88696 0.0
loop_
_geom_bond_atom_site_label_1
_geom_bond_atom_site_label_2
_geom_bond_distance
_geom_bond_site_symmetry_2
_ccdc_geom_bond_type
O0 Cd1 2.223 . S
O0 C8 1.315 . S
Cd1 O0 2.223 . S
Cd1 O4 2.297 . S
Cd1 O5 2.439 . S
Cd1 O11 2.240 . S
Cd2 O3 2.240 . S
Cd2 O10 2.223 . S
Cd2 O12 2.297 . S
Cd2 O13 2.439 . S
O3 Cd2 2.240 . S
O3 C8 1.279 . S
O4 Cd1 2.297 . S
O4 C6 1.247 . S
O5 Cd1 2.439 . S
O5 C6 1.208 . S
C6 O4 1.247 . S
C6 O5 1.208 . S
C7 O12 1.247 . S
C7 O13 1.208 . S
C8 O0 1.315 . S
C8 O3 1.279 . S
C9 O10 1.315 . S
C9 O11 1.279 . S
O10 Cd2 2.223 . S
O10 C9 1.315 . S
O11 Cd1 2.240 . S
O11 C9 1.279 . S
O12 Cd2 2.297 . S
O12 C7 1.247 . S
O13 Cd2 2.439 . S
O13 C7 1.208 . S
O14 Cd15 2.223 . S
O14 C22 1.315 . S
Cd15 O14 2.223 . S
Cd15 O18 2.297 . S
Cd15 O19 2.439 . S
Cd15 O25 2.240 . S
Cd16 O17 2.240 . S
Cd16 O24 2.223 . S
Cd16 O26 2.297 . S
Cd16 O27 2.439 . S
O17 Cd16 2.240 . S
O17 C22 1.279 . S
O18 Cd15 2.297 . S
O18 C20 1.247 . S
O19 Cd15 2.439 . S
O19 C20 1.208 . S
C20 O18 1.247 . S
C20 O19 1.208 . S
C21 O26 1.247 . S
C21 O27 1.208 . S
C22 O14 1.315 . S
C22 O17 1.279 . S
C23 O24 1.315 . S
C23 O25 1.279 . S
O24 Cd16 2.223 . S
O24 C23 1.315 . S
O25 Cd15 2.240 . S
O25 C23 1.279 . S
O26 Cd16 2.297 . S
O26 C21 1.247 . S
O27 Cd16 2.439 . S
O27 C21 1.208 . S
O28 Cd29 2.223 . S
O28 C36 1.315 . S
Cd29 O28 2.223 . S
Cd29 O32 2.297 . S
Cd29 O33 2.439 . S
Cd29 O39 2.240 . S
Cd30 O31 2.240 . S
Cd30 O38 2.223 . S
Cd30 O40 2.297 . S
Cd30 O41 2.439 . S
O31 Cd30 2.240 . S
O31 C36 1.279 . S
O32 Cd29 2.297 . S
O32 C34 1.247 . S
O33 Cd29 2.439 . S
O33 C34 1.208 . S
C34 O32 1.247 . S
C34 O33 1.208 . S
C35 O40 1.247 . S
C35 O41 1.208 . S
C36 O28 1.315 . S
C36 O31 1.279 . S
C37 O38 1.315 . S
C37 O39 1.279 . S
O38 Cd30 2.223 . S
O38 C37 1.315 . S
O39 Cd29 2.240 . S
O39 C37 1.279 . S
O40 Cd30 2.297 . S
O40 C35 1.247 . S
O41 Cd30 2.439 . S
O41 C35 1.208 . S
O42 Cd43 2.223 . S
O42 C50 1.315 . S
Cd43 O42 2.223 . S
Cd43 O46 2.297 . S
Cd43 O47 2.439 . S
Cd43 O53 2.240 . S
Cd44 O45 2.240 . S
Cd44 O52 2.223 . S
Cd44 O54 2.297 . S
Cd44 O55 2.439 . S
O45 Cd44 2.240 . S
O45 C50 1.279 . S
O46 Cd43 2.297 . S
O46 C48 1.247 . S
O47 Cd43 2.439 . S
O47 C48 1.208 . S
C48 O46 1.247 . S
C48 O47 1.208 . S
C49 O54 1.247 . S
C49 O55 1.208 . S
C50 O42 1.315 . S
C50 O45 1.279 . S
C51 O52 1.315 . S
C51 O53 1.279 . S
O52 Cd44 2.223 . S
O52 C51 1.315 . S
O53 Cd43 2.240 . S
O53 C51 1.279 . S
O54 Cd44 2.297 . S
O54 C49 1.247 . S
O55 Cd44 2.439 . S
O55 C49 1.208 . S
O56 Cd57 2.223 . S
O56 C64 1.315 . S
Cd57 O56 2.223 . S
Cd57 O60 2.297 . S
Cd57 O61 2.439 . S
Cd57 O67 2.240 . S
Cd58 O59 2.240 . S
Cd58 O66 2.223 . S
Cd58 O68 2.297 . S
Cd58 O69 2.439 . S
O59 Cd58 2.240 . S
O59 C64 1.279 . S
O60 Cd57 2.297 . S
O60 C62 1.247 . S
O61 Cd57 2.439 . S
O61 C62 1.208 . S
C62 O60 1.247 . S
C62 O61 1.208 . S
C63 O68 1.247 . S
C63 O69 1.208 . S
C64 O56 1.315 . S
C64 O59 1.279 . S
C65 O66 1.315 . S
C65 O67 1.279 . S
O66 Cd58 2.223 . S
O66 C65 1.315 . S
O67 Cd57 2.240 . S
O67 C65 1.279 . S
O68 Cd58 2.297 . S
O68 C63 1.247 . S
O69 Cd58 2.439 . S
O69 C63 1.208 . S
O70 Cd71 2.223 . S
O70 C78 1.315 . S
Cd71 O70 2.223 . S
Cd71 O74 2.297 . S
Cd71 O75 2.439 . S
Cd71 O81 2.240 . S
Cd72 O73 2.240 . S
Cd72 O80 2.223 . S
Cd72 O82 2.297 . S
Cd72 O83 2.439 . S
O73 Cd72 2.240 . S
O73 C78 1.279 . S
O74 Cd71 2.297 . S
O74 C76 1.247 . S
O75 Cd71 2.439 . S
O75 C76 1.208 . S
C76 O74 1.247 . S
C76 O75 1.208 . S
C77 O82 1.247 . S
C77 O83 1.208 . S
C78 O70 1.315 . S
C78 O73 1.279 . S
C79 O80 1.315 . S
C79 O81 1.279 . S
O80 Cd72 2.223 . S
O80 C79 1.315 . S
O81 Cd71 2.240 . S
O81 C79 1.279 . S
O82 Cd72 2.297 . S
O82 C77 1.247 . S
O83 Cd72 2.439 . S
O83 C77 1.208 . S
O84 Cd85 2.223 . S
O84 C92 1.315 . S
Cd85 O84 2.223 . S
Cd85 O88 2.297 . S
Cd85 O89 2.439 . S
Cd85 O95 2.240 . S
Cd86 O87 2.240 . S
Cd86 O94 2.223 . S
Cd86 O96 2.297 . S
Cd86 O97 2.439 . S
O87 Cd86 2.240 . S
O87 C92 1.279 . S
O88 Cd85 2.297 . S
O88 C90 1.247 . S
O89 Cd85 2.439 . S
O89 C90 1.208 . S
C90 O88 1.247 . S
C90 O89 1.208 . S
C91 O96 1.247 . S
C91 O97 1.208 . S
C92 O84 1.315 . S
C92 O87 1.279 . S
C93 O94 1.315 . S
C93 O95 1.279 . S
O94 Cd86 2.223 . S
O94 C93 1.315 . S
O95 Cd85 2.240 . S
O95 C93 1.279 . S
O96 Cd86 2.297 . S
O96 C91 1.247 . S
O97 Cd86 2.439 . S
O97 C91 1.208 . S
O98 Cd99 2.223 . S
O98 C106 1.315 . S
Cd99 O98 2.223 . S
Cd99 O102 2.297 . S
Cd99 O103 2.439 . S
Cd99 O109 2.240 . S
Cd100 O101 2.240 . S
Cd100 O108 2.223 . S
Cd100 O110 2.297 . S
Cd100 O111 2.439 . S
O101 Cd100 2.240 . S
O101 C106 1.279 . S
O102 Cd99 2.297 . S
O102 C104 1.247 . S
O103 Cd99 2.439 . S
O103 C104 1.208 . S
C104 O102 1.247 . S
C104 O103 1.208 . S
C105 O110 1.247 . S
C105 O111 1.208 . S
C106 O98 1.315 . S
C106 O101 1.279 . S
C107 O108 1.315 . S
C107 O109 1.279 . S
O108 Cd100 2.223 . S
O108 C107 1.315 . S
O109 Cd99 2.240 . S
O109 C107 1.279 . S
O110 Cd100 2.297 . S
O110 C105 1.247 . S
O111 Cd100 2.439 . S
O111 C105 1.208 . S
O112 Cd113 2.223 . S
O112 C120 1.315 . S
Cd113 O112 2.223 . S
Cd113 O116 2.297 . S
Cd113 O117 2.439 . S
Cd113 O123 2.240 . S
Cd114 O115 2.240 . S
Cd114 O122 2.223 . S
Cd114 O124 2.297 . S
Cd114 O125 2.439 . S
O115 Cd114 2.240 . S
O115 C120 1.279 . S
O116 Cd113 2.297 . S
O116 C118 1.247 . S
O117 Cd113 2.439 . S
O117 C118 1.208 . S
C118 O116 1.247 . S
C118 O117 1.208 . S
C119 O124 1.247 . S
C119 O125 1.208 . S
C120 O112 1.315 . S
C120 O115 1.279 . S
C121 O122 1.315 . S
C121 O123 1.279 . S
O122 Cd114 2.223 . S
O122 C121 1.315 . S
O123 Cd113 2.240 . S
O123 C121 1.279 . S
O124 Cd114 2.297 . S
O124 C119 1.247 . S
O125 Cd114 2.439 . S
O125 C119 1.208 . S
O126 Cd127 2.223 . S
O126 C134 1.315 . S
Cd127 O126 2.223 . S
Cd127 O130 2.297 . S
Cd127 O131 2.439 . S
Cd127 O137 2.240 . S
Cd128 O129 2.240 . S
Cd128 O136 2.223 . S
Cd128 O138 2.297 . S
Cd128 O139 2.439 . S
O129 Cd128 2.240 . S
O129 C134 1.279 . S
O130 Cd127 2.297 . S
O130 C132 1.247 . S
O131 Cd127 2.439 . S
O131 C132 1.208 . S
C132 O130 1.247 . S
C132 O131 1.208 . S
C133 O138 1.247 . S
C133 O139 1.208 . S
C134 O126 1.315 . S
C134 O129 1.279 . S
C135 O136 1.315 . S
C135 O137 1.279 . S
O136 Cd128 2.223 . S
O136 C135 1.315 . S
O137 Cd127 2.240 . S
O137 C135 1.279 . S
O138 Cd128 2.297 . S
O138 C133 1.247 . S
O139 Cd128 2.439 . S
O139 C133 1.208 . S
O140 Cd141 2.223 . S
O140 C148 1.315 . S
Cd141 O140 2.223 . S
Cd141 O144 2.297 . S
Cd141 O145 2.439 . S
Cd141 O151 2.240 . S
Cd142 O143 2.240 . S
Cd142 O150 2.223 . S
Cd142 O152 2.297 . S
Cd142 O153 2.439 . S
O143 Cd142 2.240 . S
O143 C148 1.279 . S
O144 Cd141 2.297 . S
O144 C146 1.247 . S
O145 Cd141 2.439 . S
O145 C146 1.208 . S
C146 O144 1.247 . S
C146 O145 1.208 . S
C147 O152 1.247 . S
C147 O153 1.208 . S
C148 O140 1.315 . S
C148 O143 1.279 . S
C149 O150 1.315 . S
C149 O151 1.279 . S
O150 Cd142 2.223 . S
O150 C149 1.315 . S
O151 Cd141 2.240 . S
O151 C149 1.279 . S
O152 Cd142 2.297 . S
O152 C147 1.247 . S
O153 Cd142 2.439 . S
O153 C147 1.208 . S
O154 Cd155 2.223 . S
O154 C162 1.315 . S
Cd155 O154 2.223 . S
Cd155 O158 2.297 . S
Cd155 O159 2.439 . S
Cd155 O165 2.240 . S
Cd156 O157 2.240 . S
Cd156 O164 2.223 . S
Cd156 O166 2.297 . S
Cd156 O167 2.439 . S
O157 Cd156 2.240 . S
O157 C162 1.279 . S
O158 Cd155 2.297 . S
O158 C160 1.247 . S
O159 Cd155 2.439 . S
O159 C160 1.208 . S
C160 O158 1.247 . S
C160 O159 1.208 . S
C161 O166 1.247 . S
C161 O167 1.208 . S
C162 O154 1.315 . S
C162 O157 1.279 . S
C163 O164 1.315 . S
C163 O165 1.279 . S
O164 Cd156 2.223 . S
O164 C163 1.315 . S
O165 Cd155 2.240 . S
O165 C163 1.279 . S
O166 Cd156 2.297 . S
O166 C161 1.247 . S
O167 Cd156 2.439 . S
O167 C161 1.208 . S
O168 Cd169 2.223 . S
O168 C176 1.315 1_655 S
Cd169 O168 2.223 . S
Cd169 O172 2.297 . S
Cd169 O173 2.439 . S
Cd169 O179 2.240 . S
Cd170 O171 2.240 . S
Cd170 O178 2.223 . S
Cd170 O180 2.297 . S
Cd170 O181 2.439 . S
O171 Cd170 2.240 . S
O171 C176 1.279 . S
O172 Cd169 2.297 . S
O172 C174 1.247 . S
O173 Cd169 2.439 . S
O173 C174 1.208 . S
C174 O172 1.247 . S
C174 O173 1.208 . S
C175 O180 1.247 . S
C175 O181 1.208 . S
C176 O168 1.315 1_455 S
C176 O171 1.279 . S
C177 O178 1.315 1_655 S
C177 O179 1.279 . S
O178 Cd170 2.223 . S
O178 C177 1.315 1_455 S
O179 Cd169 2.240 . S
O179 C177 1.279 . S
O180 Cd170 2.297 . S
O180 C175 1.247 . S
O181 Cd170 2.439 . S
O181 C175 1.208 . S
O182 Cd183 2.223 . S
O182 C190 1.315 . S
Cd183 O182 2.223 . S
Cd183 O186 2.297 . S
Cd183 O187 2.439 . S
Cd183 O193 2.240 . S
Cd184 O185 2.240 . S
Cd184 O192 2.223 . S
Cd184 O194 2.297 . S
Cd184 O195 2.439 . S
O185 Cd184 2.240 . S
O185 C190 1.279 . S
O186 Cd183 2.297 . S
O186 C188 1.247 . S
O187 Cd183 2.439 . S
O187 C188 1.208 . S
C188 O186 1.247 . S
C188 O187 1.208 . S
C189 O194 1.247 . S
C189 O195 1.208 . S
C190 O182 1.315 . S
C190 O185 1.279 . S
C191 O192 1.315 . S
C191 O193 1.279 . S
O192 Cd184 2.223 . S
O192 C191 1.315 . S
O193 Cd183 2.240 . S
O193 C191 1.279 . S
O194 Cd184 2.297 . S
O194 C189 1.247 . S
O195 Cd184 2.439 . S
O195 C189 1.208 . S
O196 Cd197 2.223 . S
O196 C204 1.315 1_545 S
Cd197 O196 2.223 . S
Cd197 O200 2.297 . S
Cd197 O201 2.439 . S
Cd197 O207 2.240 . S
Cd198 O199 2.240 . S
Cd198 O206 2.223 . S
Cd198 O208 2.297 . S
Cd198 O209 2.439 . S
O199 Cd198 2.240 . S
O199 C204 1.279 . S
O200 Cd197 2.297 . S
O200 C202 1.247 . S
O201 Cd197 2.439 . S
O201 C202 1.208 . S
C202 O200 1.247 . S
C202 O201 1.208 . S
C203 O208 1.247 . S
C203 O209 1.208 . S
C204 O196 1.315 1_565 S
C204 O199 1.279 . S
C205 O206 1.315 1_545 S
C205 O207 1.279 . S
O206 Cd198 2.223 . S
O206 C205 1.315 1_565 S
O207 Cd197 2.240 . S
O207 C205 1.279 . S
O208 Cd198 2.297 . S
O208 C203 1.247 . S
O209 Cd198 2.439 . S
O209 C203 1.208 . S
O210 Cd211 2.223 . S
O210 C218 1.315 . S
Cd211 O210 2.223 . S
Cd211 O214 2.297 . S
Cd211 O215 2.439 . S
Cd211 O221 2.240 . S
Cd212 O213 2.240 . S
Cd212 O220 2.223 . S
Cd212 O222 2.297 . S
Cd212 O223 2.439 . S
O213 Cd212 2.240 . S
O213 C218 1.279 . S
O214 Cd211 2.297 . S
O214 C216 1.247 . S
O215 Cd211 2.439 . S
O215 C216 1.208 . S
C216 O214 1.247 . S
C216 O215 1.208 . S
C217 O222 1.247 . S
C217 O223 1.208 . S
C218 O210 1.315 . S
C218 O213 1.279 . S
C219 O220 1.315 . S
C219 O221 1.279 . S
O220 Cd212 2.223 . S
O220 C219 1.315 . S
O221 Cd211 2.240 . S
O221 C219 1.279 . S
O222 Cd212 2.297 . S
O222 C217 1.247 . S
O223 Cd212 2.439 . S
O223 C217 1.208 . S
O224 Cd225 2.223 . S
O224 C232 1.315 . S
Cd225 O224 2.223 . S
Cd225 O228 2.297 . S
Cd225 O229 2.439 . S
Cd225 O235 2.240 . S
Cd226 O227 2.240 . S
Cd226 O234 2.223 . S
Cd226 O236 2.297 . S
Cd226 O237 2.439 . S
O227 Cd226 2.240 . S
O227 C232 1.279 . S
O228 Cd225 2.297 . S
O228 C230 1.247 . S
O229 Cd225 2.439 . S
O229 C230 1.208 . S
C230 O228 1.247 . S
C230 O229 1.208 . S
C231 O236 1.247 . S
C231 O237 1.208 . S
C232 O224 1.315 . S
C232 O227 1.279 . S
C233 O234 1.315 . S
C233 O235 1.279 . S
O234 Cd226 2.223 . S
O234 C233 1.315 . S
O235 Cd225 2.240 . S
O235 C233 1.279 . S
O236 Cd226 2.297 . S
O236 C231 1.247 . S
O237 Cd226 2.439 . S
O237 C231 1.208 . S
O238 Cd239 2.223 . S
O238 C246 1.315 . S
Cd239 O238 2.223 . S
Cd239 O242 2.297 . S
Cd239 O243 2.439 . S
Cd239 O249 2.240 . S
Cd240 O241 2.240 . S
Cd240 O248 2.223 . S
Cd240 O250 2.297 . S
Cd240 O251 2.439 . S
O241 Cd240 2.240 . S
O241 C246 1.279 . S
O242 Cd239 2.297 . S
O242 C244 1.247 . S
O243 Cd239 2.439 . S
O243 C244 1.208 . S
C244 O242 1.247 . S
C244 O243 1.208 . S
C245 O250 1.247 . S
C245 O251 1.208 . S
C246 O238 1.315 . S
C246 O241 1.279 . S
C247 O248 1.315 . S
C247 O249 1.279 . S
O248 Cd240 2.223 . S
O248 C247 1.315 . S
O249 Cd239 2.240 . S
O249 C247 1.279 . S
O250 Cd240 2.297 . S
O250 C245 1.247 . S
O251 Cd240 2.439 . S
O251 C245 1.208 . S
O252 Cd253 2.223 . S
O252 C260 1.315 . S
Cd253 O252 2.223 . S
Cd253 O256 2.297 . S
Cd253 O257 2.439 . S
Cd253 O263 2.240 . S
Cd254 O255 2.240 . S
Cd254 O262 2.223 . S
Cd254 O264 2.297 . S
Cd254 O265 2.439 . S
O255 Cd254 2.240 . S
O255 C260 1.279 . S
O256 Cd253 2.297 . S
O256 C258 1.247 . S
O257 Cd253 2.439 . S
O257 C258 1.208 . S
C258 O256 1.247 . S
C258 O257 1.208 . S
C259 O264 1.247 . S
C259 O265 1.208 . S
C260 O252 1.315 . S
C260 O255 1.279 . S
C261 O262 1.315 . S
C261 O263 1.279 . S
O262 Cd254 2.223 . S
O262 C261 1.315 . S
O263 Cd253 2.240 . S
O263 C261 1.279 . S
O264 Cd254 2.297 . S
O264 C259 1.247 . S
O265 Cd254 2.439 . S
O265 C259 1.208 . S
O266 Cd267 2.223 . S
O266 C274 1.315 . S
Cd267 O266 2.223 . S
Cd267 O270 2.297 . S
Cd267 O271 2.439 . S
Cd267 O277 2.240 . S
Cd268 O269 2.240 . S
Cd268 O276 2.223 . S
Cd268 O278 2.297 . S
Cd268 O279 2.439 . S
O269 Cd268 2.240 . S
O269 C274 1.279 . S
O270 Cd267 2.297 . S
O270 C272 1.247 . S
O271 Cd267 2.439 . S
O271 C272 1.208 . S
C272 O270 1.247 . S
C272 O271 1.208 . S
C273 O278 1.247 . S
C273 O279 1.208 . S
C274 O266 1.315 . S
C274 O269 1.279 . S
C275 O276 1.315 . S
C275 O277 1.279 . S
O276 Cd268 2.223 . S
O276 C275 1.315 . S
O277 Cd267 2.240 . S
O277 C275 1.279 . S
O278 Cd268 2.297 . S
O278 C273 1.247 . S
O279 Cd268 2.439 . S
O279 C273 1.208 . S
O280 Cd281 2.223 . S
O280 C288 1.315 . S
Cd281 O280 2.223 . S
Cd281 O284 2.297 . S
Cd281 O285 2.439 . S
Cd281 O291 2.240 . S
Cd282 O283 2.240 . S
Cd282 O290 2.223 . S
Cd282 O292 2.297 . S
Cd282 O293 2.439 . S
O283 Cd282 2.240 . S
O283 C288 1.279 . S
O284 Cd281 2.297 . S
O284 C286 1.247 . S
O285 Cd281 2.439 . S
O285 C286 1.208 . S
C286 O284 1.247 . S
C286 O285 1.208 . S
C287 O292 1.247 . S
C287 O293 1.208 . S
C288 O280 1.315 . S
C288 O283 1.279 . S
C289 O290 1.315 . S
C289 O291 1.279 . S
O290 Cd282 2.223 . S
O290 C289 1.315 . S
O291 Cd281 2.240 . S
O291 C289 1.279 . S
O292 Cd282 2.297 . S
O292 C287 1.247 . S
O293 Cd282 2.439 . S
O293 C287 1.208 . S
O294 Cd295 2.223 . S
O294 C302 1.315 1_545 S
Cd295 O294 2.223 . S
Cd295 O298 2.297 . S
Cd295 O299 2.439 1_556 S
Cd295 O305 2.240 . S
Cd296 O297 2.240 1_554 S
Cd296 O304 2.223 1_554 S
Cd296 O306 2.297 . S
Cd296 O307 2.439 . S
O297 Cd296 2.240 1_556 S
O297 C302 1.279 . S
O298 Cd295 2.297 . S
O298 C300 1.247 1_556 S
O299 Cd295 2.439 1_554 S
O299 C300 1.208 . S
C300 O298 1.247 1_554 S
C300 O299 1.208 . S
C301 O306 1.247 . S
C301 O307 1.208 . S
C302 O294 1.315 1_565 S
C302 O297 1.279 . S
C303 O304 1.315 1_545 S
C303 O305 1.279 . S
O304 Cd296 2.223 1_556 S
O304 C303 1.315 1_565 S
O305 Cd295 2.240 . S
O305 C303 1.279 . S
O306 Cd296 2.297 . S
O306 C301 1.247 . S
O307 Cd296 2.439 . S
O307 C301 1.208 . S
O308 Cd309 2.223 . S
O308 C316 1.315 1_655 S
Cd309 O308 2.223 . S
Cd309 O312 2.297 . S
Cd309 O313 2.439 1_556 S
Cd309 O319 2.240 . S
Cd310 O311 2.240 1_554 S
Cd310 O318 2.223 1_554 S
Cd310 O320 2.297 . S
Cd310 O321 2.439 . S
O311 Cd310 2.240 1_556 S
O311 C316 1.279 . S
O312 Cd309 2.297 . S
O312 C314 1.247 1_556 S
O313 Cd309 2.439 1_554 S
O313 C314 1.208 . S
C314 O312 1.247 1_554 S
C314 O313 1.208 . S
C315 O320 1.247 . S
C315 O321 1.208 . S
C316 O308 1.315 1_455 S
C316 O311 1.279 . S
C317 O318 1.315 1_655 S
C317 O319 1.279 . S
O318 Cd310 2.223 1_556 S
O318 C317 1.315 1_455 S
O319 Cd309 2.240 . S
O319 C317 1.279 . S
O320 Cd310 2.297 . S
O320 C315 1.247 . S
O321 Cd310 2.439 . S
O321 C315 1.208 . S
O322 Cd323 2.223 . S
O322 C330 1.315 . S
Cd323 O322 2.223 . S
Cd323 O326 2.297 . S
Cd323 O327 2.439 1_556 S
Cd323 O333 2.240 . S
Cd324 O325 2.240 . S
Cd324 O332 2.223 . S
Cd324 O334 2.297 . S
Cd324 O335 2.439 1_556 S
O325 Cd324 2.240 . S
O325 C330 1.279 . S
O326 Cd323 2.297 . S
O326 C328 1.247 1_556 S
O327 Cd323 2.439 1_554 S
O327 C328 1.208 . S
C328 O326 1.247 1_554 S
C328 O327 1.208 . S
C329 O334 1.247 1_554 S
C329 O335 1.208 . S
C330 O322 1.315 . S
C330 O325 1.279 . S
C331 O332 1.315 . S
C331 O333 1.279 . S
O332 Cd324 2.223 . S
O332 C331 1.315 . S
O333 Cd323 2.240 . S
O333 C331 1.279 . S
O334 Cd324 2.297 . S
O334 C329 1.247 1_556 S
O335 Cd324 2.439 1_554 S
O335 C329 1.208 . S
O336 Cd337 2.223 . S
O336 C344 1.315 . S
Cd337 O336 2.223 . S
Cd337 O340 2.297 . S
Cd337 O341 2.439 . S
Cd337 O347 2.240 . S
Cd338 O339 2.240 . S
Cd338 O346 2.223 . S
Cd338 O348 2.297 . S
Cd338 O349 2.439 . S
O339 Cd338 2.240 . S
O339 C344 1.279 . S
O340 Cd337 2.297 . S
O340 C342 1.247 . S
O341 Cd337 2.439 . S
O341 C342 1.208 . S
C342 O340 1.247 . S
C342 O341 1.208 . S
C343 O348 1.247 . S
C343 O349 1.208 . S
C344 O336 1.315 . S
C344 O339 1.279 . S
C345 O346 1.315 . S
C345 O347 1.279 . S
O346 Cd338 2.223 . S
O346 C345 1.315 . S
O347 Cd337 2.240 . S
O347 C345 1.279 . S
O348 Cd338 2.297 . S
O348 C343 1.247 . S
O349 Cd338 2.439 . S
O349 C343 1.208 . S
O350 Cd351 2.223 . S
O350 C358 1.315 . S
Cd351 O350 2.223 . S
Cd351 O354 2.297 . S
Cd351 O355 2.439 . S
Cd351 O361 2.240 . S
Cd352 O353 2.240 . S
Cd352 O360 2.223 . S
Cd352 O362 2.297 . S
Cd352 O363 2.439 . S
O353 Cd352 2.240 . S
O353 C358 1.279 . S
O354 Cd351 2.297 . S
O354 C356 1.247 . S
O355 Cd351 2.439 . S
O355 C356 1.208 . S
C356 O354 1.247 . S
C356 O355 1.208 . S
C357 O362 1.247 . S
C357 O363 1.208 . S
C358 O350 1.315 . S
C358 O353 1.279 . S
C359 O360 1.315 . S
C359 O361 1.279 . S
O360 Cd352 2.223 . S
O360 C359 1.315 . S
O361 Cd351 2.240 . S
O361 C359 1.279 . S
O362 Cd352 2.297 . S
O362 C357 1.247 . S
O363 Cd352 2.439 . S
O363 C357 1.208 . S
O364 Cd365 2.223 . S
O364 C372 1.315 . S
Cd365 O364 2.223 . S
Cd365 O368 2.297 . S
Cd365 O369 2.439 . S
Cd365 O375 2.240 . S
Cd366 O367 2.240 . S
Cd366 O374 2.223 . S
Cd366 O376 2.297 . S
Cd366 O377 2.439 . S
O367 Cd366 2.240 . S
O367 C372 1.279 . S
O368 Cd365 2.297 . S
O368 C370 1.247 . S
O369 Cd365 2.439 . S
O369 C370 1.208 . S
C370 O368 1.247 . S
C370 O369 1.208 . S
C371 O376 1.247 . S
C371 O377 1.208 . S
C372 O364 1.315 . S
C372 O367 1.279 . S
C373 O374 1.315 . S
C373 O375 1.279 . S
O374 Cd366 2.223 . S
O374 C373 1.315 . S
O375 Cd365 2.240 . S
O375 C373 1.279 . S
O376 Cd366 2.297 . S
O376 C371 1.247 . S
O377 Cd366 2.439 . S
O377 C371 1.208 . S
O378 Cd379 2.223 . S
O378 C386 1.315 1_565 S
Cd379 O378 2.223 . S
Cd379 O382 2.297 . S
Cd379 O383 2.439 1_554 S
Cd379 O389 2.240 . S
Cd380 O381 2.240 1_556 S
Cd380 O388 2.223 1_556 S
Cd380 O390 2.297 . S
Cd380 O391 2.439 . S
O381 Cd380 2.240 1_554 S
O381 C386 1.279 . S
O382 Cd379 2.297 . S
O382 C384 1.247 1_554 S
O383 Cd379 2.439 1_556 S
O383 C384 1.208 . S
C384 O382 1.247 1_556 S
C384 O383 1.208 . S
C385 O390 1.247 . S
C385 O391 1.208 . S
C386 O378 1.315 1_545 S
C386 O381 1.279 . S
C387 O388 1.315 1_565 S
C387 O389 1.279 . S
O388 Cd380 2.223 1_554 S
O388 C387 1.315 1_545 S
O389 Cd379 2.240 . S
O389 C387 1.279 . S
O390 Cd380 2.297 . S
O390 C385 1.247 . S
O391 Cd380 2.439 . S
O391 C385 1.208 . S
O392 Cd393 2.223 . S
O392 C400 1.315 1_455 S
Cd393 O392 2.223 . S
Cd393 O396 2.297 . S
Cd393 O397 2.439 1_554 S
Cd393 O403 2.240 . S
Cd394 O395 2.240 1_556 S
Cd394 O402 2.223 1_556 S
Cd394 O404 2.297 . S
Cd394 O405 2.439 . S
O395 Cd394 2.240 1_554 S
O395 C400 1.279 . S
O396 Cd393 2.297 . S
O396 C398 1.247 1_554 S
O397 Cd393 2.439 1_556 S
O397 C398 1.208 . S
C398 O396 1.247 1_556 S
C398 O397 1.208 . S
C399 O404 1.247 . S
C399 O405 1.208 . S
C400 O392 1.315 1_655 S
C400 O395 1.279 . S
C401 O402 1.315 1_455 S
C401 O403 1.279 . S
O402 Cd394 2.223 1_554 S
O402 C401 1.315 1_655 S
O403 Cd393 2.240 . S
O403 C401 1.279 . S
O404 Cd394 2.297 . S
O404 C399 1.247 . S
O405 Cd394 2.439 . S
O405 C399 1.208 . S
O406 Cd407 2.223 . S
O406 C414 1.315 . S
Cd407 O406 2.223 . S
Cd407 O410 2.297 . S
Cd407 O411 2.439 1_554 S
Cd407 O417 2.240 . S
Cd408 O409 2.240 . S
Cd408 O416 2.223 . S
Cd408 O418 2.297 . S
Cd408 O419 2.439 1_554 S
O409 Cd408 2.240 . S
O409 C414 1.279 . S
O410 Cd407 2.297 . S
O410 C412 1.247 1_554 S
O411 Cd407 2.439 1_556 S
O411 C412 1.208 . S
C412 O410 1.247 1_556 S
C412 O411 1.208 . S
C413 O418 1.247 1_556 S
C413 O419 1.208 . S
C414 O406 1.315 . S
C414 O409 1.279 . S
C415 O416 1.315 . S
C415 O417 1.279 . S
O416 Cd408 2.223 . S
O416 C415 1.315 . S
O417 Cd407 2.240 . S
O417 C415 1.279 . S
O418 Cd408 2.297 . S
O418 C413 1.247 1_554 S
O419 Cd408 2.439 1_556 S
O419 C413 1.208 . S
O420 Cd421 2.223 . S
O420 C428 1.315 1_455 S
Cd421 O420 2.223 . S
Cd421 O424 2.297 . S
Cd421 O425 2.439 . S
Cd421 O431 2.240 . S
Cd422 O423 2.240 . S
Cd422 O430 2.223 . S
Cd422 O432 2.297 . S
Cd422 O433 2.439 . S
O423 Cd422 2.240 . S
O423 C428 1.279 . S
O424 Cd421 2.297 . S
O424 C426 1.247 . S
O425 Cd421 2.439 . S
O425 C426 1.208 . S
C426 O424 1.247 . S
C426 O425 1.208 . S
C427 O432 1.247 . S
C427 O433 1.208 . S
C428 O420 1.315 1_655 S
C428 O423 1.279 . S
C429 O430 1.315 1_455 S
C429 O431 1.279 . S
O430 Cd422 2.223 . S
O430 C429 1.315 1_655 S
O431 Cd421 2.240 . S
O431 C429 1.279 . S
O432 Cd422 2.297 . S
O432 C427 1.247 . S
O433 Cd422 2.439 . S
O433 C427 1.208 . S
O434 Cd435 2.223 . S
O434 C442 1.315 . S
Cd435 O434 2.223 . S
Cd435 O438 2.297 . S
Cd435 O439 2.439 . S
Cd435 O445 2.240 . S
Cd436 O437 2.240 . S
Cd436 O444 2.223 . S
Cd436 O446 2.297 . S
Cd436 O447 2.439 . S
O437 Cd436 2.240 . S
O437 C442 1.279 . S
O438 Cd435 2.297 . S
O438 C440 1.247 . S
O439 Cd435 2.439 . S
O439 C440 1.208 . S
C440 O438 1.247 . S
C440 O439 1.208 . S
C441 O446 1.247 . S
C441 O447 1.208 . S
C442 O434 1.315 . S
C442 O437 1.279 . S
C443 O444 1.315 . S
C443 O445 1.279 . S
O444 Cd436 2.223 . S
O444 C443 1.315 . S
O445 Cd435 2.240 . S
O445 C443 1.279 . S
O446 Cd436 2.297 . S
O446 C441 1.247 . S
O447 Cd436 2.439 . S
O447 C441 1.208 . S
O448 Cd449 2.223 . S
O448 C456 1.315 1_565 S
Cd449 O448 2.223 . S
Cd449 O452 2.297 . S
Cd449 O453 2.439 . S
Cd449 O459 2.240 . S
Cd450 O451 2.240 . S
Cd450 O458 2.223 . S
Cd450 O460 2.297 . S
Cd450 O461 2.439 . S
O451 Cd450 2.240 . S
O451 C456 1.279 . S
O452 Cd449 2.297 . S
O452 C454 1.247 . S
O453 Cd449 2.439 . S
O453 C454 1.208 . S
C454 O452 1.247 . S
C454 O453 1.208 . S
C455 O460 1.247 . S
C455 O461 1.208 . S
C456 O448 1.315 1_545 S
C456 O451 1.279 . S
C457 O458 1.315 1_565 S
C457 O459 1.279 . S
O458 Cd450 2.223 . S
O458 C457 1.315 1_545 S
O459 Cd449 2.240 . S
O459 C457 1.279 . S
O460 Cd450 2.297 . S
O460 C455 1.247 . S
O461 Cd450 2.439 . S
O461 C455 1.208 . S
O462 Cd463 2.223 . S
O462 C470 1.315 . S
Cd463 O462 2.223 . S
Cd463 O466 2.297 . S
Cd463 O467 2.439 . S
Cd463 O473 2.240 . S
Cd464 O465 2.240 . S
Cd464 O472 2.223 . S
Cd464 O474 2.297 . S
Cd464 O475 2.439 . S
O465 Cd464 2.240 . S
O465 C470 1.279 . S
O466 Cd463 2.297 . S
O466 C468 1.247 . S
O467 Cd463 2.439 . S
O467 C468 1.208 . S
C468 O466 1.247 . S
C468 O467 1.208 . S
C469 O474 1.247 . S
C469 O475 1.208 . S
C470 O462 1.315 . S
C470 O465 1.279 . S
C471 O472 1.315 . S
C471 O473 1.279 . S
O472 Cd464 2.223 . S
O472 C471 1.315 . S
O473 Cd463 2.240 . S
O473 C471 1.279 . S
O474 Cd464 2.297 . S
O474 C469 1.247 . S
O475 Cd464 2.439 . S
O475 C469 1.208 . S
O476 Cd477 2.223 . S
O476 C484 1.315 . S
Cd477 O476 2.223 . S
Cd477 O480 2.297 . S
Cd477 O481 2.439 . S
Cd477 O487 2.240 . S
Cd478 O479 2.240 . S
Cd478 O486 2.223 . S
Cd478 O488 2.297 . S
Cd478 O489 2.439 . S
O479 Cd478 2.240 . S
O479 C484 1.279 . S
O480 Cd477 2.297 . S
O480 C482 1.247 . S
O481 Cd477 2.439 . S
O481 C482 1.208 . S
C482 O480 1.247 . S
C482 O481 1.208 . S
C483 O488 1.247 . S
C483 O489 1.208 . S
C484 O476 1.315 . S
C484 O479 1.279 . S
C485 O486 1.315 . S
C485 O487 1.279 . S
O486 Cd478 2.223 . S
O486 C485 1.315 . S
O487 Cd477 2.240 . S
O487 C485 1.279 . S
O488 Cd478 2.297 . S
O488 C483 1.247 . S
O489 Cd478 2.439 . S
O489 C483 1.208 . S
O490 Cd491 2.223 . S
O490 C498 1.315 . S
Cd491 O490 2.223 . S
Cd491 O494 2.297 . S
Cd491 O495 2.439 . S
Cd491 O501 2.240 . S
Cd492 O493 2.240 . S
Cd492 O500 2.223 . S
Cd492 O502 2.297 . S
Cd492 O503 2.439 . S
O493 Cd492 2.240 . S
O493 C498 1.279 . S
O494 Cd491 2.297 . S
O494 C496 1.247 . S
O495 Cd491 2.439 . S
O495 C496 1.208 . S
C496 O494 1.247 . S
C496 O495 1.208 . S
C497 O502 1.247 . S
C497 O503 1.208 . S
C498 O490 1.315 . S
C498 O493 1.279 . S
C499 O500 1.315 . S
C499 O501 1.279 . S
O500 Cd492 2.223 . S
O500 C499 1.315 . S
O501 Cd491 2.240 . S
O501 C499 1.279 . S
O502 Cd492 2.297 . S
O502 C497 1.247 . S
O503 Cd492 2.439 . S
O503 C497 1.208 . S
C504 C505 1.349 . S
C504 C506 1.327 . S
C504 H529 0.950 . S
C505 C504 1.349 . S
C505 C521 1.349 . S
C506 C504 1.327 . S
C506 C525 1.429 . S
C506 H530 0.950 . S
C507 C524 1.574 . S
C507 C526 1.368 1_545 S
C507 H531 0.949 1_545 S
H508 C512 0.949 . S
C509 C510 1.349 . S
C509 C511 1.327 . S
C509 H532 0.950 . S
C510 C509 1.349 . S
C510 C522 1.349 . S
C511 C509 1.327 . S
C511 C527 1.429 . S
C511 H533 0.950 . S
C512 H508 0.949 . S
C512 C520 1.611 . S
C512 C528 1.368 . S
H513 C521 0.950 . S
H514 C519 0.950 . S
H515 C520 0.934 1_565 S
H516 C522 0.950 . S
H517 C523 0.950 . S
H518 C524 0.949 . S
C519 H514 0.950 . S
C519 C521 1.327 . S
C519 C525 1.429 . S
C520 C512 1.611 . S
C520 H515 0.934 1_545 S
C520 C526 1.349 1_545 S
C521 C505 1.349 . S
C521 H513 0.950 . S
C521 C519 1.327 . S
C522 C510 1.349 . S
C522 H516 0.950 . S
C522 C523 1.327 . S
C523 H517 0.950 . S
C523 C522 1.327 . S
C523 C527 1.429 . S
C524 C507 1.574 . S
C524 H518 0.949 . S
C524 C528 1.368 . S
C525 C506 1.429 . S
C525 C519 1.429 . S
C525 C526 1.523 . S
C526 C507 1.368 1_565 S
C526 C520 1.349 1_565 S
C526 C525 1.523 . S
C527 C511 1.429 . S
C527 C523 1.429 . S
C527 C528 1.523 . S
C528 C512 1.368 . S
C528 C524 1.368 . S
C528 C527 1.523 . S
H529 C504 0.950 . S
H530 C506 0.950 . S
H531 C507 0.949 1_565 S
H532 C509 0.950 . S
H533 C511 0.950 . S
C534 C535 1.349 . S
C534 C536 1.327 . S
C534 H559 0.950 . S
C535 C534 1.349 . S
C535 C551 1.349 . S
C536 C534 1.327 . S
C536 C555 1.429 . S
C536 H560 0.950 . S
C537 C554 1.574 1_655 S
C537 C556 1.368 . S
C537 H561 0.949 . S
H538 C542 0.949 . S
C539 C540 1.349 . S
C539 C541 1.327 . S
C539 H562 0.950 . S
C540 C539 1.349 . S
C540 C552 1.349 . S
C541 C539 1.327 . S
C541 C557 1.429 . S
C541 H563 0.950 . S
C542 H538 0.949 . S
C542 C550 1.574 . S
C542 C558 1.368 . S
H543 C551 0.950 . S
H544 C549 0.950 . S
H545 C550 0.949 1_655 S
H546 C552 0.950 . S
H547 C553 0.950 . S
H548 C554 0.949 . S
C549 H544 0.950 . S
C549 C551 1.327 . S
C549 C555 1.429 . S
C550 C542 1.574 . S
C550 H545 0.949 1_455 S
C550 C556 1.368 1_455 S
C551 C535 1.349 . S
C551 H543 0.950 . S
C551 C549 1.327 . S
C552 C540 1.349 . S
C552 H546 0.950 . S
C552 C553 1.327 . S
C553 H547 0.950 . S
C553 C552 1.327 . S
C553 C557 1.429 . S
C554 C537 1.574 1_455 S
C554 H548 0.949 . S
C554 C558 1.368 . S
C555 C536 1.429 . S
C555 C549 1.429 . S
C555 C556 1.523 . S
C556 C537 1.368 . S
C556 C550 1.368 1_655 S
C556 C555 1.523 . S
C557 C541 1.429 . S
C557 C553 1.429 . S
C557 C558 1.523 . S
C558 C542 1.368 . S
C558 C554 1.368 . S
C558 C557 1.523 . S
H559 C534 0.950 . S
H560 C536 0.950 . S
H561 C537 0.949 . S
H562 C539 0.950 . S
H563 C541 0.950 . S
C564 C565 1.349 . S
C564 C566 1.327 . S
C564 H589 0.950 . S
C565 C564 1.349 . S
C565 C581 1.349 . S
C566 C564 1.327 . S
C566 C585 1.429 . S
C566 H590 0.950 . S
C567 C584 1.574 . S
C567 C586 1.368 . S
C567 H591 0.949 . S
H568 C572 0.949 . S
C569 C570 1.349 . S
C569 C571 1.327 . S
C569 H592 0.950 . S
C570 C569 1.349 . S
C570 C582 1.349 . S
C571 C569 1.327 . S
C571 C587 1.429 . S
C571 H593 0.950 . S
C572 H568 0.949 . S
C572 C580 1.574 . S
C572 C588 1.368 . S
H573 C581 0.950 . S
H574 C579 0.950 . S
H575 C580 0.949 . S
H576 C582 0.950 . S
H577 C583 0.950 . S
H578 C584 0.949 . S
C579 H574 0.950 . S
C579 C581 1.327 . S
C579 C585 1.429 . S
C580 C572 1.574 . S
C580 H575 0.949 . S
C580 C586 1.368 . S
C581 C565 1.349 . S
C581 H573 0.950 . S
C581 C579 1.327 . S
C582 C570 1.349 . S
C582 H576 0.950 . S
C582 C583 1.327 . S
C583 H577 0.950 . S
C583 C582 1.327 . S
C583 C587 1.429 . S
C584 C567 1.574 . S
C584 H578 0.949 . S
C584 C588 1.368 . S
C585 C566 1.429 . S
C585 C579 1.429 . S
C585 C586 1.523 . S
C586 C567 1.368 . S
C586 C580 1.368 . S
C586 C585 1.523 . S
C587 C571 1.429 . S
C587 C583 1.429 . S
C587 C588 1.523 . S
C588 C572 1.368 . S
C588 C584 1.368 . S
C588 C587 1.523 . S
H589 C564 0.950 . S
H590 C566 0.950 . S
H591 C567 0.949 . S
H592 C569 0.950 . S
H593 C571 0.950 . S
C594 C595 1.349 . S
C594 C596 1.327 . S
C594 H619 0.950 . S
C595 C594 1.349 . S
C595 C611 1.349 . S
C596 C594 1.327 . S
C596 C615 1.429 . S
C596 H620 0.950 . S
C597 C614 1.616 . S
C597 C616 1.368 . S
C597 H621 0.949 . S
H598 C602 0.949 1_545 S
C599 C600 1.349 . S
C599 C601 1.327 . S
C599 H622 0.950 . S
C600 C599 1.349 . S
C600 C612 1.349 . S
C601 C599 1.327 . S
C601 C617 1.429 . S
C601 H623 0.950 . S
C602 H598 0.949 1_565 S
C602 C610 1.574 . S
C602 C618 1.368 1_565 S
H603 C611 0.950 . S
H604 C609 0.950 . S
H605 C610 0.949 . S
H606 C612 0.950 . S
H607 C613 0.950 . S
H608 C614 0.933 1_545 S
C609 H604 0.950 . S
C609 C611 1.327 . S
C609 C615 1.429 . S
C610 C602 1.574 . S
C610 H605 0.949 . S
C610 C616 1.368 . S
C611 C595 1.349 . S
C611 H603 0.950 . S
C611 C609 1.327 . S
C612 C600 1.349 . S
C612 H606 0.950 . S
C612 C613 1.327 . S
C613 H607 0.950 . S
C613 C612 1.327 . S
C613 C617 1.429 . S
C614 C597 1.616 . S
C614 H608 0.933 1_565 S
C614 C618 1.346 1_565 S
C615 C596 1.429 . S
C615 C609 1.429 . S
C615 C616 1.523 . S
C616 C597 1.368 . S
C616 C610 1.368 . S
C616 C615 1.523 . S
C617 C601 1.429 . S
C617 C613 1.429 . S
C617 C618 1.523 . S
C618 C602 1.368 1_545 S
C618 C614 1.346 1_545 S
C618 C617 1.523 . S
H619 C594 0.950 . S
H620 C596 0.950 . S
H621 C597 0.949 . S
H622 C599 0.950 . S
H623 C601 0.950 . S
C624 C625 1.349 . S
C624 C626 1.327 . S
C624 H649 0.950 . S
C625 C624 1.349 . S
C625 C641 1.349 . S
C626 C624 1.327 . S
C626 C645 1.429 . S
C626 H650 0.950 . S
C627 C644 1.574 . S
C627 C646 1.368 1_655 S
C627 H651 0.949 1_655 S
H628 C632 0.949 . S
C629 C630 1.349 . S
C629 C631 1.327 . S
C629 H652 0.950 . S
C630 C629 1.349 . S
C630 C642 1.349 . S
C631 C629 1.327 . S
C631 C647 1.429 . S
C631 H653 0.950 . S
C632 H628 0.949 . S
C632 C640 1.574 1_655 S
C632 C648 1.368 . S
H633 C641 0.950 . S
H634 C639 0.950 . S
H635 C640 0.949 . S
H636 C642 0.950 . S
H637 C643 0.950 . S
H638 C644 0.949 . S
C639 H634 0.950 . S
C639 C641 1.327 . S
C639 C645 1.429 . S
C640 C632 1.574 1_455 S
C640 H635 0.949 . S
C640 C646 1.368 . S
C641 C625 1.349 . S
C641 H633 0.950 . S
C641 C639 1.327 . S
C642 C630 1.349 . S
C642 H636 0.950 . S
C642 C643 1.327 . S
C643 H637 0.950 . S
C643 C642 1.327 . S
C643 C647 1.429 . S
C644 C627 1.574 . S
C644 H638 0.949 . S
C644 C648 1.368 . S
C645 C626 1.429 . S
C645 C639 1.429 . S
C645 C646 1.523 . S
C646 C627 1.368 1_455 S
C646 C640 1.368 . S
C646 C645 1.523 . S
C647 C631 1.429 . S
C647 C643 1.429 . S
C647 C648 1.523 . S
C648 C632 1.368 . S
C648 C644 1.368 . S
C648 C647 1.523 . S
H649 C624 0.950 . S
H650 C626 0.950 . S
H651 C627 0.949 1_455 S
H652 C629 0.950 . S
H653 C631 0.950 . S
C654 C655 1.349 . S
C654 C656 1.327 . S
C654 H679 0.950 . S
C655 C654 1.349 . S
C655 C671 1.349 . S
C656 C654 1.327 . S
C656 C675 1.429 . S
C656 H680 0.950 . S
C657 C674 1.574 . S
C657 C676 1.368 . S
C657 H681 0.949 . S
H658 C662 0.949 . S
C659 C660 1.349 . S
C659 C661 1.327 . S
C659 H682 0.950 . S
C660 C659 1.349 . S
C660 C672 1.349 . S
C661 C659 1.327 . S
C661 C677 1.429 . S
C661 H683 0.950 . S
C662 H658 0.949 . S
C662 C670 1.574 . S
C662 C678 1.368 . S
H663 C671 0.950 . S
H664 C669 0.950 . S
H665 C670 0.949 . S
H666 C672 0.950 . S
H667 C673 0.950 . S
H668 C674 0.949 . S
C669 H664 0.950 . S
C669 C671 1.327 . S
C669 C675 1.429 . S
C670 C662 1.574 . S
C670 H665 0.949 . S
C670 C676 1.368 . S
C671 C655 1.349 . S
C671 H663 0.950 . S
C671 C669 1.327 . S
C672 C660 1.349 . S
C672 H666 0.950 . S
C672 C673 1.327 . S
C673 H667 0.950 . S
C673 C672 1.327 . S
C673 C677 1.429 . S
C674 C657 1.574 . S
C674 H668 0.949 . S
C674 C678 1.368 . S
C675 C656 1.429 . S
C675 C669 1.429 . S
C675 C676 1.523 . S
C676 C657 1.368 . S
C676 C670 1.368 . S
C676 C675 1.523 . S
C677 C661 1.429 . S
C677 C673 1.429 . S
C677 C678 1.523 . S
C678 C662 1.368 . S
C678 C674 1.368 . S
C678 C677 1.523 . S
H679 C654 0.950 . S
H680 C656 0.950 . S
H681 C657 0.949 . S
H682 C659 0.950 . S
H683 C661 0.950 . S
C684 C685 1.349 . S
C684 C686 1.327 . S
C684 H709 0.950 . S
C685 C684 1.349 . S
C685 C701 1.349 . S
C686 C684 1.327 . S
C686 C705 1.429 . S
C686 H710 0.950 . S
C687 C704 1.574 . S
C687 C706 1.368 . S
C687 H711 0.949 . S
H688 C692 0.949 . S
C689 C690 1.349 . S
C689 C691 1.327 . S
C689 H712 0.950 . S
C690 C689 1.349 . S
C690 C702 1.349 . S
C691 C689 1.327 . S
C691 C707 1.429 . S
C691 H713 0.950 . S
C692 H688 0.949 . S
C692 C700 1.574 . S
C692 C708 1.368 . S
H693 C701 0.950 . S
H694 C699 0.950 . S
H695 C700 0.949 . S
H696 C702 0.950 . S
H697 C703 0.950 . S
H698 C704 0.949 . S
C699 H694 0.950 . S
C699 C701 1.327 . S
C699 C705 1.429 . S
C700 C692 1.574 . S
C700 H695 0.949 . S
C700 C706 1.368 . S
C701 C685 1.349 . S
C701 H693 0.950 . S
C701 C699 1.327 . S
C702 C690 1.349 . S
C702 H696 0.950 . S
C702 C703 1.327 . S
C703 H697 0.950 . S
C703 C702 1.327 . S
C703 C707 1.429 . S
C704 C687 1.574 . S
C704 H698 0.949 . S
C704 C708 1.368 . S
C705 C686 1.429 . S
C705 C699 1.429 . S
C705 C706 1.523 . S
C706 C687 1.368 . S
C706 C700 1.368 . S
C706 C705 1.523 . S
C707 C691 1.429 . S
C707 C703 1.429 . S
C707 C708 1.523 . S
C708 C692 1.368 . S
C708 C704 1.368 . S
C708 C707 1.523 . S
H709 C684 0.950 . S
H710 C686 0.950 . S
H711 C687 0.949 . S
H712 C689 0.950 . S
H713 C691 0.950 . S
C714 C715 1.349 . S
C714 C716 1.327 . S
C714 H739 0.950 . S
C715 C714 1.349 . S
C715 C731 1.349 . S
C716 C714 1.327 . S
C716 C735 1.429 . S
C716 H740 0.950 . S
C717 C734 1.574 . S
C717 C736 1.368 . S
C717 H741 0.949 . S
H718 C722 0.949 . S
C719 C720 1.349 . S
C719 C721 1.327 . S
C719 H742 0.950 . S
C720 C719 1.349 . S
C720 C732 1.349 . S
C721 C719 1.327 . S
C721 C737 1.429 . S
C721 H743 0.950 . S
C722 H718 0.949 . S
C722 C730 1.574 . S
C722 C738 1.368 . S
H723 C731 0.950 . S
H724 C729 0.950 . S
H725 C730 0.949 . S
H726 C732 0.950 . S
H727 C733 0.950 . S
H728 C734 0.949 . S
C729 H724 0.950 . S
C729 C731 1.327 . S
C729 C735 1.429 . S
C730 C722 1.574 . S
C730 H725 0.949 . S
C730 C736 1.368 . S
C731 C715 1.349 . S
C731 H723 0.950 . S
C731 C729 1.327 . S
C732 C720 1.349 . S
C732 H726 0.950 . S
C732 C733 1.327 . S
C733 H727 0.950 . S
C733 C732 1.327 . S
C733 C737 1.429 . S
C734 C717 1.574 . S
C734 H728 0.949 . S
C734 C738 1.368 . S
C735 C716 1.429 . S
C735 C729 1.429 . S
C735 C736 1.523 . S
C736 C717 1.368 . S
C736 C730 1.368 . S
C736 C735 1.523 . S
C737 C721 1.429 . S
C737 C733 1.429 . S
C737 C738 1.523 . S
C738 C722 1.368 . S
C738 C734 1.368 . S
C738 C737 1.523 . S
H739 C714 0.950 . S
H740 C716 0.950 . S
H741 C717 0.949 . S
H742 C719 0.950 . S
H743 C721 0.950 . S
C744 C745 1.349 . S
C744 C746 1.327 . S
C744 H769 0.950 . S
C745 C744 1.349 . S
C745 C761 1.349 . S
C746 C744 1.327 . S
C746 C765 1.429 . S
C746 H770 0.950 . S
C747 C764 1.574 . S
C747 C766 1.368 . S
C747 H771 0.949 . S
H748 C752 0.949 . S
C749 C750 1.349 . S
C749 C751 1.327 . S
C749 H772 0.950 . S
C750 C749 1.349 . S
C750 C762 1.349 . S
C751 C749 1.327 . S
C751 C767 1.429 . S
C751 H773 0.950 . S
C752 H748 0.949 . S
C752 C760 1.574 . S
C752 C768 1.368 . S
H753 C761 0.950 . S
H754 C759 0.950 . S
H755 C760 0.949 . S
H756 C762 0.997 . S
H757 C763 0.950 . S
H758 C764 0.949 . S
C759 H754 0.950 . S
C759 C761 1.327 . S
C759 C765 1.429 . S
C760 C752 1.574 . S
C760 H755 0.949 . S
C760 C766 1.368 . S
C761 C745 1.349 . S
C761 H753 0.950 . S
C761 C759 1.327 . S
C762 C750 1.349 . S
C762 H756 0.997 . S
C762 C763 1.327 . S
C763 H757 0.950 . S
C763 C762 1.327 . S
C763 C767 1.429 . S
C764 C747 1.574 . S
C764 H758 0.949 . S
C764 C768 1.368 . S
C765 C746 1.429 . S
C765 C759 1.429 . S
C765 C766 1.523 . S
C766 C747 1.368 . S
C766 C760 1.368 . S
C766 C765 1.523 . S
C767 C751 1.429 . S
C767 C763 1.429 . S
C767 C768 1.523 . S
C768 C752 1.368 . S
C768 C764 1.368 . S
C768 C767 1.523 . S
H769 C744 0.950 . S
H770 C746 0.950 . S
H771 C747 0.949 . S
H772 C749 0.950 . S
H773 C751 0.950 . S
C774 C775 1.349 . S
C774 C776 1.327 . S
C774 H799 0.950 . S
C775 C774 1.349 . S
C775 C791 1.349 . S
C776 C774 1.327 . S
C776 C795 1.429 . S
C776 H800 0.950 . S
C777 C794 1.574 . S
C777 C796 1.368 . S
C777 H801 0.949 . S
H778 C782 0.949 . S
C779 C780 1.349 . S
C779 C781 1.327 . S
C779 H802 0.950 1_554 S
C780 C779 1.349 . S
C780 C792 1.349 . S
C781 C779 1.327 . S
C781 C797 1.429 . S
C781 H803 0.950 1_554 S
C782 H778 0.949 . S
C782 C790 1.574 . S
C782 C798 1.368 . S
H783 C791 0.950 . S
H784 C789 0.950 . S
H785 C790 0.949 . S
H786 C792 0.950 . S
H787 C793 0.950 . S
H788 C794 0.949 . S
C789 H784 0.950 . S
C789 C791 1.327 . S
C789 C795 1.429 . S
C790 C782 1.574 . S
C790 H785 0.949 . S
C790 C796 1.368 . S
C791 C775 1.349 . S
C791 H783 0.950 . S
C791 C789 1.327 . S
C792 C780 1.349 . S
C792 H786 0.950 . S
C792 C793 1.327 . S
C793 H787 0.950 . S
C793 C792 1.327 . S
C793 C797 1.429 . S
C794 C777 1.574 . S
C794 H788 0.949 . S
C794 C798 1.368 . S
C795 C776 1.429 . S
C795 C789 1.429 . S
C795 C796 1.523 . S
C796 C777 1.368 . S
C796 C790 1.368 . S
C796 C795 1.523 . S
C797 C781 1.429 . S
C797 C793 1.429 . S
C797 C798 1.523 . S
C798 C782 1.368 . S
C798 C794 1.368 . S
C798 C797 1.523 . S
H799 C774 0.950 . S
H800 C776 0.950 . S
H801 C777 0.949 . S
H802 C779 0.950 1_556 S
H803 C781 0.950 1_556 S
C804 C805 1.349 . S
C804 C806 1.327 . S
C804 H829 0.950 . S
C805 C804 1.349 . S
C805 C821 1.349 . S
C806 C804 1.327 . S
C806 C825 1.429 . S
C806 H830 0.950 . S
C807 C824 1.574 . S
C807 C826 1.368 . S
C807 H831 0.949 . S
H808 C812 0.949 . S
C809 C810 1.349 . S
C809 C811 1.327 . S
C809 H832 0.950 . S
C810 C809 1.349 . S
C810 C822 1.349 . S
C811 C809 1.327 . S
C811 C827 1.429 . S
C811 H833 0.950 . S
C812 H808 0.949 . S
C812 C820 1.574 . S
C812 C828 1.368 . S
H813 C821 0.950 . S
H814 C819 0.950 . S
H815 C820 0.949 . S
H816 C822 0.950 1_556 S
H817 C823 0.950 . S
H818 C824 0.949 . S
C819 H814 0.950 . S
C819 C821 1.327 . S
C819 C825 1.429 . S
C820 C812 1.574 . S
C820 H815 0.949 . S
C820 C826 1.368 . S
C821 C805 1.349 . S
C821 H813 0.950 . S
C821 C819 1.327 . S
C822 C810 1.349 . S
C822 H816 0.950 1_554 S
C822 C823 1.327 . S
C823 H817 0.950 . S
C823 C822 1.327 . S
C823 C827 1.429 . S
C824 C807 1.574 . S
C824 H818 0.949 . S
C824 C828 1.368 . S
C825 C806 1.429 . S
C825 C819 1.429 . S
C825 C826 1.523 . S
C826 C807 1.368 . S
C826 C820 1.368 . S
C826 C825 1.523 . S
C827 C811 1.429 . S
C827 C823 1.429 . S
C827 C828 1.523 . S
C828 C812 1.368 . S
C828 C824 1.368 . S
C828 C827 1.523 . S
H829 C804 0.950 . S
H830 C806 0.950 . S
H831 C807 0.949 . S
H832 C809 0.950 . S
H833 C811 0.950 . S
C834 C835 1.349 . S
C834 C836 1.327 . S
C834 H859 0.950 . S
C835 C834 1.349 . S
C835 C851 1.349 . S
C836 C834 1.327 . S
C836 C855 1.429 . S
C836 H860 0.950 . S
C837 C854 1.574 . S
C837 C856 1.368 . S
C837 H861 0.949 . S
H838 C842 0.949 . S
C839 C840 1.349 . S
C839 C841 1.327 . S
C839 H862 0.950 . S
C840 C839 1.349 . S
C840 C852 1.349 . S
C841 C839 1.327 . S
C841 C857 1.429 . S
C841 H863 0.950 . S
C842 H838 0.949 . S
C842 C850 1.574 . S
C842 C858 1.368 . S
H843 C851 0.950 . S
H844 C849 0.950 . S
H845 C850 0.949 . S
H846 C852 0.950 . S
H847 C853 0.950 . S
H848 C854 0.949 . S
C849 H844 0.950 . S
C849 C851 1.327 . S
C849 C855 1.429 . S
C850 C842 1.574 . S
C850 H845 0.949 . S
C850 C856 1.368 . S
C851 C835 1.349 . S
C851 H843 0.950 . S
C851 C849 1.327 . S
C852 C840 1.349 . S
C852 H846 0.950 . S
C852 C853 1.327 . S
C853 H847 0.950 . S
C853 C852 1.327 . S
C853 C857 1.429 . S
C854 C837 1.574 . S
C854 H848 0.949 . S
C854 C858 1.368 . S
C855 C836 1.429 . S
C855 C849 1.429 . S
C855 C856 1.523 . S
C856 C837 1.368 . S
C856 C850 1.368 . S
C856 C855 1.523 . S
C857 C841 1.429 . S
C857 C853 1.429 . S
C857 C858 1.523 . S
C858 C842 1.368 . S
C858 C854 1.368 . S
C858 C857 1.523 . S
H859 C834 0.950 . S
H860 C836 0.950 . S
H861 C837 0.949 . S
H862 C839 0.950 . S
H863 C841 0.950 . S
C864 C865 1.349 . S
C864 C866 1.327 . S
C864 H889 0.950 . S
C865 C864 1.349 . S
C865 C881 1.349 . S
C866 C864 1.327 . S
C866 C885 1.429 . S
C866 H890 0.950 . S
C867 C884 1.574 . S
C867 C886 1.368 . S
C867 H891 0.949 . S
H868 C872 0.949 . S
C869 C870 1.349 . S
C869 C871 1.327 . S
C869 H892 0.950 . S
C870 C869 1.349 . S
C870 C882 1.349 . S
C871 C869 1.327 . S
C871 C887 1.429 . S
C871 H893 0.950 . S
C872 H868 0.949 . S
C872 C880 1.574 . S
C872 C888 1.368 . S
H873 C881 0.950 . S
H874 C879 0.950 . S
H875 C880 0.949 . S
H876 C882 0.950 1_554 S
H877 C883 0.950 1_554 S
H878 C884 0.949 . S
C879 H874 0.950 . S
C879 C881 1.327 . S
C879 C885 1.429 . S
C880 C872 1.574 . S
C880 H875 0.949 . S
C880 C886 1.368 . S
C881 C865 1.349 . S
C881 H873 0.950 . S
C881 C879 1.327 . S
C882 C870 1.349 . S
C882 H876 0.950 1_556 S
C882 C883 1.327 . S
C883 H877 0.950 1_556 S
C883 C882 1.327 . S
C883 C887 1.429 . S
C884 C867 1.574 . S
C884 H878 0.949 . S
C884 C888 1.368 . S
C885 C866 1.429 . S
C885 C879 1.429 . S
C885 C886 1.523 . S
C886 C867 1.368 . S
C886 C880 1.368 . S
C886 C885 1.523 . S
C887 C871 1.429 . S
C887 C883 1.429 . S
C887 C888 1.523 . S
C888 C872 1.368 . S
C888 C884 1.368 . S
C888 C887 1.523 . S
H889 C864 0.950 . S
H890 C866 0.950 . S
H891 C867 0.949 . S
H892 C869 0.950 . S
H893 C871 0.950 . S
C894 C895 1.349 . S
C894 C896 1.327 . S
C894 H919 0.950 1_556 S
C895 C894 1.349 . S
C895 C911 1.349 . S
C896 C894 1.327 . S
C896 C915 1.429 . S
C896 H920 0.950 . S
C897 C914 1.574 . S
C897 C916 1.368 . S
C897 H921 0.949 . S
H898 C902 0.949 . S
C899 C900 1.349 . S
C899 C901 1.327 . S
C899 H922 0.950 . S
C900 C899 1.349 . S
C900 C912 1.349 . S
C901 C899 1.327 . S
C901 C917 1.429 . S
C901 H923 0.950 . S
C902 H898 0.949 . S
C902 C910 1.574 . S
C902 C918 1.368 . S
H903 C911 0.950 . S
H904 C909 0.950 . S
H905 C910 0.949 . S
H906 C912 0.950 . S
H907 C913 0.950 . S
H908 C914 0.949 . S
C909 H904 0.950 . S
C909 C911 1.327 . S
C909 C915 1.429 . S
C910 C902 1.574 . S
C910 H905 0.949 . S
C910 C916 1.368 . S
C911 C895 1.349 . S
C911 H903 0.950 . S
C911 C909 1.327 . S
C912 C900 1.349 . S
C912 H906 0.950 . S
C912 C913 1.327 . S
C913 H907 0.950 . S
C913 C912 1.327 . S
C913 C917 1.429 . S
C914 C897 1.574 . S
C914 H908 0.949 . S
C914 C918 1.368 . S
C915 C896 1.429 . S
C915 C909 1.429 . S
C915 C916 1.523 . S
C916 C897 1.368 . S
C916 C910 1.368 . S
C916 C915 1.523 . S
C917 C901 1.429 . S
C917 C913 1.429 . S
C917 C918 1.523 . S
C918 C902 1.368 . S
C918 C914 1.368 . S
C918 C917 1.523 . S
H919 C894 0.950 1_554 S
H920 C896 0.950 . S
H921 C897 0.949 . S
H922 C899 0.950 . S
H923 C901 0.950 . S
C924 C925 1.349 . S
C924 C926 1.327 . S
C924 H949 0.950 . S
C925 C924 1.349 . S
C925 C941 1.349 . S
C926 C924 1.327 . S
C926 C945 1.429 . S
C926 H950 0.950 . S
C927 C944 1.574 . S
C927 C946 1.368 . S
C927 H951 0.949 . S
H928 C932 0.949 1_554 S
C929 C930 1.349 . S
C929 C931 1.327 . S
C929 H952 0.950 . S
C930 C929 1.349 . S
C930 C942 1.349 . S
C931 C929 1.327 . S
C931 C947 1.429 . S
C931 H953 0.950 . S
C932 H928 0.949 1_556 S
C932 C940 1.574 . S
C932 C948 1.368 . S
H933 C941 0.950 . S
H934 C939 0.950 . S
H935 C940 0.949 . S
H936 C942 0.950 1_554 S
H937 C943 0.950 1_554 S
H938 C944 0.949 . S
C939 H934 0.950 . S
C939 C941 1.327 . S
C939 C945 1.429 . S
C940 C932 1.574 . S
C940 H935 0.949 . S
C940 C946 1.368 . S
C941 C925 1.349 . S
C941 H933 0.950 . S
C941 C939 1.327 . S
C942 C930 1.349 . S
C942 H936 0.950 1_556 S
C942 C943 1.327 . S
C943 H937 0.950 1_556 S
C943 C942 1.327 . S
C943 C947 1.429 . S
C944 C927 1.574 . S
C944 H938 0.949 . S
C944 C948 1.368 . S
C945 C926 1.429 . S
C945 C939 1.429 . S
C945 C946 1.523 . S
C946 C927 1.368 . S
C946 C940 1.368 . S
C946 C945 1.523 . S
C947 C931 1.429 . S
C947 C943 1.429 . S
C947 C948 1.523 . S
C948 C932 1.368 . S
C948 C944 1.368 . S
C948 C947 1.523 . S
H949 C924 0.950 . S
H950 C926 0.950 . S
H951 C927 0.949 . S
H952 C929 0.950 . S
H953 C931 0.950 . S
C954 C955 1.349 . S
C954 C956 1.327 . S
C954 H979 0.950 . S
C955 C954 1.349 . S
C955 C971 1.349 . S
C956 C954 1.327 . S
C956 C975 1.429 . S
C956 H980 0.950 . S
C957 C974 1.574 . S
C957 C976 1.368 . S
C957 H981 0.949 . S
H958 C962 0.949 . S
C959 C960 1.349 . S
C959 C961 1.327 . S
C959 H982 0.950 . S
C960 C959 1.349 . S
C960 C972 1.349 . S
C961 C959 1.327 . S
C961 C977 1.429 . S
C961 H983 0.950 . S
C962 H958 0.949 . S
C962 C970 1.574 . S
C962 C978 1.368 . S
H963 C971 0.950 . S
H964 C969 0.950 . S
H965 C970 0.949 . S
H966 C972 0.950 . S
H967 C973 0.950 . S
H968 C974 0.949 . S
C969 H964 0.950 . S
C969 C971 1.327 . S
C969 C975 1.429 . S
C970 C962 1.574 . S
C970 H965 0.949 . S
C970 C976 1.368 . S
C971 C955 1.349 . S
C971 H963 0.950 . S
C971 C969 1.327 . S
C972 C960 1.349 . S
C972 H966 0.950 . S
C972 C973 1.327 . S
C973 H967 0.950 . S
C973 C972 1.327 . S
C973 C977 1.429 . S
C974 C957 1.574 . S
C974 H968 0.949 . S
C974 C978 1.368 . S
C975 C956 1.429 . S
C975 C969 1.429 . S
C975 C976 1.523 . S
C976 C957 1.368 . S
C976 C970 1.368 . S
C976 C975 1.523 . S
C977 C961 1.429 . S
C977 C973 1.429 . S
C977 C978 1.523 . S
C978 C962 1.368 . S
C978 C974 1.368 . S
C978 C977 1.523 . S
H979 C954 0.950 . S
H980 C956 0.950 . S
H981 C957 0.949 . S
H982 C959 0.950 . S
H983 C961 0.950 . S
C984 C985 1.349 . S
C984 C986 1.327 . S
C984 H1009 0.950 . S
C985 C984 1.349 . S
C985 C1001 1.349 . S
C986 C984 1.327 . S
C986 C1005 1.429 . S
C986 H1010 0.950 . S
C987 C1004 1.574 . S
C987 C1006 1.368 . S
C987 H1011 0.949 . S
H988 C992 0.949 . S
C989 C990 1.349 . S
C989 C991 1.327 . S
C989 H1012 0.950 . S
C990 C989 1.349 . S
C990 C1002 1.349 . S
C991 C989 1.327 . S
C991 C1007 1.429 . S
C991 H1013 0.950 . S
C992 H988 0.949 . S
C992 C1000 1.574 . S
C992 C1008 1.368 . S
H993 C1001 0.950 . S
H994 C999 0.950 . S
H995 C1000 0.949 . S
H996 C1002 0.950 . S
H997 C1003 0.950 . S
H998 C1004 0.949 . S
C999 H994 0.950 . S
C999 C1001 1.327 . S
C999 C1005 1.429 . S
C1000 C992 1.574 . S
C1000 H995 0.949 . S
C1000 C1006 1.368 . S
C1001 C985 1.349 . S
C1001 H993 0.950 . S
C1001 C999 1.327 . S
C1002 C990 1.349 . S
C1002 H996 0.950 . S
C1002 C1003 1.327 . S
C1003 H997 0.950 . S
C1003 C1002 1.327 . S
C1003 C1007 1.429 . S
C1004 C987 1.574 . S
C1004 H998 0.949 . S
C1004 C1008 1.368 . S
C1005 C986 1.429 . S
C1005 C999 1.429 . S
C1005 C1006 1.523 . S
C1006 C987 1.368 . S
C1006 C1000 1.368 . S
C1006 C1005 1.523 . S
C1007 C991 1.429 . S
C1007 C1003 1.429 . S
C1007 C1008 1.523 . S
C1008 C992 1.368 . S
C1008 C1004 1.368 . S
C1008 C1007 1.523 . S
H1009 C984 0.950 . S
H1010 C986 0.950 . S
H1011 C987 0.949 . S
H1012 C989 0.950 . S
H1013 C991 0.950 . S
C1014 C1015 1.349 . S
C1014 C1016 1.327 . S
C1014 H1039 0.950 . S
C1015 C1014 1.349 . S
C1015 C1031 1.349 . S
C1016 C1014 1.327 . S
C1016 C1035 1.429 . S
C1016 H1040 0.950 . S
C1017 C1034 1.574 . S
C1017 C1036 1.368 . S
C1017 H1041 0.949 . S
H1018 C1022 0.949 . S
C1019 C1020 1.349 . S
C1019 C1021 1.327 . S
C1019 H1042 0.950 . S
C1020 C1019 1.349 . S
C1020 C1032 1.349 . S
C1021 C1019 1.327 . S
C1021 C1037 1.429 . S
C1021 H1043 0.950 . S
C1022 H1018 0.949 . S
C1022 C1030 1.574 . S
C1022 C1038 1.368 . S
H1023 C1031 0.950 . S
H1024 C1029 0.950 . S
H1025 C1030 0.949 . S
H1026 C1032 0.950 . S
H1027 C1033 0.950 . S
H1028 C1034 0.949 . S
C1029 H1024 0.950 . S
C1029 C1031 1.327 . S
C1029 C1035 1.429 . S
C1030 C1022 1.574 . S
C1030 H1025 0.949 . S
C1030 C1036 1.368 . S
C1031 C1015 1.349 . S
C1031 H1023 0.950 . S
C1031 C1029 1.327 . S
C1032 C1020 1.349 . S
C1032 H1026 0.950 . S
C1032 C1033 1.327 . S
C1033 H1027 0.950 . S
C1033 C1032 1.327 . S
C1033 C1037 1.429 . S
C1034 C1017 1.574 . S
C1034 H1028 0.949 . S
C1034 C1038 1.368 . S
C1035 C1016 1.429 . S
C1035 C1029 1.429 . S
C1035 C1036 1.523 . S
C1036 C1017 1.368 . S
C1036 C1030 1.368 . S
C1036 C1035 1.523 . S
C1037 C1021 1.429 . S
C1037 C1033 1.429 . S
C1037 C1038 1.523 . S
C1038 C1022 1.368 . S
C1038 C1034 1.368 . S
C1038 C1037 1.523 . S
H1039 C1014 0.950 . S
H1040 C1016 0.950 . S
H1041 C1017 0.949 . S
H1042 C1019 0.950 . S
H1043 C1021 0.950 . S
C1044 C1045 1.349 . S
C1044 C1046 1.327 . S
C1044 H1069 0.950 . S
C1045 C1044 1.349 . S
C1045 C1061 1.349 . S
C1046 C1044 1.327 . S
C1046 C1065 1.429 . S
C1046 H1070 0.950 . S
C1047 C1064 1.574 . S
C1047 C1066 1.368 . S
C1047 H1071 0.949 . S
H1048 C1052 0.949 . S
C1049 C1050 1.349 . S
C1049 C1051 1.327 . S
C1049 H1072 0.950 . S
C1050 C1049 1.349 . S
C1050 C1062 1.349 . S
C1051 C1049 1.327 . S
C1051 C1067 1.429 1_554 S
C1051 H1073 0.950 . S
C1052 H1048 0.949 . S
C1052 C1060 1.574 . S
C1052 C1068 1.368 . S
H1053 C1061 0.950 . S
H1054 C1059 0.950 . S
H1055 C1060 0.949 . S
H1056 C1062 0.950 1_556 S
H1057 C1063 0.950 . S
H1058 C1064 0.949 . S
C1059 H1054 0.950 . S
C1059 C1061 1.327 . S
C1059 C1065 1.429 . S
C1060 C1052 1.574 . S
C1060 H1055 0.949 . S
C1060 C1066 1.368 . S
C1061 C1045 1.349 . S
C1061 H1053 0.950 . S
C1061 C1059 1.327 . S
C1062 C1050 1.349 . S
C1062 H1056 0.950 1_554 S
C1062 C1063 1.327 1_554 S
C1063 H1057 0.950 . S
C1063 C1062 1.327 1_556 S
C1063 C1067 1.429 . S
C1064 C1047 1.574 . S
C1064 H1058 0.949 . S
C1064 C1068 1.368 . S
C1065 C1046 1.429 . S
C1065 C1059 1.429 . S
C1065 C1066 1.523 . S
C1066 C1047 1.368 . S
C1066 C1060 1.368 . S
C1066 C1065 1.523 . S
C1067 C1051 1.429 1_556 S
C1067 C1063 1.429 . S
C1067 C1068 1.523 . S
C1068 C1052 1.368 . S
C1068 C1064 1.368 . S
C1068 C1067 1.523 . S
H1069 C1044 0.950 . S
H1070 C1046 0.950 . S
H1071 C1047 0.949 . S
H1072 C1049 0.950 . S
H1073 C1051 0.950 . S
C1074 C1075 1.349 . S
C1074 C1076 1.327 . S
C1074 H1099 0.950 . S
C1075 C1074 1.349 . S
C1075 C1091 1.349 . S
C1076 C1074 1.327 . S
C1076 C1095 1.429 . S
C1076 H1100 0.950 . S
C1077 C1094 1.574 . S
C1077 C1096 1.368 . S
C1077 H1101 0.949 . S
H1078 C1082 0.949 . S
C1079 C1080 1.349 . S
C1079 C1081 1.327 . S
C1079 H1102 0.950 . S
C1080 C1079 1.349 . S
C1080 C1092 1.349 . S
C1081 C1079 1.327 . S
C1081 C1097 1.429 . S
C1081 H1103 0.950 . S
C1082 H1078 0.949 . S
C1082 C1090 1.574 . S
C1082 C1098 1.368 . S
H1083 C1091 0.950 . S
H1084 C1089 0.950 . S
H1085 C1090 0.949 . S
H1086 C1092 0.950 . S
H1087 C1093 0.950 . S
H1088 C1094 0.949 . S
C1089 H1084 0.950 . S
C1089 C1091 1.327 . S
C1089 C1095 1.429 . S
C1090 C1082 1.574 . S
C1090 H1085 0.949 . S
C1090 C1096 1.368 . S
C1091 C1075 1.349 . S
C1091 H1083 0.950 . S
C1091 C1089 1.327 . S
C1092 C1080 1.349 . S
C1092 H1086 0.950 . S
C1092 C1093 1.327 . S
C1093 H1087 0.950 . S
C1093 C1092 1.327 . S
C1093 C1097 1.429 . S
C1094 C1077 1.574 . S
C1094 H1088 0.949 . S
C1094 C1098 1.368 . S
C1095 C1076 1.429 . S
C1095 C1089 1.429 . S
C1095 C1096 1.523 . S
C1096 C1077 1.368 . S
C1096 C1090 1.368 . S
C1096 C1095 1.523 . S
C1097 C1081 1.429 . S
C1097 C1093 1.429 . S
C1097 C1098 1.523 1_554 S
C1098 C1082 1.368 . S
C1098 C1094 1.368 . S
C1098 C1097 1.523 1_556 S
H1099 C1074 0.950 . S
H1100 C1076 0.950 . S
H1101 C1077 0.949 . S
H1102 C1079 0.950 . S
H1103 C1081 0.950 . S
C1104 C1105 1.349 . S
C1104 C1106 1.327 . S
C1104 H1129 0.950 . S
C1105 C1104 1.349 . S
C1105 C1121 1.349 . S
C1106 C1104 1.327 . S
C1106 C1125 1.429 . S
C1106 H1130 0.950 . S
C1107 C1124 1.574 . S
C1107 C1126 1.368 . S
C1107 H1131 0.949 . S
H1108 C1112 0.949 . S
C1109 C1110 1.349 . S
C1109 C1111 1.327 . S
C1109 H1132 0.950 . S
C1110 C1109 1.349 . S
C1110 C1122 1.349 . S
C1111 C1109 1.327 . S
C1111 C1127 1.429 1_554 S
C1111 H1133 0.950 . S
C1112 H1108 0.949 . S
C1112 C1120 1.574 . S
C1112 C1128 1.368 . S
H1113 C1121 0.950 . S
H1114 C1119 0.950 . S
H1115 C1120 0.949 . S
H1116 C1122 0.950 . S
H1117 C1123 0.950 . S
H1118 C1124 0.949 . S
C1119 H1114 0.950 . S
C1119 C1121 1.327 . S
C1119 C1125 1.429 . S
C1120 C1112 1.574 . S
C1120 H1115 0.949 . S
C1120 C1126 1.368 . S
C1121 C1105 1.349 . S
C1121 H1113 0.950 . S
C1121 C1119 1.327 . S
C1122 C1110 1.349 . S
C1122 H1116 0.950 . S
C1122 C1123 1.327 1_554 S
C1123 H1117 0.950 . S
C1123 C1122 1.327 1_556 S
C1123 C1127 1.429 . S
C1124 C1107 1.574 . S
C1124 H1118 0.949 . S
C1124 C1128 1.368 . S
C1125 C1106 1.429 . S
C1125 C1119 1.429 . S
C1125 C1126 1.523 . S
C1126 C1107 1.368 . S
C1126 C1120 1.368 . S
C1126 C1125 1.523 . S
C1127 C1111 1.429 1_556 S
C1127 C1123 1.429 . S
C1127 C1128 1.523 . S
C1128 C1112 1.368 . S
C1128 C1124 1.368 . S
C1128 C1127 1.523 . S
H1129 C1104 0.950 . S
H1130 C1106 0.950 . S
H1131 C1107 0.949 . S
H1132 C1109 0.950 . S
H1133 C1111 0.950 . S
C1134 C1135 1.349 . S
C1134 C1136 1.327 . S
C1134 H1159 0.950 . S
C1135 C1134 1.349 . S
C1135 C1151 1.349 . S
C1136 C1134 1.327 . S
C1136 C1155 1.429 . S
C1136 H1160 0.950 . S
C1137 C1154 1.574 . S
C1137 C1156 1.368 . S
C1137 H1161 0.949 . S
H1138 C1142 0.949 . S
C1139 C1140 1.349 . S
C1139 C1141 1.327 . S
C1139 H1162 0.950 . S
C1140 C1139 1.349 . S
C1140 C1152 1.349 . S
C1141 C1139 1.327 . S
C1141 C1157 1.429 . S
C1141 H1163 0.950 . S
C1142 H1138 0.949 . S
C1142 C1150 1.574 . S
C1142 C1158 1.368 . S
H1143 C1151 0.950 . S
H1144 C1149 0.950 . S
H1145 C1150 0.949 . S
H1146 C1152 0.950 . S
H1147 C1153 0.950 . S
H1148 C1154 0.949 . S
C1149 H1144 0.950 . S
C1149 C1151 1.327 . S
C1149 C1155 1.429 . S
C1150 C1142 1.574 . S
C1150 H1145 0.949 . S
C1150 C1156 1.368 . S
C1151 C1135 1.349 . S
C1151 H1143 0.950 . S
C1151 C1149 1.327 . S
C1152 C1140 1.349 . S
C1152 H1146 0.950 . S
C1152 C1153 1.327 . S
C1153 H1147 0.950 . S
C1153 C1152 1.327 . S
C1153 C1157 1.429 . S
C1154 C1137 1.574 . S
C1154 H1148 0.949 . S
C1154 C1158 1.368 . S
C1155 C1136 1.429 . S
C1155 C1149 1.429 . S
C1155 C1156 1.523 . S
C1156 C1137 1.368 . S
C1156 C1150 1.368 . S
C1156 C1155 1.523 . S
C1157 C1141 1.429 . S
C1157 C1153 1.429 . S
C1157 C1158 1.523 . S
C1158 C1142 1.368 . S
C1158 C1154 1.368 . S
C1158 C1157 1.523 . S
H1159 C1134 0.950 . S
H1160 C1136 0.950 . S
H1161 C1137 0.949 . S
H1162 C1139 0.950 . S
H1163 C1141 0.950 . S
C1164 C1165 1.349 . S
C1164 C1166 1.327 . S
C1164 H1189 0.950 . S
C1165 C1164 1.349 . S
C1165 C1181 1.349 . S
C1166 C1164 1.327 . S
C1166 C1185 1.429 . S
C1166 H1190 0.950 . S
C1167 C1184 1.574 . S
C1167 C1186 1.368 . S
C1167 H1191 0.949 . S
H1168 C1172 0.949 . S
C1169 C1170 1.349 . S
C1169 C1171 1.327 . S
C1169 H1192 0.950 . S
C1170 C1169 1.349 . S
C1170 C1182 1.349 . S
C1171 C1169 1.327 . S
C1171 C1187 1.429 . S
C1171 H1193 0.950 . S
C1172 H1168 0.949 . S
C1172 C1180 1.574 . S
C1172 C1188 1.368 . S
H1173 C1181 0.950 . S
H1174 C1179 0.950 . S
H1175 C1180 0.949 . S
H1176 C1182 0.950 . S
H1177 C1183 0.950 . S
H1178 C1184 0.949 . S
C1179 H1174 0.950 . S
C1179 C1181 1.327 . S
C1179 C1185 1.429 . S
C1180 C1172 1.574 . S
C1180 H1175 0.949 . S
C1180 C1186 1.368 . S
C1181 C1165 1.349 . S
C1181 H1173 0.950 . S
C1181 C1179 1.327 . S
C1182 C1170 1.349 . S
C1182 H1176 0.950 . S
C1182 C1183 1.327 . S
C1183 H1177 0.950 . S
C1183 C1182 1.327 . S
C1183 C1187 1.429 . S
C1184 C1167 1.574 . S
C1184 H1178 0.949 . S
C1184 C1188 1.368 . S
C1185 C1166 1.429 . S
C1185 C1179 1.429 . S
C1185 C1186 1.523 . S
C1186 C1167 1.368 . S
C1186 C1180 1.368 . S
C1186 C1185 1.523 . S
C1187 C1171 1.429 . S
C1187 C1183 1.429 . S
C1187 C1188 1.523 . S
C1188 C1172 1.368 . S
C1188 C1184 1.368 . S
C1188 C1187 1.523 . S
H1189 C1164 0.950 . S
H1190 C1166 0.950 . S
H1191 C1167 0.949 . S
H1192 C1169 0.950 . S
H1193 C1171 0.950 . S
C1194 C1195 1.349 . S
C1194 C1196 1.327 . S
C1194 H1219 0.950 . S
C1195 C1194 1.349 . S
C1195 C1211 1.349 . S
C1196 C1194 1.327 . S
C1196 C1215 1.429 . S
C1196 H1220 0.950 . S
C1197 C1214 1.574 . S
C1197 C1216 1.368 . S
C1197 H1221 0.949 . S
H1198 C1202 0.949 . S
C1199 C1200 1.349 . S
C1199 C1201 1.327 . S
C1199 H1222 0.950 . S
C1200 C1199 1.349 . S
C1200 C1212 1.349 . S
C1201 C1199 1.327 . S
C1201 C1217 1.429 . S
C1201 H1223 0.950 . S
C1202 H1198 0.949 . S
C1202 C1210 1.574 . S
C1202 C1218 1.368 . S
H1203 C1211 0.950 . S
H1204 C1209 0.950 . S
H1205 C1210 0.949 . S
H1206 C1212 0.950 . S
H1207 C1213 0.950 . S
H1208 C1214 0.949 . S
C1209 H1204 0.950 . S
C1209 C1211 1.327 . S
C1209 C1215 1.429 . S
C1210 C1202 1.574 . S
C1210 H1205 0.949 . S
C1210 C1216 1.368 . S
C1211 C1195 1.349 . S
C1211 H1203 0.950 . S
C1211 C1209 1.327 . S
C1212 C1200 1.349 . S
C1212 H1206 0.950 . S
C1212 C1213 1.327 . S
C1213 H1207 0.950 . S
C1213 C1212 1.327 . S
C1213 C1217 1.429 . S
C1214 C1197 1.574 . S
C1214 H1208 0.949 . S
C1214 C1218 1.368 . S
C1215 C1196 1.429 . S
C1215 C1209 1.429 . S
C1215 C1216 1.523 . S
C1216 C1197 1.368 . S
C1216 C1210 1.368 . S
C1216 C1215 1.523 . S
C1217 C1201 1.429 . S
C1217 C1213 1.429 . S
C1217 C1218 1.523 . S
C1218 C1202 1.368 . S
C1218 C1214 1.368 . S
C1218 C1217 1.523 . S
H1219 C1194 0.950 . S
H1220 C1196 0.950 . S
H1221 C1197 0.949 . S
H1222 C1199 0.950 . S
H1223 C1201 0.950 . S
C1224 C1225 1.349 . S
C1224 C1226 1.327 . S
C1224 H1249 0.950 . S
C1225 C1224 1.349 . S
C1225 C1241 1.349 . S
C1226 C1224 1.327 . S
C1226 C1245 1.429 1_556 S
C1226 H1250 0.950 . S
C1227 C1244 1.574 . S
C1227 C1246 1.368 . S
C1227 H1251 0.949 . S
H1228 C1232 0.949 . S
C1229 C1230 1.349 . S
C1229 C1231 1.327 . S
C1229 H1252 0.950 . S
C1230 C1229 1.349 . S
C1230 C1242 1.349 . S
C1231 C1229 1.327 . S
C1231 C1247 1.429 . S
C1231 H1253 0.950 . S
C1232 H1228 0.949 . S
C1232 C1240 1.574 . S
C1232 C1248 1.368 . S
H1233 C1241 0.950 . S
H1234 C1239 0.950 . S
H1235 C1240 0.949 . S
H1236 C1242 0.950 . S
H1237 C1243 0.950 . S
H1238 C1244 0.949 . S
C1239 H1234 0.950 . S
C1239 C1241 1.327 1_554 S
C1239 C1245 1.429 . S
C1240 C1232 1.574 . S
C1240 H1235 0.949 . S
C1240 C1246 1.368 . S
C1241 C1225 1.349 . S
C1241 H1233 0.950 . S
C1241 C1239 1.327 1_556 S
C1242 C1230 1.349 . S
C1242 H1236 0.950 . S
C1242 C1243 1.327 . S
C1243 H1237 0.950 . S
C1243 C1242 1.327 . S
C1243 C1247 1.429 . S
C1244 C1227 1.574 . S
C1244 H1238 0.949 . S
C1244 C1248 1.368 . S
C1245 C1226 1.429 1_554 S
C1245 C1239 1.429 . S
C1245 C1246 1.523 . S
C1246 C1227 1.368 . S
C1246 C1240 1.368 . S
C1246 C1245 1.523 . S
C1247 C1231 1.429 . S
C1247 C1243 1.429 . S
C1247 C1248 1.523 . S
C1248 C1232 1.368 . S
C1248 C1244 1.368 . S
C1248 C1247 1.523 . S
H1249 C1224 0.950 . S
H1250 C1226 0.950 . S
H1251 C1227 0.949 . S
H1252 C1229 0.950 . S
H1253 C1231 0.950 . S
C1254 C1255 1.349 . S
C1254 C1256 1.327 . S
C1254 H1279 0.950 . S
C1255 C1254 1.349 . S
C1255 C1271 1.349 . S
C1256 C1254 1.327 . S
C1256 C1275 1.429 . S
C1256 H1280 0.950 . S
C1257 C1274 1.574 . S
C1257 C1276 1.368 . S
C1257 H1281 0.949 . S
H1258 C1262 0.949 . S
C1259 C1260 1.349 . S
C1259 C1261 1.327 . S
C1259 H1282 0.950 . S
C1260 C1259 1.349 . S
C1260 C1272 1.349 . S
C1261 C1259 1.327 . S
C1261 C1277 1.429 . S
C1261 H1283 0.950 . S
C1262 H1258 0.949 . S
C1262 C1270 1.574 . S
C1262 C1278 1.368 . S
H1263 C1271 0.950 . S
H1264 C1269 0.950 . S
H1265 C1270 0.949 . S
H1266 C1272 0.950 . S
H1267 C1273 0.950 . S
H1268 C1274 0.949 . S
C1269 H1264 0.950 . S
C1269 C1271 1.327 . S
C1269 C1275 1.429 . S
C1270 C1262 1.574 . S
C1270 H1265 0.949 . S
C1270 C1276 1.368 . S
C1271 C1255 1.349 . S
C1271 H1263 0.950 . S
C1271 C1269 1.327 . S
C1272 C1260 1.349 . S
C1272 H1266 0.950 . S
C1272 C1273 1.327 . S
C1273 H1267 0.950 . S
C1273 C1272 1.327 . S
C1273 C1277 1.429 . S
C1274 C1257 1.574 . S
C1274 H1268 0.949 . S
C1274 C1278 1.368 . S
C1275 C1256 1.429 . S
C1275 C1269 1.429 . S
C1275 C1276 1.523 1_556 S
C1276 C1257 1.368 . S
C1276 C1270 1.368 . S
C1276 C1275 1.523 1_554 S
C1277 C1261 1.429 . S
C1277 C1273 1.429 . S
C1277 C1278 1.523 . S
C1278 C1262 1.368 . S
C1278 C1274 1.368 . S
C1278 C1277 1.523 . S
H1279 C1254 0.950 . S
H1280 C1256 0.950 . S
H1281 C1257 0.949 . S
H1282 C1259 0.950 . S
H1283 C1261 0.950 . S
C1284 C1285 1.349 . S
C1284 C1286 1.327 1_556 S
C1284 H1309 0.950 . S
C1285 C1284 1.349 . S
C1285 C1301 1.349 . S
C1286 C1284 1.327 1_554 S
C1286 C1305 1.429 . S
C1286 H1310 0.950 . S
C1287 C1304 1.574 . S
C1287 C1306 1.368 . S
C1287 H1311 0.949 . S
H1288 C1292 0.949 . S
C1289 C1290 1.349 . S
C1289 C1291 1.327 . S
C1289 H1312 0.950 . S
C1290 C1289 1.349 . S
C1290 C1302 1.349 . S
C1291 C1289 1.327 . S
C1291 C1307 1.429 . S
C1291 H1313 0.950 . S
C1292 H1288 0.949 . S
C1292 C1300 1.574 . S
C1292 C1308 1.368 . S
H1293 C1301 0.950 . S
H1294 C1299 0.950 . S
H1295 C1300 0.949 . S
H1296 C1302 0.950 . S
H1297 C1303 0.950 . S
H1298 C1304 0.949 . S
C1299 H1294 0.950 . S
C1299 C1301 1.327 . S
C1299 C1305 1.429 1_556 S
C1300 C1292 1.574 . S
C1300 H1295 0.949 . S
C1300 C1306 1.368 . S
C1301 C1285 1.349 . S
C1301 H1293 0.950 . S
C1301 C1299 1.327 . S
C1302 C1290 1.349 . S
C1302 H1296 0.950 . S
C1302 C1303 1.327 . S
C1303 H1297 0.950 . S
C1303 C1302 1.327 . S
C1303 C1307 1.429 . S
C1304 C1287 1.574 . S
C1304 H1298 0.949 . S
C1304 C1308 1.368 . S
C1305 C1286 1.429 . S
C1305 C1299 1.429 1_554 S
C1305 C1306 1.523 . S
C1306 C1287 1.368 . S
C1306 C1300 1.368 . S
C1306 C1305 1.523 . S
C1307 C1291 1.429 . S
C1307 C1303 1.429 . S
C1307 C1308 1.523 . S
C1308 C1292 1.368 . S
C1308 C1304 1.368 . S
C1308 C1307 1.523 . S
H1309 C1284 0.950 . S
H1310 C1286 0.950 . S
H1311 C1287 0.949 . S
H1312 C1289 0.950 . S
H1313 C1291 0.950 . S
C1314 C1315 1.349 . S
C1314 C1316 1.327 . S
C1314 H1339 0.950 . S
C1315 C1314 1.349 . S
C1315 C1331 1.349 . S
C1316 C1314 1.327 . S
C1316 C1335 1.429 . S
C1316 H1340 0.950 . S
C1317 C1334 1.574 . S
C1317 C1336 1.368 . S
C1317 H1341 0.949 . S
H1318 C1322 0.949 . S
C1319 C1320 1.349 . S
C1319 C1321 1.327 . S
C1319 H1342 0.950 . S
C1320 C1319 1.349 . S
C1320 C1332 1.349 . S
C1321 C1319 1.327 . S
C1321 C1337 1.429 . S
C1321 H1343 0.950 . S
C1322 H1318 0.949 . S
C1322 C1330 1.574 . S
C1322 C1338 1.368 . S
H1323 C1331 0.950 . S
H1324 C1329 0.950 . S
H1325 C1330 0.949 . S
H1326 C1332 0.950 . S
H1327 C1333 0.950 . S
H1328 C1334 0.949 . S
C1329 H1324 0.950 . S
C1329 C1331 1.327 . S
C1329 C1335 1.429 . S
C1330 C1322 1.574 . S
C1330 H1325 0.949 . S
C1330 C1336 1.368 . S
C1331 C1315 1.349 . S
C1331 H1323 0.950 . S
C1331 C1329 1.327 . S
C1332 C1320 1.349 . S
C1332 H1326 0.950 . S
C1332 C1333 1.327 . S
C1333 H1327 0.950 . S
C1333 C1332 1.327 . S
C1333 C1337 1.429 . S
C1334 C1317 1.574 . S
C1334 H1328 0.949 . S
C1334 C1338 1.368 . S
C1335 C1316 1.429 . S
C1335 C1329 1.429 . S
C1335 C1336 1.523 . S
C1336 C1317 1.368 . S
C1336 C1330 1.368 . S
C1336 C1335 1.523 . S
C1337 C1321 1.429 . S
C1337 C1333 1.429 . S
C1337 C1338 1.523 . S
C1338 C1322 1.368 . S
C1338 C1334 1.368 . S
C1338 C1337 1.523 . S
H1339 C1314 0.950 . S
H1340 C1316 0.950 . S
H1341 C1317 0.949 . S
H1342 C1319 0.950 . S
H1343 C1321 0.950 . S
C1344 C1345 1.349 . S
C1344 C1346 1.327 . S
C1344 H1369 0.950 . S
C1345 C1344 1.349 . S
C1345 C1361 1.349 . S
C1346 C1344 1.327 . S
C1346 C1365 1.429 . S
C1346 H1370 0.950 . S
C1347 C1364 1.574 . S
C1347 C1366 1.368 . S
C1347 H1371 0.949 . S
H1348 C1352 0.949 . S
C1349 C1350 1.349 . S
C1349 C1351 1.327 . S
C1349 H1372 0.950 . S
C1350 C1349 1.349 . S
C1350 C1362 1.349 . S
C1351 C1349 1.327 . S
C1351 C1367 1.429 . S
C1351 H1373 0.950 . S
C1352 H1348 0.949 . S
C1352 C1360 1.574 . S
C1352 C1368 1.368 . S
H1353 C1361 0.950 . S
H1354 C1359 0.950 . S
H1355 C1360 0.949 . S
H1356 C1362 0.950 . S
H1357 C1363 0.950 . S
H1358 C1364 0.949 . S
C1359 H1354 0.950 . S
C1359 C1361 1.327 . S
C1359 C1365 1.429 . S
C1360 C1352 1.574 . S
C1360 H1355 0.949 . S
C1360 C1366 1.368 . S
C1361 C1345 1.349 . S
C1361 H1353 0.950 . S
C1361 C1359 1.327 . S
C1362 C1350 1.349 . S
C1362 H1356 0.950 . S
C1362 C1363 1.327 . S
C1363 H1357 0.950 . S
C1363 C1362 1.327 . S
C1363 C1367 1.429 . S
C1364 C1347 1.574 . S
C1364 H1358 0.949 . S
C1364 C1368 1.368 . S
C1365 C1346 1.429 . S
C1365 C1359 1.429 . S
C1365 C1366 1.523 . S
C1366 C1347 1.368 . S
C1366 C1360 1.368 . S
C1366 C1365 1.523 . S
C1367 C1351 1.429 . S
C1367 C1363 1.429 . S
C1367 C1368 1.523 . S
C1368 C1352 1.368 . S
C1368 C1364 1.368 . S
C1368 C1367 1.523 . S
H1369 C1344 0.950 . S
H1370 C1346 0.950 . S
H1371 C1347 0.949 . S
H1372 C1349 0.950 . S
H1373 C1351 0.950 . S
C1374 C1375 1.349 . S
C1374 C1376 1.327 . S
C1374 H1399 0.950 . S
C1375 C1374 1.349 . S
C1375 C1391 1.349 . S
C1376 C1374 1.327 . S
C1376 C1395 1.429 . S
C1376 H1400 0.950 . S
C1377 C1394 1.574 . S
C1377 C1396 1.368 . S
C1377 H1401 0.949 . S
H1378 C1382 0.949 . S
C1379 C1380 1.349 . S
C1379 C1381 1.327 . S
C1379 H1402 0.950 . S
C1380 C1379 1.349 . S
C1380 C1392 1.349 . S
C1381 C1379 1.327 . S
C1381 C1397 1.429 . S
C1381 H1403 0.950 . S
C1382 H1378 0.949 . S
C1382 C1390 1.574 . S
C1382 C1398 1.368 . S
H1383 C1391 0.950 . S
H1384 C1389 0.950 . S
H1385 C1390 0.949 . S
H1386 C1392 0.950 . S
H1387 C1393 0.950 . S
H1388 C1394 0.949 . S
C1389 H1384 0.950 . S
C1389 C1391 1.327 . S
C1389 C1395 1.429 . S
C1390 C1382 1.574 . S
C1390 H1385 0.949 . S
C1390 C1396 1.368 . S
C1391 C1375 1.349 . S
C1391 H1383 0.950 . S
C1391 C1389 1.327 . S
C1392 C1380 1.349 . S
C1392 H1386 0.950 . S
C1392 C1393 1.327 . S
C1393 H1387 0.950 . S
C1393 C1392 1.327 . S
C1393 C1397 1.429 . S
C1394 C1377 1.574 . S
C1394 H1388 0.949 . S
C1394 C1398 1.368 . S
C1395 C1376 1.429 . S
C1395 C1389 1.429 . S
C1395 C1396 1.523 . S
C1396 C1377 1.368 . S
C1396 C1390 1.368 . S
C1396 C1395 1.523 . S
C1397 C1381 1.429 . S
C1397 C1393 1.429 . S
C1397 C1398 1.523 . S
C1398 C1382 1.368 . S
C1398 C1394 1.368 . S
C1398 C1397 1.523 . S
H1399 C1374 0.950 . S
H1400 C1376 0.950 . S
H1401 C1377 0.949 . S
H1402 C1379 0.950 . S
H1403 C1381 0.950 . S
C1404 C1405 1.346 1_455 S
C1404 C1406 1.325 . S
C1404 H1429 0.955 . S
C1405 C1404 1.346 1_655 S
C1405 C1421 1.349 . S
C1406 C1404 1.325 . S
C1406 C1425 1.429 1_455 S
C1406 H1430 0.950 . S
C1407 C1424 1.574 . S
C1407 C1426 1.368 . S
C1407 H1431 0.949 . S
H1408 C1412 0.949 . S
C1409 C1410 1.355 . S
C1409 C1411 1.332 1_455 S
C1409 H1432 0.939 1_455 S
C1410 C1409 1.355 . S
C1410 C1422 1.349 . S
C1411 C1409 1.332 1_655 S
C1411 C1427 1.429 1_655 S
C1411 H1433 0.950 . S
C1412 H1408 0.949 . S
C1412 C1420 1.574 . S
C1412 C1428 1.368 . S
H1413 C1421 0.950 . S
H1414 C1419 0.950 . S
H1415 C1420 0.949 . S
H1416 C1422 0.950 . S
H1417 C1423 0.950 . S
H1418 C1424 0.949 . S
C1419 H1414 0.950 . S
C1419 C1421 1.327 . S
C1419 C1425 1.429 . S
C1420 C1412 1.574 . S
C1420 H1415 0.949 . S
C1420 C1426 1.368 1_455 S
C1421 C1405 1.349 . S
C1421 H1413 0.950 . S
C1421 C1419 1.327 . S
C1422 C1410 1.349 . S
C1422 H1416 0.950 . S
C1422 C1423 1.327 . S
C1423 H1417 0.950 . S
C1423 C1422 1.327 . S
C1423 C1427 1.429 . S
C1424 C1407 1.574 . S
C1424 H1418 0.949 . S
C1424 C1428 1.368 1_655 S
C1425 C1406 1.429 1_655 S
C1425 C1419 1.429 . S
C1425 C1426 1.523 . S
C1426 C1407 1.368 . S
C1426 C1420 1.368 1_655 S
C1426 C1425 1.523 . S
C1427 C1411 1.429 1_455 S
C1427 C1423 1.429 . S
C1427 C1428 1.523 . S
C1428 C1412 1.368 . S
C1428 C1424 1.368 1_455 S
C1428 C1427 1.523 . S
H1429 C1404 0.955 . S
H1430 C1406 0.950 . S
H1431 C1407 0.949 . S
H1432 C1409 0.939 1_655 S
H1433 C1411 0.950 . S
C1434 C1435 1.349 . S
C1434 C1436 1.327 . S
C1434 H1459 0.950 . S
C1435 C1434 1.349 . S
C1435 C1451 1.349 . S
C1436 C1434 1.327 . S
C1436 C1455 1.429 . S
C1436 H1460 0.950 . S
C1437 C1454 1.574 . S
C1437 C1456 1.368 . S
C1437 H1461 0.949 . S
H1438 C1442 0.949 . S
C1439 C1440 1.349 . S
C1439 C1441 1.327 . S
C1439 H1462 0.950 . S
C1440 C1439 1.349 . S
C1440 C1452 1.349 . S
C1441 C1439 1.327 . S
C1441 C1457 1.429 . S
C1441 H1463 0.950 . S
C1442 H1438 0.949 . S
C1442 C1450 1.574 . S
C1442 C1458 1.368 . S
H1443 C1451 0.950 . S
H1444 C1449 0.950 . S
H1445 C1450 0.949 . S
H1446 C1452 0.950 . S
H1447 C1453 0.950 . S
H1448 C1454 0.949 . S
C1449 H1444 0.950 . S
C1449 C1451 1.327 . S
C1449 C1455 1.429 . S
C1450 C1442 1.574 . S
C1450 H1445 0.949 . S
C1450 C1456 1.368 . S
C1451 C1435 1.349 . S
C1451 H1443 0.950 . S
C1451 C1449 1.327 . S
C1452 C1440 1.349 . S
C1452 H1446 0.950 . S
C1452 C1453 1.327 . S
C1453 H1447 0.950 . S
C1453 C1452 1.327 . S
C1453 C1457 1.429 . S
C1454 C1437 1.574 . S
C1454 H1448 0.949 . S
C1454 C1458 1.368 . S
C1455 C1436 1.429 . S
C1455 C1449 1.429 . S
C1455 C1456 1.523 . S
C1456 C1437 1.368 . S
C1456 C1450 1.368 . S
C1456 C1455 1.523 . S
C1457 C1441 1.429 . S
C1457 C1453 1.429 . S
C1457 C1458 1.523 . S
C1458 C1442 1.368 . S
C1458 C1454 1.368 . S
C1458 C1457 1.523 . S
H1459 C1434 0.950 . S
H1460 C1436 0.950 . S
H1461 C1437 0.949 . S
H1462 C1439 0.950 . S
H1463 C1441 0.950 . S
C1464 C1465 1.349 . S
C1464 C1466 1.345 . S
C1464 H1489 0.950 1_565 S
C1465 C1464 1.349 . S
C1465 C1481 1.349 . S
C1466 C1464 1.345 . S
C1466 C1485 1.443 . S
C1466 H1490 0.918 1_565 S
C1467 C1484 1.574 . S
C1467 C1486 1.368 . S
C1467 H1491 0.949 . S
H1468 C1472 0.949 . S
C1469 C1470 1.368 . S
C1469 C1471 1.317 1_545 S
C1469 H1492 0.941 1_545 S
C1470 C1469 1.368 . S
C1470 C1482 1.349 . S
C1471 C1469 1.317 1_565 S
C1471 C1487 1.429 1_565 S
C1471 H1493 0.950 . S
C1472 H1468 0.949 . S
C1472 C1480 1.574 . S
C1472 C1488 1.412 . S
H1473 C1481 0.950 . S
H1474 C1479 0.950 . S
H1475 C1480 0.949 . S
H1476 C1482 0.950 . S
H1477 C1483 0.950 . S
H1478 C1484 0.949 . S
C1479 H1474 0.950 . S
C1479 C1481 1.327 . S
C1479 C1485 1.429 . S
C1480 C1472 1.574 . S
C1480 H1475 0.949 . S
C1480 C1486 1.368 1_545 S
C1481 C1465 1.349 . S
C1481 H1473 0.950 . S
C1481 C1479 1.327 . S
C1482 C1470 1.349 . S
C1482 H1476 0.950 . S
C1482 C1483 1.327 . S
C1483 H1477 0.950 . S
C1483 C1482 1.327 . S
C1483 C1487 1.429 . S
C1484 C1467 1.574 . S
C1484 H1478 0.949 . S
C1484 C1488 1.298 1_565 S
C1485 C1466 1.443 . S
C1485 C1479 1.429 . S
C1485 C1486 1.523 . S
C1486 C1467 1.368 . S
C1486 C1480 1.368 1_565 S
C1486 C1485 1.523 . S
C1487 C1471 1.429 1_545 S
C1487 C1483 1.429 . S
C1487 C1488 1.563 . S
C1488 C1472 1.412 . S
C1488 C1484 1.298 1_545 S
C1488 C1487 1.563 . S
H1489 C1464 0.950 1_545 S
H1490 C1466 0.918 1_545 S
H1491 C1467 0.949 . S
H1492 C1469 0.941 1_565 S
H1493 C1471 0.950 . S
C1494 C1495 1.349 . S
C1494 C1496 1.327 . S
C1494 H1519 0.950 . S
C1495 C1494 1.349 . S
C1495 C1511 1.349 . S
C1496 C1494 1.327 . S
C1496 C1515 1.429 . S
C1496 H1520 0.950 . S
C1497 C1514 1.574 . S
C1497 C1516 1.368 . S
C1497 H1521 0.949 . S
H1498 C1502 0.949 . S
C1499 C1500 1.349 . S
C1499 C1501 1.327 1_554 S
C1499 H1522 0.950 . S
C1500 C1499 1.349 . S
C1500 C1512 1.349 . S
C1501 C1499 1.327 1_556 S
C1501 C1517 1.429 . S
C1501 H1523 0.950 . S
C1502 H1498 0.949 . S
C1502 C1510 1.574 . S
C1502 C1518 1.368 . S
H1503 C1511 0.950 . S
H1504 C1509 0.950 . S
H1505 C1510 0.949 . S
H1506 C1512 0.950 . S
H1507 C1513 0.950 . S
H1508 C1514 0.949 . S
C1509 H1504 0.950 . S
C1509 C1511 1.327 . S
C1509 C1515 1.429 . S
C1510 C1502 1.574 . S
C1510 H1505 0.949 . S
C1510 C1516 1.368 . S
C1511 C1495 1.349 . S
C1511 H1503 0.950 . S
C1511 C1509 1.327 . S
C1512 C1500 1.349 . S
C1512 H1506 0.950 . S
C1512 C1513 1.327 1_554 S
C1513 H1507 0.950 . S
C1513 C1512 1.327 1_556 S
C1513 C1517 1.429 . S
C1514 C1497 1.574 . S
C1514 H1508 0.949 . S
C1514 C1518 1.368 . S
C1515 C1496 1.429 . S
C1515 C1509 1.429 . S
C1515 C1516 1.523 . S
C1516 C1497 1.368 . S
C1516 C1510 1.368 . S
C1516 C1515 1.523 . S
C1517 C1501 1.429 . S
C1517 C1513 1.429 . S
C1517 C1518 1.523 . S
C1518 C1502 1.368 . S
C1518 C1514 1.368 . S
C1518 C1517 1.523 . S
H1519 C1494 0.950 . S
H1520 C1496 0.950 . S
H1521 C1497 0.949 . S
H1522 C1499 0.950 . S
H1523 C1501 0.950 . S
C1524 C1525 1.349 . S
C1524 C1526 1.327 . S
C1524 H1549 0.950 . S
C1525 C1524 1.349 . S
C1525 C1541 1.349 . S
C1526 C1524 1.327 . S
C1526 C1545 1.429 . S
C1526 H1550 0.950 . S
C1527 C1544 1.574 . S
C1527 C1546 1.368 . S
C1527 H1551 0.949 . S
H1528 C1532 0.949 . S
C1529 C1530 1.349 . S
C1529 C1531 1.327 1_554 S
C1529 H1552 0.950 1_554 S
C1530 C1529 1.349 . S
C1530 C1542 1.349 . S
C1531 C1529 1.327 1_556 S
C1531 C1547 1.429 . S
C1531 H1553 0.950 . S
C1532 H1528 0.949 . S
C1532 C1540 1.574 . S
C1532 C1548 1.368 . S
H1533 C1541 0.950 . S
H1534 C1539 0.950 . S
H1535 C1540 0.949 . S
H1536 C1542 0.950 . S
H1537 C1543 0.950 . S
H1538 C1544 0.949 . S
C1539 H1534 0.950 . S
C1539 C1541 1.327 . S
C1539 C1545 1.429 . S
C1540 C1532 1.574 . S
C1540 H1535 0.949 . S
C1540 C1546 1.368 . S
C1541 C1525 1.349 . S
C1541 H1533 0.950 . S
C1541 C1539 1.327 . S
C1542 C1530 1.349 . S
C1542 H1536 0.950 . S
C1542 C1543 1.327 . S
C1543 H1537 0.950 . S
C1543 C1542 1.327 . S
C1543 C1547 1.429 1_554 S
C1544 C1527 1.574 . S
C1544 H1538 0.949 . S
C1544 C1548 1.368 . S
C1545 C1526 1.429 . S
C1545 C1539 1.429 . S
C1545 C1546 1.523 . S
C1546 C1527 1.368 . S
C1546 C1540 1.368 . S
C1546 C1545 1.523 . S
C1547 C1531 1.429 . S
C1547 C1543 1.429 1_556 S
C1547 C1548 1.523 . S
C1548 C1532 1.368 . S
C1548 C1544 1.368 . S
C1548 C1547 1.523 . S
H1549 C1524 0.950 . S
H1550 C1526 0.950 . S
H1551 C1527 0.949 . S
H1552 C1529 0.950 1_556 S
H1553 C1531 0.950 . S
C1554 C1555 1.349 . S
C1554 C1556 1.327 . S
C1554 H1579 0.950 . S
C1555 C1554 1.349 . S
C1555 C1571 1.349 . S
C1556 C1554 1.327 . S
C1556 C1575 1.429 . S
C1556 H1580 0.950 . S
C1557 C1574 1.574 . S
C1557 C1576 1.368 . S
C1557 H1581 0.949 . S
H1558 C1562 0.949 1_554 S
C1559 C1560 1.349 . S
C1559 C1561 1.327 1_554 S
C1559 H1582 0.950 . S
C1560 C1559 1.349 . S
C1560 C1572 1.349 . S
C1561 C1559 1.327 1_556 S
C1561 C1577 1.429 . S
C1561 H1583 0.950 . S
C1562 H1558 0.949 1_556 S
C1562 C1570 1.574 . S
C1562 C1578 1.368 . S
H1563 C1571 0.950 . S
H1564 C1569 0.950 . S
H1565 C1570 0.949 . S
H1566 C1572 0.950 . S
H1567 C1573 0.950 . S
H1568 C1574 0.949 . S
C1569 H1564 0.950 . S
C1569 C1571 1.327 . S
C1569 C1575 1.429 . S
C1570 C1562 1.574 . S
C1570 H1565 0.949 . S
C1570 C1576 1.368 . S
C1571 C1555 1.349 . S
C1571 H1563 0.950 . S
C1571 C1569 1.327 . S
C1572 C1560 1.349 . S
C1572 H1566 0.950 . S
C1572 C1573 1.327 . S
C1573 H1567 0.950 . S
C1573 C1572 1.327 . S
C1573 C1577 1.429 1_554 S
C1574 C1557 1.574 . S
C1574 H1568 0.949 . S
C1574 C1578 1.368 . S
C1575 C1556 1.429 . S
C1575 C1569 1.429 . S
C1575 C1576 1.523 . S
C1576 C1557 1.368 . S
C1576 C1570 1.368 . S
C1576 C1575 1.523 . S
C1577 C1561 1.429 . S
C1577 C1573 1.429 1_556 S
C1577 C1578 1.523 . S
C1578 C1562 1.368 . S
C1578 C1574 1.368 . S
C1578 C1577 1.523 . S
H1579 C1554 0.950 . S
H1580 C1556 0.950 . S
H1581 C1557 0.949 . S
H1582 C1559 0.950 . S
H1583 C1561 0.950 . S
C1584 C1585 1.349 . S
C1584 C1586 1.327 . S
C1584 H1609 0.950 . S
C1585 C1584 1.349 . S
C1585 C1601 1.349 . S
C1586 C1584 1.327 . S
C1586 C1605 1.429 . S
C1586 H1610 0.950 . S
C1587 C1604 1.574 . S
C1587 C1606 1.368 . S
C1587 H1611 0.949 . S
H1588 C1592 0.949 . S
C1589 C1590 1.349 . S
C1589 C1591 1.327 . S
C1589 H1612 0.950 . S
C1590 C1589 1.349 . S
C1590 C1602 1.349 . S
C1591 C1589 1.327 . S
C1591 C1607 1.429 . S
C1591 H1613 0.950 . S
C1592 H1588 0.949 . S
C1592 C1600 1.574 . S
C1592 C1608 1.368 . S
H1593 C1601 0.950 . S
H1594 C1599 0.950 . S
H1595 C1600 0.949 . S
H1596 C1602 0.950 . S
H1597 C1603 0.950 . S
H1598 C1604 0.949 . S
C1599 H1594 0.950 . S
C1599 C1601 1.327 . S
C1599 C1605 1.429 . S
C1600 C1592 1.574 . S
C1600 H1595 0.949 . S
C1600 C1606 1.368 . S
C1601 C1585 1.349 . S
C1601 H1593 0.950 . S
C1601 C1599 1.327 . S
C1602 C1590 1.349 . S
C1602 H1596 0.950 . S
C1602 C1603 1.327 . S
C1603 H1597 0.950 . S
C1603 C1602 1.327 . S
C1603 C1607 1.429 . S
C1604 C1587 1.574 . S
C1604 H1598 0.949 . S
C1604 C1608 1.368 . S
C1605 C1586 1.429 . S
C1605 C1599 1.429 . S
C1605 C1606 1.523 . S
C1606 C1587 1.368 . S
C1606 C1600 1.368 . S
C1606 C1605 1.523 . S
C1607 C1591 1.429 . S
C1607 C1603 1.429 . S
C1607 C1608 1.523 . S
C1608 C1592 1.368 . S
C1608 C1604 1.368 . S
C1608 C1607 1.523 . S
H1609 C1584 0.950 . S
H1610 C1586 0.950 . S
H1611 C1587 0.949 . S
H1612 C1589 0.950 . S
H1613 C1591 0.950 . S
C1614 C1615 1.349 . S
C1614 C1616 1.327 . S
C1614 H1639 0.950 . S
C1615 C1614 1.349 . S
C1615 C1631 1.349 . S
C1616 C1614 1.327 . S
C1616 C1635 1.429 . S
C1616 H1640 0.950 . S
C1617 C1634 1.574 . S
C1617 C1636 1.368 . S
C1617 H1641 0.949 . S
H1618 C1622 0.949 . S
C1619 C1620 1.349 . S
C1619 C1621 1.327 . S
C1619 H1642 0.950 . S
C1620 C1619 1.349 . S
C1620 C1632 1.349 . S
C1621 C1619 1.327 . S
C1621 C1637 1.429 . S
C1621 H1643 0.950 . S
C1622 H1618 0.949 . S
C1622 C1630 1.574 . S
C1622 C1638 1.368 . S
H1623 C1631 0.950 . S
H1624 C1629 0.950 . S
H1625 C1630 0.949 . S
H1626 C1632 0.950 . S
H1627 C1633 0.950 . S
H1628 C1634 0.949 . S
C1629 H1624 0.950 . S
C1629 C1631 1.327 . S
C1629 C1635 1.429 . S
C1630 C1622 1.574 . S
C1630 H1625 0.949 . S
C1630 C1636 1.368 . S
C1631 C1615 1.349 . S
C1631 H1623 0.950 . S
C1631 C1629 1.327 . S
C1632 C1620 1.349 . S
C1632 H1626 0.950 . S
C1632 C1633 1.327 . S
C1633 H1627 0.950 . S
C1633 C1632 1.327 . S
C1633 C1637 1.429 . S
C1634 C1617 1.574 . S
C1634 H1628 0.949 . S
C1634 C1638 1.368 . S
C1635 C1616 1.429 . S
C1635 C1629 1.429 . S
C1635 C1636 1.523 . S
C1636 C1617 1.368 . S
C1636 C1630 1.368 . S
C1636 C1635 1.523 . S
C1637 C1621 1.429 . S
C1637 C1633 1.429 . S
C1637 C1638 1.523 . S
C1638 C1622 1.368 . S
C1638 C1634 1.368 . S
C1638 C1637 1.523 . S
H1639 C1614 0.950 . S
H1640 C1616 0.950 . S
H1641 C1617 0.949 . S
H1642 C1619 0.950 . S
H1643 C1621 0.950 . S
C1644 C1645 1.349 . S
C1644 C1646 1.327 . S
C1644 H1669 0.950 . S
C1645 C1644 1.349 . S
C1645 C1661 1.349 . S
C1646 C1644 1.327 . S
C1646 C1665 1.429 . S
C1646 H1670 0.950 . S
C1647 C1664 1.574 . S
C1647 C1666 1.368 . S
C1647 H1671 0.949 . S
H1648 C1652 0.949 . S
C1649 C1650 1.349 . S
C1649 C1651 1.327 . S
C1649 H1672 0.950 . S
C1650 C1649 1.349 . S
C1650 C1662 1.349 . S
C1651 C1649 1.327 . S
C1651 C1667 1.429 . S
C1651 H1673 0.950 . S
C1652 H1648 0.949 . S
C1652 C1660 1.574 . S
C1652 C1668 1.368 . S
H1653 C1661 0.950 . S
H1654 C1659 0.950 . S
H1655 C1660 0.949 . S
H1656 C1662 0.950 . S
H1657 C1663 0.950 . S
H1658 C1664 0.949 . S
C1659 H1654 0.950 . S
C1659 C1661 1.327 . S
C1659 C1665 1.429 . S
C1660 C1652 1.574 . S
C1660 H1655 0.949 . S
C1660 C1666 1.368 . S
C1661 C1645 1.349 . S
C1661 H1653 0.950 . S
C1661 C1659 1.327 . S
C1662 C1650 1.349 . S
C1662 H1656 0.950 . S
C1662 C1663 1.327 . S
C1663 H1657 0.950 . S
C1663 C1662 1.327 . S
C1663 C1667 1.429 . S
C1664 C1647 1.574 . S
C1664 H1658 0.949 . S
C1664 C1668 1.368 . S
C1665 C1646 1.429 . S
C1665 C1659 1.429 . S
C1665 C1666 1.523 . S
C1666 C1647 1.368 . S
C1666 C1660 1.368 . S
C1666 C1665 1.523 . S
C1667 C1651 1.429 . S
C1667 C1663 1.429 . S
C1667 C1668 1.523 . S
C1668 C1652 1.368 . S
C1668 C1664 1.368 . S
C1668 C1667 1.523 . S
H1669 C1644 0.950 . S
H1670 C1646 0.950 . S
H1671 C1647 0.949 . S
H1672 C1649 0.950 . S
H1673 C1651 0.950 . S
C1674 C1675 1.349 . S
C1674 C1676 1.327 . S
C1674 H1699 0.950 . S
C1675 C1674 1.349 . S
C1675 C1691 1.334 1_545 S
C1676 C1674 1.327 . S
C1676 C1695 1.429 . S
C1676 H1700 0.950 . S
C1677 C1694 1.574 . S
C1677 C1696 1.368 1_565 S
C1677 H1701 0.949 . S
H1678 C1682 0.949 . S
C1679 C1680 1.349 . S
C1679 C1681 1.327 . S
C1679 H1702 0.950 . S
C1680 C1679 1.349 . S
C1680 C1692 1.351 . S
C1681 C1679 1.327 . S
C1681 C1697 1.429 . S
C1681 H1703 0.950 . S
C1682 H1678 0.949 . S
C1682 C1690 1.574 . S
C1682 C1698 1.368 1_545 S
H1683 C1691 0.977 . S
H1684 C1689 0.950 . S
H1685 C1690 0.949 . S
H1686 C1692 0.946 1_545 S
H1687 C1693 0.950 . S
H1688 C1694 0.949 . S
C1689 H1684 0.950 . S
C1689 C1691 1.319 . S
C1689 C1695 1.429 1_565 S
C1690 C1682 1.574 . S
C1690 H1685 0.949 . S
C1690 C1696 1.368 . S
C1691 C1675 1.334 1_565 S
C1691 H1683 0.977 . S
C1691 C1689 1.319 . S
C1692 C1680 1.351 . S
C1692 H1686 0.946 1_565 S
C1692 C1693 1.329 1_565 S
C1693 H1687 0.950 . S
C1693 C1692 1.329 1_545 S
C1693 C1697 1.429 1_545 S
C1694 C1677 1.574 . S
C1694 H1688 0.949 . S
C1694 C1698 1.368 . S
C1695 C1676 1.429 . S
C1695 C1689 1.429 1_545 S
C1695 C1696 1.523 . S
C1696 C1677 1.368 1_545 S
C1696 C1690 1.368 . S
C1696 C1695 1.523 . S
C1697 C1681 1.429 . S
C1697 C1693 1.429 1_565 S
C1697 C1698 1.523 . S
C1698 C1682 1.368 1_565 S
C1698 C1694 1.368 . S
C1698 C1697 1.523 . S
H1699 C1674 0.950 . S
H1700 C1676 0.950 . S
H1701 C1677 0.949 . S
H1702 C1679 0.950 . S
H1703 C1681 0.950 . S
C1704 C1705 1.349 . S
C1704 C1706 1.327 . S
C1704 H1729 0.950 . S
C1705 C1704 1.349 . S
C1705 C1721 1.349 . S
C1706 C1704 1.327 . S
C1706 C1725 1.429 . S
C1706 H1730 0.943 1_455 S
C1707 C1724 1.574 . S
C1707 C1726 1.368 . S
C1707 H1731 0.949 . S
H1708 C1712 0.949 . S
C1709 C1710 1.349 . S
C1709 C1711 1.327 . S
C1709 H1732 0.950 . S
C1710 C1709 1.349 . S
C1710 C1722 1.349 . S
C1711 C1709 1.327 . S
C1711 C1727 1.429 . S
C1711 H1733 0.950 1_655 S
C1712 H1708 0.949 . S
C1712 C1720 1.574 . S
C1712 C1728 1.368 . S
H1713 C1721 0.950 . S
H1714 C1719 0.950 . S
H1715 C1720 0.949 . S
H1716 C1722 0.950 . S
H1717 C1723 0.950 . S
H1718 C1724 0.949 . S
C1719 H1714 0.950 . S
C1719 C1721 1.327 . S
C1719 C1725 1.429 . S
C1720 C1712 1.574 . S
C1720 H1715 0.949 . S
C1720 C1726 1.368 1_655 S
C1721 C1705 1.349 . S
C1721 H1713 0.950 . S
C1721 C1719 1.327 . S
C1722 C1710 1.349 . S
C1722 H1716 0.950 . S
C1722 C1723 1.327 . S
C1723 H1717 0.950 . S
C1723 C1722 1.327 . S
C1723 C1727 1.429 . S
C1724 C1707 1.574 . S
C1724 H1718 0.949 . S
C1724 C1728 1.368 1_455 S
C1725 C1706 1.429 . S
C1725 C1719 1.429 . S
C1725 C1726 1.523 . S
C1726 C1707 1.368 . S
C1726 C1720 1.368 1_455 S
C1726 C1725 1.523 . S
C1727 C1711 1.429 . S
C1727 C1723 1.429 . S
C1727 C1728 1.523 . S
C1728 C1712 1.368 . S
C1728 C1724 1.368 1_655 S
C1728 C1727 1.523 . S
H1729 C1704 0.950 . S
H1730 C1706 0.943 1_655 S
H1731 C1707 0.949 . S
H1732 C1709 0.950 . S
H1733 C1711 0.950 1_455 S
C1734 C1735 1.349 . S
C1734 C1736 1.327 . S
C1734 H1759 0.950 . S
C1735 C1734 1.349 . S
C1735 C1751 1.349 . S
C1736 C1734 1.327 . S
C1736 C1755 1.429 . S
C1736 H1760 0.950 . S
C1737 C1754 1.574 . S
C1737 C1756 1.368 . S
C1737 H1761 0.949 . S
H1738 C1742 0.949 . S
C1739 C1740 1.349 . S
C1739 C1741 1.327 . S
C1739 H1762 0.950 . S
C1740 C1739 1.349 . S
C1740 C1752 1.349 . S
C1741 C1739 1.327 . S
C1741 C1757 1.429 . S
C1741 H1763 0.950 . S
C1742 H1738 0.949 . S
C1742 C1750 1.574 . S
C1742 C1758 1.368 . S
H1743 C1751 0.950 . S
H1744 C1749 0.950 . S
H1745 C1750 0.949 . S
H1746 C1752 0.950 . S
H1747 C1753 0.950 . S
H1748 C1754 0.949 . S
C1749 H1744 0.950 . S
C1749 C1751 1.327 . S
C1749 C1755 1.429 . S
C1750 C1742 1.574 . S
C1750 H1745 0.949 . S
C1750 C1756 1.368 . S
C1751 C1735 1.349 . S
C1751 H1743 0.950 . S
C1751 C1749 1.327 . S
C1752 C1740 1.349 . S
C1752 H1746 0.950 . S
C1752 C1753 1.327 . S
C1753 H1747 0.950 . S
C1753 C1752 1.327 . S
C1753 C1757 1.429 . S
C1754 C1737 1.574 . S
C1754 H1748 0.949 . S
C1754 C1758 1.368 . S
C1755 C1736 1.429 . S
C1755 C1749 1.429 . S
C1755 C1756 1.523 . S
C1756 C1737 1.368 . S
C1756 C1750 1.368 . S
C1756 C1755 1.523 . S
C1757 C1741 1.429 . S
C1757 C1753 1.429 . S
C1757 C1758 1.523 . S
C1758 C1742 1.368 . S
C1758 C1754 1.368 . S
C1758 C1757 1.523 . S
H1759 C1734 0.950 . S
H1760 C1736 0.950 . S
H1761 C1737 0.949 . S
H1762 C1739 0.950 . S
H1763 C1741 0.950 . S
C1764 C1765 1.349 . S
C1764 C1766 1.327 . S
C1764 H1789 0.950 . S
C1765 C1764 1.349 . S
C1765 C1781 1.349 . S
C1766 C1764 1.327 . S
C1766 C1785 1.429 . S
C1766 H1790 0.950 . S
C1767 C1784 1.574 . S
C1767 C1786 1.368 . S
C1767 H1791 0.949 . S
H1768 C1772 0.949 . S
C1769 C1770 1.349 . S
C1769 C1771 1.327 . S
C1769 H1792 0.950 . S
C1770 C1769 1.349 . S
C1770 C1782 1.349 . S
C1771 C1769 1.327 . S
C1771 C1787 1.429 . S
C1771 H1793 0.950 . S
C1772 H1768 0.949 . S
C1772 C1780 1.574 . S
C1772 C1788 1.368 . S
H1773 C1781 0.950 . S
H1774 C1779 0.950 . S
H1775 C1780 0.949 . S
H1776 C1782 0.950 . S
H1777 C1783 0.950 . S
H1778 C1784 0.949 . S
C1779 H1774 0.950 . S
C1779 C1781 1.327 . S
C1779 C1785 1.429 . S
C1780 C1772 1.574 . S
C1780 H1775 0.949 . S
C1780 C1786 1.368 . S
C1781 C1765 1.349 . S
C1781 H1773 0.950 . S
C1781 C1779 1.327 . S
C1782 C1770 1.349 . S
C1782 H1776 0.950 . S
C1782 C1783 1.327 . S
C1783 H1777 0.950 . S
C1783 C1782 1.327 . S
C1783 C1787 1.429 . S
C1784 C1767 1.574 . S
C1784 H1778 0.949 . S
C1784 C1788 1.368 . S
C1785 C1766 1.429 . S
C1785 C1779 1.429 . S
C1785 C1786 1.523 . S
C1786 C1767 1.368 . S
C1786 C1780 1.368 . S
C1786 C1785 1.523 . S
C1787 C1771 1.429 . S
C1787 C1783 1.429 . S
C1787 C1788 1.523 . S
C1788 C1772 1.368 . S
C1788 C1784 1.368 . S
C1788 C1787 1.523 . S
H1789 C1764 0.950 . S
H1790 C1766 0.950 . S
H1791 C1767 0.949 . S
H1792 C1769 0.950 . S
H1793 C1771 0.950 . S
C1794 C1795 1.349 . S
C1794 C1796 1.327 . S
C1794 H1819 0.950 . S
C1795 C1794 1.349 . S
C1795 C1811 1.349 . S
C1796 C1794 1.327 . S
C1796 C1815 1.429 . S
C1796 H1820 0.950 . S
C1797 C1814 1.574 . S
C1797 C1816 1.368 . S
C1797 H1821 0.949 . S
H1798 C1802 0.949 . S
C1799 C1800 1.349 . S
C1799 C1801 1.327 . S
C1799 H1822 0.950 . S
C1800 C1799 1.349 . S
C1800 C1812 1.349 . S
C1801 C1799 1.327 . S
C1801 C1817 1.429 . S
C1801 H1823 0.950 . S
C1802 H1798 0.949 . S
C1802 C1810 1.574 . S
C1802 C1818 1.368 . S
H1803 C1811 0.950 . S
H1804 C1809 0.950 . S
H1805 C1810 0.949 . S
H1806 C1812 0.950 . S
H1807 C1813 0.950 . S
H1808 C1814 0.949 . S
C1809 H1804 0.950 . S
C1809 C1811 1.327 . S
C1809 C1815 1.429 . S
C1810 C1802 1.574 . S
C1810 H1805 0.949 . S
C1810 C1816 1.368 . S
C1811 C1795 1.349 . S
C1811 H1803 0.950 . S
C1811 C1809 1.327 . S
C1812 C1800 1.349 . S
C1812 H1806 0.950 . S
C1812 C1813 1.327 . S
C1813 H1807 0.950 . S
C1813 C1812 1.327 . S
C1813 C1817 1.429 . S
C1814 C1797 1.574 . S
C1814 H1808 0.949 . S
C1814 C1818 1.368 . S
C1815 C1796 1.429 . S
C1815 C1809 1.429 . S
C1815 C1816 1.523 . S
C1816 C1797 1.368 . S
C1816 C1810 1.368 . S
C1816 C1815 1.523 . S
C1817 C1801 1.429 . S
C1817 C1813 1.429 . S
C1817 C1818 1.523 . S
C1818 C1802 1.368 . S
C1818 C1814 1.368 . S
C1818 C1817 1.523 . S
H1819 C1794 0.950 . S
H1820 C1796 0.950 . S
H1821 C1797 0.949 . S
H1822 C1799 0.950 . S
H1823 C1801 0.950 . S
C1824 C1825 1.349 . S
C1824 C1826 1.327 . S
C1824 H1849 0.950 . S
C1825 C1824 1.349 . S
C1825 C1841 1.349 . S
C1826 C1824 1.327 . S
C1826 C1845 1.429 . S
C1826 H1850 0.950 . S
C1827 C1844 1.574 . S
C1827 C1846 1.368 . S
C1827 H1851 0.949 . S
H1828 C1832 0.949 . S
C1829 C1830 1.349 . S
C1829 C1831 1.327 . S
C1829 H1852 0.950 . S
C1830 C1829 1.349 . S
C1830 C1842 1.349 . S
C1831 C1829 1.327 . S
C1831 C1847 1.429 . S
C1831 H1853 0.950 . S
C1832 H1828 0.949 . S
C1832 C1840 1.574 . S
C1832 C1848 1.368 . S
H1833 C1841 0.950 . S
H1834 C1839 0.950 . S
H1835 C1840 0.949 . S
H1836 C1842 0.950 . S
H1837 C1843 0.950 . S
H1838 C1844 0.949 . S
C1839 H1834 0.950 . S
C1839 C1841 1.327 . S
C1839 C1845 1.429 . S
C1840 C1832 1.574 . S
C1840 H1835 0.949 . S
C1840 C1846 1.368 . S
C1841 C1825 1.349 . S
C1841 H1833 0.950 . S
C1841 C1839 1.327 . S
C1842 C1830 1.349 . S
C1842 H1836 0.950 . S
C1842 C1843 1.327 . S
C1843 H1837 0.950 . S
C1843 C1842 1.327 . S
C1843 C1847 1.429 . S
C1844 C1827 1.574 . S
C1844 H1838 0.949 . S
C1844 C1848 1.368 . S
C1845 C1826 1.429 . S
C1845 C1839 1.429 . S
C1845 C1846 1.523 . S
C1846 C1827 1.368 . S
C1846 C1840 1.368 . S
C1846 C1845 1.523 . S
C1847 C1831 1.429 . S
C1847 C1843 1.429 . S
C1847 C1848 1.523 . S
C1848 C1832 1.368 . S
C1848 C1844 1.368 . S
C1848 C1847 1.523 . S
H1849 C1824 0.950 . S
H1850 C1826 0.950 . S
H1851 C1827 0.949 . S
H1852 C1829 0.950 . S
H1853 C1831 0.950 . S
C1854 C1855 1.349 . S
C1854 C1856 1.327 . S
C1854 H1879 0.950 . S
C1855 C1854 1.349 . S
C1855 C1871 1.338 1_545 S
C1856 C1854 1.327 . S
C1856 C1875 1.429 . S
C1856 H1880 0.950 . S
C1857 C1874 1.574 . S
C1857 C1876 1.368 1_565 S
C1857 H1881 0.949 . S
H1858 C1862 0.949 . S
C1859 C1860 1.349 . S
C1859 C1861 1.327 . S
C1859 H1882 0.950 . S
C1860 C1859 1.349 . S
C1860 C1872 1.349 1_565 S
C1861 C1859 1.327 . S
C1861 C1877 1.429 . S
C1861 H1883 0.950 . S
C1862 H1858 0.949 . S
C1862 C1870 1.574 . S
C1862 C1878 1.368 1_545 S
H1863 C1871 0.968 . S
H1864 C1869 0.950 . S
H1865 C1870 0.949 . S
H1866 C1872 0.950 . S
H1867 C1873 0.950 . S
H1868 C1874 0.949 . S
C1869 H1864 0.950 . S
C1869 C1871 1.322 . S
C1869 C1875 1.429 1_565 S
C1870 C1862 1.574 . S
C1870 H1865 0.949 . S
C1870 C1876 1.368 . S
C1871 C1855 1.338 1_565 S
C1871 H1863 0.968 . S
C1871 C1869 1.322 . S
C1872 C1860 1.349 1_545 S
C1872 H1866 0.950 . S
C1872 C1873 1.327 . S
C1873 H1867 0.950 . S
C1873 C1872 1.327 . S
C1873 C1877 1.429 1_545 S
C1874 C1857 1.574 . S
C1874 H1868 0.949 . S
C1874 C1878 1.368 . S
C1875 C1856 1.429 . S
C1875 C1869 1.429 1_545 S
C1875 C1876 1.523 . S
C1876 C1857 1.368 1_545 S
C1876 C1870 1.368 . S
C1876 C1875 1.523 . S
C1877 C1861 1.429 . S
C1877 C1873 1.429 1_565 S
C1877 C1878 1.523 . S
C1878 C1862 1.368 1_565 S
C1878 C1874 1.368 . S
C1878 C1877 1.523 . S
H1879 C1854 0.950 . S
H1880 C1856 0.950 . S
H1881 C1857 0.949 . S
H1882 C1859 0.950 . S
H1883 C1861 0.950 . S
C1884 C1885 1.349 1_455 S
C1884 C1886 1.327 . S
C1884 H1909 0.950 . S
C1885 C1884 1.349 1_655 S
C1885 C1901 1.349 . S
C1886 C1884 1.327 . S
C1886 C1905 1.429 1_455 S
C1886 H1910 0.950 . S
C1887 C1904 1.574 . S
C1887 C1906 1.368 . S
C1887 H1911 0.949 . S
H1888 C1892 0.949 . S
C1889 C1890 1.349 1_655 S
C1889 C1891 1.327 . S
C1889 H1912 0.950 . S
C1890 C1889 1.349 1_455 S
C1890 C1902 1.349 . S
C1891 C1889 1.327 . S
C1891 C1907 1.429 1_655 S
C1891 H1913 0.950 . S
C1892 H1888 0.949 . S
C1892 C1900 1.574 . S
C1892 C1908 1.368 . S
H1893 C1901 0.950 . S
H1894 C1899 0.950 . S
H1895 C1900 0.949 . S
H1896 C1902 0.950 . S
H1897 C1903 0.950 . S
H1898 C1904 0.949 . S
C1899 H1894 0.950 . S
C1899 C1901 1.327 . S
C1899 C1905 1.429 . S
C1900 C1892 1.574 . S
C1900 H1895 0.949 . S
C1900 C1906 1.368 1_455 S
C1901 C1885 1.349 . S
C1901 H1893 0.950 . S
C1901 C1899 1.327 . S
C1902 C1890 1.349 . S
C1902 H1896 0.950 . S
C1902 C1903 1.327 . S
C1903 H1897 0.950 . S
C1903 C1902 1.327 . S
C1903 C1907 1.429 . S
C1904 C1887 1.574 . S
C1904 H1898 0.949 . S
C1904 C1908 1.368 1_655 S
C1905 C1886 1.429 1_655 S
C1905 C1899 1.429 . S
C1905 C1906 1.523 . S
C1906 C1887 1.368 . S
C1906 C1900 1.368 1_655 S
C1906 C1905 1.523 . S
C1907 C1891 1.429 1_455 S
C1907 C1903 1.429 . S
C1907 C1908 1.523 . S
C1908 C1892 1.368 . S
C1908 C1904 1.368 1_455 S
C1908 C1907 1.523 . S
H1909 C1884 0.950 . S
H1910 C1886 0.950 . S
H1911 C1887 0.949 . S
H1912 C1889 0.950 . S
H1913 C1891 0.950 . S
C1914 C1915 1.349 . S
C1914 C1916 1.327 . S
C1914 H1939 0.950 . S
C1915 C1914 1.349 . S
C1915 C1931 1.349 . S
C1916 C1914 1.327 . S
C1916 C1935 1.429 . S
C1916 H1940 0.950 . S
C1917 C1934 1.574 . S
C1917 C1936 1.368 . S
C1917 H1941 0.949 . S
H1918 C1922 0.949 . S
C1919 C1920 1.349 . S
C1919 C1921 1.327 . S
C1919 H1942 0.950 . S
C1920 C1919 1.349 . S
C1920 C1932 1.349 . S
C1921 C1919 1.327 . S
C1921 C1937 1.429 . S
C1921 H1943 0.950 . S
C1922 H1918 0.949 . S
C1922 C1930 1.574 . S
C1922 C1938 1.368 . S
H1923 C1931 0.950 . S
H1924 C1929 0.950 . S
H1925 C1930 0.949 . S
H1926 C1932 0.950 . S
H1927 C1933 0.950 . S
H1928 C1934 0.949 . S
C1929 H1924 0.950 . S
C1929 C1931 1.327 . S
C1929 C1935 1.429 . S
C1930 C1922 1.574 . S
C1930 H1925 0.949 . S
C1930 C1936 1.368 . S
C1931 C1915 1.349 . S
C1931 H1923 0.950 . S
C1931 C1929 1.327 . S
C1932 C1920 1.349 . S
C1932 H1926 0.950 . S
C1932 C1933 1.327 . S
C1933 H1927 0.950 . S
C1933 C1932 1.327 . S
C1933 C1937 1.429 . S
C1934 C1917 1.574 . S
C1934 H1928 0.949 . S
C1934 C1938 1.368 . S
C1935 C1916 1.429 . S
C1935 C1929 1.429 . S
C1935 C1936 1.523 . S
C1936 C1917 1.368 . S
C1936 C1930 1.368 . S
C1936 C1935 1.523 . S
C1937 C1921 1.429 . S
C1937 C1933 1.429 . S
C1937 C1938 1.523 . S
C1938 C1922 1.368 . S
C1938 C1934 1.368 . S
C1938 C1937 1.523 . S
H1939 C1914 0.950 . S
H1940 C1916 0.950 . S
H1941 C1917 0.949 . S
H1942 C1919 0.950 . S
H1943 C1921 0.950 . S
C1944 C1945 1.349 . S
C1944 C1946 1.327 . S
C1944 H1969 0.950 . S
C1945 C1944 1.349 . S
C1945 C1961 1.349 1_455 S
C1946 C1944 1.327 . S
C1946 C1965 1.429 . S
C1946 H1970 0.950 . S
C1947 C1964 1.574 . S
C1947 C1966 1.368 1_655 S
C1947 H1971 0.949 . S
H1948 C1952 0.949 . S
C1949 C1950 1.349 . S
C1949 C1951 1.327 . S
C1949 H1972 0.950 . S
C1950 C1949 1.349 . S
C1950 C1962 1.349 1_655 S
C1951 C1949 1.327 . S
C1951 C1967 1.429 . S
C1951 H1973 0.950 . S
C1952 H1948 0.949 . S
C1952 C1960 1.574 . S
C1952 C1968 1.368 1_455 S
H1953 C1961 0.950 . S
H1954 C1959 0.950 . S
H1955 C1960 0.949 . S
H1956 C1962 0.950 . S
H1957 C1963 0.950 . S
H1958 C1964 0.949 . S
C1959 H1954 0.950 . S
C1959 C1961 1.327 . S
C1959 C1965 1.429 1_655 S
C1960 C1952 1.574 . S
C1960 H1955 0.949 . S
C1960 C1966 1.368 . S
C1961 C1945 1.349 1_655 S
C1961 H1953 0.950 . S
C1961 C1959 1.327 . S
C1962 C1950 1.349 1_455 S
C1962 H1956 0.950 . S
C1962 C1963 1.327 . S
C1963 H1957 0.950 . S
C1963 C1962 1.327 . S
C1963 C1967 1.429 1_455 S
C1964 C1947 1.574 . S
C1964 H1958 0.949 . S
C1964 C1968 1.368 . S
C1965 C1946 1.429 . S
C1965 C1959 1.429 1_455 S
C1965 C1966 1.523 . S
C1966 C1947 1.368 1_455 S
C1966 C1960 1.368 . S
C1966 C1965 1.523 . S
C1967 C1951 1.429 . S
C1967 C1963 1.429 1_655 S
C1967 C1968 1.523 . S
C1968 C1952 1.368 1_655 S
C1968 C1964 1.368 . S
C1968 C1967 1.523 . S
H1969 C1944 0.950 . S
H1970 C1946 0.950 . S
H1971 C1947 0.949 . S
H1972 C1949 0.950 . S
H1973 C1951 0.950 . S
C1974 C1975 1.349 . S
C1974 C1976 1.327 . S
C1974 H1999 0.950 . S
C1975 C1974 1.349 . S
C1975 C1991 1.349 . S
C1976 C1974 1.327 . S
C1976 C1995 1.429 . S
C1976 H2000 0.950 . S
C1977 C1994 1.574 . S
C1977 C1996 1.368 . S
C1977 H2001 0.949 . S
H1978 C1982 0.949 . S
C1979 C1980 1.349 . S
C1979 C1981 1.327 . S
C1979 H2002 0.950 . S
C1980 C1979 1.349 . S
C1980 C1992 1.349 . S
C1981 C1979 1.327 . S
C1981 C1997 1.429 . S
C1981 H2003 0.950 . S
C1982 H1978 0.949 . S
C1982 C1990 1.574 . S
C1982 C1998 1.368 . S
H1983 C1991 0.950 . S
H1984 C1989 0.950 . S
H1985 C1990 0.949 . S
H1986 C1992 0.950 . S
H1987 C1993 0.950 . S
H1988 C1994 0.949 . S
C1989 H1984 0.950 . S
C1989 C1991 1.327 . S
C1989 C1995 1.429 . S
C1990 C1982 1.574 . S
C1990 H1985 0.949 . S
C1990 C1996 1.368 . S
C1991 C1975 1.349 . S
C1991 H1983 0.950 . S
C1991 C1989 1.327 . S
C1992 C1980 1.349 . S
C1992 H1986 0.950 . S
C1992 C1993 1.327 . S
C1993 H1987 0.950 . S
C1993 C1992 1.327 . S
C1993 C1997 1.429 . S
C1994 C1977 1.574 . S
C1994 H1988 0.949 . S
C1994 C1998 1.368 . S
C1995 C1976 1.429 . S
C1995 C1989 1.429 . S
C1995 C1996 1.523 . S
C1996 C1977 1.368 . S
C1996 C1990 1.368 . S
C1996 C1995 1.523 . S
C1997 C1981 1.429 . S
C1997 C1993 1.429 . S
C1997 C1998 1.523 . S
C1998 C1982 1.368 . S
C1998 C1994 1.368 . S
C1998 C1997 1.523 . S
H1999 C1974 0.950 . S
H2000 C1976 0.950 . S
H2001 C1977 0.949 . S
H2002 C1979 0.950 . S
H2003 C1981 0.950 . S
C2004 C2005 1.349 1_545 S
C2004 C2006 1.327 . S
C2004 H2029 0.950 . S
C2005 C2004 1.349 1_565 S
C2005 C2021 1.349 . S
C2006 C2004 1.327 . S
C2006 C2025 1.429 1_545 S
C2006 H2030 0.950 . S
C2007 C2024 1.574 . S
C2007 C2026 1.420 . S
C2007 H2031 0.949 . S
H2008 C2012 0.949 . S
C2009 C2010 1.381 . S
C2009 C2011 1.311 1_545 S
C2009 H2032 0.934 1_545 S
C2010 C2009 1.381 . S
C2010 C2022 1.349 . S
C2011 C2009 1.311 1_565 S
C2011 C2027 1.429 1_565 S
C2011 H2033 0.950 . S
C2012 H2008 0.949 . S
C2012 C2020 1.574 . S
C2012 C2028 1.368 . S
H2013 C2021 0.950 . S
H2014 C2019 0.950 . S
H2015 C2020 0.949 . S
H2016 C2022 0.950 . S
H2017 C2023 0.950 . S
H2018 C2024 0.949 . S
C2019 H2014 0.950 . S
C2019 C2021 1.327 . S
C2019 C2025 1.429 . S
C2020 C2012 1.574 . S
C2020 H2015 0.949 . S
C2020 C2026 1.289 1_545 S
C2021 C2005 1.349 . S
C2021 H2013 0.950 . S
C2021 C2019 1.327 . S
C2022 C2010 1.349 . S
C2022 H2016 0.950 . S
C2022 C2023 1.327 . S
C2023 H2017 0.950 . S
C2023 C2022 1.327 . S
C2023 C2027 1.429 . S
C2024 C2007 1.574 . S
C2024 H2018 0.949 . S
C2024 C2028 1.368 1_565 S
C2025 C2006 1.429 1_565 S
C2025 C2019 1.429 . S
C2025 C2026 1.563 . S
C2026 C2007 1.420 . S
C2026 C2020 1.289 1_565 S
C2026 C2025 1.563 . S
C2027 C2011 1.429 1_545 S
C2027 C2023 1.429 . S
C2027 C2028 1.523 . S
C2028 C2012 1.368 . S
C2028 C2024 1.368 1_545 S
C2028 C2027 1.523 . S
H2029 C2004 0.950 . S
H2030 C2006 0.950 . S
H2031 C2007 0.949 . S
H2032 C2009 0.934 1_565 S
H2033 C2011 0.950 . S
C2034 C2035 1.349 . S
C2034 C2036 1.327 1_556 S
C2034 H2059 0.950 . S
C2035 C2034 1.349 . S
C2035 C2051 1.349 . S
C2036 C2034 1.327 1_554 S
C2036 C2055 1.429 . S
C2036 H2060 0.950 . S
C2037 C2054 1.574 . S
C2037 C2056 1.368 . S
C2037 H2061 0.949 . S
H2038 C2042 0.949 . S
C2039 C2040 1.349 . S
C2039 C2041 1.327 . S
C2039 H2062 0.950 . S
C2040 C2039 1.349 . S
C2040 C2052 1.349 . S
C2041 C2039 1.327 . S
C2041 C2057 1.429 . S
C2041 H2063 0.950 . S
C2042 H2038 0.949 . S
C2042 C2050 1.574 . S
C2042 C2058 1.368 . S
H2043 C2051 0.950 . S
H2044 C2049 0.950 . S
H2045 C2050 0.949 . S
H2046 C2052 0.950 . S
H2047 C2053 0.950 . S
H2048 C2054 0.949 . S
C2049 H2044 0.950 . S
C2049 C2051 1.327 1_554 S
C2049 C2055 1.429 . S
C2050 C2042 1.574 . S
C2050 H2045 0.949 . S
C2050 C2056 1.368 . S
C2051 C2035 1.349 . S
C2051 H2043 0.950 . S
C2051 C2049 1.327 1_556 S
C2052 C2040 1.349 . S
C2052 H2046 0.950 . S
C2052 C2053 1.327 . S
C2053 H2047 0.950 . S
C2053 C2052 1.327 . S
C2053 C2057 1.429 . S
C2054 C2037 1.574 . S
C2054 H2048 0.949 . S
C2054 C2058 1.368 . S
C2055 C2036 1.429 . S
C2055 C2049 1.429 . S
C2055 C2056 1.523 . S
C2056 C2037 1.368 . S
C2056 C2050 1.368 . S
C2056 C2055 1.523 . S
C2057 C2041 1.429 . S
C2057 C2053 1.429 . S
C2057 C2058 1.523 . S
C2058 C2042 1.368 . S
C2058 C2054 1.368 . S
C2058 C2057 1.523 . S
H2059 C2034 0.950 . S
H2060 C2036 0.950 . S
H2061 C2037 0.949 . S
H2062 C2039 0.950 . S
H2063 C2041 0.950 . S
C2064 C2065 1.349 . S
C2064 C2066 1.327 1_556 S
C2064 H2089 0.950 1_556 S
C2065 C2064 1.349 . S
C2065 C2081 1.349 . S
C2066 C2064 1.327 1_554 S
C2066 C2085 1.429 . S
C2066 H2090 0.950 . S
C2067 C2084 1.574 . S
C2067 C2086 1.368 . S
C2067 H2091 0.949 . S
H2068 C2072 0.949 . S
C2069 C2070 1.349 . S
C2069 C2071 1.327 . S
C2069 H2092 0.950 . S
C2070 C2069 1.349 . S
C2070 C2082 1.349 . S
C2071 C2069 1.327 . S
C2071 C2087 1.429 . S
C2071 H2093 0.950 . S
C2072 H2068 0.949 . S
C2072 C2080 1.574 . S
C2072 C2088 1.368 . S
H2073 C2081 0.950 . S
H2074 C2079 0.950 . S
H2075 C2080 0.949 . S
H2076 C2082 0.950 . S
H2077 C2083 0.950 . S
H2078 C2084 0.949 . S
C2079 H2074 0.950 . S
C2079 C2081 1.327 . S
C2079 C2085 1.429 1_556 S
C2080 C2072 1.574 . S
C2080 H2075 0.949 . S
C2080 C2086 1.368 . S
C2081 C2065 1.349 . S
C2081 H2073 0.950 . S
C2081 C2079 1.327 . S
C2082 C2070 1.349 . S
C2082 H2076 0.950 . S
C2082 C2083 1.327 . S
C2083 H2077 0.950 . S
C2083 C2082 1.327 . S
C2083 C2087 1.429 . S
C2084 C2067 1.574 . S
C2084 H2078 0.949 . S
C2084 C2088 1.368 . S
C2085 C2066 1.429 . S
C2085 C2079 1.429 1_554 S
C2085 C2086 1.523 . S
C2086 C2067 1.368 . S
C2086 C2080 1.368 . S
C2086 C2085 1.523 . S
C2087 C2071 1.429 . S
C2087 C2083 1.429 . S
C2087 C2088 1.523 . S
C2088 C2072 1.368 . S
C2088 C2084 1.368 . S
C2088 C2087 1.523 . S
H2089 C2064 0.950 1_554 S
H2090 C2066 0.950 . S
H2091 C2067 0.949 . S
H2092 C2069 0.950 . S
H2093 C2071 0.950 . S
C2094 C2095 1.349 . S
C2094 C2096 1.327 1_556 S
C2094 H2119 0.950 . S
C2095 C2094 1.349 . S
C2095 C2111 1.349 . S
C2096 C2094 1.327 1_554 S
C2096 C2115 1.429 . S
C2096 H2120 0.950 . S
C2097 C2114 1.574 . S
C2097 C2116 1.368 . S
C2097 H2121 0.949 . S
H2098 C2102 0.949 . S
C2099 C2100 1.349 . S
C2099 C2101 1.327 . S
C2099 H2122 0.950 . S
C2100 C2099 1.349 . S
C2100 C2112 1.349 . S
C2101 C2099 1.327 . S
C2101 C2117 1.429 . S
C2101 H2123 0.950 . S
C2102 H2098 0.949 . S
C2102 C2110 1.574 . S
C2102 C2118 1.368 . S
H2103 C2111 0.950 . S
H2104 C2109 0.950 . S
H2105 C2110 0.949 . S
H2106 C2112 0.950 . S
H2107 C2113 0.950 . S
H2108 C2114 0.949 . S
C2109 H2104 0.950 . S
C2109 C2111 1.327 . S
C2109 C2115 1.429 1_556 S
C2110 C2102 1.574 . S
C2110 H2105 0.949 . S
C2110 C2116 1.368 . S
C2111 C2095 1.349 . S
C2111 H2103 0.950 . S
C2111 C2109 1.327 . S
C2112 C2100 1.349 . S
C2112 H2106 0.950 . S
C2112 C2113 1.327 . S
C2113 H2107 0.950 . S
C2113 C2112 1.327 . S
C2113 C2117 1.429 . S
C2114 C2097 1.574 . S
C2114 H2108 0.949 . S
C2114 C2118 1.368 . S
C2115 C2096 1.429 . S
C2115 C2109 1.429 1_554 S
C2115 C2116 1.523 . S
C2116 C2097 1.368 . S
C2116 C2110 1.368 . S
C2116 C2115 1.523 . S
C2117 C2101 1.429 . S
C2117 C2113 1.429 . S
C2117 C2118 1.523 . S
C2118 C2102 1.368 . S
C2118 C2114 1.368 . S
C2118 C2117 1.523 . S
H2119 C2094 0.950 . S
H2120 C2096 0.950 . S
H2121 C2097 0.949 . S
H2122 C2099 0.950 . S
H2123 C2101 0.950 . S
C2124 C2125 1.349 . S
C2124 C2126 1.327 . S
C2124 H2149 0.950 . S
C2125 C2124 1.349 . S
C2125 C2141 1.349 . S
C2126 C2124 1.327 . S
C2126 C2145 1.429 . S
C2126 H2150 0.950 . S
C2127 C2144 1.574 . S
C2127 C2146 1.368 . S
C2127 H2151 0.949 . S
H2128 C2132 0.949 . S
C2129 C2130 1.349 . S
C2129 C2131 1.328 1_554 S
C2129 H2152 0.950 . S
C2130 C2129 1.349 . S
C2130 C2142 1.349 . S
C2131 C2129 1.328 1_556 S
C2131 C2147 1.429 . S
C2131 H2153 0.950 . S
C2132 H2128 0.949 . S
C2132 C2140 1.574 . S
C2132 C2148 1.368 . S
H2133 C2141 0.950 . S
H2134 C2139 0.950 . S
H2135 C2140 0.949 . S
H2136 C2142 0.950 . S
H2137 C2143 0.950 . S
H2138 C2144 0.949 . S
C2139 H2134 0.950 . S
C2139 C2141 1.327 . S
C2139 C2145 1.429 . S
C2140 C2132 1.574 . S
C2140 H2135 0.949 . S
C2140 C2146 1.368 . S
C2141 C2125 1.349 . S
C2141 H2133 0.950 . S
C2141 C2139 1.327 . S
C2142 C2130 1.349 . S
C2142 H2136 0.950 . S
C2142 C2143 1.327 1_554 S
C2143 H2137 0.950 . S
C2143 C2142 1.327 1_556 S
C2143 C2147 1.429 . S
C2144 C2127 1.574 . S
C2144 H2138 0.949 . S
C2144 C2148 1.368 . S
C2145 C2126 1.429 . S
C2145 C2139 1.429 . S
C2145 C2146 1.523 . S
C2146 C2127 1.368 . S
C2146 C2140 1.368 . S
C2146 C2145 1.523 . S
C2147 C2131 1.429 . S
C2147 C2143 1.429 . S
C2147 C2148 1.523 . S
C2148 C2132 1.368 . S
C2148 C2144 1.368 . S
C2148 C2147 1.523 . S
H2149 C2124 0.950 . S
H2150 C2126 0.950 . S
H2151 C2127 0.949 . S
H2152 C2129 0.950 . S
H2153 C2131 0.950 . S
C2154 C2155 1.349 . S
C2154 C2156 1.327 . S
C2154 H2179 0.950 . S
C2155 C2154 1.349 . S
C2155 C2171 1.349 . S
C2156 C2154 1.327 . S
C2156 C2175 1.429 1_554 S
C2156 H2180 0.950 . S
C2157 C2174 1.574 . S
C2157 C2176 1.368 . S
C2157 H2181 0.949 . S
H2158 C2162 0.949 . S
C2159 C2160 1.349 . S
C2159 C2161 1.327 . S
C2159 H2182 0.950 . S
C2160 C2159 1.349 . S
C2160 C2172 1.349 . S
C2161 C2159 1.327 . S
C2161 C2177 1.429 . S
C2161 H2183 0.950 . S
C2162 H2158 0.949 . S
C2162 C2170 1.574 . S
C2162 C2178 1.368 . S
H2163 C2171 0.950 . S
H2164 C2169 0.950 . S
H2165 C2170 0.949 . S
H2166 C2172 0.950 . S
H2167 C2173 0.950 . S
H2168 C2174 0.949 . S
C2169 H2164 0.950 . S
C2169 C2171 1.327 1_556 S
C2169 C2175 1.429 . S
C2170 C2162 1.574 . S
C2170 H2165 0.949 . S
C2170 C2176 1.368 . S
C2171 C2155 1.349 . S
C2171 H2163 0.950 . S
C2171 C2169 1.327 1_554 S
C2172 C2160 1.349 . S
C2172 H2166 0.950 . S
C2172 C2173 1.327 . S
C2173 H2167 0.950 . S
C2173 C2172 1.327 . S
C2173 C2177 1.429 . S
C2174 C2157 1.574 . S
C2174 H2168 0.949 . S
C2174 C2178 1.368 . S
C2175 C2156 1.429 1_556 S
C2175 C2169 1.429 . S
C2175 C2176 1.523 . S
C2176 C2157 1.368 . S
C2176 C2170 1.368 . S
C2176 C2175 1.523 . S
C2177 C2161 1.429 . S
C2177 C2173 1.429 . S
C2177 C2178 1.523 . S
C2178 C2162 1.368 . S
C2178 C2174 1.368 . S
C2178 C2177 1.523 . S
H2179 C2154 0.950 . S
H2180 C2156 0.950 . S
H2181 C2157 0.949 . S
H2182 C2159 0.950 . S
H2183 C2161 0.950 . S
C2184 C2185 1.349 . S
C2184 C2186 1.327 . S
C2184 H2209 0.950 . S
C2185 C2184 1.349 . S
C2185 C2201 1.349 . S
C2186 C2184 1.327 . S
C2186 C2205 1.429 . S
C2186 H2210 0.950 . S
C2187 C2204 1.574 . S
C2187 C2206 1.368 . S
C2187 H2211 0.949 . S
H2188 C2192 0.949 . S
C2189 C2190 1.349 . S
C2189 C2191 1.327 1_554 S
C2189 H2212 0.950 . S
C2190 C2189 1.349 . S
C2190 C2202 1.349 1_554 S
C2191 C2189 1.327 1_556 S
C2191 C2207 1.429 . S
C2191 H2213 0.950 . S
C2192 H2188 0.949 . S
C2192 C2200 1.574 . S
C2192 C2208 1.368 . S
H2193 C2201 0.950 . S
H2194 C2199 0.950 . S
H2195 C2200 0.949 . S
H2196 C2202 0.950 . S
H2197 C2203 0.950 . S
H2198 C2204 0.949 . S
C2199 H2194 0.950 . S
C2199 C2201 1.327 . S
C2199 C2205 1.429 . S
C2200 C2192 1.574 . S
C2200 H2195 0.949 . S
C2200 C2206 1.368 . S
C2201 C2185 1.349 . S
C2201 H2193 0.950 . S
C2201 C2199 1.327 . S
C2202 C2190 1.349 1_556 S
C2202 H2196 0.950 . S
C2202 C2203 1.327 . S
C2203 H2197 0.950 . S
C2203 C2202 1.327 . S
C2203 C2207 1.429 . S
C2204 C2187 1.574 . S
C2204 H2198 0.949 . S
C2204 C2208 1.368 . S
C2205 C2186 1.429 . S
C2205 C2199 1.429 . S
C2205 C2206 1.523 . S
C2206 C2187 1.368 . S
C2206 C2200 1.368 . S
C2206 C2205 1.523 . S
C2207 C2191 1.429 . S
C2207 C2203 1.429 . S
C2207 C2208 1.523 . S
C2208 C2192 1.368 . S
C2208 C2204 1.368 . S
C2208 C2207 1.523 . S
H2209 C2184 0.950 . S
H2210 C2186 0.950 . S
H2211 C2187 0.949 . S
H2212 C2189 0.950 . S
H2213 C2191 0.950 . S
C2214 C2215 1.349 . S
C2214 C2216 1.327 . S
C2214 H2239 0.950 . S
C2215 C2214 1.349 . S
C2215 C2231 1.349 . S
C2216 C2214 1.327 . S
C2216 C2235 1.429 . S
C2216 H2240 0.950 . S
C2217 C2234 1.574 . S
C2217 C2236 1.368 . S
C2217 H2241 0.949 . S
H2218 C2222 0.949 . S
C2219 C2220 1.349 . S
C2219 C2221 1.327 . S
C2219 H2242 0.950 . S
C2220 C2219 1.349 . S
C2220 C2232 1.349 . S
C2221 C2219 1.327 . S
C2221 C2237 1.429 . S
C2221 H2243 0.950 . S
C2222 H2218 0.949 . S
C2222 C2230 1.574 . S
C2222 C2238 1.368 . S
H2223 C2231 0.950 . S
H2224 C2229 0.950 . S
H2225 C2230 0.949 . S
H2226 C2232 0.950 . S
H2227 C2233 0.950 . S
H2228 C2234 0.949 . S
C2229 H2224 0.950 . S
C2229 C2231 1.327 . S
C2229 C2235 1.429 . S
C2230 C2222 1.574 . S
C2230 H2225 0.949 . S
C2230 C2236 1.368 . S
C2231 C2215 1.349 . S
C2231 H2223 0.950 . S
C2231 C2229 1.327 . S
C2232 C2220 1.349 . S
C2232 H2226 0.950 . S
C2232 C2233 1.327 . S
C2233 H2227 0.950 . S
C2233 C2232 1.327 . S
C2233 C2237 1.429 . S
C2234 C2217 1.574 . S
C2234 H2228 0.949 . S
C2234 C2238 1.368 . S
C2235 C2216 1.429 . S
C2235 C2229 1.429 . S
C2235 C2236 1.523 . S
C2236 C2217 1.368 . S
C2236 C2230 1.368 . S
C2236 C2235 1.523 . S
C2237 C2221 1.429 . S
C2237 C2233 1.429 . S
C2237 C2238 1.523 . S
C2238 C2222 1.368 . S
C2238 C2234 1.368 . S
C2238 C2237 1.523 . S
H2239 C2214 0.950 . S
H2240 C2216 0.950 . S
H2241 C2217 0.949 . S
H2242 C2219 0.950 . S
H2243 C2221 0.950 . S
C2244 C2245 1.349 . S
C2244 C2246 1.327 . S
C2244 H2269 0.950 . S
C2245 C2244 1.349 . S
C2245 C2261 1.349 . S
C2246 C2244 1.327 . S
C2246 C2265 1.429 . S
C2246 H2270 0.950 . S
C2247 C2264 1.574 . S
C2247 C2266 1.368 . S
C2247 H2271 0.949 . S
H2248 C2252 0.949 . S
C2249 C2250 1.349 . S
C2249 C2251 1.327 . S
C2249 H2272 0.950 . S
C2250 C2249 1.349 . S
C2250 C2262 1.349 . S
C2251 C2249 1.327 . S
C2251 C2267 1.429 . S
C2251 H2273 0.950 . S
C2252 H2248 0.949 . S
C2252 C2260 1.574 . S
C2252 C2268 1.368 . S
H2253 C2261 0.950 . S
H2254 C2259 0.950 . S
H2255 C2260 0.949 . S
H2256 C2262 0.950 . S
H2257 C2263 0.950 . S
H2258 C2264 0.949 . S
C2259 H2254 0.950 . S
C2259 C2261 1.327 . S
C2259 C2265 1.429 . S
C2260 C2252 1.574 . S
C2260 H2255 0.949 . S
C2260 C2266 1.368 . S
C2261 C2245 1.349 . S
C2261 H2253 0.950 . S
C2261 C2259 1.327 . S
C2262 C2250 1.349 . S
C2262 H2256 0.950 . S
C2262 C2263 1.327 . S
C2263 H2257 0.950 . S
C2263 C2262 1.327 . S
C2263 C2267 1.429 . S
C2264 C2247 1.574 . S
C2264 H2258 0.949 . S
C2264 C2268 1.368 . S
C2265 C2246 1.429 . S
C2265 C2259 1.429 . S
C2265 C2266 1.523 . S
C2266 C2247 1.368 . S
C2266 C2260 1.368 . S
C2266 C2265 1.523 . S
C2267 C2251 1.429 . S
C2267 C2263 1.429 . S
C2267 C2268 1.523 . S
C2268 C2252 1.368 . S
C2268 C2264 1.368 . S
C2268 C2267 1.523 . S
H2269 C2244 0.950 . S
H2270 C2246 0.950 . S
H2271 C2247 0.949 . S
H2272 C2249 0.950 . S
H2273 C2251 0.950 . S
C2274 C2275 1.349 . S
C2274 C2276 1.327 . S
C2274 H2299 0.950 . S
C2275 C2274 1.349 . S
C2275 C2291 1.349 . S
C2276 C2274 1.327 . S
C2276 C2295 1.429 . S
C2276 H2300 0.950 . S
C2277 C2294 1.574 . S
C2277 C2296 1.368 . S
C2277 H2301 0.949 . S
H2278 C2282 0.949 . S
C2279 C2280 1.349 . S
C2279 C2281 1.327 . S
C2279 H2302 0.950 . S
C2280 C2279 1.349 . S
C2280 C2292 1.349 . S
C2281 C2279 1.327 . S
C2281 C2297 1.429 . S
C2281 H2303 0.950 . S
C2282 H2278 0.949 . S
C2282 C2290 1.574 . S
C2282 C2298 1.368 . S
H2283 C2291 0.950 . S
H2284 C2289 0.950 . S
H2285 C2290 0.949 . S
H2286 C2292 0.950 . S
H2287 C2293 0.950 . S
H2288 C2294 0.949 . S
C2289 H2284 0.950 . S
C2289 C2291 1.327 . S
C2289 C2295 1.429 . S
C2290 C2282 1.574 . S
C2290 H2285 0.949 . S
C2290 C2296 1.368 . S
C2291 C2275 1.349 . S
C2291 H2283 0.950 . S
C2291 C2289 1.327 . S
C2292 C2280 1.349 . S
C2292 H2286 0.950 . S
C2292 C2293 1.327 . S
C2293 H2287 0.950 . S
C2293 C2292 1.327 . S
C2293 C2297 1.429 . S
C2294 C2277 1.574 . S
C2294 H2288 0.949 . S
C2294 C2298 1.368 . S
C2295 C2276 1.429 . S
C2295 C2289 1.429 . S
C2295 C2296 1.523 . S
C2296 C2277 1.368 . S
C2296 C2290 1.368 . S
C2296 C2295 1.523 . S
C2297 C2281 1.429 . S
C2297 C2293 1.429 . S
C2297 C2298 1.523 . S
C2298 C2282 1.368 . S
C2298 C2294 1.368 . S
C2298 C2297 1.523 . S
H2299 C2274 0.950 . S
H2300 C2276 0.950 . S
H2301 C2277 0.949 . S
H2302 C2279 0.950 . S
H2303 C2281 0.950 . S
C2304 C2305 1.349 . S
C2304 C2306 1.327 . S
C2304 H2329 0.950 . S
C2305 C2304 1.349 . S
C2305 C2321 1.349 1_556 S
C2306 C2304 1.327 . S
C2306 C2325 1.429 1_556 S
C2306 H2330 0.950 . S
C2307 C2324 1.574 . S
C2307 C2326 1.368 . S
C2307 H2331 0.949 . S
H2308 C2312 0.949 . S
C2309 C2310 1.349 . S
C2309 C2311 1.327 . S
C2309 H2332 0.950 . S
C2310 C2309 1.349 . S
C2310 C2322 1.349 . S
C2311 C2309 1.327 . S
C2311 C2327 1.429 . S
C2311 H2333 0.950 . S
C2312 H2308 0.949 . S
C2312 C2320 1.574 . S
C2312 C2328 1.368 . S
H2313 C2321 0.950 . S
H2314 C2319 0.950 . S
H2315 C2320 0.949 . S
H2316 C2322 0.950 . S
H2317 C2323 0.950 . S
H2318 C2324 0.949 . S
C2319 H2314 0.950 . S
C2319 C2321 1.327 . S
C2319 C2325 1.429 . S
C2320 C2312 1.574 . S
C2320 H2315 0.949 . S
C2320 C2326 1.368 . S
C2321 C2305 1.349 1_554 S
C2321 H2313 0.950 . S
C2321 C2319 1.327 . S
C2322 C2310 1.349 . S
C2322 H2316 0.950 . S
C2322 C2323 1.327 . S
C2323 H2317 0.950 . S
C2323 C2322 1.327 . S
C2323 C2327 1.429 . S
C2324 C2307 1.574 . S
C2324 H2318 0.949 . S
C2324 C2328 1.368 . S
C2325 C2306 1.429 1_554 S
C2325 C2319 1.429 . S
C2325 C2326 1.523 . S
C2326 C2307 1.368 . S
C2326 C2320 1.368 . S
C2326 C2325 1.523 . S
C2327 C2311 1.429 . S
C2327 C2323 1.429 . S
C2327 C2328 1.523 . S
C2328 C2312 1.368 . S
C2328 C2324 1.368 . S
C2328 C2327 1.523 . S
H2329 C2304 0.950 . S
H2330 C2306 0.950 . S
H2331 C2307 0.949 . S
H2332 C2309 0.950 . S
H2333 C2311 0.950 . S
C2334 C2335 1.349 . S
C2334 C2336 1.327 . S
C2334 H2359 0.950 . S
C2335 C2334 1.349 . S
C2335 C2351 1.349 . S
C2336 C2334 1.327 . S
C2336 C2355 1.429 . S
C2336 H2360 0.950 . S
C2337 C2354 1.574 . S
C2337 C2356 1.368 . S
C2337 H2361 0.949 . S
H2338 C2342 0.949 . S
C2339 C2340 1.349 . S
C2339 C2341 1.327 . S
C2339 H2362 0.950 . S
C2340 C2339 1.349 . S
C2340 C2352 1.349 . S
C2341 C2339 1.327 . S
C2341 C2357 1.429 1_556 S
C2341 H2363 0.950 1_556 S
C2342 H2338 0.949 . S
C2342 C2350 1.574 . S
C2342 C2358 1.368 . S
H2343 C2351 0.950 . S
H2344 C2349 0.950 . S
H2345 C2350 0.949 . S
H2346 C2352 0.950 . S
H2347 C2353 0.950 . S
H2348 C2354 0.949 . S
C2349 H2344 0.950 . S
C2349 C2351 1.327 . S
C2349 C2355 1.429 . S
C2350 C2342 1.574 . S
C2350 H2345 0.949 . S
C2350 C2356 1.368 . S
C2351 C2335 1.349 . S
C2351 H2343 0.950 . S
C2351 C2349 1.327 . S
C2352 C2340 1.349 . S
C2352 H2346 0.950 . S
C2352 C2353 1.327 . S
C2353 H2347 0.950 . S
C2353 C2352 1.327 . S
C2353 C2357 1.429 1_556 S
C2354 C2337 1.574 . S
C2354 H2348 0.949 . S
C2354 C2358 1.368 . S
C2355 C2336 1.429 . S
C2355 C2349 1.429 . S
C2355 C2356 1.523 . S
C2356 C2337 1.368 . S
C2356 C2350 1.368 . S
C2356 C2355 1.523 . S
C2357 C2341 1.429 1_554 S
C2357 C2353 1.429 1_554 S
C2357 C2358 1.523 . S
C2358 C2342 1.368 . S
C2358 C2354 1.368 . S
C2358 C2357 1.523 . S
H2359 C2334 0.950 . S
H2360 C2336 0.950 . S
H2361 C2337 0.949 . S
H2362 C2339 0.950 . S
H2363 C2341 0.950 1_554 S
C2364 C2365 1.349 . S
C2364 C2366 1.327 . S
C2364 H2389 0.950 . S
C2365 C2364 1.349 . S
C2365 C2381 1.349 . S
C2366 C2364 1.327 . S
C2366 C2385 1.429 . S
C2366 H2390 0.950 . S
C2367 C2384 1.574 . S
C2367 C2386 1.368 . S
C2367 H2391 0.949 . S
H2368 C2372 0.949 . S
C2369 C2370 1.349 1_554 S
C2369 C2371 1.327 . S
C2369 H2392 0.950 . S
C2370 C2369 1.349 1_556 S
C2370 C2382 1.349 . S
C2371 C2369 1.327 . S
C2371 C2387 1.429 . S
C2371 H2393 0.950 . S
C2372 H2368 0.949 . S
C2372 C2380 1.574 . S
C2372 C2388 1.368 . S
H2373 C2381 0.950 . S
H2374 C2379 0.950 . S
H2375 C2380 0.949 . S
H2376 C2382 0.950 . S
H2377 C2383 0.950 1_556 S
H2378 C2384 0.949 . S
C2379 H2374 0.950 . S
C2379 C2381 1.327 . S
C2379 C2385 1.429 . S
C2380 C2372 1.574 . S
C2380 H2375 0.949 . S
C2380 C2386 1.368 . S
C2381 C2365 1.349 . S
C2381 H2373 0.950 . S
C2381 C2379 1.327 . S
C2382 C2370 1.349 . S
C2382 H2376 0.950 . S
C2382 C2383 1.327 1_556 S
C2383 H2377 0.950 1_554 S
C2383 C2382 1.327 1_554 S
C2383 C2387 1.429 . S
C2384 C2367 1.574 . S
C2384 H2378 0.949 . S
C2384 C2388 1.368 . S
C2385 C2366 1.429 . S
C2385 C2379 1.429 . S
C2385 C2386 1.523 . S
C2386 C2367 1.368 . S
C2386 C2380 1.368 . S
C2386 C2385 1.523 . S
C2387 C2371 1.429 . S
C2387 C2383 1.429 . S
C2387 C2388 1.523 . S
C2388 C2372 1.368 . S
C2388 C2384 1.368 . S
C2388 C2387 1.523 . S
H2389 C2364 0.950 . S
H2390 C2366 0.950 . S
H2391 C2367 0.949 . S
H2392 C2369 0.950 . S
H2393 C2371 0.950 . S
C2394 C2395 1.349 . S
C2394 C2396 1.327 . S
C2394 H2419 0.950 . S
C2395 C2394 1.349 . S
C2395 C2411 1.349 . S
C2396 C2394 1.327 . S
C2396 C2415 1.429 . S
C2396 H2420 0.950 . S
C2397 C2414 1.574 . S
C2397 C2416 1.368 . S
C2397 H2421 0.949 . S
H2398 C2402 0.949 . S
C2399 C2400 1.349 . S
C2399 C2401 1.327 . S
C2399 H2422 0.950 . S
C2400 C2399 1.349 . S
C2400 C2412 1.349 . S
C2401 C2399 1.327 . S
C2401 C2417 1.429 . S
C2401 H2423 0.950 . S
C2402 H2398 0.949 . S
C2402 C2410 1.574 . S
C2402 C2418 1.368 . S
H2403 C2411 0.950 . S
H2404 C2409 0.950 . S
H2405 C2410 0.949 . S
H2406 C2412 0.950 . S
H2407 C2413 0.950 . S
H2408 C2414 0.949 . S
C2409 H2404 0.950 . S
C2409 C2411 1.327 . S
C2409 C2415 1.429 . S
C2410 C2402 1.574 . S
C2410 H2405 0.949 . S
C2410 C2416 1.368 . S
C2411 C2395 1.349 . S
C2411 H2403 0.950 . S
C2411 C2409 1.327 . S
C2412 C2400 1.349 . S
C2412 H2406 0.950 . S
C2412 C2413 1.327 . S
C2413 H2407 0.950 . S
C2413 C2412 1.327 . S
C2413 C2417 1.429 . S
C2414 C2397 1.574 . S
C2414 H2408 0.949 . S
C2414 C2418 1.368 . S
C2415 C2396 1.429 . S
C2415 C2409 1.429 . S
C2415 C2416 1.523 . S
C2416 C2397 1.368 . S
C2416 C2410 1.368 . S
C2416 C2415 1.523 . S
C2417 C2401 1.429 . S
C2417 C2413 1.429 . S
C2417 C2418 1.523 . S
C2418 C2402 1.368 . S
C2418 C2414 1.368 . S
C2418 C2417 1.523 . S
H2419 C2394 0.950 . S
H2420 C2396 0.950 . S
H2421 C2397 0.949 . S
H2422 C2399 0.950 . S
H2423 C2401 0.950 . S
C2424 C2425 1.349 . S
C2424 C2426 1.327 . S
C2424 H2449 0.950 . S
C2425 C2424 1.349 . S
C2425 C2441 1.349 . S
C2426 C2424 1.327 . S
C2426 C2445 1.429 . S
C2426 H2450 0.950 . S
C2427 C2444 1.574 . S
C2427 C2446 1.368 . S
C2427 H2451 0.949 . S
H2428 C2432 0.949 . S
C2429 C2430 1.349 . S
C2429 C2431 1.327 . S
C2429 H2452 0.950 . S
C2430 C2429 1.349 . S
C2430 C2442 1.349 . S
C2431 C2429 1.327 . S
C2431 C2447 1.429 . S
C2431 H2453 0.950 . S
C2432 H2428 0.949 . S
C2432 C2440 1.574 . S
C2432 C2448 1.368 . S
H2433 C2441 0.950 . S
H2434 C2439 0.950 . S
H2435 C2440 0.949 . S
H2436 C2442 0.950 . S
H2437 C2443 0.950 . S
H2438 C2444 0.949 . S
C2439 H2434 0.950 . S
C2439 C2441 1.327 . S
C2439 C2445 1.429 . S
C2440 C2432 1.574 . S
C2440 H2435 0.949 . S
C2440 C2446 1.368 . S
C2441 C2425 1.349 . S
C2441 H2433 0.950 . S
C2441 C2439 1.327 . S
C2442 C2430 1.349 . S
C2442 H2436 0.950 . S
C2442 C2443 1.327 . S
C2443 H2437 0.950 . S
C2443 C2442 1.327 . S
C2443 C2447 1.429 . S
C2444 C2427 1.574 . S
C2444 H2438 0.949 . S
C2444 C2448 1.368 . S
C2445 C2426 1.429 . S
C2445 C2439 1.429 . S
C2445 C2446 1.523 . S
C2446 C2427 1.368 . S
C2446 C2440 1.368 . S
C2446 C2445 1.523 . S
C2447 C2431 1.429 . S
C2447 C2443 1.429 . S
C2447 C2448 1.523 . S
C2448 C2432 1.368 . S
C2448 C2444 1.368 . S
C2448 C2447 1.523 . S
H2449 C2424 0.950 . S
H2450 C2426 0.950 . S
H2451 C2427 0.949 . S
H2452 C2429 0.950 . S
H2453 C2431 0.950 . S
C2454 C2455 1.349 . S
C2454 C2456 1.327 . S
C2454 H2479 0.950 . S
C2455 C2454 1.349 . S
C2455 C2471 1.349 . S
C2456 C2454 1.327 . S
C2456 C2475 1.429 . S
C2456 H2480 0.950 . S
C2457 C2474 1.574 . S
C2457 C2476 1.368 . S
C2457 H2481 0.949 . S
H2458 C2462 0.949 . S
C2459 C2460 1.349 . S
C2459 C2461 1.327 . S
C2459 H2482 0.950 . S
C2460 C2459 1.349 . S
C2460 C2472 1.349 . S
C2461 C2459 1.327 . S
C2461 C2477 1.429 . S
C2461 H2483 0.950 . S
C2462 H2458 0.949 . S
C2462 C2470 1.574 . S
C2462 C2478 1.368 . S
H2463 C2471 0.950 . S
H2464 C2469 0.950 . S
H2465 C2470 0.949 . S
H2466 C2472 0.950 . S
H2467 C2473 0.950 . S
H2468 C2474 0.949 . S
C2469 H2464 0.950 . S
C2469 C2471 1.327 . S
C2469 C2475 1.429 . S
C2470 C2462 1.574 . S
C2470 H2465 0.949 . S
C2470 C2476 1.368 . S
C2471 C2455 1.349 . S
C2471 H2463 0.950 . S
C2471 C2469 1.327 . S
C2472 C2460 1.349 . S
C2472 H2466 0.950 . S
C2472 C2473 1.327 . S
C2473 H2467 0.950 . S
C2473 C2472 1.327 . S
C2473 C2477 1.429 . S
C2474 C2457 1.574 . S
C2474 H2468 0.949 . S
C2474 C2478 1.368 . S
C2475 C2456 1.429 . S
C2475 C2469 1.429 . S
C2475 C2476 1.523 . S
C2476 C2457 1.368 . S
C2476 C2470 1.368 . S
C2476 C2475 1.523 . S
C2477 C2461 1.429 . S
C2477 C2473 1.429 . S
C2477 C2478 1.523 . S
C2478 C2462 1.368 . S
C2478 C2474 1.368 . S
C2478 C2477 1.523 . S
H2479 C2454 0.950 . S
H2480 C2456 0.950 . S
H2481 C2457 0.949 . S
H2482 C2459 0.950 . S
H2483 C2461 0.950 . S
C2484 C2485 1.349 . S
C2484 C2486 1.329 1_455 S
C2484 H2509 0.950 1_455 S
C2485 C2484 1.349 . S
C2485 C2501 1.349 . S
C2486 C2484 1.329 1_655 S
C2486 C2505 1.431 1_655 S
C2486 H2510 0.946 . S
C2487 C2504 1.574 . S
C2487 C2506 1.368 . S
C2487 H2511 0.949 . S
H2488 C2492 0.949 . S
C2489 C2490 1.349 . S
C2489 C2491 1.335 . S
C2489 H2512 0.950 1_655 S
C2490 C2489 1.349 . S
C2490 C2502 1.349 . S
C2491 C2489 1.335 . S
C2491 C2507 1.438 . S
C2491 H2513 0.934 1_655 S
C2492 H2488 0.949 . S
C2492 C2500 1.574 . S
C2492 C2508 1.368 . S
H2493 C2501 0.950 . S
H2494 C2499 0.950 . S
H2495 C2500 0.949 . S
H2496 C2502 0.950 . S
H2497 C2503 0.950 . S
H2498 C2504 0.949 . S
C2499 H2494 0.950 . S
C2499 C2501 1.327 . S
C2499 C2505 1.429 . S
C2500 C2492 1.574 . S
C2500 H2495 0.949 . S
C2500 C2506 1.368 1_655 S
C2501 C2485 1.349 . S
C2501 H2493 0.950 . S
C2501 C2499 1.327 . S
C2502 C2490 1.349 . S
C2502 H2496 0.950 . S
C2502 C2503 1.327 . S
C2503 H2497 0.950 . S
C2503 C2502 1.327 . S
C2503 C2507 1.429 . S
C2504 C2487 1.574 . S
C2504 H2498 0.949 . S
C2504 C2508 1.368 1_455 S
C2505 C2486 1.431 1_455 S
C2505 C2499 1.429 . S
C2505 C2506 1.523 . S
C2506 C2487 1.368 . S
C2506 C2500 1.368 1_455 S
C2506 C2505 1.523 . S
C2507 C2491 1.438 . S
C2507 C2503 1.429 . S
C2507 C2508 1.523 . S
C2508 C2492 1.368 . S
C2508 C2504 1.368 1_655 S
C2508 C2507 1.523 . S
H2509 C2484 0.950 1_655 S
H2510 C2486 0.946 . S
H2511 C2487 0.949 . S
H2512 C2489 0.950 1_455 S
H2513 C2491 0.934 1_455 S
C2514 C2515 1.349 . S
C2514 C2516 1.327 . S
C2514 H2539 0.950 . S
C2515 C2514 1.349 . S
C2515 C2531 1.349 . S
C2516 C2514 1.327 . S
C2516 C2535 1.429 . S
C2516 H2540 0.950 . S
C2517 C2534 1.574 . S
C2517 C2536 1.368 . S
C2517 H2541 0.949 . S
H2518 C2522 0.949 . S
C2519 C2520 1.349 . S
C2519 C2521 1.327 . S
C2519 H2542 0.950 . S
C2520 C2519 1.349 . S
C2520 C2532 1.349 . S
C2521 C2519 1.327 . S
C2521 C2537 1.429 . S
C2521 H2543 0.950 . S
C2522 H2518 0.949 . S
C2522 C2530 1.574 . S
C2522 C2538 1.368 . S
H2523 C2531 0.950 . S
H2524 C2529 0.950 . S
H2525 C2530 0.949 . S
H2526 C2532 0.950 . S
H2527 C2533 0.950 . S
H2528 C2534 0.949 . S
C2529 H2524 0.950 . S
C2529 C2531 1.327 . S
C2529 C2535 1.429 . S
C2530 C2522 1.574 . S
C2530 H2525 0.949 . S
C2530 C2536 1.368 . S
C2531 C2515 1.349 . S
C2531 H2523 0.950 . S
C2531 C2529 1.327 . S
C2532 C2520 1.349 . S
C2532 H2526 0.950 . S
C2532 C2533 1.327 . S
C2533 H2527 0.950 . S
C2533 C2532 1.327 . S
C2533 C2537 1.429 . S
C2534 C2517 1.574 . S
C2534 H2528 0.949 . S
C2534 C2538 1.368 . S
C2535 C2516 1.429 . S
C2535 C2529 1.429 . S
C2535 C2536 1.523 . S
C2536 C2517 1.368 . S
C2536 C2530 1.368 . S
C2536 C2535 1.523 . S
C2537 C2521 1.429 . S
C2537 C2533 1.429 . S
C2537 C2538 1.523 . S
C2538 C2522 1.368 . S
C2538 C2534 1.368 . S
C2538 C2537 1.523 . S
H2539 C2514 0.950 . S
H2540 C2516 0.950 . S
H2541 C2517 0.949 . S
H2542 C2519 0.950 . S
H2543 C2521 0.950 . S
C2544 C2545 1.349 . S
C2544 C2546 1.327 . S
C2544 H2569 0.950 . S
C2545 C2544 1.349 . S
C2545 C2561 1.349 . S
C2546 C2544 1.327 . S
C2546 C2565 1.429 . S
C2546 H2570 0.950 . S
C2547 C2564 1.574 1_545 S
C2547 C2566 1.368 . S
C2547 H2571 0.949 . S
H2548 C2552 0.949 . S
C2549 C2550 1.349 . S
C2549 C2551 1.327 . S
C2549 H2572 0.950 . S
C2550 C2549 1.349 . S
C2550 C2562 1.349 . S
C2551 C2549 1.327 . S
C2551 C2567 1.429 . S
C2551 H2573 0.950 . S
C2552 H2548 0.949 . S
C2552 C2560 1.574 1_565 S
C2552 C2568 1.368 . S
H2553 C2561 0.950 . S
H2554 C2559 0.950 . S
H2555 C2560 0.949 . S
H2556 C2562 0.950 . S
H2557 C2563 0.950 . S
H2558 C2564 0.949 . S
C2559 H2554 0.950 . S
C2559 C2561 1.327 . S
C2559 C2565 1.429 . S
C2560 C2552 1.574 1_545 S
C2560 H2555 0.949 . S
C2560 C2566 1.368 . S
C2561 C2545 1.349 . S
C2561 H2553 0.950 . S
C2561 C2559 1.327 . S
C2562 C2550 1.349 . S
C2562 H2556 0.950 . S
C2562 C2563 1.327 . S
C2563 H2557 0.950 . S
C2563 C2562 1.327 . S
C2563 C2567 1.429 . S
C2564 C2547 1.574 1_565 S
C2564 H2558 0.949 . S
C2564 C2568 1.368 . S
C2565 C2546 1.429 . S
C2565 C2559 1.429 . S
C2565 C2566 1.523 . S
C2566 C2547 1.368 . S
C2566 C2560 1.368 . S
C2566 C2565 1.523 . S
C2567 C2551 1.429 . S
C2567 C2563 1.429 . S
C2567 C2568 1.523 . S
C2568 C2552 1.368 . S
C2568 C2564 1.368 . S
C2568 C2567 1.523 . S
H2569 C2544 0.950 . S
H2570 C2546 0.950 . S
H2571 C2547 0.949 . S
H2572 C2549 0.950 . S
H2573 C2551 0.950 . S
C2574 C2575 1.349 . S
C2574 C2576 1.327 . S
C2574 H2599 0.950 . S
C2575 C2574 1.349 . S
C2575 C2591 1.349 . S
C2576 C2574 1.327 . S
C2576 C2595 1.429 . S
C2576 H2600 0.950 . S
C2577 C2594 1.574 . S
C2577 C2596 1.368 1_545 S
C2577 H2601 0.949 . S
H2578 C2582 0.949 . S
C2579 C2580 1.349 . S
C2579 C2581 1.327 . S
C2579 H2602 0.950 . S
C2580 C2579 1.349 . S
C2580 C2592 1.349 . S
C2581 C2579 1.327 . S
C2581 C2597 1.429 . S
C2581 H2603 0.950 . S
C2582 H2578 0.949 . S
C2582 C2590 1.574 . S
C2582 C2598 1.368 1_565 S
H2583 C2591 0.950 . S
H2584 C2589 0.950 . S
H2585 C2590 0.949 . S
H2586 C2592 0.950 . S
H2587 C2593 0.950 . S
H2588 C2594 0.949 . S
C2589 H2584 0.950 . S
C2589 C2591 1.327 . S
C2589 C2595 1.429 . S
C2590 C2582 1.574 . S
C2590 H2585 0.949 . S
C2590 C2596 1.368 . S
C2591 C2575 1.349 . S
C2591 H2583 0.950 . S
C2591 C2589 1.327 . S
C2592 C2580 1.349 . S
C2592 H2586 0.950 . S
C2592 C2593 1.327 . S
C2593 H2587 0.950 . S
C2593 C2592 1.327 . S
C2593 C2597 1.429 . S
C2594 C2577 1.574 . S
C2594 H2588 0.949 . S
C2594 C2598 1.368 . S
C2595 C2576 1.429 . S
C2595 C2589 1.429 . S
C2595 C2596 1.523 . S
C2596 C2577 1.368 1_565 S
C2596 C2590 1.368 . S
C2596 C2595 1.523 . S
C2597 C2581 1.429 . S
C2597 C2593 1.429 . S
C2597 C2598 1.523 . S
C2598 C2582 1.368 1_545 S
C2598 C2594 1.368 . S
C2598 C2597 1.523 . S
H2599 C2574 0.950 . S
H2600 C2576 0.950 . S
H2601 C2577 0.949 . S
H2602 C2579 0.950 . S
H2603 C2581 0.950 . S
C2604 C2605 1.349 . S
C2604 C2606 1.327 . S
C2604 H2629 0.950 . S
C2605 C2604 1.349 . S
C2605 C2621 1.349 . S
C2606 C2604 1.327 . S
C2606 C2625 1.429 . S
C2606 H2630 0.917 1_655 S
C2607 C2624 1.574 . S
C2607 C2626 1.368 . S
C2607 H2631 0.949 . S
H2608 C2612 0.949 . S
C2609 C2610 1.349 . S
C2609 C2611 1.327 . S
C2609 H2632 0.950 . S
C2610 C2609 1.349 . S
C2610 C2622 1.349 . S
C2611 C2609 1.327 . S
C2611 C2627 1.429 . S
C2611 H2633 0.952 1_455 S
C2612 H2608 0.949 . S
C2612 C2620 1.574 . S
C2612 C2628 1.368 . S
H2613 C2621 0.950 . S
H2614 C2619 0.950 . S
H2615 C2620 0.949 . S
H2616 C2622 0.950 . S
H2617 C2623 0.950 . S
H2618 C2624 0.949 . S
C2619 H2614 0.950 . S
C2619 C2621 1.327 . S
C2619 C2625 1.429 . S
C2620 C2612 1.574 . S
C2620 H2615 0.949 . S
C2620 C2626 1.368 1_455 S
C2621 C2605 1.349 . S
C2621 H2613 0.950 . S
C2621 C2619 1.327 . S
C2622 C2610 1.349 . S
C2622 H2616 0.950 . S
C2622 C2623 1.327 . S
C2623 H2617 0.950 . S
C2623 C2622 1.327 . S
C2623 C2627 1.429 . S
C2624 C2607 1.574 . S
C2624 H2618 0.949 . S
C2624 C2628 1.368 1_655 S
C2625 C2606 1.429 . S
C2625 C2619 1.429 . S
C2625 C2626 1.523 . S
C2626 C2607 1.368 . S
C2626 C2620 1.368 1_655 S
C2626 C2625 1.523 . S
C2627 C2611 1.429 . S
C2627 C2623 1.429 . S
C2627 C2628 1.523 . S
C2628 C2612 1.368 . S
C2628 C2624 1.368 1_455 S
C2628 C2627 1.523 . S
H2629 C2604 0.950 . S
H2630 C2606 0.917 1_455 S
H2631 C2607 0.949 . S
H2632 C2609 0.950 . S
H2633 C2611 0.952 1_655 S
C2634 C2635 1.349 . S
C2634 C2636 1.327 . S
C2634 H2659 0.950 . S
C2635 C2634 1.349 . S
C2635 C2651 1.349 . S
C2636 C2634 1.327 . S
C2636 C2655 1.429 . S
C2636 H2660 0.950 . S
C2637 C2654 1.574 . S
C2637 C2656 1.368 . S
C2637 H2661 0.949 . S
H2638 C2642 0.949 . S
C2639 C2640 1.349 . S
C2639 C2641 1.327 . S
C2639 H2662 0.950 . S
C2640 C2639 1.349 . S
C2640 C2652 1.349 . S
C2641 C2639 1.327 . S
C2641 C2657 1.429 . S
C2641 H2663 0.950 . S
C2642 H2638 0.949 . S
C2642 C2650 1.574 . S
C2642 C2658 1.368 . S
H2643 C2651 0.950 . S
H2644 C2649 0.950 . S
H2645 C2650 0.949 . S
H2646 C2652 0.950 . S
H2647 C2653 0.950 . S
H2648 C2654 0.949 . S
C2649 H2644 0.950 . S
C2649 C2651 1.327 . S
C2649 C2655 1.429 . S
C2650 C2642 1.574 . S
C2650 H2645 0.949 . S
C2650 C2656 1.368 . S
C2651 C2635 1.349 . S
C2651 H2643 0.950 . S
C2651 C2649 1.327 . S
C2652 C2640 1.349 . S
C2652 H2646 0.950 . S
C2652 C2653 1.327 . S
C2653 H2647 0.950 . S
C2653 C2652 1.327 . S
C2653 C2657 1.429 . S
C2654 C2637 1.574 . S
C2654 H2648 0.949 . S
C2654 C2658 1.368 . S
C2655 C2636 1.429 . S
C2655 C2649 1.429 . S
C2655 C2656 1.523 . S
C2656 C2637 1.368 . S
C2656 C2650 1.368 . S
C2656 C2655 1.523 . S
C2657 C2641 1.429 . S
C2657 C2653 1.429 . S
C2657 C2658 1.523 . S
C2658 C2642 1.368 . S
C2658 C2654 1.368 . S
C2658 C2657 1.523 . S
H2659 C2634 0.950 . S
H2660 C2636 0.950 . S
H2661 C2637 0.949 . S
H2662 C2639 0.950 . S
H2663 C2641 0.950 . S
C505 C76 1.620 . S
C510 C6 1.615 . S
C535 C20 1.619 . S
C540 C48 1.617 . S
C565 C62 1.378 . S
C570 C34 1.378 . S
C595 C90 1.615 . S
C600 C160 1.620 . S
C625 C104 1.619 . S
C630 C132 1.617 . S
C655 C146 1.378 . S
C660 C118 1.378 . S
C685 C244 1.298 . S
C690 C174 1.328 . S
C715 C188 1.478 . S
C720 C216 1.477 . S
C745 C230 1.321 . S
C750 C202 1.335 . S
C775 C258 1.481 . S
C780 C328 1.481 . S
C805 C272 1.299 . S
C810 C300 1.332 . S
C835 C286 1.320 . S
C840 C314 1.338 . S
C865 C342 1.481 . S
C870 C412 1.481 . S
C895 C384 1.328 . S
C900 C356 1.302 . S
C925 C370 1.320 . S
C930 C398 1.338 . S
C955 C426 1.324 . S
C960 C496 1.299 . S
C985 C440 1.478 . S
C990 C468 1.477 . S
C1015 C454 1.341 . S
C1020 C482 1.314 . S
C1045 C147 2.132 . S
C1050 C9 2.083 . S
C1075 C161 2.079 . S
C1080 C23 2.015 . S
C1105 C133 2.077 . S
C1110 C37 2.041 . S
C1135 C119 2.138 . S
C1140 C51 2.089 . S
C1165 C65 2.052 . S
C1170 C91 2.086 . S
C1195 C79 1.938 . S
C1200 C105 2.009 . S
C1225 C93 2.083 . S
C1230 C63 2.132 . S
C1255 C107 2.015 . S
C1260 C77 2.079 . S
C1285 C121 2.041 . S
C1290 C49 2.077 . S
C1315 C35 2.138 . S
C1320 C135 2.089 . S
C1345 C7 2.086 . S
C1350 C149 2.052 . S
C1375 C163 1.938 . S
C1380 C21 2.009 . S
C1405 C177 1.671 . S
C1410 C315 1.783 . S
C1435 C191 2.124 . S
C1440 C329 2.171 . S
C1465 C301 1.752 . S
C1470 C205 1.663 . S
C1495 C219 1.952 . S
C1500 C287 2.001 . S
C1525 C233 2.190 . S
C1530 C259 2.187 . S
C1555 C247 2.002 . S
C1560 C273 1.999 . S
C1585 C261 1.953 . S
C1590 C231 2.006 . S
C1615 C245 2.095 . S
C1620 C275 2.100 . S
C1645 C217 2.195 . S
C1650 C289 2.200 . S
C1675 C303 1.309 . S
C1680 C203 1.393 . S
C1705 C175 1.354 . S
C1710 C317 1.279 . S
C1735 C189 2.168 . S
C1740 C331 2.119 . S
C1765 C483 2.006 . S
C1770 C345 1.953 . S
C1795 C359 2.100 . S
C1800 C497 2.095 . S
C1825 C373 2.200 . S
C1830 C469 2.195 . S
C1855 C455 1.395 . S
C1860 C387 1.307 . S
C1885 C427 1.353 . S
C1890 C401 1.279 . S
C1915 C441 2.168 . S
C1920 C415 2.119 . S
C1945 C429 1.671 . S
C1950 C399 1.783 . S
C1975 C413 2.171 . S
C1980 C443 2.124 . S
C2005 C457 1.661 . S
C2010 C385 1.754 . S
C2035 C371 2.001 . S
C2040 C471 1.952 . S
C2065 C343 2.187 . S
C2070 C485 2.190 . S
C2095 C357 1.999 . S
C2100 C499 2.002 . S
C2125 C232 1.604 . S
C2130 C8 1.609 . S
C2155 C22 1.583 . S
C2160 C246 1.538 . S
C2185 C218 1.922 . S
C2190 C36 1.935 . S
C2215 C372 1.627 . S
C2220 C50 1.634 . S
C2245 C64 1.925 . S
C2250 C344 1.913 . S
C2275 C78 1.612 . S
C2280 C358 1.577 . S
C2305 C92 1.609 . S
C2310 C484 1.604 . S
C2335 C498 1.538 . S
C2340 C106 1.583 . S
C2365 C470 1.922 . S
C2370 C120 1.935 . S
C2395 C288 1.627 . S
C2400 C134 1.634 . S
C2425 C148 1.925 . S
C2430 C260 1.913 . S
C2455 C162 1.612 . S
C2460 C274 1.577 . S
C2485 C176 0.655 . S
C2490 C400 0.685 . S
C2515 C414 2.033 . S
C2520 C190 2.033 . S
C2545 C386 0.677 . S
C2550 C204 0.710 . S
C2575 C302 0.677 . S
C2580 C456 0.710 . S
C2605 C428 0.655 . S
C2610 C316 0.685 . S
C2635 C442 2.033 . S
C2640 C330 2.033 . S
