# Generated by pormake.
# Topology swf, (7)-cn, num edge types: 1
# Building blocks:
#     Node 0, Type 0, BuildingBlock: HICVOG_clean_sbu_0, # of connection points: 7
#     Node 1, Type 0, BuildingBlock: HICVOG_clean_sbu_0, # of connection points: 7
#     Node 2, Type 0, BuildingBlock: HICVOG_clean_sbu_0, # of connection points: 7
#     Node 3, Type 0, BuildingBlock: HICVOG_clean_sbu_0, # of connection points: 7
#     Node 4, Type 0, BuildingBlock: HICVOG_clean_sbu_0, # of connection points: 7
#     Node 5, Type 0, BuildingBlock: HICVOG_clean_sbu_0, # of connection points: 7
#     Node 6, Type 0, BuildingBlock: HICVOG_clean_sbu_0, # of connection points: 7
#     Node 7, Type 0, BuildingBlock: HICVOG_clean_sbu_0, # of connection points: 7
#     Node 8, Type 0, BuildingBlock: HICVOG_clean_sbu_0, # of connection points: 7
#     Node 9, Type 0, BuildingBlock: HICVOG_clean_sbu_0, # of connection points: 7
#     Node 10, Type 0, BuildingBlock: HICVOG_clean_sbu_0, # of connection points: 7
#     Node 11, Type 0, BuildingBlock: HICVOG_clean_sbu_0, # of connection points: 7
#     Edge 12, Type (0, 0), BuildingBlock: ZUJKAS_clean_linker_0, # of connection points: 2
#     Edge 13, Type (0, 0), BuildingBlock: ZUJKAS_clean_linker_0, # of connection points: 2
#     Edge 14, Type (0, 0), BuildingBlock: ZUJKAS_clean_linker_0, # of connection points: 2
#     Edge 15, Type (0, 0), BuildingBlock: ZUJKAS_clean_linker_0, # of connection points: 2
#     Edge 16, Type (0, 0), BuildingBlock: ZUJKAS_clean_linker_0, # of connection points: 2
#     Edge 17, Type (0, 0), BuildingBlock: ZUJKAS_clean_linker_0, # of connection points: 2
#     Edge 18, Type (0, 0), BuildingBlock: ZUJKAS_clean_linker_0, # of connection points: 2
#     Edge 19, Type (0, 0), BuildingBlock: ZUJKAS_clean_linker_0, # of connection points: 2
#     Edge 20, Type (0, 0), BuildingBlock: ZUJKAS_clean_linker_0, # of connection points: 2
#     Edge 21, Type (0, 0), BuildingBlock: ZUJKAS_clean_linker_0, # of connection points: 2
#     Edge 22, Type (0, 0), BuildingBlock: ZUJKAS_clean_linker_0, # of connection points: 2
#     Edge 23, Type (0, 0), BuildingBlock: ZUJKAS_clean_linker_0, # of connection points: 2
#     Edge 24, Type (0, 0), BuildingBlock: ZUJKAS_clean_linker_0, # of connection points: 2
#     Edge 25, Type (0, 0), BuildingBlock: ZUJKAS_clean_linker_0, # of connection points: 2
#     Edge 26, Type (0, 0), BuildingBlock: ZUJKAS_clean_linker_0, # of connection points: 2
#     Edge 27, Type (0, 0), BuildingBlock: ZUJKAS_clean_linker_0, # of connection points: 2
#     Edge 28, Type (0, 0), BuildingBlock: ZUJKAS_clean_linker_0, # of connection points: 2
#     Edge 29, Type (0, 0), BuildingBlock: ZUJKAS_clean_linker_0, # of connection points: 2
#     Edge 30, Type (0, 0), BuildingBlock: ZUJKAS_clean_linker_0, # of connection points: 2
#     Edge 31, Type (0, 0), BuildingBlock: ZUJKAS_clean_linker_0, # of connection points: 2
#     Edge 32, Type (0, 0), BuildingBlock: ZUJKAS_clean_linker_0, # of connection points: 2
#     Edge 33, Type (0, 0), BuildingBlock: ZUJKAS_clean_linker_0, # of connection points: 2
#     Edge 34, Type (0, 0), BuildingBlock: ZUJKAS_clean_linker_0, # of connection points: 2
#     Edge 35, Type (0, 0), BuildingBlock: ZUJKAS_clean_linker_0, # of connection points: 2
#     Edge 36, Type (0, 0), BuildingBlock: ZUJKAS_clean_linker_0, # of connection points: 2
#     Edge 37, Type (0, 0), BuildingBlock: ZUJKAS_clean_linker_0, # of connection points: 2
#     Edge 38, Type (0, 0), BuildingBlock: ZUJKAS_clean_linker_0, # of connection points: 2
#     Edge 39, Type (0, 0), BuildingBlock: ZUJKAS_clean_linker_0, # of connection points: 2
#     Edge 40, Type (0, 0), BuildingBlock: ZUJKAS_clean_linker_0, # of connection points: 2
#     Edge 41, Type (0, 0), BuildingBlock: ZUJKAS_clean_linker_0, # of connection points: 2
#     Edge 42, Type (0, 0), BuildingBlock: ZUJKAS_clean_linker_0, # of connection points: 2
#     Edge 43, Type (0, 0), BuildingBlock: ZUJKAS_clean_linker_0, # of connection points: 2
#     Edge 44, Type (0, 0), BuildingBlock: ZUJKAS_clean_linker_0, # of connection points: 2
#     Edge 45, Type (0, 0), BuildingBlock: ZUJKAS_clean_linker_0, # of connection points: 2
#     Edge 46, Type (0, 0), BuildingBlock: ZUJKAS_clean_linker_0, # of connection points: 2
#     Edge 47, Type (0, 0), BuildingBlock: ZUJKAS_clean_linker_0, # of connection points: 2
#     Edge 48, Type (0, 0), BuildingBlock: ZUJKAS_clean_linker_0, # of connection points: 2
#     Edge 49, Type (0, 0), BuildingBlock: ZUJKAS_clean_linker_0, # of connection points: 2
#     Edge 50, Type (0, 0), BuildingBlock: ZUJKAS_clean_linker_0, # of connection points: 2
#     Edge 51, Type (0, 0), BuildingBlock: ZUJKAS_clean_linker_0, # of connection points: 2
#     Edge 52, Type (0, 0), BuildingBlock: ZUJKAS_clean_linker_0, # of connection points: 2
#     Edge 53, Type (0, 0), BuildingBlock: ZUJKAS_clean_linker_0, # of connection points: 2
# Relax obj value: 0.313
# Max RMSD: 0.192
# Mean RMSD: 0.192
data_MOF--net-swf--node1-HICVOG_clean_sbu_0--edge1-ZUJKAS_clean_linker_0
_symmetry_space_group_name_H-M    P1
_symmetry_Int_Tables_number       1
_symmetry_cell_setting            triclinic
loop_
_symmetry_equiv_pos_as_xyz
'x, y, z'
_cell_length_a     59.99216
_cell_length_b     59.959573
_cell_length_c     31.966894
_cell_angle_alpha  90.10773
_cell_angle_beta   90.067756
_cell_angle_gamma 120.0613
loop_
_atom_site_label
_atom_site_type_symbol
_atom_site_fract_x
_atom_site_fract_y
_atom_site_fract_z
_atom_type_partial_charge
Zn0 Zn 0.46255 0.14315 0.98099 0.0
C1 C 0.47317 0.19736 0.06612 0.0
N2 N 0.47658 0.21236 0.03225 0.0
C3 C 0.47416 0.19687 0.99951 0.0
N4 N 0.47009 0.17361 1.01328 0.0
N5 N 0.46935 0.17386 0.05476 0.0
C6 C 0.42176 0.09991 0.1163 0.0
O7 O 0.42665 0.09083 0.08226 0.0
O8 O 0.47976 0.15416 0.92491 0.0
Zn9 Zn 0.46884 0.14748 0.09317 0.0
N10 N 0.42551 0.12257 0.97829 0.0
C11 C 0.38438 0.11707 0.9948 0.0
C12 C 0.41106 0.13252 0.99315 0.0
C13 C 0.41436 0.0977 0.96531 0.0
N14 N 0.37319 0.0923 0.98142 0.0
C15 C 0.38739 0.08207 0.96648 0.0
O16 O 0.48069 0.12293 0.07084 0.0
C17 C 0.48253 0.11349 0.03617 0.0
O18 O 0.4765 0.12004 1.00201 0.0
H19 H 0.42011 0.15219 1.00418 0.0
H20 H 0.42657 0.09024 0.95516 0.0
C21 C 0.48545 0.1615 0.17706 0.0
C22 C 0.50183 0.17717 0.20914 0.0
C23 C 0.53281 0.20285 0.15781 0.0
C24 C 0.51643 0.18714 0.12625 0.0
N25 N 0.49303 0.167 0.13657 0.0
N26 N 0.52516 0.19753 0.19829 0.0
H27 H 0.46643 0.14573 0.18365 0.0
C28 C 0.50382 0.16973 0.92872 0.0
O29 O 0.51338 0.17757 0.9664 0.0
O30 O 0.4349 0.12403 0.12368 0.0
H31 H 0.52192 0.19132 0.09374 0.0
H32 H 0.37264 0.12468 1.00666 0.0
H33 H 0.55141 0.21921 0.15027 0.0
Zn34 Zn 0.33021 0.46471 0.98509 0.0
C35 C 0.28416 0.46979 0.0741 0.0
N36 N 0.27127 0.471 0.04006 0.0
C37 C 0.28523 0.47055 1.00724 0.0
N38 N 0.30625 0.46948 1.02086 0.0
N39 N 0.30581 0.46915 0.06261 0.0
C40 C 0.3337 0.42547 0.12883 0.0
O41 O 0.34159 0.42524 0.0906 0.0
O42 O 0.3365 0.48528 0.93256 0.0
Zn43 Zn 0.33489 0.47222 0.09873 0.0
N44 N 0.3142 0.42823 0.97601 0.0
C45 C 0.28822 0.38585 1.00256 0.0
C46 C 0.30095 0.41244 1.00832 0.0
C47 C 0.31553 0.41864 0.93826 0.0
N48 N 0.28943 0.37617 0.96478 0.0
C49 C 0.30285 0.39182 0.9323 0.0
O50 O 0.36806 0.47824 0.07048 0.0
C51 C 0.37956 0.48043 0.03621 0.0
O52 O 0.36752 0.47681 1.00197 0.0
H53 H 0.30011 0.42048 0.03818 0.0
H54 H 0.3258 0.43192 0.91317 0.0
C55 C 0.37356 0.51252 0.1432 0.0
C56 C 0.38813 0.53729 0.1598 0.0
C57 C 0.35145 0.54235 0.15657 0.0
C58 C 0.33762 0.51842 0.13682 0.0
N59 N 0.34882 0.50372 0.1312 0.0
N60 N 0.37651 0.55146 0.16694 0.0
H61 H 0.38226 0.50073 0.13811 0.0
C62 C 0.34536 0.50912 0.93979 0.0
O63 O 0.34665 0.51674 0.97875 0.0
O64 O 0.32731 0.44216 0.13837 0.0
H65 H 0.31864 0.51233 0.125 0.0
H66 H 0.27747 0.37299 1.02787 0.0
H67 H 0.34273 0.55413 0.16174 0.0
Zn68 Zn 0.88417 0.32382 0.98062 0.0
C69 C 0.82843 0.28248 0.06441 0.0
N70 N 0.8138 0.27026 1.03031 0.0
C71 C 0.82937 0.28317 0.99766 0.0
N72 N 0.85238 0.30275 1.01162 0.0
N73 N 0.85167 0.30258 0.05311 0.0
C74 C 0.92988 0.33129 0.10036 0.0
O75 O 0.93646 0.34642 0.06759 0.0
O76 O 0.87451 0.32913 0.92265 0.0
Zn77 Zn 0.88008 0.32842 0.08882 0.0
N78 N 0.9027 0.30509 0.98356 0.0
C79 C 0.9095 0.27442 1.02024 0.0
C80 C 0.89654 0.28805 1.01559 0.0
C81 C 0.92144 0.30901 0.95585 0.0
N82 N 0.92819 0.2783 0.99264 0.0
C83 C 0.93456 0.29514 0.96033 0.0
O84 O 0.90145 0.36514 0.0659 0.0
C85 C 0.91236 0.37556 1.03156 0.0
O86 O 0.90809 0.36171 0.99898 0.0
H87 H 0.88189 0.28514 0.03786 0.0
H88 H 0.92631 0.32316 0.93143 0.0
C89 C 0.88439 0.3451 0.1698 0.0
C90 C 0.87875 0.35391 0.20662 0.0
C91 C 0.83613 0.33844 0.18129 0.0
C92 C 0.8426 0.33149 0.14352 0.0
N93 N 0.86648 0.33455 0.13903 0.0
N94 N 0.85441 0.34987 0.21153 0.0
H95 H 0.90316 0.34744 0.1644 0.0
C96 C 0.85998 0.33888 0.92537 0.0
O97 O 0.85287 0.34214 0.96268 0.0
O98 O 0.90612 0.31824 0.1102 0.0
H99 H 0.82885 0.32389 0.11811 0.0
H100 H 0.90485 0.26095 0.04571 0.0
H101 H 0.81708 0.33575 0.18595 0.0
Zn102 Zn 0.54755 0.86947 0.08823 0.0
C103 C 0.55514 0.82172 1.00587 0.0
N104 N 0.55787 0.80993 0.04 0.0
C105 C 0.55762 0.82449 0.07258 0.0
N106 N 0.55495 0.84454 0.05871 0.0
N107 N 0.55293 0.84231 1.01734 0.0
C108 C 0.50912 0.82896 0.93304 0.0
O109 O 0.50137 0.81988 0.9709 0.0
O110 O 0.56596 0.88472 0.14461 0.0
Zn111 Zn 0.55068 0.8667 0.98044 0.0
N112 N 0.51038 0.85107 0.09386 0.0
C113 C 0.47083 0.81172 0.08573 0.0
C114 C 0.49751 0.82507 0.08823 0.0
C115 C 0.49749 0.86429 0.09732 0.0
N116 N 0.45803 0.8249 0.08854 0.0
C117 C 0.47041 0.85094 0.09412 0.0
O118 O 0.53308 0.8869 1.00052 0.0
C119 C 0.54224 0.90438 1.02847 0.0
O120 O 0.55592 0.90311 0.05771 0.0
H121 H 0.50779 0.81472 0.08472 0.0
H122 H 0.50846 0.88488 0.102 0.0
C123 C 0.59482 0.89789 0.92884 0.0
C124 C 0.62146 0.91327 0.92235 0.0
C125 C 0.62845 0.91434 0.9956 0.0
C126 C 0.6021 0.8989 1.00178 0.0
N127 N 0.58588 0.89103 0.96842 0.0
N128 N 0.63752 0.92107 0.95611 0.0
H129 H 0.58139 0.89047 0.90295 0.0
C130 C 0.58856 0.90433 0.14208 0.0
O131 O 0.59988 0.91012 0.10543 0.0
O132 O 0.53125 0.84875 0.92845 0.0
H133 H 0.59456 0.89251 0.03274 0.0
H134 H 0.46035 0.79106 0.08106 0.0
H135 H 0.64164 0.92064 1.02185 0.0
Zn136 Zn 0.69465 0.55247 0.98576 0.0
C137 C 0.7416 0.55288 0.07642 0.0
N138 N 0.75597 0.55267 0.04363 0.0
C139 C 0.74221 0.55208 1.00958 0.0
N140 N 0.7203 0.55171 1.02141 0.0
N141 N 0.71986 0.55249 0.0629 0.0
C142 C 0.70053 0.5868 0.15356 0.0
O143 O 0.70887 0.60063 0.11933 0.0
O144 O 0.69085 0.53266 0.93323 0.0
Zn145 Zn 0.68824 0.54674 0.09284 0.0
N146 N 0.70727 0.58828 0.9757 0.0
C147 C 0.72854 0.63082 1.00344 0.0
C148 C 0.71713 0.60434 1.00915 0.0
C149 C 0.70812 0.59747 0.93667 0.0
N150 N 0.72965 0.64013 0.9644 0.0
C151 C 0.7197 0.62419 0.93068 0.0
O152 O 0.66487 0.55857 0.0647 0.0
C153 C 0.64942 0.5454 0.0354 0.0
O154 O 0.65732 0.53654 1.00642 0.0
H155 H 0.71656 0.59658 0.03982 0.0
H156 H 0.70071 0.5841 0.91069 0.0
C157 C 0.64051 0.50009 0.10057 0.0
C158 C 0.62321 0.47424 0.09078 0.0
C159 C 0.65823 0.4686 0.07158 0.0
C160 C 0.67534 0.49444 0.08049 0.0
N161 N 0.66612 0.50978 0.09415 0.0
N162 N 0.63259 0.45916 0.07649 0.0
H163 H 0.6336 0.51275 0.11094 0.0
C164 C 0.68427 0.50924 0.9396 0.0
O165 O 0.68372 0.50156 0.97825 0.0
O166 O 0.69298 0.56281 0.15137 0.0
H167 H 0.69566 0.50236 0.07481 0.0
H168 H 0.73664 0.64389 1.0297 0.0
H169 H 0.66522 0.45625 0.06001 0.0
Zn170 Zn 0.14956 0.68653 0.08881 0.0
C171 C 0.20248 0.73866 1.00758 0.0
N172 N 0.21548 0.75203 0.04205 0.0
C173 C 0.20011 0.73784 0.07429 0.0
N174 N 0.17845 0.71659 0.05999 0.0
N175 N 0.1803 0.71715 1.01861 0.0
C176 C 0.18954 0.68246 0.94035 0.0
O177 O 0.1955 0.6823 0.97986 0.0
O178 O 0.13734 0.69296 0.1451 0.0
Zn179 Zn 0.1544 0.69189 0.98163 0.0
N180 N 0.16024 0.66183 0.0985 0.0
C181 C 0.18633 0.64281 0.08869 0.0
C182 C 0.18238 0.66374 0.08398 0.0
C183 C 0.14193 0.64012 0.11723 0.0
N184 N 0.16783 0.6209 0.10721 0.0
C185 C 0.14542 0.61882 0.12128 0.0
O186 O 0.13162 0.65486 1.00256 0.0
C187 C 0.11376 0.64774 1.02952 0.0
O188 O 0.11531 0.66386 0.05706 0.0
H189 H 0.19656 0.68108 0.06842 0.0
H190 H 0.12482 0.6398 0.12867 0.0
C191 C 0.12583 0.70702 0.92814 0.0
C192 C 0.11202 0.71974 0.91981 0.0
C193 C 0.1111 0.72735 0.99255 0.0
C194 C 0.12506 0.71501 1.00054 0.0
N195 N 0.13222 0.70525 0.96822 0.0
N196 N 0.10503 0.72954 0.95248 0.0
H197 H 0.1326 0.69971 0.90321 0.0
C198 C 0.12142 0.70109 0.14787 0.0
O199 O 0.1162 0.71025 0.11431 0.0
O200 O 0.17209 0.68781 0.93138 0.0
H201 H 0.13073 0.71374 1.03214 0.0
H202 H 0.20383 0.64388 0.07743 0.0
H203 H 0.10539 0.73539 1.01789 0.0
Zn204 Zn 0.87559 0.55349 0.4836 0.0
C205 C 0.82517 0.54902 0.57451 0.0
N206 N 0.81035 0.54807 0.54178 0.0
C207 C 0.82481 0.55011 0.50775 0.0
N208 N 0.84771 0.55228 0.51923 0.0
N209 N 0.84792 0.55176 0.56081 0.0
C210 C 0.85981 0.51795 0.6362 0.0
O211 O 0.85775 0.51258 0.59601 0.0
O212 O 0.89975 0.58728 0.45314 0.0
Zn213 Zn 0.87887 0.56247 0.59498 0.0
N214 N 0.86132 0.52854 0.43961 0.0
C215 C 0.83096 0.49116 0.40269 0.0
C216 C 0.83659 0.5093 0.43436 0.0
C217 C 0.88061 0.53006 0.4156 0.0
N218 N 0.85054 0.49204 0.37994 0.0
C219 C 0.8755 0.51085 0.38614 0.0
O220 O 0.90732 0.55467 0.57591 0.0
C221 C 0.91216 0.54542 0.54358 0.0
O222 O 0.89994 0.5428 0.50978 0.0
H223 H 0.82157 0.50766 0.45492 0.0
H224 H 0.89997 0.54561 0.42135 0.0
C225 C 0.91829 0.61341 0.6182 0.0
C226 C 0.9302 0.64055 0.61919 0.0
C227 C 0.89205 0.63738 0.59095 0.0
C228 C 0.88063 0.61073 0.58958 0.0
N229 N 0.89389 0.59922 0.60329 0.0
N230 N 0.91644 0.65157 0.60556 0.0
H231 H 0.92791 0.60332 0.62872 0.0
C232 C 0.9231 0.60216 0.46406 0.0
O233 O 0.9305 0.59979 0.50166 0.0
O234 O 0.86791 0.54118 0.64741 0.0
H235 H 0.86154 0.5995 0.57672 0.0
H236 H 0.81138 0.47582 0.39751 0.0
H237 H 0.88174 0.64678 0.58008 0.0
Zn238 Zn 0.33383 0.87039 0.47862 0.0
C239 C 0.287 0.82244 0.57229 0.0
N240 N 0.27279 0.80795 0.53947 0.0
C241 C 0.28525 0.82245 0.5056 0.0
N242 N 0.30668 0.84484 0.51704 0.0
N243 N 0.30778 0.84478 0.55862 0.0
C244 C 0.34424 0.83903 0.63793 0.0
O245 O 0.34188 0.82982 0.59983 0.0
O246 O 0.32501 0.89559 0.44915 0.0
Zn247 Zn 0.33416 0.87305 0.59228 0.0
N248 N 0.33661 0.8505 0.43375 0.0
C249 C 0.33232 0.8117 0.40644 0.0
C250 C 0.33332 0.82668 0.44052 0.0
C251 C 0.34003 0.86044 0.39464 0.0
N252 N 0.33515 0.8214 0.36721 0.0
C253 C 0.33901 0.8455 0.36002 0.0
O254 O 0.37051 0.8958 0.569 0.0
C255 C 0.38281 0.90233 0.53464 0.0
O256 O 0.37101 0.89324 0.50016 0.0
H257 H 0.33066 0.81913 0.47195 0.0
H258 H 0.34357 0.87982 0.39116 0.0
C259 C 0.3191 0.90206 0.64451 0.0
C260 C 0.30687 0.91631 0.65273 0.0
C261 C 0.30072 0.91854 0.57984 0.0
C262 C 0.312 0.90351 0.572 0.0
N263 N 0.32086 0.89555 0.60451 0.0
N264 N 0.29831 0.9245 0.61996 0.0
H265 H 0.32672 0.89566 0.66951 0.0
C266 C 0.33863 0.91996 0.45381 0.0
O267 O 0.35552 0.92916 0.48442 0.0
O268 O 0.34092 0.85813 0.64395 0.0
H269 H 0.31346 0.89795 0.54038 0.0
H270 H 0.32924 0.79249 0.41105 0.0
H271 H 0.29364 0.92513 0.55434 0.0
Zn272 Zn 0.46615 0.32484 0.58278 0.0
C273 C 0.47741 0.28147 0.49903 0.0
N274 N 0.47876 0.26885 0.5333 0.0
C275 C 0.47813 0.28318 0.56562 0.0
N276 N 0.47647 0.3037 0.55143 0.0
N277 N 0.47612 0.30275 0.50997 0.0
C278 C 0.42966 0.33084 0.45192 0.0
O279 O 0.43484 0.34437 0.48657 0.0
O280 O 0.48339 0.33185 0.63895 0.0
Zn281 Zn 0.47687 0.3296 0.47259 0.0
N282 N 0.42896 0.30498 0.58495 0.0
C283 C 0.38993 0.26925 0.56001 0.0
C284 C 0.41668 0.28353 0.56049 0.0
C285 C 0.41544 0.31284 0.60877 0.0
N286 N 0.3764 0.27707 0.58374 0.0
C287 C 0.38833 0.2986 0.60805 0.0
O288 O 0.48963 0.36615 0.49576 0.0
C289 C 0.48717 0.37587 0.52974 0.0
O290 O 0.47765 0.36178 0.56202 0.0
H291 H 0.42743 0.27747 0.54121 0.0
H292 H 0.42587 0.3298 0.62817 0.0
C293 C 0.49362 0.33655 0.38891 0.0
C294 C 0.50796 0.33584 0.3548 0.0
C295 C 0.53563 0.33064 0.40225 0.0
C296 C 0.52113 0.33115 0.43582 0.0
N297 N 0.5002 0.33364 0.42831 0.0
N298 N 0.5287 0.33293 0.36274 0.0
H299 H 0.47728 0.33924 0.3848 0.0
C300 C 0.50755 0.3458 0.63325 0.0
O301 O 0.51619 0.35141 0.59471 0.0
O302 O 0.4428 0.32011 0.44315 0.0
H303 H 0.52595 0.32874 0.46747 0.0
H304 H 0.37995 0.25213 0.5408 0.0
H305 H 0.55212 0.32824 0.40745 0.0
Zn306 Zn 0.14716 0.46791 0.48909 0.0
C307 C 0.20099 0.4711 0.57162 0.0
N308 N 0.21431 0.47129 0.53733 0.0
C309 C 0.1989 0.46981 0.50484 0.0
N310 N 0.1769 0.46868 0.51885 0.0
N311 N 0.17862 0.46994 0.56026 0.0
C312 C 0.18536 0.50929 0.64433 0.0
O313 O 0.19181 0.51778 0.60586 0.0
O314 O 0.13408 0.44559 0.43563 0.0
Zn315 Zn 0.15166 0.46729 0.59636 0.0
N316 N 0.15737 0.50255 0.47439 0.0
C317 C 0.18191 0.54797 0.48226 0.0
C318 C 0.17878 0.5236 0.48929 0.0
C319 C 0.13894 0.50463 0.45328 0.0
N320 N 0.16326 0.55008 0.46146 0.0
C321 C 0.14151 0.52893 0.4471 0.0
O322 O 0.13024 0.48335 0.57663 0.0
C323 C 0.11275 0.47373 0.54878 0.0
O324 O 0.11365 0.45879 0.52129 0.0
H325 H 0.19287 0.52144 0.50725 0.0
H326 H 0.12236 0.48718 0.4421 0.0
C327 C 0.12099 0.4201 0.64172 0.0
C328 C 0.10724 0.39311 0.64523 0.0
C329 C 0.11036 0.38947 0.57183 0.0
C330 C 0.12424 0.41618 0.56862 0.0
N331 N 0.12924 0.43091 0.60352 0.0
N332 N 0.10231 0.37856 0.60999 0.0
H333 H 0.12619 0.43246 0.66896 0.0
C334 C 0.11268 0.42443 0.43724 0.0
O335 O 0.10202 0.41587 0.47392 0.0
O336 O 0.16767 0.48608 0.6499 0.0
H337 H 0.13162 0.42515 0.53872 0.0
H338 H 0.19882 0.56506 0.49376 0.0
H339 H 0.10633 0.37748 0.54434 0.0
Zn340 Zn 0.70125 0.14816 0.585 0.0
C341 C 0.74464 0.1982 0.49539 0.0
N342 N 0.75977 0.21109 0.52874 0.0
C343 C 0.74495 0.19861 0.56222 0.0
N344 N 0.72197 0.17839 0.54974 0.0
N345 N 0.72137 0.17842 0.50817 0.0
C346 C 0.6911 0.11819 0.43307 0.0
O347 O 0.69456 0.11412 0.47231 0.0
O348 O 0.69196 0.16014 0.63728 0.0
Zn349 Zn 0.68886 0.15857 0.47579 0.0
N350 N 0.72266 0.13281 0.59388 0.0
C351 C 0.75995 0.13046 0.57577 0.0
C352 C 0.74524 0.14237 0.57252 0.0
C353 C 0.71392 0.11131 0.61766 0.0
N354 N 0.75111 0.10887 0.5991 0.0
C355 C 0.72831 0.09862 0.61991 0.0
O356 O 0.65807 0.1286 0.50379 0.0
C357 C 0.65016 0.11426 0.53581 0.0
O358 O 0.6651 0.11897 0.56696 0.0
H359 H 0.75174 0.15874 0.5522 0.0
H360 H 0.69588 0.10427 0.63401 0.0
C361 C 0.65062 0.17283 0.46314 0.0
C362 C 0.64079 0.18974 0.46283 0.0
C363 C 0.68344 0.22526 0.46473 0.0
C364 C 0.69302 0.20843 0.46652 0.0
N365 N 0.67652 0.18251 0.46498 0.0
N366 N 0.65765 0.21558 0.46309 0.0
H367 H 0.63793 0.15218 0.46253 0.0
C368 C 0.67674 0.16834 0.62758 0.0
O369 O 0.67192 0.1696 0.58779 0.0
O370 O 0.69077 0.13878 0.42426 0.0
H371 H 0.71341 0.21617 0.47031 0.0
H372 H 0.77798 0.13798 0.55914 0.0
H373 H 0.69637 0.24589 0.46562 0.0
Zn374 Zn 0.5557 0.69114 0.47653 0.0
C375 C 0.55277 0.73635 0.57053 0.0
N376 N 0.55246 0.75099 0.53852 0.0
C377 C 0.55418 0.73874 0.50393 0.0
N378 N 0.55538 0.71737 0.51436 0.0
N379 N 0.55457 0.71596 0.55579 0.0
C380 C 0.52433 0.67348 0.63694 0.0
O381 O 0.51554 0.66817 0.59837 0.0
O382 O 0.59073 0.70002 0.45153 0.0
Zn383 Zn 0.5652 0.69473 0.58602 0.0
N384 N 0.53465 0.68845 0.4293 0.0
C385 C 0.50033 0.6916 0.3986 0.0
C386 C 0.51326 0.6905 0.43401 0.0
C387 C 0.54319 0.68654 0.39092 0.0
N388 N 0.50911 0.69012 0.36015 0.0
C389 C 0.53032 0.68762 0.35489 0.0
O390 O 0.55315 0.65777 0.56432 0.0
C391 C 0.54337 0.64391 0.53172 0.0
O392 O 0.54118 0.65402 0.49804 0.0
H393 H 0.50686 0.69209 0.46491 0.0
H394 H 0.55986 0.68428 0.38929 0.0
C395 C 0.61644 0.70582 0.60738 0.0
C396 C 0.64353 0.71994 0.60517 0.0
C397 C 0.64105 0.75077 0.56206 0.0
C398 C 0.61432 0.7367 0.5642 0.0
N399 N 0.60248 0.71452 0.58685 0.0
N400 N 0.65499 0.74213 0.5826 0.0
H401 H 0.60638 0.6883 0.62546 0.0
C402 C 0.60349 0.68963 0.46454 0.0
O403 O 0.59778 0.67824 0.50116 0.0
O404 O 0.54851 0.6875 0.64263 0.0
H405 H 0.60328 0.74351 0.54752 0.0
H406 H 0.48351 0.69368 0.40155 0.0
H407 H 0.65066 0.76841 0.54419 0.0
H408 H 0.38893 0.04794 0.10966 0.0
H409 H 0.36846 0.01698 0.16638 0.0
H410 H 0.39932 0.07922 0.25606 0.0
H411 H 0.4192 0.11033 0.1994 0.0
H412 H 0.39288 1.00793 0.22746 0.0
H413 H 0.32745 0.03685 0.3001 0.0
H414 H 0.34195 0.04854 0.24953 0.0
H415 H 0.35996 0.06306 0.29664 0.0
C416 C 0.39084 0.05513 0.14135 0.0
C417 C 0.4057 0.0817 0.14982 0.0
C418 C 0.37919 0.03734 0.17385 0.0
C419 C 0.38208 0.04562 0.21569 0.0
C420 C 0.39619 0.07223 0.22412 0.0
H421 H 0.36292 0.97259 0.45635 0.0
H422 H 0.37089 1.00205 0.39809 0.0
C423 C 0.40768 0.09008 0.19156 0.0
C424 C 0.37233 0.02634 0.25042 0.0
H425 H 0.33636 1.00844 0.34011 0.0
C426 C 0.38026 1.00789 0.25175 0.0
C427 C 0.35593 0.02623 0.28244 0.0
C428 C 0.34561 0.04457 0.28197 0.0
C429 C 0.37282 0.98989 0.28445 0.0
C430 C 0.35673 0.99001 0.31668 0.0
C431 C 0.34863 1.00829 0.31535 0.0
C432 C 0.34917 0.97198 0.35285 0.0
C433 C 0.38286 0.9713 0.28492 0.0
C434 C 0.3335 0.94522 0.34725 0.0
C435 C 0.32865 0.92826 0.3807 0.0
C436 C 0.33959 0.93772 0.42038 0.0
C437 C 0.35423 0.96459 0.42627 0.0
C438 C 0.35885 0.98151 0.39294 0.0
H439 H 0.39868 0.97667 0.26208 0.0
H440 H 0.38994 0.97033 0.3166 0.0
H441 H 0.36694 0.95179 0.27676 0.0
H442 H 0.32556 0.93741 0.3167 0.0
H443 H 0.31728 0.90772 0.37498 0.0
H444 H 0.34665 0.38809 0.11842 0.0
H445 H 0.35734 0.36621 0.1725 0.0
H446 H 0.33954 0.40574 0.26796 0.0
H447 H 0.32838 0.42743 0.214 0.0
H448 H 0.39596 0.38946 0.22918 0.0
H449 H 0.30353 0.33293 0.31311 0.0
H450 H 0.30557 0.34697 0.26234 0.0
H451 H 0.31347 0.36648 0.30883 0.0
C452 C 0.3445 0.39179 0.15092 0.0
C453 C 0.3366 0.40955 0.16176 0.0
C454 C 0.35071 0.37928 0.18186 0.0
C455 C 0.34907 0.38409 0.22443 0.0
C456 C 0.34046 0.40124 0.23542 0.0
H457 H 0.40159 0.35523 0.45848 0.0
H458 H 0.38079 0.36561 0.40216 0.0
C459 C 0.33416 0.41373 0.20445 0.0
C460 C 0.35833 0.37278 0.25701 0.0
H461 H 0.34106 0.33749 0.34724 0.0
C462 C 0.38385 0.37785 0.25474 0.0
C463 C 0.3426 0.35766 0.29047 0.0
C464 C 0.31469 0.35045 0.29372 0.0
C465 C 0.39431 0.369 0.28555 0.0
C466 C 0.37868 0.35418 0.31938 0.0
C467 C 0.35304 0.34879 0.32136 0.0
C468 C 0.38905 0.34535 0.35409 0.0
C469 C 0.42231 0.37645 0.28233 0.0
C470 C 0.39978 0.3296 0.34633 0.0
C471 C 0.41177 0.32361 0.37859 0.0
C472 C 0.41313 0.33313 0.41939 0.0
C473 C 0.40101 0.34761 0.42749 0.0
C474 C 0.38909 0.35361 0.39524 0.0
H475 H 0.4331 0.39288 0.26064 0.0
H476 H 0.43185 0.38177 0.31344 0.0
H477 H 0.42366 0.35982 0.27015 0.0
H478 H 0.39946 0.32244 0.31508 0.0
H479 H 0.42081 0.31234 0.37117 0.0
H480 H 0.06682 0.3795 0.4323 0.0
H481 H 0.03846 0.36145 0.37183 0.0
H482 H 0.09483 0.42226 0.29433 0.0
H483 H 0.12356 0.44072 0.35515 0.0
H484 H 0.0204 0.39095 0.32448 0.0
H485 H 0.07106 0.35381 0.22558 0.0
H486 H 0.0769 0.35923 0.28116 0.0
H487 H 0.08987 0.38606 0.24595 0.0
C488 C 0.0735 0.38891 0.40234 0.0
C489 C 0.09754 0.41167 0.39875 0.0
C490 C 0.05716 0.37853 0.36774 0.0
C491 C 0.06449 0.39041 0.3285 0.0
C492 C 0.08888 0.41257 0.32423 0.0
H493 H 0.98216 0.36102 0.09201 0.0
H494 H 0.01473 0.37408 0.1469 0.0
C495 C 0.10529 0.42311 0.35904 0.0
C496 C 0.04565 0.38055 0.29325 0.0
H497 H 0.03301 0.35058 0.19792 0.0
C498 C 0.02312 0.38206 0.29684 0.0
C499 C 0.04931 0.36917 0.25707 0.0
C500 C 0.07299 0.36673 0.252 0.0
C501 C 1.00427 0.37272 0.26518 0.0
C502 C 1.00757 0.36073 0.22931 0.0
C503 C 0.03027 0.35946 0.22553 0.0
C504 C 0.98804 0.35029 0.19489 0.0
C505 C 0.98137 0.37654 0.26995 0.0
C506 C 0.96223 0.33165 0.20289 0.0
C507 C 0.94344 0.32416 0.17149 0.0
C508 C 0.9501 0.33498 0.13123 0.0
C509 C 0.97624 0.35232 0.12262 0.0
C510 C 0.99497 0.35986 0.15406 0.0
H511 H 0.98532 0.39226 0.29245 0.0
H512 H 0.97582 0.38117 0.23945 0.0
H513 H 0.96475 0.35854 0.28198 0.0
H514 H 0.95646 0.32343 0.23383 0.0
H515 H 0.92355 0.31074 0.17932 0.0
H516 H 0.63654 0.94668 0.14449 0.0
H517 H 0.65422 0.98142 0.19571 0.0
H518 H 0.58553 0.94066 0.27022 0.0
H519 H 0.56722 0.90576 0.21804 0.0
H520 H 0.59897 0.99078 0.26042 0.0
H521 H 0.68543 0.98694 0.3089 0.0
H522 H 0.68407 0.98978 0.25327 0.0
H523 H 0.65965 0.96138 0.27926 0.0
C524 C 0.62524 0.94476 0.17206 0.0
C525 C 0.60041 0.92324 0.17707 0.0
C526 C 0.63552 0.96472 0.20157 0.0
C527 C 0.62147 0.96367 0.23732 0.0
C528 C 0.59686 0.94193 0.24303 0.0
H529 H 0.68699 0.07128 0.44566 0.0
H530 H 0.66995 0.03452 0.39822 0.0
C531 C 0.58647 0.92187 0.21331 0.0
C532 C 0.63202 0.98595 0.26715 0.0
H533 H 0.68517 0.02573 0.3257 0.0
C534 C 0.61774 0.99828 0.27496 0.0
C535 C 0.65642 0.99575 0.28658 0.0
C536 C 0.67215 0.98261 0.28194 0.0
C537 C 0.62734 0.02029 0.3008 0.0
C538 C 0.65226 0.03077 0.31867 0.0
C539 C 0.66629 0.0181 0.31154 0.0
C540 C 0.66362 0.054 0.34661 0.0
C541 C 0.6104 0.03173 0.30936 0.0
C542 C 0.66651 0.07771 0.33335 0.0
C543 C 0.67624 0.09896 0.36072 0.0
C544 C 0.68355 0.09704 0.40183 0.0
C545 C 0.68157 0.07359 0.41433 0.0
C546 C 0.67175 0.05242 0.38715 0.0
H547 H 0.58978 0.01762 0.30326 0.0
H548 H 0.61245 0.03848 0.34226 0.0
H549 H 0.61611 0.04848 0.28845 0.0
H550 H 0.66109 0.07976 0.3019 0.0
H551 H 0.67755 0.11669 0.34995 0.0
H552 H 0.67045 0.5619 0.22201 0.0
H553 H 0.65738 0.58094 0.27814 0.0
H554 H 0.70577 0.65651 0.22626 0.0
H555 H 0.71893 0.63775 0.1703 0.0
H556 H 0.70771 0.65459 0.31585 0.0
H557 H 0.60757 0.60892 0.25454 0.0
H558 H 0.6195 0.5873 0.26492 0.0
H559 H 0.63386 0.61089 0.22422 0.0
C560 C 0.67867 0.58262 0.22295 0.0
C561 C 0.69565 0.59826 0.19142 0.0
C562 C 0.671 0.59346 0.25488 0.0
C563 C 0.68024 0.62014 0.25604 0.0
C564 C 0.69824 0.63589 0.22593 0.0
H565 H 0.61053 0.69987 0.38025 0.0
H566 H 0.63088 0.68464 0.33021 0.0
C567 C 0.70576 0.62509 0.19391 0.0
C568 C 0.67044 0.63165 0.28735 0.0
H569 H 0.61635 0.633 0.31699 0.0
C570 C 0.68772 0.64981 0.31621 0.0
C571 C 0.64445 0.6258 0.28735 0.0
C572 C 0.62523 0.60734 0.25594 0.0
C573 C 0.67964 0.66195 0.3454 0.0
C574 C 0.65352 0.65569 0.34597 0.0
C575 C 0.63634 0.63777 0.31673 0.0
C576 C 0.64345 0.66718 0.37687 0.0
C577 C 0.69924 0.68175 0.37488 0.0
C578 C 0.64401 0.66283 0.41991 0.0
C579 C 0.63236 0.6715 0.44862 0.0
C580 C 0.61976 0.68468 0.43499 0.0
C581 C 0.62011 0.6899 0.39198 0.0
C582 C 0.63165 0.68108 0.36325 0.0
H583 H 0.71922 0.68929 0.3634 0.0
H584 H 0.69582 0.69817 0.3793 0.0
H585 H 0.69761 0.67271 0.40583 0.0
H586 H 0.6526 0.65182 0.43124 0.0
H587 H 0.63237 0.66697 0.4814 0.0
H588 H 0.92042 0.59296 0.37983 0.0
H589 H 0.95547 0.61227 0.32911 0.0
H590 H 1.00579 0.66461 0.42402 0.0
H591 H 0.97112 0.6442 0.47552 0.0
H592 H 0.98316 0.65572 0.29473 0.0
H593 H 0.05001 0.63713 0.38731 0.0
H594 H 0.01698 0.62477 0.40248 0.0
H595 H 0.04112 0.65744 0.41518 0.0
C596 C 0.93887 0.6088 0.38983 0.0
C597 C 0.94297 0.61699 0.43184 0.0
C598 C 0.95902 0.6198 0.36075 0.0
C599 C 0.98372 0.63952 0.37271 0.0
C600 C 0.98735 0.64879 0.41411 0.0
H601 H 0.09738 0.72668 0.17647 0.0
H602 H 0.06571 0.71369 0.23283 0.0
C603 C 0.96736 0.63737 0.44348 0.0
C604 C 1.0055 0.65007 0.34188 0.0
H605 H 0.0677 0.66388 0.32764 0.0
C606 C 1.0016 0.6574 0.302 0.0
C607 C 0.02955 0.65183 0.35062 0.0
C608 C 0.03459 0.64211 0.39103 0.0
C609 C 0.02081 0.66638 0.27095 0.0
C610 C 0.04533 0.66944 0.28043 0.0
C611 C 0.0492 0.66203 0.32028 0.0
C612 C 0.06676 0.67915 0.24901 0.0
C613 C 0.01404 0.67139 0.22781 0.0
C614 C 0.0796 0.66533 0.24108 0.0
C615 C 0.09853 0.67336 0.20995 0.0
C616 C 0.10485 0.69523 0.18551 0.0
C617 C 0.09281 0.70964 0.19453 0.0
C618 C 0.07437 0.70198 0.22641 0.0
H619 H 0.99292 0.66028 0.22217 0.0
H620 H 0.02025 0.69214 0.22487 0.0
H621 H 0.02363 0.66621 0.20308 0.0
H622 H 0.07439 0.64776 0.25805 0.0
H623 H 0.10727 0.66168 0.2036 0.0
H624 H 0.67849 0.06173 0.64103 0.0
H625 H 0.66516 0.02316 0.68247 0.0
H626 H 0.7439 0.0401 0.68992 0.0
H627 H 0.75784 0.07965 0.6504 0.0
H628 H 0.67083 0.97973 0.67114 0.0
H629 H 0.7233 0.03698 0.81215 0.0
H630 H 0.71822 0.05161 0.76666 0.0
H631 H 0.74238 0.04227 0.76606 0.0
C632 C 0.69317 0.05774 0.6521 0.0
C633 C 0.71943 0.07443 0.64357 0.0
C634 C 0.68539 0.03534 0.67513 0.0
C635 C 0.70363 0.02908 0.68965 0.0
C636 C 0.72964 0.04491 0.67953 0.0
H637 H 0.66828 0.92262 0.89559 0.0
H638 H 0.69024 0.94444 0.83123 0.0
C639 C 0.7375 0.06746 0.65686 0.0
C640 C 0.69539 1.00697 0.71789 0.0
H641 H 0.6977 0.99252 0.82012 0.0
C642 C 0.67696 0.98236 0.70359 0.0
C643 C 0.70363 0.01057 0.76005 0.0
C644 C 0.72282 0.03677 0.7774 0.0
C645 C 0.66558 0.96139 0.73105 0.0
C646 C 0.67275 0.96537 0.77366 0.0
C647 C 0.69238 0.98957 0.78727 0.0
C648 C 0.65773 0.9463 0.8061 0.0
C649 C 0.64547 0.93541 0.71456 0.0
C650 C 0.63198 0.93955 0.81256 0.0
C651 C 0.61943 0.92725 0.84933 0.0
C652 C 0.63257 0.92169 0.88029 0.0
C653 C 0.65778 0.92692 0.87242 0.0
C654 C 0.67028 0.93915 0.83558 0.0
H655 H 0.6487 0.93322 0.68095 0.0
H656 H 0.6454 0.91951 0.73246 0.0
H657 H 0.62619 0.93358 0.71745 0.0
H658 H 0.6222 0.94556 0.79072 0.0
H659 H 0.60018 0.92392 0.85464 0.0
H660 H 0.75733 0.67037 0.90136 0.0
H661 H 0.7574 0.6912 0.83549 0.0
H662 H 0.68517 0.62448 0.80097 0.0
H663 H 0.68487 0.60357 0.86629 0.0
H664 H 0.72135 0.64767 0.73317 0.0
H665 H 0.70591 0.71761 0.82625 0.0
H666 H 0.73408 0.71547 0.83802 0.0
H667 H 0.70271 0.68867 0.84906 0.0
C668 C 0.74163 0.66003 0.87944 0.0
C669 C 0.72109 0.63536 0.88903 0.0
C670 C 0.74177 0.67191 0.84189 0.0
C671 C 0.7212 0.65939 0.81376 0.0
C672 C 0.70131 0.63432 0.82229 0.0
H673 H 0.63264 0.67089 0.62624 0.0
H674 H 0.65827 0.65937 0.67069 0.0
C675 C 0.70121 0.62238 0.85966 0.0
C676 C 0.71853 0.67313 0.77774 0.0
H677 H 0.70102 0.71757 0.75396 0.0
C678 C 0.71741 0.66332 0.73745 0.0
C679 C 0.71353 0.69359 0.78366 0.0
C680 C 0.71393 0.70445 0.82652 0.0
C681 C 0.71006 0.6726 0.70301 0.0
C682 C 0.70333 0.69179 0.70945 0.0
C683 C 0.7062 0.70281 0.74924 0.0
C684 C 0.69007 0.69844 0.67721 0.0
C685 C 0.70882 0.66125 0.66035 0.0
C686 C 0.69941 0.72424 0.66636 0.0
C687 C 0.6845 0.731 0.6418 0.0
C688 C 0.65988 0.71207 0.62806 0.0
C689 C 0.65114 0.68607 0.63732 0.0
C690 C 0.66604 0.67936 0.66197 0.0
H691 H 0.72281 0.65431 0.65779 0.0
H692 H 0.68926 0.64446 0.65533 0.0
H693 H 0.71279 0.67551 0.6352 0.0
H694 H 0.71781 0.73925 0.67819 0.0
H695 H 0.69186 0.75119 0.63505 0.0
H696 H 0.10058 0.68667 0.85322 0.0
H697 H 0.08167 0.68817 0.78686 0.0
H698 H 0.0866 0.75987 0.82293 0.0
H699 H 0.10574 0.75862 0.8898 0.0
H700 H 0.03812 0.72175 0.80788 0.0
H701 H 0.09964 0.72639 0.67616 0.0
H702 H 0.09647 0.70296 0.71405 0.0
H703 H 0.11204 0.7365 0.72858 0.0
C704 C 0.09867 0.70332 0.84656 0.0
C705 C 0.1046 0.72251 0.8769 0.0
C706 C 0.08795 0.70422 0.80835 0.0
C707 C 0.08311 0.72434 0.79973 0.0
C708 C 0.09047 0.74434 0.82887 0.0
H709 H 0.95301 0.6919 0.63704 0.0
H710 H 0.994 0.71904 0.6718 0.0
C711 C 0.10114 0.74344 0.86716 0.0
C712 C 0.06558 0.72134 0.76506 0.0
H713 H 0.05327 0.70348 0.66255 0.0
C714 C 0.04166 0.71855 0.77576 0.0
C715 C 0.07031 0.71708 0.72337 0.0
C716 C 0.09614 0.72116 0.7098 0.0
C717 C 0.02147 0.70927 0.74683 0.0
C718 C 0.02565 0.70335 0.70574 0.0
C719 C 0.05016 0.70798 0.69414 0.0
C720 C 1.00389 0.68909 0.6767 0.0
C721 C 0.9953 0.70388 0.76159 0.0
C722 C 0.99677 0.66377 0.66551 0.0
C723 C 0.97347 0.64816 0.64501 0.0
C724 C 0.95664 0.65751 0.6359 0.0
C725 C 0.965 0.68365 0.64431 0.0
C726 C 0.98847 0.69931 0.66426 0.0
H727 H 0.99441 0.70521 0.79617 0.0
H728 H 0.9909 0.71817 0.74765 0.0
H729 H 0.98007 0.68436 0.75162 0.0
H730 H 1.00866 0.65566 0.67444 0.0
H731 H 0.96873 0.6287 0.63752 0.0
H732 H 0.34101 0.04233 0.99169 0.0
H733 H 0.31639 0.99951 0.95975 0.0
H734 H 0.37841 0.01902 0.87284 0.0
H735 H 0.40287 0.0614 0.90399 0.0
H736 H 0.29968 0.99146 0.88105 0.0
H737 H 0.35913 0.94633 0.90127 0.0
H738 H 0.3635 0.9731 0.93335 0.0
H739 H 0.37938 0.97864 0.88337 0.0
C740 C 0.34959 0.03725 0.9663 0.0
C741 C 0.37405 0.05523 0.95074 0.0
C742 C 0.33555 0.01275 0.94831 0.0
C743 C 0.34582 1.00586 0.91462 0.0
C744 C 0.3705 0.02353 0.89986 0.0
H745 H 0.30968 0.96059 0.67907 0.0
H746 H 0.30979 0.97423 0.75085 0.0
C747 C 0.3845 0.04792 0.91775 0.0
C748 C 0.32974 0.98214 0.89021 0.0
H749 H 0.3366 0.93814 0.83289 0.0
C750 C 0.3072 0.97912 0.87153 0.0
C751 C 0.33893 0.96543 0.87875 0.0
C752 C 0.36141 0.96589 0.90074 0.0
C753 C 0.29574 0.96225 0.83771 0.0
C754 C 0.30757 0.94871 0.82186 0.0
C755 C 0.32789 0.94906 0.84427 0.0
C756 C 0.3027 0.93832 0.77875 0.0
C757 C 0.27206 0.96035 0.81777 0.0
C758 C 0.29885 0.91366 0.77045 0.0
C759 C 0.2993 0.90602 0.72931 0.0
C760 C 0.30376 0.92302 0.69592 0.0
C761 C 0.30621 0.94712 0.70418 0.0
C762 C 0.30598 0.95481 0.74524 0.0
H763 H 0.25955 0.96187 0.84186 0.0
H764 H 0.27792 0.97663 0.79575 0.0
H765 H 0.26071 0.94195 0.80039 0.0
H766 H 0.2964 0.90069 0.79584 0.0
H767 H 0.29663 0.88701 0.72378 0.0
H768 H 0.34059 0.2667 0.63932 0.0
H769 H 0.31479 0.27798 0.68423 0.0
H770 H 0.37428 0.35795 0.67985 0.0
H771 H 0.3997 0.34713 0.6337 0.0
H772 H 0.33 0.29909 0.76112 0.0
H773 H 0.30996 0.36285 0.66324 0.0
H774 H 0.32058 0.34192 0.64141 0.0
H775 H 0.34358 0.37286 0.66292 0.0
C776 C 0.34801 0.28676 0.64733 0.0
C777 C 0.37246 0.30593 0.63359 0.0
C778 C 0.33321 0.29313 0.67293 0.0
C779 C 0.34249 0.3188 0.68484 0.0
C780 C 0.36654 0.33807 0.67028 0.0
H781 H 0.34203 0.41139 0.87461 0.0
H782 H 0.34483 0.39065 0.81105 0.0
C783 C 0.38132 0.33175 0.6446 0.0
C784 C 0.32866 0.32521 0.71639 0.0
H785 H 0.30968 0.36883 0.73854 0.0
C786 C 0.32487 0.31383 0.75598 0.0
C787 C 0.3219 0.34434 0.70935 0.0
C788 C 0.32397 0.35598 0.66675 0.0
C789 C 0.31647 0.32259 0.78973 0.0
C790 C 0.31152 0.34302 0.78334 0.0
C791 C 0.31364 0.35322 0.74317 0.0
C792 C 0.3077 0.35629 0.81896 0.0
C793 C 0.31474 0.31125 0.83255 0.0
C794 C 0.28562 0.3439 0.8439 0.0
C795 C 0.28383 0.35578 0.88033 0.0
C796 C 0.30404 0.38027 0.89208 0.0
C797 C 0.3258 0.39285 0.86617 0.0
C798 C 0.32753 0.38098 0.82985 0.0
H799 H 0.32208 0.29753 0.83287 0.0
H800 H 0.32587 0.32678 0.85567 0.0
H801 H 0.29434 0.3008 0.84281 0.0
H802 H 0.2701 0.32485 0.8357 0.0
H803 H 0.26678 0.34567 0.89955 0.0
H804 H 0.09122 0.40949 0.71292 0.0
H805 H 0.0711 0.38542 0.77603 0.0
H806 H 0.08108 0.3228 0.73261 0.0
H807 H 0.10134 0.34689 0.66875 0.0
H808 H 0.03246 0.30682 0.75108 0.0
H809 H 0.0918 0.36561 0.883 0.0
H810 H 0.08668 0.3858 0.84775 0.0
H811 H 0.10417 0.37029 0.83026 0.0
C812 C 0.09003 0.39103 0.71728 0.0
C813 C 0.09799 0.38014 0.6859 0.0
C814 C 0.0786 0.37729 0.7536 0.0
C815 C 0.07511 0.35254 0.75942 0.0
C816 C 0.08391 0.342 0.72889 0.0
H817 H 0.97586 0.28981 0.97901 0.0
H818 H 1.01121 0.29666 0.93282 0.0
C819 C 0.09528 0.35571 0.69238 0.0
C820 C 0.05844 0.33647 0.79375 0.0
H821 H 0.04475 0.34172 0.89533 0.0
C822 C 0.0355 0.31396 0.783 0.0
C823 C 0.06264 0.34533 0.83557 0.0
C824 C 0.08784 0.36794 0.84981 0.0
C825 C 0.01544 0.3019 0.81184 0.0
C826 C 0.01835 0.31302 0.85189 0.0
C827 C 0.04235 0.33361 0.86417 0.0
C828 C 0.99595 0.30626 0.87883 0.0
C829 C 0.99082 0.27824 0.79839 0.0
C830 C 0.97583 0.30955 0.86367 0.0
C831 C 0.95566 0.30568 0.88982 0.0
C832 C 0.95547 0.2988 0.93184 0.0
C833 C 0.97548 0.29512 0.94675 0.0
C834 C 0.99567 0.29899 0.92051 0.0
H835 H 0.99474 0.26688 0.77507 0.0
H836 H 0.98054 0.26569 0.82544 0.0
H837 H 0.97799 0.28424 0.7833 0.0
H838 H 0.97602 0.31573 0.83179 0.0
H839 H 0.94029 0.30808 0.87697 0.0
H840 H 0.49915 0.90408 0.99804 0.0
H841 H 0.48887 0.93875 1.00029 0.0
H842 H 0.56246 0.98895 0.05813 0.0
H843 H 0.57173 0.95359 0.05895 0.0
H844 H 0.5322 0.99939 0.0925 0.0
H845 H 0.50749 0.99629 0.92562 0.0
H846 H 0.48642 0.96603 0.94987 0.0
H847 H 0.52045 0.97719 0.9461 0.0
C848 C 0.51323 0.92259 1.01093 0.0
C849 C 0.53642 0.92602 1.02789 0.0
C850 C 0.50743 0.94266 1.01187 0.0
C851 C 0.52511 0.96721 1.02814 0.0
C852 C 0.54831 0.97051 0.04514 0.0
H853 H 0.50752 0.10224 0.97451 0.0
H854 H 0.51887 0.06823 0.97394 0.0
C855 C 0.55372 0.9502 0.04544 0.0
C856 C 0.51934 0.98916 1.02876 0.0
H857 H 0.49576 0.02071 0.97007 0.0
C858 C 0.52446 1.00409 0.06542 0.0
C859 C 0.50964 0.99612 0.99354 0.0
C860 C 0.50597 0.98325 0.95148 0.0
C861 C 0.52015 0.0252 0.06798 0.0
C862 C 0.50892 0.03113 0.03364 0.0
C863 C 0.50399 0.01634 0.99686 0.0
C864 C 0.50256 0.05267 0.03474 0.0
C865 C 0.52878 0.04144 0.10721 0.0
C866 C 0.48938 0.05576 0.06878 0.0
C867 C 0.48369 0.07588 0.06972 0.0
C868 C 0.49003 0.09303 0.0359 0.0
C869 C 0.50247 0.08955 1.00126 0.0
C870 C 0.50887 0.06989 1.00088 0.0
H871 H 0.54488 0.04051 0.12272 0.0
H872 H 0.53525 0.06195 0.1005 0.0
H873 H 0.51257 0.03394 0.12972 0.0
H874 H 0.48305 0.04236 0.09463 0.0
H875 H 0.47356 0.0775 0.09653 0.0
H876 H 0.40904 0.48122 0.10307 0.0
H877 H 0.45437 0.49245 0.10374 0.0
H878 H 0.45918 0.50684 0.97121 0.0
H879 H 0.41375 0.49543 0.97014 0.0
H880 H 0.47916 0.46892 0.05327 0.0
H881 H 0.52109 0.5738 1.02534 0.0
H882 H 0.48861 0.55364 0.04411 0.0
H883 H 0.4959 0.55267 0.98997 0.0
C884 C 0.41966 0.48679 0.07396 0.0
C885 C 0.40746 0.48738 0.03652 0.0
C886 C 0.44569 0.49318 0.07442 0.0
C887 C 0.46049 0.50069 0.0376 0.0
C888 C 0.44841 0.50135 1.00018 0.0
H889 H 0.60946 0.51178 0.98461 0.0
H890 H 0.5643 0.50083 0.98613 0.0
C891 C 0.42229 0.49469 0.99959 0.0
C892 C 0.48835 0.50756 0.03827 0.0
H893 H 0.55003 0.55776 1.02498 0.0
C894 C 0.49463 0.48835 0.04703 0.0
C895 C 0.50876 0.53295 1.03066 0.0
C896 C 0.50344 0.5546 1.02228 0.0
C897 C 0.52045 0.49369 0.04749 0.0
C898 C 0.54085 0.51901 0.0391 0.0
C899 C 0.53459 0.53832 1.03122 0.0
C900 C 0.56871 0.52576 0.0383 0.0
C901 C 0.52577 0.47224 0.05767 0.0
C902 C 0.58678 0.54387 0.06654 0.0
C903 C 0.61282 0.55024 0.06575 0.0
C904 C 0.6217 0.53897 0.03623 0.0
C905 C 0.60357 0.521 1.00776 0.0
C906 C 0.57754 0.51452 1.00879 0.0
H907 H 0.50863 0.4552 0.07102 0.0
H908 H 0.53126 0.46599 1.02869 0.0
H909 H 0.54204 0.47901 0.08016 0.0
H910 H 0.58067 0.55297 0.08959 0.0
H911 H 0.62604 0.56408 0.08827 0.0
H912 H 0.10533 0.60819 0.97605 0.0
H913 H 0.07049 0.56333 0.97684 0.0
H914 H 0.03795 0.57913 0.08525 0.0
H915 H 0.07229 0.62435 0.08361 0.0
H916 H 0.05689 0.52572 1.02946 0.0
H917 H 0.97396 0.54178 1.01829 0.0
H918 H 1.00665 0.56747 1.01092 0.0
H919 H 0.99389 0.55754 0.06286 0.0
C920 C 0.09062 0.6023 0.99985 0.0
C921 C 0.09176 0.62026 1.02959 0.0
C922 C 0.07061 0.57641 1.00037 0.0
C923 C 0.05094 0.56744 1.03062 0.0
C924 C 0.05215 0.58533 0.0606 0.0
H925 H 0.92334 0.41219 0.09285 0.0
H926 H 0.95633 0.45801 0.09254 0.0
C927 C 0.07206 0.61134 0.05983 0.0
C928 C 0.02984 0.53937 1.03121 0.0
H929 H 0.9642 0.49898 0.03344 0.0
C930 C 0.03666 0.52003 1.03005 0.0
C931 C 1.00316 0.5314 1.03203 0.0
C932 C 0.99393 0.55062 1.03067 0.0
C933 C 0.01795 0.49347 1.03013 0.0
C934 C 0.99138 0.48559 1.03119 0.0
C935 C 0.98448 0.50481 0.0327 0.0
C936 C 0.9706 0.45755 1.03066 0.0
C937 C 0.02679 0.47395 1.02981 0.0
C938 C 0.96702 0.44172 0.99574 0.0
C939 C 0.94788 0.41543 0.9956 0.0
C940 C 0.93177 0.40404 1.03053 0.0
C941 C 0.93523 0.42005 0.06528 0.0
C942 C 0.95418 0.4464 0.06519 0.0
H943 H 0.04753 0.48278 0.03789 0.0
H944 H 0.01538 0.45813 0.05221 0.0
H945 H 0.02383 0.46536 0.99809 0.0
H946 H 0.97909 0.44972 0.96841 0.0
H947 H 0.946 0.40392 0.96824 0.0
H948 H 0.92098 0.51625 0.4866 0.0
H949 H 0.95427 0.50404 0.48757 0.0
H950 H 0.98354 0.54517 0.6038 0.0
H951 H 0.94996 0.55707 0.60322 0.0
H952 H 1.00509 0.52995 0.48449 0.0
H953 H 0.97868 0.47885 0.63602 0.0
H954 H 0.95853 0.48908 0.61043 0.0
H955 H 0.98593 0.51159 0.64099 0.0
C956 C 0.93451 0.52278 0.51238 0.0
C957 C 0.93258 0.53774 0.5448 0.0
C958 C 0.95363 0.51569 0.51298 0.0
C959 C 0.97147 0.52315 0.54615 0.0
C960 C 0.96977 0.53837 0.57833 0.0
H961 H 0.10503 0.50516 0.60273 0.0
H962 H 0.07136 0.51686 0.60068 0.0
C963 C 0.95053 0.54536 0.57786 0.0
C964 C 0.99195 0.51538 0.54652 0.0
H965 H 0.01853 0.48716 0.60661 0.0
C966 C 1.00784 0.52046 0.5112 0.0
C967 C 0.99584 0.50283 0.58109 0.0
C968 C 0.97868 0.49501 0.61908 0.0
C969 C 0.02757 0.51403 0.5099 0.0
C970 C 0.03163 0.50179 0.54469 0.0
C971 C 0.01572 0.49662 0.57991 0.0
C972 C 0.05234 0.49441 0.54547 0.0
C973 C 0.04434 0.52103 0.47149 0.0
C974 C 0.05303 0.47745 0.51556 0.0
C975 C 0.07231 0.47053 0.51683 0.0
C976 C 0.09159 0.48037 0.54801 0.0
C977 C 0.09067 0.49713 0.57815 0.0
C978 C 0.07132 0.50389 0.57701 0.0
H979 H 0.04354 0.53621 0.45277 0.0
H980 H 0.06471 0.52789 0.48004 0.0
H981 H 0.03745 0.50371 0.45136 0.0
H982 H 0.03848 0.46931 0.4913 0.0
H983 H 0.07216 0.45753 0.49313 0.0
H984 H 0.414 0.92848 0.46758 0.0
H985 H 0.45909 0.96334 0.46846 0.0
H986 H 0.46083 0.95773 0.6026 0.0
H987 H 0.41583 0.92292 0.60203 0.0
H988 H 0.48114 0.01186 0.50946 0.0
H989 H 0.5259 0.95624 0.56748 0.0
H990 H 0.49355 0.94088 0.54667 0.0
H991 H 0.49991 0.95357 0.59903 0.0
C992 C 0.424 0.93439 0.4973 0.0
C993 C 0.41103 0.92251 0.53471 0.0
C994 C 0.44988 0.95451 0.49777 0.0
C995 C 0.46377 0.96321 0.53554 0.0
C996 C 0.45094 0.95126 0.57287 0.0
H997 H 0.62278 0.08203 0.60153 0.0
H998 H 0.578 0.04642 0.60168 0.0
C999 C 0.42501 0.9313 0.57249 0.0
C1000 C 0.49128 0.9852 0.53601 0.0
H1001 H 0.55299 1.00149 0.56315 0.0
C1002 C 0.49684 0.00951 0.52103 0.0
C1003 C 0.51199 0.98249 0.55141 0.0
C1004 C 0.5077 0.95687 0.56676 0.0
C1005 C 0.52212 0.03104 0.5217 0.0
C1006 C 0.54296 0.02827 0.53661 0.0
C1007 C 0.53733 1.00393 0.55168 0.0
C1008 C 0.5706 0.05019 0.53649 0.0
C1009 C 0.52596 0.05674 0.50759 0.0
C1010 C 0.58204 0.06425 0.49979 0.0
C1011 C 0.60763 0.08481 0.49976 0.0
C1012 C 0.62295 0.09183 0.53626 0.0
C1013 C 0.61175 0.07737 0.57279 0.0
C1014 C 0.586 0.05688 0.57288 0.0
H1015 H 0.50797 0.05762 0.51072 0.0
H1016 H 0.54139 0.07288 0.52584 0.0
H1017 H 0.53144 0.05958 0.47406 0.0
H1018 H 0.57124 0.05922 0.47081 0.0
H1019 H 0.61545 0.09516 0.4708 0.0
H1020 H 0.5398 0.61351 0.59924 0.0
H1021 H 0.53032 0.56864 0.59913 0.0
H1022 H 0.52147 0.56559 0.46518 0.0
H1023 H 0.53082 0.61035 0.46499 0.0
H1024 H 0.48601 0.52214 0.56891 0.0
H1025 H 0.5743 0.54137 0.48347 0.0
H1026 H 0.57084 0.56671 0.50765 0.0
H1027 H 0.55536 0.55314 0.45852 0.0
C1028 C 0.53575 0.60334 0.56968 0.0
C1029 C 0.53616 0.61588 0.53211 0.0
C1030 C 0.53031 0.57754 0.56968 0.0
C1031 C 0.52549 0.56353 0.5321 0.0
C1032 C 0.52551 0.57587 0.49464 0.0
H1033 H 0.49883 0.40967 0.46387 0.0
H1034 H 0.50745 0.45413 0.46531 0.0
C1035 C 0.53069 0.60156 0.49463 0.0
C1036 C 0.52039 0.53614 0.5321 0.0
H1037 H 0.54361 0.49769 0.49616 0.0
C1038 C 0.4987 0.51685 0.55314 0.0
C1039 C 0.53671 0.52888 0.51137 0.0
C1040 C 0.56074 0.54857 0.48922 0.0
C1041 C 0.4926 0.49075 0.55325 0.0
C1042 C 0.50909 0.48347 0.53289 0.0
C1043 C 0.53084 0.50286 0.51191 0.0
C1044 C 0.50404 0.456 0.53246 0.0
C1045 C 0.46792 0.47114 0.57399 0.0
C1046 C 0.49966 0.44177 0.56967 0.0
C1047 C 0.49445 0.41606 0.56887 0.0
C1048 C 0.49394 0.40377 0.5309 0.0
C1049 C 0.49907 0.41827 0.49382 0.0
C1050 C 0.50402 0.44388 0.4946 0.0
H1051 H 0.45382 0.47797 0.57579 0.0
H1052 H 0.45882 0.45247 0.55695 0.0
H1053 H 0.47217 0.46786 0.60646 0.0
H1054 H 0.50036 0.45055 0.5996 0.0
H1055 H 0.49086 0.40581 0.5982 0.0
H1056 H 0.46542 0.13131 0.24689 0.0
H1057 H 0.46224 0.12116 0.32059 0.0
H1058 H 0.52096 0.19955 0.3476 0.0
H1059 H 0.52314 0.21035 0.2745 0.0
H1060 H 0.49952 0.11993 0.35144 0.0
H1061 H 0.48695 0.18383 0.45672 0.0
H1062 H 0.47653 0.1804 0.40281 0.0
H1063 H 0.5087 0.20496 0.41807 0.0
C1064 C 0.47683 0.14687 0.26837 0.0
C1065 C 0.49508 0.1717 0.25417 0.0
C1066 C 0.4749 0.1409 0.31093 0.0
C1067 C 0.49138 0.15943 0.34002 0.0
C1068 C 0.50757 0.18484 0.32634 0.0
H1069 H 0.61791 0.21407 0.42759 0.0
H1070 H 0.5723 0.1984 0.41892 0.0
C1071 C 0.50926 0.19092 0.284 0.0
C1072 C 0.49737 0.15135 0.3804 0.0
H1073 H 0.52842 0.18128 0.47026 0.0
C1074 C 0.50474 0.13251 0.37851 0.0
C1075 C 0.5033 0.16676 0.41678 0.0
C1076 C 0.49308 0.18487 0.42367 0.0
C1077 C 0.52253 0.13265 0.40709 0.0
C1078 C 0.53282 0.15203 0.43827 0.0
C1079 C 0.52121 0.16704 0.44534 0.0
C1080 C 0.55981 0.16259 0.45212 0.0
C1081 C 0.53294 0.11468 0.39972 0.0
C1082 C 0.56807 0.14794 0.47455 0.0
C1083 C 0.59444 0.15675 0.47894 0.0
C1084 C 0.61281 0.18044 0.46122 0.0
C1085 C 0.60433 0.19568 0.4413 0.0
C1086 C 0.57818 0.18682 0.43667 0.0
H1087 H 0.52252 0.10059 0.37426 0.0
H1088 H 0.55365 0.12593 0.39127 0.0
H1089 H 0.53117 0.10378 0.42871 0.0
H1090 H 0.55422 0.12938 0.48737 0.0
H1091 H 0.60034 0.14492 0.49582 0.0
H1092 H 0.42263 0.53573 0.1058 0.0
H1093 H 0.46982 0.5602 0.1112 0.0
H1094 H 0.46369 0.59042 0.23051 0.0
H1095 H 0.41676 0.56642 0.22502 0.0
H1096 H 0.49671 0.61776 0.12196 0.0
H1097 H 0.52199 0.57046 0.24521 0.0
H1098 H 0.49506 0.55289 0.20983 0.0
H1099 H 0.49145 0.56788 0.25627 0.0
C1100 C 0.43143 0.54703 0.13373 0.0
C1101 C 0.41617 0.54909 0.16534 0.0
C1102 C 0.45831 0.56099 0.13661 0.0
C1103 C 0.47011 0.57667 0.17152 0.0
C1104 C 0.45484 0.57793 0.20371 0.0
H1105 H 0.50406 0.68215 0.28256 0.0
H1106 H 0.50722 0.66299 0.21844 0.0
C1107 C 0.4281 0.56442 0.2005 0.0
C1108 C 0.49803 0.59495 0.17296 0.0
H1109 H 0.54049 0.61783 0.25342 0.0
C1110 C 0.50723 0.61761 0.14949 0.0
C1111 C 0.51259 0.59449 0.20722 0.0
C1112 C 0.50489 0.56996 0.23075 0.0
C1113 C 0.52698 0.64104 0.16545 0.0
C1114 C 0.5368 0.64136 0.20579 0.0
C1115 C 0.53212 0.61792 0.22337 0.0
C1116 C 0.54185 0.66227 0.23578 0.0
C1117 C 0.53442 0.66556 0.14207 0.0
C1118 C 0.56101 0.66978 0.26648 0.0
C1119 C 0.55899 0.68056 0.30412 0.0
C1120 C 0.53743 0.68353 0.31196 0.0
C1121 C 0.52046 0.67941 0.27865 0.0
C1122 C 0.52256 0.6688 0.24115 0.0
H1123 H 0.53728 0.66303 0.10844 0.0
H1124 H 0.51855 0.66998 0.14397 0.0
H1125 H 0.55232 0.6821 0.15484 0.0
H1126 H 0.57623 0.66519 0.26292 0.0
H1127 H 0.57358 0.68483 0.3275 0.0
H1128 H 0.9321 0.38193 0.19535 0.0
H1129 H 0.96249 0.41761 0.23761 0.0
H1130 H 0.90281 0.40143 0.32774 0.0
H1131 H 0.87241 0.36476 0.28686 0.0
H1132 H 0.95588 0.45553 0.23903 0.0
H1133 H 0.96208 0.43758 0.4036 0.0
H1134 H 0.95343 0.41233 0.36517 0.0
H1135 H 0.92892 0.41641 0.3912 0.0
C1136 C 0.92542 0.3848 0.22513 0.0
C1137 C 0.89925 0.37051 0.23705 0.0
C1138 C 0.94315 0.40551 0.24943 0.0
C1139 C 0.93513 0.41249 0.28583 0.0
C1140 C 0.90987 0.39637 0.30026 0.0
H1141 H 0.87362 0.48708 0.31264 0.0
H1142 H 0.90468 0.47562 0.28693 0.0
C1143 C 0.89219 0.37553 0.27626 0.0
C1144 C 0.94946 0.43942 0.30138 0.0
H1145 H 0.94528 0.46932 0.38876 0.0
C1146 C 0.95485 0.45897 0.2721 0.0
C1147 C 0.94992 0.44504 0.3444 0.0
C1148 C 0.94859 0.42667 0.37771 0.0
C1149 C 0.95436 0.48119 0.28401 0.0
C1150 C 0.94801 0.48339 0.32568 0.0
C1151 C 0.9488 0.46697 0.35622 0.0
C1152 C 0.93309 0.49625 0.33538 0.0
C1153 C 0.95745 0.50044 0.25102 0.0
C1154 C 0.93875 0.5119 0.37084 0.0
C1155 C 0.92082 0.51829 0.38584 0.0
C1156 C 0.8967 0.50886 0.36586 0.0
C1157 C 0.89188 0.49459 0.32882 0.0
C1158 C 0.90986 0.48835 0.31376 0.0
H1159 H 0.97284 0.50336 0.22866 0.0
H1160 H 0.93926 0.49286 0.23293 0.0
H1161 H 0.96223 0.5193 0.26502 0.0
H1162 H 0.95634 0.51785 0.38835 0.0
H1163 H 0.92539 0.52909 0.41471 0.0
H1164 H 0.35152 0.8264 0.29256 0.0
H1165 H 0.36663 0.84644 0.22481 0.0
H1166 H 0.35284 0.90789 0.25954 0.0
H1167 H 0.33666 0.88767 0.32732 0.0
H1168 H 0.34517 0.8713 0.15731 0.0
H1169 H 0.43542 0.93705 0.24309 0.0
H1170 H 0.4135 0.90717 0.26858 0.0
H1171 H 0.40414 0.93095 0.26008 0.0
C1172 C 0.35107 0.84387 0.28588 0.0
C1173 C 0.34388 0.85585 0.3166 0.0
C1174 C 0.35962 0.85524 0.24689 0.0
C1175 C 0.36116 0.87881 0.23763 0.0
C1176 C 0.35207 0.88988 0.26654 0.0
H1177 H 0.4854 0.90346 0.09014 0.0
H1178 H 0.45878 0.92251 0.10595 0.0
C1179 C 0.34322 0.87836 0.30565 0.0
C1180 C 0.37622 0.89295 0.20067 0.0
H1181 H 0.43978 0.92041 0.17781 0.0
C1182 C 0.36587 0.88321 0.16105 0.0
C1183 C 0.40305 0.90947 0.20504 0.0
C1184 C 0.41483 0.92202 0.24639 0.0
C1185 C 0.38208 0.88559 0.12772 0.0
C1186 C 0.4088 0.89661 0.13542 0.0
C1187 C 0.41921 0.91101 0.17219 0.0
C1188 C 0.42373 0.88602 0.11493 0.0
C1189 C 0.3702 0.87354 0.0862 0.0
C1190 C 0.41294 0.85916 0.114 0.0
C1191 C 0.42806 0.84819 0.10545 0.0
C1192 C 0.45463 0.86369 0.0982 0.0
C1193 C 0.46524 0.89067 0.09665 0.0
C1194 C 0.44992 0.90172 0.1051 0.0
H1195 H 0.35557 0.87886 0.07729 0.0
H1196 H 0.38487 0.87973 0.06105 0.0
H1197 H 0.36004 0.85223 0.08894 0.0
H1198 H 0.39311 0.84644 0.123 0.0
H1199 H 0.41893 0.82739 0.10687 0.0
H1200 H 0.46238 0.33031 0.32072 0.0
H1201 H 0.45711 0.3441 0.25157 0.0
H1202 H 0.53436 0.36265 0.21964 0.0
H1203 H 0.54017 0.34969 0.28833 0.0
H1204 H 0.48449 0.39262 0.22367 0.0
H1205 H 0.49837 0.33228 0.11114 0.0
H1206 H 0.48786 0.3216 0.16408 0.0
H1207 H 0.52176 0.33961 0.15149 0.0
C1208 C 0.47836 0.33733 0.2992 0.0
C1209 C 0.5022 0.33977 0.31103 0.0
C1210 C 0.47503 0.34479 0.25928 0.0
C1211 C 0.49516 0.35411 0.2302 0.0
C1212 C 0.51822 0.35487 0.24106 0.0
H1213 H 0.59921 0.47754 0.16023 0.0
H1214 H 0.5547 0.44886 0.1788 0.0
C1215 C 0.52164 0.34767 0.28079 0.0
C1216 C 0.49462 0.36727 0.19144 0.0
H1217 H 0.52633 0.38042 0.09917 0.0
C1218 C 0.49266 0.38954 0.19548 0.0
C1219 C 0.50356 0.36266 0.15343 0.0
C1220 C 0.50264 0.33749 0.14473 0.0
C1221 C 0.50457 0.40962 0.16639 0.0
C1222 C 0.5194 0.40745 0.13388 0.0
C1223 C 0.51624 0.38299 0.12515 0.0
C1224 C 0.54312 0.43032 0.11784 0.0
C1225 C 0.50305 0.4337 0.17313 0.0
C1226 C 0.55185 0.43039 0.07698 0.0
C1227 C 0.57786 0.44617 0.06702 0.0
C1228 C 0.5953 0.46271 0.0973 0.0
C1229 C 0.58606 0.46502 0.1363 0.0
C1230 C 0.56031 0.44873 0.1467 0.0
H1231 H 0.4827 0.42847 0.17829 0.0
H1232 H 0.51389 0.44373 0.20186 0.0
H1233 H 0.51078 0.44708 0.1462 0.0
H1234 H 0.53909 0.41666 0.05391 0.0
H1235 H 0.58462 0.44437 0.03647 0.0
H1236 H 0.15417 0.58538 0.16579 0.0
H1237 H 0.12509 0.55318 0.21507 0.0
H1238 H 0.06377 0.56647 0.17645 0.0
H1239 H 0.09274 0.59853 0.1266 0.0
H1240 H 0.07474 0.57704 0.25758 0.0
H1241 H 0.06379 0.48203 0.2293 0.0
H1242 H 0.09664 0.50548 0.21862 0.0
H1243 H 0.07127 0.50506 0.18755 0.0
C1244 C 0.13428 0.58085 0.16661 0.0
C1245 C 0.12612 0.59526 0.14334 0.0
C1246 C 0.11751 0.56217 0.19457 0.0
C1247 C 0.09217 0.55735 0.19943 0.0
C1248 C 0.08321 0.56987 0.17323 0.0
H1249 H 0.08937 0.49388 0.4361 0.0
H1250 H 0.0614 0.49582 0.38286 0.0
C1251 C 0.09999 0.58851 0.14514 0.0
C1252 C 0.07803 0.5443 0.23788 0.0
H1253 H 0.07641 0.49897 0.30318 0.0
C1254 C 0.07387 0.55929 0.26728 0.0
C1255 C 0.07559 0.52065 0.25048 0.0
C1256 C 0.07676 0.50229 0.2195 0.0
C1257 C 0.07265 0.55382 0.31006 0.0
C1258 C 0.07607 0.53326 0.3231 0.0
C1259 C 0.07477 0.51539 0.29329 0.0
C1260 C 0.08888 0.53451 0.36323 0.0
C1261 C 0.07073 0.57175 0.34104 0.0
C1262 C 0.1133 0.55601 0.37099 0.0
C1263 C 0.12968 0.55477 0.40064 0.0
C1264 C 0.12203 0.53192 0.42288 0.0
C1265 C 0.09649 0.51141 0.41826 0.0
C1266 C 0.08017 0.51259 0.38829 0.0
H1267 H 0.0573 0.57802 0.32931 0.0
H1268 H 0.06401 0.56249 0.37208 0.0
H1269 H 0.08992 0.58929 0.34482 0.0
H1270 H 0.12073 0.57299 0.35147 0.0
H1271 H 0.14903 0.57103 0.40365 0.0
H1272 H 0.34545 0.7942 0.63871 0.0
H1273 H 0.36645 0.78072 0.69025 0.0
H1274 H 0.38627 0.84857 0.76394 0.0
H1275 H 0.36459 0.86167 0.71331 0.0
H1276 H 0.41573 0.80535 0.70706 0.0
H1277 H 0.36409 0.79594 0.85433 0.0
H1278 H 0.35132 0.79785 0.80415 0.0
H1279 H 0.37422 0.82677 0.83131 0.0
C1280 C 0.3538 0.80595 0.66639 0.0
C1281 C 0.35352 0.82908 0.67189 0.0
C1282 C 0.36579 0.79822 0.6958 0.0
C1283 C 0.37776 0.81349 0.73118 0.0
C1284 C 0.37662 0.8361 0.73749 0.0
H1285 H 0.51504 0.85063 0.8559 0.0
H1286 H 0.4814 0.84062 0.80438 0.0
C1287 C 0.36436 0.84369 0.70834 0.0
C1288 C 0.39388 0.80748 0.75893 0.0
H1289 H 0.40843 0.80565 0.86148 0.0
C1290 C 0.4138 0.80487 0.74083 0.0
C1291 C 0.39108 0.80623 0.80291 0.0
C1292 C 0.36881 0.80655 0.8242 0.0
C1293 C 0.43199 0.80282 0.76561 0.0
C1294 C 0.43068 0.8042 0.80963 0.0
C1295 C 0.40974 0.80499 0.8277 0.0
C1296 C 0.45191 0.8074 0.83742 0.0
C1297 C 0.45263 0.79961 0.74426 0.0
C1298 C 0.44668 0.792 0.87316 0.0
C1299 C 0.46585 0.798 0.90317 0.0
C1300 C 0.49056 0.81953 0.89794 0.0
C1301 C 0.49621 0.83388 0.86084 0.0
C1302 C 0.47699 0.82804 0.83112 0.0
H1303 H 0.44546 0.78897 0.71424 0.0
H1304 H 0.46922 0.8189 0.73689 0.0
H1305 H 0.45949 0.78915 0.76432 0.0
H1306 H 0.42747 0.77598 0.87869 0.0
H1307 H 0.46095 0.78648 0.93133 0.0
H1308 H 0.49721 0.34344 0.71746 0.0
H1309 H 0.52852 0.36583 0.77387 0.0
H1310 H 0.59046 0.39448 0.68428 0.0
H1311 H 0.55967 0.37203 0.62836 0.0
H1312 H 0.60252 0.37962 0.7603 0.0
H1313 H 0.56242 0.4449 0.78182 0.0
H1314 H 0.54004 0.41107 0.78806 0.0
H1315 H 0.554 0.42334 0.73769 0.0
C1316 C 0.51753 0.35424 0.70999 0.0
C1317 C 0.52595 0.35639 0.66842 0.0
C1318 C 0.53536 0.36705 0.74214 0.0
C1319 C 0.56172 0.38216 0.73299 0.0
C1320 C 0.57019 0.38301 0.69194 0.0
H1321 H 0.67817 0.51772 0.85739 0.0
H1322 H 0.65045 0.48534 0.80599 0.0
C1323 C 0.5525 0.37026 0.65997 0.0
C1324 C 0.58053 0.39895 0.76495 0.0
H1325 H 0.59821 0.45312 0.82292 0.0
C1326 C 0.60152 0.39557 0.77436 0.0
C1327 C 0.57936 0.42002 0.78243 0.0
C1328 C 0.5579 0.4253 0.77187 0.0
C1329 C 0.62152 0.41287 0.8007 0.0
C1330 C 0.62025 0.43384 0.81828 0.0
C1331 C 0.59913 0.43703 0.8092 0.0
C1332 C 0.6404 0.45279 0.84652 0.0
C1333 C 0.64417 0.40903 0.80854 0.0
C1334 C 0.64455 0.4451 0.88575 0.0
C1335 C 0.66043 0.46353 0.91511 0.0
C1336 C 0.67218 0.48996 0.90584 0.0
C1337 C 0.66928 0.49752 0.86555 0.0
C1338 C 0.65342 0.47906 0.8362 0.0
H1339 H 0.64533 0.39606 0.78487 0.0
H1340 H 0.66252 0.42775 0.80827 0.0
H1341 H 0.64211 0.40019 0.8398 0.0
H1342 H 0.63441 0.42496 0.89453 0.0
H1343 H 0.66229 0.45705 0.94585 0.0
H1344 H 0.21875 0.56095 0.64071 0.0
H1345 H 0.22876 0.59228 0.69638 0.0
H1346 H 0.18617 0.53067 0.78397 0.0
H1347 H 0.17544 0.49902 0.72787 0.0
H1348 H 0.16809 0.56321 0.77976 0.0
H1349 H 0.27382 0.62011 0.79862 0.0
H1350 H 0.26444 0.61807 0.74484 0.0
H1351 H 0.25787 0.58923 0.77238 0.0
C1352 C 0.21201 0.55397 0.67201 0.0
C1353 C 0.19583 0.52753 0.67975 0.0
C1354 C 0.21801 0.57196 0.70397 0.0
C1355 C 0.20831 0.56384 0.74438 0.0
C1356 C 0.19384 0.53733 0.75294 0.0
H1357 H 0.22106 0.66247 0.95238 0.0
H1358 H 0.22889 0.63592 0.90336 0.0
C1359 C 0.18767 0.51928 0.72087 0.0
C1360 C 0.20948 0.58285 0.7752 0.0
H1361 H 0.25001 0.64058 0.822 0.0
C1362 C 0.18605 0.57992 0.78944 0.0
C1363 C 0.23289 0.60464 0.78785 0.0
C1364 C 0.25867 0.60807 0.77545 0.0
C1365 C 0.18531 0.59851 0.81498 0.0
C1366 C 0.20862 0.62101 0.82569 0.0
C1367 C 0.23216 0.62359 0.81279 0.0
C1368 C 0.2086 0.64129 0.85197 0.0
C1369 C 0.15952 0.59378 0.83046 0.0
C1370 C 0.19583 0.65424 0.83848 0.0
C1371 C 0.19109 0.66928 0.86653 0.0
C1372 C 0.19924 0.67167 0.90835 0.0
C1373 C 0.21422 0.66073 0.92051 0.0
C1374 C 0.2188 0.64559 0.89253 0.0
H1375 H 0.14445 0.57313 0.82797 0.0
H1376 H 0.16078 0.59995 0.86357 0.0
H1377 H 0.15329 0.60508 0.81124 0.0
H1378 H 0.18828 0.65154 0.80693 0.0
H1379 H 0.17988 0.67783 0.85606 0.0
H1380 H 0.64428 0.18692 0.61448 0.0
H1381 H 0.61775 0.19283 0.66577 0.0
H1382 H 0.65174 0.17064 0.76448 0.0
H1383 H 0.67834 0.16428 0.71294 0.0
H1384 H 0.5985 0.14305 0.76391 0.0
H1385 H 0.63333 0.2477 0.75426 0.0
H1386 H 0.62547 0.23197 0.70419 0.0
H1387 H 0.65158 0.23352 0.73425 0.0
C1388 C 0.64648 0.18366 0.64717 0.0
C1389 C 0.6633 0.17494 0.65966 0.0
C1390 C 0.6314 0.18727 0.67649 0.0
C1391 C 0.63298 0.18246 0.71893 0.0
C1392 C 0.65036 0.17458 0.73181 0.0
H1393 H 0.55513 0.20437 0.92727 0.0
H1394 H 0.58596 0.20898 0.87353 0.0
C1395 C 0.66553 0.17096 0.70239 0.0
C1396 C 0.61463 0.18322 0.74897 0.0
H1397 H 0.59262 0.22176 0.78763 0.0
C1398 C 0.59733 0.1603 0.76935 0.0
C1399 C 0.61321 0.20577 0.75599 0.0
C1400 C 0.63205 0.2312 0.73633 0.0
C1401 C 0.57834 0.15919 0.79616 0.0
C1402 C 0.57633 0.1815 0.80206 0.0
C1403 C 0.59393 0.20458 0.78232 0.0
C1404 C 0.55716 0.18152 0.83105 0.0
C1405 C 0.56088 0.13425 0.8185 0.0
C1406 C 0.53065 0.16543 0.82401 0.0
C1407 C 0.5129 0.16265 0.85481 0.0
C1408 C 0.5215 0.176 0.89296 0.0
C1409 C 0.54792 0.19356 0.89843 0.0
C1410 C 0.56559 0.1963 0.86772 0.0
H1411 H 0.56853 0.12079 0.81762 0.0
H1412 H 0.55823 0.13791 0.85169 0.0
H1413 H 0.5417 0.12463 0.80312 0.0
H1414 H 0.52378 0.15426 0.79543 0.0
H1415 H 0.49264 0.14918 0.84953 0.0
H1416 H 0.53482 0.675 0.72112 0.0
H1417 H 0.50355 0.65206 0.7771 0.0
H1418 H 0.44151 0.62443 0.68737 0.0
H1419 H 0.47221 0.64732 0.63191 0.0
H1420 H 0.4298 0.63906 0.76378 0.0
H1421 H 0.46894 0.57285 0.78326 0.0
H1422 H 0.49157 0.60659 0.79019 0.0
H1423 H 0.4775 0.59464 0.73962 0.0
C1424 C 0.51448 0.66428 0.71354 0.0
C1425 C 0.50601 0.66255 0.67203 0.0
C1426 C 0.49669 0.65116 0.74544 0.0
C1427 C 0.47029 0.63621 0.73611 0.0
C1428 C 0.46179 0.63576 0.69517 0.0
H1429 H 0.35235 0.50066 0.85789 0.0
H1430 H 0.38095 0.53294 0.80739 0.0
C1431 C 0.47944 0.64877 0.66345 0.0
C1432 C 0.45144 0.61934 0.76775 0.0
H1433 H 0.43323 0.56473 0.82435 0.0
C1434 C 0.43061 0.62292 0.77739 0.0
C1435 C 0.45236 0.59804 0.78463 0.0
C1436 C 0.47364 0.59255 0.77377 0.0
C1437 C 0.41053 0.60561 0.80337 0.0
C1438 C 0.41156 0.58441 0.82039 0.0
C1439 C 0.43251 0.581 0.81107 0.0
C1440 C 0.39132 0.5655 0.84835 0.0
C1441 C 0.38805 0.60969 0.81137 0.0
C1442 C 0.38717 0.57323 0.88758 0.0
C1443 C 0.37081 0.55487 0.9164 0.0
C1444 C 0.35852 0.52844 0.90661 0.0
C1445 C 0.36159 0.52085 0.86642 0.0
C1446 C 0.37797 0.53925 0.83759 0.0
H1447 H 0.38696 0.62273 0.78784 0.0
H1448 H 0.3696 0.59108 0.811 0.0
H1449 H 0.39029 0.61859 0.8427 0.0
H1450 H 0.39757 0.59334 0.89672 0.0
H1451 H 0.36882 0.56137 0.94708 0.0
H1452 H 0.82504 0.35488 0.92162 0.0
H1453 H 0.8207 0.38074 0.86724 0.0
H1454 H 0.87658 0.37388 0.79183 0.0
H1455 H 0.88147 0.3482 0.84697 0.0
H1456 H 0.88905 0.42386 0.80473 0.0
H1457 H 0.78754 0.36705 0.75302 0.0
H1458 H 0.7903 0.37041 0.80884 0.0
H1459 H 0.80328 0.35299 0.78206 0.0
C1460 C 0.83605 0.35838 0.89312 0.0
C1461 C 0.85384 0.34978 0.88874 0.0
C1462 C 0.83336 0.37301 0.86187 0.0
C1463 C 0.84818 0.3791 0.82539 0.0
C1464 C 0.86491 0.3693 0.81978 0.0
H1465 H 0.83974 0.46709 0.61932 0.0
H1466 H 0.83606 0.43358 0.6663 0.0
C1467 C 0.86762 0.35458 0.85118 0.0
C1468 C 0.84836 0.39819 0.7959 0.0
H1469 H 0.80921 0.41245 0.73831 0.0
C1470 C 0.87165 0.42126 0.78979 0.0
C1471 C 0.82565 0.39472 0.77647 0.0
C1472 C 0.80034 0.36983 0.78008 0.0
C1473 C 0.87277 0.44121 0.76544 0.0
C1474 C 0.84985 0.43821 0.74757 0.0
C1475 C 0.82665 0.4149 0.75284 0.0
C1476 C 0.84993 0.45834 0.72076 0.0
C1477 C 0.89856 0.46515 0.75854 0.0
C1478 C 0.85815 0.48326 0.73617 0.0
C1479 C 0.86042 0.50268 0.7092 0.0
C1480 C 0.85439 0.49731 0.66655 0.0
C1481 C 0.84482 0.47197 0.65192 0.0
C1482 C 0.84262 0.45272 0.67874 0.0
H1483 H 0.9148 0.46187 0.76593 0.0
H1484 H 0.90055 0.47181 0.72565 0.0
H1485 H 0.90021 0.48078 0.77925 0.0
H1486 H 0.86335 0.48782 0.76881 0.0
H1487 H 0.86765 0.52196 0.72141 0.0
H1488 H 0.44208 0.16923 0.13133 0.0
H1489 H 0.44321 0.18242 0.20419 0.0
H1490 H 0.50387 0.25907 0.17363 0.0
H1491 H 0.50367 0.24524 0.10116 0.0
H1492 H 0.51476 0.24726 0.24573 0.0
H1493 H 0.41249 0.2206 0.25481 0.0
H1494 H 0.41578 0.19328 0.24207 0.0
H1495 H 0.42731 0.21996 0.2062 0.0
C1496 C 0.45588 0.18877 0.14026 0.0
C1497 C 0.47317 0.2059 0.11043 0.0
C1498 C 0.45621 0.19655 0.182 0.0
C1499 C 0.47333 0.22203 0.1951 0.0
C1500 C 0.49041 0.2393 0.16498 0.0
H1501 H 0.45167 0.28518 0.43047 0.0
H1502 H 0.45246 0.27242 0.35807 0.0
C1503 C 0.49021 0.23141 0.12328 0.0
C1504 C 0.47372 0.23059 0.23993 0.0
H1505 H 0.43526 0.23051 0.31943 0.0
C1506 C 0.49733 0.24367 0.26165 0.0
C1507 C 0.4512 0.22648 0.26128 0.0
C1508 C 0.42533 0.21457 0.23975 0.0
C1509 C 0.49903 0.25235 0.30344 0.0
C1510 C 0.47633 0.24724 0.3254 0.0
C1511 C 0.45277 0.23437 0.30347 0.0
C1512 C 0.47651 0.25567 0.37032 0.0
C1513 C 0.52541 0.26766 0.32291 0.0
C1514 C 0.48933 0.25047 0.4026 0.0
C1515 C 0.48954 0.25871 0.44409 0.0
C1516 C 0.4767 0.27218 0.45488 0.0
C1517 C 0.46277 0.2761 0.42316 0.0
C1518 C 0.46292 0.26833 0.38158 0.0
H1519 H 0.54056 0.27715 0.29869 0.0
H1520 H 0.52654 0.28272 0.34447 0.0
H1521 H 0.52977 0.25444 0.34075 0.0
H1522 H 0.4991 0.23985 0.3959 0.0
H1523 H 0.49998 0.25469 0.46774 0.0
H1524 H 0.1813 0.48195 0.43244 0.0
H1525 H 0.19373 0.48076 0.35966 0.0
H1526 H 0.24713 0.45738 0.40199 0.0
H1527 H 0.23412 0.45769 0.47427 0.0
H1528 H 0.23988 0.50755 0.3189 0.0
H1529 H 0.21 0.40412 0.31232 0.0
H1530 H 0.20041 0.41765 0.35429 0.0
H1531 H 0.23182 0.42066 0.35463 0.0
C1532 C 0.19516 0.47591 0.42629 0.0
C1533 C 0.20606 0.46925 0.45968 0.0
C1534 C 0.20257 0.47553 0.38442 0.0
C1535 C 0.22108 0.46839 0.37453 0.0
C1536 C 0.23231 0.46225 0.408 0.0
H1537 H 0.29879 0.4574 0.14905 0.0
H1538 H 0.28362 0.45746 0.21994 0.0
C1539 C 0.22494 0.46265 0.4497 0.0
C1540 C 0.22922 0.46804 0.32974 0.0
H1541 H 0.2365 0.43013 0.25651 0.0
C1542 C 0.23889 0.4905 0.30526 0.0
C1543 C 0.22818 0.44594 0.31128 0.0
C1544 C 0.21681 0.42065 0.3343 0.0
C1545 C 0.24808 0.4917 0.26398 0.0
C1546 C 0.24723 0.46966 0.24567 0.0
C1547 C 0.23737 0.44715 0.27005 0.0
C1548 C 0.25659 0.46957 0.20163 0.0
C1549 C 0.25946 0.51697 0.24089 0.0
C1550 C 0.24647 0.47587 0.16672 0.0
C1551 C 0.25535 0.47577 0.12586 0.0
C1552 C 0.27465 0.46934 0.11827 0.0
C1553 C 0.28427 0.46256 0.15318 0.0
C1554 C 0.27544 0.46261 0.19406 0.0
H1555 H 0.26546 0.53348 0.26268 0.0
H1556 H 0.27642 0.52031 0.2221 0.0
H1557 H 0.24476 0.51657 0.21933 0.0
H1558 H 0.23147 0.48068 0.17091 0.0
H1559 H 0.24708 0.48094 0.10013 0.0
H1560 H 0.79377 0.22984 0.46617 0.0
H1561 H 0.80834 0.24363 0.39424 0.0
H1562 H 0.73025 0.19855 0.3502 0.0
H1563 H 0.71573 0.18502 0.4216 0.0
H1564 H 0.80134 0.21213 0.31859 0.0
H1565 H 0.7553 0.27213 0.30212 0.0
H1566 H 0.76124 0.26243 0.35245 0.0
H1567 H 0.73479 0.23983 0.32067 0.0
C1568 C 0.77958 0.22273 0.44129 0.0
C1569 C 0.75331 0.20591 0.4505 0.0
C1570 C 0.78804 0.23067 0.39991 0.0
C1571 C 0.77047 0.22242 0.3663 0.0
C1572 C 0.74433 0.2055 0.37525 0.0
H1573 H 0.77963 0.25806 0.09754 0.0
H1574 H 0.76626 0.24319 0.16949 0.0
C1575 C 0.73597 0.19735 0.4165 0.0
C1576 C 0.77937 0.23142 0.32212 0.0
H1577 H 0.77433 0.26638 0.24149 0.0
C1578 C 0.79551 0.22409 0.30182 0.0
C1579 C 0.77173 0.2469 0.29969 0.0
C1580 C 0.75497 0.25602 0.31977 0.0
C1581 C 0.80365 0.2312 0.25991 0.0
C1582 C 0.79627 0.24697 0.23747 0.0
C1583 C 0.78018 0.25437 0.25802 0.0
C1584 C 0.80468 0.25578 0.19284 0.0
C1585 C 0.81932 0.22079 0.23975 0.0
C1586 C 0.83081 0.268 0.18092 0.0
C1587 C 0.83841 0.27612 0.13938 0.0
C1588 C 0.82032 0.2732 0.10858 0.0
C1589 C 0.7942 0.2609 0.12034 0.0
C1590 C 0.78653 0.25248 0.16177 0.0
H1591 H 0.81607 0.20284 0.25527 0.0
H1592 H 0.81459 0.21662 0.20602 0.0
H1593 H 0.84009 0.23524 0.24282 0.0
H1594 H 0.84552 0.27156 0.20384 0.0
H1595 H 0.85857 0.28489 0.13145 0.0
H1596 H 0.53909 0.83645 0.14406 0.0
H1597 H 0.53958 0.8233 0.21647 0.0
H1598 H 0.57711 0.78173 0.17638 0.0
H1599 H 0.57695 0.79514 0.1041 0.0
H1600 H 0.51713 0.77271 0.25062 0.0
H1601 H 0.62286 0.82451 0.27481 0.0
H1602 H 0.60788 0.83209 0.23241 0.0
H1603 H 0.61196 0.80443 0.22897 0.0
C1604 C 0.548 0.82506 0.15057 0.0
C1605 C 0.55847 0.81747 0.11776 0.0
C1606 C 0.54802 0.81723 0.19224 0.0
C1607 C 0.55876 0.80174 0.20264 0.0
C1608 C 0.56914 0.79406 0.16989 0.0
H1609 H 0.58195 0.73732 0.4361 0.0
H1610 H 0.58192 0.75136 0.36406 0.0
C1611 C 0.56891 0.80169 0.12825 0.0
C1612 C 0.55846 0.79302 0.24721 0.0
H1613 H 0.59748 0.79515 0.32765 0.0
C1614 C 0.53474 0.77776 0.26748 0.0
C1615 C 0.5813 0.79924 0.26963 0.0
C1616 C 0.60748 0.81614 0.25061 0.0
C1617 C 0.5332 0.76824 0.30859 0.0
C1618 C 0.55608 0.7747 0.33135 0.0
C1619 C 0.57981 0.78999 0.31092 0.0
C1620 C 0.55592 0.76585 0.37597 0.0
C1621 C 0.50683 0.75059 0.32644 0.0
C1622 C 0.54186 0.76955 0.40793 0.0
C1623 C 0.5415 0.76096 0.44914 0.0
C1624 C 0.55529 0.74849 0.46003 0.0
C1625 C 0.57035 0.74593 0.42871 0.0
C1626 C 0.57053 0.75427 0.38735 0.0
H1627 H 0.4924 0.74046 0.30128 0.0
H1628 H 0.50692 0.73593 0.3474 0.0
H1629 H 0.50049 0.76219 0.34463 0.0
H1630 H 0.53118 0.77927 0.40117 0.0
H1631 H 0.5301 0.76384 0.47249 0.0
H1632 H 0.85404 0.57169 0.43644 0.0
H1633 H 0.83931 0.57164 0.36485 0.0
H1634 H 0.76058 0.52995 0.40683 0.0
H1635 H 0.77537 0.52986 0.47827 0.0
H1636 H 0.80927 0.53252 0.31032 0.0
H1637 H 0.75993 0.58775 0.34342 0.0
H1638 H 0.78127 0.58538 0.38067 0.0
H1639 H 0.74862 0.55939 0.37495 0.0
C1640 C 0.83364 0.5623 0.43047 0.0
C1641 C 0.81607 0.5505 0.46349 0.0
C1642 C 0.82513 0.56239 0.3893 0.0
C1643 C 0.79869 0.55111 0.37982 0.0
C1644 C 0.78108 0.53935 0.41285 0.0
H1645 H 0.7106 0.53219 0.14659 0.0
H1646 H 0.72396 0.53174 0.21915 0.0
C1647 C 0.78962 0.5392 0.45394 0.0
C1648 C 0.78962 0.55125 0.33554 0.0
H1649 H 0.75346 0.56908 0.27577 0.0
C1650 C 0.79717 0.54066 0.3029 0.0
C1651 C 0.77362 0.56166 0.32515 0.0
C1652 C 0.76555 0.57441 0.35777 0.0
C1653 C 0.789 0.53982 0.26101 0.0
C1654 C 0.77318 0.55043 0.25052 0.0
C1655 C 0.7655 0.56089 0.28321 0.0
C1656 C 0.76483 0.55125 0.20597 0.0
C1657 C 0.79691 0.52682 0.22857 0.0
C1658 C 0.78306 0.56276 0.17371 0.0
C1659 C 0.77537 0.56324 0.1322 0.0
C1660 C 0.74918 0.55265 0.1214 0.0
C1661 C 0.73091 0.54134 0.15366 0.0
C1662 C 0.73861 0.54081 0.19532 0.0
H1663 H 0.80162 0.51285 0.24306 0.0
H1664 H 0.78148 0.51649 0.20495 0.0
H1665 H 0.81441 0.54161 0.21226 0.0
H1666 H 0.80342 0.57159 0.1806 0.0
H1667 H 0.7901 0.57219 0.10846 0.0
H1668 H 0.23075 0.78618 0.10626 0.0
H1669 H 0.24406 0.79939 0.17882 0.0
H1670 H 0.19981 0.72026 0.2181 0.0
H1671 H 0.18655 0.70692 0.1452 0.0
H1672 H 0.21303 0.79181 0.25241 0.0
H1673 H 0.27261 0.74531 0.26927 0.0
H1674 H 0.26302 0.7513 0.21886 0.0
H1675 H 0.24028 0.72499 0.25043 0.0
C1676 C 0.22373 0.77149 0.13026 0.0
C1677 C 0.2072 0.74541 0.11952 0.0
C1678 C 0.23139 0.77914 0.17199 0.0
C1679 C 0.22323 0.76095 0.20448 0.0
C1680 C 0.20668 0.73482 0.19393 0.0
H1681 H 0.26072 0.77328 0.47372 0.0
H1682 H 0.24555 0.75883 0.40211 0.0
C1683 C 0.19876 0.72717 0.15209 0.0
C1684 C 0.232 0.76951 0.24904 0.0
H1685 H 0.26798 0.76556 0.32929 0.0
C1686 C 0.22505 0.78603 0.26916 0.0
C1687 C 0.2477 0.76211 0.27143 0.0
C1688 C 0.25659 0.74511 0.25149 0.0
C1689 C 0.23278 0.79483 0.31073 0.0
C1690 C 0.24883 0.78775 0.33306 0.0
C1691 C 0.25577 0.77119 0.31281 0.0
C1692 C 0.25828 0.79692 0.37735 0.0
C1693 C 0.22285 0.81099 0.33062 0.0
C1694 C 0.27081 0.82327 0.38837 0.0
C1695 C 0.27915 0.8315 0.42976 0.0
C1696 C 0.2761 0.81387 0.46133 0.0
C1697 C 0.26363 0.78755 0.45037 0.0
C1698 C 0.25503 0.77924 0.40911 0.0
H1699 H 0.20478 0.8077 0.31539 0.0
H1700 H 0.21907 0.80677 0.3645 0.0
H1701 H 0.23741 0.83168 0.3269 0.0
H1702 H 0.27435 0.83765 0.36489 0.0
H1703 H 0.28796 0.85174 0.43705 0.0
H1704 H 0.51478 0.71377 0.63056 0.0
H1705 H 0.51536 0.7271 0.70365 0.0
H1706 H 0.59176 0.79156 0.68574 0.0
H1707 H 0.59156 0.77745 0.61322 0.0
H1708 H 0.55182 0.73613 0.77338 0.0
H1709 H 0.55 0.82502 0.73223 0.0
H1710 H 0.54089 0.79889 0.69552 0.0
H1711 H 0.57428 0.82072 0.70663 0.0
C1712 C 0.53206 0.73027 0.64258 0.0
C1713 C 0.55353 0.74381 0.61613 0.0
C1714 C 0.53225 0.73819 0.68447 0.0
C1715 C 0.55357 0.76057 0.70106 0.0
C1716 C 0.5749 0.77435 0.67435 0.0
H1717 H 0.5862 0.84847 0.93899 0.0
H1718 H 0.58537 0.83366 0.86703 0.0
C1719 C 0.57485 0.76615 0.63269 0.0
C1720 C 0.55342 0.76953 0.7458 0.0
H1721 H 0.55498 0.81877 0.80371 0.0
C1722 C 0.55243 0.75418 0.77988 0.0
C1723 C 0.55438 0.79317 0.75519 0.0
C1724 C 0.55475 0.81042 0.72061 0.0
C1725 C 0.55304 0.76194 0.82221 0.0
C1726 C 0.55363 0.7855 0.83178 0.0
C1727 C 0.5545 0.80076 0.79747 0.0
C1728 C 0.55372 0.79482 0.87661 0.0
C1729 C 0.55413 0.74506 0.85613 0.0
C1730 C 0.53607 0.77859 0.90729 0.0
C1731 C 0.53672 0.78721 0.94884 0.0
C1732 C 0.55447 0.81266 0.96123 0.0
C1733 C 0.57178 0.82905 0.9306 0.0
C1734 C 0.5714 0.82037 0.88917 0.0
H1735 H 0.56231 0.73323 0.84431 0.0
H1736 H 0.56595 0.75666 0.8831 0.0
H1737 H 0.53431 0.73161 0.86721 0.0
H1738 H 0.52149 0.75914 0.89916 0.0
H1739 H 0.52293 0.77398 0.97125 0.0
H1740 H 0.81244 0.51252 0.63663 0.0
H1741 H 0.7997 0.51346 0.70947 0.0
H1742 H 0.80464 0.58656 0.6867 0.0
H1743 H 0.81852 0.58607 0.61444 0.0
H1744 H 0.82528 0.55137 0.7769 0.0
H1745 H 0.73115 0.54205 0.73595 0.0
H1746 H 0.74933 0.53448 0.69933 0.0
H1747 H 0.75862 0.56746 0.7097 0.0
C1748 C 0.81183 0.52928 0.64754 0.0
C1749 C 0.81789 0.54981 0.6198 0.0
C1750 C 0.80402 0.52962 0.68929 0.0
C1751 C 0.801 0.55007 0.70451 0.0
C1752 C 0.80654 0.57037 0.67644 0.0
H1753 H 0.74368 0.58122 0.94131 0.0
H1754 H 0.75758 0.58046 0.86942 0.0
C1755 C 0.81471 0.57018 0.6349 0.0
C1756 C 0.79203 0.55012 0.74925 0.0
H1757 H 0.74322 0.54922 0.80717 0.0
C1758 C 0.80727 0.5508 0.78337 0.0
C1759 C 0.76861 0.5496 0.75865 0.0
C1760 C 0.75079 0.54815 0.72413 0.0
C1761 C 0.80025 0.5516 0.82567 0.0
C1762 C 0.77656 0.55066 0.83526 0.0
C1763 C 0.76131 0.54991 0.80093 0.0
C1764 C 0.76741 0.55073 0.88011 0.0
C1765 C 0.81909 0.55455 0.85951 0.0
C1766 C 0.76749 0.53412 0.91142 0.0
C1767 C 0.75954 0.53474 0.95295 0.0
C1768 C 0.75037 0.55138 0.96478 0.0
C1769 C 0.74984 0.56765 0.93349 0.0
C1770 C 0.75808 0.5673 0.89206 0.0
H1771 H 0.83909 0.56374 0.84732 0.0
H1772 H 0.8187 0.56634 0.886 0.0
H1773 H 0.81407 0.53522 0.87138 0.0
H1774 H 0.77353 0.52037 0.90383 0.0
H1775 H 0.76021 0.52178 0.97583 0.0
H1776 H 0.26181 0.77319 0.60491 0.0
H1777 H 0.24803 0.75921 0.67715 0.0
H1778 H 0.28162 0.83853 0.71548 0.0
H1779 H 0.2936 0.85196 0.64294 0.0
H1780 H 0.26951 0.76316 0.74951 0.0
H1781 H 0.21454 0.81368 0.76929 0.0
H1782 H 0.22731 0.81171 0.71933 0.0
H1783 H 0.24758 0.83577 0.75715 0.0
C1784 C 0.26622 0.78772 0.62868 0.0
C1785 C 0.27958 0.81407 0.6176 0.0
C1786 C 0.25835 0.77965 0.67042 0.0
C1787 C 0.26319 0.79756 0.7029 0.0
C1788 C 0.27678 0.82389 0.6918 0.0
H1789 H 0.25114 0.75694 0.97441 0.0
H1790 H 0.26602 0.7707 0.90242 0.0
C1791 C 0.28434 0.83183 0.65002 0.0
C1792 C 0.2541 0.78875 0.7478 0.0
H1793 H 0.22228 0.7966 0.83114 0.0
C1794 C 0.25913 0.77053 0.76711 0.0
C1795 C 0.24001 0.79765 0.77165 0.0
C1796 C 0.2318 0.81556 0.75317 0.0
C1797 C 0.25107 0.76152 0.80862 0.0
C1798 C 0.23795 0.77126 0.83301 0.0
C1799 C 0.23256 0.78915 0.81349 0.0
C1800 C 0.22903 0.76276 0.87802 0.0
C1801 C 0.25604 0.7409 0.82535 0.0
C1802 C 0.20343 0.75448 0.8902 0.0
C1803 C 0.19504 0.74689 0.9318 0.0
C1804 C 0.21168 0.74703 0.96302 0.0
C1805 C 0.23748 0.756 0.95132 0.0
C1806 C 0.24597 0.76367 0.90966 0.0
H1807 H 0.25864 0.72991 0.79964 0.0
H1808 H 0.27401 0.75007 0.84421 0.0
H1809 H 0.24 0.72712 0.84557 0.0
H1810 H 0.18974 0.75384 0.86743 0.0
H1811 H 0.17561 0.7416 0.93983 0.0
H1812 H 0.43896 0.24238 0.60771 0.0
H1813 H 0.43867 0.22799 0.68002 0.0
H1814 H 0.5158 0.29128 0.69815 0.0
H1815 H 0.51642 0.30488 0.62539 0.0
H1816 H 0.47459 0.21419 0.72006 0.0
H1817 H 0.47556 0.29659 0.8011 0.0
H1818 H 0.46669 0.28933 0.74666 0.0
H1819 H 0.49993 0.30465 0.76199 0.0
C1820 C 0.45576 0.2534 0.62726 0.0
C1821 C 0.47732 0.27552 0.61096 0.0
C1822 C 0.45564 0.24508 0.66878 0.0
C1823 C 0.47703 0.25865 0.6956 0.0
C1824 C 0.49872 0.2806 0.67905 0.0
H1825 H 0.5064 0.24387 0.96368 0.0
H1826 H 0.50766 0.25792 0.89125 0.0
C1827 C 0.49898 0.28863 0.63733 0.0
C1828 C 0.47692 0.24951 0.74015 0.0
H1829 H 0.47903 0.26631 0.84362 0.0
C1830 C 0.47544 0.22559 0.74703 0.0
C1831 C 0.47848 0.26429 0.77596 0.0
C1832 C 0.48007 0.29008 0.77137 0.0
C1833 C 0.47591 0.2164 0.78785 0.0
C1834 C 0.47667 0.23081 0.82392 0.0
C1835 C 0.47824 0.25483 0.81684 0.0
C1836 C 0.47615 0.22163 0.86886 0.0
C1837 C 0.47677 0.19176 0.79152 0.0
C1838 C 0.45795 0.19646 0.88214 0.0
C1839 C 0.45755 0.18824 0.92381 0.0
C1840 C 0.47506 0.2049 0.95419 0.0
C1841 C 0.49277 0.23024 0.94134 0.0
C1842 C 0.49343 0.23837 0.89957 0.0
H1843 H 0.4852 0.18821 0.76309 0.0
H1844 H 0.48829 0.19219 0.81903 0.0
H1845 H 0.45688 0.17529 0.79485 0.0
H1846 H 0.44356 0.18311 0.86048 0.0
H1847 H 0.44311 0.16887 0.93233 0.0
H1848 H 0.17317 0.44138 0.63891 0.0
H1849 H 0.18699 0.44258 0.71146 0.0
H1850 H 0.26405 0.50076 0.67784 0.0
H1851 H 0.24966 0.50025 0.60564 0.0
H1852 H 0.21823 0.43126 0.74884 0.0
H1853 H 0.25734 0.5348 0.78006 0.0
H1854 H 0.23905 0.51935 0.73353 0.0
H1855 H 0.27288 0.52977 0.73614 0.0
C1856 C 0.19284 0.45492 0.64715 0.0
C1857 C 0.20987 0.47135 0.61627 0.0
C1858 C 0.20097 0.45542 0.68889 0.0
C1859 C 0.22665 0.47227 0.70155 0.0
C1860 C 0.24395 0.48812 0.67022 0.0
H1861 H 0.28936 0.44531 0.9369 0.0
H1862 H 0.27692 0.44661 0.86465 0.0
C1863 C 0.23573 0.48763 0.62845 0.0
C1864 C 0.23529 0.47248 0.74673 0.0
H1865 H 0.26797 0.512 0.83006 0.0
C1866 C 0.22906 0.44901 0.76641 0.0
C1867 C 0.24902 0.49536 0.77107 0.0
C1868 C 0.25473 0.5212 0.75434 0.0
C1869 C 0.23636 0.44779 0.80833 0.0
C1870 C 0.25125 0.47078 0.83201 0.0
C1871 C 0.25704 0.49422 0.81258 0.0
C1872 C 0.26042 0.4709 0.87687 0.0
C1873 C 0.22706 0.42151 0.82708 0.0
C1874 C 0.25678 0.48493 0.9091 0.0
C1875 C 0.26493 0.48484 0.95072 0.0
C1876 C 0.2774 0.47101 0.96197 0.0
C1877 C 0.28085 0.45691 0.92986 0.0
C1878 C 0.27302 0.4572 0.88815 0.0
H1879 H 0.20933 0.40656 0.8112 0.0
H1880 H 0.24211 0.41609 0.82299 0.0
H1881 H 0.22291 0.42127 0.86095 0.0
H1882 H 0.24722 0.49577 0.90226 0.0
H1883 H 0.2615 0.49578 0.97426 0.0
H1884 H 0.72249 0.21246 0.62451 0.0
H1885 H 0.73681 0.22555 0.69702 0.0
H1886 H 0.80381 0.21873 0.67342 0.0
H1887 H 0.78877 0.20457 0.6013 0.0
H1888 H 0.74705 0.20115 0.76386 0.0
H1889 H 0.83639 0.29138 0.72313 0.0
H1890 H 0.81107 0.27359 0.6855 0.0
H1891 H 0.83328 0.26288 0.69895 0.0
C1892 C 0.73974 0.21276 0.63518 0.0
C1893 C 0.75371 0.20619 0.60721 0.0
C1894 C 0.74828 0.22079 0.67672 0.0
C1895 C 0.77166 0.22346 0.69161 0.0
C1896 C 0.7859 0.21729 0.66336 0.0
H1897 H 0.85746 0.27773 0.93306 0.0
H1898 H 0.84376 0.26338 0.8606 0.0
C1899 C 0.77716 0.20896 0.62191 0.0
C1900 C 0.78089 0.23251 0.73635 0.0
H1901 H 0.83041 0.27984 0.79465 0.0
C1902 C 0.76528 0.21842 0.77039 0.0
C1903 C 0.80477 0.25499 0.7459 0.0
C1904 C 0.82232 0.27178 0.71155 0.0
C1905 C 0.77288 0.22566 0.81273 0.0
C1906 C 0.79661 0.24841 0.8224 0.0
C1907 C 0.81226 0.26247 0.78825 0.0
C1908 C 0.8054 0.25791 0.86728 0.0
C1909 C 0.75557 0.20807 0.84663 0.0
C1910 C 0.78904 0.26043 0.89631 0.0
C1911 C 0.79691 0.26856 0.93801 0.0
C1912 C 0.82177 0.27531 0.95233 0.0
C1913 C 0.83837 0.27325 0.92332 0.0
C1914 C 0.83041 0.26487 0.88158 0.0
H1915 H 0.74356 0.18799 0.83503 0.0
H1916 H 0.76682 0.20784 0.87404 0.0
H1917 H 0.7423 0.21483 0.85699 0.0
H1918 H 0.77002 0.25622 0.88675 0.0
H1919 H 0.7835 0.26986 0.95912 0.0
loop_
_geom_bond_atom_site_label_1
_geom_bond_atom_site_label_2
_geom_bond_distance
_geom_bond_site_symmetry_2
_ccdc_geom_bond_type
Zn0 N4 2.020 . S
Zn0 O8 2.019 . S
Zn0 N10 2.119 . S
Zn0 O18 1.975 . S
C1 N2 1.334 . S
C1 N5 1.336 . S
N2 C1 1.334 . S
N2 C3 1.333 1_554 S
C3 N2 1.333 1_556 S
C3 N4 1.336 . S
N4 Zn0 2.020 . S
N4 C3 1.336 . S
N4 N5 1.354 1_556 S
N5 C1 1.336 . S
N5 N4 1.354 1_554 S
N5 Zn9 2.020 . S
C6 O7 1.244 . S
C6 O30 1.257 . S
O7 C6 1.244 . S
O8 Zn0 2.019 . S
O8 C28 1.257 . S
Zn9 N5 2.020 . S
Zn9 O16 1.975 . S
Zn9 N25 2.119 . S
Zn9 O30 2.019 . S
N10 Zn0 2.119 . S
N10 C12 1.334 . S
N10 C13 1.328 . S
C11 C12 1.391 . S
C11 N14 1.329 . S
C11 H32 0.930 . S
C12 N10 1.334 . S
C12 C11 1.391 . S
C12 H19 0.930 . S
C13 N10 1.328 . S
C13 C15 1.392 . S
C13 H20 0.930 . S
N14 C11 1.329 . S
N14 C15 1.331 . S
C15 C13 1.392 . S
C15 N14 1.331 . S
O16 Zn9 1.975 . S
O16 C17 1.252 . S
C17 O16 1.252 . S
C17 O18 1.252 1_554 S
O18 Zn0 1.975 . S
O18 C17 1.252 1_556 S
H19 C12 0.930 . S
H20 C13 0.930 . S
C21 C22 1.392 . S
C21 N25 1.328 . S
C21 H27 0.930 . S
C22 C21 1.392 . S
C22 N26 1.331 . S
C23 C24 1.391 . S
C23 N26 1.329 . S
C23 H33 0.930 . S
C24 C23 1.391 . S
C24 N25 1.334 . S
C24 H31 0.930 . S
N25 Zn9 2.119 . S
N25 C21 1.328 . S
N25 C24 1.334 . S
N26 C22 1.331 . S
N26 C23 1.329 . S
H27 C21 0.930 . S
C28 O8 1.257 . S
C28 O29 1.244 . S
O29 C28 1.244 . S
O30 C6 1.257 . S
O30 Zn9 2.019 . S
H31 C24 0.930 . S
H32 C11 0.930 . S
H33 C23 0.930 . S
Zn34 N38 2.020 . S
Zn34 O42 2.019 . S
Zn34 N44 2.119 . S
Zn34 O52 1.975 . S
C35 N36 1.334 . S
C35 N39 1.336 . S
N36 C35 1.334 . S
N36 C37 1.333 1_554 S
C37 N36 1.333 1_556 S
C37 N38 1.336 . S
N38 Zn34 2.020 . S
N38 C37 1.336 . S
N38 N39 1.354 1_556 S
N39 C35 1.336 . S
N39 N38 1.354 1_554 S
N39 Zn43 2.020 . S
C40 O41 1.244 . S
C40 O64 1.257 . S
O41 C40 1.244 . S
O42 Zn34 2.019 . S
O42 C62 1.257 . S
Zn43 N39 2.020 . S
Zn43 O50 1.975 . S
Zn43 N59 2.119 . S
Zn43 O64 2.019 . S
N44 Zn34 2.119 . S
N44 C46 1.334 . S
N44 C47 1.328 . S
C45 C46 1.391 . S
C45 N48 1.329 . S
C45 H66 0.930 . S
C46 N44 1.334 . S
C46 C45 1.391 . S
C46 H53 0.930 . S
C47 N44 1.328 . S
C47 C49 1.392 . S
C47 H54 0.930 . S
N48 C45 1.329 . S
N48 C49 1.331 . S
C49 C47 1.392 . S
C49 N48 1.331 . S
O50 Zn43 1.975 . S
O50 C51 1.252 . S
C51 O50 1.252 . S
C51 O52 1.252 1_554 S
O52 Zn34 1.975 . S
O52 C51 1.252 1_556 S
H53 C46 0.930 . S
H54 C47 0.930 . S
C55 C56 1.392 . S
C55 N59 1.328 . S
C55 H61 0.930 . S
C56 C55 1.392 . S
C56 N60 1.331 . S
C57 C58 1.391 . S
C57 N60 1.329 . S
C57 H67 0.930 . S
C58 C57 1.391 . S
C58 N59 1.334 . S
C58 H65 0.930 . S
N59 Zn43 2.119 . S
N59 C55 1.328 . S
N59 C58 1.334 . S
N60 C56 1.331 . S
N60 C57 1.329 . S
H61 C55 0.930 . S
C62 O42 1.257 . S
C62 O63 1.244 . S
O63 C62 1.244 . S
O64 C40 1.257 . S
O64 Zn43 2.019 . S
H65 C58 0.930 . S
H66 C45 0.930 . S
H67 C57 0.930 . S
Zn68 N72 2.020 . S
Zn68 O76 2.019 . S
Zn68 N78 2.119 . S
Zn68 O86 1.975 . S
C69 N70 1.334 . S
C69 N73 1.336 . S
N70 C69 1.334 . S
N70 C71 1.333 1_554 S
C71 N70 1.333 1_556 S
C71 N72 1.336 . S
N72 Zn68 2.020 . S
N72 C71 1.336 . S
N72 N73 1.354 1_556 S
N73 C69 1.336 . S
N73 N72 1.354 1_554 S
N73 Zn77 2.020 . S
C74 O75 1.244 . S
C74 O98 1.257 . S
O75 C74 1.244 . S
O76 Zn68 2.019 . S
O76 C96 1.257 . S
Zn77 N73 2.020 . S
Zn77 O84 1.975 . S
Zn77 N93 2.119 . S
Zn77 O98 2.019 . S
N78 Zn68 2.119 . S
N78 C80 1.334 . S
N78 C81 1.328 . S
C79 C80 1.391 . S
C79 N82 1.329 . S
C79 H100 0.930 . S
C80 N78 1.334 . S
C80 C79 1.391 . S
C80 H87 0.930 . S
C81 N78 1.328 . S
C81 C83 1.392 . S
C81 H88 0.930 . S
N82 C79 1.329 . S
N82 C83 1.331 . S
C83 C81 1.392 . S
C83 N82 1.331 . S
O84 Zn77 1.975 . S
O84 C85 1.252 . S
C85 O84 1.252 . S
C85 O86 1.252 1_554 S
O86 Zn68 1.975 . S
O86 C85 1.252 1_556 S
H87 C80 0.930 . S
H88 C81 0.930 . S
C89 C90 1.392 . S
C89 N93 1.328 . S
C89 H95 0.930 . S
C90 C89 1.392 . S
C90 N94 1.331 . S
C91 C92 1.391 . S
C91 N94 1.329 . S
C91 H101 0.930 . S
C92 C91 1.391 . S
C92 N93 1.334 . S
C92 H99 0.930 . S
N93 Zn77 2.119 . S
N93 C89 1.328 . S
N93 C92 1.334 . S
N94 C90 1.331 . S
N94 C91 1.329 . S
H95 C89 0.930 . S
C96 O76 1.257 . S
C96 O97 1.244 . S
O97 C96 1.244 . S
O98 C74 1.257 . S
O98 Zn77 2.019 . S
H99 C92 0.930 . S
H100 C79 0.930 . S
H101 C91 0.930 . S
Zn102 N106 2.020 . S
Zn102 O110 2.019 . S
Zn102 N112 2.119 . S
Zn102 O120 1.975 . S
C103 N104 1.333 1_556 S
C103 N107 1.336 . S
N104 C103 1.333 1_554 S
N104 C105 1.334 . S
C105 N104 1.334 . S
C105 N106 1.336 . S
N106 Zn102 2.020 . S
N106 C105 1.336 . S
N106 N107 1.354 1_554 S
N107 C103 1.336 . S
N107 N106 1.354 1_556 S
N107 Zn111 2.020 . S
C108 O109 1.244 . S
C108 O132 1.257 . S
O109 C108 1.244 . S
O110 Zn102 2.019 . S
O110 C130 1.257 . S
Zn111 N107 2.020 . S
Zn111 O118 1.975 . S
Zn111 N127 2.119 . S
Zn111 O132 2.019 . S
N112 Zn102 2.119 . S
N112 C114 1.334 . S
N112 C115 1.328 . S
C113 C114 1.391 . S
C113 N116 1.329 . S
C113 H134 0.930 . S
C114 N112 1.334 . S
C114 C113 1.391 . S
C114 H121 0.930 . S
C115 N112 1.328 . S
C115 C117 1.392 . S
C115 H122 0.930 . S
N116 C113 1.329 . S
N116 C117 1.331 . S
C117 C115 1.392 . S
C117 N116 1.331 . S
O118 Zn111 1.975 . S
O118 C119 1.252 1_556 S
C119 O118 1.252 1_554 S
C119 O120 1.252 . S
O120 Zn102 1.975 . S
O120 C119 1.252 . S
H121 C114 0.930 . S
H122 C115 0.930 . S
C123 C124 1.392 . S
C123 N127 1.328 . S
C123 H129 0.930 . S
C124 C123 1.392 . S
C124 N128 1.331 . S
C125 C126 1.391 . S
C125 N128 1.329 . S
C125 H135 0.930 . S
C126 C125 1.391 . S
C126 N127 1.334 . S
C126 H133 0.930 . S
N127 Zn111 2.119 . S
N127 C123 1.328 . S
N127 C126 1.334 . S
N128 C124 1.331 . S
N128 C125 1.329 . S
H129 C123 0.930 . S
C130 O110 1.257 . S
C130 O131 1.244 . S
O131 C130 1.244 . S
O132 C108 1.257 . S
O132 Zn111 2.019 . S
H133 C126 0.930 . S
H134 C113 0.930 . S
H135 C125 0.930 . S
Zn136 N140 2.020 . S
Zn136 O144 2.019 . S
Zn136 N146 2.119 . S
Zn136 O154 1.975 . S
C137 N138 1.334 . S
C137 N141 1.336 . S
N138 C137 1.334 . S
N138 C139 1.333 1_554 S
C139 N138 1.333 1_556 S
C139 N140 1.336 . S
N140 Zn136 2.020 . S
N140 C139 1.336 . S
N140 N141 1.354 1_556 S
N141 C137 1.336 . S
N141 N140 1.354 1_554 S
N141 Zn145 2.020 . S
C142 O143 1.244 . S
C142 O166 1.257 . S
O143 C142 1.244 . S
O144 Zn136 2.019 . S
O144 C164 1.257 . S
Zn145 N141 2.020 . S
Zn145 O152 1.975 . S
Zn145 N161 2.119 . S
Zn145 O166 2.019 . S
N146 Zn136 2.119 . S
N146 C148 1.334 . S
N146 C149 1.328 . S
C147 C148 1.391 . S
C147 N150 1.329 . S
C147 H168 0.930 . S
C148 N146 1.334 . S
C148 C147 1.391 . S
C148 H155 0.930 . S
C149 N146 1.328 . S
C149 C151 1.392 . S
C149 H156 0.930 . S
N150 C147 1.329 . S
N150 C151 1.331 . S
C151 C149 1.392 . S
C151 N150 1.331 . S
O152 Zn145 1.975 . S
O152 C153 1.252 . S
C153 O152 1.252 . S
C153 O154 1.252 1_554 S
O154 Zn136 1.975 . S
O154 C153 1.252 1_556 S
H155 C148 0.930 . S
H156 C149 0.930 . S
C157 C158 1.392 . S
C157 N161 1.328 . S
C157 H163 0.930 . S
C158 C157 1.392 . S
C158 N162 1.331 . S
C159 C160 1.391 . S
C159 N162 1.329 . S
C159 H169 0.930 . S
C160 C159 1.391 . S
C160 N161 1.334 . S
C160 H167 0.930 . S
N161 Zn145 2.119 . S
N161 C157 1.328 . S
N161 C160 1.334 . S
N162 C158 1.331 . S
N162 C159 1.329 . S
H163 C157 0.930 . S
C164 O144 1.257 . S
C164 O165 1.244 . S
O165 C164 1.244 . S
O166 C142 1.257 . S
O166 Zn145 2.019 . S
H167 C160 0.930 . S
H168 C147 0.930 . S
H169 C159 0.930 . S
Zn170 N174 2.020 . S
Zn170 O178 2.019 . S
Zn170 N180 2.119 . S
Zn170 O188 1.975 . S
C171 N172 1.333 1_556 S
C171 N175 1.336 . S
N172 C171 1.333 1_554 S
N172 C173 1.334 . S
C173 N172 1.334 . S
C173 N174 1.336 . S
N174 Zn170 2.020 . S
N174 C173 1.336 . S
N174 N175 1.354 1_554 S
N175 C171 1.336 . S
N175 N174 1.354 1_556 S
N175 Zn179 2.020 . S
C176 O177 1.244 . S
C176 O200 1.257 . S
O177 C176 1.244 . S
O178 Zn170 2.019 . S
O178 C198 1.257 . S
Zn179 N175 2.020 . S
Zn179 O186 1.975 . S
Zn179 N195 2.119 . S
Zn179 O200 2.019 . S
N180 Zn170 2.119 . S
N180 C182 1.334 . S
N180 C183 1.328 . S
C181 C182 1.391 . S
C181 N184 1.329 . S
C181 H202 0.930 . S
C182 N180 1.334 . S
C182 C181 1.391 . S
C182 H189 0.930 . S
C183 N180 1.328 . S
C183 C185 1.392 . S
C183 H190 0.930 . S
N184 C181 1.329 . S
N184 C185 1.331 . S
C185 C183 1.392 . S
C185 N184 1.331 . S
O186 Zn179 1.975 . S
O186 C187 1.252 1_556 S
C187 O186 1.252 1_554 S
C187 O188 1.252 . S
O188 Zn170 1.975 . S
O188 C187 1.252 . S
H189 C182 0.930 . S
H190 C183 0.930 . S
C191 C192 1.392 . S
C191 N195 1.328 . S
C191 H197 0.930 . S
C192 C191 1.392 . S
C192 N196 1.331 . S
C193 C194 1.391 . S
C193 N196 1.329 . S
C193 H203 0.930 . S
C194 C193 1.391 . S
C194 N195 1.334 . S
C194 H201 0.930 . S
N195 Zn179 2.119 . S
N195 C191 1.328 . S
N195 C194 1.334 . S
N196 C192 1.331 . S
N196 C193 1.329 . S
H197 C191 0.930 . S
C198 O178 1.257 . S
C198 O199 1.244 . S
O199 C198 1.244 . S
O200 C176 1.257 . S
O200 Zn179 2.019 . S
H201 C194 0.930 . S
H202 C181 0.930 . S
H203 C193 0.930 . S
Zn204 N208 2.020 . S
Zn204 O212 2.019 . S
Zn204 N214 2.119 . S
Zn204 O222 1.975 . S
C205 N206 1.334 . S
C205 N209 1.336 . S
N206 C205 1.334 . S
N206 C207 1.334 . S
C207 N206 1.334 . S
C207 N208 1.336 . S
N208 Zn204 2.020 . S
N208 C207 1.336 . S
N208 N209 1.354 . S
N209 C205 1.336 . S
N209 N208 1.354 . S
N209 Zn213 2.020 . S
C210 O211 1.244 . S
C210 O234 1.257 . S
O211 C210 1.244 . S
O212 Zn204 2.019 . S
O212 C232 1.257 . S
Zn213 N209 2.020 . S
Zn213 O220 1.975 . S
Zn213 N229 2.119 . S
Zn213 O234 2.019 . S
N214 Zn204 2.119 . S
N214 C216 1.334 . S
N214 C217 1.328 . S
C215 C216 1.391 . S
C215 N218 1.329 . S
C215 H236 0.930 . S
C216 N214 1.334 . S
C216 C215 1.391 . S
C216 H223 0.930 . S
C217 N214 1.328 . S
C217 C219 1.392 . S
C217 H224 0.930 . S
N218 C215 1.329 . S
N218 C219 1.331 . S
C219 C217 1.392 . S
C219 N218 1.331 . S
O220 Zn213 1.975 . S
O220 C221 1.252 . S
C221 O220 1.252 . S
C221 O222 1.252 . S
O222 Zn204 1.975 . S
O222 C221 1.252 . S
H223 C216 0.930 . S
H224 C217 0.930 . S
C225 C226 1.392 . S
C225 N229 1.328 . S
C225 H231 0.930 . S
C226 C225 1.392 . S
C226 N230 1.331 . S
C227 C228 1.391 . S
C227 N230 1.329 . S
C227 H237 0.930 . S
C228 C227 1.391 . S
C228 N229 1.334 . S
C228 H235 0.930 . S
N229 Zn213 2.119 . S
N229 C225 1.328 . S
N229 C228 1.334 . S
N230 C226 1.331 . S
N230 C227 1.329 . S
H231 C225 0.930 . S
C232 O212 1.257 . S
C232 O233 1.244 . S
O233 C232 1.244 . S
O234 C210 1.257 . S
O234 Zn213 2.019 . S
H235 C228 0.930 . S
H236 C215 0.930 . S
H237 C227 0.930 . S
Zn238 N242 2.020 . S
Zn238 O246 2.019 . S
Zn238 N248 2.119 . S
Zn238 O256 1.975 . S
C239 N240 1.334 . S
C239 N243 1.336 . S
N240 C239 1.334 . S
N240 C241 1.334 . S
C241 N240 1.334 . S
C241 N242 1.336 . S
N242 Zn238 2.020 . S
N242 C241 1.336 . S
N242 N243 1.354 . S
N243 C239 1.336 . S
N243 N242 1.354 . S
N243 Zn247 2.020 . S
C244 O245 1.244 . S
C244 O268 1.257 . S
O245 C244 1.244 . S
O246 Zn238 2.019 . S
O246 C266 1.257 . S
Zn247 N243 2.020 . S
Zn247 O254 1.975 . S
Zn247 N263 2.119 . S
Zn247 O268 2.019 . S
N248 Zn238 2.119 . S
N248 C250 1.334 . S
N248 C251 1.328 . S
C249 C250 1.391 . S
C249 N252 1.329 . S
C249 H270 0.930 . S
C250 N248 1.334 . S
C250 C249 1.391 . S
C250 H257 0.930 . S
C251 N248 1.328 . S
C251 C253 1.392 . S
C251 H258 0.930 . S
N252 C249 1.329 . S
N252 C253 1.331 . S
C253 C251 1.392 . S
C253 N252 1.331 . S
O254 Zn247 1.975 . S
O254 C255 1.252 . S
C255 O254 1.252 . S
C255 O256 1.252 . S
O256 Zn238 1.975 . S
O256 C255 1.252 . S
H257 C250 0.930 . S
H258 C251 0.930 . S
C259 C260 1.392 . S
C259 N263 1.328 . S
C259 H265 0.930 . S
C260 C259 1.392 . S
C260 N264 1.331 . S
C261 C262 1.391 . S
C261 N264 1.329 . S
C261 H271 0.930 . S
C262 C261 1.391 . S
C262 N263 1.334 . S
C262 H269 0.930 . S
N263 Zn247 2.119 . S
N263 C259 1.328 . S
N263 C262 1.334 . S
N264 C260 1.331 . S
N264 C261 1.329 . S
H265 C259 0.930 . S
C266 O246 1.257 . S
C266 O267 1.244 . S
O267 C266 1.244 . S
O268 C244 1.257 . S
O268 Zn247 2.019 . S
H269 C262 0.930 . S
H270 C249 0.930 . S
H271 C261 0.930 . S
Zn272 N276 2.020 . S
Zn272 O280 2.019 . S
Zn272 N282 2.119 . S
Zn272 O290 1.975 . S
C273 N274 1.334 . S
C273 N277 1.336 . S
N274 C273 1.334 . S
N274 C275 1.334 . S
C275 N274 1.334 . S
C275 N276 1.336 . S
N276 Zn272 2.020 . S
N276 C275 1.336 . S
N276 N277 1.354 . S
N277 C273 1.336 . S
N277 N276 1.354 . S
N277 Zn281 2.020 . S
C278 O279 1.244 . S
C278 O302 1.257 . S
O279 C278 1.244 . S
O280 Zn272 2.019 . S
O280 C300 1.257 . S
Zn281 N277 2.020 . S
Zn281 O288 1.975 . S
Zn281 N297 2.119 . S
Zn281 O302 2.019 . S
N282 Zn272 2.119 . S
N282 C284 1.334 . S
N282 C285 1.328 . S
C283 C284 1.391 . S
C283 N286 1.329 . S
C283 H304 0.930 . S
C284 N282 1.334 . S
C284 C283 1.391 . S
C284 H291 0.930 . S
C285 N282 1.328 . S
C285 C287 1.392 . S
C285 H292 0.930 . S
N286 C283 1.329 . S
N286 C287 1.331 . S
C287 C285 1.392 . S
C287 N286 1.331 . S
O288 Zn281 1.975 . S
O288 C289 1.252 . S
C289 O288 1.252 . S
C289 O290 1.252 . S
O290 Zn272 1.975 . S
O290 C289 1.252 . S
H291 C284 0.930 . S
H292 C285 0.930 . S
C293 C294 1.392 . S
C293 N297 1.328 . S
C293 H299 0.930 . S
C294 C293 1.392 . S
C294 N298 1.331 . S
C295 C296 1.391 . S
C295 N298 1.329 . S
C295 H305 0.930 . S
C296 C295 1.391 . S
C296 N297 1.334 . S
C296 H303 0.930 . S
N297 Zn281 2.119 . S
N297 C293 1.328 . S
N297 C296 1.334 . S
N298 C294 1.331 . S
N298 C295 1.329 . S
H299 C293 0.930 . S
C300 O280 1.257 . S
C300 O301 1.244 . S
O301 C300 1.244 . S
O302 C278 1.257 . S
O302 Zn281 2.019 . S
H303 C296 0.930 . S
H304 C283 0.930 . S
H305 C295 0.930 . S
Zn306 N310 2.020 . S
Zn306 O314 2.019 . S
Zn306 N316 2.119 . S
Zn306 O324 1.975 . S
C307 N308 1.334 . S
C307 N311 1.336 . S
N308 C307 1.334 . S
N308 C309 1.334 . S
C309 N308 1.334 . S
C309 N310 1.336 . S
N310 Zn306 2.020 . S
N310 C309 1.336 . S
N310 N311 1.354 . S
N311 C307 1.336 . S
N311 N310 1.354 . S
N311 Zn315 2.020 . S
C312 O313 1.244 . S
C312 O336 1.257 . S
O313 C312 1.244 . S
O314 Zn306 2.019 . S
O314 C334 1.257 . S
Zn315 N311 2.020 . S
Zn315 O322 1.975 . S
Zn315 N331 2.119 . S
Zn315 O336 2.019 . S
N316 Zn306 2.119 . S
N316 C318 1.334 . S
N316 C319 1.328 . S
C317 C318 1.391 . S
C317 N320 1.329 . S
C317 H338 0.930 . S
C318 N316 1.334 . S
C318 C317 1.391 . S
C318 H325 0.930 . S
C319 N316 1.328 . S
C319 C321 1.392 . S
C319 H326 0.930 . S
N320 C317 1.329 . S
N320 C321 1.331 . S
C321 C319 1.392 . S
C321 N320 1.331 . S
O322 Zn315 1.975 . S
O322 C323 1.252 . S
C323 O322 1.252 . S
C323 O324 1.252 . S
O324 Zn306 1.975 . S
O324 C323 1.252 . S
H325 C318 0.930 . S
H326 C319 0.930 . S
C327 C328 1.392 . S
C327 N331 1.328 . S
C327 H333 0.930 . S
C328 C327 1.392 . S
C328 N332 1.331 . S
C329 C330 1.391 . S
C329 N332 1.329 . S
C329 H339 0.930 . S
C330 C329 1.391 . S
C330 N331 1.334 . S
C330 H337 0.930 . S
N331 Zn315 2.119 . S
N331 C327 1.328 . S
N331 C330 1.334 . S
N332 C328 1.331 . S
N332 C329 1.329 . S
H333 C327 0.930 . S
C334 O314 1.257 . S
C334 O335 1.244 . S
O335 C334 1.244 . S
O336 C312 1.257 . S
O336 Zn315 2.019 . S
H337 C330 0.930 . S
H338 C317 0.930 . S
H339 C329 0.930 . S
Zn340 N344 2.020 . S
Zn340 O348 2.019 . S
Zn340 N350 2.119 . S
Zn340 O358 1.975 . S
C341 N342 1.334 . S
C341 N345 1.336 . S
N342 C341 1.334 . S
N342 C343 1.334 . S
C343 N342 1.334 . S
C343 N344 1.336 . S
N344 Zn340 2.020 . S
N344 C343 1.336 . S
N344 N345 1.354 . S
N345 C341 1.336 . S
N345 N344 1.354 . S
N345 Zn349 2.020 . S
C346 O347 1.244 . S
C346 O370 1.257 . S
O347 C346 1.244 . S
O348 Zn340 2.019 . S
O348 C368 1.257 . S
Zn349 N345 2.020 . S
Zn349 O356 1.975 . S
Zn349 N365 2.119 . S
Zn349 O370 2.019 . S
N350 Zn340 2.119 . S
N350 C352 1.334 . S
N350 C353 1.328 . S
C351 C352 1.391 . S
C351 N354 1.329 . S
C351 H372 0.930 . S
C352 N350 1.334 . S
C352 C351 1.391 . S
C352 H359 0.930 . S
C353 N350 1.328 . S
C353 C355 1.392 . S
C353 H360 0.930 . S
N354 C351 1.329 . S
N354 C355 1.331 . S
C355 C353 1.392 . S
C355 N354 1.331 . S
O356 Zn349 1.975 . S
O356 C357 1.252 . S
C357 O356 1.252 . S
C357 O358 1.252 . S
O358 Zn340 1.975 . S
O358 C357 1.252 . S
H359 C352 0.930 . S
H360 C353 0.930 . S
C361 C362 1.392 . S
C361 N365 1.328 . S
C361 H367 0.930 . S
C362 C361 1.392 . S
C362 N366 1.331 . S
C363 C364 1.391 . S
C363 N366 1.329 . S
C363 H373 0.930 . S
C364 C363 1.391 . S
C364 N365 1.334 . S
C364 H371 0.930 . S
N365 Zn349 2.119 . S
N365 C361 1.328 . S
N365 C364 1.334 . S
N366 C362 1.331 . S
N366 C363 1.329 . S
H367 C361 0.930 . S
C368 O348 1.257 . S
C368 O369 1.244 . S
O369 C368 1.244 . S
O370 C346 1.257 . S
O370 Zn349 2.019 . S
H371 C364 0.930 . S
H372 C351 0.930 . S
H373 C363 0.930 . S
Zn374 N378 2.020 . S
Zn374 O382 2.019 . S
Zn374 N384 2.119 . S
Zn374 O392 1.975 . S
C375 N376 1.334 . S
C375 N379 1.336 . S
N376 C375 1.334 . S
N376 C377 1.334 . S
C377 N376 1.334 . S
C377 N378 1.336 . S
N378 Zn374 2.020 . S
N378 C377 1.336 . S
N378 N379 1.354 . S
N379 C375 1.336 . S
N379 N378 1.354 . S
N379 Zn383 2.020 . S
C380 O381 1.244 . S
C380 O404 1.257 . S
O381 C380 1.244 . S
O382 Zn374 2.019 . S
O382 C402 1.257 . S
Zn383 N379 2.020 . S
Zn383 O390 1.975 . S
Zn383 N399 2.119 . S
Zn383 O404 2.019 . S
N384 Zn374 2.119 . S
N384 C386 1.334 . S
N384 C387 1.328 . S
C385 C386 1.391 . S
C385 N388 1.329 . S
C385 H406 0.930 . S
C386 N384 1.334 . S
C386 C385 1.391 . S
C386 H393 0.930 . S
C387 N384 1.328 . S
C387 C389 1.392 . S
C387 H394 0.930 . S
N388 C385 1.329 . S
N388 C389 1.331 . S
C389 C387 1.392 . S
C389 N388 1.331 . S
O390 Zn383 1.975 . S
O390 C391 1.252 . S
C391 O390 1.252 . S
C391 O392 1.252 . S
O392 Zn374 1.975 . S
O392 C391 1.252 . S
H393 C386 0.930 . S
H394 C387 0.930 . S
C395 C396 1.392 . S
C395 N399 1.328 . S
C395 H401 0.930 . S
C396 C395 1.392 . S
C396 N400 1.331 . S
C397 C398 1.391 . S
C397 N400 1.329 . S
C397 H407 0.930 . S
C398 C397 1.391 . S
C398 N399 1.334 . S
C398 H405 0.930 . S
N399 Zn383 2.119 . S
N399 C395 1.328 . S
N399 C398 1.334 . S
N400 C396 1.331 . S
N400 C397 1.329 . S
H401 C395 0.930 . S
C402 O382 1.257 . S
C402 O403 1.244 . S
O403 C402 1.244 . S
O404 C380 1.257 . S
O404 Zn383 2.019 . S
H405 C398 0.930 . S
H406 C385 0.930 . S
H407 C397 0.930 . S
H408 C416 0.929 . S
H409 C418 0.930 . S
H410 C420 0.930 . S
H411 C423 0.929 . S
H412 C426 0.930 . S
H413 C428 0.960 . S
H414 C428 0.960 . S
H415 C428 0.960 . S
C416 H408 0.929 . S
C416 C417 1.377 . S
C416 C418 1.384 . S
C417 C416 1.377 . S
C417 C423 1.390 . S
C418 H409 0.930 . S
C418 C416 1.384 . S
C418 C419 1.372 . S
C419 C418 1.372 . S
C419 C420 1.400 . S
C419 C424 1.490 . S
C420 H410 0.930 . S
C420 C419 1.400 . S
C420 C423 1.386 . S
H421 C437 0.930 . S
H422 C438 0.931 . S
C423 H411 0.929 . S
C423 C417 1.390 . S
C423 C420 1.386 . S
C424 C419 1.490 . S
C424 C426 1.395 . S
C424 C427 1.403 . S
H425 C431 0.930 . S
C426 H412 0.930 . S
C426 C424 1.395 . S
C426 C429 1.403 1_545 S
C427 C424 1.403 . S
C427 C428 1.524 . S
C427 C431 1.400 1_545 S
C428 H413 0.960 . S
C428 H414 0.960 . S
C428 H415 0.960 . S
C428 C427 1.524 . S
C429 C426 1.403 1_565 S
C429 C430 1.392 . S
C429 C433 1.495 . S
C430 C429 1.392 . S
C430 C431 1.385 . S
C430 C432 1.478 . S
C431 H425 0.930 . S
C431 C427 1.400 1_565 S
C431 C430 1.385 . S
C432 C430 1.478 . S
C432 C434 1.381 . S
C432 C438 1.383 . S
C433 C429 1.495 . S
C433 H439 0.959 . S
C433 H440 0.961 . S
C433 H441 0.960 . S
C434 C432 1.381 . S
C434 C435 1.394 . S
C434 H442 0.930 . S
C435 C434 1.394 . S
C435 C436 1.383 . S
C435 H443 0.929 . S
C436 C435 1.383 . S
C436 C437 1.377 . S
C437 H421 0.930 . S
C437 C436 1.377 . S
C437 C438 1.379 . S
C438 H422 0.931 . S
C438 C432 1.383 . S
C438 C437 1.379 . S
H439 C433 0.959 . S
H440 C433 0.961 . S
H441 C433 0.960 . S
H442 C434 0.930 . S
H443 C435 0.929 . S
H444 C452 0.929 . S
H445 C454 0.930 . S
H446 C456 0.930 . S
H447 C459 0.929 . S
H448 C462 0.930 . S
H449 C464 0.960 . S
H450 C464 0.960 . S
H451 C464 0.960 . S
C452 H444 0.929 . S
C452 C453 1.377 . S
C452 C454 1.384 . S
C453 C452 1.377 . S
C453 C459 1.390 . S
C454 H445 0.930 . S
C454 C452 1.384 . S
C454 C455 1.372 . S
C455 C454 1.372 . S
C455 C456 1.400 . S
C455 C460 1.490 . S
C456 H446 0.930 . S
C456 C455 1.400 . S
C456 C459 1.386 . S
H457 C473 0.930 . S
H458 C474 0.931 . S
C459 H447 0.929 . S
C459 C453 1.390 . S
C459 C456 1.386 . S
C460 C455 1.490 . S
C460 C462 1.395 . S
C460 C463 1.403 . S
H461 C467 0.930 . S
C462 H448 0.930 . S
C462 C460 1.395 . S
C462 C465 1.403 . S
C463 C460 1.403 . S
C463 C464 1.524 . S
C463 C467 1.400 . S
C464 H449 0.960 . S
C464 H450 0.960 . S
C464 H451 0.960 . S
C464 C463 1.524 . S
C465 C462 1.403 . S
C465 C466 1.392 . S
C465 C469 1.495 . S
C466 C465 1.392 . S
C466 C467 1.385 . S
C466 C468 1.478 . S
C467 H461 0.930 . S
C467 C463 1.400 . S
C467 C466 1.385 . S
C468 C466 1.478 . S
C468 C470 1.381 . S
C468 C474 1.383 . S
C469 C465 1.495 . S
C469 H475 0.959 . S
C469 H476 0.961 . S
C469 H477 0.960 . S
C470 C468 1.381 . S
C470 C471 1.394 . S
C470 H478 0.930 . S
C471 C470 1.394 . S
C471 C472 1.383 . S
C471 H479 0.929 . S
C472 C471 1.383 . S
C472 C473 1.377 . S
C473 H457 0.930 . S
C473 C472 1.377 . S
C473 C474 1.379 . S
C474 H458 0.931 . S
C474 C468 1.383 . S
C474 C473 1.379 . S
H475 C469 0.959 . S
H476 C469 0.961 . S
H477 C469 0.960 . S
H478 C470 0.930 . S
H479 C471 0.929 . S
H480 C488 0.929 . S
H481 C490 0.930 . S
H482 C492 0.930 . S
H483 C495 0.929 . S
H484 C498 0.930 . S
H485 C500 0.960 . S
H486 C500 0.960 . S
H487 C500 0.960 . S
C488 H480 0.929 . S
C488 C489 1.377 . S
C488 C490 1.384 . S
C489 C488 1.377 . S
C489 C495 1.390 . S
C490 H481 0.930 . S
C490 C488 1.384 . S
C490 C491 1.372 . S
C491 C490 1.372 . S
C491 C492 1.400 . S
C491 C496 1.490 . S
C492 H482 0.930 . S
C492 C491 1.400 . S
C492 C495 1.386 . S
H493 C509 0.930 . S
H494 C510 0.931 . S
C495 H483 0.929 . S
C495 C489 1.390 . S
C495 C492 1.386 . S
C496 C491 1.490 . S
C496 C498 1.395 1_455 S
C496 C499 1.403 . S
H497 C503 0.939 . S
C498 H484 0.930 . S
C498 C496 1.395 1_655 S
C498 C501 1.403 . S
C499 C496 1.403 . S
C499 C500 1.524 . S
C499 C503 1.417 . S
C500 H485 0.960 . S
C500 H486 0.960 . S
C500 H487 0.960 . S
C500 C499 1.524 . S
C501 C498 1.403 . S
C501 C502 1.392 . S
C501 C505 1.495 . S
C502 C501 1.392 . S
C502 C503 1.360 1_655 S
C502 C504 1.478 . S
C503 H497 0.939 . S
C503 C499 1.417 . S
C503 C502 1.360 1_455 S
C504 C502 1.478 . S
C504 C506 1.381 . S
C504 C510 1.383 . S
C505 C501 1.495 . S
C505 H511 0.959 . S
C505 H512 0.961 . S
C505 H513 0.960 . S
C506 C504 1.381 . S
C506 C507 1.394 . S
C506 H514 0.930 . S
C507 C506 1.394 . S
C507 C508 1.383 . S
C507 H515 0.929 . S
C508 C507 1.383 . S
C508 C509 1.377 . S
C509 H493 0.930 . S
C509 C508 1.377 . S
C509 C510 1.379 . S
C510 H494 0.931 . S
C510 C504 1.383 . S
C510 C509 1.379 . S
H511 C505 0.959 . S
H512 C505 0.961 . S
H513 C505 0.960 . S
H514 C506 0.930 . S
H515 C507 0.929 . S
H516 C524 0.929 . S
H517 C526 0.930 . S
H518 C528 0.930 . S
H519 C531 0.929 . S
H520 C534 0.915 . S
H521 C536 0.960 . S
H522 C536 0.960 . S
H523 C536 0.960 . S
C524 H516 0.929 . S
C524 C525 1.377 . S
C524 C526 1.384 . S
C525 C524 1.377 . S
C525 C531 1.390 . S
C526 H517 0.930 . S
C526 C524 1.384 . S
C526 C527 1.372 . S
C527 C526 1.372 . S
C527 C528 1.400 . S
C527 C532 1.490 . S
C528 H518 0.930 . S
C528 C527 1.400 . S
C528 C531 1.386 . S
H529 C545 0.930 . S
H530 C546 0.931 . S
C531 H519 0.929 . S
C531 C525 1.390 . S
C531 C528 1.386 . S
C532 C527 1.490 . S
C532 C534 1.395 1_565 S
C532 C535 1.403 . S
H533 C539 0.930 . S
C534 H520 0.915 . S
C534 C532 1.395 1_545 S
C534 C537 1.403 . S
C535 C532 1.403 . S
C535 C536 1.524 . S
C535 C539 1.400 1_565 S
C536 H521 0.960 . S
C536 H522 0.960 . S
C536 H523 0.960 . S
C536 C535 1.524 . S
C537 C534 1.403 . S
C537 C538 1.392 . S
C537 C541 1.495 . S
C538 C537 1.392 . S
C538 C539 1.385 . S
C538 C540 1.478 . S
C539 H533 0.930 . S
C539 C535 1.400 1_545 S
C539 C538 1.385 . S
C540 C538 1.478 . S
C540 C542 1.381 . S
C540 C546 1.383 . S
C541 C537 1.495 . S
C541 H547 0.959 . S
C541 H548 0.961 . S
C541 H549 0.960 . S
C542 C540 1.381 . S
C542 C543 1.394 . S
C542 H550 0.930 . S
C543 C542 1.394 . S
C543 C544 1.383 . S
C543 H551 0.929 . S
C544 C543 1.383 . S
C544 C545 1.377 . S
C545 H529 0.930 . S
C545 C544 1.377 . S
C545 C546 1.379 . S
C546 H530 0.931 . S
C546 C540 1.383 . S
C546 C545 1.379 . S
H547 C541 0.959 . S
H548 C541 0.961 . S
H549 C541 0.960 . S
H550 C542 0.930 . S
H551 C543 0.929 . S
H552 C560 0.929 . S
H553 C562 0.930 . S
H554 C564 0.930 . S
H555 C567 0.929 . S
H556 C570 0.930 . S
H557 C572 0.960 . S
H558 C572 0.960 . S
H559 C572 0.960 . S
C560 H552 0.929 . S
C560 C561 1.377 . S
C560 C562 1.384 . S
C561 C560 1.377 . S
C561 C567 1.390 . S
C562 H553 0.930 . S
C562 C560 1.384 . S
C562 C563 1.372 . S
C563 C562 1.372 . S
C563 C564 1.400 . S
C563 C568 1.490 . S
C564 H554 0.930 . S
C564 C563 1.400 . S
C564 C567 1.386 . S
H565 C581 0.930 . S
H566 C582 0.931 . S
C567 H555 0.929 . S
C567 C561 1.390 . S
C567 C564 1.386 . S
C568 C563 1.490 . S
C568 C570 1.395 . S
C568 C571 1.403 . S
H569 C575 0.930 . S
C570 H556 0.930 . S
C570 C568 1.395 . S
C570 C573 1.403 . S
C571 C568 1.403 . S
C571 C572 1.524 . S
C571 C575 1.400 . S
C572 H557 0.960 . S
C572 H558 0.960 . S
C572 H559 0.960 . S
C572 C571 1.524 . S
C573 C570 1.403 . S
C573 C574 1.392 . S
C573 C577 1.495 . S
C574 C573 1.392 . S
C574 C575 1.385 . S
C574 C576 1.478 . S
C575 H569 0.930 . S
C575 C571 1.400 . S
C575 C574 1.385 . S
C576 C574 1.478 . S
C576 C578 1.381 . S
C576 C582 1.383 . S
C577 C573 1.495 . S
C577 H583 0.959 . S
C577 H584 0.961 . S
C577 H585 0.960 . S
C578 C576 1.381 . S
C578 C579 1.394 . S
C578 H586 0.930 . S
C579 C578 1.394 . S
C579 C580 1.383 . S
C579 H587 0.929 . S
C580 C579 1.383 . S
C580 C581 1.377 . S
C581 H565 0.930 . S
C581 C580 1.377 . S
C581 C582 1.379 . S
C582 H566 0.931 . S
C582 C576 1.383 . S
C582 C581 1.379 . S
H583 C577 0.959 . S
H584 C577 0.961 . S
H585 C577 0.960 . S
H586 C578 0.930 . S
H587 C579 0.929 . S
H588 C596 0.929 . S
H589 C598 0.930 . S
H590 C600 0.930 . S
H591 C603 0.929 . S
H592 C606 0.930 . S
H593 C608 0.960 . S
H594 C608 0.960 . S
H595 C608 0.960 . S
C596 H588 0.929 . S
C596 C597 1.377 . S
C596 C598 1.384 . S
C597 C596 1.377 . S
C597 C603 1.390 . S
C598 H589 0.930 . S
C598 C596 1.384 . S
C598 C599 1.372 . S
C599 C598 1.372 . S
C599 C600 1.400 . S
C599 C604 1.490 . S
C600 H590 0.930 . S
C600 C599 1.400 . S
C600 C603 1.386 . S
H601 C617 0.930 . S
H602 C618 0.931 . S
C603 H591 0.929 . S
C603 C597 1.390 . S
C603 C600 1.386 . S
C604 C599 1.490 . S
C604 C606 1.395 . S
C604 C607 1.403 1_655 S
H605 C611 0.930 . S
C606 H592 0.930 . S
C606 C604 1.395 . S
C606 C609 1.403 . S
C607 C604 1.403 1_455 S
C607 C608 1.524 . S
C607 C611 1.400 . S
C608 H593 0.960 . S
C608 H594 0.960 . S
C608 H595 0.960 . S
C608 C607 1.524 . S
C609 C606 1.403 . S
C609 C610 1.392 1_655 S
C609 C613 1.495 . S
C610 C609 1.392 1_455 S
C610 C611 1.385 . S
C610 C612 1.478 . S
C611 H605 0.930 . S
C611 C607 1.400 . S
C611 C610 1.385 . S
C612 C610 1.478 . S
C612 C614 1.381 . S
C612 C618 1.383 . S
C613 C609 1.495 . S
C613 H619 0.959 . S
C613 H620 0.961 . S
C613 H621 0.960 . S
C614 C612 1.381 . S
C614 C615 1.394 . S
C614 H622 0.930 . S
C615 C614 1.394 . S
C615 C616 1.383 . S
C615 H623 0.929 . S
C616 C615 1.383 . S
C616 C617 1.377 . S
C617 H601 0.930 . S
C617 C616 1.377 . S
C617 C618 1.379 . S
C618 H602 0.931 . S
C618 C612 1.383 . S
C618 C617 1.379 . S
H619 C613 0.959 . S
H620 C613 0.961 . S
H621 C613 0.960 . S
H622 C614 0.930 . S
H623 C615 0.929 . S
H624 C632 0.929 . S
H625 C634 0.930 . S
H626 C636 0.930 . S
H627 C639 0.929 . S
H628 C642 0.930 . S
H629 C644 0.960 . S
H630 C644 0.960 . S
H631 C644 0.960 . S
C632 H624 0.929 . S
C632 C633 1.377 . S
C632 C634 1.384 . S
C633 C632 1.377 . S
C633 C639 1.390 . S
C634 H625 0.930 . S
C634 C632 1.384 . S
C634 C635 1.372 . S
C635 C634 1.372 . S
C635 C636 1.400 . S
C635 C640 1.490 . S
C636 H626 0.930 . S
C636 C635 1.400 . S
C636 C639 1.386 . S
H637 C653 0.930 . S
H638 C654 0.931 . S
C639 H627 0.929 . S
C639 C633 1.390 . S
C639 C636 1.386 . S
C640 C635 1.490 . S
C640 C642 1.395 1_545 S
C640 C643 1.403 . S
H641 C647 0.930 . S
C642 H628 0.930 . S
C642 C640 1.395 1_565 S
C642 C645 1.403 . S
C643 C640 1.403 . S
C643 C644 1.524 . S
C643 C647 1.400 . S
C644 H629 0.960 . S
C644 H630 0.960 . S
C644 H631 0.960 . S
C644 C643 1.524 . S
C645 C642 1.403 . S
C645 C646 1.392 . S
C645 C649 1.495 . S
C646 C645 1.392 . S
C646 C647 1.385 1_565 S
C646 C648 1.478 . S
C647 H641 0.930 . S
C647 C643 1.400 . S
C647 C646 1.385 1_545 S
C648 C646 1.478 . S
C648 C650 1.381 . S
C648 C654 1.383 . S
C649 C645 1.495 . S
C649 H655 0.959 . S
C649 H656 0.961 . S
C649 H657 0.960 . S
C650 C648 1.381 . S
C650 C651 1.394 . S
C650 H658 0.930 . S
C651 C650 1.394 . S
C651 C652 1.383 . S
C651 H659 0.929 . S
C652 C651 1.383 . S
C652 C653 1.377 . S
C653 H637 0.930 . S
C653 C652 1.377 . S
C653 C654 1.379 . S
C654 H638 0.931 . S
C654 C648 1.383 . S
C654 C653 1.379 . S
H655 C649 0.959 . S
H656 C649 0.961 . S
H657 C649 0.960 . S
H658 C650 0.930 . S
H659 C651 0.929 . S
H660 C668 0.929 . S
H661 C670 0.930 . S
H662 C672 0.930 . S
H663 C675 0.929 . S
H664 C678 0.930 . S
H665 C680 0.960 . S
H666 C680 0.960 . S
H667 C680 0.960 . S
C668 H660 0.929 . S
C668 C669 1.377 . S
C668 C670 1.384 . S
C669 C668 1.377 . S
C669 C675 1.390 . S
C670 H661 0.930 . S
C670 C668 1.384 . S
C670 C671 1.372 . S
C671 C670 1.372 . S
C671 C672 1.400 . S
C671 C676 1.490 . S
C672 H662 0.930 . S
C672 C671 1.400 . S
C672 C675 1.386 . S
H673 C689 0.930 . S
H674 C690 0.931 . S
C675 H663 0.929 . S
C675 C669 1.390 . S
C675 C672 1.386 . S
C676 C671 1.490 . S
C676 C678 1.395 . S
C676 C679 1.403 . S
H677 C683 0.930 . S
C678 H664 0.930 . S
C678 C676 1.395 . S
C678 C681 1.403 . S
C679 C676 1.403 . S
C679 C680 1.524 . S
C679 C683 1.400 . S
C680 H665 0.960 . S
C680 H666 0.960 . S
C680 H667 0.960 . S
C680 C679 1.524 . S
C681 C678 1.403 . S
C681 C682 1.392 . S
C681 C685 1.495 . S
C682 C681 1.392 . S
C682 C683 1.385 . S
C682 C684 1.478 . S
C683 H677 0.930 . S
C683 C679 1.400 . S
C683 C682 1.385 . S
C684 C682 1.478 . S
C684 C686 1.381 . S
C684 C690 1.383 . S
C685 C681 1.495 . S
C685 H691 0.959 . S
C685 H692 0.961 . S
C685 H693 0.960 . S
C686 C684 1.381 . S
C686 C687 1.394 . S
C686 H694 0.930 . S
C687 C686 1.394 . S
C687 C688 1.383 . S
C687 H695 0.929 . S
C688 C687 1.383 . S
C688 C689 1.377 . S
C689 H673 0.930 . S
C689 C688 1.377 . S
C689 C690 1.379 . S
C690 H674 0.931 . S
C690 C684 1.383 . S
C690 C689 1.379 . S
H691 C685 0.959 . S
H692 C685 0.961 . S
H693 C685 0.960 . S
H694 C686 0.930 . S
H695 C687 0.929 . S
H696 C704 0.929 . S
H697 C706 0.930 . S
H698 C708 0.930 . S
H699 C711 0.929 . S
H700 C714 0.930 . S
H701 C716 0.960 . S
H702 C716 0.960 . S
H703 C716 0.960 . S
C704 H696 0.929 . S
C704 C705 1.377 . S
C704 C706 1.384 . S
C705 C704 1.377 . S
C705 C711 1.390 . S
C706 H697 0.930 . S
C706 C704 1.384 . S
C706 C707 1.372 . S
C707 C706 1.372 . S
C707 C708 1.400 . S
C707 C712 1.490 . S
C708 H698 0.930 . S
C708 C707 1.400 . S
C708 C711 1.386 . S
H709 C725 0.930 . S
H710 C726 0.931 . S
C711 H699 0.929 . S
C711 C705 1.390 . S
C711 C708 1.386 . S
C712 C707 1.490 . S
C712 C714 1.395 . S
C712 C715 1.403 . S
H713 C719 0.930 . S
C714 H700 0.930 . S
C714 C712 1.395 . S
C714 C717 1.403 1_455 S
C715 C712 1.403 . S
C715 C716 1.524 . S
C715 C719 1.400 1_455 S
C716 H701 0.960 . S
C716 H702 0.960 . S
C716 H703 0.960 . S
C716 C715 1.524 . S
C717 C714 1.403 1_655 S
C717 C718 1.392 . S
C717 C721 1.495 . S
C718 C717 1.392 . S
C718 C719 1.385 . S
C718 C720 1.478 . S
C719 H713 0.930 . S
C719 C715 1.400 1_655 S
C719 C718 1.385 . S
C720 C718 1.478 . S
C720 C722 1.381 . S
C720 C726 1.383 . S
C721 C717 1.495 . S
C721 H727 0.959 . S
C721 H728 0.961 . S
C721 H729 0.960 . S
C722 C720 1.381 . S
C722 C723 1.394 . S
C722 H730 0.930 . S
C723 C722 1.394 . S
C723 C724 1.383 . S
C723 H731 0.929 . S
C724 C723 1.383 . S
C724 C725 1.377 . S
C725 H709 0.930 . S
C725 C724 1.377 . S
C725 C726 1.379 . S
C726 H710 0.931 . S
C726 C720 1.383 . S
C726 C725 1.379 . S
H727 C721 0.959 . S
H728 C721 0.961 . S
H729 C721 0.960 . S
H730 C722 0.930 . S
H731 C723 0.929 . S
H732 C740 0.929 . S
H733 C742 0.930 . S
H734 C744 0.930 . S
H735 C747 0.929 . S
H736 C750 0.930 . S
H737 C752 0.960 . S
H738 C752 0.960 . S
H739 C752 0.960 . S
C740 H732 0.929 . S
C740 C741 1.377 . S
C740 C742 1.384 . S
C741 C740 1.377 . S
C741 C747 1.390 . S
C742 H733 0.930 . S
C742 C740 1.384 . S
C742 C743 1.372 . S
C743 C742 1.372 . S
C743 C744 1.400 . S
C743 C748 1.490 . S
C744 H734 0.930 . S
C744 C743 1.400 . S
C744 C747 1.386 . S
H745 C761 0.930 . S
H746 C762 0.931 . S
C747 H735 0.929 . S
C747 C741 1.390 . S
C747 C744 1.386 . S
C748 C743 1.490 . S
C748 C750 1.395 1_545 S
C748 C751 1.403 . S
H749 C755 0.926 . S
C750 H736 0.930 . S
C750 C748 1.395 1_565 S
C750 C753 1.403 . S
C751 C748 1.403 . S
C751 C752 1.524 . S
C751 C755 1.423 . S
C752 H737 0.960 . S
C752 H738 0.960 . S
C752 H739 0.960 . S
C752 C751 1.524 . S
C753 C750 1.403 . S
C753 C754 1.392 . S
C753 C757 1.495 . S
C754 C753 1.392 . S
C754 C755 1.368 1_565 S
C754 C756 1.478 . S
C755 H749 0.926 . S
C755 C751 1.423 . S
C755 C754 1.368 1_545 S
C756 C754 1.478 . S
C756 C758 1.381 . S
C756 C762 1.383 . S
C757 C753 1.495 . S
C757 H763 0.959 . S
C757 H764 0.961 . S
C757 H765 0.960 . S
C758 C756 1.381 . S
C758 C759 1.394 . S
C758 H766 0.930 . S
C759 C758 1.394 . S
C759 C760 1.383 . S
C759 H767 0.929 . S
C760 C759 1.383 . S
C760 C761 1.377 . S
C761 H745 0.930 . S
C761 C760 1.377 . S
C761 C762 1.379 . S
C762 H746 0.931 . S
C762 C756 1.383 . S
C762 C761 1.379 . S
H763 C757 0.959 . S
H764 C757 0.961 . S
H765 C757 0.960 . S
H766 C758 0.930 . S
H767 C759 0.929 . S
H768 C776 0.929 . S
H769 C778 0.930 . S
H770 C780 0.930 . S
H771 C783 0.929 . S
H772 C786 0.930 . S
H773 C788 0.960 . S
H774 C788 0.960 . S
H775 C788 0.960 . S
C776 H768 0.929 . S
C776 C777 1.377 . S
C776 C778 1.384 . S
C777 C776 1.377 . S
C777 C783 1.390 . S
C778 H769 0.930 . S
C778 C776 1.384 . S
C778 C779 1.372 . S
C779 C778 1.372 . S
C779 C780 1.400 . S
C779 C784 1.490 . S
C780 H770 0.930 . S
C780 C779 1.400 . S
C780 C783 1.386 . S
H781 C797 0.930 . S
H782 C798 0.931 . S
C783 H771 0.929 . S
C783 C777 1.390 . S
C783 C780 1.386 . S
C784 C779 1.490 . S
C784 C786 1.395 . S
C784 C787 1.403 . S
H785 C791 0.930 . S
C786 H772 0.930 . S
C786 C784 1.395 . S
C786 C789 1.403 . S
C787 C784 1.403 . S
C787 C788 1.524 . S
C787 C791 1.400 . S
C788 H773 0.960 . S
C788 H774 0.960 . S
C788 H775 0.960 . S
C788 C787 1.524 . S
C789 C786 1.403 . S
C789 C790 1.392 . S
C789 C793 1.495 . S
C790 C789 1.392 . S
C790 C791 1.385 . S
C790 C792 1.478 . S
C791 H785 0.930 . S
C791 C787 1.400 . S
C791 C790 1.385 . S
C792 C790 1.478 . S
C792 C794 1.381 . S
C792 C798 1.383 . S
C793 C789 1.495 . S
C793 H799 0.959 . S
C793 H800 0.961 . S
C793 H801 0.960 . S
C794 C792 1.381 . S
C794 C795 1.394 . S
C794 H802 0.930 . S
C795 C794 1.394 . S
C795 C796 1.383 . S
C795 H803 0.929 . S
C796 C795 1.383 . S
C796 C797 1.377 . S
C797 H781 0.930 . S
C797 C796 1.377 . S
C797 C798 1.379 . S
C798 H782 0.931 . S
C798 C792 1.383 . S
C798 C797 1.379 . S
H799 C793 0.959 . S
H800 C793 0.961 . S
H801 C793 0.960 . S
H802 C794 0.930 . S
H803 C795 0.929 . S
H804 C812 0.929 . S
H805 C814 0.930 . S
H806 C816 0.930 . S
H807 C819 0.929 . S
H808 C822 0.930 . S
H809 C824 0.960 . S
H810 C824 0.960 . S
H811 C824 0.960 . S
C812 H804 0.929 . S
C812 C813 1.377 . S
C812 C814 1.384 . S
C813 C812 1.377 . S
C813 C819 1.390 . S
C814 H805 0.930 . S
C814 C812 1.384 . S
C814 C815 1.372 . S
C815 C814 1.372 . S
C815 C816 1.400 . S
C815 C820 1.490 . S
C816 H806 0.930 . S
C816 C815 1.400 . S
C816 C819 1.386 . S
H817 C833 0.930 . S
H818 C834 0.931 . S
C819 H807 0.929 . S
C819 C813 1.390 . S
C819 C816 1.386 . S
C820 C815 1.490 . S
C820 C822 1.395 1_455 S
C820 C823 1.403 . S
H821 C827 0.930 . S
C822 H808 0.930 . S
C822 C820 1.395 1_655 S
C822 C825 1.403 . S
C823 C820 1.403 . S
C823 C824 1.524 . S
C823 C827 1.400 . S
C824 H809 0.960 . S
C824 H810 0.960 . S
C824 H811 0.960 . S
C824 C823 1.524 . S
C825 C822 1.403 . S
C825 C826 1.392 . S
C825 C829 1.495 . S
C826 C825 1.392 . S
C826 C827 1.385 1_655 S
C826 C828 1.478 . S
C827 H821 0.930 . S
C827 C823 1.400 . S
C827 C826 1.385 1_455 S
C828 C826 1.478 . S
C828 C830 1.381 . S
C828 C834 1.383 . S
C829 C825 1.495 . S
C829 H835 0.959 . S
C829 H836 0.961 . S
C829 H837 0.960 . S
C830 C828 1.381 . S
C830 C831 1.394 . S
C830 H838 0.930 . S
C831 C830 1.394 . S
C831 C832 1.383 . S
C831 H839 0.929 . S
C832 C831 1.383 . S
C832 C833 1.377 . S
C833 H817 0.930 . S
C833 C832 1.377 . S
C833 C834 1.379 . S
C834 H818 0.931 . S
C834 C828 1.383 . S
C834 C833 1.379 . S
H835 C829 0.959 . S
H836 C829 0.961 . S
H837 C829 0.960 . S
H838 C830 0.930 . S
H839 C831 0.929 . S
H840 C848 0.929 . S
H841 C850 0.930 . S
H842 C852 0.930 . S
H843 C855 0.929 . S
H844 C858 0.930 . S
H845 C860 0.960 . S
H846 C860 0.935 1_565 S
H847 C860 0.960 . S
C848 H840 0.929 . S
C848 C849 1.382 . S
C848 C850 1.384 . S
C849 C848 1.382 . S
C849 C855 1.386 1_556 S
C850 H841 0.930 . S
C850 C848 1.384 . S
C850 C851 1.372 . S
C851 C850 1.372 . S
C851 C852 1.400 1_556 S
C851 C856 1.490 . S
C852 H842 0.930 . S
C852 C851 1.400 1_554 S
C852 C855 1.386 . S
H853 C869 0.930 . S
H854 C870 0.931 . S
C855 H843 0.929 . S
C855 C849 1.386 1_554 S
C855 C852 1.386 . S
C856 C851 1.490 . S
C856 C858 1.394 1_556 S
C856 C859 1.403 1_565 S
H857 C863 0.930 . S
C858 H844 0.930 . S
C858 C856 1.394 1_554 S
C858 C861 1.403 . S
C859 C856 1.403 1_545 S
C859 C860 1.524 . S
C859 C863 1.400 . S
C860 H845 0.960 . S
C860 H846 0.935 1_545 S
C860 H847 0.960 . S
C860 C859 1.524 . S
C861 C858 1.403 . S
C861 C862 1.392 1_565 S
C861 C865 1.495 . S
C862 C861 1.392 1_545 S
C862 C863 1.385 1_554 S
C862 C864 1.478 . S
C863 H857 0.930 . S
C863 C859 1.400 . S
C863 C862 1.385 1_556 S
C864 C862 1.478 . S
C864 C866 1.381 1_554 S
C864 C870 1.383 . S
C865 C861 1.495 . S
C865 H871 0.959 . S
C865 H872 0.961 . S
C865 H873 0.960 . S
C866 C864 1.381 1_556 S
C866 C867 1.394 . S
C866 H874 0.930 . S
C867 C866 1.394 . S
C867 C868 1.383 1_556 S
C867 H875 0.929 . S
C868 C867 1.383 1_554 S
C868 C869 1.377 . S
C869 H853 0.930 . S
C869 C868 1.377 . S
C869 C870 1.379 . S
C870 H854 0.931 . S
C870 C864 1.383 . S
C870 C869 1.379 . S
H871 C865 0.959 . S
H872 C865 0.961 . S
H873 C865 0.960 . S
H874 C866 0.930 . S
H875 C867 0.929 . S
H876 C884 0.929 . S
H877 C886 0.930 . S
H878 C888 0.930 . S
H879 C891 0.929 . S
H880 C894 0.930 . S
H881 C896 0.960 . S
H882 C896 0.960 . S
H883 C896 0.960 . S
C884 H876 0.929 . S
C884 C885 1.390 . S
C884 C886 1.384 . S
C885 C884 1.390 . S
C885 C891 1.378 1_554 S
C886 H877 0.930 . S
C886 C884 1.384 . S
C886 C887 1.372 . S
C887 C886 1.372 . S
C887 C888 1.400 1_554 S
C887 C892 1.490 . S
C888 H878 0.930 . S
C888 C887 1.400 1_556 S
C888 C891 1.386 . S
H889 C905 0.930 . S
H890 C906 0.931 . S
C891 H879 0.929 . S
C891 C885 1.378 1_556 S
C891 C888 1.386 . S
C892 C887 1.490 . S
C892 C894 1.395 1_554 S
C892 C895 1.403 . S
H893 C899 0.930 . S
C894 H880 0.930 . S
C894 C892 1.395 1_556 S
C894 C897 1.403 . S
C895 C892 1.403 . S
C895 C896 1.524 . S
C895 C899 1.400 . S
C896 H881 0.960 . S
C896 H882 0.960 . S
C896 H883 0.960 . S
C896 C895 1.524 . S
C897 C894 1.403 . S
C897 C898 1.392 . S
C897 C901 1.495 . S
C898 C897 1.392 . S
C898 C899 1.385 1_556 S
C898 C900 1.478 . S
C899 H893 0.930 . S
C899 C895 1.400 . S
C899 C898 1.385 1_554 S
C900 C898 1.478 . S
C900 C902 1.381 1_556 S
C900 C906 1.383 . S
C901 C897 1.495 . S
C901 H907 0.959 . S
C901 H908 0.961 . S
C901 H909 0.960 . S
C902 C900 1.381 1_554 S
C902 C903 1.394 . S
C902 H910 0.930 . S
C903 C902 1.394 . S
C903 C904 1.383 1_554 S
C903 H911 0.929 . S
C904 C903 1.383 1_556 S
C904 C905 1.377 . S
C905 H889 0.930 . S
C905 C904 1.377 . S
C905 C906 1.379 . S
C906 H890 0.931 . S
C906 C900 1.383 . S
C906 C905 1.379 . S
H907 C901 0.959 . S
H908 C901 0.961 . S
H909 C901 0.960 . S
H910 C902 0.930 . S
H911 C903 0.929 . S
H912 C920 0.929 . S
H913 C922 0.930 . S
H914 C924 0.930 . S
H915 C927 0.929 . S
H916 C930 0.930 . S
H917 C932 0.960 . S
H918 C932 0.960 . S
H919 C932 0.960 1_455 S
C920 H912 0.929 . S
C920 C921 1.378 . S
C920 C922 1.384 . S
C921 C920 1.378 . S
C921 C927 1.389 1_556 S
C922 H913 0.930 . S
C922 C920 1.384 . S
C922 C923 1.372 . S
C923 C922 1.372 . S
C923 C924 1.400 1_556 S
C923 C928 1.490 . S
C924 H914 0.930 . S
C924 C923 1.400 1_554 S
C924 C927 1.386 . S
H925 C941 0.930 . S
H926 C942 0.931 . S
C927 H915 0.929 . S
C927 C921 1.389 1_554 S
C927 C924 1.386 . S
C928 C923 1.490 . S
C928 C930 1.395 . S
C928 C931 1.403 1_456 S
H929 C935 0.930 . S
C930 H916 0.930 . S
C930 C928 1.395 . S
C930 C933 1.403 . S
C931 C928 1.403 1_654 S
C931 C932 1.524 . S
C931 C935 1.400 . S
C932 H917 0.960 . S
C932 H918 0.960 . S
C932 H919 0.960 1_655 S
C932 C931 1.524 . S
C933 C930 1.403 . S
C933 C934 1.392 1_455 S
C933 C937 1.495 . S
C934 C933 1.392 1_655 S
C934 C935 1.385 1_556 S
C934 C936 1.478 . S
C935 H929 0.930 . S
C935 C931 1.400 . S
C935 C934 1.385 1_554 S
C936 C934 1.478 . S
C936 C938 1.381 . S
C936 C942 1.383 1_556 S
C937 C933 1.495 . S
C937 H943 0.959 . S
C937 H944 0.961 . S
C937 H945 0.960 1_455 S
C938 C936 1.381 . S
C938 C939 1.394 . S
C938 H946 0.930 . S
C939 C938 1.394 . S
C939 C940 1.383 . S
C939 H947 0.929 . S
C940 C939 1.383 . S
C940 C941 1.377 1_556 S
C941 H925 0.930 . S
C941 C940 1.377 1_554 S
C941 C942 1.379 . S
C942 H926 0.931 . S
C942 C936 1.383 1_554 S
C942 C941 1.379 . S
H943 C937 0.959 . S
H944 C937 0.961 . S
H945 C937 0.960 1_655 S
H946 C938 0.930 . S
H947 C939 0.929 . S
H948 C956 0.929 . S
H949 C958 0.930 . S
H950 C960 0.930 . S
H951 C963 0.929 . S
H952 C966 0.930 . S
H953 C968 0.960 . S
H954 C968 0.960 . S
H955 C968 0.960 . S
C956 H948 0.929 . S
C956 C957 1.377 . S
C956 C958 1.384 . S
C957 C956 1.377 . S
C957 C963 1.390 . S
C958 H949 0.930 . S
C958 C956 1.384 . S
C958 C959 1.372 . S
C959 C958 1.372 . S
C959 C960 1.400 . S
C959 C964 1.490 . S
C960 H950 0.930 . S
C960 C959 1.400 . S
C960 C963 1.386 . S
H961 C977 0.930 . S
H962 C978 0.931 . S
C963 H951 0.929 . S
C963 C957 1.390 . S
C963 C960 1.386 . S
C964 C959 1.490 . S
C964 C966 1.395 1_655 S
C964 C967 1.403 . S
H965 C971 0.930 . S
C966 H952 0.930 . S
C966 C964 1.395 1_455 S
C966 C969 1.403 . S
C967 C964 1.403 . S
C967 C968 1.524 . S
C967 C971 1.400 . S
C968 H953 0.960 . S
C968 H954 0.960 . S
C968 H955 0.960 . S
C968 C967 1.524 . S
C969 C966 1.403 . S
C969 C970 1.392 . S
C969 C973 1.495 . S
C970 C969 1.392 . S
C970 C971 1.385 1_455 S
C970 C972 1.478 . S
C971 H965 0.930 . S
C971 C967 1.400 . S
C971 C970 1.385 1_655 S
C972 C970 1.478 . S
C972 C974 1.381 . S
C972 C978 1.383 . S
C973 C969 1.495 . S
C973 H979 0.959 . S
C973 H980 0.961 . S
C973 H981 0.960 . S
C974 C972 1.381 . S
C974 C975 1.394 . S
C974 H982 0.930 . S
C975 C974 1.394 . S
C975 C976 1.383 . S
C975 H983 0.929 . S
C976 C975 1.383 . S
C976 C977 1.377 . S
C977 H961 0.930 . S
C977 C976 1.377 . S
C977 C978 1.379 . S
C978 H962 0.931 . S
C978 C972 1.383 . S
C978 C977 1.379 . S
H979 C973 0.959 . S
H980 C973 0.961 . S
H981 C973 0.960 . S
H982 C974 0.930 . S
H983 C975 0.929 . S
H984 C992 0.929 . S
H985 C994 0.930 . S
H986 C996 0.930 . S
H987 C999 0.929 . S
H988 C1002 0.930 . S
H989 C1004 0.960 . S
H990 C1004 0.960 . S
H991 C1004 0.960 . S
C992 H984 0.929 . S
C992 C993 1.377 . S
C992 C994 1.384 . S
C993 C992 1.377 . S
C993 C999 1.390 . S
C994 H985 0.930 . S
C994 C992 1.384 . S
C994 C995 1.372 . S
C995 C994 1.372 . S
C995 C996 1.400 . S
C995 C1000 1.490 . S
C996 H986 0.930 . S
C996 C995 1.400 . S
C996 C999 1.386 . S
H997 C1013 0.930 . S
H998 C1014 0.931 . S
C999 H987 0.929 . S
C999 C993 1.390 . S
C999 C996 1.386 . S
C1000 C995 1.490 . S
C1000 C1002 1.395 1_565 S
C1000 C1003 1.403 . S
H1001 C1007 0.930 . S
C1002 H988 0.930 . S
C1002 C1000 1.395 1_545 S
C1002 C1005 1.403 . S
C1003 C1000 1.403 . S
C1003 C1004 1.524 . S
C1003 C1007 1.400 . S
C1004 H989 0.960 . S
C1004 H990 0.960 . S
C1004 H991 0.960 . S
C1004 C1003 1.524 . S
C1005 C1002 1.403 . S
C1005 C1006 1.392 . S
C1005 C1009 1.495 . S
C1006 C1005 1.392 . S
C1006 C1007 1.385 1_545 S
C1006 C1008 1.478 . S
C1007 H1001 0.930 . S
C1007 C1003 1.400 . S
C1007 C1006 1.385 1_565 S
C1008 C1006 1.478 . S
C1008 C1010 1.381 . S
C1008 C1014 1.383 . S
C1009 C1005 1.495 . S
C1009 H1015 0.959 . S
C1009 H1016 0.961 . S
C1009 H1017 0.960 . S
C1010 C1008 1.381 . S
C1010 C1011 1.394 . S
C1010 H1018 0.930 . S
C1011 C1010 1.394 . S
C1011 C1012 1.383 . S
C1011 H1019 0.929 . S
C1012 C1011 1.383 . S
C1012 C1013 1.377 . S
C1013 H997 0.930 . S
C1013 C1012 1.377 . S
C1013 C1014 1.379 . S
C1014 H998 0.931 . S
C1014 C1008 1.383 . S
C1014 C1013 1.379 . S
H1015 C1009 0.959 . S
H1016 C1009 0.961 . S
H1017 C1009 0.960 . S
H1018 C1010 0.930 . S
H1019 C1011 0.929 . S
H1020 C1028 0.929 . S
H1021 C1030 0.930 . S
H1022 C1032 0.930 . S
H1023 C1035 0.929 . S
H1024 C1038 0.930 . S
H1025 C1040 0.960 . S
H1026 C1040 0.960 . S
H1027 C1040 0.960 . S
C1028 H1020 0.929 . S
C1028 C1029 1.377 . S
C1028 C1030 1.384 . S
C1029 C1028 1.377 . S
C1029 C1035 1.390 . S
C1030 H1021 0.930 . S
C1030 C1028 1.384 . S
C1030 C1031 1.372 . S
C1031 C1030 1.372 . S
C1031 C1032 1.400 . S
C1031 C1036 1.490 . S
C1032 H1022 0.930 . S
C1032 C1031 1.400 . S
C1032 C1035 1.386 . S
H1033 C1049 0.930 . S
H1034 C1050 0.931 . S
C1035 H1023 0.929 . S
C1035 C1029 1.390 . S
C1035 C1032 1.386 . S
C1036 C1031 1.490 . S
C1036 C1038 1.395 . S
C1036 C1039 1.403 . S
H1037 C1043 0.930 . S
C1038 H1024 0.930 . S
C1038 C1036 1.395 . S
C1038 C1041 1.403 . S
C1039 C1036 1.403 . S
C1039 C1040 1.524 . S
C1039 C1043 1.400 . S
C1040 H1025 0.960 . S
C1040 H1026 0.960 . S
C1040 H1027 0.960 . S
C1040 C1039 1.524 . S
C1041 C1038 1.403 . S
C1041 C1042 1.392 . S
C1041 C1045 1.495 . S
C1042 C1041 1.392 . S
C1042 C1043 1.385 . S
C1042 C1044 1.478 . S
C1043 H1037 0.930 . S
C1043 C1039 1.400 . S
C1043 C1042 1.385 . S
C1044 C1042 1.478 . S
C1044 C1046 1.381 . S
C1044 C1050 1.383 . S
C1045 C1041 1.495 . S
C1045 H1051 0.959 . S
C1045 H1052 0.961 . S
C1045 H1053 0.960 . S
C1046 C1044 1.381 . S
C1046 C1047 1.394 . S
C1046 H1054 0.930 . S
C1047 C1046 1.394 . S
C1047 C1048 1.383 . S
C1047 H1055 0.929 . S
C1048 C1047 1.383 . S
C1048 C1049 1.377 . S
C1049 H1033 0.930 . S
C1049 C1048 1.377 . S
C1049 C1050 1.379 . S
C1050 H1034 0.931 . S
C1050 C1044 1.383 . S
C1050 C1049 1.379 . S
H1051 C1045 0.959 . S
H1052 C1045 0.961 . S
H1053 C1045 0.960 . S
H1054 C1046 0.930 . S
H1055 C1047 0.929 . S
H1056 C1064 0.929 . S
H1057 C1066 0.930 . S
H1058 C1068 0.930 . S
H1059 C1071 0.929 . S
H1060 C1074 0.930 . S
H1061 C1076 0.960 . S
H1062 C1076 0.960 . S
H1063 C1076 0.960 . S
C1064 H1056 0.929 . S
C1064 C1065 1.377 . S
C1064 C1066 1.384 . S
C1065 C1064 1.377 . S
C1065 C1071 1.390 . S
C1066 H1057 0.930 . S
C1066 C1064 1.384 . S
C1066 C1067 1.372 . S
C1067 C1066 1.372 . S
C1067 C1068 1.400 . S
C1067 C1072 1.490 . S
C1068 H1058 0.930 . S
C1068 C1067 1.400 . S
C1068 C1071 1.386 . S
H1069 C1085 0.930 . S
H1070 C1086 0.931 . S
C1071 H1059 0.929 . S
C1071 C1065 1.390 . S
C1071 C1068 1.386 . S
C1072 C1067 1.490 . S
C1072 C1074 1.395 . S
C1072 C1075 1.403 . S
H1073 C1079 0.930 . S
C1074 H1060 0.930 . S
C1074 C1072 1.395 . S
C1074 C1077 1.403 . S
C1075 C1072 1.403 . S
C1075 C1076 1.524 . S
C1075 C1079 1.400 . S
C1076 H1061 0.960 . S
C1076 H1062 0.960 . S
C1076 H1063 0.960 . S
C1076 C1075 1.524 . S
C1077 C1074 1.403 . S
C1077 C1078 1.392 . S
C1077 C1081 1.495 . S
C1078 C1077 1.392 . S
C1078 C1079 1.385 . S
C1078 C1080 1.478 . S
C1079 H1073 0.930 . S
C1079 C1075 1.400 . S
C1079 C1078 1.385 . S
C1080 C1078 1.478 . S
C1080 C1082 1.381 . S
C1080 C1086 1.383 . S
C1081 C1077 1.495 . S
C1081 H1087 0.959 . S
C1081 H1088 0.961 . S
C1081 H1089 0.960 . S
C1082 C1080 1.381 . S
C1082 C1083 1.394 . S
C1082 H1090 0.930 . S
C1083 C1082 1.394 . S
C1083 C1084 1.383 . S
C1083 H1091 0.929 . S
C1084 C1083 1.383 . S
C1084 C1085 1.377 . S
C1085 H1069 0.930 . S
C1085 C1084 1.377 . S
C1085 C1086 1.379 . S
C1086 H1070 0.931 . S
C1086 C1080 1.383 . S
C1086 C1085 1.379 . S
H1087 C1081 0.959 . S
H1088 C1081 0.961 . S
H1089 C1081 0.960 . S
H1090 C1082 0.930 . S
H1091 C1083 0.929 . S
H1092 C1100 0.929 . S
H1093 C1102 0.930 . S
H1094 C1104 0.930 . S
H1095 C1107 0.929 . S
H1096 C1110 0.930 . S
H1097 C1112 0.960 . S
H1098 C1112 0.960 . S
H1099 C1112 0.960 . S
C1100 H1092 0.929 . S
C1100 C1101 1.377 . S
C1100 C1102 1.384 . S
C1101 C1100 1.377 . S
C1101 C1107 1.390 . S
C1102 H1093 0.930 . S
C1102 C1100 1.384 . S
C1102 C1103 1.372 . S
C1103 C1102 1.372 . S
C1103 C1104 1.400 . S
C1103 C1108 1.490 . S
C1104 H1094 0.930 . S
C1104 C1103 1.400 . S
C1104 C1107 1.386 . S
H1105 C1121 0.930 . S
H1106 C1122 0.931 . S
C1107 H1095 0.929 . S
C1107 C1101 1.390 . S
C1107 C1104 1.386 . S
C1108 C1103 1.490 . S
C1108 C1110 1.395 . S
C1108 C1111 1.403 . S
H1109 C1115 0.930 . S
C1110 H1096 0.930 . S
C1110 C1108 1.395 . S
C1110 C1113 1.403 . S
C1111 C1108 1.403 . S
C1111 C1112 1.524 . S
C1111 C1115 1.400 . S
C1112 H1097 0.960 . S
C1112 H1098 0.960 . S
C1112 H1099 0.960 . S
C1112 C1111 1.524 . S
C1113 C1110 1.403 . S
C1113 C1114 1.392 . S
C1113 C1117 1.495 . S
C1114 C1113 1.392 . S
C1114 C1115 1.385 . S
C1114 C1116 1.478 . S
C1115 H1109 0.930 . S
C1115 C1111 1.400 . S
C1115 C1114 1.385 . S
C1116 C1114 1.478 . S
C1116 C1118 1.381 . S
C1116 C1122 1.383 . S
C1117 C1113 1.495 . S
C1117 H1123 0.959 . S
C1117 H1124 0.961 . S
C1117 H1125 0.960 . S
C1118 C1116 1.381 . S
C1118 C1119 1.394 . S
C1118 H1126 0.930 . S
C1119 C1118 1.394 . S
C1119 C1120 1.383 . S
C1119 H1127 0.929 . S
C1120 C1119 1.383 . S
C1120 C1121 1.377 . S
C1121 H1105 0.930 . S
C1121 C1120 1.377 . S
C1121 C1122 1.379 . S
C1122 H1106 0.931 . S
C1122 C1116 1.383 . S
C1122 C1121 1.379 . S
H1123 C1117 0.959 . S
H1124 C1117 0.961 . S
H1125 C1117 0.960 . S
H1126 C1118 0.930 . S
H1127 C1119 0.929 . S
H1128 C1136 0.929 . S
H1129 C1138 0.930 . S
H1130 C1140 0.930 . S
H1131 C1143 0.929 . S
H1132 C1146 0.930 . S
H1133 C1148 0.960 . S
H1134 C1148 0.960 . S
H1135 C1148 0.960 . S
C1136 H1128 0.929 . S
C1136 C1137 1.377 . S
C1136 C1138 1.384 . S
C1137 C1136 1.377 . S
C1137 C1143 1.390 . S
C1138 H1129 0.930 . S
C1138 C1136 1.384 . S
C1138 C1139 1.372 . S
C1139 C1138 1.372 . S
C1139 C1140 1.400 . S
C1139 C1144 1.490 . S
C1140 H1130 0.930 . S
C1140 C1139 1.400 . S
C1140 C1143 1.386 . S
H1141 C1157 0.930 . S
H1142 C1158 0.931 . S
C1143 H1131 0.929 . S
C1143 C1137 1.390 . S
C1143 C1140 1.386 . S
C1144 C1139 1.490 . S
C1144 C1146 1.395 . S
C1144 C1147 1.403 . S
H1145 C1151 0.930 . S
C1146 H1132 0.930 . S
C1146 C1144 1.395 . S
C1146 C1149 1.403 . S
C1147 C1144 1.403 . S
C1147 C1148 1.524 . S
C1147 C1151 1.400 . S
C1148 H1133 0.960 . S
C1148 H1134 0.960 . S
C1148 H1135 0.960 . S
C1148 C1147 1.524 . S
C1149 C1146 1.403 . S
C1149 C1150 1.392 . S
C1149 C1153 1.495 . S
C1150 C1149 1.392 . S
C1150 C1151 1.385 . S
C1150 C1152 1.478 . S
C1151 H1145 0.930 . S
C1151 C1147 1.400 . S
C1151 C1150 1.385 . S
C1152 C1150 1.478 . S
C1152 C1154 1.381 . S
C1152 C1158 1.383 . S
C1153 C1149 1.495 . S
C1153 H1159 0.959 . S
C1153 H1160 0.961 . S
C1153 H1161 0.960 . S
C1154 C1152 1.381 . S
C1154 C1155 1.394 . S
C1154 H1162 0.930 . S
C1155 C1154 1.394 . S
C1155 C1156 1.383 . S
C1155 H1163 0.929 . S
C1156 C1155 1.383 . S
C1156 C1157 1.377 . S
C1157 H1141 0.930 . S
C1157 C1156 1.377 . S
C1157 C1158 1.379 . S
C1158 H1142 0.931 . S
C1158 C1152 1.383 . S
C1158 C1157 1.379 . S
H1159 C1153 0.959 . S
H1160 C1153 0.961 . S
H1161 C1153 0.960 . S
H1162 C1154 0.930 . S
H1163 C1155 0.929 . S
H1164 C1172 0.929 . S
H1165 C1174 0.930 . S
H1166 C1176 0.930 . S
H1167 C1179 0.929 . S
H1168 C1182 0.930 . S
H1169 C1184 0.960 . S
H1170 C1184 0.960 . S
H1171 C1184 0.960 . S
C1172 H1164 0.929 . S
C1172 C1173 1.377 . S
C1172 C1174 1.384 . S
C1173 C1172 1.377 . S
C1173 C1179 1.390 . S
C1174 H1165 0.930 . S
C1174 C1172 1.384 . S
C1174 C1175 1.372 . S
C1175 C1174 1.372 . S
C1175 C1176 1.400 . S
C1175 C1180 1.490 . S
C1176 H1166 0.930 . S
C1176 C1175 1.400 . S
C1176 C1179 1.386 . S
H1177 C1193 0.930 . S
H1178 C1194 0.931 . S
C1179 H1167 0.929 . S
C1179 C1173 1.390 . S
C1179 C1176 1.386 . S
C1180 C1175 1.490 . S
C1180 C1182 1.395 . S
C1180 C1183 1.403 . S
H1181 C1187 0.930 . S
C1182 H1168 0.930 . S
C1182 C1180 1.395 . S
C1182 C1185 1.403 . S
C1183 C1180 1.403 . S
C1183 C1184 1.524 . S
C1183 C1187 1.400 . S
C1184 H1169 0.960 . S
C1184 H1170 0.960 . S
C1184 H1171 0.960 . S
C1184 C1183 1.524 . S
C1185 C1182 1.403 . S
C1185 C1186 1.392 . S
C1185 C1189 1.495 . S
C1186 C1185 1.392 . S
C1186 C1187 1.385 . S
C1186 C1188 1.478 . S
C1187 H1181 0.930 . S
C1187 C1183 1.400 . S
C1187 C1186 1.385 . S
C1188 C1186 1.478 . S
C1188 C1190 1.381 . S
C1188 C1194 1.383 . S
C1189 C1185 1.495 . S
C1189 H1195 0.959 . S
C1189 H1196 0.961 . S
C1189 H1197 0.960 . S
C1190 C1188 1.381 . S
C1190 C1191 1.394 . S
C1190 H1198 0.930 . S
C1191 C1190 1.394 . S
C1191 C1192 1.383 . S
C1191 H1199 0.929 . S
C1192 C1191 1.383 . S
C1192 C1193 1.377 . S
C1193 H1177 0.930 . S
C1193 C1192 1.377 . S
C1193 C1194 1.379 . S
C1194 H1178 0.931 . S
C1194 C1188 1.383 . S
C1194 C1193 1.379 . S
H1195 C1189 0.959 . S
H1196 C1189 0.961 . S
H1197 C1189 0.960 . S
H1198 C1190 0.930 . S
H1199 C1191 0.929 . S
H1200 C1208 0.929 . S
H1201 C1210 0.930 . S
H1202 C1212 0.930 . S
H1203 C1215 0.929 . S
H1204 C1218 0.930 . S
H1205 C1220 0.960 . S
H1206 C1220 0.960 . S
H1207 C1220 0.960 . S
C1208 H1200 0.929 . S
C1208 C1209 1.377 . S
C1208 C1210 1.384 . S
C1209 C1208 1.377 . S
C1209 C1215 1.390 . S
C1210 H1201 0.930 . S
C1210 C1208 1.384 . S
C1210 C1211 1.372 . S
C1211 C1210 1.372 . S
C1211 C1212 1.400 . S
C1211 C1216 1.490 . S
C1212 H1202 0.930 . S
C1212 C1211 1.400 . S
C1212 C1215 1.386 . S
H1213 C1229 0.930 . S
H1214 C1230 0.931 . S
C1215 H1203 0.929 . S
C1215 C1209 1.390 . S
C1215 C1212 1.386 . S
C1216 C1211 1.490 . S
C1216 C1218 1.395 . S
C1216 C1219 1.403 . S
H1217 C1223 0.930 . S
C1218 H1204 0.930 . S
C1218 C1216 1.395 . S
C1218 C1221 1.403 . S
C1219 C1216 1.403 . S
C1219 C1220 1.524 . S
C1219 C1223 1.400 . S
C1220 H1205 0.960 . S
C1220 H1206 0.960 . S
C1220 H1207 0.960 . S
C1220 C1219 1.524 . S
C1221 C1218 1.403 . S
C1221 C1222 1.392 . S
C1221 C1225 1.495 . S
C1222 C1221 1.392 . S
C1222 C1223 1.385 . S
C1222 C1224 1.478 . S
C1223 H1217 0.930 . S
C1223 C1219 1.400 . S
C1223 C1222 1.385 . S
C1224 C1222 1.478 . S
C1224 C1226 1.381 . S
C1224 C1230 1.383 . S
C1225 C1221 1.495 . S
C1225 H1231 0.959 . S
C1225 H1232 0.961 . S
C1225 H1233 0.960 . S
C1226 C1224 1.381 . S
C1226 C1227 1.394 . S
C1226 H1234 0.930 . S
C1227 C1226 1.394 . S
C1227 C1228 1.383 . S
C1227 H1235 0.929 . S
C1228 C1227 1.383 . S
C1228 C1229 1.377 . S
C1229 H1213 0.930 . S
C1229 C1228 1.377 . S
C1229 C1230 1.379 . S
C1230 H1214 0.931 . S
C1230 C1224 1.383 . S
C1230 C1229 1.379 . S
H1231 C1225 0.959 . S
H1232 C1225 0.961 . S
H1233 C1225 0.960 . S
H1234 C1226 0.930 . S
H1235 C1227 0.929 . S
H1236 C1244 0.929 . S
H1237 C1246 0.930 . S
H1238 C1248 0.930 . S
H1239 C1251 0.929 . S
H1240 C1254 0.930 . S
H1241 C1256 0.960 . S
H1242 C1256 0.960 . S
H1243 C1256 0.960 . S
C1244 H1236 0.929 . S
C1244 C1245 1.377 . S
C1244 C1246 1.384 . S
C1245 C1244 1.377 . S
C1245 C1251 1.390 . S
C1246 H1237 0.930 . S
C1246 C1244 1.384 . S
C1246 C1247 1.372 . S
C1247 C1246 1.372 . S
C1247 C1248 1.400 . S
C1247 C1252 1.490 . S
C1248 H1238 0.930 . S
C1248 C1247 1.400 . S
C1248 C1251 1.386 . S
H1249 C1265 0.930 . S
H1250 C1266 0.931 . S
C1251 H1239 0.929 . S
C1251 C1245 1.390 . S
C1251 C1248 1.386 . S
C1252 C1247 1.490 . S
C1252 C1254 1.395 . S
C1252 C1255 1.403 . S
H1253 C1259 0.930 . S
C1254 H1240 0.930 . S
C1254 C1252 1.395 . S
C1254 C1257 1.403 . S
C1255 C1252 1.403 . S
C1255 C1256 1.524 . S
C1255 C1259 1.400 . S
C1256 H1241 0.960 . S
C1256 H1242 0.960 . S
C1256 H1243 0.960 . S
C1256 C1255 1.524 . S
C1257 C1254 1.403 . S
C1257 C1258 1.392 . S
C1257 C1261 1.495 . S
C1258 C1257 1.392 . S
C1258 C1259 1.385 . S
C1258 C1260 1.478 . S
C1259 H1253 0.930 . S
C1259 C1255 1.400 . S
C1259 C1258 1.385 . S
C1260 C1258 1.478 . S
C1260 C1262 1.381 . S
C1260 C1266 1.383 . S
C1261 C1257 1.495 . S
C1261 H1267 0.959 . S
C1261 H1268 0.961 . S
C1261 H1269 0.960 . S
C1262 C1260 1.381 . S
C1262 C1263 1.394 . S
C1262 H1270 0.930 . S
C1263 C1262 1.394 . S
C1263 C1264 1.383 . S
C1263 H1271 0.929 . S
C1264 C1263 1.383 . S
C1264 C1265 1.377 . S
C1265 H1249 0.930 . S
C1265 C1264 1.377 . S
C1265 C1266 1.379 . S
C1266 H1250 0.931 . S
C1266 C1260 1.383 . S
C1266 C1265 1.379 . S
H1267 C1261 0.959 . S
H1268 C1261 0.961 . S
H1269 C1261 0.960 . S
H1270 C1262 0.930 . S
H1271 C1263 0.929 . S
H1272 C1280 0.929 . S
H1273 C1282 0.930 . S
H1274 C1284 0.930 . S
H1275 C1287 0.929 . S
H1276 C1290 0.930 . S
H1277 C1292 0.960 . S
H1278 C1292 0.960 . S
H1279 C1292 0.960 . S
C1280 H1272 0.929 . S
C1280 C1281 1.377 . S
C1280 C1282 1.384 . S
C1281 C1280 1.377 . S
C1281 C1287 1.390 . S
C1282 H1273 0.930 . S
C1282 C1280 1.384 . S
C1282 C1283 1.372 . S
C1283 C1282 1.372 . S
C1283 C1284 1.400 . S
C1283 C1288 1.490 . S
C1284 H1274 0.930 . S
C1284 C1283 1.400 . S
C1284 C1287 1.386 . S
H1285 C1301 0.930 . S
H1286 C1302 0.931 . S
C1287 H1275 0.929 . S
C1287 C1281 1.390 . S
C1287 C1284 1.386 . S
C1288 C1283 1.490 . S
C1288 C1290 1.395 . S
C1288 C1291 1.403 . S
H1289 C1295 0.930 . S
C1290 H1276 0.930 . S
C1290 C1288 1.395 . S
C1290 C1293 1.403 . S
C1291 C1288 1.403 . S
C1291 C1292 1.524 . S
C1291 C1295 1.400 . S
C1292 H1277 0.960 . S
C1292 H1278 0.960 . S
C1292 H1279 0.960 . S
C1292 C1291 1.524 . S
C1293 C1290 1.403 . S
C1293 C1294 1.392 . S
C1293 C1297 1.495 . S
C1294 C1293 1.392 . S
C1294 C1295 1.385 . S
C1294 C1296 1.478 . S
C1295 H1289 0.930 . S
C1295 C1291 1.400 . S
C1295 C1294 1.385 . S
C1296 C1294 1.478 . S
C1296 C1298 1.381 . S
C1296 C1302 1.383 . S
C1297 C1293 1.495 . S
C1297 H1303 0.959 . S
C1297 H1304 0.961 . S
C1297 H1305 0.960 . S
C1298 C1296 1.381 . S
C1298 C1299 1.394 . S
C1298 H1306 0.930 . S
C1299 C1298 1.394 . S
C1299 C1300 1.383 . S
C1299 H1307 0.929 . S
C1300 C1299 1.383 . S
C1300 C1301 1.377 . S
C1301 H1285 0.930 . S
C1301 C1300 1.377 . S
C1301 C1302 1.379 . S
C1302 H1286 0.931 . S
C1302 C1296 1.383 . S
C1302 C1301 1.379 . S
H1303 C1297 0.959 . S
H1304 C1297 0.961 . S
H1305 C1297 0.960 . S
H1306 C1298 0.930 . S
H1307 C1299 0.929 . S
H1308 C1316 0.929 . S
H1309 C1318 0.930 . S
H1310 C1320 0.930 . S
H1311 C1323 0.929 . S
H1312 C1326 0.930 . S
H1313 C1328 0.960 . S
H1314 C1328 0.960 . S
H1315 C1328 0.960 . S
C1316 H1308 0.929 . S
C1316 C1317 1.377 . S
C1316 C1318 1.384 . S
C1317 C1316 1.377 . S
C1317 C1323 1.390 . S
C1318 H1309 0.930 . S
C1318 C1316 1.384 . S
C1318 C1319 1.372 . S
C1319 C1318 1.372 . S
C1319 C1320 1.400 . S
C1319 C1324 1.490 . S
C1320 H1310 0.930 . S
C1320 C1319 1.400 . S
C1320 C1323 1.386 . S
H1321 C1337 0.930 . S
H1322 C1338 0.931 . S
C1323 H1311 0.929 . S
C1323 C1317 1.390 . S
C1323 C1320 1.386 . S
C1324 C1319 1.490 . S
C1324 C1326 1.395 . S
C1324 C1327 1.403 . S
H1325 C1331 0.930 . S
C1326 H1312 0.930 . S
C1326 C1324 1.395 . S
C1326 C1329 1.403 . S
C1327 C1324 1.403 . S
C1327 C1328 1.524 . S
C1327 C1331 1.400 . S
C1328 H1313 0.960 . S
C1328 H1314 0.960 . S
C1328 H1315 0.960 . S
C1328 C1327 1.524 . S
C1329 C1326 1.403 . S
C1329 C1330 1.392 . S
C1329 C1333 1.495 . S
C1330 C1329 1.392 . S
C1330 C1331 1.385 . S
C1330 C1332 1.478 . S
C1331 H1325 0.930 . S
C1331 C1327 1.400 . S
C1331 C1330 1.385 . S
C1332 C1330 1.478 . S
C1332 C1334 1.381 . S
C1332 C1338 1.383 . S
C1333 C1329 1.495 . S
C1333 H1339 0.959 . S
C1333 H1340 0.961 . S
C1333 H1341 0.960 . S
C1334 C1332 1.381 . S
C1334 C1335 1.394 . S
C1334 H1342 0.930 . S
C1335 C1334 1.394 . S
C1335 C1336 1.383 . S
C1335 H1343 0.929 . S
C1336 C1335 1.383 . S
C1336 C1337 1.377 . S
C1337 H1321 0.930 . S
C1337 C1336 1.377 . S
C1337 C1338 1.379 . S
C1338 H1322 0.931 . S
C1338 C1332 1.383 . S
C1338 C1337 1.379 . S
H1339 C1333 0.959 . S
H1340 C1333 0.961 . S
H1341 C1333 0.960 . S
H1342 C1334 0.930 . S
H1343 C1335 0.929 . S
H1344 C1352 0.929 . S
H1345 C1354 0.930 . S
H1346 C1356 0.930 . S
H1347 C1359 0.929 . S
H1348 C1362 0.930 . S
H1349 C1364 0.960 . S
H1350 C1364 0.960 . S
H1351 C1364 0.960 . S
C1352 H1344 0.929 . S
C1352 C1353 1.377 . S
C1352 C1354 1.384 . S
C1353 C1352 1.377 . S
C1353 C1359 1.390 . S
C1354 H1345 0.930 . S
C1354 C1352 1.384 . S
C1354 C1355 1.372 . S
C1355 C1354 1.372 . S
C1355 C1356 1.400 . S
C1355 C1360 1.490 . S
C1356 H1346 0.930 . S
C1356 C1355 1.400 . S
C1356 C1359 1.386 . S
H1357 C1373 0.930 . S
H1358 C1374 0.931 . S
C1359 H1347 0.929 . S
C1359 C1353 1.390 . S
C1359 C1356 1.386 . S
C1360 C1355 1.490 . S
C1360 C1362 1.395 . S
C1360 C1363 1.403 . S
H1361 C1367 0.930 . S
C1362 H1348 0.930 . S
C1362 C1360 1.395 . S
C1362 C1365 1.403 . S
C1363 C1360 1.403 . S
C1363 C1364 1.524 . S
C1363 C1367 1.400 . S
C1364 H1349 0.960 . S
C1364 H1350 0.960 . S
C1364 H1351 0.960 . S
C1364 C1363 1.524 . S
C1365 C1362 1.403 . S
C1365 C1366 1.392 . S
C1365 C1369 1.495 . S
C1366 C1365 1.392 . S
C1366 C1367 1.385 . S
C1366 C1368 1.478 . S
C1367 H1361 0.930 . S
C1367 C1363 1.400 . S
C1367 C1366 1.385 . S
C1368 C1366 1.478 . S
C1368 C1370 1.381 . S
C1368 C1374 1.383 . S
C1369 C1365 1.495 . S
C1369 H1375 0.959 . S
C1369 H1376 0.961 . S
C1369 H1377 0.960 . S
C1370 C1368 1.381 . S
C1370 C1371 1.394 . S
C1370 H1378 0.930 . S
C1371 C1370 1.394 . S
C1371 C1372 1.383 . S
C1371 H1379 0.929 . S
C1372 C1371 1.383 . S
C1372 C1373 1.377 . S
C1373 H1357 0.930 . S
C1373 C1372 1.377 . S
C1373 C1374 1.379 . S
C1374 H1358 0.931 . S
C1374 C1368 1.383 . S
C1374 C1373 1.379 . S
H1375 C1369 0.959 . S
H1376 C1369 0.961 . S
H1377 C1369 0.960 . S
H1378 C1370 0.930 . S
H1379 C1371 0.929 . S
H1380 C1388 0.929 . S
H1381 C1390 0.930 . S
H1382 C1392 0.930 . S
H1383 C1395 0.929 . S
H1384 C1398 0.930 . S
H1385 C1400 0.960 . S
H1386 C1400 0.960 . S
H1387 C1400 0.960 . S
C1388 H1380 0.929 . S
C1388 C1389 1.377 . S
C1388 C1390 1.384 . S
C1389 C1388 1.377 . S
C1389 C1395 1.390 . S
C1390 H1381 0.930 . S
C1390 C1388 1.384 . S
C1390 C1391 1.372 . S
C1391 C1390 1.372 . S
C1391 C1392 1.400 . S
C1391 C1396 1.490 . S
C1392 H1382 0.930 . S
C1392 C1391 1.400 . S
C1392 C1395 1.386 . S
H1393 C1409 0.930 . S
H1394 C1410 0.931 . S
C1395 H1383 0.929 . S
C1395 C1389 1.390 . S
C1395 C1392 1.386 . S
C1396 C1391 1.490 . S
C1396 C1398 1.395 . S
C1396 C1399 1.403 . S
H1397 C1403 0.930 . S
C1398 H1384 0.930 . S
C1398 C1396 1.395 . S
C1398 C1401 1.403 . S
C1399 C1396 1.403 . S
C1399 C1400 1.524 . S
C1399 C1403 1.400 . S
C1400 H1385 0.960 . S
C1400 H1386 0.960 . S
C1400 H1387 0.960 . S
C1400 C1399 1.524 . S
C1401 C1398 1.403 . S
C1401 C1402 1.392 . S
C1401 C1405 1.495 . S
C1402 C1401 1.392 . S
C1402 C1403 1.385 . S
C1402 C1404 1.478 . S
C1403 H1397 0.930 . S
C1403 C1399 1.400 . S
C1403 C1402 1.385 . S
C1404 C1402 1.478 . S
C1404 C1406 1.381 . S
C1404 C1410 1.383 . S
C1405 C1401 1.495 . S
C1405 H1411 0.959 . S
C1405 H1412 0.961 . S
C1405 H1413 0.960 . S
C1406 C1404 1.381 . S
C1406 C1407 1.394 . S
C1406 H1414 0.930 . S
C1407 C1406 1.394 . S
C1407 C1408 1.383 . S
C1407 H1415 0.929 . S
C1408 C1407 1.383 . S
C1408 C1409 1.377 . S
C1409 H1393 0.930 . S
C1409 C1408 1.377 . S
C1409 C1410 1.379 . S
C1410 H1394 0.931 . S
C1410 C1404 1.383 . S
C1410 C1409 1.379 . S
H1411 C1405 0.959 . S
H1412 C1405 0.961 . S
H1413 C1405 0.960 . S
H1414 C1406 0.930 . S
H1415 C1407 0.929 . S
H1416 C1424 0.929 . S
H1417 C1426 0.930 . S
H1418 C1428 0.930 . S
H1419 C1431 0.929 . S
H1420 C1434 0.930 . S
H1421 C1436 0.960 . S
H1422 C1436 0.960 . S
H1423 C1436 0.960 . S
C1424 H1416 0.929 . S
C1424 C1425 1.377 . S
C1424 C1426 1.384 . S
C1425 C1424 1.377 . S
C1425 C1431 1.390 . S
C1426 H1417 0.930 . S
C1426 C1424 1.384 . S
C1426 C1427 1.372 . S
C1427 C1426 1.372 . S
C1427 C1428 1.400 . S
C1427 C1432 1.490 . S
C1428 H1418 0.930 . S
C1428 C1427 1.400 . S
C1428 C1431 1.386 . S
H1429 C1445 0.930 . S
H1430 C1446 0.931 . S
C1431 H1419 0.929 . S
C1431 C1425 1.390 . S
C1431 C1428 1.386 . S
C1432 C1427 1.490 . S
C1432 C1434 1.395 . S
C1432 C1435 1.403 . S
H1433 C1439 0.930 . S
C1434 H1420 0.930 . S
C1434 C1432 1.395 . S
C1434 C1437 1.403 . S
C1435 C1432 1.403 . S
C1435 C1436 1.524 . S
C1435 C1439 1.400 . S
C1436 H1421 0.960 . S
C1436 H1422 0.960 . S
C1436 H1423 0.960 . S
C1436 C1435 1.524 . S
C1437 C1434 1.403 . S
C1437 C1438 1.392 . S
C1437 C1441 1.495 . S
C1438 C1437 1.392 . S
C1438 C1439 1.385 . S
C1438 C1440 1.478 . S
C1439 H1433 0.930 . S
C1439 C1435 1.400 . S
C1439 C1438 1.385 . S
C1440 C1438 1.478 . S
C1440 C1442 1.381 . S
C1440 C1446 1.383 . S
C1441 C1437 1.495 . S
C1441 H1447 0.959 . S
C1441 H1448 0.961 . S
C1441 H1449 0.960 . S
C1442 C1440 1.381 . S
C1442 C1443 1.394 . S
C1442 H1450 0.930 . S
C1443 C1442 1.394 . S
C1443 C1444 1.383 . S
C1443 H1451 0.929 . S
C1444 C1443 1.383 . S
C1444 C1445 1.377 . S
C1445 H1429 0.930 . S
C1445 C1444 1.377 . S
C1445 C1446 1.379 . S
C1446 H1430 0.931 . S
C1446 C1440 1.383 . S
C1446 C1445 1.379 . S
H1447 C1441 0.959 . S
H1448 C1441 0.961 . S
H1449 C1441 0.960 . S
H1450 C1442 0.930 . S
H1451 C1443 0.929 . S
H1452 C1460 0.929 . S
H1453 C1462 0.930 . S
H1454 C1464 0.930 . S
H1455 C1467 0.929 . S
H1456 C1470 0.930 . S
H1457 C1472 0.960 . S
H1458 C1472 0.960 . S
H1459 C1472 0.960 . S
C1460 H1452 0.929 . S
C1460 C1461 1.377 . S
C1460 C1462 1.384 . S
C1461 C1460 1.377 . S
C1461 C1467 1.390 . S
C1462 H1453 0.930 . S
C1462 C1460 1.384 . S
C1462 C1463 1.372 . S
C1463 C1462 1.372 . S
C1463 C1464 1.400 . S
C1463 C1468 1.490 . S
C1464 H1454 0.930 . S
C1464 C1463 1.400 . S
C1464 C1467 1.386 . S
H1465 C1481 0.930 . S
H1466 C1482 0.931 . S
C1467 H1455 0.929 . S
C1467 C1461 1.390 . S
C1467 C1464 1.386 . S
C1468 C1463 1.490 . S
C1468 C1470 1.395 . S
C1468 C1471 1.403 . S
H1469 C1475 0.930 . S
C1470 H1456 0.930 . S
C1470 C1468 1.395 . S
C1470 C1473 1.403 . S
C1471 C1468 1.403 . S
C1471 C1472 1.524 . S
C1471 C1475 1.400 . S
C1472 H1457 0.960 . S
C1472 H1458 0.960 . S
C1472 H1459 0.960 . S
C1472 C1471 1.524 . S
C1473 C1470 1.403 . S
C1473 C1474 1.392 . S
C1473 C1477 1.495 . S
C1474 C1473 1.392 . S
C1474 C1475 1.385 . S
C1474 C1476 1.478 . S
C1475 H1469 0.930 . S
C1475 C1471 1.400 . S
C1475 C1474 1.385 . S
C1476 C1474 1.478 . S
C1476 C1478 1.381 . S
C1476 C1482 1.383 . S
C1477 C1473 1.495 . S
C1477 H1483 0.959 . S
C1477 H1484 0.961 . S
C1477 H1485 0.960 . S
C1478 C1476 1.381 . S
C1478 C1479 1.394 . S
C1478 H1486 0.930 . S
C1479 C1478 1.394 . S
C1479 C1480 1.383 . S
C1479 H1487 0.929 . S
C1480 C1479 1.383 . S
C1480 C1481 1.377 . S
C1481 H1465 0.930 . S
C1481 C1480 1.377 . S
C1481 C1482 1.379 . S
C1482 H1466 0.931 . S
C1482 C1476 1.383 . S
C1482 C1481 1.379 . S
H1483 C1477 0.959 . S
H1484 C1477 0.961 . S
H1485 C1477 0.960 . S
H1486 C1478 0.930 . S
H1487 C1479 0.929 . S
H1488 C1496 0.929 . S
H1489 C1498 0.930 . S
H1490 C1500 0.930 . S
H1491 C1503 0.929 . S
H1492 C1506 0.930 . S
H1493 C1508 0.960 . S
H1494 C1508 0.960 . S
H1495 C1508 0.960 . S
C1496 H1488 0.929 . S
C1496 C1497 1.377 . S
C1496 C1498 1.384 . S
C1497 C1496 1.377 . S
C1497 C1503 1.390 . S
C1498 H1489 0.930 . S
C1498 C1496 1.384 . S
C1498 C1499 1.372 . S
C1499 C1498 1.372 . S
C1499 C1500 1.400 . S
C1499 C1504 1.490 . S
C1500 H1490 0.930 . S
C1500 C1499 1.400 . S
C1500 C1503 1.386 . S
H1501 C1517 0.930 . S
H1502 C1518 0.931 . S
C1503 H1491 0.929 . S
C1503 C1497 1.390 . S
C1503 C1500 1.386 . S
C1504 C1499 1.490 . S
C1504 C1506 1.395 . S
C1504 C1507 1.403 . S
H1505 C1511 0.930 . S
C1506 H1492 0.930 . S
C1506 C1504 1.395 . S
C1506 C1509 1.403 . S
C1507 C1504 1.403 . S
C1507 C1508 1.524 . S
C1507 C1511 1.400 . S
C1508 H1493 0.960 . S
C1508 H1494 0.960 . S
C1508 H1495 0.960 . S
C1508 C1507 1.524 . S
C1509 C1506 1.403 . S
C1509 C1510 1.392 . S
C1509 C1513 1.495 . S
C1510 C1509 1.392 . S
C1510 C1511 1.385 . S
C1510 C1512 1.478 . S
C1511 H1505 0.930 . S
C1511 C1507 1.400 . S
C1511 C1510 1.385 . S
C1512 C1510 1.478 . S
C1512 C1514 1.381 . S
C1512 C1518 1.383 . S
C1513 C1509 1.495 . S
C1513 H1519 0.959 . S
C1513 H1520 0.961 . S
C1513 H1521 0.960 . S
C1514 C1512 1.381 . S
C1514 C1515 1.394 . S
C1514 H1522 0.930 . S
C1515 C1514 1.394 . S
C1515 C1516 1.383 . S
C1515 H1523 0.929 . S
C1516 C1515 1.383 . S
C1516 C1517 1.377 . S
C1517 H1501 0.930 . S
C1517 C1516 1.377 . S
C1517 C1518 1.379 . S
C1518 H1502 0.931 . S
C1518 C1512 1.383 . S
C1518 C1517 1.379 . S
H1519 C1513 0.959 . S
H1520 C1513 0.961 . S
H1521 C1513 0.960 . S
H1522 C1514 0.930 . S
H1523 C1515 0.929 . S
H1524 C1532 0.929 . S
H1525 C1534 0.930 . S
H1526 C1536 0.930 . S
H1527 C1539 0.929 . S
H1528 C1542 0.930 . S
H1529 C1544 0.960 . S
H1530 C1544 0.960 . S
H1531 C1544 0.960 . S
C1532 H1524 0.929 . S
C1532 C1533 1.377 . S
C1532 C1534 1.384 . S
C1533 C1532 1.377 . S
C1533 C1539 1.390 . S
C1534 H1525 0.930 . S
C1534 C1532 1.384 . S
C1534 C1535 1.372 . S
C1535 C1534 1.372 . S
C1535 C1536 1.400 . S
C1535 C1540 1.490 . S
C1536 H1526 0.930 . S
C1536 C1535 1.400 . S
C1536 C1539 1.386 . S
H1537 C1553 0.930 . S
H1538 C1554 0.931 . S
C1539 H1527 0.929 . S
C1539 C1533 1.390 . S
C1539 C1536 1.386 . S
C1540 C1535 1.490 . S
C1540 C1542 1.395 . S
C1540 C1543 1.403 . S
H1541 C1547 0.930 . S
C1542 H1528 0.930 . S
C1542 C1540 1.395 . S
C1542 C1545 1.403 . S
C1543 C1540 1.403 . S
C1543 C1544 1.524 . S
C1543 C1547 1.400 . S
C1544 H1529 0.960 . S
C1544 H1530 0.960 . S
C1544 H1531 0.960 . S
C1544 C1543 1.524 . S
C1545 C1542 1.403 . S
C1545 C1546 1.392 . S
C1545 C1549 1.495 . S
C1546 C1545 1.392 . S
C1546 C1547 1.385 . S
C1546 C1548 1.478 . S
C1547 H1541 0.930 . S
C1547 C1543 1.400 . S
C1547 C1546 1.385 . S
C1548 C1546 1.478 . S
C1548 C1550 1.381 . S
C1548 C1554 1.383 . S
C1549 C1545 1.495 . S
C1549 H1555 0.959 . S
C1549 H1556 0.961 . S
C1549 H1557 0.960 . S
C1550 C1548 1.381 . S
C1550 C1551 1.394 . S
C1550 H1558 0.930 . S
C1551 C1550 1.394 . S
C1551 C1552 1.383 . S
C1551 H1559 0.929 . S
C1552 C1551 1.383 . S
C1552 C1553 1.377 . S
C1553 H1537 0.930 . S
C1553 C1552 1.377 . S
C1553 C1554 1.379 . S
C1554 H1538 0.931 . S
C1554 C1548 1.383 . S
C1554 C1553 1.379 . S
H1555 C1549 0.959 . S
H1556 C1549 0.961 . S
H1557 C1549 0.960 . S
H1558 C1550 0.930 . S
H1559 C1551 0.929 . S
H1560 C1568 0.929 . S
H1561 C1570 0.930 . S
H1562 C1572 0.930 . S
H1563 C1575 0.929 . S
H1564 C1578 0.930 . S
H1565 C1580 0.960 . S
H1566 C1580 0.960 . S
H1567 C1580 0.960 . S
C1568 H1560 0.929 . S
C1568 C1569 1.377 . S
C1568 C1570 1.384 . S
C1569 C1568 1.377 . S
C1569 C1575 1.390 . S
C1570 H1561 0.930 . S
C1570 C1568 1.384 . S
C1570 C1571 1.372 . S
C1571 C1570 1.372 . S
C1571 C1572 1.400 . S
C1571 C1576 1.490 . S
C1572 H1562 0.930 . S
C1572 C1571 1.400 . S
C1572 C1575 1.386 . S
H1573 C1589 0.930 . S
H1574 C1590 0.931 . S
C1575 H1563 0.929 . S
C1575 C1569 1.390 . S
C1575 C1572 1.386 . S
C1576 C1571 1.490 . S
C1576 C1578 1.395 . S
C1576 C1579 1.403 . S
H1577 C1583 0.930 . S
C1578 H1564 0.930 . S
C1578 C1576 1.395 . S
C1578 C1581 1.403 . S
C1579 C1576 1.403 . S
C1579 C1580 1.524 . S
C1579 C1583 1.400 . S
C1580 H1565 0.960 . S
C1580 H1566 0.960 . S
C1580 H1567 0.960 . S
C1580 C1579 1.524 . S
C1581 C1578 1.403 . S
C1581 C1582 1.392 . S
C1581 C1585 1.495 . S
C1582 C1581 1.392 . S
C1582 C1583 1.385 . S
C1582 C1584 1.478 . S
C1583 H1577 0.930 . S
C1583 C1579 1.400 . S
C1583 C1582 1.385 . S
C1584 C1582 1.478 . S
C1584 C1586 1.381 . S
C1584 C1590 1.383 . S
C1585 C1581 1.495 . S
C1585 H1591 0.959 . S
C1585 H1592 0.961 . S
C1585 H1593 0.960 . S
C1586 C1584 1.381 . S
C1586 C1587 1.394 . S
C1586 H1594 0.930 . S
C1587 C1586 1.394 . S
C1587 C1588 1.383 . S
C1587 H1595 0.929 . S
C1588 C1587 1.383 . S
C1588 C1589 1.377 . S
C1589 H1573 0.930 . S
C1589 C1588 1.377 . S
C1589 C1590 1.379 . S
C1590 H1574 0.931 . S
C1590 C1584 1.383 . S
C1590 C1589 1.379 . S
H1591 C1585 0.959 . S
H1592 C1585 0.961 . S
H1593 C1585 0.960 . S
H1594 C1586 0.930 . S
H1595 C1587 0.929 . S
H1596 C1604 0.929 . S
H1597 C1606 0.930 . S
H1598 C1608 0.930 . S
H1599 C1611 0.929 . S
H1600 C1614 0.930 . S
H1601 C1616 0.960 . S
H1602 C1616 0.960 . S
H1603 C1616 0.960 . S
C1604 H1596 0.929 . S
C1604 C1605 1.377 . S
C1604 C1606 1.384 . S
C1605 C1604 1.377 . S
C1605 C1611 1.390 . S
C1606 H1597 0.930 . S
C1606 C1604 1.384 . S
C1606 C1607 1.372 . S
C1607 C1606 1.372 . S
C1607 C1608 1.400 . S
C1607 C1612 1.490 . S
C1608 H1598 0.930 . S
C1608 C1607 1.400 . S
C1608 C1611 1.386 . S
H1609 C1625 0.930 . S
H1610 C1626 0.931 . S
C1611 H1599 0.929 . S
C1611 C1605 1.390 . S
C1611 C1608 1.386 . S
C1612 C1607 1.490 . S
C1612 C1614 1.395 . S
C1612 C1615 1.403 . S
H1613 C1619 0.930 . S
C1614 H1600 0.930 . S
C1614 C1612 1.395 . S
C1614 C1617 1.403 . S
C1615 C1612 1.403 . S
C1615 C1616 1.524 . S
C1615 C1619 1.400 . S
C1616 H1601 0.960 . S
C1616 H1602 0.960 . S
C1616 H1603 0.960 . S
C1616 C1615 1.524 . S
C1617 C1614 1.403 . S
C1617 C1618 1.392 . S
C1617 C1621 1.495 . S
C1618 C1617 1.392 . S
C1618 C1619 1.385 . S
C1618 C1620 1.478 . S
C1619 H1613 0.930 . S
C1619 C1615 1.400 . S
C1619 C1618 1.385 . S
C1620 C1618 1.478 . S
C1620 C1622 1.381 . S
C1620 C1626 1.383 . S
C1621 C1617 1.495 . S
C1621 H1627 0.959 . S
C1621 H1628 0.961 . S
C1621 H1629 0.960 . S
C1622 C1620 1.381 . S
C1622 C1623 1.394 . S
C1622 H1630 0.930 . S
C1623 C1622 1.394 . S
C1623 C1624 1.383 . S
C1623 H1631 0.929 . S
C1624 C1623 1.383 . S
C1624 C1625 1.377 . S
C1625 H1609 0.930 . S
C1625 C1624 1.377 . S
C1625 C1626 1.379 . S
C1626 H1610 0.931 . S
C1626 C1620 1.383 . S
C1626 C1625 1.379 . S
H1627 C1621 0.959 . S
H1628 C1621 0.961 . S
H1629 C1621 0.960 . S
H1630 C1622 0.930 . S
H1631 C1623 0.929 . S
H1632 C1640 0.929 . S
H1633 C1642 0.930 . S
H1634 C1644 0.930 . S
H1635 C1647 0.929 . S
H1636 C1650 0.930 . S
H1637 C1652 0.960 . S
H1638 C1652 0.960 . S
H1639 C1652 0.960 . S
C1640 H1632 0.929 . S
C1640 C1641 1.377 . S
C1640 C1642 1.384 . S
C1641 C1640 1.377 . S
C1641 C1647 1.390 . S
C1642 H1633 0.930 . S
C1642 C1640 1.384 . S
C1642 C1643 1.372 . S
C1643 C1642 1.372 . S
C1643 C1644 1.400 . S
C1643 C1648 1.490 . S
C1644 H1634 0.930 . S
C1644 C1643 1.400 . S
C1644 C1647 1.386 . S
H1645 C1661 0.930 . S
H1646 C1662 0.931 . S
C1647 H1635 0.929 . S
C1647 C1641 1.390 . S
C1647 C1644 1.386 . S
C1648 C1643 1.490 . S
C1648 C1650 1.395 . S
C1648 C1651 1.403 . S
H1649 C1655 0.930 . S
C1650 H1636 0.930 . S
C1650 C1648 1.395 . S
C1650 C1653 1.403 . S
C1651 C1648 1.403 . S
C1651 C1652 1.524 . S
C1651 C1655 1.400 . S
C1652 H1637 0.960 . S
C1652 H1638 0.960 . S
C1652 H1639 0.960 . S
C1652 C1651 1.524 . S
C1653 C1650 1.403 . S
C1653 C1654 1.392 . S
C1653 C1657 1.495 . S
C1654 C1653 1.392 . S
C1654 C1655 1.385 . S
C1654 C1656 1.478 . S
C1655 H1649 0.930 . S
C1655 C1651 1.400 . S
C1655 C1654 1.385 . S
C1656 C1654 1.478 . S
C1656 C1658 1.381 . S
C1656 C1662 1.383 . S
C1657 C1653 1.495 . S
C1657 H1663 0.959 . S
C1657 H1664 0.961 . S
C1657 H1665 0.960 . S
C1658 C1656 1.381 . S
C1658 C1659 1.394 . S
C1658 H1666 0.930 . S
C1659 C1658 1.394 . S
C1659 C1660 1.383 . S
C1659 H1667 0.929 . S
C1660 C1659 1.383 . S
C1660 C1661 1.377 . S
C1661 H1645 0.930 . S
C1661 C1660 1.377 . S
C1661 C1662 1.379 . S
C1662 H1646 0.931 . S
C1662 C1656 1.383 . S
C1662 C1661 1.379 . S
H1663 C1657 0.959 . S
H1664 C1657 0.961 . S
H1665 C1657 0.960 . S
H1666 C1658 0.930 . S
H1667 C1659 0.929 . S
H1668 C1676 0.929 . S
H1669 C1678 0.930 . S
H1670 C1680 0.930 . S
H1671 C1683 0.929 . S
H1672 C1686 0.930 . S
H1673 C1688 0.960 . S
H1674 C1688 0.960 . S
H1675 C1688 0.960 . S
C1676 H1668 0.929 . S
C1676 C1677 1.377 . S
C1676 C1678 1.384 . S
C1677 C1676 1.377 . S
C1677 C1683 1.390 . S
C1678 H1669 0.930 . S
C1678 C1676 1.384 . S
C1678 C1679 1.372 . S
C1679 C1678 1.372 . S
C1679 C1680 1.400 . S
C1679 C1684 1.490 . S
C1680 H1670 0.930 . S
C1680 C1679 1.400 . S
C1680 C1683 1.386 . S
H1681 C1697 0.930 . S
H1682 C1698 0.931 . S
C1683 H1671 0.929 . S
C1683 C1677 1.390 . S
C1683 C1680 1.386 . S
C1684 C1679 1.490 . S
C1684 C1686 1.395 . S
C1684 C1687 1.403 . S
H1685 C1691 0.930 . S
C1686 H1672 0.930 . S
C1686 C1684 1.395 . S
C1686 C1689 1.403 . S
C1687 C1684 1.403 . S
C1687 C1688 1.524 . S
C1687 C1691 1.400 . S
C1688 H1673 0.960 . S
C1688 H1674 0.960 . S
C1688 H1675 0.960 . S
C1688 C1687 1.524 . S
C1689 C1686 1.403 . S
C1689 C1690 1.392 . S
C1689 C1693 1.495 . S
C1690 C1689 1.392 . S
C1690 C1691 1.385 . S
C1690 C1692 1.478 . S
C1691 H1685 0.930 . S
C1691 C1687 1.400 . S
C1691 C1690 1.385 . S
C1692 C1690 1.478 . S
C1692 C1694 1.381 . S
C1692 C1698 1.383 . S
C1693 C1689 1.495 . S
C1693 H1699 0.959 . S
C1693 H1700 0.961 . S
C1693 H1701 0.960 . S
C1694 C1692 1.381 . S
C1694 C1695 1.394 . S
C1694 H1702 0.930 . S
C1695 C1694 1.394 . S
C1695 C1696 1.383 . S
C1695 H1703 0.929 . S
C1696 C1695 1.383 . S
C1696 C1697 1.377 . S
C1697 H1681 0.930 . S
C1697 C1696 1.377 . S
C1697 C1698 1.379 . S
C1698 H1682 0.931 . S
C1698 C1692 1.383 . S
C1698 C1697 1.379 . S
H1699 C1693 0.959 . S
H1700 C1693 0.961 . S
H1701 C1693 0.960 . S
H1702 C1694 0.930 . S
H1703 C1695 0.929 . S
H1704 C1712 0.929 . S
H1705 C1714 0.930 . S
H1706 C1716 0.930 . S
H1707 C1719 0.929 . S
H1708 C1722 0.930 . S
H1709 C1724 0.960 . S
H1710 C1724 0.960 . S
H1711 C1724 0.960 . S
C1712 H1704 0.929 . S
C1712 C1713 1.377 . S
C1712 C1714 1.384 . S
C1713 C1712 1.377 . S
C1713 C1719 1.390 . S
C1714 H1705 0.930 . S
C1714 C1712 1.384 . S
C1714 C1715 1.372 . S
C1715 C1714 1.372 . S
C1715 C1716 1.400 . S
C1715 C1720 1.490 . S
C1716 H1706 0.930 . S
C1716 C1715 1.400 . S
C1716 C1719 1.386 . S
H1717 C1733 0.930 . S
H1718 C1734 0.931 . S
C1719 H1707 0.929 . S
C1719 C1713 1.390 . S
C1719 C1716 1.386 . S
C1720 C1715 1.490 . S
C1720 C1722 1.395 . S
C1720 C1723 1.403 . S
H1721 C1727 0.930 . S
C1722 H1708 0.930 . S
C1722 C1720 1.395 . S
C1722 C1725 1.403 . S
C1723 C1720 1.403 . S
C1723 C1724 1.524 . S
C1723 C1727 1.400 . S
C1724 H1709 0.960 . S
C1724 H1710 0.960 . S
C1724 H1711 0.960 . S
C1724 C1723 1.524 . S
C1725 C1722 1.403 . S
C1725 C1726 1.392 . S
C1725 C1729 1.495 . S
C1726 C1725 1.392 . S
C1726 C1727 1.385 . S
C1726 C1728 1.478 . S
C1727 H1721 0.930 . S
C1727 C1723 1.400 . S
C1727 C1726 1.385 . S
C1728 C1726 1.478 . S
C1728 C1730 1.381 . S
C1728 C1734 1.383 . S
C1729 C1725 1.495 . S
C1729 H1735 0.959 . S
C1729 H1736 0.961 . S
C1729 H1737 0.960 . S
C1730 C1728 1.381 . S
C1730 C1731 1.394 . S
C1730 H1738 0.930 . S
C1731 C1730 1.394 . S
C1731 C1732 1.383 . S
C1731 H1739 0.929 . S
C1732 C1731 1.383 . S
C1732 C1733 1.377 . S
C1733 H1717 0.930 . S
C1733 C1732 1.377 . S
C1733 C1734 1.379 . S
C1734 H1718 0.931 . S
C1734 C1728 1.383 . S
C1734 C1733 1.379 . S
H1735 C1729 0.959 . S
H1736 C1729 0.961 . S
H1737 C1729 0.960 . S
H1738 C1730 0.930 . S
H1739 C1731 0.929 . S
H1740 C1748 0.929 . S
H1741 C1750 0.930 . S
H1742 C1752 0.930 . S
H1743 C1755 0.929 . S
H1744 C1758 0.930 . S
H1745 C1760 0.960 . S
H1746 C1760 0.960 . S
H1747 C1760 0.960 . S
C1748 H1740 0.929 . S
C1748 C1749 1.377 . S
C1748 C1750 1.384 . S
C1749 C1748 1.377 . S
C1749 C1755 1.390 . S
C1750 H1741 0.930 . S
C1750 C1748 1.384 . S
C1750 C1751 1.372 . S
C1751 C1750 1.372 . S
C1751 C1752 1.400 . S
C1751 C1756 1.490 . S
C1752 H1742 0.930 . S
C1752 C1751 1.400 . S
C1752 C1755 1.386 . S
H1753 C1769 0.930 . S
H1754 C1770 0.931 . S
C1755 H1743 0.929 . S
C1755 C1749 1.390 . S
C1755 C1752 1.386 . S
C1756 C1751 1.490 . S
C1756 C1758 1.395 . S
C1756 C1759 1.403 . S
H1757 C1763 0.930 . S
C1758 H1744 0.930 . S
C1758 C1756 1.395 . S
C1758 C1761 1.403 . S
C1759 C1756 1.403 . S
C1759 C1760 1.524 . S
C1759 C1763 1.400 . S
C1760 H1745 0.960 . S
C1760 H1746 0.960 . S
C1760 H1747 0.960 . S
C1760 C1759 1.524 . S
C1761 C1758 1.403 . S
C1761 C1762 1.392 . S
C1761 C1765 1.495 . S
C1762 C1761 1.392 . S
C1762 C1763 1.385 . S
C1762 C1764 1.478 . S
C1763 H1757 0.930 . S
C1763 C1759 1.400 . S
C1763 C1762 1.385 . S
C1764 C1762 1.478 . S
C1764 C1766 1.381 . S
C1764 C1770 1.383 . S
C1765 C1761 1.495 . S
C1765 H1771 0.959 . S
C1765 H1772 0.961 . S
C1765 H1773 0.960 . S
C1766 C1764 1.381 . S
C1766 C1767 1.394 . S
C1766 H1774 0.930 . S
C1767 C1766 1.394 . S
C1767 C1768 1.383 . S
C1767 H1775 0.929 . S
C1768 C1767 1.383 . S
C1768 C1769 1.377 . S
C1769 H1753 0.930 . S
C1769 C1768 1.377 . S
C1769 C1770 1.379 . S
C1770 H1754 0.931 . S
C1770 C1764 1.383 . S
C1770 C1769 1.379 . S
H1771 C1765 0.959 . S
H1772 C1765 0.961 . S
H1773 C1765 0.960 . S
H1774 C1766 0.930 . S
H1775 C1767 0.929 . S
H1776 C1784 0.929 . S
H1777 C1786 0.930 . S
H1778 C1788 0.930 . S
H1779 C1791 0.929 . S
H1780 C1794 0.930 . S
H1781 C1796 0.960 . S
H1782 C1796 0.960 . S
H1783 C1796 0.960 . S
C1784 H1776 0.929 . S
C1784 C1785 1.377 . S
C1784 C1786 1.384 . S
C1785 C1784 1.377 . S
C1785 C1791 1.390 . S
C1786 H1777 0.930 . S
C1786 C1784 1.384 . S
C1786 C1787 1.372 . S
C1787 C1786 1.372 . S
C1787 C1788 1.400 . S
C1787 C1792 1.490 . S
C1788 H1778 0.930 . S
C1788 C1787 1.400 . S
C1788 C1791 1.386 . S
H1789 C1805 0.930 . S
H1790 C1806 0.931 . S
C1791 H1779 0.929 . S
C1791 C1785 1.390 . S
C1791 C1788 1.386 . S
C1792 C1787 1.490 . S
C1792 C1794 1.395 . S
C1792 C1795 1.403 . S
H1793 C1799 0.930 . S
C1794 H1780 0.930 . S
C1794 C1792 1.395 . S
C1794 C1797 1.403 . S
C1795 C1792 1.403 . S
C1795 C1796 1.524 . S
C1795 C1799 1.400 . S
C1796 H1781 0.960 . S
C1796 H1782 0.960 . S
C1796 H1783 0.960 . S
C1796 C1795 1.524 . S
C1797 C1794 1.403 . S
C1797 C1798 1.392 . S
C1797 C1801 1.495 . S
C1798 C1797 1.392 . S
C1798 C1799 1.385 . S
C1798 C1800 1.478 . S
C1799 H1793 0.930 . S
C1799 C1795 1.400 . S
C1799 C1798 1.385 . S
C1800 C1798 1.478 . S
C1800 C1802 1.381 . S
C1800 C1806 1.383 . S
C1801 C1797 1.495 . S
C1801 H1807 0.959 . S
C1801 H1808 0.961 . S
C1801 H1809 0.960 . S
C1802 C1800 1.381 . S
C1802 C1803 1.394 . S
C1802 H1810 0.930 . S
C1803 C1802 1.394 . S
C1803 C1804 1.383 . S
C1803 H1811 0.929 . S
C1804 C1803 1.383 . S
C1804 C1805 1.377 . S
C1805 H1789 0.930 . S
C1805 C1804 1.377 . S
C1805 C1806 1.379 . S
C1806 H1790 0.931 . S
C1806 C1800 1.383 . S
C1806 C1805 1.379 . S
H1807 C1801 0.959 . S
H1808 C1801 0.961 . S
H1809 C1801 0.960 . S
H1810 C1802 0.930 . S
H1811 C1803 0.929 . S
H1812 C1820 0.929 . S
H1813 C1822 0.930 . S
H1814 C1824 0.930 . S
H1815 C1827 0.929 . S
H1816 C1830 0.930 . S
H1817 C1832 0.960 . S
H1818 C1832 0.960 . S
H1819 C1832 0.960 . S
C1820 H1812 0.929 . S
C1820 C1821 1.377 . S
C1820 C1822 1.384 . S
C1821 C1820 1.377 . S
C1821 C1827 1.390 . S
C1822 H1813 0.930 . S
C1822 C1820 1.384 . S
C1822 C1823 1.372 . S
C1823 C1822 1.372 . S
C1823 C1824 1.400 . S
C1823 C1828 1.490 . S
C1824 H1814 0.930 . S
C1824 C1823 1.400 . S
C1824 C1827 1.386 . S
H1825 C1841 0.930 . S
H1826 C1842 0.931 . S
C1827 H1815 0.929 . S
C1827 C1821 1.390 . S
C1827 C1824 1.386 . S
C1828 C1823 1.490 . S
C1828 C1830 1.395 . S
C1828 C1831 1.403 . S
H1829 C1835 0.930 . S
C1830 H1816 0.930 . S
C1830 C1828 1.395 . S
C1830 C1833 1.403 . S
C1831 C1828 1.403 . S
C1831 C1832 1.524 . S
C1831 C1835 1.400 . S
C1832 H1817 0.960 . S
C1832 H1818 0.960 . S
C1832 H1819 0.960 . S
C1832 C1831 1.524 . S
C1833 C1830 1.403 . S
C1833 C1834 1.392 . S
C1833 C1837 1.495 . S
C1834 C1833 1.392 . S
C1834 C1835 1.385 . S
C1834 C1836 1.478 . S
C1835 H1829 0.930 . S
C1835 C1831 1.400 . S
C1835 C1834 1.385 . S
C1836 C1834 1.478 . S
C1836 C1838 1.381 . S
C1836 C1842 1.383 . S
C1837 C1833 1.495 . S
C1837 H1843 0.959 . S
C1837 H1844 0.961 . S
C1837 H1845 0.960 . S
C1838 C1836 1.381 . S
C1838 C1839 1.394 . S
C1838 H1846 0.930 . S
C1839 C1838 1.394 . S
C1839 C1840 1.383 . S
C1839 H1847 0.929 . S
C1840 C1839 1.383 . S
C1840 C1841 1.377 . S
C1841 H1825 0.930 . S
C1841 C1840 1.377 . S
C1841 C1842 1.379 . S
C1842 H1826 0.931 . S
C1842 C1836 1.383 . S
C1842 C1841 1.379 . S
H1843 C1837 0.959 . S
H1844 C1837 0.961 . S
H1845 C1837 0.960 . S
H1846 C1838 0.930 . S
H1847 C1839 0.929 . S
H1848 C1856 0.929 . S
H1849 C1858 0.930 . S
H1850 C1860 0.930 . S
H1851 C1863 0.929 . S
H1852 C1866 0.930 . S
H1853 C1868 0.960 . S
H1854 C1868 0.960 . S
H1855 C1868 0.960 . S
C1856 H1848 0.929 . S
C1856 C1857 1.377 . S
C1856 C1858 1.384 . S
C1857 C1856 1.377 . S
C1857 C1863 1.390 . S
C1858 H1849 0.930 . S
C1858 C1856 1.384 . S
C1858 C1859 1.372 . S
C1859 C1858 1.372 . S
C1859 C1860 1.400 . S
C1859 C1864 1.490 . S
C1860 H1850 0.930 . S
C1860 C1859 1.400 . S
C1860 C1863 1.386 . S
H1861 C1877 0.930 . S
H1862 C1878 0.931 . S
C1863 H1851 0.929 . S
C1863 C1857 1.390 . S
C1863 C1860 1.386 . S
C1864 C1859 1.490 . S
C1864 C1866 1.395 . S
C1864 C1867 1.403 . S
H1865 C1871 0.930 . S
C1866 H1852 0.930 . S
C1866 C1864 1.395 . S
C1866 C1869 1.403 . S
C1867 C1864 1.403 . S
C1867 C1868 1.524 . S
C1867 C1871 1.400 . S
C1868 H1853 0.960 . S
C1868 H1854 0.960 . S
C1868 H1855 0.960 . S
C1868 C1867 1.524 . S
C1869 C1866 1.403 . S
C1869 C1870 1.392 . S
C1869 C1873 1.495 . S
C1870 C1869 1.392 . S
C1870 C1871 1.385 . S
C1870 C1872 1.478 . S
C1871 H1865 0.930 . S
C1871 C1867 1.400 . S
C1871 C1870 1.385 . S
C1872 C1870 1.478 . S
C1872 C1874 1.381 . S
C1872 C1878 1.383 . S
C1873 C1869 1.495 . S
C1873 H1879 0.959 . S
C1873 H1880 0.961 . S
C1873 H1881 0.960 . S
C1874 C1872 1.381 . S
C1874 C1875 1.394 . S
C1874 H1882 0.930 . S
C1875 C1874 1.394 . S
C1875 C1876 1.383 . S
C1875 H1883 0.929 . S
C1876 C1875 1.383 . S
C1876 C1877 1.377 . S
C1877 H1861 0.930 . S
C1877 C1876 1.377 . S
C1877 C1878 1.379 . S
C1878 H1862 0.931 . S
C1878 C1872 1.383 . S
C1878 C1877 1.379 . S
H1879 C1873 0.959 . S
H1880 C1873 0.961 . S
H1881 C1873 0.960 . S
H1882 C1874 0.930 . S
H1883 C1875 0.929 . S
H1884 C1892 0.929 . S
H1885 C1894 0.930 . S
H1886 C1896 0.930 . S
H1887 C1899 0.929 . S
H1888 C1902 0.930 . S
H1889 C1904 0.960 . S
H1890 C1904 0.960 . S
H1891 C1904 0.960 . S
C1892 H1884 0.929 . S
C1892 C1893 1.377 . S
C1892 C1894 1.384 . S
C1893 C1892 1.377 . S
C1893 C1899 1.390 . S
C1894 H1885 0.930 . S
C1894 C1892 1.384 . S
C1894 C1895 1.372 . S
C1895 C1894 1.372 . S
C1895 C1896 1.400 . S
C1895 C1900 1.490 . S
C1896 H1886 0.930 . S
C1896 C1895 1.400 . S
C1896 C1899 1.386 . S
H1897 C1913 0.930 . S
H1898 C1914 0.931 . S
C1899 H1887 0.929 . S
C1899 C1893 1.390 . S
C1899 C1896 1.386 . S
C1900 C1895 1.490 . S
C1900 C1902 1.395 . S
C1900 C1903 1.403 . S
H1901 C1907 0.930 . S
C1902 H1888 0.930 . S
C1902 C1900 1.395 . S
C1902 C1905 1.403 . S
C1903 C1900 1.403 . S
C1903 C1904 1.524 . S
C1903 C1907 1.400 . S
C1904 H1889 0.960 . S
C1904 H1890 0.960 . S
C1904 H1891 0.960 . S
C1904 C1903 1.524 . S
C1905 C1902 1.403 . S
C1905 C1906 1.392 . S
C1905 C1909 1.495 . S
C1906 C1905 1.392 . S
C1906 C1907 1.385 . S
C1906 C1908 1.478 . S
C1907 H1901 0.930 . S
C1907 C1903 1.400 . S
C1907 C1906 1.385 . S
C1908 C1906 1.478 . S
C1908 C1910 1.381 . S
C1908 C1914 1.383 . S
C1909 C1905 1.495 . S
C1909 H1915 0.959 . S
C1909 H1916 0.961 . S
C1909 H1917 0.960 . S
C1910 C1908 1.381 . S
C1910 C1911 1.394 . S
C1910 H1918 0.930 . S
C1911 C1910 1.394 . S
C1911 C1912 1.383 . S
C1911 H1919 0.929 . S
C1912 C1911 1.383 . S
C1912 C1913 1.377 . S
C1913 H1897 0.930 . S
C1913 C1912 1.377 . S
C1913 C1914 1.379 . S
C1914 H1898 0.931 . S
C1914 C1908 1.383 . S
C1914 C1913 1.379 . S
H1915 C1909 0.959 . S
H1916 C1909 0.961 . S
H1917 C1909 0.960 . S
H1918 C1910 0.930 . S
H1919 C1911 0.929 . S
C417 C6 0.802 . S
C436 C266 0.762 . S
C453 C40 0.807 . S
C472 C278 0.787 . S
C489 C334 0.807 . S
C508 C74 0.787 . S
C525 C130 0.805 . S
C544 C346 0.774 . S
C561 C142 0.794 . S
C580 C402 0.801 . S
C597 C232 0.792 . S
C616 C198 0.781 . S
C633 C355 0.577 . S
C652 C124 0.659 . S
C669 C151 0.568 . S
C688 C396 0.534 . S
C705 C192 0.594 . S
C724 C226 0.620 . S
C741 C15 0.573 . S
C760 C260 0.653 . S
C777 C287 0.581 . S
C796 C49 0.515 . S
C813 C328 0.578 . S
C832 C83 0.660 . S
C849 C119 0.688 1_556 S
C868 C17 0.704 . S
C885 C51 0.688 . S
C904 C153 0.671 1_556 S
C921 C187 0.693 1_556 S
C940 C85 0.705 1_556 S
C957 C221 0.687 . S
C976 C323 0.670 . S
C993 C255 0.686 . S
C1012 C357 0.671 . S
C1029 C391 0.689 . S
C1048 C289 0.708 . S
C1065 C22 0.545 . S
C1084 C362 0.554 . S
C1101 C56 0.530 . S
C1120 C389 0.614 . S
C1137 C90 0.543 . S
C1156 C219 0.589 . S
C1173 C253 0.511 . S
C1192 C117 0.513 . S
C1209 C294 0.542 . S
C1228 C158 0.505 . S
C1245 C185 0.539 . S
C1264 C321 0.486 . S
C1281 C244 0.936 . S
C1300 C108 0.950 . S
C1317 C300 0.927 . S
C1336 C164 0.945 . S
C1353 C312 0.928 . S
C1372 C176 0.904 . S
C1389 C368 0.927 . S
C1408 C28 0.904 . S
C1425 C380 0.931 . S
C1444 C62 0.958 . S
C1461 C96 0.931 . S
C1480 C210 0.908 . S
C1497 C1 2.988 . S
C1516 C273 2.970 . S
C1533 C309 2.988 . S
C1552 C35 2.980 . S
C1569 C341 2.985 . S
C1588 C69 2.986 . S
C1605 C105 2.988 . S
C1624 C377 2.978 . S
C1641 C207 2.987 . S
C1660 C137 2.971 . S
C1677 C173 2.985 . S
C1696 C241 2.984 . S
C1713 C375 2.955 . S
C1732 C103 2.948 . S
C1749 C205 2.955 . S
C1768 C139 2.948 . S
C1785 C239 2.954 . S
C1804 C171 2.957 . S
C1821 C275 2.955 . S
C1840 C3 2.959 . S
C1857 C307 2.956 . S
C1876 C37 2.949 . S
C1893 C343 2.956 . S
C1912 C71 2.947 . S
