# Generated by pormake.
# Topology ana, (4)-cn, num edge types: 1
# Building blocks:
#     Node 0, Type 0, BuildingBlock: TATPOV_clean_sbu_0, # of connection points: 4
#     Node 1, Type 0, BuildingBlock: TATPOV_clean_sbu_0, # of connection points: 4
#     Node 2, Type 0, BuildingBlock: TATPOV_clean_sbu_0, # of connection points: 4
#     Node 3, Type 0, BuildingBlock: TATPOV_clean_sbu_0, # of connection points: 4
#     Node 4, Type 0, BuildingBlock: TATPOV_clean_sbu_0, # of connection points: 4
#     Node 5, Type 0, BuildingBlock: TATPOV_clean_sbu_0, # of connection points: 4
#     Node 6, Type 0, BuildingBlock: TATPOV_clean_sbu_0, # of connection points: 4
#     Node 7, Type 0, BuildingBlock: TATPOV_clean_sbu_0, # of connection points: 4
#     Node 8, Type 0, BuildingBlock: TATPOV_clean_sbu_0, # of connection points: 4
#     Node 9, Type 0, BuildingBlock: TATPOV_clean_sbu_0, # of connection points: 4
#     Node 10, Type 0, BuildingBlock: TATPOV_clean_sbu_0, # of connection points: 4
#     Node 11, Type 0, BuildingBlock: TATPOV_clean_sbu_0, # of connection points: 4
#     Node 12, Type 0, BuildingBlock: TATPOV_clean_sbu_0, # of connection points: 4
#     Node 13, Type 0, BuildingBlock: TATPOV_clean_sbu_0, # of connection points: 4
#     Node 14, Type 0, BuildingBlock: TATPOV_clean_sbu_0, # of connection points: 4
#     Node 15, Type 0, BuildingBlock: TATPOV_clean_sbu_0, # of connection points: 4
#     Node 16, Type 0, BuildingBlock: TATPOV_clean_sbu_0, # of connection points: 4
#     Node 17, Type 0, BuildingBlock: TATPOV_clean_sbu_0, # of connection points: 4
#     Node 18, Type 0, BuildingBlock: TATPOV_clean_sbu_0, # of connection points: 4
#     Node 19, Type 0, BuildingBlock: TATPOV_clean_sbu_0, # of connection points: 4
#     Node 20, Type 0, BuildingBlock: TATPOV_clean_sbu_0, # of connection points: 4
#     Node 21, Type 0, BuildingBlock: TATPOV_clean_sbu_0, # of connection points: 4
#     Node 22, Type 0, BuildingBlock: TATPOV_clean_sbu_0, # of connection points: 4
#     Node 23, Type 0, BuildingBlock: TATPOV_clean_sbu_0, # of connection points: 4
#     Node 24, Type 0, BuildingBlock: TATPOV_clean_sbu_0, # of connection points: 4
#     Node 25, Type 0, BuildingBlock: TATPOV_clean_sbu_0, # of connection points: 4
#     Node 26, Type 0, BuildingBlock: TATPOV_clean_sbu_0, # of connection points: 4
#     Node 27, Type 0, BuildingBlock: TATPOV_clean_sbu_0, # of connection points: 4
#     Node 28, Type 0, BuildingBlock: TATPOV_clean_sbu_0, # of connection points: 4
#     Node 29, Type 0, BuildingBlock: TATPOV_clean_sbu_0, # of connection points: 4
#     Node 30, Type 0, BuildingBlock: TATPOV_clean_sbu_0, # of connection points: 4
#     Node 31, Type 0, BuildingBlock: TATPOV_clean_sbu_0, # of connection points: 4
#     Node 32, Type 0, BuildingBlock: TATPOV_clean_sbu_0, # of connection points: 4
#     Node 33, Type 0, BuildingBlock: TATPOV_clean_sbu_0, # of connection points: 4
#     Node 34, Type 0, BuildingBlock: TATPOV_clean_sbu_0, # of connection points: 4
#     Node 35, Type 0, BuildingBlock: TATPOV_clean_sbu_0, # of connection points: 4
#     Node 36, Type 0, BuildingBlock: TATPOV_clean_sbu_0, # of connection points: 4
#     Node 37, Type 0, BuildingBlock: TATPOV_clean_sbu_0, # of connection points: 4
#     Node 38, Type 0, BuildingBlock: TATPOV_clean_sbu_0, # of connection points: 4
#     Node 39, Type 0, BuildingBlock: TATPOV_clean_sbu_0, # of connection points: 4
#     Node 40, Type 0, BuildingBlock: TATPOV_clean_sbu_0, # of connection points: 4
#     Node 41, Type 0, BuildingBlock: TATPOV_clean_sbu_0, # of connection points: 4
#     Node 42, Type 0, BuildingBlock: TATPOV_clean_sbu_0, # of connection points: 4
#     Node 43, Type 0, BuildingBlock: TATPOV_clean_sbu_0, # of connection points: 4
#     Node 44, Type 0, BuildingBlock: TATPOV_clean_sbu_0, # of connection points: 4
#     Node 45, Type 0, BuildingBlock: TATPOV_clean_sbu_0, # of connection points: 4
#     Node 46, Type 0, BuildingBlock: TATPOV_clean_sbu_0, # of connection points: 4
#     Node 47, Type 0, BuildingBlock: TATPOV_clean_sbu_0, # of connection points: 4
#     Edge 48, Type (0, 0), BuildingBlock: OJICUG_clean_linker_0, # of connection points: 2
#     Edge 49, Type (0, 0), BuildingBlock: OJICUG_clean_linker_0, # of connection points: 2
#     Edge 50, Type (0, 0), BuildingBlock: OJICUG_clean_linker_0, # of connection points: 2
#     Edge 51, Type (0, 0), BuildingBlock: OJICUG_clean_linker_0, # of connection points: 2
#     Edge 52, Type (0, 0), BuildingBlock: OJICUG_clean_linker_0, # of connection points: 2
#     Edge 53, Type (0, 0), BuildingBlock: OJICUG_clean_linker_0, # of connection points: 2
#     Edge 54, Type (0, 0), BuildingBlock: OJICUG_clean_linker_0, # of connection points: 2
#     Edge 55, Type (0, 0), BuildingBlock: OJICUG_clean_linker_0, # of connection points: 2
#     Edge 56, Type (0, 0), BuildingBlock: OJICUG_clean_linker_0, # of connection points: 2
#     Edge 57, Type (0, 0), BuildingBlock: OJICUG_clean_linker_0, # of connection points: 2
#     Edge 58, Type (0, 0), BuildingBlock: OJICUG_clean_linker_0, # of connection points: 2
#     Edge 59, Type (0, 0), BuildingBlock: OJICUG_clean_linker_0, # of connection points: 2
#     Edge 60, Type (0, 0), BuildingBlock: OJICUG_clean_linker_0, # of connection points: 2
#     Edge 61, Type (0, 0), BuildingBlock: OJICUG_clean_linker_0, # of connection points: 2
#     Edge 62, Type (0, 0), BuildingBlock: OJICUG_clean_linker_0, # of connection points: 2
#     Edge 63, Type (0, 0), BuildingBlock: OJICUG_clean_linker_0, # of connection points: 2
#     Edge 64, Type (0, 0), BuildingBlock: OJICUG_clean_linker_0, # of connection points: 2
#     Edge 65, Type (0, 0), BuildingBlock: OJICUG_clean_linker_0, # of connection points: 2
#     Edge 66, Type (0, 0), BuildingBlock: OJICUG_clean_linker_0, # of connection points: 2
#     Edge 67, Type (0, 0), BuildingBlock: OJICUG_clean_linker_0, # of connection points: 2
#     Edge 68, Type (0, 0), BuildingBlock: OJICUG_clean_linker_0, # of connection points: 2
#     Edge 69, Type (0, 0), BuildingBlock: OJICUG_clean_linker_0, # of connection points: 2
#     Edge 70, Type (0, 0), BuildingBlock: OJICUG_clean_linker_0, # of connection points: 2
#     Edge 71, Type (0, 0), BuildingBlock: OJICUG_clean_linker_0, # of connection points: 2
#     Edge 72, Type (0, 0), BuildingBlock: OJICUG_clean_linker_0, # of connection points: 2
#     Edge 73, Type (0, 0), BuildingBlock: OJICUG_clean_linker_0, # of connection points: 2
#     Edge 74, Type (0, 0), BuildingBlock: OJICUG_clean_linker_0, # of connection points: 2
#     Edge 75, Type (0, 0), BuildingBlock: OJICUG_clean_linker_0, # of connection points: 2
#     Edge 76, Type (0, 0), BuildingBlock: OJICUG_clean_linker_0, # of connection points: 2
#     Edge 77, Type (0, 0), BuildingBlock: OJICUG_clean_linker_0, # of connection points: 2
#     Edge 78, Type (0, 0), BuildingBlock: OJICUG_clean_linker_0, # of connection points: 2
#     Edge 79, Type (0, 0), BuildingBlock: OJICUG_clean_linker_0, # of connection points: 2
#     Edge 80, Type (0, 0), BuildingBlock: OJICUG_clean_linker_0, # of connection points: 2
#     Edge 81, Type (0, 0), BuildingBlock: OJICUG_clean_linker_0, # of connection points: 2
#     Edge 82, Type (0, 0), BuildingBlock: OJICUG_clean_linker_0, # of connection points: 2
#     Edge 83, Type (0, 0), BuildingBlock: OJICUG_clean_linker_0, # of connection points: 2
#     Edge 84, Type (0, 0), BuildingBlock: OJICUG_clean_linker_0, # of connection points: 2
#     Edge 85, Type (0, 0), BuildingBlock: OJICUG_clean_linker_0, # of connection points: 2
#     Edge 86, Type (0, 0), BuildingBlock: OJICUG_clean_linker_0, # of connection points: 2
#     Edge 87, Type (0, 0), BuildingBlock: OJICUG_clean_linker_0, # of connection points: 2
#     Edge 88, Type (0, 0), BuildingBlock: OJICUG_clean_linker_0, # of connection points: 2
#     Edge 89, Type (0, 0), BuildingBlock: OJICUG_clean_linker_0, # of connection points: 2
#     Edge 90, Type (0, 0), BuildingBlock: OJICUG_clean_linker_0, # of connection points: 2
#     Edge 91, Type (0, 0), BuildingBlock: OJICUG_clean_linker_0, # of connection points: 2
#     Edge 92, Type (0, 0), BuildingBlock: OJICUG_clean_linker_0, # of connection points: 2
#     Edge 93, Type (0, 0), BuildingBlock: OJICUG_clean_linker_0, # of connection points: 2
#     Edge 94, Type (0, 0), BuildingBlock: OJICUG_clean_linker_0, # of connection points: 2
#     Edge 95, Type (0, 0), BuildingBlock: OJICUG_clean_linker_0, # of connection points: 2
#     Edge 96, Type (0, 0), BuildingBlock: OJICUG_clean_linker_0, # of connection points: 2
#     Edge 97, Type (0, 0), BuildingBlock: OJICUG_clean_linker_0, # of connection points: 2
#     Edge 98, Type (0, 0), BuildingBlock: OJICUG_clean_linker_0, # of connection points: 2
#     Edge 99, Type (0, 0), BuildingBlock: OJICUG_clean_linker_0, # of connection points: 2
#     Edge 100, Type (0, 0), BuildingBlock: OJICUG_clean_linker_0, # of connection points: 2
#     Edge 101, Type (0, 0), BuildingBlock: OJICUG_clean_linker_0, # of connection points: 2
#     Edge 102, Type (0, 0), BuildingBlock: OJICUG_clean_linker_0, # of connection points: 2
#     Edge 103, Type (0, 0), BuildingBlock: OJICUG_clean_linker_0, # of connection points: 2
#     Edge 104, Type (0, 0), BuildingBlock: OJICUG_clean_linker_0, # of connection points: 2
#     Edge 105, Type (0, 0), BuildingBlock: OJICUG_clean_linker_0, # of connection points: 2
#     Edge 106, Type (0, 0), BuildingBlock: OJICUG_clean_linker_0, # of connection points: 2
#     Edge 107, Type (0, 0), BuildingBlock: OJICUG_clean_linker_0, # of connection points: 2
#     Edge 108, Type (0, 0), BuildingBlock: OJICUG_clean_linker_0, # of connection points: 2
#     Edge 109, Type (0, 0), BuildingBlock: OJICUG_clean_linker_0, # of connection points: 2
#     Edge 110, Type (0, 0), BuildingBlock: OJICUG_clean_linker_0, # of connection points: 2
#     Edge 111, Type (0, 0), BuildingBlock: OJICUG_clean_linker_0, # of connection points: 2
#     Edge 112, Type (0, 0), BuildingBlock: OJICUG_clean_linker_0, # of connection points: 2
#     Edge 113, Type (0, 0), BuildingBlock: OJICUG_clean_linker_0, # of connection points: 2
#     Edge 114, Type (0, 0), BuildingBlock: OJICUG_clean_linker_0, # of connection points: 2
#     Edge 115, Type (0, 0), BuildingBlock: OJICUG_clean_linker_0, # of connection points: 2
#     Edge 116, Type (0, 0), BuildingBlock: OJICUG_clean_linker_0, # of connection points: 2
#     Edge 117, Type (0, 0), BuildingBlock: OJICUG_clean_linker_0, # of connection points: 2
#     Edge 118, Type (0, 0), BuildingBlock: OJICUG_clean_linker_0, # of connection points: 2
#     Edge 119, Type (0, 0), BuildingBlock: OJICUG_clean_linker_0, # of connection points: 2
#     Edge 120, Type (0, 0), BuildingBlock: OJICUG_clean_linker_0, # of connection points: 2
#     Edge 121, Type (0, 0), BuildingBlock: OJICUG_clean_linker_0, # of connection points: 2
#     Edge 122, Type (0, 0), BuildingBlock: OJICUG_clean_linker_0, # of connection points: 2
#     Edge 123, Type (0, 0), BuildingBlock: OJICUG_clean_linker_0, # of connection points: 2
#     Edge 124, Type (0, 0), BuildingBlock: OJICUG_clean_linker_0, # of connection points: 2
#     Edge 125, Type (0, 0), BuildingBlock: OJICUG_clean_linker_0, # of connection points: 2
#     Edge 126, Type (0, 0), BuildingBlock: OJICUG_clean_linker_0, # of connection points: 2
#     Edge 127, Type (0, 0), BuildingBlock: OJICUG_clean_linker_0, # of connection points: 2
#     Edge 128, Type (0, 0), BuildingBlock: OJICUG_clean_linker_0, # of connection points: 2
#     Edge 129, Type (0, 0), BuildingBlock: OJICUG_clean_linker_0, # of connection points: 2
#     Edge 130, Type (0, 0), BuildingBlock: OJICUG_clean_linker_0, # of connection points: 2
#     Edge 131, Type (0, 0), BuildingBlock: OJICUG_clean_linker_0, # of connection points: 2
#     Edge 132, Type (0, 0), BuildingBlock: OJICUG_clean_linker_0, # of connection points: 2
#     Edge 133, Type (0, 0), BuildingBlock: OJICUG_clean_linker_0, # of connection points: 2
#     Edge 134, Type (0, 0), BuildingBlock: OJICUG_clean_linker_0, # of connection points: 2
#     Edge 135, Type (0, 0), BuildingBlock: OJICUG_clean_linker_0, # of connection points: 2
#     Edge 136, Type (0, 0), BuildingBlock: OJICUG_clean_linker_0, # of connection points: 2
#     Edge 137, Type (0, 0), BuildingBlock: OJICUG_clean_linker_0, # of connection points: 2
#     Edge 138, Type (0, 0), BuildingBlock: OJICUG_clean_linker_0, # of connection points: 2
#     Edge 139, Type (0, 0), BuildingBlock: OJICUG_clean_linker_0, # of connection points: 2
#     Edge 140, Type (0, 0), BuildingBlock: OJICUG_clean_linker_0, # of connection points: 2
#     Edge 141, Type (0, 0), BuildingBlock: OJICUG_clean_linker_0, # of connection points: 2
#     Edge 142, Type (0, 0), BuildingBlock: OJICUG_clean_linker_0, # of connection points: 2
#     Edge 143, Type (0, 0), BuildingBlock: OJICUG_clean_linker_0, # of connection points: 2
# Relax obj value: 0.167
# Max RMSD: 0.202
# Mean RMSD: 0.183
data_MOF--net-ana--node1-TATPOV_clean_sbu_0--edge1-OJICUG_clean_linker_0
_symmetry_space_group_name_H-M    P1
_symmetry_Int_Tables_number       1
_symmetry_cell_setting            triclinic
loop_
_symmetry_equiv_pos_as_xyz
'x, y, z'
_cell_length_a     46.562664
_cell_length_b     47.012783
_cell_length_c     46.940339
_cell_angle_alpha  90.268674
_cell_angle_beta   89.767369
_cell_angle_gamma 90.902143
loop_
_atom_site_label
_atom_site_type_symbol
_atom_site_fract_x
_atom_site_fract_y
_atom_site_fract_z
_atom_type_partial_charge
Zn0 Zn 0.14795 0.18391 0.33414 0.0
Zn1 Zn 0.12946 0.17637 0.38867 0.0
O2 O 0.0977 0.15654 0.36586 0.0
O3 O 0.11488 0.15786 0.322 0.0
O4 O 0.12318 0.1635 0.42953 0.0
O5 O 0.18727 0.16741 0.34037 0.0
O6 O 0.16965 0.15976 0.3831 0.0
C7 C 0.0955 0.15024 0.33956 0.0
C8 C 0.12856 0.23564 0.36392 0.0
O9 O 0.12431 0.21959 0.38545 0.0
O10 O 0.13909 0.22553 0.3411 0.0
C11 C 0.12336 0.13643 0.4305 0.0
O12 O 0.12387 0.12226 0.4063 0.0
C13 C 0.18988 0.15707 0.36503 0.0
Zn14 Zn 0.04878 0.83134 0.7321 0.0
Zn15 Zn 0.06864 0.87176 0.69401 0.0
O16 O 0.0314 0.85901 0.67611 0.0
O17 O 0.01253 0.82915 0.7074 0.0
O18 O 0.08237 0.90446 0.67026 0.0
O19 O 0.05218 0.8594 0.76506 0.0
O20 O 0.06675 0.8901 0.73273 0.0
C21 C 0.01121 0.84228 0.6839 0.0
C22 C 0.10212 0.81769 0.70093 0.0
O23 O 0.099 0.84188 0.68943 0.0
O24 O 0.08414 0.80882 0.71942 0.0
C25 C 0.09012 0.9019 0.64445 0.0
O26 O 0.0888 0.87672 0.6322 0.0
C27 C 0.06058 0.88425 0.75844 0.0
Zn28 Zn 0.35014 0.81611 0.82728 0.0
Zn29 Zn 0.3491 0.81445 0.88437 0.0
O30 O 0.38931 0.82989 0.87662 0.0
O31 O 0.38991 0.83345 0.82979 0.0
O32 O 0.34301 0.82034 0.92651 0.0
O33 O 0.31635 0.84142 0.82371 0.0
O34 O 0.31659 0.8401 0.87044 0.0
C35 C 0.40232 0.8363 0.85361 0.0
C36 C 0.34804 0.75914 0.85084 0.0
O37 O 0.34844 0.77169 0.87501 0.0
O38 O 0.34668 0.77349 0.82811 0.0
C39 C 0.3622 0.82722 0.94459 0.0
O40 O 0.38942 0.82528 0.93754 0.0
C41 C 0.30604 0.84932 0.84734 0.0
Zn42 Zn 0.42822 0.18786 0.19191 0.0
Zn43 Zn 0.41671 0.1369 0.16888 0.0
O44 O 0.45724 0.14489 0.15429 0.0
O45 O 0.46513 0.18906 0.16831 0.0
O46 O 0.4082 0.09871 0.15187 0.0
O47 O 0.42655 0.17106 0.23146 0.0
O48 O 0.41247 0.13059 0.21188 0.0
C49 C 0.47302 0.16718 0.15467 0.0
C50 C 0.37793 0.18709 0.15654 0.0
O51 O 0.3861 0.16198 0.15086 0.0
O52 O 0.39141 0.20212 0.1747 0.0
C53 C 0.40826 0.09614 0.12491 0.0
O54 O 0.4138 0.11859 0.10913 0.0
C55 C 0.41766 0.1456 0.234 0.0
Zn56 Zn 0.09718 0.93964 0.09945 0.0
Zn57 Zn 0.11881 0.88525 0.09359 0.0
O58 O 0.15167 0.90841 0.10969 0.0
O59 O 0.13627 0.95208 0.11581 0.0
O60 O 0.13072 0.84439 0.09869 0.0
O61 O 0.06319 0.92546 0.12346 0.0
O62 O 0.08178 0.88342 0.1161 0.0
C63 C 0.15621 0.93406 0.11719 0.0
C64 C 0.10452 0.91759 0.04048 0.0
O65 O 0.11461 0.89512 0.05156 0.0
O66 O 0.09509 0.93754 0.0561 0.0
C67 C 0.13757 0.8398 0.12449 0.0
O68 O 0.13974 0.86168 0.14192 0.0
C69 C 0.06225 0.89875 0.12674 0.0
Zn70 Zn 0.44574 0.82138 0.27181 0.0
Zn71 Zn 0.41221 0.85955 0.29921 0.0
O72 O 0.45195 0.86628 0.31663 0.0
O73 O 0.48026 0.83781 0.29248 0.0
O74 O 0.38981 0.89195 0.31574 0.0
O75 O 0.43457 0.83618 0.23316 0.0
O76 O 0.4073 0.86629 0.2564 0.0
C77 C 0.47681 0.85647 0.3117 0.0
C78 C 0.40045 0.79695 0.3086 0.0
O79 O 0.39378 0.82268 0.31361 0.0
O80 O 0.42104 0.79135 0.29179 0.0
C81 C 0.37463 0.89205 0.33828 0.0
O82 O 0.37174 0.86861 0.35323 0.0
C83 C 0.41677 0.85623 0.23299 0.0
Zn84 Zn 0.41002 0.06701 0.60214 0.0
Zn85 Zn 0.3908 0.12116 0.60268 0.0
O86 O 0.35501 0.09797 0.61155 0.0
O87 O 0.36893 0.05345 0.61099 0.0
O88 O 0.37728 0.16074 0.60935 0.0
O89 O 0.43971 0.07634 0.63268 0.0
O90 O 0.42371 0.12003 0.63115 0.0
C91 C 0.34914 0.07156 0.61344 0.0
C92 C 0.41192 0.0962 0.54706 0.0
O93 O 0.40098 0.11697 0.56061 0.0
O94 O 0.41892 0.07386 0.56025 0.0
C95 C 0.38335 0.18346 0.59596 0.0
O96 O 0.39906 0.18224 0.57269 0.0
C97 C 0.44086 0.10191 0.64125 0.0
Zn98 Zn 0.06219 0.18761 0.76428 0.0
Zn99 Zn 0.1017 0.15979 0.79536 0.0
O100 O 0.06451 0.13951 0.80676 0.0
O101 O 0.03237 0.15905 0.779 0.0
O102 O 0.13123 0.1383 0.81734 0.0
O103 O 0.08375 0.17841 0.72786 0.0
O104 O 0.11335 0.15298 0.7534 0.0
C105 C 0.03884 0.14103 0.79785 0.0
C106 C 0.09038 0.22276 0.80701 0.0
O107 O 0.10437 0.20016 0.81147 0.0
O108 O 0.07123 0.22311 0.78789 0.0
C109 C 0.12743 0.13122 0.84323 0.0
O110 O 0.10419 0.1395 0.85667 0.0
C111 C 0.10475 0.16168 0.72923 0.0
Zn112 Zn 0.17524 0.48437 0.06693 0.0
Zn113 Zn 0.14348 0.46215 0.11007 0.0
O114 O 0.18047 0.44037 0.11456 0.0
O115 O 0.20761 0.4585 0.08043 0.0
O116 O 0.11854 0.44918 0.1423 0.0
O117 O 0.17139 0.52436 0.08259 0.0
O118 O 0.14591 0.5053 0.11737 0.0
C119 C 0.20414 0.44129 0.10097 0.0
C120 C 0.12379 0.45321 0.04898 0.0
O121 O 0.12095 0.44838 0.07547 0.0
O122 O 0.14449 0.46857 0.03993 0.0
C123 C 0.11961 0.42512 0.1544 0.0
O124 O 0.1386 0.40648 0.14596 0.0
C125 C 0.15713 0.52711 0.10542 0.0
Zn126 Zn 0.72069 0.02784 0.95099 0.0
Zn127 Zn 0.68192 0.05489 0.91482 0.0
O128 O 0.71493 0.04349 0.88962 0.0
O129 O 0.74666 0.02212 0.91627 0.0
O130 O 0.65635 0.07308 0.88581 0.0
O131 O 0.68934 -0.00176 0.95861 0.0
O132 O 0.65938 0.02193 0.93148 0.0
C133 C 0.73859 0.03068 0.89204 0.0
C134 C 0.70607 0.08678 0.96595 0.0
O135 O 0.6908 0.08557 0.94359 0.0
O136 O 0.72052 0.06544 0.97356 0.0
C137 C 0.64159 0.09543 0.88884 0.0
O138 O 0.64046 0.10805 0.91384 0.0
C139 C 0.66457 0.0013 0.94807 0.0
Zn140 Zn 0.80443 0.9333 0.40311 0.0
Zn141 Zn 0.8195 0.89189 0.36658 0.0
O142 O 0.77605 0.88781 0.37194 0.0
O143 O 0.76246 0.92489 0.39711 0.0
O144 O 0.82819 0.86623 0.33331 0.0
O145 O 0.82532 0.96391 0.38173 0.0
O146 O 0.83817 0.92917 0.35312 0.0
C147 C 0.75634 0.90205 0.38397 0.0
C148 C 0.83865 0.88642 0.42657 0.0
O149 O 0.83907 0.87623 0.40142 0.0
O150 O 0.82581 0.90948 0.43184 0.0
C151 C 0.84572 0.8458 0.33298 0.0
O152 O 0.85886 0.83881 0.35659 0.0
C153 C 0.83929 0.9553 0.36031 0.0
Zn154 Zn 0.78865 0.00753 0.05231 0.0
Zn155 Zn 0.8303 0.03202 0.0857 0.0
O156 O 0.79426 0.05028 0.10105 0.0
O157 O 0.75969 0.0318 0.07464 0.0
O158 O 0.86136 0.04716 0.11106 0.0
O159 O 0.79904 0.96822 0.06667 0.0
O160 O 0.83289 0.98917 0.09216 0.0
C161 C 0.76781 0.04835 0.0946 0.0
C162 C 0.83258 0.04095 0.02189 0.0
O163 O 0.84197 0.04651 0.04669 0.0
O164 O 0.81103 0.02445 0.01844 0.0
C165 C 0.8618 0.072 0.12184 0.0
O166 O 0.84116 0.0897 0.11584 0.0
C167 C 0.81971 0.96663 0.08402 0.0
Zn168 Zn 0.28597 0.52441 0.56702 0.0
Zn169 Zn 0.32618 0.55106 0.59965 0.0
O170 O 0.28946 0.56671 0.61704 0.0
O171 O 0.25618 0.54542 0.59097 0.0
O172 O 0.35806 0.5666 0.62402 0.0
O173 O 0.29898 0.48543 0.57909 0.0
O174 O 0.3318 0.50803 0.60444 0.0
C175 C 0.26312 0.56244 0.61094 0.0
C176 C 0.32401 0.56315 0.53611 0.0
O177 O 0.33414 0.56846 0.56071 0.0
O178 O 0.30444 0.54436 0.53282 0.0
C179 C 0.35905 0.59104 0.63565 0.0
O180 O 0.33791 0.60875 0.63166 0.0
C181 C 0.32012 0.48483 0.59593 0.0
Zn182 Zn 0.14917 0.5427 0.42725 0.0
Zn183 Zn 0.1158 0.58002 0.39704 0.0
O184 O 0.15491 0.58111 0.37891 0.0
O185 O 0.18211 0.54946 0.39932 0.0
O186 O 0.09519 0.60359 0.36861 0.0
O187 O 0.11978 0.51137 0.41954 0.0
O188 O 0.09423 0.54243 0.396 0.0
C189 C 0.17871 0.56852 0.38069 0.0
C190 C 0.1287 0.5941 0.45788 0.0
O191 O 0.11572 0.60032 0.43498 0.0
O192 O 0.14334 0.57158 0.45944 0.0
C193 C 0.1005 0.62993 0.3651 0.0
O194 O 0.11659 0.64372 0.38366 0.0
C195 C 0.09766 0.51736 0.4053 0.0
Zn196 Zn 0.29489 0.48109 0.91342 0.0
Zn197 Zn 0.30627 0.44074 0.87138 0.0
O198 O 0.26501 0.45056 0.86568 0.0
O199 O 0.25434 0.48328 0.89749 0.0
O200 O 0.31469 0.41483 0.83871 0.0
O201 O 0.32761 0.50541 0.89717 0.0
O202 O 0.33545 0.47172 0.86549 0.0
C203 C 0.24695 0.46721 0.87694 0.0
C204 C 0.31067 0.42409 0.93313 0.0
O205 O 0.31282 0.4181 0.90682 0.0
O206 O 0.30357 0.44884 0.94116 0.0
C207 C 0.31894 0.38829 0.84038 0.0
O208 O 0.31705 0.37559 0.86519 0.0
C209 C 0.34202 0.49562 0.87648 0.0
Zn210 Zn 0.89721 0.77926 0.55758 0.0
Zn211 Zn 0.85948 0.81293 0.58709 0.0
O212 O 0.84246 0.77379 0.59541 0.0
O213 O 0.87191 0.74629 0.57131 0.0
O214 O 0.83172 0.84182 0.60157 0.0
O215 O 0.88992 0.79815 0.51979 0.0
O216 O 0.86204 0.82527 0.54582 0.0
C217 C 0.85029 0.74911 0.58759 0.0
C218 C 0.92123 0.81215 0.60557 0.0
O219 O 0.89554 0.81987 0.60988 0.0
O220 O 0.92748 0.79633 0.58452 0.0
C221 C 0.81671 0.84243 0.62419 0.0
O222 O 0.81813 0.82142 0.64246 0.0
C223 C 0.8734 0.81914 0.52195 0.0
Zn224 Zn 0.96206 0.05096 0.26484 0.0
Zn225 Zn 0.92889 0.09426 0.28571 0.0
O226 O 0.9218 0.09491 0.24268 0.0
O227 O 0.94868 0.06072 0.2254 0.0
O228 O 0.90229 0.12433 0.30052 0.0
O229 O -0.0036 0.07151 0.28169 0.0
O230 O 0.96934 0.10565 0.29912 0.0
C231 C 0.93082 0.08038 0.22158 0.0
C232 C 0.91718 0.03251 0.30301 0.0
O233 O 0.91222 0.05898 0.30408 0.0
O234 O 0.9377 0.02323 0.28798 0.0
C235 C 0.89701 0.12906 0.32673 0.0
O236 O 0.91088 0.11501 0.34635 0.0
C237 C -0.00611 0.09448 0.29562 0.0
Zn238 Zn 0.63176 0.20518 0.0739 0.0
Zn239 Zn 0.6457 0.16428 0.10991 0.0
O240 O 0.65295 0.2003 0.13334 0.0
O241 O 0.65034 0.23362 0.10073 0.0
O242 O 0.66342 0.13131 0.12969 0.0
O243 O 0.653 0.18938 0.03981 0.0
O244 O 0.66616 0.15871 0.072 0.0
C245 C 0.65415 0.22647 0.12643 0.0
C246 C 0.58339 0.17282 0.09947 0.0
O247 O 0.60265 0.15705 0.10989 0.0
O248 O 0.59035 0.19385 0.08388 0.0
C249 C 0.69037 0.13377 0.13333 0.0
O250 O 0.70228 0.15924 0.13173 0.0
C251 C 0.66775 0.16818 0.04675 0.0
Zn252 Zn 0.56195 0.91773 0.85386 0.0
Zn253 Zn 0.58388 0.86984 0.86723 0.0
O254 O 0.60287 0.87797 0.82775 0.0
O255 O 0.5887 0.9218 0.82084 0.0
O256 O 0.6002 0.83246 0.88008 0.0
O257 O 0.52336 0.90142 0.84717 0.0
O258 O 0.53997 0.86196 0.86566 0.0
C259 C 0.60315 0.90063 0.81284 0.0
C260 C 0.58896 0.92168 0.90673 0.0
O261 O 0.59721 0.8971 0.89905 0.0
O262 O 0.57124 0.93489 0.89158 0.0
C263 C 0.62713 0.82879 0.88198 0.0
O264 O 0.64485 0.84951 0.87457 0.0
C265 C 0.51921 0.87633 0.85589 0.0
Zn266 Zn 0.83775 0.12756 0.87447 0.0
Zn267 Zn 0.88183 0.09847 0.85737 0.0
O268 O 0.88078 0.08983 0.90021 0.0
O269 O 0.84567 0.11705 0.91528 0.0
O270 O 0.91941 0.08526 0.84198 0.0
O271 O 0.8489 0.16531 0.85909 0.0
O272 O 0.8846 0.13987 0.84291 0.0
C273 C 0.86486 0.09899 0.92029 0.0
C274 C 0.82443 0.07769 0.83895 0.0
O275 O 0.85128 0.07327 0.83934 0.0
O276 O 0.81442 0.09993 0.85046 0.0
C277 C 0.94215 0.09186 0.85547 0.0
O278 O 0.93997 0.10104 0.88185 0.0
C279 C 0.87169 0.16352 0.8446 0.0
Zn280 Zn 0.56199 0.18326 0.75214 0.0
Zn281 Zn 0.59677 0.1479 0.72206 0.0
O282 O 0.55704 0.13606 0.70838 0.0
O283 O 0.52788 0.16491 0.73106 0.0
O284 O 0.6214 0.11782 0.70464 0.0
O285 O 0.57565 0.16711 0.78998 0.0
O286 O 0.60411 0.1404 0.76416 0.0
C287 C 0.53181 0.14477 0.71345 0.0
C288 C 0.60298 0.21163 0.71319 0.0
O289 O 0.61004 0.18653 0.7059 0.0
O290 O 0.58449 0.21545 0.73273 0.0
C291 C 0.6327 0.11691 0.68001 0.0
O292 O 0.62964 0.13842 0.66257 0.0
C293 C 0.59477 0.14829 0.7884 0.0
Zn294 Zn 0.62822 0.81412 0.47271 0.0
Zn295 Zn 0.59185 0.84863 0.4444 0.0
O296 O 0.5875 0.86416 0.48495 0.0
O297 O 0.61653 0.83591 0.50826 0.0
O298 O 0.56302 0.86732 0.41898 0.0
O299 O 0.60817 0.77791 0.46073 0.0
O300 O 0.58187 0.80692 0.4357 0.0
C301 C 0.59946 0.85667 0.50806 0.0
C302 C 0.65487 0.85089 0.42971 0.0
O303 O 0.63002 0.86139 0.42783 0.0
O304 O 0.65944 0.83022 0.44628 0.0
C305 C 0.56796 0.86221 0.39277 0.0
O306 O 0.59129 0.84835 0.3859 0.0
C307 C 0.58869 0.78175 0.44253 0.0
Zn308 Zn 0.93277 0.78597 0.18653 0.0
Zn309 Zn 0.89859 0.82529 0.16184 0.0
O310 O 0.93956 0.84152 0.15876 0.0
O311 O 0.96774 0.81113 0.17998 0.0
O312 O 0.87685 0.85799 0.1455 0.0
O313 O 0.90983 0.79041 0.22328 0.0
O314 O 0.88336 0.82271 0.20264 0.0
C315 C 0.96444 0.83435 0.16693 0.0
C316 C 0.90141 0.76596 0.13608 0.0
O317 O 0.89 0.79042 0.13639 0.0
O318 O 0.91997 0.75947 0.15455 0.0
C319 C 0.85821 0.8581 0.12581 0.0
O320 O 0.85002 0.834 0.11387 0.0
C321 C 0.88974 0.80826 0.22455 0.0
Zn322 Zn 0.80334 0.47529 0.91995 0.0
Zn323 Zn 0.83291 0.50415 0.87828 0.0
O324 O 0.79558 0.52473 0.88147 0.0
O325 O 0.77019 0.50379 0.91516 0.0
O326 O 0.85134 0.52376 0.84541 0.0
O327 O 0.80694 0.43839 0.89641 0.0
O328 O 0.83147 0.46333 0.86483 0.0
C329 C 0.77311 0.52341 0.89684 0.0
C330 C 0.8571 0.50448 0.93752 0.0
O331 O 0.85852 0.51306 0.91192 0.0
O332 O 0.83689 0.48786 0.9455 0.0
C333 C 0.85417 0.55062 0.84621 0.0
O334 O 0.84651 0.56441 0.86937 0.0
C335 C 0.82087 0.43973 0.87317 0.0
Zn336 Zn 0.31499 0.96433 0.04915 0.0
Zn337 Zn 0.3357 0.93347 0.09227 0.0
O338 O 0.29336 0.93744 0.10285 0.0
O339 O 0.27749 0.9675 0.07096 0.0
O340 O 0.35126 0.91357 0.12633 0.0
O341 O 0.34533 -0.005 0.05559 0.0
O342 O 0.35794 0.97111 0.09358 0.0
C343 C 0.2734 0.95283 0.09322 0.0
C344 C 0.33538 0.90833 0.03249 0.0
O345 O 0.34357 0.90696 0.05829 0.0
O346 O 0.322 0.92988 0.02377 0.0
C347 C 0.3749 0.90047 0.12658 0.0
O348 O 0.39005 0.89849 0.103 0.0
C349 C 0.36023 0.9931 0.07799 0.0
Zn350 Zn 0.18663 0.02367 0.55225 0.0
Zn351 Zn 0.16704 0.06027 0.59222 0.0
O352 O 0.21064 0.06 0.59847 0.0
O353 O 0.22693 0.02871 0.56759 0.0
O354 O 0.15405 0.08459 0.62544 0.0
O355 O 0.1619 0.99201 0.56751 0.0
O356 O 0.14669 0.02174 0.60046 0.0
C357 C 0.23138 0.04608 0.58785 0.0
C358 C 0.15691 0.07273 0.52927 0.0
O359 O 0.15398 0.08029 0.55524 0.0
O360 O 0.17004 0.0501 0.52304 0.0
C361 C 0.1446 0.1098 0.62456 0.0
O362 O 0.14186 0.12243 0.59984 0.0
C363 C 0.14654 -0.00303 0.5892 0.0
Zn364 Zn 0.18457 0.97922 0.82844 0.0
Zn365 Zn 0.16788 0.96362 0.87846 0.0
O366 O 0.16858 0.00788 0.8798 0.0
O367 O 0.19221 0.01921 0.84075 0.0
O368 O 0.15601 0.95062 0.91748 0.0
O369 O 0.21578 0.95058 0.82693 0.0
O370 O 0.20516 0.94134 0.87163 0.0
C371 C 0.17988 0.02673 0.86356 0.0
C372 C 0.12841 0.95382 0.82866 0.0
O373 O 0.13501 0.94824 0.85424 0.0
O374 O 0.1453 0.96862 0.81333 0.0
C375 C 0.13051 0.95386 0.92653 0.0
O376 O 0.11213 0.96777 0.91089 0.0
C377 C 0.22065 0.93711 0.8496 0.0
Zn378 Zn 0.65987 0.44747 0.34575 0.0
Zn379 Zn 0.63509 0.42442 0.38829 0.0
O380 O 0.63818 0.46803 0.39572 0.0
O381 O 0.66979 0.48436 0.36486 0.0
O382 O 0.6171 0.4096 0.42452 0.0
O383 O 0.68773 0.41592 0.34166 0.0
O384 O 0.67122 0.39964 0.3825 0.0
C385 C 0.6532 0.48867 0.38575 0.0
C386 C 0.60308 0.42709 0.33322 0.0
O387 O 0.60537 0.41568 0.35764 0.0
O388 O 0.62261 0.44386 0.32422 0.0
C389 C 0.61884 0.38423 0.43361 0.0
O390 O 0.63302 0.36535 0.41865 0.0
C391 C 0.68853 0.39784 0.36147 0.0
Zn392 Zn 0.81249 0.45053 0.53267 0.0
Zn393 Zn 0.83615 0.41606 0.57155 0.0
O394 O 0.79413 0.41561 0.58286 0.0
O395 O 0.77476 0.44732 0.55482 0.0
O396 O 0.85189 0.39184 0.60209 0.0
O397 O 0.84061 0.48222 0.54464 0.0
O398 O 0.85582 0.45439 0.57876 0.0
C399 C 0.77256 0.4299 0.57528 0.0
C400 C 0.8365 0.39816 0.50939 0.0
O401 O 0.84495 0.3946 0.53481 0.0
O402 O 0.82186 0.41974 0.50302 0.0
C403 C 0.87017 0.37225 0.59955 0.0
O404 O 0.88155 0.36673 0.57452 0.0
C405 C 0.85585 0.47853 0.56661 0.0
Zn406 Zn 0.68899 0.54034 0.1786 0.0
Zn407 Zn 0.66893 0.57302 0.13702 0.0
O408 O 0.64735 0.53461 0.1305 0.0
O409 O 0.66746 0.50707 0.16237 0.0
O410 O 0.65957 0.59751 0.10263 0.0
O411 O 0.72992 0.54628 0.16878 0.0
O412 O 0.71344 0.57268 0.13408 0.0
C413 C 0.65002 0.51033 0.1421 0.0
C414 C 0.65615 0.58803 0.19897 0.0
O415 O 0.65352 0.59393 0.17259 0.0
O416 O 0.67012 0.56646 0.20651 0.0
C417 C 0.64054 0.5922 0.08384 0.0
O418 O 0.62333 0.57003 0.08705 0.0
C419 C 0.73448 0.56197 0.14743 0.0
Zn420 Zn 0.66866 0.66404 0.86429 0.0
Zn421 Zn 0.64401 0.6522 0.9138 0.0
O422 O 0.61022 0.64296 0.88749 0.0
O423 O 0.63106 0.65204 0.84609 0.0
O424 O 0.6314 0.64182 0.95401 0.0
O425 O 0.69941 0.63534 0.86811 0.0
O426 O 0.67773 0.62408 0.90822 0.0
C427 C 0.60916 0.64435 0.86039 0.0
C428 C 0.6622 0.71385 0.89713 0.0
O429 O 0.64992 0.69608 0.9139 0.0
O430 O 0.67456 0.70515 0.87475 0.0
C431 C 0.64843 0.64809 0.97433 0.0
O432 O 0.67192 0.66287 0.96856 0.0
C433 C 0.69733 0.61956 0.88976 0.0
Zn434 Zn 0.53599 0.32093 0.21085 0.0
Zn435 Zn 0.56096 0.36347 0.17834 0.0
O436 O 0.52406 0.35658 0.15656 0.0
O437 O 0.50234 0.32433 0.18351 0.0
O438 O 0.58217 0.39461 0.15782 0.0
O439 O 0.53752 0.34646 0.24546 0.0
O440 O 0.55634 0.37994 0.21821 0.0
C441 C 0.50251 0.34055 0.16198 0.0
C442 C 0.59108 0.30657 0.18597 0.0
O443 O 0.5894 0.33145 0.17568 0.0
O444 O 0.57092 0.29668 0.20144 0.0
C445 C 0.57198 0.41662 0.14622 0.0
O446 O 0.54407 0.42025 0.14605 0.0
C447 C 0.54733 0.37153 0.24245 0.0
Zn448 Zn 0.81348 0.2791 0.31801 0.0
Zn449 Zn 0.82653 0.28497 0.37387 0.0
O450 O 0.86016 0.30423 0.35397 0.0
O451 O 0.84911 0.30243 0.30836 0.0
O452 O 0.83071 0.29745 0.41477 0.0
O453 O 0.77569 0.29883 0.32196 0.0
O454 O 0.78768 0.3037 0.36689 0.0
C455 C 0.86619 0.30971 0.32812 0.0
C456 C 0.82751 0.22618 0.34751 0.0
O457 O 0.83091 0.24167 0.3697 0.0
O458 O 0.8187 0.23705 0.32452 0.0
C459 C 0.85272 0.30959 0.42559 0.0
O460 O 0.87744 0.30874 0.41207 0.0
C461 C 0.77033 0.3083 0.34664 0.0
Zn462 Zn 0.89724 0.66072 0.71058 0.0
Zn463 Zn 0.89602 0.61266 0.67963 0.0
O464 O 0.93785 0.62508 0.67474 0.0
O465 O 0.93805 0.66676 0.69645 0.0
O466 O 0.89274 0.57676 0.65608 0.0
O467 O 0.88934 0.63908 0.74631 0.0
O468 O 0.88558 0.60005 0.72038 0.0
C469 C 0.95089 0.64796 0.682 0.0
C470 C 0.8576 0.66367 0.66527 0.0
O471 O 0.86862 0.63973 0.65928 0.0
O472 O 0.86466 0.67654 0.68798 0.0
C473 C 0.89346 0.57793 0.62901 0.0
O474 O 0.89696 0.60275 0.61661 0.0
C475 C 0.88447 0.6126 0.7445 0.0
Zn476 Zn 0.59882 0.40828 0.60458 0.0
Zn477 Zn 0.61592 0.35435 0.61042 0.0
O478 O 0.65294 0.37766 0.61591 0.0
O479 O 0.6393 0.42213 0.61206 0.0
O480 O 0.6249 0.31455 0.6239 0.0
O481 O 0.56811 0.40639 0.63474 0.0
O482 O 0.58121 0.3618 0.6362 0.0
C483 C 0.65903 0.40417 0.61517 0.0
C484 C 0.59622 0.37317 0.55256 0.0
O485 O 0.6068 0.35342 0.56766 0.0
O486 O 0.5899 0.39683 0.56389 0.0
C487 C 0.6295 0.31384 0.65061 0.0
O488 O 0.63151 0.33809 0.66457 0.0
C489 C 0.56481 0.38157 0.64456 0.0
Zn490 Zn 0.94765 0.29243 0.74031 0.0
Zn491 Zn 0.90569 0.32382 0.7681 0.0
O492 O 0.94282 0.34229 0.78124 0.0
O493 O 0.97686 0.31965 0.75807 0.0
O494 O 0.87632 0.34847 0.78725 0.0
O495 O 0.92974 0.30311 0.70264 0.0
O496 O 0.89788 0.3285 0.72599 0.0
C497 C 0.9692 0.33901 0.77525 0.0
C498 C 0.91163 0.26053 0.78009 0.0
O499 O 0.8992 0.28421 0.78351 0.0
O500 O 0.93271 0.25843 0.76305 0.0
C501 C 0.86604 0.34422 0.81205 0.0
O502 O 0.87334 0.32136 0.82609 0.0
C503 C 0.90844 0.31954 0.70263 0.0
Zn504 Zn 0.90891 0.5614 0.09616 0.0
Zn505 Zn 0.89381 0.61169 0.07124 0.0
O506 O 0.8572 0.60003 0.09183 0.0
O507 O 0.86973 0.56179 0.11545 0.0
O508 O 0.88897 0.65264 0.05969 0.0
O509 O 0.9437 0.57889 0.11544 0.0
O510 O 0.92821 0.61862 0.097 0.0
C511 C 0.85103 0.57999 0.10899 0.0
C512 C 0.90544 0.56036 0.03379 0.0
O513 O 0.89952 0.58672 0.03584 0.0
O514 O 0.91066 0.54598 0.05591 0.0
C515 C 0.86942 0.66814 0.07028 0.0
O516 O 0.84601 0.65591 0.08041 0.0
C517 C 0.94589 0.60556 0.11255 0.0
Zn518 Zn 0.53988 0.66678 0.31139 0.0
Zn519 Zn 0.56404 0.62862 0.34771 0.0
O520 O 0.52296 0.61361 0.3443 0.0
O521 O 0.50391 0.64212 0.3127 0.0
O522 O 0.58291 0.59905 0.37179 0.0
O523 O 0.56978 0.65879 0.28117 0.0
O524 O 0.58737 0.62734 0.31072 0.0
C525 C 0.50179 0.62079 0.32902 0.0
C526 C 0.5588 0.69042 0.3659 0.0
O527 O 0.56719 0.66525 0.37062 0.0
O528 O 0.54675 0.69638 0.34253 0.0
C529 C 0.60983 0.5994 0.37618 0.0
O530 O 0.6255 0.62058 0.36608 0.0
C531 C 0.58788 0.6398 0.28667 0.0
Zn532 Zn 0.69028 0.96641 0.60139 0.0
Zn533 Zn 0.66897 0.94326 0.64965 0.0
O534 O 0.70842 0.92511 0.64773 0.0
O535 O 0.72636 0.94346 0.60831 0.0
O536 O 0.65298 0.9316 0.68774 0.0
O537 O 0.68645 0.00675 0.6154 0.0
O538 O 0.66741 0.9869 0.6535 0.0
C539 C 0.72867 0.92705 0.62952 0.0
C540 C 0.6393 0.9304 0.59353 0.0
O541 O 0.64175 0.92554 0.62008 0.0
O542 O 0.65643 0.94761 0.58118 0.0
C543 C 0.65736 0.90915 0.702 0.0
O544 O 0.67358 0.88911 0.69131 0.0
C545 C 0.67463 0.00913 0.63958 0.0
Zn546 Zn 0.37227 0.30087 0.04539 0.0
Zn547 Zn 0.33947 0.33074 0.08293 0.0
O548 O 0.3278 0.29015 0.09309 0.0
O549 O 0.35296 0.26555 0.06197 0.0
O550 O 0.31372 0.35782 0.10364 0.0
O551 O 0.357 0.32102 0.01092 0.0
O552 O 0.33294 0.34515 0.04294 0.0
C553 C 0.33587 0.26632 0.08308 0.0
C554 C 0.40398 0.33184 0.08951 0.0
O555 O 0.37915 0.3385 0.09845 0.0
O556 O 0.40693 0.31734 0.06684 0.0
C557 C 0.28717 0.35271 0.10771 0.0
O558 O 0.27687 0.32702 0.10263 0.0
C559 C 0.33994 0.34078 0.01714 0.0
Zn560 Zn 0.46909 0.57366 0.77263 0.0
Zn561 Zn 0.4402 0.62007 0.7925 0.0
O562 O 0.43059 0.61788 0.74994 0.0
O563 O 0.45362 0.58082 0.73325 0.0
O564 O 0.41624 0.6527 0.80567 0.0
O565 O 0.50547 0.59281 0.78664 0.0
O566 O 0.48146 0.62868 0.80505 0.0
C567 C 0.43679 0.60132 0.72934 0.0
C568 C 0.42657 0.56132 0.81588 0.0
O569 O 0.42272 0.58792 0.81468 0.0
O570 O 0.44514 0.54962 0.80007 0.0
C571 C 0.40733 0.6559 0.83113 0.0
O572 O 0.41598 0.63858 0.85111 0.0
C573 C 0.50496 0.61573 0.80093 0.0
Zn574 Zn 0.09869 0.70617 0.59431 0.0
Zn575 Zn 0.12414 0.66606 0.623 0.0
O576 O 0.13744 0.70405 0.64111 0.0
O577 O 0.12545 0.73627 0.60982 0.0
O578 O 0.15026 0.63582 0.63781 0.0
O579 O 0.10455 0.68916 0.55559 0.0
O580 O 0.12828 0.65782 0.58029 0.0
C581 C 0.13746 0.72988 0.633 0.0
C582 C 0.06198 0.67253 0.63346 0.0
O583 O 0.08373 0.65684 0.63685 0.0
O584 O 0.06366 0.69455 0.61795 0.0
C585 C 0.17656 0.64151 0.64279 0.0
O586 O 0.18532 0.6682 0.64283 0.0
C587 C 0.11948 0.66698 0.55645 0.0
Zn588 Zn 0.00264 0.42101 0.29219 0.0
Zn589 Zn 0.03667 0.37856 0.31054 0.0
O590 O 0.05219 0.38794 0.27055 0.0
O591 O 0.02608 0.42384 0.25643 0.0
O592 O 0.06266 0.34709 0.3231 0.0
O593 O 0.96873 0.39458 0.2937 0.0
O594 O -0.00415 0.36154 0.31254 0.0
C595 C 0.04628 0.40666 0.25201 0.0
C596 C 0.0335 0.43439 0.3436 0.0
O597 O 0.04432 0.41002 0.33946 0.0
O598 O 0.01451 0.44359 0.32689 0.0
C599 C 0.06465 0.338 0.3485 0.0
O600 O 0.04836 0.34893 0.36853 0.0
C601 C 0.97139 0.37015 0.30442 0.0
Zn602 Zn 0.30569 0.6728 0.4016 0.0
Zn603 Zn 0.34126 0.63752 0.37326 0.0
O604 O 0.34547 0.62532 0.41451 0.0
O605 O 0.31904 0.65531 0.43898 0.0
O606 O 0.37214 0.61739 0.35212 0.0
O607 O 0.32391 0.70857 0.38561 0.0
O608 O 0.35103 0.67866 0.36209 0.0
C609 C 0.33548 0.63407 0.43818 0.0
C610 C 0.2789 0.63032 0.36272 0.0
O611 O 0.30415 0.62161 0.35806 0.0
O612 O 0.27463 0.65153 0.37897 0.0
C613 C 0.38764 0.59762 0.36162 0.0
O614 O 0.38147 0.58626 0.38647 0.0
C615 C 0.34367 0.70405 0.36767 0.0
Zn616 Zn 0.05819 0.71175 0.21035 0.0
Zn617 Zn 0.09655 0.67251 0.18984 0.0
O618 O 0.05875 0.66042 0.1725 0.0
O619 O 0.02697 0.69164 0.18682 0.0
O620 O 0.12136 0.64055 0.17624 0.0
O621 O 0.06618 0.6989 0.25075 0.0
O622 O 0.09655 0.66779 0.23311 0.0
C623 C 0.03322 0.66947 0.17276 0.0
C624 C 0.10594 0.73529 0.17682 0.0
O625 O 0.11354 0.70961 0.1732 0.0
O626 O 0.08429 0.74123 0.19203 0.0
C627 C 0.12779 0.63747 0.15009 0.0
O628 O 0.12077 0.65734 0.13192 0.0
C629 C 0.08376 0.67897 0.25434 0.0
Zn630 Zn 0.12942 0.35909 0.91861 0.0
Zn631 Zn 0.08701 0.38385 0.89154 0.0
O632 O 0.07895 0.39403 0.93332 0.0
O633 O 0.1103 0.3681 0.95618 0.0
O634 O 0.05274 0.39357 0.86849 0.0
O635 O 0.126 0.32072 0.89976 0.0
O636 O 0.09129 0.34239 0.87764 0.0
C637 C 0.09015 0.38589 0.95658 0.0
C638 C 0.14451 0.40953 0.88401 0.0
O639 O 0.11816 0.41051 0.8776 0.0
O640 O 0.15392 0.39032 0.90023 0.0
C641 C 0.05796 0.39092 0.84201 0.0
O642 O 0.08472 0.38767 0.83374 0.0
C643 C 0.10634 0.32034 0.88128 0.0
Zn644 Zn 0.41687 0.304 0.71594 0.0
Zn645 Zn 0.39428 0.34503 0.68161 0.0
O646 O 0.43687 0.3544 0.68318 0.0
O647 O 0.45672 0.32108 0.70898 0.0
O648 O 0.37957 0.37829 0.65948 0.0
O649 O 0.39238 0.31751 0.7486 0.0
O650 O 0.37319 0.34863 0.71968 0.0
C651 C 0.45902 0.34346 0.69416 0.0
C652 C 0.38813 0.28316 0.66441 0.0
O653 O 0.38509 0.30923 0.65805 0.0
O654 O 0.39974 0.2761 0.68765 0.0
C655 C 0.35786 0.37829 0.64318 0.0
O656 O 0.343 0.35462 0.63926 0.0
C657 C 0.37463 0.3371 0.74413 0.0
Zn658 Zn 0.31558 0.04073 0.42179 0.0
Zn659 Zn 0.34682 0.06536 0.37942 0.0
O660 O 0.30823 0.08548 0.37704 0.0
O661 O 0.28228 0.06613 0.41135 0.0
O662 O 0.36786 0.08001 0.34512 0.0
O663 O 0.32036 0.00142 0.40443 0.0
O664 O 0.34678 0.02248 0.37156 0.0
C665 C 0.28488 0.08385 0.39119 0.0
C666 C 0.36767 0.0717 0.43978 0.0
O667 O 0.37104 0.07794 0.41365 0.0
O668 O 0.34666 0.05629 0.44797 0.0
C669 C 0.38002 0.10432 0.34366 0.0
O670 O 0.3796 0.12128 0.36599 0.0
C671 C 0.33595 -0.0001 0.38233 0.0
C672 C 0.10463 0.30589 0.33457 0.0
C673 C 0.08412 0.31424 0.35483 0.0
H674 H 0.13547 0.27514 0.32204 0.0
C675 C 0.08151 0.29874 0.3803 0.0
H676 H 0.10756 0.31764 0.31495 0.0
C677 C 0.0976 0.27415 0.38443 0.0
C678 C 0.11669 0.26474 0.3632 0.0
H679 H 0.06606 0.3048 0.39645 0.0
H680 H 0.09388 0.26171 0.40349 0.0
C681 C 0.1208 0.28155 0.33876 0.0
C682 C -0.00684 0.83533 0.63463 0.0
C683 C 0.98757 0.83613 0.66406 0.0
H684 H 0.97649 0.82638 0.59302 0.0
C685 C 0.95982 0.82974 0.67411 0.0
H686 H 0.0145 0.83994 0.6264 0.0
C687 C 0.93792 0.82274 0.65493 0.0
C688 C 0.94379 0.8211 0.62558 0.0
H689 H 0.95508 0.83022 0.69672 0.0
H690 H 0.91663 0.8178 0.66307 0.0
C691 C 0.97155 0.82743 0.61558 0.0
C692 C 0.36978 0.71506 0.87081 0.0
C693 C 0.35604 0.72891 0.84825 0.0
H694 H 0.3971 0.68088 0.88304 0.0
C695 C 0.35585 0.71598 0.82117 0.0
H696 H 0.37037 0.72446 0.89191 0.0
C697 C 0.37164 0.69157 0.816 0.0
C698 C 0.38755 0.67922 0.8379 0.0
H699 H 0.3452 0.72587 0.80337 0.0
H700 H 0.37229 0.68304 0.79453 0.0
C701 C 0.38535 0.69028 0.86567 0.0
C702 C 0.51049 0.19343 0.12687 0.0
C703 C 0.50027 0.1678 0.13859 0.0
H704 H 0.54433 0.21476 0.10429 0.0
C705 C 0.51634 0.14299 0.1349 0.0
H706 H 0.49832 0.21278 0.12911 0.0
C707 C 0.54301 0.14418 0.12105 0.0
C708 C 0.55354 0.17001 0.10991 0.0
H709 H 0.50881 0.12293 0.14365 0.0
H710 H 0.55567 0.12508 0.11961 0.0
C711 C 0.53666 0.19445 0.11235 0.0
C712 C 0.12162 0.76097 0.1329 0.0
C713 C 0.1213 0.75885 0.16273 0.0
H714 H 0.12712 0.78869 0.09698 0.0
C715 C 0.13081 0.78196 0.17924 0.0
H716 H 0.11402 0.74337 0.11984 0.0
C717 C 0.13871 0.80754 0.16633 0.0
C718 C 0.13643 0.81078 0.13664 0.0
H719 H 0.13061 0.78072 0.20229 0.0
H720 H 0.14463 0.82534 0.17992 0.0
C721 C 0.12899 0.7869 0.11989 0.0
C722 C 0.52911 0.85676 0.32274 0.0
C723 C 0.50104 0.86392 0.33067 0.0
H724 H 0.5724 0.8513 0.33603 0.0
C725 C 0.49604 0.87478 0.3582 0.0
H726 H 0.53371 0.84868 0.30159 0.0
C727 C 0.51827 0.87606 0.37817 0.0
C728 C 0.54585 0.8667 0.37081 0.0
H729 H 0.47461 0.88055 0.3649 0.0
H730 H 0.51346 0.88285 0.39972 0.0
C731 C 0.55129 0.85828 0.34255 0.0
C732 C 0.3661 0.21102 0.63793 0.0
C733 C 0.37818 0.21096 0.6104 0.0
H734 H 0.35996 0.23428 0.67666 0.0
C735 C 0.38868 0.23674 0.59898 0.0
H736 H 0.35743 0.19169 0.64731 0.0
C737 C 0.38947 0.26144 0.6158 0.0
C738 C 0.38015 0.26044 0.64427 0.0
H739 H 0.39791 0.23743 0.57777 0.0
H740 H 0.39947 0.2806 0.60735 0.0
C741 C 0.36744 0.23541 0.65479 0.0
C742 C 0.01851 0.11441 0.83943 0.0
C743 C 0.01599 0.12344 0.81106 0.0
H744 H -0.00322 0.09711 0.87595 0.0
C745 C 0.99037 0.11775 0.79631 0.0
H746 H 0.03809 0.11847 0.85128 0.0
C747 C 0.96706 0.10489 0.81019 0.0
C748 C 0.96872 0.09812 0.83928 0.0
H749 H 0.98798 0.12423 0.77434 0.0
H750 H 0.94711 0.10219 0.79861 0.0
C751 C -0.00507 0.10214 0.85354 0.0
C752 C 0.41333 0.15155 0.28695 0.0
C753 C 0.41108 0.13408 0.26261 0.0
H754 H 0.40533 0.15586 0.3317 0.0
C755 C 0.40054 0.1061 0.26564 0.0
H756 H 0.42145 0.17321 0.28537 0.0
C757 C 0.39132 0.09619 0.29217 0.0
C758 C 0.39239 0.11405 0.31627 0.0
H759 H 0.39865 0.09204 0.24738 0.0
H760 H 0.38265 0.07473 0.29359 0.0
C761 C 0.40405 0.14164 0.31351 0.0
C762 C 0.13331 0.13477 0.48349 0.0
C763 C 0.12774 0.12075 0.45746 0.0
H764 H 0.14677 0.13048 0.52711 0.0
C765 C 0.12923 0.09094 0.45643 0.0
H766 H 0.13234 0.15773 0.48497 0.0
C767 C 0.13781 0.07562 0.48011 0.0
C768 C 0.1448 0.08955 0.50572 0.0
H769 H 0.12482 0.07931 0.43691 0.0
H770 H 0.13956 0.05274 0.47813 0.0
C771 C 0.14161 0.11922 0.50756 0.0
C772 C 0.09299 0.95031 0.78945 0.0
C773 C 0.10339 0.93985 0.81529 0.0
H774 H 0.06992 0.94089 0.75134 0.0
C775 C 0.09305 0.91353 0.82544 0.0
H776 H 0.10009 0.97085 0.78148 0.0
C777 C 0.07582 0.89619 0.80805 0.0
C778 C 0.06876 0.90517 0.78049 0.0
H779 H 0.10051 0.90514 0.84551 0.0
H780 H 0.07055 0.87481 0.81507 0.0
C781 C 0.07565 0.93316 0.77224 0.0
C782 C 0.37328 0.84972 0.99213 0.0
C783 C 0.35384 0.84429 0.96982 0.0
H784 H 0.38239 0.874 0.03005 0.0
C785 C 0.32739 0.85833 0.9699 0.0
H786 H 0.39384 0.83925 0.99259 0.0
C787 C 0.32129 0.87864 0.99071 0.0
C788 C 0.34112 0.88487 0.01236 0.0
H789 H 0.31194 0.85482 0.953 0.0
H790 H 0.3012 0.8899 0.98954 0.0
C791 C 0.36678 0.86959 0.01349 0.0
C792 C 0.41966 0.86023 0.17976 0.0
C793 C 0.40636 0.86759 0.20566 0.0
H794 H 0.42024 0.86496 0.13437 0.0
C795 C 0.38264 0.88567 0.20524 0.0
H796 H 0.43801 0.84635 0.17939 0.0
C797 C 0.37232 0.89604 0.17952 0.0
C798 C 0.38567 0.88883 0.15362 0.0
H799 H 0.37183 0.89166 0.2248 0.0
H800 H 0.35398 0.90993 0.18 0.0
C801 C 0.4095 0.87089 0.15398 0.0
C802 C 0.41777 0.06997 0.50115 0.0
C803 C 0.40992 0.095 0.5156 0.0
H804 H 0.41011 0.04292 0.46501 0.0
C805 C 0.394 0.11545 0.50092 0.0
H806 H 0.43029 0.05389 0.51166 0.0
C807 C 0.38275 0.10916 0.47399 0.0
C808 C 0.38755 0.08255 0.46144 0.0
H809 H 0.38773 0.13503 0.51131 0.0
H810 H 0.36806 0.12389 0.46431 0.0
C811 C 0.40633 0.06364 0.4744 0.0
C812 C 0.13464 0.12594 0.70322 0.0
C813 C 0.1174 0.1502 0.70257 0.0
H814 H 0.15651 0.09406 0.67918 0.0
C815 C 0.11047 0.16196 0.676 0.0
H816 H 0.14032 0.11628 0.72329 0.0
C817 C 0.11991 0.14929 0.65066 0.0
C818 C 0.13618 0.12439 0.65133 0.0
H819 H 0.09727 0.18067 0.67473 0.0
H820 H 0.11377 0.1586 0.63056 0.0
C821 C 0.14378 0.11309 0.6779 0.0
C822 C 0.13078 0.91095 -0.00546 0.0
C823 C 0.10786 0.92295 0.00968 0.0
H824 H 0.15628 0.91177 0.95648 0.0
C825 C 0.091 0.94351 -0.00367 0.0
H826 H 0.14431 0.89526 0.00436 0.0
C827 C 0.09773 0.95283 0.96884 0.0
C828 C 0.12177 0.94216 0.95444 0.0
H829 H 0.07321 0.95314 0.00753 0.0
H830 H 0.08482 0.96925 0.9594 0.0
C831 C 0.13785 0.92067 0.96727 0.0
C832 C 0.2754 0.4039 0.10111 0.0
C833 C 0.2673 0.37672 0.11101 0.0
H834 H 0.26161 0.44563 0.08987 0.0
C835 C 0.23901 0.37204 0.12054 0.0
H836 H 0.29701 0.40815 0.09344 0.0
C837 C 0.21887 0.39372 0.11896 0.0
C838 C 0.22649 0.42025 0.10716 0.0
H839 H 0.2322 0.35131 0.12826 0.0
H840 H 0.19694 0.38915 0.12546 0.0
C841 C 0.25511 0.42535 0.0989 0.0
C842 C 0.75321 0.04844 0.84417 0.0
C843 C 0.75885 0.03103 0.86775 0.0
H844 H 0.77176 0.07695 0.81367 0.0
C845 C 0.78639 0.01969 0.87066 0.0
H846 H 0.73194 0.05666 0.84057 0.0
C847 C 0.80905 0.03051 0.85419 0.0
C848 C 0.80427 0.05361 0.83599 0.0
H849 H 0.79117 0.00534 0.88794 0.0
H850 H 0.83071 0.02479 0.85999 0.0
C851 C 0.77599 0.05971 0.82824 0.0
C852 C 0.15598 0.5802 0.10081 0.0
C853 C 0.1524 0.55573 0.11765 0.0
H854 H 0.15094 0.62533 0.09786 0.0
C855 C 0.14295 0.55875 0.14595 0.0
H856 H 0.16325 0.57856 0.07893 0.0
C857 C 0.13637 0.58555 0.15691 0.0
C858 C 0.13862 0.60987 0.13967 0.0
H859 H 0.14019 0.54033 0.15952 0.0
H860 H 0.12842 0.58701 0.17858 0.0
C861 C 0.14893 0.60698 0.11165 0.0
C862 C 0.70166 0.84656 0.4044 0.0
C863 C 0.67877 0.86349 0.41332 0.0
H864 H 0.74391 0.8456 0.38663 0.0
C865 C 0.67968 0.89285 0.4079 0.0
H866 H 0.7012 0.82381 0.40799 0.0
C867 C 0.7043 0.90544 0.39608 0.0
C868 C 0.72796 0.88871 0.38879 0.0
H869 H 0.66214 0.9063 0.41446 0.0
H870 H 0.70542 0.92838 0.39401 0.0
C871 C 0.72591 0.85902 0.39183 0.0
C872 C 0.85865 0.91124 0.12671 0.0
C873 C 0.84733 0.88564 0.11555 0.0
H874 H 0.85894 0.95663 0.12552 0.0
C875 C 0.82632 0.88683 0.09418 0.0
H876 H 0.87487 0.91117 0.14318 0.0
C877 C 0.81706 0.91311 0.08404 0.0
C878 C 0.82876 0.93868 0.09497 0.0
H879 H 0.81717 0.8675 0.08515 0.0
H880 H 0.80098 0.91337 0.06745 0.0
C881 C 0.84955 0.93739 0.11651 0.0
C882 C 0.22704 0.62456 0.64681 0.0
C883 C 0.19797 0.61864 0.64095 0.0
H884 H 0.27053 0.61112 0.64234 0.0
C885 C 0.19032 0.59204 0.62916 0.0
H886 H 0.23359 0.64478 0.65607 0.0
C887 C 0.21151 0.57291 0.62096 0.0
C888 C 0.24072 0.57981 0.62474 0.0
H889 H 0.16812 0.58675 0.62444 0.0
H890 H 0.20503 0.55333 0.61038 0.0
C891 C 0.24821 0.60524 0.63895 0.0
C892 C 0.03583 0.48156 0.36789 0.0
C893 C 0.04587 0.45364 0.36533 0.0
H894 H 0.04435 0.5237 0.38304 0.0
C895 C 0.07022 0.44572 0.38083 0.0
H896 H 0.01683 0.48822 0.35664 0.0
C897 C 0.08597 0.46612 0.39611 0.0
C898 C 0.0776 0.49469 0.39598 0.0
H899 H 0.07825 0.42424 0.3796 0.0
H900 H 0.10579 0.45989 0.40617 0.0
C901 C 0.05161 0.50192 0.38302 0.0
C902 C 0.40599 0.51446 0.83069 0.0
C903 C 0.40765 0.54404 0.83429 0.0
H904 H 0.38379 0.47592 0.84138 0.0
C905 C 0.38938 0.5573 0.85408 0.0
H906 H 0.41987 0.50366 0.81571 0.0
C907 C 0.36876 0.5414 0.86891 0.0
C908 C 0.36595 0.51207 0.86396 0.0
H909 H 0.39039 0.5801 0.85749 0.0
H910 H 0.35428 0.55225 0.88329 0.0
C911 C 0.38522 0.49863 0.84531 0.0
C912 C 0.82934 0.70546 0.65025 0.0
C913 C 0.84298 0.67997 0.64295 0.0
H914 H 0.81992 0.7478 0.63748 0.0
C915 C 0.84961 0.67466 0.6142 0.0
H916 H 0.82336 0.70984 0.67215 0.0
C917 C 0.84797 0.69658 0.59433 0.0
C918 C 0.83934 0.72382 0.603 0.0
H919 H 0.85965 0.655 0.60778 0.0
H920 H 0.85666 0.69311 0.57318 0.0
C921 C 0.82733 0.72724 0.63029 0.0
C922 C 0.04654 0.10459 0.29395 0.0
C923 C 0.01983 0.10844 0.30733 0.0
H924 H 0.09142 0.11515 0.29353 0.0
C925 C 0.01827 0.12554 0.33187 0.0
H926 H 0.0483 0.09155 0.27494 0.0
C927 C 0.0431 0.13847 0.34291 0.0
C928 C 0.06968 0.1351 0.32911 0.0
H929 H -0.00206 0.12869 0.34265 0.0
H930 H 0.04137 0.15166 0.3618 0.0
C931 C 0.07117 0.1181 0.30453 0.0
C932 C 0.63429 0.2406 0.17344 0.0
C933 C 0.64928 0.24836 0.1485 0.0
H934 H 0.60342 0.25307 0.2048 0.0
C935 C 0.65072 0.27721 0.14088 0.0
H936 H 0.63297 0.21859 0.18012 0.0
C937 C 0.63369 0.29698 0.15504 0.0
C938 C 0.61496 0.28815 0.17697 0.0
H939 H 0.66242 0.2839 0.12201 0.0
H940 H 0.63327 0.31852 0.14698 0.0
C941 C 0.61698 0.26031 0.18741 0.0
C942 C 0.4507 0.83768 0.87635 0.0
C943 C 0.43234 0.84621 0.85439 0.0
H944 H 0.49332 0.83995 0.89358 0.0
C945 C 0.4431 0.86358 0.83251 0.0
H946 H 0.44288 0.824 0.8933 0.0
C947 C 0.47157 0.8729 0.83291 0.0
C948 C 0.48996 0.86446 0.85482 0.0
H949 H 0.42937 0.87037 0.81532 0.0
H950 H 0.47924 0.88678 0.81605 0.0
C951 C 0.47951 0.84648 0.87636 0.0
C952 C 0.90675 0.1863 0.81082 0.0
C953 C 0.88259 0.18845 0.8287 0.0
H954 H 0.93483 0.20738 0.78124 0.0
C955 C 0.86826 0.21446 0.83057 0.0
H956 H 0.91824 0.16651 0.80891 0.0
C957 C 0.87771 0.23778 0.81473 0.0
C958 C 0.90169 0.23563 0.79663 0.0
H959 H 0.84958 0.21681 0.84414 0.0
H960 H 0.86609 0.25749 0.81663 0.0
C961 C 0.91619 0.20967 0.79488 0.0
C962 C 0.45987 0.13719 0.67678 0.0
C963 C 0.46294 0.11136 0.66193 0.0
H964 H 0.47902 0.16777 0.70514 0.0
C965 C 0.48799 0.09562 0.66581 0.0
H966 H 0.44071 0.14973 0.67436 0.0
C967 C 0.5101 0.10615 0.68315 0.0
C968 C 0.50737 0.13239 0.69735 0.0
H969 H 0.49098 0.07566 0.65463 0.0
H970 H 0.52954 0.09396 0.68504 0.0
C971 C 0.48176 0.14748 0.69451 0.0
C972 C 0.55935 0.7623 0.40232 0.0
C973 C 0.57718 0.75744 0.42585 0.0
H974 H 0.5397 0.745 0.36488 0.0
C975 C 0.5868 0.72974 0.43088 0.0
H976 H 0.5515 0.78338 0.39783 0.0
C977 C 0.58007 0.7077 0.41188 0.0
C978 C 0.56367 0.71298 0.38744 0.0
H979 H 0.60052 0.72528 0.44884 0.0
H980 H 0.58858 0.68678 0.41584 0.0
C981 C 0.55273 0.74032 0.38329 0.0
C982 C 0.04117 0.85713 0.15229 0.0
C983 C 0.03771 0.88446 0.14092 0.0
H984 H 0.02082 0.82006 0.16972 0.0
C985 C 0.01022 0.89628 0.14047 0.0
H986 H 0.06217 0.84756 0.15303 0.0
C987 C 0.98636 0.88029 0.14966 0.0
C988 C 0.98971 0.85243 0.15986 0.0
H989 H 0.00697 0.91725 0.1317 0.0
H990 H 0.96523 0.88947 0.14811 0.0
C991 C 0.01746 0.84137 0.16185 0.0
C992 C 0.64591 0.88102 0.74643 0.0
C993 C 0.64464 0.90649 0.73085 0.0
H994 H 0.63379 0.85901 0.7848 0.0
C995 C 0.6309 0.92996 0.74308 0.0
H996 H 0.65647 0.86259 0.7376 0.0
C997 C 0.61825 0.92799 0.7699 0.0
C998 C 0.61879 0.90244 0.78532 0.0
H999 H 0.62973 0.95001 0.73189 0.0
H1000 H 0.60765 0.94659 0.77832 0.0
C1001 C 0.63301 0.87899 0.77345 0.0
C1002 C 0.87201 0.82733 0.46918 0.0
C1003 C 0.86708 0.83696 0.49712 0.0
H1004 H 0.86685 0.83553 0.42463 0.0
C1005 C 0.85509 0.86385 0.50146 0.0
H1006 H 0.88137 0.80671 0.46528 0.0
C1007 C 0.84715 0.88037 0.47842 0.0
C1008 C 0.85073 0.87028 0.45044 0.0
H1009 H 0.85141 0.87206 0.52275 0.0
H1010 H 0.83734 0.9007 0.48267 0.0
C1011 C 0.86375 0.84382 0.44597 0.0
C1012 C 0.90748 0.06214 0.147 0.0
C1013 C 0.88292 0.07883 0.14426 0.0
H1014 H 0.94242 0.05012 0.17333 0.0
C1015 C 0.87715 0.09961 0.16501 0.0
H1016 H 0.91271 0.04627 0.13107 0.0
C1017 C 0.89413 0.10173 0.18946 0.0
C1018 C 0.91723 0.08323 0.19336 0.0
H1019 H 0.85844 0.11289 0.16334 0.0
H1020 H 0.88807 0.11663 0.20601 0.0
C1021 C 0.92455 0.06442 0.17122 0.0
C1022 C 0.68784 0.13545 0.97624 0.0
C1023 C 0.70301 0.11147 0.98523 0.0
H1024 H 0.66501 0.17265 0.98876 0.0
C1025 C 0.71106 0.10946 0.01393 0.0
H1026 H 0.68169 0.13783 0.95416 0.0
C1027 C 0.70139 0.12937 0.03376 0.0
C1028 C 0.68369 0.15173 0.02518 0.0
H1029 H 0.72295 0.09139 0.02151 0.0
H1030 H 0.7063 0.12619 0.05606 0.0
C1031 C 0.67832 0.15548 -0.00394 0.0
C1032 C 0.63392 0.0974 0.83625 0.0
C1033 C 0.62825 0.10843 0.86354 0.0
H1034 H 0.62808 0.10138 0.79139 0.0
C1035 C 0.61092 0.13257 0.86607 0.0
H1036 H 0.64722 0.07889 0.83345 0.0
C1037 C 0.59975 0.1455 0.84175 0.0
C1038 C 0.60595 0.13471 0.81445 0.0
H1039 H 0.60616 0.14159 0.88679 0.0
H1040 H 0.58659 0.16414 0.84431 0.0
C1041 C 0.62304 0.11043 0.81205 0.0
C1042 C 0.60653 0.86519 0.56008 0.0
C1043 C 0.59923 0.87575 0.53312 0.0
H1044 H 0.62431 0.87476 0.60109 0.0
C1045 C 0.59883 0.90531 0.52899 0.0
H1046 H 0.6069 0.84248 0.56384 0.0
C1047 C 0.60947 0.9237 0.55003 0.0
C1048 C 0.61986 0.91283 0.57577 0.0
H1049 H 0.59336 0.91408 0.50844 0.0
H1050 H 0.61165 0.94617 0.54531 0.0
C1051 C 0.61648 0.88367 0.5814 0.0
C1052 C 0.84227 0.84287 0.27986 0.0
C1053 C 0.8541 0.8329 0.30539 0.0
H1054 H 0.84407 0.84277 0.23435 0.0
C1055 C 0.87562 0.81231 0.30401 0.0
H1056 H 0.8255 0.85857 0.28011 0.0
C1057 C 0.88623 0.80313 0.27766 0.0
C1058 C 0.87559 0.81445 0.25216 0.0
H1059 H 0.88506 0.80406 0.32328 0.0
H1060 H 0.90361 0.78809 0.27735 0.0
C1061 C 0.85294 0.8338 0.25356 0.0
C1062 C 0.85987 0.05418 0.94734 0.0
C1063 C 0.86353 0.08389 0.94758 0.0
H1064 H 0.84624 0.01727 0.9708 0.0
C1065 C 0.85972 0.09896 0.97315 0.0
H1066 H 0.86207 0.04221 0.92768 0.0
C1067 C 0.85142 0.08459 -0.00207 0.0
C1068 C 0.84566 0.05518 -0.00289 0.0
H1069 H 0.86196 0.12193 0.97363 0.0
H1070 H 0.8477 0.09671 0.01725 0.0
C1071 C 0.85049 0.03998 0.97182 0.0
C1072 C 0.75534 0.56675 0.87266 0.0
C1073 C 0.75215 0.54669 0.89462 0.0
H1074 H 0.74107 0.60533 0.85422 0.0
C1075 C 0.73061 0.55075 0.91527 0.0
H1076 H 0.77172 0.56441 0.8564 0.0
C1077 C 0.71293 0.57463 0.91411 0.0
C1078 C 0.71648 0.5948 0.89223 0.0
H1079 H 0.72777 0.53583 0.9326 0.0
H1080 H 0.69652 0.57727 0.93028 0.0
C1081 C 0.73781 0.59042 0.8715 0.0
C1082 C 0.23583 0.92794 0.12237 0.0
C1083 C 0.24456 0.95173 0.10636 0.0
H1084 H 0.20022 0.90387 0.13904 0.0
C1085 C 0.22448 0.97288 0.10035 0.0
H1086 H 0.25089 0.91145 0.12759 0.0
C1087 C 0.19559 0.96888 0.1076 0.0
C1088 C 0.18633 0.9434 0.1204 0.0
H1089 H 0.23077 0.9917 0.08848 0.0
H1090 H 0.1802 0.98435 0.1005 0.0
C1091 C 0.20686 0.92369 0.12912 0.0
C1092 C 0.8354 0.41649 0.82772 0.0
C1093 C 0.82724 0.41386 0.85644 0.0
H1094 H 0.85348 0.3965 0.79105 0.0
C1095 C 0.82855 0.38707 0.86948 0.0
H1096 H 0.83434 0.4368 0.817 0.0
C1097 C 0.83987 0.36386 0.85461 0.0
C1098 C 0.84977 0.36704 0.82641 0.0
H1099 H 0.82241 0.38444 0.8916 0.0
H1100 H 0.84199 0.3438 0.8656 0.0
C1101 C 0.84637 0.39333 0.81283 0.0
C1102 C 0.26837 0.07572 0.61337 0.0
C1103 C 0.26091 0.05067 0.59854 0.0
H1104 H 0.30242 0.10188 0.6301 0.0
C1105 C 0.28228 0.03064 0.59275 0.0
H1106 H 0.25233 0.09144 0.61834 0.0
C1107 C 0.31086 0.03632 0.60005 0.0
C1108 C 0.31867 0.06238 0.61282 0.0
H1109 H 0.27708 0.01094 0.58173 0.0
H1110 H 0.32704 0.02113 0.59393 0.0
C1111 C 0.29703 0.08163 0.62022 0.0
C1112 C 0.18562 0.07717 0.84849 0.0
C1113 C 0.17262 0.0571 0.86678 0.0
H1114 H 0.18136 0.11669 0.82668 0.0
C1115 C 0.14818 0.06499 0.88245 0.0
H1116 H 0.20476 0.07196 0.83648 0.0
C1117 C 0.13479 0.09082 0.87686 0.0
C1118 C 0.14564 0.10896 0.85551 0.0
H1119 H 0.13774 0.0501 0.89683 0.0
H1120 H 0.11455 0.09521 0.88732 0.0
C1121 C 0.17214 0.10278 0.84275 0.0
C1122 C 0.73456 0.34187 0.32729 0.0
C1123 C 0.74661 0.32845 0.35095 0.0
H1124 H 0.70731 0.37457 0.31224 0.0
C1125 C 0.73818 0.33703 0.3785 0.0
H1126 H 0.74064 0.33592 0.3058 0.0
C1127 C 0.71866 0.35916 0.38221 0.0
C1128 C 0.70792 0.37347 0.35844 0.0
H1129 H 0.74717 0.3271 0.39717 0.0
H1130 H 0.71277 0.36569 0.40359 0.0
C1131 C 0.7157 0.36428 0.331 0.0
C1132 C 0.87988 0.50086 0.60892 0.0
C1133 C 0.87011 0.50321 0.58071 0.0
H1134 H 0.89472 0.52263 0.64635 0.0
C1135 C 0.87089 0.53006 0.56765 0.0
H1136 H 0.87961 0.48052 0.61968 0.0
C1137 C 0.87979 0.55422 0.58297 0.0
C1138 C 0.88773 0.55206 0.61174 0.0
H1139 H 0.86359 0.53261 0.54595 0.0
H1140 H 0.87918 0.57474 0.57261 0.0
C1141 C 0.8884 0.52504 0.62432 0.0
C1142 C 0.64093 0.4585 0.13801 0.0
C1143 C 0.63082 0.48624 0.13483 0.0
H1144 H 0.63023 0.41461 0.14334 0.0
C1145 C 0.60141 0.49038 0.13021 0.0
H1146 H 0.66357 0.45475 0.14135 0.0
C1147 C 0.58205 0.4673 0.13181 0.0
C1148 C 0.59201 0.43986 0.1378 0.0
H1149 H 0.59313 0.51164 0.12782 0.0
H1150 H 0.55926 0.47127 0.13029 0.0
C1151 C 0.62176 0.43552 0.13928 0.0
C1152 C 0.63012 0.75374 0.91067 0.0
C1153 C 0.65661 0.74463 0.89977 0.0
H1154 H 0.59975 0.78747 0.91306 0.0
C1155 C 0.67476 0.7645 0.88608 0.0
H1156 H 0.61552 0.73887 0.92105 0.0
C1157 C 0.66584 0.79242 0.88175 0.0
C1158 C 0.63832 0.80079 0.89044 0.0
H1159 H 0.69525 0.75804 0.87737 0.0
H1160 H 0.67981 0.80689 0.87007 0.0
C1161 C 0.62092 0.78147 0.90576 0.0
C1162 C 0.48064 0.34299 0.11362 0.0
C1163 C 0.47734 0.34082 0.14328 0.0
H1164 H 0.45967 0.34138 0.073 0.0
C1165 C 0.44974 0.33798 0.15506 0.0
H1166 H 0.50181 0.34519 0.10415 0.0
C1167 C 0.42576 0.33676 0.13744 0.0
C1168 C 0.42906 0.33749 0.1077 0.0
H1169 H 0.44673 0.33648 0.17791 0.0
H1170 H 0.40473 0.3339 0.14707 0.0
C1171 C 0.45665 0.34084 0.09588 0.0
C1172 C 0.85481 0.15863 0.31492 0.0
C1173 C 0.87567 0.15068 0.33471 0.0
H1174 H 0.8221 0.18786 0.30414 0.0
C1175 C 0.87673 0.1646 0.36127 0.0
H1176 H 0.853 0.14786 0.29454 0.0
C1177 C 0.85899 0.18785 0.36682 0.0
C1178 C 0.83975 0.19728 0.34597 0.0
H1179 H 0.89241 0.15867 0.37706 0.0
H1180 H 0.86179 0.19954 0.38657 0.0
C1181 C 0.83689 0.18146 0.32059 0.0
C1182 C -0.0015 0.63147 0.66373 0.0
C1183 C 0.9803 0.65376 0.67168 0.0
H1184 H 0.03927 0.62 0.64586 0.0
C1185 C 0.98982 0.68201 0.66824 0.0
H1186 H 0.99165 0.6095 0.66624 0.0
C1187 C 0.01655 0.68794 0.65608 0.0
C1188 C 0.03459 0.66575 0.64774 0.0
H1189 H 0.97621 0.69962 0.67405 0.0
H1190 H 0.02306 0.70995 0.65306 0.0
C1191 C 0.02568 0.63745 0.65219 0.0
C1192 C 0.62282 0.28784 0.69643 0.0
C1193 C 0.62719 0.28685 0.66677 0.0
H1194 H 0.61168 0.26485 0.73421 0.0
C1195 C 0.62665 0.26023 0.65295 0.0
H1196 H 0.62308 0.30792 0.70784 0.0
C1197 C 0.62062 0.2353 0.66835 0.0
C1198 C 0.61442 0.23671 0.69768 0.0
H1199 H 0.63 0.25876 0.63014 0.0
H1200 H 0.61924 0.21518 0.65705 0.0
C1201 C 0.61621 0.26314 0.71161 0.0
C1202 C 0.00576 0.38464 0.83109 0.0
C1203 C 0.03455 0.38326 0.82227 0.0
H1204 H 0.9623 0.37182 0.82287 0.0
C1205 C 0.04109 0.3704 0.79598 0.0
H1206 H 7e-05 0.39455 0.85117 0.0
C1207 C 0.0196 0.357 0.78004 0.0
C1208 C 0.99111 0.35661 0.78985 0.0
H1209 H 0.06307 0.36908 0.78849 0.0
H1210 H 0.0255 0.34605 0.76057 0.0
C1211 C 0.98417 0.37156 0.81491 0.0
C1212 C 0.8565 0.71566 0.09091 0.0
C1213 C 0.87754 0.69683 0.08096 0.0
H1214 H 0.84769 0.75305 0.11582 0.0
C1215 C 0.90664 0.70341 0.08614 0.0
H1216 H 0.83392 0.71109 0.0873 0.0
C1217 C 0.91432 0.72673 0.10309 0.0
C1218 C 0.89321 0.74449 0.11448 0.0
H1219 H 0.92345 0.68936 0.07899 0.0
H1220 H 0.93678 0.73024 0.1082 0.0
C1221 C 0.86433 0.73958 0.10724 0.0
C1222 C 0.42255 0.60704 0.3225 0.0
C1223 C 0.41647 0.59448 0.349 0.0
H1224 H 0.4547 0.62506 0.29519 0.0
C1225 C 0.43926 0.58465 0.36562 0.0
H1226 H 0.4054 0.6143 0.30894 0.0
C1227 C 0.46763 0.59084 0.35769 0.0
C1228 C 0.47345 0.60692 0.3331 0.0
H1229 H 0.43524 0.57463 0.38601 0.0
H1230 H 0.48472 0.58523 0.37211 0.0
C1231 C 0.45081 0.6133 0.31466 0.0
C1232 C 0.8669 0.5959 0.82136 0.0
C1233 C 0.86341 0.56622 0.82052 0.0
H1234 H 0.87626 0.6338 0.79803 0.0
C1235 C 0.86753 0.55173 0.79457 0.0
H1236 H 0.86388 0.60766 0.84102 0.0
C1237 C 0.87445 0.56673 0.76982 0.0
C1238 C 0.87755 0.59648 0.7706 0.0
H1239 H 0.86494 0.52883 0.79324 0.0
H1240 H 0.87724 0.55503 0.7501 0.0
C1241 C 0.87395 0.61087 0.79668 0.0
C1242 C 0.62056 0.60204 0.03515 0.0
C1243 C 0.6402 0.60883 0.05696 0.0
H1244 H 0.6075 0.60924 0.99205 0.0
C1245 C 0.6609 0.63037 0.05202 0.0
H1246 H 0.60426 0.58564 0.03823 0.0
C1247 C 0.66278 0.64382 0.02554 0.0
C1248 C 0.64396 0.6362 0.00332 0.0
H1249 H 0.67632 0.63626 0.06831 0.0
H1250 H 0.67957 0.6597 0.02228 0.0
C1251 C 0.62238 0.61561 0.00865 0.0
C1252 C 0.56423 0.4171 0.26424 0.0
C1253 C 0.55308 0.38941 0.26772 0.0
H1254 H 0.58844 0.45126 0.28286 0.0
C1255 C 0.55239 0.37741 0.29511 0.0
H1256 H 0.56446 0.42719 0.24354 0.0
C1257 C 0.56618 0.39126 0.31773 0.0
C1258 C 0.58079 0.41721 0.31315 0.0
H1259 H 0.54353 0.35626 0.29855 0.0
H1260 H 0.56765 0.38038 0.33795 0.0
C1261 C 0.57797 0.43091 0.2868 0.0
C1262 C 0.81979 0.36921 0.468 0.0
C1263 C 0.84129 0.37562 0.48797 0.0
H1264 H 0.80622 0.34262 0.43339 0.0
C1265 C 0.86638 0.35934 0.48815 0.0
H1266 H 0.80009 0.38117 0.46763 0.0
C1267 C 0.87019 0.33752 0.46806 0.0
C1268 C 0.84847 0.33096 0.44832 0.0
H1269 H 0.88319 0.3638 0.50349 0.0
H1270 H 0.89 0.32574 0.46802 0.0
C1271 C 0.82315 0.34687 0.44867 0.0
C1272 C 0.87314 0.34808 0.67583 0.0
C1273 C 0.89707 0.3303 0.67553 0.0
H1274 H 0.84592 0.3751 0.65213 0.0
C1275 C 0.91105 0.32477 0.64951 0.0
H1276 H 0.86174 0.35262 0.69545 0.0
C1277 C 0.90194 0.33779 0.62447 0.0
C1278 C 0.87877 0.35654 0.62514 0.0
H1279 H 0.92955 0.3111 0.64862 0.0
H1280 H 0.91352 0.33379 0.60483 0.0
C1281 C 0.86412 0.36106 0.65094 0.0
C1282 C 0.88436 0.54599 0.95748 0.0
C1283 C 0.87632 0.5171 0.95912 0.0
H1284 H 0.90002 0.58271 0.98018 0.0
C1285 C 0.88299 0.5017 0.98363 0.0
H1286 H 0.87939 0.55834 0.93875 0.0
C1287 C 0.8954 0.51545 0.00702 0.0
C1288 C 0.90057 0.54504 0.00661 0.0
H1289 H 0.87719 0.47936 0.98528 0.0
H1290 H 0.8987 0.50322 0.02619 0.0
C1291 C 0.89611 0.55996 0.98119 0.0
C1292 C 0.60435 0.63777 0.2357 0.0
C1293 C 0.60806 0.63015 0.2644 0.0
H1294 H 0.61674 0.63042 0.19224 0.0
C1295 C 0.62979 0.6111 0.27141 0.0
H1296 H 0.58781 0.65249 0.22964 0.0
C1297 C 0.64631 0.59863 0.25011 0.0
C1298 C 0.64143 0.60478 0.22125 0.0
H1299 H 0.63345 0.60505 0.29332 0.0
H1300 H 0.66224 0.58332 0.25632 0.0
C1301 C 0.62089 0.62514 0.21427 0.0
C1302 C 0.61262 0.35088 0.50669 0.0
C1303 C 0.59595 0.37112 0.52108 0.0
H1304 H 0.63296 0.3391 0.46739 0.0
C1305 C 0.58314 0.39282 0.50524 0.0
H1306 H 0.62276 0.3339 0.51825 0.0
C1307 C 0.58925 0.39598 0.47632 0.0
C1308 C 0.60807 0.37737 0.4625 0.0
H1309 H 0.56985 0.40856 0.51556 0.0
H1310 H 0.58033 0.4139 0.46515 0.0
C1311 C 0.61859 0.35396 0.47756 0.0
C1312 C 0.77556 0.90967 0.6108 0.0
C1313 C 0.75348 0.90779 0.6312 0.0
H1314 H 0.81281 0.89071 0.59276 0.0
C1315 C 0.75395 0.8856 0.65123 0.0
H1316 H 0.77601 0.92657 0.59519 0.0
C1317 C 0.77517 0.86483 0.6498 0.0
C1318 C 0.79624 0.8659 0.62831 0.0
H1319 H 0.73727 0.88356 0.66727 0.0
H1320 H 0.77438 0.84742 0.66481 0.0
C1321 C 0.79665 0.889 0.60937 0.0
C1322 C 0.23044 0.5672 0.3666 0.0
C1323 C 0.20375 0.58061 0.36548 0.0
H1324 H 0.27606 0.57287 0.36519 0.0
C1325 C 0.2024 0.60856 0.35497 0.0
H1326 H 0.23205 0.54555 0.37416 0.0
C1327 C 0.22755 0.62433 0.35046 0.0
C1328 C 0.25424 0.61204 0.35546 0.0
H1329 H 0.1821 0.61937 0.35337 0.0
H1330 H 0.22609 0.64681 0.34577 0.0
C1331 C 0.25562 0.58281 0.36126 0.0
C1332 C 0.64662 0.06653 0.68848 0.0
C1333 C 0.64647 0.09034 0.67042 0.0
H1334 H 0.65569 0.02236 0.69296 0.0
C1335 C 0.65798 0.08779 0.64283 0.0
H1336 H 0.63811 0.06774 0.70995 0.0
C1337 C 0.6683 0.06165 0.63313 0.0
C1338 C 0.66712 0.03754 0.65078 0.0
H1339 H 0.65831 0.10575 0.62846 0.0
H1340 H 0.67624 0.06013 0.61146 0.0
C1341 C 0.65671 0.04044 0.67874 0.0
C1342 C 0.18287 0.42664 0.85195 0.0
C1343 C 0.16432 0.43188 0.87478 0.0
H1344 H 0.22397 0.43557 0.8336 0.0
C1345 C 0.1697 0.4549 0.89314 0.0
H1346 H 0.17886 0.40888 0.83763 0.0
C1347 C 0.19558 0.47011 0.89111 0.0
C1348 C 0.21629 0.46193 0.87094 0.0
H1349 H 0.15543 0.45908 0.91092 0.0
H1350 H 0.20067 0.48566 0.90749 0.0
C1351 C 0.20865 0.44193 0.84976 0.0
C1352 C 0.32501 0.40589 0.61165 0.0
C1353 C 0.34888 0.40522 0.62985 0.0
H1354 H 0.29728 0.4315 0.58649 0.0
C1355 C 0.36381 0.43077 0.63587 0.0
H1356 H 0.31309 0.38658 0.60652 0.0
C1357 C 0.35473 0.45648 0.62447 0.0
C1358 C 0.33057 0.45728 0.60668 0.0
H1359 H 0.38233 0.43105 0.64975 0.0
H1360 H 0.36653 0.47578 0.6299 0.0
C1361 C 0.31598 0.43165 0.60014 0.0
C1362 C 0.71742 0.06444 0.10375 0.0
C1363 C 0.74704 0.06729 0.1089 0.0
H1364 H 0.67595 0.08291 0.10829 0.0
C1365 C 0.75696 0.08992 0.12615 0.0
H1366 H 0.70906 0.04712 0.09076 0.0
C1367 C 0.73802 0.11052 0.13605 0.0
C1368 C 0.70872 0.10869 0.1293 0.0
H1369 H 0.77961 0.09265 0.13075 0.0
H1370 H 0.74656 0.12865 0.14776 0.0
C1371 C 0.6984 0.08484 0.11404 0.0
C1372 C 0.65143 0.95002 0.94771 0.0
C1373 C 0.64294 0.97844 0.95028 0.0
H1374 H 0.64009 0.90868 0.93177 0.0
C1375 C 0.6139 0.98512 0.94722 0.0
H1376 H 0.67373 0.94434 0.95028 0.0
C1377 C 0.5946 0.96472 0.93693 0.0
C1378 C 0.60436 0.93764 0.92913 0.0
H1379 H 0.60681 0.00685 0.94972 0.0
H1380 H 0.573 0.97123 0.93185 0.0
C1381 C 0.63214 0.9296 0.93706 0.0
C1382 C 0.89835 0.98331 0.31215 0.0
C1383 C 0.89773 0.0126 0.31805 0.0
H1384 H 0.87997 0.94224 0.32052 0.0
C1385 C 0.87734 0.02297 0.33749 0.0
H1386 H 0.91367 0.97473 0.29708 0.0
C1387 C 0.85804 0.00439 0.35089 0.0
C1388 C 0.85861 0.97511 0.34496 0.0
H1389 H 0.87627 0.04546 0.34242 0.0
H1390 H 0.84274 0.013 0.36595 0.0
C1391 C 0.87887 0.96475 0.32538 0.0
C1392 C 0.32985 0.24419 0.13066 0.0
C1393 C 0.33336 0.24066 0.10109 0.0
H1394 H 0.34188 0.22953 0.17194 0.0
C1395 C 0.34355 0.21455 0.09071 0.0
H1396 H 0.32162 0.26381 0.13944 0.0
C1397 C 0.35487 0.19467 0.10949 0.0
C1398 C 0.35625 0.2009 0.13873 0.0
H1399 H 0.34604 0.21098 0.06802 0.0
H1400 H 0.36563 0.17629 0.10077 0.0
C1401 C 0.34165 0.22462 0.14937 0.0
C1402 C 0.58345 0.62662 0.81733 0.0
C1403 C 0.58233 0.63762 0.84517 0.0
H1404 H 0.55961 0.61097 0.78149 0.0
C1405 C 0.55554 0.64299 0.85775 0.0
H1406 H 0.60387 0.62238 0.80714 0.0
C1407 C 0.53023 0.6373 0.8427 0.0
C1408 C 0.5314 0.62547 0.81518 0.0
H1409 H 0.55418 0.65177 0.87908 0.0
H1410 H 0.50976 0.64116 0.85295 0.0
C1411 C 0.5582 0.62023 0.80262 0.0
C1412 C 0.14457 0.78116 0.6443 0.0
C1413 C 0.14237 0.75296 0.65391 0.0
H1414 H 0.13398 0.82446 0.65232 0.0
C1415 C 0.13548 0.74798 0.68267 0.0
H1416 H 0.15033 0.78564 0.62236 0.0
C1417 C 0.12548 0.77017 0.69974 0.0
C1418 C 0.12283 0.7976 0.68836 0.0
H1419 H 0.13397 0.7265 0.69086 0.0
H1420 H 0.11699 0.76518 0.72068 0.0
C1421 C 0.135 0.8034 0.6615 0.0
C1422 C 0.9433 0.33485 0.33289 0.0
C1423 C 0.94547 0.35262 0.30905 0.0
H1424 H 0.91598 0.30774 0.35797 0.0
C1425 C 0.92178 0.35537 0.2909 0.0
H1426 H 0.96125 0.33258 0.34728 0.0
C1427 C 0.89611 0.34087 0.29673 0.0
C1428 C 0.89356 0.32401 0.3212 0.0
H1429 H 0.92303 0.36897 0.27235 0.0
H1430 H 0.87803 0.3435 0.28257 0.0
C1431 C 0.91738 0.32091 0.33912 0.0
C1432 C 0.39294 0.74507 0.31789 0.0
C1433 C 0.38513 0.77336 0.32323 0.0
H1434 H 0.38617 0.70119 0.32774 0.0
C1435 C 0.36337 0.77875 0.34332 0.0
H1436 H 0.40964 0.74011 0.30259 0.0
C1437 C 0.34989 0.75629 0.35787 0.0
C1438 C 0.3579 0.72803 0.35261 0.0
H1439 H 0.3569 0.80031 0.34799 0.0
H1440 H 0.33323 0.76111 0.37326 0.0
C1441 C 0.37951 0.7227 0.33239 0.0
C1442 C 0.98563 0.66657 0.14832 0.0
C1443 C 0.01084 0.65335 0.1572 0.0
H1444 H 0.94545 0.66179 0.12674 0.0
C1445 C 0.01463 0.62431 0.15118 0.0
H1446 H 0.98222 0.68893 0.15261 0.0
C1447 C -0.00656 0.60867 0.13685 0.0
C1448 C 0.96835 0.62193 0.12773 0.0
H1449 H 0.03384 0.61355 0.15791 0.0
H1450 H -0.00319 0.58628 0.13267 0.0
C1451 C 0.96469 0.65106 0.13343 0.0
C1452 C 0.11869 0.27078 0.86603 0.0
C1453 C 0.10199 0.29516 0.86262 0.0
H1454 H 0.12835 0.22894 0.85106 0.0
C1455 C 0.08189 0.29577 0.84035 0.0
H1456 H 0.13447 0.26967 0.88286 0.0
C1457 C 0.07851 0.2725 0.82198 0.0
C1458 C 0.09512 0.24805 0.82546 0.0
H1459 H 0.0688 0.3143 0.83696 0.0
H1460 H 0.0627 0.27364 0.80518 0.0
C1461 C 0.11529 0.24748 0.84768 0.0
C1462 C 0.53795 0.34784 0.67627 0.0
C1463 C 0.53977 0.37438 0.66264 0.0
H1464 H 0.51089 0.31734 0.69747 0.0
C1465 C 0.51596 0.39232 0.66339 0.0
H1466 H 0.55609 0.33367 0.67629 0.0
C1467 C 0.49003 0.38284 0.67524 0.0
C1468 C 0.48758 0.35543 0.6869 0.0
H1469 H 0.51675 0.41295 0.65319 0.0
H1470 H 0.47155 0.3965 0.67407 0.0
C1471 C 0.5121 0.33851 0.68847 0.0
C1472 C 0.05901 0.43236 0.2073 0.0
C1473 C 0.06393 0.40968 0.22595 0.0
H1474 H 0.07267 0.45493 0.17023 0.0
C1475 C 0.08656 0.39106 0.22006 0.0
H1476 H 0.04172 0.44707 0.2111 0.0
C1477 C 0.10436 0.39554 0.19635 0.0
C1478 C 0.09993 0.41884 0.17834 0.0
H1479 H 0.09085 0.37334 0.234 0.0
H1480 H 0.12197 0.38121 0.19257 0.0
C1481 C 0.07684 0.43693 0.18385 0.0
C1482 C 0.30924 0.40607 0.98304 0.0
C1483 C 0.31671 0.40201 0.95435 0.0
H1484 H 0.31021 0.38961 0.02528 0.0
C1485 C 0.33027 0.37673 0.9461 0.0
H1486 H 0.29853 0.4252 0.98998 0.0
C1487 C 0.33709 0.35631 0.96635 0.0
C1488 C 0.33025 0.36071 -0.00484 0.0
H1489 H 0.33624 0.37296 0.9241 0.0
H1490 H 0.3482 0.33738 0.9595 0.0
C1491 C 0.3158 0.38556 0.00322 0.0
C1492 C 0.40593 0.57981 0.65821 0.0
C1493 C 0.38202 0.59757 0.65643 0.0
H1494 H 0.44246 0.56753 0.68229 0.0
C1495 C 0.37904 0.61968 0.67641 0.0
H1496 H 0.4091 0.56286 0.64286 0.0
C1497 C 0.39822 0.62236 0.69917 0.0
C1498 C 0.42078 0.60304 0.70223 0.0
H1499 H 0.36095 0.63386 0.67547 0.0
H1500 H 0.39435 0.63851 0.71521 0.0
C1501 C 0.42515 0.58257 0.6808 0.0
C1502 C 0.11065 0.65711 0.50476 0.0
C1503 C 0.12403 0.64985 0.53044 0.0
H1504 H 0.10141 0.64508 0.46173 0.0
C1505 C 0.13979 0.62465 0.53172 0.0
H1506 H 0.09828 0.67637 0.5031 0.0
C1507 C 0.14144 0.60667 0.5081 0.0
C1508 C 0.12735 0.61348 0.48267 0.0
H1509 H 0.15038 0.61844 0.55118 0.0
H1510 H 0.15347 0.58723 0.50994 0.0
C1511 C 0.11226 0.63909 0.4811 0.0
C1512 C 0.08659 0.68413 0.30748 0.0
C1513 C 0.08771 0.66693 0.28294 0.0
H1514 H 0.09029 0.68586 0.3531 0.0
C1515 C 0.09186 0.63761 0.2858 0.0
H1516 H 0.08333 0.70682 0.30574 0.0
C1517 C 0.09477 0.6256 0.31268 0.0
C1518 C 0.09441 0.64278 0.33725 0.0
H1519 H 0.0925 0.62385 0.26723 0.0
H1520 H 0.09819 0.60291 0.31414 0.0
C1521 C 0.09045 0.67218 0.33447 0.0
C1522 C 0.09859 0.45 0.00233 0.0
C1523 C 0.10588 0.43744 0.0283 0.0
H1524 H 0.08573 0.44308 0.95918 0.0
C1525 C 0.10043 0.40825 0.03227 0.0
H1526 H 0.10249 0.4725 -0.00111 0.0
C1527 C 0.09152 0.39123 0.00934 0.0
C1528 C 0.08709 0.40339 0.98248 0.0
H1529 H 0.10593 0.39809 0.05215 0.0
H1530 H 0.09065 0.36834 0.01192 0.0
C1531 C 0.08869 0.43314 0.97972 0.0
C1532 C 0.32822 0.3857 0.78812 0.0
C1533 C 0.32956 0.37297 0.81509 0.0
H1534 H 0.34114 0.38417 0.74444 0.0
C1535 C 0.34335 0.34681 0.81793 0.0
H1536 H 0.31748 0.40575 0.78522 0.0
C1537 C 0.35713 0.33451 0.79455 0.0
C1538 C 0.3571 0.34805 0.7679 0.0
H1539 H 0.34465 0.33646 0.83845 0.0
H1540 H 0.36854 0.31486 0.7976 0.0
C1541 C 0.34175 0.3733 0.76473 0.0
C1542 C 0.33705 0.62827 0.49115 0.0
C1543 C 0.33854 0.61628 0.46375 0.0
H1544 H 0.33227 0.62045 0.53591 0.0
C1545 C 0.33878 0.58651 0.46076 0.0
H1546 H 0.33672 0.65115 0.49397 0.0
C1547 C 0.33527 0.56905 0.48454 0.0
C1548 C 0.33251 0.58105 0.51178 0.0
H1549 H 0.33963 0.57668 0.43985 0.0
H1550 H 0.33374 0.54621 0.48155 0.0
C1551 C 0.33455 0.61074 0.51506 0.0
C1552 C 0.21482 0.12332 0.39726 0.0
C1553 C 0.21507 0.13972 0.37228 0.0
H1554 H 0.23637 0.09269 0.42261 0.0
C1555 C 0.23875 0.13794 0.35371 0.0
H1556 H 0.19686 0.12403 0.41199 0.0
C1557 C 0.26154 0.11995 0.35989 0.0
C1558 C 0.26097 0.10314 0.38461 0.0
H1559 H 0.23957 0.15026 0.33427 0.0
H1560 H 0.27943 0.11896 0.34511 0.0
C1561 C 0.23742 0.10516 0.40328 0.0
C1562 C 0.72286 0.44541 0.58723 0.0
C1563 C 0.74467 0.42533 0.58971 0.0
H1564 H 0.67878 0.45495 0.59452 0.0
C1565 C 0.73914 0.40017 0.605 0.0
H1566 H 0.72667 0.4652 0.576 0.0
C1567 C 0.71161 0.39415 0.6155 0.0
C1568 C 0.68926 0.41339 0.61128 0.0
H1569 H 0.75565 0.38441 0.60752 0.0
H1570 H 0.70748 0.37379 0.62557 0.0
C1571 C 0.69549 0.43963 0.59816 0.0
C1572 C 0.3677 0.94442 0.33339 0.0
C1573 C 0.36234 0.91913 0.34852 0.0
H1574 H 0.36349 0.98958 0.33208 0.0
C1575 C 0.34639 0.92037 0.37397 0.0
H1576 H 0.37978 0.94428 0.31363 0.0
C1577 C 0.33686 0.9465 0.38453 0.0
C1578 C 0.34325 0.97189 0.36992 0.0
H1579 H 0.34179 0.90126 0.38607 0.0
H1580 H 0.32525 0.94686 0.40457 0.0
C1581 C 0.35835 0.97047 0.34399 0.0
C1582 C 0.81514 0.55693 0.14142 0.0
C1583 C 0.82145 0.57679 0.11998 0.0
H1584 H 0.7828 0.53676 0.16689 0.0
C1585 C 0.79898 0.59242 0.10808 0.0
H1586 H 0.83197 0.54461 0.15104 0.0
C1587 C 0.77065 0.58773 0.11699 0.0
C1588 C 0.76434 0.56754 0.13814 0.0
H1589 H 0.80316 0.60782 0.09142 0.0
H1590 H 0.75373 0.59981 0.10721 0.0
C1591 C 0.78692 0.55243 0.15047 0.0
C1592 C 0.60702 0.55176 0.39962 0.0
C1593 C 0.62366 0.57342 0.38679 0.0
H1594 H 0.60391 0.50771 0.41049 0.0
C1595 C 0.65259 0.56821 0.38032 0.0
H1596 H 0.58478 0.5553 0.40529 0.0
C1597 C 0.66353 0.54086 0.38314 0.0
C1598 C 0.64581 0.51838 0.39279 0.0
H1599 H 0.66608 0.58455 0.37072 0.0
H1600 H 0.68509 0.53684 0.37551 0.0
C1601 C 0.6181 0.5245 0.40283 0.0
C1602 C 0.25582 0.90685 0.82374 0.0
C1603 C 0.24286 0.91499 0.84955 0.0
H1604 H 0.28539 0.87951 0.80274 0.0
C1605 C 0.25035 0.90086 0.87471 0.0
H1606 H 0.25039 0.91712 0.80391 0.0
C1607 C 0.27058 0.87917 0.87403 0.0
C1608 C 0.28345 0.87105 0.84813 0.0
H1609 H 0.24063 0.90656 0.89491 0.0
H1610 H 0.27618 0.86885 0.89378 0.0
C1611 C 0.27575 0.88507 0.82302 0.0
C1612 C 0.3801 0.04246 0.07132 0.0
C1613 C 0.37705 0.01799 0.08823 0.0
H1614 H 0.39265 0.08641 0.06964 0.0
C1615 C 0.38722 0.01873 0.11639 0.0
H1616 H 0.37261 0.04253 0.0495 0.0
C1617 C 0.39832 0.04392 0.128 0.0
C1618 C 0.39984 0.0688 0.1116 0.0
H1619 H 0.38528 0.00024 0.12999 0.0
H1620 H 0.40492 0.04411 0.15011 0.0
C1621 C 0.39155 0.06761 0.08286 0.0
C1622 C 0.11481 0.92351 0.60214 0.0
C1623 C 0.10237 0.92675 0.62922 0.0
H1624 H 0.1384 0.94316 0.56822 0.0
C1625 C 0.10288 0.95377 0.64223 0.0
H1626 H 0.11468 0.90301 0.59151 0.0
C1627 C 0.1164 0.97687 0.62885 0.0
C1628 C 0.1298 0.97337 0.60224 0.0
H1629 H 0.09332 0.95702 0.66305 0.0
H1630 H 0.11701 -0.00276 0.63973 0.0
C1631 C 0.12844 0.94656 0.58882 0.0
loop_
_geom_bond_atom_site_label_1
_geom_bond_atom_site_label_2
_geom_bond_distance
_geom_bond_site_symmetry_2
_ccdc_geom_bond_type
Zn0 O3 2.031 . S
Zn0 O5 2.049 . S
Zn0 O10 2.067 . S
Zn1 O2 1.962 . S
Zn1 O4 1.986 . S
Zn1 O6 1.996 . S
Zn1 O9 1.943 . S
O2 Zn1 1.962 . S
O2 C7 1.254 . S
O3 Zn0 2.031 . S
O3 C7 1.269 . S
O4 Zn1 1.986 . S
O4 C11 1.262 . S
O5 Zn0 2.049 . S
O5 C13 1.260 . S
O6 Zn1 1.996 . S
O6 C13 1.257 . S
C7 O2 1.254 . S
C7 O3 1.269 . S
C8 O9 1.249 . S
C8 O10 1.270 . S
O9 Zn1 1.943 . S
O9 C8 1.249 . S
O10 Zn0 2.067 . S
O10 C8 1.270 . S
C11 O4 1.262 . S
C11 O12 1.232 . S
O12 C11 1.232 . S
C13 O5 1.260 . S
C13 O6 1.257 . S
Zn14 O17 2.031 . S
Zn14 O19 2.049 . S
Zn14 O24 2.067 . S
Zn15 O16 1.962 . S
Zn15 O18 1.986 . S
Zn15 O20 1.996 . S
Zn15 O23 1.943 . S
O16 Zn15 1.962 . S
O16 C21 1.254 . S
O17 Zn14 2.031 . S
O17 C21 1.269 . S
O18 Zn15 1.986 . S
O18 C25 1.262 . S
O19 Zn14 2.049 . S
O19 C27 1.260 . S
O20 Zn15 1.996 . S
O20 C27 1.257 . S
C21 O16 1.254 . S
C21 O17 1.269 . S
C22 O23 1.249 . S
C22 O24 1.270 . S
O23 Zn15 1.943 . S
O23 C22 1.249 . S
O24 Zn14 2.067 . S
O24 C22 1.270 . S
C25 O18 1.262 . S
C25 O26 1.232 . S
O26 C25 1.232 . S
C27 O19 1.260 . S
C27 O20 1.257 . S
Zn28 O31 2.031 . S
Zn28 O33 2.049 . S
Zn28 O38 2.067 . S
Zn29 O30 1.962 . S
Zn29 O32 1.986 . S
Zn29 O34 1.996 . S
Zn29 O37 1.943 . S
O30 Zn29 1.962 . S
O30 C35 1.254 . S
O31 Zn28 2.031 . S
O31 C35 1.269 . S
O32 Zn29 1.986 . S
O32 C39 1.262 . S
O33 Zn28 2.049 . S
O33 C41 1.260 . S
O34 Zn29 1.996 . S
O34 C41 1.257 . S
C35 O30 1.254 . S
C35 O31 1.269 . S
C36 O37 1.249 . S
C36 O38 1.270 . S
O37 Zn29 1.943 . S
O37 C36 1.249 . S
O38 Zn28 2.067 . S
O38 C36 1.270 . S
C39 O32 1.262 . S
C39 O40 1.232 . S
O40 C39 1.232 . S
C41 O33 1.260 . S
C41 O34 1.257 . S
Zn42 O45 2.031 . S
Zn42 O47 2.049 . S
Zn42 O52 2.067 . S
Zn43 O44 1.962 . S
Zn43 O46 1.986 . S
Zn43 O48 1.996 . S
Zn43 O51 1.943 . S
O44 Zn43 1.962 . S
O44 C49 1.254 . S
O45 Zn42 2.031 . S
O45 C49 1.269 . S
O46 Zn43 1.986 . S
O46 C53 1.262 . S
O47 Zn42 2.049 . S
O47 C55 1.260 . S
O48 Zn43 1.996 . S
O48 C55 1.257 . S
C49 O44 1.254 . S
C49 O45 1.269 . S
C50 O51 1.249 . S
C50 O52 1.270 . S
O51 Zn43 1.943 . S
O51 C50 1.249 . S
O52 Zn42 2.067 . S
O52 C50 1.270 . S
C53 O46 1.262 . S
C53 O54 1.232 . S
O54 C53 1.232 . S
C55 O47 1.260 . S
C55 O48 1.257 . S
Zn56 O59 2.031 . S
Zn56 O61 2.049 . S
Zn56 O66 2.067 . S
Zn57 O58 1.962 . S
Zn57 O60 1.986 . S
Zn57 O62 1.996 . S
Zn57 O65 1.943 . S
O58 Zn57 1.962 . S
O58 C63 1.254 . S
O59 Zn56 2.031 . S
O59 C63 1.269 . S
O60 Zn57 1.986 . S
O60 C67 1.262 . S
O61 Zn56 2.049 . S
O61 C69 1.260 . S
O62 Zn57 1.996 . S
O62 C69 1.257 . S
C63 O58 1.254 . S
C63 O59 1.269 . S
C64 O65 1.249 . S
C64 O66 1.270 . S
O65 Zn57 1.943 . S
O65 C64 1.249 . S
O66 Zn56 2.067 . S
O66 C64 1.270 . S
C67 O60 1.262 . S
C67 O68 1.232 . S
O68 C67 1.232 . S
C69 O61 1.260 . S
C69 O62 1.257 . S
Zn70 O73 2.031 . S
Zn70 O75 2.049 . S
Zn70 O80 2.067 . S
Zn71 O72 1.962 . S
Zn71 O74 1.986 . S
Zn71 O76 1.996 . S
Zn71 O79 1.943 . S
O72 Zn71 1.962 . S
O72 C77 1.254 . S
O73 Zn70 2.031 . S
O73 C77 1.269 . S
O74 Zn71 1.986 . S
O74 C81 1.262 . S
O75 Zn70 2.049 . S
O75 C83 1.260 . S
O76 Zn71 1.996 . S
O76 C83 1.257 . S
C77 O72 1.254 . S
C77 O73 1.269 . S
C78 O79 1.249 . S
C78 O80 1.270 . S
O79 Zn71 1.943 . S
O79 C78 1.249 . S
O80 Zn70 2.067 . S
O80 C78 1.270 . S
C81 O74 1.262 . S
C81 O82 1.232 . S
O82 C81 1.232 . S
C83 O75 1.260 . S
C83 O76 1.257 . S
Zn84 O87 2.031 . S
Zn84 O89 2.049 . S
Zn84 O94 2.067 . S
Zn85 O86 1.962 . S
Zn85 O88 1.986 . S
Zn85 O90 1.996 . S
Zn85 O93 1.943 . S
O86 Zn85 1.962 . S
O86 C91 1.254 . S
O87 Zn84 2.031 . S
O87 C91 1.269 . S
O88 Zn85 1.986 . S
O88 C95 1.262 . S
O89 Zn84 2.049 . S
O89 C97 1.260 . S
O90 Zn85 1.996 . S
O90 C97 1.257 . S
C91 O86 1.254 . S
C91 O87 1.269 . S
C92 O93 1.249 . S
C92 O94 1.270 . S
O93 Zn85 1.943 . S
O93 C92 1.249 . S
O94 Zn84 2.067 . S
O94 C92 1.270 . S
C95 O88 1.262 . S
C95 O96 1.232 . S
O96 C95 1.232 . S
C97 O89 1.260 . S
C97 O90 1.257 . S
Zn98 O101 2.031 . S
Zn98 O103 2.049 . S
Zn98 O108 2.067 . S
Zn99 O100 1.962 . S
Zn99 O102 1.986 . S
Zn99 O104 1.996 . S
Zn99 O107 1.943 . S
O100 Zn99 1.962 . S
O100 C105 1.254 . S
O101 Zn98 2.031 . S
O101 C105 1.269 . S
O102 Zn99 1.986 . S
O102 C109 1.262 . S
O103 Zn98 2.049 . S
O103 C111 1.260 . S
O104 Zn99 1.996 . S
O104 C111 1.257 . S
C105 O100 1.254 . S
C105 O101 1.269 . S
C106 O107 1.249 . S
C106 O108 1.270 . S
O107 Zn99 1.943 . S
O107 C106 1.249 . S
O108 Zn98 2.067 . S
O108 C106 1.270 . S
C109 O102 1.262 . S
C109 O110 1.232 . S
O110 C109 1.232 . S
C111 O103 1.260 . S
C111 O104 1.257 . S
Zn112 O115 2.031 . S
Zn112 O117 2.049 . S
Zn112 O122 2.067 . S
Zn113 O114 1.962 . S
Zn113 O116 1.986 . S
Zn113 O118 1.996 . S
Zn113 O121 1.943 . S
O114 Zn113 1.962 . S
O114 C119 1.254 . S
O115 Zn112 2.031 . S
O115 C119 1.269 . S
O116 Zn113 1.986 . S
O116 C123 1.262 . S
O117 Zn112 2.049 . S
O117 C125 1.260 . S
O118 Zn113 1.996 . S
O118 C125 1.257 . S
C119 O114 1.254 . S
C119 O115 1.269 . S
C120 O121 1.249 . S
C120 O122 1.270 . S
O121 Zn113 1.943 . S
O121 C120 1.249 . S
O122 Zn112 2.067 . S
O122 C120 1.270 . S
C123 O116 1.262 . S
C123 O124 1.232 . S
O124 C123 1.232 . S
C125 O117 1.260 . S
C125 O118 1.257 . S
Zn126 O129 2.031 . S
Zn126 O131 2.049 . S
Zn126 O136 2.067 . S
Zn127 O128 1.962 . S
Zn127 O130 1.986 . S
Zn127 O132 1.996 . S
Zn127 O135 1.943 . S
O128 Zn127 1.962 . S
O128 C133 1.254 . S
O129 Zn126 2.031 . S
O129 C133 1.269 . S
O130 Zn127 1.986 . S
O130 C137 1.262 . S
O131 Zn126 2.049 . S
O131 C139 1.260 . S
O132 Zn127 1.996 . S
O132 C139 1.257 . S
C133 O128 1.254 . S
C133 O129 1.269 . S
C134 O135 1.249 . S
C134 O136 1.270 . S
O135 Zn127 1.943 . S
O135 C134 1.249 . S
O136 Zn126 2.067 . S
O136 C134 1.270 . S
C137 O130 1.262 . S
C137 O138 1.232 . S
O138 C137 1.232 . S
C139 O131 1.260 . S
C139 O132 1.257 . S
Zn140 O143 2.031 . S
Zn140 O145 2.049 . S
Zn140 O150 2.067 . S
Zn141 O142 1.962 . S
Zn141 O144 1.986 . S
Zn141 O146 1.996 . S
Zn141 O149 1.943 . S
O142 Zn141 1.962 . S
O142 C147 1.254 . S
O143 Zn140 2.031 . S
O143 C147 1.269 . S
O144 Zn141 1.986 . S
O144 C151 1.262 . S
O145 Zn140 2.049 . S
O145 C153 1.260 . S
O146 Zn141 1.996 . S
O146 C153 1.257 . S
C147 O142 1.254 . S
C147 O143 1.269 . S
C148 O149 1.249 . S
C148 O150 1.270 . S
O149 Zn141 1.943 . S
O149 C148 1.249 . S
O150 Zn140 2.067 . S
O150 C148 1.270 . S
C151 O144 1.262 . S
C151 O152 1.232 . S
O152 C151 1.232 . S
C153 O145 1.260 . S
C153 O146 1.257 . S
Zn154 O157 2.031 . S
Zn154 O159 2.049 . S
Zn154 O164 2.067 . S
Zn155 O156 1.962 . S
Zn155 O158 1.986 . S
Zn155 O160 1.996 . S
Zn155 O163 1.943 . S
O156 Zn155 1.962 . S
O156 C161 1.254 . S
O157 Zn154 2.031 . S
O157 C161 1.269 . S
O158 Zn155 1.986 . S
O158 C165 1.262 . S
O159 Zn154 2.049 . S
O159 C167 1.260 . S
O160 Zn155 1.996 . S
O160 C167 1.257 . S
C161 O156 1.254 . S
C161 O157 1.269 . S
C162 O163 1.249 . S
C162 O164 1.270 . S
O163 Zn155 1.943 . S
O163 C162 1.249 . S
O164 Zn154 2.067 . S
O164 C162 1.270 . S
C165 O158 1.262 . S
C165 O166 1.232 . S
O166 C165 1.232 . S
C167 O159 1.260 . S
C167 O160 1.257 . S
Zn168 O171 2.031 . S
Zn168 O173 2.049 . S
Zn168 O178 2.067 . S
Zn169 O170 1.962 . S
Zn169 O172 1.986 . S
Zn169 O174 1.996 . S
Zn169 O177 1.943 . S
O170 Zn169 1.962 . S
O170 C175 1.254 . S
O171 Zn168 2.031 . S
O171 C175 1.269 . S
O172 Zn169 1.986 . S
O172 C179 1.262 . S
O173 Zn168 2.049 . S
O173 C181 1.260 . S
O174 Zn169 1.996 . S
O174 C181 1.257 . S
C175 O170 1.254 . S
C175 O171 1.269 . S
C176 O177 1.249 . S
C176 O178 1.270 . S
O177 Zn169 1.943 . S
O177 C176 1.249 . S
O178 Zn168 2.067 . S
O178 C176 1.270 . S
C179 O172 1.262 . S
C179 O180 1.232 . S
O180 C179 1.232 . S
C181 O173 1.260 . S
C181 O174 1.257 . S
Zn182 O185 2.031 . S
Zn182 O187 2.049 . S
Zn182 O192 2.067 . S
Zn183 O184 1.962 . S
Zn183 O186 1.986 . S
Zn183 O188 1.996 . S
Zn183 O191 1.943 . S
O184 Zn183 1.962 . S
O184 C189 1.254 . S
O185 Zn182 2.031 . S
O185 C189 1.269 . S
O186 Zn183 1.986 . S
O186 C193 1.262 . S
O187 Zn182 2.049 . S
O187 C195 1.260 . S
O188 Zn183 1.996 . S
O188 C195 1.257 . S
C189 O184 1.254 . S
C189 O185 1.269 . S
C190 O191 1.249 . S
C190 O192 1.270 . S
O191 Zn183 1.943 . S
O191 C190 1.249 . S
O192 Zn182 2.067 . S
O192 C190 1.270 . S
C193 O186 1.262 . S
C193 O194 1.232 . S
O194 C193 1.232 . S
C195 O187 1.260 . S
C195 O188 1.257 . S
Zn196 O199 2.031 . S
Zn196 O201 2.049 . S
Zn196 O206 2.067 . S
Zn197 O198 1.962 . S
Zn197 O200 1.986 . S
Zn197 O202 1.996 . S
Zn197 O205 1.943 . S
O198 Zn197 1.962 . S
O198 C203 1.254 . S
O199 Zn196 2.031 . S
O199 C203 1.269 . S
O200 Zn197 1.986 . S
O200 C207 1.262 . S
O201 Zn196 2.049 . S
O201 C209 1.260 . S
O202 Zn197 1.996 . S
O202 C209 1.257 . S
C203 O198 1.254 . S
C203 O199 1.269 . S
C204 O205 1.249 . S
C204 O206 1.270 . S
O205 Zn197 1.943 . S
O205 C204 1.249 . S
O206 Zn196 2.067 . S
O206 C204 1.270 . S
C207 O200 1.262 . S
C207 O208 1.232 . S
O208 C207 1.232 . S
C209 O201 1.260 . S
C209 O202 1.257 . S
Zn210 O213 2.031 . S
Zn210 O215 2.049 . S
Zn210 O220 2.067 . S
Zn211 O212 1.962 . S
Zn211 O214 1.986 . S
Zn211 O216 1.996 . S
Zn211 O219 1.943 . S
O212 Zn211 1.962 . S
O212 C217 1.254 . S
O213 Zn210 2.031 . S
O213 C217 1.269 . S
O214 Zn211 1.986 . S
O214 C221 1.262 . S
O215 Zn210 2.049 . S
O215 C223 1.260 . S
O216 Zn211 1.996 . S
O216 C223 1.257 . S
C217 O212 1.254 . S
C217 O213 1.269 . S
C218 O219 1.249 . S
C218 O220 1.270 . S
O219 Zn211 1.943 . S
O219 C218 1.249 . S
O220 Zn210 2.067 . S
O220 C218 1.270 . S
C221 O214 1.262 . S
C221 O222 1.232 . S
O222 C221 1.232 . S
C223 O215 1.260 . S
C223 O216 1.257 . S
Zn224 O227 2.031 . S
Zn224 O229 2.049 . S
Zn224 O234 2.067 . S
Zn225 O226 1.962 . S
Zn225 O228 1.986 . S
Zn225 O230 1.996 . S
Zn225 O233 1.943 . S
O226 Zn225 1.962 . S
O226 C231 1.254 . S
O227 Zn224 2.031 . S
O227 C231 1.269 . S
O228 Zn225 1.986 . S
O228 C235 1.262 . S
O229 Zn224 2.049 . S
O229 C237 1.260 . S
O230 Zn225 1.996 . S
O230 C237 1.257 . S
C231 O226 1.254 . S
C231 O227 1.269 . S
C232 O233 1.249 . S
C232 O234 1.270 . S
O233 Zn225 1.943 . S
O233 C232 1.249 . S
O234 Zn224 2.067 . S
O234 C232 1.270 . S
C235 O228 1.262 . S
C235 O236 1.232 . S
O236 C235 1.232 . S
C237 O229 1.260 . S
C237 O230 1.257 . S
Zn238 O241 2.031 . S
Zn238 O243 2.049 . S
Zn238 O248 2.067 . S
Zn239 O240 1.962 . S
Zn239 O242 1.986 . S
Zn239 O244 1.996 . S
Zn239 O247 1.943 . S
O240 Zn239 1.962 . S
O240 C245 1.254 . S
O241 Zn238 2.031 . S
O241 C245 1.269 . S
O242 Zn239 1.986 . S
O242 C249 1.262 . S
O243 Zn238 2.049 . S
O243 C251 1.260 . S
O244 Zn239 1.996 . S
O244 C251 1.257 . S
C245 O240 1.254 . S
C245 O241 1.269 . S
C246 O247 1.249 . S
C246 O248 1.270 . S
O247 Zn239 1.943 . S
O247 C246 1.249 . S
O248 Zn238 2.067 . S
O248 C246 1.270 . S
C249 O242 1.262 . S
C249 O250 1.232 . S
O250 C249 1.232 . S
C251 O243 1.260 . S
C251 O244 1.257 . S
Zn252 O255 2.031 . S
Zn252 O257 2.049 . S
Zn252 O262 2.067 . S
Zn253 O254 1.962 . S
Zn253 O256 1.986 . S
Zn253 O258 1.996 . S
Zn253 O261 1.943 . S
O254 Zn253 1.962 . S
O254 C259 1.254 . S
O255 Zn252 2.031 . S
O255 C259 1.269 . S
O256 Zn253 1.986 . S
O256 C263 1.262 . S
O257 Zn252 2.049 . S
O257 C265 1.260 . S
O258 Zn253 1.996 . S
O258 C265 1.257 . S
C259 O254 1.254 . S
C259 O255 1.269 . S
C260 O261 1.249 . S
C260 O262 1.270 . S
O261 Zn253 1.943 . S
O261 C260 1.249 . S
O262 Zn252 2.067 . S
O262 C260 1.270 . S
C263 O256 1.262 . S
C263 O264 1.232 . S
O264 C263 1.232 . S
C265 O257 1.260 . S
C265 O258 1.257 . S
Zn266 O269 2.031 . S
Zn266 O271 2.049 . S
Zn266 O276 2.067 . S
Zn267 O268 1.962 . S
Zn267 O270 1.986 . S
Zn267 O272 1.996 . S
Zn267 O275 1.943 . S
O268 Zn267 1.962 . S
O268 C273 1.254 . S
O269 Zn266 2.031 . S
O269 C273 1.269 . S
O270 Zn267 1.986 . S
O270 C277 1.262 . S
O271 Zn266 2.049 . S
O271 C279 1.260 . S
O272 Zn267 1.996 . S
O272 C279 1.257 . S
C273 O268 1.254 . S
C273 O269 1.269 . S
C274 O275 1.249 . S
C274 O276 1.270 . S
O275 Zn267 1.943 . S
O275 C274 1.249 . S
O276 Zn266 2.067 . S
O276 C274 1.270 . S
C277 O270 1.262 . S
C277 O278 1.232 . S
O278 C277 1.232 . S
C279 O271 1.260 . S
C279 O272 1.257 . S
Zn280 O283 2.031 . S
Zn280 O285 2.049 . S
Zn280 O290 2.067 . S
Zn281 O282 1.962 . S
Zn281 O284 1.986 . S
Zn281 O286 1.996 . S
Zn281 O289 1.943 . S
O282 Zn281 1.962 . S
O282 C287 1.254 . S
O283 Zn280 2.031 . S
O283 C287 1.269 . S
O284 Zn281 1.986 . S
O284 C291 1.262 . S
O285 Zn280 2.049 . S
O285 C293 1.260 . S
O286 Zn281 1.996 . S
O286 C293 1.257 . S
C287 O282 1.254 . S
C287 O283 1.269 . S
C288 O289 1.249 . S
C288 O290 1.270 . S
O289 Zn281 1.943 . S
O289 C288 1.249 . S
O290 Zn280 2.067 . S
O290 C288 1.270 . S
C291 O284 1.262 . S
C291 O292 1.232 . S
O292 C291 1.232 . S
C293 O285 1.260 . S
C293 O286 1.257 . S
Zn294 O297 2.031 . S
Zn294 O299 2.049 . S
Zn294 O304 2.067 . S
Zn295 O296 1.962 . S
Zn295 O298 1.986 . S
Zn295 O300 1.996 . S
Zn295 O303 1.943 . S
O296 Zn295 1.962 . S
O296 C301 1.254 . S
O297 Zn294 2.031 . S
O297 C301 1.269 . S
O298 Zn295 1.986 . S
O298 C305 1.262 . S
O299 Zn294 2.049 . S
O299 C307 1.260 . S
O300 Zn295 1.996 . S
O300 C307 1.257 . S
C301 O296 1.254 . S
C301 O297 1.269 . S
C302 O303 1.249 . S
C302 O304 1.270 . S
O303 Zn295 1.943 . S
O303 C302 1.249 . S
O304 Zn294 2.067 . S
O304 C302 1.270 . S
C305 O298 1.262 . S
C305 O306 1.232 . S
O306 C305 1.232 . S
C307 O299 1.260 . S
C307 O300 1.257 . S
Zn308 O311 2.031 . S
Zn308 O313 2.049 . S
Zn308 O318 2.067 . S
Zn309 O310 1.962 . S
Zn309 O312 1.986 . S
Zn309 O314 1.996 . S
Zn309 O317 1.943 . S
O310 Zn309 1.962 . S
O310 C315 1.254 . S
O311 Zn308 2.031 . S
O311 C315 1.269 . S
O312 Zn309 1.986 . S
O312 C319 1.262 . S
O313 Zn308 2.049 . S
O313 C321 1.260 . S
O314 Zn309 1.996 . S
O314 C321 1.257 . S
C315 O310 1.254 . S
C315 O311 1.269 . S
C316 O317 1.249 . S
C316 O318 1.270 . S
O317 Zn309 1.943 . S
O317 C316 1.249 . S
O318 Zn308 2.067 . S
O318 C316 1.270 . S
C319 O312 1.262 . S
C319 O320 1.232 . S
O320 C319 1.232 . S
C321 O313 1.260 . S
C321 O314 1.257 . S
Zn322 O325 2.031 . S
Zn322 O327 2.049 . S
Zn322 O332 2.067 . S
Zn323 O324 1.962 . S
Zn323 O326 1.986 . S
Zn323 O328 1.996 . S
Zn323 O331 1.943 . S
O324 Zn323 1.962 . S
O324 C329 1.254 . S
O325 Zn322 2.031 . S
O325 C329 1.269 . S
O326 Zn323 1.986 . S
O326 C333 1.262 . S
O327 Zn322 2.049 . S
O327 C335 1.260 . S
O328 Zn323 1.996 . S
O328 C335 1.257 . S
C329 O324 1.254 . S
C329 O325 1.269 . S
C330 O331 1.249 . S
C330 O332 1.270 . S
O331 Zn323 1.943 . S
O331 C330 1.249 . S
O332 Zn322 2.067 . S
O332 C330 1.270 . S
C333 O326 1.262 . S
C333 O334 1.232 . S
O334 C333 1.232 . S
C335 O327 1.260 . S
C335 O328 1.257 . S
Zn336 O339 2.031 . S
Zn336 O341 2.049 . S
Zn336 O346 2.067 . S
Zn337 O338 1.962 . S
Zn337 O340 1.986 . S
Zn337 O342 1.996 . S
Zn337 O345 1.943 . S
O338 Zn337 1.962 . S
O338 C343 1.254 . S
O339 Zn336 2.031 . S
O339 C343 1.269 . S
O340 Zn337 1.986 . S
O340 C347 1.262 . S
O341 Zn336 2.049 . S
O341 C349 1.260 . S
O342 Zn337 1.996 . S
O342 C349 1.257 . S
C343 O338 1.254 . S
C343 O339 1.269 . S
C344 O345 1.249 . S
C344 O346 1.270 . S
O345 Zn337 1.943 . S
O345 C344 1.249 . S
O346 Zn336 2.067 . S
O346 C344 1.270 . S
C347 O340 1.262 . S
C347 O348 1.232 . S
O348 C347 1.232 . S
C349 O341 1.260 . S
C349 O342 1.257 . S
Zn350 O353 2.031 . S
Zn350 O355 2.049 . S
Zn350 O360 2.067 . S
Zn351 O352 1.962 . S
Zn351 O354 1.986 . S
Zn351 O356 1.996 . S
Zn351 O359 1.943 . S
O352 Zn351 1.962 . S
O352 C357 1.254 . S
O353 Zn350 2.031 . S
O353 C357 1.269 . S
O354 Zn351 1.986 . S
O354 C361 1.262 . S
O355 Zn350 2.049 . S
O355 C363 1.260 . S
O356 Zn351 1.996 . S
O356 C363 1.257 . S
C357 O352 1.254 . S
C357 O353 1.269 . S
C358 O359 1.249 . S
C358 O360 1.270 . S
O359 Zn351 1.943 . S
O359 C358 1.249 . S
O360 Zn350 2.067 . S
O360 C358 1.270 . S
C361 O354 1.262 . S
C361 O362 1.232 . S
O362 C361 1.232 . S
C363 O355 1.260 . S
C363 O356 1.257 . S
Zn364 O367 2.031 . S
Zn364 O369 2.049 . S
Zn364 O374 2.067 . S
Zn365 O366 1.962 . S
Zn365 O368 1.986 . S
Zn365 O370 1.996 . S
Zn365 O373 1.943 . S
O366 Zn365 1.962 . S
O366 C371 1.254 . S
O367 Zn364 2.031 . S
O367 C371 1.269 . S
O368 Zn365 1.986 . S
O368 C375 1.262 . S
O369 Zn364 2.049 . S
O369 C377 1.260 . S
O370 Zn365 1.996 . S
O370 C377 1.257 . S
C371 O366 1.254 . S
C371 O367 1.269 . S
C372 O373 1.249 . S
C372 O374 1.270 . S
O373 Zn365 1.943 . S
O373 C372 1.249 . S
O374 Zn364 2.067 . S
O374 C372 1.270 . S
C375 O368 1.262 . S
C375 O376 1.232 . S
O376 C375 1.232 . S
C377 O369 1.260 . S
C377 O370 1.257 . S
Zn378 O381 2.031 . S
Zn378 O383 2.049 . S
Zn378 O388 2.067 . S
Zn379 O380 1.962 . S
Zn379 O382 1.986 . S
Zn379 O384 1.996 . S
Zn379 O387 1.943 . S
O380 Zn379 1.962 . S
O380 C385 1.254 . S
O381 Zn378 2.031 . S
O381 C385 1.269 . S
O382 Zn379 1.986 . S
O382 C389 1.262 . S
O383 Zn378 2.049 . S
O383 C391 1.260 . S
O384 Zn379 1.996 . S
O384 C391 1.257 . S
C385 O380 1.254 . S
C385 O381 1.269 . S
C386 O387 1.249 . S
C386 O388 1.270 . S
O387 Zn379 1.943 . S
O387 C386 1.249 . S
O388 Zn378 2.067 . S
O388 C386 1.270 . S
C389 O382 1.262 . S
C389 O390 1.232 . S
O390 C389 1.232 . S
C391 O383 1.260 . S
C391 O384 1.257 . S
Zn392 O395 2.031 . S
Zn392 O397 2.049 . S
Zn392 O402 2.067 . S
Zn393 O394 1.962 . S
Zn393 O396 1.986 . S
Zn393 O398 1.996 . S
Zn393 O401 1.943 . S
O394 Zn393 1.962 . S
O394 C399 1.254 . S
O395 Zn392 2.031 . S
O395 C399 1.269 . S
O396 Zn393 1.986 . S
O396 C403 1.262 . S
O397 Zn392 2.049 . S
O397 C405 1.260 . S
O398 Zn393 1.996 . S
O398 C405 1.257 . S
C399 O394 1.254 . S
C399 O395 1.269 . S
C400 O401 1.249 . S
C400 O402 1.270 . S
O401 Zn393 1.943 . S
O401 C400 1.249 . S
O402 Zn392 2.067 . S
O402 C400 1.270 . S
C403 O396 1.262 . S
C403 O404 1.232 . S
O404 C403 1.232 . S
C405 O397 1.260 . S
C405 O398 1.257 . S
Zn406 O409 2.031 . S
Zn406 O411 2.049 . S
Zn406 O416 2.067 . S
Zn407 O408 1.962 . S
Zn407 O410 1.986 . S
Zn407 O412 1.996 . S
Zn407 O415 1.943 . S
O408 Zn407 1.962 . S
O408 C413 1.254 . S
O409 Zn406 2.031 . S
O409 C413 1.269 . S
O410 Zn407 1.986 . S
O410 C417 1.262 . S
O411 Zn406 2.049 . S
O411 C419 1.260 . S
O412 Zn407 1.996 . S
O412 C419 1.257 . S
C413 O408 1.254 . S
C413 O409 1.269 . S
C414 O415 1.249 . S
C414 O416 1.270 . S
O415 Zn407 1.943 . S
O415 C414 1.249 . S
O416 Zn406 2.067 . S
O416 C414 1.270 . S
C417 O410 1.262 . S
C417 O418 1.232 . S
O418 C417 1.232 . S
C419 O411 1.260 . S
C419 O412 1.257 . S
Zn420 O423 2.031 . S
Zn420 O425 2.049 . S
Zn420 O430 2.067 . S
Zn421 O422 1.962 . S
Zn421 O424 1.986 . S
Zn421 O426 1.996 . S
Zn421 O429 1.943 . S
O422 Zn421 1.962 . S
O422 C427 1.254 . S
O423 Zn420 2.031 . S
O423 C427 1.269 . S
O424 Zn421 1.986 . S
O424 C431 1.262 . S
O425 Zn420 2.049 . S
O425 C433 1.260 . S
O426 Zn421 1.996 . S
O426 C433 1.257 . S
C427 O422 1.254 . S
C427 O423 1.269 . S
C428 O429 1.249 . S
C428 O430 1.270 . S
O429 Zn421 1.943 . S
O429 C428 1.249 . S
O430 Zn420 2.067 . S
O430 C428 1.270 . S
C431 O424 1.262 . S
C431 O432 1.232 . S
O432 C431 1.232 . S
C433 O425 1.260 . S
C433 O426 1.257 . S
Zn434 O437 2.031 . S
Zn434 O439 2.049 . S
Zn434 O444 2.067 . S
Zn435 O436 1.962 . S
Zn435 O438 1.986 . S
Zn435 O440 1.996 . S
Zn435 O443 1.943 . S
O436 Zn435 1.962 . S
O436 C441 1.254 . S
O437 Zn434 2.031 . S
O437 C441 1.269 . S
O438 Zn435 1.986 . S
O438 C445 1.262 . S
O439 Zn434 2.049 . S
O439 C447 1.260 . S
O440 Zn435 1.996 . S
O440 C447 1.257 . S
C441 O436 1.254 . S
C441 O437 1.269 . S
C442 O443 1.249 . S
C442 O444 1.270 . S
O443 Zn435 1.943 . S
O443 C442 1.249 . S
O444 Zn434 2.067 . S
O444 C442 1.270 . S
C445 O438 1.262 . S
C445 O446 1.232 . S
O446 C445 1.232 . S
C447 O439 1.260 . S
C447 O440 1.257 . S
Zn448 O451 2.031 . S
Zn448 O453 2.049 . S
Zn448 O458 2.067 . S
Zn449 O450 1.962 . S
Zn449 O452 1.986 . S
Zn449 O454 1.996 . S
Zn449 O457 1.943 . S
O450 Zn449 1.962 . S
O450 C455 1.254 . S
O451 Zn448 2.031 . S
O451 C455 1.269 . S
O452 Zn449 1.986 . S
O452 C459 1.262 . S
O453 Zn448 2.049 . S
O453 C461 1.260 . S
O454 Zn449 1.996 . S
O454 C461 1.257 . S
C455 O450 1.254 . S
C455 O451 1.269 . S
C456 O457 1.249 . S
C456 O458 1.270 . S
O457 Zn449 1.943 . S
O457 C456 1.249 . S
O458 Zn448 2.067 . S
O458 C456 1.270 . S
C459 O452 1.262 . S
C459 O460 1.232 . S
O460 C459 1.232 . S
C461 O453 1.260 . S
C461 O454 1.257 . S
Zn462 O465 2.031 . S
Zn462 O467 2.049 . S
Zn462 O472 2.067 . S
Zn463 O464 1.962 . S
Zn463 O466 1.986 . S
Zn463 O468 1.996 . S
Zn463 O471 1.943 . S
O464 Zn463 1.962 . S
O464 C469 1.254 . S
O465 Zn462 2.031 . S
O465 C469 1.269 . S
O466 Zn463 1.986 . S
O466 C473 1.262 . S
O467 Zn462 2.049 . S
O467 C475 1.260 . S
O468 Zn463 1.996 . S
O468 C475 1.257 . S
C469 O464 1.254 . S
C469 O465 1.269 . S
C470 O471 1.249 . S
C470 O472 1.270 . S
O471 Zn463 1.943 . S
O471 C470 1.249 . S
O472 Zn462 2.067 . S
O472 C470 1.270 . S
C473 O466 1.262 . S
C473 O474 1.232 . S
O474 C473 1.232 . S
C475 O467 1.260 . S
C475 O468 1.257 . S
Zn476 O479 2.031 . S
Zn476 O481 2.049 . S
Zn476 O486 2.067 . S
Zn477 O478 1.962 . S
Zn477 O480 1.986 . S
Zn477 O482 1.996 . S
Zn477 O485 1.943 . S
O478 Zn477 1.962 . S
O478 C483 1.254 . S
O479 Zn476 2.031 . S
O479 C483 1.269 . S
O480 Zn477 1.986 . S
O480 C487 1.262 . S
O481 Zn476 2.049 . S
O481 C489 1.260 . S
O482 Zn477 1.996 . S
O482 C489 1.257 . S
C483 O478 1.254 . S
C483 O479 1.269 . S
C484 O485 1.249 . S
C484 O486 1.270 . S
O485 Zn477 1.943 . S
O485 C484 1.249 . S
O486 Zn476 2.067 . S
O486 C484 1.270 . S
C487 O480 1.262 . S
C487 O488 1.232 . S
O488 C487 1.232 . S
C489 O481 1.260 . S
C489 O482 1.257 . S
Zn490 O493 2.031 . S
Zn490 O495 2.049 . S
Zn490 O500 2.067 . S
Zn491 O492 1.962 . S
Zn491 O494 1.986 . S
Zn491 O496 1.996 . S
Zn491 O499 1.943 . S
O492 Zn491 1.962 . S
O492 C497 1.254 . S
O493 Zn490 2.031 . S
O493 C497 1.269 . S
O494 Zn491 1.986 . S
O494 C501 1.262 . S
O495 Zn490 2.049 . S
O495 C503 1.260 . S
O496 Zn491 1.996 . S
O496 C503 1.257 . S
C497 O492 1.254 . S
C497 O493 1.269 . S
C498 O499 1.249 . S
C498 O500 1.270 . S
O499 Zn491 1.943 . S
O499 C498 1.249 . S
O500 Zn490 2.067 . S
O500 C498 1.270 . S
C501 O494 1.262 . S
C501 O502 1.232 . S
O502 C501 1.232 . S
C503 O495 1.260 . S
C503 O496 1.257 . S
Zn504 O507 2.031 . S
Zn504 O509 2.049 . S
Zn504 O514 2.067 . S
Zn505 O506 1.962 . S
Zn505 O508 1.986 . S
Zn505 O510 1.996 . S
Zn505 O513 1.943 . S
O506 Zn505 1.962 . S
O506 C511 1.254 . S
O507 Zn504 2.031 . S
O507 C511 1.269 . S
O508 Zn505 1.986 . S
O508 C515 1.262 . S
O509 Zn504 2.049 . S
O509 C517 1.260 . S
O510 Zn505 1.996 . S
O510 C517 1.257 . S
C511 O506 1.254 . S
C511 O507 1.269 . S
C512 O513 1.249 . S
C512 O514 1.270 . S
O513 Zn505 1.943 . S
O513 C512 1.249 . S
O514 Zn504 2.067 . S
O514 C512 1.270 . S
C515 O508 1.262 . S
C515 O516 1.232 . S
O516 C515 1.232 . S
C517 O509 1.260 . S
C517 O510 1.257 . S
Zn518 O521 2.031 . S
Zn518 O523 2.049 . S
Zn518 O528 2.067 . S
Zn519 O520 1.962 . S
Zn519 O522 1.986 . S
Zn519 O524 1.996 . S
Zn519 O527 1.943 . S
O520 Zn519 1.962 . S
O520 C525 1.254 . S
O521 Zn518 2.031 . S
O521 C525 1.269 . S
O522 Zn519 1.986 . S
O522 C529 1.262 . S
O523 Zn518 2.049 . S
O523 C531 1.260 . S
O524 Zn519 1.996 . S
O524 C531 1.257 . S
C525 O520 1.254 . S
C525 O521 1.269 . S
C526 O527 1.249 . S
C526 O528 1.270 . S
O527 Zn519 1.943 . S
O527 C526 1.249 . S
O528 Zn518 2.067 . S
O528 C526 1.270 . S
C529 O522 1.262 . S
C529 O530 1.232 . S
O530 C529 1.232 . S
C531 O523 1.260 . S
C531 O524 1.257 . S
Zn532 O535 2.031 . S
Zn532 O537 2.049 . S
Zn532 O542 2.067 . S
Zn533 O534 1.962 . S
Zn533 O536 1.986 . S
Zn533 O538 1.996 . S
Zn533 O541 1.943 . S
O534 Zn533 1.962 . S
O534 C539 1.254 . S
O535 Zn532 2.031 . S
O535 C539 1.269 . S
O536 Zn533 1.986 . S
O536 C543 1.262 . S
O537 Zn532 2.049 . S
O537 C545 1.260 . S
O538 Zn533 1.996 . S
O538 C545 1.257 . S
C539 O534 1.254 . S
C539 O535 1.269 . S
C540 O541 1.249 . S
C540 O542 1.270 . S
O541 Zn533 1.943 . S
O541 C540 1.249 . S
O542 Zn532 2.067 . S
O542 C540 1.270 . S
C543 O536 1.262 . S
C543 O544 1.232 . S
O544 C543 1.232 . S
C545 O537 1.260 . S
C545 O538 1.257 . S
Zn546 O549 2.031 . S
Zn546 O551 2.049 . S
Zn546 O556 2.067 . S
Zn547 O548 1.962 . S
Zn547 O550 1.986 . S
Zn547 O552 1.996 . S
Zn547 O555 1.943 . S
O548 Zn547 1.962 . S
O548 C553 1.254 . S
O549 Zn546 2.031 . S
O549 C553 1.269 . S
O550 Zn547 1.986 . S
O550 C557 1.262 . S
O551 Zn546 2.049 . S
O551 C559 1.260 . S
O552 Zn547 1.996 . S
O552 C559 1.257 . S
C553 O548 1.254 . S
C553 O549 1.269 . S
C554 O555 1.249 . S
C554 O556 1.270 . S
O555 Zn547 1.943 . S
O555 C554 1.249 . S
O556 Zn546 2.067 . S
O556 C554 1.270 . S
C557 O550 1.262 . S
C557 O558 1.232 . S
O558 C557 1.232 . S
C559 O551 1.260 . S
C559 O552 1.257 . S
Zn560 O563 2.031 . S
Zn560 O565 2.049 . S
Zn560 O570 2.067 . S
Zn561 O562 1.962 . S
Zn561 O564 1.986 . S
Zn561 O566 1.996 . S
Zn561 O569 1.943 . S
O562 Zn561 1.962 . S
O562 C567 1.254 . S
O563 Zn560 2.031 . S
O563 C567 1.269 . S
O564 Zn561 1.986 . S
O564 C571 1.262 . S
O565 Zn560 2.049 . S
O565 C573 1.260 . S
O566 Zn561 1.996 . S
O566 C573 1.257 . S
C567 O562 1.254 . S
C567 O563 1.269 . S
C568 O569 1.249 . S
C568 O570 1.270 . S
O569 Zn561 1.943 . S
O569 C568 1.249 . S
O570 Zn560 2.067 . S
O570 C568 1.270 . S
C571 O564 1.262 . S
C571 O572 1.232 . S
O572 C571 1.232 . S
C573 O565 1.260 . S
C573 O566 1.257 . S
Zn574 O577 2.031 . S
Zn574 O579 2.049 . S
Zn574 O584 2.067 . S
Zn575 O576 1.962 . S
Zn575 O578 1.986 . S
Zn575 O580 1.996 . S
Zn575 O583 1.943 . S
O576 Zn575 1.962 . S
O576 C581 1.254 . S
O577 Zn574 2.031 . S
O577 C581 1.269 . S
O578 Zn575 1.986 . S
O578 C585 1.262 . S
O579 Zn574 2.049 . S
O579 C587 1.260 . S
O580 Zn575 1.996 . S
O580 C587 1.257 . S
C581 O576 1.254 . S
C581 O577 1.269 . S
C582 O583 1.249 . S
C582 O584 1.270 . S
O583 Zn575 1.943 . S
O583 C582 1.249 . S
O584 Zn574 2.067 . S
O584 C582 1.270 . S
C585 O578 1.262 . S
C585 O586 1.232 . S
O586 C585 1.232 . S
C587 O579 1.260 . S
C587 O580 1.257 . S
Zn588 O591 2.031 . S
Zn588 O593 2.049 . S
Zn588 O598 2.067 . S
Zn589 O590 1.962 . S
Zn589 O592 1.986 . S
Zn589 O594 1.996 . S
Zn589 O597 1.943 . S
O590 Zn589 1.962 . S
O590 C595 1.254 . S
O591 Zn588 2.031 . S
O591 C595 1.269 . S
O592 Zn589 1.986 . S
O592 C599 1.262 . S
O593 Zn588 2.049 . S
O593 C601 1.260 . S
O594 Zn589 1.996 . S
O594 C601 1.257 . S
C595 O590 1.254 . S
C595 O591 1.269 . S
C596 O597 1.249 . S
C596 O598 1.270 . S
O597 Zn589 1.943 . S
O597 C596 1.249 . S
O598 Zn588 2.067 . S
O598 C596 1.270 . S
C599 O592 1.262 . S
C599 O600 1.232 . S
O600 C599 1.232 . S
C601 O593 1.260 . S
C601 O594 1.257 . S
Zn602 O605 2.031 . S
Zn602 O607 2.049 . S
Zn602 O612 2.067 . S
Zn603 O604 1.962 . S
Zn603 O606 1.986 . S
Zn603 O608 1.996 . S
Zn603 O611 1.943 . S
O604 Zn603 1.962 . S
O604 C609 1.254 . S
O605 Zn602 2.031 . S
O605 C609 1.269 . S
O606 Zn603 1.986 . S
O606 C613 1.262 . S
O607 Zn602 2.049 . S
O607 C615 1.260 . S
O608 Zn603 1.996 . S
O608 C615 1.257 . S
C609 O604 1.254 . S
C609 O605 1.269 . S
C610 O611 1.249 . S
C610 O612 1.270 . S
O611 Zn603 1.943 . S
O611 C610 1.249 . S
O612 Zn602 2.067 . S
O612 C610 1.270 . S
C613 O606 1.262 . S
C613 O614 1.232 . S
O614 C613 1.232 . S
C615 O607 1.260 . S
C615 O608 1.257 . S
Zn616 O619 2.031 . S
Zn616 O621 2.049 . S
Zn616 O626 2.067 . S
Zn617 O618 1.962 . S
Zn617 O620 1.986 . S
Zn617 O622 1.996 . S
Zn617 O625 1.943 . S
O618 Zn617 1.962 . S
O618 C623 1.254 . S
O619 Zn616 2.031 . S
O619 C623 1.269 . S
O620 Zn617 1.986 . S
O620 C627 1.262 . S
O621 Zn616 2.049 . S
O621 C629 1.260 . S
O622 Zn617 1.996 . S
O622 C629 1.257 . S
C623 O618 1.254 . S
C623 O619 1.269 . S
C624 O625 1.249 . S
C624 O626 1.270 . S
O625 Zn617 1.943 . S
O625 C624 1.249 . S
O626 Zn616 2.067 . S
O626 C624 1.270 . S
C627 O620 1.262 . S
C627 O628 1.232 . S
O628 C627 1.232 . S
C629 O621 1.260 . S
C629 O622 1.257 . S
Zn630 O633 2.031 . S
Zn630 O635 2.049 . S
Zn630 O640 2.067 . S
Zn631 O632 1.962 . S
Zn631 O634 1.986 . S
Zn631 O636 1.996 . S
Zn631 O639 1.943 . S
O632 Zn631 1.962 . S
O632 C637 1.254 . S
O633 Zn630 2.031 . S
O633 C637 1.269 . S
O634 Zn631 1.986 . S
O634 C641 1.262 . S
O635 Zn630 2.049 . S
O635 C643 1.260 . S
O636 Zn631 1.996 . S
O636 C643 1.257 . S
C637 O632 1.254 . S
C637 O633 1.269 . S
C638 O639 1.249 . S
C638 O640 1.270 . S
O639 Zn631 1.943 . S
O639 C638 1.249 . S
O640 Zn630 2.067 . S
O640 C638 1.270 . S
C641 O634 1.262 . S
C641 O642 1.232 . S
O642 C641 1.232 . S
C643 O635 1.260 . S
C643 O636 1.257 . S
Zn644 O647 2.031 . S
Zn644 O649 2.049 . S
Zn644 O654 2.067 . S
Zn645 O646 1.962 . S
Zn645 O648 1.986 . S
Zn645 O650 1.996 . S
Zn645 O653 1.943 . S
O646 Zn645 1.962 . S
O646 C651 1.254 . S
O647 Zn644 2.031 . S
O647 C651 1.269 . S
O648 Zn645 1.986 . S
O648 C655 1.262 . S
O649 Zn644 2.049 . S
O649 C657 1.260 . S
O650 Zn645 1.996 . S
O650 C657 1.257 . S
C651 O646 1.254 . S
C651 O647 1.269 . S
C652 O653 1.249 . S
C652 O654 1.270 . S
O653 Zn645 1.943 . S
O653 C652 1.249 . S
O654 Zn644 2.067 . S
O654 C652 1.270 . S
C655 O648 1.262 . S
C655 O656 1.232 . S
O656 C655 1.232 . S
C657 O649 1.260 . S
C657 O650 1.257 . S
Zn658 O661 2.031 . S
Zn658 O663 2.049 . S
Zn658 O668 2.067 . S
Zn659 O660 1.962 . S
Zn659 O662 1.986 . S
Zn659 O664 1.996 . S
Zn659 O667 1.943 . S
O660 Zn659 1.962 . S
O660 C665 1.254 . S
O661 Zn658 2.031 . S
O661 C665 1.269 . S
O662 Zn659 1.986 . S
O662 C669 1.262 . S
O663 Zn658 2.049 . S
O663 C671 1.260 . S
O664 Zn659 1.996 . S
O664 C671 1.257 . S
C665 O660 1.254 . S
C665 O661 1.269 . S
C666 O667 1.249 . S
C666 O668 1.270 . S
O667 Zn659 1.943 . S
O667 C666 1.249 . S
O668 Zn658 2.067 . S
O668 C666 1.270 . S
C669 O662 1.262 . S
C669 O670 1.232 . S
O670 C669 1.232 . S
C671 O663 1.260 . S
C671 O664 1.257 . S
C672 C673 1.387 . S
C672 H676 0.950 . S
C672 C681 1.390 . S
C673 C672 1.387 . S
C673 C675 1.387 . S
H674 C681 0.950 . S
C675 C673 1.387 . S
C675 C677 1.390 . S
C675 H679 0.950 . S
H676 C672 0.950 . S
C677 C675 1.390 . S
C677 C678 1.387 . S
C677 H680 0.950 . S
C678 C677 1.387 . S
C678 C681 1.387 . S
H679 C675 0.950 . S
H680 C677 0.950 . S
C681 C672 1.390 . S
C681 H674 0.950 . S
C681 C678 1.387 . S
C682 C683 1.387 1_655 S
C682 H686 0.950 1_655 S
C682 C691 1.390 . S
C683 C682 1.387 1_455 S
C683 C685 1.387 1_455 S
H684 C691 0.950 . S
C685 C683 1.387 1_655 S
C685 C687 1.390 . S
C685 H689 0.950 1_655 S
H686 C682 0.950 1_455 S
C687 C685 1.390 . S
C687 C688 1.387 . S
C687 H690 0.950 . S
C688 C687 1.387 . S
C688 C691 1.387 . S
H689 C685 0.950 1_455 S
H690 C687 0.950 . S
C691 C682 1.390 . S
C691 H684 0.950 . S
C691 C688 1.387 . S
C692 C693 1.387 . S
C692 H696 0.950 . S
C692 C701 1.390 . S
C693 C692 1.387 . S
C693 C695 1.387 . S
H694 C701 0.950 . S
C695 C693 1.387 . S
C695 C697 1.390 . S
C695 H699 0.950 . S
H696 C692 0.950 . S
C697 C695 1.390 . S
C697 C698 1.387 . S
C697 H700 0.950 . S
C698 C697 1.387 . S
C698 C701 1.387 . S
H699 C695 0.950 . S
H700 C697 0.950 . S
C701 C692 1.390 . S
C701 H694 0.950 . S
C701 C698 1.387 . S
C702 C703 1.387 . S
C702 H706 0.950 . S
C702 C711 1.390 . S
C703 C702 1.387 . S
C703 C705 1.387 . S
H704 C711 0.950 . S
C705 C703 1.387 . S
C705 C707 1.390 . S
C705 H709 0.950 . S
H706 C702 0.950 . S
C707 C705 1.390 . S
C707 C708 1.387 . S
C707 H710 0.950 . S
C708 C707 1.387 . S
C708 C711 1.387 . S
H709 C705 0.950 . S
H710 C707 0.950 . S
C711 C702 1.390 . S
C711 H704 0.950 . S
C711 C708 1.387 . S
C712 C713 1.387 . S
C712 H716 0.950 . S
C712 C721 1.390 . S
C713 C712 1.387 . S
C713 C715 1.387 . S
H714 C721 0.950 . S
C715 C713 1.387 . S
C715 C717 1.390 . S
C715 H719 0.950 . S
H716 C712 0.950 . S
C717 C715 1.390 . S
C717 C718 1.387 . S
C717 H720 0.950 . S
C718 C717 1.387 . S
C718 C721 1.387 . S
H719 C715 0.950 . S
H720 C717 0.950 . S
C721 C712 1.390 . S
C721 H714 0.950 . S
C721 C718 1.387 . S
C722 C723 1.387 . S
C722 H726 0.950 . S
C722 C731 1.390 . S
C723 C722 1.387 . S
C723 C725 1.387 . S
H724 C731 0.950 . S
C725 C723 1.387 . S
C725 C727 1.390 . S
C725 H729 0.950 . S
H726 C722 0.950 . S
C727 C725 1.390 . S
C727 C728 1.387 . S
C727 H730 0.950 . S
C728 C727 1.387 . S
C728 C731 1.387 . S
H729 C725 0.950 . S
H730 C727 0.950 . S
C731 C722 1.390 . S
C731 H724 0.950 . S
C731 C728 1.387 . S
C732 C733 1.387 . S
C732 H736 0.950 . S
C732 C741 1.390 . S
C733 C732 1.387 . S
C733 C735 1.387 . S
H734 C741 0.950 . S
C735 C733 1.387 . S
C735 C737 1.390 . S
C735 H739 0.950 . S
H736 C732 0.950 . S
C737 C735 1.390 . S
C737 C738 1.387 . S
C737 H740 0.950 . S
C738 C737 1.387 . S
C738 C741 1.387 . S
H739 C735 0.950 . S
H740 C737 0.950 . S
C741 C732 1.390 . S
C741 H734 0.950 . S
C741 C738 1.387 . S
C742 C743 1.387 1_655 S
C742 H746 0.950 1_655 S
C742 C751 1.390 . S
C743 C742 1.387 1_455 S
C743 C745 1.387 1_455 S
H744 C751 0.950 . S
C745 C743 1.387 1_655 S
C745 C747 1.390 . S
C745 H749 0.950 1_655 S
H746 C742 0.950 1_455 S
C747 C745 1.390 . S
C747 C748 1.387 . S
C747 H750 0.950 . S
C748 C747 1.387 . S
C748 C751 1.387 . S
H749 C745 0.950 1_455 S
H750 C747 0.950 . S
C751 C742 1.390 . S
C751 H744 0.950 . S
C751 C748 1.387 . S
C752 C753 1.387 . S
C752 H756 0.950 . S
C752 C761 1.390 . S
C753 C752 1.387 . S
C753 C755 1.387 . S
H754 C761 0.950 . S
C755 C753 1.387 . S
C755 C757 1.390 . S
C755 H759 0.950 . S
H756 C752 0.950 . S
C757 C755 1.390 . S
C757 C758 1.387 . S
C757 H760 0.950 . S
C758 C757 1.387 . S
C758 C761 1.387 . S
H759 C755 0.950 . S
H760 C757 0.950 . S
C761 C752 1.390 . S
C761 H754 0.950 . S
C761 C758 1.387 . S
C762 C763 1.387 . S
C762 H766 0.950 . S
C762 C771 1.390 . S
C763 C762 1.387 . S
C763 C765 1.387 . S
H764 C771 0.950 . S
C765 C763 1.387 . S
C765 C767 1.390 . S
C765 H769 0.950 . S
H766 C762 0.950 . S
C767 C765 1.390 . S
C767 C768 1.387 . S
C767 H770 0.950 . S
C768 C767 1.387 . S
C768 C771 1.387 . S
H769 C765 0.950 . S
H770 C767 0.950 . S
C771 C762 1.390 . S
C771 H764 0.950 . S
C771 C768 1.387 . S
C772 C773 1.387 . S
C772 H776 0.950 . S
C772 C781 1.390 . S
C773 C772 1.387 . S
C773 C775 1.387 . S
H774 C781 0.950 . S
C775 C773 1.387 . S
C775 C777 1.390 . S
C775 H779 0.950 . S
H776 C772 0.950 . S
C777 C775 1.390 . S
C777 C778 1.387 . S
C777 H780 0.950 . S
C778 C777 1.387 . S
C778 C781 1.387 . S
H779 C775 0.950 . S
H780 C777 0.950 . S
C781 C772 1.390 . S
C781 H774 0.950 . S
C781 C778 1.387 . S
C782 C783 1.390 . S
C782 H786 0.950 . S
C782 C791 1.390 . S
C783 C782 1.390 . S
C783 C785 1.390 . S
H784 C791 0.950 . S
C785 C783 1.390 . S
C785 C787 1.390 . S
C785 H789 0.950 . S
H786 C782 0.950 . S
C787 C785 1.390 . S
C787 C788 1.387 . S
C787 H790 0.950 . S
C788 C787 1.387 . S
C788 C791 1.387 . S
H789 C785 0.950 . S
H790 C787 0.950 . S
C791 C782 1.390 . S
C791 H784 0.950 . S
C791 C788 1.387 . S
C792 C793 1.387 . S
C792 H796 0.950 . S
C792 C801 1.390 . S
C793 C792 1.387 . S
C793 C795 1.387 . S
H794 C801 0.950 . S
C795 C793 1.387 . S
C795 C797 1.390 . S
C795 H799 0.950 . S
H796 C792 0.950 . S
C797 C795 1.390 . S
C797 C798 1.387 . S
C797 H800 0.950 . S
C798 C797 1.387 . S
C798 C801 1.387 . S
H799 C795 0.950 . S
H800 C797 0.950 . S
C801 C792 1.390 . S
C801 H794 0.950 . S
C801 C798 1.387 . S
C802 C803 1.387 . S
C802 H806 0.950 . S
C802 C811 1.390 . S
C803 C802 1.387 . S
C803 C805 1.387 . S
H804 C811 0.950 . S
C805 C803 1.387 . S
C805 C807 1.390 . S
C805 H809 0.950 . S
H806 C802 0.950 . S
C807 C805 1.390 . S
C807 C808 1.387 . S
C807 H810 0.950 . S
C808 C807 1.387 . S
C808 C811 1.387 . S
H809 C805 0.950 . S
H810 C807 0.950 . S
C811 C802 1.390 . S
C811 H804 0.950 . S
C811 C808 1.387 . S
C812 C813 1.387 . S
C812 H816 0.950 . S
C812 C821 1.390 . S
C813 C812 1.387 . S
C813 C815 1.387 . S
H814 C821 0.950 . S
C815 C813 1.387 . S
C815 C817 1.390 . S
C815 H819 0.950 . S
H816 C812 0.950 . S
C817 C815 1.390 . S
C817 C818 1.387 . S
C817 H820 0.950 . S
C818 C817 1.387 . S
C818 C821 1.387 . S
H819 C815 0.950 . S
H820 C817 0.950 . S
C821 C812 1.390 . S
C821 H814 0.950 . S
C821 C818 1.387 . S
C822 C823 1.387 1_556 S
C822 H826 0.950 . S
C822 C831 1.390 . S
C823 C822 1.387 1_554 S
C823 C825 1.387 . S
H824 C831 0.950 . S
C825 C823 1.387 . S
C825 C827 1.390 1_554 S
C825 H829 0.950 . S
H826 C822 0.950 . S
C827 C825 1.390 1_556 S
C827 C828 1.387 . S
C827 H830 0.950 . S
C828 C827 1.387 . S
C828 C831 1.387 . S
H829 C825 0.950 . S
H830 C827 0.950 . S
C831 C822 1.390 . S
C831 H824 0.950 . S
C831 C828 1.387 . S
C832 C833 1.387 . S
C832 H836 0.950 . S
C832 C841 1.390 . S
C833 C832 1.387 . S
C833 C835 1.387 . S
H834 C841 0.950 . S
C835 C833 1.387 . S
C835 C837 1.390 . S
C835 H839 0.950 . S
H836 C832 0.950 . S
C837 C835 1.390 . S
C837 C838 1.387 . S
C837 H840 0.950 . S
C838 C837 1.387 . S
C838 C841 1.387 . S
H839 C835 0.950 . S
H840 C837 0.950 . S
C841 C832 1.390 . S
C841 H834 0.950 . S
C841 C838 1.387 . S
C842 C843 1.387 . S
C842 H846 0.950 . S
C842 C851 1.390 . S
C843 C842 1.387 . S
C843 C845 1.387 . S
H844 C851 0.950 . S
C845 C843 1.387 . S
C845 C847 1.390 . S
C845 H849 0.950 . S
H846 C842 0.950 . S
C847 C845 1.390 . S
C847 C848 1.387 . S
C847 H850 0.950 . S
C848 C847 1.387 . S
C848 C851 1.387 . S
H849 C845 0.950 . S
H850 C847 0.950 . S
C851 C842 1.390 . S
C851 H844 0.950 . S
C851 C848 1.387 . S
C852 C853 1.387 . S
C852 H856 0.950 . S
C852 C861 1.390 . S
C853 C852 1.387 . S
C853 C855 1.387 . S
H854 C861 0.950 . S
C855 C853 1.387 . S
C855 C857 1.390 . S
C855 H859 0.950 . S
H856 C852 0.950 . S
C857 C855 1.390 . S
C857 C858 1.387 . S
C857 H860 0.950 . S
C858 C857 1.387 . S
C858 C861 1.387 . S
H859 C855 0.950 . S
H860 C857 0.950 . S
C861 C852 1.390 . S
C861 H854 0.950 . S
C861 C858 1.387 . S
C862 C863 1.387 . S
C862 H866 0.950 . S
C862 C871 1.390 . S
C863 C862 1.387 . S
C863 C865 1.387 . S
H864 C871 0.950 . S
C865 C863 1.387 . S
C865 C867 1.390 . S
C865 H869 0.950 . S
H866 C862 0.950 . S
C867 C865 1.390 . S
C867 C868 1.387 . S
C867 H870 0.950 . S
C868 C867 1.387 . S
C868 C871 1.387 . S
H869 C865 0.950 . S
H870 C867 0.950 . S
C871 C862 1.390 . S
C871 H864 0.950 . S
C871 C868 1.387 . S
C872 C873 1.387 . S
C872 H876 0.950 . S
C872 C881 1.390 . S
C873 C872 1.387 . S
C873 C875 1.387 . S
H874 C881 0.950 1_545 S
C875 C873 1.387 . S
C875 C877 1.390 1_565 S
C875 H879 0.950 . S
H876 C872 0.950 . S
C877 C875 1.390 1_545 S
C877 C878 1.387 . S
C877 H880 0.950 . S
C878 C877 1.387 . S
C878 C881 1.387 1_545 S
H879 C875 0.950 . S
H880 C877 0.950 . S
C881 C872 1.390 . S
C881 H874 0.950 1_565 S
C881 C878 1.387 1_565 S
C882 C883 1.387 . S
C882 H886 0.950 . S
C882 C891 1.390 . S
C883 C882 1.387 . S
C883 C885 1.387 . S
H884 C891 0.950 . S
C885 C883 1.387 . S
C885 C887 1.390 . S
C885 H889 0.950 . S
H886 C882 0.950 . S
C887 C885 1.390 . S
C887 C888 1.387 . S
C887 H890 0.950 . S
C888 C887 1.387 . S
C888 C891 1.387 . S
H889 C885 0.950 . S
H890 C887 0.950 . S
C891 C882 1.390 . S
C891 H884 0.950 . S
C891 C888 1.387 . S
C892 C893 1.387 . S
C892 H896 0.950 . S
C892 C901 1.390 . S
C893 C892 1.387 . S
C893 C895 1.387 . S
H894 C901 0.950 . S
C895 C893 1.387 . S
C895 C897 1.390 . S
C895 H899 0.950 . S
H896 C892 0.950 . S
C897 C895 1.390 . S
C897 C898 1.387 . S
C897 H900 0.950 . S
C898 C897 1.387 . S
C898 C901 1.387 . S
H899 C895 0.950 . S
H900 C897 0.950 . S
C901 C892 1.390 . S
C901 H894 0.950 . S
C901 C898 1.387 . S
C902 C903 1.387 . S
C902 H906 0.950 . S
C902 C911 1.390 . S
C903 C902 1.387 . S
C903 C905 1.387 . S
H904 C911 0.950 . S
C905 C903 1.387 . S
C905 C907 1.390 . S
C905 H909 0.950 . S
H906 C902 0.950 . S
C907 C905 1.390 . S
C907 C908 1.387 . S
C907 H910 0.950 . S
C908 C907 1.387 . S
C908 C911 1.387 . S
H909 C905 0.950 . S
H910 C907 0.950 . S
C911 C902 1.390 . S
C911 H904 0.950 . S
C911 C908 1.387 . S
C912 C913 1.387 . S
C912 H916 0.950 . S
C912 C921 1.390 . S
C913 C912 1.387 . S
C913 C915 1.387 . S
H914 C921 0.950 . S
C915 C913 1.387 . S
C915 C917 1.390 . S
C915 H919 0.950 . S
H916 C912 0.950 . S
C917 C915 1.390 . S
C917 C918 1.387 . S
C917 H920 0.950 . S
C918 C917 1.387 . S
C918 C921 1.387 . S
H919 C915 0.950 . S
H920 C917 0.950 . S
C921 C912 1.390 . S
C921 H914 0.950 . S
C921 C918 1.387 . S
C922 C923 1.387 1_455 S
C922 H926 0.950 1_455 S
C922 C931 1.390 . S
C923 C922 1.387 1_655 S
C923 C925 1.387 1_655 S
H924 C931 0.950 . S
C925 C923 1.387 1_455 S
C925 C927 1.390 . S
C925 H929 0.950 1_455 S
H926 C922 0.950 1_655 S
C927 C925 1.390 . S
C927 C928 1.387 . S
C927 H930 0.950 . S
C928 C927 1.387 . S
C928 C931 1.387 . S
H929 C925 0.950 1_655 S
H930 C927 0.950 . S
C931 C922 1.390 . S
C931 H924 0.950 . S
C931 C928 1.387 . S
C932 C933 1.387 . S
C932 H936 0.950 . S
C932 C941 1.390 . S
C933 C932 1.387 . S
C933 C935 1.387 . S
H934 C941 0.950 . S
C935 C933 1.387 . S
C935 C937 1.390 . S
C935 H939 0.950 . S
H936 C932 0.950 . S
C937 C935 1.390 . S
C937 C938 1.387 . S
C937 H940 0.950 . S
C938 C937 1.387 . S
C938 C941 1.387 . S
H939 C935 0.950 . S
H940 C937 0.950 . S
C941 C932 1.390 . S
C941 H934 0.950 . S
C941 C938 1.387 . S
C942 C943 1.387 . S
C942 H946 0.950 . S
C942 C951 1.390 . S
C943 C942 1.387 . S
C943 C945 1.387 . S
H944 C951 0.950 . S
C945 C943 1.387 . S
C945 C947 1.390 . S
C945 H949 0.950 . S
H946 C942 0.950 . S
C947 C945 1.390 . S
C947 C948 1.387 . S
C947 H950 0.950 . S
C948 C947 1.387 . S
C948 C951 1.387 . S
H949 C945 0.950 . S
H950 C947 0.950 . S
C951 C942 1.390 . S
C951 H944 0.950 . S
C951 C948 1.387 . S
C952 C953 1.387 . S
C952 H956 0.950 . S
C952 C961 1.390 . S
C953 C952 1.387 . S
C953 C955 1.387 . S
H954 C961 0.950 . S
C955 C953 1.387 . S
C955 C957 1.390 . S
C955 H959 0.950 . S
H956 C952 0.950 . S
C957 C955 1.390 . S
C957 C958 1.387 . S
C957 H960 0.950 . S
C958 C957 1.387 . S
C958 C961 1.387 . S
H959 C955 0.950 . S
H960 C957 0.950 . S
C961 C952 1.390 . S
C961 H954 0.950 . S
C961 C958 1.387 . S
C962 C963 1.387 . S
C962 H966 0.950 . S
C962 C971 1.390 . S
C963 C962 1.387 . S
C963 C965 1.387 . S
H964 C971 0.950 . S
C965 C963 1.387 . S
C965 C967 1.390 . S
C965 H969 0.950 . S
H966 C962 0.950 . S
C967 C965 1.390 . S
C967 C968 1.387 . S
C967 H970 0.950 . S
C968 C967 1.387 . S
C968 C971 1.387 . S
H969 C965 0.950 . S
H970 C967 0.950 . S
C971 C962 1.390 . S
C971 H964 0.950 . S
C971 C968 1.387 . S
C972 C973 1.387 . S
C972 H976 0.950 . S
C972 C981 1.390 . S
C973 C972 1.387 . S
C973 C975 1.387 . S
H974 C981 0.950 . S
C975 C973 1.387 . S
C975 C977 1.390 . S
C975 H979 0.950 . S
H976 C972 0.950 . S
C977 C975 1.390 . S
C977 C978 1.387 . S
C977 H980 0.950 . S
C978 C977 1.387 . S
C978 C981 1.387 . S
H979 C975 0.950 . S
H980 C977 0.950 . S
C981 C972 1.390 . S
C981 H974 0.950 . S
C981 C978 1.387 . S
C982 C983 1.387 . S
C982 H986 0.950 . S
C982 C991 1.390 . S
C983 C982 1.387 . S
C983 C985 1.387 . S
H984 C991 0.950 1_655 S
C985 C983 1.387 . S
C985 C987 1.390 . S
C985 H989 0.950 . S
H986 C982 0.950 . S
C987 C985 1.390 . S
C987 C988 1.387 1_455 S
C987 H990 0.950 1_455 S
C988 C987 1.387 1_655 S
C988 C991 1.388 1_655 S
H989 C985 0.950 . S
H990 C987 0.950 1_655 S
C991 C982 1.390 . S
C991 H984 0.950 1_455 S
C991 C988 1.388 1_455 S
C992 C993 1.387 . S
C992 H996 0.950 . S
C992 C1001 1.390 . S
C993 C992 1.387 . S
C993 C995 1.387 . S
H994 C1001 0.950 . S
C995 C993 1.387 . S
C995 C997 1.390 . S
C995 H999 0.950 . S
H996 C992 0.950 . S
C997 C995 1.390 . S
C997 C998 1.387 . S
C997 H1000 0.950 . S
C998 C997 1.387 . S
C998 C1001 1.387 . S
H999 C995 0.950 . S
H1000 C997 0.950 . S
C1001 C992 1.390 . S
C1001 H994 0.950 . S
C1001 C998 1.387 . S
C1002 C1003 1.387 . S
C1002 H1006 0.950 . S
C1002 C1011 1.390 . S
C1003 C1002 1.387 . S
C1003 C1005 1.387 . S
H1004 C1011 0.950 . S
C1005 C1003 1.387 . S
C1005 C1007 1.390 . S
C1005 H1009 0.950 . S
H1006 C1002 0.950 . S
C1007 C1005 1.390 . S
C1007 C1008 1.387 . S
C1007 H1010 0.950 . S
C1008 C1007 1.387 . S
C1008 C1011 1.387 . S
H1009 C1005 0.950 . S
H1010 C1007 0.950 . S
C1011 C1002 1.390 . S
C1011 H1004 0.950 . S
C1011 C1008 1.387 . S
C1012 C1013 1.387 . S
C1012 H1016 0.950 . S
C1012 C1021 1.390 . S
C1013 C1012 1.387 . S
C1013 C1015 1.387 . S
H1014 C1021 0.950 . S
C1015 C1013 1.387 . S
C1015 C1017 1.390 . S
C1015 H1019 0.950 . S
H1016 C1012 0.950 . S
C1017 C1015 1.390 . S
C1017 C1018 1.387 . S
C1017 H1020 0.950 . S
C1018 C1017 1.387 . S
C1018 C1021 1.387 . S
H1019 C1015 0.950 . S
H1020 C1017 0.950 . S
C1021 C1012 1.390 . S
C1021 H1014 0.950 . S
C1021 C1018 1.387 . S
C1022 C1023 1.387 . S
C1022 H1026 0.950 . S
C1022 C1031 1.390 . S
C1023 C1022 1.387 . S
C1023 C1025 1.387 . S
H1024 C1031 0.950 . S
C1025 C1023 1.387 . S
C1025 C1027 1.390 . S
C1025 H1029 0.950 . S
H1026 C1022 0.950 . S
C1027 C1025 1.390 . S
C1027 C1028 1.387 . S
C1027 H1030 0.950 1_556 S
C1028 C1027 1.387 . S
C1028 C1031 1.387 . S
H1029 C1025 0.950 . S
H1030 C1027 0.950 1_554 S
C1031 C1022 1.390 . S
C1031 H1024 0.950 . S
C1031 C1028 1.387 . S
C1032 C1033 1.387 . S
C1032 H1036 0.950 . S
C1032 C1041 1.390 . S
C1033 C1032 1.387 . S
C1033 C1035 1.387 . S
H1034 C1041 0.950 . S
C1035 C1033 1.387 . S
C1035 C1037 1.390 . S
C1035 H1039 0.950 . S
H1036 C1032 0.950 . S
C1037 C1035 1.390 . S
C1037 C1038 1.387 . S
C1037 H1040 0.950 . S
C1038 C1037 1.387 . S
C1038 C1041 1.387 . S
H1039 C1035 0.950 . S
H1040 C1037 0.950 . S
C1041 C1032 1.390 . S
C1041 H1034 0.950 . S
C1041 C1038 1.387 . S
C1042 C1043 1.387 . S
C1042 H1046 0.950 . S
C1042 C1051 1.390 . S
C1043 C1042 1.387 . S
C1043 C1045 1.387 . S
H1044 C1051 0.950 . S
C1045 C1043 1.387 . S
C1045 C1047 1.390 . S
C1045 H1049 0.950 . S
H1046 C1042 0.950 . S
C1047 C1045 1.390 . S
C1047 C1048 1.387 . S
C1047 H1050 0.950 . S
C1048 C1047 1.387 . S
C1048 C1051 1.387 . S
H1049 C1045 0.950 . S
H1050 C1047 0.950 . S
C1051 C1042 1.390 . S
C1051 H1044 0.950 . S
C1051 C1048 1.387 . S
C1052 C1053 1.387 . S
C1052 H1056 0.950 . S
C1052 C1061 1.390 . S
C1053 C1052 1.387 . S
C1053 C1055 1.387 . S
H1054 C1061 0.950 . S
C1055 C1053 1.387 . S
C1055 C1057 1.390 . S
C1055 H1059 0.950 . S
H1056 C1052 0.950 . S
C1057 C1055 1.390 . S
C1057 C1058 1.387 . S
C1057 H1060 0.950 . S
C1058 C1057 1.387 . S
C1058 C1061 1.387 . S
H1059 C1055 0.950 . S
H1060 C1057 0.950 . S
C1061 C1052 1.390 . S
C1061 H1054 0.950 . S
C1061 C1058 1.387 . S
C1062 C1063 1.399 . S
C1062 H1066 0.950 1_554 S
C1062 C1071 1.390 . S
C1063 C1062 1.399 . S
C1063 C1065 1.413 . S
H1064 C1071 0.950 . S
C1065 C1063 1.413 . S
C1065 C1067 1.390 . S
C1065 H1069 0.950 . S
H1066 C1062 0.950 1_556 S
C1067 C1065 1.390 . S
C1067 C1068 1.387 . S
C1067 H1070 0.950 . S
C1068 C1067 1.387 . S
C1068 C1071 1.387 . S
H1069 C1065 0.950 . S
H1070 C1067 0.950 . S
C1071 C1062 1.390 . S
C1071 H1064 0.950 . S
C1071 C1068 1.387 . S
C1072 C1073 1.387 . S
C1072 H1076 0.950 . S
C1072 C1081 1.390 . S
C1073 C1072 1.387 . S
C1073 C1075 1.387 . S
H1074 C1081 0.950 . S
C1075 C1073 1.387 . S
C1075 C1077 1.390 . S
C1075 H1079 0.950 . S
H1076 C1072 0.950 . S
C1077 C1075 1.390 . S
C1077 C1078 1.387 . S
C1077 H1080 0.950 . S
C1078 C1077 1.387 . S
C1078 C1081 1.387 . S
H1079 C1075 0.950 . S
H1080 C1077 0.950 . S
C1081 C1072 1.390 . S
C1081 H1074 0.950 . S
C1081 C1078 1.387 . S
C1082 C1083 1.387 . S
C1082 H1086 0.950 . S
C1082 C1091 1.390 . S
C1083 C1082 1.387 . S
C1083 C1085 1.387 . S
H1084 C1091 0.950 . S
C1085 C1083 1.387 . S
C1085 C1087 1.390 . S
C1085 H1089 0.950 . S
H1086 C1082 0.950 . S
C1087 C1085 1.390 . S
C1087 C1088 1.387 . S
C1087 H1090 0.950 . S
C1088 C1087 1.387 . S
C1088 C1091 1.387 . S
H1089 C1085 0.950 . S
H1090 C1087 0.950 . S
C1091 C1082 1.390 . S
C1091 H1084 0.950 . S
C1091 C1088 1.387 . S
C1092 C1093 1.387 . S
C1092 H1096 0.950 . S
C1092 C1101 1.390 . S
C1093 C1092 1.387 . S
C1093 C1095 1.387 . S
H1094 C1101 0.950 . S
C1095 C1093 1.387 . S
C1095 C1097 1.390 . S
C1095 H1099 0.950 . S
H1096 C1092 0.950 . S
C1097 C1095 1.390 . S
C1097 C1098 1.387 . S
C1097 H1100 0.950 . S
C1098 C1097 1.387 . S
C1098 C1101 1.387 . S
H1099 C1095 0.950 . S
H1100 C1097 0.950 . S
C1101 C1092 1.390 . S
C1101 H1094 0.950 . S
C1101 C1098 1.387 . S
C1102 C1103 1.387 . S
C1102 H1106 0.950 . S
C1102 C1111 1.390 . S
C1103 C1102 1.387 . S
C1103 C1105 1.387 . S
H1104 C1111 0.950 . S
C1105 C1103 1.387 . S
C1105 C1107 1.390 . S
C1105 H1109 0.950 . S
H1106 C1102 0.950 . S
C1107 C1105 1.390 . S
C1107 C1108 1.387 . S
C1107 H1110 0.950 . S
C1108 C1107 1.387 . S
C1108 C1111 1.387 . S
H1109 C1105 0.950 . S
H1110 C1107 0.950 . S
C1111 C1102 1.390 . S
C1111 H1104 0.950 . S
C1111 C1108 1.387 . S
C1112 C1113 1.387 . S
C1112 H1116 0.950 . S
C1112 C1121 1.390 1_565 S
C1113 C1112 1.387 . S
C1113 C1115 1.387 . S
H1114 C1121 0.950 . S
C1115 C1113 1.387 . S
C1115 C1117 1.390 1_565 S
C1115 H1119 0.950 . S
H1116 C1112 0.950 . S
C1117 C1115 1.390 1_545 S
C1117 C1118 1.387 . S
C1117 H1120 0.950 . S
C1118 C1117 1.387 . S
C1118 C1121 1.387 . S
H1119 C1115 0.950 . S
H1120 C1117 0.950 . S
C1121 C1112 1.390 1_545 S
C1121 H1114 0.950 . S
C1121 C1118 1.387 . S
C1122 C1123 1.387 . S
C1122 H1126 0.950 . S
C1122 C1131 1.390 . S
C1123 C1122 1.387 . S
C1123 C1125 1.387 . S
H1124 C1131 0.950 . S
C1125 C1123 1.387 . S
C1125 C1127 1.390 . S
C1125 H1129 0.950 . S
H1126 C1122 0.950 . S
C1127 C1125 1.390 . S
C1127 C1128 1.387 . S
C1127 H1130 0.950 . S
C1128 C1127 1.387 . S
C1128 C1131 1.387 . S
H1129 C1125 0.950 . S
H1130 C1127 0.950 . S
C1131 C1122 1.390 . S
C1131 H1124 0.950 . S
C1131 C1128 1.387 . S
C1132 C1133 1.387 . S
C1132 H1136 0.950 . S
C1132 C1141 1.390 . S
C1133 C1132 1.387 . S
C1133 C1135 1.387 . S
H1134 C1141 0.950 . S
C1135 C1133 1.387 . S
C1135 C1137 1.390 . S
C1135 H1139 0.950 . S
H1136 C1132 0.950 . S
C1137 C1135 1.390 . S
C1137 C1138 1.387 . S
C1137 H1140 0.950 . S
C1138 C1137 1.387 . S
C1138 C1141 1.387 . S
H1139 C1135 0.950 . S
H1140 C1137 0.950 . S
C1141 C1132 1.390 . S
C1141 H1134 0.950 . S
C1141 C1138 1.387 . S
C1142 C1143 1.387 . S
C1142 H1146 0.950 . S
C1142 C1151 1.390 . S
C1143 C1142 1.387 . S
C1143 C1145 1.387 . S
H1144 C1151 0.950 . S
C1145 C1143 1.387 . S
C1145 C1147 1.390 . S
C1145 H1149 0.950 . S
H1146 C1142 0.950 . S
C1147 C1145 1.390 . S
C1147 C1148 1.387 . S
C1147 H1150 0.950 . S
C1148 C1147 1.387 . S
C1148 C1151 1.387 . S
H1149 C1145 0.950 . S
H1150 C1147 0.950 . S
C1151 C1142 1.390 . S
C1151 H1144 0.950 . S
C1151 C1148 1.387 . S
C1152 C1153 1.387 . S
C1152 H1156 0.950 . S
C1152 C1161 1.390 . S
C1153 C1152 1.387 . S
C1153 C1155 1.387 . S
H1154 C1161 0.950 . S
C1155 C1153 1.387 . S
C1155 C1157 1.390 . S
C1155 H1159 0.950 . S
H1156 C1152 0.950 . S
C1157 C1155 1.390 . S
C1157 C1158 1.387 . S
C1157 H1160 0.950 . S
C1158 C1157 1.387 . S
C1158 C1161 1.387 . S
H1159 C1155 0.950 . S
H1160 C1157 0.950 . S
C1161 C1152 1.390 . S
C1161 H1154 0.950 . S
C1161 C1158 1.387 . S
C1162 C1163 1.387 . S
C1162 H1166 0.950 . S
C1162 C1171 1.390 . S
C1163 C1162 1.387 . S
C1163 C1165 1.387 . S
H1164 C1171 0.950 . S
C1165 C1163 1.387 . S
C1165 C1167 1.390 . S
C1165 H1169 0.950 . S
H1166 C1162 0.950 . S
C1167 C1165 1.390 . S
C1167 C1168 1.387 . S
C1167 H1170 0.950 . S
C1168 C1167 1.387 . S
C1168 C1171 1.387 . S
H1169 C1165 0.950 . S
H1170 C1167 0.950 . S
C1171 C1162 1.390 . S
C1171 H1164 0.950 . S
C1171 C1168 1.387 . S
C1172 C1173 1.387 . S
C1172 H1176 0.950 . S
C1172 C1181 1.390 . S
C1173 C1172 1.387 . S
C1173 C1175 1.387 . S
H1174 C1181 0.950 . S
C1175 C1173 1.387 . S
C1175 C1177 1.390 . S
C1175 H1179 0.950 . S
H1176 C1172 0.950 . S
C1177 C1175 1.390 . S
C1177 C1178 1.387 . S
C1177 H1180 0.950 . S
C1178 C1177 1.387 . S
C1178 C1181 1.387 . S
H1179 C1175 0.950 . S
H1180 C1177 0.950 . S
C1181 C1172 1.390 . S
C1181 H1174 0.950 . S
C1181 C1178 1.387 . S
C1182 C1183 1.387 1_455 S
C1182 H1186 0.950 1_455 S
C1182 C1191 1.390 . S
C1183 C1182 1.387 1_655 S
C1183 C1185 1.387 1_655 S
H1184 C1191 0.950 . S
C1185 C1183 1.387 1_455 S
C1185 C1187 1.390 . S
C1185 H1189 0.950 . S
H1186 C1182 0.950 1_655 S
C1187 C1185 1.390 . S
C1187 C1188 1.387 . S
C1187 H1190 0.950 . S
C1188 C1187 1.387 . S
C1188 C1191 1.387 . S
H1189 C1185 0.950 . S
H1190 C1187 0.950 . S
C1191 C1182 1.390 . S
C1191 H1184 0.950 . S
C1191 C1188 1.387 . S
C1192 C1193 1.387 . S
C1192 H1196 0.950 . S
C1192 C1201 1.390 . S
C1193 C1192 1.387 . S
C1193 C1195 1.387 . S
H1194 C1201 0.950 . S
C1195 C1193 1.387 . S
C1195 C1197 1.390 . S
C1195 H1199 0.950 . S
H1196 C1192 0.950 . S
C1197 C1195 1.390 . S
C1197 C1198 1.387 . S
C1197 H1200 0.950 . S
C1198 C1197 1.387 . S
C1198 C1201 1.387 . S
H1199 C1195 0.950 . S
H1200 C1197 0.950 . S
C1201 C1192 1.390 . S
C1201 H1194 0.950 . S
C1201 C1198 1.387 . S
C1202 C1203 1.387 . S
C1202 H1206 0.950 . S
C1202 C1211 1.390 . S
C1203 C1202 1.387 . S
C1203 C1205 1.387 . S
H1204 C1211 0.950 1_655 S
C1205 C1203 1.387 . S
C1205 C1207 1.398 . S
C1205 H1209 0.950 . S
H1206 C1202 0.950 . S
C1207 C1205 1.398 . S
C1207 C1208 1.383 1_455 S
C1207 H1210 0.946 1_455 S
C1208 C1207 1.383 1_655 S
C1208 C1211 1.387 1_655 S
H1209 C1205 0.950 . S
H1210 C1207 0.946 1_655 S
C1211 C1202 1.390 . S
C1211 H1204 0.950 1_455 S
C1211 C1208 1.387 1_455 S
C1212 C1213 1.387 . S
C1212 H1216 0.950 . S
C1212 C1221 1.390 . S
C1213 C1212 1.387 . S
C1213 C1215 1.387 . S
H1214 C1221 0.950 . S
C1215 C1213 1.387 . S
C1215 C1217 1.390 . S
C1215 H1219 0.950 . S
H1216 C1212 0.950 . S
C1217 C1215 1.390 . S
C1217 C1218 1.387 . S
C1217 H1220 0.950 . S
C1218 C1217 1.387 . S
C1218 C1221 1.387 . S
H1219 C1215 0.950 . S
H1220 C1217 0.950 . S
C1221 C1212 1.390 . S
C1221 H1214 0.950 . S
C1221 C1218 1.387 . S
C1222 C1223 1.387 . S
C1222 H1226 0.950 . S
C1222 C1231 1.390 . S
C1223 C1222 1.387 . S
C1223 C1225 1.387 . S
H1224 C1231 0.950 . S
C1225 C1223 1.387 . S
C1225 C1227 1.390 . S
C1225 H1229 0.950 . S
H1226 C1222 0.950 . S
C1227 C1225 1.390 . S
C1227 C1228 1.387 . S
C1227 H1230 0.950 . S
C1228 C1227 1.387 . S
C1228 C1231 1.387 . S
H1229 C1225 0.950 . S
H1230 C1227 0.950 . S
C1231 C1222 1.390 . S
C1231 H1224 0.950 . S
C1231 C1228 1.387 . S
C1232 C1233 1.387 . S
C1232 H1236 0.950 . S
C1232 C1241 1.390 . S
C1233 C1232 1.387 . S
C1233 C1235 1.387 . S
H1234 C1241 0.950 . S
C1235 C1233 1.387 . S
C1235 C1237 1.390 . S
C1235 H1239 0.950 . S
H1236 C1232 0.950 . S
C1237 C1235 1.390 . S
C1237 C1238 1.387 . S
C1237 H1240 0.950 . S
C1238 C1237 1.387 . S
C1238 C1241 1.387 . S
H1239 C1235 0.950 . S
H1240 C1237 0.950 . S
C1241 C1232 1.390 . S
C1241 H1234 0.950 . S
C1241 C1238 1.387 . S
C1242 C1243 1.387 . S
C1242 H1246 0.950 . S
C1242 C1251 1.390 . S
C1243 C1242 1.387 . S
C1243 C1245 1.387 . S
H1244 C1251 0.950 1_556 S
C1245 C1243 1.387 . S
C1245 C1247 1.390 . S
C1245 H1249 0.950 . S
H1246 C1242 0.950 . S
C1247 C1245 1.390 . S
C1247 C1248 1.387 1_554 S
C1247 H1250 0.950 . S
C1248 C1247 1.387 1_556 S
C1248 C1251 1.387 1_556 S
H1249 C1245 0.950 . S
H1250 C1247 0.950 . S
C1251 C1242 1.390 . S
C1251 H1244 0.950 1_554 S
C1251 C1248 1.387 1_554 S
C1252 C1253 1.387 . S
C1252 H1256 0.950 . S
C1252 C1261 1.390 . S
C1253 C1252 1.387 . S
C1253 C1255 1.387 . S
H1254 C1261 0.950 . S
C1255 C1253 1.387 . S
C1255 C1257 1.390 . S
C1255 H1259 0.950 . S
H1256 C1252 0.950 . S
C1257 C1255 1.390 . S
C1257 C1258 1.387 . S
C1257 H1260 0.950 . S
C1258 C1257 1.387 . S
C1258 C1261 1.387 . S
H1259 C1255 0.950 . S
H1260 C1257 0.950 . S
C1261 C1252 1.390 . S
C1261 H1254 0.950 . S
C1261 C1258 1.387 . S
C1262 C1263 1.387 . S
C1262 H1266 0.950 . S
C1262 C1271 1.390 . S
C1263 C1262 1.387 . S
C1263 C1265 1.387 . S
H1264 C1271 0.950 . S
C1265 C1263 1.387 . S
C1265 C1267 1.390 . S
C1265 H1269 0.950 . S
H1266 C1262 0.950 . S
C1267 C1265 1.390 . S
C1267 C1268 1.387 . S
C1267 H1270 0.950 . S
C1268 C1267 1.387 . S
C1268 C1271 1.387 . S
H1269 C1265 0.950 . S
H1270 C1267 0.950 . S
C1271 C1262 1.390 . S
C1271 H1264 0.950 . S
C1271 C1268 1.387 . S
C1272 C1273 1.387 . S
C1272 H1276 0.950 . S
C1272 C1281 1.390 . S
C1273 C1272 1.387 . S
C1273 C1275 1.387 . S
H1274 C1281 0.950 . S
C1275 C1273 1.387 . S
C1275 C1277 1.390 . S
C1275 H1279 0.950 . S
H1276 C1272 0.950 . S
C1277 C1275 1.390 . S
C1277 C1278 1.387 . S
C1277 H1280 0.950 . S
C1278 C1277 1.387 . S
C1278 C1281 1.387 . S
H1279 C1275 0.950 . S
H1280 C1277 0.950 . S
C1281 C1272 1.390 . S
C1281 H1274 0.950 . S
C1281 C1278 1.387 . S
C1282 C1283 1.387 . S
C1282 H1286 0.950 . S
C1282 C1291 1.390 . S
C1283 C1282 1.387 . S
C1283 C1285 1.387 . S
H1284 C1291 0.950 1_554 S
C1285 C1283 1.387 . S
C1285 C1287 1.390 . S
C1285 H1289 0.950 . S
H1286 C1282 0.950 . S
C1287 C1285 1.390 . S
C1287 C1288 1.387 1_556 S
C1287 H1290 0.950 1_556 S
C1288 C1287 1.387 1_554 S
C1288 C1291 1.387 1_554 S
H1289 C1285 0.950 . S
H1290 C1287 0.950 1_554 S
C1291 C1282 1.390 . S
C1291 H1284 0.950 1_556 S
C1291 C1288 1.387 1_556 S
C1292 C1293 1.387 . S
C1292 H1296 0.950 . S
C1292 C1301 1.390 . S
C1293 C1292 1.387 . S
C1293 C1295 1.387 . S
H1294 C1301 0.950 . S
C1295 C1293 1.387 . S
C1295 C1297 1.390 . S
C1295 H1299 0.950 . S
H1296 C1292 0.950 . S
C1297 C1295 1.390 . S
C1297 C1298 1.387 . S
C1297 H1300 0.950 . S
C1298 C1297 1.387 . S
C1298 C1301 1.387 . S
H1299 C1295 0.950 . S
H1300 C1297 0.950 . S
C1301 C1292 1.390 . S
C1301 H1294 0.950 . S
C1301 C1298 1.387 . S
C1302 C1303 1.387 . S
C1302 H1306 0.950 . S
C1302 C1311 1.390 . S
C1303 C1302 1.387 . S
C1303 C1305 1.387 . S
H1304 C1311 0.950 . S
C1305 C1303 1.387 . S
C1305 C1307 1.390 . S
C1305 H1309 0.950 . S
H1306 C1302 0.950 . S
C1307 C1305 1.390 . S
C1307 C1308 1.387 . S
C1307 H1310 0.950 . S
C1308 C1307 1.387 . S
C1308 C1311 1.387 . S
H1309 C1305 0.950 . S
H1310 C1307 0.950 . S
C1311 C1302 1.390 . S
C1311 H1304 0.950 . S
C1311 C1308 1.387 . S
C1312 C1313 1.387 . S
C1312 H1316 0.950 . S
C1312 C1321 1.390 . S
C1313 C1312 1.387 . S
C1313 C1315 1.387 . S
H1314 C1321 0.950 . S
C1315 C1313 1.387 . S
C1315 C1317 1.390 . S
C1315 H1319 0.950 . S
H1316 C1312 0.950 . S
C1317 C1315 1.390 . S
C1317 C1318 1.387 . S
C1317 H1320 0.950 . S
C1318 C1317 1.387 . S
C1318 C1321 1.387 . S
H1319 C1315 0.950 . S
H1320 C1317 0.950 . S
C1321 C1312 1.390 . S
C1321 H1314 0.950 . S
C1321 C1318 1.387 . S
C1322 C1323 1.387 . S
C1322 H1326 0.950 . S
C1322 C1331 1.390 . S
C1323 C1322 1.387 . S
C1323 C1325 1.387 . S
H1324 C1331 0.950 . S
C1325 C1323 1.387 . S
C1325 C1327 1.390 . S
C1325 H1329 0.950 . S
H1326 C1322 0.950 . S
C1327 C1325 1.390 . S
C1327 C1328 1.387 . S
C1327 H1330 0.950 . S
C1328 C1327 1.387 . S
C1328 C1331 1.387 . S
H1329 C1325 0.950 . S
H1330 C1327 0.950 . S
C1331 C1322 1.390 . S
C1331 H1324 0.950 . S
C1331 C1328 1.387 . S
C1332 C1333 1.387 . S
C1332 H1336 0.950 . S
C1332 C1341 1.414 . S
C1333 C1332 1.387 . S
C1333 C1335 1.387 . S
H1334 C1341 0.941 1_565 S
C1335 C1333 1.387 . S
C1335 C1337 1.390 1_545 S
C1335 H1339 0.950 . S
H1336 C1332 0.950 . S
C1337 C1335 1.390 1_565 S
C1337 C1338 1.387 . S
C1337 H1340 0.950 . S
C1338 C1337 1.387 . S
C1338 C1341 1.373 1_565 S
H1339 C1335 0.950 . S
H1340 C1337 0.950 . S
C1341 C1332 1.414 . S
C1341 H1334 0.941 1_545 S
C1341 C1338 1.373 1_545 S
C1342 C1343 1.387 . S
C1342 H1346 0.950 . S
C1342 C1351 1.390 . S
C1343 C1342 1.387 . S
C1343 C1345 1.387 . S
H1344 C1351 0.950 . S
C1345 C1343 1.387 . S
C1345 C1347 1.390 . S
C1345 H1349 0.950 . S
H1346 C1342 0.950 . S
C1347 C1345 1.390 . S
C1347 C1348 1.387 . S
C1347 H1350 0.950 . S
C1348 C1347 1.387 . S
C1348 C1351 1.387 . S
H1349 C1345 0.950 . S
H1350 C1347 0.950 . S
C1351 C1342 1.390 . S
C1351 H1344 0.950 . S
C1351 C1348 1.387 . S
C1352 C1353 1.387 . S
C1352 H1356 0.950 . S
C1352 C1361 1.390 . S
C1353 C1352 1.387 . S
C1353 C1355 1.387 . S
H1354 C1361 0.950 . S
C1355 C1353 1.387 . S
C1355 C1357 1.390 . S
C1355 H1359 0.950 . S
H1356 C1352 0.950 . S
C1357 C1355 1.390 . S
C1357 C1358 1.387 . S
C1357 H1360 0.950 . S
C1358 C1357 1.387 . S
C1358 C1361 1.387 . S
H1359 C1355 0.950 . S
H1360 C1357 0.950 . S
C1361 C1352 1.390 . S
C1361 H1354 0.950 . S
C1361 C1358 1.387 . S
C1362 C1363 1.387 . S
C1362 H1366 0.950 . S
C1362 C1371 1.390 . S
C1363 C1362 1.387 . S
C1363 C1365 1.387 . S
H1364 C1371 0.950 . S
C1365 C1363 1.387 . S
C1365 C1367 1.390 . S
C1365 H1369 0.950 . S
H1366 C1362 0.950 . S
C1367 C1365 1.390 . S
C1367 C1368 1.387 . S
C1367 H1370 0.950 . S
C1368 C1367 1.387 . S
C1368 C1371 1.387 . S
H1369 C1365 0.950 . S
H1370 C1367 0.950 . S
C1371 C1362 1.390 . S
C1371 H1364 0.950 . S
C1371 C1368 1.387 . S
C1372 C1373 1.387 1_565 S
C1372 H1376 0.950 1_565 S
C1372 C1381 1.390 . S
C1373 C1372 1.387 1_545 S
C1373 C1375 1.387 1_545 S
H1374 C1381 0.950 . S
C1375 C1373 1.387 1_565 S
C1375 C1377 1.390 . S
C1375 H1379 0.957 . S
H1376 C1372 0.950 1_545 S
C1377 C1375 1.390 . S
C1377 C1378 1.387 . S
C1377 H1380 0.950 . S
C1378 C1377 1.387 . S
C1378 C1381 1.387 . S
H1379 C1375 0.957 . S
H1380 C1377 0.950 . S
C1381 C1372 1.390 . S
C1381 H1374 0.950 . S
C1381 C1378 1.387 . S
C1382 C1383 1.387 . S
C1382 H1386 0.950 . S
C1382 C1391 1.390 . S
C1383 C1382 1.387 . S
C1383 C1385 1.387 . S
H1384 C1391 0.937 1_565 S
C1385 C1383 1.387 . S
C1385 C1387 1.390 . S
C1385 H1389 0.950 . S
H1386 C1382 0.950 . S
C1387 C1385 1.390 . S
C1387 C1388 1.387 1_545 S
C1387 H1390 0.950 . S
C1388 C1387 1.387 1_565 S
C1388 C1391 1.387 1_565 S
H1389 C1385 0.950 . S
H1390 C1387 0.950 . S
C1391 C1382 1.390 . S
C1391 H1384 0.937 1_545 S
C1391 C1388 1.387 1_545 S
C1392 C1393 1.387 . S
C1392 H1396 0.950 . S
C1392 C1401 1.390 . S
C1393 C1392 1.387 . S
C1393 C1395 1.387 . S
H1394 C1401 0.950 . S
C1395 C1393 1.387 . S
C1395 C1397 1.390 . S
C1395 H1399 0.950 . S
H1396 C1392 0.950 . S
C1397 C1395 1.390 . S
C1397 C1398 1.387 . S
C1397 H1400 0.950 . S
C1398 C1397 1.387 . S
C1398 C1401 1.387 . S
H1399 C1395 0.950 . S
H1400 C1397 0.950 . S
C1401 C1392 1.390 . S
C1401 H1394 0.950 . S
C1401 C1398 1.387 . S
C1402 C1403 1.387 . S
C1402 H1406 0.950 . S
C1402 C1411 1.390 . S
C1403 C1402 1.387 . S
C1403 C1405 1.387 . S
H1404 C1411 0.950 . S
C1405 C1403 1.387 . S
C1405 C1407 1.390 . S
C1405 H1409 0.950 . S
H1406 C1402 0.950 . S
C1407 C1405 1.390 . S
C1407 C1408 1.387 . S
C1407 H1410 0.950 . S
C1408 C1407 1.387 . S
C1408 C1411 1.387 . S
H1409 C1405 0.950 . S
H1410 C1407 0.950 . S
C1411 C1402 1.390 . S
C1411 H1404 0.950 . S
C1411 C1408 1.387 . S
C1412 C1413 1.387 . S
C1412 H1416 0.950 . S
C1412 C1421 1.390 . S
C1413 C1412 1.387 . S
C1413 C1415 1.387 . S
H1414 C1421 0.950 . S
C1415 C1413 1.387 . S
C1415 C1417 1.390 . S
C1415 H1419 0.950 . S
H1416 C1412 0.950 . S
C1417 C1415 1.390 . S
C1417 C1418 1.387 . S
C1417 H1420 0.950 . S
C1418 C1417 1.387 . S
C1418 C1421 1.387 . S
H1419 C1415 0.950 . S
H1420 C1417 0.950 . S
C1421 C1412 1.390 . S
C1421 H1414 0.950 . S
C1421 C1418 1.387 . S
C1422 C1423 1.387 1_655 S
C1422 H1426 0.950 1_655 S
C1422 C1431 1.390 . S
C1423 C1422 1.387 1_455 S
C1423 C1425 1.387 1_455 S
H1424 C1431 0.950 . S
C1425 C1423 1.387 1_655 S
C1425 C1427 1.390 . S
C1425 H1429 0.950 1_655 S
H1426 C1422 0.950 1_455 S
C1427 C1425 1.390 . S
C1427 C1428 1.387 . S
C1427 H1430 0.950 . S
C1428 C1427 1.387 . S
C1428 C1431 1.387 . S
H1429 C1425 0.950 1_455 S
H1430 C1427 0.950 . S
C1431 C1422 1.390 . S
C1431 H1424 0.950 . S
C1431 C1428 1.387 . S
C1432 C1433 1.387 . S
C1432 H1436 0.950 . S
C1432 C1441 1.390 . S
C1433 C1432 1.387 . S
C1433 C1435 1.387 . S
H1434 C1441 0.950 . S
C1435 C1433 1.387 . S
C1435 C1437 1.390 . S
C1435 H1439 0.950 . S
H1436 C1432 0.950 . S
C1437 C1435 1.390 . S
C1437 C1438 1.387 . S
C1437 H1440 0.950 . S
C1438 C1437 1.387 . S
C1438 C1441 1.387 . S
H1439 C1435 0.950 . S
H1440 C1437 0.950 . S
C1441 C1432 1.390 . S
C1441 H1434 0.950 . S
C1441 C1438 1.387 . S
C1442 C1443 1.387 1_655 S
C1442 H1446 0.950 1_655 S
C1442 C1451 1.390 . S
C1443 C1442 1.387 1_455 S
C1443 C1445 1.387 1_455 S
H1444 C1451 0.950 . S
C1445 C1443 1.387 1_655 S
C1445 C1447 1.390 . S
C1445 H1449 0.950 1_655 S
H1446 C1442 0.950 1_455 S
C1447 C1445 1.390 . S
C1447 C1448 1.387 . S
C1447 H1450 0.950 . S
C1448 C1447 1.387 . S
C1448 C1451 1.387 . S
H1449 C1445 0.950 1_455 S
H1450 C1447 0.950 . S
C1451 C1442 1.390 . S
C1451 H1444 0.950 . S
C1451 C1448 1.387 . S
C1452 C1453 1.387 . S
C1452 H1456 0.950 . S
C1452 C1461 1.390 . S
C1453 C1452 1.387 . S
C1453 C1455 1.387 . S
H1454 C1461 0.950 . S
C1455 C1453 1.387 . S
C1455 C1457 1.390 . S
C1455 H1459 0.950 . S
H1456 C1452 0.950 . S
C1457 C1455 1.390 . S
C1457 C1458 1.387 . S
C1457 H1460 0.950 . S
C1458 C1457 1.387 . S
C1458 C1461 1.387 . S
H1459 C1455 0.950 . S
H1460 C1457 0.950 . S
C1461 C1452 1.390 . S
C1461 H1454 0.950 . S
C1461 C1458 1.387 . S
C1462 C1463 1.387 . S
C1462 H1466 0.950 . S
C1462 C1471 1.390 . S
C1463 C1462 1.387 . S
C1463 C1465 1.387 . S
H1464 C1471 0.950 . S
C1465 C1463 1.387 . S
C1465 C1467 1.390 . S
C1465 H1469 0.950 . S
H1466 C1462 0.950 . S
C1467 C1465 1.390 . S
C1467 C1468 1.387 . S
C1467 H1470 0.950 . S
C1468 C1467 1.387 . S
C1468 C1471 1.387 . S
H1469 C1465 0.950 . S
H1470 C1467 0.950 . S
C1471 C1462 1.390 . S
C1471 H1464 0.950 . S
C1471 C1468 1.387 . S
C1472 C1473 1.387 . S
C1472 H1476 0.950 . S
C1472 C1481 1.390 . S
C1473 C1472 1.387 . S
C1473 C1475 1.387 . S
H1474 C1481 0.950 . S
C1475 C1473 1.387 . S
C1475 C1477 1.390 . S
C1475 H1479 0.950 . S
H1476 C1472 0.950 . S
C1477 C1475 1.390 . S
C1477 C1478 1.387 . S
C1477 H1480 0.950 . S
C1478 C1477 1.387 . S
C1478 C1481 1.387 . S
H1479 C1475 0.950 . S
H1480 C1477 0.950 . S
C1481 C1472 1.390 . S
C1481 H1474 0.950 . S
C1481 C1478 1.387 . S
C1482 C1483 1.387 . S
C1482 H1486 0.950 . S
C1482 C1491 1.390 . S
C1483 C1482 1.387 . S
C1483 C1485 1.387 . S
H1484 C1491 0.950 . S
C1485 C1483 1.387 . S
C1485 C1487 1.390 . S
C1485 H1489 0.950 . S
H1486 C1482 0.950 . S
C1487 C1485 1.390 . S
C1487 C1488 1.387 . S
C1487 H1490 0.950 1_556 S
C1488 C1487 1.387 . S
C1488 C1491 1.387 . S
H1489 C1485 0.950 . S
H1490 C1487 0.950 1_554 S
C1491 C1482 1.390 . S
C1491 H1484 0.950 . S
C1491 C1488 1.387 . S
C1492 C1493 1.387 . S
C1492 H1496 0.950 . S
C1492 C1501 1.390 . S
C1493 C1492 1.387 . S
C1493 C1495 1.387 . S
H1494 C1501 0.950 . S
C1495 C1493 1.387 . S
C1495 C1497 1.390 . S
C1495 H1499 0.950 . S
H1496 C1492 0.950 . S
C1497 C1495 1.390 . S
C1497 C1498 1.387 . S
C1497 H1500 0.950 . S
C1498 C1497 1.387 . S
C1498 C1501 1.387 . S
H1499 C1495 0.950 . S
H1500 C1497 0.950 . S
C1501 C1492 1.390 . S
C1501 H1494 0.950 . S
C1501 C1498 1.387 . S
C1502 C1503 1.387 . S
C1502 H1506 0.950 . S
C1502 C1511 1.390 . S
C1503 C1502 1.387 . S
C1503 C1505 1.387 . S
H1504 C1511 0.950 . S
C1505 C1503 1.387 . S
C1505 C1507 1.390 . S
C1505 H1509 0.950 . S
H1506 C1502 0.950 . S
C1507 C1505 1.390 . S
C1507 C1508 1.387 . S
C1507 H1510 0.950 . S
C1508 C1507 1.387 . S
C1508 C1511 1.387 . S
H1509 C1505 0.950 . S
H1510 C1507 0.950 . S
C1511 C1502 1.390 . S
C1511 H1504 0.950 . S
C1511 C1508 1.387 . S
C1512 C1513 1.387 . S
C1512 H1516 0.950 . S
C1512 C1521 1.390 . S
C1513 C1512 1.387 . S
C1513 C1515 1.387 . S
H1514 C1521 0.950 . S
C1515 C1513 1.387 . S
C1515 C1517 1.390 . S
C1515 H1519 0.950 . S
H1516 C1512 0.950 . S
C1517 C1515 1.390 . S
C1517 C1518 1.387 . S
C1517 H1520 0.950 . S
C1518 C1517 1.387 . S
C1518 C1521 1.387 . S
H1519 C1515 0.950 . S
H1520 C1517 0.950 . S
C1521 C1512 1.390 . S
C1521 H1514 0.950 . S
C1521 C1518 1.387 . S
C1522 C1523 1.387 . S
C1522 H1526 0.950 . S
C1522 C1531 1.390 . S
C1523 C1522 1.387 . S
C1523 C1525 1.387 . S
H1524 C1531 0.950 1_556 S
C1525 C1523 1.387 . S
C1525 C1527 1.390 . S
C1525 H1529 0.950 . S
H1526 C1522 0.950 . S
C1527 C1525 1.390 . S
C1527 C1528 1.387 . S
C1527 H1530 0.950 . S
C1528 C1527 1.387 . S
C1528 C1531 1.387 . S
H1529 C1525 0.950 . S
H1530 C1527 0.950 . S
C1531 C1522 1.390 . S
C1531 H1524 0.950 1_554 S
C1531 C1528 1.387 . S
C1532 C1533 1.387 . S
C1532 H1536 0.950 . S
C1532 C1541 1.390 . S
C1533 C1532 1.387 . S
C1533 C1535 1.387 . S
H1534 C1541 0.950 . S
C1535 C1533 1.387 . S
C1535 C1537 1.390 . S
C1535 H1539 0.950 . S
H1536 C1532 0.950 . S
C1537 C1535 1.390 . S
C1537 C1538 1.387 . S
C1537 H1540 0.950 . S
C1538 C1537 1.387 . S
C1538 C1541 1.387 . S
H1539 C1535 0.950 . S
H1540 C1537 0.950 . S
C1541 C1532 1.390 . S
C1541 H1534 0.950 . S
C1541 C1538 1.387 . S
C1542 C1543 1.387 . S
C1542 H1546 0.950 . S
C1542 C1551 1.390 . S
C1543 C1542 1.387 . S
C1543 C1545 1.387 . S
H1544 C1551 0.950 . S
C1545 C1543 1.387 . S
C1545 C1547 1.390 . S
C1545 H1549 0.950 . S
H1546 C1542 0.950 . S
C1547 C1545 1.390 . S
C1547 C1548 1.387 . S
C1547 H1550 0.950 . S
C1548 C1547 1.387 . S
C1548 C1551 1.387 . S
H1549 C1545 0.950 . S
H1550 C1547 0.950 . S
C1551 C1542 1.390 . S
C1551 H1544 0.950 . S
C1551 C1548 1.387 . S
C1552 C1553 1.387 . S
C1552 H1556 0.950 . S
C1552 C1561 1.390 . S
C1553 C1552 1.387 . S
C1553 C1555 1.387 . S
H1554 C1561 0.950 . S
C1555 C1553 1.387 . S
C1555 C1557 1.390 . S
C1555 H1559 0.950 . S
H1556 C1552 0.950 . S
C1557 C1555 1.390 . S
C1557 C1558 1.387 . S
C1557 H1560 0.950 . S
C1558 C1557 1.387 . S
C1558 C1561 1.387 . S
H1559 C1555 0.950 . S
H1560 C1557 0.950 . S
C1561 C1552 1.390 . S
C1561 H1554 0.950 . S
C1561 C1558 1.387 . S
C1562 C1563 1.387 . S
C1562 H1566 0.950 . S
C1562 C1571 1.390 . S
C1563 C1562 1.387 . S
C1563 C1565 1.387 . S
H1564 C1571 0.950 . S
C1565 C1563 1.387 . S
C1565 C1567 1.390 . S
C1565 H1569 0.950 . S
H1566 C1562 0.950 . S
C1567 C1565 1.390 . S
C1567 C1568 1.387 . S
C1567 H1570 0.950 . S
C1568 C1567 1.387 . S
C1568 C1571 1.387 . S
H1569 C1565 0.950 . S
H1570 C1567 0.950 . S
C1571 C1562 1.390 . S
C1571 H1564 0.950 . S
C1571 C1568 1.387 . S
C1572 C1573 1.387 . S
C1572 H1576 0.950 . S
C1572 C1581 1.390 1_565 S
C1573 C1572 1.387 . S
C1573 C1575 1.387 . S
H1574 C1581 0.950 . S
C1575 C1573 1.387 . S
C1575 C1577 1.390 1_565 S
C1575 H1579 0.950 . S
H1576 C1572 0.950 . S
C1577 C1575 1.390 1_545 S
C1577 C1578 1.387 . S
C1577 H1580 0.950 . S
C1578 C1577 1.387 . S
C1578 C1581 1.387 . S
H1579 C1575 0.950 . S
H1580 C1577 0.950 . S
C1581 C1572 1.390 1_545 S
C1581 H1574 0.950 . S
C1581 C1578 1.387 . S
C1582 C1583 1.387 . S
C1582 H1586 0.950 . S
C1582 C1591 1.390 . S
C1583 C1582 1.387 . S
C1583 C1585 1.387 . S
H1584 C1591 0.950 . S
C1585 C1583 1.387 . S
C1585 C1587 1.390 . S
C1585 H1589 0.950 . S
H1586 C1582 0.950 . S
C1587 C1585 1.390 . S
C1587 C1588 1.387 . S
C1587 H1590 0.950 . S
C1588 C1587 1.387 . S
C1588 C1591 1.387 . S
H1589 C1585 0.950 . S
H1590 C1587 0.950 . S
C1591 C1582 1.390 . S
C1591 H1584 0.950 . S
C1591 C1588 1.387 . S
C1592 C1593 1.387 . S
C1592 H1596 0.950 . S
C1592 C1601 1.390 . S
C1593 C1592 1.387 . S
C1593 C1595 1.387 . S
H1594 C1601 0.950 . S
C1595 C1593 1.387 . S
C1595 C1597 1.390 . S
C1595 H1599 0.950 . S
H1596 C1592 0.950 . S
C1597 C1595 1.390 . S
C1597 C1598 1.387 . S
C1597 H1600 0.950 . S
C1598 C1597 1.387 . S
C1598 C1601 1.387 . S
H1599 C1595 0.950 . S
H1600 C1597 0.950 . S
C1601 C1592 1.390 . S
C1601 H1594 0.950 . S
C1601 C1598 1.387 . S
C1602 C1603 1.387 . S
C1602 H1606 0.950 . S
C1602 C1611 1.390 . S
C1603 C1602 1.387 . S
C1603 C1605 1.387 . S
H1604 C1611 0.950 . S
C1605 C1603 1.387 . S
C1605 C1607 1.390 . S
C1605 H1609 0.950 . S
H1606 C1602 0.950 . S
C1607 C1605 1.390 . S
C1607 C1608 1.387 . S
C1607 H1610 0.950 . S
C1608 C1607 1.387 . S
C1608 C1611 1.387 . S
H1609 C1605 0.950 . S
H1610 C1607 0.950 . S
C1611 C1602 1.390 . S
C1611 H1604 0.950 . S
C1611 C1608 1.387 . S
C1612 C1613 1.382 1_545 S
C1612 H1616 0.944 1_545 S
C1612 C1621 1.401 . S
C1613 C1612 1.382 1_565 S
C1613 C1615 1.387 1_565 S
H1614 C1621 0.950 . S
C1615 C1613 1.387 1_545 S
C1615 C1617 1.390 . S
C1615 H1619 0.950 1_545 S
H1616 C1612 0.944 1_565 S
C1617 C1615 1.390 . S
C1617 C1618 1.387 . S
C1617 H1620 0.950 . S
C1618 C1617 1.387 . S
C1618 C1621 1.387 . S
H1619 C1615 0.950 1_565 S
H1620 C1617 0.950 . S
C1621 C1612 1.401 . S
C1621 H1614 0.950 . S
C1621 C1618 1.387 . S
C1622 C1623 1.387 . S
C1622 H1626 0.950 . S
C1622 C1631 1.390 . S
C1623 C1622 1.387 . S
C1623 C1625 1.387 . S
H1624 C1631 0.950 1_545 S
C1625 C1623 1.387 . S
C1625 C1627 1.390 . S
C1625 H1629 0.950 . S
H1626 C1622 0.950 . S
C1627 C1625 1.390 . S
C1627 C1628 1.387 1_565 S
C1627 H1630 0.950 1_565 S
C1628 C1627 1.387 1_545 S
C1628 C1631 1.387 1_545 S
H1629 C1625 0.950 . S
H1630 C1627 0.950 1_545 S
C1631 C1622 1.390 . S
C1631 H1624 0.950 1_565 S
C1631 C1628 1.387 1_565 S
C673 C599 1.321 . S
C678 C8 1.337 . S
C683 C21 1.394 . S
C688 C218 1.327 . S
C693 C36 1.335 . S
C698 C571 1.308 . S
C703 C49 1.359 . S
C708 C246 1.289 . S
C713 C624 1.167 . S
C718 C67 1.238 . S
C723 C77 1.387 . S
C728 C305 1.362 . S
C733 C95 1.252 . S
C738 C652 1.181 . S
C743 C105 1.390 . S
C748 C277 1.363 . S
C753 C55 1.349 . S
C758 C669 1.399 . S
C763 C11 1.146 . S
C768 C358 1.084 . S
C773 C372 1.420 . S
C778 C27 1.425 . S
C783 C39 1.239 1_554 S
C788 C344 1.150 . S
C793 C83 1.286 . S
C798 C347 1.342 . S
C803 C92 1.370 . S
C808 C666 1.293 . S
C813 C111 1.188 . S
C818 C361 1.238 . S
C823 C64 1.326 . S
C828 C375 1.311 . S
C833 C557 1.263 . S
C838 C119 1.287 . S
C843 C133 1.488 . S
C848 C274 1.419 . S
C853 C125 1.182 . S
C858 C627 1.234 . S
C863 C302 1.423 . S
C868 C147 1.493 . S
C873 C319 1.247 . S
C878 C167 1.200 . S
C883 C585 1.269 . S
C888 C175 1.298 . S
C893 C596 1.414 . S
C898 C195 1.425 . S
C903 C568 1.434 . S
C908 C209 1.450 . S
C913 C470 1.257 . S
C918 C217 1.333 . S
C923 C237 1.278 . S
C928 C7 1.357 . S
C933 C245 1.375 . S
C938 C442 1.314 . S
C943 C35 1.347 . S
C948 C265 1.264 . S
C953 C279 1.293 . S
C958 C498 1.282 . S
C963 C97 1.314 . S
C968 C287 1.333 . S
C973 C307 1.334 . S
C978 C526 1.334 . S
C983 C69 1.276 . S
C988 C315 1.296 . S
C993 C543 1.385 . S
C998 C259 1.427 . S
C1003 C223 1.284 . S
C1008 C148 1.277 . S
C1013 C165 1.387 . S
C1018 C231 1.429 . S
C1023 C134 1.269 . S
C1028 C251 1.278 1_556 S
C1033 C137 1.321 . S
C1038 C293 1.266 . S
C1043 C301 1.388 . S
C1048 C540 1.294 . S
C1053 C151 1.308 . S
C1058 C321 1.252 . S
C1063 C273 1.369 1_554 S
C1068 C162 1.314 . S
C1073 C329 1.399 . S
C1078 C433 1.398 . S
C1083 C343 1.380 . S
C1088 C63 1.379 . S
C1093 C335 1.309 . S
C1098 C501 1.372 . S
C1103 C357 1.314 . S
C1108 C91 1.322 . S
C1113 C371 1.452 . S
C1118 C109 1.406 . S
C1123 C461 1.265 . S
C1128 C391 1.204 . S
C1133 C405 1.259 . S
C1138 C473 1.318 . S
C1143 C413 1.332 . S
C1148 C445 1.301 . S
C1153 C428 1.307 . S
C1158 C263 1.286 . S
C1163 C441 1.400 . S
C1168 C554 1.341 . S
C1173 C235 1.307 . S
C1178 C456 1.335 . S
C1183 C469 1.366 . S
C1188 C582 1.299 . S
C1193 C487 1.230 . S
C1198 C288 1.149 . S
C1203 C641 1.362 . S
C1208 C497 1.389 . S
C1213 C515 1.261 . S
C1218 C316 1.173 . S
C1223 C613 1.399 . S
C1228 C525 1.423 . S
C1233 C333 1.409 . S
C1238 C475 1.362 . S
C1243 C417 1.066 . S
C1248 C431 1.095 . S
C1253 C447 1.337 . S
C1258 C386 1.334 . S
C1263 C400 1.163 . S
C1268 C459 1.250 . S
C1273 C503 1.283 . S
C1278 C403 1.338 . S
C1283 C330 1.390 . S
C1288 C512 1.483 . S
C1293 C531 1.253 . S
C1298 C414 1.253 . S
C1303 C484 1.316 . S
C1308 C389 1.299 . S
C1313 C539 1.299 . S
C1318 C221 1.272 . S
C1323 C189 1.483 . S
C1328 C610 1.415 . S
C1333 C291 1.245 . S
C1338 C545 1.196 . S
C1343 C638 1.431 . S
C1348 C203 1.499 . S
C1353 C655 1.232 . S
C1358 C181 1.185 . S
C1363 C161 1.307 . S
C1368 C249 1.281 . S
C1373 C139 1.431 . S
C1378 C260 1.419 . S
C1383 C232 1.423 . S
C1388 C153 1.437 . S
C1393 C553 1.333 . S
C1398 C50 1.252 . S
C1403 C427 1.315 . S
C1408 C573 1.232 . S
C1413 C581 1.347 . S
C1418 C22 1.273 . S
C1423 C601 1.261 . S
C1428 C455 1.348 . S
C1433 C78 1.278 . S
C1438 C615 1.287 . S
C1443 C623 1.306 . S
C1448 C517 1.289 . S
C1453 C643 1.279 . S
C1458 C106 1.273 . S
C1463 C489 1.278 . S
C1468 C651 1.296 . S
C1473 C595 1.423 . S
C1478 C123 1.381 . S
C1483 C204 1.307 . S
C1488 C559 1.313 1_556 S
C1493 C179 1.370 . S
C1498 C567 1.413 . S
C1503 C587 1.263 . S
C1508 C190 1.253 . S
C1513 C629 1.250 . S
C1518 C193 1.303 . S
C1523 C120 1.273 . S
C1528 C637 1.370 1_554 S
C1533 C207 1.334 . S
C1538 C657 1.276 . S
C1543 C609 1.401 . S
C1548 C176 1.308 . S
C1553 C13 1.337 . S
C1558 C665 1.345 . S
C1563 C399 1.377 . S
C1568 C483 1.373 . S
C1573 C81 1.362 . S
C1578 C671 1.300 . S
C1583 C511 1.283 . S
C1588 C419 1.224 . S
C1593 C529 1.367 . S
C1598 C385 1.403 . S
C1603 C377 1.213 . S
C1608 C41 1.276 . S
C1613 C349 1.260 . S
C1618 C53 1.317 . S
C1623 C25 1.260 . S
C1628 C363 1.211 . S
