# Generated by pormake.
# Topology zfa, (5)-cn, num edge types: 1
# Building blocks:
#     Node 0, Type 0, BuildingBlock: BEQFEK_clean_sbu_0, # of connection points: 5
#     Node 1, Type 0, BuildingBlock: BEQFEK_clean_sbu_0, # of connection points: 5
#     Node 2, Type 0, BuildingBlock: BEQFEK_clean_sbu_0, # of connection points: 5
#     Node 3, Type 0, BuildingBlock: BEQFEK_clean_sbu_0, # of connection points: 5
#     Node 4, Type 0, BuildingBlock: BEQFEK_clean_sbu_0, # of connection points: 5
#     Node 5, Type 0, BuildingBlock: BEQFEK_clean_sbu_0, # of connection points: 5
#     Node 6, Type 0, BuildingBlock: BEQFEK_clean_sbu_0, # of connection points: 5
#     Node 7, Type 0, BuildingBlock: BEQFEK_clean_sbu_0, # of connection points: 5
#     Edge 8, Type (0, 0), BuildingBlock: MIFKUJ_clean_linker_0, # of connection points: 2
#     Edge 9, Type (0, 0), BuildingBlock: MIFKUJ_clean_linker_0, # of connection points: 2
#     Edge 10, Type (0, 0), BuildingBlock: MIFKUJ_clean_linker_0, # of connection points: 2
#     Edge 11, Type (0, 0), BuildingBlock: MIFKUJ_clean_linker_0, # of connection points: 2
#     Edge 12, Type (0, 0), BuildingBlock: MIFKUJ_clean_linker_0, # of connection points: 2
#     Edge 13, Type (0, 0), BuildingBlock: MIFKUJ_clean_linker_0, # of connection points: 2
#     Edge 14, Type (0, 0), BuildingBlock: MIFKUJ_clean_linker_0, # of connection points: 2
#     Edge 15, Type (0, 0), BuildingBlock: MIFKUJ_clean_linker_0, # of connection points: 2
#     Edge 16, Type (0, 0), BuildingBlock: MIFKUJ_clean_linker_0, # of connection points: 2
#     Edge 17, Type (0, 0), BuildingBlock: MIFKUJ_clean_linker_0, # of connection points: 2
#     Edge 18, Type (0, 0), BuildingBlock: MIFKUJ_clean_linker_0, # of connection points: 2
#     Edge 19, Type (0, 0), BuildingBlock: MIFKUJ_clean_linker_0, # of connection points: 2
#     Edge 20, Type (0, 0), BuildingBlock: MIFKUJ_clean_linker_0, # of connection points: 2
#     Edge 21, Type (0, 0), BuildingBlock: MIFKUJ_clean_linker_0, # of connection points: 2
#     Edge 22, Type (0, 0), BuildingBlock: MIFKUJ_clean_linker_0, # of connection points: 2
#     Edge 23, Type (0, 0), BuildingBlock: MIFKUJ_clean_linker_0, # of connection points: 2
#     Edge 24, Type (0, 0), BuildingBlock: MIFKUJ_clean_linker_0, # of connection points: 2
#     Edge 25, Type (0, 0), BuildingBlock: MIFKUJ_clean_linker_0, # of connection points: 2
#     Edge 26, Type (0, 0), BuildingBlock: MIFKUJ_clean_linker_0, # of connection points: 2
#     Edge 27, Type (0, 0), BuildingBlock: MIFKUJ_clean_linker_0, # of connection points: 2
# Relax obj value: 0.310
# Max RMSD: 0.173
# Mean RMSD: 0.173
data_MOF--net-zfa--node1-BEQFEK_clean_sbu_0--edge1-MIFKUJ_clean_linker_0
_symmetry_space_group_name_H-M    P1
_symmetry_Int_Tables_number       1
_symmetry_cell_setting            triclinic
loop_
_symmetry_equiv_pos_as_xyz
'x, y, z'
_cell_length_a     39.683991
_cell_length_b     39.657532
_cell_length_c     50.056407
_cell_angle_alpha  89.805643
_cell_angle_beta   90.003906
_cell_angle_gamma 89.889427
loop_
_atom_site_label
_atom_site_type_symbol
_atom_site_fract_x
_atom_site_fract_y
_atom_site_fract_z
_atom_type_partial_charge
Co0 Co 0.16451 0.22052 0.31947 0.0
Co1 Co 0.16587 0.29771 0.33094 0.0
C2 C 0.17403 0.25052 0.37534 0.0
O3 O 0.17366 0.22654 0.35849 0.0
O4 O 0.1694 0.28093 0.36809 0.0
C5 C 0.12546 0.16687 0.33219 0.0
O6 O 0.11467 0.19125 0.34774 0.0
C7 C 0.147 0.36566 0.34862 0.0
C8 C 0.15923 0.39562 0.3127 0.0
C9 C 0.14419 0.39764 0.33761 0.0
N10 N 0.16279 0.34563 0.33096 0.0
N11 N 0.17096 0.36398 0.30986 0.0
C12 C 0.13145 0.35346 0.37415 0.0
H13 H 0.12374 0.32672 0.37239 0.0
H14 H 0.10941 0.36915 0.37982 0.0
H15 H 0.15049 0.35517 0.39032 0.0
C16 C 0.09817 0.2395 0.29509 0.0
N17 N 0.1275 0.24762 0.3072 0.0
N18 N 0.12673 0.2797 0.31366 0.0
C19 C 0.09635 0.29266 0.30667 0.0
C20 C 0.07705 0.26746 0.29486 0.0
C21 C 0.09088 0.20623 0.28232 0.0
H22 H 0.1146 0.19312 0.2769 0.0
H23 H 0.07622 0.1903 0.2963 0.0
H24 H 0.07531 0.2099 0.2641 0.0
O25 O 0.20713 0.23135 0.30032 0.0
O26 O 0.20893 0.28545 0.31179 0.0
H27 H 0.10154 0.34607 0.3029 0.0
H28 H 0.05854 0.33249 0.30735 0.0
C29 C 0.08501 0.32768 0.31321 0.0
H30 H 0.08704 0.33168 0.33498 0.0
H31 H 0.1823 0.35428 0.29271 0.0
O32 O 0.15023 0.17268 0.31669 0.0
C33 C 0.22233 0.25971 0.30069 0.0
Co34 Co 0.31722 0.66305 0.82004 0.0
Co35 Co 0.23938 0.66865 0.82832 0.0
C36 C 0.2859 0.67271 0.87466 0.0
O37 O 0.311 0.66821 0.85932 0.0
O38 O 0.25604 0.67402 0.86552 0.0
C39 C 0.37051 0.62297 0.83162 0.0
O40 O 0.34589 0.61151 0.84666 0.0
C41 C 0.17376 0.64836 0.84853 0.0
C42 C 0.13914 0.66494 0.81656 0.0
C43 C 0.14041 0.64702 0.84036 0.0
N44 N 0.19148 0.66563 0.83019 0.0
N45 N 0.17051 0.67619 0.81142 0.0
C46 C 0.18882 0.63346 0.87338 0.0
H47 H 0.21328 0.62121 0.86879 0.0
H48 H 0.17162 0.61528 0.88323 0.0
H49 H 0.19404 0.65417 0.88764 0.0
C50 C 0.29698 0.59829 0.79419 0.0
N51 N 0.28936 0.62782 0.8062 0.0
N52 N 0.25694 0.62843 0.81165 0.0
C53 C 0.24323 0.59866 0.80401 0.0
C54 C 0.26832 0.57833 0.79298 0.0
C55 C 0.33059 0.58974 0.78238 0.0
H56 H 0.34452 0.61298 0.77697 0.0
H57 H 0.34553 0.57487 0.79696 0.0
H58 H 0.32735 0.57397 0.76428 0.0
O59 O 0.3077 0.70776 0.8029 0.0
O60 O 0.25197 0.71055 0.80785 0.0
H61 H 0.1902 0.60785 0.80105 0.0
H62 H 0.20113 0.56371 0.80124 0.0
C63 C 0.20757 0.5887 0.8095 0.0
H64 H 0.20382 0.58743 0.83135 0.0
H65 H 0.17794 0.6895 0.79437 0.0
O66 O 0.36487 0.64837 0.81665 0.0
C67 C 0.27974 0.72334 0.79978 0.0
Co68 Co 0.8755 0.81951 0.31831 0.0
Co69 Co 0.86974 0.74229 0.3299 0.0
C70 C 0.86497 0.7905 0.37435 0.0
O71 O 0.86913 0.81482 0.358 0.0
O72 O 0.86463 0.76009 0.36641 0.0
C73 C 0.9179 0.87158 0.32813 0.0
O74 O 0.9291 0.84682 0.34323 0.0
C75 C 0.88351 0.67457 0.35091 0.0
C76 C 0.8814 0.64449 0.31392 0.0
C77 C 0.89053 0.64278 0.34064 0.0
N78 N 0.87232 0.69433 0.33089 0.0
N79 N 0.87012 0.67591 0.30904 0.0
C80 C 0.88752 0.68634 0.37913 0.0
H81 H 0.90928 0.70378 0.38048 0.0
H82 H 0.8911 0.66487 0.39311 0.0
H83 H 0.86463 0.7004 0.38527 0.0
C84 C 0.94034 0.79667 0.29336 0.0
N85 N 0.91067 0.79031 0.30568 0.0
N86 N 0.91035 0.75873 0.31363 0.0
C87 C 0.94066 0.74459 0.30807 0.0
C88 C 0.96086 0.76819 0.29496 0.0
C89 C 0.94804 0.82841 0.27832 0.0
H90 H 0.92446 0.84181 0.27283 0.0
H91 H 0.96381 0.84514 0.29074 0.0
H92 H 0.96255 0.82251 0.25995 0.0
O93 O 0.83097 0.81009 0.30069 0.0
O94 O 0.828 0.75514 0.30936 0.0
H95 H 0.94074 0.69091 0.3046 0.0
H96 H 0.97923 0.70788 0.31818 0.0
C97 C 0.95142 0.71053 0.31784 0.0
H98 H 0.94188 0.70643 0.33835 0.0
H99 H 0.86321 0.68543 0.29035 0.0
O100 O 0.89174 0.8667 0.31393 0.0
C101 C 0.8152 0.78203 0.29948 0.0
Co102 Co 0.71867 0.37497 0.82156 0.0
Co103 Co 0.79606 0.36952 0.83188 0.0
C104 C 0.74863 0.36253 0.87691 0.0
O105 O 0.72428 0.36606 0.86062 0.0
O106 O 0.77898 0.36381 0.86884 0.0
C107 C 0.66624 0.41482 0.83539 0.0
O108 O 0.69089 0.42351 0.85146 0.0
C109 C 0.86275 0.3856 0.85285 0.0
C110 C 0.89446 0.38077 0.81687 0.0
C111 C 0.89482 0.39205 0.84306 0.0
N112 N 0.84403 0.37247 0.83308 0.0
N113 N 0.86343 0.36865 0.81186 0.0
C114 C 0.84963 0.39264 0.88034 0.0
H115 H 0.82892 0.41142 0.87933 0.0
H116 H 0.86978 0.40172 0.89388 0.0
H117 H 0.83912 0.36906 0.88883 0.0
C118 C 0.73955 0.44093 0.79785 0.0
N119 N 0.74692 0.41095 0.80941 0.0
N120 N 0.77893 0.41047 0.81605 0.0
C121 C 0.79257 0.4409 0.81004 0.0
C122 C 0.768 0.46142 0.79829 0.0
C123 C 0.70643 0.44923 0.78503 0.0
H124 H 0.69355 0.42589 0.77848 0.0
H125 H 0.69012 0.46265 0.7995 0.0
H126 H 0.71021 0.46609 0.76753 0.0
O127 O 0.72805 0.3316 0.80287 0.0
O128 O 0.78311 0.32783 0.81096 0.0
H129 H 0.84607 0.43869 0.80513 0.0
H130 H 0.83095 0.47901 0.81687 0.0
C131 C 0.82732 0.45137 0.81811 0.0
H132 H 0.83184 0.44361 0.839 0.0
H133 H 0.85483 0.36009 0.79338 0.0
O134 O 0.67145 0.39124 0.81866 0.0
C135 C 0.75596 0.3156 0.80119 0.0
Co136 Co 0.66309 0.32136 0.20775 0.0
Co137 Co 0.66655 0.24348 0.19915 0.0
C138 C 0.6706 0.29319 0.15311 0.0
O139 O 0.66722 0.31843 0.16851 0.0
O140 O 0.67087 0.26321 0.16239 0.0
C141 C 0.65411 0.39273 0.20062 0.0
O142 O 0.66919 0.38764 0.17762 0.0
C143 C 0.63875 0.18156 0.17805 0.0
C144 C 0.66324 0.14205 0.20248 0.0
C145 C 0.63918 0.14709 0.18278 0.0
N146 N 0.66103 0.19622 0.19451 0.0
N147 N 0.67605 0.17246 0.20876 0.0
C148 C 0.6183 0.20062 0.15784 0.0
H149 H 0.60718 0.22346 0.16709 0.0
H150 H 0.59832 0.18488 0.14879 0.0
H151 H 0.6353 0.20932 0.14164 0.0
C152 C 0.59538 0.30314 0.22853 0.0
N153 N 0.62623 0.29442 0.21945 0.0
N154 N 0.62797 0.26141 0.21743 0.0
C155 C 0.59863 0.24812 0.22643 0.0
C156 C 0.57689 0.27414 0.23335 0.0
C157 C 0.58327 0.33869 0.23142 0.0
H158 H 0.59875 0.35155 0.24674 0.0
H159 H 0.58653 0.3523 0.21219 0.0
H160 H 0.55641 0.33983 0.23755 0.0
O161 O 0.70752 0.30805 0.22393 0.0
O162 O 0.70931 0.25236 0.21901 0.0
H163 H 0.57168 0.20604 0.24328 0.0
H164 H 0.57934 0.20375 0.20811 0.0
C165 C 0.5905 0.21135 0.22743 0.0
H166 H 0.61353 0.19632 0.23133 0.0
H167 H 0.69411 0.17712 0.22348 0.0
O168 O 0.65175 0.36848 0.21714 0.0
C169 C 0.72269 0.27984 0.22687 0.0
Co170 Co 0.21745 0.16505 0.70645 0.0
Co171 Co 0.29508 0.16775 0.69613 0.0
C172 C 0.24706 0.17468 0.65105 0.0
O173 O 0.22264 0.17315 0.66743 0.0
O174 O 0.27737 0.17185 0.65903 0.0
C175 C 0.15974 0.13067 0.69391 0.0
O176 O 0.18079 0.12162 0.67498 0.0
C177 C 0.35999 0.14453 0.67611 0.0
C178 C 0.3957 0.16426 0.70598 0.0
C179 C 0.39361 0.14396 0.68357 0.0
N180 N 0.3429 0.16384 0.69348 0.0
N181 N 0.36452 0.17623 0.71095 0.0
C182 C 0.34409 0.12649 0.65309 0.0
H183 H 0.31791 0.11901 0.65806 0.0
H184 H 0.35896 0.10407 0.64706 0.0
H185 H 0.34293 0.144 0.63577 0.0
C186 C 0.23638 0.09839 0.73034 0.0
N187 N 0.24461 0.12815 0.71879 0.0
N188 N 0.27716 0.12838 0.71381 0.0
C189 C 0.29045 0.09844 0.72176 0.0
C190 C 0.26493 0.07822 0.73219 0.0
C191 C 0.202 0.08946 0.74038 0.0
H192 H 0.18879 0.11225 0.74774 0.0
H193 H 0.18721 0.07807 0.72394 0.0
H194 H 0.20366 0.0707 0.75684 0.0
O195 O 0.22877 0.20831 0.72428 0.0
O196 O 0.28382 0.21074 0.71592 0.0
H197 H 0.34343 0.10837 0.72344 0.0
H198 H 0.33306 0.06455 0.72759 0.0
C199 C 0.32618 0.08806 0.717 0.0
H200 H 0.32957 0.08344 0.69541 0.0
H201 H 0.3577 0.19138 0.72711 0.0
O202 O 0.16955 0.15196 0.71121 0.0
C203 C 0.25693 0.22375 0.72555 0.0
Co204 Co 0.37578 0.71316 0.20479 0.0
Co205 Co 0.3694 0.79112 0.19586 0.0
C206 C 0.3641 0.74369 0.15001 0.0
O207 O 0.36834 0.71875 0.16567 0.0
O208 O 0.36398 0.77373 0.15885 0.0
C209 C 0.40985 0.65442 0.1916 0.0
O210 O 0.41743 0.67433 0.17147 0.0
C211 C 0.38938 0.85696 0.17532 0.0
C212 C 0.37481 0.89096 0.20819 0.0
C213 C 0.39226 0.88999 0.1842 0.0
N214 N 0.37228 0.83911 0.19371 0.0
N215 N 0.3628 0.85977 0.21296 0.0
C216 C 0.40236 0.84229 0.14975 0.0
H217 H 0.38121 0.83026 0.13893 0.0
H218 H 0.42125 0.82239 0.15416 0.0
H219 H 0.41337 0.86178 0.13645 0.0
C220 C 0.44235 0.7342 0.22784 0.0
N221 N 0.4119 0.74138 0.21696 0.0
N222 N 0.41005 0.77402 0.21225 0.0
C223 C 0.43963 0.78834 0.21959 0.0
C224 C 0.46112 0.76363 0.22956 0.0
C225 C 0.45437 0.69949 0.23488 0.0
H226 H 0.43344 0.68452 0.24348 0.0
H227 H 0.4637 0.68692 0.21656 0.0
H228 H 0.4754 0.70025 0.24943 0.0
O229 O 0.33158 0.72311 0.2228 0.0
O230 O 0.32773 0.77857 0.21653 0.0
H231 H 0.42672 0.84015 0.22578 0.0
H232 H 0.47118 0.83143 0.22815 0.0
C233 C 0.44763 0.82507 0.21734 0.0
H234 H 0.45087 0.8318 0.19602 0.0
H235 H 0.34996 0.85214 0.23015 0.0
O236 O 0.39013 0.66537 0.20967 0.0
C237 C 0.31548 0.75089 0.22534 0.0
Co238 Co 0.81935 0.87534 0.70553 0.0
Co239 Co 0.74216 0.86973 0.69487 0.0
C240 C 0.79017 0.86415 0.64992 0.0
O241 O 0.81458 0.86822 0.6661 0.0
O242 O 0.75983 0.86416 0.65811 0.0
C243 C 0.87447 0.91378 0.69418 0.0
O244 O 0.85223 0.92324 0.67621 0.0
C245 C 0.67484 0.88446 0.67388 0.0
C246 C 0.64394 0.8801 0.71037 0.0
C247 C 0.64277 0.89049 0.68392 0.0
N248 N 0.69425 0.87243 0.69377 0.0
N249 N 0.67536 0.86891 0.71532 0.0
C250 C 0.68725 0.89052 0.646 0.0
H251 H 0.70626 0.91099 0.64598 0.0
H252 H 0.66632 0.89702 0.63221 0.0
H253 H 0.69976 0.86735 0.63857 0.0
C254 C 0.79784 0.94112 0.72908 0.0
N255 N 0.79079 0.91112 0.71762 0.0
N256 N 0.7589 0.91067 0.71062 0.0
C257 C 0.74508 0.94117 0.71615 0.0
C258 C 0.76935 0.9617 0.7281 0.0
C259 C 0.83064 0.94926 0.74234 0.0
H260 H 0.84316 0.92589 0.74947 0.0
H261 H 0.84743 0.96222 0.72793 0.0
H262 H 0.82653 0.96641 0.75952 0.0
O263 O 0.80976 0.83142 0.72352 0.0
O264 O 0.75467 0.82799 0.71592 0.0
H265 H 0.69152 0.94033 0.72086 0.0
H266 H 0.70741 0.97944 0.70723 0.0
C267 C 0.71055 0.95167 0.70735 0.0
H268 H 0.70596 0.94254 0.68685 0.0
H269 H 0.6845 0.86108 0.73389 0.0
O270 O 0.86652 0.89047 0.71053 0.0
C271 C 0.7819 0.81553 0.72543 0.0
H272 H 0.88835 0.57599 0.32934 0.0
H273 H 0.93091 0.53363 0.33986 0.0
H274 H 0.98475 0.60626 0.38757 0.0
H275 H 0.94412 0.64929 0.37512 0.0
H276 H 0.02611 0.57951 0.35669 0.0
H277 H 0.945 0.53203 0.41508 0.0
H278 H 0.88949 0.51121 0.42976 0.0
H279 H 0.89262 0.43407 0.36982 0.0
H280 H 0.94796 0.45467 0.35453 0.0
H281 H 0.14642 0.44317 0.37847 0.0
H282 H 0.10277 0.48524 0.38984 0.0
H283 H 0.04119 0.44919 0.32492 0.0
H284 H 0.08482 0.40817 0.31323 0.0
H285 H 1.00661 0.45833 0.37581 0.0
H286 H 0.08349 0.515 0.31381 0.0
H287 H 0.13891 0.53696 0.29995 0.0
H288 H 0.14329 0.59802 0.37054 0.0
H289 H 0.08809 0.57596 0.38503 0.0
C290 C 0.90883 0.58268 0.34261 0.0
C291 C 0.91214 0.61584 0.35198 0.0
C292 C 0.93306 0.55833 0.34884 0.0
C293 C 0.96085 0.56646 0.365 0.0
C294 C 0.96339 0.59921 0.37533 0.0
C295 C 0.93957 0.62375 0.36862 0.0
C296 C 0.98918 0.5422 0.36813 0.0
C297 C 0.02185 0.55322 0.36167 0.0
C298 C 0.98384 0.50774 0.37434 0.0
C299 C 0.95062 0.49503 0.38358 0.0
C300 C 0.93378 0.51074 0.40492 0.0
C301 C 0.90235 0.49895 0.41337 0.0
C302 C 0.88753 0.47136 0.40072 0.0
C303 C 0.90415 0.45543 0.37963 0.0
C304 C 0.93559 0.46711 0.37109 0.0
C305 C 0.12354 0.44454 0.36671 0.0
C306 C 0.11885 0.423 0.34487 0.0
C307 C 0.09872 0.4683 0.37322 0.0
C308 C 0.06884 0.47012 0.35821 0.0
C309 C 0.06402 0.44801 0.33677 0.0
C310 C 0.08896 0.42484 0.33001 0.0
C311 C 0.04279 0.49576 0.36381 0.0
C312 C 1.0107 0.48491 0.37177 0.0
C313 C 0.04868 0.53042 0.35936 0.0
C314 C 0.08198 0.54338 0.35073 0.0
C315 C 0.09648 0.53275 0.32655 0.0
C316 C 0.12782 0.54528 0.31855 0.0
C317 C 0.14473 0.56869 0.33445 0.0
C318 C 0.13027 0.57971 0.35833 0.0
C319 C 0.09898 0.5672 0.36645 0.0
H320 H 0.16893 0.57845 0.32817 0.0
H321 H 0.86318 0.46229 0.40728 0.0
H322 H 0.88273 0.45214 0.86775 0.0
H323 H 0.92333 0.4963 0.87751 0.0
H324 H 1.00387 0.43261 0.84924 0.0
H325 H 0.96313 0.38763 0.83989 0.0
H326 H 0.02075 0.47411 0.89514 0.0
H327 H 0.96897 0.48279 0.80693 0.0
H328 H 0.91925 0.48583 0.77744 0.0
H329 H 0.88641 0.57604 0.81693 0.0
H330 H 0.93567 0.57317 0.84701 0.0
H331 H 0.14724 0.57957 0.84645 0.0
H332 H 0.10352 0.53852 0.856 0.0
H333 H 0.03053 0.61888 0.8633 0.0
H334 H 0.07462 0.66023 0.85241 0.0
H335 H 1.00514 0.57252 0.83482 0.0
H336 H 0.05961 0.5699 0.919 0.0
H337 H 0.10681 0.56701 0.95095 0.0
H338 H 0.1321 0.4679 0.92303 0.0
H339 H 0.08537 0.47036 0.89061 0.0
C340 C 0.90919 0.4468 0.86472 0.0
C341 C 0.91988 0.41607 0.85358 0.0
C342 C 0.93233 0.4723 0.87005 0.0
C343 C 0.96649 0.46772 0.86397 0.0
C344 C 0.97758 0.43647 0.8542 0.0
C345 C 0.95436 0.4109 0.84881 0.0
C346 C 0.98983 0.49669 0.86468 0.0
C347 C 1.0176 0.49562 0.88192 0.0
C348 C 0.98477 0.5252 0.84808 0.0
C349 C 0.95582 0.52758 0.82938 0.0
C350 C 0.95106 0.50318 0.80941 0.0
C351 C 0.92296 0.50486 0.79261 0.0
C352 C 0.89964 0.53106 0.79537 0.0
C353 C 0.90447 0.55573 0.81486 0.0
C354 C 0.93248 0.55409 0.83178 0.0
C355 C 0.12209 0.58857 0.85073 0.0
C356 C 0.11439 0.62308 0.84935 0.0
C357 C 0.09703 0.56505 0.8563 0.0
C358 C 0.06377 0.57554 0.8611 0.0
C359 C 0.05606 0.61017 0.85994 0.0
C360 C 0.08117 0.63375 0.85385 0.0
C361 C 0.03689 0.54994 0.86501 0.0
C362 C 1.00828 0.5515 0.84852 0.0
C363 C 0.04098 0.52214 0.88264 0.0
C364 C 0.06904 0.52041 0.90225 0.0
C365 C 0.07535 0.54756 0.91954 0.0
C366 C 0.10202 0.54599 0.93776 0.0
C367 C 0.12246 0.51731 0.939 0.0
C368 C 0.11624 0.4901 0.92205 0.0
C369 C 0.08963 0.49155 0.90378 0.0
H370 H 0.1431 0.51615 0.95311 0.0
H371 H 0.87791 0.53228 0.78235 0.0
H372 H 0.38325 0.95805 0.1853 0.0
H373 H 0.42564 1.00162 0.17672 0.0
H374 H 0.49768 0.92475 0.15521 0.0
H375 H 0.45631 0.8814 0.1651 0.0
H376 H 0.52364 0.96536 0.1902 0.0
H377 H 0.46353 0.98052 0.108 0.0
H378 H 0.41349 0.98984 0.07969 0.0
H379 H 0.39568 0.08499 0.1179 0.0
H380 H 0.44536 0.07605 0.1467 0.0
H381 H 0.65174 0.084 0.16396 0.0
H382 H 0.61034 0.03952 0.15501 0.0
H383 H 0.52985 0.10799 0.17571 0.0
H384 H 0.57092 0.15238 0.18384 0.0
H385 H 0.5102 0.06945 0.13601 0.0
H386 H 0.5647 0.05136 0.22144 0.0
H387 H 0.61336 0.04239 0.25132 0.0
H388 H 0.63998 0.95272 0.20828 0.0
H389 H 0.5917 0.96143 0.17792 0.0
C390 C 0.40794 0.95058 0.1782 0.0
C391 C 0.41602 0.91633 0.17507 0.0
C392 C 0.43208 0.97547 0.17316 0.0
C393 C 0.46472 0.96648 0.16488 0.0
C394 C 0.47257 0.93231 0.16125 0.0
C395 C 0.4486 0.9075 0.1665 0.0
C396 C 0.49163 0.99226 0.16258 0.0
C397 C 0.52096 0.98777 0.17788 0.0
C398 C 0.48781 0.02192 0.14708 0.0
C399 C 0.45805 0.02748 0.12964 0.0
C400 C 0.44882 1.00333 0.11049 0.0
C401 C 0.42053 1.00856 0.09434 0.0
C402 C 0.40138 0.03796 0.09703 0.0
C403 C 0.41053 0.06223 0.11585 0.0
C404 C 0.43878 0.05711 0.13206 0.0
C405 C 0.62514 0.08959 0.166 0.0
C406 C 0.61444 0.12167 0.17416 0.0
C407 C 0.60154 0.06421 0.16103 0.0
C408 C 0.56697 0.0703 0.16501 0.0
C409 C 0.5563 0.10273 0.17231 0.0
C410 C 0.57982 0.12815 0.17689 0.0
C411 C 0.54202 0.04252 0.16371 0.0
C412 C 0.51304 0.04671 0.14791 0.0
C413 C 0.54596 1.0126 0.17891 0.0
C414 C 0.57485 1.00725 0.19725 0.0
C415 C 0.58107 0.02986 0.21826 0.0
C416 C 0.60856 0.02481 0.23528 0.0
C417 C 0.62981 0.99706 0.23165 0.0
C418 C 0.62355 0.97424 0.21103 0.0
C419 C 0.59613 0.97921 0.19392 0.0
H420 H 0.65108 0.99319 0.24486 0.0
H421 H 0.37949 0.04195 0.08451 0.0
H422 H 0.65137 0.94858 0.65508 0.0
H423 H 0.60886 0.99089 0.64476 0.0
H424 H 0.53259 0.92842 0.68109 0.0
H425 H 0.57504 0.88496 0.69041 0.0
H426 H 0.50811 0.96402 0.63754 0.0
H427 H 0.5735 0.98532 0.71739 0.0
H428 H 0.62685 0.99313 0.74188 0.0
H429 H 0.65046 0.07889 0.69281 0.0
H430 H 0.59753 0.07116 0.66765 0.0
H431 H 0.3884 0.07639 0.68839 0.0
H432 H 0.43141 0.03406 0.67993 0.0
H433 H 0.49979 0.11201 0.65365 0.0
H434 H 0.4566 0.15489 0.66343 0.0
H435 H 0.53102 0.07102 0.68534 0.0
H436 H 0.46096 0.05347 0.60888 0.0
H437 H 0.40727 0.04477 0.5851 0.0
H438 H 0.3916 0.95224 0.6281 0.0
H439 H 0.44507 0.96049 0.65227 0.0
C440 C 0.62535 0.94292 0.65965 0.0
C441 C 0.6164 0.91299 0.67302 0.0
C442 C 0.60112 0.96747 0.6541 0.0
C443 C 0.5677 0.96295 0.66245 0.0
C444 C 0.55827 0.93233 0.67443 0.0
C445 C 0.5825 0.90761 0.67981 0.0
C446 C 0.54357 0.99144 0.66159 0.0
C447 C 0.51298 0.98742 0.648 0.0
C448 C 0.55039 0.02219 0.67482 0.0
C449 C 0.58174 0.02744 0.69045 0.0
C450 C 0.59016 1.00573 0.71172 0.0
C451 C 0.62032 1.01012 0.72571 0.0
C452 C 0.64206 0.03643 0.71884 0.0
C453 C 0.63362 0.05848 0.69806 0.0
C454 C 0.60355 0.0541 0.68392 0.0
C455 C 0.41234 0.08443 0.68032 0.0
C456 C 0.41904 0.11871 0.67595 0.0
C457 C 0.43694 0.06019 0.67537 0.0
C458 C 0.46862 0.06966 0.66541 0.0
C459 C 0.4754 0.10406 0.66103 0.0
C460 C 0.45081 0.12848 0.66649 0.0
C461 C 0.49513 0.04367 0.66144 0.0
C462 C 0.52625 0.04802 0.6743 0.0
C463 C 0.48872 1.01323 0.64756 0.0
C464 C 0.45698 1.00771 0.63249 0.0
C465 C 0.44603 0.03131 0.61331 0.0
C466 C 0.41564 0.02644 0.59975 0.0
C467 C 0.39603 0.99798 0.60509 0.0
C468 C 0.40684 0.97424 0.62393 0.0
C469 C 0.43725 0.97896 0.63752 0.0
H470 H 0.37247 0.99431 0.59462 0.0
H471 H 0.66541 0.03976 0.72966 0.0
H472 H 0.52467 0.28903 0.20032 0.0
H473 H 0.46419 0.28606 0.21009 0.0
H474 H 0.4867 0.25216 0.2902 0.0
H475 H 0.54722 0.25385 0.27986 0.0
H476 H 0.43597 0.21876 0.2738 0.0
H477 H 0.46221 0.33598 0.27391 0.0
H478 H 0.48448 0.38966 0.25635 0.0
H479 H 0.41433 0.38589 0.19112 0.0
H480 H 0.39202 0.33184 0.20804 0.0
H481 H 0.26716 0.31118 0.30819 0.0
H482 H 0.32646 0.31316 0.2957 0.0
H483 H 0.31686 0.21689 0.25657 0.0
H484 H 0.25762 0.21409 0.27005 0.0
H485 H 0.36144 0.31607 0.25353 0.0
H486 H 0.38944 0.17272 0.25967 0.0
H487 H 0.3689 0.12231 0.28365 0.0
H488 H 0.33348 0.18461 0.34783 0.0
H489 H 0.35419 0.2353 0.3244 0.0
C490 C 0.51653 0.28085 0.21996 0.0
C491 C 0.54039 0.27178 0.23941 0.0
C492 C 0.482 0.27935 0.22563 0.0
C493 C 0.4706 0.26946 0.2511 0.0
C494 C 0.49464 0.25991 0.27042 0.0
C495 C 0.5292 0.26097 0.26459 0.0
C496 C 0.43375 0.26912 0.2576 0.0
C497 C 0.41974 0.24007 0.2693 0.0
C498 C 0.41237 0.29709 0.25232 0.0
C499 C 0.42567 0.32965 0.24211 0.0
C500 C 0.4517 0.34645 0.25571 0.0
C501 C 0.46432 0.37696 0.24588 0.0
C502 C 0.45089 0.39114 0.2226 0.0
C503 C 0.42476 0.37485 0.20913 0.0
C504 C 0.41211 0.34427 0.21883 0.0
C505 C 0.2775 0.29045 0.29677 0.0
C506 C 0.25749 0.26233 0.29032 0.0
C507 C 0.31158 0.29166 0.28957 0.0
C508 C 0.32662 0.26493 0.27554 0.0
C509 C 0.30628 0.23751 0.26798 0.0
C510 C 0.27225 0.23603 0.27553 0.0
C511 C 0.36362 0.2656 0.26951 0.0
C512 C 0.37766 0.2947 0.2579 0.0
C513 C 0.38526 0.23817 0.27574 0.0
C514 C 0.37303 0.2078 0.29013 0.0
C515 C 0.37736 0.17563 0.27894 0.0
C516 C 0.36568 0.14702 0.29243 0.0
C517 C 0.34979 0.15027 0.3172 0.0
C518 C 0.34568 0.18213 0.3286 0.0
C519 C 0.35735 0.21081 0.31521 0.0
H520 H 0.34073 0.1281 0.3276 0.0
H521 H 0.46067 0.41478 0.21503 0.0
H522 H 0.3079 0.04586 0.76708 0.0
H523 H 0.31161 0.98506 0.77634 0.0
H524 H 0.22703 0.96754 0.72425 0.0
H525 H 0.22454 0.02788 0.71366 0.0
H526 H 0.22558 0.93477 0.7785 0.0
H527 H 0.29512 0.94815 0.69957 0.0
H528 H 0.34148 0.9742 0.67401 0.0
H529 H 0.41252 0.94109 0.73328 0.0
H530 H 0.36651 0.91527 0.75941 0.0
H531 H 0.22759 0.75739 0.77589 0.0
H532 H 0.22587 0.81659 0.7622 0.0
H533 H 0.32917 0.82864 0.78734 0.0
H534 H 0.33152 0.76895 0.79958 0.0
H535 H 0.32158 0.86544 0.74657 0.0
H536 H 0.25663 0.854 0.82643 0.0
H537 H 0.21261 0.83099 0.85606 0.0
H538 H 0.13612 0.86325 0.80088 0.0
H539 H 0.17974 0.88607 0.77074 0.0
C540 C 0.2905 0.02896 0.75724 0.0
C541 C 0.2663 0.04164 0.73928 0.0
C542 C 0.29246 0.99429 0.76272 0.0
C543 C 0.26972 0.97173 0.75084 0.0
C544 C 0.24483 0.98446 0.73362 0.0
C545 C 0.24334 1.01899 0.7277 0.0
C546 C 0.27192 0.93484 0.75629 0.0
C547 C 0.24632 0.91945 0.77125 0.0
C548 C 0.29955 0.91515 0.74756 0.0
C549 C 0.3273 0.9301 0.7316 0.0
C550 C 0.32059 0.94666 0.70727 0.0
C551 C 0.34681 0.96135 0.69266 0.0
C552 C 0.3799 0.95942 0.70208 0.0
C553 C 0.38686 0.94263 0.72604 0.0
C554 C 0.36073 0.92794 0.74074 0.0
C555 C 0.25007 0.77256 0.77818 0.0
C556 C 0.27964 0.75839 0.78894 0.0
C557 C 0.249 0.8066 0.77057 0.0
C558 C 0.27708 0.82771 0.7744 0.0
C559 C 0.30703 0.81321 0.78423 0.0
C560 C 0.30836 0.77895 0.79125 0.0
C561 C 0.27501 0.86488 0.76883 0.0
C562 C 0.30071 0.8805 0.75387 0.0
C563 C 0.24779 0.88502 0.7781 0.0
C564 C 0.22148 0.87143 0.79621 0.0
C565 C 0.23044 0.85598 0.82054 0.0
C566 C 0.20555 0.843 0.83743 0.0
C567 C 0.17159 0.84557 0.83033 0.0
C568 C 0.16244 0.86122 0.80634 0.0
C569 C 0.18723 0.87421 0.78935 0.0
H570 H 0.15237 0.83551 0.84343 0.0
H571 H 0.40014 0.97092 0.69081 0.0
H572 H 0.51253 0.78319 0.19698 0.0
H573 H 0.57284 0.78694 0.20772 0.0
H574 H 0.55188 0.75581 0.28864 0.0
H575 H 0.49154 0.75179 0.27778 0.0
H576 H 0.59727 0.80925 0.28644 0.0
H577 H 0.58362 0.7002 0.24759 0.0
H578 H 0.56588 0.65924 0.21345 0.0
H579 H 0.63072 0.70667 0.1559 0.0
H580 H 0.64847 0.74826 0.18963 0.0
H581 H 0.7751 0.72646 0.29258 0.0
H582 H 0.71585 0.72462 0.27968 0.0
H583 H 0.71565 0.83253 0.2689 0.0
H584 H 0.77503 0.83468 0.28222 0.0
H585 H 0.68031 0.73987 0.23678 0.0
H586 H 0.6385 0.86391 0.28718 0.0
H587 H 0.65553 0.90052 0.32458 0.0
H588 H 0.7005 0.81567 0.36454 0.0
H589 H 0.68336 0.7785 0.32756 0.0
C590 C 0.52087 0.77727 0.21706 0.0
C591 C 0.49747 0.767 0.23652 0.0
C592 C 0.55531 0.77932 0.22318 0.0
C593 C 0.56707 0.77147 0.24897 0.0
C594 C 0.54352 0.76199 0.26861 0.0
C595 C 0.5091 0.75955 0.26239 0.0
C596 C 0.60391 0.77255 0.2553 0.0
C597 C 0.61543 0.79421 0.27547 0.0
C598 C 0.62771 0.75251 0.2414 0.0
C599 C 0.61709 0.72758 0.22106 0.0
C600 C 0.59386 0.70209 0.22759 0.0
C601 C 0.58385 0.67872 0.20833 0.0
C602 C 0.59709 0.68041 0.1825 0.0
C603 C 0.62044 0.70543 0.1759 0.0
C604 C 0.6305 0.7289 0.19509 0.0
C605 C 0.76266 0.74987 0.28726 0.0
C606 C 0.78007 0.78078 0.28863 0.0
C607 C 0.72863 0.74874 0.27981 0.0
C608 C 0.71088 0.77845 0.27363 0.0
C609 C 0.72847 0.80924 0.27399 0.0
C610 C 0.7626 0.81042 0.28145 0.0
C611 C 0.67387 0.77708 0.26762 0.0
C612 C 0.66226 0.75525 0.24755 0.0
C613 C 0.64992 0.79652 0.28196 0.0
C614 C 0.65996 0.81854 0.30447 0.0
C615 C 0.65193 0.85306 0.304 0.0
C616 C 0.66161 0.87391 0.32511 0.0
C617 C 0.67919 0.86045 0.34688 0.0
C618 C 0.687 0.82609 0.34762 0.0
C619 C 0.67734 0.80513 0.32658 0.0
H620 H 0.68669 0.87664 0.36319 0.0
H621 H 0.58933 0.66228 0.16761 0.0
H622 H 0.81072 0.27757 0.78607 0.0
H623 H 0.81149 0.2184 0.77212 0.0
H624 H 0.70327 0.21454 0.77839 0.0
H625 H 0.70217 0.2738 0.79199 0.0
H626 H 0.73731 0.16038 0.8049 0.0
H627 H 0.73679 0.21562 0.71858 0.0
H628 H 0.75834 0.2555 0.68479 0.0
H629 H 0.85413 0.20495 0.68533 0.0
H630 H 0.83327 0.16502 0.7194 0.0
H631 H 0.71718 0.99513 0.75314 0.0
H632 H 0.71274 0.05524 0.76309 0.0
H633 H 0.813 0.07072 0.73198 0.0
H634 H 0.81571 1.01169 0.71916 0.0
H635 H 0.78153 0.12045 0.71792 0.0
H636 H 0.78774 0.06807 0.80423 0.0
H637 H 0.77157 0.02911 0.84054 0.0
H638 H 0.67321 0.07422 0.84377 0.0
H639 H 0.68867 0.1132 0.80727 0.0
C640 C 0.78701 0.26431 0.78417 0.0
C641 C 0.75636 0.28066 0.79009 0.0
C642 C 0.78751 0.23041 0.77619 0.0
C643 C 0.75743 0.21191 0.7742 0.0
C644 C 0.7268 0.22822 0.7798 0.0
C645 C 0.72622 0.26225 0.7874 0.0
C646 C 0.758 0.17536 0.76699 0.0
C647 C 0.74657 0.15159 0.78575 0.0
C648 C 0.77115 0.16375 0.74241 0.0
C649 C 0.78355 0.18751 0.7217 0.0
C650 C 0.76252 0.21315 0.71163 0.0
C651 C 0.7746 0.23574 0.69241 0.0
C652 C 0.80761 0.23281 0.68296 0.0
C653 C 0.82858 0.20721 0.69267 0.0
C654 C 0.81663 0.18457 0.71192 0.0
C655 C 0.73808 1.01145 0.74804 0.0
C656 C 0.7669 0.99827 0.73545 0.0
C657 C 0.7358 0.04591 0.75423 0.0
C658 C 0.76284 0.06797 0.74898 0.0
C659 C 0.79167 0.05467 0.73645 0.0
C660 C 0.79349 0.0205 0.72953 0.0
C661 C 0.76112 0.10486 0.75599 0.0
C662 C 0.77229 0.12888 0.73717 0.0
C663 C 0.7486 0.11665 0.78087 0.0
C664 C 0.73926 0.09331 0.80285 0.0
C665 C 0.7626 0.06953 0.81258 0.0
C666 C 0.75357 0.04747 0.8332 0.0
C667 C 0.72135 0.04913 0.8444 0.0
C668 C 0.69813 0.07293 0.83505 0.0
C669 C 0.70702 0.09503 0.81442 0.0
H670 H 0.71441 0.03203 0.86036 0.0
H671 H 0.81692 0.25034 0.66809 0.0
H672 H 0.02795 0.22381 0.3108 0.0
H673 H 0.9678 0.22526 0.3 0.0
H674 H 0.98313 0.31497 0.25268 0.0
H675 H 0.04373 0.31294 0.26278 0.0
H676 H 0.92794 0.31932 0.28873 0.0
H677 H 0.97125 0.24162 0.2223 0.0
H678 H 1.00209 0.19074 0.20798 0.0
H679 H 0.93522 0.12863 0.25414 0.0
H680 H 0.90425 0.1792 0.26905 0.0
H681 H 0.76899 0.3307 0.22551 0.0
H682 H 0.82832 0.32821 0.23797 0.0
H683 H 0.81544 0.2255 0.26489 0.0
H684 H 0.75639 0.22733 0.2508 0.0
H685 H 0.87 0.22684 0.24077 0.0
H686 H 0.82675 0.29853 0.30841 0.0
H687 H 0.79609 0.34643 0.32826 0.0
H688 H 0.86147 0.41589 0.28769 0.0
H689 H 0.89223 0.36841 0.26727 0.0
C690 C 1.01863 0.24353 0.29773 0.0
C691 C 0.0406 0.26827 0.28762 0.0
C692 C 0.98418 0.24443 0.29169 0.0
C693 C 0.97087 0.27017 0.27546 0.0
C694 C 0.99277 0.29494 0.26533 0.0
C695 C 0.02734 0.29382 0.27115 0.0
C696 C 0.93409 0.27143 0.26933 0.0
C697 C 0.91527 0.29936 0.27791 0.0
C698 C 0.91729 0.24467 0.25629 0.0
C699 C 0.93561 0.21424 0.24697 0.0
C700 C 0.96325 0.21714 0.22954 0.0
C701 C 0.98074 0.18835 0.22129 0.0
C702 C 0.97066 0.15648 0.23019 0.0
C703 C 0.94301 0.15333 0.24729 0.0
C704 C 0.92546 0.18205 0.25561 0.0
C705 C 0.77866 0.3077 0.23441 0.0
C706 C 0.75781 0.27928 0.23732 0.0
C707 C 0.81273 0.30633 0.24169 0.0
C708 C 0.82668 0.27684 0.25292 0.0
C709 C 0.80562 0.2486 0.25628 0.0
C710 C 0.77171 0.24971 0.24837 0.0
C711 C 0.8634 0.27502 0.26002 0.0
C712 C 0.88236 0.24692 0.25165 0.0
C713 C 0.88016 0.30121 0.27401 0.0
C714 C 0.86158 0.32988 0.28609 0.0
C715 C 0.83441 0.32402 0.30354 0.0
C716 C 0.81704 0.3511 0.31492 0.0
C717 C 0.82677 0.38418 0.30918 0.0
C718 C 0.85393 0.39025 0.29208 0.0
C719 C 0.87136 0.36326 0.28061 0.0
H720 H 0.81331 0.40511 0.31804 0.0
H721 H 0.98424 0.13423 0.2238 0.0
H722 H 0.31008 0.52798 0.81001 0.0
H723 H 0.30833 0.46798 0.79872 0.0
H724 H 0.22053 0.48534 0.7499 0.0
H725 H 0.22341 0.54599 0.75982 0.0
H726 H 0.21904 0.42746 0.79137 0.0
H727 H 0.28318 0.47352 0.71712 0.0
H728 H 0.32978 0.50663 0.6978 0.0
H729 H 0.40174 0.44327 0.73791 0.0
H730 H 0.35552 0.41009 0.75782 0.0
H731 H 0.20458 0.26835 0.72912 0.0
H732 H 0.20657 0.32773 0.74125 0.0
H733 H 0.31289 0.3186 0.75806 0.0
H734 H 0.31132 0.2594 0.74431 0.0
H735 H 0.30543 0.37335 0.73404 0.0
H736 H 0.24703 0.32714 0.80847 0.0
H737 H 0.204 0.29419 0.83259 0.0
H738 H 0.12596 0.35649 0.79917 0.0
H739 H 0.16849 0.38956 0.77455 0.0
C740 C 0.29072 0.51919 0.7965 0.0
C741 C 0.2668 0.54181 0.78588 0.0
C742 C 0.28959 0.48481 0.79026 0.0
C743 C 0.26422 0.47214 0.77358 0.0
C744 C 0.24017 0.49455 0.763 0.0
C745 C 0.24172 0.52914 0.7688 0.0
C746 C 0.26304 0.4355 0.76717 0.0
C747 C 0.23758 0.41559 0.77852 0.0
C748 C 0.2881 0.41986 0.75139 0.0
C749 C 0.31588 0.43955 0.73918 0.0
C750 C 0.30893 0.46684 0.72202 0.0
C751 C 0.33528 0.48558 0.71092 0.0
C752 C 0.3687 0.47712 0.71668 0.0
C753 C 0.37584 0.44982 0.73349 0.0
C754 C 0.34958 0.43103 0.74467 0.0
C755 C 0.22834 0.27881 0.73574 0.0
C756 C 0.25775 0.25893 0.73591 0.0
C757 C 0.22944 0.31293 0.74283 0.0
C758 C 0.25977 0.32795 0.75113 0.0
C759 C 0.2891 0.30791 0.75175 0.0
C760 C 0.28816 0.27391 0.74404 0.0
C761 C 0.26109 0.36474 0.75807 0.0
C762 C 0.28672 0.38486 0.74691 0.0
C763 C 0.23664 0.38042 0.77467 0.0
C764 C 0.21095 0.36062 0.78945 0.0
C765 C 0.22067 0.33366 0.8061 0.0
C766 C 0.19637 0.31499 0.81989 0.0
C767 C 0.16226 0.32319 0.81736 0.0
C768 C 0.15239 0.35014 0.80109 0.0
C769 C 0.17658 0.36888 0.78723 0.0
H770 H 0.14349 0.3087 0.82806 0.0
H771 H 0.38906 0.49166 0.70807 0.0
H772 H 0.99309 0.7159 0.26941 0.0
H773 H 0.05336 0.71072 0.25885 0.0
H774 H 0.07107 0.80904 0.29242 0.0
H775 H 1.01141 0.81367 0.30402 0.0
H776 H 0.10221 0.79946 0.24221 0.0
H777 H 0.09251 0.74093 0.32726 0.0
H778 H 0.06877 0.69763 0.35729 0.0
H779 H 0.10205 0.61971 0.30405 0.0
H780 H 0.12577 0.66257 0.27359 0.0
H781 H 0.27901 0.80424 0.24487 0.0
H782 H 0.21974 0.80522 0.25801 0.0
H783 H 0.21219 0.69872 0.24179 0.0
H784 H 0.27197 0.69734 0.22986 0.0
H785 H 0.17467 0.71034 0.28185 0.0
H786 H 0.18329 0.76309 0.1968 0.0
H787 H 0.20437 0.8027 0.16263 0.0
H788 H 0.17005 0.88645 0.20957 0.0
H789 H 0.14914 0.84732 0.2442 0.0
C790 C 1.00989 0.73629 0.27471 0.0
C791 C 0.99727 0.76528 0.28745 0.0
C792 C 0.04434 0.73334 0.26861 0.0
C793 C 0.06691 0.75945 0.27491 0.0
C794 C 0.05424 0.78861 0.28723 0.0
C795 C 0.01995 0.79136 0.29363 0.0
C796 C 0.10368 0.75665 0.26866 0.0
C797 C 0.11815 0.78024 0.25114 0.0
C798 C 0.12432 0.73077 0.27944 0.0
C799 C 0.11063 0.70499 0.29802 0.0
C800 C 0.09461 0.71457 0.32189 0.0
C801 C 0.08122 0.6901 0.33902 0.0
C802 C 0.08387 0.65593 0.33258 0.0
C803 C 0.10007 0.64617 0.30905 0.0
C804 C 0.11353 0.67054 0.29186 0.0
C805 C 0.26488 0.78091 0.24441 0.0
C806 C 0.28039 0.75074 0.23617 0.0
C807 C 0.23075 0.78154 0.25171 0.0
C808 C 0.21084 0.75223 0.25025 0.0
C809 C 0.22666 0.7218 0.24303 0.0
C810 C 0.26099 0.72103 0.2362 0.0
C811 C 0.17356 0.75356 0.25558 0.0
C812 C 0.15888 0.72963 0.27285 0.0
C813 C 0.15245 0.77861 0.24399 0.0
C814 C 0.16495 0.80227 0.22322 0.0
C815 C 0.18045 0.78996 0.19993 0.0
C816 C 0.19234 0.81232 0.18046 0.0
C817 C 0.18863 0.84707 0.18396 0.0
C818 C 0.17295 0.85952 0.2069 0.0
C819 C 0.16105 0.83726 0.22645 0.0
H820 H 0.19785 0.86435 0.16887 0.0
H821 H 0.07339 0.63704 0.34582 0.0
H822 H 0.72757 0.77852 0.74271 0.0
H823 H 0.72672 0.71918 0.75664 0.0
H824 H 0.83427 0.71314 0.74573 0.0
H825 H 0.83549 0.77258 0.73228 0.0
H826 H 0.79612 0.66009 0.72014 0.0
H827 H 0.8071 0.71367 0.80621 0.0
H828 H 0.7905 0.75362 0.8415 0.0
H829 H 0.69351 0.70634 0.84726 0.0
H830 H 0.70937 0.66638 0.81171 0.0
H831 H 0.81872 0.49428 0.77114 0.0
H832 H 0.82302 0.55446 0.76094 0.0
H833 H 0.72513 0.57099 0.79615 0.0
H834 H 0.72248 0.51168 0.8088 0.0
H835 H 0.7596 0.62 0.80948 0.0
H836 H 0.74379 0.56898 0.72388 0.0
H837 H 0.7554 0.53002 0.68668 0.0
H838 H 0.85405 0.57271 0.67719 0.0
H839 H 0.84317 0.61166 0.71456 0.0
C840 C 0.75113 0.76473 0.7436 0.0
C841 C 0.78162 0.7805 0.73645 0.0
C842 C 0.75059 0.73076 0.75155 0.0
C843 C 0.78043 0.71162 0.75219 0.0
C844 C 0.81093 0.72735 0.74535 0.0
C845 C 0.81158 0.76145 0.73785 0.0
C846 C 0.77969 0.67502 0.75929 0.0
C847 C 0.78858 0.65126 0.73978 0.0
C848 C 0.76876 0.66343 0.7846 0.0
C849 C 0.75932 0.68724 0.80613 0.0
C850 C 0.78214 0.71196 0.81485 0.0
C851 C 0.77288 0.73457 0.83493 0.0
C852 C 0.74094 0.73257 0.84657 0.0
C853 C 0.71823 0.70788 0.8382 0.0
C854 C 0.72735 0.68522 0.81811 0.0
C855 C 0.79833 0.51083 0.77703 0.0
C856 C 0.7702 0.49794 0.79075 0.0
C857 C 0.80053 0.54531 0.77077 0.0
C858 C 0.7741 0.56765 0.77719 0.0
C859 C 0.74594 0.55464 0.7908 0.0
C860 C 0.74416 0.5204 0.79767 0.0
C861 C 0.77585 0.60454 0.77023 0.0
C862 C 0.76716 0.62852 0.78976 0.0
C863 C 0.78618 0.61632 0.74468 0.0
C864 C 0.79278 0.593 0.72218 0.0
C865 C 0.76803 0.5699 0.71397 0.0
C866 C 0.77447 0.54784 0.69284 0.0
C867 C 0.80548 0.54883 0.67963 0.0
C868 C 0.83007 0.57194 0.68747 0.0
C869 C 0.82377 0.59404 0.7086 0.0
H870 H 0.81041 0.53173 0.66328 0.0
H871 H 0.73382 0.75011 0.86211 0.0
H872 H 0.21609 0.20225 0.39466 0.0
H873 H 0.22897 0.18934 0.44122 0.0
H874 H 0.15931 0.2667 0.46657 0.0
H875 H 0.14844 0.28137 0.41973 0.0
H876 H 0.20829 0.26953 0.49738 0.0
H877 H 0.14249 0.17606 0.46852 0.0
H878 H 0.12612 0.12903 0.43915 0.0
H879 H 0.22042 0.0796 0.45497 0.0
H880 H 0.23756 0.12654 0.48417 0.0
H881 H 0.18978 0.20139 0.62954 0.0
H882 H 0.17791 0.21344 0.58254 0.0
H883 H 0.27513 0.17364 0.56054 0.0
H884 H 0.28768 0.16215 0.60778 0.0
H885 H 0.21155 0.15093 0.52921 0.0
H886 H 0.27431 0.24932 0.55936 0.0
H887 H 0.28452 0.29641 0.59036 0.0
H888 H 0.18576 0.33583 0.57403 0.0
H889 H 0.17478 0.28864 0.54323 0.0
C890 C 0.20351 0.21646 0.41021 0.0
C891 C 0.18109 0.24264 0.40365 0.0
C892 C 0.21067 0.20888 0.43688 0.0
C893 C 0.19445 0.22633 0.45765 0.0
C894 C 0.17213 0.25271 0.45104 0.0
C895 C 0.16581 0.26104 0.42429 0.0
C896 C 0.20132 0.21749 0.48617 0.0
C897 C 0.20849 0.24357 0.50425 0.0
C898 C 0.20193 0.1836 0.49546 0.0
C899 C 0.19143 0.15498 0.47835 0.0
C900 C 0.1598 0.15523 0.46565 0.0
C901 C 0.15038 0.12859 0.44903 0.0
C902 C 0.17227 0.10142 0.44513 0.0
C903 C 0.20352 0.1007 0.45798 0.0
C904 C 0.21308 0.1273 0.47459 0.0
C905 C 0.20866 0.19506 0.61474 0.0
C906 C 0.23975 0.18089 0.62241 0.0
C907 C 0.20181 0.20201 0.58791 0.0
C908 C 0.22565 0.19445 0.56817 0.0
C909 C 0.25642 0.1796 0.57557 0.0
C910 C 0.26359 0.17321 0.60253 0.0
C911 C 0.21859 0.20289 0.53987 0.0
C912 C 0.21127 0.17677 0.52203 0.0
C913 C 0.21683 0.2367 0.53098 0.0
C914 C 0.22362 0.26528 0.54921 0.0
C915 C 0.25467 0.26787 0.56256 0.0
C916 C 0.26062 0.29461 0.58006 0.0
C917 C 0.23577 0.31905 0.58421 0.0
C918 C 0.20497 0.31686 0.57081 0.0
C919 C 0.19889 0.29014 0.55332 0.0
H920 H 0.24042 0.33973 0.59777 0.0
H921 H 0.16502 0.08093 0.43216 0.0
H922 H 0.33641 0.78638 0.11275 0.0
H923 H 0.32355 0.774 0.06588 0.0
H924 H 0.36596 0.67449 0.07513 0.0
H925 H 0.37839 0.68636 0.12203 0.0
H926 H 0.38589 0.71007 0.0269 0.0
H927 H 0.2862 0.67936 0.07696 0.0
H928 H 0.24001 0.69038 0.10873 0.0
H929 H 0.20433 0.77148 0.05914 0.0
H930 H 0.25065 0.76125 0.02726 0.0
H931 H 0.32904 0.63792 0.90675 0.0
H932 H 0.34153 0.64828 0.95384 0.0
H933 H 0.27127 0.73165 0.95367 0.0
H934 H 0.25664 0.71916 0.90722 0.0
H935 H 0.26637 0.70485 0.99814 0.0
H936 H 0.3647 0.7385 0.9484 0.0
H937 H 0.41136 0.73065 0.91643 0.0
H938 H 0.45062 0.64953 0.96427 0.0
H939 H 0.40404 0.65674 0.99643 0.0
C940 C 0.34322 0.76195 0.10477 0.0
C941 C 0.35826 0.73729 0.12119 0.0
C942 C 0.33578 0.7549 0.07802 0.0
C943 C 0.34366 0.72326 0.06711 0.0
C944 C 0.35968 0.69903 0.08318 0.0
C945 C 0.36663 0.70585 0.11001 0.0
C946 C 0.33421 0.71497 0.03921 0.0
C947 C 0.35979 0.70863 0.02057 0.0
C948 C 0.30018 0.71389 0.03091 0.0
C949 C 0.27208 0.71976 0.04988 0.0
C950 C 0.26866 0.69971 0.07294 0.0
C951 C 0.24243 0.70579 0.09095 0.0
C952 C 0.21931 0.73168 0.086 0.0
C953 C 0.2223 0.75147 0.06297 0.0
C954 C 0.24851 0.74553 0.04492 0.0
C955 C 0.31607 0.65821 0.91695 0.0
C956 C 0.29201 0.67785 0.90344 0.0
C957 C 0.32349 0.66444 0.94379 0.0
C958 C 0.30828 0.69157 0.95731 0.0
C959 C 0.28358 0.71068 0.94385 0.0
C960 C 0.27523 0.70361 0.91728 0.0
C961 C 0.3181 0.70016 0.98532 0.0
C962 C 0.29257 0.70648 1.00416 0.0
C963 C 0.35228 0.70185 0.99367 0.0
C964 C 0.38074 0.698 0.9747 0.0
C965 C 0.38325 0.71895 0.95206 0.0
C966 C 0.40967 0.71461 0.93391 0.0
C967 C 0.43389 0.68956 0.93829 0.0
C968 C 0.43184 0.66892 0.9609 0.0
C969 C 0.40547 0.67316 0.97912 0.0
H970 H 0.45428 0.68617 0.92418 0.0
H971 H 0.19903 0.73635 0.09997 0.0
H972 H 0.84653 0.88237 0.62202 0.0
H973 H 0.85939 0.87095 0.57498 0.0
H974 H 0.76403 0.82035 0.56626 0.0
H975 H 0.75048 0.83248 0.61307 0.0
H976 H 0.8306 0.78484 0.548 0.0
H977 H 0.76247 0.88687 0.53957 0.0
H978 H 0.74901 0.94604 0.55026 0.0
H979 H 0.8466 0.97679 0.52238 0.0
H980 H 0.86082 0.91768 0.5119 0.0
H981 H 0.82647 0.75482 0.40942 0.0
H982 H 0.81406 0.76831 0.45591 0.0
H983 H 0.87909 0.85531 0.4508 0.0
H984 H 0.88949 0.84311 0.40359 0.0
H985 H 0.82956 0.87305 0.47749 0.0
H986 H 0.90015 0.77628 0.48481 0.0
H987 H 0.91986 0.71837 0.47597 0.0
H988 H 0.82781 0.67859 0.50818 0.0
H989 H 0.80734 0.73629 0.51688 0.0
C990 C 0.82821 0.86897 0.61005 0.0
C991 C 0.79747 0.85833 0.62126 0.0
C992 C 0.8356 0.8625 0.58321 0.0
C993 C 0.81267 0.84478 0.56725 0.0
C994 C 0.78202 0.83405 0.57833 0.0
C995 C 0.77428 0.84114 0.60501 0.0
C996 C 0.82094 0.83702 0.53906 0.0
C997 C 0.83 0.80392 0.53242 0.0
C998 C 0.82151 0.8623 0.51914 0.0
C999 C 0.81284 0.89783 0.52524 0.0
C1000 C 0.78118 0.9062 0.53597 0.0
C1001 C 0.77338 0.93974 0.54193 0.0
C1002 C 0.79697 0.96515 0.53708 0.0
C1003 C 0.82837 0.95708 0.52617 0.0
C1004 C 0.8363 0.92358 0.5202 0.0
C1005 C 0.83824 0.77673 0.41829 0.0
C1006 C 0.85908 0.79783 0.40294 0.0
C1007 C 0.83133 0.78434 0.44499 0.0
C1008 C 0.8462 0.81246 0.45732 0.0
C1009 C 0.86724 0.83345 0.44194 0.0
C1010 C 0.87332 0.82641 0.41496 0.0
C1011 C 0.8391 0.82045 0.48594 0.0
C1012 C 0.83033 0.8537 0.49284 0.0
C1013 C 0.83977 0.79541 0.5063 0.0
C1014 C 0.85209 0.76064 0.50127 0.0
C1015 C 0.88402 0.75519 0.48986 0.0
C1016 C 0.89534 0.7224 0.48489 0.0
C1017 C 0.87506 0.69482 0.49145 0.0
C1018 C 0.84347 0.69998 0.50308 0.0
C1019 C 0.83201 0.73272 0.50806 0.0
H1020 H 0.88387 0.66946 0.48758 0.0
H1021 H 0.79089 0.9911 0.54171 0.0
H1022 H 0.6855 0.24659 0.11439 0.0
H1023 H 0.69899 0.25735 0.06743 0.0
H1024 H 0.68109 0.36359 0.07907 0.0
H1025 H 0.66816 0.35323 0.12601 0.0
H1026 H 0.66569 0.28301 0.02587 0.0
H1027 H 0.73644 0.40892 0.04229 0.0
H1028 H 0.76964 0.43704 0.07741 0.0
H1029 H 0.7973 0.34074 0.11028 0.0
H1030 H 0.76467 0.31205 0.07515 0.0
H1031 H 0.68754 0.36612 0.90206 0.0
H1032 H 0.67473 0.35355 0.94871 0.0
H1033 H 0.77955 0.33123 0.96336 0.0
H1034 H 0.79273 0.34435 0.91674 0.0
H1035 H 0.75457 0.36634 1.00349 0.0
H1036 H 0.72115 0.2679 0.95543 0.0
H1037 H 0.69153 0.23598 0.92038 0.0
H1038 H 0.59623 0.26985 0.95091 0.0
H1039 H 0.62531 0.30236 0.98593 0.0
C1040 C 0.68425 0.27224 0.10695 0.0
C1041 C 0.67607 0.29907 0.12411 0.0
C1042 C 0.69192 0.27833 0.08006 0.0
C1043 C 0.69162 0.31134 0.06981 0.0
C1044 C 0.68218 0.33799 0.08664 0.0
C1045 C 0.67466 0.33197 0.1135 0.0
C1046 C 0.70186 0.31808 0.0417 0.0
C1047 C 0.6851 0.30125 0.02099 0.0
C1048 C 0.72768 0.34138 0.03528 0.0
C1049 C 0.74784 0.35837 0.05623 0.0
C1050 C 0.74974 0.39375 0.05694 0.0
C1051 C 0.76843 0.40979 0.07687 0.0
C1052 C 0.78548 0.39069 0.09612 0.0
C1053 C 0.78398 0.35551 0.09542 0.0
C1054 C 0.76537 0.33935 0.07552 0.0
C1055 C 0.70795 0.35859 0.91517 0.0
C1056 C 0.74119 0.35608 0.90555 0.0
C1057 C 0.70052 0.35128 0.94186 0.0
C1058 C 0.72607 0.3409 0.95949 0.0
C1059 C 0.75939 0.3391 0.95013 0.0
C1060 C 0.76689 0.3466 0.92344 0.0
C1061 C 0.71795 0.33176 0.98762 0.0
C1062 C 0.73512 0.34814 1.00836 0.0
C1063 C 0.69301 0.30752 0.99406 0.0
C1064 C 0.67543 0.28779 0.97316 0.0
C1065 C 0.69388 0.26872 0.95456 0.0
C1066 C 0.67719 0.2505 0.93471 0.0
C1067 C 0.64202 0.25095 0.93338 0.0
C1068 C 0.62347 0.26955 0.95195 0.0
C1069 C 0.64004 0.28785 0.97182 0.0
H1070 H 0.62915 0.23683 0.918 0.0
H1071 H 0.7999 0.40315 0.11154 0.0
H1072 H 0.89704 0.93646 0.31805 0.0
H1073 H 0.93258 0.98703 0.3161 0.0
H1074 H 0.02107 0.92495 0.32751 0.0
H1075 H 0.9856 0.87539 0.33169 0.0
H1076 H 0.02843 0.97363 0.35657 0.0
H1077 H 0.9948 0.96542 0.265 0.0
H1078 H 0.95606 0.96198 0.2266 0.0
H1079 H 0.91384 0.0583 0.24697 0.0
H1080 H 0.95192 0.06207 0.28577 0.0
H1081 H 0.14567 0.10463 0.31433 0.0
H1082 H 0.11074 0.05353 0.31085 0.0
H1083 H 0.02485 0.10893 0.3401 0.0
H1084 H 0.05948 0.15936 0.34451 0.0
H1085 H 1.01802 0.06464 0.2889 0.0
H1086 H 0.05276 0.06761 0.38294 0.0
H1087 H 0.09539 0.06932 0.41878 0.0
H1088 H 0.14102 0.97903 0.38832 0.0
H1089 H 0.09899 0.97714 0.35201 0.0
C1090 C 0.9241 0.93384 0.32007 0.0
C1091 C 0.9386 0.90217 0.32514 0.0
C1092 C 0.94446 0.96265 0.31872 0.0
C1093 C 0.97973 0.95994 0.32136 0.0
C1094 C 0.99403 0.92797 0.32565 0.0
C1095 C 0.9737 0.89957 0.32796 0.0
C1096 C 1.00188 0.99021 0.32115 0.0
C1097 C 0.02633 0.99309 0.34139 0.0
C1098 C 0.99914 1.01617 0.30169 0.0
C1099 C 0.97596 1.01382 0.27851 0.0
C1100 C 0.97703 0.98572 0.26146 0.0
C1101 C 0.95521 0.98373 0.23959 0.0
C1102 C 0.93242 1.00985 0.23441 0.0
C1103 C 0.93143 0.03804 0.25105 0.0
C1104 C 0.95313 0.04011 0.27299 0.0
C1105 C 0.11938 0.10576 0.32006 0.0
C1106 C 0.10535 0.13579 0.32991 0.0
C1107 C 0.09952 0.07672 0.31801 0.0
C1108 C 0.06532 0.07774 0.32516 0.0
C1109 C 0.05119 0.10783 0.33445 0.0
C1110 C 0.07111 0.13647 0.33715 0.0
C1111 C 0.04424 0.04723 0.32391 0.0
C1112 C 0.02002 0.04464 0.30366 0.0
C1113 C 0.04765 0.0211 0.34287 0.0
C1114 C 0.07302 0.02249 0.36458 0.0
C1115 C 0.07214 0.04838 0.38369 0.0
C1116 C 0.09613 0.04932 0.40413 0.0
C1117 C 0.12093 0.02433 0.40579 0.0
C1118 C 0.12183 0.99839 0.38698 0.0
C1119 C 0.09794 0.99738 0.36648 0.0
H1120 H 0.13937 0.02495 0.4217 0.0
H1121 H 0.91558 1.00828 0.21745 0.0
H1122 H 0.38019 0.55828 0.84709 0.0
H1123 H 0.4318 0.52537 0.84533 0.0
H1124 H 0.48431 0.61015 0.8108 0.0
H1125 H 0.43182 0.64326 0.81165 0.0
H1126 H 0.50445 0.55236 0.788 0.0
H1127 H 0.49308 0.59279 0.87663 0.0
H1128 H 0.46408 0.60486 0.91911 0.0
H1129 H 0.45019 0.49883 0.93274 0.0
H1130 H 0.47866 0.48614 0.89012 0.0
H1131 H 0.65145 0.46801 0.86723 0.0
H1132 H 0.60326 0.50564 0.86458 0.0
H1133 H 0.56237 0.44678 0.79991 0.0
H1134 H 0.61151 0.40917 0.80193 0.0
H1135 H 0.5401 0.49723 0.8726 0.0
H1136 H 0.51909 0.49979 0.75738 0.0
H1137 H 0.55286 0.49419 0.71623 0.0
H1138 H 0.64135 0.52606 0.7585 0.0
H1139 H 0.60803 0.53245 0.79974 0.0
C1140 C 0.40268 0.57008 0.83914 0.0
C1141 C 0.40215 0.60357 0.82992 0.0
C1142 C 0.43218 0.55117 0.83813 0.0
C1143 C 0.46205 0.56554 0.82849 0.0
C1144 C 0.46151 0.59868 0.81846 0.0
C1145 C 0.43165 0.61758 0.81908 0.0
C1146 C 0.4938 0.54594 0.82991 0.0
C1147 C 0.51236 0.54036 0.80647 0.0
C1148 C 0.5046 0.53108 0.85421 0.0
C1149 C 0.48782 0.53853 0.88007 0.0
C1150 C 0.48367 0.57205 0.8886 0.0
C1151 C 0.46734 0.57901 0.91272 0.0
C1152 C 0.45525 0.55263 0.92859 0.0
C1153 C 0.45956 0.51924 0.92041 0.0
C1154 C 0.47583 0.51214 0.89629 0.0
C1155 C 0.63222 0.46286 0.85245 0.0
C1156 C 0.63532 0.43557 0.83474 0.0
C1157 C 0.60461 0.48445 0.851 0.0
C1158 C 0.57937 0.47926 0.83191 0.0
C1159 C 0.58188 0.45156 0.81454 0.0
C1160 C 0.60977 0.42994 0.81585 0.0
C1161 C 0.55042 0.50286 0.83055 0.0
C1162 C 0.53233 0.50923 0.85408 0.0
C1163 C 0.54097 0.51943 0.80658 0.0
C1164 C 0.56109 0.51622 0.78172 0.0
C1165 C 0.54572 0.50575 0.75786 0.0
C1166 C 0.56479 0.50244 0.73452 0.0
C1167 C 0.59924 0.50966 0.73478 0.0
C1168 C 0.61468 0.52037 0.75834 0.0
C1169 C 0.59572 0.52382 0.78171 0.0
H1170 H 0.61396 0.50702 0.7167 0.0
H1171 H 0.4426 0.55807 0.94724 0.0
H1172 H 0.44853 0.6232 0.15453 0.0
H1173 H 0.48648 0.5758 0.16112 0.0
H1174 H 0.45292 0.56599 0.24277 0.0
H1175 H 0.415 0.61441 0.23643 0.0
H1176 H 0.5206 0.56546 0.23968 0.0
H1177 H 0.43241 0.5053 0.19723 0.0
H1178 H 0.38834 0.49412 0.16371 0.0
H1179 H 0.46314 0.49161 0.10177 0.0
H1180 H 0.50764 0.50319 0.13487 0.0
H1181 H 0.61944 0.41134 0.24556 0.0
H1182 H 0.57572 0.45469 0.24865 0.0
H1183 H 0.59718 0.48603 0.16785 0.0
H1184 H 0.64058 0.44258 0.16443 0.0
H1185 H 0.53019 0.47025 0.17611 0.0
H1186 H 0.61734 0.53589 0.21944 0.0
H1187 H 0.66059 0.54652 0.25376 0.0
H1188 H 0.58598 0.53665 0.31541 0.0
H1189 H 0.54236 0.52554 0.28145 0.0
C1190 C 0.44876 0.61073 0.17382 0.0
C1191 C 0.42876 0.62257 0.19497 0.0
C1192 C 0.47039 0.58346 0.17751 0.0
C1193 C 0.4723 0.56711 0.20235 0.0
C1194 C 0.45171 0.57821 0.2234 0.0
C1195 C 0.42992 0.60567 0.2197 0.0
C1196 C 0.49758 0.54 0.20638 0.0
C1197 C 0.52229 0.54419 0.22618 0.0
C1198 C 0.5 0.5125 0.18855 0.0
C1199 C 0.47335 0.50531 0.16855 0.0
C1200 C 0.43944 0.50257 0.17644 0.0
C1201 C 0.41439 0.49612 0.15752 0.0
C1202 C 0.42293 0.49221 0.13062 0.0
C1203 C 0.45656 0.49464 0.12261 0.0
C1204 C 0.48172 0.50108 0.14146 0.0
C1205 C 0.61528 0.42785 0.2286 0.0
C1206 C 0.63316 0.42319 0.2046 0.0
C1207 C 0.59033 0.45266 0.23045 0.0
C1208 C 0.58307 0.47333 0.2084 0.0
C1209 C 0.60229 0.4701 0.18502 0.0
C1210 C 0.62724 0.44539 0.18317 0.0
C1211 C 0.55376 0.49643 0.20874 0.0
C1212 C 0.52821 0.49128 0.18984 0.0
C1213 C 0.55046 0.52276 0.22754 0.0
C1214 C 0.57668 0.52949 0.24793 0.0
C1215 C 0.61022 0.53568 0.24033 0.0
C1216 C 0.63479 0.54186 0.25971 0.0
C1217 C 0.62606 0.54215 0.28676 0.0
C1218 C 0.59272 0.53636 0.29446 0.0
C1219 C 0.56806 0.53015 0.27515 0.0
H1220 H 0.64511 0.54694 0.30173 0.0
H1221 H 0.40348 0.48724 0.116 0.0
H1222 H 0.1326 0.08598 0.65923 0.0
H1223 H 0.08432 0.04937 0.66628 0.0
H1224 H 0.06695 0.09466 0.7433 0.0
H1225 H 0.11575 0.13174 0.7364 0.0
H1226 H 0.07586 1.00201 0.7058 0.0
H1227 H 0.97828 0.0908 0.75201 0.0
H1228 H 0.96421 0.15142 0.75375 0.0
H1229 H 1.0088 0.16611 0.67643 0.0
H1230 H 0.02271 0.10554 0.6741 0.0
H1231 H 0.92322 0.90744 0.73301 0.0
H1232 H 0.97192 0.94457 0.73998 0.0
H1233 H 0.94353 1.00273 0.67054 0.0
H1234 H 0.89537 0.96611 0.66339 0.0
H1235 H 0.95809 0.04292 0.71368 0.0
H1236 H 1.00539 0.94651 0.66644 0.0
H1237 H 0.01907 0.88622 0.66099 0.0
H1238 H 0.07493 0.88735 0.73446 0.0
H1239 H 0.06117 0.94759 0.74051 0.0
C1240 C 0.11844 0.08845 0.67762 0.0
C1241 C 0.12803 0.11174 0.69729 0.0
C1242 C 0.09098 0.06731 0.68168 0.0
C1243 C 0.07233 0.0691 0.70539 0.0
C1244 C 0.08111 0.09294 0.72485 0.0
C1245 C 0.10882 0.11418 0.72082 0.0
C1246 C 0.04377 0.04571 0.70924 0.0
C1247 C 0.05012 1.01091 0.7079 0.0
C1248 C 1.0103 0.05737 0.71203 0.0
C1249 C 1.00194 0.09378 0.71308 0.0
C1250 C 0.98504 0.10699 0.73539 0.0
C1251 C 0.97708 0.14133 0.73647 0.0
C1252 C 0.98575 0.16263 0.71527 0.0
C1253 C 1.00226 0.14962 0.69289 0.0
C1254 C 1.01023 0.1153 0.6917 0.0
C1255 C 0.9276 0.92796 0.71912 0.0
C1256 C 0.90549 0.9338 0.69763 0.0
C1257 C 0.95528 0.9492 0.7232 0.0
C1258 C 0.96107 0.9765 0.70587 0.0
C1259 C 0.93925 0.98202 0.6843 0.0
C1260 C 0.91185 0.96086 0.68015 0.0
C1261 C 0.99013 0.99929 0.70946 0.0
C1262 C 0.98389 0.03396 0.71235 0.0
C1263 C 0.02369 0.98755 0.70773 0.0
C1264 C 0.03187 0.95138 0.70411 0.0
C1265 C 0.02031 0.93381 0.68155 0.0
C1266 C 0.02814 0.89967 0.67833 0.0
C1267 C 0.04775 0.88293 0.69742 0.0
C1268 C 0.05966 0.90032 0.71973 0.0
C1269 C 0.05187 0.93445 0.72306 0.0
H1270 H 0.05379 0.85651 0.69488 0.0
H1271 H 0.97958 0.1892 0.71615 0.0
loop_
_geom_bond_atom_site_label_1
_geom_bond_atom_site_label_2
_geom_bond_distance
_geom_bond_site_symmetry_2
_ccdc_geom_bond_type
Co0 O3 1.970 . S
Co0 N17 1.989 . S
Co0 O25 1.967 . S
Co0 O32 1.920 . S
Co1 O4 1.966 . S
Co1 N10 2.022 . S
Co1 N18 1.993 . S
Co1 O26 1.941 . S
C2 O3 1.258 . S
C2 O4 1.263 . S
O3 Co0 1.970 . S
O3 C2 1.258 . S
O4 Co1 1.966 . S
O4 C2 1.263 . S
C5 O6 1.235 . S
C5 O32 1.289 . S
O6 C5 1.235 . S
C7 C9 1.400 . S
C7 N10 1.351 . S
C7 C12 1.501 . S
C8 C9 1.387 . S
C8 N11 1.341 . S
C9 C7 1.400 . S
C9 C8 1.387 . S
N10 Co1 2.022 . S
N10 C7 1.351 . S
N10 N11 1.365 . S
N11 C8 1.341 . S
N11 N10 1.365 . S
N11 H31 0.862 . S
C12 C7 1.501 . S
C12 H13 0.961 . S
C12 H14 0.961 . S
C12 H15 0.960 . S
H13 C12 0.961 . S
H14 C12 0.961 . S
H15 C12 0.960 . S
C16 N17 1.342 1_655 S
C16 C20 1.401 . S
C16 C21 1.499 . S
N17 Co0 1.989 . S
N17 C16 1.342 1_455 S
N17 N18 1.388 . S
N18 Co1 1.993 . S
N18 N17 1.388 . S
N18 C19 1.346 1_455 S
C19 N18 1.346 1_655 S
C19 C20 1.396 . S
C19 C29 1.510 . S
C20 C16 1.401 . S
C20 C19 1.396 . S
C21 C16 1.499 . S
C21 H22 0.959 1_655 S
C21 H23 0.960 . S
C21 H24 0.961 . S
H22 C21 0.959 1_455 S
H23 C21 0.960 . S
H24 C21 0.961 . S
O25 Co0 1.967 . S
O25 C33 1.258 . S
O26 Co1 1.941 . S
O26 C33 1.266 . S
H27 C29 0.959 . S
H28 C29 0.961 . S
C29 C19 1.510 . S
C29 H27 0.959 . S
C29 H28 0.961 . S
C29 H30 0.960 1_655 S
H30 C29 0.960 1_455 S
H31 N11 0.862 . S
O32 Co0 1.920 . S
O32 C5 1.289 . S
C33 O25 1.258 . S
C33 O26 1.266 . S
Co34 O37 1.970 . S
Co34 N51 1.989 . S
Co34 O59 1.967 . S
Co34 O66 1.920 . S
Co35 O38 1.966 . S
Co35 N44 2.022 . S
Co35 N52 1.993 . S
Co35 O60 1.941 . S
C36 O37 1.258 . S
C36 O38 1.263 . S
O37 Co34 1.970 . S
O37 C36 1.258 . S
O38 Co35 1.966 . S
O38 C36 1.263 . S
C39 O40 1.235 . S
C39 O66 1.289 . S
O40 C39 1.235 . S
C41 C43 1.400 . S
C41 N44 1.351 . S
C41 C46 1.501 . S
C42 C43 1.387 . S
C42 N45 1.341 . S
C43 C41 1.400 . S
C43 C42 1.387 . S
N44 Co35 2.022 . S
N44 C41 1.351 . S
N44 N45 1.365 . S
N45 C42 1.341 . S
N45 N44 1.365 . S
N45 H65 0.862 . S
C46 C41 1.501 . S
C46 H47 0.961 . S
C46 H48 0.961 . S
C46 H49 0.960 . S
H47 C46 0.961 . S
H48 C46 0.961 . S
H49 C46 0.960 . S
C50 N51 1.342 . S
C50 C54 1.401 . S
C50 C55 1.499 . S
N51 Co34 1.989 . S
N51 C50 1.342 . S
N51 N52 1.388 . S
N52 Co35 1.993 . S
N52 N51 1.388 . S
N52 C53 1.346 . S
C53 N52 1.346 . S
C53 C54 1.396 . S
C53 C63 1.510 . S
C54 C50 1.401 . S
C54 C53 1.396 . S
C55 C50 1.499 . S
C55 H56 0.959 . S
C55 H57 0.960 . S
C55 H58 0.961 . S
H56 C55 0.959 . S
H57 C55 0.960 . S
H58 C55 0.961 . S
O59 Co34 1.967 . S
O59 C67 1.258 . S
O60 Co35 1.941 . S
O60 C67 1.266 . S
H61 C63 0.959 . S
H62 C63 0.961 . S
C63 C53 1.510 . S
C63 H61 0.959 . S
C63 H62 0.961 . S
C63 H64 0.960 . S
H64 C63 0.960 . S
H65 N45 0.862 . S
O66 Co34 1.920 . S
O66 C39 1.289 . S
C67 O59 1.258 . S
C67 O60 1.266 . S
Co68 O71 1.970 . S
Co68 N85 1.989 . S
Co68 O93 1.967 . S
Co68 O100 1.920 . S
Co69 O72 1.966 . S
Co69 N78 2.022 . S
Co69 N86 1.993 . S
Co69 O94 1.941 . S
C70 O71 1.258 . S
C70 O72 1.263 . S
O71 Co68 1.970 . S
O71 C70 1.258 . S
O72 Co69 1.966 . S
O72 C70 1.263 . S
C73 O74 1.235 . S
C73 O100 1.289 . S
O74 C73 1.235 . S
C75 C77 1.400 . S
C75 N78 1.351 . S
C75 C80 1.501 . S
C76 C77 1.387 . S
C76 N79 1.341 . S
C77 C75 1.400 . S
C77 C76 1.387 . S
N78 Co69 2.022 . S
N78 C75 1.351 . S
N78 N79 1.365 . S
N79 C76 1.341 . S
N79 N78 1.365 . S
N79 H99 0.862 . S
C80 C75 1.501 . S
C80 H81 0.961 . S
C80 H82 0.961 . S
C80 H83 0.960 . S
H81 C80 0.961 . S
H82 C80 0.961 . S
H83 C80 0.960 . S
C84 N85 1.342 1_455 S
C84 C88 1.401 . S
C84 C89 1.499 . S
N85 Co68 1.989 . S
N85 C84 1.342 1_655 S
N85 N86 1.388 . S
N86 Co69 1.993 . S
N86 N85 1.388 . S
N86 C87 1.346 1_655 S
C87 N86 1.346 1_455 S
C87 C88 1.396 . S
C87 C97 1.510 . S
C88 C84 1.401 . S
C88 C87 1.396 . S
C89 C84 1.499 . S
C89 H90 0.959 1_455 S
C89 H91 0.960 . S
C89 H92 0.961 . S
H90 C89 0.959 1_655 S
H91 C89 0.960 . S
H92 C89 0.961 . S
O93 Co68 1.967 . S
O93 C101 1.258 . S
O94 Co69 1.941 . S
O94 C101 1.266 . S
H95 C97 0.959 . S
H96 C97 0.961 . S
C97 C87 1.510 . S
C97 H95 0.959 . S
C97 H96 0.961 . S
C97 H98 0.960 1_455 S
H98 C97 0.960 1_655 S
H99 N79 0.862 . S
O100 Co68 1.920 . S
O100 C73 1.289 . S
C101 O93 1.258 . S
C101 O94 1.266 . S
Co102 O105 1.970 . S
Co102 N119 1.989 . S
Co102 O127 1.967 . S
Co102 O134 1.920 . S
Co103 O106 1.966 . S
Co103 N112 2.022 . S
Co103 N120 1.993 . S
Co103 O128 1.941 . S
C104 O105 1.258 . S
C104 O106 1.263 . S
O105 Co102 1.970 . S
O105 C104 1.258 . S
O106 Co103 1.966 . S
O106 C104 1.263 . S
C107 O108 1.235 . S
C107 O134 1.289 . S
O108 C107 1.235 . S
C109 C111 1.400 . S
C109 N112 1.351 . S
C109 C114 1.501 . S
C110 C111 1.387 . S
C110 N113 1.341 . S
C111 C109 1.400 . S
C111 C110 1.387 . S
N112 Co103 2.022 . S
N112 C109 1.351 . S
N112 N113 1.365 . S
N113 C110 1.341 . S
N113 N112 1.365 . S
N113 H133 0.862 . S
C114 C109 1.501 . S
C114 H115 0.961 . S
C114 H116 0.961 . S
C114 H117 0.960 . S
H115 C114 0.961 . S
H116 C114 0.961 . S
H117 C114 0.960 . S
C118 N119 1.342 . S
C118 C122 1.401 . S
C118 C123 1.499 . S
N119 Co102 1.989 . S
N119 C118 1.342 . S
N119 N120 1.388 . S
N120 Co103 1.993 . S
N120 N119 1.388 . S
N120 C121 1.346 . S
C121 N120 1.346 . S
C121 C122 1.396 . S
C121 C131 1.510 . S
C122 C118 1.401 . S
C122 C121 1.396 . S
C123 C118 1.499 . S
C123 H124 0.959 . S
C123 H125 0.960 . S
C123 H126 0.961 . S
H124 C123 0.959 . S
H125 C123 0.960 . S
H126 C123 0.961 . S
O127 Co102 1.967 . S
O127 C135 1.258 . S
O128 Co103 1.941 . S
O128 C135 1.266 . S
H129 C131 0.959 . S
H130 C131 0.961 . S
C131 C121 1.510 . S
C131 H129 0.959 . S
C131 H130 0.961 . S
C131 H132 0.960 . S
H132 C131 0.960 . S
H133 N113 0.862 . S
O134 Co102 1.920 . S
O134 C107 1.289 . S
C135 O127 1.258 . S
C135 O128 1.266 . S
Co136 O139 1.970 . S
Co136 N153 1.989 . S
Co136 O161 1.967 . S
Co136 O168 1.920 . S
Co137 O140 1.966 . S
Co137 N146 2.022 . S
Co137 N154 1.993 . S
Co137 O162 1.941 . S
C138 O139 1.258 . S
C138 O140 1.263 . S
O139 Co136 1.970 . S
O139 C138 1.258 . S
O140 Co137 1.966 . S
O140 C138 1.263 . S
C141 O142 1.235 . S
C141 O168 1.289 . S
O142 C141 1.235 . S
C143 C145 1.400 . S
C143 N146 1.351 . S
C143 C148 1.501 . S
C144 C145 1.387 . S
C144 N147 1.341 . S
C145 C143 1.400 . S
C145 C144 1.387 . S
N146 Co137 2.022 . S
N146 C143 1.351 . S
N146 N147 1.365 . S
N147 C144 1.341 . S
N147 N146 1.365 . S
N147 H167 0.862 . S
C148 C143 1.501 . S
C148 H149 0.961 . S
C148 H150 0.961 . S
C148 H151 0.960 . S
H149 C148 0.961 . S
H150 C148 0.961 . S
H151 C148 0.960 . S
C152 N153 1.342 . S
C152 C156 1.401 . S
C152 C157 1.499 . S
N153 Co136 1.989 . S
N153 C152 1.342 . S
N153 N154 1.388 . S
N154 Co137 1.993 . S
N154 N153 1.388 . S
N154 C155 1.346 . S
C155 N154 1.346 . S
C155 C156 1.396 . S
C155 C165 1.510 . S
C156 C152 1.401 . S
C156 C155 1.396 . S
C157 C152 1.499 . S
C157 H158 0.959 . S
C157 H159 0.960 . S
C157 H160 0.961 . S
H158 C157 0.959 . S
H159 C157 0.960 . S
H160 C157 0.961 . S
O161 Co136 1.967 . S
O161 C169 1.258 . S
O162 Co137 1.941 . S
O162 C169 1.266 . S
H163 C165 0.959 . S
H164 C165 0.961 . S
C165 C155 1.510 . S
C165 H163 0.959 . S
C165 H164 0.961 . S
C165 H166 0.960 . S
H166 C165 0.960 . S
H167 N147 0.862 . S
O168 Co136 1.920 . S
O168 C141 1.289 . S
C169 O161 1.258 . S
C169 O162 1.266 . S
Co170 O173 1.970 . S
Co170 N187 1.989 . S
Co170 O195 1.967 . S
Co170 O202 1.920 . S
Co171 O174 1.966 . S
Co171 N180 2.022 . S
Co171 N188 1.993 . S
Co171 O196 1.941 . S
C172 O173 1.258 . S
C172 O174 1.263 . S
O173 Co170 1.970 . S
O173 C172 1.258 . S
O174 Co171 1.966 . S
O174 C172 1.263 . S
C175 O176 1.235 . S
C175 O202 1.289 . S
O176 C175 1.235 . S
C177 C179 1.400 . S
C177 N180 1.351 . S
C177 C182 1.501 . S
C178 C179 1.387 . S
C178 N181 1.341 . S
C179 C177 1.400 . S
C179 C178 1.387 . S
N180 Co171 2.022 . S
N180 C177 1.351 . S
N180 N181 1.365 . S
N181 C178 1.341 . S
N181 N180 1.365 . S
N181 H201 0.862 . S
C182 C177 1.501 . S
C182 H183 0.961 . S
C182 H184 0.961 . S
C182 H185 0.960 . S
H183 C182 0.961 . S
H184 C182 0.961 . S
H185 C182 0.960 . S
C186 N187 1.342 1_565 S
C186 C190 1.401 . S
C186 C191 1.499 . S
N187 Co170 1.989 . S
N187 C186 1.342 1_545 S
N187 N188 1.388 . S
N188 Co171 1.993 . S
N188 N187 1.388 . S
N188 C189 1.346 1_545 S
C189 N188 1.346 1_565 S
C189 C190 1.396 . S
C189 C199 1.510 . S
C190 C186 1.401 . S
C190 C189 1.396 . S
C191 C186 1.499 . S
C191 H192 0.959 1_565 S
C191 H193 0.960 . S
C191 H194 0.961 . S
H192 C191 0.959 1_545 S
H193 C191 0.960 . S
H194 C191 0.961 . S
O195 Co170 1.967 . S
O195 C203 1.258 . S
O196 Co171 1.941 . S
O196 C203 1.266 . S
H197 C199 0.959 . S
H198 C199 0.961 . S
C199 C189 1.510 . S
C199 H197 0.959 . S
C199 H198 0.961 . S
C199 H200 0.960 1_565 S
H200 C199 0.960 1_545 S
H201 N181 0.862 . S
O202 Co170 1.920 . S
O202 C175 1.289 . S
C203 O195 1.258 . S
C203 O196 1.266 . S
Co204 O207 1.970 . S
Co204 N221 1.989 . S
Co204 O229 1.967 . S
Co204 O236 1.920 . S
Co205 O208 1.966 . S
Co205 N214 2.022 . S
Co205 N222 1.993 . S
Co205 O230 1.941 . S
C206 O207 1.258 . S
C206 O208 1.263 . S
O207 Co204 1.970 . S
O207 C206 1.258 . S
O208 Co205 1.966 . S
O208 C206 1.263 . S
C209 O210 1.235 . S
C209 O236 1.289 . S
O210 C209 1.235 . S
C211 C213 1.400 . S
C211 N214 1.351 . S
C211 C216 1.501 . S
C212 C213 1.387 . S
C212 N215 1.341 . S
C213 C211 1.400 . S
C213 C212 1.387 . S
N214 Co205 2.022 . S
N214 C211 1.351 . S
N214 N215 1.365 . S
N215 C212 1.341 . S
N215 N214 1.365 . S
N215 H235 0.862 . S
C216 C211 1.501 . S
C216 H217 0.961 . S
C216 H218 0.961 . S
C216 H219 0.960 . S
H217 C216 0.961 . S
H218 C216 0.961 . S
H219 C216 0.960 . S
C220 N221 1.342 . S
C220 C224 1.401 . S
C220 C225 1.499 . S
N221 Co204 1.989 . S
N221 C220 1.342 . S
N221 N222 1.388 . S
N222 Co205 1.993 . S
N222 N221 1.388 . S
N222 C223 1.346 . S
C223 N222 1.346 . S
C223 C224 1.396 . S
C223 C233 1.510 . S
C224 C220 1.401 . S
C224 C223 1.396 . S
C225 C220 1.499 . S
C225 H226 0.959 . S
C225 H227 0.960 . S
C225 H228 0.961 . S
H226 C225 0.959 . S
H227 C225 0.960 . S
H228 C225 0.961 . S
O229 Co204 1.967 . S
O229 C237 1.258 . S
O230 Co205 1.941 . S
O230 C237 1.266 . S
H231 C233 0.959 . S
H232 C233 0.961 . S
C233 C223 1.510 . S
C233 H231 0.959 . S
C233 H232 0.961 . S
C233 H234 0.960 . S
H234 C233 0.960 . S
H235 N215 0.862 . S
O236 Co204 1.920 . S
O236 C209 1.289 . S
C237 O229 1.258 . S
C237 O230 1.266 . S
Co238 O241 1.970 . S
Co238 N255 1.989 . S
Co238 O263 1.967 . S
Co238 O270 1.920 . S
Co239 O242 1.966 . S
Co239 N248 2.022 . S
Co239 N256 1.993 . S
Co239 O264 1.941 . S
C240 O241 1.258 . S
C240 O242 1.263 . S
O241 Co238 1.970 . S
O241 C240 1.258 . S
O242 Co239 1.966 . S
O242 C240 1.263 . S
C243 O244 1.235 . S
C243 O270 1.289 . S
O244 C243 1.235 . S
C245 C247 1.400 . S
C245 N248 1.351 . S
C245 C250 1.501 . S
C246 C247 1.387 . S
C246 N249 1.341 . S
C247 C245 1.400 . S
C247 C246 1.387 . S
N248 Co239 2.022 . S
N248 C245 1.351 . S
N248 N249 1.365 . S
N249 C246 1.341 . S
N249 N248 1.365 . S
N249 H269 0.862 . S
C250 C245 1.501 . S
C250 H251 0.961 . S
C250 H252 0.961 . S
C250 H253 0.960 . S
H251 C250 0.961 . S
H252 C250 0.961 . S
H253 C250 0.960 . S
C254 N255 1.342 1_545 S
C254 C258 1.401 . S
C254 C259 1.499 . S
N255 Co238 1.989 . S
N255 C254 1.342 1_565 S
N255 N256 1.388 . S
N256 Co239 1.993 . S
N256 N255 1.388 . S
N256 C257 1.346 1_565 S
C257 N256 1.346 1_545 S
C257 C258 1.396 . S
C257 C267 1.510 . S
C258 C254 1.401 . S
C258 C257 1.396 . S
C259 C254 1.499 . S
C259 H260 0.959 1_545 S
C259 H261 0.960 . S
C259 H262 0.961 . S
H260 C259 0.959 1_565 S
H261 C259 0.960 . S
H262 C259 0.961 . S
O263 Co238 1.967 . S
O263 C271 1.258 . S
O264 Co239 1.941 . S
O264 C271 1.266 . S
H265 C267 0.959 . S
H266 C267 0.961 . S
C267 C257 1.510 . S
C267 H265 0.959 . S
C267 H266 0.961 . S
C267 H268 0.960 1_545 S
H268 C267 0.960 1_565 S
H269 N249 0.862 . S
O270 Co238 1.920 . S
O270 C243 1.289 . S
C271 O263 1.258 . S
C271 O264 1.266 . S
H272 C290 0.951 . S
H273 C292 0.951 . S
H274 C294 0.950 1_455 S
H275 C295 0.950 . S
H276 C297 0.950 . S
H277 C300 0.950 . S
H278 C301 0.950 . S
H279 C303 0.950 . S
H280 C304 0.950 . S
H281 C305 0.951 . S
H282 C307 0.951 . S
H283 C309 0.950 1_655 S
H284 C310 0.950 . S
H285 C312 0.950 . S
H286 C315 0.950 . S
H287 C316 0.950 . S
H288 C318 0.950 . S
H289 C319 0.950 . S
C290 H272 0.951 . S
C290 C291 1.366 . S
C290 C292 1.388 . S
C291 C290 1.366 . S
C291 C295 1.385 . S
C292 H273 0.951 . S
C292 C290 1.388 . S
C292 C293 1.366 . S
C293 C292 1.366 . S
C293 C294 1.414 . S
C293 C296 1.499 . S
C294 H274 0.950 1_655 S
C294 C293 1.414 . S
C294 C295 1.374 . S
C295 H275 0.950 . S
C295 C291 1.385 . S
C295 C294 1.374 . S
C296 C293 1.499 . S
C296 C297 1.373 1_655 S
C296 C298 1.389 . S
C297 H276 0.950 . S
C297 C296 1.373 1_455 S
C297 C313 1.377 . S
C298 C296 1.389 . S
C298 C299 1.524 . S
C298 C312 1.377 . S
C299 C298 1.524 . S
C299 C300 1.397 . S
C299 C304 1.363 . S
C300 H277 0.950 . S
C300 C299 1.397 . S
C300 C301 1.334 . S
C301 H278 0.950 . S
C301 C300 1.334 . S
C301 C302 1.287 . S
C302 C301 1.287 . S
C302 C303 1.524 . S
C302 H321 0.913 . S
C303 H279 0.950 . S
C303 C302 1.524 . S
C303 C304 1.415 . S
C304 H280 0.950 . S
C304 C299 1.363 . S
C304 C303 1.415 . S
C305 H281 0.951 . S
C305 C306 1.366 . S
C305 C307 1.388 . S
C306 C305 1.366 . S
C306 C310 1.385 . S
C307 H282 0.951 . S
C307 C305 1.388 . S
C307 C308 1.366 . S
C308 C307 1.366 . S
C308 C309 1.414 . S
C308 C311 1.499 . S
C309 H283 0.950 1_455 S
C309 C308 1.414 . S
C309 C310 1.374 . S
C310 H284 0.950 . S
C310 C306 1.385 . S
C310 C309 1.374 . S
C311 C308 1.499 . S
C311 C312 1.373 1_455 S
C311 C313 1.389 . S
C312 H285 0.950 . S
C312 C298 1.377 . S
C312 C311 1.373 1_655 S
C313 C297 1.377 . S
C313 C311 1.389 . S
C313 C314 1.524 . S
C314 C313 1.524 . S
C314 C315 1.397 . S
C314 C319 1.363 . S
C315 H286 0.950 . S
C315 C314 1.397 . S
C315 C316 1.334 . S
C316 H287 0.950 . S
C316 C315 1.334 . S
C316 C317 1.287 . S
C317 C316 1.287 . S
C317 C318 1.524 . S
C317 H320 0.999 . S
C318 H288 0.950 . S
C318 C317 1.524 . S
C318 C319 1.415 . S
C319 H289 0.950 . S
C319 C314 1.363 . S
C319 C318 1.415 . S
H320 C317 0.999 . S
H321 C302 0.913 . S
H322 C340 0.951 . S
H323 C342 0.951 . S
H324 C344 0.950 . S
H325 C345 0.950 . S
H326 C347 0.950 . S
H327 C350 0.950 . S
H328 C351 0.950 . S
H329 C353 0.950 . S
H330 C354 0.950 . S
H331 C355 0.951 . S
H332 C357 0.951 . S
H333 C359 0.950 . S
H334 C360 0.950 . S
H335 C362 0.950 . S
H336 C365 0.950 . S
H337 C366 0.950 . S
H338 C368 0.950 . S
H339 C369 0.950 . S
C340 H322 0.951 . S
C340 C341 1.366 . S
C340 C342 1.388 . S
C341 C340 1.366 . S
C341 C345 1.385 . S
C342 H323 0.951 . S
C342 C340 1.388 . S
C342 C343 1.366 . S
C343 C342 1.366 . S
C343 C344 1.414 . S
C343 C346 1.499 . S
C344 H324 0.950 . S
C344 C343 1.414 . S
C344 C345 1.374 . S
C345 H325 0.950 . S
C345 C341 1.385 . S
C345 C344 1.374 . S
C346 C343 1.499 . S
C346 C347 1.373 . S
C346 C348 1.389 . S
C347 H326 0.950 . S
C347 C346 1.373 . S
C347 C363 1.377 1_655 S
C348 C346 1.389 . S
C348 C349 1.524 . S
C348 C362 1.377 1_655 S
C349 C348 1.524 . S
C349 C350 1.397 . S
C349 C354 1.363 . S
C350 H327 0.950 . S
C350 C349 1.397 . S
C350 C351 1.334 . S
C351 H328 0.950 . S
C351 C350 1.334 . S
C351 C352 1.287 . S
C352 C351 1.287 . S
C352 C353 1.524 . S
C352 H371 0.913 . S
C353 H329 0.950 . S
C353 C352 1.524 . S
C353 C354 1.415 . S
C354 H330 0.950 . S
C354 C349 1.363 . S
C354 C353 1.415 . S
C355 H331 0.951 . S
C355 C356 1.366 . S
C355 C357 1.388 . S
C356 C355 1.366 . S
C356 C360 1.385 . S
C357 H332 0.951 . S
C357 C355 1.388 . S
C357 C358 1.366 . S
C358 C357 1.366 . S
C358 C359 1.414 . S
C358 C361 1.499 . S
C359 H333 0.950 . S
C359 C358 1.414 . S
C359 C360 1.374 . S
C360 H334 0.950 . S
C360 C356 1.385 . S
C360 C359 1.374 . S
C361 C358 1.499 . S
C361 C362 1.373 . S
C361 C363 1.389 . S
C362 H335 0.950 . S
C362 C348 1.377 1_455 S
C362 C361 1.373 . S
C363 C347 1.377 1_455 S
C363 C361 1.389 . S
C363 C364 1.524 . S
C364 C363 1.524 . S
C364 C365 1.397 . S
C364 C369 1.363 . S
C365 H336 0.950 . S
C365 C364 1.397 . S
C365 C366 1.334 . S
C366 H337 0.950 . S
C366 C365 1.334 . S
C366 C367 1.287 . S
C367 C366 1.287 . S
C367 C368 1.524 . S
C367 H370 0.999 . S
C368 H338 0.950 . S
C368 C367 1.524 . S
C368 C369 1.415 . S
C369 H339 0.950 . S
C369 C364 1.363 . S
C369 C368 1.415 . S
H370 C367 0.999 . S
H371 C352 0.913 . S
H372 C390 0.951 . S
H373 C392 0.951 . S
H374 C394 0.950 . S
H375 C395 0.950 . S
H376 C397 0.950 . S
H377 C400 0.950 . S
H378 C401 0.950 . S
H379 C403 0.945 1_545 S
H380 C404 0.950 . S
H381 C405 0.951 . S
H382 C407 0.951 . S
H383 C409 0.950 . S
H384 C410 0.950 . S
H385 C412 0.950 . S
H386 C415 0.950 . S
H387 C416 0.950 . S
H388 C418 0.945 1_565 S
H389 C419 0.950 . S
C390 H372 0.951 . S
C390 C391 1.366 . S
C390 C392 1.388 . S
C391 C390 1.366 . S
C391 C395 1.385 . S
C392 H373 0.951 . S
C392 C390 1.388 . S
C392 C393 1.366 . S
C393 C392 1.366 . S
C393 C394 1.414 . S
C393 C396 1.499 . S
C394 H374 0.950 . S
C394 C393 1.414 . S
C394 C395 1.374 . S
C395 H375 0.950 . S
C395 C391 1.385 . S
C395 C394 1.374 . S
C396 C393 1.499 . S
C396 C397 1.373 . S
C396 C398 1.389 . S
C397 H376 0.950 . S
C397 C396 1.373 . S
C397 C413 1.377 1_565 S
C398 C396 1.389 . S
C398 C399 1.524 . S
C398 C412 1.377 1_565 S
C399 C398 1.524 . S
C399 C400 1.397 . S
C399 C404 1.363 1_565 S
C400 H377 0.950 . S
C400 C399 1.397 . S
C400 C401 1.334 . S
C401 H378 0.950 . S
C401 C400 1.334 . S
C401 C402 1.287 . S
C402 C401 1.287 . S
C402 C403 1.531 . S
C402 H421 0.913 . S
C403 H379 0.945 1_565 S
C403 C402 1.531 . S
C403 C404 1.414 1_565 S
C404 H380 0.950 . S
C404 C399 1.363 1_545 S
C404 C403 1.414 1_545 S
C405 H381 0.951 . S
C405 C406 1.366 . S
C405 C407 1.388 . S
C406 C405 1.366 . S
C406 C410 1.385 . S
C407 H382 0.951 . S
C407 C405 1.388 . S
C407 C408 1.366 . S
C408 C407 1.366 . S
C408 C409 1.414 . S
C408 C411 1.499 . S
C409 H383 0.950 . S
C409 C408 1.414 . S
C409 C410 1.374 . S
C410 H384 0.950 . S
C410 C406 1.385 . S
C410 C409 1.374 . S
C411 C408 1.499 . S
C411 C412 1.373 . S
C411 C413 1.389 . S
C412 H385 0.950 . S
C412 C398 1.377 1_545 S
C412 C411 1.373 . S
C413 C397 1.377 1_545 S
C413 C411 1.389 . S
C413 C414 1.524 . S
C414 C413 1.524 . S
C414 C415 1.397 . S
C414 C419 1.363 1_545 S
C415 H386 0.950 . S
C415 C414 1.397 . S
C415 C416 1.334 . S
C416 H387 0.950 . S
C416 C415 1.334 . S
C416 C417 1.287 . S
C417 C416 1.287 . S
C417 C418 1.531 . S
C417 H420 0.999 . S
C418 H388 0.945 1_545 S
C418 C417 1.531 . S
C418 C419 1.414 1_545 S
C419 H389 0.950 . S
C419 C414 1.363 1_565 S
C419 C418 1.414 1_565 S
H420 C417 0.999 . S
H421 C402 0.913 . S
H422 C440 0.951 1_545 S
H423 C442 0.951 . S
H424 C444 0.950 . S
H425 C445 0.950 . S
H426 C447 0.950 . S
H427 C450 0.950 1_565 S
H428 C451 0.950 . S
H429 C453 0.950 . S
H430 C454 0.950 . S
H431 C455 0.951 1_565 S
H432 C457 0.951 . S
H433 C459 0.950 . S
H434 C460 0.950 . S
H435 C462 0.950 . S
H436 C465 0.950 1_545 S
H437 C466 0.950 . S
H438 C468 0.950 . S
H439 C469 0.950 . S
C440 H422 0.951 1_565 S
C440 C441 1.366 . S
C440 C442 1.388 1_565 S
C441 C440 1.366 . S
C441 C445 1.385 . S
C442 H423 0.951 . S
C442 C440 1.388 1_545 S
C442 C443 1.366 1_545 S
C443 C442 1.366 1_565 S
C443 C444 1.414 . S
C443 C446 1.499 . S
C444 H424 0.950 . S
C444 C443 1.414 . S
C444 C445 1.374 . S
C445 H425 0.950 . S
C445 C441 1.385 . S
C445 C444 1.374 . S
C446 C443 1.499 . S
C446 C447 1.373 . S
C446 C448 1.389 1_565 S
C447 H426 0.950 . S
C447 C446 1.373 . S
C447 C463 1.377 . S
C448 C446 1.389 1_545 S
C448 C449 1.524 . S
C448 C462 1.377 . S
C449 C448 1.524 . S
C449 C450 1.397 . S
C449 C454 1.363 . S
C450 H427 0.950 1_545 S
C450 C449 1.397 . S
C450 C451 1.334 . S
C451 H428 0.950 . S
C451 C450 1.334 . S
C451 C452 1.287 . S
C452 C451 1.287 . S
C452 C453 1.524 . S
C452 H471 0.913 . S
C453 H429 0.950 . S
C453 C452 1.524 . S
C453 C454 1.415 . S
C454 H430 0.950 . S
C454 C449 1.363 . S
C454 C453 1.415 . S
C455 H431 0.951 1_545 S
C455 C456 1.366 . S
C455 C457 1.388 1_545 S
C456 C455 1.366 . S
C456 C460 1.385 . S
C457 H432 0.951 . S
C457 C455 1.388 1_565 S
C457 C458 1.366 1_565 S
C458 C457 1.366 1_545 S
C458 C459 1.414 . S
C458 C461 1.499 . S
C459 H433 0.950 . S
C459 C458 1.414 . S
C459 C460 1.374 . S
C460 H434 0.950 . S
C460 C456 1.385 . S
C460 C459 1.374 . S
C461 C458 1.499 . S
C461 C462 1.373 . S
C461 C463 1.389 1_545 S
C462 H435 0.950 . S
C462 C448 1.377 . S
C462 C461 1.373 . S
C463 C447 1.377 . S
C463 C461 1.389 1_565 S
C463 C464 1.524 . S
C464 C463 1.524 . S
C464 C465 1.397 . S
C464 C469 1.363 . S
C465 H436 0.950 1_565 S
C465 C464 1.397 . S
C465 C466 1.334 . S
C466 H437 0.950 . S
C466 C465 1.334 . S
C466 C467 1.287 . S
C467 C466 1.287 . S
C467 C468 1.524 . S
C467 H470 0.999 . S
C468 H438 0.950 . S
C468 C467 1.524 . S
C468 C469 1.415 . S
C469 H439 0.950 . S
C469 C464 1.363 . S
C469 C468 1.415 . S
H470 C467 0.999 . S
H471 C452 0.913 . S
H472 C490 0.951 . S
H473 C492 0.951 . S
H474 C494 0.950 . S
H475 C495 0.950 . S
H476 C497 0.950 . S
H477 C500 0.950 . S
H478 C501 0.950 . S
H479 C503 0.950 . S
H480 C504 0.950 . S
H481 C505 0.951 . S
H482 C507 0.951 . S
H483 C509 0.950 . S
H484 C510 0.950 . S
H485 C512 0.950 . S
H486 C515 0.950 . S
H487 C516 0.950 . S
H488 C518 0.950 . S
H489 C519 0.950 . S
C490 H472 0.951 . S
C490 C491 1.366 . S
C490 C492 1.388 . S
C491 C490 1.366 . S
C491 C495 1.385 . S
C492 H473 0.951 . S
C492 C490 1.388 . S
C492 C493 1.366 . S
C493 C492 1.366 . S
C493 C494 1.414 . S
C493 C496 1.499 . S
C494 H474 0.950 . S
C494 C493 1.414 . S
C494 C495 1.374 . S
C495 H475 0.950 . S
C495 C491 1.385 . S
C495 C494 1.374 . S
C496 C493 1.499 . S
C496 C497 1.373 . S
C496 C498 1.389 . S
C497 H476 0.950 . S
C497 C496 1.373 . S
C497 C513 1.377 . S
C498 C496 1.389 . S
C498 C499 1.524 . S
C498 C512 1.377 . S
C499 C498 1.524 . S
C499 C500 1.397 . S
C499 C504 1.363 . S
C500 H477 0.950 . S
C500 C499 1.397 . S
C500 C501 1.334 . S
C501 H478 0.950 . S
C501 C500 1.334 . S
C501 C502 1.287 . S
C502 C501 1.287 . S
C502 C503 1.524 . S
C502 H521 0.913 . S
C503 H479 0.950 . S
C503 C502 1.524 . S
C503 C504 1.415 . S
C504 H480 0.950 . S
C504 C499 1.363 . S
C504 C503 1.415 . S
C505 H481 0.951 . S
C505 C506 1.366 . S
C505 C507 1.388 . S
C506 C505 1.366 . S
C506 C510 1.385 . S
C507 H482 0.951 . S
C507 C505 1.388 . S
C507 C508 1.366 . S
C508 C507 1.366 . S
C508 C509 1.414 . S
C508 C511 1.499 . S
C509 H483 0.950 . S
C509 C508 1.414 . S
C509 C510 1.374 . S
C510 H484 0.950 . S
C510 C506 1.385 . S
C510 C509 1.374 . S
C511 C508 1.499 . S
C511 C512 1.373 . S
C511 C513 1.389 . S
C512 H485 0.950 . S
C512 C498 1.377 . S
C512 C511 1.373 . S
C513 C497 1.377 . S
C513 C511 1.389 . S
C513 C514 1.524 . S
C514 C513 1.524 . S
C514 C515 1.397 . S
C514 C519 1.363 . S
C515 H486 0.950 . S
C515 C514 1.397 . S
C515 C516 1.334 . S
C516 H487 0.950 . S
C516 C515 1.334 . S
C516 C517 1.287 . S
C517 C516 1.287 . S
C517 C518 1.524 . S
C517 H520 0.999 . S
C518 H488 0.950 . S
C518 C517 1.524 . S
C518 C519 1.415 . S
C519 H489 0.950 . S
C519 C514 1.363 . S
C519 C518 1.415 . S
H520 C517 0.999 . S
H521 C502 0.913 . S
H522 C540 0.951 . S
H523 C542 0.951 . S
H524 C544 0.950 . S
H525 C545 0.950 . S
H526 C547 0.950 . S
H527 C550 0.950 . S
H528 C551 0.950 . S
H529 C553 0.950 . S
H530 C554 0.950 . S
H531 C555 0.951 . S
H532 C557 0.951 . S
H533 C559 0.950 . S
H534 C560 0.950 . S
H535 C562 0.950 . S
H536 C565 0.950 . S
H537 C566 0.950 . S
H538 C568 0.950 . S
H539 C569 0.950 . S
C540 H522 0.951 . S
C540 C541 1.366 . S
C540 C542 1.388 . S
C541 C540 1.366 . S
C541 C545 1.385 . S
C542 H523 0.951 . S
C542 C540 1.388 . S
C542 C543 1.366 . S
C543 C542 1.366 . S
C543 C544 1.414 . S
C543 C546 1.499 . S
C544 H524 0.950 . S
C544 C543 1.414 . S
C544 C545 1.374 . S
C545 H525 0.950 . S
C545 C541 1.385 . S
C545 C544 1.374 . S
C546 C543 1.499 . S
C546 C547 1.373 . S
C546 C548 1.389 . S
C547 H526 0.950 . S
C547 C546 1.373 . S
C547 C563 1.377 . S
C548 C546 1.389 . S
C548 C549 1.524 . S
C548 C562 1.377 . S
C549 C548 1.524 . S
C549 C550 1.397 . S
C549 C554 1.363 . S
C550 H527 0.950 . S
C550 C549 1.397 . S
C550 C551 1.334 . S
C551 H528 0.950 . S
C551 C550 1.334 . S
C551 C552 1.287 . S
C552 C551 1.287 . S
C552 C553 1.524 . S
C552 H571 0.913 . S
C553 H529 0.950 . S
C553 C552 1.524 . S
C553 C554 1.415 . S
C554 H530 0.950 . S
C554 C549 1.363 . S
C554 C553 1.415 . S
C555 H531 0.951 . S
C555 C556 1.366 . S
C555 C557 1.388 . S
C556 C555 1.366 . S
C556 C560 1.385 . S
C557 H532 0.951 . S
C557 C555 1.388 . S
C557 C558 1.366 . S
C558 C557 1.366 . S
C558 C559 1.414 . S
C558 C561 1.499 . S
C559 H533 0.950 . S
C559 C558 1.414 . S
C559 C560 1.374 . S
C560 H534 0.950 . S
C560 C556 1.385 . S
C560 C559 1.374 . S
C561 C558 1.499 . S
C561 C562 1.373 . S
C561 C563 1.389 . S
C562 H535 0.950 . S
C562 C548 1.377 . S
C562 C561 1.373 . S
C563 C547 1.377 . S
C563 C561 1.389 . S
C563 C564 1.524 . S
C564 C563 1.524 . S
C564 C565 1.397 . S
C564 C569 1.363 . S
C565 H536 0.950 . S
C565 C564 1.397 . S
C565 C566 1.334 . S
C566 H537 0.950 . S
C566 C565 1.334 . S
C566 C567 1.287 . S
C567 C566 1.287 . S
C567 C568 1.524 . S
C567 H570 0.999 . S
C568 H538 0.950 . S
C568 C567 1.524 . S
C568 C569 1.415 . S
C569 H539 0.950 . S
C569 C564 1.363 . S
C569 C568 1.415 . S
H570 C567 0.999 . S
H571 C552 0.913 . S
H572 C590 0.951 . S
H573 C592 0.951 . S
H574 C594 0.950 . S
H575 C595 0.950 . S
H576 C597 0.950 . S
H577 C600 0.950 . S
H578 C601 0.950 . S
H579 C603 0.950 . S
H580 C604 0.950 . S
H581 C605 0.951 . S
H582 C607 0.951 . S
H583 C609 0.950 . S
H584 C610 0.950 . S
H585 C612 0.950 . S
H586 C615 0.950 . S
H587 C616 0.950 . S
H588 C618 0.950 . S
H589 C619 0.950 . S
C590 H572 0.951 . S
C590 C591 1.366 . S
C590 C592 1.388 . S
C591 C590 1.366 . S
C591 C595 1.385 . S
C592 H573 0.951 . S
C592 C590 1.388 . S
C592 C593 1.366 . S
C593 C592 1.366 . S
C593 C594 1.414 . S
C593 C596 1.499 . S
C594 H574 0.950 . S
C594 C593 1.414 . S
C594 C595 1.374 . S
C595 H575 0.950 . S
C595 C591 1.385 . S
C595 C594 1.374 . S
C596 C593 1.499 . S
C596 C597 1.373 . S
C596 C598 1.389 . S
C597 H576 0.950 . S
C597 C596 1.373 . S
C597 C613 1.377 . S
C598 C596 1.389 . S
C598 C599 1.524 . S
C598 C612 1.377 . S
C599 C598 1.524 . S
C599 C600 1.397 . S
C599 C604 1.363 . S
C600 H577 0.950 . S
C600 C599 1.397 . S
C600 C601 1.334 . S
C601 H578 0.950 . S
C601 C600 1.334 . S
C601 C602 1.287 . S
C602 C601 1.287 . S
C602 C603 1.524 . S
C602 H621 0.913 . S
C603 H579 0.950 . S
C603 C602 1.524 . S
C603 C604 1.415 . S
C604 H580 0.950 . S
C604 C599 1.363 . S
C604 C603 1.415 . S
C605 H581 0.951 . S
C605 C606 1.366 . S
C605 C607 1.388 . S
C606 C605 1.366 . S
C606 C610 1.385 . S
C607 H582 0.951 . S
C607 C605 1.388 . S
C607 C608 1.366 . S
C608 C607 1.366 . S
C608 C609 1.414 . S
C608 C611 1.499 . S
C609 H583 0.950 . S
C609 C608 1.414 . S
C609 C610 1.374 . S
C610 H584 0.950 . S
C610 C606 1.385 . S
C610 C609 1.374 . S
C611 C608 1.499 . S
C611 C612 1.373 . S
C611 C613 1.389 . S
C612 H585 0.950 . S
C612 C598 1.377 . S
C612 C611 1.373 . S
C613 C597 1.377 . S
C613 C611 1.389 . S
C613 C614 1.524 . S
C614 C613 1.524 . S
C614 C615 1.397 . S
C614 C619 1.363 . S
C615 H586 0.950 . S
C615 C614 1.397 . S
C615 C616 1.334 . S
C616 H587 0.950 . S
C616 C615 1.334 . S
C616 C617 1.287 . S
C617 C616 1.287 . S
C617 C618 1.524 . S
C617 H620 0.999 . S
C618 H588 0.950 . S
C618 C617 1.524 . S
C618 C619 1.415 . S
C619 H589 0.950 . S
C619 C614 1.363 . S
C619 C618 1.415 . S
H620 C617 0.999 . S
H621 C602 0.913 . S
H622 C640 0.951 . S
H623 C642 0.951 . S
H624 C644 0.950 . S
H625 C645 0.950 . S
H626 C647 0.950 . S
H627 C650 0.950 . S
H628 C651 0.950 . S
H629 C653 0.950 . S
H630 C654 0.950 . S
H631 C655 0.951 . S
H632 C657 0.951 . S
H633 C659 0.950 . S
H634 C660 0.950 . S
H635 C662 0.950 . S
H636 C665 0.950 . S
H637 C666 0.950 . S
H638 C668 0.950 . S
H639 C669 0.950 . S
C640 H622 0.951 . S
C640 C641 1.366 . S
C640 C642 1.388 . S
C641 C640 1.366 . S
C641 C645 1.385 . S
C642 H623 0.951 . S
C642 C640 1.388 . S
C642 C643 1.366 . S
C643 C642 1.366 . S
C643 C644 1.414 . S
C643 C646 1.499 . S
C644 H624 0.950 . S
C644 C643 1.414 . S
C644 C645 1.374 . S
C645 H625 0.950 . S
C645 C641 1.385 . S
C645 C644 1.374 . S
C646 C643 1.499 . S
C646 C647 1.373 . S
C646 C648 1.389 . S
C647 H626 0.950 . S
C647 C646 1.373 . S
C647 C663 1.377 . S
C648 C646 1.389 . S
C648 C649 1.524 . S
C648 C662 1.377 . S
C649 C648 1.524 . S
C649 C650 1.397 . S
C649 C654 1.363 . S
C650 H627 0.950 . S
C650 C649 1.397 . S
C650 C651 1.334 . S
C651 H628 0.950 . S
C651 C650 1.334 . S
C651 C652 1.287 . S
C652 C651 1.287 . S
C652 C653 1.524 . S
C652 H671 0.913 . S
C653 H629 0.950 . S
C653 C652 1.524 . S
C653 C654 1.415 . S
C654 H630 0.950 . S
C654 C649 1.363 . S
C654 C653 1.415 . S
C655 H631 0.951 . S
C655 C656 1.366 . S
C655 C657 1.388 . S
C656 C655 1.366 . S
C656 C660 1.385 . S
C657 H632 0.951 . S
C657 C655 1.388 . S
C657 C658 1.366 . S
C658 C657 1.366 . S
C658 C659 1.414 . S
C658 C661 1.499 . S
C659 H633 0.950 . S
C659 C658 1.414 . S
C659 C660 1.374 . S
C660 H634 0.950 . S
C660 C656 1.385 . S
C660 C659 1.374 . S
C661 C658 1.499 . S
C661 C662 1.373 . S
C661 C663 1.389 . S
C662 H635 0.950 . S
C662 C648 1.377 . S
C662 C661 1.373 . S
C663 C647 1.377 . S
C663 C661 1.389 . S
C663 C664 1.524 . S
C664 C663 1.524 . S
C664 C665 1.397 . S
C664 C669 1.363 . S
C665 H636 0.950 . S
C665 C664 1.397 . S
C665 C666 1.334 . S
C666 H637 0.950 . S
C666 C665 1.334 . S
C666 C667 1.287 . S
C667 C666 1.287 . S
C667 C668 1.524 . S
C667 H670 0.999 . S
C668 H638 0.950 . S
C668 C667 1.524 . S
C668 C669 1.415 . S
C669 H639 0.950 . S
C669 C664 1.363 . S
C669 C668 1.415 . S
H670 C667 0.999 . S
H671 C652 0.913 . S
H672 C690 0.951 . S
H673 C692 0.951 . S
H674 C694 0.950 . S
H675 C695 0.950 . S
H676 C697 0.950 . S
H677 C700 0.950 . S
H678 C701 0.950 . S
H679 C703 0.950 . S
H680 C704 0.950 . S
H681 C705 0.951 . S
H682 C707 0.951 . S
H683 C709 0.950 . S
H684 C710 0.950 . S
H685 C712 0.950 . S
H686 C715 0.950 . S
H687 C716 0.950 . S
H688 C718 0.950 . S
H689 C719 0.950 . S
C690 H672 0.951 . S
C690 C691 1.366 . S
C690 C692 1.388 . S
C691 C690 1.366 . S
C691 C695 1.385 . S
C692 H673 0.951 . S
C692 C690 1.388 . S
C692 C693 1.366 . S
C693 C692 1.366 . S
C693 C694 1.414 . S
C693 C696 1.499 . S
C694 H674 0.950 . S
C694 C693 1.414 . S
C694 C695 1.374 . S
C695 H675 0.950 . S
C695 C691 1.385 . S
C695 C694 1.374 . S
C696 C693 1.499 . S
C696 C697 1.373 . S
C696 C698 1.389 . S
C697 H676 0.950 . S
C697 C696 1.373 . S
C697 C713 1.377 . S
C698 C696 1.389 . S
C698 C699 1.524 . S
C698 C712 1.377 . S
C699 C698 1.524 . S
C699 C700 1.397 . S
C699 C704 1.363 . S
C700 H677 0.950 . S
C700 C699 1.397 . S
C700 C701 1.334 . S
C701 H678 0.950 . S
C701 C700 1.334 . S
C701 C702 1.287 . S
C702 C701 1.287 . S
C702 C703 1.524 . S
C702 H721 0.913 . S
C703 H679 0.950 . S
C703 C702 1.524 . S
C703 C704 1.415 . S
C704 H680 0.950 . S
C704 C699 1.363 . S
C704 C703 1.415 . S
C705 H681 0.951 . S
C705 C706 1.366 . S
C705 C707 1.388 . S
C706 C705 1.366 . S
C706 C710 1.385 . S
C707 H682 0.951 . S
C707 C705 1.388 . S
C707 C708 1.366 . S
C708 C707 1.366 . S
C708 C709 1.414 . S
C708 C711 1.499 . S
C709 H683 0.950 . S
C709 C708 1.414 . S
C709 C710 1.374 . S
C710 H684 0.950 . S
C710 C706 1.385 . S
C710 C709 1.374 . S
C711 C708 1.499 . S
C711 C712 1.373 . S
C711 C713 1.389 . S
C712 H685 0.950 . S
C712 C698 1.377 . S
C712 C711 1.373 . S
C713 C697 1.377 . S
C713 C711 1.389 . S
C713 C714 1.524 . S
C714 C713 1.524 . S
C714 C715 1.397 . S
C714 C719 1.363 . S
C715 H686 0.950 . S
C715 C714 1.397 . S
C715 C716 1.334 . S
C716 H687 0.950 . S
C716 C715 1.334 . S
C716 C717 1.287 . S
C717 C716 1.287 . S
C717 C718 1.524 . S
C717 H720 0.999 . S
C718 H688 0.950 . S
C718 C717 1.524 . S
C718 C719 1.415 . S
C719 H689 0.950 . S
C719 C714 1.363 . S
C719 C718 1.415 . S
H720 C717 0.999 . S
H721 C702 0.913 . S
H722 C740 0.951 . S
H723 C742 0.951 . S
H724 C744 0.950 . S
H725 C745 0.950 . S
H726 C747 0.950 . S
H727 C750 0.950 . S
H728 C751 0.950 . S
H729 C753 0.950 . S
H730 C754 0.950 . S
H731 C755 0.951 . S
H732 C757 0.951 . S
H733 C759 0.950 . S
H734 C760 0.950 . S
H735 C762 0.950 . S
H736 C765 0.950 . S
H737 C766 0.950 . S
H738 C768 0.950 . S
H739 C769 0.950 . S
C740 H722 0.951 . S
C740 C741 1.366 . S
C740 C742 1.388 . S
C741 C740 1.366 . S
C741 C745 1.385 . S
C742 H723 0.951 . S
C742 C740 1.388 . S
C742 C743 1.366 . S
C743 C742 1.366 . S
C743 C744 1.414 . S
C743 C746 1.499 . S
C744 H724 0.950 . S
C744 C743 1.414 . S
C744 C745 1.374 . S
C745 H725 0.950 . S
C745 C741 1.385 . S
C745 C744 1.374 . S
C746 C743 1.499 . S
C746 C747 1.373 . S
C746 C748 1.389 . S
C747 H726 0.950 . S
C747 C746 1.373 . S
C747 C763 1.377 . S
C748 C746 1.389 . S
C748 C749 1.524 . S
C748 C762 1.377 . S
C749 C748 1.524 . S
C749 C750 1.397 . S
C749 C754 1.363 . S
C750 H727 0.950 . S
C750 C749 1.397 . S
C750 C751 1.334 . S
C751 H728 0.950 . S
C751 C750 1.334 . S
C751 C752 1.287 . S
C752 C751 1.287 . S
C752 C753 1.524 . S
C752 H771 0.913 . S
C753 H729 0.950 . S
C753 C752 1.524 . S
C753 C754 1.415 . S
C754 H730 0.950 . S
C754 C749 1.363 . S
C754 C753 1.415 . S
C755 H731 0.951 . S
C755 C756 1.366 . S
C755 C757 1.388 . S
C756 C755 1.366 . S
C756 C760 1.385 . S
C757 H732 0.951 . S
C757 C755 1.388 . S
C757 C758 1.366 . S
C758 C757 1.366 . S
C758 C759 1.414 . S
C758 C761 1.499 . S
C759 H733 0.950 . S
C759 C758 1.414 . S
C759 C760 1.374 . S
C760 H734 0.950 . S
C760 C756 1.385 . S
C760 C759 1.374 . S
C761 C758 1.499 . S
C761 C762 1.373 . S
C761 C763 1.389 . S
C762 H735 0.950 . S
C762 C748 1.377 . S
C762 C761 1.373 . S
C763 C747 1.377 . S
C763 C761 1.389 . S
C763 C764 1.524 . S
C764 C763 1.524 . S
C764 C765 1.397 . S
C764 C769 1.363 . S
C765 H736 0.950 . S
C765 C764 1.397 . S
C765 C766 1.334 . S
C766 H737 0.950 . S
C766 C765 1.334 . S
C766 C767 1.287 . S
C767 C766 1.287 . S
C767 C768 1.524 . S
C767 H770 0.999 . S
C768 H738 0.950 . S
C768 C767 1.524 . S
C768 C769 1.415 . S
C769 H739 0.950 . S
C769 C764 1.363 . S
C769 C768 1.415 . S
H770 C767 0.999 . S
H771 C752 0.913 . S
H772 C790 0.951 . S
H773 C792 0.951 . S
H774 C794 0.950 . S
H775 C795 0.950 . S
H776 C797 0.950 . S
H777 C800 0.950 . S
H778 C801 0.950 . S
H779 C803 0.950 . S
H780 C804 0.950 . S
H781 C805 0.951 . S
H782 C807 0.951 . S
H783 C809 0.950 . S
H784 C810 0.950 . S
H785 C812 0.950 . S
H786 C815 0.950 . S
H787 C816 0.950 . S
H788 C818 0.950 . S
H789 C819 0.950 . S
C790 H772 0.951 . S
C790 C791 1.366 . S
C790 C792 1.388 . S
C791 C790 1.366 . S
C791 C795 1.385 . S
C792 H773 0.951 . S
C792 C790 1.388 . S
C792 C793 1.366 . S
C793 C792 1.366 . S
C793 C794 1.414 . S
C793 C796 1.499 . S
C794 H774 0.950 . S
C794 C793 1.414 . S
C794 C795 1.374 . S
C795 H775 0.950 . S
C795 C791 1.385 . S
C795 C794 1.374 . S
C796 C793 1.499 . S
C796 C797 1.373 . S
C796 C798 1.389 . S
C797 H776 0.950 . S
C797 C796 1.373 . S
C797 C813 1.377 . S
C798 C796 1.389 . S
C798 C799 1.524 . S
C798 C812 1.377 . S
C799 C798 1.524 . S
C799 C800 1.397 . S
C799 C804 1.363 . S
C800 H777 0.950 . S
C800 C799 1.397 . S
C800 C801 1.334 . S
C801 H778 0.950 . S
C801 C800 1.334 . S
C801 C802 1.287 . S
C802 C801 1.287 . S
C802 C803 1.524 . S
C802 H821 0.913 . S
C803 H779 0.950 . S
C803 C802 1.524 . S
C803 C804 1.415 . S
C804 H780 0.950 . S
C804 C799 1.363 . S
C804 C803 1.415 . S
C805 H781 0.951 . S
C805 C806 1.366 . S
C805 C807 1.388 . S
C806 C805 1.366 . S
C806 C810 1.385 . S
C807 H782 0.951 . S
C807 C805 1.388 . S
C807 C808 1.366 . S
C808 C807 1.366 . S
C808 C809 1.414 . S
C808 C811 1.499 . S
C809 H783 0.950 . S
C809 C808 1.414 . S
C809 C810 1.374 . S
C810 H784 0.950 . S
C810 C806 1.385 . S
C810 C809 1.374 . S
C811 C808 1.499 . S
C811 C812 1.373 . S
C811 C813 1.389 . S
C812 H785 0.950 . S
C812 C798 1.377 . S
C812 C811 1.373 . S
C813 C797 1.377 . S
C813 C811 1.389 . S
C813 C814 1.524 . S
C814 C813 1.524 . S
C814 C815 1.397 . S
C814 C819 1.363 . S
C815 H786 0.950 . S
C815 C814 1.397 . S
C815 C816 1.334 . S
C816 H787 0.950 . S
C816 C815 1.334 . S
C816 C817 1.287 . S
C817 C816 1.287 . S
C817 C818 1.524 . S
C817 H820 0.999 . S
C818 H788 0.950 . S
C818 C817 1.524 . S
C818 C819 1.415 . S
C819 H789 0.950 . S
C819 C814 1.363 . S
C819 C818 1.415 . S
H820 C817 0.999 . S
H821 C802 0.913 . S
H822 C840 0.951 . S
H823 C842 0.951 . S
H824 C844 0.950 . S
H825 C845 0.950 . S
H826 C847 0.950 . S
H827 C850 0.950 . S
H828 C851 0.950 . S
H829 C853 0.950 . S
H830 C854 0.950 . S
H831 C855 0.951 . S
H832 C857 0.951 . S
H833 C859 0.950 . S
H834 C860 0.950 . S
H835 C862 0.950 . S
H836 C865 0.950 . S
H837 C866 0.950 . S
H838 C868 0.950 . S
H839 C869 0.950 . S
C840 H822 0.951 . S
C840 C841 1.366 . S
C840 C842 1.388 . S
C841 C840 1.366 . S
C841 C845 1.385 . S
C842 H823 0.951 . S
C842 C840 1.388 . S
C842 C843 1.366 . S
C843 C842 1.366 . S
C843 C844 1.414 . S
C843 C846 1.499 . S
C844 H824 0.950 . S
C844 C843 1.414 . S
C844 C845 1.374 . S
C845 H825 0.950 . S
C845 C841 1.385 . S
C845 C844 1.374 . S
C846 C843 1.499 . S
C846 C847 1.373 . S
C846 C848 1.389 . S
C847 H826 0.950 . S
C847 C846 1.373 . S
C847 C863 1.377 . S
C848 C846 1.389 . S
C848 C849 1.524 . S
C848 C862 1.377 . S
C849 C848 1.524 . S
C849 C850 1.397 . S
C849 C854 1.363 . S
C850 H827 0.950 . S
C850 C849 1.397 . S
C850 C851 1.334 . S
C851 H828 0.950 . S
C851 C850 1.334 . S
C851 C852 1.287 . S
C852 C851 1.287 . S
C852 C853 1.524 . S
C852 H871 0.913 . S
C853 H829 0.950 . S
C853 C852 1.524 . S
C853 C854 1.415 . S
C854 H830 0.950 . S
C854 C849 1.363 . S
C854 C853 1.415 . S
C855 H831 0.951 . S
C855 C856 1.366 . S
C855 C857 1.388 . S
C856 C855 1.366 . S
C856 C860 1.385 . S
C857 H832 0.951 . S
C857 C855 1.388 . S
C857 C858 1.366 . S
C858 C857 1.366 . S
C858 C859 1.414 . S
C858 C861 1.499 . S
C859 H833 0.950 . S
C859 C858 1.414 . S
C859 C860 1.374 . S
C860 H834 0.950 . S
C860 C856 1.385 . S
C860 C859 1.374 . S
C861 C858 1.499 . S
C861 C862 1.373 . S
C861 C863 1.389 . S
C862 H835 0.950 . S
C862 C848 1.377 . S
C862 C861 1.373 . S
C863 C847 1.377 . S
C863 C861 1.389 . S
C863 C864 1.524 . S
C864 C863 1.524 . S
C864 C865 1.397 . S
C864 C869 1.363 . S
C865 H836 0.950 . S
C865 C864 1.397 . S
C865 C866 1.334 . S
C866 H837 0.950 . S
C866 C865 1.334 . S
C866 C867 1.287 . S
C867 C866 1.287 . S
C867 C868 1.524 . S
C867 H870 0.999 . S
C868 H838 0.950 . S
C868 C867 1.524 . S
C868 C869 1.415 . S
C869 H839 0.950 . S
C869 C864 1.363 . S
C869 C868 1.415 . S
H870 C867 0.999 . S
H871 C852 0.913 . S
H872 C890 0.951 . S
H873 C892 0.951 . S
H874 C894 0.950 . S
H875 C895 0.950 . S
H876 C897 0.950 . S
H877 C900 0.950 . S
H878 C901 0.950 . S
H879 C903 0.950 . S
H880 C904 0.950 . S
H881 C905 0.951 . S
H882 C907 0.951 . S
H883 C909 0.950 . S
H884 C910 0.950 . S
H885 C912 0.950 . S
H886 C915 0.950 . S
H887 C916 0.950 . S
H888 C918 0.950 . S
H889 C919 0.950 . S
C890 H872 0.951 . S
C890 C891 1.366 . S
C890 C892 1.388 . S
C891 C890 1.366 . S
C891 C895 1.385 . S
C892 H873 0.951 . S
C892 C890 1.388 . S
C892 C893 1.366 . S
C893 C892 1.366 . S
C893 C894 1.414 . S
C893 C896 1.499 . S
C894 H874 0.950 . S
C894 C893 1.414 . S
C894 C895 1.374 . S
C895 H875 0.950 . S
C895 C891 1.385 . S
C895 C894 1.374 . S
C896 C893 1.499 . S
C896 C897 1.373 . S
C896 C898 1.389 . S
C897 H876 0.950 . S
C897 C896 1.373 . S
C897 C913 1.377 . S
C898 C896 1.389 . S
C898 C899 1.524 . S
C898 C912 1.377 . S
C899 C898 1.524 . S
C899 C900 1.397 . S
C899 C904 1.363 . S
C900 H877 0.950 . S
C900 C899 1.397 . S
C900 C901 1.334 . S
C901 H878 0.950 . S
C901 C900 1.334 . S
C901 C902 1.287 . S
C902 C901 1.287 . S
C902 C903 1.524 . S
C902 H921 0.913 . S
C903 H879 0.950 . S
C903 C902 1.524 . S
C903 C904 1.415 . S
C904 H880 0.950 . S
C904 C899 1.363 . S
C904 C903 1.415 . S
C905 H881 0.951 . S
C905 C906 1.366 . S
C905 C907 1.388 . S
C906 C905 1.366 . S
C906 C910 1.385 . S
C907 H882 0.951 . S
C907 C905 1.388 . S
C907 C908 1.366 . S
C908 C907 1.366 . S
C908 C909 1.414 . S
C908 C911 1.499 . S
C909 H883 0.950 . S
C909 C908 1.414 . S
C909 C910 1.374 . S
C910 H884 0.950 . S
C910 C906 1.385 . S
C910 C909 1.374 . S
C911 C908 1.499 . S
C911 C912 1.373 . S
C911 C913 1.389 . S
C912 H885 0.950 . S
C912 C898 1.377 . S
C912 C911 1.373 . S
C913 C897 1.377 . S
C913 C911 1.389 . S
C913 C914 1.524 . S
C914 C913 1.524 . S
C914 C915 1.397 . S
C914 C919 1.363 . S
C915 H886 0.950 . S
C915 C914 1.397 . S
C915 C916 1.334 . S
C916 H887 0.950 . S
C916 C915 1.334 . S
C916 C917 1.287 . S
C917 C916 1.287 . S
C917 C918 1.524 . S
C917 H920 0.999 . S
C918 H888 0.950 . S
C918 C917 1.524 . S
C918 C919 1.415 . S
C919 H889 0.950 . S
C919 C914 1.363 . S
C919 C918 1.415 . S
H920 C917 0.999 . S
H921 C902 0.913 . S
H922 C940 0.951 . S
H923 C942 0.951 . S
H924 C944 0.950 . S
H925 C945 0.950 . S
H926 C947 0.950 . S
H927 C950 0.950 . S
H928 C951 0.950 . S
H929 C953 0.950 . S
H930 C954 0.950 . S
H931 C955 0.951 . S
H932 C957 0.951 . S
H933 C959 0.950 . S
H934 C960 0.950 . S
H935 C962 0.950 . S
H936 C965 0.950 . S
H937 C966 0.950 . S
H938 C968 0.950 . S
H939 C969 0.950 . S
C940 H922 0.951 . S
C940 C941 1.366 . S
C940 C942 1.388 . S
C941 C940 1.366 . S
C941 C945 1.385 . S
C942 H923 0.951 . S
C942 C940 1.388 . S
C942 C943 1.366 . S
C943 C942 1.366 . S
C943 C944 1.414 . S
C943 C946 1.499 . S
C944 H924 0.950 . S
C944 C943 1.414 . S
C944 C945 1.374 . S
C945 H925 0.950 . S
C945 C941 1.385 . S
C945 C944 1.374 . S
C946 C943 1.499 . S
C946 C947 1.373 . S
C946 C948 1.389 . S
C947 H926 0.950 . S
C947 C946 1.373 . S
C947 C963 1.377 1_554 S
C948 C946 1.389 . S
C948 C949 1.524 . S
C948 C962 1.377 1_554 S
C949 C948 1.524 . S
C949 C950 1.397 . S
C949 C954 1.363 . S
C950 H927 0.950 . S
C950 C949 1.397 . S
C950 C951 1.334 . S
C951 H928 0.950 . S
C951 C950 1.334 . S
C951 C952 1.287 . S
C952 C951 1.287 . S
C952 C953 1.524 . S
C952 H971 0.913 . S
C953 H929 0.950 . S
C953 C952 1.524 . S
C953 C954 1.415 . S
C954 H930 0.950 . S
C954 C949 1.363 . S
C954 C953 1.415 . S
C955 H931 0.951 . S
C955 C956 1.366 . S
C955 C957 1.388 . S
C956 C955 1.366 . S
C956 C960 1.385 . S
C957 H932 0.951 . S
C957 C955 1.388 . S
C957 C958 1.366 . S
C958 C957 1.366 . S
C958 C959 1.414 . S
C958 C961 1.499 . S
C959 H933 0.950 . S
C959 C958 1.414 . S
C959 C960 1.374 . S
C960 H934 0.950 . S
C960 C956 1.385 . S
C960 C959 1.374 . S
C961 C958 1.499 . S
C961 C962 1.373 . S
C961 C963 1.389 . S
C962 H935 0.950 . S
C962 C948 1.377 1_556 S
C962 C961 1.373 . S
C963 C947 1.377 1_556 S
C963 C961 1.389 . S
C963 C964 1.524 . S
C964 C963 1.524 . S
C964 C965 1.397 . S
C964 C969 1.363 . S
C965 H936 0.950 . S
C965 C964 1.397 . S
C965 C966 1.334 . S
C966 H937 0.950 . S
C966 C965 1.334 . S
C966 C967 1.287 . S
C967 C966 1.287 . S
C967 C968 1.524 . S
C967 H970 0.999 . S
C968 H938 0.950 . S
C968 C967 1.524 . S
C968 C969 1.415 . S
C969 H939 0.950 . S
C969 C964 1.363 . S
C969 C968 1.415 . S
H970 C967 0.999 . S
H971 C952 0.913 . S
H972 C990 0.951 . S
H973 C992 0.951 . S
H974 C994 0.950 . S
H975 C995 0.950 . S
H976 C997 0.950 . S
H977 C1000 0.950 . S
H978 C1001 0.950 . S
H979 C1003 0.950 . S
H980 C1004 0.950 . S
H981 C1005 0.951 . S
H982 C1007 0.951 . S
H983 C1009 0.950 . S
H984 C1010 0.950 . S
H985 C1012 0.950 . S
H986 C1015 0.950 . S
H987 C1016 0.950 . S
H988 C1018 0.950 . S
H989 C1019 0.950 . S
C990 H972 0.951 . S
C990 C991 1.366 . S
C990 C992 1.388 . S
C991 C990 1.366 . S
C991 C995 1.385 . S
C992 H973 0.951 . S
C992 C990 1.388 . S
C992 C993 1.366 . S
C993 C992 1.366 . S
C993 C994 1.414 . S
C993 C996 1.499 . S
C994 H974 0.950 . S
C994 C993 1.414 . S
C994 C995 1.374 . S
C995 H975 0.950 . S
C995 C991 1.385 . S
C995 C994 1.374 . S
C996 C993 1.499 . S
C996 C997 1.373 . S
C996 C998 1.389 . S
C997 H976 0.950 . S
C997 C996 1.373 . S
C997 C1013 1.377 . S
C998 C996 1.389 . S
C998 C999 1.524 . S
C998 C1012 1.377 . S
C999 C998 1.524 . S
C999 C1000 1.397 . S
C999 C1004 1.363 . S
C1000 H977 0.950 . S
C1000 C999 1.397 . S
C1000 C1001 1.334 . S
C1001 H978 0.950 . S
C1001 C1000 1.334 . S
C1001 C1002 1.287 . S
C1002 C1001 1.287 . S
C1002 C1003 1.524 . S
C1002 H1021 0.950 . S
C1003 H979 0.950 . S
C1003 C1002 1.524 . S
C1003 C1004 1.415 . S
C1004 H980 0.950 . S
C1004 C999 1.363 . S
C1004 C1003 1.415 . S
C1005 H981 0.951 . S
C1005 C1006 1.366 . S
C1005 C1007 1.388 . S
C1006 C1005 1.366 . S
C1006 C1010 1.385 . S
C1007 H982 0.951 . S
C1007 C1005 1.388 . S
C1007 C1008 1.366 . S
C1008 C1007 1.366 . S
C1008 C1009 1.414 . S
C1008 C1011 1.499 . S
C1009 H983 0.950 . S
C1009 C1008 1.414 . S
C1009 C1010 1.374 . S
C1010 H984 0.950 . S
C1010 C1006 1.385 . S
C1010 C1009 1.374 . S
C1011 C1008 1.499 . S
C1011 C1012 1.373 . S
C1011 C1013 1.389 . S
C1012 H985 0.950 . S
C1012 C998 1.377 . S
C1012 C1011 1.373 . S
C1013 C997 1.377 . S
C1013 C1011 1.389 . S
C1013 C1014 1.524 . S
C1014 C1013 1.524 . S
C1014 C1015 1.397 . S
C1014 C1019 1.363 . S
C1015 H986 0.950 . S
C1015 C1014 1.397 . S
C1015 C1016 1.334 . S
C1016 H987 0.950 . S
C1016 C1015 1.334 . S
C1016 C1017 1.287 . S
C1017 C1016 1.287 . S
C1017 C1018 1.524 . S
C1017 H1020 0.999 . S
C1018 H988 0.950 . S
C1018 C1017 1.524 . S
C1018 C1019 1.415 . S
C1019 H989 0.950 . S
C1019 C1014 1.363 . S
C1019 C1018 1.415 . S
H1020 C1017 0.999 . S
H1021 C1002 0.950 . S
H1022 C1040 0.951 . S
H1023 C1042 0.951 . S
H1024 C1044 0.950 . S
H1025 C1045 0.950 . S
H1026 C1047 0.950 . S
H1027 C1050 0.950 . S
H1028 C1051 0.950 . S
H1029 C1053 0.950 . S
H1030 C1054 0.950 . S
H1031 C1055 0.951 . S
H1032 C1057 0.951 . S
H1033 C1059 0.950 . S
H1034 C1060 0.950 . S
H1035 C1062 0.950 . S
H1036 C1065 0.950 . S
H1037 C1066 0.950 . S
H1038 C1068 0.950 . S
H1039 C1069 0.950 . S
C1040 H1022 0.951 . S
C1040 C1041 1.366 . S
C1040 C1042 1.388 . S
C1041 C1040 1.366 . S
C1041 C1045 1.385 . S
C1042 H1023 0.951 . S
C1042 C1040 1.388 . S
C1042 C1043 1.366 . S
C1043 C1042 1.366 . S
C1043 C1044 1.414 . S
C1043 C1046 1.499 . S
C1044 H1024 0.950 . S
C1044 C1043 1.414 . S
C1044 C1045 1.374 . S
C1045 H1025 0.950 . S
C1045 C1041 1.385 . S
C1045 C1044 1.374 . S
C1046 C1043 1.499 . S
C1046 C1047 1.373 1_554 S
C1046 C1048 1.389 . S
C1047 H1026 0.950 . S
C1047 C1046 1.373 1_556 S
C1047 C1063 1.377 . S
C1048 C1046 1.389 . S
C1048 C1049 1.524 . S
C1048 C1062 1.377 . S
C1049 C1048 1.524 . S
C1049 C1050 1.397 . S
C1049 C1054 1.363 . S
C1050 H1027 0.950 . S
C1050 C1049 1.397 . S
C1050 C1051 1.334 . S
C1051 H1028 0.950 . S
C1051 C1050 1.334 . S
C1051 C1052 1.287 . S
C1052 C1051 1.287 . S
C1052 C1053 1.524 . S
C1052 H1071 0.913 . S
C1053 H1029 0.950 . S
C1053 C1052 1.524 . S
C1053 C1054 1.415 . S
C1054 H1030 0.950 . S
C1054 C1049 1.363 . S
C1054 C1053 1.415 . S
C1055 H1031 0.951 . S
C1055 C1056 1.366 . S
C1055 C1057 1.388 . S
C1056 C1055 1.366 . S
C1056 C1060 1.385 . S
C1057 H1032 0.951 . S
C1057 C1055 1.388 . S
C1057 C1058 1.366 . S
C1058 C1057 1.366 . S
C1058 C1059 1.414 . S
C1058 C1061 1.499 . S
C1059 H1033 0.950 . S
C1059 C1058 1.414 . S
C1059 C1060 1.374 . S
C1060 H1034 0.950 . S
C1060 C1056 1.385 . S
C1060 C1059 1.374 . S
C1061 C1058 1.499 . S
C1061 C1062 1.373 1_556 S
C1061 C1063 1.389 . S
C1062 H1035 0.950 . S
C1062 C1048 1.377 . S
C1062 C1061 1.373 1_554 S
C1063 C1047 1.377 . S
C1063 C1061 1.389 . S
C1063 C1064 1.524 . S
C1064 C1063 1.524 . S
C1064 C1065 1.397 . S
C1064 C1069 1.363 . S
C1065 H1036 0.950 . S
C1065 C1064 1.397 . S
C1065 C1066 1.334 . S
C1066 H1037 0.950 . S
C1066 C1065 1.334 . S
C1066 C1067 1.287 . S
C1067 C1066 1.287 . S
C1067 C1068 1.524 . S
C1067 H1070 0.999 . S
C1068 H1038 0.950 . S
C1068 C1067 1.524 . S
C1068 C1069 1.415 . S
C1069 H1039 0.950 . S
C1069 C1064 1.363 . S
C1069 C1068 1.415 . S
H1070 C1067 0.999 . S
H1071 C1052 0.913 . S
H1072 C1090 0.951 . S
H1073 C1092 0.951 . S
H1074 C1094 0.950 1_455 S
H1075 C1095 0.955 . S
H1076 C1097 0.950 . S
H1077 C1100 0.950 . S
H1078 C1101 0.950 . S
H1079 C1103 0.950 . S
H1080 C1104 0.950 . S
H1081 C1105 0.951 . S
H1082 C1107 0.951 . S
H1083 C1109 0.950 1_655 S
H1084 C1110 0.955 . S
H1085 C1112 0.950 . S
H1086 C1115 0.950 . S
H1087 C1116 0.950 . S
H1088 C1118 0.950 . S
H1089 C1119 0.950 . S
C1090 H1072 0.951 . S
C1090 C1091 1.366 . S
C1090 C1092 1.388 . S
C1091 C1090 1.366 . S
C1091 C1095 1.385 . S
C1092 H1073 0.951 . S
C1092 C1090 1.388 . S
C1092 C1093 1.366 . S
C1093 C1092 1.366 . S
C1093 C1094 1.414 . S
C1093 C1096 1.499 . S
C1094 H1074 0.950 1_655 S
C1094 C1093 1.414 . S
C1094 C1095 1.374 . S
C1095 H1075 0.955 . S
C1095 C1091 1.385 . S
C1095 C1094 1.374 . S
C1096 C1093 1.499 . S
C1096 C1097 1.373 1_655 S
C1096 C1098 1.389 . S
C1097 H1076 0.950 . S
C1097 C1096 1.373 1_455 S
C1097 C1113 1.377 1_565 S
C1098 C1096 1.389 . S
C1098 C1099 1.524 . S
C1098 C1112 1.377 1_565 S
C1099 C1098 1.524 . S
C1099 C1100 1.397 . S
C1099 C1104 1.363 1_565 S
C1100 H1077 0.950 . S
C1100 C1099 1.397 . S
C1100 C1101 1.334 . S
C1101 H1078 0.950 . S
C1101 C1100 1.334 . S
C1101 C1102 1.287 . S
C1102 C1101 1.287 . S
C1102 C1103 1.524 1_565 S
C1102 H1121 0.913 . S
C1103 H1079 0.950 . S
C1103 C1102 1.524 1_545 S
C1103 C1104 1.415 . S
C1104 H1080 0.950 . S
C1104 C1099 1.363 1_545 S
C1104 C1103 1.415 . S
C1105 H1081 0.951 . S
C1105 C1106 1.366 . S
C1105 C1107 1.388 . S
C1106 C1105 1.366 . S
C1106 C1110 1.385 . S
C1107 H1082 0.951 . S
C1107 C1105 1.388 . S
C1107 C1108 1.366 . S
C1108 C1107 1.366 . S
C1108 C1109 1.414 . S
C1108 C1111 1.499 . S
C1109 H1083 0.950 1_455 S
C1109 C1108 1.414 . S
C1109 C1110 1.374 . S
C1110 H1084 0.955 . S
C1110 C1106 1.385 . S
C1110 C1109 1.374 . S
C1111 C1108 1.499 . S
C1111 C1112 1.373 1_455 S
C1111 C1113 1.389 . S
C1112 H1085 0.950 . S
C1112 C1098 1.377 1_545 S
C1112 C1111 1.373 1_655 S
C1113 C1097 1.377 1_545 S
C1113 C1111 1.389 . S
C1113 C1114 1.524 . S
C1114 C1113 1.524 . S
C1114 C1115 1.397 . S
C1114 C1119 1.363 1_545 S
C1115 H1086 0.950 . S
C1115 C1114 1.397 . S
C1115 C1116 1.334 . S
C1116 H1087 0.950 . S
C1116 C1115 1.334 . S
C1116 C1117 1.287 . S
C1117 C1116 1.287 . S
C1117 C1118 1.524 1_545 S
C1117 H1120 0.999 . S
C1118 H1088 0.950 . S
C1118 C1117 1.524 1_565 S
C1118 C1119 1.415 . S
C1119 H1089 0.950 . S
C1119 C1114 1.363 1_565 S
C1119 C1118 1.415 . S
H1120 C1117 0.999 . S
H1121 C1102 0.913 . S
H1122 C1140 0.951 . S
H1123 C1142 0.951 . S
H1124 C1144 0.950 . S
H1125 C1145 0.950 . S
H1126 C1147 0.950 . S
H1127 C1150 0.950 . S
H1128 C1151 0.950 . S
H1129 C1153 0.950 . S
H1130 C1154 0.950 . S
H1131 C1155 0.951 . S
H1132 C1157 0.951 . S
H1133 C1159 0.950 . S
H1134 C1160 0.950 . S
H1135 C1162 0.950 . S
H1136 C1165 0.950 . S
H1137 C1166 0.950 . S
H1138 C1168 0.950 . S
H1139 C1169 0.950 . S
C1140 H1122 0.951 . S
C1140 C1141 1.366 . S
C1140 C1142 1.388 . S
C1141 C1140 1.366 . S
C1141 C1145 1.385 . S
C1142 H1123 0.951 . S
C1142 C1140 1.388 . S
C1142 C1143 1.366 . S
C1143 C1142 1.366 . S
C1143 C1144 1.414 . S
C1143 C1146 1.499 . S
C1144 H1124 0.950 . S
C1144 C1143 1.414 . S
C1144 C1145 1.374 . S
C1145 H1125 0.950 . S
C1145 C1141 1.385 . S
C1145 C1144 1.374 . S
C1146 C1143 1.499 . S
C1146 C1147 1.373 . S
C1146 C1148 1.389 . S
C1147 H1126 0.950 . S
C1147 C1146 1.373 . S
C1147 C1163 1.377 . S
C1148 C1146 1.389 . S
C1148 C1149 1.524 . S
C1148 C1162 1.377 . S
C1149 C1148 1.524 . S
C1149 C1150 1.397 . S
C1149 C1154 1.363 . S
C1150 H1127 0.950 . S
C1150 C1149 1.397 . S
C1150 C1151 1.334 . S
C1151 H1128 0.950 . S
C1151 C1150 1.334 . S
C1151 C1152 1.287 . S
C1152 C1151 1.287 . S
C1152 C1153 1.524 . S
C1152 H1171 0.913 . S
C1153 H1129 0.950 . S
C1153 C1152 1.524 . S
C1153 C1154 1.415 . S
C1154 H1130 0.950 . S
C1154 C1149 1.363 . S
C1154 C1153 1.415 . S
C1155 H1131 0.951 . S
C1155 C1156 1.366 . S
C1155 C1157 1.388 . S
C1156 C1155 1.366 . S
C1156 C1160 1.385 . S
C1157 H1132 0.951 . S
C1157 C1155 1.388 . S
C1157 C1158 1.366 . S
C1158 C1157 1.366 . S
C1158 C1159 1.414 . S
C1158 C1161 1.499 . S
C1159 H1133 0.950 . S
C1159 C1158 1.414 . S
C1159 C1160 1.374 . S
C1160 H1134 0.950 . S
C1160 C1156 1.385 . S
C1160 C1159 1.374 . S
C1161 C1158 1.499 . S
C1161 C1162 1.373 . S
C1161 C1163 1.389 . S
C1162 H1135 0.950 . S
C1162 C1148 1.377 . S
C1162 C1161 1.373 . S
C1163 C1147 1.377 . S
C1163 C1161 1.389 . S
C1163 C1164 1.524 . S
C1164 C1163 1.524 . S
C1164 C1165 1.397 . S
C1164 C1169 1.363 . S
C1165 H1136 0.950 . S
C1165 C1164 1.397 . S
C1165 C1166 1.334 . S
C1166 H1137 0.950 . S
C1166 C1165 1.334 . S
C1166 C1167 1.287 . S
C1167 C1166 1.287 . S
C1167 C1168 1.524 . S
C1167 H1170 0.999 . S
C1168 H1138 0.950 . S
C1168 C1167 1.524 . S
C1168 C1169 1.415 . S
C1169 H1139 0.950 . S
C1169 C1164 1.363 . S
C1169 C1168 1.415 . S
H1170 C1167 0.999 . S
H1171 C1152 0.913 . S
H1172 C1190 0.951 . S
H1173 C1192 0.951 . S
H1174 C1194 0.950 . S
H1175 C1195 0.950 . S
H1176 C1197 0.950 . S
H1177 C1200 0.950 . S
H1178 C1201 0.950 . S
H1179 C1203 0.950 . S
H1180 C1204 0.950 . S
H1181 C1205 0.951 . S
H1182 C1207 0.951 . S
H1183 C1209 0.950 . S
H1184 C1210 0.950 . S
H1185 C1212 0.950 . S
H1186 C1215 0.950 . S
H1187 C1216 0.950 . S
H1188 C1218 0.950 . S
H1189 C1219 0.950 . S
C1190 H1172 0.951 . S
C1190 C1191 1.366 . S
C1190 C1192 1.388 . S
C1191 C1190 1.366 . S
C1191 C1195 1.385 . S
C1192 H1173 0.951 . S
C1192 C1190 1.388 . S
C1192 C1193 1.366 . S
C1193 C1192 1.366 . S
C1193 C1194 1.414 . S
C1193 C1196 1.499 . S
C1194 H1174 0.950 . S
C1194 C1193 1.414 . S
C1194 C1195 1.374 . S
C1195 H1175 0.950 . S
C1195 C1191 1.385 . S
C1195 C1194 1.374 . S
C1196 C1193 1.499 . S
C1196 C1197 1.373 . S
C1196 C1198 1.389 . S
C1197 H1176 0.950 . S
C1197 C1196 1.373 . S
C1197 C1213 1.377 . S
C1198 C1196 1.389 . S
C1198 C1199 1.524 . S
C1198 C1212 1.377 . S
C1199 C1198 1.524 . S
C1199 C1200 1.397 . S
C1199 C1204 1.363 . S
C1200 H1177 0.950 . S
C1200 C1199 1.397 . S
C1200 C1201 1.334 . S
C1201 H1178 0.950 . S
C1201 C1200 1.334 . S
C1201 C1202 1.287 . S
C1202 C1201 1.287 . S
C1202 C1203 1.524 . S
C1202 H1221 0.913 . S
C1203 H1179 0.950 . S
C1203 C1202 1.524 . S
C1203 C1204 1.415 . S
C1204 H1180 0.950 . S
C1204 C1199 1.363 . S
C1204 C1203 1.415 . S
C1205 H1181 0.951 . S
C1205 C1206 1.366 . S
C1205 C1207 1.388 . S
C1206 C1205 1.366 . S
C1206 C1210 1.385 . S
C1207 H1182 0.951 . S
C1207 C1205 1.388 . S
C1207 C1208 1.366 . S
C1208 C1207 1.366 . S
C1208 C1209 1.414 . S
C1208 C1211 1.499 . S
C1209 H1183 0.950 . S
C1209 C1208 1.414 . S
C1209 C1210 1.374 . S
C1210 H1184 0.950 . S
C1210 C1206 1.385 . S
C1210 C1209 1.374 . S
C1211 C1208 1.499 . S
C1211 C1212 1.373 . S
C1211 C1213 1.389 . S
C1212 H1185 0.950 . S
C1212 C1198 1.377 . S
C1212 C1211 1.373 . S
C1213 C1197 1.377 . S
C1213 C1211 1.389 . S
C1213 C1214 1.524 . S
C1214 C1213 1.524 . S
C1214 C1215 1.397 . S
C1214 C1219 1.363 . S
C1215 H1186 0.950 . S
C1215 C1214 1.397 . S
C1215 C1216 1.334 . S
C1216 H1187 0.950 . S
C1216 C1215 1.334 . S
C1216 C1217 1.287 . S
C1217 C1216 1.287 . S
C1217 C1218 1.524 . S
C1217 H1220 0.999 . S
C1218 H1188 0.950 . S
C1218 C1217 1.524 . S
C1218 C1219 1.415 . S
C1219 H1189 0.950 . S
C1219 C1214 1.363 . S
C1219 C1218 1.415 . S
H1220 C1217 0.999 . S
H1221 C1202 0.913 . S
H1222 C1240 0.951 . S
H1223 C1242 0.951 . S
H1224 C1244 0.950 1_565 S
H1225 C1245 0.950 . S
H1226 C1247 0.950 . S
H1227 C1250 0.950 . S
H1228 C1251 0.950 . S
H1229 C1253 0.950 . S
H1230 C1254 0.950 . S
H1231 C1255 0.951 . S
H1232 C1257 0.951 . S
H1233 C1259 0.950 1_545 S
H1234 C1260 0.950 . S
H1235 C1262 0.950 . S
H1236 C1265 0.950 . S
H1237 C1266 0.950 . S
H1238 C1268 0.950 . S
H1239 C1269 0.950 . S
C1240 H1222 0.951 . S
C1240 C1241 1.366 . S
C1240 C1242 1.388 . S
C1241 C1240 1.366 . S
C1241 C1245 1.385 . S
C1242 H1223 0.951 . S
C1242 C1240 1.388 . S
C1242 C1243 1.366 . S
C1243 C1242 1.366 . S
C1243 C1244 1.414 . S
C1243 C1246 1.499 . S
C1244 H1224 0.950 1_545 S
C1244 C1243 1.414 . S
C1244 C1245 1.374 . S
C1245 H1225 0.950 . S
C1245 C1241 1.385 . S
C1245 C1244 1.374 . S
C1246 C1243 1.499 . S
C1246 C1247 1.373 1_545 S
C1246 C1248 1.389 . S
C1247 H1226 0.950 . S
C1247 C1246 1.373 1_565 S
C1247 C1263 1.377 1_455 S
C1248 C1246 1.389 . S
C1248 C1249 1.524 . S
C1248 C1262 1.377 1_455 S
C1249 C1248 1.524 . S
C1249 C1250 1.397 . S
C1249 C1254 1.363 1_455 S
C1250 H1227 0.950 . S
C1250 C1249 1.397 . S
C1250 C1251 1.334 . S
C1251 H1228 0.950 . S
C1251 C1250 1.334 . S
C1251 C1252 1.287 . S
C1252 C1251 1.287 . S
C1252 C1253 1.524 1_455 S
C1252 H1271 0.913 . S
C1253 H1229 0.950 . S
C1253 C1252 1.524 1_655 S
C1253 C1254 1.415 . S
C1254 H1230 0.950 . S
C1254 C1249 1.363 1_655 S
C1254 C1253 1.415 . S
C1255 H1231 0.951 . S
C1255 C1256 1.366 . S
C1255 C1257 1.388 . S
C1256 C1255 1.366 . S
C1256 C1260 1.385 . S
C1257 H1232 0.951 . S
C1257 C1255 1.388 . S
C1257 C1258 1.366 . S
C1258 C1257 1.366 . S
C1258 C1259 1.414 . S
C1258 C1261 1.499 . S
C1259 H1233 0.950 1_565 S
C1259 C1258 1.414 . S
C1259 C1260 1.374 . S
C1260 H1234 0.950 . S
C1260 C1256 1.385 . S
C1260 C1259 1.374 . S
C1261 C1258 1.499 . S
C1261 C1262 1.373 1_565 S
C1261 C1263 1.389 . S
C1262 H1235 0.950 . S
C1262 C1248 1.377 1_655 S
C1262 C1261 1.373 1_545 S
C1263 C1247 1.377 1_655 S
C1263 C1261 1.389 . S
C1263 C1264 1.524 . S
C1264 C1263 1.524 . S
C1264 C1265 1.397 . S
C1264 C1269 1.363 1_655 S
C1265 H1236 0.950 . S
C1265 C1264 1.397 . S
C1265 C1266 1.334 . S
C1266 H1237 0.950 . S
C1266 C1265 1.334 . S
C1266 C1267 1.287 . S
C1267 C1266 1.287 . S
C1267 C1268 1.524 1_655 S
C1267 H1270 0.999 . S
C1268 H1238 0.950 . S
C1268 C1267 1.524 1_455 S
C1268 C1269 1.415 . S
C1269 H1239 0.950 . S
C1269 C1264 1.363 1_455 S
C1269 C1268 1.415 . S
H1270 C1267 0.999 . S
H1271 C1252 0.913 . S
C291 C77 0.504 . S
C306 C9 0.506 . S
C341 C111 0.506 . S
C356 C43 0.503 . S
C391 C213 0.504 . S
C406 C145 0.505 . S
C441 C247 0.506 . S
C456 C179 0.503 . S
C491 C156 2.467 . S
C506 C33 2.466 . S
C541 C190 2.467 . S
C556 C67 2.466 . S
C591 C224 2.467 . S
C606 C101 2.466 . S
C641 C135 2.466 . S
C656 C258 2.467 . S
C691 C20 2.467 . S
C706 C169 2.466 . S
C741 C54 2.467 . S
C756 C203 2.466 . S
C791 C88 2.467 . S
C806 C237 2.466 . S
C841 C271 2.466 . S
C856 C122 2.467 . S
C891 C2 1.740 . S
C906 C172 1.740 . S
C941 C206 1.740 . S
C956 C36 1.740 . S
C991 C240 1.740 . S
C1006 C70 1.739 . S
C1041 C138 1.740 . S
C1056 C104 1.740 . S
C1091 C73 0.329 . S
C1106 C5 0.331 . S
C1141 C39 0.333 . S
C1156 C107 0.330 . S
C1191 C209 0.331 . S
C1206 C141 0.329 . S
C1241 C175 0.329 . S
C1256 C243 0.330 . S
