# Generated by pormake.
# Topology uoj, (4)-cn, num edge types: 1
# Building blocks:
#     Node 0, Type 0, BuildingBlock: ESEHIV_clean_sbu_0, # of connection points: 4
#     Node 1, Type 0, BuildingBlock: ESEHIV_clean_sbu_0, # of connection points: 4
#     Node 2, Type 0, BuildingBlock: ESEHIV_clean_sbu_0, # of connection points: 4
#     Node 3, Type 0, BuildingBlock: ESEHIV_clean_sbu_0, # of connection points: 4
#     Node 4, Type 0, BuildingBlock: ESEHIV_clean_sbu_0, # of connection points: 4
#     Node 5, Type 0, BuildingBlock: ESEHIV_clean_sbu_0, # of connection points: 4
#     Node 6, Type 0, BuildingBlock: ESEHIV_clean_sbu_0, # of connection points: 4
#     Node 7, Type 0, BuildingBlock: ESEHIV_clean_sbu_0, # of connection points: 4
#     Edge 8, Type (0, 0), BuildingBlock: MIFKUJ_clean_linker_0, # of connection points: 2
#     Edge 9, Type (0, 0), BuildingBlock: MIFKUJ_clean_linker_0, # of connection points: 2
#     Edge 10, Type (0, 0), BuildingBlock: MIFKUJ_clean_linker_0, # of connection points: 2
#     Edge 11, Type (0, 0), BuildingBlock: MIFKUJ_clean_linker_0, # of connection points: 2
#     Edge 12, Type (0, 0), BuildingBlock: MIFKUJ_clean_linker_0, # of connection points: 2
#     Edge 13, Type (0, 0), BuildingBlock: MIFKUJ_clean_linker_0, # of connection points: 2
#     Edge 14, Type (0, 0), BuildingBlock: MIFKUJ_clean_linker_0, # of connection points: 2
#     Edge 15, Type (0, 0), BuildingBlock: MIFKUJ_clean_linker_0, # of connection points: 2
#     Edge 16, Type (0, 0), BuildingBlock: MIFKUJ_clean_linker_0, # of connection points: 2
#     Edge 17, Type (0, 0), BuildingBlock: MIFKUJ_clean_linker_0, # of connection points: 2
#     Edge 18, Type (0, 0), BuildingBlock: MIFKUJ_clean_linker_0, # of connection points: 2
#     Edge 19, Type (0, 0), BuildingBlock: MIFKUJ_clean_linker_0, # of connection points: 2
#     Edge 20, Type (0, 0), BuildingBlock: MIFKUJ_clean_linker_0, # of connection points: 2
#     Edge 21, Type (0, 0), BuildingBlock: MIFKUJ_clean_linker_0, # of connection points: 2
#     Edge 22, Type (0, 0), BuildingBlock: MIFKUJ_clean_linker_0, # of connection points: 2
#     Edge 23, Type (0, 0), BuildingBlock: MIFKUJ_clean_linker_0, # of connection points: 2
# Relax obj value: 0.033
# Max RMSD: 0.217
# Mean RMSD: 0.217
data_MOF--net-uoj--node1-ESEHIV_clean_sbu_0--edge1-MIFKUJ_clean_linker_0
_symmetry_space_group_name_H-M    P1
_symmetry_Int_Tables_number       1
_symmetry_cell_setting            triclinic
loop_
_symmetry_equiv_pos_as_xyz
'x, y, z'
_cell_length_a     45.00893
_cell_length_b     44.729078
_cell_length_c     56.35598
_cell_angle_alpha  89.751769
_cell_angle_beta   89.938802
_cell_angle_gamma 89.847917
loop_
_atom_site_label
_atom_site_type_symbol
_atom_site_fract_x
_atom_site_fract_y
_atom_site_fract_z
_atom_type_partial_charge
Cu0 Cu 0.04305 0.30274 0.42119 0.0
N1 N 1.00764 0.28103 0.42098 0.0
N2 N 0.96935 0.25253 0.43235 0.0
C3 C 0.99425 0.26692 0.43928 0.0
C4 C 0.96705 0.25793 0.40883 0.0
C5 C 0.99063 0.2755 0.40191 0.0
O6 O 0.07098 0.28305 0.44233 0.0
C7 C 0.05507 0.36311 0.43287 0.0
O8 O 0.08298 0.3548 0.43082 0.0
H9 H 1.00292 0.26663 0.45716 0.0
H10 H 0.99522 0.28357 0.38416 0.0
N11 N 0.05994 0.30152 0.39093 0.0
N12 N 0.08199 0.31412 0.35679 0.0
C13 C 0.06742 0.32416 0.3762 0.0
C14 C 0.06984 0.27649 0.38039 0.0
C15 C 0.08346 0.28416 0.35938 0.0
C16 C 0.06946 0.2828 0.46486 0.0
O17 O 0.04843 0.29815 0.4755 0.0
H18 H 0.06333 0.3475 0.38004 0.0
H19 H 0.06789 0.25425 0.38784 0.0
O20 O 0.0347 0.34382 0.42999 0.0
H21 H 0.94945 0.24996 0.39744 0.0
H22 H 0.09388 0.26889 0.34703 0.0
Cu23 Cu 0.30246 1.00082 0.60298 0.0
N24 N 0.28195 0.03707 0.6046 0.0
N25 N 0.25315 0.07608 0.59498 0.0
C26 C 0.26572 0.05032 0.58743 0.0
C27 C 0.26195 0.07908 0.61774 0.0
C28 C 0.27973 0.05504 0.62359 0.0
O29 O 0.28192 0.97609 0.57988 0.0
C30 C 0.36337 0.98992 0.59087 0.0
O31 O 0.35631 0.9615 0.59229 0.0
H32 H 0.26277 0.04094 0.56991 0.0
H33 H 0.29023 0.05083 0.64054 0.0
N34 N 0.30111 0.98292 0.63304 0.0
N35 N 0.31409 0.96176 0.66753 0.0
C36 C 0.32339 0.97061 0.6458 0.0
C37 C 0.277 0.98164 0.64713 0.0
C38 C 0.28493 0.9687 0.66843 0.0
C39 C 0.28125 0.94765 0.5806 0.0
O40 O 0.2967 0.93338 0.59687 0.0
H41 H 0.3461 0.96895 0.63962 0.0
H42 H 0.25525 0.99003 0.64233 0.0
O43 O 0.34336 1.00962 0.5942 0.0
H44 H 0.25623 0.0975 0.62929 0.0
H45 H 0.27038 0.96464 0.6834 0.0
Cu46 Cu 0.99728 0.7371 0.43021 0.0
N47 N 0.0358 0.75232 0.42927 0.0
N48 N 0.0773 0.77574 0.44029 0.0
C49 C 0.04758 0.77368 0.44319 0.0
C50 C 0.08443 0.75502 0.4239 0.0
C51 C 0.05877 0.74068 0.4171 0.0
O52 O 0.97463 0.76025 0.45322 0.0
C53 C 0.98015 0.67586 0.43803 0.0
O54 O 0.9532 0.68444 0.43219 0.0
H55 H 0.03493 0.7862 0.45616 0.0
H56 H 0.0571 0.72211 0.40493 0.0
N57 N 0.97964 0.74081 0.4003 0.0
N58 N 0.95814 0.72975 0.36568 0.0
C59 C 0.97396 0.71919 0.38431 0.0
C60 C 0.96736 0.76586 0.39134 0.0
C61 C 0.95401 0.75911 0.37005 0.0
C62 C 0.94636 0.76078 0.45367 0.0
O63 O 0.93146 0.74384 0.43892 0.0
H64 H 0.9802 0.696 0.38676 0.0
H65 H 0.96736 0.78734 0.40008 0.0
O66 O 1.00092 0.69509 0.43885 0.0
H67 H 0.10671 0.7501 0.41776 0.0
H68 H 0.94188 0.77454 0.3588 0.0
Cu69 Cu 0.73164 0.04831 0.60281 0.0
N70 N 0.74769 1.00985 0.60087 0.0
N71 N 0.7719 0.96913 0.58845 0.0
C72 C 0.76939 0.99919 0.58666 0.0
C73 C 0.75125 0.96071 0.60448 0.0
C74 C 0.73644 0.98584 0.61212 0.0
O75 O 0.75528 0.07626 0.58426 0.0
C76 C 0.67303 0.06685 0.58848 0.0
O77 O 0.68255 0.09442 0.59083 0.0
H78 H 0.78211 1.01289 0.57449 0.0
H79 H 0.71801 0.98654 0.62444 0.0
N80 N 0.732 0.06022 0.63453 0.0
N81 N 0.71836 0.0775 0.67015 0.0
C82 C 0.70972 0.0719 0.64761 0.0
C83 C 0.75546 0.05841 0.6492 0.0
C84 C 0.74717 0.06903 0.67113 0.0
C85 C 0.75843 0.07435 0.56188 0.0
O86 O 0.74412 0.05337 0.55036 0.0
H87 H 0.68758 0.07584 0.6408 0.0
H88 H 0.77713 0.05 0.64421 0.0
O89 O 0.69083 0.0452 0.59213 0.0
H90 H 0.74686 0.93792 0.60998 0.0
H91 H 0.76148 0.07083 0.68646 0.0
Cu92 Cu 0.49941 0.80796 0.92473 0.0
N93 N 0.53763 0.79179 0.92487 0.0
N94 N 0.57805 0.76593 0.93566 0.0
C95 C 0.55011 0.77422 0.94162 0.0
C96 C 0.58321 0.7789 0.91436 0.0
C97 C 0.55827 0.79482 0.90779 0.0
O98 O 0.47567 0.78609 0.94773 0.0
C99 C 0.49568 0.86353 0.9503 0.0
O100 O 0.48598 0.84764 0.96836 0.0
H101 H 0.53867 0.76724 0.9576 0.0
H102 H 0.55529 0.80764 0.89164 0.0
N103 N 0.48309 0.80294 0.89459 0.0
N104 N 0.46267 0.81275 0.85922 0.0
C105 C 0.4719 0.82422 0.88012 0.0
C106 C 0.48081 0.77716 0.88257 0.0
C107 C 0.46827 0.78312 0.86075 0.0
C108 C 0.44756 0.78851 0.94909 0.0
O109 O 0.43383 0.80802 0.93544 0.0
H110 H 0.47108 0.84768 0.88469 0.0
H111 H 0.48793 0.75558 0.88921 0.0
O112 O 0.50208 0.85056 0.93091 0.0
H113 H 0.60365 0.77729 0.90431 0.0
H114 H 0.46338 0.76681 0.84718 0.0
Cu115 Cu 0.8026 0.54708 0.10651 0.0
N116 N 0.7846 0.50955 0.10537 0.0
N117 N 0.76064 0.46905 0.09243 0.0
C118 C 0.76743 0.498 0.08809 0.0
C119 C 0.77392 0.4623 0.11324 0.0
C120 C 0.78863 0.4873 0.12116 0.0
O121 O 0.7798 0.57526 0.0875 0.0
C122 C 0.86152 0.56352 0.093 0.0
O123 O 0.85272 0.59109 0.09692 0.0
H124 H 0.76097 0.5102 0.07229 0.0
H125 H 0.80192 0.48902 0.13708 0.0
N126 N 0.80249 0.56056 0.13787 0.0
N127 N 0.8156 0.58095 0.17251 0.0
C128 C 0.82502 0.57161 0.15097 0.0
C129 C 0.77819 0.56274 0.15165 0.0
C130 C 0.78615 0.57528 0.17296 0.0
C131 C 0.78075 0.57663 0.06496 0.0
O132 O 0.7988 0.55874 0.05339 0.0
H133 H 0.84763 0.57357 0.14461 0.0
H134 H 0.7561 0.55605 0.14634 0.0
O135 O 0.84314 0.54221 0.09554 0.0
H136 H 0.77319 0.44076 0.12206 0.0
H137 H 0.77135 0.57991 0.18765 0.0
Cu138 Cu 0.54319 0.23681 0.9291 0.0
N139 N 0.50323 0.24725 0.93226 0.0
N140 N 0.46134 0.26892 0.94492 0.0
C141 C 0.49136 0.26909 0.94571 0.0
C142 C 0.45417 0.24616 0.93035 0.0
C143 C 0.48005 0.23289 0.92256 0.0
O144 O 0.56686 0.26362 0.94841 0.0
C145 C 0.53457 0.18291 0.95531 0.0
O146 O 0.51915 0.19979 0.96987 0.0
H147 H 0.50445 0.28416 0.95641 0.0
H148 H 0.4819 0.21378 0.91096 0.0
N149 N 0.55436 0.24063 0.89735 0.0
N150 N 0.57205 0.22935 0.86136 0.0
C151 C 0.56827 0.21995 0.884 0.0
C152 C 0.54919 0.26393 0.88278 0.0
C153 C 0.56005 0.25705 0.86056 0.0
C154 C 0.59258 0.25727 0.9563 0.0
O155 O 0.60408 0.23086 0.95182 0.0
H156 H 0.57485 0.1982 0.89067 0.0
H157 H 0.53807 0.28437 0.88794 0.0
O158 O 0.54773 0.19497 0.93773 0.0
H159 H 0.43183 0.23955 0.92566 0.0
H160 H 0.55934 0.27145 0.84509 0.0
Cu161 Cu 0.23278 0.50293 0.09811 0.0
N162 N 0.24962 0.54095 0.09863 0.0
N163 N 0.27385 0.5821 0.08723 0.0
C164 C 0.26981 0.55257 0.08352 0.0
C165 C 0.25566 0.58924 0.1054 0.0
C166 C 0.2408 0.56379 0.11242 0.0
O167 O 0.25459 0.47881 0.07523 0.0
C168 C 0.17189 0.48811 0.08751 0.0
O169 O 0.18006 0.45998 0.08918 0.0
H170 H 0.28013 0.54002 0.06933 0.0
H171 H 0.22389 0.56222 0.12602 0.0
N172 N 0.23599 0.48564 0.12823 0.0
N173 N 0.22493 0.46338 0.16273 0.0
C174 C 0.21407 0.47636 0.14281 0.0
C175 C 0.26149 0.47853 0.13931 0.0
C176 C 0.25478 0.46478 0.16056 0.0
C177 C 0.25522 0.45036 0.07602 0.0
O178 O 0.23921 0.43626 0.09201 0.0
H179 H 0.19069 0.47832 0.13861 0.0
H180 H 0.28344 0.48271 0.13222 0.0
O181 O 0.19115 0.5086 0.09008 0.0
H182 H 0.25289 0.61139 0.11275 0.0
H183 H 0.27067 0.45648 0.1734 0.0
H184 H 0.16973 0.47839 0.1783 0.0
H185 H 0.14201 0.455 0.21095 0.0
H186 H 0.21494 0.39416 0.22316 0.0
H187 H 0.24247 0.41709 0.19051 0.0
H188 H 0.16077 0.36569 0.22252 0.0
H189 H 0.20445 0.45313 0.25899 0.0
H190 H 0.21372 0.50721 0.26284 0.0
H191 H 0.12016 0.52324 0.27096 0.0
H192 H 0.1103 0.46926 0.26682 0.0
H193 H 0.1333 0.30263 0.3338 0.0
H194 H 0.15447 0.33035 0.30052 0.0
H195 H 0.08101 0.39247 0.30298 0.0
H196 H 0.06021 0.36505 0.33702 0.0
H197 H 0.12996 0.42192 0.29419 0.0
H198 H 0.08537 0.33565 0.26038 0.0
H199 H 0.07433 0.28201 0.25584 0.0
H200 H 0.16627 0.26415 0.24107 0.0
H201 H 0.17795 0.31763 0.24585 0.0
C202 C 0.17976 0.45993 0.18787 0.0
C203 C 0.20838 0.44971 0.18186 0.0
C204 C 0.16399 0.44673 0.20662 0.0
C205 C 0.1765 0.42296 0.21961 0.0
C206 C 0.20488 0.41251 0.21344 0.0
C207 C 0.2207 0.42582 0.19487 0.0
C208 C 0.16015 0.40863 0.23956 0.0
C209 C 0.15424 0.37791 0.23828 0.0
C210 C 0.15066 0.42481 0.25974 0.0
C211 C 0.15661 0.45721 0.26233 0.0
C212 C 0.18583 0.46822 0.26139 0.0
C213 C 0.1912 0.49884 0.26367 0.0
C214 C 0.16753 0.51866 0.26707 0.0
C215 C 0.13846 0.50787 0.26828 0.0
C216 C 0.13297 0.47727 0.26599 0.0
C217 C 0.12161 0.32213 0.3272 0.0
C218 C 0.0949 0.33145 0.33779 0.0
C219 C 0.13368 0.33796 0.30812 0.0
C220 C 0.11897 0.3631 0.29874 0.0
C221 C 0.0927 0.37304 0.30975 0.0
C222 C 0.08082 0.3574 0.32918 0.0
C223 C 0.13115 0.37871 0.27742 0.0
C224 C 0.13619 0.40967 0.27837 0.0
C225 C 0.13953 0.36282 0.25674 0.0
C226 C 0.13256 0.33064 0.25364 0.0
C227 C 0.10327 0.32026 0.2563 0.0
C228 C 0.09689 0.28989 0.25367 0.0
C229 C 0.11959 0.26968 0.24822 0.0
C230 C 0.14871 0.27982 0.24531 0.0
C231 C 0.15522 0.31018 0.24795 0.0
H232 H 0.11461 0.24617 0.2462 0.0
H233 H 0.17173 0.54236 0.26883 0.0
H234 H 0.35877 0.92165 0.6626 0.0
H235 H 0.38666 0.89686 0.69464 0.0
H236 H 0.33687 0.94686 0.74652 0.0
H237 H 0.30873 0.97129 0.71462 0.0
H238 H 0.40163 0.94396 0.75393 0.0
H239 H 0.31623 0.88071 0.73918 0.0
H240 H 0.28336 0.85059 0.71382 0.0
H241 H 0.35681 0.79397 0.69499 0.0
H242 H 0.39023 0.82407 0.71999 0.0
H243 H 0.43092 0.86444 0.86048 0.0
H244 H 0.40838 0.89074 0.82691 0.0
H245 H 0.44257 0.82368 0.77926 0.0
H246 H 0.46496 0.79721 0.81277 0.0
H247 H 0.38776 0.83532 0.76807 0.0
H248 H 0.4731 0.89419 0.78262 0.0
H249 H 0.50908 0.92395 0.80539 0.0
H250 H 0.4411 0.9883 0.82142 0.0
H251 H 0.40451 0.95858 0.79915 0.0
C252 C 0.35401 0.92747 0.68084 0.0
C253 C 0.33151 0.94825 0.68616 0.0
C254 C 0.36983 0.91327 0.69909 0.0
C255 C 0.36374 0.92 0.72293 0.0
C256 C 0.3419 0.94138 0.72824 0.0
C257 C 0.32572 0.95514 0.71004 0.0
C258 C 0.37939 0.90408 0.74241 0.0
C259 C 0.39841 0.92028 0.75725 0.0
C260 C 0.37589 0.87302 0.74616 0.0
C261 C 0.35579 0.85484 0.73123 0.0
C262 C 0.32543 0.86201 0.72946 0.0
C263 C 0.30668 0.84491 0.71518 0.0
C264 C 0.318 0.82044 0.70274 0.0
C265 C 0.34808 0.81297 0.7046 0.0
C266 C 0.36693 0.83003 0.71883 0.0
C267 C 0.43391 0.85544 0.84284 0.0
C268 C 0.44978 0.82868 0.83937 0.0
C269 C 0.421 0.87053 0.82362 0.0
C270 C 0.42399 0.8594 0.80044 0.0
C271 C 0.43984 0.8327 0.79694 0.0
C272 C 0.45259 0.81752 0.81616 0.0
C273 C 0.40999 0.87519 0.77995 0.0
C274 C 0.39121 0.85898 0.76484 0.0
C275 C 0.41418 0.90616 0.77571 0.0
C276 C 0.43597 0.92396 0.78941 0.0
C277 C 0.46572 0.91451 0.79122 0.0
C278 C 0.48624 0.93139 0.80402 0.0
C279 C 0.47737 0.95794 0.81491 0.0
C280 C 0.44793 0.96767 0.81304 0.0
C281 C 0.42728 0.95081 0.80033 0.0
H282 H 0.49336 0.97102 0.8247 0.0
H283 H 0.30345 0.80722 0.6917 0.0
H284 H 0.9059 0.73953 0.34331 0.0
H285 H 0.88508 0.71107 0.31035 0.0
H286 H 0.96188 0.65326 0.31068 0.0
H287 H 0.98283 0.68171 0.34394 0.0
H288 H 0.94313 0.67562 0.26398 0.0
H289 H 0.90387 0.62532 0.33256 0.0
H290 H 0.87869 0.62247 0.37138 0.0
H291 H 0.79983 0.66079 0.34091 0.0
H292 H 0.82471 0.66431 0.30198 0.0
H293 H 0.87401 0.57238 0.18302 0.0
H294 H 0.90194 0.59531 0.21557 0.0
H295 H 0.82384 0.6453 0.2358 0.0
H296 H 0.79599 0.62219 0.20376 0.0
H297 H 0.84717 0.62264 0.27339 0.0
H298 H 0.8852 0.67442 0.20523 0.0
H299 H 0.9103 0.68133 0.16672 0.0
H300 H 0.99107 0.64561 0.19592 0.0
H301 H 0.96612 0.6372 0.23426 0.0
C302 C 0.91847 0.72091 0.33628 0.0
C303 C 0.94606 0.71291 0.34617 0.0
C304 C 0.90647 0.70456 0.31754 0.0
C305 C 0.9219 0.68002 0.30812 0.0
C306 C 0.94963 0.67214 0.31771 0.0
C307 C 0.96147 0.68826 0.33676 0.0
C308 C 0.90871 0.66268 0.28836 0.0
C309 C 0.92243 0.66349 0.26602 0.0
C310 C 0.88136 0.6476 0.29103 0.0
C311 C 0.86625 0.6453 0.31439 0.0
C312 C 0.88124 0.63337 0.33418 0.0
C313 C 0.86701 0.63159 0.3562 0.0
C314 C 0.8377 0.6415 0.35862 0.0
C315 C 0.82254 0.65314 0.33901 0.0
C316 C 0.83669 0.655 0.31696 0.0
C317 C 0.86293 0.58843 0.19433 0.0
C318 C 0.83269 0.59526 0.19092 0.0
C319 C 0.87892 0.60156 0.21294 0.0
C320 C 0.86507 0.62216 0.22822 0.0
C321 C 0.83503 0.6293 0.22448 0.0
C322 C 0.81905 0.61601 0.20614 0.0
C323 C 0.88123 0.63586 0.24855 0.0
C324 C 0.86804 0.63439 0.27117 0.0
C325 C 0.90893 0.65064 0.24597 0.0
C326 C 0.92359 0.65468 0.22256 0.0
C327 C 0.90814 0.66747 0.20333 0.0
C328 C 0.92236 0.67167 0.1815 0.0
C329 C 0.9522 0.6637 0.1788 0.0
C330 C 0.96789 0.65154 0.19793 0.0
C331 C 0.95367 0.64689 0.21968 0.0
H332 H 0.96322 0.66707 0.16192 0.0
H333 H 0.82671 0.6401 0.37568 0.0
H334 H 0.61423 0.18598 0.86444 0.0
H335 H 0.63731 0.15874 0.83168 0.0
H336 H 0.58427 0.20872 0.78159 0.0
H337 H 0.56064 0.2356 0.81429 0.0
H338 H 0.58612 0.14884 0.77098 0.0
H339 H 0.65613 0.22648 0.78989 0.0
H340 H 0.68869 0.25551 0.81631 0.0
H341 H 0.73838 0.17611 0.83308 0.0
H342 H 0.70584 0.14653 0.80699 0.0
H343 H 0.67002 0.11398 0.66636 0.0
H344 H 0.64277 0.13784 0.6988 0.0
H345 H 0.7 0.09413 0.74965 0.0
H346 H 0.72714 0.07021 0.71743 0.0
H347 H 0.69541 0.151 0.7599 0.0
H348 H 0.62765 0.07312 0.74087 0.0
H349 H 0.59405 0.04214 0.71684 0.0
H350 H 0.53935 0.11882 0.70234 0.0
H351 H 0.57308 0.1505 0.72572 0.0
C352 C 0.60727 0.19102 0.84649 0.0
C353 C 0.58563 0.21311 0.84204 0.0
C354 C 0.62066 0.17558 0.82775 0.0
C355 C 0.61274 0.18189 0.80414 0.0
C356 C 0.59081 0.20354 0.79965 0.0
C357 C 0.5775 0.21909 0.81837 0.0
C358 C 0.62749 0.1661 0.78414 0.0
C359 C 0.60998 0.14963 0.76829 0.0
C360 C 0.65869 0.16645 0.78108 0.0
C361 C 0.67837 0.18425 0.79666 0.0
C362 C 0.67386 0.21518 0.79935 0.0
C363 C 0.69233 0.23173 0.81424 0.0
C364 C 0.71554 0.21765 0.82641 0.0
C365 C 0.72037 0.18699 0.82366 0.0
C366 C 0.70194 0.17032 0.80881 0.0
C367 C 0.67655 0.10911 0.68444 0.0
C368 C 0.701 0.09032 0.68921 0.0
C369 C 0.66093 0.12279 0.70301 0.0
C370 C 0.66927 0.11778 0.72674 0.0
C371 C 0.69325 0.09856 0.73152 0.0
C372 C 0.70886 0.08496 0.71302 0.0
C373 C 0.65408 0.13357 0.74659 0.0
C374 C 0.67153 0.15015 0.76245 0.0
C375 C 0.62283 0.13307 0.74973 0.0
C376 C 0.60314 0.11429 0.73485 0.0
C377 C 0.60873 0.08351 0.73226 0.0
C378 C 0.5896 0.06579 0.71881 0.0
C379 C 0.56458 0.0785 0.70808 0.0
C380 C 0.55874 0.109 0.71067 0.0
C381 C 0.57791 0.12687 0.72396 0.0
H382 H 0.54974 0.06473 0.69774 0.0
H383 H 0.72982 0.23051 0.83794 0.0
H384 H 0.25355 0.08584 0.54741 0.0
H385 H 0.22232 0.12101 0.52516 0.0
H386 H 0.17899 0.14744 0.59008 0.0
H387 H 0.2098 0.11203 0.61235 0.0
H388 H 0.13921 0.13878 0.55328 0.0
H389 H 0.23132 0.1912 0.56652 0.0
H390 H 0.28569 0.19755 0.56492 0.0
H391 H 0.28361 0.19087 0.48895 0.0
H392 H 0.22924 0.18405 0.49014 0.0
H393 H 0.06889 0.27142 0.51273 0.0
H394 H 0.1006 0.23653 0.53478 0.0
H395 H 0.14748 0.21473 0.47032 0.0
H396 H 0.11616 0.24972 0.44821 0.0
H397 H 0.18555 0.22058 0.50652 0.0
H398 H 0.09536 0.16834 0.49185 0.0
H399 H 0.0412 0.16049 0.49165 0.0
H400 H 0.03953 0.16427 0.56776 0.0
H401 H 0.0937 0.17271 0.5684 0.0
C402 C 0.23719 0.09892 0.55692 0.0
C403 C 0.2343 0.09623 0.58169 0.0
C404 C 0.2195 0.11917 0.5442 0.0
C405 C 0.19852 0.13706 0.556 0.0
C406 C 0.1951 0.13394 0.58063 0.0
C407 C 0.21291 0.11386 0.59336 0.0
C408 C 0.18039 0.15936 0.54275 0.0
C409 C 0.1493 0.15692 0.54332 0.0
C410 C 0.1936 0.1825 0.52919 0.0
C411 C 0.22625 0.18682 0.52844 0.0
C412 C 0.24248 0.19086 0.54949 0.0
C413 C 0.2733 0.19458 0.54865 0.0
C414 C 0.28811 0.19454 0.52685 0.0
C415 C 0.27211 0.19086 0.50583 0.0
C416 C 0.2413 0.18709 0.50657 0.0
C417 C 0.08609 0.25939 0.50327 0.0
C418 C 0.08986 0.26329 0.47868 0.0
C419 C 0.10411 0.23933 0.51588 0.0
C420 C 0.12618 0.2227 0.50414 0.0
C421 C 0.13057 0.22725 0.47974 0.0
C422 C 0.11256 0.24723 0.46712 0.0
C423 C 0.14431 0.20017 0.51717 0.0
C424 C 0.1754 0.20251 0.51652 0.0
C425 C 0.13111 0.17671 0.53042 0.0
C426 C 0.09855 0.17149 0.53016 0.0
C427 C 0.08342 0.16776 0.50855 0.0
C428 C 0.05271 0.16315 0.50835 0.0
C429 C 0.0369 0.16193 0.52968 0.0
C430 C 0.0518 0.16526 0.55125 0.0
C431 C 0.08251 0.16995 0.55154 0.0
H432 H 1.01313 0.15835 0.52948 0.0
H433 H 0.31196 0.19742 0.52624 0.0
H434 H 0.28078 0.88744 0.57207 0.0
H435 H 0.24637 0.8596 0.54685 0.0
H436 H 0.20201 0.94177 0.52774 0.0
H437 H 0.23652 0.96985 0.55269 0.0
H438 H 0.16308 0.89484 0.54214 0.0
H439 H 0.24495 0.91119 0.48832 0.0
H440 H 0.29751 0.90937 0.47599 0.0
H441 H 0.29765 0.8138 0.48351 0.0
H442 H 0.24519 0.81509 0.49621 0.0
H443 H 0.06983 0.83335 0.45325 0.0
H444 H 0.10476 0.86424 0.4757 0.0
H445 H 0.16482 0.78907 0.48119 0.0
H446 H 0.13064 0.75893 0.45764 0.0
H447 H 0.19603 0.83435 0.47337 0.0
H448 H 0.11714 0.81576 0.52872 0.0
H449 H 0.06542 0.81498 0.54321 0.0
H450 H 0.06025 0.91047 0.5361 0.0
H451 H 0.11185 0.91178 0.52128 0.0
C452 C 0.26384 0.89963 0.56238 0.0
C453 C 0.26146 0.93088 0.56437 0.0
C454 C 0.24422 0.88368 0.54795 0.0
C455 C 0.22167 0.89863 0.53539 0.0
C456 C 0.21924 0.92981 0.5373 0.0
C457 C 0.23909 0.94582 0.55147 0.0
C458 C 0.20031 0.88164 0.5206 0.0
C459 C 0.17014 0.88191 0.52689 0.0
C460 C 0.20972 0.86408 0.50118 0.0
C461 C 0.24122 0.86328 0.49343 0.0
C462 C 0.25626 0.88981 0.48753 0.0
C463 C 0.28602 0.88887 0.48044 0.0
C464 C 0.30093 0.8615 0.47902 0.0
C465 C 0.28609 0.83499 0.48464 0.0
C466 C 0.25633 0.83582 0.49176 0.0
C467 C 0.09052 0.82357 0.45932 0.0
C468 C 0.0976 0.79383 0.45373 0.0
C469 C 0.11043 0.84112 0.47227 0.0
C470 C 0.13737 0.82895 0.48062 0.0
C471 C 0.14433 0.79915 0.47498 0.0
C472 C 0.12479 0.78188 0.46153 0.0
C473 C 0.15851 0.84716 0.49495 0.0
C474 C 0.18875 0.84721 0.48859 0.0
C475 C 0.14922 0.86453 0.51464 0.0
C476 C 0.11825 0.86382 0.52366 0.0
C477 C 0.10491 0.83657 0.5301 0.0
C478 C 0.07562 0.83603 0.53839 0.0
C479 C 0.05953 0.86265 0.54051 0.0
C480 C 0.07273 0.88987 0.53441 0.0
C481 C 0.102 0.89052 0.52609 0.0
H482 H 0.03686 0.86219 0.54692 0.0
H483 H 0.32397 0.86082 0.47353 0.0
H484 H 0.75727 0.91536 0.57063 0.0
H485 H 0.78928 0.88119 0.54861 0.0
H486 H 0.86165 0.94394 0.5539 0.0
H487 H 0.82894 0.97885 0.57518 0.0
H488 H 0.863 0.92044 0.51227 0.0
H489 H 0.85631 0.87872 0.58999 0.0
H490 H 0.83161 0.86051 0.62633 0.0
H491 H 0.7872 0.79261 0.5862 0.0
H492 H 0.81133 0.81067 0.54954 0.0
H493 H 0.96916 0.80806 0.47849 0.0
H494 H 0.94181 0.84447 0.50255 0.0
H495 H 0.86011 0.79765 0.48857 0.0
H496 H 0.88716 0.76135 0.46436 0.0
H497 H 0.8676 0.81377 0.5366 0.0
H498 H 0.87433 0.85882 0.45843 0.0
H499 H 0.90123 0.87733 0.42319 0.0
H500 H 0.94926 0.9393 0.46659 0.0
H501 H 0.92292 0.92084 0.50215 0.0
C502 C 0.78004 0.9218 0.56715 0.0
C503 C 0.79077 0.94956 0.57485 0.0
C504 C 0.7984 0.9022 0.55463 0.0
C505 C 0.82823 0.90951 0.55011 0.0
C506 C 0.83881 0.93763 0.55728 0.0
C507 C 0.82018 0.95756 0.56943 0.0
C508 C 0.84811 0.88775 0.53784 0.0
C509 C 0.86436 0.89725 0.5179 0.0
C510 C 0.84985 0.85731 0.54494 0.0
C511 C 0.83547 0.8462 0.56698 0.0
C512 C 0.84115 0.86001 0.58889 0.0
C513 C 0.82726 0.8497 0.60955 0.0
C514 C 0.8078 0.82545 0.60857 0.0
C515 C 0.80226 0.8114 0.58693 0.0
C516 C 0.81607 0.82164 0.56621 0.0
C517 C 0.9454 0.80539 0.48067 0.0
C518 C 0.93031 0.78182 0.46946 0.0
C519 C 0.9298 0.82629 0.49433 0.0
C520 C 0.89891 0.82387 0.4972 0.0
C521 C 0.88394 0.79994 0.48656 0.0
C522 C 0.89944 0.77925 0.47269 0.0
C523 C 0.88196 0.84645 0.51098 0.0
C524 C 0.86634 0.83705 0.5312 0.0
C525 C 0.88121 0.877 0.50437 0.0
C526 C 0.8969 0.88822 0.48298 0.0
C527 C 0.89081 0.87621 0.46049 0.0
C528 C 0.90592 0.88673 0.44045 0.0
C529 C 0.92701 0.90942 0.44266 0.0
C530 C 0.93296 0.9217 0.46491 0.0
C531 C 0.91794 0.91123 0.485 0.0
H532 H 0.93868 0.91753 0.42713 0.0
H533 H 0.79706 0.81752 0.62458 0.0
H534 H 0.79051 0.12094 0.58009 0.0
H535 H 0.82712 0.15208 0.55959 0.0
H536 H 0.81118 0.104 0.4947 0.0
H537 H 0.77469 0.07262 0.51508 0.0
H538 H 0.87028 0.11037 0.50332 0.0
H539 H 0.78367 0.17419 0.50267 0.0
H540 H 0.7419 0.20183 0.52062 0.0
H541 H 0.803 0.25261 0.5627 0.0
H542 H 0.84513 0.22497 0.54522 0.0
H543 H 0.93578 0.20574 0.41814 0.0
H544 H 0.90137 0.17635 0.44222 0.0
H545 H 0.92356 0.22901 0.50359 0.0
H546 H 0.95782 0.25892 0.4794 0.0
H547 H 0.8634 0.22101 0.49932 0.0
H548 H 0.94985 0.15958 0.50001 0.0
H549 H 0.99252 0.13218 0.48326 0.0
H550 H 0.93328 0.07725 0.44282 0.0
H551 H 0.89021 0.10455 0.45914 0.0
C552 C 0.79464 0.11708 0.56142 0.0
C553 C 0.77959 0.09427 0.54923 0.0
C554 C 0.81555 0.13498 0.5497 0.0
C555 C 0.8218 0.13051 0.52555 0.0
C556 C 0.80675 0.10785 0.51334 0.0
C557 C 0.78577 0.09 0.525 0.0
C558 C 0.84445 0.14902 0.51308 0.0
C559 C 0.86857 0.13454 0.5022 0.0
C560 C 0.84283 0.18064 0.51233 0.0
C561 C 0.81752 0.19729 0.52283 0.0
C562 C 0.78818 0.19107 0.5159 0.0
C563 C 0.76444 0.20678 0.52596 0.0
C564 C 0.76978 0.2289 0.54284 0.0
C565 C 0.79889 0.23543 0.54965 0.0
C566 C 0.8227 0.21977 0.53966 0.0
C567 C 0.93327 0.21121 0.43671 0.0
C568 C 0.94955 0.23475 0.44681 0.0
C569 C 0.91376 0.19421 0.45053 0.0
C570 C 0.91004 0.2003 0.47477 0.0
C571 C 0.92614 0.22385 0.48493 0.0
C572 C 0.94586 0.24078 0.47113 0.0
C573 C 0.88893 0.18231 0.48924 0.0
C574 C 0.86517 0.19686 0.50054 0.0
C575 C 0.89099 0.15076 0.49056 0.0
C576 C 0.91681 0.1343 0.48064 0.0
C577 C 0.94592 0.14183 0.48739 0.0
C578 C 0.97018 0.12628 0.47801 0.0
C579 C 0.96562 0.10306 0.46193 0.0
C580 C 0.93678 0.09527 0.45525 0.0
C581 C 0.91243 0.11074 0.4646 0.0
H582 H 0.98444 0.09105 0.45468 0.0
H583 H 0.75137 0.24104 0.55061 0.0
H584 H 0.32836 0.5715 0.06883 0.0
H585 H 0.35898 0.60656 0.04565 0.0
H586 H 0.28986 0.67315 0.05069 0.0
H587 H 0.25957 0.63848 0.07423 0.0
H588 H 0.31592 0.66179 1.00255 0.0
H589 H 0.34238 0.68443 0.08391 0.0
H590 H 0.35998 0.67136 0.12406 0.0
H591 H 0.44202 0.63872 0.09494 0.0
H592 H 0.42469 0.65119 0.05455 0.0
H593 H 0.38826 0.79094 0.95984 0.0
H594 H 0.35955 0.75555 0.9837 0.0
H595 H 0.43888 0.70359 0.99656 0.0
H596 H 0.46787 0.73941 0.97336 0.0
H597 H 0.4083 0.70554 0.03537 0.0
H598 H 0.38523 0.68233 0.95517 0.0
H599 H 0.36929 0.69157 0.91394 0.0
H600 H 0.28353 0.72008 0.93863 0.0
H601 H 0.29911 0.71141 0.98006 0.0
C602 C 0.31978 0.59361 0.06492 0.0
C603 C 0.29172 0.60238 0.0734 0.0
C604 C 0.33725 0.61359 0.05178 0.0
C605 C 0.32665 0.64242 0.04653 0.0
C606 C 0.29842 0.65101 0.05459 0.0
C607 C 0.28125 0.63129 0.06814 0.0
C608 C 0.34502 0.66378 0.03274 0.0
C609 C 0.33595 0.67168 1.00976 0.0
C610 C 0.37162 0.6758 0.04193 0.0
C611 C 0.38209 0.66841 0.0662 0.0
C612 C 0.36404 0.67419 0.08605 0.0
C613 C 0.374 0.66695 0.10885 0.0
C614 C 0.40206 0.65413 0.11205 0.0
C615 C 0.42026 0.6486 0.09244 0.0
C616 C 0.41039 0.65576 0.06959 0.0
C617 C 0.39964 0.77207 0.96785 0.0
C618 C 0.43035 0.76796 0.96458 0.0
C619 C 0.38315 0.75171 0.98138 0.0
C620 C 0.39689 0.72649 0.99159 0.0
C621 C 0.42769 0.72276 0.98883 0.0
C622 C 0.44426 0.74329 0.97551 0.0
C623 C 0.37914 0.70399 1.00505 0.0
C624 C 0.38833 0.69574 0.028 0.0
C625 C 0.35291 0.69118 0.99562 0.0
C626 C 0.34345 0.69652 0.97074 0.0
C627 C 0.36306 0.69081 0.95182 0.0
C628 C 0.35407 0.69591 0.92841 0.0
C629 C 0.32544 0.70649 0.92367 0.0
C630 C 0.30572 0.71193 0.94233 0.0
C631 C 0.31461 0.70691 0.96578 0.0
H632 H 0.31852 0.7104 0.90553 0.0
H633 H 0.40973 0.64856 0.12972 0.0
H634 H 0.77778 0.58664 0.01699 0.0
H635 H 0.74355 0.61971 0.99564 0.0
H636 H 0.70396 0.64653 0.06197 0.0
H637 H 0.73793 0.61339 0.08344 0.0
H638 H 0.66196 0.63399 0.02929 0.0
H639 H 0.75044 0.69311 0.03258 0.0
H640 H 0.80367 0.70412 0.02716 0.0
H641 H 0.79517 0.69069 0.95208 0.0
H642 H 0.74194 0.67918 0.95709 0.0
H643 H 0.57924 0.75742 0.98342 0.0
H644 H 0.61362 0.72575 1.00587 0.0
H645 H 0.65687 0.69983 0.94076 0.0
H646 H 0.62265 0.73145 0.91826 0.0
H647 H 0.69704 0.71255 0.97361 0.0
H648 H 0.60864 0.65266 0.97043 0.0
H649 H 0.55535 0.64192 0.97588 0.0
H650 H 0.56365 0.65687 0.05079 0.0
H651 H 0.61694 0.66811 0.04573 0.0
C652 C 0.76189 0.59965 0.02706 0.0
C653 C 0.76068 0.59737 0.05195 0.0
C654 C 0.74238 0.61864 0.01483 0.0
C655 C 0.72131 0.6358 0.02721 0.0
C656 C 0.72002 0.63352 0.05204 0.0
C657 C 0.73956 0.61463 0.06429 0.0
C658 C 0.7003 0.65574 1.01426 0.0
C659 C 0.66964 0.65145 0.01736 0.0
C660 C 0.71026 0.67812 0.99831 0.0
C661 C 0.74227 0.68498 0.99524 0.0
C662 C 0.75998 0.69224 0.01494 0.0
C663 C 0.79014 0.69863 1.01193 0.0
C664 C 0.80281 0.69802 0.9893 0.0
C665 C 0.78533 0.6911 0.96961 0.0
C666 C 0.75516 0.68467 0.97251 0.0
C667 C 0.59587 0.74477 0.97385 0.0
C668 C 0.59812 0.74701 0.949 0.0
C669 C 0.61556 0.72667 0.98672 0.0
C670 C 0.63771 0.71013 0.97501 0.0
C671 C 0.64005 0.71242 0.95022 0.0
C672 C 0.62048 0.7306 0.93737 0.0
C673 C 0.65868 0.6907 0.98852 0.0
C674 C 0.68935 0.69511 0.98554 0.0
C675 C 0.64871 0.66842 1.00457 0.0
C676 C 0.61671 0.66152 1.00766 0.0
C677 C 0.59905 0.65388 0.98804 0.0
C678 C 0.56886 0.64766 0.99106 0.0
C679 C 0.5561 0.64879 1.01366 0.0
C680 C 0.57355 0.65605 0.03329 0.0
C681 C 0.60375 0.66232 0.03036 0.0
H682 H 0.53272 0.64397 0.01596 0.0
H683 H 0.82617 0.70299 0.98701 0.0
H684 H 0.71397 0.4829 0.06402 0.0
H685 H 0.68499 0.44823 0.03959 0.0
H686 H 0.74081 0.37522 0.06267 0.0
H687 H 0.76971 0.40968 0.08705 0.0
H688 H 0.72992 0.37586 1.01327 0.0
H689 H 0.67556 0.3825 0.0871 0.0
H690 H 0.64937 0.4091 0.11918 0.0
H691 H 0.58676 0.44441 0.06883 0.0
H692 H 0.61287 0.41835 0.03638 0.0
H693 H 0.64592 0.2499 0.97901 0.0
H694 H 0.67413 0.28728 1.00097 0.0
H695 H 0.60659 0.35327 0.98585 0.0
H696 H 0.57788 0.3158 0.96442 0.0
H697 H 0.62305 0.35855 0.02984 0.0
H698 H 0.67467 0.35211 0.95618 0.0
H699 H 0.70054 0.32773 0.92285 0.0
H700 H 0.76773 0.29512 0.97047 0.0
H701 H 0.74203 0.31897 1.00416 0.0
C702 C 0.72013 0.4595 0.06373 0.0
C703 C 0.74398 0.44898 0.07756 0.0
C704 C 0.7035 0.4397 0.04989 0.0
C705 C 0.71065 0.40911 0.04944 0.0
C706 C 0.73487 0.39871 0.0628 0.0
C707 C 0.75121 0.41838 0.07686 0.0
C708 C 0.69273 0.38774 0.03534 0.0
C709 C 0.70662 0.37181 0.01701 0.0
C710 C 0.66213 0.38317 0.03978 0.0
C711 C 0.64637 0.39875 0.05928 0.0
C712 C 0.65637 0.39615 0.08284 0.0
C713 C 0.64151 0.41109 0.10109 0.0
C714 C 0.61647 0.42851 0.09604 0.0
C715 C 0.6062 0.43096 0.07272 0.0
C716 C 0.62101 0.4161 0.05439 0.0
C717 C 0.63705 0.27236 0.98035 0.0
C718 C 0.60966 0.27983 0.96986 0.0
C719 C 0.6533 0.2938 0.99282 0.0
C720 C 0.64278 0.32331 0.99479 0.0
C721 C 0.61526 0.33072 0.98457 0.0
C722 C 0.59888 0.30924 0.97225 0.0
C723 C 0.66025 0.34632 1.00776 0.0
C724 C 0.64629 0.36261 0.02592 0.0
C725 C 0.69073 0.35152 1.00293 0.0
C726 C 0.70625 0.33709 0.98273 0.0
C727 C 0.69483 0.33953 0.95958 0.0
C728 C 0.70949 0.32584 0.94062 0.0
C729 C 0.73572 0.30981 0.94455 0.0
C730 C 0.74739 0.3075 0.96746 0.0
C731 C 0.73279 0.32112 0.98649 0.0
H732 H 0.74704 0.29924 0.92985 0.0
H733 H 0.60499 0.44005 0.1102 0.0
H734 H 0.47012 0.32667 0.95747 0.0
H735 H 0.43534 0.35933 0.97854 0.0
H736 H 0.37204 0.28717 0.98256 0.0
H737 H 0.40648 0.25478 0.96111 0.0
H738 H 0.34411 0.3357 0.97129 0.0
H739 H 0.41535 0.3101 0.03116 0.0
H740 H 0.46515 0.30506 0.04895 0.0
H741 H 0.47754 0.40003 0.04396 0.0
H742 H 0.42793 0.40559 0.02584 0.0
H743 H 0.2537 0.39068 0.06602 0.0
H744 H 0.28886 0.36195 0.04196 0.0
H745 H 0.33838 0.44228 0.02715 0.0
H746 H 0.303 0.47133 0.0509 0.0
H747 H 0.37357 0.39212 0.04307 0.0
H748 H 0.29956 0.41634 0.9846 0.0
H749 H 0.24876 0.4194 0.96844 0.0
H750 H 0.24065 0.32392 0.97308 0.0
H751 H 0.29128 0.32033 0.98961 0.0
C752 C 0.44887 0.31776 0.96299 0.0
C753 C 0.44107 0.28814 0.95761 0.0
C754 C 0.42898 0.33643 0.97507 0.0
C755 C 0.4011 0.32568 0.98244 0.0
C756 C 0.39332 0.29609 0.97703 0.0
C757 C 0.41303 0.27757 0.96472 0.0
C758 C 0.37985 0.34521 0.99553 0.0
C759 C 0.35055 0.34772 0.98714 0.0
C760 C 0.38823 0.36148 0.01599 0.0
C761 C 0.41806 0.35822 0.0269 0.0
C762 C 0.42879 0.32988 0.03368 0.0
C763 C 0.45696 0.32694 0.04386 0.0
C764 C 0.47454 0.3522 0.04752 0.0
C765 C 0.46393 0.38048 0.04107 0.0
C766 C 0.43577 0.38354 0.03087 0.0
C767 C 0.27193 0.4023 0.0575 0.0
C768 C 0.27552 0.4333 0.06033 0.0
C769 C 0.29198 0.38585 0.04374 0.0
C770 C 0.31619 0.40001 0.03276 0.0
C771 C 0.31983 0.43096 0.03549 0.0
C772 C 0.29951 0.44752 0.04895 0.0
C773 C 0.338 0.38229 0.01887 0.0
C774 C 0.36732 0.38014 0.02714 0.0
C775 C 0.32955 0.36601 0.99853 0.0
C776 C 0.29911 0.3681 0.98857 0.0
C777 C 0.28685 0.39602 0.98239 0.0
C778 C 0.2581 0.39784 0.97311 0.0
C779 C 0.24146 0.37188 0.96979 0.0
C780 C 0.25356 0.34402 0.97569 0.0
C781 C 0.28229 0.34208 0.98499 0.0
H782 H 0.21921 0.37333 0.9626 0.0
H783 H 0.49634 0.34988 0.0554 0.0
H784 H 0.03457 0.6502 0.44567 0.0
H785 H 0.04664 0.59699 0.44768 0.0
H786 H 0.95396 0.57516 0.43956 0.0
H787 H 0.94159 0.62848 0.43759 0.0
H788 H 0.98228 0.53927 0.4732 0.0
H789 H 0.99768 0.57132 0.39277 0.0
H790 H 1.01803 0.60352 0.3611 0.0
H791 H 0.10677 0.57981 0.38199 0.0
H792 H 0.08693 0.54782 0.41404 0.0
H793 H 0.99959 0.38812 0.43605 0.0
H794 H 0.98689 0.441 0.43994 0.0
H795 H 0.08002 0.46329 0.44244 0.0
H796 H 0.09294 0.41044 0.43818 0.0
H797 H 0.05136 0.49919 0.41239 0.0
H798 H 0.03595 0.46607 0.4924 0.0
H799 H 1.01547 0.43419 0.52422 0.0
H800 H 0.92687 0.45969 0.50429 0.0
H801 H 0.94681 0.49143 0.47213 0.0
C802 C 1.01666 0.63415 0.44453 0.0
C803 C 0.9871 0.64365 0.44131 0.0
C804 C 0.02364 0.60371 0.44561 0.0
C805 C 1.00125 0.5821 0.44348 0.0
C806 C 0.97159 0.59146 0.4412 0.0
C807 C 0.96458 0.62196 0.44001 0.0
C808 C 1.00901 0.54982 0.44261 0.0
C809 C 0.99711 0.5304 0.45975 0.0
C810 C 0.02882 0.53838 0.42534 0.0
C811 C 0.04082 0.55741 0.40596 0.0
C812 C 0.02154 0.57316 0.39073 0.0
C813 C 0.03298 0.59134 0.37269 0.0
C814 C 0.06368 0.59377 0.36957 0.0
C815 C 0.083 0.57794 0.38445 0.0
C816 C 0.07167 0.55977 0.40255 0.0
C817 C 1.01741 0.40421 0.43761 0.0
C818 C 0.04731 0.39499 0.43679 0.0
C819 C 1.01009 0.43448 0.43994 0.0
C820 C 0.03248 0.45617 0.44169 0.0
C821 C 0.06235 0.44699 0.44113 0.0
C822 C 0.06969 0.41673 0.43877 0.0
C823 C 0.0248 0.4885 0.44308 0.0
C824 C 0.03664 0.50798 0.42594 0.0
C825 C 1.00493 0.49994 0.46036 0.0
C826 C 0.99287 0.48091 0.47971 0.0
C827 C 1.01209 0.4647 0.49468 0.0
C828 C 1.00058 0.44669 0.5128 0.0
C829 C 0.96989 0.44486 0.51624 0.0
C830 C 0.95064 0.4611 0.50159 0.0
C831 C 0.96204 0.47913 0.48343 0.0
H832 H 0.96102 0.43091 0.53028 0.0
H833 H 0.0725 0.60785 0.3556 0.0
H834 H 0.62787 0.10704 0.58029 0.0
H835 H 0.57479 0.09626 0.57615 0.0
H836 H 0.59302 1.00188 0.58288 0.0
H837 H 0.64594 1.01234 0.58644 0.0
H838 H 0.55113 1.0115 0.55018 0.0
H839 H 0.57083 0.04488 0.63001 0.0
H840 H 0.59038 0.08122 0.65879 0.0
H841 H 0.5278 0.14698 0.63419 0.0
H842 H 0.50852 0.11132 0.60471 0.0
H843 H 0.41264 0.95401 0.58862 0.0
H844 H 0.46446 0.96928 0.58459 0.0
H845 H 0.43713 0.06167 0.58038 0.0
H846 H 0.38524 0.0466 0.58494 0.0
H847 H 0.48279 0.05632 0.60938 0.0
H848 H 0.46139 0.02257 0.53078 0.0
H849 H 0.4437 0.98754 0.50026 0.0
H850 H 0.50919 0.9231 0.52206 0.0
H851 H 0.52702 0.9576 0.55294 0.0
C852 C 0.62061 0.08397 0.58062 0.0
C853 C 0.64117 0.06059 0.58392 0.0
C854 C 0.59024 0.07785 0.57833 0.0
C855 C 0.57983 0.04826 0.57959 0.0
C856 C 0.60046 0.02487 0.5819 0.0
C857 C 0.63077 0.03094 0.58403 0.0
C858 C 0.54745 0.04154 0.57978 0.0
C859 C 0.53622 1.02112 0.56323 0.0
C860 C 0.52783 0.05458 0.59649 0.0
C861 C 0.53846 0.07554 0.61496 0.0
C862 C 0.56133 0.06714 0.63066 0.0
C863 C 0.57241 0.08763 0.64705 0.0
C864 C 0.56039 0.11642 0.64826 0.0
C865 C 0.53715 0.1247 0.63317 0.0
C866 C 0.52618 0.10438 0.61658 0.0
C867 C 0.41759 0.97757 0.58665 0.0
C868 C 0.39472 0.99905 0.58705 0.0
C869 C 0.44728 0.98629 0.58426 0.0
C870 C 0.45478 1.01665 0.5819 0.0
C871 C 0.43196 0.03812 0.58216 0.0
C872 C 0.40227 0.02944 0.58468 0.0
C873 C 0.48644 0.02599 0.57989 0.0
C874 C 0.49758 0.04686 0.59617 0.0
C875 C 0.50599 1.01336 0.56292 0.0
C876 C 0.49537 0.99259 0.54431 0.0
C877 C 0.47188 1.00085 0.52918 0.0
C878 C 0.46185 0.9811 0.5118 0.0
C879 C 0.47527 0.95309 0.50926 0.0
C880 C 0.4988 0.9448 0.52406 0.0
C881 C 0.5089 0.96445 0.54149 0.0
H882 H 0.46747 0.93783 0.49579 0.0
H883 H 0.56908 0.1323 0.66091 0.0
H884 H 0.50987 0.14935 0.99105 0.0
H885 H 0.50399 0.09494 0.99243 0.0
H886 H 0.55044 0.0873 0.92576 0.0
H887 H 0.55648 0.14153 0.92424 0.0
H888 H 0.4972 0.05689 0.92622 0.0
H889 H 0.58373 0.06594 0.97613 0.0
H890 H 0.6123 0.08509 1.01011 0.0
H891 H 0.54786 0.04853 0.05832 0.0
H892 H 0.51868 0.02951 0.02459 0.0
H893 H 0.51966 0.90173 0.91757 0.0
H894 H 0.52614 0.95565 0.92069 0.0
H895 H 0.48658 0.9541 0.99044 0.0
H896 H 0.4806 0.89978 0.98767 0.0
H897 H 0.53357 0.98971 0.99021 0.0
H898 H 0.44816 0.97832 0.94154 0.0
H899 H 0.41793 0.95985 0.90827 0.0
H900 H 0.47681 1.00236 0.85862 0.0
H901 H 0.50792 1.02029 0.89152 0.0
C902 C 0.51917 0.13607 0.97683 0.0
C903 C 0.5336 0.14985 0.95751 0.0
C904 C 0.51582 0.10496 0.97766 0.0
C905 C 0.52678 0.08705 0.95919 0.0
C906 C 0.54174 0.10069 0.94017 0.0
C907 C 0.54529 0.13172 0.9394 0.0
C908 C 0.5215 0.05427 0.95903 0.0
C909 C 0.50549 0.04211 0.94004 0.0
C910 C 0.53131 0.0352 0.97754 0.0
C911 C 0.54886 0.04658 0.99782 0.0
C912 C 0.57551 0.06222 0.99397 0.0
C913 C 0.59185 0.073 1.01319 0.0
C914 C 0.58186 0.06811 0.03636 0.0
C915 C 0.55555 0.05235 0.04036 0.0
C916 C 0.53912 0.04154 0.0212 0.0
C917 C 0.51228 0.91278 0.9336 0.0
C918 C 0.49947 0.89639 0.95234 0.0
C919 C 0.5159 0.94371 0.93531 0.0
C920 C 0.50644 0.95909 0.95565 0.0
C921 C 0.49398 0.94276 0.97454 0.0
C922 C 0.4905 0.91171 0.9729 0.0
C923 C 0.50973 0.99215 0.95711 0.0
C924 C 0.52521 1.00442 0.97638 0.0
C925 C 0.49914 1.01143 0.93895 0.0
C926 C 0.48059 1.00038 0.91904 0.0
C927 C 0.45489 0.98341 0.92352 0.0
C928 C 0.43759 0.97302 0.90471 0.0
C929 C 0.44554 0.97974 0.88132 0.0
C930 C 0.47078 0.99693 0.87671 0.0
C931 C 0.48828 1.00721 0.89544 0.0
H932 H 0.43206 0.97173 0.86679 0.0
H933 H 0.59454 0.07647 0.05122 0.0
H934 H 0.12472 0.4507 0.07964 0.0
H935 H 0.07203 0.46418 0.0772 0.0
H936 H 0.09437 0.55707 0.08661 0.0
H937 H 0.14696 0.54387 0.08908 0.0
H938 H 0.04942 0.53923 0.11612 0.0
H939 H 0.07337 0.53221 0.03311 0.0
H940 H 0.09269 0.50774 0.99711 0.0
H941 H 0.02879 0.43731 1.0052 0.0
H942 H 1.00935 0.46115 0.04146 0.0
H943 H 0.9086 0.60225 0.09286 0.0
H944 H 0.9613 0.58991 0.08842 0.0
H945 H 0.93893 0.49723 0.07784 0.0
H946 H 0.88622 0.50936 0.08205 0.0
H947 H 0.98381 0.5149 0.04821 0.0
H948 H 0.96074 0.5195 0.13097 0.0
H949 H 0.9406 0.54239 0.16734 0.0
H950 H 1.00259 0.61476 0.1606 0.0
H951 H 0.02268 0.5926 0.12397 0.0
C952 C 0.11846 0.47403 0.081 0.0
C953 C 0.1401 0.49619 0.08456 0.0
C954 C 0.08833 0.4817 0.07953 0.0
C955 C 0.07928 0.51166 0.08162 0.0
C956 C 0.10085 0.53382 0.08496 0.0
C957 C 0.13094 0.52621 0.08628 0.0
C958 C 0.04727 0.51987 0.08123 0.0
C959 C 0.0352 0.53431 0.10111 0.0
C960 C 0.02849 0.51265 0.06195 0.0
C961 C 0.04011 0.49832 0.04014 0.0
C962 C 0.06361 0.51137 0.02733 0.0
C963 C 0.07455 0.49764 1.00685 0.0
C964 C 0.06203 0.47095 0.99891 0.0
C965 C 0.03849 0.45796 1.01139 0.0
C966 C 0.02749 0.47159 0.03189 0.0
C967 C 0.91484 0.5793 0.0893 0.0
C968 C 0.89319 0.55676 0.08802 0.0
C969 C 0.94499 0.57226 0.08684 0.0
C970 C 0.95407 0.54257 0.0831 0.0
C971 C 0.93244 0.52026 0.08075 0.0
C972 C 0.90231 0.52725 0.08327 0.0
C973 C 0.98611 0.5345 0.08299 0.0
C974 C 0.99812 0.51995 0.06314 0.0
C975 C 1.00483 0.54132 0.10239 0.0
C976 C 0.99301 0.55455 0.12459 0.0
C977 C 0.96991 0.54043 0.13715 0.0
C978 C 0.9585 0.55326 0.15783 0.0
C979 C 0.97023 0.58006 0.16627 0.0
C980 C 0.99344 0.59405 0.15407 0.0
C981 C 1.00486 0.58136 0.13334 0.0
H982 H 0.96137 0.58988 0.18231 0.0
H983 H 0.07053 0.46035 0.98305 0.0
loop_
_geom_bond_atom_site_label_1
_geom_bond_atom_site_label_2
_geom_bond_distance
_geom_bond_site_symmetry_2
_ccdc_geom_bond_type
Cu0 N1 1.999 . S
Cu0 O6 1.974 . S
Cu0 N11 1.985 . S
Cu0 O20 1.959 . S
N1 Cu0 1.999 . S
N1 C3 1.263 . S
N1 C5 1.389 1_455 S
N2 C3 1.358 1_655 S
N2 C4 1.400 . S
C3 N1 1.263 . S
C3 N2 1.358 1_455 S
C3 H9 0.930 . S
C4 N2 1.400 . S
C4 C5 1.351 . S
C4 H21 0.930 . S
C5 N1 1.389 1_655 S
C5 C4 1.351 . S
C5 H10 0.930 . S
O6 Cu0 1.974 . S
O6 C16 1.282 . S
C7 O8 1.261 . S
C7 O20 1.251 . S
O8 C7 1.261 . S
H9 C3 0.930 . S
H10 C5 0.930 . S
N11 Cu0 1.985 . S
N11 C13 1.335 . S
N11 C14 1.390 . S
N12 C13 1.345 . S
N12 C15 1.336 . S
C13 N11 1.335 . S
C13 N12 1.345 . S
C13 H18 0.930 . S
C14 N11 1.390 . S
C14 C15 1.346 . S
C14 H19 0.930 . S
C15 N12 1.336 . S
C15 C14 1.346 . S
C15 H22 0.929 . S
C16 O6 1.282 . S
C16 O17 1.216 . S
O17 C16 1.216 . S
H18 C13 0.930 . S
H19 C14 0.930 . S
O20 Cu0 1.959 . S
O20 C7 1.251 . S
H21 C4 0.930 . S
H22 C15 0.929 . S
Cu23 N24 1.999 . S
Cu23 O29 1.974 . S
Cu23 N34 1.985 . S
Cu23 O43 1.959 . S
N24 Cu23 1.999 . S
N24 C26 1.263 . S
N24 C28 1.389 1_565 S
N25 C26 1.358 1_545 S
N25 C27 1.400 . S
C26 N24 1.263 . S
C26 N25 1.358 1_565 S
C26 H32 0.930 . S
C27 N25 1.400 . S
C27 C28 1.351 . S
C27 H44 0.930 . S
C28 N24 1.389 1_545 S
C28 C27 1.351 . S
C28 H33 0.930 . S
O29 Cu23 1.974 . S
O29 C39 1.282 . S
C30 O31 1.261 . S
C30 O43 1.251 . S
O31 C30 1.261 . S
H32 C26 0.930 . S
H33 C28 0.930 . S
N34 Cu23 1.985 . S
N34 C36 1.335 . S
N34 C37 1.390 . S
N35 C36 1.345 . S
N35 C38 1.336 . S
C36 N34 1.335 . S
C36 N35 1.345 . S
C36 H41 0.930 . S
C37 N34 1.390 . S
C37 C38 1.346 . S
C37 H42 0.930 . S
C38 N35 1.336 . S
C38 C37 1.346 . S
C38 H45 0.929 . S
C39 O29 1.282 . S
C39 O40 1.216 . S
O40 C39 1.216 . S
H41 C36 0.930 . S
H42 C37 0.930 . S
O43 Cu23 1.959 . S
O43 C30 1.251 . S
H44 C27 0.930 . S
H45 C38 0.929 . S
Cu46 N47 1.999 . S
Cu46 O52 1.974 . S
Cu46 N57 1.985 . S
Cu46 O66 1.959 . S
N47 Cu46 1.999 . S
N47 C49 1.263 . S
N47 C51 1.389 1_655 S
N48 C49 1.358 1_455 S
N48 C50 1.400 . S
C49 N47 1.263 . S
C49 N48 1.358 1_655 S
C49 H55 0.930 . S
C50 N48 1.400 . S
C50 C51 1.351 . S
C50 H67 0.930 . S
C51 N47 1.389 1_455 S
C51 C50 1.351 . S
C51 H56 0.930 . S
O52 Cu46 1.974 . S
O52 C62 1.282 . S
C53 O54 1.261 . S
C53 O66 1.251 . S
O54 C53 1.261 . S
H55 C49 0.930 . S
H56 C51 0.930 . S
N57 Cu46 1.985 . S
N57 C59 1.335 . S
N57 C60 1.390 . S
N58 C59 1.345 . S
N58 C61 1.336 . S
C59 N57 1.335 . S
C59 N58 1.345 . S
C59 H64 0.930 . S
C60 N57 1.390 . S
C60 C61 1.346 . S
C60 H65 0.930 . S
C61 N58 1.336 . S
C61 C60 1.346 . S
C61 H68 0.929 . S
C62 O52 1.282 . S
C62 O63 1.216 . S
O63 C62 1.216 . S
H64 C59 0.930 . S
H65 C60 0.930 . S
O66 Cu46 1.959 . S
O66 C53 1.251 . S
H67 C50 0.930 . S
H68 C61 0.929 . S
Cu69 N70 1.999 . S
Cu69 O75 1.974 . S
Cu69 N80 1.985 . S
Cu69 O89 1.959 . S
N70 Cu69 1.999 . S
N70 C72 1.263 . S
N70 C74 1.389 1_545 S
N71 C72 1.358 1_565 S
N71 C73 1.400 . S
C72 N70 1.263 . S
C72 N71 1.358 1_545 S
C72 H78 0.930 . S
C73 N71 1.400 . S
C73 C74 1.351 . S
C73 H90 0.930 . S
C74 N70 1.389 1_565 S
C74 C73 1.351 . S
C74 H79 0.930 . S
O75 Cu69 1.974 . S
O75 C85 1.282 . S
C76 O77 1.261 . S
C76 O89 1.251 . S
O77 C76 1.261 . S
H78 C72 0.930 . S
H79 C74 0.930 . S
N80 Cu69 1.985 . S
N80 C82 1.335 . S
N80 C83 1.390 . S
N81 C82 1.345 . S
N81 C84 1.336 . S
C82 N80 1.335 . S
C82 N81 1.345 . S
C82 H87 0.930 . S
C83 N80 1.390 . S
C83 C84 1.346 . S
C83 H88 0.930 . S
C84 N81 1.336 . S
C84 C83 1.346 . S
C84 H91 0.929 . S
C85 O75 1.282 . S
C85 O86 1.216 . S
O86 C85 1.216 . S
H87 C82 0.930 . S
H88 C83 0.930 . S
O89 Cu69 1.959 . S
O89 C76 1.251 . S
H90 C73 0.930 . S
H91 C84 0.929 . S
Cu92 N93 1.999 . S
Cu92 O98 1.974 . S
Cu92 N103 1.985 . S
Cu92 O112 1.959 . S
N93 Cu92 1.999 . S
N93 C95 1.263 . S
N93 C97 1.389 . S
N94 C95 1.358 . S
N94 C96 1.400 . S
C95 N93 1.263 . S
C95 N94 1.358 . S
C95 H101 0.930 . S
C96 N94 1.400 . S
C96 C97 1.351 . S
C96 H113 0.930 . S
C97 N93 1.389 . S
C97 C96 1.351 . S
C97 H102 0.930 . S
O98 Cu92 1.974 . S
O98 C108 1.282 . S
C99 O100 1.261 . S
C99 O112 1.251 . S
O100 C99 1.261 . S
H101 C95 0.930 . S
H102 C97 0.930 . S
N103 Cu92 1.985 . S
N103 C105 1.335 . S
N103 C106 1.390 . S
N104 C105 1.345 . S
N104 C107 1.336 . S
C105 N103 1.335 . S
C105 N104 1.345 . S
C105 H110 0.930 . S
C106 N103 1.390 . S
C106 C107 1.346 . S
C106 H111 0.930 . S
C107 N104 1.336 . S
C107 C106 1.346 . S
C107 H114 0.929 . S
C108 O98 1.282 . S
C108 O109 1.216 . S
O109 C108 1.216 . S
H110 C105 0.930 . S
H111 C106 0.930 . S
O112 Cu92 1.959 . S
O112 C99 1.251 . S
H113 C96 0.930 . S
H114 C107 0.929 . S
Cu115 N116 1.999 . S
Cu115 O121 1.974 . S
Cu115 N126 1.985 . S
Cu115 O135 1.959 . S
N116 Cu115 1.999 . S
N116 C118 1.263 . S
N116 C120 1.389 . S
N117 C118 1.358 . S
N117 C119 1.400 . S
C118 N116 1.263 . S
C118 N117 1.358 . S
C118 H124 0.930 . S
C119 N117 1.400 . S
C119 C120 1.351 . S
C119 H136 0.930 . S
C120 N116 1.389 . S
C120 C119 1.351 . S
C120 H125 0.930 . S
O121 Cu115 1.974 . S
O121 C131 1.282 . S
C122 O123 1.261 . S
C122 O135 1.251 . S
O123 C122 1.261 . S
H124 C118 0.930 . S
H125 C120 0.930 . S
N126 Cu115 1.985 . S
N126 C128 1.335 . S
N126 C129 1.390 . S
N127 C128 1.345 . S
N127 C130 1.336 . S
C128 N126 1.335 . S
C128 N127 1.345 . S
C128 H133 0.930 . S
C129 N126 1.390 . S
C129 C130 1.346 . S
C129 H134 0.930 . S
C130 N127 1.336 . S
C130 C129 1.346 . S
C130 H137 0.929 . S
C131 O121 1.282 . S
C131 O132 1.216 . S
O132 C131 1.216 . S
H133 C128 0.930 . S
H134 C129 0.930 . S
O135 Cu115 1.959 . S
O135 C122 1.251 . S
H136 C119 0.930 . S
H137 C130 0.929 . S
Cu138 N139 1.999 . S
Cu138 O144 1.974 . S
Cu138 N149 1.985 . S
Cu138 O158 1.959 . S
N139 Cu138 1.999 . S
N139 C141 1.263 . S
N139 C143 1.389 . S
N140 C141 1.358 . S
N140 C142 1.400 . S
C141 N139 1.263 . S
C141 N140 1.358 . S
C141 H147 0.930 . S
C142 N140 1.400 . S
C142 C143 1.351 . S
C142 H159 0.930 . S
C143 N139 1.389 . S
C143 C142 1.351 . S
C143 H148 0.930 . S
O144 Cu138 1.974 . S
O144 C154 1.282 . S
C145 O146 1.261 . S
C145 O158 1.251 . S
O146 C145 1.261 . S
H147 C141 0.930 . S
H148 C143 0.930 . S
N149 Cu138 1.985 . S
N149 C151 1.335 . S
N149 C152 1.390 . S
N150 C151 1.345 . S
N150 C153 1.336 . S
C151 N149 1.335 . S
C151 N150 1.345 . S
C151 H156 0.930 . S
C152 N149 1.390 . S
C152 C153 1.346 . S
C152 H157 0.930 . S
C153 N150 1.336 . S
C153 C152 1.346 . S
C153 H160 0.929 . S
C154 O144 1.282 . S
C154 O155 1.216 . S
O155 C154 1.216 . S
H156 C151 0.930 . S
H157 C152 0.930 . S
O158 Cu138 1.959 . S
O158 C145 1.251 . S
H159 C142 0.930 . S
H160 C153 0.929 . S
Cu161 N162 1.999 . S
Cu161 O167 1.974 . S
Cu161 N172 1.985 . S
Cu161 O181 1.959 . S
N162 Cu161 1.999 . S
N162 C164 1.263 . S
N162 C166 1.389 . S
N163 C164 1.358 . S
N163 C165 1.400 . S
C164 N162 1.263 . S
C164 N163 1.358 . S
C164 H170 0.930 . S
C165 N163 1.400 . S
C165 C166 1.351 . S
C165 H182 0.930 . S
C166 N162 1.389 . S
C166 C165 1.351 . S
C166 H171 0.930 . S
O167 Cu161 1.974 . S
O167 C177 1.282 . S
C168 O169 1.261 . S
C168 O181 1.251 . S
O169 C168 1.261 . S
H170 C164 0.930 . S
H171 C166 0.930 . S
N172 Cu161 1.985 . S
N172 C174 1.335 . S
N172 C175 1.390 . S
N173 C174 1.345 . S
N173 C176 1.336 . S
C174 N172 1.335 . S
C174 N173 1.345 . S
C174 H179 0.930 . S
C175 N172 1.390 . S
C175 C176 1.346 . S
C175 H180 0.930 . S
C176 N173 1.336 . S
C176 C175 1.346 . S
C176 H183 0.929 . S
C177 O167 1.282 . S
C177 O178 1.216 . S
O178 C177 1.216 . S
H179 C174 0.930 . S
H180 C175 0.930 . S
O181 Cu161 1.959 . S
O181 C168 1.251 . S
H182 C165 0.930 . S
H183 C176 0.929 . S
H184 C202 0.951 . S
H185 C204 0.951 . S
H186 C206 0.950 . S
H187 C207 0.950 . S
H188 C209 0.950 . S
H189 C212 0.950 . S
H190 C213 0.950 . S
H191 C215 0.950 . S
H192 C216 0.950 . S
H193 C217 0.951 . S
H194 C219 0.951 . S
H195 C221 0.950 . S
H196 C222 0.950 . S
H197 C224 0.950 . S
H198 C227 0.950 . S
H199 C228 0.950 . S
H200 C230 0.950 . S
H201 C231 0.950 . S
C202 H184 0.951 . S
C202 C203 1.366 . S
C202 C204 1.388 . S
C203 C202 1.366 . S
C203 C207 1.385 . S
C204 H185 0.951 . S
C204 C202 1.388 . S
C204 C205 1.366 . S
C205 C204 1.366 . S
C205 C206 1.414 . S
C205 C208 1.499 . S
C206 H186 0.950 . S
C206 C205 1.414 . S
C206 C207 1.374 . S
C207 H187 0.950 . S
C207 C203 1.385 . S
C207 C206 1.374 . S
C208 C205 1.499 . S
C208 C209 1.373 . S
C208 C210 1.389 . S
C209 H188 0.950 . S
C209 C208 1.373 . S
C209 C225 1.377 . S
C210 C208 1.389 . S
C210 C211 1.524 . S
C210 C224 1.377 . S
C211 C210 1.524 . S
C211 C212 1.397 . S
C211 C216 1.363 . S
C212 H189 0.950 . S
C212 C211 1.397 . S
C212 C213 1.334 . S
C213 H190 0.950 . S
C213 C212 1.334 . S
C213 C214 1.287 . S
C214 C213 1.287 . S
C214 C215 1.524 . S
C214 H233 0.913 . S
C215 H191 0.950 . S
C215 C214 1.524 . S
C215 C216 1.415 . S
C216 H192 0.950 . S
C216 C211 1.363 . S
C216 C215 1.415 . S
C217 H193 0.951 . S
C217 C218 1.366 . S
C217 C219 1.388 . S
C218 C217 1.366 . S
C218 C222 1.385 . S
C219 H194 0.951 . S
C219 C217 1.388 . S
C219 C220 1.366 . S
C220 C219 1.366 . S
C220 C221 1.414 . S
C220 C223 1.499 . S
C221 H195 0.950 . S
C221 C220 1.414 . S
C221 C222 1.374 . S
C222 H196 0.950 . S
C222 C218 1.385 . S
C222 C221 1.374 . S
C223 C220 1.499 . S
C223 C224 1.373 . S
C223 C225 1.389 . S
C224 H197 0.950 . S
C224 C210 1.377 . S
C224 C223 1.373 . S
C225 C209 1.377 . S
C225 C223 1.389 . S
C225 C226 1.524 . S
C226 C225 1.524 . S
C226 C227 1.397 . S
C226 C231 1.363 . S
C227 H198 0.950 . S
C227 C226 1.397 . S
C227 C228 1.334 . S
C228 H199 0.950 . S
C228 C227 1.334 . S
C228 C229 1.287 . S
C229 C228 1.287 . S
C229 C230 1.524 . S
C229 H232 0.999 . S
C230 H200 0.950 . S
C230 C229 1.524 . S
C230 C231 1.415 . S
C231 H201 0.950 . S
C231 C226 1.363 . S
C231 C230 1.415 . S
H232 C229 0.999 . S
H233 C214 0.913 . S
H234 C252 0.951 . S
H235 C254 0.951 . S
H236 C256 0.950 . S
H237 C257 0.950 . S
H238 C259 0.950 . S
H239 C262 0.950 . S
H240 C263 0.950 . S
H241 C265 0.950 . S
H242 C266 0.950 . S
H243 C267 0.951 . S
H244 C269 0.951 . S
H245 C271 0.950 . S
H246 C272 0.950 . S
H247 C274 0.950 . S
H248 C277 0.950 . S
H249 C278 0.950 . S
H250 C280 0.950 . S
H251 C281 0.950 . S
C252 H234 0.951 . S
C252 C253 1.366 . S
C252 C254 1.388 . S
C253 C252 1.366 . S
C253 C257 1.385 . S
C254 H235 0.951 . S
C254 C252 1.388 . S
C254 C255 1.366 . S
C255 C254 1.366 . S
C255 C256 1.414 . S
C255 C258 1.499 . S
C256 H236 0.950 . S
C256 C255 1.414 . S
C256 C257 1.374 . S
C257 H237 0.950 . S
C257 C253 1.385 . S
C257 C256 1.374 . S
C258 C255 1.499 . S
C258 C259 1.373 . S
C258 C260 1.389 . S
C259 H238 0.950 . S
C259 C258 1.373 . S
C259 C275 1.377 . S
C260 C258 1.389 . S
C260 C261 1.524 . S
C260 C274 1.377 . S
C261 C260 1.524 . S
C261 C262 1.397 . S
C261 C266 1.363 . S
C262 H239 0.950 . S
C262 C261 1.397 . S
C262 C263 1.334 . S
C263 H240 0.950 . S
C263 C262 1.334 . S
C263 C264 1.287 . S
C264 C263 1.287 . S
C264 C265 1.524 . S
C264 H283 0.913 . S
C265 H241 0.950 . S
C265 C264 1.524 . S
C265 C266 1.415 . S
C266 H242 0.950 . S
C266 C261 1.363 . S
C266 C265 1.415 . S
C267 H243 0.951 . S
C267 C268 1.366 . S
C267 C269 1.388 . S
C268 C267 1.366 . S
C268 C272 1.385 . S
C269 H244 0.951 . S
C269 C267 1.388 . S
C269 C270 1.366 . S
C270 C269 1.366 . S
C270 C271 1.414 . S
C270 C273 1.499 . S
C271 H245 0.950 . S
C271 C270 1.414 . S
C271 C272 1.374 . S
C272 H246 0.950 . S
C272 C268 1.385 . S
C272 C271 1.374 . S
C273 C270 1.499 . S
C273 C274 1.373 . S
C273 C275 1.389 . S
C274 H247 0.950 . S
C274 C260 1.377 . S
C274 C273 1.373 . S
C275 C259 1.377 . S
C275 C273 1.389 . S
C275 C276 1.524 . S
C276 C275 1.524 . S
C276 C277 1.397 . S
C276 C281 1.363 . S
C277 H248 0.950 . S
C277 C276 1.397 . S
C277 C278 1.334 . S
C278 H249 0.950 . S
C278 C277 1.334 . S
C278 C279 1.287 . S
C279 C278 1.287 . S
C279 C280 1.524 . S
C279 H282 0.999 . S
C280 H250 0.950 . S
C280 C279 1.524 . S
C280 C281 1.415 . S
C281 H251 0.950 . S
C281 C276 1.363 . S
C281 C280 1.415 . S
H282 C279 0.999 . S
H283 C264 0.913 . S
H284 C302 0.951 . S
H285 C304 0.951 . S
H286 C306 0.950 . S
H287 C307 0.950 . S
H288 C309 0.950 . S
H289 C312 0.950 . S
H290 C313 0.950 . S
H291 C315 0.950 . S
H292 C316 0.950 . S
H293 C317 0.951 . S
H294 C319 0.951 . S
H295 C321 0.950 . S
H296 C322 0.950 . S
H297 C324 0.950 . S
H298 C327 0.950 . S
H299 C328 0.950 . S
H300 C330 0.950 . S
H301 C331 0.950 . S
C302 H284 0.951 . S
C302 C303 1.366 . S
C302 C304 1.388 . S
C303 C302 1.366 . S
C303 C307 1.385 . S
C304 H285 0.951 . S
C304 C302 1.388 . S
C304 C305 1.366 . S
C305 C304 1.366 . S
C305 C306 1.414 . S
C305 C308 1.499 . S
C306 H286 0.950 . S
C306 C305 1.414 . S
C306 C307 1.374 . S
C307 H287 0.950 . S
C307 C303 1.385 . S
C307 C306 1.374 . S
C308 C305 1.499 . S
C308 C309 1.373 . S
C308 C310 1.389 . S
C309 H288 0.950 . S
C309 C308 1.373 . S
C309 C325 1.377 . S
C310 C308 1.389 . S
C310 C311 1.524 . S
C310 C324 1.377 . S
C311 C310 1.524 . S
C311 C312 1.397 . S
C311 C316 1.363 . S
C312 H289 0.950 . S
C312 C311 1.397 . S
C312 C313 1.334 . S
C313 H290 0.950 . S
C313 C312 1.334 . S
C313 C314 1.287 . S
C314 C313 1.287 . S
C314 C315 1.524 . S
C314 H333 0.913 . S
C315 H291 0.950 . S
C315 C314 1.524 . S
C315 C316 1.415 . S
C316 H292 0.950 . S
C316 C311 1.363 . S
C316 C315 1.415 . S
C317 H293 0.951 . S
C317 C318 1.366 . S
C317 C319 1.388 . S
C318 C317 1.366 . S
C318 C322 1.385 . S
C319 H294 0.951 . S
C319 C317 1.388 . S
C319 C320 1.366 . S
C320 C319 1.366 . S
C320 C321 1.414 . S
C320 C323 1.499 . S
C321 H295 0.950 . S
C321 C320 1.414 . S
C321 C322 1.374 . S
C322 H296 0.950 . S
C322 C318 1.385 . S
C322 C321 1.374 . S
C323 C320 1.499 . S
C323 C324 1.373 . S
C323 C325 1.389 . S
C324 H297 0.950 . S
C324 C310 1.377 . S
C324 C323 1.373 . S
C325 C309 1.377 . S
C325 C323 1.389 . S
C325 C326 1.524 . S
C326 C325 1.524 . S
C326 C327 1.397 . S
C326 C331 1.363 . S
C327 H298 0.950 . S
C327 C326 1.397 . S
C327 C328 1.334 . S
C328 H299 0.950 . S
C328 C327 1.334 . S
C328 C329 1.287 . S
C329 C328 1.287 . S
C329 C330 1.524 . S
C329 H332 0.999 . S
C330 H300 0.950 . S
C330 C329 1.524 . S
C330 C331 1.415 . S
C331 H301 0.950 . S
C331 C326 1.363 . S
C331 C330 1.415 . S
H332 C329 0.999 . S
H333 C314 0.913 . S
H334 C352 0.951 . S
H335 C354 0.951 . S
H336 C356 0.950 . S
H337 C357 0.950 . S
H338 C359 0.950 . S
H339 C362 0.950 . S
H340 C363 0.950 . S
H341 C365 0.950 . S
H342 C366 0.950 . S
H343 C367 0.951 . S
H344 C369 0.951 . S
H345 C371 0.950 . S
H346 C372 0.950 . S
H347 C374 0.950 . S
H348 C377 0.950 . S
H349 C378 0.950 . S
H350 C380 0.950 . S
H351 C381 0.950 . S
C352 H334 0.951 . S
C352 C353 1.366 . S
C352 C354 1.388 . S
C353 C352 1.366 . S
C353 C357 1.385 . S
C354 H335 0.951 . S
C354 C352 1.388 . S
C354 C355 1.366 . S
C355 C354 1.366 . S
C355 C356 1.414 . S
C355 C358 1.499 . S
C356 H336 0.950 . S
C356 C355 1.414 . S
C356 C357 1.374 . S
C357 H337 0.950 . S
C357 C353 1.385 . S
C357 C356 1.374 . S
C358 C355 1.499 . S
C358 C359 1.373 . S
C358 C360 1.389 . S
C359 H338 0.950 . S
C359 C358 1.373 . S
C359 C375 1.377 . S
C360 C358 1.389 . S
C360 C361 1.524 . S
C360 C374 1.377 . S
C361 C360 1.524 . S
C361 C362 1.397 . S
C361 C366 1.363 . S
C362 H339 0.950 . S
C362 C361 1.397 . S
C362 C363 1.334 . S
C363 H340 0.950 . S
C363 C362 1.334 . S
C363 C364 1.287 . S
C364 C363 1.287 . S
C364 C365 1.524 . S
C364 H383 0.913 . S
C365 H341 0.950 . S
C365 C364 1.524 . S
C365 C366 1.415 . S
C366 H342 0.950 . S
C366 C361 1.363 . S
C366 C365 1.415 . S
C367 H343 0.951 . S
C367 C368 1.366 . S
C367 C369 1.388 . S
C368 C367 1.366 . S
C368 C372 1.385 . S
C369 H344 0.951 . S
C369 C367 1.388 . S
C369 C370 1.366 . S
C370 C369 1.366 . S
C370 C371 1.414 . S
C370 C373 1.499 . S
C371 H345 0.950 . S
C371 C370 1.414 . S
C371 C372 1.374 . S
C372 H346 0.950 . S
C372 C368 1.385 . S
C372 C371 1.374 . S
C373 C370 1.499 . S
C373 C374 1.373 . S
C373 C375 1.389 . S
C374 H347 0.950 . S
C374 C360 1.377 . S
C374 C373 1.373 . S
C375 C359 1.377 . S
C375 C373 1.389 . S
C375 C376 1.524 . S
C376 C375 1.524 . S
C376 C377 1.397 . S
C376 C381 1.363 . S
C377 H348 0.950 . S
C377 C376 1.397 . S
C377 C378 1.334 . S
C378 H349 0.950 . S
C378 C377 1.334 . S
C378 C379 1.287 . S
C379 C378 1.287 . S
C379 C380 1.524 . S
C379 H382 0.999 . S
C380 H350 0.950 . S
C380 C379 1.524 . S
C380 C381 1.415 . S
C381 H351 0.950 . S
C381 C376 1.363 . S
C381 C380 1.415 . S
H382 C379 0.999 . S
H383 C364 0.913 . S
H384 C402 0.951 . S
H385 C404 0.951 . S
H386 C406 0.950 . S
H387 C407 0.950 . S
H388 C409 0.950 . S
H389 C412 0.950 . S
H390 C413 0.950 . S
H391 C415 0.950 . S
H392 C416 0.950 . S
H393 C417 0.951 . S
H394 C419 0.951 . S
H395 C421 0.950 . S
H396 C422 0.950 . S
H397 C424 0.950 . S
H398 C427 0.950 . S
H399 C428 0.950 . S
H400 C430 0.950 . S
H401 C431 0.950 . S
C402 H384 0.951 . S
C402 C403 1.366 . S
C402 C404 1.388 . S
C403 C402 1.366 . S
C403 C407 1.385 . S
C404 H385 0.951 . S
C404 C402 1.388 . S
C404 C405 1.366 . S
C405 C404 1.366 . S
C405 C406 1.414 . S
C405 C408 1.499 . S
C406 H386 0.950 . S
C406 C405 1.414 . S
C406 C407 1.374 . S
C407 H387 0.950 . S
C407 C403 1.385 . S
C407 C406 1.374 . S
C408 C405 1.499 . S
C408 C409 1.373 . S
C408 C410 1.389 . S
C409 H388 0.950 . S
C409 C408 1.373 . S
C409 C425 1.377 . S
C410 C408 1.389 . S
C410 C411 1.524 . S
C410 C424 1.377 . S
C411 C410 1.524 . S
C411 C412 1.397 . S
C411 C416 1.363 . S
C412 H389 0.950 . S
C412 C411 1.397 . S
C412 C413 1.334 . S
C413 H390 0.950 . S
C413 C412 1.334 . S
C413 C414 1.287 . S
C414 C413 1.287 . S
C414 C415 1.524 . S
C414 H433 0.913 . S
C415 H391 0.950 . S
C415 C414 1.524 . S
C415 C416 1.415 . S
C416 H392 0.950 . S
C416 C411 1.363 . S
C416 C415 1.415 . S
C417 H393 0.951 . S
C417 C418 1.366 . S
C417 C419 1.388 . S
C418 C417 1.366 . S
C418 C422 1.385 . S
C419 H394 0.951 . S
C419 C417 1.388 . S
C419 C420 1.366 . S
C420 C419 1.366 . S
C420 C421 1.414 . S
C420 C423 1.499 . S
C421 H395 0.950 . S
C421 C420 1.414 . S
C421 C422 1.374 . S
C422 H396 0.950 . S
C422 C418 1.385 . S
C422 C421 1.374 . S
C423 C420 1.499 . S
C423 C424 1.373 . S
C423 C425 1.389 . S
C424 H397 0.950 . S
C424 C410 1.377 . S
C424 C423 1.373 . S
C425 C409 1.377 . S
C425 C423 1.389 . S
C425 C426 1.524 . S
C426 C425 1.524 . S
C426 C427 1.397 . S
C426 C431 1.363 . S
C427 H398 0.950 . S
C427 C426 1.397 . S
C427 C428 1.334 . S
C428 H399 0.950 . S
C428 C427 1.334 . S
C428 C429 1.287 . S
C429 C428 1.287 . S
C429 C430 1.524 . S
C429 H432 0.999 . S
C430 H400 0.950 . S
C430 C429 1.524 . S
C430 C431 1.415 . S
C431 H401 0.950 . S
C431 C426 1.363 . S
C431 C430 1.415 . S
H432 C429 0.999 . S
H433 C414 0.913 . S
H434 C452 0.951 . S
H435 C454 0.951 . S
H436 C456 0.950 . S
H437 C457 0.950 . S
H438 C459 0.950 . S
H439 C462 0.950 . S
H440 C463 0.950 . S
H441 C465 0.950 . S
H442 C466 0.950 . S
H443 C467 0.951 . S
H444 C469 0.951 . S
H445 C471 0.950 . S
H446 C472 0.950 . S
H447 C474 0.950 . S
H448 C477 0.950 . S
H449 C478 0.950 . S
H450 C480 0.950 . S
H451 C481 0.950 . S
C452 H434 0.951 . S
C452 C453 1.366 . S
C452 C454 1.388 . S
C453 C452 1.366 . S
C453 C457 1.385 . S
C454 H435 0.951 . S
C454 C452 1.388 . S
C454 C455 1.366 . S
C455 C454 1.366 . S
C455 C456 1.414 . S
C455 C458 1.499 . S
C456 H436 0.950 . S
C456 C455 1.414 . S
C456 C457 1.374 . S
C457 H437 0.950 . S
C457 C453 1.385 . S
C457 C456 1.374 . S
C458 C455 1.499 . S
C458 C459 1.373 . S
C458 C460 1.389 . S
C459 H438 0.950 . S
C459 C458 1.373 . S
C459 C475 1.377 . S
C460 C458 1.389 . S
C460 C461 1.524 . S
C460 C474 1.377 . S
C461 C460 1.524 . S
C461 C462 1.397 . S
C461 C466 1.363 . S
C462 H439 0.950 . S
C462 C461 1.397 . S
C462 C463 1.334 . S
C463 H440 0.950 . S
C463 C462 1.334 . S
C463 C464 1.287 . S
C464 C463 1.287 . S
C464 C465 1.524 . S
C464 H483 0.913 . S
C465 H441 0.950 . S
C465 C464 1.524 . S
C465 C466 1.415 . S
C466 H442 0.950 . S
C466 C461 1.363 . S
C466 C465 1.415 . S
C467 H443 0.951 . S
C467 C468 1.366 . S
C467 C469 1.388 . S
C468 C467 1.366 . S
C468 C472 1.385 . S
C469 H444 0.951 . S
C469 C467 1.388 . S
C469 C470 1.366 . S
C470 C469 1.366 . S
C470 C471 1.414 . S
C470 C473 1.499 . S
C471 H445 0.950 . S
C471 C470 1.414 . S
C471 C472 1.374 . S
C472 H446 0.950 . S
C472 C468 1.385 . S
C472 C471 1.374 . S
C473 C470 1.499 . S
C473 C474 1.373 . S
C473 C475 1.389 . S
C474 H447 0.950 . S
C474 C460 1.377 . S
C474 C473 1.373 . S
C475 C459 1.377 . S
C475 C473 1.389 . S
C475 C476 1.524 . S
C476 C475 1.524 . S
C476 C477 1.397 . S
C476 C481 1.363 . S
C477 H448 0.950 . S
C477 C476 1.397 . S
C477 C478 1.334 . S
C478 H449 0.950 . S
C478 C477 1.334 . S
C478 C479 1.287 . S
C479 C478 1.287 . S
C479 C480 1.524 . S
C479 H482 0.999 1_455 S
C480 H450 0.950 . S
C480 C479 1.524 . S
C480 C481 1.415 . S
C481 H451 0.950 . S
C481 C476 1.363 . S
C481 C480 1.415 . S
H482 C479 0.999 1_655 S
H483 C464 0.913 . S
H484 C502 0.951 . S
H485 C504 0.951 . S
H486 C506 0.950 . S
H487 C507 0.950 . S
H488 C509 0.950 . S
H489 C512 0.950 . S
H490 C513 0.950 . S
H491 C515 0.950 . S
H492 C516 0.950 . S
H493 C517 0.951 . S
H494 C519 0.951 . S
H495 C521 0.950 . S
H496 C522 0.950 . S
H497 C524 0.950 . S
H498 C527 0.950 . S
H499 C528 0.950 . S
H500 C530 0.950 . S
H501 C531 0.950 . S
C502 H484 0.951 . S
C502 C503 1.366 . S
C502 C504 1.388 . S
C503 C502 1.366 . S
C503 C507 1.385 . S
C504 H485 0.951 . S
C504 C502 1.388 . S
C504 C505 1.366 . S
C505 C504 1.366 . S
C505 C506 1.414 . S
C505 C508 1.499 . S
C506 H486 0.950 . S
C506 C505 1.414 . S
C506 C507 1.374 . S
C507 H487 0.950 . S
C507 C503 1.385 . S
C507 C506 1.374 . S
C508 C505 1.499 . S
C508 C509 1.373 . S
C508 C510 1.389 . S
C509 H488 0.950 . S
C509 C508 1.373 . S
C509 C525 1.377 . S
C510 C508 1.389 . S
C510 C511 1.524 . S
C510 C524 1.377 . S
C511 C510 1.524 . S
C511 C512 1.397 . S
C511 C516 1.363 . S
C512 H489 0.950 . S
C512 C511 1.397 . S
C512 C513 1.334 . S
C513 H490 0.950 . S
C513 C512 1.334 . S
C513 C514 1.287 . S
C514 C513 1.287 . S
C514 C515 1.524 . S
C514 H533 0.913 . S
C515 H491 0.950 . S
C515 C514 1.524 . S
C515 C516 1.415 . S
C516 H492 0.950 . S
C516 C511 1.363 . S
C516 C515 1.415 . S
C517 H493 0.951 . S
C517 C518 1.366 . S
C517 C519 1.388 . S
C518 C517 1.366 . S
C518 C522 1.385 . S
C519 H494 0.951 . S
C519 C517 1.388 . S
C519 C520 1.366 . S
C520 C519 1.366 . S
C520 C521 1.414 . S
C520 C523 1.499 . S
C521 H495 0.950 . S
C521 C520 1.414 . S
C521 C522 1.374 . S
C522 H496 0.950 . S
C522 C518 1.385 . S
C522 C521 1.374 . S
C523 C520 1.499 . S
C523 C524 1.373 . S
C523 C525 1.389 . S
C524 H497 0.950 . S
C524 C510 1.377 . S
C524 C523 1.373 . S
C525 C509 1.377 . S
C525 C523 1.389 . S
C525 C526 1.524 . S
C526 C525 1.524 . S
C526 C527 1.397 . S
C526 C531 1.363 . S
C527 H498 0.950 . S
C527 C526 1.397 . S
C527 C528 1.334 . S
C528 H499 0.950 . S
C528 C527 1.334 . S
C528 C529 1.287 . S
C529 C528 1.287 . S
C529 C530 1.524 . S
C529 H532 0.999 . S
C530 H500 0.950 . S
C530 C529 1.524 . S
C530 C531 1.415 . S
C531 H501 0.950 . S
C531 C526 1.363 . S
C531 C530 1.415 . S
H532 C529 0.999 . S
H533 C514 0.913 . S
H534 C552 0.951 . S
H535 C554 0.951 . S
H536 C556 0.950 . S
H537 C557 0.950 . S
H538 C559 0.950 . S
H539 C562 0.950 . S
H540 C563 0.950 . S
H541 C565 0.950 . S
H542 C566 0.950 . S
H543 C567 0.951 . S
H544 C569 0.951 . S
H545 C571 0.950 . S
H546 C572 0.950 . S
H547 C574 0.950 . S
H548 C577 0.950 . S
H549 C578 0.950 . S
H550 C580 0.950 . S
H551 C581 0.950 . S
C552 H534 0.951 . S
C552 C553 1.366 . S
C552 C554 1.388 . S
C553 C552 1.366 . S
C553 C557 1.385 . S
C554 H535 0.951 . S
C554 C552 1.388 . S
C554 C555 1.366 . S
C555 C554 1.366 . S
C555 C556 1.414 . S
C555 C558 1.499 . S
C556 H536 0.950 . S
C556 C555 1.414 . S
C556 C557 1.374 . S
C557 H537 0.950 . S
C557 C553 1.385 . S
C557 C556 1.374 . S
C558 C555 1.499 . S
C558 C559 1.373 . S
C558 C560 1.389 . S
C559 H538 0.950 . S
C559 C558 1.373 . S
C559 C575 1.377 . S
C560 C558 1.389 . S
C560 C561 1.524 . S
C560 C574 1.377 . S
C561 C560 1.524 . S
C561 C562 1.397 . S
C561 C566 1.363 . S
C562 H539 0.950 . S
C562 C561 1.397 . S
C562 C563 1.334 . S
C563 H540 0.950 . S
C563 C562 1.334 . S
C563 C564 1.287 . S
C564 C563 1.287 . S
C564 C565 1.524 . S
C564 H583 0.913 . S
C565 H541 0.950 . S
C565 C564 1.524 . S
C565 C566 1.415 . S
C566 H542 0.950 . S
C566 C561 1.363 . S
C566 C565 1.415 . S
C567 H543 0.951 . S
C567 C568 1.366 . S
C567 C569 1.388 . S
C568 C567 1.366 . S
C568 C572 1.385 . S
C569 H544 0.951 . S
C569 C567 1.388 . S
C569 C570 1.366 . S
C570 C569 1.366 . S
C570 C571 1.414 . S
C570 C573 1.499 . S
C571 H545 0.950 . S
C571 C570 1.414 . S
C571 C572 1.374 . S
C572 H546 0.950 . S
C572 C568 1.385 . S
C572 C571 1.374 . S
C573 C570 1.499 . S
C573 C574 1.373 . S
C573 C575 1.389 . S
C574 H547 0.950 . S
C574 C560 1.377 . S
C574 C573 1.373 . S
C575 C559 1.377 . S
C575 C573 1.389 . S
C575 C576 1.524 . S
C576 C575 1.524 . S
C576 C577 1.397 . S
C576 C581 1.363 . S
C577 H548 0.950 . S
C577 C576 1.397 . S
C577 C578 1.334 . S
C578 H549 0.950 . S
C578 C577 1.334 . S
C578 C579 1.287 . S
C579 C578 1.287 . S
C579 C580 1.524 . S
C579 H582 0.999 . S
C580 H550 0.950 . S
C580 C579 1.524 . S
C580 C581 1.415 . S
C581 H551 0.950 . S
C581 C576 1.363 . S
C581 C580 1.415 . S
H582 C579 0.999 . S
H583 C564 0.913 . S
H584 C602 0.951 . S
H585 C604 0.951 . S
H586 C606 0.950 . S
H587 C607 0.944 1_556 S
H588 C609 0.950 . S
H589 C612 0.950 . S
H590 C613 0.950 . S
H591 C615 0.950 . S
H592 C616 0.950 . S
H593 C617 0.951 . S
H594 C619 0.951 . S
H595 C621 0.950 . S
H596 C622 0.950 . S
H597 C624 0.950 1_554 S
H598 C627 0.950 . S
H599 C628 0.950 . S
H600 C630 0.950 . S
H601 C631 0.950 . S
C602 H584 0.951 . S
C602 C603 1.366 . S
C602 C604 1.388 . S
C603 C602 1.366 . S
C603 C607 1.385 . S
C604 H585 0.951 . S
C604 C602 1.388 . S
C604 C605 1.366 . S
C605 C604 1.366 . S
C605 C606 1.414 1_554 S
C605 C608 1.499 1_554 S
C606 H586 0.950 . S
C606 C605 1.414 1_556 S
C606 C607 1.374 1_556 S
C607 H587 0.944 1_554 S
C607 C603 1.385 . S
C607 C606 1.374 1_554 S
C608 C605 1.499 1_556 S
C608 C609 1.373 . S
C608 C610 1.389 1_556 S
C609 H588 0.950 . S
C609 C608 1.373 . S
C609 C625 1.377 . S
C610 C608 1.389 1_554 S
C610 C611 1.524 . S
C610 C624 1.377 1_554 S
C611 C610 1.524 . S
C611 C612 1.397 . S
C611 C616 1.363 . S
C612 H589 0.950 . S
C612 C611 1.397 . S
C612 C613 1.334 . S
C613 H590 0.950 . S
C613 C612 1.334 . S
C613 C614 1.287 . S
C614 C613 1.287 . S
C614 C615 1.524 . S
C614 H633 0.913 . S
C615 H591 0.950 . S
C615 C614 1.524 . S
C615 C616 1.415 . S
C616 H592 0.950 . S
C616 C611 1.363 . S
C616 C615 1.415 . S
C617 H593 0.951 . S
C617 C618 1.366 . S
C617 C619 1.388 . S
C618 C617 1.366 . S
C618 C622 1.385 . S
C619 H594 0.951 . S
C619 C617 1.388 . S
C619 C620 1.366 . S
C620 C619 1.366 . S
C620 C621 1.414 . S
C620 C623 1.499 . S
C621 H595 0.950 . S
C621 C620 1.414 . S
C621 C622 1.374 . S
C622 H596 0.950 . S
C622 C618 1.385 . S
C622 C621 1.374 . S
C623 C620 1.499 . S
C623 C624 1.373 . S
C623 C625 1.389 . S
C624 H597 0.950 1_556 S
C624 C610 1.377 1_556 S
C624 C623 1.373 . S
C625 C609 1.377 . S
C625 C623 1.389 . S
C625 C626 1.524 . S
C626 C625 1.524 . S
C626 C627 1.397 . S
C626 C631 1.363 . S
C627 H598 0.950 . S
C627 C626 1.397 . S
C627 C628 1.334 . S
C628 H599 0.950 . S
C628 C627 1.334 . S
C628 C629 1.287 . S
C629 C628 1.287 . S
C629 C630 1.524 . S
C629 H632 0.999 . S
C630 H600 0.950 . S
C630 C629 1.524 . S
C630 C631 1.415 . S
C631 H601 0.950 . S
C631 C626 1.363 . S
C631 C630 1.415 . S
H632 C629 0.999 . S
H633 C614 0.913 . S
H634 C652 0.951 . S
H635 C654 0.951 . S
H636 C656 0.950 . S
H637 C657 0.950 . S
H638 C659 0.950 . S
H639 C662 0.950 . S
H640 C663 0.950 . S
H641 C665 0.950 . S
H642 C666 0.950 . S
H643 C667 0.951 . S
H644 C669 0.951 . S
H645 C671 0.950 . S
H646 C672 0.950 . S
H647 C674 0.950 1_556 S
H648 C677 0.941 1_556 S
H649 C678 0.965 . S
H650 C680 0.950 . S
H651 C681 0.950 . S
C652 H634 0.951 . S
C652 C653 1.366 . S
C652 C654 1.388 . S
C653 C652 1.366 . S
C653 C657 1.385 . S
C654 H635 0.951 . S
C654 C652 1.388 . S
C654 C655 1.366 . S
C655 C654 1.366 . S
C655 C656 1.414 . S
C655 C658 1.499 . S
C656 H636 0.950 . S
C656 C655 1.414 . S
C656 C657 1.374 . S
C657 H637 0.950 . S
C657 C653 1.385 . S
C657 C656 1.374 . S
C658 C655 1.499 . S
C658 C659 1.373 . S
C658 C660 1.389 . S
C659 H638 0.950 . S
C659 C658 1.373 . S
C659 C675 1.377 . S
C660 C658 1.389 . S
C660 C661 1.524 . S
C660 C674 1.377 . S
C661 C660 1.524 . S
C661 C662 1.397 . S
C661 C666 1.363 1_554 S
C662 H639 0.950 . S
C662 C661 1.397 . S
C662 C663 1.334 . S
C663 H640 0.950 . S
C663 C662 1.334 . S
C663 C664 1.287 . S
C664 C663 1.287 . S
C664 C665 1.524 1_554 S
C664 H683 0.913 . S
C665 H641 0.950 . S
C665 C664 1.524 1_556 S
C665 C666 1.415 . S
C666 H642 0.950 . S
C666 C661 1.363 1_556 S
C666 C665 1.415 . S
C667 H643 0.951 . S
C667 C668 1.366 1_554 S
C667 C669 1.388 . S
C668 C667 1.366 1_556 S
C668 C672 1.385 . S
C669 H644 0.951 . S
C669 C667 1.388 . S
C669 C670 1.366 1_554 S
C670 C669 1.366 1_556 S
C670 C671 1.414 . S
C670 C673 1.499 1_556 S
C671 H645 0.950 . S
C671 C670 1.414 . S
C671 C672 1.374 . S
C672 H646 0.950 . S
C672 C668 1.385 . S
C672 C671 1.374 . S
C673 C670 1.499 1_554 S
C673 C674 1.373 . S
C673 C675 1.389 . S
C674 H647 0.950 1_554 S
C674 C660 1.377 . S
C674 C673 1.373 . S
C675 C659 1.377 . S
C675 C673 1.389 . S
C675 C676 1.524 . S
C676 C675 1.524 . S
C676 C677 1.405 . S
C676 C681 1.363 . S
C677 H648 0.941 1_554 S
C677 C676 1.405 . S
C677 C678 1.334 1_554 S
C678 H649 0.965 . S
C678 C677 1.334 1_556 S
C678 C679 1.272 1_556 S
C679 C678 1.272 1_554 S
C679 C680 1.524 . S
C679 H682 0.999 . S
C680 H650 0.950 . S
C680 C679 1.524 . S
C680 C681 1.415 . S
C681 H651 0.950 . S
C681 C676 1.363 . S
C681 C680 1.415 . S
H682 C679 0.999 . S
H683 C664 0.913 . S
H684 C702 0.951 . S
H685 C704 0.951 1_556 S
H686 C706 0.950 . S
H687 C707 0.950 . S
H688 C709 0.950 . S
H689 C712 0.950 . S
H690 C713 0.950 . S
H691 C715 0.950 . S
H692 C716 0.950 . S
H693 C717 0.951 . S
H694 C719 0.951 . S
H695 C721 0.950 . S
H696 C722 0.950 . S
H697 C724 0.950 . S
H698 C727 0.950 . S
H699 C728 0.950 . S
H700 C730 0.950 . S
H701 C731 0.950 . S
C702 H684 0.951 . S
C702 C703 1.366 . S
C702 C704 1.388 . S
C703 C702 1.366 . S
C703 C707 1.385 . S
C704 H685 0.951 1_554 S
C704 C702 1.388 . S
C704 C705 1.366 . S
C705 C704 1.366 . S
C705 C706 1.414 . S
C705 C708 1.499 1_554 S
C706 H686 0.950 . S
C706 C705 1.414 . S
C706 C707 1.374 . S
C707 H687 0.950 . S
C707 C703 1.385 . S
C707 C706 1.374 . S
C708 C705 1.499 1_556 S
C708 C709 1.373 . S
C708 C710 1.402 . S
C709 H688 0.950 . S
C709 C708 1.373 . S
C709 C725 1.377 . S
C710 C708 1.402 . S
C710 C711 1.492 1_556 S
C710 C724 1.396 . S
C711 C710 1.492 1_554 S
C711 C712 1.397 . S
C711 C716 1.363 . S
C712 H689 0.950 . S
C712 C711 1.397 . S
C712 C713 1.334 . S
C713 H690 0.950 . S
C713 C712 1.334 . S
C713 C714 1.287 . S
C714 C713 1.287 . S
C714 C715 1.524 . S
C714 H733 0.913 . S
C715 H691 0.950 . S
C715 C714 1.524 . S
C715 C716 1.415 . S
C716 H692 0.950 . S
C716 C711 1.363 . S
C716 C715 1.415 . S
C717 H693 0.951 . S
C717 C718 1.366 . S
C717 C719 1.388 . S
C718 C717 1.366 . S
C718 C722 1.385 . S
C719 H694 0.951 . S
C719 C717 1.388 . S
C719 C720 1.366 . S
C720 C719 1.366 . S
C720 C721 1.414 . S
C720 C723 1.499 . S
C721 H695 0.950 . S
C721 C720 1.414 . S
C721 C722 1.374 . S
C722 H696 0.950 . S
C722 C718 1.385 . S
C722 C721 1.374 . S
C723 C720 1.499 . S
C723 C724 1.373 . S
C723 C725 1.389 . S
C724 H697 0.950 . S
C724 C710 1.396 . S
C724 C723 1.373 . S
C725 C709 1.377 . S
C725 C723 1.389 . S
C725 C726 1.524 . S
C726 C725 1.524 . S
C726 C727 1.397 . S
C726 C731 1.363 . S
C727 H698 0.950 . S
C727 C726 1.397 . S
C727 C728 1.334 . S
C728 H699 0.950 . S
C728 C727 1.334 . S
C728 C729 1.287 . S
C729 C728 1.287 . S
C729 C730 1.524 . S
C729 H732 0.999 . S
C730 H700 0.950 . S
C730 C729 1.524 . S
C730 C731 1.415 . S
C731 H701 0.950 . S
C731 C726 1.363 . S
C731 C730 1.415 . S
H732 C729 0.999 . S
H733 C714 0.913 . S
H734 C752 0.951 . S
H735 C754 0.951 . S
H736 C756 0.950 . S
H737 C757 0.950 . S
H738 C759 0.950 . S
H739 C762 0.950 . S
H740 C763 0.950 . S
H741 C765 0.950 . S
H742 C766 0.950 . S
H743 C767 0.951 . S
H744 C769 0.951 . S
H745 C771 0.950 . S
H746 C772 0.950 . S
H747 C774 0.950 . S
H748 C777 0.950 . S
H749 C778 0.950 . S
H750 C780 0.950 . S
H751 C781 0.950 . S
C752 H734 0.951 . S
C752 C753 1.366 . S
C752 C754 1.388 1_556 S
C753 C752 1.366 . S
C753 C757 1.385 . S
C754 H735 0.951 . S
C754 C752 1.388 1_554 S
C754 C755 1.366 . S
C755 C754 1.366 . S
C755 C756 1.412 1_554 S
C755 C758 1.500 . S
C756 H736 0.950 . S
C756 C755 1.412 1_556 S
C756 C757 1.374 . S
C757 H737 0.950 . S
C757 C753 1.385 . S
C757 C756 1.374 . S
C758 C755 1.500 . S
C758 C759 1.373 1_554 S
C758 C760 1.389 . S
C759 H738 0.950 . S
C759 C758 1.373 1_556 S
C759 C775 1.377 1_556 S
C760 C758 1.389 . S
C760 C761 1.524 . S
C760 C774 1.377 . S
C761 C760 1.524 . S
C761 C762 1.397 . S
C761 C766 1.363 . S
C762 H739 0.950 . S
C762 C761 1.397 . S
C762 C763 1.334 . S
C763 H740 0.950 . S
C763 C762 1.334 . S
C763 C764 1.287 . S
C764 C763 1.287 . S
C764 C765 1.524 . S
C764 H783 0.913 . S
C765 H741 0.950 . S
C765 C764 1.524 . S
C765 C766 1.415 . S
C766 H742 0.950 . S
C766 C761 1.363 . S
C766 C765 1.415 . S
C767 H743 0.951 . S
C767 C768 1.366 . S
C767 C769 1.388 . S
C768 C767 1.366 . S
C768 C772 1.385 . S
C769 H744 0.951 . S
C769 C767 1.388 . S
C769 C770 1.366 . S
C770 C769 1.366 . S
C770 C771 1.414 . S
C770 C773 1.499 . S
C771 H745 0.950 . S
C771 C770 1.414 . S
C771 C772 1.374 . S
C772 H746 0.950 . S
C772 C768 1.385 . S
C772 C771 1.374 . S
C773 C770 1.499 . S
C773 C774 1.373 . S
C773 C775 1.389 . S
C774 H747 0.950 . S
C774 C760 1.377 . S
C774 C773 1.373 . S
C775 C759 1.377 1_554 S
C775 C773 1.389 . S
C775 C776 1.524 1_554 S
C776 C775 1.524 1_556 S
C776 C777 1.397 . S
C776 C781 1.363 . S
C777 H748 0.950 . S
C777 C776 1.397 . S
C777 C778 1.334 . S
C778 H749 0.950 . S
C778 C777 1.334 . S
C778 C779 1.287 . S
C779 C778 1.287 . S
C779 C780 1.524 . S
C779 H782 0.999 . S
C780 H750 0.950 . S
C780 C779 1.524 . S
C780 C781 1.415 . S
C781 H751 0.950 . S
C781 C776 1.363 . S
C781 C780 1.415 . S
H782 C779 0.999 . S
H783 C764 0.913 . S
H784 C802 0.951 . S
H785 C804 0.951 . S
H786 C806 0.950 . S
H787 C807 0.950 . S
H788 C809 0.950 . S
H789 C812 0.950 1_655 S
H790 C813 0.950 . S
H791 C815 0.950 . S
H792 C816 0.950 . S
H793 C817 0.951 . S
H794 C819 0.951 . S
H795 C821 0.950 . S
H796 C822 0.950 . S
H797 C824 0.950 . S
H798 C827 0.950 1_455 S
H799 C828 0.950 . S
H800 C830 0.950 . S
H801 C831 0.950 . S
C802 H784 0.951 . S
C802 C803 1.366 1_455 S
C802 C804 1.388 . S
C803 C802 1.366 1_655 S
C803 C807 1.385 . S
C804 H785 0.951 . S
C804 C802 1.388 . S
C804 C805 1.366 1_455 S
C805 C804 1.366 1_655 S
C805 C806 1.414 . S
C805 C808 1.499 . S
C806 H786 0.950 . S
C806 C805 1.414 . S
C806 C807 1.374 . S
C807 H787 0.950 . S
C807 C803 1.385 . S
C807 C806 1.374 . S
C808 C805 1.499 . S
C808 C809 1.373 . S
C808 C810 1.389 1_655 S
C809 H788 0.950 . S
C809 C808 1.373 . S
C809 C825 1.377 . S
C810 C808 1.389 1_455 S
C810 C811 1.524 . S
C810 C824 1.377 . S
C811 C810 1.524 . S
C811 C812 1.397 . S
C811 C816 1.363 . S
C812 H789 0.950 1_455 S
C812 C811 1.397 . S
C812 C813 1.334 . S
C813 H790 0.950 . S
C813 C812 1.334 . S
C813 C814 1.287 . S
C814 C813 1.287 . S
C814 C815 1.524 . S
C814 H833 0.913 . S
C815 H791 0.950 . S
C815 C814 1.524 . S
C815 C816 1.415 . S
C816 H792 0.950 . S
C816 C811 1.363 . S
C816 C815 1.415 . S
C817 H793 0.951 . S
C817 C818 1.366 1_655 S
C817 C819 1.388 . S
C818 C817 1.366 1_455 S
C818 C822 1.385 . S
C819 H794 0.951 . S
C819 C817 1.388 . S
C819 C820 1.366 1_655 S
C820 C819 1.366 1_455 S
C820 C821 1.414 . S
C820 C823 1.499 . S
C821 H795 0.950 . S
C821 C820 1.414 . S
C821 C822 1.374 . S
C822 H796 0.950 . S
C822 C818 1.385 . S
C822 C821 1.374 . S
C823 C820 1.499 . S
C823 C824 1.373 . S
C823 C825 1.389 1_455 S
C824 H797 0.950 . S
C824 C810 1.377 . S
C824 C823 1.373 . S
C825 C809 1.377 . S
C825 C823 1.389 1_655 S
C825 C826 1.524 . S
C826 C825 1.524 . S
C826 C827 1.397 . S
C826 C831 1.363 . S
C827 H798 0.950 1_655 S
C827 C826 1.397 . S
C827 C828 1.334 . S
C828 H799 0.950 . S
C828 C827 1.334 . S
C828 C829 1.287 . S
C829 C828 1.287 . S
C829 C830 1.524 . S
C829 H832 0.999 . S
C830 H800 0.950 . S
C830 C829 1.524 . S
C830 C831 1.415 . S
C831 H801 0.950 . S
C831 C826 1.363 . S
C831 C830 1.415 . S
H832 C829 0.999 . S
H833 C814 0.913 . S
H834 C852 0.951 . S
H835 C854 0.951 . S
H836 C856 0.950 . S
H837 C857 0.950 . S
H838 C859 0.950 . S
H839 C862 0.950 . S
H840 C863 0.950 . S
H841 C865 0.950 . S
H842 C866 0.950 . S
H843 C867 0.951 . S
H844 C869 0.951 . S
H845 C871 0.950 . S
H846 C872 0.950 . S
H847 C874 0.950 . S
H848 C877 0.950 . S
H849 C878 0.950 . S
H850 C880 0.950 . S
H851 C881 0.950 . S
C852 H834 0.951 . S
C852 C853 1.366 . S
C852 C854 1.388 . S
C853 C852 1.366 . S
C853 C857 1.385 1_545 S
C854 H835 0.951 . S
C854 C852 1.388 . S
C854 C855 1.366 . S
C855 C854 1.366 . S
C855 C856 1.414 1_545 S
C855 C858 1.499 . S
C856 H836 0.950 . S
C856 C855 1.414 1_565 S
C856 C857 1.374 . S
C857 H837 0.950 . S
C857 C853 1.385 1_565 S
C857 C856 1.374 . S
C858 C855 1.499 . S
C858 C859 1.373 1_545 S
C858 C860 1.389 . S
C859 H838 0.950 . S
C859 C858 1.373 1_565 S
C859 C875 1.377 . S
C860 C858 1.389 . S
C860 C861 1.524 . S
C860 C874 1.377 . S
C861 C860 1.524 . S
C861 C862 1.397 . S
C861 C866 1.363 . S
C862 H839 0.950 . S
C862 C861 1.397 . S
C862 C863 1.334 . S
C863 H840 0.950 . S
C863 C862 1.334 . S
C863 C864 1.287 . S
C864 C863 1.287 . S
C864 C865 1.524 . S
C864 H883 0.913 . S
C865 H841 0.950 . S
C865 C864 1.524 . S
C865 C866 1.415 . S
C866 H842 0.950 . S
C866 C861 1.363 . S
C866 C865 1.415 . S
C867 H843 0.951 . S
C867 C868 1.366 . S
C867 C869 1.388 . S
C868 C867 1.366 . S
C868 C872 1.385 1_565 S
C869 H844 0.951 . S
C869 C867 1.388 . S
C869 C870 1.366 . S
C870 C869 1.366 . S
C870 C871 1.414 1_565 S
C870 C873 1.499 . S
C871 H845 0.950 . S
C871 C870 1.414 1_545 S
C871 C872 1.374 . S
C872 H846 0.950 . S
C872 C868 1.385 1_545 S
C872 C871 1.374 . S
C873 C870 1.499 . S
C873 C874 1.373 1_565 S
C873 C875 1.389 . S
C874 H847 0.950 . S
C874 C860 1.377 . S
C874 C873 1.373 1_545 S
C875 C859 1.377 . S
C875 C873 1.389 . S
C875 C876 1.524 . S
C876 C875 1.524 . S
C876 C877 1.397 . S
C876 C881 1.363 . S
C877 H848 0.950 . S
C877 C876 1.397 . S
C877 C878 1.334 . S
C878 H849 0.950 . S
C878 C877 1.334 . S
C878 C879 1.287 . S
C879 C878 1.287 . S
C879 C880 1.524 . S
C879 H882 0.999 . S
C880 H850 0.950 . S
C880 C879 1.524 . S
C880 C881 1.415 . S
C881 H851 0.950 . S
C881 C876 1.363 . S
C881 C880 1.415 . S
H882 C879 0.999 . S
H883 C864 0.913 . S
H884 C902 0.951 . S
H885 C904 0.951 . S
H886 C906 0.950 . S
H887 C907 0.950 . S
H888 C909 0.950 . S
H889 C912 0.950 . S
H890 C913 0.950 . S
H891 C915 0.950 1_554 S
H892 C916 0.950 . S
H893 C917 0.951 . S
H894 C919 0.951 . S
H895 C921 0.950 . S
H896 C922 0.950 . S
H897 C924 0.950 . S
H898 C927 0.950 . S
H899 C928 0.950 . S
H900 C930 0.950 . S
H901 C931 0.950 . S
C902 H884 0.951 . S
C902 C903 1.366 . S
C902 C904 1.388 . S
C903 C902 1.366 . S
C903 C907 1.385 . S
C904 H885 0.951 . S
C904 C902 1.388 . S
C904 C905 1.366 . S
C905 C904 1.366 . S
C905 C906 1.414 . S
C905 C908 1.499 . S
C906 H886 0.950 . S
C906 C905 1.414 . S
C906 C907 1.374 . S
C907 H887 0.950 . S
C907 C903 1.385 . S
C907 C906 1.374 . S
C908 C905 1.499 . S
C908 C909 1.373 . S
C908 C910 1.389 . S
C909 H888 0.950 . S
C909 C908 1.373 . S
C909 C925 1.377 1_545 S
C910 C908 1.389 . S
C910 C911 1.524 . S
C910 C924 1.377 1_545 S
C911 C910 1.524 . S
C911 C912 1.397 . S
C911 C916 1.363 . S
C912 H889 0.950 . S
C912 C911 1.397 . S
C912 C913 1.334 . S
C913 H890 0.950 . S
C913 C912 1.334 . S
C913 C914 1.287 . S
C914 C913 1.287 . S
C914 C915 1.524 . S
C914 H933 0.913 1_556 S
C915 H891 0.950 1_556 S
C915 C914 1.524 . S
C915 C916 1.415 . S
C916 H892 0.950 . S
C916 C911 1.363 . S
C916 C915 1.415 . S
C917 H893 0.951 . S
C917 C918 1.366 . S
C917 C919 1.388 . S
C918 C917 1.366 . S
C918 C922 1.385 . S
C919 H894 0.951 . S
C919 C917 1.388 . S
C919 C920 1.366 . S
C920 C919 1.366 . S
C920 C921 1.414 . S
C920 C923 1.499 . S
C921 H895 0.950 . S
C921 C920 1.414 . S
C921 C922 1.374 . S
C922 H896 0.950 . S
C922 C918 1.385 . S
C922 C921 1.374 . S
C923 C920 1.499 . S
C923 C924 1.373 . S
C923 C925 1.389 . S
C924 H897 0.950 . S
C924 C910 1.377 1_565 S
C924 C923 1.373 . S
C925 C909 1.377 1_565 S
C925 C923 1.389 . S
C925 C926 1.524 . S
C926 C925 1.524 . S
C926 C927 1.397 . S
C926 C931 1.363 . S
C927 H898 0.950 . S
C927 C926 1.397 . S
C927 C928 1.334 . S
C928 H899 0.950 . S
C928 C927 1.334 . S
C928 C929 1.287 . S
C929 C928 1.287 . S
C929 C930 1.524 . S
C929 H932 0.999 . S
C930 H900 0.950 . S
C930 C929 1.524 . S
C930 C931 1.415 . S
C931 H901 0.950 . S
C931 C926 1.363 . S
C931 C930 1.415 . S
H932 C929 0.999 . S
H933 C914 0.913 1_554 S
H934 C952 0.951 . S
H935 C954 0.951 . S
H936 C956 0.950 . S
H937 C957 0.950 . S
H938 C959 0.950 . S
H939 C962 0.950 . S
H940 C963 0.950 . S
H941 C965 0.950 . S
H942 C966 0.950 1_655 S
H943 C967 0.951 . S
H944 C969 0.951 . S
H945 C971 0.950 . S
H946 C972 0.950 . S
H947 C974 0.950 . S
H948 C977 0.950 . S
H949 C978 0.950 . S
H950 C980 0.950 . S
H951 C981 0.950 1_455 S
C952 H934 0.951 . S
C952 C953 1.366 . S
C952 C954 1.388 . S
C953 C952 1.366 . S
C953 C957 1.385 . S
C954 H935 0.951 . S
C954 C952 1.388 . S
C954 C955 1.366 . S
C955 C954 1.366 . S
C955 C956 1.414 . S
C955 C958 1.499 . S
C956 H936 0.950 . S
C956 C955 1.414 . S
C956 C957 1.374 . S
C957 H937 0.950 . S
C957 C953 1.385 . S
C957 C956 1.374 . S
C958 C955 1.499 . S
C958 C959 1.373 . S
C958 C960 1.389 . S
C959 H938 0.950 . S
C959 C958 1.373 . S
C959 C975 1.377 1_455 S
C960 C958 1.389 . S
C960 C961 1.524 . S
C960 C974 1.377 1_455 S
C961 C960 1.524 . S
C961 C962 1.397 . S
C961 C966 1.363 . S
C962 H939 0.950 . S
C962 C961 1.397 . S
C962 C963 1.334 . S
C963 H940 0.950 . S
C963 C962 1.334 . S
C963 C964 1.287 . S
C964 C963 1.287 . S
C964 C965 1.524 . S
C964 H983 0.913 1_554 S
C965 H941 0.950 . S
C965 C964 1.524 . S
C965 C966 1.415 . S
C966 H942 0.950 1_455 S
C966 C961 1.363 . S
C966 C965 1.415 . S
C967 H943 0.951 . S
C967 C968 1.366 . S
C967 C969 1.388 . S
C968 C967 1.366 . S
C968 C972 1.385 . S
C969 H944 0.951 . S
C969 C967 1.388 . S
C969 C970 1.366 . S
C970 C969 1.366 . S
C970 C971 1.414 . S
C970 C973 1.499 . S
C971 H945 0.950 . S
C971 C970 1.414 . S
C971 C972 1.374 . S
C972 H946 0.950 . S
C972 C968 1.385 . S
C972 C971 1.374 . S
C973 C970 1.499 . S
C973 C974 1.373 . S
C973 C975 1.389 . S
C974 H947 0.950 . S
C974 C960 1.377 1_655 S
C974 C973 1.373 . S
C975 C959 1.377 1_655 S
C975 C973 1.389 . S
C975 C976 1.524 . S
C976 C975 1.524 . S
C976 C977 1.397 . S
C976 C981 1.363 . S
C977 H948 0.950 . S
C977 C976 1.397 . S
C977 C978 1.334 . S
C978 H949 0.950 . S
C978 C977 1.334 . S
C978 C979 1.287 . S
C979 C978 1.287 . S
C979 C980 1.524 . S
C979 H982 0.999 . S
C980 H950 0.950 . S
C980 C979 1.524 . S
C980 C981 1.415 . S
C981 H951 0.950 1_655 S
C981 C976 1.363 . S
C981 C980 1.415 . S
H982 C979 0.999 . S
H983 C964 0.913 1_556 S
C203 N173 1.715 . S
C218 N12 1.715 . S
C253 N35 1.715 . S
C268 N104 1.715 . S
C303 N58 1.715 . S
C318 N127 1.715 . S
C353 N150 1.715 . S
C368 N81 1.715 . S
C403 N25 1.663 . S
C418 C16 1.737 . S
C453 C39 1.738 . S
C468 N48 1.662 . S
C503 N71 1.663 . S
C518 C62 1.737 . S
C553 C85 1.738 . S
C568 N2 1.662 . S
C603 N163 1.663 . S
C618 C108 1.737 . S
C653 C131 1.738 . S
C668 N94 1.662 . S
C703 N117 1.663 . S
C718 C154 1.738 . S
C753 N140 1.662 . S
C768 C177 1.738 . S
C803 C53 1.870 . S
C818 C7 1.871 . S
C853 C76 1.871 . S
C868 C30 1.871 . S
C903 C145 1.871 . S
C918 C99 1.871 . S
C953 C168 1.871 . S
C968 C122 1.870 . S
