# Generated by pormake.
# Topology wjk, (5)-cn, num edge types: 1
# Building blocks:
#     Node 0, Type 0, BuildingBlock: XOMCOT_clean_sbu_1, # of connection points: 5
#     Node 1, Type 0, BuildingBlock: XOMCOT_clean_sbu_1, # of connection points: 5
#     Node 2, Type 0, BuildingBlock: XOMCOT_clean_sbu_1, # of connection points: 5
#     Node 3, Type 0, BuildingBlock: XOMCOT_clean_sbu_1, # of connection points: 5
#     Node 4, Type 0, BuildingBlock: XOMCOT_clean_sbu_1, # of connection points: 5
#     Node 5, Type 0, BuildingBlock: XOMCOT_clean_sbu_1, # of connection points: 5
#     Node 6, Type 0, BuildingBlock: XOMCOT_clean_sbu_1, # of connection points: 5
#     Node 7, Type 0, BuildingBlock: XOMCOT_clean_sbu_1, # of connection points: 5
#     Node 8, Type 0, BuildingBlock: XOMCOT_clean_sbu_1, # of connection points: 5
#     Node 9, Type 0, BuildingBlock: XOMCOT_clean_sbu_1, # of connection points: 5
#     Node 10, Type 0, BuildingBlock: XOMCOT_clean_sbu_1, # of connection points: 5
#     Node 11, Type 0, BuildingBlock: XOMCOT_clean_sbu_1, # of connection points: 5
#     Edge 12, Type (0, 0), BuildingBlock: KIFKEQ_clean_linker_1, # of connection points: 2
#     Edge 13, Type (0, 0), BuildingBlock: KIFKEQ_clean_linker_1, # of connection points: 2
#     Edge 14, Type (0, 0), BuildingBlock: KIFKEQ_clean_linker_1, # of connection points: 2
#     Edge 15, Type (0, 0), BuildingBlock: KIFKEQ_clean_linker_1, # of connection points: 2
#     Edge 16, Type (0, 0), BuildingBlock: KIFKEQ_clean_linker_1, # of connection points: 2
#     Edge 17, Type (0, 0), BuildingBlock: KIFKEQ_clean_linker_1, # of connection points: 2
#     Edge 18, Type (0, 0), BuildingBlock: KIFKEQ_clean_linker_1, # of connection points: 2
#     Edge 19, Type (0, 0), BuildingBlock: KIFKEQ_clean_linker_1, # of connection points: 2
#     Edge 20, Type (0, 0), BuildingBlock: KIFKEQ_clean_linker_1, # of connection points: 2
#     Edge 21, Type (0, 0), BuildingBlock: KIFKEQ_clean_linker_1, # of connection points: 2
#     Edge 22, Type (0, 0), BuildingBlock: KIFKEQ_clean_linker_1, # of connection points: 2
#     Edge 23, Type (0, 0), BuildingBlock: KIFKEQ_clean_linker_1, # of connection points: 2
#     Edge 24, Type (0, 0), BuildingBlock: KIFKEQ_clean_linker_1, # of connection points: 2
#     Edge 25, Type (0, 0), BuildingBlock: KIFKEQ_clean_linker_1, # of connection points: 2
#     Edge 26, Type (0, 0), BuildingBlock: KIFKEQ_clean_linker_1, # of connection points: 2
#     Edge 27, Type (0, 0), BuildingBlock: KIFKEQ_clean_linker_1, # of connection points: 2
#     Edge 28, Type (0, 0), BuildingBlock: KIFKEQ_clean_linker_1, # of connection points: 2
#     Edge 29, Type (0, 0), BuildingBlock: KIFKEQ_clean_linker_1, # of connection points: 2
#     Edge 30, Type (0, 0), BuildingBlock: KIFKEQ_clean_linker_1, # of connection points: 2
#     Edge 31, Type (0, 0), BuildingBlock: KIFKEQ_clean_linker_1, # of connection points: 2
#     Edge 32, Type (0, 0), BuildingBlock: KIFKEQ_clean_linker_1, # of connection points: 2
#     Edge 33, Type (0, 0), BuildingBlock: KIFKEQ_clean_linker_1, # of connection points: 2
#     Edge 34, Type (0, 0), BuildingBlock: KIFKEQ_clean_linker_1, # of connection points: 2
#     Edge 35, Type (0, 0), BuildingBlock: KIFKEQ_clean_linker_1, # of connection points: 2
#     Edge 36, Type (0, 0), BuildingBlock: KIFKEQ_clean_linker_1, # of connection points: 2
#     Edge 37, Type (0, 0), BuildingBlock: KIFKEQ_clean_linker_1, # of connection points: 2
#     Edge 38, Type (0, 0), BuildingBlock: KIFKEQ_clean_linker_1, # of connection points: 2
#     Edge 39, Type (0, 0), BuildingBlock: KIFKEQ_clean_linker_1, # of connection points: 2
#     Edge 40, Type (0, 0), BuildingBlock: KIFKEQ_clean_linker_1, # of connection points: 2
#     Edge 41, Type (0, 0), BuildingBlock: KIFKEQ_clean_linker_1, # of connection points: 2
# Relax obj value: 0.520
# Max RMSD: 0.263
# Mean RMSD: 0.263
data_MOF--net-wjk--node1-XOMCOT_clean_sbu_1--edge1-KIFKEQ_clean_linker_1
_symmetry_space_group_name_H-M    P1
_symmetry_Int_Tables_number       1
_symmetry_cell_setting            triclinic
loop_
_symmetry_equiv_pos_as_xyz
'x, y, z'
_cell_length_a     33.800235
_cell_length_b     33.985719
_cell_length_c     73.572137
_cell_angle_alpha  90.03929
_cell_angle_beta   89.909704
_cell_angle_gamma 119.80922
loop_
_atom_site_label
_atom_site_type_symbol
_atom_site_fract_x
_atom_site_fract_y
_atom_site_fract_z
_atom_type_partial_charge
C0 C 0.14347 0.22897 0.25307 0.0
C1 C 0.10346 0.19323 0.25957 0.0
N2 N 0.10902 0.15671 0.26083 0.0
N3 N 0.17352 0.21455 0.25001 0.0
C4 C 0.15179 0.17069 0.25501 0.0
H5 H 0.1501 0.26307 0.25054 0.0
Co6 Co 0.23229 0.24749 0.24127 0.0
C7 C 0.25163 0.17575 0.22968 0.0
O8 O 0.28572 0.19166 0.24125 0.0
N9 N 0.29127 0.2809 0.23239 0.0
C10 C 0.34965 0.31195 0.21321 0.0
C11 C 0.30649 0.27637 0.21597 0.0
C12 C 0.32552 0.31957 0.23929 0.0
N13 N 0.36136 0.33922 0.22785 0.0
O14 O 0.25344 0.23466 0.26338 0.0
H15 H 0.28646 0.25051 0.20608 0.0
H16 H 0.32289 0.33503 0.25174 0.0
O17 O 0.22628 0.19368 0.22899 0.0
C18 C 0.25642 0.26341 0.27525 0.0
O19 O 0.24834 0.29583 0.27017 0.0
N20 N 0.2111 0.2634 0.22096 0.0
C21 C 0.17008 0.29334 0.19618 0.0
C22 C 0.16152 0.24845 0.19561 0.0
C23 C 0.18214 0.23392 0.20829 0.0
C24 C 0.22167 0.30765 0.22111 0.0
C25 C 0.20155 0.32344 0.20879 0.0
H26 H 0.17245 0.19851 0.20863 0.0
H27 H 0.2439 0.33016 0.23156 0.0
H28 H 0.16673 0.14904 0.25397 0.0
H29 H 0.07269 0.19398 0.26299 0.0
H30 H 0.36988 0.31846 0.201 0.0
H31 H 0.13654 0.2239 0.18636 0.0
H32 H 0.20881 0.35822 0.20969 0.0
C33 C 0.89731 0.11627 0.60703 0.0
C34 C 0.9063 0.08131 0.60932 0.0
N35 N 0.94433 0.09134 0.59989 0.0
N36 N 0.92923 0.14787 0.59604 0.0
C37 C 0.95781 0.132 0.59209 0.0
H38 H 0.86801 0.11751 0.61223 0.0
Co39 Co 0.92524 0.19633 0.58639 0.0
C40 C 0.97856 0.21724 0.55187 0.0
O41 O 0.94466 0.21723 0.54321 0.0
N42 N 0.92039 0.24605 0.57673 0.0
C43 C 0.89771 0.28837 0.56167 0.0
C44 C 0.89181 0.24576 0.56374 0.0
C45 C 0.94385 0.29005 0.58203 0.0
N46 N 0.93027 0.31619 0.57327 0.0
O47 O 0.96687 0.23435 0.60458 0.0
H48 H 0.86846 0.21687 0.55573 0.0
H49 H 0.97009 0.30294 0.59232 0.0
O50 O 0.97546 0.20964 0.56903 0.0
C51 C 0.94118 0.2329 0.61763 0.0
O52 O 0.89693 0.21196 0.61483 0.0
N53 N 0.87979 0.15547 0.57112 0.0
C54 C 0.8013 0.07993 0.55877 0.0
C55 C 0.84438 0.08864 0.55278 0.0
C56 C 0.88347 0.12643 0.55934 0.0
C57 C 0.8381 0.1472 0.57708 0.0
C58 C 0.79828 0.11022 0.57073 0.0
H59 H 0.91632 0.13026 0.55602 0.0
H60 H 0.83592 0.16868 0.58741 0.0
H61 H 0.98619 0.14823 0.58274 0.0
H62 H 0.88575 0.05029 0.61685 0.0
H63 H 0.88005 0.29826 0.55205 0.0
H64 H 0.84782 0.06535 0.54373 0.0
H65 H 0.76566 0.10388 0.57597 0.0
C66 C 0.75247 0.86746 0.93462 0.0
C67 C 0.7956 0.8755 0.93865 0.0
N68 N 0.82582 0.91657 0.93202 0.0
N69 N 0.7557 0.903 0.92522 0.0
C70 C 0.80083 0.93274 0.9241 0.0
H71 H 0.72079 0.83678 0.93755 0.0
Co72 Co 0.70685 0.90439 0.91435 0.0
C73 C 0.75123 0.95555 0.87971 0.0
O74 O 0.72232 0.9217 0.86957 0.0
N75 N 0.65614 0.90538 0.90345 0.0
C76 C 0.59804 0.89231 0.88525 0.0
C77 C 0.63479 0.88622 0.88759 0.0
C78 C 0.63132 0.92332 0.91031 0.0
N79 N 0.5958 0.91552 0.89959 0.0
O80 O 0.71411 0.94952 0.93146 0.0
H81 H 0.64411 0.86768 0.87826 0.0
H82 H 0.63826 0.94108 0.9231 0.0
O83 O 0.74857 0.95227 0.8971 0.0
C84 C 0.69237 0.92921 0.94582 0.0
O85 O 0.66723 0.88476 0.94545 0.0
N86 N 0.69854 0.85632 0.89961 0.0
C87 C 0.68213 0.77746 0.88215 0.0
C88 C 0.72476 0.81687 0.88066 0.0
C89 C 0.73253 0.85601 0.88972 0.0
C90 C 0.65816 0.81717 0.90233 0.0
C91 C 0.64854 0.7775 0.89316 0.0
H92 H 0.76594 0.88583 0.88899 0.0
H93 H 0.63296 0.81708 0.91144 0.0
H94 H 0.81532 0.96446 0.91674 0.0
H95 H 0.80417 0.8525 0.94546 0.0
H96 H 0.57494 0.88079 0.87379 0.0
H97 H 0.75163 0.81747 0.8724 0.0
H98 H 0.61559 0.74724 0.89478 0.0
C99 C 0.85316 0.75913 0.24672 0.0
C100 C 0.89273 0.79517 0.2533 0.0
N101 N 0.88573 0.83065 0.25542 0.0
N102 N 0.82183 0.77225 0.24452 0.0
C103 C 0.84249 0.81574 0.25003 0.0
H104 H 0.84751 0.72556 0.24374 0.0
Co105 Co 0.76245 0.73752 0.23666 0.0
C106 C 0.737 0.80518 0.22615 0.0
O107 O 0.7014 0.78513 0.23696 0.0
N108 N 0.70313 0.70249 0.22874 0.0
C109 C 0.64141 0.6708 0.21142 0.0
C110 C 0.68613 0.7044 0.21238 0.0
C111 C 0.66858 0.66725 0.23737 0.0
N112 N 0.63049 0.64742 0.22714 0.0
O113 O 0.742 0.74923 0.25914 0.0
H114 H 0.70546 0.72785 0.20162 0.0
H115 H 0.67168 0.65573 0.25071 0.0
O116 O 0.76509 0.79049 0.22523 0.0
C117 C 0.7454 0.72568 0.27187 0.0
O118 O 0.75845 0.69622 0.26773 0.0
N119 N 0.783 0.72337 0.21565 0.0
C120 C 0.82227 0.69658 0.18873 0.0
C121 C 0.82973 0.7411 0.18914 0.0
C122 C 0.81 0.75401 0.20285 0.0
C123 C 0.77371 0.67954 0.21502 0.0
C124 C 0.79294 0.6653 0.20161 0.0
H125 H 0.81863 0.78911 0.20374 0.0
H126 H 0.7529 0.65606 0.22553 0.0
H127 H 0.82623 0.83628 0.24983 0.0
H128 H 0.92404 0.79518 0.25637 0.0
H129 H 0.61941 0.66273 0.19969 0.0
H130 H 0.85309 0.76659 0.17972 0.0
H131 H 0.78648 0.63073 0.20176 0.0
C132 C 0.12756 0.86786 0.57149 0.0
C133 C 0.12235 0.90449 0.57556 0.0
N134 N 0.07771 0.89126 0.57446 0.0
N135 N 0.08647 0.83192 0.56752 0.0
C136 C 0.0566 0.84706 0.56969 0.0
H137 H 0.15936 0.86747 0.57132 0.0
Co138 Co 0.07629 0.77488 0.56067 0.0
C139 C 0.01194 0.75187 0.52918 0.0
O140 O 0.03743 0.74094 0.51937 0.0
N141 N 0.06672 0.71637 0.55399 0.0
C142 C 0.07277 0.6609 0.54033 0.0
C143 C 0.08258 0.70496 0.53911 0.0
C144 C 0.04699 0.67772 0.56399 0.0
N145 N 0.05069 0.64387 0.55605 0.0
O146 O 0.03793 0.75005 0.58143 0.0
H147 H 0.1011 0.72714 0.52794 0.0
H148 H 0.03158 0.67451 0.57718 0.0
O149 O 0.02365 0.76574 0.54555 0.0
C150 C 0.06422 0.75552 0.59481 0.0
O151 O 0.10795 0.77239 0.5915 0.0
N152 N 0.11883 0.80229 0.54215 0.0
C153 C 0.19764 0.85786 0.52264 0.0
C154 C 0.15662 0.85724 0.51874 0.0
C155 C 0.11762 0.82971 0.52892 0.0
C156 C 0.15822 0.80201 0.54589 0.0
C157 C 0.19783 0.8289 0.53607 0.0
H158 H 0.08781 0.83321 0.52714 0.0
H159 H 0.15926 0.78217 0.55718 0.0
H160 H 0.02021 0.82632 0.5676 0.0
H161 H 0.14917 0.9381 0.57928 0.0
H162 H 0.08148 0.64285 0.53043 0.0
H163 H 0.15558 0.88058 0.509 0.0
H164 H 0.22892 0.82895 0.53967 0.0
C165 C 0.23714 0.10789 0.9153 0.0
C166 C 0.19507 0.10161 0.92011 0.0
N167 N 0.16376 0.0582 0.91661 0.0
N168 N 0.23214 0.06882 0.90849 0.0
C169 C 0.18707 0.03891 0.9097 0.0
H170 H 0.26934 0.13906 0.91655 0.0
Co171 Co 0.27916 0.06097 0.89966 0.0
C172 C 0.24032 0.00694 0.8657 0.0
O173 O 0.27751 0.03532 0.85695 0.0
N174 N 0.32855 0.05359 0.89095 0.0
C175 C 0.39172 0.06475 0.87669 0.0
C176 C 0.35803 0.07587 0.87716 0.0
C177 C 0.34532 0.02835 0.89838 0.0
N178 N 0.3839 0.03516 0.89014 0.0
O179 O 0.26589 0.01748 0.91844 0.0
H180 H 0.35598 0.09924 0.8678 0.0
H181 H 0.33082 0.0065 0.91004 0.0
O182 O 0.23631 0.01299 0.88266 0.0
C183 C 0.29054 0.03888 0.93207 0.0
O184 O 0.32136 0.08187 0.93011 0.0
N185 N 0.29359 0.10812 0.88336 0.0
C186 C 0.31703 0.18951 0.86608 0.0
C187 C 0.27679 0.1496 0.86143 0.0
C188 C 0.26506 0.10936 0.87058 0.0
C189 C 0.33234 0.1468 0.88826 0.0
C190 C 0.34513 0.18779 0.8796 0.0
H191 H 0.23197 0.08014 0.86814 0.0
H192 H 0.35289 0.14583 0.89933 0.0
H193 H 0.1715 0.00393 0.90533 0.0
H194 H 0.18801 0.12681 0.92586 0.0
H195 H 0.42003 0.07771 0.86724 0.0
H196 H 0.25301 0.15013 0.85172 0.0
H197 H 0.37578 0.21811 0.88387 0.0
C198 C 0.75024 0.88028 0.43588 0.0
C199 C 0.79324 0.91745 0.43487 0.0
N200 N 0.82373 0.90292 0.43557 0.0
N201 N 0.75358 0.8425 0.43737 0.0
C202 C 0.79875 0.85732 0.43694 0.0
H203 H 0.7185 0.88075 0.43557 0.0
Co204 Co 0.70462 0.78389 0.43953 0.0
C205 C 0.73912 0.7382 0.46563 0.0
O206 O 0.6983 0.71024 0.47194 0.0
N207 N 0.65339 0.72454 0.44144 0.0
C208 C 0.58709 0.66645 0.45062 0.0
C209 C 0.62317 0.70743 0.45539 0.0
C210 C 0.63448 0.69229 0.42835 0.0
N211 N 0.59408 0.65715 0.4336 0.0
O212 O 0.72187 0.76831 0.41715 0.0
H213 H 0.62658 0.72327 0.46846 0.0
H214 H 0.64895 0.69479 0.41501 0.0
O215 O 0.74423 0.76663 0.45315 0.0
C216 C 0.71062 0.7844 0.40374 0.0
O217 O 0.68985 0.80768 0.40699 0.0
N218 N 0.68653 0.80179 0.46027 0.0
C219 C 0.65243 0.83149 0.4881 0.0
C220 C 0.69034 0.82579 0.49102 0.0
C221 C 0.70749 0.81165 0.47678 0.0
C222 C 0.65017 0.80787 0.4571 0.0
C223 C 0.63228 0.82243 0.4709 0.0
H224 H 0.73832 0.8103 0.47893 0.0
H225 H 0.63511 0.80132 0.44369 0.0
H226 H 0.81307 0.83517 0.43783 0.0
H227 H 0.80136 0.95239 0.43354 0.0
H228 H 0.5581 0.64473 0.45909 0.0
H229 H 0.70821 0.83472 0.5039 0.0
H230 H 0.60381 0.82769 0.46805 0.0
C231 C 0.89616 0.77672 0.73609 0.0
C232 C 0.90393 0.82001 0.73304 0.0
N233 N 0.94484 0.8497 0.74017 0.0
N234 N 0.93192 0.77914 0.74513 0.0
C235 C 0.96132 0.82392 0.74709 0.0
H236 H 0.86529 0.74547 0.73292 0.0
Co237 Co 0.93456 0.73078 0.75572 0.0
C238 C 0.01894 0.77538 0.77764 0.0
O239 O 0.03169 0.74797 0.77051 0.0
N240 N 0.93656 0.68202 0.76671 0.0
C241 C 0.93118 0.63423 0.78845 0.0
C242 C 0.93489 0.67546 0.78489 0.0
C243 C 0.93433 0.64434 0.7595 0.0
N244 N 0.93071 0.61475 0.7725 0.0
O245 O 0.97849 0.73725 0.73795 0.0
H246 H 0.9351 0.69876 0.79495 0.0
H247 H 0.93373 0.6378 0.74509 0.0
O248 O 0.98131 0.77239 0.77273 0.0
C249 C 0.95489 0.71411 0.72438 0.0
O250 O 0.91031 0.69048 0.72622 0.0
N251 N 0.88803 0.72203 0.77129 0.0
C252 C 0.81031 0.70194 0.79084 0.0
C253 C 0.85042 0.74371 0.79324 0.0
C254 C 0.8893 0.75318 0.78329 0.0
C255 C 0.849 0.68179 0.76851 0.0
C256 C 0.8098 0.67062 0.77845 0.0
H257 H 0.91992 0.78566 0.7849 0.0
H258 H 0.84845 0.65828 0.75846 0.0
H259 H 0.9936 0.83741 0.75404 0.0
H260 H 0.88002 0.82867 0.72707 0.0
H261 H 0.92903 0.61961 0.80174 0.0
H262 H 0.85163 0.76861 0.80277 0.0
H263 H 0.77918 0.63832 0.77621 0.0
C264 C 0.12101 0.88682 0.07676 0.0
C265 C 0.08687 0.89697 0.07428 0.0
N266 N 0.09764 0.93542 0.08346 0.0
N267 N 0.15323 0.91827 0.08759 0.0
C268 C 0.1383 0.94764 0.09143 0.0
H269 H 0.12221 0.85802 0.07113 0.0
Co270 Co 0.20466 0.91535 0.09418 0.0
C271 C 0.23986 0.96749 0.12828 0.0
O272 O 0.24908 0.93593 0.13344 0.0
N273 N 0.25753 0.91172 0.10017 0.0
C274 C 0.30651 0.8897 0.10911 0.0
C275 C 0.26138 0.87629 0.10642 0.0
C276 C 0.30126 0.94603 0.09885 0.0
N277 N 0.33147 0.93348 0.10431 0.0
O278 O 0.23775 0.95801 0.07543 0.0
H279 H 0.23374 0.84272 0.10923 0.0
H280 H 0.31077 0.98001 0.09449 0.0
O281 O 0.22172 0.96432 0.11262 0.0
C282 C 0.24182 0.93702 0.06181 0.0
O283 O 0.22786 0.89353 0.06338 0.0
N284 N 0.16837 0.86959 0.11072 0.0
C285 C 0.09823 0.79386 0.12782 0.0
C286 C 0.11379 0.83747 0.13485 0.0
C287 C 0.14797 0.87502 0.1258 0.0
C288 C 0.15323 0.82738 0.10363 0.0
C289 C 0.11861 0.78892 0.11209 0.0
H290 H 0.15497 0.90808 0.13021 0.0
H291 H 0.16698 0.82381 0.09084 0.0
H292 H 0.15709 0.97749 0.09977 0.0
H293 H 0.05614 0.87685 0.0665 0.0
H294 H 0.32001 0.86883 0.11416 0.0
H295 H 0.09712 0.84287 0.1464 0.0
H296 H 0.10657 0.75592 0.10596 0.0
C297 C 0.23786 0.12319 0.43452 0.0
C298 C 0.19542 0.08562 0.43236 0.0
N299 N 0.16384 0.09794 0.43562 0.0
N300 N 0.23294 0.1588 0.43934 0.0
C301 C 0.18753 0.14251 0.43974 0.0
H302 H 0.27028 0.12454 0.43275 0.0
Co303 Co 0.27984 0.21728 0.44387 0.0
C304 C 0.24329 0.24085 0.47717 0.0
O305 O 0.28134 0.25299 0.48595 0.0
N306 N 0.32886 0.27742 0.44808 0.0
C307 C 0.39324 0.33569 0.45868 0.0
C308 C 0.35813 0.29304 0.46233 0.0
C309 C 0.34733 0.31223 0.43603 0.0
N310 N 0.38662 0.3475 0.44205 0.0
O311 O 0.25983 0.23741 0.42339 0.0
H312 H 0.35634 0.27403 0.47434 0.0
H313 H 0.33389 0.31138 0.42266 0.0
O314 O 0.23909 0.22721 0.46065 0.0
C315 C 0.27875 0.23065 0.40962 0.0
O316 O 0.30765 0.21598 0.41232 0.0
N317 N 0.30118 0.19429 0.46196 0.0
C318 C 0.33306 0.14535 0.48122 0.0
C319 C 0.29163 0.14299 0.486 0.0
C320 C 0.27582 0.16715 0.47596 0.0
C321 C 0.34169 0.19733 0.4573 0.0
C322 C 0.35878 0.17395 0.46699 0.0
H323 H 0.24183 0.16127 0.47853 0.0
H324 H 0.35992 0.2166 0.44542 0.0
H325 H 0.17212 0.16286 0.44318 0.0
H326 H 0.18839 0.05205 0.42844 0.0
H327 H 0.42208 0.35599 0.46741 0.0
H328 H 0.26971 0.11972 0.49637 0.0
H329 H 0.39048 0.17613 0.46269 0.0
C330 C 0.10731 0.25383 0.76766 0.0
C331 C 0.10604 0.21475 0.76187 0.0
N332 N 0.06329 0.17993 0.7642 0.0
N333 N 0.06569 0.24366 0.77377 0.0
C334 C 0.03948 0.19847 0.77137 0.0
H335 H 0.13656 0.28765 0.76724 0.0
Co336 Co 0.04974 0.28542 0.78217 0.0
C337 C 0.98785 0.23776 0.8136 0.0
O338 O 0.0101 0.27469 0.82335 0.0
N339 N 0.03377 0.32911 0.79037 0.0
C340 C 0.03057 0.38426 0.80563 0.0
C341 C 0.04931 0.3567 0.80511 0.0
C342 C 0.00569 0.34143 0.78213 0.0
N343 N 0.00325 0.37473 0.79114 0.0
O344 O 0.01074 0.2713 0.76161 0.0
H345 H 0.0726 0.35706 0.81521 0.0
H346 H 0.98722 0.32657 0.76971 0.0
O347 O -0.00025 0.23742 0.79706 0.0
C348 C 0.03606 0.29675 0.7488 0.0
O349 O 0.07829 0.32739 0.75274 0.0
N350 N 0.09317 0.30158 0.80041 0.0
C351 C 0.17199 0.32885 0.82061 0.0
C352 C 0.133 0.28651 0.82373 0.0
C353 C 0.09419 0.273 0.81316 0.0
C354 C 0.13086 0.34268 0.79714 0.0
C355 C 0.17048 0.35733 0.80727 0.0
H356 H 0.06639 0.23862 0.81441 0.0
H357 H 0.13044 0.36361 0.78615 0.0
H358 H 0.00364 0.17955 0.77483 0.0
H359 H 0.13419 0.21237 0.75604 0.0
H360 H 0.03758 0.41027 0.81565 0.0
H361 H 0.13365 0.2626 0.83329 0.0
H362 H 0.20023 0.3897 0.80417 0.0
C363 C 0.87774 0.13038 0.08568 0.0
C364 C 0.91371 0.12312 0.08239 0.0
N365 N 0.90224 0.08134 0.08841 0.0
N366 N 0.84382 0.09349 0.09383 0.0
C367 C 0.85955 0.06397 0.09515 0.0
H368 H 0.87682 0.16111 0.0828 0.0
Co369 Co 0.79075 0.09012 0.10301 0.0
C370 C 0.74355 0.00211 0.12168 0.0
O371 O 0.70541 0.993 0.1135 0.0
N372 N 0.73771 0.08747 0.11249 0.0
C373 C 0.68615 0.08234 0.13255 0.0
C374 C 0.72885 0.08781 0.13038 0.0
C375 C 0.69973 0.08204 0.10406 0.0
N376 N 0.66759 0.07856 0.116 0.0
O377 O 0.75729 0.05069 0.08354 0.0
H378 H 0.75121 0.08986 0.14127 0.0
H379 H 0.69523 0.07961 0.0895 0.0
O380 O 0.78012 0.03913 0.11833 0.0
C381 C 0.76026 0.07361 0.06939 0.0
O382 O 0.7812 0.11805 0.07071 0.0
N383 N 0.82548 0.13173 0.12075 0.0
C384 C 0.89068 0.20392 0.14081 0.0
C385 C 0.87913 0.15926 0.14514 0.0
C386 C 0.84677 0.12349 0.13475 0.0
C387 C 0.83427 0.17459 0.11703 0.0
C388 C 0.86716 0.21145 0.12685 0.0
H389 H 0.84101 0.08981 0.13738 0.0
H390 H 0.81759 0.18032 0.10563 0.0
H391 H 0.8409 0.03105 0.10155 0.0
H392 H 0.94592 0.14689 0.07618 0.0
H393 H 0.66928 0.07898 0.14544 0.0
H394 H 0.89745 0.15229 0.15555 0.0
H395 H 0.87563 0.24555 0.12304 0.0
H396 H 0.62007 0.57763 0.24831 0.0
H397 H 0.54679 0.62357 0.21439 0.0
H398 H 0.55187 0.50319 0.25069 0.0
H399 H 0.47878 0.54898 0.21664 0.0
H400 H 0.40345 0.39848 0.20055 0.0
H401 H 0.46664 0.4756 0.20312 0.0
H402 H 0.46861 0.45977 0.26131 0.0
H403 H 0.40526 0.38163 0.25867 0.0
C404 C 0.58915 0.57221 0.24174 0.0
C405 C 0.5889 0.60615 0.2309 0.0
C406 C 0.55016 0.5296 0.2431 0.0
C407 C 0.51049 0.52036 0.23361 0.0
C408 C 0.50934 0.55515 0.22379 0.0
C409 C 0.54819 0.59769 0.22247 0.0
C410 C 0.41766 0.41118 0.21386 0.0
C411 C 0.39977 0.38407 0.22941 0.0
C412 C 0.45334 0.45553 0.21537 0.0
C413 C 0.47199 0.47362 0.23243 0.0
C414 C 0.45462 0.44647 0.24801 0.0
C415 C 0.41849 0.40203 0.24651 0.0
H416 H 0.09229 0.5946 0.55108 0.0
H417 H 0.97618 0.59217 0.57674 0.0
H418 H 0.06338 0.51584 0.55944 0.0
H419 H 0.94749 0.51306 0.58564 0.0
H420 H 0.88386 0.36089 0.56785 0.0
H421 H 0.91481 0.44258 0.56781 0.0
H422 H 0.04599 0.46194 0.58423 0.0
H423 H 0.01531 0.38002 0.58362 0.0
C424 C 0.06073 0.57724 0.55868 0.0
C425 C 0.03602 0.59917 0.56298 0.0
C426 C 0.04449 0.53229 0.56371 0.0
C427 C 0.00307 0.50819 0.57315 0.0
C428 C 0.97934 0.53074 0.57823 0.0
C429 C -0.00418 0.57598 0.57325 0.0
C430 C 0.91927 0.38256 0.5715 0.0
C431 C 0.94737 0.36406 0.5754 0.0
C432 C 0.93682 0.42936 0.57175 0.0
C433 C 0.98291 0.4587 0.57592 0.0
C434 C 0.01044 0.44013 0.58078 0.0
C435 C 0.99282 0.39323 0.58055 0.0
H436 H 0.35806 0.95193 0.90383 0.0
H437 H 0.4755 0.07878 0.88832 0.0
H438 H 0.40795 0.92048 0.91046 0.0
H439 H 0.52503 0.04753 0.89459 0.0
H440 H 0.60836 0.99088 0.91716 0.0
H441 H 0.55421 0.01859 0.9191 0.0
H442 H 0.45434 0.89992 0.89018 0.0
H443 H 0.50797 0.8718 0.88866 0.0
C444 C 0.39453 0.97315 0.90207 0.0
C445 C 0.41296 0.01748 0.89533 0.0
C446 C 0.42298 0.9552 0.90577 0.0
C447 C 0.47032 0.98159 0.90302 0.0
C448 C 0.48876 0.02654 0.89703 0.0
C449 C 0.46037 0.04423 0.89318 0.0
C450 C 0.57452 0.97031 0.91159 0.0
C451 C 0.56258 0.92954 0.90252 0.0
C452 C 0.54365 0.98626 0.9126 0.0
C453 C 0.50024 0.96155 0.90467 0.0
C454 C 0.48744 0.91955 0.89652 0.0
C455 C 0.51835 0.90376 0.89543 0.0
H456 H 0.5034 0.61808 0.431 0.0
H457 H 0.6183 0.60371 0.41517 0.0
H458 H 0.45184 0.53876 0.42406 0.0
H459 H 0.56661 0.52368 0.40785 0.0
H460 H 0.47827 0.39278 0.44384 0.0
H461 H 0.52928 0.46806 0.4321 0.0
H462 H 0.41554 0.46947 0.40594 0.0
H463 H 0.36407 0.39385 0.41824 0.0
C464 C 0.51726 0.59809 0.42529 0.0
C465 C 0.56456 0.61626 0.42399 0.0
C466 C 0.48778 0.55272 0.42115 0.0
C467 C 0.50524 0.52465 0.41577 0.0
C468 C 0.5523 0.54441 0.41225 0.0
C469 C 0.58184 0.59012 0.41632 0.0
C470 C 0.46427 0.40894 0.43539 0.0
C471 C 0.41713 0.38824 0.43241 0.0
C472 C 0.49363 0.45177 0.42833 0.0
C473 C 0.47642 0.47496 0.41819 0.0
C474 C 0.4297 0.45254 0.41385 0.0
C475 C 0.40027 0.40937 0.42087 0.0
H476 H 0.98142 0.59433 0.75027 0.0
H477 H 0.87371 0.53808 0.79012 0.0
H478 H 0.98811 0.52592 0.75192 0.0
H479 H 0.87872 0.46895 0.79136 0.0
H480 H 0.96551 0.40927 0.81358 0.0
H481 H 0.93719 0.45993 0.80553 0.0
H482 H 0.95859 0.44439 0.74862 0.0
H483 H 0.98855 0.39433 0.75693 0.0
C484 C 0.95815 0.56653 0.75888 0.0
C485 C 0.92772 0.57145 0.77034 0.0
C486 C 0.96176 0.52731 0.7598 0.0
C487 C 0.93453 0.49236 0.77206 0.0
C488 C 0.90099 0.49574 0.78214 0.0
C489 C 0.89797 0.53511 0.78142 0.0
C490 C 0.96369 0.41628 0.79935 0.0
C491 C 0.97974 0.39841 0.78592 0.0
C492 C 0.9469 0.44488 0.79467 0.0
C493 C 0.94565 0.4563 0.77639 0.0
C494 C 0.95947 0.4365 0.76282 0.0
C495 C 0.97622 0.40758 0.76755 0.0
H496 H 0.38427 0.93461 0.13173 0.0
H497 H 0.38842 0.99368 0.07943 0.0
H498 H 0.46747 0.97742 0.13325 0.0
H499 H 0.47238 0.03627 0.08074 0.0
H500 H 0.61679 0.03732 0.08584 0.0
H501 H 0.53517 0.00886 0.082 0.0
H502 H 0.53051 0.06394 0.13427 0.0
H503 H 0.61208 0.09389 0.13792 0.0
C504 C 0.40317 0.95695 0.1206 0.0
C505 C 0.3802 0.96094 0.10547 0.0
C506 C 0.45064 0.98159 0.1215 0.0
C507 C 0.47621 0.01014 0.10712 0.0
C508 C 0.45333 0.01442 0.09198 0.0
C509 C 0.40555 0.9904 0.09127 0.0
C510 C 0.59878 0.0445 0.09632 0.0
C511 C 0.62108 0.06722 0.11238 0.0
C512 C 0.55198 0.02811 0.0941 0.0
C513 C 0.52662 0.03379 0.10795 0.0
C514 C 0.54926 0.0586 0.1235 0.0
C515 C 0.59596 0.07546 0.12562 0.0
H516 H 0.34443 0.29111 0.3877 0.0
H517 H 0.20094 0.19282 0.38938 0.0
H518 H 0.33993 0.299 0.35487 0.0
H519 H 0.19633 0.20005 0.35625 0.0
H520 H 0.22943 0.18574 0.29506 0.0
H521 H 0.2322 0.18007 0.32833 0.0
H522 H 0.30098 0.32603 0.33241 0.0
H523 H 0.29782 0.33162 0.29946 0.0
C524 C 0.31166 0.27211 0.38102 0.0
C525 C 0.27281 0.24212 0.39098 0.0
C526 C 0.30913 0.27635 0.36226 0.0
C527 C 0.26789 0.24983 0.35301 0.0
C528 C 0.22863 0.22057 0.36306 0.0
C529 C 0.23102 0.21698 0.38197 0.0
C530 C 0.24582 0.21649 0.30311 0.0
C531 C 0.26374 0.25911 0.29474 0.0
C532 C 0.24679 0.21327 0.3221 0.0
C533 C 0.26643 0.25264 0.33292 0.0
C534 C 0.28565 0.29517 0.32442 0.0
C535 C 0.28396 0.29833 0.30557 0.0
H536 H 0.02636 0.26022 0.63183 0.0
H537 H 0.89398 0.2424 0.64543 0.0
H538 H 0.04916 0.2775 0.66377 0.0
H539 H 0.91668 0.25965 0.67701 0.0
H540 H 0.95365 0.23328 0.73439 0.0
H541 H 0.93249 0.22128 0.70221 0.0
H542 H 0.06391 0.33449 0.68783 0.0
H543 H 0.08511 0.34634 0.71973 0.0
C544 C 0.00249 0.26073 0.64154 0.0
C545 C 0.95835 0.24966 0.63612 0.0
C546 C 0.01543 0.27049 0.65981 0.0
C547 C 0.98438 0.26923 0.67294 0.0
C548 C 0.94097 0.2599 0.66732 0.0
C549 C 0.92817 0.25035 0.64915 0.0
C550 C 0.97778 0.25577 0.72436 0.0
C551 C 0.02098 0.29068 0.72963 0.0
C552 C 0.96573 0.24899 0.70595 0.0
C553 C -0.00328 0.27686 0.69249 0.0
C554 C 0.03959 0.31207 0.69783 0.0
C555 C 0.05152 0.31899 0.71617 0.0
H556 H 0.72636 0.98434 0.06022 0.0
H557 H 0.75824 0.11442 0.03787 0.0
H558 H 0.70682 0.95116 0.02985 0.0
H559 H 0.73797 0.08115 0.00766 0.0
H560 H 0.75613 0.01653 0.95485 0.0
H561 H 0.76885 0.05169 0.98488 0.0
H562 H 0.65146 0.93124 0.00564 0.0
H563 H 0.63937 0.896 0.97589 0.0
C564 C 0.72855 0.00566 0.04889 0.0
C565 C 0.74402 0.05199 0.05145 0.0
C566 C 0.71725 0.98668 0.03148 0.0
C567 C 0.72108 0.01363 0.01631 0.0
C568 C 0.73536 0.05966 0.019 0.0
C569 C 0.74668 0.07861 0.03636 0.0
C570 C 0.73273 -0.00207 0.96578 0.0
C571 C 0.69703 0.95343 0.96306 0.0
C572 C 0.73993 0.01802 0.98298 0.0
C573 C 0.71144 0.99399 0.99772 0.0
C574 C 0.67459 0.95027 0.9947 0.0
C575 C 0.66752 0.93022 0.97759 0.0
H576 H 0.72151 0.83772 0.37474 0.0
H577 H 0.7174 0.71314 0.38997 0.0
H578 H 0.73041 0.82382 0.34302 0.0
H579 H 0.72369 0.69753 0.35801 0.0
H580 H 0.77832 0.70319 0.30123 0.0
H581 H 0.77202 0.7182 0.333 0.0
H582 H 0.69115 0.77962 0.31805 0.0
H583 H 0.69988 0.76668 0.286 0.0
C584 C 0.7223 0.80715 0.37123 0.0
C585 C 0.71882 0.77649 0.38477 0.0
C586 C 0.72692 0.7989 0.353 0.0
C587 C 0.72726 0.75926 0.3478 0.0
C588 C 0.72423 0.72876 0.36146 0.0
C589 C 0.72051 0.73754 0.37979 0.0
C590 C 0.75907 0.71981 0.30473 0.0
C591 C 0.73952 0.73375 0.29114 0.0
C592 C 0.7552 0.72819 0.32301 0.0
C593 C 0.73097 0.75005 0.32824 0.0
C594 C 0.71084 0.76347 0.31458 0.0
C595 C 0.71548 0.7558 0.29621 0.0
H596 H 0.978 0.7275 0.6079 0.0
H597 H 0.1138 0.76158 0.62478 0.0
H598 H 0.95364 0.71588 0.63972 0.0
H599 H 0.08939 0.74942 0.65633 0.0
H600 H 0.03964 0.77662 0.71142 0.0
H601 H 0.06625 0.78485 0.67991 0.0
H602 H 0.94084 0.66446 0.66507 0.0
H603 H 0.91426 0.65662 0.69624 0.0
C604 C 0.00247 0.73207 0.61835 0.0
C605 C 0.04777 0.7455 0.6138 0.0
C606 C 0.98857 0.72533 0.63657 0.0
C607 C 0.01971 0.73191 0.65057 0.0
C608 C 0.06478 0.74475 0.64593 0.0
C609 C 0.07861 0.7514 0.62779 0.0
C610 C 0.01822 0.7516 0.70146 0.0
C611 C 0.97481 0.71622 0.70627 0.0
C612 C 0.03333 0.75629 0.68342 0.0
C613 C 0.00528 0.72563 0.66993 0.0
C614 C 0.96278 0.68922 0.67501 0.0
C615 C 0.94775 0.68459 0.69294 0.0
H616 H 0.21035 0.98381 0.94956 0.0
H617 H 0.35652 0.05015 0.95561 0.0
H618 H 0.20116 0.96219 0.98186 0.0
H619 H 0.34734 0.02751 0.9876 0.0
H620 H 0.29444 0.9243 0.03755 0.0
H621 H 0.30671 0.94705 0.00555 0.0
H622 H 0.22962 0.01595 0.01284 0.0
H623 H 0.21843 0.99422 0.04512 0.0
C624 C 0.24033 0.99261 0.95768 0.0
C625 C 0.2841 0.01821 0.95017 0.0
C626 C 0.23514 0.98086 0.97614 0.0
C627 C 0.27363 0.99368 0.98716 0.0
C628 C 0.31723 0.01738 0.97938 0.0
C629 C 0.32242 0.03006 0.96111 0.0
C630 C 0.28109 0.94524 0.03239 0.0
C631 C 0.25601 0.95805 0.04376 0.0
C632 C 0.28786 0.95796 0.01411 0.0
C633 C 0.26857 0.98265 0.00677 0.0
C634 C 0.2444 -0.00351 0.01822 0.0
C635 C 0.2386 0.9847 0.03667 0.0
H636 H 0.01813 0.11642 0.25517 0.0
H637 H 0.1238 0.0932 0.27639 0.0
H638 H 0.96323 0.03591 0.25807 0.0
H639 H 0.06885 0.01253 0.27939 0.0
H640 H 0.97717 0.87352 0.25085 0.0
H641 H 0.03085 0.95317 0.2566 0.0
H642 H 0.92157 0.97069 0.27814 0.0
H643 H 0.8678 0.89081 0.27234 0.0
C644 C 0.02933 0.09428 0.2609 0.0
C645 C 0.07535 0.11091 0.26528 0.0
C646 C -0.00211 0.04813 0.26259 0.0
C647 C 0.01188 0.01781 0.26876 0.0
C648 C 0.0573 0.03496 0.27425 0.0
C649 C 0.08872 0.08107 0.27252 0.0
C650 C 0.96479 0.89409 0.25719 0.0
C651 C 0.9182 0.87607 0.26091 0.0
C652 C -0.00445 0.93975 0.26052 0.0
C653 C 0.98034 0.96827 0.26771 0.0
C654 C 0.93412 0.94969 0.27231 0.0
C655 C 0.90336 0.90403 0.26895 0.0
H656 H 0.89764 0.001 0.59432 0.0
H657 H 0.03329 0.11603 0.59807 0.0
H658 H 0.9291 0.95184 0.58756 0.0
H659 H 0.06545 0.06687 0.59236 0.0
H660 H 0.11108 0.97814 0.5643 0.0
H661 H 0.07798 0.02623 0.57019 0.0
H662 H 0.9663 0.91552 0.59892 0.0
H663 H -0.00136 0.86704 0.59197 0.0
C664 C 0.93431 0.0155 0.59401 0.0
C665 C 0.96314 0.06218 0.59675 0.0
C666 C 0.95247 0.98736 0.5902 0.0
C667 C -1e-05 0.00511 0.58938 0.0
C668 C 0.02873 0.05191 0.59245 0.0
C669 C 0.01046 0.08016 0.59587 0.0
C670 C 0.07939 0.96428 0.57183 0.0
C671 C 0.05735 0.91902 0.5777 0.0
C672 C 0.06049 0.99187 0.57536 0.0
C673 C 0.01948 0.97514 0.58521 0.0
C674 C -0.00256 0.92959 0.59104 0.0
C675 C 0.01595 0.90173 0.58714 0.0
H676 H 0.1074 0.97443 0.92972 0.0
H677 H 0.11131 0.09526 0.90952 0.0
H678 H 0.0255 0.93994 0.93506 0.0
H679 H 0.02924 0.06041 0.91369 0.0
H680 H 0.88843 0.00441 0.93697 0.0
H681 H 0.97107 0.03875 0.93451 0.0
H682 H 0.95487 0.90738 0.92127 0.0
H683 H 0.87267 0.87333 0.9249 0.0
C684 C 0.09039 0.99326 0.92622 0.0
C685 C 0.11539 0.03741 0.91928 0.0
C686 C 0.04344 0.97355 0.92917 0.0
C687 C 0.02033 -0.00274 0.92485 0.0
C688 C 0.04568 0.04137 0.91765 0.0
C689 C 0.0927 0.06134 0.91511 0.0
C690 C 0.9029 0.98312 0.93369 0.0
C691 C 0.87449 0.93637 0.9312 0.0
C692 C 0.95019 0.00269 0.93211 0.0
C693 C 0.97005 0.97603 0.92754 0.0
C694 C 0.94124 0.92903 0.92516 0.0
C695 C 0.89406 0.90941 0.92715 0.0
H696 H 0.87397 0.98898 0.44779 0.0
H697 H 0.88454 0.87941 0.42297 0.0
H698 H 0.9566 0.03588 0.44753 0.0
H699 H 0.96741 0.92653 0.42248 0.0
H700 H 0.11522 0.00797 0.44271 0.0
H701 H 0.03248 0.96007 0.44251 0.0
H702 H 0.01917 0.07548 0.42682 0.0
H703 H 0.10181 0.12331 0.42727 0.0
C704 C 0.89394 0.97508 0.44208 0.0
C705 C 0.87267 0.93052 0.43535 0.0
C706 C 0.94135 0.00199 0.44191 0.0
C707 C 0.96868 0.98507 0.43491 0.0
C708 C 0.94741 0.94042 0.4282 0.0
C709 C 0.89993 0.91341 0.42846 0.0
C710 C 0.09459 0.02296 0.43907 0.0
C711 C 0.11503 0.06945 0.43507 0.0
C712 C 0.04718 -0.00447 0.43893 0.0
C713 C 0.01915 0.01394 0.4347 0.0
C714 C 0.03969 0.06036 0.43048 0.0
C715 C 0.08706 0.0878 0.43072 0.0
H716 H 0.00481 0.90336 0.76606 0.0
H717 H 0.92718 0.90609 0.71991 0.0
H718 H 0.03396 0.98362 0.77087 0.0
H719 H 0.9562 0.98694 0.72498 0.0
H720 H 0.97704 0.11662 0.75485 0.0
H721 H 0.94907 0.03667 0.74812 0.0
H722 H 0.08447 0.05707 0.75644 0.0
H723 H 0.11208 0.13648 0.76364 0.0
C724 C 0.99444 0.92105 0.75671 0.0
C725 C 0.96371 0.89798 0.74249 0.0
C726 C 0.01113 0.96725 0.75955 0.0
C727 C -0.00255 0.99166 0.7483 0.0
C728 C 0.96697 0.96888 0.734 0.0
C729 C 0.95038 0.92257 0.7311 0.0
C730 C 0.00074 0.10396 0.75536 0.0
C731 C 0.04677 0.13292 0.75986 0.0
C732 C 0.98484 0.0583 0.75129 0.0
C733 C 0.01457 0.04057 0.75176 0.0
C734 C 0.06063 0.06962 0.75612 0.0
C735 C 0.07655 0.11524 0.76008 0.0
H736 H 0.87454 0.99194 0.08545 0.0
H737 H 0.9942 0.12377 0.09162 0.0
H738 H 0.92268 0.95698 0.08499 0.0
H739 H 0.04239 0.0889 0.09102 0.0
H740 H 0.10529 -0.00069 0.108 0.0
H741 H 0.05828 0.03525 0.10979 0.0
H742 H 0.98104 0.95803 0.0633 0.0
H743 H 0.02829 0.92316 0.06106 0.0
C744 C 0.91107 0.01339 0.08681 0.0
C745 C 0.93056 0.06062 0.08846 0.0
C746 C 0.93867 0.99345 0.08642 0.0
C747 C 0.98634 0.02023 0.08792 0.0
C748 C 0.00577 0.06737 0.08994 0.0
C749 C 0.97821 0.08736 0.09009 0.0
C750 C 0.07868 0.99023 0.09802 0.0
C751 C 0.0707 0.9578 0.08446 0.0
C752 C 0.05163 0.01081 0.0991 0.0
C753 C 0.01567 -0.00089 0.08679 0.0
C754 C 0.00791 0.96711 0.0732 0.0
C755 C 0.03516 0.94699 0.07197 0.0
H756 H 0.96292 0.27101 0.12285 0.0
H757 H 0.91234 0.22033 0.17667 0.0
H758 H 0.03983 0.31679 0.13504 0.0
H759 H 0.98894 0.26576 0.18886 0.0
H760 H 0.12612 0.33668 0.20875 0.0
H761 H 0.06211 0.33832 0.19427 0.0
H762 H 0.08251 0.27821 0.14596 0.0
H763 H 0.14679 0.27713 0.16035 0.0
C764 C 0.96792 0.27132 0.1374 0.0
C765 C 0.93207 0.24175 0.14884 0.0
C766 C 0.01193 0.29731 0.14434 0.0
C767 C 0.02044 0.29428 0.16281 0.0
C768 C 0.98345 0.26901 0.17457 0.0
C769 C 0.93961 0.24273 0.16761 0.0
C770 C 0.11817 0.32566 0.19475 0.0
C771 C 0.14082 0.30604 0.18573 0.0
C772 C 0.08142 0.32647 0.18652 0.0
C773 C 0.06701 0.3079 0.16912 0.0
C774 C 0.09298 0.29305 0.15936 0.0
C775 C 0.12949 0.29194 0.16764 0.0
H776 H 0.72023 0.06876 0.54619 0.0
H777 H 0.78923 -0.00465 0.56089 0.0
H778 H 0.6556 -0.00152 0.53468 0.0
H779 H 0.7261 0.92603 0.54922 0.0
H780 H 0.63554 0.81053 0.52415 0.0
H781 H 0.64776 0.8656 0.5479 0.0
H782 H 0.65659 0.96065 0.50687 0.0
H783 H 0.64296 0.9054 0.48346 0.0
C784 C 0.72108 0.03739 0.54725 0.0
C785 C 0.76004 0.03737 0.55383 0.0
C786 C 0.68413 -0.00273 0.54078 0.0
C787 C 0.68571 0.95669 0.54094 0.0
C788 C 0.72322 0.95637 0.54906 0.0
C789 C 0.76 -0.00369 0.55539 0.0
C790 C 0.63777 0.84239 0.52039 0.0
C791 C 0.64006 0.85459 0.50205 0.0
C792 C 0.64472 0.87388 0.53394 0.0
C793 C 0.65529 0.91811 0.52916 0.0
C794 C 0.64916 0.9271 0.51104 0.0
C795 C 0.64154 0.8954 0.49753 0.0
H796 H 0.76326 0.63069 0.8137 0.0
H797 H 0.76588 0.74954 0.79165 0.0
H798 H 0.70562 0.62269 0.83598 0.0
H799 H 0.70834 0.74153 0.81353 0.0
H800 H 0.62348 0.74174 0.85399 0.0
H801 H 0.63123 0.69782 0.82927 0.0
H802 H 0.7299 0.68211 0.86106 0.0
H803 H 0.72228 0.72613 0.88549 0.0
C804 C 0.75022 0.65405 0.81326 0.0
C805 C 0.76931 0.6913 0.80139 0.0
C806 C 0.71718 0.64932 0.82586 0.0
C807 C 0.70264 0.68149 0.8265 0.0
C808 C 0.71841 0.71584 0.81325 0.0
C809 C 0.75183 0.72094 0.8009 0.0
C810 C 0.64488 0.72669 0.85598 0.0
C811 C 0.67302 0.73769 0.8713 0.0
C812 C 0.64928 0.70161 0.84189 0.0
C813 C 0.68183 0.68747 0.84314 0.0
C814 C 0.7045 0.6925 0.85971 0.0
C815 C 0.70047 0.71797 0.87367 0.0
H816 H 0.02303 0.73296 0.10911 0.0
H817 H 0.07817 0.76944 0.16332 0.0
H818 H 0.94691 0.68548 0.12176 0.0
H819 H 0.00229 0.72287 0.17597 0.0
H820 H 0.86747 0.65166 0.19776 0.0
H821 H 0.92972 0.65217 0.18081 0.0
H822 H 0.90449 0.71903 0.13607 0.0
H823 H 0.8416 0.71739 0.1528 0.0
C824 C 0.01916 0.72934 0.12373 0.0
C825 C 0.05619 0.75542 0.13529 0.0
C826 C 0.97556 0.70239 0.13096 0.0
C827 C 0.9685 0.70109 0.14982 0.0
C828 C 0.00651 0.72294 0.16137 0.0
C829 C 0.04999 0.75 0.15416 0.0
C830 C 0.87393 0.66465 0.18398 0.0
C831 C 0.85037 0.68538 0.1767 0.0
C832 C 0.90975 0.66514 0.17434 0.0
C833 C 0.92252 0.68634 0.15728 0.0
C834 C 0.89547 0.70227 0.14916 0.0
C835 C 0.85974 0.70186 0.15882 0.0
H836 H 0.21641 0.88693 0.48749 0.0
H837 H 0.27625 0.91193 0.54106 0.0
H838 H 0.27659 0.96084 0.47764 0.0
H839 H 0.3373 0.98554 0.53108 0.0
H840 H 0.32815 0.11854 0.51654 0.0
H841 H 0.3192 0.04638 0.52634 0.0
H842 H 0.3544 0.0234 0.4724 0.0
H843 H 0.36189 0.09497 0.46246 0.0
C844 C 0.24351 0.90751 0.49692 0.0
C845 C 0.241 0.89431 0.51512 0.0
C846 C 0.27843 0.94971 0.49125 0.0
C847 C 0.31119 0.97943 0.50375 0.0
C848 C 0.31213 0.96355 0.52126 0.0
C849 C 0.2772 0.92128 0.52693 0.0
C850 C 0.33556 0.09881 0.50697 0.0
C851 C 0.34422 0.11162 0.48865 0.0
C852 C 0.33102 0.05764 0.51261 0.0
C853 C 0.33496 0.02868 0.49996 0.0
C854 C 0.35042 0.04475 0.48233 0.0
C855 C 0.35489 0.08592 0.47668 0.0
H856 H 0.31266 0.21091 0.83079 0.0
H857 H 0.33884 0.26651 0.88507 0.0
H858 H 0.30107 0.27221 0.82044 0.0
H859 H 0.32816 0.32869 0.87466 0.0
H860 H 0.18792 0.32069 0.8563 0.0
H861 H 0.24989 0.31117 0.86779 0.0
H862 H 0.31677 0.35021 0.81548 0.0
H863 H 0.25397 0.35877 0.80387 0.0
C864 C 0.31776 0.23736 0.84031 0.0
C865 C 0.32532 0.2334 0.85877 0.0
C866 C 0.31171 0.27291 0.83437 0.0
C867 C 0.31275 0.30479 0.84687 0.0
C868 C 0.32657 0.30422 0.86481 0.0
C869 C 0.33277 0.26867 0.87075 0.0
C870 C 0.21675 0.32893 0.84749 0.0
C871 C 0.21561 0.33911 0.82911 0.0
C872 C 0.25264 0.32402 0.85411 0.0
C873 C 0.2877 0.3289 0.84236 0.0
C874 C 0.2898 0.34558 0.82472 0.0
C875 C 0.25388 0.3506 0.81811 0.0
H876 H 0.18298 0.13075 0.20475 0.0
H877 H 0.31405 0.14997 0.22115 0.0
H878 H 0.18106 0.08287 0.17956 0.0
H879 H 0.31299 0.1038 0.19579 0.0
H880 H 0.27669 0.97994 0.16198 0.0
H881 H 0.27759 0.0286 0.18606 0.0
H882 H 0.21364 0.0817 0.15049 0.0
H883 H 0.211 0.03079 0.12626 0.0
C884 C 0.21137 0.12477 0.203 0.0
C885 C 0.24849 0.14396 0.21511 0.0
C886 C 0.2105 0.09766 0.18843 0.0
C887 C 0.24684 0.08926 0.18554 0.0
C888 C 0.2839 0.10861 0.19769 0.0
C889 C 0.28457 0.13527 0.2123 0.0
C890 C 0.26292 0.00204 0.15913 0.0
C891 C 0.24375 0.0013 0.14208 0.0
C892 C 0.26375 0.03039 0.17302 0.0
C893 C 0.24591 0.05948 0.17033 0.0
C894 C 0.22726 0.0594 0.15317 0.0
C895 C 0.22617 0.03059 0.13918 0.0
H896 H 0.97844 0.19531 0.5163 0.0
H897 H 0.06656 0.24702 0.56302 0.0
H898 H 0.0407 0.19979 0.49829 0.0
H899 H 0.13032 0.25483 0.54473 0.0
H900 H 0.22797 0.22648 0.51339 0.0
H901 H 0.16457 0.21972 0.53114 0.0
H902 H 0.10661 0.24261 0.4826 0.0
H903 H 0.16916 0.24606 0.46464 0.0
C904 C 0.01148 0.20831 0.52267 0.0
C905 C 0.01753 0.22084 0.54112 0.0
C906 C 0.04757 0.2113 0.51225 0.0
C907 C 0.09127 0.22792 0.51981 0.0
C908 C 0.09726 0.24089 0.53832 0.0
C909 C 0.06073 0.2368 0.54888 0.0
C910 C 0.20166 0.23006 0.50648 0.0
C911 C 0.20379 0.23706 0.48758 0.0
C912 C 0.16521 0.22659 0.51675 0.0
C913 C 0.13004 0.23108 0.50856 0.0
C914 C 0.1323 0.23816 0.48954 0.0
C915 C 0.16841 0.24051 0.47916 0.0
H916 H 0.98021 0.22045 0.84984 0.0
H917 H 0.91822 0.15965 0.79853 0.0
H918 H 0.92552 0.15273 0.86574 0.0
H919 H 0.86103 0.09216 0.81456 0.0
H920 H 0.78764 0.96071 0.84622 0.0
H921 H 0.84504 0.02742 0.83032 0.0
H922 H 0.85228 0.11077 0.87609 0.0
H923 H 0.79676 0.04311 0.89238 0.0
C924 C 0.95435 0.1927 0.84193 0.0
C925 C 0.95348 0.19564 0.82288 0.0
C926 C 0.92253 0.15372 0.85113 0.0
C927 C 0.88808 0.11656 0.84163 0.0
C928 C 0.88726 0.11953 0.82247 0.0
C929 C 0.91987 0.15841 0.81321 0.0
C930 C 0.80174 0.99332 0.85292 0.0
C931 C 0.78765 -0.00338 0.87058 0.0
C932 C 0.83449 0.03185 0.8437 0.0
C933 C 0.85353 0.07511 0.8517 0.0
C934 C 0.83935 0.07823 0.86947 0.0
C935 C 0.80724 0.03942 0.87886 0.0
H936 H 0.8123 0.87726 0.2113 0.0
H937 H 0.66548 0.80331 0.20879 0.0
H938 H 0.81459 0.92657 0.18675 0.0
H939 H 0.66722 0.84923 0.18333 0.0
H940 H 0.67608 0.95794 0.14639 0.0
H941 H 0.67593 0.9146 0.17258 0.0
H942 H 0.80841 0.93538 0.15661 0.0
H943 H 0.80972 0.98233 0.13135 0.0
C944 C 0.78052 0.87164 0.20542 0.0
C945 C 0.73873 0.83703 0.2121 0.0
C946 C 0.7817 0.89947 0.19113 0.0
C947 C 0.74108 0.89231 0.18275 0.0
C948 C 0.69933 0.8572 0.18954 0.0
C949 C 0.69819 0.83048 0.20418 0.0
C950 C 0.70503 0.95298 0.1485 0.0
C951 C 0.74271 0.97309 0.13678 0.0
C952 C 0.70496 0.92778 0.16352 0.0
C953 C 0.742 0.92065 0.16692 0.0
C954 C 0.77954 0.94055 0.15489 0.0
C955 C 0.78018 0.96707 0.1402 0.0
H956 H 0.8287 0.78311 0.45449 0.0
H957 H 0.7413 0.6998 0.49799 0.0
H958 H 0.89484 0.78897 0.4704 0.0
H959 H 0.80729 0.70544 0.51378 0.0
H960 H 0.94429 0.76364 0.54495 0.0
H961 H 0.87883 0.76198 0.52978 0.0
H962 H 0.92455 0.73766 0.47835 0.0
H963 H 0.98929 0.73926 0.49331 0.0
C964 C 0.82353 0.76608 0.46742 0.0
C965 C 0.77956 0.74091 0.47488 0.0
C966 C 0.86144 0.76929 0.47653 0.0
C967 C 0.8564 0.74775 0.49342 0.0
C968 C 0.81249 0.72288 0.50093 0.0
C969 C 0.77457 0.7193 0.49175 0.0
C970 C 0.94031 0.75798 0.53042 0.0
C971 C 0.97205 0.75141 0.52041 0.0
C972 C 0.90277 0.75688 0.52173 0.0
C973 C 0.89652 0.74982 0.50282 0.0
C974 C 0.92855 0.74374 0.49286 0.0
C975 C 0.96559 0.74433 0.50153 0.0
H976 H 0.21509 0.01766 0.83209 0.0
H977 H 0.17876 0.91844 0.87475 0.0
H978 H 0.15676 0.9604 0.81244 0.0
H979 H 0.12074 0.86024 0.85469 0.0
H980 H 0.0827 0.77196 0.79938 0.0
H981 H 0.1302 0.82622 0.82273 0.0
H982 H 0.0668 0.90691 0.81186 0.0
H983 H 0.01826 0.85201 0.78881 0.0
C984 C 0.19431 0.98355 0.83731 0.0
C985 C 0.20153 0.97242 0.85493 0.0
C986 C 0.16079 0.95086 0.82607 0.0
C987 C 0.13429 0.90587 0.83201 0.0
C988 C 0.14082 0.89471 0.84978 0.0
C989 C 0.17375 0.92793 0.86126 0.0
C990 C 0.07866 0.80112 0.80203 0.0
C991 C 0.04698 0.80789 0.7921 0.0
C992 C 0.10557 0.83193 0.81553 0.0
C993 C 0.10211 0.87069 0.81915 0.0
C994 C 0.07016 0.87729 0.80935 0.0
C995 C 0.04247 0.84592 0.79614 0.0
loop_
_geom_bond_atom_site_label_1
_geom_bond_atom_site_label_2
_geom_bond_distance
_geom_bond_site_symmetry_2
_ccdc_geom_bond_type
C0 C1 1.351 . S
C0 N3 1.368 . S
C0 H5 0.931 . S
C1 C0 1.351 . S
C1 N2 1.373 . S
C1 H29 0.930 . S
N2 C1 1.373 . S
N2 C4 1.340 . S
N3 C0 1.368 . S
N3 C4 1.321 . S
N3 Co6 2.135 . S
C4 N2 1.340 . S
C4 N3 1.321 . S
C4 H28 0.930 . S
H5 C0 0.931 . S
Co6 N3 2.135 . S
Co6 N9 2.121 . S
Co6 O14 2.055 . S
Co6 O17 2.039 . S
Co6 N20 2.140 . S
C7 O8 1.227 . S
C7 O17 1.265 . S
O8 C7 1.227 . S
N9 Co6 2.121 . S
N9 C11 1.375 . S
N9 C12 1.313 . S
C10 C11 1.338 . S
C10 N13 1.377 . S
C10 H30 0.930 . S
C11 N9 1.375 . S
C11 C10 1.338 . S
C11 H15 0.931 . S
C12 N9 1.313 . S
C12 N13 1.344 . S
C12 H16 0.930 . S
N13 C10 1.377 . S
N13 C12 1.344 . S
O14 Co6 2.055 . S
O14 C18 1.253 . S
H15 C11 0.931 . S
H16 C12 0.930 . S
O17 Co6 2.039 . S
O17 C7 1.265 . S
C18 O14 1.253 . S
C18 O19 1.227 . S
O19 C18 1.227 . S
N20 Co6 2.140 . S
N20 C23 1.346 . S
N20 C24 1.345 . S
C21 C22 1.387 . S
C21 C25 1.391 . S
C22 C21 1.387 . S
C22 C23 1.369 . S
C22 H31 0.929 . S
C23 N20 1.346 . S
C23 C22 1.369 . S
C23 H26 0.928 . S
C24 N20 1.345 . S
C24 C25 1.371 . S
C24 H27 0.931 . S
C25 C21 1.391 . S
C25 C24 1.371 . S
C25 H32 0.930 . S
H26 C23 0.928 . S
H27 C24 0.931 . S
H28 C4 0.930 . S
H29 C1 0.930 . S
H30 C10 0.930 . S
H31 C22 0.929 . S
H32 C25 0.930 . S
C33 C34 1.351 . S
C33 N36 1.368 . S
C33 H38 0.931 . S
C34 C33 1.351 . S
C34 N35 1.373 . S
C34 H62 0.930 . S
N35 C34 1.373 . S
N35 C37 1.340 . S
N36 C33 1.368 . S
N36 C37 1.321 . S
N36 Co39 2.135 . S
C37 N35 1.340 . S
C37 N36 1.321 . S
C37 H61 0.930 . S
H38 C33 0.931 . S
Co39 N36 2.135 . S
Co39 N42 2.121 . S
Co39 O47 2.055 . S
Co39 O50 2.039 1_655 S
Co39 N53 2.140 . S
C40 O41 1.227 1_455 S
C40 O50 1.265 . S
O41 C40 1.227 1_655 S
N42 Co39 2.121 . S
N42 C44 1.375 . S
N42 C45 1.313 . S
C43 C44 1.338 . S
C43 N46 1.377 . S
C43 H63 0.930 . S
C44 N42 1.375 . S
C44 C43 1.338 . S
C44 H48 0.931 . S
C45 N42 1.313 . S
C45 N46 1.344 . S
C45 H49 0.930 . S
N46 C43 1.377 . S
N46 C45 1.344 . S
O47 Co39 2.055 . S
O47 C51 1.253 . S
H48 C44 0.931 . S
H49 C45 0.930 . S
O50 Co39 2.039 1_455 S
O50 C40 1.265 . S
C51 O47 1.253 . S
C51 O52 1.227 . S
O52 C51 1.227 . S
N53 Co39 2.140 . S
N53 C56 1.346 . S
N53 C57 1.345 . S
C54 C55 1.387 . S
C54 C58 1.391 . S
C55 C54 1.387 . S
C55 C56 1.369 . S
C55 H64 0.929 . S
C56 N53 1.346 . S
C56 C55 1.369 . S
C56 H59 0.928 . S
C57 N53 1.345 . S
C57 C58 1.371 . S
C57 H60 0.931 . S
C58 C54 1.391 . S
C58 C57 1.371 . S
C58 H65 0.930 . S
H59 C56 0.928 . S
H60 C57 0.931 . S
H61 C37 0.930 . S
H62 C34 0.930 . S
H63 C43 0.930 . S
H64 C55 0.929 . S
H65 C58 0.930 . S
C66 C67 1.351 . S
C66 N69 1.368 . S
C66 H71 0.931 . S
C67 C66 1.351 . S
C67 N68 1.373 . S
C67 H95 0.930 . S
N68 C67 1.373 . S
N68 C70 1.340 . S
N69 C66 1.368 . S
N69 C70 1.321 . S
N69 Co72 2.135 . S
C70 N68 1.340 . S
C70 N69 1.321 . S
C70 H94 0.930 . S
H71 C66 0.931 . S
Co72 N69 2.135 . S
Co72 N75 2.121 . S
Co72 O80 2.055 . S
Co72 O83 2.039 1_565 S
Co72 N86 2.140 . S
C73 O74 1.227 1_545 S
C73 O83 1.265 . S
O74 C73 1.227 1_565 S
N75 Co72 2.121 . S
N75 C77 1.375 . S
N75 C78 1.313 . S
C76 C77 1.338 . S
C76 N79 1.377 . S
C76 H96 0.930 . S
C77 N75 1.375 . S
C77 C76 1.338 . S
C77 H81 0.931 . S
C78 N75 1.313 . S
C78 N79 1.344 . S
C78 H82 0.930 . S
N79 C76 1.377 . S
N79 C78 1.344 . S
O80 Co72 2.055 . S
O80 C84 1.253 . S
H81 C77 0.931 . S
H82 C78 0.930 . S
O83 Co72 2.039 1_545 S
O83 C73 1.265 . S
C84 O80 1.253 . S
C84 O85 1.227 . S
O85 C84 1.227 . S
N86 Co72 2.140 . S
N86 C89 1.346 . S
N86 C90 1.345 . S
C87 C88 1.387 . S
C87 C91 1.391 . S
C88 C87 1.387 . S
C88 C89 1.369 . S
C88 H97 0.929 . S
C89 N86 1.346 . S
C89 C88 1.369 . S
C89 H92 0.928 . S
C90 N86 1.345 . S
C90 C91 1.371 . S
C90 H93 0.931 . S
C91 C87 1.391 . S
C91 C90 1.371 . S
C91 H98 0.930 . S
H92 C89 0.928 . S
H93 C90 0.931 . S
H94 C70 0.930 . S
H95 C67 0.930 . S
H96 C76 0.930 . S
H97 C88 0.929 . S
H98 C91 0.930 . S
C99 C100 1.351 . S
C99 N102 1.368 . S
C99 H104 0.931 . S
C100 C99 1.351 . S
C100 N101 1.373 . S
C100 H128 0.930 . S
N101 C100 1.373 . S
N101 C103 1.340 . S
N102 C99 1.368 . S
N102 C103 1.321 . S
N102 Co105 2.135 . S
C103 N101 1.340 . S
C103 N102 1.321 . S
C103 H127 0.930 . S
H104 C99 0.931 . S
Co105 N102 2.135 . S
Co105 N108 2.121 . S
Co105 O113 2.055 . S
Co105 O116 2.039 . S
Co105 N119 2.140 . S
C106 O107 1.227 . S
C106 O116 1.265 . S
O107 C106 1.227 . S
N108 Co105 2.121 . S
N108 C110 1.375 . S
N108 C111 1.313 . S
C109 C110 1.338 . S
C109 N112 1.377 . S
C109 H129 0.930 . S
C110 N108 1.375 . S
C110 C109 1.338 . S
C110 H114 0.931 . S
C111 N108 1.313 . S
C111 N112 1.344 . S
C111 H115 0.930 . S
N112 C109 1.377 . S
N112 C111 1.344 . S
O113 Co105 2.055 . S
O113 C117 1.253 . S
H114 C110 0.931 . S
H115 C111 0.930 . S
O116 Co105 2.039 . S
O116 C106 1.265 . S
C117 O113 1.253 . S
C117 O118 1.227 . S
O118 C117 1.227 . S
N119 Co105 2.140 . S
N119 C122 1.346 . S
N119 C123 1.345 . S
C120 C121 1.387 . S
C120 C124 1.391 . S
C121 C120 1.387 . S
C121 C122 1.369 . S
C121 H130 0.929 . S
C122 N119 1.346 . S
C122 C121 1.369 . S
C122 H125 0.928 . S
C123 N119 1.345 . S
C123 C124 1.371 . S
C123 H126 0.931 . S
C124 C120 1.391 . S
C124 C123 1.371 . S
C124 H131 0.930 . S
H125 C122 0.928 . S
H126 C123 0.931 . S
H127 C103 0.930 . S
H128 C100 0.930 . S
H129 C109 0.930 . S
H130 C121 0.929 . S
H131 C124 0.930 . S
C132 C133 1.351 . S
C132 N135 1.368 . S
C132 H137 0.931 . S
C133 C132 1.351 . S
C133 N134 1.373 . S
C133 H161 0.930 . S
N134 C133 1.373 . S
N134 C136 1.340 . S
N135 C132 1.368 . S
N135 C136 1.321 . S
N135 Co138 2.135 . S
C136 N134 1.340 . S
C136 N135 1.321 . S
C136 H160 0.930 . S
H137 C132 0.931 . S
Co138 N135 2.135 . S
Co138 N141 2.121 . S
Co138 O146 2.055 . S
Co138 O149 2.039 1_455 S
Co138 N152 2.140 . S
C139 O140 1.227 1_655 S
C139 O149 1.265 . S
O140 C139 1.227 1_455 S
N141 Co138 2.121 . S
N141 C143 1.375 . S
N141 C144 1.313 . S
C142 C143 1.338 . S
C142 N145 1.377 . S
C142 H162 0.930 . S
C143 N141 1.375 . S
C143 C142 1.338 . S
C143 H147 0.931 . S
C144 N141 1.313 . S
C144 N145 1.344 . S
C144 H148 0.930 . S
N145 C142 1.377 . S
N145 C144 1.344 . S
O146 Co138 2.055 . S
O146 C150 1.253 . S
H147 C143 0.931 . S
H148 C144 0.930 . S
O149 Co138 2.039 1_655 S
O149 C139 1.265 . S
C150 O146 1.253 . S
C150 O151 1.227 . S
O151 C150 1.227 . S
N152 Co138 2.140 . S
N152 C155 1.346 . S
N152 C156 1.345 . S
C153 C154 1.387 . S
C153 C157 1.391 . S
C154 C153 1.387 . S
C154 C155 1.369 . S
C154 H163 0.929 . S
C155 N152 1.346 . S
C155 C154 1.369 . S
C155 H158 0.928 . S
C156 N152 1.345 . S
C156 C157 1.371 . S
C156 H159 0.931 . S
C157 C153 1.391 . S
C157 C156 1.371 . S
C157 H164 0.930 . S
H158 C155 0.928 . S
H159 C156 0.931 . S
H160 C136 0.930 . S
H161 C133 0.930 . S
H162 C142 0.930 . S
H163 C154 0.929 . S
H164 C157 0.930 . S
C165 C166 1.351 . S
C165 N168 1.368 . S
C165 H170 0.931 . S
C166 C165 1.351 . S
C166 N167 1.373 . S
C166 H194 0.930 . S
N167 C166 1.373 . S
N167 C169 1.340 . S
N168 C165 1.368 . S
N168 C169 1.321 . S
N168 Co171 2.135 . S
C169 N167 1.340 . S
C169 N168 1.321 . S
C169 H193 0.930 . S
H170 C165 0.931 . S
Co171 N168 2.135 . S
Co171 N174 2.121 . S
Co171 O179 2.055 . S
Co171 O182 2.039 1_545 S
Co171 N185 2.140 . S
C172 O173 1.227 1_565 S
C172 O182 1.265 . S
O173 C172 1.227 1_545 S
N174 Co171 2.121 . S
N174 C176 1.375 . S
N174 C177 1.313 . S
C175 C176 1.338 . S
C175 N178 1.377 . S
C175 H195 0.930 . S
C176 N174 1.375 . S
C176 C175 1.338 . S
C176 H180 0.931 . S
C177 N174 1.313 . S
C177 N178 1.344 . S
C177 H181 0.930 . S
N178 C175 1.377 . S
N178 C177 1.344 . S
O179 Co171 2.055 . S
O179 C183 1.253 . S
H180 C176 0.931 . S
H181 C177 0.930 . S
O182 Co171 2.039 1_565 S
O182 C172 1.265 . S
C183 O179 1.253 . S
C183 O184 1.227 . S
O184 C183 1.227 . S
N185 Co171 2.140 . S
N185 C188 1.346 . S
N185 C189 1.345 . S
C186 C187 1.387 . S
C186 C190 1.391 . S
C187 C186 1.387 . S
C187 C188 1.369 . S
C187 H196 0.929 . S
C188 N185 1.346 . S
C188 C187 1.369 . S
C188 H191 0.928 . S
C189 N185 1.345 . S
C189 C190 1.371 . S
C189 H192 0.931 . S
C190 C186 1.391 . S
C190 C189 1.371 . S
C190 H197 0.930 . S
H191 C188 0.928 . S
H192 C189 0.931 . S
H193 C169 0.930 . S
H194 C166 0.930 . S
H195 C175 0.930 . S
H196 C187 0.929 . S
H197 C190 0.930 . S
C198 C199 1.351 . S
C198 N201 1.368 . S
C198 H203 0.931 . S
C199 C198 1.351 . S
C199 N200 1.373 . S
C199 H227 0.930 . S
N200 C199 1.373 . S
N200 C202 1.340 . S
N201 C198 1.368 . S
N201 C202 1.321 . S
N201 Co204 2.135 . S
C202 N200 1.340 . S
C202 N201 1.321 . S
C202 H226 0.930 . S
H203 C198 0.931 . S
Co204 N201 2.135 . S
Co204 N207 2.121 . S
Co204 O212 2.055 . S
Co204 O215 2.039 . S
Co204 N218 2.140 . S
C205 O206 1.227 . S
C205 O215 1.265 . S
O206 C205 1.227 . S
N207 Co204 2.121 . S
N207 C209 1.375 . S
N207 C210 1.313 . S
C208 C209 1.338 . S
C208 N211 1.377 . S
C208 H228 0.930 . S
C209 N207 1.375 . S
C209 C208 1.338 . S
C209 H213 0.931 . S
C210 N207 1.313 . S
C210 N211 1.344 . S
C210 H214 0.930 . S
N211 C208 1.377 . S
N211 C210 1.344 . S
O212 Co204 2.055 . S
O212 C216 1.253 . S
H213 C209 0.931 . S
H214 C210 0.930 . S
O215 Co204 2.039 . S
O215 C205 1.265 . S
C216 O212 1.253 . S
C216 O217 1.227 . S
O217 C216 1.227 . S
N218 Co204 2.140 . S
N218 C221 1.346 . S
N218 C222 1.345 . S
C219 C220 1.387 . S
C219 C223 1.391 . S
C220 C219 1.387 . S
C220 C221 1.369 . S
C220 H229 0.929 . S
C221 N218 1.346 . S
C221 C220 1.369 . S
C221 H224 0.928 . S
C222 N218 1.345 . S
C222 C223 1.371 . S
C222 H225 0.931 . S
C223 C219 1.391 . S
C223 C222 1.371 . S
C223 H230 0.930 . S
H224 C221 0.928 . S
H225 C222 0.931 . S
H226 C202 0.930 . S
H227 C199 0.930 . S
H228 C208 0.930 . S
H229 C220 0.929 . S
H230 C223 0.930 . S
C231 C232 1.351 . S
C231 N234 1.368 . S
C231 H236 0.931 . S
C232 C231 1.351 . S
C232 N233 1.373 . S
C232 H260 0.930 . S
N233 C232 1.373 . S
N233 C235 1.340 . S
N234 C231 1.368 . S
N234 C235 1.321 . S
N234 Co237 2.135 . S
C235 N233 1.340 . S
C235 N234 1.321 . S
C235 H259 0.930 . S
H236 C231 0.931 . S
Co237 N234 2.135 . S
Co237 N240 2.121 . S
Co237 O245 2.055 . S
Co237 O248 2.039 1_655 S
Co237 N251 2.140 . S
C238 O239 1.227 1_455 S
C238 O248 1.265 . S
O239 C238 1.227 1_655 S
N240 Co237 2.121 . S
N240 C242 1.375 . S
N240 C243 1.313 . S
C241 C242 1.338 . S
C241 N244 1.377 . S
C241 H261 0.930 . S
C242 N240 1.375 . S
C242 C241 1.338 . S
C242 H246 0.931 . S
C243 N240 1.313 . S
C243 N244 1.344 . S
C243 H247 0.930 . S
N244 C241 1.377 . S
N244 C243 1.344 . S
O245 Co237 2.055 . S
O245 C249 1.253 . S
H246 C242 0.931 . S
H247 C243 0.930 . S
O248 Co237 2.039 1_455 S
O248 C238 1.265 . S
C249 O245 1.253 . S
C249 O250 1.227 . S
O250 C249 1.227 . S
N251 Co237 2.140 . S
N251 C254 1.346 . S
N251 C255 1.345 . S
C252 C253 1.387 . S
C252 C256 1.391 . S
C253 C252 1.387 . S
C253 C254 1.369 . S
C253 H262 0.929 . S
C254 N251 1.346 . S
C254 C253 1.369 . S
C254 H257 0.928 . S
C255 N251 1.345 . S
C255 C256 1.371 . S
C255 H258 0.931 . S
C256 C252 1.391 . S
C256 C255 1.371 . S
C256 H263 0.930 . S
H257 C254 0.928 . S
H258 C255 0.931 . S
H259 C235 0.930 . S
H260 C232 0.930 . S
H261 C241 0.930 . S
H262 C253 0.929 . S
H263 C256 0.930 . S
C264 C265 1.351 . S
C264 N267 1.368 . S
C264 H269 0.931 . S
C265 C264 1.351 . S
C265 N266 1.373 . S
C265 H293 0.930 . S
N266 C265 1.373 . S
N266 C268 1.340 . S
N267 C264 1.368 . S
N267 C268 1.321 . S
N267 Co270 2.135 . S
C268 N266 1.340 . S
C268 N267 1.321 . S
C268 H292 0.930 . S
H269 C264 0.931 . S
Co270 N267 2.135 . S
Co270 N273 2.121 . S
Co270 O278 2.055 . S
Co270 O281 2.039 1_565 S
Co270 N284 2.140 . S
C271 O272 1.227 1_545 S
C271 O281 1.265 . S
O272 C271 1.227 1_565 S
N273 Co270 2.121 . S
N273 C275 1.375 . S
N273 C276 1.313 . S
C274 C275 1.338 . S
C274 N277 1.377 . S
C274 H294 0.930 . S
C275 N273 1.375 . S
C275 C274 1.338 . S
C275 H279 0.931 . S
C276 N273 1.313 . S
C276 N277 1.344 . S
C276 H280 0.930 . S
N277 C274 1.377 . S
N277 C276 1.344 . S
O278 Co270 2.055 . S
O278 C282 1.253 . S
H279 C275 0.931 . S
H280 C276 0.930 . S
O281 Co270 2.039 1_545 S
O281 C271 1.265 . S
C282 O278 1.253 . S
C282 O283 1.227 . S
O283 C282 1.227 . S
N284 Co270 2.140 . S
N284 C287 1.346 . S
N284 C288 1.345 . S
C285 C286 1.387 . S
C285 C289 1.391 . S
C286 C285 1.387 . S
C286 C287 1.369 . S
C286 H295 0.929 . S
C287 N284 1.346 . S
C287 C286 1.369 . S
C287 H290 0.928 . S
C288 N284 1.345 . S
C288 C289 1.371 . S
C288 H291 0.931 . S
C289 C285 1.391 . S
C289 C288 1.371 . S
C289 H296 0.930 . S
H290 C287 0.928 . S
H291 C288 0.931 . S
H292 C268 0.930 . S
H293 C265 0.930 . S
H294 C274 0.930 . S
H295 C286 0.929 . S
H296 C289 0.930 . S
C297 C298 1.351 . S
C297 N300 1.368 . S
C297 H302 0.931 . S
C298 C297 1.351 . S
C298 N299 1.373 . S
C298 H326 0.930 . S
N299 C298 1.373 . S
N299 C301 1.340 . S
N300 C297 1.368 . S
N300 C301 1.321 . S
N300 Co303 2.135 . S
C301 N299 1.340 . S
C301 N300 1.321 . S
C301 H325 0.930 . S
H302 C297 0.931 . S
Co303 N300 2.135 . S
Co303 N306 2.121 . S
Co303 O311 2.055 . S
Co303 O314 2.039 . S
Co303 N317 2.140 . S
C304 O305 1.227 . S
C304 O314 1.265 . S
O305 C304 1.227 . S
N306 Co303 2.121 . S
N306 C308 1.375 . S
N306 C309 1.313 . S
C307 C308 1.338 . S
C307 N310 1.377 . S
C307 H327 0.930 . S
C308 N306 1.375 . S
C308 C307 1.338 . S
C308 H312 0.931 . S
C309 N306 1.313 . S
C309 N310 1.344 . S
C309 H313 0.930 . S
N310 C307 1.377 . S
N310 C309 1.344 . S
O311 Co303 2.055 . S
O311 C315 1.253 . S
H312 C308 0.931 . S
H313 C309 0.930 . S
O314 Co303 2.039 . S
O314 C304 1.265 . S
C315 O311 1.253 . S
C315 O316 1.227 . S
O316 C315 1.227 . S
N317 Co303 2.140 . S
N317 C320 1.346 . S
N317 C321 1.345 . S
C318 C319 1.387 . S
C318 C322 1.391 . S
C319 C318 1.387 . S
C319 C320 1.369 . S
C319 H328 0.929 . S
C320 N317 1.346 . S
C320 C319 1.369 . S
C320 H323 0.928 . S
C321 N317 1.345 . S
C321 C322 1.371 . S
C321 H324 0.931 . S
C322 C318 1.391 . S
C322 C321 1.371 . S
C322 H329 0.930 . S
H323 C320 0.928 . S
H324 C321 0.931 . S
H325 C301 0.930 . S
H326 C298 0.930 . S
H327 C307 0.930 . S
H328 C319 0.929 . S
H329 C322 0.930 . S
C330 C331 1.351 . S
C330 N333 1.368 . S
C330 H335 0.931 . S
C331 C330 1.351 . S
C331 N332 1.373 . S
C331 H359 0.930 . S
N332 C331 1.373 . S
N332 C334 1.340 . S
N333 C330 1.368 . S
N333 C334 1.321 . S
N333 Co336 2.135 . S
C334 N332 1.340 . S
C334 N333 1.321 . S
C334 H358 0.930 . S
H335 C330 0.931 . S
Co336 N333 2.135 . S
Co336 N339 2.121 . S
Co336 O344 2.055 . S
Co336 O347 2.039 1_455 S
Co336 N350 2.140 . S
C337 O338 1.227 1_655 S
C337 O347 1.265 . S
O338 C337 1.227 1_455 S
N339 Co336 2.121 . S
N339 C341 1.375 . S
N339 C342 1.313 . S
C340 C341 1.338 . S
C340 N343 1.377 . S
C340 H360 0.930 . S
C341 N339 1.375 . S
C341 C340 1.338 . S
C341 H345 0.931 . S
C342 N339 1.313 . S
C342 N343 1.344 . S
C342 H346 0.930 . S
N343 C340 1.377 . S
N343 C342 1.344 . S
O344 Co336 2.055 . S
O344 C348 1.253 . S
H345 C341 0.931 . S
H346 C342 0.930 . S
O347 Co336 2.039 1_655 S
O347 C337 1.265 . S
C348 O344 1.253 . S
C348 O349 1.227 . S
O349 C348 1.227 . S
N350 Co336 2.140 . S
N350 C353 1.346 . S
N350 C354 1.345 . S
C351 C352 1.387 . S
C351 C355 1.391 . S
C352 C351 1.387 . S
C352 C353 1.369 . S
C352 H361 0.929 . S
C353 N350 1.346 . S
C353 C352 1.369 . S
C353 H356 0.928 . S
C354 N350 1.345 . S
C354 C355 1.371 . S
C354 H357 0.931 . S
C355 C351 1.391 . S
C355 C354 1.371 . S
C355 H362 0.930 . S
H356 C353 0.928 . S
H357 C354 0.931 . S
H358 C334 0.930 . S
H359 C331 0.930 . S
H360 C340 0.930 . S
H361 C352 0.929 . S
H362 C355 0.930 . S
C363 C364 1.351 . S
C363 N366 1.368 . S
C363 H368 0.931 . S
C364 C363 1.351 . S
C364 N365 1.373 . S
C364 H392 0.930 . S
N365 C364 1.373 . S
N365 C367 1.340 . S
N366 C363 1.368 . S
N366 C367 1.321 . S
N366 Co369 2.135 . S
C367 N365 1.340 . S
C367 N366 1.321 . S
C367 H391 0.930 . S
H368 C363 0.931 . S
Co369 N366 2.135 . S
Co369 N372 2.121 . S
Co369 O377 2.055 . S
Co369 O380 2.039 1_545 S
Co369 N383 2.140 . S
C370 O371 1.227 1_565 S
C370 O380 1.265 . S
O371 C370 1.227 1_545 S
N372 Co369 2.121 . S
N372 C374 1.375 . S
N372 C375 1.313 . S
C373 C374 1.338 . S
C373 N376 1.377 . S
C373 H393 0.930 . S
C374 N372 1.375 . S
C374 C373 1.338 . S
C374 H378 0.931 . S
C375 N372 1.313 . S
C375 N376 1.344 . S
C375 H379 0.930 . S
N376 C373 1.377 . S
N376 C375 1.344 . S
O377 Co369 2.055 . S
O377 C381 1.253 . S
H378 C374 0.931 . S
H379 C375 0.930 . S
O380 Co369 2.039 1_565 S
O380 C370 1.265 . S
C381 O377 1.253 . S
C381 O382 1.227 . S
O382 C381 1.227 . S
N383 Co369 2.140 . S
N383 C386 1.346 . S
N383 C387 1.345 . S
C384 C385 1.387 . S
C384 C388 1.391 . S
C385 C384 1.387 . S
C385 C386 1.369 . S
C385 H394 0.929 . S
C386 N383 1.346 . S
C386 C385 1.369 . S
C386 H389 0.928 . S
C387 N383 1.345 . S
C387 C388 1.371 . S
C387 H390 0.931 . S
C388 C384 1.391 . S
C388 C387 1.371 . S
C388 H395 0.930 . S
H389 C386 0.928 . S
H390 C387 0.931 . S
H391 C367 0.930 . S
H392 C364 0.930 . S
H393 C373 0.930 . S
H394 C385 0.929 . S
H395 C388 0.930 . S
H396 C404 0.950 . S
H397 C409 0.950 . S
H398 C406 0.950 . S
H399 C408 0.950 . S
H400 C410 0.950 . S
H401 C412 0.950 . S
H402 C414 0.950 . S
H403 C415 0.950 . S
C404 H396 0.950 . S
C404 C405 1.386 . S
C404 C406 1.391 . S
C405 C404 1.386 . S
C405 C409 1.393 . S
C406 H398 0.950 . S
C406 C404 1.391 . S
C406 C407 1.400 . S
C407 C406 1.400 . S
C407 C408 1.398 . S
C407 C413 1.491 . S
C408 H399 0.950 . S
C408 C407 1.398 . S
C408 C409 1.391 . S
C409 H397 0.950 . S
C409 C405 1.393 . S
C409 C408 1.391 . S
C410 H400 0.950 . S
C410 C411 1.386 . S
C410 C412 1.391 . S
C411 C410 1.386 . S
C411 C415 1.393 . S
C412 H401 0.950 . S
C412 C410 1.391 . S
C412 C413 1.400 . S
C413 C407 1.491 . S
C413 C412 1.400 . S
C413 C414 1.398 . S
C414 H402 0.950 . S
C414 C413 1.398 . S
C414 C415 1.391 . S
C415 H403 0.950 . S
C415 C411 1.393 . S
C415 C414 1.391 . S
H416 C424 0.950 . S
H417 C429 0.950 1_655 S
H418 C426 0.950 . S
H419 C428 0.950 . S
H420 C430 0.950 . S
H421 C432 0.950 . S
H422 C434 0.950 . S
H423 C435 0.950 1_455 S
C424 H416 0.950 . S
C424 C425 1.386 . S
C424 C426 1.391 . S
C425 C424 1.386 . S
C425 C429 1.393 . S
C426 H418 0.950 . S
C426 C424 1.391 . S
C426 C427 1.400 . S
C427 C426 1.400 . S
C427 C428 1.398 1_455 S
C427 C433 1.491 1_455 S
C428 H419 0.950 . S
C428 C427 1.398 1_655 S
C428 C429 1.391 1_655 S
C429 H417 0.950 1_455 S
C429 C425 1.393 . S
C429 C428 1.391 1_455 S
C430 H420 0.950 . S
C430 C431 1.386 . S
C430 C432 1.391 . S
C431 C430 1.386 . S
C431 C435 1.393 . S
C432 H421 0.950 . S
C432 C430 1.391 . S
C432 C433 1.400 . S
C433 C427 1.491 1_655 S
C433 C432 1.400 . S
C433 C434 1.398 1_655 S
C434 H422 0.950 . S
C434 C433 1.398 1_455 S
C434 C435 1.391 1_455 S
C435 H423 0.950 1_655 S
C435 C431 1.393 . S
C435 C434 1.391 1_655 S
H436 C444 0.950 . S
H437 C449 0.950 . S
H438 C446 0.950 . S
H439 C448 0.950 . S
H440 C450 0.950 . S
H441 C452 0.950 . S
H442 C454 0.950 . S
H443 C455 0.950 . S
C444 H436 0.950 . S
C444 C445 1.386 . S
C444 C446 1.391 1_545 S
C445 C444 1.386 . S
C445 C449 1.393 . S
C446 H438 0.950 . S
C446 C444 1.391 1_565 S
C446 C447 1.400 1_565 S
C447 C446 1.400 1_545 S
C447 C448 1.398 . S
C447 C453 1.491 1_545 S
C448 H439 0.950 . S
C448 C447 1.398 . S
C448 C449 1.391 . S
C449 H437 0.950 . S
C449 C445 1.393 . S
C449 C448 1.391 . S
C450 H440 0.950 . S
C450 C451 1.386 . S
C450 C452 1.391 1_565 S
C451 C450 1.386 . S
C451 C455 1.393 . S
C452 H441 0.950 . S
C452 C450 1.391 1_545 S
C452 C453 1.400 1_545 S
C453 C447 1.491 1_565 S
C453 C452 1.400 1_565 S
C453 C454 1.398 . S
C454 H442 0.950 . S
C454 C453 1.398 . S
C454 C455 1.391 . S
C455 H443 0.950 . S
C455 C451 1.393 . S
C455 C454 1.391 . S
H456 C464 0.950 . S
H457 C469 0.950 . S
H458 C466 0.950 . S
H459 C468 0.950 . S
H460 C470 0.950 . S
H461 C472 0.950 . S
H462 C474 0.950 . S
H463 C475 0.950 . S
C464 H456 0.950 . S
C464 C465 1.386 . S
C464 C466 1.391 . S
C465 C464 1.386 . S
C465 C469 1.393 . S
C466 H458 0.950 . S
C466 C464 1.391 . S
C466 C467 1.400 . S
C467 C466 1.400 . S
C467 C468 1.398 . S
C467 C473 1.491 . S
C468 H459 0.950 . S
C468 C467 1.398 . S
C468 C469 1.391 . S
C469 H457 0.950 . S
C469 C465 1.393 . S
C469 C468 1.391 . S
C470 H460 0.950 . S
C470 C471 1.386 . S
C470 C472 1.391 . S
C471 C470 1.386 . S
C471 C475 1.393 . S
C472 H461 0.950 . S
C472 C470 1.391 . S
C472 C473 1.400 . S
C473 C467 1.491 . S
C473 C472 1.400 . S
C473 C474 1.398 . S
C474 H462 0.950 . S
C474 C473 1.398 . S
C474 C475 1.391 . S
C475 H463 0.950 . S
C475 C471 1.393 . S
C475 C474 1.391 . S
H476 C484 0.950 . S
H477 C489 0.950 . S
H478 C486 0.950 . S
H479 C488 0.950 . S
H480 C490 0.950 . S
H481 C492 0.950 . S
H482 C494 0.950 . S
H483 C495 0.950 . S
C484 H476 0.950 . S
C484 C485 1.386 . S
C484 C486 1.391 . S
C485 C484 1.386 . S
C485 C489 1.393 . S
C486 H478 0.950 . S
C486 C484 1.391 . S
C486 C487 1.400 . S
C487 C486 1.400 . S
C487 C488 1.398 . S
C487 C493 1.491 1_655 S
C488 H479 0.950 . S
C488 C487 1.398 . S
C488 C489 1.391 . S
C489 H477 0.950 . S
C489 C485 1.393 . S
C489 C488 1.391 . S
C490 H480 0.950 . S
C490 C491 1.386 . S
C490 C492 1.391 . S
C491 C490 1.386 . S
C491 C495 1.393 . S
C492 H481 0.950 . S
C492 C490 1.391 . S
C492 C493 1.400 . S
C493 C487 1.491 1_455 S
C493 C492 1.400 . S
C493 C494 1.398 . S
C494 H482 0.950 . S
C494 C493 1.398 . S
C494 C495 1.391 . S
C495 H483 0.950 . S
C495 C491 1.393 . S
C495 C494 1.391 . S
H496 C504 0.950 . S
H497 C509 0.950 . S
H498 C506 0.950 1_545 S
H499 C508 0.950 . S
H500 C510 0.950 . S
H501 C512 0.950 1_565 S
H502 C514 0.950 . S
H503 C515 0.950 . S
C504 H496 0.950 . S
C504 C505 1.386 . S
C504 C506 1.391 . S
C505 C504 1.386 . S
C505 C509 1.393 . S
C506 H498 0.950 1_565 S
C506 C504 1.391 . S
C506 C507 1.400 . S
C507 C506 1.400 . S
C507 C508 1.398 . S
C507 C513 1.491 1_565 S
C508 H499 0.950 . S
C508 C507 1.398 . S
C508 C509 1.391 . S
C509 H497 0.950 . S
C509 C505 1.393 . S
C509 C508 1.391 . S
C510 H500 0.950 . S
C510 C511 1.386 . S
C510 C512 1.391 . S
C511 C510 1.386 . S
C511 C515 1.393 . S
C512 H501 0.950 1_545 S
C512 C510 1.391 . S
C512 C513 1.400 . S
C513 C507 1.491 1_545 S
C513 C512 1.400 . S
C513 C514 1.398 . S
C514 H502 0.950 . S
C514 C513 1.398 . S
C514 C515 1.391 . S
C515 H503 0.950 . S
C515 C511 1.393 . S
C515 C514 1.391 . S
H516 C524 0.950 . S
H517 C529 0.950 . S
H518 C526 0.950 . S
H519 C528 0.950 . S
H520 C530 0.950 . S
H521 C532 0.950 . S
H522 C534 0.950 . S
H523 C535 0.950 . S
C524 H516 0.950 . S
C524 C525 1.386 . S
C524 C526 1.391 . S
C525 C524 1.386 . S
C525 C529 1.393 . S
C526 H518 0.950 . S
C526 C524 1.391 . S
C526 C527 1.400 . S
C527 C526 1.400 . S
C527 C528 1.398 . S
C527 C533 1.491 . S
C528 H519 0.950 . S
C528 C527 1.398 . S
C528 C529 1.391 . S
C529 H517 0.950 . S
C529 C525 1.393 . S
C529 C528 1.391 . S
C530 H520 0.950 . S
C530 C531 1.386 . S
C530 C532 1.391 . S
C531 C530 1.386 . S
C531 C535 1.393 . S
C532 H521 0.950 . S
C532 C530 1.391 . S
C532 C533 1.400 . S
C533 C527 1.491 . S
C533 C532 1.400 . S
C533 C534 1.398 . S
C534 H522 0.950 . S
C534 C533 1.398 . S
C534 C535 1.391 . S
C535 H523 0.950 . S
C535 C531 1.393 . S
C535 C534 1.391 . S
H536 C544 0.950 1_455 S
H537 C549 0.950 . S
H538 C546 0.950 . S
H539 C548 0.950 . S
H540 C550 0.950 1_655 S
H541 C552 0.950 . S
H542 C554 0.950 . S
H543 C555 0.950 . S
C544 H536 0.950 1_655 S
C544 C545 1.386 . S
C544 C546 1.391 1_655 S
C545 C544 1.386 . S
C545 C549 1.393 . S
C546 H538 0.950 . S
C546 C544 1.391 1_455 S
C546 C547 1.400 1_455 S
C547 C546 1.400 1_655 S
C547 C548 1.398 . S
C547 C553 1.491 1_655 S
C548 H539 0.950 . S
C548 C547 1.398 . S
C548 C549 1.391 . S
C549 H537 0.950 . S
C549 C545 1.393 . S
C549 C548 1.391 . S
C550 H540 0.950 1_455 S
C550 C551 1.386 . S
C550 C552 1.391 1_455 S
C551 C550 1.386 . S
C551 C555 1.393 . S
C552 H541 0.950 . S
C552 C550 1.391 1_655 S
C552 C553 1.400 1_655 S
C553 C547 1.491 1_455 S
C553 C552 1.400 1_455 S
C553 C554 1.398 . S
C554 H542 0.950 . S
C554 C553 1.398 . S
C554 C555 1.391 . S
C555 H543 0.950 . S
C555 C551 1.393 . S
C555 C554 1.391 . S
H556 C564 0.950 1_565 S
H557 C569 0.950 . S
H558 C566 0.950 . S
H559 C568 0.950 . S
H560 C570 0.950 1_545 S
H561 C572 0.950 . S
H562 C574 0.950 . S
H563 C575 0.950 . S
C564 H556 0.950 1_545 S
C564 C565 1.386 . S
C564 C566 1.391 1_545 S
C565 C564 1.386 . S
C565 C569 1.393 . S
C566 H558 0.950 . S
C566 C564 1.391 1_565 S
C566 C567 1.400 1_565 S
C567 C566 1.400 1_545 S
C567 C568 1.398 . S
C567 C573 1.491 1_544 S
C568 H559 0.950 . S
C568 C567 1.398 . S
C568 C569 1.391 . S
C569 H557 0.950 . S
C569 C565 1.393 . S
C569 C568 1.391 . S
C570 H560 0.950 1_565 S
C570 C571 1.386 . S
C570 C572 1.391 1_565 S
C571 C570 1.386 . S
C571 C575 1.393 . S
C572 H561 0.950 . S
C572 C570 1.391 1_545 S
C572 C573 1.400 1_545 S
C573 C567 1.491 1_566 S
C573 C572 1.400 1_565 S
C573 C574 1.398 . S
C574 H562 0.950 . S
C574 C573 1.398 . S
C574 C575 1.391 . S
C575 H563 0.950 . S
C575 C571 1.393 . S
C575 C574 1.391 . S
H576 C584 0.950 . S
H577 C589 0.950 . S
H578 C586 0.950 . S
H579 C588 0.950 . S
H580 C590 0.950 . S
H581 C592 0.950 . S
H582 C594 0.950 . S
H583 C595 0.950 . S
C584 H576 0.950 . S
C584 C585 1.386 . S
C584 C586 1.391 . S
C585 C584 1.386 . S
C585 C589 1.393 . S
C586 H578 0.950 . S
C586 C584 1.391 . S
C586 C587 1.400 . S
C587 C586 1.400 . S
C587 C588 1.398 . S
C587 C593 1.491 . S
C588 H579 0.950 . S
C588 C587 1.398 . S
C588 C589 1.391 . S
C589 H577 0.950 . S
C589 C585 1.393 . S
C589 C588 1.391 . S
C590 H580 0.950 . S
C590 C591 1.386 . S
C590 C592 1.391 . S
C591 C590 1.386 . S
C591 C595 1.393 . S
C592 H581 0.950 . S
C592 C590 1.391 . S
C592 C593 1.400 . S
C593 C587 1.491 . S
C593 C592 1.400 . S
C593 C594 1.398 . S
C594 H582 0.950 . S
C594 C593 1.398 . S
C594 C595 1.391 . S
C595 H583 0.950 . S
C595 C591 1.393 . S
C595 C594 1.391 . S
H596 C604 0.950 1_655 S
H597 C609 0.950 . S
H598 C606 0.950 . S
H599 C608 0.950 . S
H600 C610 0.950 1_455 S
H601 C612 0.950 . S
H602 C614 0.950 . S
H603 C615 0.950 . S
C604 H596 0.950 1_455 S
C604 C605 1.386 . S
C604 C606 1.391 1_455 S
C605 C604 1.386 . S
C605 C609 1.393 . S
C606 H598 0.950 . S
C606 C604 1.391 1_655 S
C606 C607 1.400 1_655 S
C607 C606 1.400 1_455 S
C607 C608 1.398 . S
C607 C613 1.491 1_455 S
C608 H599 0.950 . S
C608 C607 1.398 . S
C608 C609 1.391 . S
C609 H597 0.950 . S
C609 C605 1.393 . S
C609 C608 1.391 . S
C610 H600 0.950 1_655 S
C610 C611 1.386 . S
C610 C612 1.391 1_655 S
C611 C610 1.386 . S
C611 C615 1.393 . S
C612 H601 0.950 . S
C612 C610 1.391 1_455 S
C612 C613 1.400 1_455 S
C613 C607 1.491 1_655 S
C613 C612 1.400 1_655 S
C613 C614 1.398 . S
C614 H602 0.950 . S
C614 C613 1.398 . S
C614 C615 1.391 . S
C615 H603 0.950 . S
C615 C611 1.393 . S
C615 C614 1.391 . S
H616 C624 0.950 . S
H617 C629 0.950 . S
H618 C626 0.950 . S
H619 C628 0.937 1_565 S
H620 C630 0.950 . S
H621 C632 0.950 . S
H622 C634 0.937 1_545 S
H623 C635 0.950 . S
C624 H616 0.950 . S
C624 C625 1.386 . S
C624 C626 1.391 . S
C625 C624 1.386 . S
C625 C629 1.393 . S
C626 H618 0.950 . S
C626 C624 1.391 . S
C626 C627 1.400 . S
C627 C626 1.400 . S
C627 C628 1.398 . S
C627 C633 1.491 1_546 S
C628 H619 0.937 1_545 S
C628 C627 1.398 . S
C628 C629 1.391 . S
C629 H617 0.950 . S
C629 C625 1.393 . S
C629 C628 1.391 . S
C630 H620 0.950 . S
C630 C631 1.386 . S
C630 C632 1.391 . S
C631 C630 1.386 . S
C631 C635 1.393 . S
C632 H621 0.950 . S
C632 C630 1.391 . S
C632 C633 1.400 . S
C633 C627 1.491 1_564 S
C633 C632 1.400 . S
C633 C634 1.398 . S
C634 H622 0.937 1_565 S
C634 C633 1.398 . S
C634 C635 1.391 . S
C635 H623 0.950 . S
C635 C631 1.393 . S
C635 C634 1.391 . S
H636 C644 0.950 . S
H637 C649 0.950 . S
H638 C646 0.950 1_655 S
H639 C648 0.950 . S
H640 C650 0.950 . S
H641 C652 0.950 1_455 S
H642 C654 0.950 . S
H643 C655 0.950 . S
C644 H636 0.950 . S
C644 C645 1.386 . S
C644 C646 1.391 . S
C645 C644 1.386 . S
C645 C649 1.393 . S
C646 H638 0.950 1_455 S
C646 C644 1.391 . S
C646 C647 1.400 . S
C647 C646 1.400 . S
C647 C648 1.398 . S
C647 C653 1.491 1_445 S
C648 H639 0.950 . S
C648 C647 1.398 . S
C648 C649 1.391 . S
C649 H637 0.950 . S
C649 C645 1.393 . S
C649 C648 1.391 . S
C650 H640 0.950 . S
C650 C651 1.386 . S
C650 C652 1.391 . S
C651 C650 1.386 . S
C651 C655 1.393 . S
C652 H641 0.950 1_655 S
C652 C650 1.391 . S
C652 C653 1.400 . S
C653 C647 1.491 1_665 S
C653 C652 1.400 . S
C653 C654 1.398 . S
C654 H642 0.950 . S
C654 C653 1.398 . S
C654 C655 1.391 . S
C655 H643 0.950 . S
C655 C651 1.393 . S
C655 C654 1.391 . S
H656 C664 0.950 . S
H657 C669 0.950 . S
H658 C666 0.950 1_565 S
H659 C668 0.950 . S
H660 C670 0.950 . S
H661 C672 0.950 1_545 S
H662 C674 0.950 . S
H663 C675 0.950 . S
C664 H656 0.950 . S
C664 C665 1.386 . S
C664 C666 1.391 . S
C665 C664 1.386 . S
C665 C669 1.393 1_655 S
C666 H658 0.950 1_545 S
C666 C664 1.391 . S
C666 C667 1.400 . S
C667 C666 1.400 . S
C667 C668 1.398 1_655 S
C667 C673 1.491 1_645 S
C668 H659 0.950 . S
C668 C667 1.398 1_455 S
C668 C669 1.391 . S
C669 H657 0.950 . S
C669 C665 1.393 1_455 S
C669 C668 1.391 . S
C670 H660 0.950 . S
C670 C671 1.386 . S
C670 C672 1.391 . S
C671 C670 1.386 . S
C671 C675 1.393 1_455 S
C672 H661 0.950 1_565 S
C672 C670 1.391 . S
C672 C673 1.400 . S
C673 C667 1.491 1_465 S
C673 C672 1.400 . S
C673 C674 1.398 1_455 S
C674 H662 0.950 . S
C674 C673 1.398 1_655 S
C674 C675 1.391 . S
C675 H663 0.950 . S
C675 C671 1.393 1_655 S
C675 C674 1.391 . S
H676 C684 0.950 . S
H677 C689 0.950 . S
H678 C686 0.950 . S
H679 C688 0.950 . S
H680 C690 0.950 . S
H681 C692 0.950 . S
H682 C694 0.950 . S
H683 C695 0.950 . S
C684 H676 0.950 . S
C684 C685 1.386 1_565 S
C684 C686 1.391 . S
C685 C684 1.386 1_545 S
C685 C689 1.393 . S
C686 H678 0.950 . S
C686 C684 1.391 . S
C686 C687 1.400 1_565 S
C687 C686 1.400 1_545 S
C687 C688 1.398 . S
C687 C693 1.491 1_445 S
C688 H679 0.950 . S
C688 C687 1.398 . S
C688 C689 1.391 . S
C689 H677 0.950 . S
C689 C685 1.393 . S
C689 C688 1.391 . S
C690 H680 0.950 . S
C690 C691 1.386 1_545 S
C690 C692 1.391 . S
C691 C690 1.386 1_565 S
C691 C695 1.393 . S
C692 H681 0.950 . S
C692 C690 1.391 . S
C692 C693 1.400 1_545 S
C693 C687 1.491 1_665 S
C693 C692 1.400 1_565 S
C693 C694 1.398 . S
C694 H682 0.950 . S
C694 C693 1.398 . S
C694 C695 1.391 . S
C695 H683 0.950 . S
C695 C691 1.393 . S
C695 C694 1.391 . S
H696 C704 0.950 . S
H697 C709 0.950 . S
H698 C706 0.950 1_545 S
H699 C708 0.950 . S
H700 C710 0.950 . S
H701 C712 0.950 1_565 S
H702 C714 0.950 . S
H703 C715 0.950 . S
C704 H696 0.950 . S
C704 C705 1.386 . S
C704 C706 1.391 . S
C705 C704 1.386 . S
C705 C709 1.393 . S
C706 H698 0.950 1_565 S
C706 C704 1.391 . S
C706 C707 1.400 . S
C707 C706 1.400 . S
C707 C708 1.398 . S
C707 C713 1.491 1_665 S
C708 H699 0.950 . S
C708 C707 1.398 . S
C708 C709 1.391 . S
C709 H697 0.950 . S
C709 C705 1.393 . S
C709 C708 1.391 . S
C710 H700 0.950 . S
C710 C711 1.386 . S
C710 C712 1.391 . S
C711 C710 1.386 . S
C711 C715 1.393 . S
C712 H701 0.950 1_545 S
C712 C710 1.391 . S
C712 C713 1.400 . S
C713 C707 1.491 1_445 S
C713 C712 1.400 . S
C713 C714 1.398 . S
C714 H702 0.950 . S
C714 C713 1.398 . S
C714 C715 1.391 . S
C715 H703 0.950 . S
C715 C711 1.393 . S
C715 C714 1.391 . S
H716 C724 0.950 1_455 S
H717 C729 0.950 . S
H718 C726 0.950 . S
H719 C728 0.950 . S
H720 C730 0.950 1_655 S
H721 C732 0.950 . S
H722 C734 0.950 . S
H723 C735 0.950 . S
C724 H716 0.950 1_655 S
C724 C725 1.386 . S
C724 C726 1.391 1_655 S
C725 C724 1.386 . S
C725 C729 1.393 . S
C726 H718 0.950 . S
C726 C724 1.391 1_455 S
C726 C727 1.400 1_455 S
C727 C726 1.400 1_655 S
C727 C728 1.398 . S
C727 C733 1.491 1_665 S
C728 H719 0.950 . S
C728 C727 1.398 . S
C728 C729 1.391 . S
C729 H717 0.950 . S
C729 C725 1.393 . S
C729 C728 1.391 . S
C730 H720 0.950 1_455 S
C730 C731 1.386 . S
C730 C732 1.391 1_455 S
C731 C730 1.386 . S
C731 C735 1.393 . S
C732 H721 0.950 . S
C732 C730 1.391 1_655 S
C732 C733 1.400 1_655 S
C733 C727 1.491 1_445 S
C733 C732 1.400 1_455 S
C733 C734 1.398 . S
C734 H722 0.950 . S
C734 C733 1.398 . S
C734 C735 1.391 . S
C735 H723 0.950 . S
C735 C731 1.393 . S
C735 C734 1.391 . S
H736 C744 0.950 . S
H737 C749 0.950 . S
H738 C746 0.952 . S
H739 C748 0.950 1_455 S
H740 C750 0.950 . S
H741 C752 0.952 . S
H742 C754 0.950 1_655 S
H743 C755 0.950 . S
C744 H736 0.950 . S
C744 C745 1.386 . S
C744 C746 1.389 1_545 S
C745 C744 1.386 . S
C745 C749 1.393 . S
C746 H738 0.952 . S
C746 C744 1.389 1_565 S
C746 C747 1.401 1_565 S
C747 C746 1.401 1_545 S
C747 C748 1.398 . S
C747 C753 1.491 1_645 S
C748 H739 0.950 1_655 S
C748 C747 1.398 . S
C748 C749 1.391 . S
C749 H737 0.950 . S
C749 C745 1.393 . S
C749 C748 1.391 . S
C750 H740 0.950 . S
C750 C751 1.386 . S
C750 C752 1.389 1_565 S
C751 C750 1.386 . S
C751 C755 1.393 . S
C752 H741 0.952 . S
C752 C750 1.389 1_545 S
C752 C753 1.401 1_545 S
C753 C747 1.491 1_465 S
C753 C752 1.401 1_565 S
C753 C754 1.398 . S
C754 H742 0.950 1_455 S
C754 C753 1.398 . S
C754 C755 1.391 . S
C755 H743 0.950 . S
C755 C751 1.393 . S
C755 C754 1.391 . S
H756 C764 0.950 . S
H757 C769 0.950 . S
H758 C766 0.950 1_455 S
H759 C768 0.950 . S
H760 C770 0.950 . S
H761 C772 0.950 1_655 S
H762 C774 0.950 . S
H763 C775 0.950 . S
C764 H756 0.950 . S
C764 C765 1.386 . S
C764 C766 1.391 . S
C765 C764 1.386 . S
C765 C769 1.393 . S
C766 H758 0.950 1_655 S
C766 C764 1.391 . S
C766 C767 1.400 . S
C767 C766 1.400 . S
C767 C768 1.398 . S
C767 C773 1.491 1_655 S
C768 H759 0.950 . S
C768 C767 1.398 . S
C768 C769 1.391 . S
C769 H757 0.950 . S
C769 C765 1.393 . S
C769 C768 1.391 . S
C770 H760 0.950 . S
C770 C771 1.386 . S
C770 C772 1.391 . S
C771 C770 1.386 . S
C771 C775 1.393 . S
C772 H761 0.950 1_455 S
C772 C770 1.391 . S
C772 C773 1.400 . S
C773 C767 1.491 1_455 S
C773 C772 1.400 . S
C773 C774 1.398 . S
C774 H762 0.950 . S
C774 C773 1.398 . S
C774 C775 1.391 . S
C775 H763 0.950 . S
C775 C771 1.393 . S
C775 C774 1.391 . S
H776 C784 0.950 . S
H777 C789 0.950 . S
H778 C786 0.950 . S
H779 C788 0.926 1_565 S
H780 C790 0.950 . S
H781 C792 0.950 . S
H782 C794 0.927 1_545 S
H783 C795 0.950 . S
C784 H776 0.950 . S
C784 C785 1.386 . S
C784 C786 1.391 . S
C785 C784 1.386 . S
C785 C789 1.393 . S
C786 H778 0.950 . S
C786 C784 1.391 . S
C786 C787 1.400 . S
C787 C786 1.400 . S
C787 C788 1.398 . S
C787 C793 1.491 1_545 S
C788 H779 0.926 1_545 S
C788 C787 1.398 . S
C788 C789 1.391 . S
C789 H777 0.950 . S
C789 C785 1.393 . S
C789 C788 1.391 . S
C790 H780 0.950 . S
C790 C791 1.386 . S
C790 C792 1.391 . S
C791 C790 1.386 . S
C791 C795 1.393 . S
C792 H781 0.950 . S
C792 C790 1.391 . S
C792 C793 1.400 . S
C793 C787 1.491 1_565 S
C793 C792 1.400 . S
C793 C794 1.398 . S
C794 H782 0.927 1_565 S
C794 C793 1.398 . S
C794 C795 1.391 . S
C795 H783 0.950 . S
C795 C791 1.393 . S
C795 C794 1.391 . S
H796 C804 0.950 . S
H797 C809 0.950 . S
H798 C806 0.950 . S
H799 C808 0.950 . S
H800 C810 0.950 . S
H801 C812 0.950 . S
H802 C814 0.950 . S
H803 C815 0.950 . S
C804 H796 0.950 . S
C804 C805 1.386 . S
C804 C806 1.391 . S
C805 C804 1.386 . S
C805 C809 1.393 . S
C806 H798 0.950 . S
C806 C804 1.391 . S
C806 C807 1.400 . S
C807 C806 1.400 . S
C807 C808 1.398 . S
C807 C813 1.491 . S
C808 H799 0.950 . S
C808 C807 1.398 . S
C808 C809 1.391 . S
C809 H797 0.950 . S
C809 C805 1.393 . S
C809 C808 1.391 . S
C810 H800 0.950 . S
C810 C811 1.386 . S
C810 C812 1.391 . S
C811 C810 1.386 . S
C811 C815 1.393 . S
C812 H801 0.950 . S
C812 C810 1.391 . S
C812 C813 1.400 . S
C813 C807 1.491 . S
C813 C812 1.400 . S
C813 C814 1.398 . S
C814 H802 0.950 . S
C814 C813 1.398 . S
C814 C815 1.391 . S
C815 H803 0.950 . S
C815 C811 1.393 . S
C815 C814 1.391 . S
H816 C824 0.950 . S
H817 C829 0.950 . S
H818 C826 0.950 1_655 S
H819 C828 0.950 . S
H820 C830 0.950 . S
H821 C832 0.950 1_455 S
H822 C834 0.950 . S
H823 C835 0.950 . S
C824 H816 0.950 . S
C824 C825 1.386 . S
C824 C826 1.391 . S
C825 C824 1.386 . S
C825 C829 1.393 . S
C826 H818 0.950 1_455 S
C826 C824 1.391 . S
C826 C827 1.400 . S
C827 C826 1.400 . S
C827 C828 1.398 . S
C827 C833 1.491 1_455 S
C828 H819 0.950 . S
C828 C827 1.398 . S
C828 C829 1.391 . S
C829 H817 0.950 . S
C829 C825 1.393 . S
C829 C828 1.391 . S
C830 H820 0.950 . S
C830 C831 1.386 . S
C830 C832 1.391 . S
C831 C830 1.386 . S
C831 C835 1.393 . S
C832 H821 0.950 1_655 S
C832 C830 1.391 . S
C832 C833 1.400 . S
C833 C827 1.491 1_655 S
C833 C832 1.400 . S
C833 C834 1.398 . S
C834 H822 0.950 . S
C834 C833 1.398 . S
C834 C835 1.391 . S
C835 H823 0.950 . S
C835 C831 1.393 . S
C835 C834 1.391 . S
H836 C844 0.950 . S
H837 C849 0.950 . S
H838 C846 0.950 . S
H839 C848 0.950 1_545 S
H840 C850 0.950 . S
H841 C852 0.950 . S
H842 C854 0.950 1_565 S
H843 C855 0.950 . S
C844 H836 0.950 . S
C844 C845 1.386 . S
C844 C846 1.391 . S
C845 C844 1.386 . S
C845 C849 1.393 . S
C846 H838 0.950 . S
C846 C844 1.391 . S
C846 C847 1.400 . S
C847 C846 1.400 . S
C847 C848 1.398 . S
C847 C853 1.491 1_565 S
C848 H839 0.950 1_565 S
C848 C847 1.398 . S
C848 C849 1.391 . S
C849 H837 0.950 . S
C849 C845 1.393 . S
C849 C848 1.391 . S
C850 H840 0.950 . S
C850 C851 1.386 . S
C850 C852 1.391 . S
C851 C850 1.386 . S
C851 C855 1.393 . S
C852 H841 0.950 . S
C852 C850 1.391 . S
C852 C853 1.400 . S
C853 C847 1.491 1_545 S
C853 C852 1.400 . S
C853 C854 1.398 . S
C854 H842 0.950 1_545 S
C854 C853 1.398 . S
C854 C855 1.391 . S
C855 H843 0.950 . S
C855 C851 1.393 . S
C855 C854 1.391 . S
H856 C864 0.950 . S
H857 C869 0.950 . S
H858 C866 0.950 . S
H859 C868 0.950 . S
H860 C870 0.950 . S
H861 C872 0.950 . S
H862 C874 0.950 . S
H863 C875 0.950 . S
C864 H856 0.950 . S
C864 C865 1.386 . S
C864 C866 1.391 . S
C865 C864 1.386 . S
C865 C869 1.393 . S
C866 H858 0.950 . S
C866 C864 1.391 . S
C866 C867 1.400 . S
C867 C866 1.400 . S
C867 C868 1.398 . S
C867 C873 1.491 . S
C868 H859 0.950 . S
C868 C867 1.398 . S
C868 C869 1.391 . S
C869 H857 0.950 . S
C869 C865 1.393 . S
C869 C868 1.391 . S
C870 H860 0.950 . S
C870 C871 1.386 . S
C870 C872 1.391 . S
C871 C870 1.386 . S
C871 C875 1.393 . S
C872 H861 0.950 . S
C872 C870 1.391 . S
C872 C873 1.400 . S
C873 C867 1.491 . S
C873 C872 1.400 . S
C873 C874 1.398 . S
C874 H862 0.950 . S
C874 C873 1.398 . S
C874 C875 1.391 . S
C875 H863 0.950 . S
C875 C871 1.393 . S
C875 C874 1.391 . S
H876 C884 0.950 . S
H877 C889 0.950 . S
H878 C886 0.950 . S
H879 C888 0.950 . S
H880 C890 0.950 . S
H881 C892 0.950 . S
H882 C894 0.950 . S
H883 C895 0.950 . S
C884 H876 0.950 . S
C884 C885 1.386 . S
C884 C886 1.391 . S
C885 C884 1.386 . S
C885 C889 1.393 . S
C886 H878 0.950 . S
C886 C884 1.391 . S
C886 C887 1.400 . S
C887 C886 1.400 . S
C887 C888 1.398 . S
C887 C893 1.491 . S
C888 H879 0.950 . S
C888 C887 1.398 . S
C888 C889 1.391 . S
C889 H877 0.950 . S
C889 C885 1.393 . S
C889 C888 1.391 . S
C890 H880 0.950 . S
C890 C891 1.386 . S
C890 C892 1.391 . S
C891 C890 1.386 . S
C891 C895 1.393 . S
C892 H881 0.950 . S
C892 C890 1.391 . S
C892 C893 1.400 . S
C893 C887 1.491 . S
C893 C892 1.400 . S
C893 C894 1.398 . S
C894 H882 0.950 . S
C894 C893 1.398 . S
C894 C895 1.391 . S
C895 H883 0.950 . S
C895 C891 1.393 . S
C895 C894 1.391 . S
H896 C904 0.950 . S
H897 C909 0.950 . S
H898 C906 0.950 . S
H899 C908 0.950 . S
H900 C910 0.950 . S
H901 C912 0.950 . S
H902 C914 0.950 . S
H903 C915 0.950 . S
C904 H896 0.950 . S
C904 C905 1.386 . S
C904 C906 1.391 . S
C905 C904 1.386 . S
C905 C909 1.393 . S
C906 H898 0.950 . S
C906 C904 1.391 . S
C906 C907 1.400 . S
C907 C906 1.400 . S
C907 C908 1.398 . S
C907 C913 1.491 . S
C908 H899 0.950 . S
C908 C907 1.398 . S
C908 C909 1.391 . S
C909 H897 0.950 . S
C909 C905 1.393 . S
C909 C908 1.391 . S
C910 H900 0.950 . S
C910 C911 1.386 . S
C910 C912 1.391 . S
C911 C910 1.386 . S
C911 C915 1.393 . S
C912 H901 0.950 . S
C912 C910 1.391 . S
C912 C913 1.400 . S
C913 C907 1.491 . S
C913 C912 1.400 . S
C913 C914 1.398 . S
C914 H902 0.950 . S
C914 C913 1.398 . S
C914 C915 1.391 . S
C915 H903 0.950 . S
C915 C911 1.393 . S
C915 C914 1.391 . S
H916 C924 0.950 . S
H917 C929 0.950 . S
H918 C926 0.950 . S
H919 C928 0.950 . S
H920 C930 0.950 1_565 S
H921 C932 0.950 . S
H922 C934 0.950 . S
H923 C935 0.950 . S
C924 H916 0.950 . S
C924 C925 1.386 . S
C924 C926 1.391 . S
C925 C924 1.386 . S
C925 C929 1.393 . S
C926 H918 0.950 . S
C926 C924 1.391 . S
C926 C927 1.400 . S
C927 C926 1.400 . S
C927 C928 1.398 . S
C927 C933 1.491 . S
C928 H919 0.950 . S
C928 C927 1.398 . S
C928 C929 1.391 . S
C929 H917 0.950 . S
C929 C925 1.393 . S
C929 C928 1.391 . S
C930 H920 0.950 1_545 S
C930 C931 1.386 . S
C930 C932 1.391 . S
C931 C930 1.386 . S
C931 C935 1.393 . S
C932 H921 0.950 . S
C932 C930 1.391 . S
C932 C933 1.400 . S
C933 C927 1.491 . S
C933 C932 1.400 . S
C933 C934 1.398 . S
C934 H922 0.950 . S
C934 C933 1.398 . S
C934 C935 1.391 . S
C935 H923 0.950 . S
C935 C931 1.393 . S
C935 C934 1.391 . S
H936 C944 0.950 . S
H937 C949 0.950 . S
H938 C946 0.950 . S
H939 C948 0.950 . S
H940 C950 0.950 . S
H941 C952 0.950 . S
H942 C954 0.950 . S
H943 C955 0.950 . S
C944 H936 0.950 . S
C944 C945 1.386 . S
C944 C946 1.391 . S
C945 C944 1.386 . S
C945 C949 1.393 . S
C946 H938 0.950 . S
C946 C944 1.391 . S
C946 C947 1.400 . S
C947 C946 1.400 . S
C947 C948 1.398 . S
C947 C953 1.491 . S
C948 H939 0.950 . S
C948 C947 1.398 . S
C948 C949 1.391 . S
C949 H937 0.950 . S
C949 C945 1.393 . S
C949 C948 1.391 . S
C950 H940 0.950 . S
C950 C951 1.386 . S
C950 C952 1.391 . S
C951 C950 1.386 . S
C951 C955 1.393 . S
C952 H941 0.950 . S
C952 C950 1.391 . S
C952 C953 1.400 . S
C953 C947 1.491 . S
C953 C952 1.400 . S
C953 C954 1.398 . S
C954 H942 0.950 . S
C954 C953 1.398 . S
C954 C955 1.391 . S
C955 H943 0.950 . S
C955 C951 1.393 . S
C955 C954 1.391 . S
H956 C964 0.950 . S
H957 C969 0.950 . S
H958 C966 0.950 . S
H959 C968 0.950 . S
H960 C970 0.950 . S
H961 C972 0.950 . S
H962 C974 0.950 . S
H963 C975 0.950 1_455 S
C964 H956 0.950 . S
C964 C965 1.386 . S
C964 C966 1.391 . S
C965 C964 1.386 . S
C965 C969 1.393 . S
C966 H958 0.950 . S
C966 C964 1.391 . S
C966 C967 1.400 . S
C967 C966 1.400 . S
C967 C968 1.398 . S
C967 C973 1.491 . S
C968 H959 0.950 . S
C968 C967 1.398 . S
C968 C969 1.391 . S
C969 H957 0.950 . S
C969 C965 1.393 . S
C969 C968 1.391 . S
C970 H960 0.950 . S
C970 C971 1.386 . S
C970 C972 1.391 . S
C971 C970 1.386 . S
C971 C975 1.393 . S
C972 H961 0.950 . S
C972 C970 1.391 . S
C972 C973 1.400 . S
C973 C967 1.491 . S
C973 C972 1.400 . S
C973 C974 1.398 . S
C974 H962 0.950 . S
C974 C973 1.398 . S
C974 C975 1.391 . S
C975 H963 0.950 1_655 S
C975 C971 1.393 . S
C975 C974 1.391 . S
H976 C984 0.950 1_545 S
H977 C989 0.950 . S
H978 C986 0.950 . S
H979 C988 0.950 . S
H980 C990 0.950 . S
H981 C992 0.950 . S
H982 C994 0.950 . S
H983 C995 0.950 . S
C984 H976 0.950 1_565 S
C984 C985 1.386 . S
C984 C986 1.391 . S
C985 C984 1.386 . S
C985 C989 1.393 . S
C986 H978 0.950 . S
C986 C984 1.391 . S
C986 C987 1.400 . S
C987 C986 1.400 . S
C987 C988 1.398 . S
C987 C993 1.491 . S
C988 H979 0.950 . S
C988 C987 1.398 . S
C988 C989 1.391 . S
C989 H977 0.950 . S
C989 C985 1.393 . S
C989 C988 1.391 . S
C990 H980 0.950 . S
C990 C991 1.386 . S
C990 C992 1.391 . S
C991 C990 1.386 . S
C991 C995 1.393 . S
C992 H981 0.950 . S
C992 C990 1.391 . S
C992 C993 1.400 . S
C993 C987 1.491 . S
C993 C992 1.400 . S
C993 C994 1.398 . S
C994 H982 0.950 . S
C994 C993 1.398 . S
C994 C995 1.391 . S
C995 H983 0.950 . S
C995 C991 1.393 . S
C995 C994 1.391 . S
C405 N112 1.435 . S
C411 N13 1.424 . S
C425 N145 1.440 . S
C431 N46 1.426 . S
C445 N178 1.444 . S
C451 N79 1.457 . S
C465 N211 1.436 . S
C471 N310 1.424 . S
C485 N244 1.424 . S
C491 N343 1.429 . S
C505 N277 1.452 . S
C511 N376 1.459 . S
C525 C315 1.852 . S
C531 C18 1.853 . S
C545 C51 1.848 . S
C551 C348 1.840 . S
C565 C381 1.854 . S
C571 C84 1.847 . S
C585 C216 1.849 . S
C591 C117 1.854 . S
C605 C150 1.846 . S
C611 C249 1.840 . S
C625 C183 1.840 . S
C631 C282 1.841 . S
C645 N2 0.533 . S
C651 N101 0.487 . S
C665 N35 0.532 . S
C671 N134 0.487 . S
C685 N167 0.497 . S
C691 N68 0.535 . S
C705 N200 0.524 . S
C711 N299 0.491 . S
C725 N233 0.489 . S
C731 N332 0.527 . S
C745 N365 0.510 . S
C751 N266 0.526 . S
C765 C384 0.889 . S
C771 C21 0.842 . S
C785 C54 0.842 . S
C791 C219 0.889 . S
C805 C252 0.859 . S
C811 C87 0.872 . S
C825 C285 0.892 . S
C831 C120 0.838 . S
C845 C153 0.836 . S
C851 C318 0.894 . S
C865 C186 0.839 . S
C871 C351 0.891 . S
C885 C7 0.945 . S
C891 C271 0.930 . S
C905 C40 0.945 . S
C911 C304 0.923 . S
C925 C337 0.945 . S
C931 C73 0.923 . S
C945 C106 0.947 . S
C951 C370 0.927 . S
C965 C205 0.920 . S
C971 C139 0.953 . S
C985 C172 0.952 . S
C991 C238 0.922 . S
