# Generated by pormake.
# Topology wge, (5)-cn, num edge types: 1
# Building blocks:
#     Node 0, Type 0, BuildingBlock: BEQFEK_clean_sbu_0, # of connection points: 5
#     Node 1, Type 0, BuildingBlock: BEQFEK_clean_sbu_0, # of connection points: 5
#     Node 2, Type 0, BuildingBlock: BEQFEK_clean_sbu_0, # of connection points: 5
#     Node 3, Type 0, BuildingBlock: BEQFEK_clean_sbu_0, # of connection points: 5
#     Node 4, Type 0, BuildingBlock: BEQFEK_clean_sbu_0, # of connection points: 5
#     Node 5, Type 0, BuildingBlock: BEQFEK_clean_sbu_0, # of connection points: 5
#     Node 6, Type 0, BuildingBlock: BEQFEK_clean_sbu_0, # of connection points: 5
#     Node 7, Type 0, BuildingBlock: BEQFEK_clean_sbu_0, # of connection points: 5
#     Node 8, Type 0, BuildingBlock: BEQFEK_clean_sbu_0, # of connection points: 5
#     Node 9, Type 0, BuildingBlock: BEQFEK_clean_sbu_0, # of connection points: 5
#     Node 10, Type 0, BuildingBlock: BEQFEK_clean_sbu_0, # of connection points: 5
#     Node 11, Type 0, BuildingBlock: BEQFEK_clean_sbu_0, # of connection points: 5
#     Node 12, Type 0, BuildingBlock: BEQFEK_clean_sbu_0, # of connection points: 5
#     Node 13, Type 0, BuildingBlock: BEQFEK_clean_sbu_0, # of connection points: 5
#     Node 14, Type 0, BuildingBlock: BEQFEK_clean_sbu_0, # of connection points: 5
#     Node 15, Type 0, BuildingBlock: BEQFEK_clean_sbu_0, # of connection points: 5
#     Node 16, Type 0, BuildingBlock: BEQFEK_clean_sbu_0, # of connection points: 5
#     Node 17, Type 0, BuildingBlock: BEQFEK_clean_sbu_0, # of connection points: 5
#     Node 18, Type 0, BuildingBlock: BEQFEK_clean_sbu_0, # of connection points: 5
#     Node 19, Type 0, BuildingBlock: BEQFEK_clean_sbu_0, # of connection points: 5
#     Node 20, Type 0, BuildingBlock: BEQFEK_clean_sbu_0, # of connection points: 5
#     Node 21, Type 0, BuildingBlock: BEQFEK_clean_sbu_0, # of connection points: 5
#     Node 22, Type 0, BuildingBlock: BEQFEK_clean_sbu_0, # of connection points: 5
#     Node 23, Type 0, BuildingBlock: BEQFEK_clean_sbu_0, # of connection points: 5
#     Node 24, Type 0, BuildingBlock: BEQFEK_clean_sbu_0, # of connection points: 5
#     Node 25, Type 0, BuildingBlock: BEQFEK_clean_sbu_0, # of connection points: 5
#     Node 26, Type 0, BuildingBlock: BEQFEK_clean_sbu_0, # of connection points: 5
#     Node 27, Type 0, BuildingBlock: BEQFEK_clean_sbu_0, # of connection points: 5
#     Node 28, Type 0, BuildingBlock: BEQFEK_clean_sbu_0, # of connection points: 5
#     Node 29, Type 0, BuildingBlock: BEQFEK_clean_sbu_0, # of connection points: 5
#     Node 30, Type 0, BuildingBlock: BEQFEK_clean_sbu_0, # of connection points: 5
#     Node 31, Type 0, BuildingBlock: BEQFEK_clean_sbu_0, # of connection points: 5
#     Edge 32, Type (0, 0), BuildingBlock: AJUNOK_clean_linker_0, # of connection points: 2
#     Edge 33, Type (0, 0), BuildingBlock: AJUNOK_clean_linker_0, # of connection points: 2
#     Edge 34, Type (0, 0), BuildingBlock: AJUNOK_clean_linker_0, # of connection points: 2
#     Edge 35, Type (0, 0), BuildingBlock: AJUNOK_clean_linker_0, # of connection points: 2
#     Edge 36, Type (0, 0), BuildingBlock: AJUNOK_clean_linker_0, # of connection points: 2
#     Edge 37, Type (0, 0), BuildingBlock: AJUNOK_clean_linker_0, # of connection points: 2
#     Edge 38, Type (0, 0), BuildingBlock: AJUNOK_clean_linker_0, # of connection points: 2
#     Edge 39, Type (0, 0), BuildingBlock: AJUNOK_clean_linker_0, # of connection points: 2
#     Edge 40, Type (0, 0), BuildingBlock: AJUNOK_clean_linker_0, # of connection points: 2
#     Edge 41, Type (0, 0), BuildingBlock: AJUNOK_clean_linker_0, # of connection points: 2
#     Edge 42, Type (0, 0), BuildingBlock: AJUNOK_clean_linker_0, # of connection points: 2
#     Edge 43, Type (0, 0), BuildingBlock: AJUNOK_clean_linker_0, # of connection points: 2
#     Edge 44, Type (0, 0), BuildingBlock: AJUNOK_clean_linker_0, # of connection points: 2
#     Edge 45, Type (0, 0), BuildingBlock: AJUNOK_clean_linker_0, # of connection points: 2
#     Edge 46, Type (0, 0), BuildingBlock: AJUNOK_clean_linker_0, # of connection points: 2
#     Edge 47, Type (0, 0), BuildingBlock: AJUNOK_clean_linker_0, # of connection points: 2
#     Edge 48, Type (0, 0), BuildingBlock: AJUNOK_clean_linker_0, # of connection points: 2
#     Edge 49, Type (0, 0), BuildingBlock: AJUNOK_clean_linker_0, # of connection points: 2
#     Edge 50, Type (0, 0), BuildingBlock: AJUNOK_clean_linker_0, # of connection points: 2
#     Edge 51, Type (0, 0), BuildingBlock: AJUNOK_clean_linker_0, # of connection points: 2
#     Edge 52, Type (0, 0), BuildingBlock: AJUNOK_clean_linker_0, # of connection points: 2
#     Edge 53, Type (0, 0), BuildingBlock: AJUNOK_clean_linker_0, # of connection points: 2
#     Edge 54, Type (0, 0), BuildingBlock: AJUNOK_clean_linker_0, # of connection points: 2
#     Edge 55, Type (0, 0), BuildingBlock: AJUNOK_clean_linker_0, # of connection points: 2
#     Edge 56, Type (0, 0), BuildingBlock: AJUNOK_clean_linker_0, # of connection points: 2
#     Edge 57, Type (0, 0), BuildingBlock: AJUNOK_clean_linker_0, # of connection points: 2
#     Edge 58, Type (0, 0), BuildingBlock: AJUNOK_clean_linker_0, # of connection points: 2
#     Edge 59, Type (0, 0), BuildingBlock: AJUNOK_clean_linker_0, # of connection points: 2
#     Edge 60, Type (0, 0), BuildingBlock: AJUNOK_clean_linker_0, # of connection points: 2
#     Edge 61, Type (0, 0), BuildingBlock: AJUNOK_clean_linker_0, # of connection points: 2
#     Edge 62, Type (0, 0), BuildingBlock: AJUNOK_clean_linker_0, # of connection points: 2
#     Edge 63, Type (0, 0), BuildingBlock: AJUNOK_clean_linker_0, # of connection points: 2
#     Edge 64, Type (0, 0), BuildingBlock: AJUNOK_clean_linker_0, # of connection points: 2
#     Edge 65, Type (0, 0), BuildingBlock: AJUNOK_clean_linker_0, # of connection points: 2
#     Edge 66, Type (0, 0), BuildingBlock: AJUNOK_clean_linker_0, # of connection points: 2
#     Edge 67, Type (0, 0), BuildingBlock: AJUNOK_clean_linker_0, # of connection points: 2
#     Edge 68, Type (0, 0), BuildingBlock: AJUNOK_clean_linker_0, # of connection points: 2
#     Edge 69, Type (0, 0), BuildingBlock: AJUNOK_clean_linker_0, # of connection points: 2
#     Edge 70, Type (0, 0), BuildingBlock: AJUNOK_clean_linker_0, # of connection points: 2
#     Edge 71, Type (0, 0), BuildingBlock: AJUNOK_clean_linker_0, # of connection points: 2
#     Edge 72, Type (0, 0), BuildingBlock: AJUNOK_clean_linker_0, # of connection points: 2
#     Edge 73, Type (0, 0), BuildingBlock: AJUNOK_clean_linker_0, # of connection points: 2
#     Edge 74, Type (0, 0), BuildingBlock: AJUNOK_clean_linker_0, # of connection points: 2
#     Edge 75, Type (0, 0), BuildingBlock: AJUNOK_clean_linker_0, # of connection points: 2
#     Edge 76, Type (0, 0), BuildingBlock: AJUNOK_clean_linker_0, # of connection points: 2
#     Edge 77, Type (0, 0), BuildingBlock: AJUNOK_clean_linker_0, # of connection points: 2
#     Edge 78, Type (0, 0), BuildingBlock: AJUNOK_clean_linker_0, # of connection points: 2
#     Edge 79, Type (0, 0), BuildingBlock: AJUNOK_clean_linker_0, # of connection points: 2
#     Edge 80, Type (0, 0), BuildingBlock: AJUNOK_clean_linker_0, # of connection points: 2
#     Edge 81, Type (0, 0), BuildingBlock: AJUNOK_clean_linker_0, # of connection points: 2
#     Edge 82, Type (0, 0), BuildingBlock: AJUNOK_clean_linker_0, # of connection points: 2
#     Edge 83, Type (0, 0), BuildingBlock: AJUNOK_clean_linker_0, # of connection points: 2
#     Edge 84, Type (0, 0), BuildingBlock: AJUNOK_clean_linker_0, # of connection points: 2
#     Edge 85, Type (0, 0), BuildingBlock: AJUNOK_clean_linker_0, # of connection points: 2
#     Edge 86, Type (0, 0), BuildingBlock: AJUNOK_clean_linker_0, # of connection points: 2
#     Edge 87, Type (0, 0), BuildingBlock: AJUNOK_clean_linker_0, # of connection points: 2
#     Edge 88, Type (0, 0), BuildingBlock: AJUNOK_clean_linker_0, # of connection points: 2
#     Edge 89, Type (0, 0), BuildingBlock: AJUNOK_clean_linker_0, # of connection points: 2
#     Edge 90, Type (0, 0), BuildingBlock: AJUNOK_clean_linker_0, # of connection points: 2
#     Edge 91, Type (0, 0), BuildingBlock: AJUNOK_clean_linker_0, # of connection points: 2
#     Edge 92, Type (0, 0), BuildingBlock: AJUNOK_clean_linker_0, # of connection points: 2
#     Edge 93, Type (0, 0), BuildingBlock: AJUNOK_clean_linker_0, # of connection points: 2
#     Edge 94, Type (0, 0), BuildingBlock: AJUNOK_clean_linker_0, # of connection points: 2
#     Edge 95, Type (0, 0), BuildingBlock: AJUNOK_clean_linker_0, # of connection points: 2
#     Edge 96, Type (0, 0), BuildingBlock: AJUNOK_clean_linker_0, # of connection points: 2
#     Edge 97, Type (0, 0), BuildingBlock: AJUNOK_clean_linker_0, # of connection points: 2
#     Edge 98, Type (0, 0), BuildingBlock: AJUNOK_clean_linker_0, # of connection points: 2
#     Edge 99, Type (0, 0), BuildingBlock: AJUNOK_clean_linker_0, # of connection points: 2
#     Edge 100, Type (0, 0), BuildingBlock: AJUNOK_clean_linker_0, # of connection points: 2
#     Edge 101, Type (0, 0), BuildingBlock: AJUNOK_clean_linker_0, # of connection points: 2
#     Edge 102, Type (0, 0), BuildingBlock: AJUNOK_clean_linker_0, # of connection points: 2
#     Edge 103, Type (0, 0), BuildingBlock: AJUNOK_clean_linker_0, # of connection points: 2
#     Edge 104, Type (0, 0), BuildingBlock: AJUNOK_clean_linker_0, # of connection points: 2
#     Edge 105, Type (0, 0), BuildingBlock: AJUNOK_clean_linker_0, # of connection points: 2
#     Edge 106, Type (0, 0), BuildingBlock: AJUNOK_clean_linker_0, # of connection points: 2
#     Edge 107, Type (0, 0), BuildingBlock: AJUNOK_clean_linker_0, # of connection points: 2
#     Edge 108, Type (0, 0), BuildingBlock: AJUNOK_clean_linker_0, # of connection points: 2
#     Edge 109, Type (0, 0), BuildingBlock: AJUNOK_clean_linker_0, # of connection points: 2
#     Edge 110, Type (0, 0), BuildingBlock: AJUNOK_clean_linker_0, # of connection points: 2
#     Edge 111, Type (0, 0), BuildingBlock: AJUNOK_clean_linker_0, # of connection points: 2
# Relax obj value: 0.397
# Max RMSD: 0.191
# Mean RMSD: 0.191
data_MOF--net-wge--node1-BEQFEK_clean_sbu_0--edge1-AJUNOK_clean_linker_0
_symmetry_space_group_name_H-M    P1
_symmetry_Int_Tables_number       1
_symmetry_cell_setting            triclinic
loop_
_symmetry_equiv_pos_as_xyz
'x, y, z'
_cell_length_a     47.729789
_cell_length_b     47.862333
_cell_length_c     32.696849
_cell_angle_alpha  90.070581
_cell_angle_beta   89.998187
_cell_angle_gamma 90.04032
loop_
_atom_site_label
_atom_site_type_symbol
_atom_site_fract_x
_atom_site_fract_y
_atom_site_fract_z
_atom_type_partial_charge
Co0 Co 0.23208 0.15223 1.00336 0.0
Co1 Co 0.28038 0.15595 0.06541 0.0
C2 C 0.25291 0.20731 0.02595 0.0
O3 O 0.23397 0.19325 1.00815 0.0
O4 O 0.27186 0.19493 0.04637 0.0
C5 C 0.1889 0.16008 0.94318 0.0
O6 O 0.19763 0.18607 0.94166 0.0
C7 C 0.28601 0.17752 0.14505 0.0
C8 C 0.31474 0.14832 0.17553 0.0
C9 C 0.29439 0.16844 0.18319 0.0
N10 N 0.29901 0.16216 0.11629 0.0
N11 N 0.31717 0.14553 0.13458 0.0
C12 C 0.26619 0.20094 0.1358 0.0
H13 H 0.24753 0.19276 0.11942 0.0
H14 H 0.25974 0.21226 0.16389 0.0
H15 H 0.27685 0.21623 0.11573 0.0
C16 C 0.20476 0.12004 0.07139 0.0
N17 N 0.22608 0.13486 0.0548 0.0
N18 N 0.24776 0.134 0.07939 0.0
C19 C 0.24139 0.11725 0.11143 0.0
C20 C 0.21374 0.10831 0.10824 0.0
C21 C 0.17629 0.1179 0.05259 0.0
H22 H 0.17069 0.13799 0.03777 0.0
H23 H 0.16025 0.11246 0.07584 0.0
H24 H 0.17658 0.1015 0.02857 0.0
O25 O 0.26711 0.1369 0.97612 0.0
O26 O 0.30205 0.13668 0.02116 0.0
H27 H 0.28315 0.10463 0.12673 0.0
H28 H 0.25615 0.08508 0.1522 0.0
C29 C 0.2623 0.10618 0.14131 0.0
H30 H 0.26319 0.12013 0.16825 0.0
H31 H 0.32879 0.13014 0.11963 0.0
O32 O 0.20064 0.14303 0.96749 0.0
C33 C 0.29258 0.13133 0.98534 0.0
Co34 Co 0.13793 0.979 0.25309 0.0
Co35 Co 0.13523 0.02769 0.31405 0.0
C36 C 0.08302 0.99971 0.27623 0.0
O37 O 0.09706 0.98088 0.25828 0.0
O38 O 0.09553 0.01879 0.29637 0.0
C39 C 0.13162 0.92644 0.21106 0.0
O40 O 0.10999 0.92113 0.2346 0.0
C41 C 0.11496 0.03586 0.39406 0.0
C42 C 0.14652 0.06311 0.42253 0.0
C43 C 0.12554 0.04394 0.4316 0.0
N44 N 0.13035 0.04765 0.3643 0.0
N45 N 0.14835 0.06507 0.38142 0.0
C46 C 0.08993 1.0177 0.3863 0.0
H47 H 0.09646 0.99824 0.37048 0.0
H48 H 0.0786 1.01264 0.41499 0.0
H49 H 0.07517 0.02902 0.36613 0.0
C50 C 0.1703 0.95172 0.32116 0.0
N51 N 0.15587 0.97311 0.30417 0.0
N52 N 0.15722 0.99498 0.32837 0.0
C53 C 0.17398 0.98856 0.36046 0.0
C54 C 0.1823 0.96079 0.35776 0.0
C55 C 0.17155 0.92299 0.30325 0.0
H56 H 0.15031 0.91656 0.29328 0.0
H57 H 0.1796 0.90756 0.32564 0.0
H58 H 0.18531 0.92322 0.27589 0.0
O59 O 0.15282 1.01343 0.22476 0.0
O60 O 0.15409 0.04881 0.26872 0.0
H61 H 0.20677 1.00271 0.40082 0.0
H62 H 0.17193 1.01075 0.41697 0.0
C63 C 0.18577 1.00933 0.38994 0.0
H64 H 0.18792 0.02994 0.375 0.0
H65 H 0.16405 0.07566 0.36549 0.0
O66 O 0.14591 0.94856 0.21569 0.0
C67 C 0.15861 0.03889 0.23295 0.0
Co68 Co 0.30938 0.88234 0.50447 0.0
Co69 Co 0.26065 0.88284 0.5652 0.0
C70 C 0.2866 0.8289 0.52959 0.0
O71 O 0.30635 0.8416 0.51146 0.0
O72 O 0.26801 0.84272 0.54887 0.0
C73 C 0.36313 0.87756 0.46215 0.0
O74 O 0.37196 0.85954 0.48949 0.0
C75 C 0.25192 0.86435 0.64595 0.0
C76 C 0.22396 0.89595 0.67282 0.0
C77 C 0.243 0.87512 0.68294 0.0
N78 N 0.24059 0.87938 0.61551 0.0
N79 N 0.22277 0.89744 0.6316 0.0
C80 C 0.2715 0.84028 0.6394 0.0
H81 H 0.26093 0.82435 0.62027 0.0
H82 H 0.29052 0.84746 0.62294 0.0
H83 H 0.27739 0.83007 0.66861 0.0
C84 C 0.33786 0.91588 0.57123 0.0
N85 N 0.31619 0.90139 0.5548 0.0
N86 N 0.29414 0.90411 0.5785 0.0
C87 C 0.30064 0.92191 0.60935 0.0
C88 C 0.32878 0.92931 0.6067 0.0
C89 C 0.36614 0.91836 0.55192 0.0
H90 H 0.37633 0.89755 0.55169 0.0
H91 H 0.37965 0.93338 0.56869 0.0
H92 H 0.36382 0.9253 0.51975 0.0
O93 O 0.27513 0.89785 0.47593 0.0
O94 O 0.23983 0.90154 0.51975 0.0
H95 H 0.25929 0.93613 0.62365 0.0
H96 H 0.28632 0.95425 0.65093 0.0
C97 C 0.27982 0.93365 0.6389 0.0
H98 H 0.27784 0.91953 0.66537 0.0
H99 H 0.21235 0.91285 0.61496 0.0
O100 O 0.33925 0.88892 0.46543 0.0
C101 C 0.24989 0.90491 0.48383 0.0
Co102 Co 0.40356 0.05714 0.75412 0.0
Co103 Co 0.4061 1.00832 0.8156 0.0
C104 C 0.45865 0.03581 0.78038 0.0
O105 O 0.44462 0.05388 0.76073 0.0
O106 O 0.44615 1.01719 0.80131 0.0
C107 C 0.41348 0.09758 0.69178 0.0
O108 O 0.43735 0.08435 0.68692 0.0
C109 C 0.42212 1.00042 0.89825 0.0
C110 C 0.39676 0.96501 0.9201 0.0
C111 C 0.41435 0.98634 0.93338 0.0
N112 N 0.40965 0.98831 0.86589 0.0
N113 N 0.3952 0.9665 0.87889 0.0
C114 C 0.4364 0.02837 0.89662 0.0
H115 H 0.43207 0.03933 0.86758 0.0
H116 H 0.42958 0.04187 0.92237 0.0
H117 H 0.45936 0.02526 0.89924 0.0
C118 C 0.37115 0.08421 0.8223 0.0
N119 N 0.38525 0.06273 0.80487 0.0
N120 N 0.38391 0.04088 0.82901 0.0
C121 C 0.36789 0.04752 0.86173 0.0
C122 C 0.35998 0.07535 0.8594 0.0
C123 C 0.36863 0.11266 0.80396 0.0
H124 H 0.38831 0.11828 0.78787 0.0
H125 H 0.36384 0.12855 0.82772 0.0
H126 H 0.35133 0.11247 0.7813 0.0
O127 O 0.38771 0.02337 0.7251 0.0
O128 O 0.389 0.98728 0.76805 0.0
H129 H 0.33666 0.03331 0.90441 0.0
H130 H 0.37221 0.02757 0.91914 0.0
C131 C 0.35768 0.0272 0.89294 0.0
H132 H 0.35651 1.00591 0.87981 0.0
H133 H 0.38212 0.95444 0.86039 0.0
O134 O 0.39637 0.08928 0.71891 0.0
C135 C 0.38319 0.99758 0.73289 0.0
Co136 Co 0.22991 0.88265 0.01967 0.0
Co137 Co 0.27874 0.87978 0.95862 0.0
C138 C 0.251 0.82777 0.99522 0.0
O139 O 0.23242 0.84179 0.01384 0.0
O140 O 0.26999 0.84021 0.97489 0.0
C141 C 0.18812 0.87338 0.08065 0.0
O142 O 0.20021 0.84892 0.08486 0.0
C143 C 0.28701 0.8618 0.87783 0.0
C144 C 0.31852 0.8908 0.85304 0.0
C145 C 0.29803 0.87166 0.84154 0.0
N146 N 0.29902 0.87557 0.90904 0.0
N147 N 0.31875 0.89209 0.89428 0.0
C148 C 0.26404 0.8407 0.88297 0.0
H149 H 0.24557 0.85064 0.8976 0.0
H150 H 0.25792 0.83093 0.85354 0.0
H151 H 0.2715 0.82371 0.90316 0.0
C152 C 0.20273 0.91411 0.95062 0.0
N153 N 0.22426 0.9002 0.96819 0.0
N154 N 0.24618 0.90144 0.94405 0.0
C155 C 0.23969 0.91757 0.91139 0.0
C156 C 0.21175 0.92549 0.91366 0.0
C157 C 0.17405 0.91611 0.9687 0.0
H158 H 0.16876 0.89644 0.98491 0.0
H159 H 0.15815 0.9204 0.94475 0.0
H160 H 0.17376 0.93344 0.99124 0.0
O161 O 0.26431 0.89797 0.04874 0.0
O162 O 0.29954 0.89813 1.00431 0.0
H163 H 0.25412 0.95064 0.87205 0.0
H164 H 0.26169 0.91615 0.85456 0.0
C165 C 0.26058 0.92945 0.88212 0.0
H166 H 0.28142 0.93097 0.89677 0.0
H167 H 0.33003 0.90648 0.91174 0.0
O168 O 0.19768 0.89061 0.05465 0.0
C169 C 0.28991 0.90331 0.04003 0.0
Co170 Co 0.40284 0.97759 0.27014 0.0
Co171 Co 0.40468 0.02516 0.2067 0.0
C172 C 0.4576 0.9989 0.24257 0.0
O173 O 0.4438 0.98087 0.26263 0.0
O174 O 0.44487 1.01723 0.22143 0.0
C175 C 0.41424 0.93678 0.33175 0.0
O176 O 0.43878 0.94907 0.3343 0.0
C177 C 0.42084 0.03169 0.12393 0.0
C178 C 0.39532 0.06648 0.10051 0.0
C179 C 0.41315 0.0451 0.08824 0.0
N180 N 0.4081 0.04423 0.15569 0.0
N181 N 0.39355 0.06569 0.14175 0.0
C182 C 0.4354 1.00395 0.12672 0.0
H183 H 0.43093 0.99339 0.15605 0.0
H184 H 0.42894 0.98999 0.10128 0.0
H185 H 0.45834 1.00731 0.1244 0.0
C186 C 0.36958 0.94934 0.20363 0.0
N187 N 0.38407 0.97102 0.21987 0.0
N188 N 0.38281 0.99234 0.19475 0.0
C189 C 0.36647 0.98525 0.16262 0.0
C190 C 0.35825 0.9576 0.16628 0.0
C191 C 0.36689 0.92135 0.22343 0.0
H192 H 0.352 0.92295 0.2494 0.0
H193 H 0.38748 0.91481 0.23593 0.0
H194 H 0.35908 0.90543 0.20149 0.0
O195 O 0.38719 1.0119 0.2984 0.0
O196 O 0.38674 0.04642 0.25292 0.0
H197 H 0.35485 0.02653 0.1434 0.0
H198 H 0.33523 0.99874 0.1194 0.0
C199 C 0.35619 1.0051 0.1308 0.0
H200 H 0.37078 1.00457 0.10466 0.0
H201 H 0.38032 0.07796 0.15967 0.0
O202 O 0.39629 0.94574 0.30624 0.0
C203 C 0.38163 0.03725 0.28898 0.0
Co204 Co 0.30716 0.14934 0.51962 0.0
Co205 Co 0.25895 0.1531 0.45808 0.0
C206 C 0.28669 0.20462 0.49726 0.0
O207 O 0.30559 0.19043 0.51489 0.0
O208 O 0.26758 0.19229 0.47694 0.0
C209 C 0.36068 0.15355 0.56045 0.0
O210 O 0.36809 0.17268 0.53382 0.0
C211 C 0.25011 0.17508 0.37872 0.0
C212 C 0.21947 0.14657 0.3506 0.0
C213 C 0.23904 0.16716 0.34136 0.0
N214 N 0.23897 0.15899 0.4082 0.0
N215 N 0.21973 0.14272 0.39151 0.0
C216 C 0.27214 0.19683 0.38629 0.0
H217 H 0.26382 0.2125 0.40798 0.0
H218 H 0.29096 0.18701 0.40006 0.0
H219 H 0.27789 0.20832 0.35811 0.0
C220 C 0.33451 0.11649 0.45172 0.0
N221 N 0.31331 0.13146 0.46841 0.0
N222 N 0.29202 0.13179 0.44293 0.0
C223 C 0.29891 0.11639 0.40959 0.0
C224 C 0.32622 0.10674 0.41343 0.0
C225 C 0.36217 0.11176 0.47202 0.0
H226 H 0.35876 0.10299 0.50301 0.0
H227 H 0.37308 0.13207 0.47554 0.0
H228 H 0.37563 0.09743 0.45398 0.0
O229 O 0.27251 0.13444 0.5471 0.0
O230 O 0.23732 0.1335 0.50283 0.0
H231 H 0.25784 0.10442 0.38983 0.0
H232 H 0.28587 0.08828 0.3615 0.0
C233 C 0.27892 0.10784 0.37669 0.0
H234 H 0.27803 0.12436 0.35318 0.0
H235 H 0.20903 0.12701 0.40714 0.0
O236 O 0.3372 0.14129 0.55773 0.0
C237 C 0.24704 0.12867 0.53864 0.0
Co238 Co 0.13426 0.0531 0.76836 0.0
Co239 Co 0.13324 1.00491 0.70697 0.0
C240 C 0.08004 0.03149 0.74402 0.0
O241 O 0.09318 0.05084 0.76244 0.0
O242 O 0.09348 1.01293 0.72418 0.0
C243 C 0.13025 0.10568 0.81342 0.0
O244 O 0.10969 0.11378 0.78954 0.0
C245 C 0.1145 0.99831 0.62599 0.0
C246 C 0.1426 0.96677 0.59922 0.0
C247 C 0.12342 0.98748 0.58905 0.0
N248 N 0.12867 0.98581 0.65635 0.0
N249 N 0.14472 0.96613 0.64039 0.0
C250 C 0.09394 0.02161 0.63247 0.0
H251 H 0.0767 1.01407 0.65225 0.0
H252 H 0.10435 0.03938 0.64812 0.0
H253 H 0.08432 0.02872 0.60345 0.0
C254 C 0.16645 0.08152 0.70043 0.0
N255 N 0.15258 0.05979 0.71757 0.0
N256 N 0.15445 0.038 0.69332 0.0
C257 C 0.17069 0.04483 0.66089 0.0
C258 C 0.17824 0.07279 0.66348 0.0
C259 C 0.16781 0.1101 0.71882 0.0
H260 H 0.14639 0.11696 0.72722 0.0
H261 H 0.1771 0.12546 0.69734 0.0
H262 H 0.18048 0.10935 0.74725 0.0
O263 O 0.14952 0.01846 0.79577 0.0
O264 O 0.15232 0.98337 0.75164 0.0
H265 H 0.18425 1.00338 0.64545 0.0
H266 H 0.2038 0.03092 0.62099 0.0
C267 C 0.18263 0.02427 0.63116 0.0
H268 H 0.16916 0.0232 0.60375 0.0
H269 H 0.15924 0.95445 0.65698 0.0
O270 O 0.14252 0.08255 0.80743 0.0
C271 C 0.15617 0.99321 0.7876 0.0
Co272 Co 0.80726 0.8826 0.01726 0.0
Co273 Co 0.75845 0.88333 0.95561 0.0
C274 C 0.78404 0.82925 0.98982 0.0
O275 O 0.80333 0.84189 1.00919 0.0
O276 O 0.76573 0.84307 0.97007 0.0
C277 C 0.84889 0.87184 0.07878 0.0
O278 O 0.83735 0.84701 0.08173 0.0
C279 C 0.75114 0.86775 0.87279 0.0
C280 C 0.71663 0.89392 0.84992 0.0
C281 C 0.73773 0.87586 0.83725 0.0
N282 N 0.73888 0.88045 0.90481 0.0
N283 N 0.71757 0.89541 0.89119 0.0
C284 C 0.77871 0.85273 0.87525 0.0
H285 H 0.78933 0.85653 0.90475 0.0
H286 H 0.79287 0.85934 0.85013 0.0
H287 H 0.77498 0.82994 0.87212 0.0
C288 C 0.83548 0.91559 0.95069 0.0
N289 N 0.81355 0.9017 0.96728 0.0
N290 N 0.79173 0.90426 0.9432 0.0
C291 C 0.79877 0.92087 0.91143 0.0
C292 C 0.82685 0.92803 0.91425 0.0
C293 C 0.86413 0.91641 0.96912 0.0
H294 H 0.86437 0.93198 0.99429 0.0
H295 H 0.86933 0.89572 0.98239 0.0
H296 H 0.88012 0.92233 0.94605 0.0
O297 O 0.77335 0.89834 0.04653 0.0
O298 O 0.73807 0.90164 1.00233 0.0
H299 H 0.78506 0.95346 0.87076 0.0
H300 H 0.77867 0.91853 0.85377 0.0
C301 C 0.77858 0.93228 0.88087 0.0
H302 H 0.75726 0.93346 0.89406 0.0
H303 H 0.70557 0.90872 0.90936 0.0
O304 O 0.83934 0.88922 0.05299 0.0
C305 C 0.74807 0.90521 0.03834 0.0
Co306 Co 0.90358 0.05623 0.76925 0.0
Co307 Co 0.90291 1.00823 0.70721 0.0
C308 C 0.95706 0.03345 0.74347 0.0
O309 O 0.94451 0.05312 0.76197 0.0
O310 O 0.94304 1.01525 0.72375 0.0
C311 C 0.9083 0.10991 0.81114 0.0
O312 O 0.92581 0.11859 0.78292 0.0
C313 C 0.92151 1.00011 0.62635 0.0
C314 C 0.88966 0.9726 0.59892 0.0
C315 C 0.91078 0.99146 0.58921 0.0
N316 N 0.90624 0.98873 0.65653 0.0
N317 N 0.88799 0.97124 0.6401 0.0
C318 C 0.94581 0.01941 0.63328 0.0
H319 H 0.96158 1.00866 0.65242 0.0
H320 H 0.93871 0.03837 0.64986 0.0
H321 H 0.95627 0.02528 0.60424 0.0
C322 C 0.86942 0.08509 0.70356 0.0
N323 N 0.88424 0.06342 0.71921 0.0
N324 N 0.88181 0.04179 0.69466 0.0
C325 C 0.86421 0.0487 0.66375 0.0
C326 C 0.85645 0.0765 0.66754 0.0
C327 C 0.86637 0.11294 0.72376 0.0
H328 H 0.85959 0.11006 0.75592 0.0
H329 H 0.88698 0.12363 0.72399 0.0
H330 H 0.85095 0.12625 0.70747 0.0
O331 O 0.88832 0.02166 0.79698 0.0
O332 O 0.88438 0.98695 0.75232 0.0
H333 H 0.84912 1.0079 0.64829 0.0
H334 H 0.83153 0.03585 0.62201 0.0
C335 C 0.85207 0.02853 0.63365 0.0
H336 H 0.86623 0.02662 0.60711 0.0
H337 H 0.87238 0.96087 0.65653 0.0
O338 O 0.89715 0.08589 0.80883 0.0
C339 C 0.8813 0.99653 0.78857 0.0
Co340 Co 0.72765 0.153 0.52087 0.0
Co341 Co 0.77688 0.15263 0.45968 0.0
C342 C 0.75117 0.20665 0.494 0.0
O343 O 0.73202 0.19379 0.51329 0.0
O344 O 0.76946 0.19308 0.4737 0.0
C345 C 0.68689 0.16428 0.58275 0.0
O346 O 0.69976 0.18842 0.5864 0.0
C347 C 0.7854 0.16573 0.37572 0.0
C348 C 0.82066 0.13921 0.3563 0.0
C349 C 0.7994 0.1562 0.34135 0.0
N350 N 0.79725 0.1545 0.4092 0.0
N351 N 0.81903 0.1394 0.39757 0.0
C352 C 0.75767 0.18048 0.37595 0.0
H353 H 0.74779 0.17996 0.40651 0.0
H354 H 0.74319 0.17079 0.35345 0.0
H355 H 0.76086 0.20258 0.36685 0.0
C356 C 0.69965 0.12007 0.45397 0.0
N357 N 0.72151 0.13402 0.47081 0.0
N358 N 0.74348 0.13149 0.44698 0.0
C359 C 0.73652 0.11477 0.41521 0.0
C360 C 0.70842 0.10773 0.41757 0.0
C361 C 0.67105 0.11867 0.47244 0.0
H362 H 0.66502 0.13955 0.48433 0.0
H363 H 0.65533 0.11131 0.44984 0.0
H364 H 0.67146 0.10398 0.49866 0.0
O365 O 0.7611 0.13661 0.55043 0.0
O366 O 0.79715 0.13499 0.50733 0.0
H367 H 0.75022 0.0821 0.37469 0.0
H368 H 0.75594 0.117 0.35748 0.0
C369 C 0.7566 0.10337 0.38459 0.0
H370 H 0.77803 0.10248 0.39739 0.0
H371 H 0.83092 0.12704 0.41723 0.0
O372 O 0.69529 0.14687 0.55611 0.0
C373 C 0.78663 0.13037 0.54276 0.0
Co374 Co 0.63555 0.97975 0.26868 0.0
Co375 Co 0.63291 0.02856 0.20733 0.0
C376 C 0.58057 1.0003 0.24371 0.0
O377 O 0.59459 0.98179 0.26242 0.0
O378 O 0.59313 0.01932 0.22358 0.0
C379 C 0.6268 0.93818 0.33035 0.0
O380 O 0.60217 0.94999 0.33489 0.0
C381 C 0.61384 0.03722 0.12689 0.0
C382 C 0.64602 0.06439 0.09985 0.0
C383 C 0.62512 0.04532 0.08983 0.0
N384 N 0.62876 0.04885 0.15731 0.0
N385 N 0.64714 0.06624 0.14104 0.0
C386 C 0.58853 0.01925 0.13356 0.0
H387 H 0.5736 0.03058 0.15349 0.0
H388 H 0.59465 0.99962 0.14921 0.0
H389 H 0.57759 1.01449 0.10443 0.0
C390 C 0.66792 0.95274 0.20033 0.0
N391 N 0.65362 0.97422 0.21739 0.0
N392 N 0.65521 0.99607 0.1933 0.0
C393 C 0.67214 0.98959 0.16138 0.0
C394 C 0.68023 0.96175 0.16394 0.0
C395 C 0.66892 0.92398 0.21798 0.0
H396 H 0.64907 0.91929 0.23424 0.0
H397 H 0.67256 0.90814 0.19373 0.0
H398 H 0.68635 0.92291 0.24033 0.0
O399 O 0.6503 1.01431 0.29782 0.0
O400 O 0.65081 0.04949 0.2535 0.0
H401 H 0.70555 1.00365 0.12214 0.0
H402 H 0.67101 1.0119 0.10499 0.0
C403 C 0.68443 1.01037 0.13243 0.0
H404 H 0.68649 0.03093 0.14758 0.0
H405 H 0.66263 0.07668 0.15764 0.0
O406 O 0.6438 0.9478 0.304 0.0
C407 C 0.65564 0.03988 0.28933 0.0
Co408 Co 0.80963 0.15142 1.00382 0.0
Co409 Co 0.76136 0.15013 0.0668 0.0
C410 C 0.78594 0.20449 0.03191 0.0
O411 O 0.80503 0.19196 0.01203 0.0
O412 O 0.76804 0.19061 0.05248 0.0
C413 C 0.84998 0.16313 0.9411 0.0
O414 O 0.83739 0.18743 0.93814 0.0
C415 C 0.75413 0.16371 0.15087 0.0
C416 C 0.71965 0.13675 0.17201 0.0
C417 C 0.74085 0.15431 0.18587 0.0
N418 N 0.74192 0.15193 0.11803 0.0
N419 N 0.72061 0.13654 0.13069 0.0
C420 C 0.78157 0.179 0.14945 0.0
H421 H 0.79117 0.17802 0.11872 0.0
H422 H 0.79644 0.1701 0.17204 0.0
H423 H 0.77803 0.20122 0.15766 0.0
C424 C 0.83902 0.11896 0.06964 0.0
N425 N 0.81669 0.13249 0.05353 0.0
N426 N 0.79516 0.12965 0.07812 0.0
C427 C 0.80284 0.11315 0.10965 0.0
C428 C 0.83097 0.10661 0.10633 0.0
C429 C 0.86736 0.11805 0.0503 0.0
H430 H 0.86685 0.10322 0.02419 0.0
H431 H 0.87283 0.13898 0.0381 0.0
H432 H 0.88354 0.1111 0.07245 0.0
O433 O 0.77566 0.13524 0.9755 0.0
O434 O 0.74068 0.13188 0.02014 0.0
H435 H 0.79033 0.08046 0.15092 0.0
H436 H 0.78402 0.11536 0.16786 0.0
C437 C 0.78338 0.10151 0.14093 0.0
H438 H 0.76182 0.10003 0.12868 0.0
H439 H 0.70861 0.12379 0.11168 0.0
O440 O 0.84148 0.14554 0.96738 0.0
C441 C 0.75044 0.12828 0.984 0.0
Co442 Co 0.63632 0.0562 0.75368 0.0
Co443 Co 0.63418 1.00742 0.81406 0.0
C444 C 0.58162 0.03535 0.77814 0.0
O445 O 0.59545 0.05424 0.75996 0.0
O446 O 0.59438 1.01621 0.7977 0.0
C447 C 0.63092 0.10955 0.71286 0.0
O448 O 0.6109 0.11614 0.73865 0.0
C449 C 0.61565 1.0005 0.89501 0.0
C450 C 0.6433 0.96839 0.92118 0.0
C451 C 0.62446 0.98933 0.93173 0.0
N452 N 0.62956 0.98796 0.86438 0.0
N453 N 0.64534 0.96795 0.87998 0.0
C454 C 0.59545 0.02415 0.88904 0.0
H455 H 0.57791 1.01689 0.8696 0.0
H456 H 0.606 0.04176 0.87326 0.0
H457 H 0.58615 0.03142 0.91822 0.0
C458 C 0.66939 0.0832 0.82173 0.0
N459 N 0.65485 0.06198 0.80438 0.0
N460 N 0.65619 0.03997 0.82822 0.0
C461 C 0.67277 0.04614 0.8606 0.0
C462 C 0.68109 0.0739 0.85837 0.0
C463 C 0.67142 0.11188 0.80387 0.0
H464 H 0.68311 0.11088 0.77457 0.0
H465 H 0.65008 0.11972 0.79714 0.0
H466 H 0.68199 0.12666 0.825 0.0
O467 O 0.65103 0.02181 0.7252 0.0
O468 O 0.65258 0.98611 0.76835 0.0
H469 H 0.68552 1.00432 0.87508 0.0
H470 H 0.70558 0.03124 0.90018 0.0
C471 C 0.68429 0.0251 0.88985 0.0
H472 H 0.67079 0.02405 0.91724 0.0
H473 H 0.65965 0.95614 0.86315 0.0
O474 O 0.64392 0.08655 0.71593 0.0
C475 C 0.65691 0.9963 0.73272 0.0
Co476 Co 0.73272 0.88377 0.50261 0.0
Co477 Co 0.78038 0.88358 0.56546 0.0
C478 C 0.75403 0.82989 0.52996 0.0
O479 O 0.73526 0.84291 0.51016 0.0
O480 O 0.77235 0.84341 0.55029 0.0
C481 C 0.67958 0.87891 0.45925 0.0
O482 O 0.67106 0.86029 0.48593 0.0
C483 C 0.78591 0.86758 0.64844 0.0
C484 C 0.82076 0.89285 0.6726 0.0
C485 C 0.79901 0.87531 0.68445 0.0
N486 N 0.79897 0.88005 0.61692 0.0
N487 N 0.82047 0.89443 0.63133 0.0
C488 C 0.75803 0.85321 0.64498 0.0
H489 H 0.74799 0.85728 0.61514 0.0
H490 H 0.74366 0.86014 0.66968 0.0
H491 H 0.76115 0.83034 0.6481 0.0
C492 C 0.70372 0.91729 0.56881 0.0
N493 N 0.7256 0.90317 0.55238 0.0
N494 N 0.74722 0.90526 0.57701 0.0
C495 C 0.74007 0.92168 0.60901 0.0
C496 C 0.71215 0.92923 0.60576 0.0
C497 C 0.67517 0.91849 0.55009 0.0
H498 H 0.66706 0.89694 0.5463 0.0
H499 H 0.66032 0.93055 0.5693 0.0
H500 H 0.6766 0.9281 0.51929 0.0
O501 O 0.76756 0.89867 0.47531 0.0
O502 O 0.8025 0.90154 0.51984 0.0
H503 H 0.75385 0.95369 0.6507 0.0
H504 H 0.75899 0.91855 0.66743 0.0
C505 C 0.75998 0.93241 0.64052 0.0
H506 H 0.78157 0.93315 0.62821 0.0
H507 H 0.83309 0.90747 0.61365 0.0
O508 O 0.70323 0.89072 0.46297 0.0
C509 C 0.79289 0.90517 0.48365 0.0
Co510 Co 0.90504 0.9786 0.25134 0.0
Co511 Co 0.90798 0.02648 0.31323 0.0
C512 C 0.96008 0.99878 0.2758 0.0
O513 O 0.94612 0.98026 0.25687 0.0
O514 O 0.9475 1.01753 0.29641 0.0
C515 C 0.90833 0.9254 0.20802 0.0
O516 O 0.92845 0.91739 0.23274 0.0
C517 C 0.92614 0.03427 0.39417 0.0
C518 C 0.89763 0.06622 0.41895 0.0
C519 C 0.91654 0.04558 0.43045 0.0
N520 N 0.91245 0.04633 0.36301 0.0
N521 N 0.89624 0.0663 0.37774 0.0
C522 C 0.9469 1.01103 0.38895 0.0
H523 H 0.93655 0.99269 0.37466 0.0
H524 H 0.95677 1.00496 0.41832 0.0
H525 H 0.96392 0.01809 0.36839 0.0
C526 C 0.87265 0.95083 0.31983 0.0
N527 N 0.88692 0.97226 0.30255 0.0
N528 N 0.88589 0.99398 0.32707 0.0
C529 C 0.86971 0.98746 0.35971 0.0
C530 C 0.86144 0.95971 0.35709 0.0
C531 C 0.87054 0.92229 0.30142 0.0
H532 H 0.89183 0.91467 0.2938 0.0
H533 H 0.86044 0.90725 0.32259 0.0
H534 H 0.85837 0.92345 0.27256 0.0
O535 O 0.89052 1.01356 0.22366 0.0
O536 O 0.88983 0.04826 0.26863 0.0
H537 H 0.83705 1.00196 0.39992 0.0
H538 H 0.87188 1.00904 0.41681 0.0
C539 C 0.85829 1.00823 0.38953 0.0
H540 H 0.85692 0.02913 0.37523 0.0
H541 H 0.88199 0.07773 0.36028 0.0
O542 O 0.89644 0.94888 0.2127 0.0
C543 C 0.8851 0.03898 0.23264 0.0
Co544 Co 0.73004 0.65339 0.50013 0.0
Co545 Co 0.77873 0.65319 0.56138 0.0
C546 C 0.75309 0.70709 0.527 0.0
O547 O 0.73378 0.69449 0.5076 0.0
O548 O 0.77126 0.69312 0.54669 0.0
C549 C 0.68784 0.66427 0.43953 0.0
O550 O 0.69941 0.68909 0.4366 0.0
C551 C 0.78597 0.66924 0.64324 0.0
C552 C 0.8178 0.64042 0.66748 0.0
C553 C 0.79698 0.65906 0.6793 0.0
N554 N 0.79842 0.65621 0.61171 0.0
N555 N 0.81828 0.63975 0.62619 0.0
C556 C 0.76247 0.68981 0.63862 0.0
H557 H 0.76953 0.70737 0.61929 0.0
H558 H 0.74434 0.67971 0.62339 0.0
H559 H 0.75594 0.69892 0.66831 0.0
C560 C 0.70202 0.62037 0.56777 0.0
N561 N 0.72375 0.63446 0.5508 0.0
N562 N 0.74572 0.63201 0.5746 0.0
C563 C 0.73908 0.61512 0.60634 0.0
C564 C 0.71098 0.60781 0.60405 0.0
C565 C 0.6733 0.61917 0.54961 0.0
H566 H 0.67308 0.60335 0.52477 0.0
H567 H 0.66788 0.63969 0.53599 0.0
H568 H 0.65747 0.61331 0.57296 0.0
O569 O 0.76418 0.63748 0.47029 0.0
O570 O 0.79918 0.6353 0.51502 0.0
H571 H 0.78075 0.60098 0.61989 0.0
H572 H 0.75329 0.58065 0.64314 0.0
C573 C 0.75992 0.60212 0.63466 0.0
H574 H 0.76115 0.61443 0.66318 0.0
H575 H 0.82995 0.62588 0.60839 0.0
O576 O 0.69765 0.64668 0.46483 0.0
C577 C 0.78959 0.63117 0.47896 0.0
Co578 Co 0.63655 0.47903 0.75297 0.0
Co579 Co 0.63755 0.52768 0.81472 0.0
C580 C 0.58301 0.50137 0.78233 0.0
O581 O 0.59565 0.48263 0.76187 0.0
O582 O 0.59695 0.5197 0.80196 0.0
C583 C 0.62567 0.43876 0.68998 0.0
O584 O 0.60162 0.45178 0.68588 0.0
C585 C 0.62367 0.53613 0.89812 0.0
C586 C 0.64985 0.57144 0.91841 0.0
C587 C 0.63247 0.55027 0.93271 0.0
N588 N 0.63552 0.5479 0.86507 0.0
N589 N 0.65044 0.56967 0.87715 0.0
C590 C 0.6091 0.50831 0.8976 0.0
H591 H 0.61071 0.49801 0.86744 0.0
H592 H 0.61821 0.49421 0.92102 0.0
H593 H 0.58665 0.51137 0.90515 0.0
C594 C 0.66967 0.45073 0.81999 0.0
N595 N 0.65616 0.47274 0.80295 0.0
N596 N 0.65892 0.49455 0.82696 0.0
C597 C 0.67537 0.48739 0.85893 0.0
C598 C 0.68213 0.45928 0.85655 0.0
C599 C 0.6699 0.42196 0.80224 0.0
H600 H 0.64987 0.41774 0.78617 0.0
H601 H 0.67338 0.40605 0.82638 0.0
H602 H 0.6872 0.4205 0.77968 0.0
O603 O 0.65161 0.51306 0.72308 0.0
O604 O 0.65474 0.54828 0.76719 0.0
H605 H 0.70775 0.50093 0.9002 0.0
H606 H 0.67252 0.50643 0.91684 0.0
C607 C 0.68649 0.50727 0.89002 0.0
H608 H 0.68747 0.52873 0.87754 0.0
H609 H 0.66315 0.58155 0.85787 0.0
O610 O 0.64298 0.44706 0.71687 0.0
C611 C 0.65806 0.53845 0.73105 0.0
Co612 Co 0.80776 0.38076 1.00505 0.0
Co613 Co 0.75866 0.38002 0.06601 0.0
C614 C 0.78451 0.32696 0.02904 0.0
O615 O 0.80448 0.33982 0.01167 0.0
O616 O 0.76579 0.34057 0.0482 0.0
C617 C 0.84752 0.37073 0.94174 0.0
O618 O 0.83421 0.34688 0.93759 0.0
C619 C 0.75024 0.35891 0.14582 0.0
C620 C 0.71948 0.38718 0.17403 0.0
C621 C 0.73914 0.36668 0.18318 0.0
N622 N 0.7389 0.37486 0.11632 0.0
N623 N 0.71965 0.39106 0.1331 0.0
C624 C 0.77281 0.33768 0.13845 0.0
H625 H 0.79109 0.34771 0.12347 0.0
H626 H 0.77942 0.32697 0.16687 0.0
H627 H 0.76462 0.32125 0.11792 0.0
C628 C 0.83539 0.41359 0.07231 0.0
N629 N 0.81374 0.39918 0.05582 0.0
N630 N 0.79222 0.40031 0.08078 0.0
C631 C 0.79936 0.41618 0.11351 0.0
C632 C 0.82709 0.42463 0.10981 0.0
C633 C 0.8633 0.41697 0.05217 0.0
H634 H 0.87049 0.3965 0.04016 0.0
H635 H 0.87906 0.42556 0.07375 0.0
H636 H 0.8611 0.43138 0.02581 0.0
O637 O 0.77373 0.39641 0.97618 0.0
O638 O 0.73828 0.39958 0.02006 0.0
H639 H 0.78671 0.44604 0.15947 0.0
H640 H 0.778 0.41045 0.17019 0.0
C641 C 0.77939 0.42616 0.14556 0.0
H642 H 0.7584 0.4295 0.13201 0.0
H643 H 0.7088 0.40665 0.11748 0.0
O644 O 0.83976 0.38778 0.96931 0.0
C645 C 0.74841 0.40329 0.98414 0.0
Co646 Co 0.90332 0.55567 0.24915 0.0
Co647 Co 0.90624 0.50914 0.31327 0.0
C648 C 0.95857 0.53597 0.27587 0.0
O649 O 0.94458 0.55387 0.25581 0.0
O650 O 0.94593 0.51759 0.29703 0.0
C651 C 0.90778 0.60864 0.20578 0.0
O652 O 0.92652 0.61709 0.23248 0.0
C653 C 0.92502 0.50079 0.39461 0.0
C654 C 0.89533 0.47012 0.41985 0.0
C655 C 0.91539 0.48978 0.43112 0.0
N656 N 0.91026 0.48958 0.36367 0.0
N657 N 0.89333 0.47032 0.37869 0.0
C658 C 0.94734 0.52249 0.38894 0.0
H659 H 0.96333 0.51439 0.36752 0.0
H660 H 0.93807 0.54168 0.37558 0.0
H661 H 0.95839 0.52744 0.41787 0.0
C662 C 0.86909 0.58431 0.31499 0.0
N663 N 0.88441 0.56289 0.29957 0.0
N664 N 0.88436 0.54216 0.32591 0.0
C665 C 0.86826 0.54954 0.3583 0.0
C666 C 0.85863 0.57664 0.35315 0.0
C667 C 0.86482 0.61161 0.29375 0.0
H668 H 0.85662 0.60781 0.26248 0.0
H669 H 0.88529 0.6224 0.29078 0.0
H670 H 0.85012 0.62527 0.31083 0.0
O671 O 0.88834 0.52075 0.22209 0.0
O672 O 0.88791 0.48694 0.26838 0.0
H673 H 0.85612 0.50896 0.37934 0.0
H674 H 0.83916 0.53734 0.40558 0.0
C675 C 0.85916 0.53027 0.39167 0.0
H676 H 0.87519 0.53013 0.41602 0.0
H677 H 0.87838 0.45956 0.36153 0.0
O678 O 0.89599 0.58502 0.20958 0.0
C679 C 0.88284 0.49554 0.23208 0.0
Co680 Co 0.72983 0.38404 0.51594 0.0
Co681 Co 0.78024 0.38101 0.4581 0.0
C682 C 0.75208 0.32924 0.49661 0.0
O683 O 0.73195 0.34262 0.5128 0.0
O684 O 0.77112 0.34235 0.4774 0.0
C685 C 0.67638 0.38022 0.5582 0.0
O686 O 0.6708 0.35745 0.5373 0.0
C687 C 0.78676 0.35815 0.37941 0.0
C688 C 0.81479 0.38764 0.34817 0.0
C689 C 0.79477 0.36706 0.34104 0.0
N690 N 0.79949 0.37408 0.40782 0.0
N691 N 0.8172 0.39095 0.38903 0.0
C692 C 0.76802 0.33391 0.38908 0.0
H693 H 0.77918 0.3195 0.40983 0.0
H694 H 0.74877 0.34138 0.40465 0.0
H695 H 0.76249 0.3218 0.36127 0.0
C696 C 0.70419 0.41498 0.44433 0.0
N697 N 0.72499 0.401 0.46367 0.0
N698 N 0.74803 0.40307 0.44209 0.0
C699 C 0.74316 0.4201 0.40983 0.0
C700 C 0.71485 0.42752 0.40887 0.0
C701 C 0.67466 0.41596 0.45951 0.0
H702 H 0.66928 0.39601 0.47477 0.0
H703 H 0.65974 0.41971 0.43409 0.0
H704 H 0.67264 0.43306 0.48227 0.0
O705 O 0.76419 0.40012 0.54469 0.0
O706 O 0.80135 0.39962 0.50351 0.0
H707 H 0.78521 0.43553 0.40454 0.0
H708 H 0.75959 0.45489 0.37546 0.0
C709 C 0.76599 0.43373 0.38569 0.0
H710 H 0.77062 0.42107 0.35826 0.0
H711 H 0.82852 0.40677 0.40356 0.0
O712 O 0.69888 0.3937 0.55215 0.0
C713 C 0.79013 0.40526 0.5381 0.0
Co714 Co 0.90209 0.47792 0.77048 0.0
Co715 Co 0.90406 0.52654 0.70982 0.0
C716 C 0.95683 0.49892 0.74586 0.0
O717 O 0.94312 0.48002 0.76427 0.0
O718 O 0.94389 0.51787 0.72622 0.0
C719 C 0.90561 0.42409 0.81158 0.0
O720 O 0.92355 0.41548 0.78387 0.0
C721 C 0.92349 0.53271 0.62892 0.0
C722 C 0.89475 0.56306 0.60087 0.0
C723 C 0.91423 0.54243 0.59156 0.0
N724 N 0.90895 0.54543 0.65883 0.0
N725 N 0.89258 0.56448 0.64202 0.0
C726 C 0.94566 0.51112 0.63625 0.0
H727 H 0.96251 0.52048 0.65505 0.0
H728 H 0.93667 0.49317 0.65323 0.0
H729 H 0.95547 0.50388 0.60737 0.0
C730 C 0.86847 0.45056 0.70293 0.0
N731 N 0.8834 0.47171 0.71987 0.0
N732 N 0.8815 0.49386 0.69639 0.0
C733 C 0.86386 0.48796 0.66505 0.0
C734 C 0.85567 0.46005 0.66722 0.0
C735 C 0.86499 0.42239 0.72197 0.0
H736 H 0.85829 0.42481 0.75426 0.0
H737 H 0.88544 0.4114 0.72176 0.0
H738 H 0.8493 0.40959 0.70528 0.0
O739 O 0.88668 0.5123 0.79832 0.0
O740 O 0.88612 0.54839 0.75567 0.0
H741 H 0.85191 0.52987 0.6503 0.0
H742 H 0.83212 0.50375 0.62366 0.0
C743 C 0.85317 0.50916 0.63533 0.0
H744 H 0.86728 0.51021 0.60865 0.0
H745 H 0.8778 0.57622 0.65809 0.0
O746 O 0.89457 0.44812 0.80915 0.0
C747 C 0.88099 0.53788 0.7909 0.0
Co748 Co 0.80639 0.65341 0.01786 0.0
Co749 Co 0.75778 0.65251 0.95606 0.0
C750 C 0.78368 0.70667 0.99084 0.0
O751 O 0.80291 0.69412 1.01034 0.0
O752 O 0.76551 0.69273 0.97087 0.0
C753 C 0.85139 0.66383 0.0755 0.0
O754 O 0.84385 0.69021 0.07501 0.0
C755 C 0.74999 0.66887 0.87432 0.0
C756 C 0.72217 0.63663 0.84867 0.0
C757 C 0.74154 0.65701 0.83779 0.0
N758 N 0.73804 0.65488 0.90536 0.0
N759 N 0.72037 0.63641 0.8899 0.0
C760 C 0.76959 0.69304 0.87995 0.0
H761 H 0.75899 0.70935 0.89826 0.0
H762 H 0.78852 0.6862 0.89691 0.0
H763 H 0.7756 0.70266 0.85036 0.0
C764 C 0.83498 0.62044 0.9515 0.0
N765 N 0.81294 0.63452 0.9675 0.0
N766 N 0.79106 0.6311 0.94374 0.0
C767 C 0.79806 0.61313 0.91334 0.0
C768 C 0.82628 0.60641 0.9164 0.0
C769 C 0.86329 0.61903 0.97088 0.0
H770 H 0.86244 0.60435 0.99709 0.0
H771 H 0.86925 0.63992 0.98283 0.0
H772 H 0.87929 0.61153 0.94881 0.0
O773 O 0.77202 0.63808 0.04722 0.0
O774 O 0.737 0.63512 1.00263 0.0
H775 H 0.75697 0.59794 0.899 0.0
H776 H 0.78477 0.57907 0.87437 0.0
C777 C 0.77773 0.60006 0.88426 0.0
H778 H 0.77615 0.61299 0.85645 0.0
H779 H 0.70967 0.62151 0.9072 0.0
O780 O 0.83833 0.6462 0.05356 0.0
C781 C 0.74661 0.63163 0.0388 0.0
Co782 Co 0.63323 0.55641 0.27021 0.0
Co783 Co 0.63425 0.51016 0.205 0.0
C784 C 0.5796 0.53434 0.23959 0.0
O785 O 0.59222 0.55236 0.26147 0.0
O786 O 0.5936 0.51696 0.21834 0.0
C787 C 0.62737 0.6099 0.31269 0.0
O788 O 0.61037 0.61869 0.28388 0.0
C789 C 0.62119 0.50338 0.12082 0.0
C790 C 0.64784 0.46861 0.09995 0.0
C791 C 0.63067 0.49001 0.08594 0.0
N792 N 0.63265 0.49107 0.15372 0.0
N793 N 0.64778 0.46957 0.14125 0.0
C794 C 0.60622 0.53094 0.12221 0.0
H795 H 0.58394 0.52769 0.1138 0.0
H796 H 0.60719 0.54048 0.15298 0.0
H797 H 0.61546 0.5457 0.09978 0.0
C798 C 0.66742 0.58699 0.20518 0.0
N799 N 0.65305 0.56487 0.22066 0.0
N800 N 0.65526 0.54381 0.19507 0.0
C801 C 0.67205 0.55147 0.16379 0.0
C802 C 0.67947 0.57923 0.168 0.0
C803 C 0.66937 0.61498 0.22526 0.0
H804 H 0.67562 0.61241 0.2577 0.0
H805 H 0.64848 0.62509 0.22457 0.0
H806 H 0.68466 0.62868 0.20942 0.0
O807 O 0.64956 0.52206 0.29747 0.0
O808 O 0.65266 0.48877 0.25024 0.0
H809 H 0.68438 0.51056 0.14362 0.0
H810 H 0.70456 0.53883 0.12211 0.0
C811 C 0.6833 0.53221 0.13194 0.0
H812 H 0.66946 0.53345 0.10502 0.0
H813 H 0.66023 0.45739 0.16043 0.0
O814 O 0.63853 0.5859 0.31052 0.0
C815 C 0.65676 0.49739 0.28682 0.0
Co816 Co 0.30752 0.38253 0.52052 0.0
Co817 Co 0.25981 0.37905 0.4581 0.0
C818 C 0.28743 0.32734 0.49686 0.0
O819 O 0.30591 0.34144 0.5157 0.0
O820 O 0.26874 0.33974 0.47586 0.0
C821 C 0.36077 0.37946 0.56366 0.0
O822 O 0.3687 0.35945 0.53873 0.0
C823 C 0.25363 0.36002 0.37701 0.0
C824 C 0.22107 0.38705 0.35053 0.0
C825 C 0.24236 0.36854 0.34013 0.0
N826 N 0.24079 0.37384 0.40748 0.0
N827 N 0.22053 0.38922 0.3917 0.0
C828 C 0.27749 0.34013 0.3834 0.0
H829 H 0.27058 0.32308 0.40392 0.0
H830 H 0.29527 0.35112 0.39824 0.0
H831 H 0.28446 0.33029 0.35442 0.0
C832 C 0.33558 0.41461 0.45193 0.0
N833 N 0.31412 0.40028 0.46914 0.0
N834 N 0.29245 0.40105 0.44445 0.0
C835 C 0.29902 0.41707 0.41172 0.0
C836 C 0.32677 0.42557 0.41451 0.0
C837 C 0.36407 0.4171 0.47061 0.0
H838 H 0.36257 0.42905 0.49963 0.0
H839 H 0.37203 0.39596 0.47799 0.0
H840 H 0.37908 0.42754 0.44972 0.0
O841 O 0.27232 0.3974 0.5475 0.0
O842 O 0.23758 0.39774 0.50244 0.0
H843 H 0.25718 0.42921 0.39553 0.0
H844 H 0.28435 0.44922 0.37096 0.0
C845 C 0.27825 0.42803 0.38151 0.0
H846 H 0.27777 0.41429 0.35437 0.0
H847 H 0.20844 0.40335 0.40838 0.0
O848 O 0.3372 0.39132 0.55926 0.0
C849 C 0.24685 0.40285 0.53839 0.0
Co850 Co 0.40243 0.55414 0.26867 0.0
Co851 Co 0.40231 0.50667 0.20576 0.0
C852 C 0.45642 0.53317 0.23956 0.0
O853 O 0.44347 0.55167 0.26003 0.0
O854 O 0.44274 0.51481 0.21963 0.0
C855 C 0.40741 0.60758 0.31075 0.0
O856 O 0.42511 0.61606 0.28264 0.0
C857 C 0.41815 0.50152 0.12283 0.0
C858 C 0.39337 0.46647 0.09832 0.0
C859 C 0.41083 0.48834 0.08678 0.0
N860 N 0.40564 0.48834 0.15418 0.0
N861 N 0.39151 0.46675 0.13957 0.0
C862 C 0.43199 0.52963 0.12627 0.0
H863 H 0.42803 0.53947 0.15628 0.0
H864 H 0.42439 0.54388 0.10193 0.0
H865 H 0.45493 0.5271 0.12234 0.0
C866 C 0.36738 0.58267 0.20353 0.0
N867 N 0.38221 0.56111 0.21942 0.0
N868 N 0.38016 0.53954 0.19475 0.0
C869 C 0.36318 0.54641 0.16325 0.0
C870 C 0.35506 0.57408 0.16689 0.0
C871 C 0.36583 0.61109 0.22242 0.0
H872 H 0.38724 0.61994 0.2245 0.0
H873 H 0.35258 0.62547 0.2042 0.0
H874 H 0.35735 0.60937 0.25391 0.0
O875 O 0.38776 0.51938 0.2963 0.0
O876 O 0.38484 0.48452 0.25172 0.0
H877 H 0.33119 0.53232 0.12159 0.0
H878 H 0.36649 0.52736 0.10485 0.0
C879 C 0.35257 0.5264 0.13178 0.0
H880 H 0.35199 0.50491 0.14419 0.0
H881 H 0.37852 0.45397 0.15712 0.0
O882 O 0.39596 0.58372 0.30841 0.0
C883 C 0.3813 0.49409 0.28797 0.0
Co884 Co 0.22737 0.65095 0.01884 0.0
Co885 Co 0.27714 0.65252 0.95933 0.0
C886 C 0.24995 0.70523 0.99507 0.0
O887 O 0.23068 0.69162 0.01279 0.0
O888 O 0.26909 0.69236 0.97559 0.0
C889 C 0.18616 0.66137 0.07975 0.0
O890 O 0.19962 0.68509 0.08449 0.0
C891 C 0.28541 0.67033 0.8785 0.0
C892 C 0.31698 0.64153 0.85345 0.0
C893 C 0.29649 0.66067 0.84213 0.0
N894 N 0.29746 0.65654 0.90963 0.0
N895 N 0.31718 0.64009 0.89469 0.0
C896 C 0.26236 0.69132 0.88376 0.0
H897 H 0.26989 0.70849 0.90366 0.0
H898 H 0.24403 0.6814 0.89874 0.0
H899 H 0.25599 0.70088 0.85434 0.0
C900 C 0.20047 0.61962 0.9495 0.0
N901 N 0.22203 0.63326 0.96752 0.0
N902 N 0.24426 0.63143 0.94408 0.0
C903 C 0.23788 0.61524 0.91137 0.0
C904 C 0.20976 0.60786 0.91291 0.0
C905 C 0.17157 0.61816 0.96695 0.0
H906 H 0.16632 0.63814 0.98238 0.0
H907 H 0.15589 0.6136 0.94277 0.0
H908 H 0.17085 0.60126 0.9901 0.0
O909 O 0.26111 0.63517 0.0486 0.0
O910 O 0.2972 0.63368 1.00569 0.0
H911 H 0.27962 0.60129 0.89789 0.0
H912 H 0.25233 0.58156 0.8731 0.0
C913 C 0.25893 0.60281 0.8828 0.0
H914 H 0.26043 0.61574 0.85495 0.0
H915 H 0.3285 0.62569 0.91201 0.0
O916 O 0.19469 0.64392 0.05326 0.0
C917 C 0.28671 0.62911 0.04112 0.0
Co918 Co 0.13473 0.47867 0.76891 0.0
Co919 Co 0.13298 0.5259 0.70567 0.0
C920 C 0.07993 0.49902 0.74179 0.0
O921 O 0.09392 0.48109 0.76173 0.0
O922 O 0.09251 0.51754 0.72058 0.0
C923 C 0.13005 0.4259 0.81257 0.0
O924 O 0.11136 0.41723 0.78595 0.0
C925 C 0.11851 0.5335 0.62205 0.0
C926 C 0.14412 0.56917 0.60167 0.0
C927 C 0.1272 0.54762 0.58739 0.0
N928 N 0.13013 0.54559 0.65505 0.0
N929 N 0.14466 0.56759 0.64292 0.0
C930 C 0.10427 0.50554 0.62288 0.0
H931 H 0.10576 0.49568 0.65337 0.0
H932 H 0.11368 0.49131 0.59984 0.0
H933 H 0.08184 0.50828 0.61494 0.0
C934 C 0.1681 0.44972 0.70269 0.0
N935 N 0.15374 0.47149 0.71898 0.0
N936 N 0.15495 0.49278 0.69375 0.0
C937 C 0.17112 0.48549 0.66152 0.0
C938 C 0.17916 0.4578 0.66507 0.0
C939 C 0.17062 0.42167 0.72241 0.0
H940 H 0.17907 0.42415 0.75381 0.0
H941 H 0.14951 0.41215 0.72489 0.0
H942 H 0.18439 0.40752 0.70456 0.0
O943 O 0.14946 0.51332 0.79606 0.0
O944 O 0.15096 0.54802 0.75131 0.0
H945 H 0.20225 0.49893 0.61821 0.0
H946 H 0.16658 0.5035 0.60318 0.0
C947 C 0.18112 0.50503 0.62927 0.0
H948 H 0.18196 0.5267 0.64102 0.0
H949 H 0.15712 0.57975 0.66216 0.0
O950 O 0.14181 0.44949 0.80861 0.0
C951 C 0.15527 0.53865 0.78741 0.0
Co952 Co 0.31063 0.65278 0.50491 0.0
Co953 Co 0.26097 0.65226 0.56505 0.0
C954 C 0.28715 0.70623 0.52998 0.0
O955 O 0.30696 0.69362 0.51179 0.0
O956 O 0.26861 0.69237 0.54929 0.0
C957 C 0.35092 0.66195 0.44137 0.0
O958 O 0.33765 0.68568 0.43578 0.0
C959 C 0.25128 0.67026 0.64595 0.0
C960 C 0.22358 0.63805 0.67176 0.0
C961 C 0.24232 0.65903 0.68264 0.0
N962 N 0.24029 0.65537 0.61501 0.0
N963 N 0.22262 0.63693 0.6305 0.0
C964 C 0.27046 0.69475 0.64013 0.0
H965 H 0.28981 0.688 0.62411 0.0
H966 H 0.27578 0.70498 0.6696 0.0
H967 H 0.25983 0.7105 0.62082 0.0
C968 C 0.33832 0.62036 0.57257 0.0
N969 N 0.31651 0.63434 0.55576 0.0
N970 N 0.29433 0.63122 0.57903 0.0
C971 C 0.30093 0.61357 0.60997 0.0
C972 C 0.32924 0.60671 0.60777 0.0
C973 C 0.36656 0.61798 0.5532 0.0
H974 H 0.36555 0.60179 0.52897 0.0
H975 H 0.37249 0.63814 0.53887 0.0
H976 H 0.3827 0.61164 0.57575 0.0
O977 O 0.27672 0.63709 0.47509 0.0
O978 O 0.24092 0.63395 0.51827 0.0
H979 H 0.25967 0.59876 0.62368 0.0
H980 H 0.28684 0.58071 0.65066 0.0
C981 C 0.28013 0.60135 0.6391 0.0
H982 H 0.27797 0.61518 0.66591 0.0
H983 H 0.21252 0.62149 0.6134 0.0
O984 O 0.34283 0.64553 0.46947 0.0
C985 C 0.25126 0.63038 0.48251 0.0
Co986 Co 0.1365 0.55732 0.25238 0.0
Co987 Co 0.13482 0.50985 0.31513 0.0
C988 C 0.0817 0.53674 0.27955 0.0
O989 O 0.09566 0.55481 0.2598 0.0
O990 O 0.09435 0.51817 0.30049 0.0
C991 C 0.12948 0.60992 0.21064 0.0
O992 O 0.10985 0.6165 0.23706 0.0
C993 C 0.1201 0.50231 0.39852 0.0
C994 C 0.14533 0.46654 0.4194 0.0
C995 C 0.12839 0.48817 0.43332 0.0
N996 N 0.13186 0.49012 0.36572 0.0
N997 N 0.14618 0.46807 0.37814 0.0
C998 C 0.10609 0.53037 0.39749 0.0
H999 H 0.10791 0.54026 0.36707 0.0
H1000 H 0.11545 0.54451 0.42071 0.0
H1001 H 0.08358 0.52777 0.40506 0.0
C1002 C 0.17091 0.58558 0.31802 0.0
N1003 N 0.15589 0.56412 0.30209 0.0
N1004 N 0.15705 0.54275 0.32715 0.0
C1005 C 0.17384 0.54964 0.35889 0.0
C1006 C 0.18257 0.57713 0.35512 0.0
C1007 C 0.17328 0.61373 0.29856 0.0
H1008 H 0.15199 0.62213 0.29291 0.0
H1009 H 0.18504 0.62861 0.31815 0.0
H1010 H 0.18391 0.61164 0.26853 0.0
O1011 O 0.1512 0.52291 0.22428 0.0
O1012 O 0.15268 0.48813 0.26906 0.0
H1013 H 0.20472 0.53555 0.40213 0.0
H1014 H 0.16889 0.53191 0.4172 0.0
C1015 C 0.18343 0.52994 0.39115 0.0
H1016 H 0.18374 0.50825 0.37947 0.0
H1017 H 0.15869 0.45581 0.35912 0.0
O1018 O 0.14299 0.58723 0.21376 0.0
C1019 C 0.15697 0.49757 0.23296 0.0
Co1020 Co 0.23099 0.38432 1.00367 0.0
Co1021 Co 0.28036 0.38218 0.06431 0.0
C1022 C 0.25288 0.32984 0.02695 0.0
O1023 O 0.23371 0.34365 1.00946 0.0
O1024 O 0.27208 0.34247 0.04673 0.0
C1025 C 0.19014 0.37436 0.94191 0.0
O1026 O 0.20295 0.35024 0.93803 0.0
C1027 C 0.28949 0.36198 0.14414 0.0
C1028 C 0.31641 0.39391 0.17241 0.0
C1029 C 0.2977 0.37255 0.18164 0.0
N1030 N 0.30077 0.37767 0.1143 0.0
N1031 N 0.318 0.39592 0.13128 0.0
C1032 C 0.27152 0.33682 0.13651 0.0
H1033 H 0.25182 0.34315 0.12109 0.0
H1034 H 0.26676 0.32543 0.16522 0.0
H1035 H 0.28289 0.32226 0.11606 0.0
C1036 C 0.20377 0.41615 0.07189 0.0
N1037 N 0.2254 0.40201 0.05493 0.0
N1038 N 0.24726 0.40352 0.07917 0.0
C1039 C 0.24056 0.42008 0.11138 0.0
C1040 C 0.21263 0.42812 0.10863 0.0
C1041 C 0.17511 0.41742 0.05352 0.0
H1042 H 0.16981 0.39701 0.03938 0.0
H1043 H 0.15914 0.42288 0.07687 0.0
H1044 H 0.17491 0.43345 0.02903 0.0
O1045 O 0.26518 0.39975 0.97471 0.0
O1046 O 0.30085 0.4012 0.01839 0.0
H1047 H 0.25426 0.45273 0.15226 0.0
H1048 H 0.26299 0.41802 0.16771 0.0
C1049 C 0.26123 0.43199 0.14096 0.0
H1050 H 0.28182 0.43462 0.12594 0.0
H1051 H 0.32817 0.41184 0.1153 0.0
O1052 O 0.19876 0.39175 0.96849 0.0
C1053 C 0.29073 0.40573 0.98273 0.0
Co1054 Co 0.4058 0.47952 0.75457 0.0
Co1055 Co 0.40613 0.52819 0.81634 0.0
C1056 C 0.45996 0.50159 0.78308 0.0
O1057 O 0.44697 0.48317 0.76242 0.0
O1058 O 0.44637 0.5198 0.80332 0.0
C1059 C 0.41582 0.4383 0.69234 0.0
O1060 O 0.44051 0.45014 0.68846 0.0
C1061 C 0.42095 0.53561 0.89936 0.0
C1062 C 0.39541 0.5709 0.9212 0.0
C1063 C 0.41284 0.5495 0.9345 0.0
N1064 N 0.40886 0.54792 0.86692 0.0
N1065 N 0.3943 0.56966 0.87993 0.0
C1066 C 0.43504 0.50757 0.89773 0.0
H1067 H 0.43174 0.49708 0.86802 0.0
H1068 H 0.42707 0.49373 0.92235 0.0
H1069 H 0.45788 0.51037 0.90245 0.0
C1070 C 0.37216 0.45193 0.82111 0.0
N1071 N 0.38651 0.47358 0.8046 0.0
N1072 N 0.38416 0.49542 0.82862 0.0
C1073 C 0.36731 0.48864 0.86035 0.0
C1074 C 0.35967 0.46073 0.85749 0.0
C1075 C 0.37094 0.42337 0.80264 0.0
H1076 H 0.39165 0.41785 0.78949 0.0
H1077 H 0.36468 0.40752 0.82566 0.0
H1078 H 0.35541 0.42337 0.7774 0.0
O1079 O 0.38978 0.51319 0.72533 0.0
O1080 O 0.38941 0.54911 0.76875 0.0
H1081 H 0.33484 0.50289 0.901 0.0
H1082 H 0.36995 0.50826 0.91831 0.0
C1083 C 0.35628 0.50888 0.89112 0.0
H1084 H 0.35569 0.53025 0.87826 0.0
H1085 H 0.38145 0.58184 0.86131 0.0
O1086 O 0.39881 0.44747 0.71902 0.0
C1087 C 0.38445 0.53881 0.73329 0.0
C1088 C 0.1865 0.08102 0.2107 0.0
C1089 C 0.17134 0.05682 0.20023 0.0
C1090 C 0.19986 0.09733 0.18071 0.0
C1091 C 0.19813 0.09081 0.13874 0.0
H1092 H 0.18875 0.08708 0.24246 0.0
H1093 H 0.21206 0.11506 0.19061 0.0
S1094 S 0.16167 0.02933 0.09462 0.0
N1095 N 0.15581 0.02687 0.14427 0.0
N1096 N 0.18077 0.05779 0.0884 0.0
C1097 C 0.18296 0.06678 0.12768 0.0
C1098 C 0.16964 0.04981 0.15824 0.0
C1099 C 0.19234 0.94678 0.4304 0.0
C1100 C 0.19934 0.94508 0.38863 0.0
C1101 C 0.20824 0.93325 0.46069 0.0
C1102 C 0.23245 0.9179 0.45072 0.0
H1103 H 0.17454 0.95904 0.43991 0.0
H1104 H 0.20181 0.93546 0.49231 0.0
S1105 S 0.26109 0.90837 0.34573 0.0
N1106 N 0.23281 0.92767 0.33896 0.0
N1107 N 0.26295 0.90234 0.39538 0.0
C1108 C 0.23993 0.91627 0.4089 0.0
C1109 C 0.2234 0.92981 0.37805 0.0
C1110 C 0.33753 0.97517 0.64262 0.0
C1111 C 0.34499 0.94706 0.63615 0.0
C1112 C 0.3501 0.99124 0.67372 0.0
C1113 C 0.37049 0.97983 0.70006 0.0
H1114 H 0.32152 0.98473 0.6238 0.0
H1115 H 0.34334 1.01268 0.6777 0.0
S1116 S 0.4006 0.90862 0.69179 0.0
N1117 N 0.37652 0.90958 0.65547 0.0
N1118 N 0.39956 0.93942 0.71463 0.0
C1119 C 0.37896 0.95209 0.69282 0.0
C1120 C 0.3665 0.93589 0.66059 0.0
C1121 C 0.31808 0.10351 0.88175 0.0
C1122 C 0.34416 0.09151 0.89094 0.0
C1123 C 0.3018 0.11645 0.91233 0.0
C1124 C 0.31103 0.11823 0.95338 0.0
H1125 H 0.30985 0.10222 0.85093 0.0
H1126 H 0.28165 0.12496 0.90361 0.0
S1127 S 0.37917 0.09167 0.9922 0.0
N1128 N 0.37927 0.08331 0.9432 0.0
N1129 N 0.34906 0.10767 1.00053 0.0
C1130 C 0.33759 0.10694 0.96251 0.0
C1131 C 0.354 0.09357 0.93139 0.0
C1132 C 0.19604 0.93413 0.84127 0.0
C1133 C 0.19594 0.94225 0.88272 0.0
C1134 C 0.18271 0.95027 0.81094 0.0
C1135 C 0.16904 0.97554 0.82062 0.0
H1136 H 0.20663 0.91511 0.83215 0.0
H1137 H 0.18364 0.9431 0.77954 0.0
S1138 S 0.16325 1.00628 0.92499 0.0
N1139 N 0.18128 0.97724 0.93188 0.0
N1140 N 0.15627 1.00763 0.87557 0.0
C1141 C 0.16873 0.98377 0.86223 0.0
C1142 C 0.18212 0.96715 0.89304 0.0
C1143 C 0.29909 0.91791 0.11326 0.0
C1144 C 0.30851 0.91577 0.07233 0.0
C1145 C 0.3157 0.93025 0.14404 0.0
C1146 C 0.34233 0.94117 0.13517 0.0
H1147 H 0.27853 0.91024 0.12165 0.0
H1148 H 0.30728 0.93207 0.1747 0.0
S1149 S 0.37792 0.93973 0.03436 0.0
N1150 N 0.34726 0.92486 0.02568 0.0
N1151 N 0.37806 0.94801 0.08338 0.0
C1152 C 0.35235 0.93865 0.09488 0.0
C1153 C 0.3356 0.92597 0.06357 0.0
C1154 C 0.35064 0.06251 0.39102 0.0
C1155 C 0.34226 0.09005 0.38262 0.0
C1156 C 0.3635 0.04579 0.36081 0.0
C1157 C 0.36869 0.05594 0.32086 0.0
H1158 H 0.34661 0.05358 0.42087 0.0
H1159 H 0.36913 0.02459 0.36887 0.0
S1160 S 0.35241 0.1276 0.28471 0.0
N1161 N 0.34106 0.12722 0.33241 0.0
N1162 N 0.36536 0.09623 0.27589 0.0
C1163 C 0.36095 0.0838 0.31264 0.0
C1164 C 0.3477 0.10068 0.34335 0.0
C1165 C 0.18705 0.08921 0.59141 0.0
C1166 C 0.19515 0.08882 0.63288 0.0
C1167 C 0.20346 0.10259 0.56134 0.0
C1168 C 0.22899 0.1158 0.57132 0.0
H1169 H 0.16787 0.07892 0.58206 0.0
H1170 H 0.19632 0.10203 0.52991 0.0
S1171 S 0.25972 0.12026 0.67587 0.0
N1172 N 0.23036 0.10256 0.68235 0.0
N1173 N 0.26123 0.12766 0.62661 0.0
C1174 C 0.23717 0.11562 0.61296 0.0
C1175 C 0.22029 0.10219 0.64348 0.0
C1176 C 0.85551 0.95322 0.81182 0.0
C1177 C 0.86903 0.97856 0.82164 0.0
C1178 C 0.84267 0.93673 0.84213 0.0
C1179 C 0.84309 0.94459 0.88367 0.0
H1180 H 0.85425 0.9463 0.78032 0.0
H1181 H 0.83201 0.91775 0.83288 0.0
S1182 S 0.87596 1.00837 0.92641 0.0
N1183 N 0.88234 1.01024 0.87685 0.0
N1184 N 0.85818 0.97914 0.9332 0.0
C1185 C 0.85694 0.96942 0.89419 0.0
C1186 C 0.86986 0.98641 0.86338 0.0
C1187 C 0.83354 0.12018 0.57587 0.0
C1188 C 0.80409 0.1175 0.576 0.0
C1189 C 0.85018 0.10822 0.60694 0.0
C1190 C 0.8382 0.09258 0.63887 0.0
H1191 H 0.84384 0.13172 0.55168 0.0
H1192 H 0.87266 0.11083 0.60566 0.0
S1193 S 0.76251 0.07921 0.65421 0.0
N1194 N 0.76383 0.09828 0.61218 0.0
N1195 N 0.79531 0.07534 0.66929 0.0
C1196 C 0.80894 0.08999 0.63981 0.0
C1197 C 0.79188 0.10251 0.6087 0.0
C1198 C 0.68089 0.06558 0.39437 0.0
C1199 C 0.69218 0.09205 0.38593 0.0
C1200 C 0.66896 0.04908 0.36311 0.0
C1201 C 0.66765 0.05843 0.32209 0.0
H1202 H 0.6821 0.05719 0.42507 0.0
H1203 H 0.66097 0.02864 0.37121 0.0
S1204 S 0.69295 0.12739 0.28507 0.0
N1205 N 0.70033 0.12752 0.33439 0.0
N1206 N 0.67796 0.09692 0.27581 0.0
C1207 C 0.67825 0.08535 0.31374 0.0
C1208 C 0.6905 0.10199 0.34554 0.0
C1209 C 0.70683 0.93439 0.06101 0.0
C1210 C 0.73047 0.91828 0.07127 0.0
C1211 C 0.69092 0.94812 0.09118 0.0
C1212 C 0.6973 0.94587 0.13312 0.0
H1213 H 0.70091 0.93707 0.02927 0.0
H1214 H 0.67359 0.96094 0.08144 0.0
S1215 S 0.75733 0.90683 0.17679 0.0
N1216 N 0.75969 0.90126 0.12705 0.0
N1217 N 0.72957 0.92692 0.18324 0.0
C1218 C 0.72075 0.92975 0.14397 0.0
C1219 C 0.7373 0.91603 0.11324 0.0
C1220 C 0.85929 0.06491 0.12836 0.0
C1221 C 0.84785 0.09122 0.13732 0.0
C1222 C 0.87153 0.04843 0.15922 0.0
C1223 C 0.873 0.05765 0.20031 0.0
H1224 H 0.85786 0.0566 0.0976 0.0
H1225 H 0.87957 0.02807 0.15077 0.0
S1226 S 0.84755 0.12626 0.23853 0.0
N1227 N 0.83984 0.12651 0.18932 0.0
N1228 N 0.86281 0.09589 0.24722 0.0
C1229 C 0.86234 0.08446 0.20916 0.0
C1230 C 0.84978 0.1011 0.17775 0.0
C1231 C 0.69017 0.08975 0.93056 0.0
C1232 C 0.69837 0.08933 0.88916 0.0
C1233 C 0.70675 0.10272 0.96079 0.0
C1234 C 0.73253 0.11552 0.95106 0.0
H1235 H 0.67074 0.07986 0.9397 0.0
H1236 H 0.69945 0.10227 0.99214 0.0
S1237 S 0.76373 0.11941 0.84678 0.0
N1238 N 0.73403 0.10233 0.83999 0.0
N1239 N 0.76524 0.12674 0.8961 0.0
C1240 C 0.74088 0.11521 0.9095 0.0
C1241 C 0.72383 0.10214 0.87879 0.0
C1242 C 0.68153 0.95253 0.70814 0.0
C1243 C 0.6694 0.9787 0.69927 0.0
C1244 C 0.69461 0.93643 0.67751 0.0
C1245 C 0.69579 0.94552 0.63656 0.0
H1246 H 0.6815 0.94464 0.73917 0.0
H1247 H 0.7042 0.91676 0.68604 0.0
S1248 S 0.66738 1.01203 0.59641 0.0
N1249 N 0.65941 1.01263 0.64555 0.0
N1250 N 0.684 0.98225 0.5887 0.0
C1251 C 0.68347 0.97128 0.627 0.0
C1252 C 0.67031 0.98785 0.65811 0.0
C1253 C 0.83665 0.93053 0.45987 0.0
C1254 C 0.81084 0.91766 0.45048 0.0
C1255 C 0.853 0.94357 0.42941 0.0
C1256 C 0.84454 0.94399 0.3881 0.0
H1257 H 0.8441 0.93107 0.49115 0.0
H1258 H 0.87242 0.95358 0.43834 0.0
S1259 S 0.77902 0.91362 0.34657 0.0
N1260 N 0.77788 0.90627 0.39587 0.0
N1261 N 0.8086 0.93082 0.33943 0.0
C1262 C 0.81907 0.93103 0.37807 0.0
C1263 C 0.80228 0.91789 0.40899 0.0
C1264 C 0.68348 0.58196 0.70714 0.0
C1265 C 0.66996 0.55655 0.69762 0.0
C1266 C 0.69594 0.59858 0.67657 0.0
C1267 C 0.69514 0.5909 0.63495 0.0
H1268 H 0.68503 0.58885 0.73863 0.0
H1269 H 0.70655 0.61759 0.68568 0.0
S1270 S 0.66206 0.52699 0.59285 0.0
N1271 N 0.65626 0.52496 0.64256 0.0
N1272 N 0.6796 0.55633 0.58572 0.0
C1273 C 0.68128 0.56597 0.62473 0.0
C1274 C 0.66878 0.54881 0.65584 0.0
C1275 C 0.69001 0.44368 0.92928 0.0
C1276 C 0.6981 0.44284 0.8878 0.0
C1277 C 0.70591 0.43044 0.96001 0.0
C1278 C 0.7309 0.41605 0.95074 0.0
H1279 H 0.67127 0.45491 0.93816 0.0
H1280 H 0.69883 0.43206 0.9914 0.0
S1281 S 0.76122 0.40776 0.84645 0.0
N1282 N 0.73259 0.42642 0.83905 0.0
N1283 N 0.76253 0.40156 0.89609 0.0
C1284 C 0.739 0.41485 0.9091 0.0
C1285 C 0.72262 0.42816 0.87788 0.0
C1286 C 0.86382 0.48643 0.16092 0.0
C1287 C 0.86997 0.47644 0.20065 0.0
C1288 C 0.85092 0.46936 0.13117 0.0
C1289 C 0.84342 0.44162 0.13988 0.0
H1290 H 0.86869 0.5078 0.15269 0.0
H1291 H 0.84611 0.47817 0.10148 0.0
S1292 S 0.85676 0.4042 0.23702 0.0
N1293 N 0.86888 0.43596 0.2455 0.0
N1294 N 0.84431 0.40434 0.18991 0.0
C1295 C 0.8499 0.4311 0.17885 0.0
C1296 C 0.86326 0.44834 0.20907 0.0
C1297 C 0.79757 0.61349 0.40658 0.0
C1298 C 0.80809 0.61871 0.44635 0.0
C1299 C 0.81425 0.60102 0.37589 0.0
C1300 C 0.84213 0.59319 0.38363 0.0
H1301 H 0.77609 0.61868 0.39913 0.0
H1302 H 0.80501 0.59673 0.34628 0.0
S1303 S 0.88078 0.60387 0.48067 0.0
N1304 N 0.84917 0.61615 0.49029 0.0
N1305 N 0.88001 0.59267 0.43292 0.0
C1306 C 0.85314 0.59883 0.42264 0.0
C1307 C 0.83632 0.6116 0.45382 0.0
C1308 C 0.66627 0.4822 0.35972 0.0
C1309 C 0.67117 0.47904 0.31739 0.0
C1310 C 0.68023 0.46553 0.38893 0.0
C1311 C 0.69992 0.44506 0.37724 0.0
H1312 H 0.65145 0.49769 0.37045 0.0
H1313 H 0.6759 0.46915 0.42099 0.0
S1314 S 0.72218 0.43041 0.27022 0.0
N1315 N 0.69836 0.4551 0.26553 0.0
N1316 N 0.72416 0.42374 0.31964 0.0
C1317 C 0.70527 0.44213 0.33492 0.0
C1318 C 0.69099 0.459 0.30528 0.0
C1319 C 0.81077 0.45226 0.62781 0.0
C1320 C 0.83845 0.44412 0.63671 0.0
C1321 C 0.79534 0.43949 0.59613 0.0
C1322 C 0.80704 0.41823 0.57164 0.0
H1323 H 0.80097 0.46879 0.64534 0.0
H1324 H 0.77421 0.44671 0.59029 0.0
S1325 S 0.87695 0.38608 0.58671 0.0
N1326 N 0.87557 0.411 0.62169 0.0
N1327 N 0.84698 0.38761 0.56153 0.0
C1328 C 0.83426 0.40909 0.58134 0.0
C1329 C 0.84976 0.42175 0.61414 0.0
C1330 C 0.87217 0.58422 0.82639 0.0
C1331 C 0.8679 0.55509 0.8242 0.0
C1332 C 0.86013 0.60042 0.85795 0.0
C1333 C 0.84268 0.58836 0.88779 0.0
H1334 H 0.88508 0.59456 0.80374 0.0
H1335 H 0.86405 0.62267 0.8586 0.0
S1336 S 0.82539 0.5132 0.89722 0.0
N1337 N 0.84567 0.51488 0.85636 0.0
N1338 N 0.82269 0.54555 0.91437 0.0
C1339 C 0.83874 0.55933 0.8866 0.0
C1340 C 0.85133 0.5427 0.85509 0.0
C1341 C 0.72194 0.60622 0.14431 0.0
C1342 C 0.69483 0.59604 0.13669 0.0
C1343 C 0.73828 0.61793 0.1127 0.0
C1344 C 0.72823 0.61995 0.07206 0.0
H1345 H 0.73096 0.60419 0.17455 0.0
H1346 H 0.75921 0.62503 0.12018 0.0
S1347 S 0.65756 0.59745 0.03717 0.0
N1348 N 0.65807 0.5897 0.08634 0.0
N1349 N 0.68843 0.61145 0.02709 0.0
C1350 C 0.70071 0.61043 0.06455 0.0
C1351 C 0.68418 0.59854 0.09674 0.0
C1352 C 0.35637 0.45019 0.31188 0.0
C1353 C 0.36887 0.47615 0.32118 0.0
C1354 C 0.34333 0.43386 0.34232 0.0
C1355 C 0.34252 0.44248 0.38356 0.0
H1356 H 0.35613 0.44261 0.28066 0.0
H1357 H 0.33362 0.41431 0.33344 0.0
S1358 S 0.37178 0.50846 0.42486 0.0
N1359 N 0.37946 0.50945 0.37564 0.0
N1360 N 0.35491 0.47875 0.43205 0.0
C1361 C 0.35511 0.4681 0.39351 0.0
C1362 C 0.36825 0.48488 0.3626 0.0
C1363 C 0.34715 0.59165 0.09543 0.0
C1364 C 0.33823 0.59021 0.13645 0.0
C1365 C 0.33071 0.60461 0.06512 0.0
C1366 C 0.30435 0.61636 0.07433 0.0
H1367 H 0.36697 0.58242 0.0866 0.0
H1368 H 0.33856 0.60491 0.03405 0.0
S1369 S 0.27128 0.61751 0.1775 0.0
N1370 N 0.30138 0.60128 0.18477 0.0
N1371 N 0.27038 0.62562 0.12843 0.0
C1372 C 0.29531 0.61511 0.11553 0.0
C1373 C 0.31223 0.60208 0.14637 0.0
C1374 C 0.19467 0.59848 0.84036 0.0
C1375 C 0.19411 0.59088 0.882 0.0
C1376 C 0.18154 0.58201 0.81013 0.0
C1377 C 0.16767 0.55691 0.82016 0.0
H1378 H 0.20548 0.61733 0.83103 0.0
H1379 H 0.18284 0.58872 0.77856 0.0
S1380 S 0.16059 0.5276 0.92515 0.0
N1381 N 0.17874 0.55663 0.93169 0.0
N1382 N 0.1541 0.52565 0.87563 0.0
C1383 C 0.16687 0.54925 0.86196 0.0
C1384 C 0.18004 0.5662 0.89263 0.0
C1385 C 0.22149 0.43033 0.64233 0.0
C1386 C 0.19484 0.44125 0.63373 0.0
C1387 C 0.23786 0.41777 0.61149 0.0
C1388 C 0.22826 0.41545 0.57065 0.0
H1389 H 0.23012 0.43228 0.67284 0.0
H1390 H 0.25842 0.41009 0.6198 0.0
S1391 S 0.15885 0.43956 0.53318 0.0
N1392 N 0.15894 0.44799 0.58215 0.0
N1393 N 0.18941 0.42455 0.5243 0.0
C1394 C 0.20121 0.42575 0.56208 0.0
C1395 C 0.18465 0.43861 0.59351 0.0
C1396 C 0.3516 0.54472 0.67372 0.0
C1397 C 0.37163 0.55639 0.70046 0.0
C1398 C 0.33874 0.56078 0.64292 0.0
C1399 C 0.34559 0.58911 0.63716 0.0
H1400 H 0.34532 0.5231 0.67719 0.0
H1401 H 0.32302 0.55102 0.62375 0.0
S1402 S 0.40006 0.62839 0.69423 0.0
N1403 N 0.39967 0.59735 0.71628 0.0
N1404 N 0.37613 0.6272 0.65772 0.0
C1405 C 0.36672 0.60059 0.66207 0.0
C1406 C 0.37946 0.58439 0.69398 0.0
C1407 C 0.20703 0.60665 0.45761 0.0
C1408 C 0.23358 0.61814 0.44885 0.0
C1409 C 0.19045 0.59429 0.42689 0.0
C1410 C 0.19944 0.59309 0.38587 0.0
H1411 H 0.19909 0.60671 0.48865 0.0
H1412 H 0.17047 0.58525 0.43543 0.0
S1413 S 0.26691 0.61987 0.34587 0.0
N1414 N 0.26781 0.62749 0.39514 0.0
N1415 N 0.23657 0.60415 0.33803 0.0
C1416 C 0.22562 0.60473 0.37638 0.0
C1417 C 0.24268 0.61722 0.40764 0.0
C1418 C 0.18471 0.45516 0.21099 0.0
C1419 C 0.16958 0.47933 0.2004 0.0
C1420 C 0.19823 0.43882 0.18108 0.0
C1421 C 0.19671 0.44536 0.13912 0.0
H1422 H 0.18684 0.44918 0.24278 0.0
H1423 H 0.21036 0.42107 0.19102 0.0
S1424 S 0.16018 0.50655 0.09466 0.0
N1425 N 0.15414 0.50906 0.14426 0.0
N1426 N 0.1794 0.47817 0.08863 0.0
C1427 C 0.18148 0.46927 0.12795 0.0
C1428 C 0.16798 0.48622 0.15838 0.0
C1429 C 0.33417 0.43169 0.95974 0.0
C1430 C 0.30869 0.41838 0.94981 0.0
C1431 C 0.35071 0.44473 0.92958 0.0
C1432 C 0.3428 0.44468 0.88805 0.0
H1433 H 0.34118 0.43261 0.99121 0.0
H1434 H 0.36983 0.45515 0.93892 0.0
S1435 S 0.27859 0.41251 0.84509 0.0
N1436 N 0.27676 0.40576 0.89454 0.0
N1437 N 0.30796 0.43017 0.83846 0.0
C1438 C 0.31777 0.43109 0.87745 0.0
C1439 C 0.30072 0.41802 0.90812 0.0
C1440 C 0.2818 0.17113 0.297 0.0
C1441 C 0.25234 0.17106 0.30073 0.0
C1442 C 0.29491 0.17216 0.25882 0.0
C1443 C 0.27931 0.17176 0.22263 0.0
H1444 H 0.29513 0.16928 0.32358 0.0
H1445 H 0.31755 0.17254 0.25753 0.0
S1446 S 0.20136 0.17061 0.21556 0.0
N1447 N 0.20789 0.17139 0.26509 0.0
N1448 N 0.23229 0.17003 0.19298 0.0
C1449 C 0.24972 0.17129 0.22576 0.0
C1450 C 0.23636 0.17149 0.26486 0.0
C1451 C 0.12484 0.04416 0.50773 0.0
C1452 C 0.12273 0.02895 0.47119 0.0
C1453 C 0.12449 0.03067 0.54566 0.0
C1454 C 0.12157 1.0014 0.54869 0.0
H1455 H 0.1273 0.06666 0.50701 0.0
H1456 H 0.12737 0.04338 0.57272 0.0
S1457 S 0.11755 0.95139 0.46266 0.0
N1458 N 0.1205 0.98229 0.4407 0.0
N1459 N 0.11752 0.95755 0.5123 0.0
C1460 C 0.11976 0.98587 0.51259 0.0
C1461 C 0.12081 0.99946 0.47379 0.0
C1462 C 0.2418 0.87272 0.75902 0.0
C1463 C 0.25753 0.87273 0.72287 0.0
C1464 C 0.25498 0.87188 0.79723 0.0
C1465 C 0.28445 0.87055 0.80081 0.0
H1466 H 0.21914 0.87377 0.75779 0.0
H1467 H 0.24181 0.8732 0.82408 0.0
S1468 S 0.33537 0.87383 0.71592 0.0
N1469 N 0.3045 0.87502 0.69339 0.0
N1470 N 0.32889 0.87131 0.76528 0.0
C1471 C 0.30041 0.87128 0.76503 0.0
C1472 C 0.28709 0.8728 0.72607 0.0
C1473 C 0.38945 1.00666 0.99335 0.0
C1474 C 0.41483 0.99886 0.97476 0.0
C1475 C 0.38913 0.02334 0.02856 0.0
C1476 C 0.41418 0.032 0.04728 0.0
H1477 H 0.36963 1.00052 0.97994 0.0
H1478 H 0.36908 0.02897 0.0417 0.0
S1479 S 0.48614 1.01634 0.01156 0.0
N1480 N 0.46562 1.00084 0.97773 0.0
N1481 N 0.46502 0.03129 0.0451 0.0
C1482 C 0.43969 0.02397 0.02944 0.0
C1483 C 0.44002 1.00748 0.99304 0.0
C1484 C 0.77713 0.8999 0.74354 0.0
C1485 C 0.78537 0.87467 0.72507 0.0
C1486 C 0.75966 0.90007 0.77796 0.0
C1487 C 0.75084 0.875 0.79627 0.0
H1488 H 0.78356 0.91972 0.73062 0.0
H1489 H 0.75378 0.92001 0.79109 0.0
S1490 S 0.76717 0.80339 0.76033 0.0
N1491 N 0.7833 0.82401 0.72736 0.0
N1492 N 0.75155 0.82431 0.79347 0.0
C1493 C 0.75915 0.84964 0.77838 0.0
C1494 C 0.77633 0.84947 0.74264 0.0
C1495 C 0.91558 1.00286 0.47502 0.0
C1496 C 0.91741 0.03221 0.47126 0.0
C1497 C 0.91408 0.98992 0.5133 0.0
C1498 C 0.91386 1.00578 0.54931 0.0
H1499 H 0.9143 0.98962 0.44828 0.0
H1500 H 0.91265 0.96734 0.51467 0.0
S1501 S 0.91422 0.08347 0.5557 0.0
N1502 N 0.9172 0.0767 0.50645 0.0
N1503 N 0.91209 0.05279 0.57842 0.0
C1504 C 0.91437 0.03524 0.54592 0.0
C1505 C 0.91663 0.04831 0.50691 0.0
C1506 C 0.77803 0.1803 0.28111 0.0
C1507 C 0.78702 0.1554 0.29976 0.0
C1508 C 0.76207 0.17982 0.24506 0.0
C1509 C 0.75375 0.15441 0.22712 0.0
H1510 H 0.78324 0.20029 0.29471 0.0
H1511 H 0.75623 0.19946 0.23103 0.0
S1512 S 0.77154 0.08337 0.26418 0.0
N1513 N 0.7874 0.10464 0.29654 0.0
N1514 N 0.75503 0.10372 0.23137 0.0
C1515 C 0.76214 0.12938 0.24592 0.0
C1516 C 0.77952 0.12988 0.28141 0.0
C1517 C 0.62614 0.03228 0.97569 0.0
C1518 C 0.62274 1.00308 0.97227 0.0
C1519 C 0.62602 0.04568 0.01373 0.0
C1520 C 0.62298 0.03043 0.05003 0.0
H1521 H 0.62962 0.04501 0.94885 0.0
H1522 H 0.62878 0.06814 0.01474 0.0
S1523 S 0.61668 0.95291 0.05765 0.0
N1524 N 0.61754 0.95919 1.00808 0.0
N1525 N 0.61966 0.98371 0.08 0.0
C1526 C 0.62075 1.00096 0.04709 0.0
C1527 C 0.62017 0.98747 1.00814 0.0
C1528 C 0.75394 0.6577 0.72349 0.0
C1529 C 0.78335 0.65981 0.72 0.0
C1530 C 0.74067 0.65729 0.76165 0.0
C1531 C 0.75628 0.65851 0.79788 0.0
H1532 H 0.74091 0.65575 0.69659 0.0
H1533 H 0.71803 0.6558 0.76278 0.0
S1534 S 0.83415 0.65979 0.80515 0.0
N1535 N 0.8277 0.66106 0.75567 0.0
N1536 N 0.80327 0.65803 0.82763 0.0
C1537 C 0.78586 0.65905 0.79481 0.0
C1538 C 0.79924 0.66016 0.75584 0.0
C1539 C 0.60646 0.51246 0.02682 0.0
C1540 C 0.63147 0.50318 0.04502 0.0
C1541 C 0.6069 0.52917 0.99162 0.0
C1542 C 0.63237 0.5379 0.97415 0.0
H1543 H 0.58643 0.50685 0.04005 0.0
H1544 H 0.5872 0.53501 0.97759 0.0
S1545 S 0.70365 0.52024 0.01108 0.0
N1546 N 0.68239 0.50339 0.04233 0.0
N1547 N 0.68319 0.53723 0.97892 0.0
C1548 C 0.65749 0.5295 0.99284 0.0
C1549 C 0.65705 0.51131 0.02734 0.0
C1550 C 0.79524 0.36366 0.26541 0.0
C1551 C 0.77974 0.36289 0.30168 0.0
C1552 C 0.78202 0.36433 0.22731 0.0
C1553 C 0.75261 0.36282 0.22368 0.0
H1554 H 0.81784 0.36454 0.26662 0.0
H1555 H 0.79516 0.36712 0.20069 0.0
S1556 S 0.7018 0.35967 0.30898 0.0
N1557 N 0.73271 0.36172 0.33145 0.0
N1558 N 0.70831 0.35942 0.25941 0.0
C1559 C 0.73676 0.36083 0.25955 0.0
C1560 C 0.75016 0.36152 0.29863 0.0
C1561 C 0.91972 0.54426 0.51598 0.0
C1562 C 0.91683 0.5282 0.55142 0.0
C1563 C 0.91965 0.53178 0.47725 0.0
C1564 C 0.91788 0.50249 0.47244 0.0
H1565 H 0.92154 0.56675 0.51824 0.0
H1566 H 0.91986 0.54553 0.45108 0.0
S1567 S 0.90812 0.45101 0.55539 0.0
N1568 N 0.90951 0.48141 0.57905 0.0
N1569 N 0.91225 0.45792 0.5064 0.0
C1570 C 0.91506 0.48617 0.50767 0.0
C1571 C 0.91402 0.49895 0.5471 0.0
C1572 C 0.2986 0.37103 0.25777 0.0
C1573 C 0.28307 0.36924 0.22148 0.0
C1574 C 0.28539 0.37014 0.29595 0.0
C1575 C 0.25608 0.36699 0.2995 0.0
H1576 H 0.32114 0.37368 0.25666 0.0
H1577 H 0.29834 0.37289 0.3228 0.0
S1578 S 0.20528 0.36377 0.21425 0.0
N1579 N 0.23607 0.3671 0.1918 0.0
N1580 N 0.21185 0.36313 0.26376 0.0
C1581 C 0.24023 0.36549 0.26361 0.0
C1582 C 0.25354 0.36709 0.22459 0.0
C1583 C 0.38755 0.52837 0.9934 0.0
C1584 C 0.41303 0.53667 0.97559 0.0
C1585 C 0.38705 0.51078 0.02761 0.0
C1586 C 0.41203 0.50188 0.04625 0.0
H1587 H 0.3678 0.53467 0.97995 0.0
H1588 H 0.36695 0.50476 0.04019 0.0
S1589 S 0.48418 0.51887 0.01261 0.0
N1590 N 0.46381 0.535 0.9793 0.0
N1591 N 0.46288 0.50299 0.04497 0.0
C1592 C 0.43763 0.5105 0.02929 0.0
C1593 C 0.43813 0.52783 0.99383 0.0
C1594 C 0.24072 0.66006 0.75887 0.0
C1595 C 0.25662 0.66114 0.72287 0.0
C1596 C 0.25368 0.66038 0.79729 0.0
C1597 C 0.28309 0.66219 0.80128 0.0
H1598 H 0.21808 0.65857 0.75733 0.0
H1599 H 0.24043 0.65837 0.82396 0.0
S1600 S 0.3345 0.66211 0.71692 0.0
N1601 N 0.3038 0.66064 0.69394 0.0
N1602 N 0.3277 0.6633 0.7663 0.0
C1603 C 0.29924 0.66262 0.76568 0.0
C1604 C 0.28616 0.66169 0.72648 0.0
C1605 C 0.103 0.50937 0.49238 0.0
C1606 C 0.1284 0.5007 0.47469 0.0
C1607 C 0.10269 0.5258 0.52793 0.0
C1608 C 0.12776 0.53506 0.54602 0.0
H1609 H 0.08325 0.50354 0.47842 0.0
H1610 H 0.08272 0.53119 0.54156 0.0
S1611 S 0.19982 0.5186 0.511 0.0
N1612 N 0.17924 0.50149 0.47904 0.0
N1613 N 0.17866 0.53534 0.54253 0.0
C1614 C 0.15327 0.52726 0.52783 0.0
C1615 C 0.15359 0.50913 0.49322 0.0
C1616 C 0.15969 0.12125 0.91679 0.0
C1617 C 0.1686 0.14914 0.91306 0.0
C1618 C 0.14544 0.10799 0.88511 0.0
C1619 C 0.13912 0.12222 0.84879 0.0
H1620 H 0.16506 0.10895 0.94347 0.0
H1621 H 0.14047 0.08599 0.88831 0.0
S1622 S 0.15362 0.19651 0.82585 0.0
N1623 N 0.16708 0.19156 0.87183 0.0
N1624 N 0.13975 0.16627 0.81217 0.0
C1625 C 0.14549 0.15071 0.84586 0.0
C1626 C 0.16037 0.16431 0.87812 0.0
C1627 C 0.15105 0.88289 0.18161 0.0
C1628 C 0.13817 0.90889 0.17594 0.0
C1629 C 0.16535 0.87001 0.14923 0.0
C1630 C 0.16722 0.88303 0.11068 0.0
H1631 H 0.15204 0.87365 0.21181 0.0
H1632 H 0.17678 0.85093 0.15542 0.0
S1633 S 0.13208 0.94882 0.07952 0.0
N1634 N 0.12462 0.94539 0.12856 0.0
N1635 N 0.15101 0.92116 0.06744 0.0
C1636 C 0.15187 0.90767 0.10397 0.0
C1637 C 0.13749 0.92069 0.13682 0.0
C1638 C 0.37929 0.90264 0.35699 0.0
C1639 C 0.40541 0.91579 0.36217 0.0
C1640 C 0.36684 0.88797 0.38892 0.0
C1641 C 0.38022 0.88551 0.42693 0.0
H1642 H 0.36744 0.90517 0.32896 0.0
H1643 H 0.34579 0.87995 0.38464 0.0
S1644 S 0.45081 0.91143 0.4542 0.0
N1645 N 0.44598 0.92202 0.40663 0.0
N1646 N 0.42223 0.89397 0.46682 0.0
C1647 C 0.40748 0.89589 0.43141 0.0
C1648 C 0.42021 0.91116 0.39886 0.0
C1649 C 0.41689 0.11934 0.62249 0.0
C1650 C 0.40403 0.11822 0.66128 0.0
C1651 C 0.40408 0.13346 0.58993 0.0
C1652 C 0.37824 0.1468 0.59556 0.0
H1653 H 0.43579 0.10754 0.61636 0.0
H1654 H 0.41321 0.13196 0.55966 0.0
S1655 S 0.33896 0.155 0.69243 0.0
N1656 N 0.36639 0.13574 0.70462 0.0
N1657 N 0.34222 0.16166 0.64314 0.0
C1658 C 0.36666 0.1482 0.63484 0.0
C1659 C 0.37965 0.13408 0.6679 0.0
C1660 C 0.88139 0.90845 0.10379 0.0
C1661 C 0.86959 0.88175 0.1091 0.0
C1662 C 0.89586 0.92156 0.13542 0.0
C1663 C 0.89958 0.90829 0.17321 0.0
H1664 H 0.87803 0.92013 0.07585 0.0
H1665 H 0.90296 0.94287 0.13096 0.0
S1666 S 0.87712 0.83681 0.20097 0.0
N1667 N 0.86565 0.84113 0.15371 0.0
N1668 N 0.89349 0.86607 0.21321 0.0
C1669 C 0.89039 0.88069 0.17791 0.0
C1670 C 0.87524 0.86729 0.14573 0.0
C1671 C 0.88429 0.12819 0.9163 0.0
C1672 C 0.87063 0.1539 0.9103 0.0
C1673 C 0.89863 0.11516 0.88448 0.0
C1674 C 0.90031 0.12758 0.84574 0.0
H1675 H 0.88244 0.11708 0.94504 0.0
H1676 H 0.90709 0.09443 0.88955 0.0
S1677 S 0.87247 0.19667 0.81565 0.0
N1678 N 0.86279 0.19295 0.86386 0.0
N1679 N 0.89033 0.16821 0.80394 0.0
C1680 C 0.8893 0.15443 0.84021 0.0
C1681 C 0.87433 0.16772 0.87263 0.0
C1682 C 0.65301 0.12891 0.60746 0.0
C1683 C 0.66645 0.15475 0.61362 0.0
C1684 C 0.63931 0.11543 0.63944 0.0
C1685 C 0.63802 0.12757 0.67841 0.0
H1686 H 0.65467 0.11801 0.57849 0.0
H1687 H 0.63112 0.09459 0.63429 0.0
S1688 S 0.66525 0.19682 0.70913 0.0
N1689 N 0.67434 0.19361 0.66059 0.0
N1690 N 0.64795 0.16799 0.72076 0.0
C1691 C 0.6487 0.15452 0.68419 0.0
C1692 C 0.66304 0.16827 0.65163 0.0
C1693 C 0.62345 0.91437 0.39826 0.0
C1694 C 0.63673 0.91713 0.35995 0.0
C1695 C 0.63619 0.89938 0.43007 0.0
C1696 C 0.6624 0.8868 0.42418 0.0
H1697 H 0.60417 0.92546 0.40471 0.0
H1698 H 0.62662 0.89955 0.46012 0.0
S1699 S 0.70297 0.88289 0.32785 0.0
N1700 N 0.6753 0.90202 0.31645 0.0
N1701 N 0.6993 0.87445 0.37649 0.0
C1702 C 0.67451 0.88714 0.38518 0.0
C1703 C 0.6616 0.90214 0.35289 0.0
C1704 C 0.63823 0.6157 0.38566 0.0
C1705 C 0.63573 0.62787 0.34684 0.0
C1706 C 0.65319 0.62897 0.41669 0.0
C1707 C 0.66659 0.65472 0.40978 0.0
H1708 H 0.62998 0.59495 0.39134 0.0
H1709 H 0.65571 0.61805 0.44547 0.0
S1710 S 0.66272 0.69693 0.31474 0.0
N1711 N 0.64473 0.66833 0.30415 0.0
N1712 N 0.67335 0.69354 0.36257 0.0
C1713 C 0.66205 0.66832 0.37215 0.0
C1714 C 0.64649 0.65476 0.34054 0.0
C1715 C 0.63392 0.40206 0.58819 0.0
C1716 C 0.65952 0.38821 0.59353 0.0
C1717 C 0.62166 0.41674 0.62076 0.0
C1718 C 0.63489 0.41806 0.65928 0.0
H1719 H 0.62444 0.40325 0.55813 0.0
H1720 H 0.60283 0.42869 0.61485 0.0
S1721 S 0.70004 0.38103 0.68943 0.0
N1722 N 0.69603 0.3737 0.64043 0.0
N1723 N 0.673 0.40077 0.70188 0.0
C1724 C 0.65925 0.40207 0.66554 0.0
C1725 C 0.67163 0.38731 0.63248 0.0
C1726 C 0.88128 0.40617 0.91669 0.0
C1727 C 0.86798 0.38023 0.91083 0.0
C1728 C 0.89554 0.4192 0.88483 0.0
C1729 C 0.8975 0.40658 0.84622 0.0
H1730 H 0.87923 0.41743 0.94531 0.0
H1731 H 0.90376 0.44005 0.88978 0.0
S1732 S 0.87072 0.33691 0.81657 0.0
N1733 N 0.86083 0.34078 0.86468 0.0
N1734 N 0.88819 0.36558 0.80471 0.0
C1735 C 0.88684 0.37957 0.84083 0.0
C1736 C 0.87194 0.36626 0.87328 0.0
C1737 C 0.89482 0.61194 0.13325 0.0
C1738 C 0.9 0.62568 0.17039 0.0
C1739 C 0.8812 0.62547 0.10131 0.0
C1740 C 0.87183 0.65317 0.10554 0.0
H1741 H 0.90005 0.59004 0.12958 0.0
H1742 H 0.87649 0.61347 0.07403 0.0
S1743 S 0.8845 0.69962 0.19466 0.0
N1744 N 0.89829 0.66934 0.20816 0.0
N1745 N 0.87211 0.6951 0.14792 0.0
C1746 C 0.87923 0.66801 0.14118 0.0
C1747 C 0.89345 0.65414 0.17378 0.0
C1748 C 0.36517 0.39194 0.63623 0.0
C1749 C 0.37817 0.38823 0.59818 0.0
C1750 C 0.37866 0.40621 0.66772 0.0
C1751 C 0.40547 0.41783 0.662 0.0
H1752 H 0.34382 0.38495 0.64104 0.0
H1753 H 0.36719 0.40954 0.6959 0.0
S1754 S 0.44972 0.41035 0.56918 0.0
N1755 N 0.4202 0.3942 0.55741 0.0
N1756 N 0.44584 0.42168 0.61661 0.0
C1757 C 0.41963 0.41223 0.62504 0.0
C1758 C 0.40585 0.39728 0.59301 0.0
C1759 C 0.3728 0.66425 0.37188 0.0
C1760 C 0.37137 0.65179 0.41087 0.0
C1761 C 0.38701 0.65108 0.33961 0.0
C1762 C 0.40006 0.62518 0.34566 0.0
H1763 H 0.36128 0.68323 0.3654 0.0
H1764 H 0.38587 0.66006 0.30925 0.0
S1765 S 0.40726 0.58659 0.44311 0.0
N1766 N 0.38826 0.61428 0.45475 0.0
N1767 N 0.41418 0.58939 0.39383 0.0
C1768 C 0.401 0.61385 0.38507 0.0
C1769 C 0.38688 0.62725 0.41786 0.0
C1770 C 0.16377 0.66561 0.14849 0.0
C1771 C 0.16497 0.65253 0.10987 0.0
C1772 C 0.14931 0.65316 0.18103 0.0
C1773 C 0.13562 0.62753 0.17548 0.0
H1774 H 0.1759 0.68429 0.15461 0.0
H1775 H 0.15093 0.6623 0.21127 0.0
S1776 S 0.12742 0.58794 0.07893 0.0
N1777 N 0.14713 0.61502 0.06666 0.0
N1778 N 0.12047 0.59155 0.12811 0.0
C1779 C 0.13417 0.61585 0.13628 0.0
C1780 C 0.1487 0.62844 0.10325 0.0
C1781 C 0.14136 0.42226 0.88554 0.0
C1782 C 0.13832 0.40889 0.84762 0.0
C1783 C 0.15624 0.40971 0.91719 0.0
C1784 C 0.16905 0.38351 0.91175 0.0
H1785 H 0.1336 0.44333 0.88997 0.0
H1786 H 0.15918 0.42151 0.94517 0.0
S1787 S 0.16331 0.33826 0.81973 0.0
N1788 N 0.14598 0.36693 0.8075 0.0
N1789 N 0.17443 0.34299 0.86709 0.0
C1790 C 0.16392 0.3688 0.87511 0.0
C1791 C 0.14843 0.38163 0.84289 0.0
C1792 C 0.27528 0.25388 0.04055 0.0
C1793 C 0.25266 0.23851 0.0243 0.0
C1794 C 0.27527 0.28321 0.04091 0.0
C1795 C 0.25262 0.29863 0.02505 0.0
H1796 H 0.29328 0.24321 0.05327 0.0
H1797 H 0.29326 0.29383 0.0538 0.0
S1798 S 0.18829 0.26864 0.97805 0.0
N1799 N 0.20706 0.24116 0.99122 0.0
N1800 N 0.20699 0.29607 0.99189 0.0
C1801 C 0.22999 0.28355 1.00814 0.0
C1802 C 0.23002 0.25363 1.00776 0.0
C1803 C 1.00665 0.02068 0.29236 0.0
C1804 C 0.99139 0.99859 0.27451 0.0
C1805 C 0.03606 0.021 0.29228 0.0
C1806 C 0.0517 0.99915 0.2746 0.0
H1807 H 0.99583 0.03804 0.30659 0.0
H1808 H 0.04656 0.03865 0.30626 0.0
S1809 S 0.02206 0.93639 0.22314 0.0
N1810 N 0.99435 0.95434 0.23799 0.0
N1811 N 0.04945 0.95481 0.23808 0.0
C1812 C 0.03673 0.977 0.25625 0.0
C1813 C 1.00671 0.97673 0.25618 0.0
C1814 C 0.30924 0.75297 0.51544 0.0
C1815 C 0.28602 0.73747 0.52939 0.0
C1816 C 0.3091 0.78233 0.51534 0.0
C1817 C 0.28573 0.79766 0.52916 0.0
H1818 H 0.32793 0.74237 0.50486 0.0
H1819 H 0.3277 0.79307 0.50469 0.0
S1820 S 0.21867 0.76731 0.56618 0.0
N1821 N 0.23834 0.7399 0.55558 0.0
N1822 N 0.23809 0.79487 0.5554 0.0
C1823 C 0.26213 0.78245 0.54252 0.0
C1824 C 0.26227 0.7525 0.54262 0.0
C1825 C 0.50549 1.01538 0.79915 0.0
C1826 C 0.48997 0.03628 0.779 0.0
C1827 C 0.53491 1.01514 0.79837 0.0
C1828 C 0.5503 0.03587 0.77757 0.0
H1829 H 0.49488 0.99891 0.81576 0.0
H1830 H 0.54563 0.99848 0.81437 0.0
S1831 S 0.51993 0.09545 0.71972 0.0
N1832 N 0.49246 0.07839 0.73744 0.0
N1833 N 0.54753 0.07798 0.73603 0.0
C1834 C 0.53507 0.05691 0.75717 0.0
C1835 C 0.50506 0.05712 0.7579 0.0
C1836 C 0.27184 0.781 0.97746 0.0
C1837 C 0.25039 0.79657 0.99642 0.0
C1838 C 0.2716 0.75166 0.97742 0.0
C1839 C 0.24989 0.73644 0.99633 0.0
H1840 H 0.28907 0.79151 0.96236 0.0
H1841 H 0.28864 0.74087 0.96229 0.0
S1842 S 0.18864 0.76701 0.0506 0.0
N1843 N 0.20678 0.79431 0.03489 0.0
N1844 N 0.20631 0.73942 0.03482 0.0
C1845 C 0.22836 0.75173 0.01564 0.0
C1846 C 0.22861 0.78164 0.01569 0.0
C1847 C 0.53362 0.02116 0.22632 0.0
C1848 C 0.54924 0.99951 0.24453 0.0
C1849 C 0.5042 0.0207 0.22573 0.0
C1850 C 0.48892 0.99869 0.24367 0.0
H1851 H 0.54414 0.0388 0.21241 0.0
H1852 H 0.49338 0.03792 0.21119 0.0
S1853 S 0.51952 0.93679 0.29572 0.0
N1854 N 0.54693 0.95529 0.28114 0.0
N1855 N 0.49186 0.95456 0.28034 0.0
C1856 C 0.50423 0.97696 0.26228 0.0
C1857 C 0.53424 0.97736 0.26269 0.0
C1858 C 0.26543 0.2514 0.48083 0.0
C1859 C 0.28718 0.23588 0.49905 0.0
C1860 C 0.2657 0.28074 0.4805 0.0
C1861 C 0.28765 0.29609 0.49863 0.0
H1862 H 0.24792 0.24087 0.46646 0.0
H1863 H 0.24845 0.29142 0.46576 0.0
S1864 S 0.34947 0.26577 0.55159 0.0
N1865 N 0.33121 0.23835 0.53649 0.0
N1866 N 0.33162 0.29333 0.53614 0.0
C1867 C 0.30938 0.2809 0.51758 0.0
C1868 C 0.30916 0.25093 0.51776 0.0
C1869 C 0.03361 0.05413 0.75968 0.0
C1870 C 0.04871 0.03101 0.74457 0.0
C1871 C 1.00416 0.05461 0.75947 0.0
C1872 C 0.98837 0.03199 0.74421 0.0
H1873 H 0.0446 0.07227 0.77137 0.0
H1874 H 0.99373 0.0731 0.77102 0.0
S1875 S 1.01755 0.96552 0.70354 0.0
N1876 N 0.04539 0.98432 0.71537 0.0
N1877 N 0.9903 0.98509 0.71543 0.0
C1878 C 1.00318 1.00847 0.72975 0.0
C1879 C 0.0332 1.00803 0.72981 0.0
C1880 C 0.80532 0.78266 1.00721 0.0
C1881 C 0.7831 0.79804 0.98996 0.0
C1882 C 0.8052 0.75332 1.00752 0.0
C1883 C 0.7828 0.7379 0.99074 0.0
H1884 H 0.82319 0.79334 0.0204 0.0
H1885 H 0.82302 0.74268 0.02085 0.0
S1886 S 0.71865 0.76795 0.94364 0.0
N1887 N 0.73762 0.79542 0.95647 0.0
N1888 N 0.73708 0.7405 0.95793 0.0
C1889 C 0.76019 0.75299 0.97398 0.0
C1890 C 0.76042 0.78292 0.97335 0.0
C1891 C 0.72863 0.25327 0.50837 0.0
C1892 C 0.75219 0.23785 0.49536 0.0
C1893 C 0.72891 0.28267 0.50944 0.0
C1894 C 0.75283 0.298 0.49783 0.0
H1895 H 0.70957 0.24258 0.51725 0.0
H1896 H 0.71001 0.29342 0.51884 0.0
S1897 S 0.82101 0.26768 0.46516 0.0
N1898 N 0.80065 0.24029 0.47269 0.0
N1899 N 0.80151 0.29518 0.47582 0.0
C1900 C 0.77684 0.28279 0.48603 0.0
C1901 C 0.77643 0.25289 0.48446 0.0
C1902 C 0.80707 0.25113 0.01439 0.0
C1903 C 0.78466 0.23566 0.03102 0.0
C1904 C 0.80664 0.28046 0.01338 0.0
C1905 C 0.78372 0.29574 0.02875 0.0
H1906 H 0.82536 0.24054 1.00237 0.0
H1907 H 0.82466 0.2912 1.00079 0.0
S1908 S 0.71875 0.26533 0.07311 0.0
N1909 N 0.73834 0.23798 0.06194 0.0
N1910 N 0.73721 0.29288 0.05918 0.0
C1911 C 0.76084 0.28052 0.04461 0.0
C1912 C 0.7614 0.25062 0.046 0.0
C1913 C 0.73318 0.78353 0.50927 0.0
C1914 C 0.75449 0.79861 0.52948 0.0
C1915 C 0.733 0.75414 0.50841 0.0
C1916 C 0.75418 0.73838 0.52759 0.0
H1917 H 0.71629 0.79447 0.49405 0.0
H1918 H 0.71596 0.74375 0.49266 0.0
S1919 S 0.81536 0.76756 0.58384 0.0
N1920 N 0.79762 0.79528 0.56888 0.0
N1921 N 0.79764 0.7404 0.56658 0.0
C1922 C 0.77584 0.7532 0.54753 0.0
C1923 C 0.77589 0.78313 0.54867 0.0
C1924 C 0.5361 0.48459 0.75673 0.0
C1925 C 0.55168 0.50177 0.78343 0.0
C1926 C 0.50664 0.48462 0.75691 0.0
C1927 C 0.49131 0.50184 0.7838 0.0
H1928 H 0.54672 0.47103 0.73518 0.0
H1929 H 0.49583 0.4711 0.7355 0.0
S1930 S 0.52184 0.54975 0.86161 0.0
N1931 N 0.54929 0.53584 0.83867 0.0
N1932 N 0.4942 0.53593 0.839 0.0
C1933 C 0.50661 0.51893 0.81103 0.0
C1934 C 0.53663 0.51889 0.81084 0.0
C1935 C 0.03471 0.51604 0.29744 0.0
C1936 C 0.05034 0.53715 0.27794 0.0
C1937 C 1.00528 0.51574 0.2962 0.0
C1938 C 0.98995 0.53663 0.27562 0.0
H1939 H 0.04526 0.49943 0.3138 0.0
H1940 H 0.99451 0.49883 0.31158 0.0
S1941 S 0.02061 0.59682 0.21946 0.0
N1942 N 0.04801 0.57963 0.23709 0.0
N1943 N 0.99292 0.57914 0.23509 0.0
C1944 C 1.00529 0.55788 0.25588 0.0
C1945 C 0.03532 0.55814 0.257 0.0
C1946 C 0.03283 0.51985 0.72488 0.0
C1947 C 0.04858 0.49847 0.74349 0.0
C1948 C 1.00339 0.51997 0.72627 0.0
C1949 C 0.98821 0.49859 0.74604 0.0
H1950 H 0.04328 0.53682 0.70916 0.0
H1951 H 0.9925 0.53707 0.7116 0.0
S1952 S 0.01925 0.43758 0.79974 0.0
N1953 N 0.04653 0.45526 0.78266 0.0
N1954 N 0.99147 0.45538 0.78492 0.0
C1955 C 1.00369 0.47708 0.76491 0.0
C1956 C 0.0337 0.47703 0.76367 0.0
C1957 C 0.50311 0.55019 0.26579 0.0
C1958 C 0.4878 0.53308 0.23869 0.0
C1959 C 0.53259 0.55046 0.26581 0.0
C1960 C 0.54822 0.53367 0.23868 0.0
H1961 H 0.49228 0.56346 0.28749 0.0
H1962 H 0.54317 0.56393 0.28752 0.0
S1963 S 0.51841 0.48613 0.15981 0.0
N1964 N 0.49075 0.49948 0.1829 0.0
N1965 N 0.54585 0.50008 0.18278 0.0
C1966 C 0.53318 0.51667 0.21103 0.0
C1967 C 0.50314 0.51636 0.21108 0.0
loop_
_geom_bond_atom_site_label_1
_geom_bond_atom_site_label_2
_geom_bond_distance
_geom_bond_site_symmetry_2
_ccdc_geom_bond_type
Co0 O3 1.970 1_556 S
Co0 N17 1.989 1_556 S
Co0 O25 1.967 . S
Co0 O32 1.920 . S
Co1 O4 1.966 . S
Co1 N10 2.022 . S
Co1 N18 1.993 . S
Co1 O26 1.941 . S
C2 O3 1.258 . S
C2 O4 1.263 . S
O3 Co0 1.970 1_554 S
O3 C2 1.258 . S
O4 Co1 1.966 . S
O4 C2 1.263 . S
C5 O6 1.235 . S
C5 O32 1.289 . S
O6 C5 1.235 . S
C7 C9 1.400 . S
C7 N10 1.351 . S
C7 C12 1.501 . S
C8 C9 1.387 . S
C8 N11 1.341 . S
C9 C7 1.400 . S
C9 C8 1.387 . S
N10 Co1 2.022 . S
N10 C7 1.351 . S
N10 N11 1.365 . S
N11 C8 1.341 . S
N11 N10 1.365 . S
N11 H31 0.862 . S
C12 C7 1.501 . S
C12 H13 0.961 . S
C12 H14 0.961 . S
C12 H15 0.960 . S
H13 C12 0.961 . S
H14 C12 0.961 . S
H15 C12 0.960 . S
C16 N17 1.342 . S
C16 C20 1.401 . S
C16 C21 1.499 . S
N17 Co0 1.989 1_554 S
N17 C16 1.342 . S
N17 N18 1.388 . S
N18 Co1 1.993 . S
N18 N17 1.388 . S
N18 C19 1.346 . S
C19 N18 1.346 . S
C19 C20 1.396 . S
C19 C29 1.510 . S
C20 C16 1.401 . S
C20 C19 1.396 . S
C21 C16 1.499 . S
C21 H22 0.959 1_554 S
C21 H23 0.960 . S
C21 H24 0.961 . S
H22 C21 0.959 1_556 S
H23 C21 0.960 . S
H24 C21 0.961 . S
O25 Co0 1.967 . S
O25 C33 1.258 . S
O26 Co1 1.941 . S
O26 C33 1.266 1_554 S
H27 C29 0.959 . S
H28 C29 0.961 . S
C29 C19 1.510 . S
C29 H27 0.959 . S
C29 H28 0.961 . S
C29 H30 0.960 . S
H30 C29 0.960 . S
H31 N11 0.862 . S
O32 Co0 1.920 . S
O32 C5 1.289 . S
C33 O25 1.258 . S
C33 O26 1.266 1_556 S
Co34 O37 1.970 . S
Co34 N51 1.989 . S
Co34 O59 1.967 . S
Co34 O66 1.920 . S
Co35 O38 1.966 . S
Co35 N44 2.022 . S
Co35 N52 1.993 . S
Co35 O60 1.941 . S
C36 O37 1.258 . S
C36 O38 1.263 . S
O37 Co34 1.970 . S
O37 C36 1.258 . S
O38 Co35 1.966 . S
O38 C36 1.263 . S
C39 O40 1.235 . S
C39 O66 1.289 . S
O40 C39 1.235 . S
C41 C43 1.400 . S
C41 N44 1.351 . S
C41 C46 1.501 . S
C42 C43 1.387 . S
C42 N45 1.341 . S
C43 C41 1.400 . S
C43 C42 1.387 . S
N44 Co35 2.022 . S
N44 C41 1.351 . S
N44 N45 1.365 . S
N45 C42 1.341 . S
N45 N44 1.365 . S
N45 H65 0.862 1_565 S
C46 C41 1.501 . S
C46 H47 0.961 . S
C46 H48 0.961 . S
C46 H49 0.960 . S
H47 C46 0.961 . S
H48 C46 0.961 . S
H49 C46 0.960 . S
C50 N51 1.342 . S
C50 C54 1.401 . S
C50 C55 1.499 . S
N51 Co34 1.989 . S
N51 C50 1.342 . S
N51 N52 1.388 . S
N52 Co35 1.993 . S
N52 N51 1.388 . S
N52 C53 1.346 . S
C53 N52 1.346 . S
C53 C54 1.396 . S
C53 C63 1.510 . S
C54 C50 1.401 . S
C54 C53 1.396 . S
C55 C50 1.499 . S
C55 H56 0.959 . S
C55 H57 0.960 . S
C55 H58 0.961 . S
H56 C55 0.959 . S
H57 C55 0.960 . S
H58 C55 0.961 . S
O59 Co34 1.967 . S
O59 C67 1.258 . S
O60 Co35 1.941 . S
O60 C67 1.266 . S
H61 C63 0.959 . S
H62 C63 0.961 . S
C63 C53 1.510 . S
C63 H61 0.959 . S
C63 H62 0.961 . S
C63 H64 0.960 . S
H64 C63 0.960 . S
H65 N45 0.862 1_545 S
O66 Co34 1.920 . S
O66 C39 1.289 . S
C67 O59 1.258 . S
C67 O60 1.266 . S
Co68 O71 1.970 . S
Co68 N85 1.989 . S
Co68 O93 1.967 . S
Co68 O100 1.920 . S
Co69 O72 1.966 . S
Co69 N78 2.022 . S
Co69 N86 1.993 . S
Co69 O94 1.941 . S
C70 O71 1.258 . S
C70 O72 1.263 . S
O71 Co68 1.970 . S
O71 C70 1.258 . S
O72 Co69 1.966 . S
O72 C70 1.263 . S
C73 O74 1.235 . S
C73 O100 1.289 . S
O74 C73 1.235 . S
C75 C77 1.400 . S
C75 N78 1.351 . S
C75 C80 1.501 . S
C76 C77 1.387 . S
C76 N79 1.341 . S
C77 C75 1.400 . S
C77 C76 1.387 . S
N78 Co69 2.022 . S
N78 C75 1.351 . S
N78 N79 1.365 . S
N79 C76 1.341 . S
N79 N78 1.365 . S
N79 H99 0.862 . S
C80 C75 1.501 . S
C80 H81 0.961 . S
C80 H82 0.961 . S
C80 H83 0.960 . S
H81 C80 0.961 . S
H82 C80 0.961 . S
H83 C80 0.960 . S
C84 N85 1.342 . S
C84 C88 1.401 . S
C84 C89 1.499 . S
N85 Co68 1.989 . S
N85 C84 1.342 . S
N85 N86 1.388 . S
N86 Co69 1.993 . S
N86 N85 1.388 . S
N86 C87 1.346 . S
C87 N86 1.346 . S
C87 C88 1.396 . S
C87 C97 1.510 . S
C88 C84 1.401 . S
C88 C87 1.396 . S
C89 C84 1.499 . S
C89 H90 0.959 . S
C89 H91 0.960 . S
C89 H92 0.961 . S
H90 C89 0.959 . S
H91 C89 0.960 . S
H92 C89 0.961 . S
O93 Co68 1.967 . S
O93 C101 1.258 . S
O94 Co69 1.941 . S
O94 C101 1.266 . S
H95 C97 0.959 . S
H96 C97 0.961 . S
C97 C87 1.510 . S
C97 H95 0.959 . S
C97 H96 0.961 . S
C97 H98 0.960 . S
H98 C97 0.960 . S
H99 N79 0.862 . S
O100 Co68 1.920 . S
O100 C73 1.289 . S
C101 O93 1.258 . S
C101 O94 1.266 . S
Co102 O105 1.970 . S
Co102 N119 1.989 . S
Co102 O127 1.967 . S
Co102 O134 1.920 . S
Co103 O106 1.966 . S
Co103 N112 2.022 . S
Co103 N120 1.993 . S
Co103 O128 1.941 . S
C104 O105 1.258 . S
C104 O106 1.263 . S
O105 Co102 1.970 . S
O105 C104 1.258 . S
O106 Co103 1.966 . S
O106 C104 1.263 . S
C107 O108 1.235 . S
C107 O134 1.289 . S
O108 C107 1.235 . S
C109 C111 1.400 . S
C109 N112 1.351 . S
C109 C114 1.501 . S
C110 C111 1.387 . S
C110 N113 1.341 . S
C111 C109 1.400 . S
C111 C110 1.387 . S
N112 Co103 2.022 . S
N112 C109 1.351 . S
N112 N113 1.365 . S
N113 C110 1.341 . S
N113 N112 1.365 . S
N113 H133 0.862 1_545 S
C114 C109 1.501 . S
C114 H115 0.961 . S
C114 H116 0.961 . S
C114 H117 0.960 . S
H115 C114 0.961 . S
H116 C114 0.961 . S
H117 C114 0.960 . S
C118 N119 1.342 . S
C118 C122 1.401 . S
C118 C123 1.499 . S
N119 Co102 1.989 . S
N119 C118 1.342 . S
N119 N120 1.388 . S
N120 Co103 1.993 . S
N120 N119 1.388 . S
N120 C121 1.346 . S
C121 N120 1.346 . S
C121 C122 1.396 . S
C121 C131 1.510 . S
C122 C118 1.401 . S
C122 C121 1.396 . S
C123 C118 1.499 . S
C123 H124 0.959 . S
C123 H125 0.960 . S
C123 H126 0.961 . S
H124 C123 0.959 . S
H125 C123 0.960 . S
H126 C123 0.961 . S
O127 Co102 1.967 . S
O127 C135 1.258 . S
O128 Co103 1.941 . S
O128 C135 1.266 . S
H129 C131 0.959 . S
H130 C131 0.961 . S
C131 C121 1.510 . S
C131 H129 0.959 . S
C131 H130 0.961 . S
C131 H132 0.960 . S
H132 C131 0.960 . S
H133 N113 0.862 1_565 S
O134 Co102 1.920 . S
O134 C107 1.289 . S
C135 O127 1.258 . S
C135 O128 1.266 . S
Co136 O139 1.970 1_554 S
Co136 N153 1.989 1_554 S
Co136 O161 1.967 . S
Co136 O168 1.920 . S
Co137 O140 1.966 . S
Co137 N146 2.022 . S
Co137 N154 1.993 . S
Co137 O162 1.941 . S
C138 O139 1.258 . S
C138 O140 1.263 . S
O139 Co136 1.970 1_556 S
O139 C138 1.258 . S
O140 Co137 1.966 . S
O140 C138 1.263 . S
C141 O142 1.235 . S
C141 O168 1.289 . S
O142 C141 1.235 . S
C143 C145 1.400 . S
C143 N146 1.351 . S
C143 C148 1.501 . S
C144 C145 1.387 . S
C144 N147 1.341 . S
C145 C143 1.400 . S
C145 C144 1.387 . S
N146 Co137 2.022 . S
N146 C143 1.351 . S
N146 N147 1.365 . S
N147 C144 1.341 . S
N147 N146 1.365 . S
N147 H167 0.862 . S
C148 C143 1.501 . S
C148 H149 0.961 . S
C148 H150 0.961 . S
C148 H151 0.960 . S
H149 C148 0.961 . S
H150 C148 0.961 . S
H151 C148 0.960 . S
C152 N153 1.342 . S
C152 C156 1.401 . S
C152 C157 1.499 . S
N153 Co136 1.989 1_556 S
N153 C152 1.342 . S
N153 N154 1.388 . S
N154 Co137 1.993 . S
N154 N153 1.388 . S
N154 C155 1.346 . S
C155 N154 1.346 . S
C155 C156 1.396 . S
C155 C165 1.510 . S
C156 C152 1.401 . S
C156 C155 1.396 . S
C157 C152 1.499 . S
C157 H158 0.959 1_556 S
C157 H159 0.960 . S
C157 H160 0.961 . S
H158 C157 0.959 1_554 S
H159 C157 0.960 . S
H160 C157 0.961 . S
O161 Co136 1.967 . S
O161 C169 1.258 . S
O162 Co137 1.941 . S
O162 C169 1.266 1_556 S
H163 C165 0.959 . S
H164 C165 0.961 . S
C165 C155 1.510 . S
C165 H163 0.959 . S
C165 H164 0.961 . S
C165 H166 0.960 . S
H166 C165 0.960 . S
H167 N147 0.862 . S
O168 Co136 1.920 . S
O168 C141 1.289 . S
C169 O161 1.258 . S
C169 O162 1.266 1_554 S
Co170 O173 1.970 . S
Co170 N187 1.989 . S
Co170 O195 1.967 . S
Co170 O202 1.920 . S
Co171 O174 1.966 . S
Co171 N180 2.022 . S
Co171 N188 1.993 . S
Co171 O196 1.941 . S
C172 O173 1.258 . S
C172 O174 1.263 . S
O173 Co170 1.970 . S
O173 C172 1.258 . S
O174 Co171 1.966 . S
O174 C172 1.263 . S
C175 O176 1.235 . S
C175 O202 1.289 . S
O176 C175 1.235 . S
C177 C179 1.400 . S
C177 N180 1.351 . S
C177 C182 1.501 . S
C178 C179 1.387 . S
C178 N181 1.341 . S
C179 C177 1.400 . S
C179 C178 1.387 . S
N180 Co171 2.022 . S
N180 C177 1.351 . S
N180 N181 1.365 . S
N181 C178 1.341 . S
N181 N180 1.365 . S
N181 H201 0.862 1_565 S
C182 C177 1.501 . S
C182 H183 0.961 . S
C182 H184 0.961 . S
C182 H185 0.960 . S
H183 C182 0.961 . S
H184 C182 0.961 . S
H185 C182 0.960 . S
C186 N187 1.342 . S
C186 C190 1.401 . S
C186 C191 1.499 . S
N187 Co170 1.989 . S
N187 C186 1.342 . S
N187 N188 1.388 . S
N188 Co171 1.993 . S
N188 N187 1.388 . S
N188 C189 1.346 . S
C189 N188 1.346 . S
C189 C190 1.396 . S
C189 C199 1.510 . S
C190 C186 1.401 . S
C190 C189 1.396 . S
C191 C186 1.499 . S
C191 H192 0.959 . S
C191 H193 0.960 . S
C191 H194 0.961 . S
H192 C191 0.959 . S
H193 C191 0.960 . S
H194 C191 0.961 . S
O195 Co170 1.967 . S
O195 C203 1.258 . S
O196 Co171 1.941 . S
O196 C203 1.266 . S
H197 C199 0.959 . S
H198 C199 0.961 . S
C199 C189 1.510 . S
C199 H197 0.959 . S
C199 H198 0.961 . S
C199 H200 0.960 . S
H200 C199 0.960 . S
H201 N181 0.862 1_545 S
O202 Co170 1.920 . S
O202 C175 1.289 . S
C203 O195 1.258 . S
C203 O196 1.266 . S
Co204 O207 1.970 . S
Co204 N221 1.989 . S
Co204 O229 1.967 . S
Co204 O236 1.920 . S
Co205 O208 1.966 . S
Co205 N214 2.022 . S
Co205 N222 1.993 . S
Co205 O230 1.941 . S
C206 O207 1.258 . S
C206 O208 1.263 . S
O207 Co204 1.970 . S
O207 C206 1.258 . S
O208 Co205 1.966 . S
O208 C206 1.263 . S
C209 O210 1.235 . S
C209 O236 1.289 . S
O210 C209 1.235 . S
C211 C213 1.400 . S
C211 N214 1.351 . S
C211 C216 1.501 . S
C212 C213 1.387 . S
C212 N215 1.341 . S
C213 C211 1.400 . S
C213 C212 1.387 . S
N214 Co205 2.022 . S
N214 C211 1.351 . S
N214 N215 1.365 . S
N215 C212 1.341 . S
N215 N214 1.365 . S
N215 H235 0.862 . S
C216 C211 1.501 . S
C216 H217 0.961 . S
C216 H218 0.961 . S
C216 H219 0.960 . S
H217 C216 0.961 . S
H218 C216 0.961 . S
H219 C216 0.960 . S
C220 N221 1.342 . S
C220 C224 1.401 . S
C220 C225 1.499 . S
N221 Co204 1.989 . S
N221 C220 1.342 . S
N221 N222 1.388 . S
N222 Co205 1.993 . S
N222 N221 1.388 . S
N222 C223 1.346 . S
C223 N222 1.346 . S
C223 C224 1.396 . S
C223 C233 1.510 . S
C224 C220 1.401 . S
C224 C223 1.396 . S
C225 C220 1.499 . S
C225 H226 0.959 . S
C225 H227 0.960 . S
C225 H228 0.961 . S
H226 C225 0.959 . S
H227 C225 0.960 . S
H228 C225 0.961 . S
O229 Co204 1.967 . S
O229 C237 1.258 . S
O230 Co205 1.941 . S
O230 C237 1.266 . S
H231 C233 0.959 . S
H232 C233 0.961 . S
C233 C223 1.510 . S
C233 H231 0.959 . S
C233 H232 0.961 . S
C233 H234 0.960 . S
H234 C233 0.960 . S
H235 N215 0.862 . S
O236 Co204 1.920 . S
O236 C209 1.289 . S
C237 O229 1.258 . S
C237 O230 1.266 . S
Co238 O241 1.970 . S
Co238 N255 1.989 . S
Co238 O263 1.967 . S
Co238 O270 1.920 . S
Co239 O242 1.966 . S
Co239 N248 2.022 . S
Co239 N256 1.993 . S
Co239 O264 1.941 . S
C240 O241 1.258 . S
C240 O242 1.263 . S
O241 Co238 1.970 . S
O241 C240 1.258 . S
O242 Co239 1.966 . S
O242 C240 1.263 . S
C243 O244 1.235 . S
C243 O270 1.289 . S
O244 C243 1.235 . S
C245 C247 1.400 . S
C245 N248 1.351 . S
C245 C250 1.501 . S
C246 C247 1.387 . S
C246 N249 1.341 . S
C247 C245 1.400 . S
C247 C246 1.387 . S
N248 Co239 2.022 . S
N248 C245 1.351 . S
N248 N249 1.365 . S
N249 C246 1.341 . S
N249 N248 1.365 . S
N249 H269 0.862 1_545 S
C250 C245 1.501 . S
C250 H251 0.961 . S
C250 H252 0.961 . S
C250 H253 0.960 . S
H251 C250 0.961 . S
H252 C250 0.961 . S
H253 C250 0.960 . S
C254 N255 1.342 . S
C254 C258 1.401 . S
C254 C259 1.499 . S
N255 Co238 1.989 . S
N255 C254 1.342 . S
N255 N256 1.388 . S
N256 Co239 1.993 . S
N256 N255 1.388 . S
N256 C257 1.346 . S
C257 N256 1.346 . S
C257 C258 1.396 . S
C257 C267 1.510 . S
C258 C254 1.401 . S
C258 C257 1.396 . S
C259 C254 1.499 . S
C259 H260 0.959 . S
C259 H261 0.960 . S
C259 H262 0.961 . S
H260 C259 0.959 . S
H261 C259 0.960 . S
H262 C259 0.961 . S
O263 Co238 1.967 . S
O263 C271 1.258 . S
O264 Co239 1.941 . S
O264 C271 1.266 . S
H265 C267 0.959 . S
H266 C267 0.961 . S
C267 C257 1.510 . S
C267 H265 0.959 . S
C267 H266 0.961 . S
C267 H268 0.960 . S
H268 C267 0.960 . S
H269 N249 0.862 1_565 S
O270 Co238 1.920 . S
O270 C243 1.289 . S
C271 O263 1.258 . S
C271 O264 1.266 . S
Co272 O275 1.970 1_554 S
Co272 N289 1.989 1_554 S
Co272 O297 1.967 . S
Co272 O304 1.920 . S
Co273 O276 1.966 . S
Co273 N282 2.022 . S
Co273 N290 1.993 . S
Co273 O298 1.941 . S
C274 O275 1.258 . S
C274 O276 1.263 . S
O275 Co272 1.970 1_556 S
O275 C274 1.258 . S
O276 Co273 1.966 . S
O276 C274 1.263 . S
C277 O278 1.235 . S
C277 O304 1.289 . S
O278 C277 1.235 . S
C279 C281 1.400 . S
C279 N282 1.351 . S
C279 C284 1.501 . S
C280 C281 1.387 . S
C280 N283 1.341 . S
C281 C279 1.400 . S
C281 C280 1.387 . S
N282 Co273 2.022 . S
N282 C279 1.351 . S
N282 N283 1.365 . S
N283 C280 1.341 . S
N283 N282 1.365 . S
N283 H303 0.862 . S
C284 C279 1.501 . S
C284 H285 0.961 . S
C284 H286 0.961 . S
C284 H287 0.960 . S
H285 C284 0.961 . S
H286 C284 0.961 . S
H287 C284 0.960 . S
C288 N289 1.342 . S
C288 C292 1.401 . S
C288 C293 1.499 . S
N289 Co272 1.989 1_556 S
N289 C288 1.342 . S
N289 N290 1.388 . S
N290 Co273 1.993 . S
N290 N289 1.388 . S
N290 C291 1.346 . S
C291 N290 1.346 . S
C291 C292 1.396 . S
C291 C301 1.510 . S
C292 C288 1.401 . S
C292 C291 1.396 . S
C293 C288 1.499 . S
C293 H294 0.959 1_556 S
C293 H295 0.960 . S
C293 H296 0.961 . S
H294 C293 0.959 1_554 S
H295 C293 0.960 . S
H296 C293 0.961 . S
O297 Co272 1.967 . S
O297 C305 1.258 . S
O298 Co273 1.941 . S
O298 C305 1.266 1_556 S
H299 C301 0.959 . S
H300 C301 0.961 . S
C301 C291 1.510 . S
C301 H299 0.959 . S
C301 H300 0.961 . S
C301 H302 0.960 . S
H302 C301 0.960 . S
H303 N283 0.862 . S
O304 Co272 1.920 . S
O304 C277 1.289 . S
C305 O297 1.258 . S
C305 O298 1.266 1_554 S
Co306 O309 1.970 . S
Co306 N323 1.989 . S
Co306 O331 1.967 . S
Co306 O338 1.920 . S
Co307 O310 1.966 . S
Co307 N316 2.022 . S
Co307 N324 1.993 . S
Co307 O332 1.941 . S
C308 O309 1.258 . S
C308 O310 1.263 . S
O309 Co306 1.970 . S
O309 C308 1.258 . S
O310 Co307 1.966 . S
O310 C308 1.263 . S
C311 O312 1.235 . S
C311 O338 1.289 . S
O312 C311 1.235 . S
C313 C315 1.400 . S
C313 N316 1.351 . S
C313 C318 1.501 . S
C314 C315 1.387 . S
C314 N317 1.341 . S
C315 C313 1.400 . S
C315 C314 1.387 . S
N316 Co307 2.022 . S
N316 C313 1.351 . S
N316 N317 1.365 . S
N317 C314 1.341 . S
N317 N316 1.365 . S
N317 H337 0.862 1_545 S
C318 C313 1.501 . S
C318 H319 0.961 . S
C318 H320 0.961 . S
C318 H321 0.960 . S
H319 C318 0.961 . S
H320 C318 0.961 . S
H321 C318 0.960 . S
C322 N323 1.342 . S
C322 C326 1.401 . S
C322 C327 1.499 . S
N323 Co306 1.989 . S
N323 C322 1.342 . S
N323 N324 1.388 . S
N324 Co307 1.993 . S
N324 N323 1.388 . S
N324 C325 1.346 . S
C325 N324 1.346 . S
C325 C326 1.396 . S
C325 C335 1.510 . S
C326 C322 1.401 . S
C326 C325 1.396 . S
C327 C322 1.499 . S
C327 H328 0.959 . S
C327 H329 0.960 . S
C327 H330 0.961 . S
H328 C327 0.959 . S
H329 C327 0.960 . S
H330 C327 0.961 . S
O331 Co306 1.967 . S
O331 C339 1.258 . S
O332 Co307 1.941 . S
O332 C339 1.266 . S
H333 C335 0.959 . S
H334 C335 0.961 . S
C335 C325 1.510 . S
C335 H333 0.959 . S
C335 H334 0.961 . S
C335 H336 0.960 . S
H336 C335 0.960 . S
H337 N317 0.862 1_565 S
O338 Co306 1.920 . S
O338 C311 1.289 . S
C339 O331 1.258 . S
C339 O332 1.266 . S
Co340 O343 1.970 . S
Co340 N357 1.989 . S
Co340 O365 1.967 . S
Co340 O372 1.920 . S
Co341 O344 1.966 . S
Co341 N350 2.022 . S
Co341 N358 1.993 . S
Co341 O366 1.941 . S
C342 O343 1.258 . S
C342 O344 1.263 . S
O343 Co340 1.970 . S
O343 C342 1.258 . S
O344 Co341 1.966 . S
O344 C342 1.263 . S
C345 O346 1.235 . S
C345 O372 1.289 . S
O346 C345 1.235 . S
C347 C349 1.400 . S
C347 N350 1.351 . S
C347 C352 1.501 . S
C348 C349 1.387 . S
C348 N351 1.341 . S
C349 C347 1.400 . S
C349 C348 1.387 . S
N350 Co341 2.022 . S
N350 C347 1.351 . S
N350 N351 1.365 . S
N351 C348 1.341 . S
N351 N350 1.365 . S
N351 H371 0.862 . S
C352 C347 1.501 . S
C352 H353 0.961 . S
C352 H354 0.961 . S
C352 H355 0.960 . S
H353 C352 0.961 . S
H354 C352 0.961 . S
H355 C352 0.960 . S
C356 N357 1.342 . S
C356 C360 1.401 . S
C356 C361 1.499 . S
N357 Co340 1.989 . S
N357 C356 1.342 . S
N357 N358 1.388 . S
N358 Co341 1.993 . S
N358 N357 1.388 . S
N358 C359 1.346 . S
C359 N358 1.346 . S
C359 C360 1.396 . S
C359 C369 1.510 . S
C360 C356 1.401 . S
C360 C359 1.396 . S
C361 C356 1.499 . S
C361 H362 0.959 . S
C361 H363 0.960 . S
C361 H364 0.961 . S
H362 C361 0.959 . S
H363 C361 0.960 . S
H364 C361 0.961 . S
O365 Co340 1.967 . S
O365 C373 1.258 . S
O366 Co341 1.941 . S
O366 C373 1.266 . S
H367 C369 0.959 . S
H368 C369 0.961 . S
C369 C359 1.510 . S
C369 H367 0.959 . S
C369 H368 0.961 . S
C369 H370 0.960 . S
H370 C369 0.960 . S
H371 N351 0.862 . S
O372 Co340 1.920 . S
O372 C345 1.289 . S
C373 O365 1.258 . S
C373 O366 1.266 . S
Co374 O377 1.970 . S
Co374 N391 1.989 . S
Co374 O399 1.967 . S
Co374 O406 1.920 . S
Co375 O378 1.966 . S
Co375 N384 2.022 . S
Co375 N392 1.993 . S
Co375 O400 1.941 . S
C376 O377 1.258 . S
C376 O378 1.263 . S
O377 Co374 1.970 . S
O377 C376 1.258 . S
O378 Co375 1.966 . S
O378 C376 1.263 . S
C379 O380 1.235 . S
C379 O406 1.289 . S
O380 C379 1.235 . S
C381 C383 1.400 . S
C381 N384 1.351 . S
C381 C386 1.501 . S
C382 C383 1.387 . S
C382 N385 1.341 . S
C383 C381 1.400 . S
C383 C382 1.387 . S
N384 Co375 2.022 . S
N384 C381 1.351 . S
N384 N385 1.365 . S
N385 C382 1.341 . S
N385 N384 1.365 . S
N385 H405 0.862 1_565 S
C386 C381 1.501 . S
C386 H387 0.961 . S
C386 H388 0.961 . S
C386 H389 0.960 . S
H387 C386 0.961 . S
H388 C386 0.961 . S
H389 C386 0.960 . S
C390 N391 1.342 . S
C390 C394 1.401 . S
C390 C395 1.499 . S
N391 Co374 1.989 . S
N391 C390 1.342 . S
N391 N392 1.388 . S
N392 Co375 1.993 . S
N392 N391 1.388 . S
N392 C393 1.346 . S
C393 N392 1.346 . S
C393 C394 1.396 . S
C393 C403 1.510 . S
C394 C390 1.401 . S
C394 C393 1.396 . S
C395 C390 1.499 . S
C395 H396 0.959 . S
C395 H397 0.960 . S
C395 H398 0.961 . S
H396 C395 0.959 . S
H397 C395 0.960 . S
H398 C395 0.961 . S
O399 Co374 1.967 . S
O399 C407 1.258 . S
O400 Co375 1.941 . S
O400 C407 1.266 . S
H401 C403 0.959 . S
H402 C403 0.961 . S
C403 C393 1.510 . S
C403 H401 0.959 . S
C403 H402 0.961 . S
C403 H404 0.960 . S
H404 C403 0.960 . S
H405 N385 0.862 1_545 S
O406 Co374 1.920 . S
O406 C379 1.289 . S
C407 O399 1.258 . S
C407 O400 1.266 . S
Co408 O411 1.970 1_556 S
Co408 N425 1.989 1_556 S
Co408 O433 1.967 . S
Co408 O440 1.920 . S
Co409 O412 1.966 . S
Co409 N418 2.022 . S
Co409 N426 1.993 . S
Co409 O434 1.941 . S
C410 O411 1.258 . S
C410 O412 1.263 . S
O411 Co408 1.970 1_554 S
O411 C410 1.258 . S
O412 Co409 1.966 . S
O412 C410 1.263 . S
C413 O414 1.235 . S
C413 O440 1.289 . S
O414 C413 1.235 . S
C415 C417 1.400 . S
C415 N418 1.351 . S
C415 C420 1.501 . S
C416 C417 1.387 . S
C416 N419 1.341 . S
C417 C415 1.400 . S
C417 C416 1.387 . S
N418 Co409 2.022 . S
N418 C415 1.351 . S
N418 N419 1.365 . S
N419 C416 1.341 . S
N419 N418 1.365 . S
N419 H439 0.862 . S
C420 C415 1.501 . S
C420 H421 0.961 . S
C420 H422 0.961 . S
C420 H423 0.960 . S
H421 C420 0.961 . S
H422 C420 0.961 . S
H423 C420 0.960 . S
C424 N425 1.342 . S
C424 C428 1.401 . S
C424 C429 1.499 . S
N425 Co408 1.989 1_554 S
N425 C424 1.342 . S
N425 N426 1.388 . S
N426 Co409 1.993 . S
N426 N425 1.388 . S
N426 C427 1.346 . S
C427 N426 1.346 . S
C427 C428 1.396 . S
C427 C437 1.510 . S
C428 C424 1.401 . S
C428 C427 1.396 . S
C429 C424 1.499 . S
C429 H430 0.959 1_554 S
C429 H431 0.960 . S
C429 H432 0.961 . S
H430 C429 0.959 1_556 S
H431 C429 0.960 . S
H432 C429 0.961 . S
O433 Co408 1.967 . S
O433 C441 1.258 . S
O434 Co409 1.941 . S
O434 C441 1.266 1_554 S
H435 C437 0.959 . S
H436 C437 0.961 . S
C437 C427 1.510 . S
C437 H435 0.959 . S
C437 H436 0.961 . S
C437 H438 0.960 . S
H438 C437 0.960 . S
H439 N419 0.862 . S
O440 Co408 1.920 . S
O440 C413 1.289 . S
C441 O433 1.258 . S
C441 O434 1.266 1_556 S
Co442 O445 1.970 . S
Co442 N459 1.989 . S
Co442 O467 1.967 . S
Co442 O474 1.920 . S
Co443 O446 1.966 . S
Co443 N452 2.022 . S
Co443 N460 1.993 . S
Co443 O468 1.941 . S
C444 O445 1.258 . S
C444 O446 1.263 . S
O445 Co442 1.970 . S
O445 C444 1.258 . S
O446 Co443 1.966 . S
O446 C444 1.263 . S
C447 O448 1.235 . S
C447 O474 1.289 . S
O448 C447 1.235 . S
C449 C451 1.400 . S
C449 N452 1.351 . S
C449 C454 1.501 . S
C450 C451 1.387 . S
C450 N453 1.341 . S
C451 C449 1.400 . S
C451 C450 1.387 . S
N452 Co443 2.022 . S
N452 C449 1.351 . S
N452 N453 1.365 . S
N453 C450 1.341 . S
N453 N452 1.365 . S
N453 H473 0.862 1_545 S
C454 C449 1.501 . S
C454 H455 0.961 . S
C454 H456 0.961 . S
C454 H457 0.960 . S
H455 C454 0.961 . S
H456 C454 0.961 . S
H457 C454 0.960 . S
C458 N459 1.342 . S
C458 C462 1.401 . S
C458 C463 1.499 . S
N459 Co442 1.989 . S
N459 C458 1.342 . S
N459 N460 1.388 . S
N460 Co443 1.993 . S
N460 N459 1.388 . S
N460 C461 1.346 . S
C461 N460 1.346 . S
C461 C462 1.396 . S
C461 C471 1.510 . S
C462 C458 1.401 . S
C462 C461 1.396 . S
C463 C458 1.499 . S
C463 H464 0.959 . S
C463 H465 0.960 . S
C463 H466 0.961 . S
H464 C463 0.959 . S
H465 C463 0.960 . S
H466 C463 0.961 . S
O467 Co442 1.967 . S
O467 C475 1.258 . S
O468 Co443 1.941 . S
O468 C475 1.266 . S
H469 C471 0.959 . S
H470 C471 0.961 . S
C471 C461 1.510 . S
C471 H469 0.959 . S
C471 H470 0.961 . S
C471 H472 0.960 . S
H472 C471 0.960 . S
H473 N453 0.862 1_565 S
O474 Co442 1.920 . S
O474 C447 1.289 . S
C475 O467 1.258 . S
C475 O468 1.266 . S
Co476 O479 1.970 . S
Co476 N493 1.989 . S
Co476 O501 1.967 . S
Co476 O508 1.920 . S
Co477 O480 1.966 . S
Co477 N486 2.022 . S
Co477 N494 1.993 . S
Co477 O502 1.941 . S
C478 O479 1.258 . S
C478 O480 1.263 . S
O479 Co476 1.970 . S
O479 C478 1.258 . S
O480 Co477 1.966 . S
O480 C478 1.263 . S
C481 O482 1.235 . S
C481 O508 1.289 . S
O482 C481 1.235 . S
C483 C485 1.400 . S
C483 N486 1.351 . S
C483 C488 1.501 . S
C484 C485 1.387 . S
C484 N487 1.341 . S
C485 C483 1.400 . S
C485 C484 1.387 . S
N486 Co477 2.022 . S
N486 C483 1.351 . S
N486 N487 1.365 . S
N487 C484 1.341 . S
N487 N486 1.365 . S
N487 H507 0.862 . S
C488 C483 1.501 . S
C488 H489 0.961 . S
C488 H490 0.961 . S
C488 H491 0.960 . S
H489 C488 0.961 . S
H490 C488 0.961 . S
H491 C488 0.960 . S
C492 N493 1.342 . S
C492 C496 1.401 . S
C492 C497 1.499 . S
N493 Co476 1.989 . S
N493 C492 1.342 . S
N493 N494 1.388 . S
N494 Co477 1.993 . S
N494 N493 1.388 . S
N494 C495 1.346 . S
C495 N494 1.346 . S
C495 C496 1.396 . S
C495 C505 1.510 . S
C496 C492 1.401 . S
C496 C495 1.396 . S
C497 C492 1.499 . S
C497 H498 0.959 . S
C497 H499 0.960 . S
C497 H500 0.961 . S
H498 C497 0.959 . S
H499 C497 0.960 . S
H500 C497 0.961 . S
O501 Co476 1.967 . S
O501 C509 1.258 . S
O502 Co477 1.941 . S
O502 C509 1.266 . S
H503 C505 0.959 . S
H504 C505 0.961 . S
C505 C495 1.510 . S
C505 H503 0.959 . S
C505 H504 0.961 . S
C505 H506 0.960 . S
H506 C505 0.960 . S
H507 N487 0.862 . S
O508 Co476 1.920 . S
O508 C481 1.289 . S
C509 O501 1.258 . S
C509 O502 1.266 . S
Co510 O513 1.970 . S
Co510 N527 1.989 . S
Co510 O535 1.967 . S
Co510 O542 1.920 . S
Co511 O514 1.966 . S
Co511 N520 2.022 . S
Co511 N528 1.993 . S
Co511 O536 1.941 . S
C512 O513 1.258 . S
C512 O514 1.263 . S
O513 Co510 1.970 . S
O513 C512 1.258 . S
O514 Co511 1.966 . S
O514 C512 1.263 . S
C515 O516 1.235 . S
C515 O542 1.289 . S
O516 C515 1.235 . S
C517 C519 1.400 . S
C517 N520 1.351 . S
C517 C522 1.501 . S
C518 C519 1.387 . S
C518 N521 1.341 . S
C519 C517 1.400 . S
C519 C518 1.387 . S
N520 Co511 2.022 . S
N520 C517 1.351 . S
N520 N521 1.365 . S
N521 C518 1.341 . S
N521 N520 1.365 . S
N521 H541 0.862 1_565 S
C522 C517 1.501 . S
C522 H523 0.961 . S
C522 H524 0.961 . S
C522 H525 0.960 . S
H523 C522 0.961 . S
H524 C522 0.961 . S
H525 C522 0.960 . S
C526 N527 1.342 . S
C526 C530 1.401 . S
C526 C531 1.499 . S
N527 Co510 1.989 . S
N527 C526 1.342 . S
N527 N528 1.388 . S
N528 Co511 1.993 . S
N528 N527 1.388 . S
N528 C529 1.346 . S
C529 N528 1.346 . S
C529 C530 1.396 . S
C529 C539 1.510 . S
C530 C526 1.401 . S
C530 C529 1.396 . S
C531 C526 1.499 . S
C531 H532 0.959 . S
C531 H533 0.960 . S
C531 H534 0.961 . S
H532 C531 0.959 . S
H533 C531 0.960 . S
H534 C531 0.961 . S
O535 Co510 1.967 . S
O535 C543 1.258 . S
O536 Co511 1.941 . S
O536 C543 1.266 . S
H537 C539 0.959 . S
H538 C539 0.961 . S
C539 C529 1.510 . S
C539 H537 0.959 . S
C539 H538 0.961 . S
C539 H540 0.960 . S
H540 C539 0.960 . S
H541 N521 0.862 1_545 S
O542 Co510 1.920 . S
O542 C515 1.289 . S
C543 O535 1.258 . S
C543 O536 1.266 . S
Co544 O547 1.970 . S
Co544 N561 1.989 . S
Co544 O569 1.967 . S
Co544 O576 1.920 . S
Co545 O548 1.966 . S
Co545 N554 2.022 . S
Co545 N562 1.993 . S
Co545 O570 1.941 . S
C546 O547 1.258 . S
C546 O548 1.263 . S
O547 Co544 1.970 . S
O547 C546 1.258 . S
O548 Co545 1.966 . S
O548 C546 1.263 . S
C549 O550 1.235 . S
C549 O576 1.289 . S
O550 C549 1.235 . S
C551 C553 1.400 . S
C551 N554 1.351 . S
C551 C556 1.501 . S
C552 C553 1.387 . S
C552 N555 1.341 . S
C553 C551 1.400 . S
C553 C552 1.387 . S
N554 Co545 2.022 . S
N554 C551 1.351 . S
N554 N555 1.365 . S
N555 C552 1.341 . S
N555 N554 1.365 . S
N555 H575 0.862 . S
C556 C551 1.501 . S
C556 H557 0.961 . S
C556 H558 0.961 . S
C556 H559 0.960 . S
H557 C556 0.961 . S
H558 C556 0.961 . S
H559 C556 0.960 . S
C560 N561 1.342 . S
C560 C564 1.401 . S
C560 C565 1.499 . S
N561 Co544 1.989 . S
N561 C560 1.342 . S
N561 N562 1.388 . S
N562 Co545 1.993 . S
N562 N561 1.388 . S
N562 C563 1.346 . S
C563 N562 1.346 . S
C563 C564 1.396 . S
C563 C573 1.510 . S
C564 C560 1.401 . S
C564 C563 1.396 . S
C565 C560 1.499 . S
C565 H566 0.959 . S
C565 H567 0.960 . S
C565 H568 0.961 . S
H566 C565 0.959 . S
H567 C565 0.960 . S
H568 C565 0.961 . S
O569 Co544 1.967 . S
O569 C577 1.258 . S
O570 Co545 1.941 . S
O570 C577 1.266 . S
H571 C573 0.959 . S
H572 C573 0.961 . S
C573 C563 1.510 . S
C573 H571 0.959 . S
C573 H572 0.961 . S
C573 H574 0.960 . S
H574 C573 0.960 . S
H575 N555 0.862 . S
O576 Co544 1.920 . S
O576 C549 1.289 . S
C577 O569 1.258 . S
C577 O570 1.266 . S
Co578 O581 1.970 . S
Co578 N595 1.989 . S
Co578 O603 1.967 . S
Co578 O610 1.920 . S
Co579 O582 1.966 . S
Co579 N588 2.022 . S
Co579 N596 1.993 . S
Co579 O604 1.941 . S
C580 O581 1.258 . S
C580 O582 1.263 . S
O581 Co578 1.970 . S
O581 C580 1.258 . S
O582 Co579 1.966 . S
O582 C580 1.263 . S
C583 O584 1.235 . S
C583 O610 1.289 . S
O584 C583 1.235 . S
C585 C587 1.400 . S
C585 N588 1.351 . S
C585 C590 1.501 . S
C586 C587 1.387 . S
C586 N589 1.341 . S
C587 C585 1.400 . S
C587 C586 1.387 . S
N588 Co579 2.022 . S
N588 C585 1.351 . S
N588 N589 1.365 . S
N589 C586 1.341 . S
N589 N588 1.365 . S
N589 H609 0.862 . S
C590 C585 1.501 . S
C590 H591 0.961 . S
C590 H592 0.961 . S
C590 H593 0.960 . S
H591 C590 0.961 . S
H592 C590 0.961 . S
H593 C590 0.960 . S
C594 N595 1.342 . S
C594 C598 1.401 . S
C594 C599 1.499 . S
N595 Co578 1.989 . S
N595 C594 1.342 . S
N595 N596 1.388 . S
N596 Co579 1.993 . S
N596 N595 1.388 . S
N596 C597 1.346 . S
C597 N596 1.346 . S
C597 C598 1.396 . S
C597 C607 1.510 . S
C598 C594 1.401 . S
C598 C597 1.396 . S
C599 C594 1.499 . S
C599 H600 0.959 . S
C599 H601 0.960 . S
C599 H602 0.961 . S
H600 C599 0.959 . S
H601 C599 0.960 . S
H602 C599 0.961 . S
O603 Co578 1.967 . S
O603 C611 1.258 . S
O604 Co579 1.941 . S
O604 C611 1.266 . S
H605 C607 0.959 . S
H606 C607 0.961 . S
C607 C597 1.510 . S
C607 H605 0.959 . S
C607 H606 0.961 . S
C607 H608 0.960 . S
H608 C607 0.960 . S
H609 N589 0.862 . S
O610 Co578 1.920 . S
O610 C583 1.289 . S
C611 O603 1.258 . S
C611 O604 1.266 . S
Co612 O615 1.970 1_556 S
Co612 N629 1.989 1_556 S
Co612 O637 1.967 . S
Co612 O644 1.920 . S
Co613 O616 1.966 . S
Co613 N622 2.022 . S
Co613 N630 1.993 . S
Co613 O638 1.941 . S
C614 O615 1.258 . S
C614 O616 1.263 . S
O615 Co612 1.970 1_554 S
O615 C614 1.258 . S
O616 Co613 1.966 . S
O616 C614 1.263 . S
C617 O618 1.235 . S
C617 O644 1.289 . S
O618 C617 1.235 . S
C619 C621 1.400 . S
C619 N622 1.351 . S
C619 C624 1.501 . S
C620 C621 1.387 . S
C620 N623 1.341 . S
C621 C619 1.400 . S
C621 C620 1.387 . S
N622 Co613 2.022 . S
N622 C619 1.351 . S
N622 N623 1.365 . S
N623 C620 1.341 . S
N623 N622 1.365 . S
N623 H643 0.862 . S
C624 C619 1.501 . S
C624 H625 0.961 . S
C624 H626 0.961 . S
C624 H627 0.960 . S
H625 C624 0.961 . S
H626 C624 0.961 . S
H627 C624 0.960 . S
C628 N629 1.342 . S
C628 C632 1.401 . S
C628 C633 1.499 . S
N629 Co612 1.989 1_554 S
N629 C628 1.342 . S
N629 N630 1.388 . S
N630 Co613 1.993 . S
N630 N629 1.388 . S
N630 C631 1.346 . S
C631 N630 1.346 . S
C631 C632 1.396 . S
C631 C641 1.510 . S
C632 C628 1.401 . S
C632 C631 1.396 . S
C633 C628 1.499 . S
C633 H634 0.959 1_554 S
C633 H635 0.960 . S
C633 H636 0.961 . S
H634 C633 0.959 1_556 S
H635 C633 0.960 . S
H636 C633 0.961 . S
O637 Co612 1.967 . S
O637 C645 1.258 . S
O638 Co613 1.941 . S
O638 C645 1.266 1_554 S
H639 C641 0.959 . S
H640 C641 0.961 . S
C641 C631 1.510 . S
C641 H639 0.959 . S
C641 H640 0.961 . S
C641 H642 0.960 . S
H642 C641 0.960 . S
H643 N623 0.862 . S
O644 Co612 1.920 . S
O644 C617 1.289 . S
C645 O637 1.258 . S
C645 O638 1.266 1_556 S
Co646 O649 1.970 . S
Co646 N663 1.989 . S
Co646 O671 1.967 . S
Co646 O678 1.920 . S
Co647 O650 1.966 . S
Co647 N656 2.022 . S
Co647 N664 1.993 . S
Co647 O672 1.941 . S
C648 O649 1.258 . S
C648 O650 1.263 . S
O649 Co646 1.970 . S
O649 C648 1.258 . S
O650 Co647 1.966 . S
O650 C648 1.263 . S
C651 O652 1.235 . S
C651 O678 1.289 . S
O652 C651 1.235 . S
C653 C655 1.400 . S
C653 N656 1.351 . S
C653 C658 1.501 . S
C654 C655 1.387 . S
C654 N657 1.341 . S
C655 C653 1.400 . S
C655 C654 1.387 . S
N656 Co647 2.022 . S
N656 C653 1.351 . S
N656 N657 1.365 . S
N657 C654 1.341 . S
N657 N656 1.365 . S
N657 H677 0.862 . S
C658 C653 1.501 . S
C658 H659 0.961 . S
C658 H660 0.961 . S
C658 H661 0.960 . S
H659 C658 0.961 . S
H660 C658 0.961 . S
H661 C658 0.960 . S
C662 N663 1.342 . S
C662 C666 1.401 . S
C662 C667 1.499 . S
N663 Co646 1.989 . S
N663 C662 1.342 . S
N663 N664 1.388 . S
N664 Co647 1.993 . S
N664 N663 1.388 . S
N664 C665 1.346 . S
C665 N664 1.346 . S
C665 C666 1.396 . S
C665 C675 1.510 . S
C666 C662 1.401 . S
C666 C665 1.396 . S
C667 C662 1.499 . S
C667 H668 0.959 . S
C667 H669 0.960 . S
C667 H670 0.961 . S
H668 C667 0.959 . S
H669 C667 0.960 . S
H670 C667 0.961 . S
O671 Co646 1.967 . S
O671 C679 1.258 . S
O672 Co647 1.941 . S
O672 C679 1.266 . S
H673 C675 0.959 . S
H674 C675 0.961 . S
C675 C665 1.510 . S
C675 H673 0.959 . S
C675 H674 0.961 . S
C675 H676 0.960 . S
H676 C675 0.960 . S
H677 N657 0.862 . S
O678 Co646 1.920 . S
O678 C651 1.289 . S
C679 O671 1.258 . S
C679 O672 1.266 . S
Co680 O683 1.970 . S
Co680 N697 1.989 . S
Co680 O705 1.967 . S
Co680 O712 1.920 . S
Co681 O684 1.966 . S
Co681 N690 2.022 . S
Co681 N698 1.993 . S
Co681 O706 1.941 . S
C682 O683 1.258 . S
C682 O684 1.263 . S
O683 Co680 1.970 . S
O683 C682 1.258 . S
O684 Co681 1.966 . S
O684 C682 1.263 . S
C685 O686 1.235 . S
C685 O712 1.289 . S
O686 C685 1.235 . S
C687 C689 1.400 . S
C687 N690 1.351 . S
C687 C692 1.501 . S
C688 C689 1.387 . S
C688 N691 1.341 . S
C689 C687 1.400 . S
C689 C688 1.387 . S
N690 Co681 2.022 . S
N690 C687 1.351 . S
N690 N691 1.365 . S
N691 C688 1.341 . S
N691 N690 1.365 . S
N691 H711 0.862 . S
C692 C687 1.501 . S
C692 H693 0.961 . S
C692 H694 0.961 . S
C692 H695 0.960 . S
H693 C692 0.961 . S
H694 C692 0.961 . S
H695 C692 0.960 . S
C696 N697 1.342 . S
C696 C700 1.401 . S
C696 C701 1.499 . S
N697 Co680 1.989 . S
N697 C696 1.342 . S
N697 N698 1.388 . S
N698 Co681 1.993 . S
N698 N697 1.388 . S
N698 C699 1.346 . S
C699 N698 1.346 . S
C699 C700 1.396 . S
C699 C709 1.510 . S
C700 C696 1.401 . S
C700 C699 1.396 . S
C701 C696 1.499 . S
C701 H702 0.959 . S
C701 H703 0.960 . S
C701 H704 0.961 . S
H702 C701 0.959 . S
H703 C701 0.960 . S
H704 C701 0.961 . S
O705 Co680 1.967 . S
O705 C713 1.258 . S
O706 Co681 1.941 . S
O706 C713 1.266 . S
H707 C709 0.959 . S
H708 C709 0.961 . S
C709 C699 1.510 . S
C709 H707 0.959 . S
C709 H708 0.961 . S
C709 H710 0.960 . S
H710 C709 0.960 . S
H711 N691 0.862 . S
O712 Co680 1.920 . S
O712 C685 1.289 . S
C713 O705 1.258 . S
C713 O706 1.266 . S
Co714 O717 1.970 . S
Co714 N731 1.989 . S
Co714 O739 1.967 . S
Co714 O746 1.920 . S
Co715 O718 1.966 . S
Co715 N724 2.022 . S
Co715 N732 1.993 . S
Co715 O740 1.941 . S
C716 O717 1.258 . S
C716 O718 1.263 . S
O717 Co714 1.970 . S
O717 C716 1.258 . S
O718 Co715 1.966 . S
O718 C716 1.263 . S
C719 O720 1.235 . S
C719 O746 1.289 . S
O720 C719 1.235 . S
C721 C723 1.400 . S
C721 N724 1.351 . S
C721 C726 1.501 . S
C722 C723 1.387 . S
C722 N725 1.341 . S
C723 C721 1.400 . S
C723 C722 1.387 . S
N724 Co715 2.022 . S
N724 C721 1.351 . S
N724 N725 1.365 . S
N725 C722 1.341 . S
N725 N724 1.365 . S
N725 H745 0.862 . S
C726 C721 1.501 . S
C726 H727 0.961 . S
C726 H728 0.961 . S
C726 H729 0.960 . S
H727 C726 0.961 . S
H728 C726 0.961 . S
H729 C726 0.960 . S
C730 N731 1.342 . S
C730 C734 1.401 . S
C730 C735 1.499 . S
N731 Co714 1.989 . S
N731 C730 1.342 . S
N731 N732 1.388 . S
N732 Co715 1.993 . S
N732 N731 1.388 . S
N732 C733 1.346 . S
C733 N732 1.346 . S
C733 C734 1.396 . S
C733 C743 1.510 . S
C734 C730 1.401 . S
C734 C733 1.396 . S
C735 C730 1.499 . S
C735 H736 0.959 . S
C735 H737 0.960 . S
C735 H738 0.961 . S
H736 C735 0.959 . S
H737 C735 0.960 . S
H738 C735 0.961 . S
O739 Co714 1.967 . S
O739 C747 1.258 . S
O740 Co715 1.941 . S
O740 C747 1.266 . S
H741 C743 0.959 . S
H742 C743 0.961 . S
C743 C733 1.510 . S
C743 H741 0.959 . S
C743 H742 0.961 . S
C743 H744 0.960 . S
H744 C743 0.960 . S
H745 N725 0.862 . S
O746 Co714 1.920 . S
O746 C719 1.289 . S
C747 O739 1.258 . S
C747 O740 1.266 . S
Co748 O751 1.970 1_554 S
Co748 N765 1.989 1_554 S
Co748 O773 1.967 . S
Co748 O780 1.920 . S
Co749 O752 1.966 . S
Co749 N758 2.022 . S
Co749 N766 1.993 . S
Co749 O774 1.941 . S
C750 O751 1.258 . S
C750 O752 1.263 . S
O751 Co748 1.970 1_556 S
O751 C750 1.258 . S
O752 Co749 1.966 . S
O752 C750 1.263 . S
C753 O754 1.235 . S
C753 O780 1.289 . S
O754 C753 1.235 . S
C755 C757 1.400 . S
C755 N758 1.351 . S
C755 C760 1.501 . S
C756 C757 1.387 . S
C756 N759 1.341 . S
C757 C755 1.400 . S
C757 C756 1.387 . S
N758 Co749 2.022 . S
N758 C755 1.351 . S
N758 N759 1.365 . S
N759 C756 1.341 . S
N759 N758 1.365 . S
N759 H779 0.862 . S
C760 C755 1.501 . S
C760 H761 0.961 . S
C760 H762 0.961 . S
C760 H763 0.960 . S
H761 C760 0.961 . S
H762 C760 0.961 . S
H763 C760 0.960 . S
C764 N765 1.342 . S
C764 C768 1.401 . S
C764 C769 1.499 . S
N765 Co748 1.989 1_556 S
N765 C764 1.342 . S
N765 N766 1.388 . S
N766 Co749 1.993 . S
N766 N765 1.388 . S
N766 C767 1.346 . S
C767 N766 1.346 . S
C767 C768 1.396 . S
C767 C777 1.510 . S
C768 C764 1.401 . S
C768 C767 1.396 . S
C769 C764 1.499 . S
C769 H770 0.959 1_556 S
C769 H771 0.960 . S
C769 H772 0.961 . S
H770 C769 0.959 1_554 S
H771 C769 0.960 . S
H772 C769 0.961 . S
O773 Co748 1.967 . S
O773 C781 1.258 . S
O774 Co749 1.941 . S
O774 C781 1.266 1_556 S
H775 C777 0.959 . S
H776 C777 0.961 . S
C777 C767 1.510 . S
C777 H775 0.959 . S
C777 H776 0.961 . S
C777 H778 0.960 . S
H778 C777 0.960 . S
H779 N759 0.862 . S
O780 Co748 1.920 . S
O780 C753 1.289 . S
C781 O773 1.258 . S
C781 O774 1.266 1_554 S
Co782 O785 1.970 . S
Co782 N799 1.989 . S
Co782 O807 1.967 . S
Co782 O814 1.920 . S
Co783 O786 1.966 . S
Co783 N792 2.022 . S
Co783 N800 1.993 . S
Co783 O808 1.941 . S
C784 O785 1.258 . S
C784 O786 1.263 . S
O785 Co782 1.970 . S
O785 C784 1.258 . S
O786 Co783 1.966 . S
O786 C784 1.263 . S
C787 O788 1.235 . S
C787 O814 1.289 . S
O788 C787 1.235 . S
C789 C791 1.400 . S
C789 N792 1.351 . S
C789 C794 1.501 . S
C790 C791 1.387 . S
C790 N793 1.341 . S
C791 C789 1.400 . S
C791 C790 1.387 . S
N792 Co783 2.022 . S
N792 C789 1.351 . S
N792 N793 1.365 . S
N793 C790 1.341 . S
N793 N792 1.365 . S
N793 H813 0.862 . S
C794 C789 1.501 . S
C794 H795 0.961 . S
C794 H796 0.961 . S
C794 H797 0.960 . S
H795 C794 0.961 . S
H796 C794 0.961 . S
H797 C794 0.960 . S
C798 N799 1.342 . S
C798 C802 1.401 . S
C798 C803 1.499 . S
N799 Co782 1.989 . S
N799 C798 1.342 . S
N799 N800 1.388 . S
N800 Co783 1.993 . S
N800 N799 1.388 . S
N800 C801 1.346 . S
C801 N800 1.346 . S
C801 C802 1.396 . S
C801 C811 1.510 . S
C802 C798 1.401 . S
C802 C801 1.396 . S
C803 C798 1.499 . S
C803 H804 0.959 . S
C803 H805 0.960 . S
C803 H806 0.961 . S
H804 C803 0.959 . S
H805 C803 0.960 . S
H806 C803 0.961 . S
O807 Co782 1.967 . S
O807 C815 1.258 . S
O808 Co783 1.941 . S
O808 C815 1.266 . S
H809 C811 0.959 . S
H810 C811 0.961 . S
C811 C801 1.510 . S
C811 H809 0.959 . S
C811 H810 0.961 . S
C811 H812 0.960 . S
H812 C811 0.960 . S
H813 N793 0.862 . S
O814 Co782 1.920 . S
O814 C787 1.289 . S
C815 O807 1.258 . S
C815 O808 1.266 . S
Co816 O819 1.970 . S
Co816 N833 1.989 . S
Co816 O841 1.967 . S
Co816 O848 1.920 . S
Co817 O820 1.966 . S
Co817 N826 2.022 . S
Co817 N834 1.993 . S
Co817 O842 1.941 . S
C818 O819 1.258 . S
C818 O820 1.263 . S
O819 Co816 1.970 . S
O819 C818 1.258 . S
O820 Co817 1.966 . S
O820 C818 1.263 . S
C821 O822 1.235 . S
C821 O848 1.289 . S
O822 C821 1.235 . S
C823 C825 1.400 . S
C823 N826 1.351 . S
C823 C828 1.501 . S
C824 C825 1.387 . S
C824 N827 1.341 . S
C825 C823 1.400 . S
C825 C824 1.387 . S
N826 Co817 2.022 . S
N826 C823 1.351 . S
N826 N827 1.365 . S
N827 C824 1.341 . S
N827 N826 1.365 . S
N827 H847 0.862 . S
C828 C823 1.501 . S
C828 H829 0.961 . S
C828 H830 0.961 . S
C828 H831 0.960 . S
H829 C828 0.961 . S
H830 C828 0.961 . S
H831 C828 0.960 . S
C832 N833 1.342 . S
C832 C836 1.401 . S
C832 C837 1.499 . S
N833 Co816 1.989 . S
N833 C832 1.342 . S
N833 N834 1.388 . S
N834 Co817 1.993 . S
N834 N833 1.388 . S
N834 C835 1.346 . S
C835 N834 1.346 . S
C835 C836 1.396 . S
C835 C845 1.510 . S
C836 C832 1.401 . S
C836 C835 1.396 . S
C837 C832 1.499 . S
C837 H838 0.959 . S
C837 H839 0.960 . S
C837 H840 0.961 . S
H838 C837 0.959 . S
H839 C837 0.960 . S
H840 C837 0.961 . S
O841 Co816 1.967 . S
O841 C849 1.258 . S
O842 Co817 1.941 . S
O842 C849 1.266 . S
H843 C845 0.959 . S
H844 C845 0.961 . S
C845 C835 1.510 . S
C845 H843 0.959 . S
C845 H844 0.961 . S
C845 H846 0.960 . S
H846 C845 0.960 . S
H847 N827 0.862 . S
O848 Co816 1.920 . S
O848 C821 1.289 . S
C849 O841 1.258 . S
C849 O842 1.266 . S
Co850 O853 1.970 . S
Co850 N867 1.989 . S
Co850 O875 1.967 . S
Co850 O882 1.920 . S
Co851 O854 1.966 . S
Co851 N860 2.022 . S
Co851 N868 1.993 . S
Co851 O876 1.941 . S
C852 O853 1.258 . S
C852 O854 1.263 . S
O853 Co850 1.970 . S
O853 C852 1.258 . S
O854 Co851 1.966 . S
O854 C852 1.263 . S
C855 O856 1.235 . S
C855 O882 1.289 . S
O856 C855 1.235 . S
C857 C859 1.400 . S
C857 N860 1.351 . S
C857 C862 1.501 . S
C858 C859 1.387 . S
C858 N861 1.341 . S
C859 C857 1.400 . S
C859 C858 1.387 . S
N860 Co851 2.022 . S
N860 C857 1.351 . S
N860 N861 1.365 . S
N861 C858 1.341 . S
N861 N860 1.365 . S
N861 H881 0.862 . S
C862 C857 1.501 . S
C862 H863 0.961 . S
C862 H864 0.961 . S
C862 H865 0.960 . S
H863 C862 0.961 . S
H864 C862 0.961 . S
H865 C862 0.960 . S
C866 N867 1.342 . S
C866 C870 1.401 . S
C866 C871 1.499 . S
N867 Co850 1.989 . S
N867 C866 1.342 . S
N867 N868 1.388 . S
N868 Co851 1.993 . S
N868 N867 1.388 . S
N868 C869 1.346 . S
C869 N868 1.346 . S
C869 C870 1.396 . S
C869 C879 1.510 . S
C870 C866 1.401 . S
C870 C869 1.396 . S
C871 C866 1.499 . S
C871 H872 0.959 . S
C871 H873 0.960 . S
C871 H874 0.961 . S
H872 C871 0.959 . S
H873 C871 0.960 . S
H874 C871 0.961 . S
O875 Co850 1.967 . S
O875 C883 1.258 . S
O876 Co851 1.941 . S
O876 C883 1.266 . S
H877 C879 0.959 . S
H878 C879 0.961 . S
C879 C869 1.510 . S
C879 H877 0.959 . S
C879 H878 0.961 . S
C879 H880 0.960 . S
H880 C879 0.960 . S
H881 N861 0.862 . S
O882 Co850 1.920 . S
O882 C855 1.289 . S
C883 O875 1.258 . S
C883 O876 1.266 . S
Co884 O887 1.970 1_554 S
Co884 N901 1.989 1_554 S
Co884 O909 1.967 . S
Co884 O916 1.920 . S
Co885 O888 1.966 . S
Co885 N894 2.022 . S
Co885 N902 1.993 . S
Co885 O910 1.941 . S
C886 O887 1.258 . S
C886 O888 1.263 . S
O887 Co884 1.970 1_556 S
O887 C886 1.258 . S
O888 Co885 1.966 . S
O888 C886 1.263 . S
C889 O890 1.235 . S
C889 O916 1.289 . S
O890 C889 1.235 . S
C891 C893 1.400 . S
C891 N894 1.351 . S
C891 C896 1.501 . S
C892 C893 1.387 . S
C892 N895 1.341 . S
C893 C891 1.400 . S
C893 C892 1.387 . S
N894 Co885 2.022 . S
N894 C891 1.351 . S
N894 N895 1.365 . S
N895 C892 1.341 . S
N895 N894 1.365 . S
N895 H915 0.862 . S
C896 C891 1.501 . S
C896 H897 0.961 . S
C896 H898 0.961 . S
C896 H899 0.960 . S
H897 C896 0.961 . S
H898 C896 0.961 . S
H899 C896 0.960 . S
C900 N901 1.342 . S
C900 C904 1.401 . S
C900 C905 1.499 . S
N901 Co884 1.989 1_556 S
N901 C900 1.342 . S
N901 N902 1.388 . S
N902 Co885 1.993 . S
N902 N901 1.388 . S
N902 C903 1.346 . S
C903 N902 1.346 . S
C903 C904 1.396 . S
C903 C913 1.510 . S
C904 C900 1.401 . S
C904 C903 1.396 . S
C905 C900 1.499 . S
C905 H906 0.959 1_556 S
C905 H907 0.960 . S
C905 H908 0.961 . S
H906 C905 0.959 1_554 S
H907 C905 0.960 . S
H908 C905 0.961 . S
O909 Co884 1.967 . S
O909 C917 1.258 . S
O910 Co885 1.941 . S
O910 C917 1.266 1_556 S
H911 C913 0.959 . S
H912 C913 0.961 . S
C913 C903 1.510 . S
C913 H911 0.959 . S
C913 H912 0.961 . S
C913 H914 0.960 . S
H914 C913 0.960 . S
H915 N895 0.862 . S
O916 Co884 1.920 . S
O916 C889 1.289 . S
C917 O909 1.258 . S
C917 O910 1.266 1_554 S
Co918 O921 1.970 . S
Co918 N935 1.989 . S
Co918 O943 1.967 . S
Co918 O950 1.920 . S
Co919 O922 1.966 . S
Co919 N928 2.022 . S
Co919 N936 1.993 . S
Co919 O944 1.941 . S
C920 O921 1.258 . S
C920 O922 1.263 . S
O921 Co918 1.970 . S
O921 C920 1.258 . S
O922 Co919 1.966 . S
O922 C920 1.263 . S
C923 O924 1.235 . S
C923 O950 1.289 . S
O924 C923 1.235 . S
C925 C927 1.400 . S
C925 N928 1.351 . S
C925 C930 1.501 . S
C926 C927 1.387 . S
C926 N929 1.341 . S
C927 C925 1.400 . S
C927 C926 1.387 . S
N928 Co919 2.022 . S
N928 C925 1.351 . S
N928 N929 1.365 . S
N929 C926 1.341 . S
N929 N928 1.365 . S
N929 H949 0.862 . S
C930 C925 1.501 . S
C930 H931 0.961 . S
C930 H932 0.961 . S
C930 H933 0.960 . S
H931 C930 0.961 . S
H932 C930 0.961 . S
H933 C930 0.960 . S
C934 N935 1.342 . S
C934 C938 1.401 . S
C934 C939 1.499 . S
N935 Co918 1.989 . S
N935 C934 1.342 . S
N935 N936 1.388 . S
N936 Co919 1.993 . S
N936 N935 1.388 . S
N936 C937 1.346 . S
C937 N936 1.346 . S
C937 C938 1.396 . S
C937 C947 1.510 . S
C938 C934 1.401 . S
C938 C937 1.396 . S
C939 C934 1.499 . S
C939 H940 0.959 . S
C939 H941 0.960 . S
C939 H942 0.961 . S
H940 C939 0.959 . S
H941 C939 0.960 . S
H942 C939 0.961 . S
O943 Co918 1.967 . S
O943 C951 1.258 . S
O944 Co919 1.941 . S
O944 C951 1.266 . S
H945 C947 0.959 . S
H946 C947 0.961 . S
C947 C937 1.510 . S
C947 H945 0.959 . S
C947 H946 0.961 . S
C947 H948 0.960 . S
H948 C947 0.960 . S
H949 N929 0.862 . S
O950 Co918 1.920 . S
O950 C923 1.289 . S
C951 O943 1.258 . S
C951 O944 1.266 . S
Co952 O955 1.970 . S
Co952 N969 1.989 . S
Co952 O977 1.967 . S
Co952 O984 1.920 . S
Co953 O956 1.966 . S
Co953 N962 2.022 . S
Co953 N970 1.993 . S
Co953 O978 1.941 . S
C954 O955 1.258 . S
C954 O956 1.263 . S
O955 Co952 1.970 . S
O955 C954 1.258 . S
O956 Co953 1.966 . S
O956 C954 1.263 . S
C957 O958 1.235 . S
C957 O984 1.289 . S
O958 C957 1.235 . S
C959 C961 1.400 . S
C959 N962 1.351 . S
C959 C964 1.501 . S
C960 C961 1.387 . S
C960 N963 1.341 . S
C961 C959 1.400 . S
C961 C960 1.387 . S
N962 Co953 2.022 . S
N962 C959 1.351 . S
N962 N963 1.365 . S
N963 C960 1.341 . S
N963 N962 1.365 . S
N963 H983 0.862 . S
C964 C959 1.501 . S
C964 H965 0.961 . S
C964 H966 0.961 . S
C964 H967 0.960 . S
H965 C964 0.961 . S
H966 C964 0.961 . S
H967 C964 0.960 . S
C968 N969 1.342 . S
C968 C972 1.401 . S
C968 C973 1.499 . S
N969 Co952 1.989 . S
N969 C968 1.342 . S
N969 N970 1.388 . S
N970 Co953 1.993 . S
N970 N969 1.388 . S
N970 C971 1.346 . S
C971 N970 1.346 . S
C971 C972 1.396 . S
C971 C981 1.510 . S
C972 C968 1.401 . S
C972 C971 1.396 . S
C973 C968 1.499 . S
C973 H974 0.959 . S
C973 H975 0.960 . S
C973 H976 0.961 . S
H974 C973 0.959 . S
H975 C973 0.960 . S
H976 C973 0.961 . S
O977 Co952 1.967 . S
O977 C985 1.258 . S
O978 Co953 1.941 . S
O978 C985 1.266 . S
H979 C981 0.959 . S
H980 C981 0.961 . S
C981 C971 1.510 . S
C981 H979 0.959 . S
C981 H980 0.961 . S
C981 H982 0.960 . S
H982 C981 0.960 . S
H983 N963 0.862 . S
O984 Co952 1.920 . S
O984 C957 1.289 . S
C985 O977 1.258 . S
C985 O978 1.266 . S
Co986 O989 1.970 . S
Co986 N1003 1.989 . S
Co986 O1011 1.967 . S
Co986 O1018 1.920 . S
Co987 O990 1.966 . S
Co987 N996 2.022 . S
Co987 N1004 1.993 . S
Co987 O1012 1.941 . S
C988 O989 1.258 . S
C988 O990 1.263 . S
O989 Co986 1.970 . S
O989 C988 1.258 . S
O990 Co987 1.966 . S
O990 C988 1.263 . S
C991 O992 1.235 . S
C991 O1018 1.289 . S
O992 C991 1.235 . S
C993 C995 1.400 . S
C993 N996 1.351 . S
C993 C998 1.501 . S
C994 C995 1.387 . S
C994 N997 1.341 . S
C995 C993 1.400 . S
C995 C994 1.387 . S
N996 Co987 2.022 . S
N996 C993 1.351 . S
N996 N997 1.365 . S
N997 C994 1.341 . S
N997 N996 1.365 . S
N997 H1017 0.862 . S
C998 C993 1.501 . S
C998 H999 0.961 . S
C998 H1000 0.961 . S
C998 H1001 0.960 . S
H999 C998 0.961 . S
H1000 C998 0.961 . S
H1001 C998 0.960 . S
C1002 N1003 1.342 . S
C1002 C1006 1.401 . S
C1002 C1007 1.499 . S
N1003 Co986 1.989 . S
N1003 C1002 1.342 . S
N1003 N1004 1.388 . S
N1004 Co987 1.993 . S
N1004 N1003 1.388 . S
N1004 C1005 1.346 . S
C1005 N1004 1.346 . S
C1005 C1006 1.396 . S
C1005 C1015 1.510 . S
C1006 C1002 1.401 . S
C1006 C1005 1.396 . S
C1007 C1002 1.499 . S
C1007 H1008 0.959 . S
C1007 H1009 0.960 . S
C1007 H1010 0.961 . S
H1008 C1007 0.959 . S
H1009 C1007 0.960 . S
H1010 C1007 0.961 . S
O1011 Co986 1.967 . S
O1011 C1019 1.258 . S
O1012 Co987 1.941 . S
O1012 C1019 1.266 . S
H1013 C1015 0.959 . S
H1014 C1015 0.961 . S
C1015 C1005 1.510 . S
C1015 H1013 0.959 . S
C1015 H1014 0.961 . S
C1015 H1016 0.960 . S
H1016 C1015 0.960 . S
H1017 N997 0.862 . S
O1018 Co986 1.920 . S
O1018 C991 1.289 . S
C1019 O1011 1.258 . S
C1019 O1012 1.266 . S
Co1020 O1023 1.970 1_556 S
Co1020 N1037 1.989 1_556 S
Co1020 O1045 1.967 . S
Co1020 O1052 1.920 . S
Co1021 O1024 1.966 . S
Co1021 N1030 2.022 . S
Co1021 N1038 1.993 . S
Co1021 O1046 1.941 . S
C1022 O1023 1.258 . S
C1022 O1024 1.263 . S
O1023 Co1020 1.970 1_554 S
O1023 C1022 1.258 . S
O1024 Co1021 1.966 . S
O1024 C1022 1.263 . S
C1025 O1026 1.235 . S
C1025 O1052 1.289 . S
O1026 C1025 1.235 . S
C1027 C1029 1.400 . S
C1027 N1030 1.351 . S
C1027 C1032 1.501 . S
C1028 C1029 1.387 . S
C1028 N1031 1.341 . S
C1029 C1027 1.400 . S
C1029 C1028 1.387 . S
N1030 Co1021 2.022 . S
N1030 C1027 1.351 . S
N1030 N1031 1.365 . S
N1031 C1028 1.341 . S
N1031 N1030 1.365 . S
N1031 H1051 0.862 . S
C1032 C1027 1.501 . S
C1032 H1033 0.961 . S
C1032 H1034 0.961 . S
C1032 H1035 0.960 . S
H1033 C1032 0.961 . S
H1034 C1032 0.961 . S
H1035 C1032 0.960 . S
C1036 N1037 1.342 . S
C1036 C1040 1.401 . S
C1036 C1041 1.499 . S
N1037 Co1020 1.989 1_554 S
N1037 C1036 1.342 . S
N1037 N1038 1.388 . S
N1038 Co1021 1.993 . S
N1038 N1037 1.388 . S
N1038 C1039 1.346 . S
C1039 N1038 1.346 . S
C1039 C1040 1.396 . S
C1039 C1049 1.510 . S
C1040 C1036 1.401 . S
C1040 C1039 1.396 . S
C1041 C1036 1.499 . S
C1041 H1042 0.959 1_554 S
C1041 H1043 0.960 . S
C1041 H1044 0.961 . S
H1042 C1041 0.959 1_556 S
H1043 C1041 0.960 . S
H1044 C1041 0.961 . S
O1045 Co1020 1.967 . S
O1045 C1053 1.258 . S
O1046 Co1021 1.941 . S
O1046 C1053 1.266 1_554 S
H1047 C1049 0.959 . S
H1048 C1049 0.961 . S
C1049 C1039 1.510 . S
C1049 H1047 0.959 . S
C1049 H1048 0.961 . S
C1049 H1050 0.960 . S
H1050 C1049 0.960 . S
H1051 N1031 0.862 . S
O1052 Co1020 1.920 . S
O1052 C1025 1.289 . S
C1053 O1045 1.258 . S
C1053 O1046 1.266 1_556 S
Co1054 O1057 1.970 . S
Co1054 N1071 1.989 . S
Co1054 O1079 1.967 . S
Co1054 O1086 1.920 . S
Co1055 O1058 1.966 . S
Co1055 N1064 2.022 . S
Co1055 N1072 1.993 . S
Co1055 O1080 1.941 . S
C1056 O1057 1.258 . S
C1056 O1058 1.263 . S
O1057 Co1054 1.970 . S
O1057 C1056 1.258 . S
O1058 Co1055 1.966 . S
O1058 C1056 1.263 . S
C1059 O1060 1.235 . S
C1059 O1086 1.289 . S
O1060 C1059 1.235 . S
C1061 C1063 1.400 . S
C1061 N1064 1.351 . S
C1061 C1066 1.501 . S
C1062 C1063 1.387 . S
C1062 N1065 1.341 . S
C1063 C1061 1.400 . S
C1063 C1062 1.387 . S
N1064 Co1055 2.022 . S
N1064 C1061 1.351 . S
N1064 N1065 1.365 . S
N1065 C1062 1.341 . S
N1065 N1064 1.365 . S
N1065 H1085 0.862 . S
C1066 C1061 1.501 . S
C1066 H1067 0.961 . S
C1066 H1068 0.961 . S
C1066 H1069 0.960 . S
H1067 C1066 0.961 . S
H1068 C1066 0.961 . S
H1069 C1066 0.960 . S
C1070 N1071 1.342 . S
C1070 C1074 1.401 . S
C1070 C1075 1.499 . S
N1071 Co1054 1.989 . S
N1071 C1070 1.342 . S
N1071 N1072 1.388 . S
N1072 Co1055 1.993 . S
N1072 N1071 1.388 . S
N1072 C1073 1.346 . S
C1073 N1072 1.346 . S
C1073 C1074 1.396 . S
C1073 C1083 1.510 . S
C1074 C1070 1.401 . S
C1074 C1073 1.396 . S
C1075 C1070 1.499 . S
C1075 H1076 0.959 . S
C1075 H1077 0.960 . S
C1075 H1078 0.961 . S
H1076 C1075 0.959 . S
H1077 C1075 0.960 . S
H1078 C1075 0.961 . S
O1079 Co1054 1.967 . S
O1079 C1087 1.258 . S
O1080 Co1055 1.941 . S
O1080 C1087 1.266 . S
H1081 C1083 0.959 . S
H1082 C1083 0.961 . S
C1083 C1073 1.510 . S
C1083 H1081 0.959 . S
C1083 H1082 0.961 . S
C1083 H1084 0.960 . S
H1084 C1083 0.960 . S
H1085 N1065 0.862 . S
O1086 Co1054 1.920 . S
O1086 C1059 1.289 . S
C1087 O1079 1.258 . S
C1087 O1080 1.266 . S
C1088 C1089 1.369 . S
C1088 C1090 1.419 . S
C1088 H1092 0.930 . S
C1089 C1088 1.369 . S
C1089 C1098 1.429 . S
C1090 C1088 1.419 . S
C1090 C1091 1.363 . S
C1090 H1093 0.929 . S
C1091 C1090 1.363 . S
C1091 C1097 1.428 . S
H1092 C1088 0.930 . S
H1093 C1090 0.929 . S
S1094 N1095 1.613 . S
S1094 N1096 1.610 1_565 S
N1095 S1094 1.613 . S
N1095 C1098 1.350 1_565 S
N1096 S1094 1.610 1_545 S
N1096 C1097 1.351 . S
C1097 C1091 1.428 . S
C1097 N1096 1.351 . S
C1097 C1098 1.434 . S
C1098 C1089 1.429 . S
C1098 N1095 1.350 1_545 S
C1098 C1097 1.434 . S
C1099 C1100 1.369 . S
C1099 C1101 1.419 . S
C1099 H1103 0.930 . S
C1100 C1099 1.369 . S
C1100 C1109 1.429 . S
C1101 C1099 1.419 . S
C1101 C1102 1.363 . S
C1101 H1104 0.929 . S
C1102 C1101 1.363 . S
C1102 C1108 1.428 . S
H1103 C1099 0.930 . S
H1104 C1101 0.929 . S
S1105 N1106 1.613 . S
S1105 N1107 1.610 . S
N1106 S1105 1.613 . S
N1106 C1109 1.350 . S
N1107 S1105 1.610 . S
N1107 C1108 1.351 . S
C1108 C1102 1.428 . S
C1108 N1107 1.351 . S
C1108 C1109 1.434 . S
C1109 C1100 1.429 . S
C1109 N1106 1.350 . S
C1109 C1108 1.434 . S
C1110 C1111 1.369 . S
C1110 C1112 1.419 . S
C1110 H1114 0.930 . S
C1111 C1110 1.369 . S
C1111 C1120 1.429 . S
C1112 C1110 1.419 . S
C1112 C1113 1.363 . S
C1112 H1115 0.901 1_565 S
C1113 C1112 1.363 . S
C1113 C1119 1.428 . S
H1114 C1110 0.930 . S
H1115 C1112 0.901 1_545 S
S1116 N1117 1.613 . S
S1116 N1118 1.610 . S
N1117 S1116 1.613 . S
N1117 C1120 1.350 . S
N1118 S1116 1.610 . S
N1118 C1119 1.351 . S
C1119 C1113 1.428 . S
C1119 N1118 1.351 . S
C1119 C1120 1.434 . S
C1120 C1111 1.429 . S
C1120 N1117 1.350 . S
C1120 C1119 1.434 . S
C1121 C1122 1.369 . S
C1121 C1123 1.419 . S
C1121 H1125 0.930 . S
C1122 C1121 1.369 . S
C1122 C1131 1.429 . S
C1123 C1121 1.419 . S
C1123 C1124 1.363 . S
C1123 H1126 0.929 . S
C1124 C1123 1.363 . S
C1124 C1130 1.428 . S
H1125 C1121 0.930 . S
H1126 C1123 0.929 . S
S1127 N1128 1.613 . S
S1127 N1129 1.610 . S
N1128 S1127 1.613 . S
N1128 C1131 1.350 . S
N1129 S1127 1.610 . S
N1129 C1130 1.351 . S
C1130 C1124 1.428 . S
C1130 N1129 1.351 . S
C1130 C1131 1.434 . S
C1131 C1122 1.429 . S
C1131 N1128 1.350 . S
C1131 C1130 1.434 . S
C1132 C1133 1.369 . S
C1132 C1134 1.419 . S
C1132 H1136 0.930 . S
C1133 C1132 1.369 . S
C1133 C1142 1.429 . S
C1134 C1132 1.419 . S
C1134 C1135 1.363 . S
C1134 H1137 0.929 . S
C1135 C1134 1.363 . S
C1135 C1141 1.428 . S
H1136 C1132 0.930 . S
H1137 C1134 0.929 . S
S1138 N1139 1.613 1_545 S
S1138 N1140 1.610 . S
N1139 S1138 1.613 1_565 S
N1139 C1142 1.350 . S
N1140 S1138 1.610 . S
N1140 C1141 1.351 1_545 S
C1141 C1135 1.428 . S
C1141 N1140 1.351 1_565 S
C1141 C1142 1.434 . S
C1142 C1133 1.429 . S
C1142 N1139 1.350 . S
C1142 C1141 1.434 . S
C1143 C1144 1.369 . S
C1143 C1145 1.419 . S
C1143 H1147 0.930 . S
C1144 C1143 1.369 . S
C1144 C1153 1.429 . S
C1145 C1143 1.419 . S
C1145 C1146 1.363 . S
C1145 H1148 0.929 . S
C1146 C1145 1.363 . S
C1146 C1152 1.428 . S
H1147 C1143 0.930 . S
H1148 C1145 0.929 . S
S1149 N1150 1.613 . S
S1149 N1151 1.610 . S
N1150 S1149 1.613 . S
N1150 C1153 1.350 . S
N1151 S1149 1.610 . S
N1151 C1152 1.351 . S
C1152 C1146 1.428 . S
C1152 N1151 1.351 . S
C1152 C1153 1.434 . S
C1153 C1144 1.429 . S
C1153 N1150 1.350 . S
C1153 C1152 1.434 . S
C1154 C1155 1.369 . S
C1154 C1156 1.419 . S
C1154 H1158 0.930 . S
C1155 C1154 1.369 . S
C1155 C1164 1.429 . S
C1156 C1154 1.419 . S
C1156 C1157 1.363 . S
C1156 H1159 0.929 . S
C1157 C1156 1.363 . S
C1157 C1163 1.428 . S
H1158 C1154 0.930 . S
H1159 C1156 0.929 . S
S1160 N1161 1.613 . S
S1160 N1162 1.610 . S
N1161 S1160 1.613 . S
N1161 C1164 1.350 . S
N1162 S1160 1.610 . S
N1162 C1163 1.351 . S
C1163 C1157 1.428 . S
C1163 N1162 1.351 . S
C1163 C1164 1.434 . S
C1164 C1155 1.429 . S
C1164 N1161 1.350 . S
C1164 C1163 1.434 . S
C1165 C1166 1.369 . S
C1165 C1167 1.419 . S
C1165 H1169 0.930 . S
C1166 C1165 1.369 . S
C1166 C1175 1.429 . S
C1167 C1165 1.419 . S
C1167 C1168 1.363 . S
C1167 H1170 0.929 . S
C1168 C1167 1.363 . S
C1168 C1174 1.428 . S
H1169 C1165 0.930 . S
H1170 C1167 0.929 . S
S1171 N1172 1.613 . S
S1171 N1173 1.610 . S
N1172 S1171 1.613 . S
N1172 C1175 1.350 . S
N1173 S1171 1.610 . S
N1173 C1174 1.351 . S
C1174 C1168 1.428 . S
C1174 N1173 1.351 . S
C1174 C1175 1.434 . S
C1175 C1166 1.429 . S
C1175 N1172 1.350 . S
C1175 C1174 1.434 . S
C1176 C1177 1.369 . S
C1176 C1178 1.419 . S
C1176 H1180 0.930 . S
C1177 C1176 1.369 . S
C1177 C1186 1.429 . S
C1178 C1176 1.419 . S
C1178 C1179 1.363 . S
C1178 H1181 0.929 . S
C1179 C1178 1.363 . S
C1179 C1185 1.428 . S
H1180 C1176 0.930 . S
H1181 C1178 0.929 . S
S1182 N1183 1.613 . S
S1182 N1184 1.610 1_545 S
N1183 S1182 1.613 . S
N1183 C1186 1.350 1_545 S
N1184 S1182 1.610 1_565 S
N1184 C1185 1.351 . S
C1185 C1179 1.428 . S
C1185 N1184 1.351 . S
C1185 C1186 1.434 . S
C1186 C1177 1.429 . S
C1186 N1183 1.350 1_565 S
C1186 C1185 1.434 . S
C1187 C1188 1.369 . S
C1187 C1189 1.419 . S
C1187 H1191 0.930 . S
C1188 C1187 1.369 . S
C1188 C1197 1.429 . S
C1189 C1187 1.419 . S
C1189 C1190 1.363 . S
C1189 H1192 0.929 . S
C1190 C1189 1.363 . S
C1190 C1196 1.428 . S
H1191 C1187 0.930 . S
H1192 C1189 0.929 . S
S1193 N1194 1.613 . S
S1193 N1195 1.610 . S
N1194 S1193 1.613 . S
N1194 C1197 1.350 . S
N1195 S1193 1.610 . S
N1195 C1196 1.351 . S
C1196 C1190 1.428 . S
C1196 N1195 1.351 . S
C1196 C1197 1.434 . S
C1197 C1188 1.429 . S
C1197 N1194 1.350 . S
C1197 C1196 1.434 . S
C1198 C1199 1.369 . S
C1198 C1200 1.419 . S
C1198 H1202 0.930 . S
C1199 C1198 1.369 . S
C1199 C1208 1.429 . S
C1200 C1198 1.419 . S
C1200 C1201 1.363 . S
C1200 H1203 0.929 1_545 S
C1201 C1200 1.363 . S
C1201 C1207 1.428 . S
H1202 C1198 0.930 . S
H1203 C1200 0.929 1_565 S
S1204 N1205 1.613 . S
S1204 N1206 1.610 . S
N1205 S1204 1.613 . S
N1205 C1208 1.350 . S
N1206 S1204 1.610 . S
N1206 C1207 1.351 . S
C1207 C1201 1.428 . S
C1207 N1206 1.351 . S
C1207 C1208 1.434 . S
C1208 C1199 1.429 . S
C1208 N1205 1.350 . S
C1208 C1207 1.434 . S
C1209 C1210 1.369 . S
C1209 C1211 1.419 . S
C1209 H1213 0.930 . S
C1210 C1209 1.369 . S
C1210 C1219 1.429 . S
C1211 C1209 1.419 . S
C1211 C1212 1.363 . S
C1211 H1214 0.929 . S
C1212 C1211 1.363 . S
C1212 C1218 1.428 . S
H1213 C1209 0.930 . S
H1214 C1211 0.929 . S
S1215 N1216 1.613 . S
S1215 N1217 1.610 . S
N1216 S1215 1.613 . S
N1216 C1219 1.350 . S
N1217 S1215 1.610 . S
N1217 C1218 1.351 . S
C1218 C1212 1.428 . S
C1218 N1217 1.351 . S
C1218 C1219 1.434 . S
C1219 C1210 1.429 . S
C1219 N1216 1.350 . S
C1219 C1218 1.434 . S
C1220 C1221 1.369 . S
C1220 C1222 1.419 . S
C1220 H1224 0.930 . S
C1221 C1220 1.369 . S
C1221 C1230 1.429 . S
C1222 C1220 1.419 . S
C1222 C1223 1.363 . S
C1222 H1225 0.929 . S
C1223 C1222 1.363 . S
C1223 C1229 1.428 . S
H1224 C1220 0.930 . S
H1225 C1222 0.929 . S
S1226 N1227 1.613 . S
S1226 N1228 1.610 . S
N1227 S1226 1.613 . S
N1227 C1230 1.350 . S
N1228 S1226 1.610 . S
N1228 C1229 1.351 . S
C1229 C1223 1.428 . S
C1229 N1228 1.351 . S
C1229 C1230 1.434 . S
C1230 C1221 1.429 . S
C1230 N1227 1.350 . S
C1230 C1229 1.434 . S
C1231 C1232 1.369 . S
C1231 C1233 1.419 . S
C1231 H1235 0.930 . S
C1232 C1231 1.369 . S
C1232 C1241 1.429 . S
C1233 C1231 1.419 . S
C1233 C1234 1.363 . S
C1233 H1236 0.929 . S
C1234 C1233 1.363 . S
C1234 C1240 1.428 . S
H1235 C1231 0.930 . S
H1236 C1233 0.929 . S
S1237 N1238 1.613 . S
S1237 N1239 1.610 . S
N1238 S1237 1.613 . S
N1238 C1241 1.350 . S
N1239 S1237 1.610 . S
N1239 C1240 1.351 . S
C1240 C1234 1.428 . S
C1240 N1239 1.351 . S
C1240 C1241 1.434 . S
C1241 C1232 1.429 . S
C1241 N1238 1.350 . S
C1241 C1240 1.434 . S
C1242 C1243 1.369 . S
C1242 C1244 1.419 . S
C1242 H1246 0.930 . S
C1243 C1242 1.369 . S
C1243 C1252 1.429 . S
C1244 C1242 1.419 . S
C1244 C1245 1.363 . S
C1244 H1247 0.929 . S
C1245 C1244 1.363 . S
C1245 C1251 1.428 . S
H1246 C1242 0.930 . S
H1247 C1244 0.929 . S
S1248 N1249 1.613 . S
S1248 N1250 1.610 1_545 S
N1249 S1248 1.613 . S
N1249 C1252 1.350 1_545 S
N1250 S1248 1.610 1_565 S
N1250 C1251 1.351 . S
C1251 C1245 1.428 . S
C1251 N1250 1.351 . S
C1251 C1252 1.434 . S
C1252 C1243 1.429 . S
C1252 N1249 1.350 1_565 S
C1252 C1251 1.434 . S
C1253 C1254 1.369 . S
C1253 C1255 1.419 . S
C1253 H1257 0.930 . S
C1254 C1253 1.369 . S
C1254 C1263 1.429 . S
C1255 C1253 1.419 . S
C1255 C1256 1.363 . S
C1255 H1258 0.929 . S
C1256 C1255 1.363 . S
C1256 C1262 1.428 . S
H1257 C1253 0.930 . S
H1258 C1255 0.929 . S
S1259 N1260 1.613 . S
S1259 N1261 1.610 . S
N1260 S1259 1.613 . S
N1260 C1263 1.350 . S
N1261 S1259 1.610 . S
N1261 C1262 1.351 . S
C1262 C1256 1.428 . S
C1262 N1261 1.351 . S
C1262 C1263 1.434 . S
C1263 C1254 1.429 . S
C1263 N1260 1.350 . S
C1263 C1262 1.434 . S
C1264 C1265 1.369 . S
C1264 C1266 1.419 . S
C1264 H1268 0.930 . S
C1265 C1264 1.369 . S
C1265 C1274 1.429 . S
C1266 C1264 1.419 . S
C1266 C1267 1.363 . S
C1266 H1269 0.929 . S
C1267 C1266 1.363 . S
C1267 C1273 1.428 . S
H1268 C1264 0.930 . S
H1269 C1266 0.929 . S
S1270 N1271 1.613 . S
S1270 N1272 1.610 . S
N1271 S1270 1.613 . S
N1271 C1274 1.350 . S
N1272 S1270 1.610 . S
N1272 C1273 1.351 . S
C1273 C1267 1.428 . S
C1273 N1272 1.351 . S
C1273 C1274 1.434 . S
C1274 C1265 1.429 . S
C1274 N1271 1.350 . S
C1274 C1273 1.434 . S
C1275 C1276 1.369 . S
C1275 C1277 1.419 . S
C1275 H1279 0.930 . S
C1276 C1275 1.369 . S
C1276 C1285 1.429 . S
C1277 C1275 1.419 . S
C1277 C1278 1.363 . S
C1277 H1280 0.929 . S
C1278 C1277 1.363 . S
C1278 C1284 1.428 . S
H1279 C1275 0.930 . S
H1280 C1277 0.929 . S
S1281 N1282 1.613 . S
S1281 N1283 1.610 . S
N1282 S1281 1.613 . S
N1282 C1285 1.350 . S
N1283 S1281 1.610 . S
N1283 C1284 1.351 . S
C1284 C1278 1.428 . S
C1284 N1283 1.351 . S
C1284 C1285 1.434 . S
C1285 C1276 1.429 . S
C1285 N1282 1.350 . S
C1285 C1284 1.434 . S
C1286 C1287 1.369 . S
C1286 C1288 1.419 . S
C1286 H1290 0.930 . S
C1287 C1286 1.369 . S
C1287 C1296 1.429 . S
C1288 C1286 1.419 . S
C1288 C1289 1.363 . S
C1288 H1291 0.929 . S
C1289 C1288 1.363 . S
C1289 C1295 1.428 . S
H1290 C1286 0.930 . S
H1291 C1288 0.929 . S
S1292 N1293 1.613 . S
S1292 N1294 1.610 . S
N1293 S1292 1.613 . S
N1293 C1296 1.350 . S
N1294 S1292 1.610 . S
N1294 C1295 1.351 . S
C1295 C1289 1.428 . S
C1295 N1294 1.351 . S
C1295 C1296 1.434 . S
C1296 C1287 1.429 . S
C1296 N1293 1.350 . S
C1296 C1295 1.434 . S
C1297 C1298 1.369 . S
C1297 C1299 1.419 . S
C1297 H1301 0.930 . S
C1298 C1297 1.369 . S
C1298 C1307 1.429 . S
C1299 C1297 1.419 . S
C1299 C1300 1.363 . S
C1299 H1302 0.929 . S
C1300 C1299 1.363 . S
C1300 C1306 1.428 . S
H1301 C1297 0.930 . S
H1302 C1299 0.929 . S
S1303 N1304 1.613 . S
S1303 N1305 1.610 . S
N1304 S1303 1.613 . S
N1304 C1307 1.350 . S
N1305 S1303 1.610 . S
N1305 C1306 1.351 . S
C1306 C1300 1.428 . S
C1306 N1305 1.351 . S
C1306 C1307 1.434 . S
C1307 C1298 1.429 . S
C1307 N1304 1.350 . S
C1307 C1306 1.434 . S
C1308 C1309 1.369 . S
C1308 C1310 1.419 . S
C1308 H1312 0.930 . S
C1309 C1308 1.369 . S
C1309 C1318 1.429 . S
C1310 C1308 1.419 . S
C1310 C1311 1.363 . S
C1310 H1313 0.929 . S
C1311 C1310 1.363 . S
C1311 C1317 1.428 . S
H1312 C1308 0.930 . S
H1313 C1310 0.929 . S
S1314 N1315 1.613 . S
S1314 N1316 1.610 . S
N1315 S1314 1.613 . S
N1315 C1318 1.350 . S
N1316 S1314 1.610 . S
N1316 C1317 1.351 . S
C1317 C1311 1.428 . S
C1317 N1316 1.351 . S
C1317 C1318 1.434 . S
C1318 C1309 1.429 . S
C1318 N1315 1.350 . S
C1318 C1317 1.434 . S
C1319 C1320 1.369 . S
C1319 C1321 1.419 . S
C1319 H1323 0.930 . S
C1320 C1319 1.369 . S
C1320 C1329 1.429 . S
C1321 C1319 1.419 . S
C1321 C1322 1.363 . S
C1321 H1324 0.929 . S
C1322 C1321 1.363 . S
C1322 C1328 1.428 . S
H1323 C1319 0.930 . S
H1324 C1321 0.929 . S
S1325 N1326 1.613 . S
S1325 N1327 1.610 . S
N1326 S1325 1.613 . S
N1326 C1329 1.350 . S
N1327 S1325 1.610 . S
N1327 C1328 1.351 . S
C1328 C1322 1.428 . S
C1328 N1327 1.351 . S
C1328 C1329 1.434 . S
C1329 C1320 1.429 . S
C1329 N1326 1.350 . S
C1329 C1328 1.434 . S
C1330 C1331 1.369 . S
C1330 C1332 1.419 . S
C1330 H1334 0.930 . S
C1331 C1330 1.369 . S
C1331 C1340 1.429 . S
C1332 C1330 1.419 . S
C1332 C1333 1.363 . S
C1332 H1335 0.929 . S
C1333 C1332 1.363 . S
C1333 C1339 1.428 . S
H1334 C1330 0.930 . S
H1335 C1332 0.929 . S
S1336 N1337 1.613 . S
S1336 N1338 1.610 . S
N1337 S1336 1.613 . S
N1337 C1340 1.350 . S
N1338 S1336 1.610 . S
N1338 C1339 1.351 . S
C1339 C1333 1.428 . S
C1339 N1338 1.351 . S
C1339 C1340 1.434 . S
C1340 C1331 1.429 . S
C1340 N1337 1.350 . S
C1340 C1339 1.434 . S
C1341 C1342 1.369 . S
C1341 C1343 1.419 . S
C1341 H1345 0.930 . S
C1342 C1341 1.369 . S
C1342 C1351 1.429 . S
C1343 C1341 1.419 . S
C1343 C1344 1.363 . S
C1343 H1346 0.929 . S
C1344 C1343 1.363 . S
C1344 C1350 1.428 . S
H1345 C1341 0.930 . S
H1346 C1343 0.929 . S
S1347 N1348 1.613 . S
S1347 N1349 1.610 . S
N1348 S1347 1.613 . S
N1348 C1351 1.350 . S
N1349 S1347 1.610 . S
N1349 C1350 1.351 . S
C1350 C1344 1.428 . S
C1350 N1349 1.351 . S
C1350 C1351 1.434 . S
C1351 C1342 1.429 . S
C1351 N1348 1.350 . S
C1351 C1350 1.434 . S
C1352 C1353 1.369 . S
C1352 C1354 1.419 . S
C1352 H1356 0.930 . S
C1353 C1352 1.369 . S
C1353 C1362 1.429 . S
C1354 C1352 1.419 . S
C1354 C1355 1.363 . S
C1354 H1357 0.929 . S
C1355 C1354 1.363 . S
C1355 C1361 1.428 . S
H1356 C1352 0.930 . S
H1357 C1354 0.929 . S
S1358 N1359 1.613 . S
S1358 N1360 1.610 . S
N1359 S1358 1.613 . S
N1359 C1362 1.350 . S
N1360 S1358 1.610 . S
N1360 C1361 1.351 . S
C1361 C1355 1.428 . S
C1361 N1360 1.351 . S
C1361 C1362 1.434 . S
C1362 C1353 1.429 . S
C1362 N1359 1.350 . S
C1362 C1361 1.434 . S
C1363 C1364 1.369 . S
C1363 C1365 1.419 . S
C1363 H1367 0.930 . S
C1364 C1363 1.369 . S
C1364 C1373 1.429 . S
C1365 C1363 1.419 . S
C1365 C1366 1.363 . S
C1365 H1368 0.929 . S
C1366 C1365 1.363 . S
C1366 C1372 1.428 . S
H1367 C1363 0.930 . S
H1368 C1365 0.929 . S
S1369 N1370 1.613 . S
S1369 N1371 1.610 . S
N1370 S1369 1.613 . S
N1370 C1373 1.350 . S
N1371 S1369 1.610 . S
N1371 C1372 1.351 . S
C1372 C1366 1.428 . S
C1372 N1371 1.351 . S
C1372 C1373 1.434 . S
C1373 C1364 1.429 . S
C1373 N1370 1.350 . S
C1373 C1372 1.434 . S
C1374 C1375 1.369 . S
C1374 C1376 1.419 . S
C1374 H1378 0.930 . S
C1375 C1374 1.369 . S
C1375 C1384 1.429 . S
C1376 C1374 1.419 . S
C1376 C1377 1.363 . S
C1376 H1379 0.929 . S
C1377 C1376 1.363 . S
C1377 C1383 1.428 . S
H1378 C1374 0.930 . S
H1379 C1376 0.929 . S
S1380 N1381 1.613 . S
S1380 N1382 1.610 . S
N1381 S1380 1.613 . S
N1381 C1384 1.350 . S
N1382 S1380 1.610 . S
N1382 C1383 1.351 . S
C1383 C1377 1.428 . S
C1383 N1382 1.351 . S
C1383 C1384 1.434 . S
C1384 C1375 1.429 . S
C1384 N1381 1.350 . S
C1384 C1383 1.434 . S
C1385 C1386 1.369 . S
C1385 C1387 1.419 . S
C1385 H1389 0.930 . S
C1386 C1385 1.369 . S
C1386 C1395 1.429 . S
C1387 C1385 1.419 . S
C1387 C1388 1.363 . S
C1387 H1390 0.929 . S
C1388 C1387 1.363 . S
C1388 C1394 1.428 . S
H1389 C1385 0.930 . S
H1390 C1387 0.929 . S
S1391 N1392 1.613 . S
S1391 N1393 1.610 . S
N1392 S1391 1.613 . S
N1392 C1395 1.350 . S
N1393 S1391 1.610 . S
N1393 C1394 1.351 . S
C1394 C1388 1.428 . S
C1394 N1393 1.351 . S
C1394 C1395 1.434 . S
C1395 C1386 1.429 . S
C1395 N1392 1.350 . S
C1395 C1394 1.434 . S
C1396 C1397 1.369 . S
C1396 C1398 1.419 . S
C1396 H1400 0.930 . S
C1397 C1396 1.369 . S
C1397 C1406 1.429 . S
C1398 C1396 1.419 . S
C1398 C1399 1.363 . S
C1398 H1401 0.929 . S
C1399 C1398 1.363 . S
C1399 C1405 1.428 . S
H1400 C1396 0.930 . S
H1401 C1398 0.929 . S
S1402 N1403 1.613 . S
S1402 N1404 1.610 . S
N1403 S1402 1.613 . S
N1403 C1406 1.350 . S
N1404 S1402 1.610 . S
N1404 C1405 1.351 . S
C1405 C1399 1.428 . S
C1405 N1404 1.351 . S
C1405 C1406 1.434 . S
C1406 C1397 1.429 . S
C1406 N1403 1.350 . S
C1406 C1405 1.434 . S
C1407 C1408 1.369 . S
C1407 C1409 1.419 . S
C1407 H1411 0.930 . S
C1408 C1407 1.369 . S
C1408 C1417 1.429 . S
C1409 C1407 1.419 . S
C1409 C1410 1.363 . S
C1409 H1412 0.929 . S
C1410 C1409 1.363 . S
C1410 C1416 1.428 . S
H1411 C1407 0.930 . S
H1412 C1409 0.929 . S
S1413 N1414 1.613 . S
S1413 N1415 1.610 . S
N1414 S1413 1.613 . S
N1414 C1417 1.350 . S
N1415 S1413 1.610 . S
N1415 C1416 1.351 . S
C1416 C1410 1.428 . S
C1416 N1415 1.351 . S
C1416 C1417 1.434 . S
C1417 C1408 1.429 . S
C1417 N1414 1.350 . S
C1417 C1416 1.434 . S
C1418 C1419 1.369 . S
C1418 C1420 1.419 . S
C1418 H1422 0.930 . S
C1419 C1418 1.369 . S
C1419 C1428 1.429 . S
C1420 C1418 1.419 . S
C1420 C1421 1.363 . S
C1420 H1423 0.929 . S
C1421 C1420 1.363 . S
C1421 C1427 1.428 . S
H1422 C1418 0.930 . S
H1423 C1420 0.929 . S
S1424 N1425 1.613 . S
S1424 N1426 1.610 . S
N1425 S1424 1.613 . S
N1425 C1428 1.350 . S
N1426 S1424 1.610 . S
N1426 C1427 1.351 . S
C1427 C1421 1.428 . S
C1427 N1426 1.351 . S
C1427 C1428 1.434 . S
C1428 C1419 1.429 . S
C1428 N1425 1.350 . S
C1428 C1427 1.434 . S
C1429 C1430 1.369 . S
C1429 C1431 1.419 . S
C1429 H1433 0.930 . S
C1430 C1429 1.369 . S
C1430 C1439 1.429 . S
C1431 C1429 1.419 . S
C1431 C1432 1.363 . S
C1431 H1434 0.929 . S
C1432 C1431 1.363 . S
C1432 C1438 1.428 . S
H1433 C1429 0.930 . S
H1434 C1431 0.929 . S
S1435 N1436 1.613 . S
S1435 N1437 1.610 . S
N1436 S1435 1.613 . S
N1436 C1439 1.350 . S
N1437 S1435 1.610 . S
N1437 C1438 1.351 . S
C1438 C1432 1.428 . S
C1438 N1437 1.351 . S
C1438 C1439 1.434 . S
C1439 C1430 1.429 . S
C1439 N1436 1.350 . S
C1439 C1438 1.434 . S
C1440 C1441 1.369 . S
C1440 C1442 1.419 . S
C1440 H1444 0.930 . S
C1441 C1440 1.369 . S
C1441 C1450 1.429 . S
C1442 C1440 1.419 . S
C1442 C1443 1.363 . S
C1442 H1445 0.929 . S
C1443 C1442 1.363 . S
C1443 C1449 1.428 . S
H1444 C1440 0.930 . S
H1445 C1442 0.929 . S
S1446 N1447 1.613 . S
S1446 N1448 1.610 . S
N1447 S1446 1.613 . S
N1447 C1450 1.350 . S
N1448 S1446 1.610 . S
N1448 C1449 1.351 . S
C1449 C1443 1.428 . S
C1449 N1448 1.351 . S
C1449 C1450 1.434 . S
C1450 C1441 1.429 . S
C1450 N1447 1.350 . S
C1450 C1449 1.434 . S
C1451 C1452 1.369 1_545 S
C1451 C1453 1.419 . S
C1451 H1455 0.930 . S
C1452 C1451 1.369 1_565 S
C1452 C1461 1.429 . S
C1453 C1451 1.419 . S
C1453 C1454 1.363 . S
C1453 H1456 0.929 . S
C1454 C1453 1.363 . S
C1454 C1460 1.428 1_545 S
H1455 C1451 0.930 . S
H1456 C1453 0.929 . S
S1457 N1458 1.613 . S
S1457 N1459 1.610 . S
N1458 S1457 1.613 . S
N1458 C1461 1.350 . S
N1459 S1457 1.610 . S
N1459 C1460 1.351 . S
C1460 C1454 1.428 1_565 S
C1460 N1459 1.351 . S
C1460 C1461 1.434 . S
C1461 C1452 1.429 . S
C1461 N1458 1.350 . S
C1461 C1460 1.434 . S
C1462 C1463 1.369 . S
C1462 C1464 1.419 . S
C1462 H1466 0.930 . S
C1463 C1462 1.369 . S
C1463 C1472 1.429 . S
C1464 C1462 1.419 . S
C1464 C1465 1.363 . S
C1464 H1467 0.929 . S
C1465 C1464 1.363 . S
C1465 C1471 1.428 . S
H1466 C1462 0.930 . S
H1467 C1464 0.929 . S
S1468 N1469 1.613 . S
S1468 N1470 1.610 . S
N1469 S1468 1.613 . S
N1469 C1472 1.350 . S
N1470 S1468 1.610 . S
N1470 C1471 1.351 . S
C1471 C1465 1.428 . S
C1471 N1470 1.351 . S
C1471 C1472 1.434 . S
C1472 C1463 1.429 . S
C1472 N1469 1.350 . S
C1472 C1471 1.434 . S
C1473 C1474 1.369 1_565 S
C1473 C1475 1.419 1_556 S
C1473 H1477 0.930 . S
C1474 C1473 1.369 1_545 S
C1474 C1483 1.429 . S
C1475 C1473 1.419 1_554 S
C1475 C1476 1.363 . S
C1475 H1478 0.929 . S
C1476 C1475 1.363 . S
C1476 C1482 1.428 1_565 S
H1477 C1473 0.930 . S
H1478 C1475 0.929 . S
S1479 N1480 1.613 1_554 S
S1479 N1481 1.610 . S
N1480 S1479 1.613 1_556 S
N1480 C1483 1.350 . S
N1481 S1479 1.610 . S
N1481 C1482 1.351 . S
C1482 C1476 1.428 1_545 S
C1482 N1481 1.351 . S
C1482 C1483 1.434 1_554 S
C1483 C1474 1.429 . S
C1483 N1480 1.350 . S
C1483 C1482 1.434 1_556 S
C1484 C1485 1.369 . S
C1484 C1486 1.419 . S
C1484 H1488 0.930 . S
C1485 C1484 1.369 . S
C1485 C1494 1.429 . S
C1486 C1484 1.419 . S
C1486 C1487 1.363 . S
C1486 H1489 0.929 . S
C1487 C1486 1.363 . S
C1487 C1493 1.428 . S
H1488 C1484 0.930 . S
H1489 C1486 0.929 . S
S1490 N1491 1.613 . S
S1490 N1492 1.610 . S
N1491 S1490 1.613 . S
N1491 C1494 1.350 . S
N1492 S1490 1.610 . S
N1492 C1493 1.351 . S
C1493 C1487 1.428 . S
C1493 N1492 1.351 . S
C1493 C1494 1.434 . S
C1494 C1485 1.429 . S
C1494 N1491 1.350 . S
C1494 C1493 1.434 . S
C1495 C1496 1.369 . S
C1495 C1497 1.419 . S
C1495 H1499 0.930 . S
C1496 C1495 1.369 . S
C1496 C1505 1.429 1_565 S
C1497 C1495 1.419 . S
C1497 C1498 1.363 1_565 S
C1497 H1500 0.929 . S
C1498 C1497 1.363 1_545 S
C1498 C1504 1.428 . S
H1499 C1495 0.930 . S
H1500 C1497 0.929 . S
S1501 N1502 1.613 . S
S1501 N1503 1.610 . S
N1502 S1501 1.613 . S
N1502 C1505 1.350 . S
N1503 S1501 1.610 . S
N1503 C1504 1.351 . S
C1504 C1498 1.428 . S
C1504 N1503 1.351 . S
C1504 C1505 1.434 . S
C1505 C1496 1.429 1_545 S
C1505 N1502 1.350 . S
C1505 C1504 1.434 . S
C1506 C1507 1.369 . S
C1506 C1508 1.419 . S
C1506 H1510 0.930 . S
C1507 C1506 1.369 . S
C1507 C1516 1.429 . S
C1508 C1506 1.419 . S
C1508 C1509 1.363 . S
C1508 H1511 0.929 . S
C1509 C1508 1.363 . S
C1509 C1515 1.428 . S
H1510 C1506 0.930 . S
H1511 C1508 0.929 . S
S1512 N1513 1.613 . S
S1512 N1514 1.610 . S
N1513 S1512 1.613 . S
N1513 C1516 1.350 . S
N1514 S1512 1.610 . S
N1514 C1515 1.351 . S
C1515 C1509 1.428 . S
C1515 N1514 1.351 . S
C1515 C1516 1.434 . S
C1516 C1507 1.429 . S
C1516 N1513 1.350 . S
C1516 C1515 1.434 . S
C1517 C1518 1.369 . S
C1517 C1519 1.419 1_556 S
C1517 H1521 0.930 . S
C1518 C1517 1.369 . S
C1518 C1527 1.429 1_545 S
C1519 C1517 1.419 1_554 S
C1519 C1520 1.363 1_545 S
C1519 H1522 0.929 . S
C1520 C1519 1.363 1_565 S
C1520 C1526 1.428 . S
H1521 C1517 0.930 . S
H1522 C1519 0.929 . S
S1523 N1524 1.613 . S
S1523 N1525 1.610 1_556 S
N1524 S1523 1.613 . S
N1524 C1527 1.350 . S
N1525 S1523 1.610 1_554 S
N1525 C1526 1.351 . S
C1526 C1520 1.428 . S
C1526 N1525 1.351 . S
C1526 C1527 1.434 1_554 S
C1527 C1518 1.429 1_565 S
C1527 N1524 1.350 . S
C1527 C1526 1.434 1_556 S
C1528 C1529 1.369 . S
C1528 C1530 1.419 . S
C1528 H1532 0.930 . S
C1529 C1528 1.369 . S
C1529 C1538 1.429 . S
C1530 C1528 1.419 . S
C1530 C1531 1.363 . S
C1530 H1533 0.929 . S
C1531 C1530 1.363 . S
C1531 C1537 1.428 . S
H1532 C1528 0.930 . S
H1533 C1530 0.929 . S
S1534 N1535 1.613 . S
S1534 N1536 1.610 . S
N1535 S1534 1.613 . S
N1535 C1538 1.350 . S
N1536 S1534 1.610 . S
N1536 C1537 1.351 . S
C1537 C1531 1.428 . S
C1537 N1536 1.351 . S
C1537 C1538 1.434 . S
C1538 C1529 1.429 . S
C1538 N1535 1.350 . S
C1538 C1537 1.434 . S
C1539 C1540 1.369 . S
C1539 C1541 1.419 1_554 S
C1539 H1543 0.930 . S
C1540 C1539 1.369 . S
C1540 C1549 1.429 . S
C1541 C1539 1.419 1_556 S
C1541 C1542 1.363 . S
C1541 H1544 0.929 . S
C1542 C1541 1.363 . S
C1542 C1548 1.428 . S
H1543 C1539 0.930 . S
H1544 C1541 0.929 . S
S1545 N1546 1.613 . S
S1545 N1547 1.610 . S
N1546 S1545 1.613 . S
N1546 C1549 1.350 1_556 S
N1547 S1545 1.610 . S
N1547 C1548 1.351 . S
C1548 C1542 1.428 . S
C1548 N1547 1.351 . S
C1548 C1549 1.434 1_556 S
C1549 C1540 1.429 . S
C1549 N1546 1.350 1_554 S
C1549 C1548 1.434 1_554 S
C1550 C1551 1.369 . S
C1550 C1552 1.419 . S
C1550 H1554 0.930 . S
C1551 C1550 1.369 . S
C1551 C1560 1.429 . S
C1552 C1550 1.419 . S
C1552 C1553 1.363 . S
C1552 H1555 0.929 . S
C1553 C1552 1.363 . S
C1553 C1559 1.428 . S
H1554 C1550 0.930 . S
H1555 C1552 0.929 . S
S1556 N1557 1.613 . S
S1556 N1558 1.610 . S
N1557 S1556 1.613 . S
N1557 C1560 1.350 . S
N1558 S1556 1.610 . S
N1558 C1559 1.351 . S
C1559 C1553 1.428 . S
C1559 N1558 1.351 . S
C1559 C1560 1.434 . S
C1560 C1551 1.429 . S
C1560 N1557 1.350 . S
C1560 C1559 1.434 . S
C1561 C1562 1.369 . S
C1561 C1563 1.419 . S
C1561 H1565 0.930 . S
C1562 C1561 1.369 . S
C1562 C1571 1.429 . S
C1563 C1561 1.419 . S
C1563 C1564 1.363 . S
C1563 H1566 0.929 . S
C1564 C1563 1.363 . S
C1564 C1570 1.428 . S
H1565 C1561 0.930 . S
H1566 C1563 0.929 . S
S1567 N1568 1.613 . S
S1567 N1569 1.610 . S
N1568 S1567 1.613 . S
N1568 C1571 1.350 . S
N1569 S1567 1.610 . S
N1569 C1570 1.351 . S
C1570 C1564 1.428 . S
C1570 N1569 1.351 . S
C1570 C1571 1.434 . S
C1571 C1562 1.429 . S
C1571 N1568 1.350 . S
C1571 C1570 1.434 . S
C1572 C1573 1.369 . S
C1572 C1574 1.419 . S
C1572 H1576 0.930 . S
C1573 C1572 1.369 . S
C1573 C1582 1.429 . S
C1574 C1572 1.419 . S
C1574 C1575 1.363 . S
C1574 H1577 0.929 . S
C1575 C1574 1.363 . S
C1575 C1581 1.428 . S
H1576 C1572 0.930 . S
H1577 C1574 0.929 . S
S1578 N1579 1.613 . S
S1578 N1580 1.610 . S
N1579 S1578 1.613 . S
N1579 C1582 1.350 . S
N1580 S1578 1.610 . S
N1580 C1581 1.351 . S
C1581 C1575 1.428 . S
C1581 N1580 1.351 . S
C1581 C1582 1.434 . S
C1582 C1573 1.429 . S
C1582 N1579 1.350 . S
C1582 C1581 1.434 . S
C1583 C1584 1.369 . S
C1583 C1585 1.419 1_556 S
C1583 H1587 0.930 . S
C1584 C1583 1.369 . S
C1584 C1593 1.429 . S
C1585 C1583 1.419 1_554 S
C1585 C1586 1.363 . S
C1585 H1588 0.929 . S
C1586 C1585 1.363 . S
C1586 C1592 1.428 . S
H1587 C1583 0.930 . S
H1588 C1585 0.929 . S
S1589 N1590 1.613 . S
S1589 N1591 1.610 1_556 S
N1590 S1589 1.613 . S
N1590 C1593 1.350 . S
N1591 S1589 1.610 1_554 S
N1591 C1592 1.351 . S
C1592 C1586 1.428 . S
C1592 N1591 1.351 . S
C1592 C1593 1.434 1_554 S
C1593 C1584 1.429 . S
C1593 N1590 1.350 . S
C1593 C1592 1.434 1_556 S
C1594 C1595 1.369 . S
C1594 C1596 1.419 . S
C1594 H1598 0.930 . S
C1595 C1594 1.369 . S
C1595 C1604 1.429 . S
C1596 C1594 1.419 . S
C1596 C1597 1.363 . S
C1596 H1599 0.929 . S
C1597 C1596 1.363 . S
C1597 C1603 1.428 . S
H1598 C1594 0.930 . S
H1599 C1596 0.929 . S
S1600 N1601 1.613 . S
S1600 N1602 1.610 . S
N1601 S1600 1.613 . S
N1601 C1604 1.350 . S
N1602 S1600 1.610 . S
N1602 C1603 1.351 . S
C1603 C1597 1.428 . S
C1603 N1602 1.351 . S
C1603 C1604 1.434 . S
C1604 C1595 1.429 . S
C1604 N1601 1.350 . S
C1604 C1603 1.434 . S
C1605 C1606 1.369 . S
C1605 C1607 1.419 . S
C1605 H1609 0.930 . S
C1606 C1605 1.369 . S
C1606 C1615 1.429 . S
C1607 C1605 1.419 . S
C1607 C1608 1.363 . S
C1607 H1610 0.929 . S
C1608 C1607 1.363 . S
C1608 C1614 1.428 . S
H1609 C1605 0.930 . S
H1610 C1607 0.929 . S
S1611 N1612 1.613 . S
S1611 N1613 1.610 . S
N1612 S1611 1.613 . S
N1612 C1615 1.350 . S
N1613 S1611 1.610 . S
N1613 C1614 1.351 . S
C1614 C1608 1.428 . S
C1614 N1613 1.351 . S
C1614 C1615 1.434 . S
C1615 C1606 1.429 . S
C1615 N1612 1.350 . S
C1615 C1614 1.434 . S
C1616 C1617 1.369 . S
C1616 C1618 1.419 . S
C1616 H1620 0.930 . S
C1617 C1616 1.369 . S
C1617 C1626 1.429 . S
C1618 C1616 1.419 . S
C1618 C1619 1.363 . S
C1618 H1621 0.929 . S
C1619 C1618 1.363 . S
C1619 C1625 1.428 . S
H1620 C1616 0.930 . S
H1621 C1618 0.929 . S
S1622 N1623 1.613 . S
S1622 N1624 1.610 . S
N1623 S1622 1.613 . S
N1623 C1626 1.350 . S
N1624 S1622 1.610 . S
N1624 C1625 1.351 . S
C1625 C1619 1.428 . S
C1625 N1624 1.351 . S
C1625 C1626 1.434 . S
C1626 C1617 1.429 . S
C1626 N1623 1.350 . S
C1626 C1625 1.434 . S
C1627 C1628 1.369 . S
C1627 C1629 1.419 . S
C1627 H1631 0.930 . S
C1628 C1627 1.369 . S
C1628 C1637 1.429 . S
C1629 C1627 1.419 . S
C1629 C1630 1.363 . S
C1629 H1632 0.929 . S
C1630 C1629 1.363 . S
C1630 C1636 1.428 . S
H1631 C1627 0.930 . S
H1632 C1629 0.929 . S
S1633 N1634 1.613 . S
S1633 N1635 1.610 . S
N1634 S1633 1.613 . S
N1634 C1637 1.350 . S
N1635 S1633 1.610 . S
N1635 C1636 1.351 . S
C1636 C1630 1.428 . S
C1636 N1635 1.351 . S
C1636 C1637 1.434 . S
C1637 C1628 1.429 . S
C1637 N1634 1.350 . S
C1637 C1636 1.434 . S
C1638 C1639 1.369 . S
C1638 C1640 1.419 . S
C1638 H1642 0.930 . S
C1639 C1638 1.369 . S
C1639 C1648 1.429 . S
C1640 C1638 1.419 . S
C1640 C1641 1.363 . S
C1640 H1643 0.929 . S
C1641 C1640 1.363 . S
C1641 C1647 1.428 . S
H1642 C1638 0.930 . S
H1643 C1640 0.929 . S
S1644 N1645 1.613 . S
S1644 N1646 1.610 . S
N1645 S1644 1.613 . S
N1645 C1648 1.350 . S
N1646 S1644 1.610 . S
N1646 C1647 1.351 . S
C1647 C1641 1.428 . S
C1647 N1646 1.351 . S
C1647 C1648 1.434 . S
C1648 C1639 1.429 . S
C1648 N1645 1.350 . S
C1648 C1647 1.434 . S
C1649 C1650 1.369 . S
C1649 C1651 1.419 . S
C1649 H1653 0.930 . S
C1650 C1649 1.369 . S
C1650 C1659 1.429 . S
C1651 C1649 1.419 . S
C1651 C1652 1.363 . S
C1651 H1654 0.929 . S
C1652 C1651 1.363 . S
C1652 C1658 1.428 . S
H1653 C1649 0.930 . S
H1654 C1651 0.929 . S
S1655 N1656 1.613 . S
S1655 N1657 1.610 . S
N1656 S1655 1.613 . S
N1656 C1659 1.350 . S
N1657 S1655 1.610 . S
N1657 C1658 1.351 . S
C1658 C1652 1.428 . S
C1658 N1657 1.351 . S
C1658 C1659 1.434 . S
C1659 C1650 1.429 . S
C1659 N1656 1.350 . S
C1659 C1658 1.434 . S
C1660 C1661 1.369 . S
C1660 C1662 1.419 . S
C1660 H1664 0.930 . S
C1661 C1660 1.369 . S
C1661 C1670 1.429 . S
C1662 C1660 1.419 . S
C1662 C1663 1.363 . S
C1662 H1665 0.929 . S
C1663 C1662 1.363 . S
C1663 C1669 1.428 . S
H1664 C1660 0.930 . S
H1665 C1662 0.929 . S
S1666 N1667 1.613 . S
S1666 N1668 1.610 . S
N1667 S1666 1.613 . S
N1667 C1670 1.350 . S
N1668 S1666 1.610 . S
N1668 C1669 1.351 . S
C1669 C1663 1.428 . S
C1669 N1668 1.351 . S
C1669 C1670 1.434 . S
C1670 C1661 1.429 . S
C1670 N1667 1.350 . S
C1670 C1669 1.434 . S
C1671 C1672 1.369 . S
C1671 C1673 1.419 . S
C1671 H1675 0.930 . S
C1672 C1671 1.369 . S
C1672 C1681 1.429 . S
C1673 C1671 1.419 . S
C1673 C1674 1.363 . S
C1673 H1676 0.929 . S
C1674 C1673 1.363 . S
C1674 C1680 1.428 . S
H1675 C1671 0.930 . S
H1676 C1673 0.929 . S
S1677 N1678 1.613 . S
S1677 N1679 1.610 . S
N1678 S1677 1.613 . S
N1678 C1681 1.350 . S
N1679 S1677 1.610 . S
N1679 C1680 1.351 . S
C1680 C1674 1.428 . S
C1680 N1679 1.351 . S
C1680 C1681 1.434 . S
C1681 C1672 1.429 . S
C1681 N1678 1.350 . S
C1681 C1680 1.434 . S
C1682 C1683 1.369 . S
C1682 C1684 1.419 . S
C1682 H1686 0.930 . S
C1683 C1682 1.369 . S
C1683 C1692 1.429 . S
C1684 C1682 1.419 . S
C1684 C1685 1.363 . S
C1684 H1687 0.929 . S
C1685 C1684 1.363 . S
C1685 C1691 1.428 . S
H1686 C1682 0.930 . S
H1687 C1684 0.929 . S
S1688 N1689 1.613 . S
S1688 N1690 1.610 . S
N1689 S1688 1.613 . S
N1689 C1692 1.350 . S
N1690 S1688 1.610 . S
N1690 C1691 1.351 . S
C1691 C1685 1.428 . S
C1691 N1690 1.351 . S
C1691 C1692 1.434 . S
C1692 C1683 1.429 . S
C1692 N1689 1.350 . S
C1692 C1691 1.434 . S
C1693 C1694 1.369 . S
C1693 C1695 1.419 . S
C1693 H1697 0.930 . S
C1694 C1693 1.369 . S
C1694 C1703 1.429 . S
C1695 C1693 1.419 . S
C1695 C1696 1.363 . S
C1695 H1698 0.929 . S
C1696 C1695 1.363 . S
C1696 C1702 1.428 . S
H1697 C1693 0.930 . S
H1698 C1695 0.929 . S
S1699 N1700 1.613 . S
S1699 N1701 1.610 . S
N1700 S1699 1.613 . S
N1700 C1703 1.350 . S
N1701 S1699 1.610 . S
N1701 C1702 1.351 . S
C1702 C1696 1.428 . S
C1702 N1701 1.351 . S
C1702 C1703 1.434 . S
C1703 C1694 1.429 . S
C1703 N1700 1.350 . S
C1703 C1702 1.434 . S
C1704 C1705 1.369 . S
C1704 C1706 1.419 . S
C1704 H1708 0.930 . S
C1705 C1704 1.369 . S
C1705 C1714 1.429 . S
C1706 C1704 1.419 . S
C1706 C1707 1.363 . S
C1706 H1709 0.929 . S
C1707 C1706 1.363 . S
C1707 C1713 1.428 . S
H1708 C1704 0.930 . S
H1709 C1706 0.929 . S
S1710 N1711 1.613 . S
S1710 N1712 1.610 . S
N1711 S1710 1.613 . S
N1711 C1714 1.350 . S
N1712 S1710 1.610 . S
N1712 C1713 1.351 . S
C1713 C1707 1.428 . S
C1713 N1712 1.351 . S
C1713 C1714 1.434 . S
C1714 C1705 1.429 . S
C1714 N1711 1.350 . S
C1714 C1713 1.434 . S
C1715 C1716 1.369 . S
C1715 C1717 1.419 . S
C1715 H1719 0.930 . S
C1716 C1715 1.369 . S
C1716 C1725 1.429 . S
C1717 C1715 1.419 . S
C1717 C1718 1.363 . S
C1717 H1720 0.929 . S
C1718 C1717 1.363 . S
C1718 C1724 1.428 . S
H1719 C1715 0.930 . S
H1720 C1717 0.929 . S
S1721 N1722 1.613 . S
S1721 N1723 1.610 . S
N1722 S1721 1.613 . S
N1722 C1725 1.350 . S
N1723 S1721 1.610 . S
N1723 C1724 1.351 . S
C1724 C1718 1.428 . S
C1724 N1723 1.351 . S
C1724 C1725 1.434 . S
C1725 C1716 1.429 . S
C1725 N1722 1.350 . S
C1725 C1724 1.434 . S
C1726 C1727 1.369 . S
C1726 C1728 1.419 . S
C1726 H1730 0.930 . S
C1727 C1726 1.369 . S
C1727 C1736 1.429 . S
C1728 C1726 1.419 . S
C1728 C1729 1.363 . S
C1728 H1731 0.929 . S
C1729 C1728 1.363 . S
C1729 C1735 1.428 . S
H1730 C1726 0.930 . S
H1731 C1728 0.929 . S
S1732 N1733 1.613 . S
S1732 N1734 1.610 . S
N1733 S1732 1.613 . S
N1733 C1736 1.350 . S
N1734 S1732 1.610 . S
N1734 C1735 1.351 . S
C1735 C1729 1.428 . S
C1735 N1734 1.351 . S
C1735 C1736 1.434 . S
C1736 C1727 1.429 . S
C1736 N1733 1.350 . S
C1736 C1735 1.434 . S
C1737 C1738 1.369 . S
C1737 C1739 1.419 . S
C1737 H1741 0.930 . S
C1738 C1737 1.369 . S
C1738 C1747 1.429 . S
C1739 C1737 1.419 . S
C1739 C1740 1.363 . S
C1739 H1742 0.929 . S
C1740 C1739 1.363 . S
C1740 C1746 1.428 . S
H1741 C1737 0.930 . S
H1742 C1739 0.929 . S
S1743 N1744 1.613 . S
S1743 N1745 1.610 . S
N1744 S1743 1.613 . S
N1744 C1747 1.350 . S
N1745 S1743 1.610 . S
N1745 C1746 1.351 . S
C1746 C1740 1.428 . S
C1746 N1745 1.351 . S
C1746 C1747 1.434 . S
C1747 C1738 1.429 . S
C1747 N1744 1.350 . S
C1747 C1746 1.434 . S
C1748 C1749 1.369 . S
C1748 C1750 1.419 . S
C1748 H1752 0.930 . S
C1749 C1748 1.369 . S
C1749 C1758 1.429 . S
C1750 C1748 1.419 . S
C1750 C1751 1.363 . S
C1750 H1753 0.929 . S
C1751 C1750 1.363 . S
C1751 C1757 1.428 . S
H1752 C1748 0.930 . S
H1753 C1750 0.929 . S
S1754 N1755 1.613 . S
S1754 N1756 1.610 . S
N1755 S1754 1.613 . S
N1755 C1758 1.350 . S
N1756 S1754 1.610 . S
N1756 C1757 1.351 . S
C1757 C1751 1.428 . S
C1757 N1756 1.351 . S
C1757 C1758 1.434 . S
C1758 C1749 1.429 . S
C1758 N1755 1.350 . S
C1758 C1757 1.434 . S
C1759 C1760 1.369 . S
C1759 C1761 1.419 . S
C1759 H1763 0.930 . S
C1760 C1759 1.369 . S
C1760 C1769 1.429 . S
C1761 C1759 1.419 . S
C1761 C1762 1.363 . S
C1761 H1764 0.929 . S
C1762 C1761 1.363 . S
C1762 C1768 1.428 . S
H1763 C1759 0.930 . S
H1764 C1761 0.929 . S
S1765 N1766 1.613 . S
S1765 N1767 1.610 . S
N1766 S1765 1.613 . S
N1766 C1769 1.350 . S
N1767 S1765 1.610 . S
N1767 C1768 1.351 . S
C1768 C1762 1.428 . S
C1768 N1767 1.351 . S
C1768 C1769 1.434 . S
C1769 C1760 1.429 . S
C1769 N1766 1.350 . S
C1769 C1768 1.434 . S
C1770 C1771 1.369 . S
C1770 C1772 1.419 . S
C1770 H1774 0.930 . S
C1771 C1770 1.369 . S
C1771 C1780 1.429 . S
C1772 C1770 1.419 . S
C1772 C1773 1.363 . S
C1772 H1775 0.929 . S
C1773 C1772 1.363 . S
C1773 C1779 1.428 . S
H1774 C1770 0.930 . S
H1775 C1772 0.929 . S
S1776 N1777 1.613 . S
S1776 N1778 1.610 . S
N1777 S1776 1.613 . S
N1777 C1780 1.350 . S
N1778 S1776 1.610 . S
N1778 C1779 1.351 . S
C1779 C1773 1.428 . S
C1779 N1778 1.351 . S
C1779 C1780 1.434 . S
C1780 C1771 1.429 . S
C1780 N1777 1.350 . S
C1780 C1779 1.434 . S
C1781 C1782 1.369 . S
C1781 C1783 1.419 . S
C1781 H1785 0.930 . S
C1782 C1781 1.369 . S
C1782 C1791 1.429 . S
C1783 C1781 1.419 . S
C1783 C1784 1.363 . S
C1783 H1786 0.929 . S
C1784 C1783 1.363 . S
C1784 C1790 1.428 . S
H1785 C1781 0.930 . S
H1786 C1783 0.929 . S
S1787 N1788 1.613 . S
S1787 N1789 1.610 . S
N1788 S1787 1.613 . S
N1788 C1791 1.350 . S
N1789 S1787 1.610 . S
N1789 C1790 1.351 . S
C1790 C1784 1.428 . S
C1790 N1789 1.351 . S
C1790 C1791 1.434 . S
C1791 C1782 1.429 . S
C1791 N1788 1.350 . S
C1791 C1790 1.434 . S
C1792 C1793 1.369 . S
C1792 C1794 1.419 . S
C1792 H1796 0.930 . S
C1793 C1792 1.369 . S
C1793 C1802 1.429 1_554 S
C1794 C1792 1.419 . S
C1794 C1795 1.363 . S
C1794 H1797 0.929 . S
C1795 C1794 1.363 . S
C1795 C1801 1.428 1_554 S
H1796 C1792 0.930 . S
H1797 C1794 0.929 . S
S1798 N1799 1.613 . S
S1798 N1800 1.610 . S
N1799 S1798 1.613 . S
N1799 C1802 1.350 . S
N1800 S1798 1.610 . S
N1800 C1801 1.351 . S
C1801 C1795 1.428 1_556 S
C1801 N1800 1.351 . S
C1801 C1802 1.434 . S
C1802 C1793 1.429 1_556 S
C1802 N1799 1.350 . S
C1802 C1801 1.434 . S
C1803 C1804 1.369 . S
C1803 C1805 1.419 1_655 S
C1803 H1807 0.930 . S
C1804 C1803 1.369 . S
C1804 C1813 1.429 . S
C1805 C1803 1.419 1_455 S
C1805 C1806 1.363 . S
C1805 H1808 0.929 . S
C1806 C1805 1.363 . S
C1806 C1812 1.428 . S
H1807 C1803 0.930 . S
H1808 C1805 0.929 . S
S1809 N1810 1.616 1_455 S
S1809 N1811 1.607 . S
N1810 S1809 1.616 1_655 S
N1810 C1813 1.350 . S
N1811 S1809 1.607 . S
N1811 C1812 1.351 . S
C1812 C1806 1.428 . S
C1812 N1811 1.351 . S
C1812 C1813 1.434 1_455 S
C1813 C1804 1.429 . S
C1813 N1810 1.350 . S
C1813 C1812 1.434 1_655 S
C1814 C1815 1.369 . S
C1814 C1816 1.419 . S
C1814 H1818 0.930 . S
C1815 C1814 1.369 . S
C1815 C1824 1.429 . S
C1816 C1814 1.419 . S
C1816 C1817 1.363 . S
C1816 H1819 0.929 . S
C1817 C1816 1.363 . S
C1817 C1823 1.428 . S
H1818 C1814 0.930 . S
H1819 C1816 0.929 . S
S1820 N1821 1.613 . S
S1820 N1822 1.610 . S
N1821 S1820 1.613 . S
N1821 C1824 1.350 . S
N1822 S1820 1.610 . S
N1822 C1823 1.351 . S
C1823 C1817 1.428 . S
C1823 N1822 1.351 . S
C1823 C1824 1.434 . S
C1824 C1815 1.429 . S
C1824 N1821 1.350 . S
C1824 C1823 1.434 . S
C1825 C1826 1.369 . S
C1825 C1827 1.419 . S
C1825 H1829 0.930 . S
C1826 C1825 1.369 . S
C1826 C1835 1.429 . S
C1827 C1825 1.419 . S
C1827 C1828 1.363 . S
C1827 H1830 0.929 . S
C1828 C1827 1.363 . S
C1828 C1834 1.428 . S
H1829 C1825 0.930 . S
H1830 C1827 0.929 . S
S1831 N1832 1.613 . S
S1831 N1833 1.610 . S
N1832 S1831 1.613 . S
N1832 C1835 1.350 . S
N1833 S1831 1.610 . S
N1833 C1834 1.351 . S
C1834 C1828 1.428 . S
C1834 N1833 1.351 . S
C1834 C1835 1.434 . S
C1835 C1826 1.429 . S
C1835 N1832 1.350 . S
C1835 C1834 1.434 . S
C1836 C1837 1.369 . S
C1836 C1838 1.419 . S
C1836 H1840 0.930 . S
C1837 C1836 1.369 . S
C1837 C1846 1.429 . S
C1838 C1836 1.419 . S
C1838 C1839 1.363 . S
C1838 H1841 0.929 . S
C1839 C1838 1.363 . S
C1839 C1845 1.428 . S
H1840 C1836 0.930 . S
H1841 C1838 0.929 . S
S1842 N1843 1.613 . S
S1842 N1844 1.610 . S
N1843 S1842 1.613 . S
N1843 C1846 1.350 . S
N1844 S1842 1.610 . S
N1844 C1845 1.351 . S
C1845 C1839 1.428 . S
C1845 N1844 1.351 . S
C1845 C1846 1.434 . S
C1846 C1837 1.429 . S
C1846 N1843 1.350 . S
C1846 C1845 1.434 . S
C1847 C1848 1.369 . S
C1847 C1849 1.419 . S
C1847 H1851 0.930 . S
C1848 C1847 1.369 . S
C1848 C1857 1.429 . S
C1849 C1847 1.419 . S
C1849 C1850 1.363 . S
C1849 H1852 0.929 . S
C1850 C1849 1.363 . S
C1850 C1856 1.428 . S
H1851 C1847 0.930 . S
H1852 C1849 0.929 . S
S1853 N1854 1.613 . S
S1853 N1855 1.610 . S
N1854 S1853 1.613 . S
N1854 C1857 1.350 . S
N1855 S1853 1.610 . S
N1855 C1856 1.351 . S
C1856 C1850 1.428 . S
C1856 N1855 1.351 . S
C1856 C1857 1.434 . S
C1857 C1848 1.429 . S
C1857 N1854 1.350 . S
C1857 C1856 1.434 . S
C1858 C1859 1.369 . S
C1858 C1860 1.419 . S
C1858 H1862 0.930 . S
C1859 C1858 1.369 . S
C1859 C1868 1.429 . S
C1860 C1858 1.419 . S
C1860 C1861 1.363 . S
C1860 H1863 0.929 . S
C1861 C1860 1.363 . S
C1861 C1867 1.428 . S
H1862 C1858 0.930 . S
H1863 C1860 0.929 . S
S1864 N1865 1.613 . S
S1864 N1866 1.610 . S
N1865 S1864 1.613 . S
N1865 C1868 1.350 . S
N1866 S1864 1.610 . S
N1866 C1867 1.351 . S
C1867 C1861 1.428 . S
C1867 N1866 1.351 . S
C1867 C1868 1.434 . S
C1868 C1859 1.429 . S
C1868 N1865 1.350 . S
C1868 C1867 1.434 . S
C1869 C1870 1.369 . S
C1869 C1871 1.419 1_455 S
C1869 H1873 0.930 . S
C1870 C1869 1.369 . S
C1870 C1879 1.429 . S
C1871 C1869 1.419 1_655 S
C1871 C1872 1.363 . S
C1871 H1874 0.929 . S
C1872 C1871 1.363 . S
C1872 C1878 1.428 . S
H1873 C1869 0.930 . S
H1874 C1871 0.929 . S
S1875 N1876 1.616 1_665 S
S1875 N1877 1.607 1_565 S
N1876 S1875 1.616 1_445 S
N1876 C1879 1.350 . S
N1877 S1875 1.607 1_545 S
N1877 C1878 1.351 . S
C1878 C1872 1.428 . S
C1878 N1877 1.351 . S
C1878 C1879 1.434 1_655 S
C1879 C1870 1.429 . S
C1879 N1876 1.350 . S
C1879 C1878 1.434 1_455 S
C1880 C1881 1.369 1_554 S
C1880 C1882 1.419 . S
C1880 H1884 0.930 . S
C1881 C1880 1.369 1_556 S
C1881 C1890 1.429 . S
C1882 C1880 1.419 . S
C1882 C1883 1.363 1_554 S
C1882 H1885 0.929 . S
C1883 C1882 1.363 1_556 S
C1883 C1889 1.428 . S
H1884 C1880 0.930 . S
H1885 C1882 0.929 . S
S1886 N1887 1.613 . S
S1886 N1888 1.610 . S
N1887 S1886 1.613 . S
N1887 C1890 1.350 . S
N1888 S1886 1.610 . S
N1888 C1889 1.351 . S
C1889 C1883 1.428 . S
C1889 N1888 1.351 . S
C1889 C1890 1.434 . S
C1890 C1881 1.429 . S
C1890 N1887 1.350 . S
C1890 C1889 1.434 . S
C1891 C1892 1.369 . S
C1891 C1893 1.419 . S
C1891 H1895 0.930 . S
C1892 C1891 1.369 . S
C1892 C1901 1.429 . S
C1893 C1891 1.419 . S
C1893 C1894 1.363 . S
C1893 H1896 0.929 . S
C1894 C1893 1.363 . S
C1894 C1900 1.428 . S
H1895 C1891 0.930 . S
H1896 C1893 0.929 . S
S1897 N1898 1.613 . S
S1897 N1899 1.610 . S
N1898 S1897 1.613 . S
N1898 C1901 1.350 . S
N1899 S1897 1.610 . S
N1899 C1900 1.351 . S
C1900 C1894 1.428 . S
C1900 N1899 1.351 . S
C1900 C1901 1.434 . S
C1901 C1892 1.429 . S
C1901 N1898 1.350 . S
C1901 C1900 1.434 . S
C1902 C1903 1.369 1_556 S
C1902 C1904 1.419 . S
C1902 H1906 0.930 . S
C1903 C1902 1.369 1_554 S
C1903 C1912 1.429 . S
C1904 C1902 1.419 . S
C1904 C1905 1.363 1_556 S
C1904 H1907 0.929 . S
C1905 C1904 1.363 1_554 S
C1905 C1911 1.428 . S
H1906 C1902 0.930 . S
H1907 C1904 0.929 . S
S1908 N1909 1.613 . S
S1908 N1910 1.610 . S
N1909 S1908 1.613 . S
N1909 C1912 1.350 . S
N1910 S1908 1.610 . S
N1910 C1911 1.351 . S
C1911 C1905 1.428 . S
C1911 N1910 1.351 . S
C1911 C1912 1.434 . S
C1912 C1903 1.429 . S
C1912 N1909 1.350 . S
C1912 C1911 1.434 . S
C1913 C1914 1.369 . S
C1913 C1915 1.419 . S
C1913 H1917 0.930 . S
C1914 C1913 1.369 . S
C1914 C1923 1.429 . S
C1915 C1913 1.419 . S
C1915 C1916 1.363 . S
C1915 H1918 0.929 . S
C1916 C1915 1.363 . S
C1916 C1922 1.428 . S
H1917 C1913 0.930 . S
H1918 C1915 0.929 . S
S1919 N1920 1.613 . S
S1919 N1921 1.610 . S
N1920 S1919 1.613 . S
N1920 C1923 1.350 . S
N1921 S1919 1.610 . S
N1921 C1922 1.351 . S
C1922 C1916 1.428 . S
C1922 N1921 1.351 . S
C1922 C1923 1.434 . S
C1923 C1914 1.429 . S
C1923 N1920 1.350 . S
C1923 C1922 1.434 . S
C1924 C1925 1.369 . S
C1924 C1926 1.419 . S
C1924 H1928 0.930 . S
C1925 C1924 1.369 . S
C1925 C1934 1.429 . S
C1926 C1924 1.419 . S
C1926 C1927 1.363 . S
C1926 H1929 0.929 . S
C1927 C1926 1.363 . S
C1927 C1933 1.428 . S
H1928 C1924 0.930 . S
H1929 C1926 0.929 . S
S1930 N1931 1.613 . S
S1930 N1932 1.610 . S
N1931 S1930 1.613 . S
N1931 C1934 1.350 . S
N1932 S1930 1.610 . S
N1932 C1933 1.351 . S
C1933 C1927 1.428 . S
C1933 N1932 1.351 . S
C1933 C1934 1.434 . S
C1934 C1925 1.429 . S
C1934 N1931 1.350 . S
C1934 C1933 1.434 . S
C1935 C1936 1.369 . S
C1935 C1937 1.419 1_455 S
C1935 H1939 0.930 . S
C1936 C1935 1.369 . S
C1936 C1945 1.429 . S
C1937 C1935 1.419 1_655 S
C1937 C1938 1.363 . S
C1937 H1940 0.929 . S
C1938 C1937 1.363 . S
C1938 C1944 1.428 . S
H1939 C1935 0.930 . S
H1940 C1937 0.929 . S
S1941 N1942 1.616 1_655 S
S1941 N1943 1.607 . S
N1942 S1941 1.616 1_455 S
N1942 C1945 1.350 . S
N1943 S1941 1.607 . S
N1943 C1944 1.351 . S
C1944 C1938 1.428 . S
C1944 N1943 1.351 . S
C1944 C1945 1.434 1_655 S
C1945 C1936 1.429 . S
C1945 N1942 1.350 . S
C1945 C1944 1.434 1_455 S
C1946 C1947 1.369 . S
C1946 C1948 1.419 1_455 S
C1946 H1950 0.930 . S
C1947 C1946 1.369 . S
C1947 C1956 1.429 . S
C1948 C1946 1.419 1_655 S
C1948 C1949 1.363 . S
C1948 H1951 0.929 . S
C1949 C1948 1.363 . S
C1949 C1955 1.428 . S
H1950 C1946 0.930 . S
H1951 C1948 0.929 . S
S1952 N1953 1.616 1_655 S
S1952 N1954 1.607 . S
N1953 S1952 1.616 1_455 S
N1953 C1956 1.350 . S
N1954 S1952 1.607 . S
N1954 C1955 1.351 . S
C1955 C1949 1.428 . S
C1955 N1954 1.351 . S
C1955 C1956 1.434 1_655 S
C1956 C1947 1.429 . S
C1956 N1953 1.350 . S
C1956 C1955 1.434 1_455 S
C1957 C1958 1.369 . S
C1957 C1959 1.419 . S
C1957 H1961 0.930 . S
C1958 C1957 1.369 . S
C1958 C1967 1.429 . S
C1959 C1957 1.419 . S
C1959 C1960 1.363 . S
C1959 H1962 0.929 . S
C1960 C1959 1.363 . S
C1960 C1966 1.428 . S
H1961 C1957 0.930 . S
H1962 C1959 0.929 . S
S1963 N1964 1.613 . S
S1963 N1965 1.610 . S
N1964 S1963 1.613 . S
N1964 C1967 1.350 . S
N1965 S1963 1.610 . S
N1965 C1966 1.351 . S
C1966 C1960 1.428 . S
C1966 N1965 1.351 . S
C1966 C1967 1.434 . S
C1967 C1958 1.429 . S
C1967 N1964 1.350 . S
C1967 C1966 1.434 . S
C1089 C67 2.386 1_545 S
C1091 C20 2.367 . S
C1100 C54 2.369 . S
C1102 C101 2.387 . S
C1111 C88 2.366 . S
C1113 C135 2.388 1_565 S
C1122 C122 2.365 . S
C1124 C33 2.388 . S
C1133 C156 2.369 . S
C1135 C271 2.386 1_565 S
C1144 C169 2.388 . S
C1146 C190 2.367 . S
C1155 C224 2.366 . S
C1157 C203 2.388 1_545 S
C1166 C258 2.368 . S
C1168 C237 2.386 . S
C1177 C339 2.386 1_565 S
C1179 C292 2.368 . S
C1188 C373 2.386 . S
C1190 C326 2.367 . S
C1199 C360 2.367 . S
C1201 C407 2.388 1_545 S
C1210 C305 2.386 . S
C1212 C394 2.369 . S
C1221 C428 2.368 . S
C1223 C543 2.387 1_545 S
C1232 C462 2.366 . S
C1234 C441 2.387 . S
C1243 C475 2.386 1_565 S
C1245 C496 2.369 . S
C1254 C509 2.386 . S
C1256 C530 2.369 . S
C1265 C611 2.388 . S
C1267 C564 2.366 . S
C1276 C598 2.369 . S
C1278 C645 2.387 . S
C1287 C679 2.388 . S
C1289 C632 2.366 . S
C1298 C577 2.388 . S
C1300 C666 2.367 . S
C1309 C815 2.388 . S
C1311 C700 2.366 . S
C1320 C734 2.368 . S
C1322 C713 2.387 . S
C1331 C747 2.387 . S
C1333 C768 2.367 . S
C1342 C802 2.366 . S
C1344 C781 2.388 . S
C1353 C883 2.387 . S
C1355 C836 2.367 . S
C1364 C870 2.368 . S
C1366 C917 2.386 . S
C1375 C904 2.368 . S
C1377 C951 2.386 . S
C1386 C938 2.367 . S
C1388 C849 2.388 . S
C1397 C1087 2.387 . S
C1399 C972 2.368 . S
C1408 C985 2.387 . S
C1410 C1006 2.368 . S
C1419 C1019 2.386 . S
C1421 C1040 2.368 . S
C1430 C1053 2.387 . S
C1432 C1074 2.368 . S
C1441 C213 0.864 . S
C1443 C9 0.876 . S
C1452 C43 0.882 . S
C1454 C247 0.869 . S
C1463 C77 0.884 . S
C1465 C145 0.877 . S
C1474 C111 0.882 . S
C1476 C179 0.879 . S
C1485 C485 0.884 . S
C1487 C281 0.877 . S
C1496 C519 0.878 . S
C1498 C315 0.882 . S
C1507 C349 0.865 . S
C1509 C417 0.872 . S
C1518 C451 0.866 . S
C1520 C383 0.879 . S
C1529 C553 0.866 . S
C1531 C757 0.880 . S
C1540 C791 0.884 . S
C1542 C587 0.872 . S
C1551 C689 0.885 . S
C1553 C621 0.874 . S
C1562 C723 0.883 . S
C1564 C655 0.869 . S
C1573 C1029 0.869 . S
C1575 C825 0.868 . S
C1584 C1063 0.882 . S
C1586 C859 0.880 . S
C1595 C961 0.873 . S
C1597 C893 0.867 . S
C1606 C995 0.865 . S
C1608 C927 0.872 . S
C1617 C5 0.831 . S
C1619 C243 0.832 . S
C1628 C39 0.825 . S
C1630 C141 0.834 . S
C1639 C175 0.832 . S
C1641 C73 0.832 . S
C1650 C107 0.828 . S
C1652 C209 0.830 . S
C1661 C277 0.828 . S
C1663 C515 0.834 . S
C1672 C413 0.829 . S
C1674 C311 0.833 . S
C1683 C345 0.825 . S
C1685 C447 0.834 . S
C1694 C379 0.835 . S
C1696 C481 0.827 . S
C1705 C787 0.835 . S
C1707 C549 0.828 . S
C1716 C685 0.825 . S
C1718 C583 0.834 . S
C1727 C617 0.831 . S
C1729 C719 0.833 . S
C1738 C651 0.834 . S
C1740 C753 0.830 . S
C1749 C821 0.834 . S
C1751 C1059 0.829 . S
C1760 C957 0.832 . S
C1762 C855 0.828 . S
C1771 C889 0.833 . S
C1773 C991 0.827 . S
C1782 C923 0.835 . S
C1784 C1025 0.828 . S
C1793 C2 1.245 . S
C1795 C1022 1.245 . S
C1804 C512 1.245 . S
C1806 C36 1.245 . S
C1815 C954 1.244 . S
C1817 C70 1.244 . S
C1826 C104 1.245 . S
C1828 C444 1.245 . S
C1837 C138 1.244 . S
C1839 C886 1.244 . S
C1848 C376 1.245 . S
C1850 C172 1.245 . S
C1859 C206 1.245 . S
C1861 C818 1.245 . S
C1870 C240 1.243 . S
C1872 C308 1.243 . S
C1881 C274 1.243 . S
C1883 C750 1.243 . S
C1892 C342 1.244 . S
C1894 C682 1.244 . S
C1903 C410 1.243 . S
C1905 C614 1.243 . S
C1914 C478 1.244 . S
C1916 C546 1.244 . S
C1925 C580 1.243 . S
C1927 C1056 1.243 . S
C1936 C988 1.245 . S
C1938 C648 1.245 . S
C1947 C920 1.243 . S
C1949 C716 1.243 . S
C1958 C852 1.243 . S
C1960 C784 1.243 . S
