# Generated by pormake.
# Topology wje, (4)-cn, num edge types: 1
# Building blocks:
#     Node 0, Type 0, BuildingBlock: AZAVOO_clean_sbu_0, # of connection points: 4
#     Node 1, Type 0, BuildingBlock: AZAVOO_clean_sbu_0, # of connection points: 4
#     Node 2, Type 0, BuildingBlock: AZAVOO_clean_sbu_0, # of connection points: 4
#     Node 3, Type 0, BuildingBlock: AZAVOO_clean_sbu_0, # of connection points: 4
#     Node 4, Type 0, BuildingBlock: AZAVOO_clean_sbu_0, # of connection points: 4
#     Node 5, Type 0, BuildingBlock: AZAVOO_clean_sbu_0, # of connection points: 4
#     Node 6, Type 0, BuildingBlock: AZAVOO_clean_sbu_0, # of connection points: 4
#     Node 7, Type 0, BuildingBlock: AZAVOO_clean_sbu_0, # of connection points: 4
#     Node 8, Type 0, BuildingBlock: AZAVOO_clean_sbu_0, # of connection points: 4
#     Node 9, Type 0, BuildingBlock: AZAVOO_clean_sbu_0, # of connection points: 4
#     Node 10, Type 0, BuildingBlock: AZAVOO_clean_sbu_0, # of connection points: 4
#     Node 11, Type 0, BuildingBlock: AZAVOO_clean_sbu_0, # of connection points: 4
#     Edge 12, Type (0, 0), BuildingBlock: OJICUG_clean_linker_0, # of connection points: 2
#     Edge 13, Type (0, 0), BuildingBlock: OJICUG_clean_linker_0, # of connection points: 2
#     Edge 14, Type (0, 0), BuildingBlock: OJICUG_clean_linker_0, # of connection points: 2
#     Edge 15, Type (0, 0), BuildingBlock: OJICUG_clean_linker_0, # of connection points: 2
#     Edge 16, Type (0, 0), BuildingBlock: OJICUG_clean_linker_0, # of connection points: 2
#     Edge 17, Type (0, 0), BuildingBlock: OJICUG_clean_linker_0, # of connection points: 2
#     Edge 18, Type (0, 0), BuildingBlock: OJICUG_clean_linker_0, # of connection points: 2
#     Edge 19, Type (0, 0), BuildingBlock: OJICUG_clean_linker_0, # of connection points: 2
#     Edge 20, Type (0, 0), BuildingBlock: OJICUG_clean_linker_0, # of connection points: 2
#     Edge 21, Type (0, 0), BuildingBlock: OJICUG_clean_linker_0, # of connection points: 2
#     Edge 22, Type (0, 0), BuildingBlock: OJICUG_clean_linker_0, # of connection points: 2
#     Edge 23, Type (0, 0), BuildingBlock: OJICUG_clean_linker_0, # of connection points: 2
#     Edge 24, Type (0, 0), BuildingBlock: OJICUG_clean_linker_0, # of connection points: 2
#     Edge 25, Type (0, 0), BuildingBlock: OJICUG_clean_linker_0, # of connection points: 2
#     Edge 26, Type (0, 0), BuildingBlock: OJICUG_clean_linker_0, # of connection points: 2
#     Edge 27, Type (0, 0), BuildingBlock: OJICUG_clean_linker_0, # of connection points: 2
#     Edge 28, Type (0, 0), BuildingBlock: OJICUG_clean_linker_0, # of connection points: 2
#     Edge 29, Type (0, 0), BuildingBlock: OJICUG_clean_linker_0, # of connection points: 2
#     Edge 30, Type (0, 0), BuildingBlock: OJICUG_clean_linker_0, # of connection points: 2
#     Edge 31, Type (0, 0), BuildingBlock: OJICUG_clean_linker_0, # of connection points: 2
#     Edge 32, Type (0, 0), BuildingBlock: OJICUG_clean_linker_0, # of connection points: 2
#     Edge 33, Type (0, 0), BuildingBlock: OJICUG_clean_linker_0, # of connection points: 2
#     Edge 34, Type (0, 0), BuildingBlock: OJICUG_clean_linker_0, # of connection points: 2
#     Edge 35, Type (0, 0), BuildingBlock: OJICUG_clean_linker_0, # of connection points: 2
# Relax obj value: 0.154
# Max RMSD: 0.138
# Mean RMSD: 0.137
data_MOF--net-wje--node1-AZAVOO_clean_sbu_0--edge1-OJICUG_clean_linker_0
_symmetry_space_group_name_H-M    P1
_symmetry_Int_Tables_number       1
_symmetry_cell_setting            triclinic
loop_
_symmetry_equiv_pos_as_xyz
'x, y, z'
_cell_length_a     32.961333
_cell_length_b     32.961207
_cell_length_c     20.984989
_cell_angle_alpha  90.078752
_cell_angle_beta   90.056601
_cell_angle_gamma 120.13491
loop_
_atom_site_label
_atom_site_type_symbol
_atom_site_fract_x
_atom_site_fract_y
_atom_site_fract_z
_atom_type_partial_charge
Mg0 Mg 0.32068 0.0026 0.22937 0.0
O1 O 0.3282 0.0017 0.33733 0.0
O2 O 0.39346 0.06537 0.36994 0.0
Mg3 Mg 0.4291 0.10716 0.27959 0.0
C4 C 0.35633 0.02646 0.38145 0.0
C5 C 0.23617 0.90284 0.23122 0.0
O6 O 0.26645 0.89778 0.19643 0.0
O7 O 0.30022 0.05967 0.23145 0.0
O8 O 0.36903 0.1217 0.25924 0.0
O9 O 0.3616 0.96586 0.22116 0.0
O10 O 0.3942 0.04298 0.21965 0.0
C11 C 0.32596 0.10347 0.24305 0.0
C12 C 0.39924 0.00666 0.21989 0.0
O13 O 0.2457 0.94397 0.24657 0.0
Mg14 Mg 0.34189 0.3182 0.56697 0.0
O15 O 0.34099 0.33148 0.67302 0.0
O16 O 0.34165 0.39866 0.68887 0.0
Mg17 Mg 0.34743 0.431 0.59001 0.0
C18 C 0.34094 0.36204 0.71001 0.0
C19 C 0.35029 0.23112 0.59039 0.0
O20 O 0.39007 0.25993 0.56213 0.0
O21 O 0.26567 0.30026 0.55174 0.0
O22 O 0.27491 0.37221 0.55859 0.0
O23 O 0.42053 0.35747 0.57132 0.0
O24 O 0.37859 0.39085 0.54937 0.0
C25 C 0.24963 0.32829 0.54782 0.0
C26 C 0.41909 0.39529 0.55986 0.0
O27 O 0.31938 0.2431 0.59533 0.0
Mg28 Mg 0.98054 0.31853 0.8926 0.0
O29 O 0.97786 0.32307 1.00046 0.0
O30 O 0.9132 0.32272 0.0319 0.0
Mg31 Mg 0.87398 0.31922 0.93974 0.0
C32 C 0.95191 0.32443 0.04424 0.0
C33 C 0.08103 0.33581 0.90025 0.0
O34 O 0.08658 0.37214 0.86737 0.0
O35 O 0.92401 0.24049 0.88954 0.0
O36 O 0.86092 0.24546 0.91619 0.0
O37 O 0.01654 0.39656 0.88886 0.0
O38 O 0.93964 0.35119 0.88283 0.0
C39 C 0.87995 0.22156 0.89949 0.0
C40 C 0.97563 0.39287 0.88571 0.0
O41 O 0.03962 0.30303 0.91216 0.0
Mg42 Mg 0.66021 0.02507 0.23446 0.0
O43 O 0.64265 0.00667 0.33893 0.0
O44 O 0.57558 0.9395 0.35151 0.0
Mg45 Mg 0.5473 0.91566 0.24975 0.0
C46 C 0.61156 0.97537 0.37448 0.0
C47 C 0.73213 0.10617 0.31267 0.0
O48 O 0.69172 0.1034 0.32459 0.0
O49 O 0.67977 0.9677 0.21926 0.0
O50 O 0.60798 0.90409 0.22177 0.0
O51 O 0.62002 0.06318 0.23626 0.0
O52 O 0.58796 0.98817 0.21204 0.0
C53 C 0.65222 0.92347 0.21348 0.0
C54 C 0.58279 0.02379 0.22268 0.0
O55 O 0.73359 0.07905 0.27058 0.0
Mg56 Mg 0.66108 0.65766 0.55818 0.0
O57 O 0.65776 0.65326 0.66643 0.0
O58 O 0.6581 0.58946 0.70035 0.0
Mg59 Mg 0.66038 0.55143 0.60996 0.0
C60 C 0.65673 0.62682 0.71124 0.0
C61 C 0.64532 0.74167 0.5607 0.0
O62 O 0.60866 0.7105 0.52837 0.0
O63 O 0.73867 0.67901 0.55473 0.0
O64 O 0.73408 0.61163 0.58424 0.0
O65 O 0.58326 0.61618 0.55622 0.0
O66 O 0.62787 0.58387 0.55173 0.0
C67 C 0.75773 0.65427 0.56586 0.0
C68 C 0.58646 0.57865 0.555 0.0
O69 O 0.67768 0.73279 0.57373 0.0
Mg70 Mg 0.95562 0.63503 0.89481 0.0
O71 O 0.97384 0.63665 0.9994 0.0
O72 O 0.04077 0.63674 0.01357 0.0
Mg73 Mg 0.06499 0.63192 0.91237 0.0
C74 C 0.00488 0.63702 0.03567 0.0
C75 C 0.87431 0.62623 0.97213 0.0
O76 O 0.87661 0.58833 0.98396 0.0
O77 O 0.01334 0.71219 0.87899 0.0
O78 O 0.07682 0.70411 0.88348 0.0
O79 O 0.91762 0.55635 0.89768 0.0
O80 O -0.00744 0.59949 0.8738 0.0
C81 C 0.05761 0.72894 0.87409 0.0
C82 C 0.95705 0.55861 0.88479 0.0
O83 O 0.90167 0.65477 0.93021 0.0
Mg84 Mg 0.01965 0.66807 0.44867 0.0
O85 O 0.0023 0.65136 0.34371 0.0
O86 O 0.93557 0.58412 0.32904 0.0
Mg87 Mg 0.91064 0.55492 0.42984 0.0
C88 C 0.97151 0.62046 0.30721 0.0
C89 C 0.10115 0.74083 0.37245 0.0
O90 O 0.09894 0.70067 0.36035 0.0
O91 O 0.96188 0.68706 0.46323 0.0
O92 O 0.89859 0.61512 0.45806 0.0
O93 O 0.05776 0.62777 0.44699 0.0
O94 O 0.98257 0.59577 0.46965 0.0
C95 C 0.91762 0.65922 0.46749 0.0
C96 C 0.01817 0.59054 0.4596 0.0
O97 O 0.07364 0.74182 0.4142 0.0
Mg98 Mg 0.31632 0.9843 0.79016 0.0
O99 O 0.32315 0.98008 0.68291 0.0
O100 O 0.3209 0.91477 0.65068 0.0
Mg101 Mg 0.31448 0.87556 0.74418 0.0
C102 C 0.32433 0.95428 0.63882 0.0
C103 C 0.34148 0.07691 0.73289 0.0
O104 O 0.37789 0.0711 0.72778 0.0
O105 O 0.23747 0.92943 0.78866 0.0
O106 O 0.24138 0.86527 0.76443 0.0
O107 O 0.39369 0.01724 0.80164 0.0
O108 O 0.34628 0.9407 0.80303 0.0
C109 C 0.21791 0.8852 0.77904 0.0
C110 C 0.38853 0.97579 0.80377 0.0
O111 O 0.30613 0.04679 0.76461 0.0
Mg112 Mg 0.31412 0.35289 0.12234 0.0
O113 O 0.32972 0.3493 0.01799 0.0
O114 O 0.39641 0.34907 1.00346 0.0
Mg115 Mg 0.42684 0.35628 0.10443 0.0
C116 C 0.35987 0.34818 0.98157 0.0
C117 C 0.24156 0.36121 0.04479 0.0
O118 O 0.28204 0.3988 0.03256 0.0
O119 O 0.29473 0.27605 0.14052 0.0
O120 O 0.36669 0.28498 0.13645 0.0
O121 O 0.35513 0.43155 0.11732 0.0
O122 O 0.38694 0.38877 0.14229 0.0
C123 C 0.32269 0.25998 0.14664 0.0
C124 C 0.39238 0.42947 0.13037 0.0
O125 O 0.24013 0.33287 0.08719 0.0
Mg126 Mg -0.00624 0.32709 0.45618 0.0
O127 O -0.00533 0.33266 0.34795 0.0
O128 O 0.05918 0.39684 0.31514 0.0
Mg129 Mg 0.09963 0.43414 0.40583 0.0
C130 C 0.0203 0.35961 0.30362 0.0
C131 C 0.89363 0.24311 0.4539 0.0
O132 O 0.88855 0.27412 0.48703 0.0
O133 O 0.05005 0.30587 0.45816 0.0
O134 O 0.11287 0.37389 0.43002 0.0
O135 O 0.95776 0.36881 0.46026 0.0
O136 O 0.03478 0.40064 0.46414 0.0
C137 C 0.09397 0.33106 0.44735 0.0
C138 C -0.00121 0.40616 0.462 0.0
O139 O 0.93478 0.25212 0.43986 0.0
Mg140 Mg 0.63035 0.95685 0.7861 0.0
O141 O 0.62924 0.97514 0.68202 0.0
O142 O 0.62742 0.04127 0.67045 0.0
Mg143 Mg 0.62375 0.06453 0.77278 0.0
C144 C 0.62815 0.00595 0.64694 0.0
C145 C 0.6214 0.87674 0.70639 0.0
O146 O 0.58304 0.8786 0.69632 0.0
O147 O 0.70732 0.01585 0.79977 0.0
O148 O 0.69703 0.07807 0.79843 0.0
O149 O 0.55156 0.91732 0.78643 0.0
O150 O 0.59433 -0.00765 0.81064 0.0
C151 C 0.72301 0.05991 0.80569 0.0
C152 C 0.5535 0.95639 0.80096 0.0
O153 O 0.65055 0.90411 0.74794 0.0
Mg154 Mg 0.65659 0.66961 0.12184 0.0
O155 O 0.65024 0.66493 0.01386 0.0
O156 O 0.58601 0.66493 0.98101 0.0
Mg157 Mg 0.54925 0.66804 0.07219 0.0
C158 C 0.6232 0.66342 0.9695 0.0
C159 C 0.73988 0.65259 0.11617 0.0
O160 O 0.70882 0.61635 0.149 0.0
O161 O 0.6778 0.7475 0.12468 0.0
O162 O 0.60954 0.7418 0.09692 0.0
O163 O 0.61449 0.59156 0.12568 0.0
O164 O 0.58288 0.63674 0.13041 0.0
C165 C 0.65239 0.76602 0.11434 0.0
C166 C 0.57719 0.59513 0.12808 0.0
O167 O 0.73146 0.68537 0.10377 0.0
C168 C 0.32453 0.17678 0.26452 0.0
C169 C 0.3092 0.13626 0.22733 0.0
H170 H 0.339 0.24769 0.26777 0.0
C171 C 0.28822 0.13348 0.16776 0.0
H172 H 0.34107 0.17992 0.31034 0.0
C173 C 0.28764 0.17275 0.14287 0.0
C174 C 0.30711 0.21463 0.17802 0.0
H175 H 0.27683 0.10286 0.13773 0.0
H176 H 0.27587 0.17166 0.09436 0.0
C177 C 0.32327 0.2155 0.24018 0.0
C178 C 0.20442 0.32584 0.45338 0.0
C179 C 0.20415 0.31283 0.51706 0.0
H180 H 0.16851 0.34098 0.38052 0.0
C181 C 0.16301 0.29613 0.55306 0.0
H182 H 0.23612 0.33941 0.42516 0.0
C183 C 0.12382 0.29621 0.527 0.0
C184 C 0.12607 0.31408 0.46541 0.0
H185 H 0.1625 0.2868 0.60265 0.0
H186 H 0.09382 0.28704 0.55726 0.0
C187 C 0.16581 0.32673 0.42785 0.0
C188 C 0.80937 0.11562 0.79626 0.0
C189 C 0.76938 0.09058 0.83434 0.0
H190 H 0.87774 0.17701 0.78874 0.0
C191 C 0.77068 0.10402 0.89814 0.0
H192 H 0.80866 0.10645 0.74652 0.0
C193 C 0.80946 0.14453 0.92184 0.0
C194 C 0.84795 0.172 0.88237 0.0
H195 H 0.73988 0.08561 0.92799 0.0
H196 H 0.80779 0.15643 0.96941 0.0
C197 C 0.84879 0.15591 0.82048 0.0
C198 C 0.65741 0.84251 0.09432 0.0
C199 C 0.66911 0.81513 0.13282 0.0
H200 H 0.64472 0.90007 0.0903 0.0
C201 C 0.68528 0.83029 0.19529 0.0
H202 H 0.64436 0.83127 0.04633 0.0
C203 C 0.68464 0.86934 0.22096 0.0
C204 C 0.66893 0.89411 0.18378 0.0
H205 H 0.69358 0.80919 0.22629 0.0
H206 H 0.69255 0.87768 0.27101 0.0
C207 C 0.65762 0.88182 0.11949 0.0
C208 C 0.8753 0.6631 0.56134 0.0
C209 C 0.88765 0.67505 0.49728 0.0
H210 H 0.82394 0.64762 0.63391 0.0
C211 C 0.86193 0.6896 0.46006 0.0
H212 H 0.89426 0.65098 0.59049 0.0
C213 C 0.82202 0.68856 0.48542 0.0
C214 C 0.80693 0.6717 0.54754 0.0
H215 H 0.87027 0.69788 0.41014 0.0
H216 H 0.8004 0.69617 0.45439 0.0
C217 C 0.83507 0.66107 0.58615 0.0
C218 C 0.14052 0.815 0.75659 0.0
C219 C 0.16816 0.85385 0.79571 0.0
H220 H 0.082 0.74507 0.75125 0.0
C221 C 0.15244 0.85498 0.85768 0.0
H222 H 0.1522 0.81302 0.70903 0.0
C223 C 0.11257 0.81553 0.88239 0.0
C224 C 0.0875 0.77516 0.84474 0.0
H225 H 0.1737 0.88414 0.88921 0.0
H226 H 0.10384 0.8151 0.93223 0.0
C227 C 0.10039 0.77615 0.78079 0.0
C228 C 0.48694 0.05526 0.22869 0.0
C229 C 0.44624 0.01119 0.2214 0.0
H230 H 0.56187 0.09371 0.23569 0.0
C231 C 0.45085 0.9713 0.21438 0.0
H232 H 0.48479 0.08679 0.23341 0.0
C233 C 0.49514 0.97539 0.21442 0.0
C234 C 0.53581 0.01936 0.22262 0.0
H235 H 0.42024 0.93687 0.20803 0.0
H236 H 0.4973 0.94401 0.20774 0.0
C237 C 0.53121 0.05925 0.22983 0.0
C238 C 0.49936 0.52707 0.5526 0.0
C239 C 0.54391 0.53165 0.55856 0.0
H240 H 0.42545 0.4808 0.54687 0.0
C241 C 0.54713 0.49096 0.56602 0.0
H242 H 0.49561 0.55763 0.54624 0.0
C243 C 0.50657 0.44667 0.56766 0.0
C244 C 0.46205 0.44213 0.56088 0.0
H245 H 0.58088 0.49317 0.57023 0.0
H246 H 0.51018 0.41596 0.57324 0.0
C247 C 0.45898 0.48286 0.55319 0.0
C248 C 0.92209 0.47143 0.89392 0.0
C249 C 0.96175 0.51617 0.88605 0.0
H250 H 0.89509 0.39742 0.899 0.0
C251 C 0.00583 0.51984 0.87844 0.0
H252 H 0.88754 0.4673 0.89945 0.0
C253 C 0.01028 0.47986 0.87949 0.0
C254 C 0.97064 0.43511 0.88693 0.0
H255 H 0.03705 0.55353 0.87126 0.0
H256 H 0.04481 0.48404 0.87339 0.0
C257 C 0.92643 0.43131 0.89382 0.0
C258 C 0.96916 0.50307 0.46759 0.0
C259 C 0.0133 0.54341 0.4591 0.0
H260 H 0.92992 0.42825 0.4741 0.0
C261 C 0.0528 0.53825 0.45124 0.0
H262 H 0.93809 0.50565 0.47495 0.0
C263 C 0.04822 0.49372 0.45217 0.0
C264 C 0.00395 0.45338 0.45988 0.0
H265 H 0.08738 0.56864 0.4451 0.0
H266 H 0.07946 0.49109 0.44706 0.0
C267 C 0.96447 0.45856 0.46734 0.0
C268 C 0.51452 0.00421 0.81467 0.0
C269 C 0.51085 0.9606 0.8023 0.0
H270 H 0.47904 0.04311 0.8241 0.0
C271 C 0.46617 0.92135 0.79169 0.0
H272 H 0.54812 0.035 0.82443 0.0
C273 C 0.42611 0.92583 0.79289 0.0
C274 C 0.43009 0.96979 0.80374 0.0
H275 H 0.46211 0.88715 0.78259 0.0
H276 H 0.39223 0.89498 0.78485 0.0
C277 C 0.47474 0.00882 0.81479 0.0
C278 C 0.44486 0.51648 0.11953 0.0
C279 C 0.43964 0.47186 0.12842 0.0
H280 H 0.49212 0.59042 0.11344 0.0
C281 C 0.48005 0.46826 0.13662 0.0
H282 H 0.41445 0.52055 0.11355 0.0
C283 C 0.52463 0.50822 0.13521 0.0
C284 C 0.52986 0.55287 0.12685 0.0
H285 H 0.47748 0.43467 0.14466 0.0
H286 H 0.55497 0.50412 0.14186 0.0
C287 C 0.48947 0.55659 0.1193 0.0
C288 C 0.15694 0.77751 0.28228 0.0
C289 C 0.13319 0.78263 0.33454 0.0
H290 H 0.20698 0.8111 0.20797 0.0
C291 C 0.14034 0.82739 0.34903 0.0
H292 H 0.1517 0.74343 0.269 0.0
C293 C 0.17218 0.8665 0.31345 0.0
C294 C 0.19725 0.86142 0.26272 0.0
H295 H 0.12221 0.83235 0.38861 0.0
H296 H 0.17829 0.90083 0.32708 0.0
C297 C 0.18847 0.81635 0.24682 0.0
C298 C 0.30681 0.16233 0.66466 0.0
C299 C 0.34489 0.18911 0.62363 0.0
H300 H 0.27565 0.10566 0.73218 0.0
C301 C 0.38038 0.17772 0.61816 0.0
H302 H 0.27894 0.1704 0.67005 0.0
C303 C 0.37875 0.14147 0.65393 0.0
C304 C 0.34144 0.11521 0.69611 0.0
H305 H 0.41011 0.19739 0.58698 0.0
H306 H 0.40719 0.13424 0.64839 0.0
C307 C 0.30504 0.12552 0.70055 0.0
C308 C 0.2057 0.38115 0.95437 0.0
C309 C 0.19997 0.35181 1.00631 0.0
H310 H 0.17306 0.3984 0.87963 0.0
C311 C 0.15491 0.31421 0.01979 0.0
H312 H 0.23997 0.41003 0.94182 0.0
C313 C 0.11617 0.30735 0.98342 0.0
C314 C 0.12193 0.33794 0.93295 0.0
H315 H 0.14943 0.29076 0.05911 0.0
H316 H 0.08161 0.27911 0.99621 0.0
C317 C 0.16727 0.3743 0.91823 0.0
C318 C 0.85761 0.17816 0.37267 0.0
C319 C 0.85233 0.20376 0.42257 0.0
H320 H 0.82376 0.12733 0.29809 0.0
C321 C 0.80719 0.19503 0.43767 0.0
H322 H 0.89201 0.18424 0.35966 0.0
C323 C 0.76846 0.16297 0.40224 0.0
C324 C 0.77378 0.13869 0.35074 0.0
H325 H 0.80181 0.21396 0.47588 0.0
H326 H 0.73432 0.15777 0.41487 0.0
C327 C 0.81863 0.14585 0.33707 0.0
C328 C 0.6751 0.80627 0.64251 0.0
C329 C 0.64368 0.78082 0.59287 0.0
H330 H 0.69262 0.85647 0.71805 0.0
C331 C 0.60697 0.78933 0.57905 0.0
H332 H 0.70368 0.80036 0.65455 0.0
C333 C 0.60046 0.82093 0.61559 0.0
C334 C 0.63054 0.84495 0.66693 0.0
H335 H 0.58226 0.77053 0.54106 0.0
H336 H 0.57123 0.82591 0.60398 0.0
C337 C 0.6686 0.83813 0.67922 0.0
C338 C 0.80379 0.68085 0.03348 0.0
C339 C 0.77857 0.65021 0.08374 0.0
H340 H 0.85375 0.69724 0.95805 0.0
C341 C 0.78697 0.61354 0.09837 0.0
H342 H 0.79793 0.70933 0.02076 0.0
C343 C 0.81835 0.60643 0.06231 0.0
C344 C 0.84233 0.63582 0.01056 0.0
H345 H 0.76834 0.58938 0.13682 0.0
H346 H 0.82329 0.57731 0.07475 0.0
C347 C 0.83547 0.67374 0.99722 0.0
C348 C 0.32179 0.95925 0.45828 0.0
C349 C 0.34686 0.00797 0.44729 0.0
H350 H 0.29581 0.90391 0.52751 0.0
C351 C 0.36405 0.03859 0.49963 0.0
H352 H 0.30838 0.93477 0.41876 0.0
C353 C 0.35608 0.02093 0.56167 0.0
C354 C 0.33175 0.97224 0.57273 0.0
H355 H 0.38344 0.07624 0.49267 0.0
H356 H 0.36978 0.0455 0.601 0.0
C357 C 0.31482 0.94154 0.5204 0.0
C358 C 0.32921 0.3713 0.88794 0.0
C359 C 0.35346 0.34956 0.91201 0.0
H360 H 0.30682 0.39291 0.80522 0.0
C361 C 0.37221 0.33064 0.8691 0.0
H362 H 0.31461 0.38651 0.9198 0.0
C363 C 0.36674 0.33341 0.80339 0.0
C364 C 0.34358 0.35629 0.77942 0.0
H365 H 0.39094 0.31364 0.88631 0.0
H366 H 0.38182 0.31878 0.77127 0.0
C367 C 0.32486 0.37517 0.82234 0.0
C368 C 0.03432 0.36389 0.18591 0.0
C369 C 0.00289 0.34858 0.23729 0.0
H370 H 0.04269 0.36727 0.08459 0.0
C371 C 0.95437 0.32386 0.22481 0.0
H372 H 0.07185 0.38287 0.19413 0.0
C373 C 0.93762 0.31582 0.16211 0.0
C374 C 0.96906 0.33124 0.11073 0.0
H375 H 0.9293 0.31181 0.26354 0.0
H376 H 0.9001 0.2975 0.15384 0.0
C377 C 0.01757 0.35477 0.12327 0.0
C378 C 0.59783 0.94484 0.4864 0.0
C379 C 0.61648 0.98291 0.44421 0.0
H380 H 0.5878 0.92247 0.58361 0.0
C381 C 0.6395 0.02882 0.46915 0.0
H382 H 0.58002 0.90916 0.46854 0.0
C383 C 0.64307 0.03651 0.535 0.0
C384 C 0.62483 -0.00155 0.57719 0.0
H385 H 0.65394 0.0589 0.43777 0.0
H386 H 0.66049 0.07219 0.55286 0.0
C387 C 0.60252 0.95255 0.55223 0.0
C388 C 0.65888 0.63292 0.89157 0.0
C389 C 0.63395 0.6565 0.90333 0.0
H390 H 0.68499 0.60434 0.82156 0.0
C391 C 0.61816 0.6717 0.85145 0.0
H392 H 0.67132 0.62059 0.93067 0.0
C393 C 0.62695 0.66331 0.78904 0.0
C394 C 0.65059 0.63844 0.77731 0.0
H395 H 0.59901 0.69006 0.8591 0.0
H396 H 0.61402 0.67513 0.74993 0.0
C397 C 0.66657 0.62343 0.82919 0.0
C398 C 0.94219 0.60678 0.1946 0.0
C399 C 0.97981 0.6259 0.23772 0.0
H400 H 0.9208 0.59623 0.0969 0.0
C401 C 0.02598 0.64958 0.21394 0.0
H402 H 0.90632 0.58846 0.21155 0.0
C403 C 0.03436 0.65319 0.14831 0.0
C404 C -0.00327 0.63429 0.10519 0.0
H405 H 0.05573 0.66441 0.24608 0.0
H406 H 0.07023 0.67099 0.13133 0.0
C407 C 0.95057 0.61148 0.129 0.0
loop_
_geom_bond_atom_site_label_1
_geom_bond_atom_site_label_2
_geom_bond_distance
_geom_bond_site_symmetry_2
_ccdc_geom_bond_type
Mg0 O1 2.028 . S
Mg0 O7 1.986 1_565 S
Mg0 O9 2.114 . S
Mg0 O10 2.251 1_565 S
Mg0 O13 2.010 . S
O1 Mg0 2.028 . S
O1 C4 1.250 1_565 S
O2 Mg3 2.028 . S
O2 C4 1.248 . S
Mg3 O2 2.028 . S
Mg3 O8 2.032 . S
Mg3 O10 2.079 . S
C4 O1 1.250 1_545 S
C4 O2 1.248 . S
C5 O6 1.264 . S
C5 O13 1.249 . S
O6 C5 1.264 . S
O7 Mg0 1.986 1_545 S
O7 C11 1.246 . S
O8 Mg3 2.032 . S
O8 C11 1.259 . S
O9 Mg0 2.114 . S
O9 C12 1.252 . S
O10 Mg0 2.251 1_545 S
O10 Mg3 2.079 . S
O10 C12 1.273 1_545 S
C11 O7 1.246 . S
C11 O8 1.259 . S
C12 O9 1.252 . S
C12 O10 1.273 1_565 S
O13 Mg0 2.010 . S
O13 C5 1.249 . S
Mg14 O15 2.028 . S
Mg14 O21 1.986 . S
Mg14 O23 2.114 . S
Mg14 O24 2.251 . S
Mg14 O27 2.010 . S
O15 Mg14 2.028 . S
O15 C18 1.250 . S
O16 Mg17 2.028 . S
O16 C18 1.248 . S
Mg17 O16 2.028 . S
Mg17 O22 2.032 . S
Mg17 O24 2.079 . S
C18 O15 1.250 . S
C18 O16 1.248 . S
C19 O20 1.264 . S
C19 O27 1.249 . S
O20 C19 1.264 . S
O21 Mg14 1.986 . S
O21 C25 1.246 . S
O22 Mg17 2.032 . S
O22 C25 1.259 . S
O23 Mg14 2.114 . S
O23 C26 1.252 . S
O24 Mg14 2.251 . S
O24 Mg17 2.079 . S
O24 C26 1.273 . S
C25 O21 1.246 . S
C25 O22 1.259 . S
C26 O23 1.252 . S
C26 O24 1.273 . S
O27 Mg14 2.010 . S
O27 C19 1.249 . S
Mg28 O29 2.028 1_556 S
Mg28 O35 1.986 1_455 S
Mg28 O37 2.114 . S
Mg28 O38 2.251 1_455 S
Mg28 O41 2.010 . S
O29 Mg28 2.028 1_554 S
O29 C32 1.250 1_455 S
O30 Mg31 2.028 1_554 S
O30 C32 1.248 . S
Mg31 O30 2.028 1_556 S
Mg31 O36 2.032 . S
Mg31 O38 2.079 . S
C32 O29 1.250 1_655 S
C32 O30 1.248 . S
C33 O34 1.264 . S
C33 O41 1.249 . S
O34 C33 1.264 . S
O35 Mg28 1.986 1_655 S
O35 C39 1.246 . S
O36 Mg31 2.032 . S
O36 C39 1.259 . S
O37 Mg28 2.114 . S
O37 C40 1.252 . S
O38 Mg28 2.251 1_655 S
O38 Mg31 2.079 . S
O38 C40 1.273 1_655 S
C39 O35 1.246 . S
C39 O36 1.259 . S
C40 O37 1.252 . S
C40 O38 1.273 1_455 S
O41 Mg28 2.010 . S
O41 C33 1.249 . S
Mg42 O43 2.028 . S
Mg42 O49 1.986 1_545 S
Mg42 O51 2.114 . S
Mg42 O52 2.251 1_545 S
Mg42 O55 2.010 . S
O43 Mg42 2.028 . S
O43 C46 1.250 1_545 S
O44 Mg45 2.028 . S
O44 C46 1.248 . S
Mg45 O44 2.028 . S
Mg45 O50 2.032 . S
Mg45 O52 2.079 . S
C46 O43 1.250 1_565 S
C46 O44 1.248 . S
C47 O48 1.264 . S
C47 O55 1.249 . S
O48 C47 1.264 . S
O49 Mg42 1.986 1_565 S
O49 C53 1.246 . S
O50 Mg45 2.032 . S
O50 C53 1.259 . S
O51 Mg42 2.114 . S
O51 C54 1.252 . S
O52 Mg42 2.251 1_565 S
O52 Mg45 2.079 . S
O52 C54 1.273 1_565 S
C53 O49 1.246 . S
C53 O50 1.259 . S
C54 O51 1.252 . S
C54 O52 1.273 1_545 S
O55 Mg42 2.010 . S
O55 C47 1.249 . S
Mg56 O57 2.028 . S
Mg56 O63 1.986 . S
Mg56 O65 2.114 . S
Mg56 O66 2.251 . S
Mg56 O69 2.010 . S
O57 Mg56 2.028 . S
O57 C60 1.250 . S
O58 Mg59 2.028 . S
O58 C60 1.248 . S
Mg59 O58 2.028 . S
Mg59 O64 2.032 . S
Mg59 O66 2.079 . S
C60 O57 1.250 . S
C60 O58 1.248 . S
C61 O62 1.264 . S
C61 O69 1.249 . S
O62 C61 1.264 . S
O63 Mg56 1.986 . S
O63 C67 1.246 . S
O64 Mg59 2.032 . S
O64 C67 1.259 . S
O65 Mg56 2.114 . S
O65 C68 1.252 . S
O66 Mg56 2.251 . S
O66 Mg59 2.079 . S
O66 C68 1.273 . S
C67 O63 1.246 . S
C67 O64 1.259 . S
C68 O65 1.252 . S
C68 O66 1.273 . S
O69 Mg56 2.010 . S
O69 C61 1.249 . S
Mg70 O71 2.028 1_556 S
Mg70 O77 1.986 1_655 S
Mg70 O79 2.114 . S
Mg70 O80 2.251 1_655 S
Mg70 O83 2.010 . S
O71 Mg70 2.028 1_554 S
O71 C74 1.250 1_655 S
O72 Mg73 2.028 1_554 S
O72 C74 1.248 . S
Mg73 O72 2.028 1_556 S
Mg73 O78 2.032 . S
Mg73 O80 2.079 . S
C74 O71 1.250 1_455 S
C74 O72 1.248 . S
C75 O76 1.264 . S
C75 O83 1.249 . S
O76 C75 1.264 . S
O77 Mg70 1.986 1_455 S
O77 C81 1.246 . S
O78 Mg73 2.032 . S
O78 C81 1.259 . S
O79 Mg70 2.114 . S
O79 C82 1.252 . S
O80 Mg70 2.251 1_455 S
O80 Mg73 2.079 . S
O80 C82 1.273 1_455 S
C81 O77 1.246 . S
C81 O78 1.259 . S
C82 O79 1.252 . S
C82 O80 1.273 1_655 S
O83 Mg70 2.010 . S
O83 C75 1.249 . S
Mg84 O85 2.028 . S
Mg84 O91 1.986 1_455 S
Mg84 O93 2.114 . S
Mg84 O94 2.251 1_455 S
Mg84 O97 2.010 . S
O85 Mg84 2.028 . S
O85 C88 1.250 1_455 S
O86 Mg87 2.028 . S
O86 C88 1.248 . S
Mg87 O86 2.028 . S
Mg87 O92 2.032 . S
Mg87 O94 2.079 . S
C88 O85 1.250 1_655 S
C88 O86 1.248 . S
C89 O90 1.264 . S
C89 O97 1.249 . S
O90 C89 1.264 . S
O91 Mg84 1.986 1_655 S
O91 C95 1.246 . S
O92 Mg87 2.032 . S
O92 C95 1.259 . S
O93 Mg84 2.114 . S
O93 C96 1.252 . S
O94 Mg84 2.251 1_655 S
O94 Mg87 2.079 . S
O94 C96 1.273 1_655 S
C95 O91 1.246 . S
C95 O92 1.259 . S
C96 O93 1.252 . S
C96 O94 1.273 1_455 S
O97 Mg84 2.010 . S
O97 C89 1.249 . S
Mg98 O99 2.028 . S
Mg98 O105 1.986 1_545 S
Mg98 O107 2.114 . S
Mg98 O108 2.251 1_545 S
Mg98 O111 2.010 . S
O99 Mg98 2.028 . S
O99 C102 1.250 1_545 S
O100 Mg101 2.028 . S
O100 C102 1.248 . S
Mg101 O100 2.028 . S
Mg101 O106 2.032 . S
Mg101 O108 2.079 . S
C102 O99 1.250 1_565 S
C102 O100 1.248 . S
C103 O104 1.264 . S
C103 O111 1.249 . S
O104 C103 1.264 . S
O105 Mg98 1.986 1_565 S
O105 C109 1.246 . S
O106 Mg101 2.032 . S
O106 C109 1.259 . S
O107 Mg98 2.114 . S
O107 C110 1.252 . S
O108 Mg98 2.251 1_565 S
O108 Mg101 2.079 . S
O108 C110 1.273 1_565 S
C109 O105 1.246 . S
C109 O106 1.259 . S
C110 O107 1.252 . S
C110 O108 1.273 1_545 S
O111 Mg98 2.010 . S
O111 C103 1.249 . S
Mg112 O113 2.028 1_554 S
Mg112 O119 1.986 . S
Mg112 O121 2.114 . S
Mg112 O122 2.251 . S
Mg112 O125 2.010 . S
O113 Mg112 2.028 1_556 S
O113 C116 1.250 . S
O114 Mg115 2.028 1_556 S
O114 C116 1.248 . S
Mg115 O114 2.028 1_554 S
Mg115 O120 2.032 . S
Mg115 O122 2.079 . S
C116 O113 1.250 . S
C116 O114 1.248 . S
C117 O118 1.264 . S
C117 O125 1.249 . S
O118 C117 1.264 . S
O119 Mg112 1.986 . S
O119 C123 1.246 . S
O120 Mg115 2.032 . S
O120 C123 1.259 . S
O121 Mg112 2.114 . S
O121 C124 1.252 . S
O122 Mg112 2.251 . S
O122 Mg115 2.079 . S
O122 C124 1.273 . S
C123 O119 1.246 . S
C123 O120 1.259 . S
C124 O121 1.252 . S
C124 O122 1.273 . S
O125 Mg112 2.010 . S
O125 C117 1.249 . S
Mg126 O127 2.028 . S
Mg126 O133 1.986 1_655 S
Mg126 O135 2.114 . S
Mg126 O136 2.251 1_655 S
Mg126 O139 2.010 . S
O127 Mg126 2.028 . S
O127 C130 1.250 1_655 S
O128 Mg129 2.028 . S
O128 C130 1.248 . S
Mg129 O128 2.028 . S
Mg129 O134 2.032 . S
Mg129 O136 2.079 . S
C130 O127 1.250 1_455 S
C130 O128 1.248 . S
C131 O132 1.264 . S
C131 O139 1.249 . S
O132 C131 1.264 . S
O133 Mg126 1.986 1_455 S
O133 C137 1.246 . S
O134 Mg129 2.032 . S
O134 C137 1.259 . S
O135 Mg126 2.114 . S
O135 C138 1.252 . S
O136 Mg126 2.251 1_455 S
O136 Mg129 2.079 . S
O136 C138 1.273 1_455 S
C137 O133 1.246 . S
C137 O134 1.259 . S
C138 O135 1.252 . S
C138 O136 1.273 1_655 S
O139 Mg126 2.010 . S
O139 C131 1.249 . S
Mg140 O141 2.028 . S
Mg140 O147 1.986 1_565 S
Mg140 O149 2.114 . S
Mg140 O150 2.251 1_565 S
Mg140 O153 2.010 . S
O141 Mg140 2.028 . S
O141 C144 1.250 1_565 S
O142 Mg143 2.028 . S
O142 C144 1.248 . S
Mg143 O142 2.028 . S
Mg143 O148 2.032 . S
Mg143 O150 2.079 . S
C144 O141 1.250 1_545 S
C144 O142 1.248 . S
C145 O146 1.264 . S
C145 O153 1.249 . S
O146 C145 1.264 . S
O147 Mg140 1.986 1_545 S
O147 C151 1.246 . S
O148 Mg143 2.032 . S
O148 C151 1.259 . S
O149 Mg140 2.114 . S
O149 C152 1.252 . S
O150 Mg140 2.251 1_545 S
O150 Mg143 2.079 . S
O150 C152 1.273 1_545 S
C151 O147 1.246 . S
C151 O148 1.259 . S
C152 O149 1.252 . S
C152 O150 1.273 1_565 S
O153 Mg140 2.010 . S
O153 C145 1.249 . S
Mg154 O155 2.028 1_554 S
Mg154 O161 1.986 . S
Mg154 O163 2.114 . S
Mg154 O164 2.251 . S
Mg154 O167 2.010 . S
O155 Mg154 2.028 1_556 S
O155 C158 1.250 . S
O156 Mg157 2.028 1_556 S
O156 C158 1.248 . S
Mg157 O156 2.028 1_554 S
Mg157 O162 2.032 . S
Mg157 O164 2.079 . S
C158 O155 1.250 . S
C158 O156 1.248 . S
C159 O160 1.264 . S
C159 O167 1.249 . S
O160 C159 1.264 . S
O161 Mg154 1.986 . S
O161 C165 1.246 . S
O162 Mg157 2.032 . S
O162 C165 1.259 . S
O163 Mg154 2.114 . S
O163 C166 1.252 . S
O164 Mg154 2.251 . S
O164 Mg157 2.079 . S
O164 C166 1.273 . S
C165 O161 1.246 . S
C165 O162 1.259 . S
C166 O163 1.252 . S
C166 O164 1.273 . S
O167 Mg154 2.010 . S
O167 C159 1.249 . S
C168 C169 1.387 . S
C168 H172 0.950 . S
C168 C177 1.390 . S
C169 C168 1.387 . S
C169 C171 1.387 . S
H170 C177 0.950 . S
C171 C169 1.387 . S
C171 C173 1.390 . S
C171 H175 0.950 . S
H172 C168 0.950 . S
C173 C171 1.390 . S
C173 C174 1.387 . S
C173 H176 0.950 . S
C174 C173 1.387 . S
C174 C177 1.387 . S
H175 C171 0.950 . S
H176 C173 0.950 . S
C177 C168 1.390 . S
C177 H170 0.950 . S
C177 C174 1.387 . S
C178 C179 1.387 . S
C178 H182 0.950 . S
C178 C187 1.390 . S
C179 C178 1.387 . S
C179 C181 1.387 . S
H180 C187 0.950 . S
C181 C179 1.387 . S
C181 C183 1.390 . S
C181 H185 0.950 . S
H182 C178 0.950 . S
C183 C181 1.390 . S
C183 C184 1.387 . S
C183 H186 0.950 . S
C184 C183 1.387 . S
C184 C187 1.387 . S
H185 C181 0.950 . S
H186 C183 0.950 . S
C187 C178 1.390 . S
C187 H180 0.950 . S
C187 C184 1.387 . S
C188 C189 1.387 . S
C188 H192 0.950 . S
C188 C197 1.390 . S
C189 C188 1.387 . S
C189 C191 1.387 . S
H190 C197 0.950 . S
C191 C189 1.387 . S
C191 C193 1.390 . S
C191 H195 0.950 . S
H192 C188 0.950 . S
C193 C191 1.390 . S
C193 C194 1.387 . S
C193 H196 0.950 . S
C194 C193 1.387 . S
C194 C197 1.387 . S
H195 C191 0.950 . S
H196 C193 0.950 . S
C197 C188 1.390 . S
C197 H190 0.950 . S
C197 C194 1.387 . S
C198 C199 1.387 . S
C198 H202 0.950 . S
C198 C207 1.390 . S
C199 C198 1.387 . S
C199 C201 1.387 . S
H200 C207 0.950 . S
C201 C199 1.387 . S
C201 C203 1.390 . S
C201 H205 0.950 . S
H202 C198 0.950 . S
C203 C201 1.390 . S
C203 C204 1.387 . S
C203 H206 0.950 . S
C204 C203 1.387 . S
C204 C207 1.387 . S
H205 C201 0.950 . S
H206 C203 0.950 . S
C207 C198 1.390 . S
C207 H200 0.950 . S
C207 C204 1.387 . S
C208 C209 1.387 . S
C208 H212 0.950 . S
C208 C217 1.390 . S
C209 C208 1.387 . S
C209 C211 1.387 . S
H210 C217 0.950 . S
C211 C209 1.387 . S
C211 C213 1.390 . S
C211 H215 0.950 . S
H212 C208 0.950 . S
C213 C211 1.390 . S
C213 C214 1.387 . S
C213 H216 0.950 . S
C214 C213 1.387 . S
C214 C217 1.387 . S
H215 C211 0.950 . S
H216 C213 0.950 . S
C217 C208 1.390 . S
C217 H210 0.950 . S
C217 C214 1.387 . S
C218 C219 1.387 . S
C218 H222 0.950 . S
C218 C227 1.390 . S
C219 C218 1.387 . S
C219 C221 1.387 . S
H220 C227 0.950 . S
C221 C219 1.387 . S
C221 C223 1.390 . S
C221 H225 0.950 . S
H222 C218 0.950 . S
C223 C221 1.390 . S
C223 C224 1.387 . S
C223 H226 0.950 . S
C224 C223 1.387 . S
C224 C227 1.387 . S
H225 C221 0.950 . S
H226 C223 0.950 . S
C227 C218 1.390 . S
C227 H220 0.950 . S
C227 C224 1.387 . S
C228 C229 1.392 . S
C228 H232 0.951 . S
C228 C237 1.400 1_565 S
C229 C228 1.392 . S
C229 C231 1.392 . S
H230 C237 0.951 . S
C231 C229 1.392 . S
C231 C233 1.400 1_565 S
C231 H235 0.951 . S
H232 C228 0.951 . S
C233 C231 1.400 1_545 S
C233 C234 1.384 . S
C233 H236 0.951 . S
C234 C233 1.384 . S
C234 C237 1.384 . S
H235 C231 0.951 . S
H236 C233 0.951 . S
C237 C228 1.400 1_545 S
C237 H230 0.951 . S
C237 C234 1.384 . S
C238 C239 1.387 . S
C238 H242 0.950 . S
C238 C247 1.390 . S
C239 C238 1.387 . S
C239 C241 1.387 . S
H240 C247 0.950 . S
C241 C239 1.387 . S
C241 C243 1.390 . S
C241 H245 0.950 . S
H242 C238 0.950 . S
C243 C241 1.390 . S
C243 C244 1.387 . S
C243 H246 0.950 . S
C244 C243 1.387 . S
C244 C247 1.387 . S
H245 C241 0.950 . S
H246 C243 0.950 . S
C247 C238 1.390 . S
C247 H240 0.950 . S
C247 C244 1.387 . S
C248 C249 1.392 . S
C248 H252 0.954 . S
C248 C257 1.369 1_655 S
C249 C248 1.392 . S
C249 C251 1.392 . S
H250 C257 0.956 . S
C251 C249 1.392 . S
C251 C253 1.369 1_655 S
C251 H255 0.954 1_556 S
H252 C248 0.954 . S
C253 C251 1.369 1_455 S
C253 C254 1.394 . S
C253 H256 0.956 1_556 S
C254 C253 1.394 . S
C254 C257 1.394 . S
H255 C251 0.954 1_554 S
H256 C253 0.956 1_554 S
C257 C248 1.369 1_455 S
C257 H250 0.956 . S
C257 C254 1.394 . S
C258 C259 1.392 . S
C258 H262 0.951 . S
C258 C267 1.400 1_455 S
C259 C258 1.392 . S
C259 C261 1.392 . S
H260 C267 0.951 . S
C261 C259 1.392 . S
C261 C263 1.400 1_455 S
C261 H265 0.951 . S
H262 C258 0.951 . S
C263 C261 1.400 1_655 S
C263 C264 1.384 . S
C263 H266 0.951 . S
C264 C263 1.384 . S
C264 C267 1.384 . S
H265 C261 0.951 . S
H266 C263 0.951 . S
C267 C258 1.400 1_655 S
C267 H260 0.951 . S
C267 C264 1.384 . S
C268 C269 1.392 . S
C268 H272 0.954 . S
C268 C277 1.369 1_565 S
C269 C268 1.392 . S
C269 C271 1.392 . S
H270 C277 0.956 . S
C271 C269 1.392 . S
C271 C273 1.369 1_565 S
C271 H275 0.954 . S
H272 C268 0.954 . S
C273 C271 1.369 1_545 S
C273 C274 1.394 . S
C273 H276 0.956 . S
C274 C273 1.394 . S
C274 C277 1.394 . S
H275 C271 0.954 . S
H276 C273 0.956 . S
C277 C268 1.369 1_545 S
C277 H270 0.956 . S
C277 C274 1.394 . S
C278 C279 1.387 . S
C278 H282 0.950 . S
C278 C287 1.390 . S
C279 C278 1.387 . S
C279 C281 1.387 . S
H280 C287 0.950 . S
C281 C279 1.387 . S
C281 C283 1.390 . S
C281 H285 0.950 1_554 S
H282 C278 0.950 . S
C283 C281 1.390 . S
C283 C284 1.387 . S
C283 H286 0.950 1_554 S
C284 C283 1.387 . S
C284 C287 1.387 . S
H285 C281 0.950 1_556 S
H286 C283 0.950 1_556 S
C287 C278 1.390 . S
C287 H280 0.950 . S
C287 C284 1.387 . S
C288 C289 1.387 . S
C288 H292 0.950 . S
C288 C297 1.390 . S
C289 C288 1.387 . S
C289 C291 1.387 . S
H290 C297 0.950 . S
C291 C289 1.387 . S
C291 C293 1.390 . S
C291 H295 0.950 . S
H292 C288 0.950 . S
C293 C291 1.390 . S
C293 C294 1.387 . S
C293 H296 0.950 . S
C294 C293 1.387 . S
C294 C297 1.387 . S
H295 C291 0.950 . S
H296 C293 0.950 . S
C297 C288 1.390 . S
C297 H290 0.950 . S
C297 C294 1.387 . S
C298 C299 1.387 . S
C298 H302 0.950 . S
C298 C307 1.390 . S
C299 C298 1.387 . S
C299 C301 1.387 . S
H300 C307 0.950 . S
C301 C299 1.387 . S
C301 C303 1.390 . S
C301 H305 0.950 . S
H302 C298 0.950 . S
C303 C301 1.390 . S
C303 C304 1.387 . S
C303 H306 0.950 . S
C304 C303 1.387 . S
C304 C307 1.387 . S
H305 C301 0.950 . S
H306 C303 0.950 . S
C307 C298 1.390 . S
C307 H300 0.950 . S
C307 C304 1.387 . S
C308 C309 1.387 . S
C308 H312 0.950 . S
C308 C317 1.390 1_554 S
C309 C308 1.387 . S
C309 C311 1.387 . S
H310 C317 0.950 . S
C311 C309 1.387 . S
C311 C313 1.390 1_554 S
C311 H315 0.950 . S
H312 C308 0.950 . S
C313 C311 1.390 1_556 S
C313 C314 1.387 . S
C313 H316 0.950 . S
C314 C313 1.387 . S
C314 C317 1.387 . S
H315 C311 0.950 . S
H316 C313 0.950 . S
C317 C308 1.390 1_556 S
C317 H310 0.950 . S
C317 C314 1.387 . S
C318 C319 1.387 . S
C318 H322 0.950 . S
C318 C327 1.390 . S
C319 C318 1.387 . S
C319 C321 1.387 . S
H320 C327 0.950 . S
C321 C319 1.387 . S
C321 C323 1.390 . S
C321 H325 0.950 . S
H322 C318 0.950 . S
C323 C321 1.390 . S
C323 C324 1.387 . S
C323 H326 0.950 . S
C324 C323 1.387 . S
C324 C327 1.387 . S
H325 C321 0.950 . S
H326 C323 0.950 . S
C327 C318 1.390 . S
C327 H320 0.950 . S
C327 C324 1.387 . S
C328 C329 1.387 . S
C328 H332 0.950 . S
C328 C337 1.390 . S
C329 C328 1.387 . S
C329 C331 1.387 . S
H330 C337 0.950 . S
C331 C329 1.387 . S
C331 C333 1.390 . S
C331 H335 0.950 . S
H332 C328 0.950 . S
C333 C331 1.390 . S
C333 C334 1.387 . S
C333 H336 0.950 . S
C334 C333 1.387 . S
C334 C337 1.387 . S
H335 C331 0.950 . S
H336 C333 0.950 . S
C337 C328 1.390 . S
C337 H330 0.950 . S
C337 C334 1.387 . S
C338 C339 1.387 . S
C338 H342 0.950 . S
C338 C347 1.390 1_554 S
C339 C338 1.387 . S
C339 C341 1.387 . S
H340 C347 0.950 . S
C341 C339 1.387 . S
C341 C343 1.390 1_554 S
C341 H345 0.950 . S
H342 C338 0.950 . S
C343 C341 1.390 1_556 S
C343 C344 1.387 . S
C343 H346 0.950 . S
C344 C343 1.387 . S
C344 C347 1.387 . S
H345 C341 0.950 . S
H346 C343 0.950 . S
C347 C338 1.390 1_556 S
C347 H340 0.950 . S
C347 C344 1.387 . S
C348 C349 1.387 . S
C348 H352 0.950 . S
C348 C357 1.390 1_545 S
C349 C348 1.387 . S
C349 C351 1.387 . S
H350 C357 0.950 . S
C351 C349 1.387 . S
C351 C353 1.390 1_545 S
C351 H355 0.950 . S
H352 C348 0.950 . S
C353 C351 1.390 1_565 S
C353 C354 1.387 . S
C353 H356 0.950 . S
C354 C353 1.387 . S
C354 C357 1.387 . S
H355 C351 0.950 . S
H356 C353 0.950 . S
C357 C348 1.390 1_565 S
C357 H350 0.950 . S
C357 C354 1.387 . S
C358 C359 1.387 . S
C358 H362 0.950 . S
C358 C367 1.390 . S
C359 C358 1.387 . S
C359 C361 1.387 . S
H360 C367 0.950 . S
C361 C359 1.387 . S
C361 C363 1.390 . S
C361 H365 0.950 . S
H362 C358 0.950 . S
C363 C361 1.390 . S
C363 C364 1.387 . S
C363 H366 0.950 . S
C364 C363 1.387 . S
C364 C367 1.387 . S
H365 C361 0.950 . S
H366 C363 0.950 . S
C367 C358 1.390 . S
C367 H360 0.950 . S
C367 C364 1.387 . S
C368 C369 1.387 . S
C368 H372 0.950 . S
C368 C377 1.390 . S
C369 C368 1.387 . S
C369 C371 1.387 1_455 S
H370 C377 0.950 . S
C371 C369 1.387 1_655 S
C371 C373 1.390 . S
C371 H375 0.950 . S
H372 C368 0.950 . S
C373 C371 1.390 . S
C373 C374 1.387 . S
C373 H376 0.950 . S
C374 C373 1.387 . S
C374 C377 1.387 1_655 S
H375 C371 0.950 . S
H376 C373 0.950 . S
C377 C368 1.390 . S
C377 H370 0.950 . S
C377 C374 1.387 1_455 S
C378 C379 1.387 . S
C378 H382 0.950 . S
C378 C387 1.390 . S
C379 C378 1.387 . S
C379 C381 1.387 1_565 S
H380 C387 0.950 . S
C381 C379 1.387 1_545 S
C381 C383 1.390 . S
C381 H385 0.950 . S
H382 C378 0.950 . S
C383 C381 1.390 . S
C383 C384 1.387 . S
C383 H386 0.950 . S
C384 C383 1.387 . S
C384 C387 1.387 1_545 S
H385 C381 0.950 . S
H386 C383 0.950 . S
C387 C378 1.390 . S
C387 H380 0.950 . S
C387 C384 1.387 1_565 S
C388 C389 1.387 . S
C388 H392 0.950 . S
C388 C397 1.390 . S
C389 C388 1.387 . S
C389 C391 1.387 . S
H390 C397 0.950 . S
C391 C389 1.387 . S
C391 C393 1.390 . S
C391 H395 0.950 . S
H392 C388 0.950 . S
C393 C391 1.390 . S
C393 C394 1.387 . S
C393 H396 0.950 . S
C394 C393 1.387 . S
C394 C397 1.387 . S
H395 C391 0.950 . S
H396 C393 0.950 . S
C397 C388 1.390 . S
C397 H390 0.950 . S
C397 C394 1.387 . S
C398 C399 1.387 . S
C398 H402 0.950 . S
C398 C407 1.390 . S
C399 C398 1.387 . S
C399 C401 1.387 1_655 S
H400 C407 0.950 . S
C401 C399 1.387 1_455 S
C401 C403 1.390 . S
C401 H405 0.950 . S
H402 C398 0.950 . S
C403 C401 1.390 . S
C403 C404 1.387 . S
C403 H406 0.950 . S
C404 C403 1.387 . S
C404 C407 1.387 1_455 S
H405 C401 0.950 . S
H406 C403 0.950 . S
C407 C398 1.390 . S
C407 H400 0.950 . S
C407 C404 1.387 1_655 S
C169 C11 1.696 . S
C174 C123 1.689 . S
C179 C25 1.692 . S
C184 C137 1.692 . S
C189 C151 1.676 . S
C194 C39 1.671 . S
C199 C165 1.694 . S
C204 C53 1.692 . S
C209 C95 1.695 . S
C214 C67 1.689 . S
C219 C109 1.675 . S
C224 C81 1.671 . S
C229 C12 1.459 . S
C234 C54 1.474 . S
C239 C68 1.462 . S
C244 C26 1.462 . S
C249 C82 1.450 . S
C254 C40 1.447 . S
C259 C96 1.459 . S
C264 C138 1.474 . S
C269 C152 1.450 . S
C274 C110 1.447 . S
C279 C124 1.462 . S
C284 C166 1.462 . S
C289 C89 1.516 . S
C294 C5 1.518 . S
C299 C19 1.507 . S
C304 C103 1.509 . S
C309 C117 1.506 . S
C314 C33 1.507 . S
C319 C131 1.518 . S
C324 C47 1.520 . S
C329 C61 1.508 . S
C334 C145 1.508 . S
C339 C159 1.508 . S
C344 C75 1.509 . S
C349 C4 1.111 . S
C354 C102 1.113 . S
C359 C116 1.114 . S
C364 C18 1.113 . S
C369 C130 1.110 . S
C374 C32 1.113 . S
C379 C46 1.110 . S
C384 C144 1.113 . S
C389 C158 1.114 . S
C394 C60 1.113 . S
C399 C88 1.109 . S
C404 C74 1.113 . S
