# Generated by pormake.
# Topology tfs, (6)-cn, num edge types: 1
# Building blocks:
#     Node 0, Type 0, BuildingBlock: INOVEN_clean_sbu_0, # of connection points: 6
#     Node 1, Type 0, BuildingBlock: INOVEN_clean_sbu_0, # of connection points: 6
#     Node 2, Type 0, BuildingBlock: INOVEN_clean_sbu_0, # of connection points: 6
#     Node 3, Type 0, BuildingBlock: INOVEN_clean_sbu_0, # of connection points: 6
#     Node 4, Type 0, BuildingBlock: INOVEN_clean_sbu_0, # of connection points: 6
#     Node 5, Type 0, BuildingBlock: INOVEN_clean_sbu_0, # of connection points: 6
#     Edge 6, Type (0, 0), BuildingBlock: XIVTED_clean_linker_0, # of connection points: 2
#     Edge 7, Type (0, 0), BuildingBlock: XIVTED_clean_linker_0, # of connection points: 2
#     Edge 8, Type (0, 0), BuildingBlock: XIVTED_clean_linker_0, # of connection points: 2
#     Edge 9, Type (0, 0), BuildingBlock: XIVTED_clean_linker_0, # of connection points: 2
#     Edge 10, Type (0, 0), BuildingBlock: XIVTED_clean_linker_0, # of connection points: 2
#     Edge 11, Type (0, 0), BuildingBlock: XIVTED_clean_linker_0, # of connection points: 2
#     Edge 12, Type (0, 0), BuildingBlock: XIVTED_clean_linker_0, # of connection points: 2
#     Edge 13, Type (0, 0), BuildingBlock: XIVTED_clean_linker_0, # of connection points: 2
#     Edge 14, Type (0, 0), BuildingBlock: XIVTED_clean_linker_0, # of connection points: 2
#     Edge 15, Type (0, 0), BuildingBlock: XIVTED_clean_linker_0, # of connection points: 2
#     Edge 16, Type (0, 0), BuildingBlock: XIVTED_clean_linker_0, # of connection points: 2
#     Edge 17, Type (0, 0), BuildingBlock: XIVTED_clean_linker_0, # of connection points: 2
#     Edge 18, Type (0, 0), BuildingBlock: XIVTED_clean_linker_0, # of connection points: 2
#     Edge 19, Type (0, 0), BuildingBlock: XIVTED_clean_linker_0, # of connection points: 2
#     Edge 20, Type (0, 0), BuildingBlock: XIVTED_clean_linker_0, # of connection points: 2
#     Edge 21, Type (0, 0), BuildingBlock: XIVTED_clean_linker_0, # of connection points: 2
#     Edge 22, Type (0, 0), BuildingBlock: XIVTED_clean_linker_0, # of connection points: 2
#     Edge 23, Type (0, 0), BuildingBlock: XIVTED_clean_linker_0, # of connection points: 2
# Relax obj value: 0.474
# Max RMSD: 0.394
# Mean RMSD: 0.354
data_MOF--net-tfs--node1-INOVEN_clean_sbu_0--edge1-XIVTED_clean_linker_0
_symmetry_space_group_name_H-M    P1
_symmetry_Int_Tables_number       1
_symmetry_cell_setting            triclinic
loop_
_symmetry_equiv_pos_as_xyz
'x, y, z'
_cell_length_a     52.296872
_cell_length_b     51.754733
_cell_length_c     12.499743
_cell_angle_alpha  92.367907
_cell_angle_beta   99.194194
_cell_angle_gamma 119.82529
loop_
_atom_site_label
_atom_site_type_symbol
_atom_site_fract_x
_atom_site_fract_y
_atom_site_fract_z
_atom_type_partial_charge
Gd0 Gd 0.19135 0.39023 0.2575 0.0
Gd1 Gd 0.1653 0.42221 0.11034 0.0
C2 C 0.12206 0.37113 0.22896 0.0
C3 C 0.20574 0.36356 0.40512 0.0
C4 C 0.22296 0.34821 0.41865 0.0
C5 C 0.2324 0.34062 0.32968 0.0
C6 C 0.22874 0.33975 0.52042 0.0
C7 C 0.2524 0.31509 0.4437 0.0
C8 C 0.24338 0.32336 0.53301 0.0
C9 C 0.24702 0.32417 0.34208 0.0
C10 C 0.17606 0.37119 0.04014 0.0
C11 C 0.23761 0.44458 0.15249 0.0
C12 C 0.1491 0.44687 0.95914 0.0
C13 C 0.15405 0.47742 0.95537 0.0
C14 C 0.15366 0.49344 0.04794 0.0
C15 C 0.15939 0.49091 0.8599 0.0
C16 C 0.16257 0.53554 0.94859 0.0
C17 C 0.16379 0.51989 0.85666 0.0
C18 C 0.15769 0.52207 0.04433 0.0
C19 C 0.183 0.44423 0.32596 0.0
O20 O 0.14684 0.37804 0.30017 0.0
O21 O 0.12349 0.38086 0.13274 0.0
O22 O 0.18093 0.34992 0.32983 0.0
O23 O 0.22121 0.39268 0.40474 0.0
O24 O 0.19855 0.37194 0.10472 0.0
O25 O 0.16206 0.37835 0.09563 0.0
O26 O 0.21405 0.44383 0.09025 0.0
O27 O 0.23479 0.42765 0.23121 0.0
O28 O 0.13194 0.43128 0.02525 0.0
O29 O 0.17286 0.44422 0.96431 0.0
O30 O 0.16136 0.44488 0.26156 0.0
O31 O 0.195 0.4345 0.27018 0.0
H32 H 0.22799 0.34697 0.25034 0.0
H33 H 0.22161 0.34552 0.58989 0.0
H34 H 0.24772 0.31725 0.61287 0.0
H35 H 0.25348 0.318 0.27156 0.0
H36 H 0.15011 0.48379 0.12328 0.0
H37 H 0.16001 0.479 0.78792 0.0
H38 H 0.16757 0.52981 0.78192 0.0
H39 H 0.15723 0.53384 0.11709 0.0
Gd40 Gd 0.7486 0.18995 0.81108 0.0
Gd41 Gd 0.80961 0.21785 0.72572 0.0
C42 C 0.78421 0.26023 0.81293 0.0
C43 C 0.70622 0.16357 0.91826 0.0
C44 C 0.68653 0.17123 0.96646 0.0
C45 C 0.65566 0.15009 0.94825 0.0
C46 C 0.69757 0.20005 0.02223 0.0
C47 C 0.64645 0.18728 0.03129 0.0
C48 C 0.67771 0.20794 0.05492 0.0
C49 C 0.63578 0.15801 0.98005 0.0
C50 C 0.7458 0.20077 0.60455 0.0
C51 C 0.77132 0.14671 0.70891 0.0
C52 C 0.85253 0.248 0.6241 0.0
C53 C 0.87749 0.24958 0.57783 0.0
C54 C 0.90662 0.26306 0.64326 0.0
C55 C 0.87344 0.24188 0.46473 0.0
C56 C 0.9275 0.26337 0.48238 0.0
C57 C 0.89818 0.24862 0.41749 0.0
C58 C 0.9313 0.26982 0.59616 0.0
C59 C 0.81236 0.20766 0.9328 0.0
O60 O 0.76427 0.23824 0.85715 0.0
O61 O 0.80048 0.2561 0.75015 0.0
O62 O 0.70141 0.16031 0.81114 0.0
O63 O 0.73492 0.17823 0.96492 0.0
O64 O 0.72771 0.20206 0.6621 0.0
O65 O 0.7615 0.19142 0.65505 0.0
O66 O 0.79302 0.16949 0.6731 0.0
O67 O 0.75507 0.15038 0.77335 0.0
O68 O 0.85599 0.25143 0.73088 0.0
O69 O 0.8248 0.22861 0.57341 0.0
O70 O 0.83018 0.20575 0.87527 0.0
O71 O 0.79675 0.21703 0.88155 0.0
H72 H 0.64672 0.12778 0.90504 0.0
H73 H 0.72137 0.2168 0.03729 0.0
H74 H 0.68678 0.23051 0.09572 0.0
H75 H 0.61189 0.14162 0.9589 0.0
H76 H 0.91064 0.26976 0.73038 0.0
H77 H 0.85131 0.23175 0.41199 0.0
H78 H 0.89441 0.24302 0.32977 0.0
H79 H 0.95356 0.28161 0.64852 0.0
Gd80 Gd 0.5558 0.75514 0.27055 0.0
Gd81 Gd 0.59758 0.81253 0.17565 0.0
C82 C 0.52467 0.77753 0.08957 0.0
C83 C 0.52511 0.71199 0.37575 0.0
C84 C 0.49606 0.68329 0.34597 0.0
C85 C 0.49572 0.65605 0.34872 0.0
C86 C 0.46879 0.68259 0.31058 0.0
C87 C 0.44141 0.62778 0.27963 0.0
C88 C 0.44176 0.65513 0.27815 0.0
C89 C 0.46875 0.62861 0.31539 0.0
C90 C 0.56707 0.74583 0.07342 0.0
C91 C 0.62712 0.786 0.3425 0.0
C92 C 0.62887 0.8575 0.07866 0.0
C93 C 0.64193 0.88952 0.11922 0.0
C94 C 0.62858 0.89763 0.19252 0.0
C95 C 0.66978 0.91139 0.09913 0.0
C96 C 0.67162 0.94874 0.23113 0.0
C97 C 0.68446 0.94085 0.15422 0.0
C98 C 0.64325 0.92678 0.24801 0.0
C99 C 0.58488 0.82268 0.36904 0.0
O100 O 0.52105 0.76261 0.17454 0.0
O101 O 0.55152 0.79489 0.06609 0.0
O102 O 0.54677 0.71351 0.33123 0.0
O103 O 0.52419 0.73686 0.37788 0.0
O104 O 0.54167 0.72872 0.10189 0.0
O105 O 0.58521 0.76524 0.15289 0.0
O106 O 0.62904 0.79744 0.24947 0.0
O107 O 0.60179 0.77424 0.37891 0.0
O108 O 0.59941 0.84144 0.05251 0.0
O109 O 0.64053 0.84416 0.13745 0.0
O110 O 0.61008 0.84011 0.34081 0.0
O111 O 0.56758 0.80248 0.29073 0.0
H112 H 0.51645 0.65598 0.37526 0.0
H113 H 0.46827 0.7032 0.30731 0.0
H114 H 0.42109 0.65538 0.25307 0.0
H115 H 0.46945 0.60806 0.31628 0.0
H116 H 0.60733 0.88102 0.21086 0.0
H117 H 0.68061 0.90545 0.04385 0.0
H118 H 0.70609 0.95724 0.13808 0.0
H119 H 0.63283 0.93161 0.308 0.0
Gd120 Gd 0.83739 0.58562 0.84843 0.0
Gd121 Gd 0.81126 0.61751 0.70258 0.0
C122 C 0.76499 0.56241 0.8067 0.0
C123 C 0.8537 0.56176 0.00212 0.0
C124 C 0.84376 0.53047 0.01741 0.0
C125 C 0.81463 0.50729 0.967 0.0
C126 C 0.86468 0.5233 0.07001 0.0
C127 C 0.82842 0.47001 0.01226 0.0
C128 C 0.85709 0.49327 0.06743 0.0
C129 C 0.80695 0.47727 0.96507 0.0
C130 C 0.81886 0.56313 0.63297 0.0
C131 C 0.87993 0.63441 0.72321 0.0
C132 C 0.79677 0.64439 0.55624 0.0
C133 C 0.78089 0.66109 0.54854 0.0
C134 C 0.77316 0.66922 0.64139 0.0
C135 C 0.77446 0.67004 0.44862 0.0
C136 C 0.75322 0.69592 0.53469 0.0
C137 C 0.76068 0.68728 0.44158 0.0
C138 C 0.75945 0.68653 0.63459 0.0
C139 C 0.82768 0.63735 0.91967 0.0
O140 O 0.78857 0.56263 0.86603 0.0
O141 O 0.7677 0.58008 0.73044 0.0
O142 O 0.86725 0.57055 0.92011 0.0
O143 O 0.8343 0.57051 0.00747 0.0
O144 O 0.84058 0.56247 0.69688 0.0
O145 O 0.80706 0.57305 0.68927 0.0
O146 O 0.85494 0.62829 0.65513 0.0
O147 O 0.87919 0.6258 0.82119 0.0
O148 O 0.78039 0.61551 0.55971 0.0
O149 O 0.82253 0.65744 0.62651 0.0
O150 O 0.80516 0.63667 0.85573 0.0
O151 O 0.84129 0.6298 0.86326 0.0
H152 H 0.79829 0.5124 0.9245 0.0
H153 H 0.88732 0.54095 0.10864 0.0
H154 H 0.87396 0.48828 0.10532 0.0
H155 H 0.78481 0.45986 0.92096 0.0
H156 H 0.7781 0.66251 0.71934 0.0
H157 H 0.78028 0.66386 0.37623 0.0
H158 H 0.75565 0.69363 0.36297 0.0
H159 H 0.75422 0.69299 0.70793 0.0
Gd160 Gd 0.19962 0.79158 0.25974 0.0
Gd161 Gd 0.25773 0.81773 0.16513 0.0
C162 C 0.25174 0.86171 0.32414 0.0
C163 C 0.16076 0.77733 0.3835 0.0
C164 C 0.12961 0.75664 0.39533 0.0
C165 C 0.12389 0.7338 0.46122 0.0
C166 C 0.10628 0.76197 0.35422 0.0
C167 C 0.07277 0.72345 0.45127 0.0
C168 C 0.07813 0.74549 0.38172 0.0
C169 C 0.09572 0.71726 0.48843 0.0
C170 C 0.19527 0.80664 0.0566 0.0
C171 C 0.20676 0.74506 0.11098 0.0
C172 C 0.29646 0.83455 0.03983 0.0
C173 C 0.3152 0.82468 -0.00369 0.0
C174 C 0.34595 0.84543 0.00658 0.0
C175 C 0.3033 0.79492 0.94801 0.0
C176 C 0.35341 0.80638 0.92892 0.0
C177 C 0.32225 0.78588 0.91427 0.0
C178 C 0.36489 0.8364 0.97365 0.0
C179 C 0.26229 0.80118 0.36665 0.0
O180 O 0.23198 0.83727 0.35889 0.0
O181 O 0.26057 0.86003 0.23218 0.0
O182 O 0.17882 0.76661 0.38606 0.0
O183 O 0.16519 0.79695 0.31507 0.0
O184 O 0.17341 0.78384 0.08793 0.0
O185 O 0.21708 0.82098 0.13639 0.0
O186 O 0.23165 0.76825 0.09099 0.0
O187 O 0.19129 0.74807 0.17968 0.0
O188 O 0.30391 0.8437 0.14527 0.0
O189 O 0.26729 0.81826 0.00311 0.0
O190 O 0.2846 0.82334 0.33511 0.0
O191 O 0.2403 0.78825 0.28729 0.0
H192 H 0.14154 0.72944 0.49531 0.0
H193 H 0.11008 0.77972 0.30458 0.0
H194 H 0.06107 0.75108 0.35278 0.0
H195 H 0.09217 0.70014 0.54087 0.0
H196 H 0.35552 0.86851 0.0433 0.0
H197 H 0.27955 0.77849 0.93846 0.0
H198 H 0.31258 0.7627 0.87884 0.0
H199 H 0.38878 0.85271 -0.01191 0.0
Gd200 Gd 0.40501 0.19419 0.80239 0.0
Gd201 Gd 0.44916 0.25034 0.70867 0.0
C202 C 0.37847 0.22401 0.64126 0.0
C203 C 0.37322 0.15141 0.90686 0.0
C204 C 0.36484 0.11965 0.8908 0.0
C205 C 0.38452 0.11179 0.85513 0.0
C206 C 0.33513 0.09707 0.88975 0.0
C207 C 0.34374 0.05978 0.80367 0.0
C208 C 0.32465 0.06732 0.84671 0.0
C209 C 0.37411 0.0821 0.81261 0.0
C210 C 0.41662 0.18245 0.60885 0.0
C211 C 0.47807 0.22358 0.87989 0.0
C212 C 0.4803 0.29236 0.59992 0.0
C213 C 0.50949 0.3204 0.62916 0.0
C214 C 0.52663 0.32841 0.73619 0.0
C215 C 0.51973 0.33995 0.55167 0.0
C216 C 0.56392 0.37593 0.68887 0.0
C217 C 0.54677 0.36751 0.58116 0.0
C218 C 0.55363 0.35595 0.76587 0.0
C219 C 0.43923 0.26061 0.90743 0.0
O220 O 0.37644 0.21315 0.73544 0.0
O221 O 0.40322 0.23343 0.60218 0.0
O222 O 0.40174 0.17124 0.94568 0.0
O223 O 0.3614 0.15936 0.82405 0.0
O224 O 0.39111 0.16612 0.63698 0.0
O225 O 0.43462 0.20227 0.68714 0.0
O226 O 0.48265 0.2405 0.80053 0.0
O227 O 0.45093 0.20636 0.90152 0.0
O228 O 0.45924 0.29185 0.64554 0.0
O229 O 0.48111 0.26749 0.602 0.0
O230 O 0.46499 0.2763 0.87928 0.0
O231 O 0.42033 0.24219 0.82704 0.0
H232 H 0.40747 0.12887 0.85382 0.0
H233 H 0.3195 0.10277 0.91538 0.0
H234 H 0.30109 0.05072 0.8404 0.0
H235 H 0.38952 0.07691 0.78202 0.0
H236 H 0.51889 0.31353 0.79713 0.0
H237 H 0.5067 0.33403 0.4687 0.0
H238 H 0.55432 0.38213 0.51942 0.0
H239 H 0.56609 0.36185 0.84966 0.0
H240 H 0.37879 0.25326 0.46317 0.0
H241 H 0.2385 0.2675 0.5587 0.0
H242 H 0.3256 0.21026 0.70206 0.0
H243 H 0.30009 0.3213 0.35828 0.0
H244 H 0.26528 0.24016 0.58953 0.0
H245 H 0.34466 0.27132 0.39905 0.0
C246 C 0.3597 0.24723 0.50116 0.0
C247 C 0.35532 0.23062 0.58939 0.0
C248 C 0.27283 0.25782 0.53824 0.0
C249 C 0.31633 0.2514 0.51674 0.0
C250 C 0.25768 0.2736 0.52122 0.0
C251 C 0.26731 0.29704 0.45702 0.0
C252 C 0.29783 0.26549 0.49078 0.0
C253 C 0.29181 0.30337 0.4081 0.0
C254 C 0.3403 0.25767 0.46472 0.0
C255 C 0.33006 0.2233 0.63471 0.0
N256 N 0.30637 0.28784 0.4267 0.0
N257 N 0.3117 0.234 0.59861 0.0
H258 H 0.11152 0.34479 0.41408 0.0
H259 H 0.93622 0.28827 0.29211 0.0
H260 H 0.06562 0.35507 0.1142 0.0
H261 H 0.98021 0.26418 0.55805 0.0
H262 H 0.98263 0.31164 0.22217 0.0
H263 H 0.06331 0.31509 0.46681 0.0
C264 C 0.09128 0.34072 0.35891 0.0
C265 C 0.09265 0.3525 0.25944 0.0
C266 C 0.98202 0.30098 0.29522 0.0
C267 C 0.03717 0.31842 0.3199 0.0
C268 C 0.95543 0.2874 0.33485 0.0
C269 C 0.9543 0.27437 0.43173 0.0
C270 C 0.00775 0.30176 0.35324 0.0
C271 C 0.98015 0.27443 0.48433 0.0
C272 C 0.06369 0.32364 0.38909 0.0
C273 C 0.06561 0.34643 0.1916 0.0
N274 N 0.00585 0.28814 0.44496 0.0
N275 N 0.03896 0.32994 0.2234 0.0
H276 H 0.80025 0.12751 0.59008 0.0
H277 H 0.64816 0.98183 0.30219 0.0
H278 H 0.71753 0.09578 0.70629 0.0
H279 H 0.73272 0.98492 0.31507 0.0
H280 H 0.67437 0.02827 0.43038 0.0
H281 H 0.77733 0.07882 0.47406 0.0
C282 C 0.77753 0.11018 0.59296 0.0
C283 C 0.76075 0.11584 0.65779 0.0
C284 C 0.68714 0.01871 0.40517 0.0
C285 C 0.73432 0.06073 0.52318 0.0
C286 C 0.67221 0.99215 0.33195 0.0
C287 C 0.68808 0.97898 0.29868 0.0
C288 C 0.71834 0.03274 0.44419 0.0
C289 C 0.7195 0.99422 0.33759 0.0
C290 C 0.76449 0.0825 0.52645 0.0
C291 C 0.73139 0.09254 0.65793 0.0
N292 N 0.73364 0.02035 0.4083 0.0
N293 N 0.71895 0.06623 0.5902 0.0
H294 H 0.70751 0.69036 0.63144 0.0
H295 H 0.6814 0.80383 0.28597 0.0
H296 H 0.76584 0.74355 0.42062 0.0
H297 H 0.62808 0.75677 0.51943 0.0
H298 H 0.71644 0.78704 0.35164 0.0
H299 H 0.68175 0.7188 0.60767 0.0
C300 C 0.71517 0.70827 0.58125 0.0
C301 C 0.73866 0.71432 0.5269 0.0
C302 C 0.6973 0.78072 0.38956 0.0
C303 C 0.70898 0.74675 0.49817 0.0
C304 C 0.6773 0.79037 0.35226 0.0
C305 C 0.65144 0.7812 0.39576 0.0
C306 C 0.69125 0.76157 0.4703 0.0
C307 C 0.64748 0.76402 0.4823 0.0
C308 C 0.70037 0.72446 0.56741 0.0
C309 C 0.74739 0.73763 0.46204 0.0
N310 N 0.66692 0.75437 0.51555 0.0
N311 N 0.73237 0.7528 0.44871 0.0
H312 H 0.06511 0.71055 0.65813 0.0
H313 H 0.88859 0.6509 0.52137 0.0
H314 H 0.01533 0.70304 0.3361 0.0
H315 H 0.93626 0.64981 0.83541 0.0
H316 H 0.93516 0.6714 0.45396 0.0
H317 H 0.01835 0.6888 0.72522 0.0
C318 C 0.04429 0.70398 0.60108 0.0
C319 C 0.04417 0.70859 0.49109 0.0
C320 C 0.93548 0.66675 0.53769 0.0
C321 C 0.99059 0.68424 0.56822 0.0
C322 C 0.90889 0.65513 0.57652 0.0
C323 C 0.90851 0.64861 0.68438 0.0
C324 C 0.96199 0.67206 0.60726 0.0
C325 C 0.93552 0.65452 0.75176 0.0
C326 C 0.01762 0.69178 0.63978 0.0
C327 C 0.01657 0.70023 0.42173 0.0
N328 N 0.96119 0.66592 0.71204 0.0
N329 N 0.99091 0.68853 0.46153 0.0
H330 H 0.2937 0.91728 0.28434 0.0
H331 H 0.3023 0.00412 0.84734 0.0
H332 H 0.24089 0.87304 0.52278 0.0
H333 H 0.3563 0.04723 0.61086 0.0
H334 H 0.27976 0.95569 0.73097 0.0
H335 H 0.31694 0.96515 0.40386 0.0
C336 C 0.28689 0.91762 0.36154 0.0
C337 C 0.26523 0.8911 0.39325 0.0
C338 C 0.29669 0.97575 0.70497 0.0
C339 C 0.29189 0.94583 0.53097 0.0
C340 C 0.30951 0.00339 0.77128 0.0
C341 C 0.33134 0.02979 0.73921 0.0
C342 C 0.30562 0.97453 0.60552 0.0
C343 C 0.33997 0.02746 0.64005 0.0
C344 C 0.30024 0.94497 0.42998 0.0
C345 C 0.25739 0.89293 0.49458 0.0
N346 N 0.32702 1.00038 0.57672 0.0
N347 N 0.27072 0.91981 0.55978 0.0
H348 H 0.154 0.69326 0.11157 0.0
H349 H 0.20591 0.58469 0.8754 0.0
H350 H 0.2374 0.72638 -0.00069 0.0
H351 H 0.12764 0.55524 0.0179 0.0
H352 H 0.21438 0.63597 0.89352 0.0
H353 H 0.14059 0.64206 0.05057 0.0
C354 C 0.16946 0.68981 0.0734 0.0
C355 C 0.19711 0.71422 0.06219 0.0
C356 C 0.1952 0.6182 0.91979 0.0
C357 C 0.18188 0.6553 -0.0076 0.0
C358 C 0.19029 0.58895 0.90896 0.0
C359 C 0.16627 0.56584 0.94656 0.0
C360 C 0.17581 0.6242 0.96786 0.0
C361 C 0.14675 0.57254 -0.01026 0.0
C362 C 0.16176 0.66047 0.03848 0.0
C363 C 0.21596 0.70825 0.01047 0.0
N364 N 0.15205 0.60108 -0.00022 0.0
N365 N 0.20815 0.67934 0.97857 0.0
H366 H 0.47776 0.1801 -0.00017 0.0
H367 H 0.65097 0.24151 0.00296 0.0
H368 H 0.53763 0.26401 0.89508 0.0
H369 H 0.59208 0.15516 0.09524 0.0
H370 H 0.61202 0.25422 0.00038 0.0
H371 H 0.52113 0.17464 0.06985 0.0
C372 C 0.50006 0.19763 -0.0066 0.0
C373 C 0.50404 0.22225 0.93966 0.0
C374 C 0.60768 0.23261 0.02258 0.0
C375 C 0.55358 0.21612 0.01892 0.0
C376 C 0.63011 0.2254 0.02513 0.0
C377 C 0.62476 0.19699 0.04791 0.0
C378 C 0.57945 0.21119 0.04171 0.0
C379 C 0.59698 0.17703 0.0745 0.0
C380 C 0.52478 0.19445 0.033 0.0
C381 C 0.53343 0.24435 0.93393 0.0
N382 N 0.5752 0.18433 0.0691 0.0
N383 N 0.55697 0.24058 0.97185 0.0
H384 H 0.42396 0.57562 0.36994 0.0
H385 H 0.25471 0.49151 0.03114 0.0
H386 H 0.39296 0.61305 0.11318 0.0
H387 H 0.29091 0.45117 0.25755 0.0
H388 H 0.30572 0.53448 0.04712 0.0
H389 H 0.37605 0.52851 0.31911 0.0
C390 C 0.40725 0.57388 0.30193 0.0
C391 C 0.41259 0.59853 0.24622 0.0
C392 C 0.30249 0.51602 0.09213 0.0
C393 C 0.35714 0.54451 0.18871 0.0
C394 C 0.27338 0.4914 0.08272 0.0
C395 C 0.26842 0.4679 0.14452 0.0
C396 C 0.3267 0.51712 0.1641 0.0
C397 C 0.29352 0.46896 0.20962 0.0
C398 C 0.37975 0.54693 0.2732 0.0
C399 C 0.3897 0.59491 0.15998 0.0
N400 N 0.32147 0.49331 0.21869 0.0
N401 N 0.3629 0.5685 0.13442 0.0
H402 H 0.77725 0.41776 0.02933 0.0
H403 H 0.82926 0.3128 0.76664 0.0
H404 H 0.8646 0.45109 0.949 0.0
H405 H 0.75247 0.27786 0.92106 0.0
H406 H 0.84019 0.36364 0.82046 0.0
H407 H 0.76578 0.36616 0.98068 0.0
C408 C 0.79405 0.41419 0.00218 0.0
C409 C 0.82195 0.4387 -0.00645 0.0
C410 C 0.82094 0.34485 0.84257 0.0
C411 C 0.80891 0.37998 0.93675 0.0
C412 C 0.81456 0.31576 0.81125 0.0
C413 C 0.7899 0.29098 0.83938 0.0
C414 C 0.80243 0.34927 0.90175 0.0
C415 C 0.77175 0.2963 0.89774 0.0
C416 C 0.78753 0.3848 0.97462 0.0
C417 C 0.84298 0.43287 0.95832 0.0
N418 N 0.77835 0.32489 0.92688 0.0
N419 N 0.83594 0.40413 0.9305 0.0
H420 H 0.35009 0.7532 0.96793 0.0
H421 H 0.52212 0.81664 0.95195 0.0
H422 H 0.40507 0.8362 0.84686 0.0
H423 H 0.46589 0.73535 0.07951 0.0
H424 H 0.47715 0.81874 0.87496 0.0
H425 H 0.38918 0.74074 0.96849 0.0
C426 C 0.37006 0.76855 0.93897 0.0
C427 C 0.37445 0.79611 0.90931 0.0
C428 C 0.47464 0.80017 0.9182 0.0
C429 C 0.41992 0.78231 0.91306 0.0
C430 C 0.50028 0.79892 0.96185 0.0
C431 C 0.49779 0.77619 0.0244 0.0
C432 C 0.44645 0.7785 0.93728 0.0
C433 C 0.46895 0.75369 0.03404 0.0
C434 C 0.39258 0.76151 0.94026 0.0
C435 C 0.40106 0.81511 0.87351 0.0
N436 N 0.44449 0.75565 -0.00767 0.0
N437 N 0.42302 0.80811 0.87821 0.0
H438 H 0.74933 0.5162 0.93007 0.0
H439 H 0.57567 0.43053 0.62883 0.0
H440 H 0.7108 0.55373 0.6992 0.0
H441 H 0.61706 0.38868 0.82212 0.0
H442 H 0.62339 0.47833 0.67519 0.0
H443 H 0.69919 0.47235 0.91607 0.0
C444 C 0.73032 0.51548 0.87767 0.0
C445 C 0.7344 0.53852 0.81433 0.0
C446 C 0.62199 0.45872 0.70797 0.0
C447 C 0.67695 0.48823 0.79745 0.0
C448 C 0.5948 0.43136 0.68086 0.0
C449 C 0.59241 0.40543 0.72062 0.0
C450 C 0.64703 0.46024 0.77541 0.0
C451 C 0.61778 0.40808 0.79002 0.0
C452 C 0.70168 0.49034 0.86937 0.0
C453 C 0.70882 0.53638 0.74854 0.0
N454 N 0.64407 0.43494 0.81461 0.0
N455 N 0.68125 0.51153 0.74097 0.0
H456 H 0.22273 0.38969 0.93407 0.0
H457 H 0.13807 0.42984 0.43791 0.0
H458 H 0.13028 0.36768 0.89364 0.0
H459 H 0.22974 0.44985 0.47279 0.0
H460 H 0.13596 0.41026 0.61291 0.0
H461 H 0.22585 0.41167 0.7639 0.0
C462 C 0.20288 0.38877 0.88759 0.0
C463 C 0.17624 0.37703 0.9271 0.0
C464 C 0.15669 0.41931 0.58303 0.0
C465 C 0.17983 0.40279 0.7358 0.0
C466 C 0.15802 0.43093 0.48432 0.0
C467 C 0.18402 0.44106 0.44155 0.0
C468 C 0.18155 0.418 0.6382 0.0
C469 C 0.20921 0.44183 0.50347 0.0
C470 C 0.20477 0.40172 0.79164 0.0
C471 C 0.15122 0.37663 0.86521 0.0
N472 N 0.20725 0.43001 0.59842 0.0
N473 N 0.15369 0.38965 0.7728 0.0
H474 H 0.71681 0.15623 0.43585 0.0
H475 H 0.84061 0.25361 0.09664 0.0
H476 H 0.77782 0.25171 0.52058 0.0
H477 H 0.78243 0.15748 0.0236 0.0
H478 H 0.81979 0.25339 0.25815 0.0
H479 H 0.73792 0.157 0.27468 0.0
C480 C 0.73358 0.17763 0.4168 0.0
C481 C 0.74552 0.204 0.48994 0.0
C482 C 0.81206 0.2322 0.20854 0.0
C483 C 0.77113 0.20485 0.31145 0.0
C484 C 0.82456 0.23226 0.11839 0.0
C485 C 0.81325 0.20548 0.0483 0.0
C486 C 0.78801 0.20514 0.22733 0.0
C487 C 0.79193 0.17847 0.07728 0.0
C488 C 0.74625 0.17796 0.32687 0.0
C489 C 0.76783 0.23104 0.46454 0.0
N490 N 0.77947 0.179 0.16392 0.0
N491 N 0.78042 0.23074 0.37804 0.0
H492 H 0.52119 0.72687 0.89544 0.0
H493 H 0.63058 0.84232 0.54662 0.0
H494 H 0.61788 0.78068 0.00191 0.0
H495 H 0.53371 0.79224 0.44504 0.0
H496 H 0.62614 0.82212 0.71978 0.0
H497 H 0.52519 0.7495 0.72661 0.0
C498 C 0.54329 0.7428 0.8816 0.0
C499 C 0.56927 0.75215 0.96187 0.0
C500 C 0.6058 0.8158 0.66025 0.0
C501 C 0.57395 0.77862 0.77247 0.0
C502 C 0.60834 0.82767 0.56233 0.0
C503 C 0.58243 0.81825 0.48179 0.0
C504 C 0.57717 0.7945 0.67656 0.0
C505 C 0.55415 0.79937 0.50525 0.0
C506 C 0.54554 0.7561 0.78647 0.0
C507 C 0.59737 0.77307 0.94145 0.0
N508 N 0.55222 0.78762 0.60036 0.0
N509 N 0.59897 0.78588 0.84886 0.0
H510 H 0.86371 0.57689 0.52057 0.0
H511 H 0.78043 0.61767 0.02224 0.0
H512 H 0.77285 0.55924 0.48675 0.0
H513 H 0.87388 0.64276 0.07106 0.0
H514 H 0.77708 0.59601 0.1927 0.0
H515 H 0.86663 0.59746 0.34728 0.0
C516 C 0.84408 0.5765 0.47474 0.0
C517 C 0.81809 0.56674 0.5175 0.0
C518 C 0.79844 0.6066 0.16699 0.0
C519 C 0.82152 0.59091 0.3227 0.0
C520 C 0.80045 0.61933 0.07063 0.0
C521 C 0.82742 0.63172 0.03305 0.0
C522 C 0.82361 0.60639 0.22549 0.0
C523 C 0.85268 0.63321 0.09786 0.0
C524 C 0.84591 0.58871 0.37707 0.0
C525 C 0.79336 0.56693 0.45626 0.0
N526 N 0.8501 0.62034 0.19081 0.0
N527 N 0.79579 0.57924 0.36228 0.0
H528 H 0.22569 0.75276 0.45472 0.0
H529 H 0.23024 0.85484 0.96294 0.0
H530 H 0.28762 0.8484 0.53111 0.0
H531 H 0.17295 0.75829 0.90016 0.0
H532 H 0.24909 0.85335 0.79706 0.0
H533 H 0.2068 0.75401 0.62033 0.0
C534 C 0.23583 0.77388 0.50836 0.0
C535 C 0.25788 0.80054 0.47941 0.0
C536 C 0.23214 0.83252 0.81879 0.0
C537 C 0.23589 0.80244 0.66599 0.0
C538 C 0.2211 0.83344 0.91233 0.0
C539 C 0.20021 0.80666 0.94469 0.0
C540 C 0.22241 0.80456 0.75872 0.0
C541 C 0.18907 0.77943 0.8775 0.0
C542 C 0.22482 0.77469 0.60191 0.0
C543 C 0.27048 0.82737 0.55092 0.0
N544 N 0.20068 0.77902 0.78826 0.0
N545 N 0.2589 0.82775 0.64032 0.0
H546 H 0.46832 0.20885 0.53484 0.0
H547 H 0.38755 0.23081 0.97919 0.0
H548 H 0.37196 0.16713 0.43078 0.0
H549 H 0.48406 0.27324 0.08274 0.0
H550 H 0.38142 0.2074 0.1455 0.0
H551 H 0.47457 0.2297 0.36282 0.0
C552 C 0.44849 0.20352 0.4741 0.0
C553 C 0.41968 0.18679 0.49645 0.0
C554 C 0.40397 0.22209 0.13268 0.0
C555 C 0.4265 0.21092 0.3025 0.0
C556 C 0.40746 0.23575 0.03873 0.0
C557 C 0.43631 0.25382 0.01812 0.0
C558 C 0.42956 0.22656 0.20585 0.0
C559 C 0.46145 0.25953 0.09658 0.0
C560 C 0.45203 0.21564 0.37682 0.0
C561 C 0.39456 0.1801 0.41604 0.0
N562 N 0.45747 0.24559 0.18704 0.0
N563 N 0.39858 0.19267 0.32273 0.0
loop_
_geom_bond_atom_site_label_1
_geom_bond_atom_site_label_2
_geom_bond_distance
_geom_bond_site_symmetry_2
_ccdc_geom_bond_type
Gd0 C3 2.818 . S
Gd0 O20 2.377 1_554 S
Gd0 O22 2.448 1_554 S
Gd0 O23 2.506 . S
Gd0 O24 2.435 1_554 S
Gd0 O25 2.717 1_554 S
Gd0 O27 2.395 1_554 S
Gd0 O31 2.327 . S
Gd1 C12 2.818 . S
Gd1 O21 2.395 1_556 S
Gd1 O25 2.327 . S
Gd1 O26 2.377 1_556 S
Gd1 O28 2.448 1_556 S
Gd1 O29 2.506 . S
Gd1 O30 2.435 1_556 S
Gd1 O31 2.717 1_556 S
C2 O20 1.240 1_554 S
C2 O21 1.240 . S
C3 Gd0 2.818 . S
C3 C4 1.510 . S
C3 O22 1.249 1_554 S
C3 O23 1.252 . S
C4 C3 1.510 . S
C4 C5 1.404 . S
C4 C6 1.352 . S
C5 C4 1.404 . S
C5 C9 1.389 . S
C5 H32 0.930 1_554 S
C6 C4 1.352 . S
C6 C8 1.374 . S
C6 H33 0.931 . S
C7 C8 1.359 . S
C7 C9 1.364 . S
C8 C6 1.374 . S
C8 C7 1.359 . S
C8 H34 0.931 . S
C9 C5 1.389 . S
C9 C7 1.364 . S
C9 H35 0.931 . S
C10 O24 1.256 . S
C10 O25 1.257 . S
C11 O26 1.240 1_556 S
C11 O27 1.240 . S
C12 Gd1 2.818 . S
C12 C13 1.510 . S
C12 O28 1.249 1_556 S
C12 O29 1.252 . S
C13 C12 1.510 . S
C13 C14 1.404 . S
C13 C15 1.352 . S
C14 C13 1.404 . S
C14 C18 1.389 . S
C14 H36 0.930 1_556 S
C15 C13 1.352 . S
C15 C17 1.374 . S
C15 H37 0.931 . S
C16 C17 1.359 . S
C16 C18 1.364 . S
C17 C15 1.374 . S
C17 C16 1.359 . S
C17 H38 0.931 . S
C18 C14 1.389 . S
C18 C16 1.364 . S
C18 H39 0.931 . S
C19 O30 1.256 . S
C19 O31 1.257 . S
O20 Gd0 2.377 1_556 S
O20 C2 1.240 1_556 S
O21 Gd1 2.395 1_554 S
O21 C2 1.240 . S
O22 Gd0 2.448 1_556 S
O22 C3 1.249 1_556 S
O23 Gd0 2.506 . S
O23 C3 1.252 . S
O24 Gd0 2.435 1_556 S
O24 C10 1.256 . S
O25 Gd0 2.717 1_556 S
O25 Gd1 2.327 . S
O25 C10 1.257 . S
O26 Gd1 2.377 1_554 S
O26 C11 1.240 1_554 S
O27 Gd0 2.395 1_556 S
O27 C11 1.240 . S
O28 Gd1 2.448 1_554 S
O28 C12 1.249 1_554 S
O29 Gd1 2.506 . S
O29 C12 1.252 . S
O30 Gd1 2.435 1_554 S
O30 C19 1.256 . S
O31 Gd0 2.327 . S
O31 Gd1 2.717 1_554 S
O31 C19 1.257 . S
H32 C5 0.930 1_556 S
H33 C6 0.931 . S
H34 C8 0.931 . S
H35 C9 0.931 . S
H36 C14 0.930 1_554 S
H37 C15 0.931 . S
H38 C17 0.931 . S
H39 C18 0.931 . S
Gd40 C43 2.818 1_556 S
Gd40 O60 2.377 . S
Gd40 O62 2.448 . S
Gd40 O63 2.506 1_556 S
Gd40 O64 2.435 . S
Gd40 O65 2.717 . S
Gd40 O67 2.395 . S
Gd40 O71 2.327 1_556 S
Gd41 C52 2.818 1_554 S
Gd41 O61 2.395 . S
Gd41 O65 2.327 1_554 S
Gd41 O66 2.377 . S
Gd41 O68 2.448 . S
Gd41 O69 2.506 1_554 S
Gd41 O70 2.435 . S
Gd41 O71 2.717 . S
C42 O60 1.240 1_554 S
C42 O61 1.240 . S
C43 Gd40 2.818 1_554 S
C43 C44 1.510 . S
C43 O62 1.249 1_554 S
C43 O63 1.252 . S
C44 C43 1.510 . S
C44 C45 1.404 1_554 S
C44 C46 1.352 . S
C45 C44 1.404 1_556 S
C45 C49 1.388 1_556 S
C45 H72 0.930 . S
C46 C44 1.352 . S
C46 C48 1.374 . S
C46 H73 0.931 . S
C47 C48 1.359 . S
C47 C49 1.366 . S
C48 C46 1.374 . S
C48 C47 1.359 . S
C48 H74 0.931 . S
C49 C45 1.388 1_554 S
C49 C47 1.366 . S
C49 H75 0.930 1_554 S
C50 O64 1.256 . S
C50 O65 1.257 . S
C51 O66 1.240 1_556 S
C51 O67 1.240 . S
C52 Gd41 2.818 1_556 S
C52 C53 1.510 . S
C52 O68 1.249 1_556 S
C52 O69 1.252 . S
C53 C52 1.510 . S
C53 C54 1.404 1_556 S
C53 C55 1.352 . S
C54 C53 1.404 1_554 S
C54 C58 1.387 1_554 S
C54 H76 0.930 . S
C55 C53 1.352 . S
C55 C57 1.374 . S
C55 H77 0.931 . S
C56 C57 1.359 . S
C56 C58 1.368 . S
C57 C55 1.374 . S
C57 C56 1.359 . S
C57 H78 0.931 . S
C58 C54 1.387 1_556 S
C58 C56 1.368 . S
C58 H79 0.929 1_656 S
C59 O70 1.256 . S
C59 O71 1.257 . S
O60 Gd40 2.377 . S
O60 C42 1.240 1_556 S
O61 Gd41 2.395 . S
O61 C42 1.240 . S
O62 Gd40 2.448 . S
O62 C43 1.249 1_556 S
O63 Gd40 2.506 1_554 S
O63 C43 1.252 . S
O64 Gd40 2.435 . S
O64 C50 1.256 . S
O65 Gd40 2.717 . S
O65 Gd41 2.327 1_556 S
O65 C50 1.257 . S
O66 Gd41 2.377 . S
O66 C51 1.240 1_554 S
O67 Gd40 2.395 . S
O67 C51 1.240 . S
O68 Gd41 2.448 . S
O68 C52 1.249 1_554 S
O69 Gd41 2.506 1_556 S
O69 C52 1.252 . S
O70 Gd41 2.435 . S
O70 C59 1.256 . S
O71 Gd40 2.327 1_554 S
O71 Gd41 2.717 . S
O71 C59 1.257 . S
H72 C45 0.930 . S
H73 C46 0.931 . S
H74 C48 0.931 . S
H75 C49 0.930 1_556 S
H76 C54 0.930 . S
H77 C55 0.931 . S
H78 C57 0.931 . S
H79 C58 0.929 1_454 S
Gd80 C83 2.818 . S
Gd80 O100 2.377 . S
Gd80 O102 2.448 . S
Gd80 O103 2.506 1_556 S
Gd80 O104 2.435 . S
Gd80 O105 2.717 . S
Gd80 O107 2.395 1_556 S
Gd80 O111 2.327 1_556 S
Gd81 C92 2.818 . S
Gd81 O101 2.395 1_554 S
Gd81 O105 2.327 1_554 S
Gd81 O106 2.377 . S
Gd81 O108 2.448 . S
Gd81 O109 2.506 1_554 S
Gd81 O110 2.435 . S
Gd81 O111 2.717 . S
C82 O100 1.240 . S
C82 O101 1.240 . S
C83 Gd80 2.818 . S
C83 C84 1.510 . S
C83 O102 1.249 . S
C83 O103 1.252 1_556 S
C84 C83 1.510 . S
C84 C85 1.404 . S
C84 C86 1.352 . S
C85 C84 1.404 . S
C85 C89 1.389 . S
C85 H112 0.930 . S
C86 C84 1.352 . S
C86 C88 1.374 . S
C86 H113 0.931 1_556 S
C87 C88 1.359 . S
C87 C89 1.364 . S
C88 C86 1.374 . S
C88 C87 1.359 . S
C88 H114 0.931 1_556 S
C89 C85 1.389 . S
C89 C87 1.364 . S
C89 H115 0.931 . S
C90 O104 1.256 . S
C90 O105 1.257 . S
C91 O106 1.240 . S
C91 O107 1.240 . S
C92 Gd81 2.818 . S
C92 C93 1.510 . S
C92 O108 1.249 . S
C92 O109 1.252 1_554 S
C93 C92 1.510 . S
C93 C94 1.404 . S
C93 C95 1.352 . S
C94 C93 1.404 . S
C94 C98 1.389 . S
C94 H116 0.930 . S
C95 C93 1.352 . S
C95 C97 1.374 . S
C95 H117 0.931 1_554 S
C96 C97 1.359 . S
C96 C98 1.364 . S
C97 C95 1.374 . S
C97 C96 1.359 . S
C97 H118 0.931 1_554 S
C98 C94 1.389 . S
C98 C96 1.364 . S
C98 H119 0.931 . S
C99 O110 1.256 . S
C99 O111 1.257 . S
O100 Gd80 2.377 . S
O100 C82 1.240 . S
O101 Gd81 2.395 1_556 S
O101 C82 1.240 . S
O102 Gd80 2.448 . S
O102 C83 1.249 . S
O103 Gd80 2.506 1_554 S
O103 C83 1.252 1_554 S
O104 Gd80 2.435 . S
O104 C90 1.256 . S
O105 Gd80 2.717 . S
O105 Gd81 2.327 1_556 S
O105 C90 1.257 . S
O106 Gd81 2.377 . S
O106 C91 1.240 . S
O107 Gd80 2.395 1_554 S
O107 C91 1.240 . S
O108 Gd81 2.448 . S
O108 C92 1.249 . S
O109 Gd81 2.506 1_556 S
O109 C92 1.252 1_556 S
O110 Gd81 2.435 . S
O110 C99 1.256 . S
O111 Gd80 2.327 1_554 S
O111 Gd81 2.717 . S
O111 C99 1.257 . S
H112 C85 0.930 . S
H113 C86 0.931 1_554 S
H114 C88 0.931 1_554 S
H115 C89 0.931 . S
H116 C94 0.930 . S
H117 C95 0.931 1_556 S
H118 C97 0.931 1_556 S
H119 C98 0.931 . S
Gd120 C123 2.818 . S
Gd120 O140 2.377 1_554 S
Gd120 O142 2.448 1_554 S
Gd120 O143 2.506 . S
Gd120 O144 2.435 1_554 S
Gd120 O145 2.717 1_554 S
Gd120 O147 2.395 1_554 S
Gd120 O151 2.327 . S
Gd121 C132 2.818 . S
Gd121 O141 2.395 1_556 S
Gd121 O145 2.327 . S
Gd121 O146 2.377 1_556 S
Gd121 O148 2.448 1_556 S
Gd121 O149 2.506 . S
Gd121 O150 2.435 1_556 S
Gd121 O151 2.717 1_556 S
C122 O140 1.240 1_554 S
C122 O141 1.240 . S
C123 Gd120 2.818 . S
C123 C124 1.510 . S
C123 O142 1.249 1_554 S
C123 O143 1.252 . S
C124 C123 1.510 . S
C124 C125 1.404 . S
C124 C126 1.352 . S
C125 C124 1.404 . S
C125 C129 1.389 . S
C125 H152 0.930 1_554 S
C126 C124 1.352 . S
C126 C128 1.374 . S
C126 H153 0.931 . S
C127 C128 1.359 . S
C127 C129 1.364 . S
C128 C126 1.374 . S
C128 C127 1.359 . S
C128 H154 0.931 . S
C129 C125 1.389 . S
C129 C127 1.364 . S
C129 H155 0.931 . S
C130 O144 1.256 . S
C130 O145 1.257 . S
C131 O146 1.240 1_556 S
C131 O147 1.240 . S
C132 Gd121 2.818 . S
C132 C133 1.510 . S
C132 O148 1.249 1_556 S
C132 O149 1.252 . S
C133 C132 1.510 . S
C133 C134 1.404 . S
C133 C135 1.352 . S
C134 C133 1.404 . S
C134 C138 1.389 . S
C134 H156 0.930 1_556 S
C135 C133 1.352 . S
C135 C137 1.374 . S
C135 H157 0.931 . S
C136 C137 1.359 . S
C136 C138 1.364 . S
C137 C135 1.374 . S
C137 C136 1.359 . S
C137 H158 0.931 . S
C138 C134 1.389 . S
C138 C136 1.364 . S
C138 H159 0.931 . S
C139 O150 1.256 . S
C139 O151 1.257 . S
O140 Gd120 2.377 1_556 S
O140 C122 1.240 1_556 S
O141 Gd121 2.395 1_554 S
O141 C122 1.240 . S
O142 Gd120 2.448 1_556 S
O142 C123 1.249 1_556 S
O143 Gd120 2.506 . S
O143 C123 1.252 . S
O144 Gd120 2.435 1_556 S
O144 C130 1.256 . S
O145 Gd120 2.717 1_556 S
O145 Gd121 2.327 . S
O145 C130 1.257 . S
O146 Gd121 2.377 1_554 S
O146 C131 1.240 1_554 S
O147 Gd120 2.395 1_556 S
O147 C131 1.240 . S
O148 Gd121 2.448 1_554 S
O148 C132 1.249 1_554 S
O149 Gd121 2.506 . S
O149 C132 1.252 . S
O150 Gd121 2.435 1_554 S
O150 C139 1.256 . S
O151 Gd120 2.327 . S
O151 Gd121 2.717 1_554 S
O151 C139 1.257 . S
H152 C125 0.930 1_556 S
H153 C126 0.931 . S
H154 C128 0.931 . S
H155 C129 0.931 . S
H156 C134 0.930 1_554 S
H157 C135 0.931 . S
H158 C137 0.931 . S
H159 C138 0.931 . S
Gd160 C163 2.818 1_556 S
Gd160 O180 2.377 . S
Gd160 O182 2.448 . S
Gd160 O183 2.506 1_556 S
Gd160 O184 2.435 . S
Gd160 O185 2.717 . S
Gd160 O187 2.395 . S
Gd160 O191 2.327 1_556 S
Gd161 C172 2.818 1_554 S
Gd161 O181 2.395 . S
Gd161 O185 2.327 1_554 S
Gd161 O186 2.377 . S
Gd161 O188 2.448 . S
Gd161 O189 2.506 1_554 S
Gd161 O190 2.435 . S
Gd161 O191 2.717 . S
C162 O180 1.240 1_554 S
C162 O181 1.240 . S
C163 Gd160 2.818 1_554 S
C163 C164 1.510 . S
C163 O182 1.249 1_554 S
C163 O183 1.252 . S
C164 C163 1.510 . S
C164 C165 1.404 1_554 S
C164 C166 1.352 . S
C165 C164 1.404 1_556 S
C165 C169 1.387 1_556 S
C165 H192 0.930 . S
C166 C164 1.352 . S
C166 C168 1.374 . S
C166 H193 0.931 . S
C167 C168 1.359 . S
C167 C169 1.368 . S
C168 C166 1.374 . S
C168 C167 1.359 . S
C168 H194 0.931 . S
C169 C165 1.387 1_554 S
C169 C167 1.368 . S
C169 H195 0.929 1_454 S
C170 O184 1.256 . S
C170 O185 1.257 . S
C171 O186 1.240 1_556 S
C171 O187 1.240 . S
C172 Gd161 2.818 1_556 S
C172 C173 1.510 . S
C172 O188 1.249 1_556 S
C172 O189 1.252 . S
C173 C172 1.510 . S
C173 C174 1.404 1_556 S
C173 C175 1.352 . S
C174 C173 1.404 1_554 S
C174 C178 1.388 1_554 S
C174 H196 0.930 . S
C175 C173 1.352 . S
C175 C177 1.374 . S
C175 H197 0.931 . S
C176 C177 1.359 . S
C176 C178 1.366 . S
C177 C175 1.374 . S
C177 C176 1.359 . S
C177 H198 0.931 . S
C178 C174 1.388 1_556 S
C178 C176 1.366 . S
C178 H199 0.930 1_556 S
C179 O190 1.256 . S
C179 O191 1.257 . S
O180 Gd160 2.377 . S
O180 C162 1.240 1_556 S
O181 Gd161 2.395 . S
O181 C162 1.240 . S
O182 Gd160 2.448 . S
O182 C163 1.249 1_556 S
O183 Gd160 2.506 1_554 S
O183 C163 1.252 . S
O184 Gd160 2.435 . S
O184 C170 1.256 . S
O185 Gd160 2.717 . S
O185 Gd161 2.327 1_556 S
O185 C170 1.257 . S
O186 Gd161 2.377 . S
O186 C171 1.240 1_554 S
O187 Gd160 2.395 . S
O187 C171 1.240 . S
O188 Gd161 2.448 . S
O188 C172 1.249 1_554 S
O189 Gd161 2.506 1_556 S
O189 C172 1.252 . S
O190 Gd161 2.435 . S
O190 C179 1.256 . S
O191 Gd160 2.327 1_554 S
O191 Gd161 2.717 . S
O191 C179 1.257 . S
H192 C165 0.930 . S
H193 C166 0.931 . S
H194 C168 0.931 . S
H195 C169 0.929 1_656 S
H196 C174 0.930 . S
H197 C175 0.931 . S
H198 C177 0.931 . S
H199 C178 0.930 1_554 S
Gd200 C203 2.818 . S
Gd200 O220 2.377 . S
Gd200 O222 2.448 . S
Gd200 O223 2.506 1_556 S
Gd200 O224 2.435 . S
Gd200 O225 2.717 . S
Gd200 O227 2.395 1_556 S
Gd200 O231 2.327 1_556 S
Gd201 C212 2.818 . S
Gd201 O221 2.395 1_554 S
Gd201 O225 2.327 1_554 S
Gd201 O226 2.377 . S
Gd201 O228 2.448 . S
Gd201 O229 2.506 1_554 S
Gd201 O230 2.435 . S
Gd201 O231 2.717 . S
C202 O220 1.240 . S
C202 O221 1.240 . S
C203 Gd200 2.818 . S
C203 C204 1.510 . S
C203 O222 1.249 . S
C203 O223 1.252 1_556 S
C204 C203 1.510 . S
C204 C205 1.404 . S
C204 C206 1.352 . S
C205 C204 1.404 . S
C205 C209 1.389 . S
C205 H232 0.930 . S
C206 C204 1.352 . S
C206 C208 1.374 . S
C206 H233 0.931 1_556 S
C207 C208 1.359 . S
C207 C209 1.364 . S
C208 C206 1.374 . S
C208 C207 1.359 . S
C208 H234 0.931 1_556 S
C209 C205 1.389 . S
C209 C207 1.364 . S
C209 H235 0.931 . S
C210 O224 1.256 . S
C210 O225 1.257 . S
C211 O226 1.240 . S
C211 O227 1.240 . S
C212 Gd201 2.818 . S
C212 C213 1.510 . S
C212 O228 1.249 . S
C212 O229 1.252 1_554 S
C213 C212 1.510 . S
C213 C214 1.404 . S
C213 C215 1.352 . S
C214 C213 1.404 . S
C214 C218 1.389 . S
C214 H236 0.930 . S
C215 C213 1.352 . S
C215 C217 1.374 . S
C215 H237 0.931 1_554 S
C216 C217 1.359 . S
C216 C218 1.364 . S
C217 C215 1.374 . S
C217 C216 1.359 . S
C217 H238 0.931 1_554 S
C218 C214 1.389 . S
C218 C216 1.364 . S
C218 H239 0.931 . S
C219 O230 1.256 . S
C219 O231 1.257 . S
O220 Gd200 2.377 . S
O220 C202 1.240 . S
O221 Gd201 2.395 1_556 S
O221 C202 1.240 . S
O222 Gd200 2.448 . S
O222 C203 1.249 . S
O223 Gd200 2.506 1_554 S
O223 C203 1.252 1_554 S
O224 Gd200 2.435 . S
O224 C210 1.256 . S
O225 Gd200 2.717 . S
O225 Gd201 2.327 1_556 S
O225 C210 1.257 . S
O226 Gd201 2.377 . S
O226 C211 1.240 . S
O227 Gd200 2.395 1_554 S
O227 C211 1.240 . S
O228 Gd201 2.448 . S
O228 C212 1.249 . S
O229 Gd201 2.506 1_556 S
O229 C212 1.252 1_556 S
O230 Gd201 2.435 . S
O230 C219 1.256 . S
O231 Gd200 2.327 1_554 S
O231 Gd201 2.717 . S
O231 C219 1.257 . S
H232 C205 0.930 . S
H233 C206 0.931 1_554 S
H234 C208 0.931 1_554 S
H235 C209 0.931 . S
H236 C214 0.930 . S
H237 C215 0.931 1_556 S
H238 C217 0.931 1_556 S
H239 C218 0.931 . S
H240 C246 0.930 . S
H241 C250 0.930 . S
H242 C255 0.929 . S
H243 C253 0.929 . S
H244 C248 0.929 . S
H245 C254 0.929 . S
C246 H240 0.930 . S
C246 C247 1.367 . S
C246 C254 1.378 . S
C247 C246 1.367 . S
C247 C255 1.433 . S
C248 H244 0.929 . S
C248 C250 1.378 . S
C248 C252 1.350 . S
C249 C252 1.463 . S
C249 C254 1.350 . S
C249 N257 1.427 . S
C250 H241 0.930 . S
C250 C248 1.378 . S
C250 C251 1.367 . S
C251 C250 1.367 . S
C251 C253 1.433 . S
C252 C248 1.350 . S
C252 C249 1.463 . S
C252 N256 1.427 . S
C253 H243 0.929 . S
C253 C251 1.433 . S
C253 N256 1.384 . S
C254 H245 0.929 . S
C254 C246 1.378 . S
C254 C249 1.350 . S
C255 H242 0.929 . S
C255 C247 1.433 . S
C255 N257 1.384 . S
N256 C252 1.427 . S
N256 C253 1.384 . S
N257 C249 1.427 . S
N257 C255 1.384 . S
H258 C264 0.930 . S
H259 C268 0.930 1_655 S
H260 C273 0.929 . S
H261 C271 0.929 . S
H262 C266 0.931 1_655 S
H263 C272 0.929 . S
C264 H258 0.930 . S
C264 C265 1.367 . S
C264 C272 1.378 . S
C265 C264 1.367 . S
C265 C273 1.433 . S
C266 H262 0.931 1_455 S
C266 C268 1.378 . S
C266 C270 1.350 . S
C267 C270 1.463 . S
C267 C272 1.350 . S
C267 N275 1.427 . S
C268 H259 0.930 1_455 S
C268 C266 1.378 . S
C268 C269 1.367 . S
C269 C268 1.367 . S
C269 C271 1.433 . S
C270 C266 1.350 . S
C270 C267 1.463 . S
C270 N274 1.427 . S
C271 H261 0.929 . S
C271 C269 1.433 . S
C271 N274 1.384 . S
C272 H263 0.929 . S
C272 C264 1.378 . S
C272 C267 1.350 . S
C273 H260 0.929 . S
C273 C265 1.433 . S
C273 N275 1.384 . S
N274 C270 1.427 . S
N274 C271 1.384 . S
N275 C267 1.427 . S
N275 C273 1.384 . S
H276 C282 0.930 . S
H277 C286 0.932 . S
H278 C291 0.929 . S
H279 C289 0.929 . S
H280 C284 0.929 . S
H281 C290 0.929 . S
C282 H276 0.930 . S
C282 C283 1.367 . S
C282 C290 1.378 . S
C283 C282 1.367 . S
C283 C291 1.433 . S
C284 H280 0.929 . S
C284 C286 1.374 1_545 S
C284 C288 1.350 . S
C285 C288 1.463 . S
C285 C290 1.350 . S
C285 N293 1.427 . S
C286 H277 0.932 . S
C286 C284 1.374 1_565 S
C286 C287 1.362 . S
C287 C286 1.362 . S
C287 C289 1.430 1_565 S
C288 C284 1.350 . S
C288 C285 1.463 . S
C288 N292 1.427 . S
C289 H279 0.929 . S
C289 C287 1.430 1_545 S
C289 N292 1.384 . S
C290 H281 0.929 . S
C290 C282 1.378 . S
C290 C285 1.350 . S
C291 H278 0.929 . S
C291 C283 1.433 . S
C291 N293 1.384 . S
N292 C288 1.427 . S
N292 C289 1.384 . S
N293 C285 1.427 . S
N293 C291 1.384 . S
H294 C300 0.930 . S
H295 C304 0.930 . S
H296 C309 0.929 . S
H297 C307 0.929 . S
H298 C302 0.929 . S
H299 C308 0.929 . S
C300 H294 0.930 . S
C300 C301 1.367 . S
C300 C308 1.378 . S
C301 C300 1.367 . S
C301 C309 1.433 . S
C302 H298 0.929 . S
C302 C304 1.378 . S
C302 C306 1.350 . S
C303 C306 1.463 . S
C303 C308 1.350 . S
C303 N311 1.427 . S
C304 H295 0.930 . S
C304 C302 1.378 . S
C304 C305 1.367 . S
C305 C304 1.367 . S
C305 C307 1.433 . S
C306 C302 1.350 . S
C306 C303 1.463 . S
C306 N310 1.427 . S
C307 H297 0.929 . S
C307 C305 1.433 . S
C307 N310 1.384 . S
C308 H299 0.929 . S
C308 C300 1.378 . S
C308 C303 1.350 . S
C309 H296 0.929 . S
C309 C301 1.433 . S
C309 N311 1.384 . S
N310 C306 1.427 . S
N310 C307 1.384 . S
N311 C303 1.427 . S
N311 C309 1.384 . S
H312 C318 0.930 . S
H313 C322 0.930 . S
H314 C327 0.929 . S
H315 C325 0.929 . S
H316 C320 0.929 . S
H317 C326 0.929 . S
C318 H312 0.930 . S
C318 C319 1.367 . S
C318 C326 1.378 . S
C319 C318 1.367 . S
C319 C327 1.433 . S
C320 H316 0.929 . S
C320 C322 1.378 . S
C320 C324 1.350 . S
C321 C324 1.463 . S
C321 C326 1.350 . S
C321 N329 1.427 . S
C322 H313 0.930 . S
C322 C320 1.378 . S
C322 C323 1.367 . S
C323 C322 1.367 . S
C323 C325 1.433 . S
C324 C320 1.350 . S
C324 C321 1.463 . S
C324 N328 1.427 . S
C325 H315 0.929 . S
C325 C323 1.433 . S
C325 N328 1.384 . S
C326 H317 0.929 . S
C326 C318 1.378 . S
C326 C321 1.350 . S
C327 H314 0.929 . S
C327 C319 1.433 . S
C327 N329 1.384 . S
N328 C324 1.427 . S
N328 C325 1.384 . S
N329 C321 1.427 . S
N329 C327 1.384 . S
H330 C336 0.930 . S
H331 C340 0.930 . S
H332 C345 0.929 . S
H333 C343 0.927 . S
H334 C338 0.929 . S
H335 C344 0.929 . S
C336 H330 0.930 . S
C336 C337 1.367 . S
C336 C344 1.378 . S
C337 C336 1.367 . S
C337 C345 1.433 . S
C338 H334 0.929 . S
C338 C340 1.378 . S
C338 C342 1.350 . S
C339 C342 1.463 . S
C339 C344 1.350 . S
C339 N347 1.427 . S
C340 H331 0.930 . S
C340 C338 1.378 . S
C340 C341 1.364 . S
C341 C340 1.364 . S
C341 C343 1.435 1_565 S
C342 C338 1.350 . S
C342 C339 1.463 . S
C342 N346 1.427 . S
C343 H333 0.927 . S
C343 C341 1.435 1_545 S
C343 N346 1.385 1_545 S
C344 H335 0.929 . S
C344 C336 1.378 . S
C344 C339 1.350 . S
C345 H332 0.929 . S
C345 C337 1.433 . S
C345 N347 1.384 . S
N346 C342 1.427 . S
N346 C343 1.385 1_565 S
N347 C339 1.427 . S
N347 C345 1.384 . S
H348 C354 0.930 1_554 S
H349 C358 0.930 . S
H350 C363 0.929 . S
H351 C361 0.929 . S
H352 C356 0.929 . S
H353 C362 0.929 1_554 S
C354 H348 0.930 1_556 S
C354 C355 1.367 . S
C354 C362 1.378 . S
C355 C354 1.367 . S
C355 C363 1.433 . S
C356 H352 0.929 . S
C356 C358 1.378 . S
C356 C360 1.350 . S
C357 C360 1.463 . S
C357 C362 1.350 . S
C357 N365 1.427 . S
C358 H349 0.930 . S
C358 C356 1.378 . S
C358 C359 1.367 . S
C359 C358 1.367 . S
C359 C361 1.433 . S
C360 C356 1.350 . S
C360 C357 1.463 . S
C360 N364 1.427 . S
C361 H351 0.929 . S
C361 C359 1.433 . S
C361 N364 1.384 . S
C362 H353 0.929 1_556 S
C362 C354 1.378 . S
C362 C357 1.350 . S
C363 H350 0.929 . S
C363 C355 1.433 . S
C363 N365 1.384 . S
N364 C360 1.427 . S
N364 C361 1.384 . S
N365 C357 1.427 . S
N365 C363 1.384 . S
H366 C372 0.930 . S
H367 C376 0.930 . S
H368 C381 0.929 . S
H369 C379 0.929 . S
H370 C374 0.929 . S
H371 C380 0.929 . S
C372 H366 0.930 . S
C372 C373 1.367 . S
C372 C380 1.378 . S
C373 C372 1.367 . S
C373 C381 1.433 . S
C374 H370 0.929 . S
C374 C376 1.378 . S
C374 C378 1.350 . S
C375 C378 1.463 . S
C375 C380 1.350 . S
C375 N383 1.427 . S
C376 H367 0.930 . S
C376 C374 1.378 . S
C376 C377 1.367 . S
C377 C376 1.367 . S
C377 C379 1.433 . S
C378 C374 1.350 . S
C378 C375 1.463 . S
C378 N382 1.427 . S
C379 H369 0.929 . S
C379 C377 1.433 . S
C379 N382 1.384 . S
C380 H371 0.929 . S
C380 C372 1.378 . S
C380 C375 1.350 . S
C381 H368 0.929 . S
C381 C373 1.433 . S
C381 N383 1.384 . S
N382 C378 1.427 . S
N382 C379 1.384 . S
N383 C375 1.427 . S
N383 C381 1.384 . S
H384 C390 0.930 . S
H385 C394 0.930 . S
H386 C399 0.929 . S
H387 C397 0.929 . S
H388 C392 0.929 . S
H389 C398 0.929 . S
C390 H384 0.930 . S
C390 C391 1.367 . S
C390 C398 1.378 . S
C391 C390 1.367 . S
C391 C399 1.433 . S
C392 H388 0.929 . S
C392 C394 1.378 . S
C392 C396 1.350 . S
C393 C396 1.463 . S
C393 C398 1.350 . S
C393 N401 1.427 . S
C394 H385 0.930 . S
C394 C392 1.378 . S
C394 C395 1.367 . S
C395 C394 1.367 . S
C395 C397 1.433 . S
C396 C392 1.350 . S
C396 C393 1.463 . S
C396 N400 1.427 . S
C397 H387 0.929 . S
C397 C395 1.433 . S
C397 N400 1.384 . S
C398 H389 0.929 . S
C398 C390 1.378 . S
C398 C393 1.350 . S
C399 H386 0.929 . S
C399 C391 1.433 . S
C399 N401 1.384 . S
N400 C396 1.427 . S
N400 C397 1.384 . S
N401 C393 1.427 . S
N401 C399 1.384 . S
H402 C408 0.930 . S
H403 C412 0.930 . S
H404 C417 0.929 . S
H405 C415 0.929 1_556 S
H406 C410 0.929 . S
H407 C416 0.929 . S
C408 H402 0.930 . S
C408 C409 1.367 . S
C408 C416 1.378 . S
C409 C408 1.367 . S
C409 C417 1.433 . S
C410 H406 0.929 . S
C410 C412 1.378 . S
C410 C414 1.350 . S
C411 C414 1.463 . S
C411 C416 1.350 . S
C411 N419 1.427 . S
C412 H403 0.930 . S
C412 C410 1.378 . S
C412 C413 1.367 . S
C413 C412 1.367 . S
C413 C415 1.433 . S
C414 C410 1.350 . S
C414 C411 1.463 . S
C414 N418 1.427 . S
C415 H405 0.929 1_554 S
C415 C413 1.433 . S
C415 N418 1.384 . S
C416 H407 0.929 . S
C416 C408 1.378 . S
C416 C411 1.350 . S
C417 H404 0.929 . S
C417 C409 1.433 . S
C417 N419 1.384 . S
N418 C414 1.427 . S
N418 C415 1.384 . S
N419 C411 1.427 . S
N419 C417 1.384 . S
H420 C426 0.930 . S
H421 C430 0.930 . S
H422 C435 0.929 . S
H423 C433 0.929 . S
H424 C428 0.929 . S
H425 C434 0.929 . S
C426 H420 0.930 . S
C426 C427 1.367 . S
C426 C434 1.378 . S
C427 C426 1.367 . S
C427 C435 1.433 . S
C428 H424 0.929 . S
C428 C430 1.378 . S
C428 C432 1.350 . S
C429 C432 1.463 . S
C429 C434 1.350 . S
C429 N437 1.427 . S
C430 H421 0.930 . S
C430 C428 1.378 . S
C430 C431 1.367 . S
C431 C430 1.367 . S
C431 C433 1.433 . S
C432 C428 1.350 . S
C432 C429 1.463 . S
C432 N436 1.427 . S
C433 H423 0.929 . S
C433 C431 1.433 . S
C433 N436 1.384 . S
C434 H425 0.929 . S
C434 C426 1.378 . S
C434 C429 1.350 . S
C435 H422 0.929 . S
C435 C427 1.433 . S
C435 N437 1.384 . S
N436 C432 1.427 . S
N436 C433 1.384 . S
N437 C429 1.427 . S
N437 C435 1.384 . S
H438 C444 0.930 . S
H439 C448 0.930 1_556 S
H440 C453 0.929 . S
H441 C451 0.929 . S
H442 C446 0.929 1_556 S
H443 C452 0.929 . S
C444 H438 0.930 . S
C444 C445 1.367 . S
C444 C452 1.378 . S
C445 C444 1.367 . S
C445 C453 1.433 1_554 S
C446 H442 0.929 1_554 S
C446 C448 1.378 . S
C446 C450 1.350 . S
C447 C450 1.463 . S
C447 C452 1.350 . S
C447 N455 1.427 1_554 S
C448 H439 0.930 1_554 S
C448 C446 1.378 . S
C448 C449 1.367 . S
C449 C448 1.367 . S
C449 C451 1.433 . S
C450 C446 1.350 . S
C450 C447 1.463 . S
C450 N454 1.427 . S
C451 H441 0.929 . S
C451 C449 1.433 . S
C451 N454 1.384 . S
C452 H443 0.929 . S
C452 C444 1.378 . S
C452 C447 1.350 . S
C453 H440 0.929 . S
C453 C445 1.433 1_556 S
C453 N455 1.384 . S
N454 C450 1.427 . S
N454 C451 1.384 . S
N455 C447 1.427 1_556 S
N455 C453 1.384 . S
H456 C462 0.930 . S
H457 C466 0.930 . S
H458 C471 0.929 . S
H459 C469 0.929 . S
H460 C464 0.929 . S
H461 C470 0.929 . S
C462 H456 0.930 . S
C462 C463 1.367 . S
C462 C470 1.378 . S
C463 C462 1.367 . S
C463 C471 1.433 . S
C464 H460 0.929 . S
C464 C466 1.378 . S
C464 C468 1.350 . S
C465 C468 1.463 . S
C465 C470 1.350 . S
C465 N473 1.427 . S
C466 H457 0.930 . S
C466 C464 1.378 . S
C466 C467 1.367 . S
C467 C466 1.367 . S
C467 C469 1.433 . S
C468 C464 1.350 . S
C468 C465 1.463 . S
C468 N472 1.427 . S
C469 H459 0.929 . S
C469 C467 1.433 . S
C469 N472 1.384 . S
C470 H461 0.929 . S
C470 C462 1.378 . S
C470 C465 1.350 . S
C471 H458 0.929 . S
C471 C463 1.433 . S
C471 N473 1.384 . S
N472 C468 1.427 . S
N472 C469 1.384 . S
N473 C465 1.427 . S
N473 C471 1.384 . S
H474 C480 0.930 . S
H475 C484 0.930 . S
H476 C489 0.929 . S
H477 C487 0.929 . S
H478 C482 0.929 . S
H479 C488 0.929 . S
C480 H474 0.930 . S
C480 C481 1.367 . S
C480 C488 1.378 . S
C481 C480 1.367 . S
C481 C489 1.433 . S
C482 H478 0.929 . S
C482 C484 1.378 . S
C482 C486 1.350 . S
C483 C486 1.463 . S
C483 C488 1.350 . S
C483 N491 1.427 . S
C484 H475 0.930 . S
C484 C482 1.378 . S
C484 C485 1.367 . S
C485 C484 1.367 . S
C485 C487 1.433 . S
C486 C482 1.350 . S
C486 C483 1.463 . S
C486 N490 1.427 . S
C487 H477 0.929 . S
C487 C485 1.433 . S
C487 N490 1.384 . S
C488 H479 0.929 . S
C488 C480 1.378 . S
C488 C483 1.350 . S
C489 H476 0.929 . S
C489 C481 1.433 . S
C489 N491 1.384 . S
N490 C486 1.427 . S
N490 C487 1.384 . S
N491 C483 1.427 . S
N491 C489 1.384 . S
H492 C498 0.930 . S
H493 C502 0.930 . S
H494 C507 0.929 . S
H495 C505 0.929 . S
H496 C500 0.929 . S
H497 C506 0.929 . S
C498 H492 0.930 . S
C498 C499 1.367 . S
C498 C506 1.378 . S
C499 C498 1.367 . S
C499 C507 1.433 . S
C500 H496 0.929 . S
C500 C502 1.378 . S
C500 C504 1.350 . S
C501 C504 1.463 . S
C501 C506 1.350 . S
C501 N509 1.427 . S
C502 H493 0.930 . S
C502 C500 1.378 . S
C502 C503 1.367 . S
C503 C502 1.367 . S
C503 C505 1.433 . S
C504 C500 1.350 . S
C504 C501 1.463 . S
C504 N508 1.427 . S
C505 H495 0.929 . S
C505 C503 1.433 . S
C505 N508 1.384 . S
C506 H497 0.929 . S
C506 C498 1.378 . S
C506 C501 1.350 . S
C507 H494 0.929 . S
C507 C499 1.433 . S
C507 N509 1.384 . S
N508 C504 1.427 . S
N508 C505 1.384 . S
N509 C501 1.427 . S
N509 C507 1.384 . S
H510 C516 0.930 . S
H511 C520 0.930 . S
H512 C525 0.929 . S
H513 C523 0.929 . S
H514 C518 0.929 . S
H515 C524 0.929 . S
C516 H510 0.930 . S
C516 C517 1.367 . S
C516 C524 1.378 . S
C517 C516 1.367 . S
C517 C525 1.433 . S
C518 H514 0.929 . S
C518 C520 1.378 . S
C518 C522 1.350 . S
C519 C522 1.463 . S
C519 C524 1.350 . S
C519 N527 1.427 . S
C520 H511 0.930 . S
C520 C518 1.378 . S
C520 C521 1.367 . S
C521 C520 1.367 . S
C521 C523 1.433 . S
C522 C518 1.350 . S
C522 C519 1.463 . S
C522 N526 1.427 . S
C523 H513 0.929 . S
C523 C521 1.433 . S
C523 N526 1.384 . S
C524 H515 0.929 . S
C524 C516 1.378 . S
C524 C519 1.350 . S
C525 H512 0.929 . S
C525 C517 1.433 . S
C525 N527 1.384 . S
N526 C522 1.427 . S
N526 C523 1.384 . S
N527 C519 1.427 . S
N527 C525 1.384 . S
H528 C534 0.930 . S
H529 C538 0.930 . S
H530 C543 0.929 . S
H531 C541 0.929 . S
H532 C536 0.929 . S
H533 C542 0.929 . S
C534 H528 0.930 . S
C534 C535 1.367 . S
C534 C542 1.378 . S
C535 C534 1.367 . S
C535 C543 1.433 . S
C536 H532 0.929 . S
C536 C538 1.378 . S
C536 C540 1.350 . S
C537 C540 1.463 . S
C537 C542 1.350 . S
C537 N545 1.427 . S
C538 H529 0.930 . S
C538 C536 1.378 . S
C538 C539 1.367 . S
C539 C538 1.367 . S
C539 C541 1.433 . S
C540 C536 1.350 . S
C540 C537 1.463 . S
C540 N544 1.427 . S
C541 H531 0.929 . S
C541 C539 1.433 . S
C541 N544 1.384 . S
C542 H533 0.929 . S
C542 C534 1.378 . S
C542 C537 1.350 . S
C543 H530 0.929 . S
C543 C535 1.433 . S
C543 N545 1.384 . S
N544 C540 1.427 . S
N544 C541 1.384 . S
N545 C537 1.427 . S
N545 C543 1.384 . S
H546 C552 0.930 . S
H547 C556 0.930 . S
H548 C561 0.929 . S
H549 C559 0.929 . S
H550 C554 0.929 . S
H551 C560 0.929 . S
C552 H546 0.930 . S
C552 C553 1.367 . S
C552 C560 1.378 . S
C553 C552 1.367 . S
C553 C561 1.433 . S
C554 H550 0.929 . S
C554 C556 1.378 . S
C554 C558 1.350 . S
C555 C558 1.463 . S
C555 C560 1.350 . S
C555 N563 1.427 . S
C556 H547 0.930 . S
C556 C554 1.378 . S
C556 C557 1.367 . S
C557 C556 1.367 . S
C557 C559 1.433 . S
C558 C554 1.350 . S
C558 C555 1.463 . S
C558 N562 1.427 . S
C559 H549 0.929 . S
C559 C557 1.433 . S
C559 N562 1.384 . S
C560 H551 0.929 . S
C560 C552 1.378 . S
C560 C555 1.350 . S
C561 H548 0.929 . S
C561 C553 1.433 . S
C561 N563 1.384 . S
N562 C558 1.427 . S
N562 C559 1.384 . S
N563 C555 1.427 . S
N563 C561 1.384 . S
C247 C202 3.107 . S
C251 C7 2.937 . S
C265 C2 3.302 . S
C269 C56 3.034 1_455 S
C283 C51 3.128 . S
C287 C96 2.944 . S
C301 C136 2.934 . S
C305 C91 3.113 . S
C319 C167 3.036 1_655 S
C323 C131 3.306 . S
C337 C162 3.130 . S
C341 C207 2.939 1_565 S
C355 C171 2.256 . S
C359 C16 2.247 . S
C373 C211 2.093 . S
C377 C47 2.078 . S
C391 C87 2.101 . S
C395 C11 2.142 . S
C409 C127 2.242 . S
C413 C42 2.260 . S
C427 C176 2.079 . S
C431 C82 2.093 . S
C445 C122 2.142 . S
C449 C216 2.099 . S
C463 C10 0.465 . S
C467 C19 0.465 . S
C481 C50 0.287 . S
C485 C59 0.287 . S
C499 C90 0.450 . S
C503 C99 0.450 . S
C517 C130 0.422 . S
C521 C139 0.422 . S
C535 C179 0.320 . S
C539 C170 0.320 . S
C553 C210 0.505 . S
C557 C219 0.505 . S
