# Generated by pormake.
# Topology uot, (4)-cn, num edge types: 1
# Building blocks:
#     Node 0, Type 0, BuildingBlock: TATPOV_clean_sbu_0, # of connection points: 4
#     Node 1, Type 0, BuildingBlock: TATPOV_clean_sbu_0, # of connection points: 4
#     Node 2, Type 0, BuildingBlock: TATPOV_clean_sbu_0, # of connection points: 4
#     Node 3, Type 0, BuildingBlock: TATPOV_clean_sbu_0, # of connection points: 4
#     Node 4, Type 0, BuildingBlock: TATPOV_clean_sbu_0, # of connection points: 4
#     Node 5, Type 0, BuildingBlock: TATPOV_clean_sbu_0, # of connection points: 4
#     Node 6, Type 0, BuildingBlock: TATPOV_clean_sbu_0, # of connection points: 4
#     Node 7, Type 0, BuildingBlock: TATPOV_clean_sbu_0, # of connection points: 4
#     Node 8, Type 0, BuildingBlock: TATPOV_clean_sbu_0, # of connection points: 4
#     Node 9, Type 0, BuildingBlock: TATPOV_clean_sbu_0, # of connection points: 4
#     Node 10, Type 0, BuildingBlock: TATPOV_clean_sbu_0, # of connection points: 4
#     Node 11, Type 0, BuildingBlock: TATPOV_clean_sbu_0, # of connection points: 4
#     Node 12, Type 0, BuildingBlock: TATPOV_clean_sbu_0, # of connection points: 4
#     Node 13, Type 0, BuildingBlock: TATPOV_clean_sbu_0, # of connection points: 4
#     Node 14, Type 0, BuildingBlock: TATPOV_clean_sbu_0, # of connection points: 4
#     Node 15, Type 0, BuildingBlock: TATPOV_clean_sbu_0, # of connection points: 4
#     Edge 16, Type (0, 0), BuildingBlock: MIFKUJ_clean_linker_0, # of connection points: 2
#     Edge 17, Type (0, 0), BuildingBlock: MIFKUJ_clean_linker_0, # of connection points: 2
#     Edge 18, Type (0, 0), BuildingBlock: MIFKUJ_clean_linker_0, # of connection points: 2
#     Edge 19, Type (0, 0), BuildingBlock: MIFKUJ_clean_linker_0, # of connection points: 2
#     Edge 20, Type (0, 0), BuildingBlock: MIFKUJ_clean_linker_0, # of connection points: 2
#     Edge 21, Type (0, 0), BuildingBlock: MIFKUJ_clean_linker_0, # of connection points: 2
#     Edge 22, Type (0, 0), BuildingBlock: MIFKUJ_clean_linker_0, # of connection points: 2
#     Edge 23, Type (0, 0), BuildingBlock: MIFKUJ_clean_linker_0, # of connection points: 2
#     Edge 24, Type (0, 0), BuildingBlock: MIFKUJ_clean_linker_0, # of connection points: 2
#     Edge 25, Type (0, 0), BuildingBlock: MIFKUJ_clean_linker_0, # of connection points: 2
#     Edge 26, Type (0, 0), BuildingBlock: MIFKUJ_clean_linker_0, # of connection points: 2
#     Edge 27, Type (0, 0), BuildingBlock: MIFKUJ_clean_linker_0, # of connection points: 2
#     Edge 28, Type (0, 0), BuildingBlock: MIFKUJ_clean_linker_0, # of connection points: 2
#     Edge 29, Type (0, 0), BuildingBlock: MIFKUJ_clean_linker_0, # of connection points: 2
#     Edge 30, Type (0, 0), BuildingBlock: MIFKUJ_clean_linker_0, # of connection points: 2
#     Edge 31, Type (0, 0), BuildingBlock: MIFKUJ_clean_linker_0, # of connection points: 2
#     Edge 32, Type (0, 0), BuildingBlock: MIFKUJ_clean_linker_0, # of connection points: 2
#     Edge 33, Type (0, 0), BuildingBlock: MIFKUJ_clean_linker_0, # of connection points: 2
#     Edge 34, Type (0, 0), BuildingBlock: MIFKUJ_clean_linker_0, # of connection points: 2
#     Edge 35, Type (0, 0), BuildingBlock: MIFKUJ_clean_linker_0, # of connection points: 2
#     Edge 36, Type (0, 0), BuildingBlock: MIFKUJ_clean_linker_0, # of connection points: 2
#     Edge 37, Type (0, 0), BuildingBlock: MIFKUJ_clean_linker_0, # of connection points: 2
#     Edge 38, Type (0, 0), BuildingBlock: MIFKUJ_clean_linker_0, # of connection points: 2
#     Edge 39, Type (0, 0), BuildingBlock: MIFKUJ_clean_linker_0, # of connection points: 2
#     Edge 40, Type (0, 0), BuildingBlock: MIFKUJ_clean_linker_0, # of connection points: 2
#     Edge 41, Type (0, 0), BuildingBlock: MIFKUJ_clean_linker_0, # of connection points: 2
#     Edge 42, Type (0, 0), BuildingBlock: MIFKUJ_clean_linker_0, # of connection points: 2
#     Edge 43, Type (0, 0), BuildingBlock: MIFKUJ_clean_linker_0, # of connection points: 2
#     Edge 44, Type (0, 0), BuildingBlock: MIFKUJ_clean_linker_0, # of connection points: 2
#     Edge 45, Type (0, 0), BuildingBlock: MIFKUJ_clean_linker_0, # of connection points: 2
#     Edge 46, Type (0, 0), BuildingBlock: MIFKUJ_clean_linker_0, # of connection points: 2
#     Edge 47, Type (0, 0), BuildingBlock: MIFKUJ_clean_linker_0, # of connection points: 2
# Relax obj value: 0.143
# Max RMSD: 0.189
# Mean RMSD: 0.189
data_MOF--net-uot--node1-TATPOV_clean_sbu_0--edge1-MIFKUJ_clean_linker_0
_symmetry_space_group_name_H-M    P1
_symmetry_Int_Tables_number       1
_symmetry_cell_setting            triclinic
loop_
_symmetry_equiv_pos_as_xyz
'x, y, z'
_cell_length_a     56.494761
_cell_length_b     56.493742
_cell_length_c     53.941483
_cell_angle_alpha  89.978275
_cell_angle_beta   90.010015
_cell_angle_gamma 90.02716
loop_
_atom_site_label
_atom_site_type_symbol
_atom_site_fract_x
_atom_site_fract_y
_atom_site_fract_z
_atom_type_partial_charge
Zn0 Zn 0.17259 0.44398 0.36114 0.0
Zn1 Zn 0.20901 0.42654 0.33647 0.0
O2 O 0.18212 0.40171 0.33257 0.0
O3 O 0.1521 0.4161 0.35364 0.0
O4 O 0.23704 0.4101 0.32107 0.0
O5 O 0.19078 0.44522 0.39281 0.0
O6 O 0.22205 0.43413 0.37149 0.0
C7 C 0.1608 0.39999 0.34017 0.0
C8 C 0.18782 0.47281 0.31909 0.0
O9 O 0.20301 0.45644 0.31566 0.0
O10 O 0.17354 0.47158 0.33718 0.0
C11 C 0.23573 0.39678 0.30213 0.0
O12 O 0.21536 0.39452 0.2906 0.0
C13 C 0.21269 0.44077 0.39182 0.0
Zn14 Zn 0.45221 0.83916 0.64735 0.0
Zn15 Zn 0.43177 0.80227 0.66814 0.0
O16 O 0.40878 0.82997 0.67542 0.0
O17 O 0.42763 0.86116 0.6611 0.0
O18 O 0.41414 0.77367 0.68054 0.0
O19 O 0.44858 0.82577 0.61323 0.0
O20 O 0.43787 0.79274 0.63165 0.0
C21 C 0.41 0.8523 0.6722 0.0
C22 C 0.48102 0.81564 0.68452 0.0
O23 O 0.46233 0.80364 0.68864 0.0
O24 O 0.48149 0.83089 0.66728 0.0
C25 C 0.40036 0.77345 0.69917 0.0
O26 O 0.39786 0.79275 0.7125 0.0
C27 C 0.44348 0.80401 0.61205 0.0
Zn28 Zn 0.83781 0.53173 0.33937 0.0
Zn29 Zn 0.79766 0.55468 0.32903 0.0
O30 O 0.82405 0.57809 0.31929 0.0
O31 O 0.85729 0.55944 0.32766 0.0
O32 O 0.76855 0.57437 0.32331 0.0
O33 O 0.82901 0.52943 0.37509 0.0
O34 O 0.79477 0.54599 0.36628 0.0
C35 C 0.84659 0.57762 0.31977 0.0
C36 C 0.80806 0.50831 0.30283 0.0
O37 O 0.79487 0.52646 0.30512 0.0
O38 O 0.82676 0.50629 0.31564 0.0
C39 C 0.76131 0.58044 0.30192 0.0
O40 O 0.77247 0.57261 0.2822 0.0
C41 C 0.80879 0.5365 0.38191 0.0
Zn42 Zn 0.53572 0.15786 0.65741 0.0
Zn43 Zn 0.55585 0.19775 0.67118 0.0
O44 O 0.57998 0.17096 0.67821 0.0
O45 O 0.56505 0.13839 0.66236 0.0
O46 O 0.57543 0.22639 0.67964 0.0
O47 O 0.52751 0.17142 0.62433 0.0
O48 O 0.54568 0.20435 0.6349 0.0
C49 C 0.58176 0.14894 0.67336 0.0
C50 C 0.51234 0.18127 0.69878 0.0
O51 O 0.52762 0.19757 0.69535 0.0
O52 O 0.51289 0.16267 0.68568 0.0
C53 C 0.56795 0.24639 0.68703 0.0
O54 O 0.54512 0.24969 0.6901 0.0
C55 C 0.53397 0.19228 0.61913 0.0
Zn56 Zn 0.16406 0.54933 0.62342 0.0
Zn57 Zn 0.19969 0.56557 0.65063 0.0
O58 O 0.17275 0.58989 0.65539 0.0
O59 O 0.14271 0.57583 0.63408 0.0
O60 O 0.22701 0.58089 0.66832 0.0
O61 O 0.18321 0.55184 0.59226 0.0
O62 O 0.21379 0.56078 0.61568 0.0
C63 C 0.15128 0.59144 0.6483 0.0
C64 C 0.17936 0.51749 0.66294 0.0
O65 O 0.19341 0.53426 0.66872 0.0
O66 O 0.16589 0.51948 0.64424 0.0
C67 C 0.22503 0.59364 0.68763 0.0
O68 O 0.20418 0.596 0.69814 0.0
C69 C 0.20511 0.55606 0.59446 0.0
Zn70 Zn 0.54454 0.83947 0.35727 0.0
Zn71 Zn 0.56739 0.80275 0.33908 0.0
O72 O 0.58956 0.83103 0.33162 0.0
O73 O 0.56897 0.86192 0.34381 0.0
O74 O 0.58707 0.77477 0.32897 0.0
O75 O 0.54692 0.82739 0.39208 0.0
O76 O 0.56001 0.7943 0.37558 0.0
C77 C 0.58737 0.85339 0.33386 0.0
C78 C 0.51857 0.8135 0.31953 0.0
O79 O 0.53784 0.80206 0.31692 0.0
O80 O 0.51669 0.8293 0.33608 0.0
C81 C 0.5909 0.76747 0.30706 0.0
O82 O 0.58104 0.77845 0.28824 0.0
C83 C 0.55294 0.80594 0.3944 0.0
Zn84 Zn 0.82508 0.47761 0.67934 0.0
Zn85 Zn 0.78449 0.45411 0.68381 0.0
O86 O 0.81041 0.42884 0.69052 0.0
O87 O 0.84382 0.44799 0.68446 0.0
O88 O 0.75466 0.43473 0.68559 0.0
O89 O 0.81627 0.48776 0.6449 0.0
O90 O 0.78324 0.46736 0.64819 0.0
C91 C 0.83298 0.42902 0.68963 0.0
C92 C 0.79554 0.49497 0.71885 0.0
O93 O 0.78081 0.4796 0.71106 0.0
O94 O 0.81569 0.49712 0.70886 0.0
C95 C 0.74626 0.42685 0.70583 0.0
O96 O 0.75691 0.43211 0.72677 0.0
C97 C 0.79703 0.48054 0.63556 0.0
Zn98 Zn 0.46971 0.15409 0.33732 0.0
Zn99 Zn 0.44861 0.193 0.323 0.0
O100 O 0.42427 0.16596 0.31667 0.0
O101 O 0.44166 0.13372 0.33035 0.0
O102 O 0.4299 0.22201 0.31351 0.0
O103 O 0.47553 0.16708 0.37106 0.0
O104 O 0.45815 0.2001 0.35948 0.0
C105 C 0.42393 0.14368 0.32057 0.0
C106 C 0.49386 0.17743 0.29705 0.0
O107 O 0.47733 0.19268 0.29917 0.0
O108 O 0.49411 0.15937 0.31096 0.0
C109 C 0.41697 0.22234 0.29421 0.0
O110 O 0.41673 0.20376 0.27955 0.0
C111 C 0.46897 0.18797 0.37591 0.0
Zn112 Zn 0.67042 0.93904 0.8571 0.0
Zn113 Zn 0.70841 0.92464 0.83185 0.0
O114 O 0.68381 0.89818 0.82678 0.0
O115 O 0.65194 0.91028 0.84644 0.0
O116 O 0.73738 0.91118 0.81557 0.0
O117 O 0.68849 0.93845 0.88901 0.0
O118 O 0.72066 0.9314 0.86726 0.0
C119 C 0.66234 0.895 0.8332 0.0
C120 C 0.68528 0.97064 0.81712 0.0
O121 O 0.70031 0.95453 0.81224 0.0
O122 O 0.67147 0.96864 0.83553 0.0
C123 C 0.73687 0.90021 0.79501 0.0
O124 O 0.71678 0.89857 0.78286 0.0
C125 C 0.7107 0.93582 0.88793 0.0
Zn126 Zn 0.94946 0.34381 0.14449 0.0
Zn127 Zn 0.93524 0.30238 0.16162 0.0
O128 O 0.90648 0.32497 0.16419 0.0
O129 O 0.9167 0.35766 0.14481 0.0
O130 O 0.92106 0.27168 0.17329 0.0
O131 O 0.96225 0.32813 0.11402 0.0
O132 O 0.94824 0.29394 0.12692 0.0
C133 C 0.90131 0.34556 0.15618 0.0
C134 C 0.97374 0.32884 0.18921 0.0
O135 O 0.96188 0.30986 0.1863 0.0
O136 O 0.97063 0.34622 0.17469 0.0
C137 C 0.90946 0.27074 0.19346 0.0
O138 O 0.90809 0.28978 0.20738 0.0
C139 C 0.95921 0.30616 0.11071 0.0
Zn140 Zn 0.33645 0.05838 0.86527 0.0
Zn141 Zn 0.29719 0.07369 0.84322 0.0
O142 O 0.3211 0.10148 0.84049 0.0
O143 O 0.35359 0.08869 0.85847 0.0
O144 O 0.26753 0.08764 0.82864 0.0
O145 O 0.31895 0.05399 0.89728 0.0
O146 O 0.28596 0.06353 0.87801 0.0
C147 C 0.34252 0.10484 0.84709 0.0
C148 C 0.32176 0.03006 0.82286 0.0
O149 O 0.30506 0.04513 0.82119 0.0
O150 O 0.33706 0.03191 0.83996 0.0
C151 C 0.26778 0.10105 0.80972 0.0
O152 O 0.28795 0.10514 0.79837 0.0
C153 C 0.29671 0.05661 0.89746 0.0
Zn154 Zn 0.04845 0.66097 0.13925 0.0
Zn155 Zn 0.07022 0.69599 0.16215 0.0
O156 O 0.09292 0.66781 0.16733 0.0
O157 O 0.07253 0.63784 0.15239 0.0
O158 O 0.08784 0.72332 0.17719 0.0
O159 O 0.05298 0.67636 0.10608 0.0
O160 O 0.0649 0.70797 0.12635 0.0
C161 C 0.09073 0.64567 0.16336 0.0
C162 C 0.02064 0.68236 0.17804 0.0
O163 O 0.03982 0.69329 0.18279 0.0
O164 O 0.01922 0.66871 0.15948 0.0
C165 C 0.09868 0.72253 0.19781 0.0
O166 O 0.09816 0.70294 0.21095 0.0
C167 C 0.05906 0.69791 0.10611 0.0
Zn168 Zn 0.66703 0.05111 0.13004 0.0
Zn169 Zn 0.70583 0.06697 0.1523 0.0
O170 O 0.68177 0.09456 0.155 0.0
O171 O 0.64947 0.08113 0.13714 0.0
O172 O 0.73515 0.08144 0.16693 0.0
O173 O 0.68463 0.0473 0.09801 0.0
O174 O 0.71735 0.05754 0.11738 0.0
C175 C 0.66028 0.0975 0.14845 0.0
C176 C 0.68152 0.02302 0.1726 0.0
O177 O 0.69798 0.03836 0.1745 0.0
O178 O 0.66657 0.02453 0.15515 0.0
C179 C 0.73513 0.09219 0.18762 0.0
O180 O 0.71557 0.09278 0.20078 0.0
C181 C 0.70679 0.05058 0.09783 0.0
Zn182 Zn 0.04157 0.33883 0.85014 0.0
Zn183 Zn 0.05588 0.29965 0.82723 0.0
O184 O 0.08067 0.32533 0.81814 0.0
O185 O 0.06874 0.35773 0.8369 0.0
O186 O 0.07001 0.26999 0.81275 0.0
O187 O 0.04419 0.32326 0.88336 0.0
O188 O 0.05262 0.29002 0.86404 0.0
C189 C 0.08344 0.34724 0.82306 0.0
C190 C 0.00799 0.31997 0.81392 0.0
O191 O 0.0238 0.30433 0.80995 0.0
O192 O 0.0114 0.33588 0.8301 0.0
C193 C 0.08333 0.2698 0.79376 0.0
O194 O 0.08677 0.28953 0.78138 0.0
C195 C 0.04852 0.30131 0.88401 0.0
Zn196 Zn 0.34093 0.93348 0.13509 0.0
Zn197 Zn 0.30132 0.92144 0.15915 0.0
O198 O 0.32542 0.89469 0.16575 0.0
O199 O 0.35769 0.90359 0.14498 0.0
O200 O 0.27206 0.90851 0.17549 0.0
O201 O 0.32295 0.93503 0.10301 0.0
O202 O 0.29006 0.92733 0.12332 0.0
C203 C 0.34653 0.88973 0.15922 0.0
C204 C 0.32652 0.96636 0.17438 0.0
O205 O 0.30921 0.95219 0.17748 0.0
O206 O 0.34196 0.96216 0.15787 0.0
C207 C 0.27281 0.89848 0.19658 0.0
O208 O 0.2929 0.8981 0.20886 0.0
C209 C 0.30072 0.93226 0.10315 0.0
Zn210 Zn 0.95225 0.66155 0.85852 0.0
Zn211 Zn 0.93823 0.70171 0.83663 0.0
O212 O 0.90891 0.67973 0.83573 0.0
O213 O 0.92026 0.64672 0.85375 0.0
O214 O 0.92522 0.73121 0.82113 0.0
O215 O 0.95909 0.67994 0.88971 0.0
O216 O 0.94967 0.7132 0.8708 0.0
C217 C 0.90437 0.65875 0.84304 0.0
C218 C 0.97929 0.67399 0.81453 0.0
O219 O 0.96547 0.69178 0.81382 0.0
O220 O 0.97717 0.65869 0.83159 0.0
C221 C 0.91558 0.73046 0.79986 0.0
O222 O 0.91547 0.71038 0.78757 0.0
C223 C 0.95706 0.70226 0.88994 0.0
H224 H 0.27945 0.39567 0.32375 0.0
H225 H 0.31164 0.36814 0.3154 0.0
H226 H 0.27095 0.33651 0.25637 0.0
H227 H 0.23833 0.36381 0.26495 0.0
H228 H 0.28804 0.30348 0.28605 0.0
H229 H 0.32079 0.36982 0.24402 0.0
H230 H 0.33315 0.4113 0.2382 0.0
H231 H 0.38228 0.40483 0.29856 0.0
H232 H 0.36999 0.36338 0.30498 0.0
H233 H 0.38372 0.22663 0.25755 0.0
H234 H 0.35464 0.25831 0.25233 0.0
H235 H 0.38415 0.29503 0.31524 0.0
H236 H 0.41341 0.26359 0.32049 0.0
H237 H 0.37266 0.32553 0.27743 0.0
H238 H 0.33589 0.26089 0.32213 0.0
H239 H 0.32337 0.21943 0.32797 0.0
H240 H 0.28151 0.22315 0.26163 0.0
H241 H 0.29406 0.26457 0.25522 0.0
C242 C 0.27742 0.3831 0.30875 0.0
C243 C 0.25625 0.38191 0.29508 0.0
C244 C 0.29594 0.36742 0.3039 0.0
C245 C 0.29383 0.35036 0.2851 0.0
C246 C 0.27298 0.34955 0.27094 0.0
C247 C 0.25438 0.36522 0.27583 0.0
C248 C 0.31268 0.33232 0.28165 0.0
C249 C 0.30648 0.30832 0.28359 0.0
C250 C 0.33681 0.33859 0.27892 0.0
C251 C 0.34434 0.36351 0.27509 0.0
C252 C 0.33411 0.37728 0.25618 0.0
C253 C 0.34113 0.40079 0.25275 0.0
C254 C 0.35846 0.41071 0.26803 0.0
C255 C 0.36885 0.39712 0.28674 0.0
C256 C 0.36189 0.37361 0.29026 0.0
C257 C 0.38421 0.24157 0.27012 0.0
C258 C 0.40077 0.24248 0.28958 0.0
C259 C 0.36753 0.25963 0.26713 0.0
C260 C 0.36706 0.27888 0.28358 0.0
C261 C 0.38419 0.28033 0.30235 0.0
C262 C 0.40085 0.26227 0.30539 0.0
C263 C 0.34797 0.29686 0.2822 0.0
C264 C 0.35416 0.32078 0.27944 0.0
C265 C 0.3238 0.29055 0.28411 0.0
C266 C 0.31613 0.26571 0.28804 0.0
C267 C 0.32417 0.2528 0.30868 0.0
C268 C 0.31704 0.22933 0.31211 0.0
C269 C 0.30172 0.21864 0.29514 0.0
C270 C 0.29342 0.23144 0.27473 0.0
C271 C 0.30052 0.25491 0.2712 0.0
H272 H 0.29622 0.20046 0.29782 0.0
H273 H 0.36386 0.42891 0.26534 0.0
H274 H 0.36499 0.76835 0.73363 0.0
H275 H 0.33714 0.73531 0.73744 0.0
H276 H 0.37376 0.69821 0.67906 0.0
H277 H 0.40147 0.73107 0.67498 0.0
H278 H 0.32708 0.70165 0.66999 0.0
H279 H 0.37653 0.67907 0.73858 0.0
H280 H 0.39738 0.68483 0.77827 0.0
H281 H 0.33118 0.69817 0.81477 0.0
H282 H 0.30994 0.6928 0.77519 0.0
H283 H 0.27016 0.59287 0.66968 0.0
H284 H 0.30162 0.62138 0.6778 0.0
H285 H 0.25743 0.65674 0.73139 0.0
H286 H 0.22568 0.62811 0.72347 0.0
H287 H 0.30655 0.65496 0.74493 0.0
H288 H 0.25731 0.67846 0.67682 0.0
H289 H 0.23601 0.67283 0.63736 0.0
H290 H 0.30173 0.65872 0.60021 0.0
H291 H 0.32339 0.66389 0.63957 0.0
C292 C 0.36734 0.75299 0.72187 0.0
C293 C 0.38532 0.75244 0.70384 0.0
C294 C 0.35145 0.73409 0.72414 0.0
C295 C 0.35338 0.71432 0.70851 0.0
C296 C 0.37191 0.71334 0.69123 0.0
C297 C 0.38775 0.73216 0.68895 0.0
C298 C 0.33503 0.69554 0.70853 0.0
C299 C 0.32288 0.69123 0.68631 0.0
C300 C 0.32894 0.68253 0.73005 0.0
C301 C 0.34167 0.68579 0.75386 0.0
C302 C 0.36643 0.68345 0.75501 0.0
C303 C 0.37832 0.6866 0.77751 0.0
C304 C 0.36562 0.69193 0.79901 0.0
C305 C 0.341 0.69407 0.79808 0.0
C306 C 0.32902 0.69096 0.77563 0.0
C307 C 0.2672 0.60642 0.68353 0.0
C308 C 0.24526 0.60843 0.69565 0.0
C309 C 0.28523 0.6227 0.68815 0.0
C310 C 0.28167 0.64134 0.7049 0.0
C311 C 0.26046 0.64248 0.71835 0.0
C312 C 0.24233 0.62615 0.71373 0.0
C313 C 0.29914 0.66084 0.70626 0.0
C314 C 0.3109 0.6654 0.72867 0.0
C315 C 0.30488 0.67426 0.68495 0.0
C316 C 0.29194 0.67133 0.66119 0.0
C317 C 0.2672 0.67396 0.66028 0.0
C318 C 0.25507 0.67089 0.63792 0.0
C319 C 0.2675 0.66536 0.6163 0.0
C320 C 0.29211 0.66297 0.61698 0.0
C321 C 0.30433 0.66598 0.63931 0.0
H322 H 0.25808 0.66299 0.59901 0.0
H323 H 0.37486 0.69435 0.81641 0.0
H324 H 0.61584 0.74333 0.34211 0.0
H325 H 0.64408 0.71137 0.33591 0.0
H326 H 0.63159 0.71375 0.25708 0.0
H327 H 0.603 0.74599 0.2631 0.0
H328 H 0.63371 0.66735 0.27622 0.0
H329 H 0.68029 0.73737 0.27697 0.0
H330 H 0.69405 0.77619 0.29209 0.0
H331 H 0.71661 0.74438 0.36042 0.0
H332 H 0.70264 0.7054 0.34587 0.0
H333 H 0.73933 0.59568 0.25944 0.0
H334 H 0.70928 0.62682 0.25572 0.0
H335 H 0.70985 0.63604 0.33507 0.0
H336 H 0.73963 0.60503 0.33901 0.0
H337 H 0.71513 0.6782 0.30888 0.0
H338 H 0.66477 0.60883 0.30878 0.0
H339 H 0.65082 0.57024 0.29318 0.0
H340 H 0.63604 0.60132 0.22219 0.0
H341 H 0.65023 0.64005 0.23728 0.0
C342 C 0.61896 0.73709 0.32341 0.0
C343 C 0.60726 0.74735 0.30307 0.0
C344 C 0.63518 0.71883 0.31991 0.0
C345 C 0.64014 0.71042 0.29602 0.0
C346 C 0.62804 0.72008 0.27566 0.0
C347 C 0.6118 0.73852 0.27914 0.0
C348 C 0.65835 0.69184 0.29268 0.0
C349 C 0.65166 0.66983 0.28288 0.0
C350 C 0.6817 0.69509 0.30156 0.0
C351 C 0.69025 0.71848 0.31039 0.0
C352 C 0.68802 0.73867 0.2953 0.0
C353 C 0.69588 0.7607 0.30375 0.0
C354 C 0.70616 0.76275 0.32722 0.0
C355 C 0.70863 0.74276 0.34225 0.0
C356 C 0.70077 0.72069 0.3339 0.0
C357 C 0.73289 0.6042 0.27611 0.0
C358 C 0.74192 0.59792 0.29952 0.0
C359 C 0.71571 0.62194 0.27394 0.0
C360 C 0.70741 0.63372 0.29513 0.0
C361 C 0.71611 0.6272 0.3185 0.0
C362 C 0.73307 0.6094 0.3207 0.0
C363 C 0.6903 0.65349 0.29315 0.0
C364 C 0.69728 0.6758 0.30188 0.0
C365 C 0.66734 0.65052 0.28313 0.0
C366 C 0.65884 0.62725 0.27406 0.0
C367 C 0.65877 0.60738 0.28977 0.0
C368 C 0.65077 0.5855 0.28104 0.0
C369 C 0.64263 0.58331 0.25668 0.0
C370 C 0.64241 0.60302 0.24103 0.0
C371 C 0.65041 0.62495 0.24967 0.0
H372 H 0.63643 0.56635 0.24996 0.0
H373 H 0.71224 0.77983 0.33373 0.0
H374 H 0.55891 0.29142 0.70369 0.0
H375 H 0.58744 0.3236 0.70961 0.0
H376 H 0.64393 0.27766 0.68557 0.0
H377 H 0.61577 0.24543 0.6801 0.0
H378 H 0.65795 0.30238 0.72404 0.0
H379 H 0.61935 0.31898 0.64657 0.0
H380 H 0.58535 0.32635 0.61894 0.0
H381 H 0.56617 0.3873 0.66201 0.0
H382 H 0.59991 0.38011 0.6901 0.0
H383 H 0.72346 0.40874 0.66539 0.0
H384 H 0.69144 0.37978 0.66476 0.0
H385 H 0.68993 0.37955 0.74473 0.0
H386 H 0.72244 0.40818 0.74553 0.0
H387 H 0.64734 0.37879 0.68005 0.0
H388 H 0.67707 0.32379 0.76486 0.0
H389 H 0.71362 0.31433 0.78788 0.0
H390 H 0.75491 0.32664 0.72229 0.0
H391 H 0.71859 0.33586 0.69882 0.0
C392 C 0.57743 0.28816 0.69977 0.0
C393 C 0.58503 0.26587 0.69133 0.0
C394 C 0.5937 0.30659 0.70309 0.0
C395 C 0.61781 0.30311 0.69783 0.0
C396 C 0.62545 0.28076 0.68982 0.0
C397 C 0.60926 0.26235 0.6866 0.0
C398 C 0.63517 0.32273 0.70011 0.0
C399 C 0.65553 0.31915 0.71456 0.0
C400 C 0.63225 0.34448 0.68744 0.0
C401 C 0.61197 0.34885 0.6706 0.0
C402 C 0.60776 0.33384 0.65027 0.0
C403 C 0.58857 0.33801 0.6345 0.0
C404 C 0.57357 0.35724 0.63877 0.0
C405 C 0.57778 0.37238 0.65877 0.0
C406 C 0.59694 0.36828 0.67461 0.0
C407 C 0.71626 0.40265 0.68287 0.0
C408 C 0.72565 0.41063 0.70553 0.0
C409 C 0.69787 0.38614 0.68247 0.0
C410 C 0.68845 0.37727 0.70468 0.0
C411 C 0.69719 0.38585 0.72735 0.0
C412 C 0.71572 0.40227 0.72778 0.0
C413 C 0.67013 0.35841 0.70394 0.0
C414 C 0.64959 0.36215 0.68982 0.0
C415 C 0.6732 0.33653 0.71633 0.0
C416 C 0.69514 0.33079 0.7302 0.0
C417 C 0.69395 0.32441 0.75535 0.0
C418 C 0.71462 0.3191 0.76847 0.0
C419 C 0.73658 0.31997 0.75658 0.0
C420 C 0.7379 0.32606 0.73151 0.0
C421 C 0.71728 0.33136 0.7183 0.0
H422 H 0.75257 0.31587 0.76677 0.0
H423 H 0.55872 0.36044 0.62654 0.0
H424 H 0.78068 0.89975 0.81628 0.0
H425 H 0.81381 0.87402 0.80614 0.0
H426 H 0.77441 0.84484 0.74481 0.0
H427 H 0.74081 0.87036 0.75516 0.0
H428 H 0.79142 0.81075 0.77327 0.0
H429 H 0.8244 0.87856 0.73464 0.0
H430 H 0.83622 0.92037 0.73036 0.0
H431 H 0.88371 0.91314 0.79205 0.0
H432 H 0.87194 0.87137 0.79695 0.0
H433 H 0.88869 0.73341 0.75771 0.0
H434 H 0.86167 0.76539 0.74608 0.0
H435 H 0.88413 0.8056 0.80985 0.0
H436 H 0.91137 0.77399 0.82141 0.0
H437 H 0.87601 0.8342 0.76982 0.0
H438 H 0.83635 0.76976 0.81314 0.0
H439 H 0.82448 0.72803 0.81839 0.0
H440 H 0.78919 0.72962 0.74789 0.0
H441 H 0.80118 0.77129 0.74208 0.0
C442 C 0.77914 0.88816 0.80037 0.0
C443 C 0.75802 0.887 0.78664 0.0
C444 C 0.79822 0.87356 0.79447 0.0
C445 C 0.79671 0.85763 0.77456 0.0
C446 C 0.77598 0.85705 0.7602 0.0
C447 C 0.75682 0.87168 0.76612 0.0
C448 C 0.81581 0.84001 0.77063 0.0
C449 C 0.80987 0.81591 0.7718 0.0
C450 C 0.83993 0.8467 0.76914 0.0
C451 C 0.84719 0.87182 0.76622 0.0
C452 C 0.83726 0.88591 0.7474 0.0
C453 C 0.84397 0.90961 0.74485 0.0
C454 C 0.86069 0.91941 0.76094 0.0
C455 C 0.87077 0.90552 0.77959 0.0
C456 C 0.86411 0.88182 0.78223 0.0
C457 C 0.88821 0.74925 0.769 0.0
C458 C 0.90192 0.75102 0.7907 0.0
C459 C 0.87274 0.76748 0.76233 0.0
C460 C 0.87065 0.78769 0.77732 0.0
C461 C 0.88545 0.79015 0.79805 0.0
C462 C 0.90092 0.77198 0.8047 0.0
C463 C 0.85153 0.80517 0.77312 0.0
C464 C 0.85749 0.82916 0.77054 0.0
C465 C 0.8274 0.79843 0.77337 0.0
C466 C 0.8199 0.77352 0.77704 0.0
C467 C 0.82619 0.76115 0.79869 0.0
C468 C 0.81943 0.73752 0.80178 0.0
C469 C 0.80615 0.72615 0.78345 0.0
C470 C 0.79952 0.73843 0.76204 0.0
C471 C 0.8063 0.76205 0.75884 0.0
H472 H 0.80095 0.70785 0.78586 0.0
H473 H 0.86585 0.93777 0.75894 0.0
H474 H 0.74041 0.11974 0.22908 0.0
H475 H 0.77304 0.14681 0.23845 0.0
H476 H 0.80932 0.12414 0.17222 0.0
H477 H 0.77712 0.09678 0.16299 0.0
H478 H 0.84026 0.13151 0.2094 0.0
H479 H 0.77409 0.17338 0.17237 0.0
H480 H 0.73247 0.18639 0.1701 0.0
H481 H 0.73905 0.21987 0.24123 0.0
H482 H 0.78065 0.20675 0.24406 0.0
H483 H 0.90682 0.22928 0.16751 0.0
H484 H 0.88021 0.19604 0.17497 0.0
H485 H 0.85361 0.23045 0.24069 0.0
H486 H 0.87999 0.26404 0.23314 0.0
H487 H 0.81832 0.21651 0.21165 0.0
H488 H 0.88713 0.17992 0.245 0.0
H489 H 0.92884 0.16716 0.24624 0.0
H490 H 0.91785 0.12416 0.18164 0.0
H491 H 0.87614 0.1369 0.17978 0.0
C492 C 0.75551 0.12024 0.21672 0.0
C493 C 0.75602 0.10631 0.19512 0.0
C494 C 0.77411 0.13576 0.22208 0.0
C495 C 0.79342 0.13777 0.20581 0.0
C496 C 0.79458 0.12292 0.18501 0.0
C497 C 0.77607 0.10735 0.1797 0.0
C498 C 0.81153 0.15653 0.20916 0.0
C499 C 0.83552 0.15011 0.20985 0.0
C500 C 0.80528 0.18077 0.21036 0.0
C501 C 0.78037 0.18885 0.20856 0.0
C502 C 0.76661 0.18338 0.1876 0.0
C503 C 0.74304 0.19078 0.1862 0.0
C504 C 0.7331 0.20389 0.20555 0.0
C505 C 0.74675 0.20968 0.22629 0.0
C506 C 0.77032 0.20226 0.2278 0.0
C507 C 0.89558 0.22966 0.18377 0.0
C508 C 0.89545 0.24938 0.19966 0.0
C509 C 0.88046 0.21055 0.1881 0.0
C510 C 0.86503 0.21065 0.20851 0.0
C511 C 0.86539 0.22998 0.22485 0.0
C512 C 0.88052 0.24914 0.22052 0.0
C513 C 0.84717 0.19157 0.2114 0.0
C514 C 0.82316 0.19793 0.21178 0.0
C515 C 0.85345 0.16731 0.21109 0.0
C516 C 0.87852 0.15949 0.21217 0.0
C517 C 0.89364 0.16787 0.23095 0.0
C518 C 0.91728 0.16062 0.23178 0.0
C519 C 0.926 0.14489 0.21401 0.0
C520 C 0.91107 0.13634 0.1954 0.0
C521 C 0.88741 0.14354 0.19447 0.0
H522 H 0.94431 0.1393 0.21468 0.0
H523 H 0.71485 0.2096 0.20444 0.0
H524 H 0.0784 0.22544 0.81326 0.0
H525 H 0.10638 0.19265 0.8102 0.0
H526 H 0.14958 0.23353 0.76004 0.0
H527 H 0.1214 0.2663 0.76259 0.0
H528 H 0.15002 0.18646 0.74794 0.0
H529 H 0.16161 0.23418 0.82082 0.0
H530 H 0.14939 0.25414 0.8594 0.0
H531 H 0.13017 0.18716 0.89124 0.0
H532 H 0.14196 0.16683 0.85268 0.0
H533 H 0.26342 0.13631 0.77518 0.0
H534 H 0.22865 0.16085 0.76711 0.0
H535 H 0.18832 0.11962 0.81957 0.0
H536 H 0.22308 0.09528 0.82806 0.0
H537 H 0.18499 0.16536 0.82939 0.0
H538 H 0.17709 0.11727 0.75666 0.0
H539 H 0.19032 0.0982 0.71796 0.0
H540 H 0.20411 0.16635 0.68576 0.0
H541 H 0.19126 0.18583 0.7244 0.0
C542 C 0.0936 0.22731 0.80119 0.0
C543 C 0.09788 0.24862 0.78847 0.0
C544 C 0.10959 0.20856 0.79949 0.0
C545 C 0.13031 0.21087 0.78532 0.0
C546 C 0.13376 0.23143 0.77117 0.0
C547 C 0.11765 0.25016 0.7727 0.0
C548 C 0.14938 0.19294 0.78727 0.0
C549 C 0.15781 0.18191 0.7657 0.0
C550 C 0.15934 0.18685 0.8105 0.0
C551 C 0.15242 0.19902 0.83378 0.0
C552 C 0.15461 0.22373 0.83599 0.0
C553 C 0.14779 0.23511 0.85786 0.0
C554 C 0.13894 0.22193 0.87773 0.0
C555 C 0.13698 0.19734 0.87581 0.0
C556 C 0.14374 0.18588 0.85396 0.0
C557 C 0.24705 0.13222 0.78471 0.0
C558 C 0.24608 0.11396 0.80241 0.0
C559 C 0.22714 0.1462 0.77998 0.0
C560 C 0.20584 0.14202 0.79267 0.0
C561 C 0.20459 0.12319 0.8096 0.0
C562 C 0.22448 0.10928 0.81441 0.0
C563 C 0.18558 0.15855 0.79009 0.0
C564 C 0.17705 0.16957 0.81161 0.0
C565 C 0.17573 0.16467 0.76681 0.0
C566 C 0.1834 0.153 0.74352 0.0
C567 C 0.18312 0.12819 0.7414 0.0
C568 C 0.19052 0.11731 0.71946 0.0
C569 C 0.1981 0.13105 0.69944 0.0
C570 C 0.19825 0.15572 0.70129 0.0
C571 C 0.19088 0.16669 0.7232 0.0
H572 H 0.20382 0.12259 0.68246 0.0
H573 H 0.13366 0.23077 0.89465 0.0
H574 H 0.22912 0.89518 0.17524 0.0
H575 H 0.19725 0.86812 0.18627 0.0
H576 H 0.23781 0.84309 0.24877 0.0
H577 H 0.27009 0.86996 0.23759 0.0
H578 H 0.22257 0.80715 0.22163 0.0
H579 H 0.18635 0.87437 0.25775 0.0
H580 H 0.17254 0.91566 0.26066 0.0
H581 H 0.12552 0.90434 0.19925 0.0
H582 H 0.13928 0.86307 0.19571 0.0
H583 H 0.12748 0.72594 0.23866 0.0
H584 H 0.15437 0.75849 0.24913 0.0
H585 H 0.13014 0.79735 0.18511 0.0
H586 H 0.10304 0.76529 0.17482 0.0
H587 H 0.13697 0.82657 0.22398 0.0
H588 H 0.18021 0.76274 0.18308 0.0
H589 H 0.19422 0.72152 0.17954 0.0
H590 H 0.22823 0.72712 0.25051 0.0
H591 H 0.21416 0.76831 0.25457 0.0
C592 C 0.23115 0.88424 0.19159 0.0
C593 C 0.25223 0.88463 0.20543 0.0
C594 C 0.2128 0.86885 0.19799 0.0
C595 C 0.21503 0.85368 0.21848 0.0
C596 C 0.23569 0.85468 0.23292 0.0
C597 C 0.25409 0.87009 0.22653 0.0
C598 C 0.19681 0.83526 0.22306 0.0
C599 C 0.20389 0.81144 0.22283 0.0
C600 C 0.1724 0.8408 0.22432 0.0
C601 C 0.16395 0.86561 0.2264 0.0
C602 C 0.17318 0.88072 0.24475 0.0
C603 C 0.16534 0.90412 0.24653 0.0
C604 C 0.14819 0.91263 0.23013 0.0
C605 C 0.1388 0.89773 0.21195 0.0
C606 C 0.14659 0.87431 0.21008 0.0
C607 C 0.12766 0.74156 0.22702 0.0
C608 C 0.11331 0.74291 0.20574 0.0
C609 C 0.14306 0.76012 0.233 0.0
C610 C 0.14446 0.78021 0.21772 0.0
C611 C 0.12935 0.78203 0.19718 0.0
C612 C 0.11395 0.76358 0.19123 0.0
C613 C 0.16278 0.79864 0.2217 0.0
C614 C 0.15571 0.82239 0.22349 0.0
C615 C 0.18721 0.79308 0.22187 0.0
C616 C 0.19591 0.76847 0.21926 0.0
C617 C 0.19056 0.75512 0.19799 0.0
C618 C 0.19852 0.73178 0.19588 0.0
C619 C 0.21204 0.72168 0.21483 0.0
C620 C 0.21771 0.73494 0.23587 0.0
C621 C 0.20976 0.75829 0.23809 0.0
H622 H 0.21816 0.7036 0.21318 0.0
H623 H 0.14215 0.93076 0.23154 0.0
H624 H 0.1577 0.51025 0.32225 0.0
H625 H 0.15123 0.54142 0.29205 0.0
H626 H 0.2069 0.51296 0.24614 0.0
H627 H 0.21318 0.48102 0.27629 0.0
H628 H 0.17537 0.57633 0.2731 0.0
H629 H 0.19049 0.52098 0.18543 0.0
H630 H 0.19033 0.47923 0.17188 0.0
H631 H 0.13993 0.46218 0.22876 0.0
H632 H 0.13967 0.50383 0.24246 0.0
H633 H 0.13629 0.65447 0.17875 0.0
H634 H 0.16319 0.62675 0.19947 0.0
H635 H 0.11062 0.57158 0.19303 0.0
H636 H 0.08451 0.59859 0.1712 0.0
H637 H 0.15063 0.55216 0.1886 0.0
H638 H 0.11783 0.60969 0.24689 0.0
H639 H 0.11126 0.65029 0.26232 0.0
H640 H 0.18634 0.66074 0.26842 0.0
H641 H 0.19332 0.62025 0.25279 0.0
C642 C 0.16876 0.51061 0.30586 0.0
C643 C 0.1858 0.49293 0.30158 0.0
C644 C 0.16513 0.52862 0.28864 0.0
C645 C 0.17844 0.52948 0.26672 0.0
C646 C 0.19623 0.51249 0.26281 0.0
C647 C 0.19983 0.49428 0.28007 0.0
C648 C 0.17215 0.54723 0.2475 0.0
C649 C 0.17029 0.57111 0.25449 0.0
C650 C 0.16535 0.54046 0.22327 0.0
C651 C 0.16534 0.51541 0.21515 0.0
C652 C 0.17939 0.5083 0.19502 0.0
C653 C 0.17937 0.48466 0.18732 0.0
C654 C 0.16522 0.46803 0.19953 0.0
C655 C 0.15099 0.47503 0.2194 0.0
C656 C 0.15094 0.49864 0.22716 0.0
C657 C 0.13071 0.6363 0.1814 0.0
C658 C 0.1082 0.62877 0.17355 0.0
C659 C 0.14605 0.62049 0.19334 0.0
C660 C 0.13879 0.59714 0.19832 0.0
C661 C 0.11675 0.58943 0.18942 0.0
C662 C 0.10172 0.60499 0.17701 0.0
C663 C 0.15284 0.5811 0.21454 0.0
C664 C 0.15635 0.55757 0.20694 0.0
C665 C 0.16028 0.58799 0.23858 0.0
C666 C 0.15609 0.6121 0.24844 0.0
C667 C 0.13292 0.6207 0.25146 0.0
C668 C 0.12913 0.64367 0.26023 0.0
C669 C 0.14838 0.65811 0.26627 0.0
C670 C 0.17145 0.64955 0.26368 0.0
C671 C 0.17534 0.6266 0.25489 0.0
H672 H 0.14541 0.67591 0.27301 0.0
H673 H 0.16522 0.44976 0.19353 0.0
H674 H 0.52677 0.81757 0.6698 0.0
H675 H 0.56191 0.81893 0.6961 0.0
H676 H 0.51786 0.81067 0.76098 0.0
H677 H 0.4828 0.80789 0.73444 0.0
H678 H 0.57114 0.85213 0.72514 0.0
H679 H 0.5491 0.79372 0.8113 0.0
H680 H 0.52996 0.75552 0.82068 0.0
H681 H 0.54496 0.73104 0.747 0.0
H682 H 0.56448 0.76896 0.73726 0.0
H683 H 0.61908 0.87878 0.84818 0.0
H684 H 0.59242 0.85318 0.82463 0.0
H685 H 0.64716 0.84146 0.77035 0.0
H686 H 0.67406 0.86686 0.79385 0.0
H687 H 0.59235 0.80559 0.79995 0.0
H688 H 0.62118 0.8595 0.71638 0.0
H689 H 0.64155 0.89708 0.70671 0.0
H690 H 0.61376 0.92815 0.77326 0.0
H691 H 0.59295 0.8909 0.78306 0.0
C692 C 0.52471 0.81544 0.68965 0.0
C693 C 0.50216 0.81279 0.70019 0.0
C694 C 0.54477 0.81624 0.70468 0.0
C695 C 0.54265 0.81496 0.73059 0.0
C696 C 0.52013 0.81122 0.74106 0.0
C697 C 0.50006 0.80979 0.72592 0.0
C698 C 0.56338 0.8207 0.74649 0.0
C699 C 0.57603 0.84149 0.74109 0.0
C700 C 0.5696 0.80727 0.76773 0.0
C701 C 0.55809 0.7843 0.7735 0.0
C702 C 0.54842 0.78016 0.79713 0.0
C703 C 0.53748 0.75855 0.8025 0.0
C704 C 0.53618 0.74089 0.78443 0.0
C705 C 0.54589 0.74477 0.76096 0.0
C706 C 0.55687 0.76633 0.75549 0.0
C707 C 0.62571 0.87017 0.83164 0.0
C708 C 0.64851 0.87522 0.82259 0.0
C709 C 0.6105 0.85538 0.81834 0.0
C710 C 0.61779 0.84569 0.79569 0.0
C711 C 0.64126 0.84884 0.78783 0.0
C712 C 0.65657 0.86343 0.80125 0.0
C713 C 0.59979 0.83664 0.77823 0.0
C714 C 0.58759 0.81562 0.78354 0.0
C715 C 0.59401 0.84963 0.75668 0.0
C716 C 0.60579 0.87236 0.75058 0.0
C717 C 0.61936 0.8744 0.72887 0.0
C718 C 0.63097 0.89563 0.72337 0.0
C719 C 0.62903 0.91496 0.73942 0.0
C720 C 0.61533 0.91315 0.7609 0.0
C721 C 0.60363 0.89198 0.76644 0.0
H722 H 0.63808 0.93136 0.73517 0.0
H723 H 0.5277 0.72418 0.78862 0.0
H724 H 0.87641 0.37867 0.1302 0.0
H725 H 0.84472 0.40389 0.14626 0.0
H726 H 0.84539 0.3646 0.21493 0.0
H727 H 0.87585 0.33847 0.19829 0.0
H728 H 0.80332 0.38156 0.20881 0.0
H729 H 0.88283 0.41462 0.2031 0.0
H730 H 0.91895 0.42718 0.18098 0.0
H731 H 0.87779 0.47442 0.13588 0.0
H732 H 0.84139 0.4619 0.15758 0.0
H733 H 0.81578 0.46125 0.30719 0.0
H734 H 0.8151 0.43184 0.2741 0.0
H735 H 0.78928 0.48459 0.22297 0.0
H736 H 0.78938 0.51414 0.25645 0.0
H737 H 0.8332 0.46413 0.21058 0.0
H738 H 0.75592 0.43811 0.23013 0.0
H739 H 0.72283 0.4258 0.25698 0.0
H740 H 0.76273 0.36549 0.28142 0.0
H741 H 0.79623 0.3776 0.25503 0.0
C742 C 0.86918 0.37497 0.1484 0.0
C743 C 0.87879 0.3569 0.16319 0.0
C744 C 0.85116 0.38944 0.15762 0.0
C745 C 0.84324 0.38671 0.18215 0.0
C746 C 0.85128 0.36723 0.19602 0.0
C747 C 0.86878 0.35231 0.18652 0.0
C748 C 0.82958 0.40574 0.19472 0.0
C749 C 0.80976 0.39965 0.20913 0.0
C750 C 0.83757 0.42955 0.1947 0.0
C751 C 0.8594 0.4371 0.18169 0.0
C752 C 0.8815 0.42758 0.18836 0.0
C753 C 0.902 0.43469 0.17591 0.0
C754 C 0.90065 0.45152 0.15697 0.0
C755 C 0.8788 0.46133 0.15049 0.0
C756 C 0.85823 0.45423 0.16285 0.0
C757 C 0.80925 0.46639 0.28908 0.0
C758 C 0.8028 0.48993 0.28426 0.0
C759 C 0.80869 0.44954 0.27024 0.0
C760 C 0.80203 0.45601 0.24612 0.0
C761 C 0.79424 0.47922 0.24154 0.0
C762 C 0.7943 0.49604 0.26063 0.0
C763 C 0.80762 0.43972 0.22546 0.0
C764 C 0.82609 0.4463 0.20955 0.0
C765 C 0.79878 0.41632 0.2247 0.0
C766 C 0.77865 0.40882 0.24059 0.0
C767 C 0.75772 0.4223 0.24134 0.0
C768 C 0.73887 0.41534 0.25647 0.0
C769 C 0.74068 0.39488 0.2709 0.0
C770 C 0.76134 0.38132 0.27021 0.0
C771 C 0.78026 0.3882 0.25512 0.0
H772 H 0.72607 0.38953 0.28261 0.0
H773 H 0.91655 0.45702 0.14736 0.0
H774 H 0.48163 0.14731 0.71378 0.0
H775 H 0.44852 0.15112 0.74199 0.0
H776 H 0.46592 0.2245 0.75449 0.0
H777 H 0.49979 0.2208 0.72595 0.0
H778 H 0.45352 0.20072 0.79792 0.0
H779 H 0.4186 0.215 0.72092 0.0
H780 H 0.41122 0.21045 0.67613 0.0
H781 H 0.38478 0.14014 0.68831 0.0
H782 H 0.39235 0.14408 0.73311 0.0
H783 H 0.32556 0.14347 0.82157 0.0
H784 H 0.34909 0.17488 0.80226 0.0
H785 H 0.41248 0.1449 0.83416 0.0
H786 H 0.38918 0.11462 0.85427 0.0
H787 H 0.37702 0.16849 0.76788 0.0
H788 H 0.45845 0.17785 0.83617 0.0
H789 H 0.46482 0.18546 0.88063 0.0
H790 H 0.39529 0.21557 0.88638 0.0
H791 H 0.38858 0.20852 0.84185 0.0
C792 C 0.47857 0.16434 0.72244 0.0
C793 C 0.49325 0.18384 0.71738 0.0
C794 C 0.45951 0.1665 0.73853 0.0
C795 C 0.45442 0.18823 0.74985 0.0
C796 C 0.46943 0.20764 0.74567 0.0
C797 C 0.48874 0.20548 0.72943 0.0
C798 C 0.43336 0.18978 0.76613 0.0
C799 C 0.43659 0.19407 0.79149 0.0
C800 C 0.41094 0.1824 0.75741 0.0
C801 C 0.40601 0.17989 0.73045 0.0
C802 C 0.41129 0.19853 0.71405 0.0
C803 C 0.40708 0.19605 0.68865 0.0
C804 C 0.39752 0.17503 0.67939 0.0
C805 C 0.39213 0.15644 0.69552 0.0
C806 C 0.39633 0.15881 0.72095 0.0
C807 C 0.34442 0.14409 0.82508 0.0
C808 C 0.35552 0.12633 0.83918 0.0
C809 C 0.35788 0.16207 0.81403 0.0
C810 C 0.38265 0.16248 0.81675 0.0
C811 C 0.39342 0.14559 0.83218 0.0
C812 C 0.38001 0.12793 0.84346 0.0
C813 C 0.39778 0.1772 0.80019 0.0
C814 C 0.39346 0.17604 0.77459 0.0
C815 C 0.41888 0.18812 0.80874 0.0
C816 C 0.42301 0.19265 0.83555 0.0
C817 C 0.44458 0.18632 0.84681 0.0
C818 C 0.44823 0.19047 0.87207 0.0
C819 C 0.43047 0.20099 0.88632 0.0
C820 C 0.40902 0.20739 0.87533 0.0
C821 C 0.40527 0.20329 0.85008 0.0
H822 H 0.43334 0.20417 0.90588 0.0
H823 H 0.39429 0.17314 0.65971 0.0
H824 H 0.19638 0.51064 0.71012 0.0
H825 H 0.18785 0.47714 0.73763 0.0
H826 H 0.14963 0.4426 0.67859 0.0
H827 H 0.15774 0.47593 0.65124 0.0
H828 H 0.12312 0.44676 0.71887 0.0
H829 H 0.20165 0.42019 0.70009 0.0
H830 H 0.245 0.42373 0.69636 0.0
H831 H 0.25052 0.43649 0.77462 0.0
H832 H 0.20714 0.43335 0.77877 0.0
H833 H 0.11529 0.33249 0.78774 0.0
H834 H 0.14027 0.35789 0.76172 0.0
H835 H 0.11854 0.4189 0.80389 0.0
H836 H 0.09378 0.3939 0.82999 0.0
H837 H 0.17707 0.39802 0.77057 0.0
H838 H 0.09362 0.45388 0.75915 0.0
H839 H 0.05024 0.4497 0.76261 0.0
H840 H 0.05537 0.37655 0.74166 0.0
H841 H 0.09869 0.38044 0.73767 0.0
C842 C 0.18655 0.49569 0.70289 0.0
C843 C 0.17744 0.49608 0.67862 0.0
C844 C 0.18177 0.47653 0.71859 0.0
C845 C 0.16806 0.45741 0.71015 0.0
C846 C 0.16014 0.45723 0.68552 0.0
C847 C 0.16476 0.47634 0.66992 0.0
C848 C 0.15956 0.43894 0.72753 0.0
C849 C 0.13501 0.43604 0.72999 0.0
C850 C 0.17502 0.42494 0.74211 0.0
C851 C 0.20111 0.42673 0.73969 0.0
C852 C 0.21208 0.42394 0.71647 0.0
C853 C 0.23667 0.42584 0.71429 0.0
C854 C 0.2505 0.43039 0.73523 0.0
C855 C 0.23978 0.43299 0.75841 0.0
C856 C 0.21519 0.43112 0.76069 0.0
C857 C 0.11634 0.35121 0.79191 0.0
C858 C 0.10217 0.36124 0.81062 0.0
C859 C 0.13074 0.36564 0.77713 0.0
C860 C 0.13103 0.39021 0.78085 0.0
C861 C 0.11848 0.39994 0.80078 0.0
C862 C 0.10421 0.3856 0.81557 0.0
C863 C 0.14083 0.40615 0.76172 0.0
C864 C 0.1654 0.40868 0.75916 0.0
C865 C 0.12549 0.41976 0.74674 0.0
C866 C 0.09938 0.4174 0.74839 0.0
C867 C 0.08545 0.43695 0.75517 0.0
C868 C 0.06089 0.43463 0.75723 0.0
C869 C 0.05006 0.41285 0.75245 0.0
C870 C 0.06377 0.39338 0.74546 0.0
C871 C 0.08833 0.39563 0.74332 0.0
H872 H 0.03105 0.41108 0.7541 0.0
H873 H 0.26953 0.43185 0.7335 0.0
H874 H 0.33202 0.86241 0.1983 0.0
H875 H 0.35706 0.83692 0.22383 0.0
H876 H 0.41489 0.84665 0.17268 0.0
H877 H 0.39005 0.87213 0.14701 0.0
H878 H 0.41434 0.80072 0.19739 0.0
H879 H 0.41064 0.88556 0.21503 0.0
H880 H 0.38861 0.92231 0.2238 0.0
H881 H 0.35789 0.89022 0.28841 0.0
H882 H 0.37949 0.85313 0.27976 0.0
H883 H 0.51981 0.80562 0.26964 0.0
H884 H 0.48618 0.8073 0.24106 0.0
H885 H 0.4384 0.8134 0.30324 0.0
H886 H 0.4721 0.8132 0.33159 0.0
H887 H 0.42981 0.84667 0.27407 0.0
H888 H 0.43964 0.76385 0.26117 0.0
H889 H 0.46091 0.72677 0.25208 0.0
H890 H 0.47932 0.753 0.1799 0.0
H891 H 0.45844 0.79039 0.18867 0.0
C892 C 0.34981 0.85853 0.19202 0.0
C893 C 0.35924 0.86975 0.17094 0.0
C894 C 0.36406 0.84388 0.20661 0.0
C895 C 0.38789 0.84023 0.20028 0.0
C896 C 0.39654 0.84928 0.17786 0.0
C897 C 0.38235 0.86401 0.16332 0.0
C898 C 0.40479 0.83125 0.21899 0.0
C899 C 0.41781 0.81062 0.21423 0.0
C900 C 0.40895 0.84407 0.24105 0.0
C901 C 0.39645 0.86653 0.2466 0.0
C902 C 0.39908 0.88631 0.23102 0.0
C903 C 0.38668 0.90719 0.23597 0.0
C904 C 0.3718 0.90857 0.25661 0.0
C905 C 0.36938 0.8891 0.2724 0.0
C906 C 0.38169 0.86815 0.26749 0.0
C907 C 0.50205 0.80675 0.27713 0.0
C908 C 0.49845 0.80952 0.3027 0.0
C909 C 0.4828 0.80756 0.26082 0.0
C910 C 0.45963 0.81043 0.26994 0.0
C911 C 0.45605 0.81138 0.29569 0.0
C912 C 0.47529 0.81122 0.31189 0.0
C913 C 0.43964 0.81577 0.25286 0.0
C914 C 0.42613 0.83612 0.25771 0.0
C915 C 0.43505 0.80251 0.23106 0.0
C916 C 0.4476 0.78001 0.22566 0.0
C917 C 0.44837 0.76179 0.24342 0.0
C918 C 0.46033 0.7407 0.23832 0.0
C919 C 0.4715 0.73754 0.21545 0.0
C920 C 0.47067 0.75546 0.19761 0.0
C921 C 0.45874 0.7766 0.20263 0.0
H922 H 0.48076 0.7212 0.21153 0.0
H923 H 0.36219 0.92473 0.26038 0.0
H924 H 0.76401 0.53129 0.71866 0.0
H925 H 0.76496 0.56532 0.74706 0.0
H926 H 0.81649 0.52918 0.79238 0.0
H927 H 0.81574 0.49555 0.76396 0.0
H928 H 0.78668 0.56039 0.82001 0.0
H929 H 0.83579 0.55876 0.74372 0.0
H930 H 0.83957 0.55679 0.69819 0.0
H931 H 0.79446 0.61757 0.69082 0.0
H932 H 0.79019 0.61965 0.73635 0.0
H933 H 0.88968 0.6146 0.85622 0.0
H934 H 0.85487 0.59363 0.84186 0.0
H935 H 0.83129 0.65621 0.80312 0.0
H936 H 0.86684 0.6773 0.81694 0.0
H937 H 0.83156 0.62114 0.77302 0.0
H938 H 0.79729 0.63068 0.85144 0.0
H939 H 0.79447 0.63238 0.89699 0.0
H940 H 0.81045 0.55823 0.90161 0.0
H941 H 0.81373 0.5561 0.85612 0.0
C942 C 0.7746 0.53026 0.73537 0.0
C943 C 0.78975 0.51095 0.73935 0.0
C944 C 0.7752 0.54968 0.75151 0.0
C945 C 0.79096 0.54982 0.77169 0.0
C946 C 0.80411 0.52938 0.77703 0.0
C947 C 0.80372 0.51019 0.76079 0.0
C948 C 0.79785 0.57222 0.78398 0.0
C949 C 0.79625 0.57393 0.80986 0.0
C950 C 0.80961 0.59025 0.77057 0.0
C951 C 0.81245 0.58919 0.74331 0.0
C952 C 0.82659 0.57161 0.73235 0.0
C953 C 0.82882 0.57047 0.70657 0.0
C954 C 0.81721 0.587 0.69161 0.0
C955 C 0.8034 0.60475 0.70242 0.0
C956 C 0.80106 0.60591 0.7282 0.0
C957 C 0.87692 0.62414 0.84504 0.0
C958 C 0.88124 0.64756 0.83748 0.0
C959 C 0.85676 0.61216 0.83706 0.0
C960 C 0.84017 0.62336 0.82162 0.0
C961 C 0.84376 0.6472 0.81511 0.0
C962 C 0.8641 0.65923 0.82301 0.0
C963 C 0.82152 0.60888 0.80942 0.0
C964 C 0.82103 0.6085 0.78341 0.0
C965 C 0.80776 0.59222 0.82281 0.0
C966 C 0.80576 0.59326 0.85027 0.0
C967 C 0.80033 0.61475 0.86215 0.0
C968 C 0.79864 0.61579 0.88798 0.0
C969 C 0.80227 0.59543 0.90218 0.0
C970 C 0.80759 0.57398 0.89058 0.0
C971 C 0.80931 0.57284 0.86475 0.0
H972 H 0.80097 0.59627 0.92218 0.0
H973 H 0.81895 0.5861 0.67165 0.0
H974 H 0.61286 0.10477 0.145 0.0
H975 H 0.58988 0.13579 0.16414 0.0
H976 H 0.65412 0.17054 0.18792 0.0
H977 H 0.67743 0.13833 0.16979 0.0
H978 H 0.62878 0.16813 0.22449 0.0
H979 H 0.61071 0.1988 0.14739 0.0
H980 H 0.601 0.20069 0.1029 0.0
H981 H 0.53339 0.16874 0.11712 0.0
H982 H 0.54279 0.16627 0.16162 0.0
H983 H 0.50232 0.21487 0.26516 0.0
H984 H 0.53563 0.21896 0.23597 0.0
H985 H 0.56181 0.15059 0.25872 0.0
H986 H 0.52941 0.14654 0.28764 0.0
H987 H 0.54893 0.19301 0.19652 0.0
H988 H 0.61812 0.14808 0.26336 0.0
H989 H 0.62896 0.15043 0.30752 0.0
H990 H 0.5976 0.21947 0.31242 0.0
H991 H 0.58689 0.21776 0.26817 0.0
C992 C 0.62224 0.11923 0.15381 0.0
C993 C 0.647 0.11888 0.15614 0.0
C994 C 0.60899 0.1373 0.16452 0.0
C995 C 0.62012 0.1559 0.17729 0.0
C996 C 0.64502 0.15645 0.17819 0.0
C997 C 0.65835 0.13802 0.16783 0.0
C998 C 0.60553 0.17193 0.19301 0.0
C999 C 0.61156 0.17403 0.21818 0.0
C1000 C 0.58345 0.18098 0.18479 0.0
C1001 C 0.57748 0.18242 0.15797 0.0
C1002 C 0.59381 0.19208 0.14105 0.0
C1003 C 0.58835 0.19325 0.1158 0.0
C1004 C 0.56658 0.18487 0.1072 0.0
C1005 C 0.55022 0.17529 0.12383 0.0
C1006 C 0.55558 0.17407 0.1491 0.0
C1007 C 0.51529 0.20082 0.26393 0.0
C1008 C 0.51326 0.18045 0.27886 0.0
C1009 C 0.53429 0.2032 0.24732 0.0
C1010 C 0.55154 0.18535 0.24564 0.0
C1011 C 0.54917 0.16494 0.26022 0.0
C1012 C 0.53042 0.16257 0.27666 0.0
C1013 C 0.57154 0.18665 0.22789 0.0
C1014 C 0.56656 0.18798 0.20247 0.0
C1015 C 0.5949 0.18158 0.23573 0.0
C1016 C 0.60172 0.1828 0.26234 0.0
C1017 C 0.61374 0.16389 0.27374 0.0
C1018 C 0.61981 0.16508 0.29884 0.0
C1019 C 0.61398 0.18508 0.31277 0.0
C1020 C 0.60209 0.20397 0.30162 0.0
C1021 C 0.59599 0.20289 0.27653 0.0
H1022 H 0.61867 0.18595 0.3322 0.0
H1023 H 0.5624 0.18578 0.08764 0.0
H1024 H 0.67983 0.01628 0.83131 0.0
H1025 H 0.67118 0.05034 0.80485 0.0
H1026 H 0.67504 0.00549 0.74015 0.0
H1027 H 0.6854 0.97173 0.76663 0.0
H1028 H 0.68967 0.04684 0.72762 0.0
H1029 H 0.62114 0.01897 0.77067 0.0
H1030 H 0.59709 0.00713 0.80676 0.0
H1031 H 0.6034 0.07715 0.83702 0.0
H1032 H 0.62776 0.08932 0.80123 0.0
H1033 H 0.59683 0.10535 0.65825 0.0
H1034 H 0.62388 0.07893 0.68036 0.0
H1035 H 0.63778 0.13378 0.73396 0.0
H1036 H 0.61111 0.16052 0.71171 0.0
H1037 H 0.61686 0.08994 0.75217 0.0
H1038 H 0.68189 0.11739 0.70235 0.0
H1039 H 0.70248 0.12643 0.66318 0.0
H1040 H 0.69786 0.05342 0.64159 0.0
H1041 H 0.67692 0.044 0.68048 0.0
C1042 C 0.67925 0.01387 0.81139 0.0
C1043 C 0.68301 0.99147 0.80093 0.0
C1044 C 0.67419 0.03326 0.79629 0.0
C1045 C 0.67169 0.03037 0.77054 0.0
C1046 C 0.67673 0.00819 0.75996 0.0
C1047 C 0.68258 0.9889 0.77506 0.0
C1048 C 0.66206 0.0499 0.75503 0.0
C1049 C 0.67367 0.05615 0.73292 0.0
C1050 C 0.64119 0.0622 0.76191 0.0
C1051 C 0.62648 0.05497 0.78342 0.0
C1052 C 0.61753 0.03179 0.7851 0.0
C1053 C 0.60383 0.02503 0.80549 0.0
C1054 C 0.59878 0.04136 0.82421 0.0
C1055 C 0.60736 0.06451 0.82253 0.0
C1056 C 0.62111 0.07135 0.80219 0.0
C1057 C 0.60617 0.11202 0.67434 0.0
C1058 C 0.60167 0.13493 0.68339 0.0
C1059 C 0.62169 0.09693 0.68687 0.0
C1060 C 0.63275 0.10444 0.70877 0.0
C1061 C 0.62945 0.12775 0.71701 0.0
C1062 C 0.61424 0.143 0.70425 0.0
C1063 C 0.64453 0.08692 0.72497 0.0
C1064 C 0.6331 0.08087 0.74712 0.0
C1065 C 0.66503 0.0744 0.71766 0.0
C1066 C 0.67765 0.08003 0.69426 0.0
C1067 C 0.68506 0.1033 0.68916 0.0
C1068 C 0.69684 0.10848 0.66702 0.0
C1069 C 0.70143 0.09052 0.64988 0.0
C1070 C 0.69428 0.06732 0.65487 0.0
C1071 C 0.68248 0.06205 0.67698 0.0
H1072 H 0.71055 0.09457 0.63276 0.0
H1073 H 0.58817 0.03609 0.83998 0.0
H1074 H 0.17007 0.36701 0.304 0.0
H1075 H 0.14066 0.34363 0.28139 0.0
H1076 H 0.08616 0.36817 0.33114 0.0
H1077 H 0.11536 0.39087 0.35416 0.0
H1078 H 0.07493 0.32534 0.31447 0.0
H1079 H 0.10117 0.40031 0.27949 0.0
H1080 H 0.13138 0.42784 0.26333 0.0
H1081 H 0.15004 0.37766 0.20684 0.0
H1082 H 0.12012 0.3497 0.22292 0.0
H1083 H 0.99382 0.36889 0.20748 0.0
H1084 H 0.0271 0.37209 0.23593 0.0
H1085 H 0.02984 0.29598 0.24228 0.0
H1086 H 0.99587 0.29267 0.21413 0.0
H1087 H 0.07028 0.35779 0.22913 0.0
H1088 H 0.05555 0.28244 0.29937 0.0
H1089 H 0.02277 0.25969 0.31805 0.0
H1090 H 0.97578 0.31849 0.30704 0.0
H1091 H 0.00834 0.34166 0.28859 0.0
C1092 C 0.15198 0.36679 0.31062 0.0
C1093 C 0.14494 0.38129 0.33048 0.0
C1094 C 0.13517 0.35344 0.29765 0.0
C1095 C 0.11111 0.35466 0.3042 0.0
C1096 C 0.10458 0.36706 0.32563 0.0
C1097 C 0.12133 0.38021 0.33868 0.0
C1098 C 0.09234 0.34671 0.28685 0.0
C1099 C 0.07406 0.33209 0.29566 0.0
C1100 C 0.09094 0.35593 0.26249 0.0
C1101 C 0.10865 0.37283 0.25257 0.0
C1102 C 0.11181 0.39512 0.2637 0.0
C1103 C 0.12886 0.4108 0.25456 0.0
C1104 C 0.14268 0.40447 0.23412 0.0
C1105 C 0.13937 0.3825 0.22271 0.0
C1106 C 0.12238 0.36674 0.23183 0.0
C1107 C 0.0013 0.3528 0.21512 0.0
C1108 C 0.99229 0.33052 0.20847 0.0
C1109 C 0.02041 0.35466 0.23131 0.0
C1110 C 0.0311 0.33429 0.24113 0.0
C1111 C 0.02177 0.31196 0.23509 0.0
C1112 C 0.00237 0.31009 0.21902 0.0
C1113 C 0.05249 0.33684 0.25688 0.0
C1114 C 0.07135 0.35044 0.24769 0.0
C1115 C 0.05398 0.3273 0.28111 0.0
C1116 C 0.0343 0.31363 0.29231 0.0
C1117 C 0.03823 0.2905 0.30098 0.0
C1118 C 0.01969 0.27755 0.31152 0.0
C1119 C 0.99718 0.2876 0.31363 0.0
C1120 C 0.99319 0.31068 0.30529 0.0
C1121 C 0.01167 0.32372 0.29475 0.0
H1122 H 0.98286 0.27754 0.32179 0.0
H1123 H 0.15591 0.41659 0.22711 0.0
H1124 H 0.29046 0.01731 0.78607 0.0
H1125 H 0.29361 0.9834 0.75779 0.0
H1126 H 0.36027 0.96429 0.7913 0.0
H1127 H 0.35709 0.99749 0.81966 0.0
H1128 H 0.3247 0.97227 0.72314 0.0
H1129 H 0.36786 0.90696 0.79474 0.0
H1130 H 0.3637 0.8973 0.8391 0.0
H1131 H 0.29299 0.92512 0.83894 0.0
H1132 H 0.29654 0.93456 0.79447 0.0
H1133 H 0.41029 0.90047 0.67235 0.0
H1134 H 0.38356 0.92692 0.69391 0.0
H1135 H 0.34142 0.86731 0.71762 0.0
H1136 H 0.36891 0.84038 0.69664 0.0
H1137 H 0.34884 0.89347 0.75495 0.0
H1138 H 0.31906 0.91041 0.67604 0.0
H1139 H 0.31909 0.91908 0.63125 0.0
H1140 H 0.3546 0.98502 0.64479 0.0
H1141 H 0.35513 0.97663 0.68962 0.0
C1142 C 0.30572 0.0058 0.78743 0.0
C1143 C 0.32345 0.01004 0.80522 0.0
C1144 C 0.30748 0.98644 0.77128 0.0
C1145 C 0.32693 0.97102 0.77277 0.0
C1146 C 0.34478 0.97554 0.79023 0.0
C1147 C 0.343 0.9947 0.80635 0.0
C1148 C 0.32952 0.95066 0.75562 0.0
C1149 C 0.32969 0.95494 0.73 0.0
C1150 C 0.33493 0.92772 0.76454 0.0
C1151 C 0.33252 0.92155 0.79122 0.0
C1152 C 0.35134 0.91083 0.80408 0.0
C1153 C 0.34911 0.90543 0.82928 0.0
C1154 C 0.32811 0.91062 0.84183 0.0
C1155 C 0.30927 0.92115 0.8292 0.0
C1156 C 0.31139 0.92654 0.804 0.0
C1157 C 0.39517 0.8929 0.6818 0.0
C1158 C 0.39184 0.86825 0.68285 0.0
C1159 C 0.37967 0.90814 0.69397 0.0
C1160 C 0.36016 0.89923 0.70711 0.0
C1161 C 0.35628 0.87464 0.70751 0.0
C1162 C 0.37199 0.85927 0.69549 0.0
C1163 C 0.34572 0.91558 0.72253 0.0
C1164 C 0.34323 0.91055 0.74789 0.0
C1165 C 0.33746 0.93755 0.71326 0.0
C1166 C 0.33716 0.94284 0.68626 0.0
C1167 C 0.327 0.92671 0.66948 0.0
C1168 C 0.3269 0.93158 0.64406 0.0
C1169 C 0.33684 0.95258 0.63518 0.0
C1170 C 0.34687 0.96878 0.6517 0.0
C1171 C 0.34702 0.96399 0.67713 0.0
H1172 H 0.33676 0.95632 0.6155 0.0
H1173 H 0.32644 0.90648 0.86134 0.0
H1174 H 0.89274 0.5883 0.32922 0.0
H1175 H 0.91729 0.61771 0.30822 0.0
H1176 H 0.85683 0.64098 0.26594 0.0
H1177 H 0.83196 0.61174 0.28719 0.0
H1178 H 0.89594 0.62546 0.23765 0.0
H1179 H 0.8801 0.67913 0.30385 0.0
H1180 H 0.87671 0.69171 0.34746 0.0
H1181 H 0.95092 0.67897 0.3583 0.0
H1182 H 0.9547 0.66597 0.31485 0.0
H1183 H 0.97472 0.69055 0.1663 0.0
H1184 H 0.94031 0.68488 0.19324 0.0
H1185 H 0.98688 0.66871 0.25446 0.0
H1186 H 0.02123 0.67627 0.22792 0.0
H1187 H 0.94909 0.687 0.27245 0.0
H1188 H 0.96384 0.62496 0.21276 0.0
H1189 H 0.96938 0.60827 0.1709 0.0
H1190 H 0.89985 0.6317 0.15009 0.0
H1191 H 0.89402 0.64878 0.19177 0.0
C1192 C 0.88455 0.59999 0.31581 0.0
C1193 C 0.86048 0.59758 0.30967 0.0
C1194 C 0.89856 0.61691 0.30398 0.0
C1195 C 0.88883 0.63157 0.28564 0.0
C1196 C 0.86459 0.62991 0.28019 0.0
C1197 C 0.85044 0.61322 0.29232 0.0
C1198 C 0.90471 0.64602 0.26994 0.0
C1199 C 0.90713 0.6394 0.24505 0.0
C1200 C 0.91982 0.66354 0.27994 0.0
C1201 C 0.91765 0.67144 0.30609 0.0
C1202 C 0.89567 0.67883 0.31557 0.0
C1203 C 0.89368 0.68608 0.34027 0.0
C1204 C 0.91358 0.68611 0.35565 0.0
C1205 C 0.93552 0.67894 0.34636 0.0
C1206 C 0.9376 0.67167 0.32169 0.0
C1207 C 0.97749 0.68652 0.18572 0.0
C1208 C 0.00045 0.68364 0.19512 0.0
C1209 C 0.95788 0.68311 0.20106 0.0
C1210 C 0.96096 0.67552 0.22568 0.0
C1211 C 0.98399 0.67439 0.23551 0.0
C1212 C 0.00362 0.67866 0.22037 0.0
C1213 C 0.94064 0.66612 0.24019 0.0
C1214 C 0.93749 0.67352 0.26485 0.0
C1215 C 0.92519 0.64874 0.23024 0.0
C1216 C 0.92862 0.63838 0.20524 0.0
C1217 C 0.9498 0.62666 0.1992 0.0
C1218 C 0.95298 0.61713 0.17552 0.0
C1219 C 0.93501 0.61899 0.15782 0.0
C1220 C 0.91378 0.63032 0.1638 0.0
C1221 C 0.91052 0.63993 0.18744 0.0
H1222 H 0.93751 0.6116 0.1395 0.0
H1223 H 0.912 0.69172 0.37476 0.0
H1224 H 0.64746 0.989 0.17389 0.0
H1225 H 0.64171 0.95823 0.20468 0.0
H1226 H 0.70445 0.9813 0.24342 0.0
H1227 H 0.71009 0.01287 0.21267 0.0
H1228 H 0.66571 0.92122 0.21906 0.0
H1229 H 0.69471 0.97128 0.3061 0.0
H1230 H 0.69993 0.01225 0.32111 0.0
H1231 H 0.64545 0.03613 0.27153 0.0
H1232 H 0.63975 0.99529 0.25647 0.0
H1233 H 0.63129 0.84259 0.31491 0.0
H1234 H 0.65813 0.86931 0.29271 0.0
H1235 H 0.60976 0.92722 0.30517 0.0
H1236 H 0.58362 0.90109 0.32812 0.0
H1237 H 0.65207 0.9438 0.30675 0.0
H1238 H 0.60917 0.89091 0.25069 0.0
H1239 H 0.59808 0.85163 0.23435 0.0
H1240 H 0.67113 0.83638 0.21924 0.0
H1241 H 0.68264 0.8755 0.23574 0.0
C1242 C 0.66018 0.98758 0.18885 0.0
C1243 C 0.67916 0.00357 0.19088 0.0
C1244 C 0.65693 0.96981 0.20641 0.0
C1245 C 0.67257 0.96746 0.22644 0.0
C1246 C 0.692 0.98292 0.22824 0.0
C1247 C 0.69522 0.00092 0.21065 0.0
C1248 C 0.66737 0.9495 0.24581 0.0
C1249 C 0.66309 0.92608 0.23833 0.0
C1250 C 0.66391 0.95576 0.27095 0.0
C1251 C 0.66707 0.98033 0.27994 0.0
C1252 C 0.68385 0.9853 0.29844 0.0
C1253 C 0.68688 0.00848 0.30695 0.0
C1254 C 0.67311 0.02679 0.2972 0.0
C1255 C 0.65619 0.02195 0.27899 0.0
C1256 C 0.65307 0.9988 0.27044 0.0
C1257 C 0.62663 0.86112 0.31327 0.0
C1258 C 0.60516 0.86964 0.32301 0.0
C1259 C 0.64195 0.87636 0.30053 0.0
C1260 C 0.63579 0.90023 0.29683 0.0
C1261 C 0.615 0.90893 0.30775 0.0
C1262 C 0.59993 0.89387 0.32078 0.0
C1263 C 0.64935 0.91581 0.27974 0.0
C1264 C 0.65541 0.93872 0.28767 0.0
C1265 C 0.6537 0.90932 0.25478 0.0
C1266 C 0.64678 0.88595 0.2447 0.0
C1267 C 0.62285 0.87911 0.24398 0.0
C1268 C 0.6165 0.8569 0.23469 0.0
C1269 C 0.6339 0.84149 0.22584 0.0
C1270 C 0.65768 0.84831 0.22617 0.0
C1271 C 0.66413 0.87049 0.23548 0.0
H1272 H 0.62895 0.8243 0.21867 0.0
H1273 H 0.67549 0.04472 0.3038 0.0
H1274 H 0.88089 0.4247 0.68964 0.0
H1275 H 0.90441 0.39182 0.70434 0.0
H1276 H 0.8409 0.35143 0.71823 0.0
H1277 H 0.81688 0.38505 0.70413 0.0
H1278 H 0.8671 0.34868 0.75633 0.0
H1279 H 0.88277 0.33281 0.67346 0.0
H1280 H 0.89151 0.33989 0.62931 0.0
H1281 H 0.9596 0.36821 0.64859 0.0
H1282 H 0.95118 0.36167 0.69287 0.0
H1283 H 0.9945 0.29072 0.77548 0.0
H1284 H 0.9585 0.29389 0.75013 0.0
H1285 H 0.93604 0.35384 0.79375 0.0
H1286 H 0.97116 0.35048 0.8192 0.0
H1287 H 0.94523 0.32752 0.72072 0.0
H1288 H 0.87973 0.36008 0.79859 0.0
H1289 H 0.86964 0.34902 0.84149 0.0
H1290 H 0.89787 0.2794 0.82963 0.0
H1291 H 0.90781 0.28987 0.78651 0.0
C1292 C 0.87179 0.40875 0.69545 0.0
C1293 C 0.84694 0.40762 0.69587 0.0
C1294 C 0.88537 0.38974 0.7036 0.0
C1295 C 0.87453 0.36886 0.71201 0.0
C1296 C 0.84969 0.36728 0.71167 0.0
C1297 C 0.83599 0.3865 0.70362 0.0
C1298 C 0.88938 0.35036 0.72396 0.0
C1299 C 0.884 0.34368 0.74839 0.0
C1300 C 0.91096 0.34271 0.71325 0.0
C1301 C 0.91631 0.3467 0.68657 0.0
C1302 C 0.89957 0.34065 0.66832 0.0
C1303 C 0.90447 0.34457 0.64325 0.0
C1304 C 0.9261 0.35448 0.63615 0.0
C1305 C 0.94287 0.36048 0.65411 0.0
C1306 C 0.93806 0.35661 0.67921 0.0
C1307 C 0.98165 0.30431 0.77986 0.0
C1308 C 0.98575 0.32037 0.79935 0.0
C1309 C 0.96111 0.3061 0.76537 0.0
C1310 C 0.94431 0.32383 0.77028 0.0
C1311 C 0.94831 0.33955 0.78997 0.0
C1312 C 0.96864 0.33776 0.8044 0.0
C1313 C 0.92373 0.32793 0.75367 0.0
C1314 C 0.928 0.33178 0.72837 0.0
C1315 C 0.90084 0.33227 0.76334 0.0
C1316 C 0.89453 0.32579 0.78923 0.0
C1317 C 0.88359 0.34233 0.80501 0.0
C1318 C 0.87795 0.33618 0.82942 0.0
C1319 C 0.88312 0.31352 0.83828 0.0
C1320 C 0.89391 0.29695 0.82275 0.0
C1321 C 0.89958 0.303 0.79833 0.0
H1322 H 0.87876 0.30881 0.85719 0.0
H1323 H 0.92985 0.35751 0.61673 0.0
H1324 H 0.41985 0.09582 0.32401 0.0
H1325 H 0.39209 0.07046 0.30243 0.0
H1326 H 0.3547 0.13185 0.2753 0.0
H1327 H 0.38338 0.15765 0.29618 0.0
H1328 H 0.34799 0.05989 0.29998 0.0
H1329 H 0.33645 0.12069 0.21664 0.0
H1330 H 0.35525 0.15544 0.197 0.0
H1331 H 0.42307 0.13342 0.22461 0.0
H1332 H 0.40467 0.09845 0.24418 0.0
H1333 H 0.29497 0.98455 0.20827 0.0
H1334 H 0.30053 0.01926 0.23497 0.0
H1335 H 0.36984 0.03025 0.20333 0.0
H1336 H 0.36418 0.99634 0.17634 0.0
H1337 H 0.34931 0.07101 0.20878 0.0
H1338 H 0.3606 0.00095 0.26021 0.0
H1339 H 0.34793 0.96352 0.27971 0.0
H1340 H 0.29028 -0.00051 0.31533 0.0
H1341 H 0.30254 0.03712 0.29585 0.0
C1342 C 0.40556 0.10406 0.31378 0.0
C1343 C 0.40417 0.12881 0.31139 0.0
C1344 C 0.38951 0.08945 0.30155 0.0
C1345 C 0.37152 0.09917 0.28681 0.0
C1346 C 0.36874 0.12391 0.28614 0.0
C1347 C 0.3851 0.13865 0.29816 0.0
C1348 C 0.35793 0.08322 0.27011 0.0
C1349 C 0.34788 0.06253 0.28005 0.0
C1350 C 0.35785 0.08649 0.24407 0.0
C1351 C 0.36914 0.1072 0.23209 0.0
C1352 C 0.35537 0.12328 0.21845 0.0
C1353 C 0.36595 0.14299 0.20735 0.0
C1354 C 0.39032 0.14668 0.20964 0.0
C1355 C 0.40419 0.13059 0.22293 0.0
C1356 C 0.3937 0.11083 0.23402 0.0
C1357 C 0.31131 0.99449 0.20693 0.0
C1358 C 0.32917 0.9876 0.19024 0.0
C1359 C 0.31447 0.0143 0.22221 0.0
C1360 C 0.33567 0.02732 0.22128 0.0
C1361 C 0.35325 0.02065 0.2043 0.0
C1362 C 0.35004 0.0011 0.18893 0.0
C1363 C 0.34048 0.04719 0.2386 0.0
C1364 C 0.34866 0.0687 0.22874 0.0
C1365 C 0.33963 0.04429 0.26465 0.0
C1366 C 0.33228 0.02173 0.27635 0.0
C1367 C 0.34513 0.00082 0.27207 0.0
C1368 C 0.33804 0.97958 0.28313 0.0
C1369 C 0.31826 0.9791 0.29866 0.0
C1370 C 0.30557 -0.00012 0.30324 0.0
C1371 C 0.31257 0.02116 0.29221 0.0
H1372 H 0.3128 0.96264 0.30721 0.0
H1373 H 0.39847 0.16198 0.20108 0.0
H1374 H 0.16323 0.62961 0.67728 0.0
H1375 H 0.13615 0.65419 0.70161 0.0
H1376 H 0.07656 0.61756 0.66941 0.0
H1377 H 0.10327 0.59388 0.64435 0.0
H1378 H 0.06373 0.66048 0.67902 0.0
H1379 H 0.10485 0.59829 0.72441 0.0
H1380 H 0.14062 0.57806 0.73992 0.0
H1381 H 0.16184 0.64136 0.77798 0.0
H1382 H 0.1263 0.66203 0.76244 0.0
H1383 H 0.00571 0.63461 0.80575 0.0
H1384 H 0.03663 0.62924 0.77491 0.0
H1385 H 0.02702 0.70123 0.75006 0.0
H1386 H 0.99531 0.70653 0.78059 0.0
H1387 H 0.07767 0.64857 0.76897 0.0
H1388 H 0.04152 0.70399 0.68794 0.0
H1389 H 0.00338 0.7185 0.67157 0.0
H1390 H 0.96753 0.65927 0.70448 0.0
H1391 H 0.00548 0.64429 0.72078 0.0
C1392 C 0.14434 0.62726 0.67492 0.0
C1393 C 0.13542 0.60947 0.65924 0.0
C1394 C 0.12887 0.64127 0.68888 0.0
C1395 C 0.10432 0.63728 0.68785 0.0
C1396 C 0.0954 0.62094 0.67065 0.0
C1397 C 0.11077 0.60726 0.65639 0.0
C1398 C 0.08806 0.64751 0.70664 0.0
C1399 C 0.06692 0.6582 0.69872 0.0
C1400 C 0.092 0.64426 0.73236 0.0
C1401 C 0.11311 0.63175 0.74206 0.0
C1402 C 0.11721 0.60789 0.73602 0.0
C1403 C 0.13743 0.59636 0.7448 0.0
C1404 C 0.15353 0.60844 0.75986 0.0
C1405 C 0.14938 0.63205 0.76627 0.0
C1406 C 0.12921 0.64368 0.75749 0.0
C1407 C 0.0101 0.64934 0.79373 0.0
C1408 C 0.998 0.67099 0.79559 0.0
C1409 C 0.02789 0.64627 0.77615 0.0
C1410 C 0.03417 0.6648 0.76011 0.0
C1411 C 0.02229 0.68658 0.76203 0.0
C1412 C 0.00421 0.68959 0.7795 0.0
C1413 C 0.05298 0.66083 0.74134 0.0
C1414 C 0.07468 0.65144 0.74933 0.0
C1415 C 0.04916 0.66451 0.71568 0.0
C1416 C 0.02628 0.67323 0.70584 0.0
C1417 C 0.02549 0.69407 0.69164 0.0
C1418 C 0.00391 0.70237 0.68237 0.0
C1419 C 0.98303 0.68987 0.68707 0.0
C1420 C 0.9837 0.66899 0.70095 0.0
C1421 C 0.00523 0.66061 0.71023 0.0
H1422 H 0.96635 0.69633 0.67989 0.0
H1423 H 0.16919 0.59949 0.76662 0.0
H1424 H 0.19269 0.55768 0.54592 0.0
H1425 H 0.21453 0.54087 0.51137 0.0
H1426 H 0.27445 0.52823 0.55919 0.0
H1427 H 0.25239 0.545 0.5942 0.0
H1428 H 0.25531 0.5439 0.48546 0.0
H1429 H 0.29225 0.472 0.54605 0.0
H1430 H 0.28847 0.45561 0.58835 0.0
H1431 H 0.21454 0.47334 0.589 0.0
H1432 H 0.21791 0.48959 0.54664 0.0
H1433 H 0.25884 0.45577 0.39314 0.0
H1434 H 0.27853 0.47466 0.42862 0.0
H1435 H 0.21865 0.4573 0.47487 0.0
H1436 H 0.19917 0.43854 0.43984 0.0
H1437 H 0.25908 0.45755 0.50182 0.0
H1438 H 0.21852 0.50843 0.43949 0.0
H1439 H 0.21489 0.52433 0.39701 0.0
H1440 H 0.28697 0.5484 0.39978 0.0
H1441 H 0.29102 0.5324 0.44221 0.0
C1442 C 0.21077 0.55199 0.54897 0.0
C1443 C 0.22065 0.55219 0.57284 0.0
C1444 C 0.22335 0.54254 0.52912 0.0
C1445 C 0.24599 0.53294 0.53278 0.0
C1446 C 0.25692 0.53537 0.55604 0.0
C1447 C 0.2443 0.54499 0.57599 0.0
C1448 C 0.25549 0.5168 0.51354 0.0
C1449 C 0.25704 0.52508 0.48908 0.0
C1450 C 0.25772 0.49223 0.5182 0.0
C1451 C 0.25542 0.4822 0.54341 0.0
C1452 C 0.27521 0.47233 0.55526 0.0
C1453 C 0.27314 0.46308 0.57921 0.0
C1454 C 0.2513 0.46351 0.59139 0.0
C1455 C 0.23146 0.47307 0.57958 0.0
C1456 C 0.23344 0.48228 0.55562 0.0
C1457 C 0.25036 0.45522 0.41114 0.0
C1458 C 0.22733 0.44608 0.41374 0.0
C1459 C 0.26159 0.46606 0.43135 0.0
C1460 C 0.24991 0.46768 0.45428 0.0
C1461 C 0.22804 0.45627 0.45739 0.0
C1462 C 0.21681 0.44568 0.43729 0.0
C1463 C 0.25754 0.48458 0.47371 0.0
C1464 C 0.25919 0.47645 0.49823 0.0
C1465 C 0.25763 0.50926 0.46909 0.0
C1466 C 0.25515 0.51904 0.44379 0.0
C1467 C 0.23359 0.51705 0.43095 0.0
C1468 C 0.23146 0.52606 0.40692 0.0
C1469 C 0.25071 0.53731 0.39568 0.0
C1470 C 0.2721 0.53963 0.40849 0.0
C1471 C 0.27433 0.53059 0.43251 0.0
H1472 H 0.24903 0.54428 0.37706 0.0
H1473 H 0.24974 0.45638 0.60994 0.0
H1474 H 0.54123 0.75958 0.40223 0.0
H1475 H 0.52414 0.74302 0.44032 0.0
H1476 H 0.53709 0.80909 0.47804 0.0
H1477 H 0.55382 0.82571 0.44019 0.0
H1478 H 0.54223 0.76953 0.50925 0.0
H1479 H 0.48691 0.80295 0.44746 0.0
H1480 H 0.46895 0.80349 0.40575 0.0
H1481 H 0.44752 0.73101 0.41448 0.0
H1482 H 0.46566 0.73001 0.45615 0.0
H1483 H 0.43883 0.8217 0.56559 0.0
H1484 H 0.45604 0.80533 0.52788 0.0
H1485 H 0.476 0.74216 0.56765 0.0
H1486 H 0.45843 0.75844 0.6056 0.0
H1487 H 0.45515 0.76453 0.4979 0.0
H1488 H 0.53518 0.73509 0.55232 0.0
H1489 H 0.55293 0.7393 0.59395 0.0
H1490 H 0.5243 0.80948 0.59994 0.0
H1491 H 0.50669 0.80575 0.55824 0.0
C1492 C 0.54117 0.77024 0.41892 0.0
C1493 C 0.54856 0.79401 0.41826 0.0
C1494 C 0.53137 0.76078 0.44061 0.0
C1495 C 0.52918 0.77492 0.46188 0.0
C1496 C 0.53868 0.79786 0.46184 0.0
C1497 C 0.54812 0.8074 0.44017 0.0
C1498 C 0.51374 0.76788 0.48277 0.0
C1499 C 0.52326 0.76764 0.50677 0.0
C1500 C 0.48898 0.76561 0.47954 0.0
C1501 C 0.47784 0.76632 0.45471 0.0
C1502 C 0.47848 0.78711 0.44039 0.0
C1503 C 0.46827 0.7875 0.41679 0.0
C1504 C 0.45716 0.76727 0.40744 0.0
C1505 C 0.45618 0.74664 0.42172 0.0
C1506 C 0.46642 0.74615 0.44532 0.0
C1507 C 0.44611 0.80396 0.56609 0.0
C1508 C 0.44758 0.79145 0.58851 0.0
C1509 C 0.45582 0.79456 0.5445 0.0
C1510 C 0.46752 0.77267 0.54508 0.0
C1511 C 0.46706 0.7591 0.56689 0.0
C1512 C 0.45699 0.7684 0.58851 0.0
C1513 C 0.4836 0.76673 0.52436 0.0
C1514 C 0.47421 0.76482 0.50039 0.0
C1515 C 0.50847 0.76733 0.52761 0.0
C1516 C 0.51942 0.77001 0.55238 0.0
C1517 C 0.53276 0.75142 0.56253 0.0
C1518 C 0.54279 0.75373 0.58611 0.0
C1519 C 0.53967 0.77461 0.59962 0.0
C1520 C 0.52664 0.79329 0.5895 0.0
C1521 C 0.51665 0.79109 0.5659 0.0
H1522 H 0.54739 0.77634 0.61789 0.0
H1523 H 0.44927 0.7676 0.38916 0.0
H1524 H 0.76395 0.53732 0.40193 0.0
H1525 H 0.75278 0.5271 0.44468 0.0
H1526 H 0.82648 0.51745 0.46311 0.0
H1527 H 0.83761 0.52708 0.42083 0.0
H1528 H 0.80122 0.48065 0.47798 0.0
H1529 H 0.79448 0.56653 0.48141 0.0
H1530 H 0.77806 0.60518 0.46892 0.0
H1531 H 0.70824 0.58174 0.48868 0.0
H1532 H 0.72425 0.54282 0.50101 0.0
H1533 H 0.82608 0.50149 0.6019 0.0
H1534 H 0.81795 0.50998 0.55849 0.0
H1535 H 0.74703 0.48296 0.56667 0.0
H1536 H 0.75509 0.47391 0.61051 0.0
H1537 H 0.75947 0.5331 0.53737 0.0
H1538 H 0.76961 0.4479 0.53963 0.0
H1539 H 0.78911 0.41133 0.55397 0.0
H1540 H 0.85532 0.43557 0.52422 0.0
H1541 H 0.83628 0.47247 0.51005 0.0
C1542 C 0.77772 0.53323 0.41523 0.0
C1543 C 0.80164 0.53279 0.40797 0.0
C1544 C 0.77132 0.5274 0.4396 0.0
C1545 C 0.7888 0.52135 0.45701 0.0
C1546 C 0.81267 0.52176 0.44991 0.0
C1547 C 0.81901 0.52734 0.42571 0.0
C1548 C 0.78279 0.51378 0.48255 0.0
C1549 C 0.79189 0.49207 0.49087 0.0
C1550 C 0.77007 0.52834 0.49925 0.0
C1551 C 0.7605 0.55168 0.4918 0.0
C1552 C 0.7756 0.56955 0.48287 0.0
C1553 C 0.76638 0.59152 0.47587 0.0
C1554 C 0.74211 0.59589 0.47791 0.0
C1555 C 0.72703 0.57831 0.48704 0.0
C1556 C 0.73616 0.55631 0.49404 0.0
C1557 C 0.80864 0.49749 0.59466 0.0
C1558 C 0.79126 0.48688 0.60965 0.0
C1559 C 0.80405 0.50242 0.56985 0.0
C1560 C 0.78194 0.49709 0.55954 0.0
C1561 C 0.76417 0.48725 0.57448 0.0
C1562 C 0.76886 0.48199 0.59939 0.0
C1563 C 0.7786 0.50046 0.53267 0.0
C1564 C 0.76793 0.52134 0.52416 0.0
C1565 C 0.79008 0.4853 0.51573 0.0
C1566 C 0.80154 0.463 0.52393 0.0
C1567 C 0.78836 0.44551 0.53633 0.0
C1568 C 0.79933 0.42471 0.54439 0.0
C1569 C 0.82345 0.42114 0.54005 0.0
C1570 C 0.83664 0.43835 0.52757 0.0
C1571 C 0.82576 0.4592 0.51949 0.0
H1572 H 0.83191 0.40503 0.54631 0.0
H1573 H 0.73501 0.61291 0.47249 0.0
H1574 H 0.49474 0.16707 0.41222 0.0
H1575 H 0.50615 0.18314 0.45205 0.0
H1576 H 0.46942 0.24818 0.43545 0.0
H1577 H 0.45769 0.23201 0.39486 0.0
H1578 H 0.53261 0.22195 0.46449 0.0
H1579 H 0.44806 0.26643 0.49458 0.0
H1580 H 0.40537 0.26757 0.4847 0.0
H1581 H 0.4076 0.19444 0.46309 0.0
H1582 H 0.45021 0.19286 0.47308 0.0
H1583 H 0.55035 0.23291 0.59645 0.0
H1584 H 0.53893 0.24807 0.55536 0.0
H1585 H 0.49003 0.18995 0.54692 0.0
H1586 H 0.50116 0.17488 0.58735 0.0
H1587 H 0.47116 0.2314 0.52937 0.0
H1588 H 0.54601 0.18589 0.52437 0.0
H1589 H 0.58818 0.17982 0.53455 0.0
H1590 H 0.60478 0.24881 0.50591 0.0
H1591 H 0.56262 0.25533 0.4958 0.0
C1592 C 0.48902 0.18483 0.41684 0.0
C1593 C 0.47519 0.19822 0.40032 0.0
C1594 C 0.49578 0.19408 0.43961 0.0
C1595 C 0.48885 0.21693 0.44662 0.0
C1596 C 0.47504 0.23053 0.4303 0.0
C1597 C 0.46828 0.22124 0.40722 0.0
C1598 C 0.49524 0.22518 0.47179 0.0
C1599 C 0.51923 0.22475 0.47862 0.0
C1600 C 0.47785 0.22901 0.49018 0.0
C1601 C 0.4523 0.22965 0.48423 0.0
C1602 C 0.43939 0.25062 0.48771 0.0
C1603 C 0.41523 0.25134 0.48211 0.0
C1604 C 0.4038 0.23112 0.47317 0.0
C1605 C 0.41649 0.21012 0.46991 0.0
C1606 C 0.44064 0.20931 0.47551 0.0
C1607 C 0.53702 0.22355 0.58586 0.0
C1608 C 0.52689 0.20253 0.595 0.0
C1609 C 0.53046 0.23227 0.56249 0.0
C1610 C 0.51357 0.22017 0.54816 0.0
C1611 C 0.50291 0.19972 0.55774 0.0
C1612 C 0.50954 0.19095 0.5808 0.0
C1613 C 0.5084 0.22672 0.52214 0.0
C1614 C 0.48468 0.23005 0.51515 0.0
C1615 C 0.52599 0.22513 0.5036 0.0
C1616 C 0.55123 0.22121 0.50966 0.0
C1617 C 0.55866 0.19981 0.52042 0.0
C1618 C 0.58254 0.19628 0.52614 0.0
C1619 C 0.59914 0.21396 0.52096 0.0
C1620 C 0.59189 0.23517 0.50998 0.0
C1621 C 0.56802 0.23879 0.50426 0.0
H1622 H 0.61761 0.21119 0.52539 0.0
H1623 H 0.38511 0.23171 0.46884 0.0
H1624 H 0.69028 0.04915 0.05072 0.0
H1625 H 0.70936 0.03136 0.0149 0.0
H1626 H 0.77263 0.01938 0.05794 0.0
H1627 H 0.75341 0.03733 0.09422 0.0
H1628 H 0.74892 0.03667 0.98659 0.0
H1629 H 0.79015 0.96259 0.04167 0.0
H1630 H 0.78885 0.94452 0.08337 0.0
H1631 H 0.71518 0.96229 0.08967 0.0
H1632 H 0.71606 0.98022 0.04794 0.0
H1633 H 0.75608 0.95277 0.89054 0.0
H1634 H 0.77463 0.9709 0.92706 0.0
H1635 H 0.71528 0.94892 0.97186 0.0
H1636 H 0.69685 0.93092 0.93574 0.0
H1637 H 0.75612 0.94994 -0.00089 0.0
H1638 H 0.71237 0.0007 0.93969 0.0
H1639 H 0.70704 0.01803 0.89803 0.0
H1640 H 0.77748 0.04654 0.90077 0.0
H1641 H 0.78327 0.02911 0.94236 0.0
C1642 C 0.70844 0.04324 0.05246 0.0
C1643 C 0.72024 0.0443 0.07533 0.0
C1644 C 0.71943 0.03324 0.03189 0.0
C1645 C 0.74234 0.02387 0.03381 0.0
C1646 C 0.7549 0.02645 0.05613 0.0
C1647 C 0.74392 0.03672 0.07679 0.0
C1648 C 0.75101 0.00855 0.01347 0.0
C1649 C 0.75135 0.01779 0.98934 0.0
C1650 C 0.7541 0.98392 0.01702 0.0
C1651 C 0.75327 0.97296 0.04192 0.0
C1652 C 0.7737 0.96259 0.05199 0.0
C1653 C 0.77303 0.95238 0.0756 0.0
C1654 C 0.75197 0.95234 0.0892 0.0
C1655 C 0.7315 0.9624 0.07916 0.0
C1656 C 0.73207 0.97259 0.05555 0.0
C1657 C 0.74748 0.95106 0.9084 0.0
C1658 C 0.72484 0.94085 0.9103 0.0
C1659 C 0.75807 0.96144 0.92921 0.0
C1660 C 0.74617 0.96154 0.95207 0.0
C1661 C 0.72481 0.94906 0.95442 0.0
C1662 C 0.71418 0.93892 0.93371 0.0
C1663 C 0.75293 0.97797 0.97225 0.0
C1664 C 0.7554 0.96895 0.99635 0.0
C1665 C 0.75187 0.00278 0.96869 0.0
C1666 C 0.74834 0.01343 0.9439 0.0
C1667 C 0.72673 0.01059 0.93132 0.0
C1668 C 0.72363 0.02041 0.90775 0.0
C1669 C 0.74194 0.03332 0.89673 0.0
C1670 C 0.76335 0.03648 0.9093 0.0
C1671 C 0.76655 0.02663 0.93286 0.0
H1672 H 0.73951 0.04091 0.87848 0.0
H1673 H 0.7515 0.94445 0.10748 0.0
H1674 H 0.05801 0.31943 0.92933 0.0
H1675 H 0.04827 0.30216 0.96934 0.0
H1676 H 0.02462 0.23822 0.93322 0.0
H1677 H 0.03467 0.25556 0.89272 0.0
H1678 H 0.99064 0.25779 0.96305 0.0
H1679 H 0.06885 0.23282 0.97419 0.0
H1680 H 0.11242 0.23423 0.97238 0.0
H1681 H 0.11289 0.29321 0.02253 0.0
H1682 H 0.06933 0.29246 0.02436 0.0
H1683 H 0.95176 0.26116 0.09235 0.0
H1684 H 0.97077 0.24317 0.05582 0.0
H1685 H 0.01019 0.30756 0.04373 0.0
H1686 H 0.9914 0.32554 0.07948 0.0
H1687 H 0.038 0.26592 0.04 0.0
H1688 H 0.96068 0.2984 0.01219 0.0
H1689 H 0.91699 0.29872 0.01265 0.0
H1690 H 0.91588 0.22496 0.99343 0.0
H1691 H 0.9596 0.2242 0.99313 0.0
C1692 C 0.05133 0.30145 0.92992 0.0
C1693 C 0.04694 0.28888 0.90798 0.0
C1694 C 0.04594 0.29149 0.95282 0.0
C1695 C 0.03588 0.26881 0.95429 0.0
C1696 C 0.03255 0.25567 0.93247 0.0
C1697 C 0.03834 0.26555 0.90942 0.0
C1698 C 0.0258 0.26101 0.97829 0.0
C1699 C 0.00111 0.25859 0.9799 0.0
C1700 C 0.03942 0.26195 0.00026 0.0
C1701 C 0.06573 0.26252 -0.00055 0.0
C1702 C 0.07821 0.24617 0.98476 0.0
C1703 C 0.10293 0.24685 0.98373 0.0
C1704 C 0.11541 0.26378 0.99735 0.0
C1705 C 0.1032 0.28006 0.01204 0.0
C1706 C 0.07848 0.27947 0.01313 0.0
C1707 C 0.9645 0.2714 0.08185 0.0
C1708 C 0.96995 0.29483 0.08871 0.0
C1709 C 0.97538 0.26108 0.06112 0.0
C1710 C 0.99203 0.274 0.04729 0.0
C1711 C 0.9976 0.2972 0.05434 0.0
C1712 C 0.98662 0.30754 0.07468 0.0
C1713 C 0.00296 0.26457 0.02444 0.0
C1714 C 0.02775 0.26374 0.02314 0.0
C1715 C 0.98949 0.26064 0.00276 0.0
C1716 C 0.96331 0.26116 0.00298 0.0
C1717 C 0.95109 0.28222 0.00827 0.0
C1718 C 0.92634 0.28249 0.00846 0.0
C1719 C 0.91367 0.26185 0.00317 0.0
C1720 C 0.92572 0.24091 0.9976 0.0
C1721 C 0.95047 0.24055 0.99742 0.0
H1722 H 0.89451 0.2621 0.00331 0.0
H1723 H 0.13455 0.26428 0.99652 0.0
H1724 H 0.31195 0.05701 0.94504 0.0
H1725 H 0.29457 0.03583 0.97988 0.0
H1726 H 0.23456 0.0166 0.93467 0.0
H1727 H 0.25195 0.03809 0.89951 0.0
H1728 H 0.25345 0.03391 0.0072 0.0
H1729 H 0.22674 0.95663 0.94687 0.0
H1730 H 0.23284 0.94083 0.90464 0.0
H1731 H 0.30274 0.97073 0.90306 0.0
H1732 H 0.29709 0.98644 0.94535 0.0
H1733 H 0.254 0.94493 0.09893 0.0
H1734 H 0.23524 0.96298 0.06251 0.0
H1735 H 0.29868 0.95035 0.01999 0.0
H1736 H 0.31727 0.93225 0.05593 0.0
H1737 H 0.26005 0.94776 0.99062 0.0
H1738 H 0.29274 0.00101 0.05494 0.0
H1739 H 0.29344 0.01712 0.09748 0.0
H1740 H 0.22011 0.03622 0.0912 0.0
H1741 H 0.21897 0.01997 0.04869 0.0
C1742 C 0.29472 0.04888 0.94272 0.0
C1743 C 0.28342 0.04892 0.91955 0.0
C1744 C 0.28471 0.0369 0.96268 0.0
C1745 C 0.26339 0.02446 0.95978 0.0
C1746 C 0.25106 0.02606 0.93723 0.0
C1747 C 0.26098 0.03837 0.91722 0.0
C1748 C 0.25672 0.00707 0.97908 0.0
C1749 C 0.25407 0.01503 0.00354 0.0
C1750 C 0.25769 0.98245 0.97432 0.0
C1751 C 0.26136 0.97293 0.94905 0.0
C1752 C 0.24339 0.95979 0.93747 0.0
C1753 C 0.24678 0.95085 0.91355 0.0
C1754 C 0.26813 0.95485 0.90114 0.0
C1755 C 0.28618 0.96771 0.91266 0.0
C1756 C 0.28289 0.97664 0.93658 0.0
C1757 C 0.2636 0.9453 0.08156 0.0
C1758 C 0.28726 0.93762 0.08036 0.0
C1759 C 0.25288 0.95564 0.0608 0.0
C1760 C 0.2657 0.95834 0.03866 0.0
C1761 C 0.28843 0.94849 0.03685 0.0
C1762 C 0.29913 0.9383 0.05751 0.0
C1763 C 0.25779 0.97466 0.01881 0.0
C1764 C 0.25779 0.96652 0.99424 0.0
C1765 C 0.25497 0.99916 0.02348 0.0
C1766 C 0.25569 0.00906 0.04886 0.0
C1767 C 0.27676 0.00856 0.06272 0.0
C1768 C 0.27724 0.0177 0.08679 0.0
C1769 C 0.25681 0.02762 0.09706 0.0
C1770 C 0.23589 0.02847 0.08324 0.0
C1771 C 0.23532 0.0193 0.05918 0.0
H1772 H 0.25721 0.0347 0.1157 0.0
H1773 H 0.27071 0.94794 0.88262 0.0
H1774 H 0.95528 0.68716 0.93752 0.0
H1775 H 0.97366 0.70548 0.97359 0.0
H1776 H 0.99587 0.76465 0.92866 0.0
H1777 H 0.97693 0.74643 0.89227 0.0
H1778 H 0.03285 0.74244 0.95418 0.0
H1779 H 0.9603 0.77784 0.97407 0.0
H1780 H 0.91707 0.78123 0.97907 0.0
H1781 H 0.91835 0.72749 0.03535 0.0
H1782 H 0.96152 0.72348 0.03045 0.0
H1783 H 0.04831 0.74488 0.10106 0.0
H1784 H 0.03531 0.76469 0.06287 0.0
H1785 H 0.05082 0.70135 0.02126 0.0
H1786 H 0.06347 0.68158 0.05911 0.0
H1787 H 0.99711 0.74835 0.03793 0.0
H1788 H 0.06401 0.71293 0.96343 0.0
H1789 H 0.10723 0.70955 0.95849 0.0
H1790 H 0.11761 0.76544 0.01129 0.0
H1791 H 0.07443 0.76946 0.0163 0.0
C1792 C 0.96358 0.70434 0.93542 0.0
C1793 C 0.96479 0.71535 0.91214 0.0
C1794 C 0.97396 0.71487 0.95607 0.0
C1795 C 0.98599 0.7365 0.95381 0.0
C1796 C 0.98649 0.74805 0.93077 0.0
C1797 C 0.97564 0.73767 0.91009 0.0
C1798 C 0.00042 0.74486 0.97496 0.0
C1799 C 0.02513 0.74428 0.97249 0.0
C1800 C 0.99026 0.74807 -0.00134 0.0
C1801 C 0.96423 0.7504 0.00189 0.0
C1802 C 0.95137 0.76666 0.98744 0.0
C1803 C 0.92686 0.76869 0.99026 0.0
C1804 C 0.91497 0.7546 0.00753 0.0
C1805 C 0.92759 0.73844 0.02202 0.0
C1806 C 0.9521 0.73632 0.01927 0.0
C1807 C 0.04967 0.73552 0.0836 0.0
C1808 C 0.05667 0.71164 0.083 0.0
C1809 C 0.0422 0.74683 0.06185 0.0
C1810 C 0.04221 0.73455 0.03922 0.0
C1811 C 0.051 0.71133 0.03841 0.0
C1812 C 0.05807 0.69995 0.0601 0.0
C1813 C 0.02943 0.74384 0.01729 0.0
C1814 C 0.00498 0.74763 0.01961 0.0
C1815 C 0.03986 0.74367 0.99346 0.0
C1816 C 0.0659 0.74151 0.99023 0.0
C1817 C 0.07547 0.72468 0.97383 0.0
C1818 C 0.09998 0.7226 0.97106 0.0
C1819 C 0.11515 0.73726 0.98457 0.0
C1820 C 0.10584 0.75406 0.00087 0.0
C1821 C 0.08134 0.75623 0.0037 0.0
H1822 H 0.13413 0.73561 0.98241 0.0
H1823 H 0.896 0.7562 0.00969 0.0
loop_
_geom_bond_atom_site_label_1
_geom_bond_atom_site_label_2
_geom_bond_distance
_geom_bond_site_symmetry_2
_ccdc_geom_bond_type
Zn0 O3 2.031 . S
Zn0 O5 2.049 . S
Zn0 O10 2.067 . S
Zn1 O2 1.962 . S
Zn1 O4 1.986 . S
Zn1 O6 1.996 . S
Zn1 O9 1.943 . S
O2 Zn1 1.962 . S
O2 C7 1.254 . S
O3 Zn0 2.031 . S
O3 C7 1.269 . S
O4 Zn1 1.986 . S
O4 C11 1.262 . S
O5 Zn0 2.049 . S
O5 C13 1.260 . S
O6 Zn1 1.996 . S
O6 C13 1.257 . S
C7 O2 1.254 . S
C7 O3 1.269 . S
C8 O9 1.249 . S
C8 O10 1.270 . S
O9 Zn1 1.943 . S
O9 C8 1.249 . S
O10 Zn0 2.067 . S
O10 C8 1.270 . S
C11 O4 1.262 . S
C11 O12 1.232 . S
O12 C11 1.232 . S
C13 O5 1.260 . S
C13 O6 1.257 . S
Zn14 O17 2.031 . S
Zn14 O19 2.049 . S
Zn14 O24 2.067 . S
Zn15 O16 1.962 . S
Zn15 O18 1.986 . S
Zn15 O20 1.996 . S
Zn15 O23 1.943 . S
O16 Zn15 1.962 . S
O16 C21 1.254 . S
O17 Zn14 2.031 . S
O17 C21 1.269 . S
O18 Zn15 1.986 . S
O18 C25 1.262 . S
O19 Zn14 2.049 . S
O19 C27 1.260 . S
O20 Zn15 1.996 . S
O20 C27 1.257 . S
C21 O16 1.254 . S
C21 O17 1.269 . S
C22 O23 1.249 . S
C22 O24 1.270 . S
O23 Zn15 1.943 . S
O23 C22 1.249 . S
O24 Zn14 2.067 . S
O24 C22 1.270 . S
C25 O18 1.262 . S
C25 O26 1.232 . S
O26 C25 1.232 . S
C27 O19 1.260 . S
C27 O20 1.257 . S
Zn28 O31 2.031 . S
Zn28 O33 2.049 . S
Zn28 O38 2.067 . S
Zn29 O30 1.962 . S
Zn29 O32 1.986 . S
Zn29 O34 1.996 . S
Zn29 O37 1.943 . S
O30 Zn29 1.962 . S
O30 C35 1.254 . S
O31 Zn28 2.031 . S
O31 C35 1.269 . S
O32 Zn29 1.986 . S
O32 C39 1.262 . S
O33 Zn28 2.049 . S
O33 C41 1.260 . S
O34 Zn29 1.996 . S
O34 C41 1.257 . S
C35 O30 1.254 . S
C35 O31 1.269 . S
C36 O37 1.249 . S
C36 O38 1.270 . S
O37 Zn29 1.943 . S
O37 C36 1.249 . S
O38 Zn28 2.067 . S
O38 C36 1.270 . S
C39 O32 1.262 . S
C39 O40 1.232 . S
O40 C39 1.232 . S
C41 O33 1.260 . S
C41 O34 1.257 . S
Zn42 O45 2.031 . S
Zn42 O47 2.049 . S
Zn42 O52 2.067 . S
Zn43 O44 1.962 . S
Zn43 O46 1.986 . S
Zn43 O48 1.996 . S
Zn43 O51 1.943 . S
O44 Zn43 1.962 . S
O44 C49 1.254 . S
O45 Zn42 2.031 . S
O45 C49 1.269 . S
O46 Zn43 1.986 . S
O46 C53 1.262 . S
O47 Zn42 2.049 . S
O47 C55 1.260 . S
O48 Zn43 1.996 . S
O48 C55 1.257 . S
C49 O44 1.254 . S
C49 O45 1.269 . S
C50 O51 1.249 . S
C50 O52 1.270 . S
O51 Zn43 1.943 . S
O51 C50 1.249 . S
O52 Zn42 2.067 . S
O52 C50 1.270 . S
C53 O46 1.262 . S
C53 O54 1.232 . S
O54 C53 1.232 . S
C55 O47 1.260 . S
C55 O48 1.257 . S
Zn56 O59 2.031 . S
Zn56 O61 2.049 . S
Zn56 O66 2.067 . S
Zn57 O58 1.962 . S
Zn57 O60 1.986 . S
Zn57 O62 1.996 . S
Zn57 O65 1.943 . S
O58 Zn57 1.962 . S
O58 C63 1.254 . S
O59 Zn56 2.031 . S
O59 C63 1.269 . S
O60 Zn57 1.986 . S
O60 C67 1.262 . S
O61 Zn56 2.049 . S
O61 C69 1.260 . S
O62 Zn57 1.996 . S
O62 C69 1.257 . S
C63 O58 1.254 . S
C63 O59 1.269 . S
C64 O65 1.249 . S
C64 O66 1.270 . S
O65 Zn57 1.943 . S
O65 C64 1.249 . S
O66 Zn56 2.067 . S
O66 C64 1.270 . S
C67 O60 1.262 . S
C67 O68 1.232 . S
O68 C67 1.232 . S
C69 O61 1.260 . S
C69 O62 1.257 . S
Zn70 O73 2.031 . S
Zn70 O75 2.049 . S
Zn70 O80 2.067 . S
Zn71 O72 1.962 . S
Zn71 O74 1.986 . S
Zn71 O76 1.996 . S
Zn71 O79 1.943 . S
O72 Zn71 1.962 . S
O72 C77 1.254 . S
O73 Zn70 2.031 . S
O73 C77 1.269 . S
O74 Zn71 1.986 . S
O74 C81 1.262 . S
O75 Zn70 2.049 . S
O75 C83 1.260 . S
O76 Zn71 1.996 . S
O76 C83 1.257 . S
C77 O72 1.254 . S
C77 O73 1.269 . S
C78 O79 1.249 . S
C78 O80 1.270 . S
O79 Zn71 1.943 . S
O79 C78 1.249 . S
O80 Zn70 2.067 . S
O80 C78 1.270 . S
C81 O74 1.262 . S
C81 O82 1.232 . S
O82 C81 1.232 . S
C83 O75 1.260 . S
C83 O76 1.257 . S
Zn84 O87 2.031 . S
Zn84 O89 2.049 . S
Zn84 O94 2.067 . S
Zn85 O86 1.962 . S
Zn85 O88 1.986 . S
Zn85 O90 1.996 . S
Zn85 O93 1.943 . S
O86 Zn85 1.962 . S
O86 C91 1.254 . S
O87 Zn84 2.031 . S
O87 C91 1.269 . S
O88 Zn85 1.986 . S
O88 C95 1.262 . S
O89 Zn84 2.049 . S
O89 C97 1.260 . S
O90 Zn85 1.996 . S
O90 C97 1.257 . S
C91 O86 1.254 . S
C91 O87 1.269 . S
C92 O93 1.249 . S
C92 O94 1.270 . S
O93 Zn85 1.943 . S
O93 C92 1.249 . S
O94 Zn84 2.067 . S
O94 C92 1.270 . S
C95 O88 1.262 . S
C95 O96 1.232 . S
O96 C95 1.232 . S
C97 O89 1.260 . S
C97 O90 1.257 . S
Zn98 O101 2.031 . S
Zn98 O103 2.049 . S
Zn98 O108 2.067 . S
Zn99 O100 1.962 . S
Zn99 O102 1.986 . S
Zn99 O104 1.996 . S
Zn99 O107 1.943 . S
O100 Zn99 1.962 . S
O100 C105 1.254 . S
O101 Zn98 2.031 . S
O101 C105 1.269 . S
O102 Zn99 1.986 . S
O102 C109 1.262 . S
O103 Zn98 2.049 . S
O103 C111 1.260 . S
O104 Zn99 1.996 . S
O104 C111 1.257 . S
C105 O100 1.254 . S
C105 O101 1.269 . S
C106 O107 1.249 . S
C106 O108 1.270 . S
O107 Zn99 1.943 . S
O107 C106 1.249 . S
O108 Zn98 2.067 . S
O108 C106 1.270 . S
C109 O102 1.262 . S
C109 O110 1.232 . S
O110 C109 1.232 . S
C111 O103 1.260 . S
C111 O104 1.257 . S
Zn112 O115 2.031 . S
Zn112 O117 2.049 . S
Zn112 O122 2.067 . S
Zn113 O114 1.962 . S
Zn113 O116 1.986 . S
Zn113 O118 1.996 . S
Zn113 O121 1.943 . S
O114 Zn113 1.962 . S
O114 C119 1.254 . S
O115 Zn112 2.031 . S
O115 C119 1.269 . S
O116 Zn113 1.986 . S
O116 C123 1.262 . S
O117 Zn112 2.049 . S
O117 C125 1.260 . S
O118 Zn113 1.996 . S
O118 C125 1.257 . S
C119 O114 1.254 . S
C119 O115 1.269 . S
C120 O121 1.249 . S
C120 O122 1.270 . S
O121 Zn113 1.943 . S
O121 C120 1.249 . S
O122 Zn112 2.067 . S
O122 C120 1.270 . S
C123 O116 1.262 . S
C123 O124 1.232 . S
O124 C123 1.232 . S
C125 O117 1.260 . S
C125 O118 1.257 . S
Zn126 O129 2.031 . S
Zn126 O131 2.049 . S
Zn126 O136 2.067 . S
Zn127 O128 1.962 . S
Zn127 O130 1.986 . S
Zn127 O132 1.996 . S
Zn127 O135 1.943 . S
O128 Zn127 1.962 . S
O128 C133 1.254 . S
O129 Zn126 2.031 . S
O129 C133 1.269 . S
O130 Zn127 1.986 . S
O130 C137 1.262 . S
O131 Zn126 2.049 . S
O131 C139 1.260 . S
O132 Zn127 1.996 . S
O132 C139 1.257 . S
C133 O128 1.254 . S
C133 O129 1.269 . S
C134 O135 1.249 . S
C134 O136 1.270 . S
O135 Zn127 1.943 . S
O135 C134 1.249 . S
O136 Zn126 2.067 . S
O136 C134 1.270 . S
C137 O130 1.262 . S
C137 O138 1.232 . S
O138 C137 1.232 . S
C139 O131 1.260 . S
C139 O132 1.257 . S
Zn140 O143 2.031 . S
Zn140 O145 2.049 . S
Zn140 O150 2.067 . S
Zn141 O142 1.962 . S
Zn141 O144 1.986 . S
Zn141 O146 1.996 . S
Zn141 O149 1.943 . S
O142 Zn141 1.962 . S
O142 C147 1.254 . S
O143 Zn140 2.031 . S
O143 C147 1.269 . S
O144 Zn141 1.986 . S
O144 C151 1.262 . S
O145 Zn140 2.049 . S
O145 C153 1.260 . S
O146 Zn141 1.996 . S
O146 C153 1.257 . S
C147 O142 1.254 . S
C147 O143 1.269 . S
C148 O149 1.249 . S
C148 O150 1.270 . S
O149 Zn141 1.943 . S
O149 C148 1.249 . S
O150 Zn140 2.067 . S
O150 C148 1.270 . S
C151 O144 1.262 . S
C151 O152 1.232 . S
O152 C151 1.232 . S
C153 O145 1.260 . S
C153 O146 1.257 . S
Zn154 O157 2.031 . S
Zn154 O159 2.049 . S
Zn154 O164 2.067 . S
Zn155 O156 1.962 . S
Zn155 O158 1.986 . S
Zn155 O160 1.996 . S
Zn155 O163 1.943 . S
O156 Zn155 1.962 . S
O156 C161 1.254 . S
O157 Zn154 2.031 . S
O157 C161 1.269 . S
O158 Zn155 1.986 . S
O158 C165 1.262 . S
O159 Zn154 2.049 . S
O159 C167 1.260 . S
O160 Zn155 1.996 . S
O160 C167 1.257 . S
C161 O156 1.254 . S
C161 O157 1.269 . S
C162 O163 1.249 . S
C162 O164 1.270 . S
O163 Zn155 1.943 . S
O163 C162 1.249 . S
O164 Zn154 2.067 . S
O164 C162 1.270 . S
C165 O158 1.262 . S
C165 O166 1.232 . S
O166 C165 1.232 . S
C167 O159 1.260 . S
C167 O160 1.257 . S
Zn168 O171 2.031 . S
Zn168 O173 2.049 . S
Zn168 O178 2.067 . S
Zn169 O170 1.962 . S
Zn169 O172 1.986 . S
Zn169 O174 1.996 . S
Zn169 O177 1.943 . S
O170 Zn169 1.962 . S
O170 C175 1.254 . S
O171 Zn168 2.031 . S
O171 C175 1.269 . S
O172 Zn169 1.986 . S
O172 C179 1.262 . S
O173 Zn168 2.049 . S
O173 C181 1.260 . S
O174 Zn169 1.996 . S
O174 C181 1.257 . S
C175 O170 1.254 . S
C175 O171 1.269 . S
C176 O177 1.249 . S
C176 O178 1.270 . S
O177 Zn169 1.943 . S
O177 C176 1.249 . S
O178 Zn168 2.067 . S
O178 C176 1.270 . S
C179 O172 1.262 . S
C179 O180 1.232 . S
O180 C179 1.232 . S
C181 O173 1.260 . S
C181 O174 1.257 . S
Zn182 O185 2.031 . S
Zn182 O187 2.049 . S
Zn182 O192 2.067 . S
Zn183 O184 1.962 . S
Zn183 O186 1.986 . S
Zn183 O188 1.996 . S
Zn183 O191 1.943 . S
O184 Zn183 1.962 . S
O184 C189 1.254 . S
O185 Zn182 2.031 . S
O185 C189 1.269 . S
O186 Zn183 1.986 . S
O186 C193 1.262 . S
O187 Zn182 2.049 . S
O187 C195 1.260 . S
O188 Zn183 1.996 . S
O188 C195 1.257 . S
C189 O184 1.254 . S
C189 O185 1.269 . S
C190 O191 1.249 . S
C190 O192 1.270 . S
O191 Zn183 1.943 . S
O191 C190 1.249 . S
O192 Zn182 2.067 . S
O192 C190 1.270 . S
C193 O186 1.262 . S
C193 O194 1.232 . S
O194 C193 1.232 . S
C195 O187 1.260 . S
C195 O188 1.257 . S
Zn196 O199 2.031 . S
Zn196 O201 2.049 . S
Zn196 O206 2.067 . S
Zn197 O198 1.962 . S
Zn197 O200 1.986 . S
Zn197 O202 1.996 . S
Zn197 O205 1.943 . S
O198 Zn197 1.962 . S
O198 C203 1.254 . S
O199 Zn196 2.031 . S
O199 C203 1.269 . S
O200 Zn197 1.986 . S
O200 C207 1.262 . S
O201 Zn196 2.049 . S
O201 C209 1.260 . S
O202 Zn197 1.996 . S
O202 C209 1.257 . S
C203 O198 1.254 . S
C203 O199 1.269 . S
C204 O205 1.249 . S
C204 O206 1.270 . S
O205 Zn197 1.943 . S
O205 C204 1.249 . S
O206 Zn196 2.067 . S
O206 C204 1.270 . S
C207 O200 1.262 . S
C207 O208 1.232 . S
O208 C207 1.232 . S
C209 O201 1.260 . S
C209 O202 1.257 . S
Zn210 O213 2.031 . S
Zn210 O215 2.049 . S
Zn210 O220 2.067 . S
Zn211 O212 1.962 . S
Zn211 O214 1.986 . S
Zn211 O216 1.996 . S
Zn211 O219 1.943 . S
O212 Zn211 1.962 . S
O212 C217 1.254 . S
O213 Zn210 2.031 . S
O213 C217 1.269 . S
O214 Zn211 1.986 . S
O214 C221 1.262 . S
O215 Zn210 2.049 . S
O215 C223 1.260 . S
O216 Zn211 1.996 . S
O216 C223 1.257 . S
C217 O212 1.254 . S
C217 O213 1.269 . S
C218 O219 1.249 . S
C218 O220 1.270 . S
O219 Zn211 1.943 . S
O219 C218 1.249 . S
O220 Zn210 2.067 . S
O220 C218 1.270 . S
C221 O214 1.262 . S
C221 O222 1.232 . S
O222 C221 1.232 . S
C223 O215 1.260 . S
C223 O216 1.257 . S
H224 C242 0.951 . S
H225 C244 0.951 . S
H226 C246 0.950 . S
H227 C247 0.950 . S
H228 C249 0.950 . S
H229 C252 0.950 . S
H230 C253 0.950 . S
H231 C255 0.950 . S
H232 C256 0.950 . S
H233 C257 0.951 . S
H234 C259 0.951 . S
H235 C261 0.950 . S
H236 C262 0.950 . S
H237 C264 0.950 . S
H238 C267 0.950 . S
H239 C268 0.950 . S
H240 C270 0.950 . S
H241 C271 0.950 . S
C242 H224 0.951 . S
C242 C243 1.366 . S
C242 C244 1.388 . S
C243 C242 1.366 . S
C243 C247 1.385 . S
C244 H225 0.951 . S
C244 C242 1.388 . S
C244 C245 1.366 . S
C245 C244 1.366 . S
C245 C246 1.414 . S
C245 C248 1.499 . S
C246 H226 0.950 . S
C246 C245 1.414 . S
C246 C247 1.374 . S
C247 H227 0.950 . S
C247 C243 1.385 . S
C247 C246 1.374 . S
C248 C245 1.499 . S
C248 C249 1.373 . S
C248 C250 1.389 . S
C249 H228 0.950 . S
C249 C248 1.373 . S
C249 C265 1.377 . S
C250 C248 1.389 . S
C250 C251 1.524 . S
C250 C264 1.377 . S
C251 C250 1.524 . S
C251 C252 1.397 . S
C251 C256 1.363 . S
C252 H229 0.950 . S
C252 C251 1.397 . S
C252 C253 1.334 . S
C253 H230 0.950 . S
C253 C252 1.334 . S
C253 C254 1.287 . S
C254 C253 1.287 . S
C254 C255 1.524 . S
C254 H273 0.913 . S
C255 H231 0.950 . S
C255 C254 1.524 . S
C255 C256 1.415 . S
C256 H232 0.950 . S
C256 C251 1.363 . S
C256 C255 1.415 . S
C257 H233 0.951 . S
C257 C258 1.366 . S
C257 C259 1.388 . S
C258 C257 1.366 . S
C258 C262 1.385 . S
C259 H234 0.951 . S
C259 C257 1.388 . S
C259 C260 1.366 . S
C260 C259 1.366 . S
C260 C261 1.414 . S
C260 C263 1.499 . S
C261 H235 0.950 . S
C261 C260 1.414 . S
C261 C262 1.374 . S
C262 H236 0.950 . S
C262 C258 1.385 . S
C262 C261 1.374 . S
C263 C260 1.499 . S
C263 C264 1.373 . S
C263 C265 1.389 . S
C264 H237 0.950 . S
C264 C250 1.377 . S
C264 C263 1.373 . S
C265 C249 1.377 . S
C265 C263 1.389 . S
C265 C266 1.524 . S
C266 C265 1.524 . S
C266 C267 1.397 . S
C266 C271 1.363 . S
C267 H238 0.950 . S
C267 C266 1.397 . S
C267 C268 1.334 . S
C268 H239 0.950 . S
C268 C267 1.334 . S
C268 C269 1.287 . S
C269 C268 1.287 . S
C269 C270 1.524 . S
C269 H272 0.999 . S
C270 H240 0.950 . S
C270 C269 1.524 . S
C270 C271 1.415 . S
C271 H241 0.950 . S
C271 C266 1.363 . S
C271 C270 1.415 . S
H272 C269 0.999 . S
H273 C254 0.913 . S
H274 C292 0.951 . S
H275 C294 0.951 . S
H276 C296 0.950 . S
H277 C297 0.950 . S
H278 C299 0.950 . S
H279 C302 0.950 . S
H280 C303 0.950 . S
H281 C305 0.950 . S
H282 C306 0.950 . S
H283 C307 0.951 . S
H284 C309 0.951 . S
H285 C311 0.950 . S
H286 C312 0.950 . S
H287 C314 0.950 . S
H288 C317 0.950 . S
H289 C318 0.950 . S
H290 C320 0.950 . S
H291 C321 0.950 . S
C292 H274 0.951 . S
C292 C293 1.366 . S
C292 C294 1.388 . S
C293 C292 1.366 . S
C293 C297 1.385 . S
C294 H275 0.951 . S
C294 C292 1.388 . S
C294 C295 1.366 . S
C295 C294 1.366 . S
C295 C296 1.414 . S
C295 C298 1.499 . S
C296 H276 0.950 . S
C296 C295 1.414 . S
C296 C297 1.374 . S
C297 H277 0.950 . S
C297 C293 1.385 . S
C297 C296 1.374 . S
C298 C295 1.499 . S
C298 C299 1.373 . S
C298 C300 1.389 . S
C299 H278 0.950 . S
C299 C298 1.373 . S
C299 C315 1.377 . S
C300 C298 1.389 . S
C300 C301 1.524 . S
C300 C314 1.377 . S
C301 C300 1.524 . S
C301 C302 1.397 . S
C301 C306 1.363 . S
C302 H279 0.950 . S
C302 C301 1.397 . S
C302 C303 1.334 . S
C303 H280 0.950 . S
C303 C302 1.334 . S
C303 C304 1.287 . S
C304 C303 1.287 . S
C304 C305 1.524 . S
C304 H323 0.913 . S
C305 H281 0.950 . S
C305 C304 1.524 . S
C305 C306 1.415 . S
C306 H282 0.950 . S
C306 C301 1.363 . S
C306 C305 1.415 . S
C307 H283 0.951 . S
C307 C308 1.366 . S
C307 C309 1.388 . S
C308 C307 1.366 . S
C308 C312 1.385 . S
C309 H284 0.951 . S
C309 C307 1.388 . S
C309 C310 1.366 . S
C310 C309 1.366 . S
C310 C311 1.414 . S
C310 C313 1.499 . S
C311 H285 0.950 . S
C311 C310 1.414 . S
C311 C312 1.374 . S
C312 H286 0.950 . S
C312 C308 1.385 . S
C312 C311 1.374 . S
C313 C310 1.499 . S
C313 C314 1.373 . S
C313 C315 1.389 . S
C314 H287 0.950 . S
C314 C300 1.377 . S
C314 C313 1.373 . S
C315 C299 1.377 . S
C315 C313 1.389 . S
C315 C316 1.524 . S
C316 C315 1.524 . S
C316 C317 1.397 . S
C316 C321 1.363 . S
C317 H288 0.950 . S
C317 C316 1.397 . S
C317 C318 1.334 . S
C318 H289 0.950 . S
C318 C317 1.334 . S
C318 C319 1.287 . S
C319 C318 1.287 . S
C319 C320 1.524 . S
C319 H322 0.999 . S
C320 H290 0.950 . S
C320 C319 1.524 . S
C320 C321 1.415 . S
C321 H291 0.950 . S
C321 C316 1.363 . S
C321 C320 1.415 . S
H322 C319 0.999 . S
H323 C304 0.913 . S
H324 C342 0.951 . S
H325 C344 0.951 . S
H326 C346 0.950 . S
H327 C347 0.950 . S
H328 C349 0.950 . S
H329 C352 0.950 . S
H330 C353 0.950 . S
H331 C355 0.950 . S
H332 C356 0.950 . S
H333 C357 0.951 . S
H334 C359 0.951 . S
H335 C361 0.950 . S
H336 C362 0.950 . S
H337 C364 0.950 . S
H338 C367 0.950 . S
H339 C368 0.950 . S
H340 C370 0.950 . S
H341 C371 0.950 . S
C342 H324 0.951 . S
C342 C343 1.366 . S
C342 C344 1.388 . S
C343 C342 1.366 . S
C343 C347 1.385 . S
C344 H325 0.951 . S
C344 C342 1.388 . S
C344 C345 1.366 . S
C345 C344 1.366 . S
C345 C346 1.414 . S
C345 C348 1.499 . S
C346 H326 0.950 . S
C346 C345 1.414 . S
C346 C347 1.374 . S
C347 H327 0.950 . S
C347 C343 1.385 . S
C347 C346 1.374 . S
C348 C345 1.499 . S
C348 C349 1.373 . S
C348 C350 1.389 . S
C349 H328 0.950 . S
C349 C348 1.373 . S
C349 C365 1.377 . S
C350 C348 1.389 . S
C350 C351 1.524 . S
C350 C364 1.377 . S
C351 C350 1.524 . S
C351 C352 1.397 . S
C351 C356 1.363 . S
C352 H329 0.950 . S
C352 C351 1.397 . S
C352 C353 1.334 . S
C353 H330 0.950 . S
C353 C352 1.334 . S
C353 C354 1.287 . S
C354 C353 1.287 . S
C354 C355 1.524 . S
C354 H373 0.913 . S
C355 H331 0.950 . S
C355 C354 1.524 . S
C355 C356 1.415 . S
C356 H332 0.950 . S
C356 C351 1.363 . S
C356 C355 1.415 . S
C357 H333 0.951 . S
C357 C358 1.366 . S
C357 C359 1.388 . S
C358 C357 1.366 . S
C358 C362 1.385 . S
C359 H334 0.951 . S
C359 C357 1.388 . S
C359 C360 1.366 . S
C360 C359 1.366 . S
C360 C361 1.414 . S
C360 C363 1.499 . S
C361 H335 0.950 . S
C361 C360 1.414 . S
C361 C362 1.374 . S
C362 H336 0.950 . S
C362 C358 1.385 . S
C362 C361 1.374 . S
C363 C360 1.499 . S
C363 C364 1.373 . S
C363 C365 1.389 . S
C364 H337 0.950 . S
C364 C350 1.377 . S
C364 C363 1.373 . S
C365 C349 1.377 . S
C365 C363 1.389 . S
C365 C366 1.524 . S
C366 C365 1.524 . S
C366 C367 1.397 . S
C366 C371 1.363 . S
C367 H338 0.950 . S
C367 C366 1.397 . S
C367 C368 1.334 . S
C368 H339 0.950 . S
C368 C367 1.334 . S
C368 C369 1.287 . S
C369 C368 1.287 . S
C369 C370 1.524 . S
C369 H372 0.999 . S
C370 H340 0.950 . S
C370 C369 1.524 . S
C370 C371 1.415 . S
C371 H341 0.950 . S
C371 C366 1.363 . S
C371 C370 1.415 . S
H372 C369 0.999 . S
H373 C354 0.913 . S
H374 C392 0.951 . S
H375 C394 0.951 . S
H376 C396 0.950 . S
H377 C397 0.950 . S
H378 C399 0.950 . S
H379 C402 0.950 . S
H380 C403 0.950 . S
H381 C405 0.950 . S
H382 C406 0.950 . S
H383 C407 0.951 . S
H384 C409 0.951 . S
H385 C411 0.950 . S
H386 C412 0.950 . S
H387 C414 0.950 . S
H388 C417 0.950 . S
H389 C418 0.950 . S
H390 C420 0.950 . S
H391 C421 0.950 . S
C392 H374 0.951 . S
C392 C393 1.366 . S
C392 C394 1.388 . S
C393 C392 1.366 . S
C393 C397 1.385 . S
C394 H375 0.951 . S
C394 C392 1.388 . S
C394 C395 1.366 . S
C395 C394 1.366 . S
C395 C396 1.414 . S
C395 C398 1.499 . S
C396 H376 0.950 . S
C396 C395 1.414 . S
C396 C397 1.374 . S
C397 H377 0.950 . S
C397 C393 1.385 . S
C397 C396 1.374 . S
C398 C395 1.499 . S
C398 C399 1.373 . S
C398 C400 1.389 . S
C399 H378 0.950 . S
C399 C398 1.373 . S
C399 C415 1.377 . S
C400 C398 1.389 . S
C400 C401 1.524 . S
C400 C414 1.377 . S
C401 C400 1.524 . S
C401 C402 1.397 . S
C401 C406 1.363 . S
C402 H379 0.950 . S
C402 C401 1.397 . S
C402 C403 1.334 . S
C403 H380 0.950 . S
C403 C402 1.334 . S
C403 C404 1.287 . S
C404 C403 1.287 . S
C404 C405 1.524 . S
C404 H423 0.913 . S
C405 H381 0.950 . S
C405 C404 1.524 . S
C405 C406 1.415 . S
C406 H382 0.950 . S
C406 C401 1.363 . S
C406 C405 1.415 . S
C407 H383 0.951 . S
C407 C408 1.366 . S
C407 C409 1.388 . S
C408 C407 1.366 . S
C408 C412 1.385 . S
C409 H384 0.951 . S
C409 C407 1.388 . S
C409 C410 1.366 . S
C410 C409 1.366 . S
C410 C411 1.414 . S
C410 C413 1.499 . S
C411 H385 0.950 . S
C411 C410 1.414 . S
C411 C412 1.374 . S
C412 H386 0.950 . S
C412 C408 1.385 . S
C412 C411 1.374 . S
C413 C410 1.499 . S
C413 C414 1.373 . S
C413 C415 1.389 . S
C414 H387 0.950 . S
C414 C400 1.377 . S
C414 C413 1.373 . S
C415 C399 1.377 . S
C415 C413 1.389 . S
C415 C416 1.524 . S
C416 C415 1.524 . S
C416 C417 1.397 . S
C416 C421 1.363 . S
C417 H388 0.950 . S
C417 C416 1.397 . S
C417 C418 1.334 . S
C418 H389 0.950 . S
C418 C417 1.334 . S
C418 C419 1.287 . S
C419 C418 1.287 . S
C419 C420 1.524 . S
C419 H422 0.999 . S
C420 H390 0.950 . S
C420 C419 1.524 . S
C420 C421 1.415 . S
C421 H391 0.950 . S
C421 C416 1.363 . S
C421 C420 1.415 . S
H422 C419 0.999 . S
H423 C404 0.913 . S
H424 C442 0.951 . S
H425 C444 0.951 . S
H426 C446 0.950 . S
H427 C447 0.950 . S
H428 C449 0.950 . S
H429 C452 0.950 . S
H430 C453 0.950 . S
H431 C455 0.950 . S
H432 C456 0.950 . S
H433 C457 0.951 . S
H434 C459 0.951 . S
H435 C461 0.950 . S
H436 C462 0.950 . S
H437 C464 0.950 . S
H438 C467 0.950 . S
H439 C468 0.950 . S
H440 C470 0.950 . S
H441 C471 0.950 . S
C442 H424 0.951 . S
C442 C443 1.366 . S
C442 C444 1.388 . S
C443 C442 1.366 . S
C443 C447 1.385 . S
C444 H425 0.951 . S
C444 C442 1.388 . S
C444 C445 1.366 . S
C445 C444 1.366 . S
C445 C446 1.414 . S
C445 C448 1.499 . S
C446 H426 0.950 . S
C446 C445 1.414 . S
C446 C447 1.374 . S
C447 H427 0.950 . S
C447 C443 1.385 . S
C447 C446 1.374 . S
C448 C445 1.499 . S
C448 C449 1.373 . S
C448 C450 1.389 . S
C449 H428 0.950 . S
C449 C448 1.373 . S
C449 C465 1.377 . S
C450 C448 1.389 . S
C450 C451 1.524 . S
C450 C464 1.377 . S
C451 C450 1.524 . S
C451 C452 1.397 . S
C451 C456 1.363 . S
C452 H429 0.950 . S
C452 C451 1.397 . S
C452 C453 1.334 . S
C453 H430 0.950 . S
C453 C452 1.334 . S
C453 C454 1.287 . S
C454 C453 1.287 . S
C454 C455 1.524 . S
C454 H473 0.913 . S
C455 H431 0.950 . S
C455 C454 1.524 . S
C455 C456 1.415 . S
C456 H432 0.950 . S
C456 C451 1.363 . S
C456 C455 1.415 . S
C457 H433 0.951 . S
C457 C458 1.366 . S
C457 C459 1.388 . S
C458 C457 1.366 . S
C458 C462 1.385 . S
C459 H434 0.951 . S
C459 C457 1.388 . S
C459 C460 1.366 . S
C460 C459 1.366 . S
C460 C461 1.414 . S
C460 C463 1.499 . S
C461 H435 0.950 . S
C461 C460 1.414 . S
C461 C462 1.374 . S
C462 H436 0.950 . S
C462 C458 1.385 . S
C462 C461 1.374 . S
C463 C460 1.499 . S
C463 C464 1.373 . S
C463 C465 1.389 . S
C464 H437 0.950 . S
C464 C450 1.377 . S
C464 C463 1.373 . S
C465 C449 1.377 . S
C465 C463 1.389 . S
C465 C466 1.524 . S
C466 C465 1.524 . S
C466 C467 1.397 . S
C466 C471 1.363 . S
C467 H438 0.950 . S
C467 C466 1.397 . S
C467 C468 1.334 . S
C468 H439 0.950 . S
C468 C467 1.334 . S
C468 C469 1.287 . S
C469 C468 1.287 . S
C469 C470 1.524 . S
C469 H472 0.999 . S
C470 H440 0.950 . S
C470 C469 1.524 . S
C470 C471 1.415 . S
C471 H441 0.950 . S
C471 C466 1.363 . S
C471 C470 1.415 . S
H472 C469 0.999 . S
H473 C454 0.913 . S
H474 C492 0.951 . S
H475 C494 0.951 . S
H476 C496 0.950 . S
H477 C497 0.950 . S
H478 C499 0.950 . S
H479 C502 0.950 . S
H480 C503 0.950 . S
H481 C505 0.950 . S
H482 C506 0.950 . S
H483 C507 0.951 . S
H484 C509 0.951 . S
H485 C511 0.950 . S
H486 C512 0.950 . S
H487 C514 0.950 . S
H488 C517 0.950 . S
H489 C518 0.950 . S
H490 C520 0.950 . S
H491 C521 0.950 . S
C492 H474 0.951 . S
C492 C493 1.366 . S
C492 C494 1.388 . S
C493 C492 1.366 . S
C493 C497 1.385 . S
C494 H475 0.951 . S
C494 C492 1.388 . S
C494 C495 1.366 . S
C495 C494 1.366 . S
C495 C496 1.414 . S
C495 C498 1.499 . S
C496 H476 0.950 . S
C496 C495 1.414 . S
C496 C497 1.374 . S
C497 H477 0.950 . S
C497 C493 1.385 . S
C497 C496 1.374 . S
C498 C495 1.499 . S
C498 C499 1.373 . S
C498 C500 1.389 . S
C499 H478 0.950 . S
C499 C498 1.373 . S
C499 C515 1.377 . S
C500 C498 1.389 . S
C500 C501 1.524 . S
C500 C514 1.377 . S
C501 C500 1.524 . S
C501 C502 1.397 . S
C501 C506 1.363 . S
C502 H479 0.950 . S
C502 C501 1.397 . S
C502 C503 1.334 . S
C503 H480 0.950 . S
C503 C502 1.334 . S
C503 C504 1.287 . S
C504 C503 1.287 . S
C504 C505 1.524 . S
C504 H523 0.913 . S
C505 H481 0.950 . S
C505 C504 1.524 . S
C505 C506 1.415 . S
C506 H482 0.950 . S
C506 C501 1.363 . S
C506 C505 1.415 . S
C507 H483 0.951 . S
C507 C508 1.366 . S
C507 C509 1.388 . S
C508 C507 1.366 . S
C508 C512 1.385 . S
C509 H484 0.951 . S
C509 C507 1.388 . S
C509 C510 1.366 . S
C510 C509 1.366 . S
C510 C511 1.414 . S
C510 C513 1.499 . S
C511 H485 0.950 . S
C511 C510 1.414 . S
C511 C512 1.374 . S
C512 H486 0.950 . S
C512 C508 1.385 . S
C512 C511 1.374 . S
C513 C510 1.499 . S
C513 C514 1.373 . S
C513 C515 1.389 . S
C514 H487 0.950 . S
C514 C500 1.377 . S
C514 C513 1.373 . S
C515 C499 1.377 . S
C515 C513 1.389 . S
C515 C516 1.524 . S
C516 C515 1.524 . S
C516 C517 1.397 . S
C516 C521 1.363 . S
C517 H488 0.950 . S
C517 C516 1.397 . S
C517 C518 1.334 . S
C518 H489 0.950 . S
C518 C517 1.334 . S
C518 C519 1.287 . S
C519 C518 1.287 . S
C519 C520 1.524 . S
C519 H522 0.999 . S
C520 H490 0.950 . S
C520 C519 1.524 . S
C520 C521 1.415 . S
C521 H491 0.950 . S
C521 C516 1.363 . S
C521 C520 1.415 . S
H522 C519 0.999 . S
H523 C504 0.913 . S
H524 C542 0.951 . S
H525 C544 0.951 . S
H526 C546 0.950 . S
H527 C547 0.950 . S
H528 C549 0.950 . S
H529 C552 0.950 . S
H530 C553 0.950 . S
H531 C555 0.950 . S
H532 C556 0.950 . S
H533 C557 0.951 . S
H534 C559 0.951 . S
H535 C561 0.950 . S
H536 C562 0.950 . S
H537 C564 0.950 . S
H538 C567 0.950 . S
H539 C568 0.950 . S
H540 C570 0.950 . S
H541 C571 0.950 . S
C542 H524 0.951 . S
C542 C543 1.366 . S
C542 C544 1.388 . S
C543 C542 1.366 . S
C543 C547 1.385 . S
C544 H525 0.951 . S
C544 C542 1.388 . S
C544 C545 1.366 . S
C545 C544 1.366 . S
C545 C546 1.414 . S
C545 C548 1.499 . S
C546 H526 0.950 . S
C546 C545 1.414 . S
C546 C547 1.374 . S
C547 H527 0.950 . S
C547 C543 1.385 . S
C547 C546 1.374 . S
C548 C545 1.499 . S
C548 C549 1.373 . S
C548 C550 1.389 . S
C549 H528 0.950 . S
C549 C548 1.373 . S
C549 C565 1.377 . S
C550 C548 1.389 . S
C550 C551 1.524 . S
C550 C564 1.377 . S
C551 C550 1.524 . S
C551 C552 1.397 . S
C551 C556 1.363 . S
C552 H529 0.950 . S
C552 C551 1.397 . S
C552 C553 1.334 . S
C553 H530 0.950 . S
C553 C552 1.334 . S
C553 C554 1.287 . S
C554 C553 1.287 . S
C554 C555 1.524 . S
C554 H573 0.913 . S
C555 H531 0.950 . S
C555 C554 1.524 . S
C555 C556 1.415 . S
C556 H532 0.950 . S
C556 C551 1.363 . S
C556 C555 1.415 . S
C557 H533 0.951 . S
C557 C558 1.366 . S
C557 C559 1.388 . S
C558 C557 1.366 . S
C558 C562 1.385 . S
C559 H534 0.951 . S
C559 C557 1.388 . S
C559 C560 1.366 . S
C560 C559 1.366 . S
C560 C561 1.414 . S
C560 C563 1.499 . S
C561 H535 0.950 . S
C561 C560 1.414 . S
C561 C562 1.374 . S
C562 H536 0.950 . S
C562 C558 1.385 . S
C562 C561 1.374 . S
C563 C560 1.499 . S
C563 C564 1.373 . S
C563 C565 1.389 . S
C564 H537 0.950 . S
C564 C550 1.377 . S
C564 C563 1.373 . S
C565 C549 1.377 . S
C565 C563 1.389 . S
C565 C566 1.524 . S
C566 C565 1.524 . S
C566 C567 1.397 . S
C566 C571 1.363 . S
C567 H538 0.950 . S
C567 C566 1.397 . S
C567 C568 1.334 . S
C568 H539 0.950 . S
C568 C567 1.334 . S
C568 C569 1.287 . S
C569 C568 1.287 . S
C569 C570 1.524 . S
C569 H572 0.999 . S
C570 H540 0.950 . S
C570 C569 1.524 . S
C570 C571 1.415 . S
C571 H541 0.950 . S
C571 C566 1.363 . S
C571 C570 1.415 . S
H572 C569 0.999 . S
H573 C554 0.913 . S
H574 C592 0.951 . S
H575 C594 0.951 . S
H576 C596 0.950 . S
H577 C597 0.950 . S
H578 C599 0.950 . S
H579 C602 0.950 . S
H580 C603 0.950 . S
H581 C605 0.950 . S
H582 C606 0.950 . S
H583 C607 0.951 . S
H584 C609 0.951 . S
H585 C611 0.950 . S
H586 C612 0.950 . S
H587 C614 0.950 . S
H588 C617 0.950 . S
H589 C618 0.950 . S
H590 C620 0.950 . S
H591 C621 0.950 . S
C592 H574 0.951 . S
C592 C593 1.366 . S
C592 C594 1.388 . S
C593 C592 1.366 . S
C593 C597 1.385 . S
C594 H575 0.951 . S
C594 C592 1.388 . S
C594 C595 1.366 . S
C595 C594 1.366 . S
C595 C596 1.414 . S
C595 C598 1.499 . S
C596 H576 0.950 . S
C596 C595 1.414 . S
C596 C597 1.374 . S
C597 H577 0.950 . S
C597 C593 1.385 . S
C597 C596 1.374 . S
C598 C595 1.499 . S
C598 C599 1.373 . S
C598 C600 1.389 . S
C599 H578 0.950 . S
C599 C598 1.373 . S
C599 C615 1.377 . S
C600 C598 1.389 . S
C600 C601 1.524 . S
C600 C614 1.377 . S
C601 C600 1.524 . S
C601 C602 1.397 . S
C601 C606 1.363 . S
C602 H579 0.950 . S
C602 C601 1.397 . S
C602 C603 1.334 . S
C603 H580 0.950 . S
C603 C602 1.334 . S
C603 C604 1.287 . S
C604 C603 1.287 . S
C604 C605 1.524 . S
C604 H623 0.913 . S
C605 H581 0.950 . S
C605 C604 1.524 . S
C605 C606 1.415 . S
C606 H582 0.950 . S
C606 C601 1.363 . S
C606 C605 1.415 . S
C607 H583 0.951 . S
C607 C608 1.366 . S
C607 C609 1.388 . S
C608 C607 1.366 . S
C608 C612 1.385 . S
C609 H584 0.951 . S
C609 C607 1.388 . S
C609 C610 1.366 . S
C610 C609 1.366 . S
C610 C611 1.414 . S
C610 C613 1.499 . S
C611 H585 0.950 . S
C611 C610 1.414 . S
C611 C612 1.374 . S
C612 H586 0.950 . S
C612 C608 1.385 . S
C612 C611 1.374 . S
C613 C610 1.499 . S
C613 C614 1.373 . S
C613 C615 1.389 . S
C614 H587 0.950 . S
C614 C600 1.377 . S
C614 C613 1.373 . S
C615 C599 1.377 . S
C615 C613 1.389 . S
C615 C616 1.524 . S
C616 C615 1.524 . S
C616 C617 1.397 . S
C616 C621 1.363 . S
C617 H588 0.950 . S
C617 C616 1.397 . S
C617 C618 1.334 . S
C618 H589 0.950 . S
C618 C617 1.334 . S
C618 C619 1.287 . S
C619 C618 1.287 . S
C619 C620 1.524 . S
C619 H622 0.999 . S
C620 H590 0.950 . S
C620 C619 1.524 . S
C620 C621 1.415 . S
C621 H591 0.950 . S
C621 C616 1.363 . S
C621 C620 1.415 . S
H622 C619 0.999 . S
H623 C604 0.913 . S
H624 C642 0.951 . S
H625 C644 0.951 . S
H626 C646 0.950 . S
H627 C647 0.950 . S
H628 C649 0.950 . S
H629 C652 0.950 . S
H630 C653 0.950 . S
H631 C655 0.950 . S
H632 C656 0.950 . S
H633 C657 0.951 . S
H634 C659 0.951 . S
H635 C661 0.950 . S
H636 C662 0.950 . S
H637 C664 0.950 . S
H638 C667 0.950 . S
H639 C668 0.950 . S
H640 C670 0.950 . S
H641 C671 0.950 . S
C642 H624 0.951 . S
C642 C643 1.366 . S
C642 C644 1.388 . S
C643 C642 1.366 . S
C643 C647 1.385 . S
C644 H625 0.951 . S
C644 C642 1.388 . S
C644 C645 1.366 . S
C645 C644 1.366 . S
C645 C646 1.414 . S
C645 C648 1.499 . S
C646 H626 0.950 . S
C646 C645 1.414 . S
C646 C647 1.374 . S
C647 H627 0.950 . S
C647 C643 1.385 . S
C647 C646 1.374 . S
C648 C645 1.499 . S
C648 C649 1.373 . S
C648 C650 1.389 . S
C649 H628 0.950 . S
C649 C648 1.373 . S
C649 C665 1.377 . S
C650 C648 1.389 . S
C650 C651 1.524 . S
C650 C664 1.377 . S
C651 C650 1.524 . S
C651 C652 1.397 . S
C651 C656 1.363 . S
C652 H629 0.950 . S
C652 C651 1.397 . S
C652 C653 1.334 . S
C653 H630 0.950 . S
C653 C652 1.334 . S
C653 C654 1.287 . S
C654 C653 1.287 . S
C654 C655 1.524 . S
C654 H673 0.913 . S
C655 H631 0.950 . S
C655 C654 1.524 . S
C655 C656 1.415 . S
C656 H632 0.950 . S
C656 C651 1.363 . S
C656 C655 1.415 . S
C657 H633 0.951 . S
C657 C658 1.366 . S
C657 C659 1.388 . S
C658 C657 1.366 . S
C658 C662 1.385 . S
C659 H634 0.951 . S
C659 C657 1.388 . S
C659 C660 1.366 . S
C660 C659 1.366 . S
C660 C661 1.414 . S
C660 C663 1.499 . S
C661 H635 0.950 . S
C661 C660 1.414 . S
C661 C662 1.374 . S
C662 H636 0.950 . S
C662 C658 1.385 . S
C662 C661 1.374 . S
C663 C660 1.499 . S
C663 C664 1.373 . S
C663 C665 1.389 . S
C664 H637 0.950 . S
C664 C650 1.377 . S
C664 C663 1.373 . S
C665 C649 1.377 . S
C665 C663 1.389 . S
C665 C666 1.524 . S
C666 C665 1.524 . S
C666 C667 1.397 . S
C666 C671 1.363 . S
C667 H638 0.950 . S
C667 C666 1.397 . S
C667 C668 1.334 . S
C668 H639 0.950 . S
C668 C667 1.334 . S
C668 C669 1.287 . S
C669 C668 1.287 . S
C669 C670 1.524 . S
C669 H672 0.999 . S
C670 H640 0.950 . S
C670 C669 1.524 . S
C670 C671 1.415 . S
C671 H641 0.950 . S
C671 C666 1.363 . S
C671 C670 1.415 . S
H672 C669 0.999 . S
H673 C654 0.913 . S
H674 C692 0.951 . S
H675 C694 0.951 . S
H676 C696 0.950 . S
H677 C697 0.950 . S
H678 C699 0.950 . S
H679 C702 0.950 . S
H680 C703 0.950 . S
H681 C705 0.950 . S
H682 C706 0.950 . S
H683 C707 0.951 . S
H684 C709 0.951 . S
H685 C711 0.950 . S
H686 C712 0.950 . S
H687 C714 0.950 . S
H688 C717 0.950 . S
H689 C718 0.950 . S
H690 C720 0.950 . S
H691 C721 0.950 . S
C692 H674 0.951 . S
C692 C693 1.366 . S
C692 C694 1.388 . S
C693 C692 1.366 . S
C693 C697 1.385 . S
C694 H675 0.951 . S
C694 C692 1.388 . S
C694 C695 1.366 . S
C695 C694 1.366 . S
C695 C696 1.414 . S
C695 C698 1.499 . S
C696 H676 0.950 . S
C696 C695 1.414 . S
C696 C697 1.374 . S
C697 H677 0.950 . S
C697 C693 1.385 . S
C697 C696 1.374 . S
C698 C695 1.499 . S
C698 C699 1.373 . S
C698 C700 1.389 . S
C699 H678 0.950 . S
C699 C698 1.373 . S
C699 C715 1.377 . S
C700 C698 1.389 . S
C700 C701 1.524 . S
C700 C714 1.377 . S
C701 C700 1.524 . S
C701 C702 1.397 . S
C701 C706 1.363 . S
C702 H679 0.950 . S
C702 C701 1.397 . S
C702 C703 1.334 . S
C703 H680 0.950 . S
C703 C702 1.334 . S
C703 C704 1.287 . S
C704 C703 1.287 . S
C704 C705 1.524 . S
C704 H723 0.913 . S
C705 H681 0.950 . S
C705 C704 1.524 . S
C705 C706 1.415 . S
C706 H682 0.950 . S
C706 C701 1.363 . S
C706 C705 1.415 . S
C707 H683 0.951 . S
C707 C708 1.366 . S
C707 C709 1.388 . S
C708 C707 1.366 . S
C708 C712 1.385 . S
C709 H684 0.951 . S
C709 C707 1.388 . S
C709 C710 1.366 . S
C710 C709 1.366 . S
C710 C711 1.414 . S
C710 C713 1.499 . S
C711 H685 0.950 . S
C711 C710 1.414 . S
C711 C712 1.374 . S
C712 H686 0.950 . S
C712 C708 1.385 . S
C712 C711 1.374 . S
C713 C710 1.499 . S
C713 C714 1.373 . S
C713 C715 1.389 . S
C714 H687 0.950 . S
C714 C700 1.377 . S
C714 C713 1.373 . S
C715 C699 1.377 . S
C715 C713 1.389 . S
C715 C716 1.524 . S
C716 C715 1.524 . S
C716 C717 1.397 . S
C716 C721 1.363 . S
C717 H688 0.950 . S
C717 C716 1.397 . S
C717 C718 1.334 . S
C718 H689 0.950 . S
C718 C717 1.334 . S
C718 C719 1.287 . S
C719 C718 1.287 . S
C719 C720 1.524 . S
C719 H722 0.999 . S
C720 H690 0.950 . S
C720 C719 1.524 . S
C720 C721 1.415 . S
C721 H691 0.950 . S
C721 C716 1.363 . S
C721 C720 1.415 . S
H722 C719 0.999 . S
H723 C704 0.913 . S
H724 C742 0.951 . S
H725 C744 0.951 . S
H726 C746 0.950 . S
H727 C747 0.950 . S
H728 C749 0.950 . S
H729 C752 0.950 . S
H730 C753 0.950 . S
H731 C755 0.950 . S
H732 C756 0.950 . S
H733 C757 0.951 . S
H734 C759 0.951 . S
H735 C761 0.950 . S
H736 C762 0.950 . S
H737 C764 0.950 . S
H738 C767 0.950 . S
H739 C768 0.950 . S
H740 C770 0.950 . S
H741 C771 0.950 . S
C742 H724 0.951 . S
C742 C743 1.366 . S
C742 C744 1.388 . S
C743 C742 1.366 . S
C743 C747 1.385 . S
C744 H725 0.951 . S
C744 C742 1.388 . S
C744 C745 1.366 . S
C745 C744 1.366 . S
C745 C746 1.414 . S
C745 C748 1.499 . S
C746 H726 0.950 . S
C746 C745 1.414 . S
C746 C747 1.374 . S
C747 H727 0.950 . S
C747 C743 1.385 . S
C747 C746 1.374 . S
C748 C745 1.499 . S
C748 C749 1.373 . S
C748 C750 1.389 . S
C749 H728 0.950 . S
C749 C748 1.373 . S
C749 C765 1.377 . S
C750 C748 1.389 . S
C750 C751 1.524 . S
C750 C764 1.377 . S
C751 C750 1.524 . S
C751 C752 1.397 . S
C751 C756 1.363 . S
C752 H729 0.950 . S
C752 C751 1.397 . S
C752 C753 1.334 . S
C753 H730 0.950 . S
C753 C752 1.334 . S
C753 C754 1.287 . S
C754 C753 1.287 . S
C754 C755 1.524 . S
C754 H773 0.913 . S
C755 H731 0.950 . S
C755 C754 1.524 . S
C755 C756 1.415 . S
C756 H732 0.950 . S
C756 C751 1.363 . S
C756 C755 1.415 . S
C757 H733 0.951 . S
C757 C758 1.366 . S
C757 C759 1.388 . S
C758 C757 1.366 . S
C758 C762 1.385 . S
C759 H734 0.951 . S
C759 C757 1.388 . S
C759 C760 1.366 . S
C760 C759 1.366 . S
C760 C761 1.414 . S
C760 C763 1.499 . S
C761 H735 0.950 . S
C761 C760 1.414 . S
C761 C762 1.374 . S
C762 H736 0.950 . S
C762 C758 1.385 . S
C762 C761 1.374 . S
C763 C760 1.499 . S
C763 C764 1.373 . S
C763 C765 1.389 . S
C764 H737 0.950 . S
C764 C750 1.377 . S
C764 C763 1.373 . S
C765 C749 1.377 . S
C765 C763 1.389 . S
C765 C766 1.524 . S
C766 C765 1.524 . S
C766 C767 1.397 . S
C766 C771 1.363 . S
C767 H738 0.950 . S
C767 C766 1.397 . S
C767 C768 1.334 . S
C768 H739 0.950 . S
C768 C767 1.334 . S
C768 C769 1.287 . S
C769 C768 1.287 . S
C769 C770 1.524 . S
C769 H772 0.999 . S
C770 H740 0.950 . S
C770 C769 1.524 . S
C770 C771 1.415 . S
C771 H741 0.950 . S
C771 C766 1.363 . S
C771 C770 1.415 . S
H772 C769 0.999 . S
H773 C754 0.913 . S
H774 C792 0.951 . S
H775 C794 0.951 . S
H776 C796 0.950 . S
H777 C797 0.950 . S
H778 C799 0.950 . S
H779 C802 0.950 . S
H780 C803 0.950 . S
H781 C805 0.950 . S
H782 C806 0.950 . S
H783 C807 0.951 . S
H784 C809 0.951 . S
H785 C811 0.950 . S
H786 C812 0.950 . S
H787 C814 0.950 . S
H788 C817 0.950 . S
H789 C818 0.950 . S
H790 C820 0.950 . S
H791 C821 0.950 . S
C792 H774 0.951 . S
C792 C793 1.366 . S
C792 C794 1.388 . S
C793 C792 1.366 . S
C793 C797 1.385 . S
C794 H775 0.951 . S
C794 C792 1.388 . S
C794 C795 1.366 . S
C795 C794 1.366 . S
C795 C796 1.414 . S
C795 C798 1.499 . S
C796 H776 0.950 . S
C796 C795 1.414 . S
C796 C797 1.374 . S
C797 H777 0.950 . S
C797 C793 1.385 . S
C797 C796 1.374 . S
C798 C795 1.499 . S
C798 C799 1.373 . S
C798 C800 1.389 . S
C799 H778 0.950 . S
C799 C798 1.373 . S
C799 C815 1.377 . S
C800 C798 1.389 . S
C800 C801 1.524 . S
C800 C814 1.377 . S
C801 C800 1.524 . S
C801 C802 1.397 . S
C801 C806 1.363 . S
C802 H779 0.950 . S
C802 C801 1.397 . S
C802 C803 1.334 . S
C803 H780 0.950 . S
C803 C802 1.334 . S
C803 C804 1.287 . S
C804 C803 1.287 . S
C804 C805 1.524 . S
C804 H823 0.913 . S
C805 H781 0.950 . S
C805 C804 1.524 . S
C805 C806 1.415 . S
C806 H782 0.950 . S
C806 C801 1.363 . S
C806 C805 1.415 . S
C807 H783 0.951 . S
C807 C808 1.366 . S
C807 C809 1.388 . S
C808 C807 1.366 . S
C808 C812 1.385 . S
C809 H784 0.951 . S
C809 C807 1.388 . S
C809 C810 1.366 . S
C810 C809 1.366 . S
C810 C811 1.414 . S
C810 C813 1.499 . S
C811 H785 0.950 . S
C811 C810 1.414 . S
C811 C812 1.374 . S
C812 H786 0.950 . S
C812 C808 1.385 . S
C812 C811 1.374 . S
C813 C810 1.499 . S
C813 C814 1.373 . S
C813 C815 1.389 . S
C814 H787 0.950 . S
C814 C800 1.377 . S
C814 C813 1.373 . S
C815 C799 1.377 . S
C815 C813 1.389 . S
C815 C816 1.524 . S
C816 C815 1.524 . S
C816 C817 1.397 . S
C816 C821 1.363 . S
C817 H788 0.950 . S
C817 C816 1.397 . S
C817 C818 1.334 . S
C818 H789 0.950 . S
C818 C817 1.334 . S
C818 C819 1.287 . S
C819 C818 1.287 . S
C819 C820 1.524 . S
C819 H822 0.999 . S
C820 H790 0.950 . S
C820 C819 1.524 . S
C820 C821 1.415 . S
C821 H791 0.950 . S
C821 C816 1.363 . S
C821 C820 1.415 . S
H822 C819 0.999 . S
H823 C804 0.913 . S
H824 C842 0.951 . S
H825 C844 0.951 . S
H826 C846 0.950 . S
H827 C847 0.950 . S
H828 C849 0.950 . S
H829 C852 0.950 . S
H830 C853 0.950 . S
H831 C855 0.950 . S
H832 C856 0.950 . S
H833 C857 0.951 . S
H834 C859 0.951 . S
H835 C861 0.950 . S
H836 C862 0.950 . S
H837 C864 0.950 . S
H838 C867 0.950 . S
H839 C868 0.950 . S
H840 C870 0.950 . S
H841 C871 0.950 . S
C842 H824 0.951 . S
C842 C843 1.366 . S
C842 C844 1.388 . S
C843 C842 1.366 . S
C843 C847 1.385 . S
C844 H825 0.951 . S
C844 C842 1.388 . S
C844 C845 1.366 . S
C845 C844 1.366 . S
C845 C846 1.414 . S
C845 C848 1.499 . S
C846 H826 0.950 . S
C846 C845 1.414 . S
C846 C847 1.374 . S
C847 H827 0.950 . S
C847 C843 1.385 . S
C847 C846 1.374 . S
C848 C845 1.499 . S
C848 C849 1.373 . S
C848 C850 1.389 . S
C849 H828 0.950 . S
C849 C848 1.373 . S
C849 C865 1.377 . S
C850 C848 1.389 . S
C850 C851 1.524 . S
C850 C864 1.377 . S
C851 C850 1.524 . S
C851 C852 1.397 . S
C851 C856 1.363 . S
C852 H829 0.950 . S
C852 C851 1.397 . S
C852 C853 1.334 . S
C853 H830 0.950 . S
C853 C852 1.334 . S
C853 C854 1.287 . S
C854 C853 1.287 . S
C854 C855 1.524 . S
C854 H873 0.913 . S
C855 H831 0.950 . S
C855 C854 1.524 . S
C855 C856 1.415 . S
C856 H832 0.950 . S
C856 C851 1.363 . S
C856 C855 1.415 . S
C857 H833 0.951 . S
C857 C858 1.366 . S
C857 C859 1.388 . S
C858 C857 1.366 . S
C858 C862 1.385 . S
C859 H834 0.951 . S
C859 C857 1.388 . S
C859 C860 1.366 . S
C860 C859 1.366 . S
C860 C861 1.414 . S
C860 C863 1.499 . S
C861 H835 0.950 . S
C861 C860 1.414 . S
C861 C862 1.374 . S
C862 H836 0.950 . S
C862 C858 1.385 . S
C862 C861 1.374 . S
C863 C860 1.499 . S
C863 C864 1.373 . S
C863 C865 1.389 . S
C864 H837 0.950 . S
C864 C850 1.377 . S
C864 C863 1.373 . S
C865 C849 1.377 . S
C865 C863 1.389 . S
C865 C866 1.524 . S
C866 C865 1.524 . S
C866 C867 1.397 . S
C866 C871 1.363 . S
C867 H838 0.950 . S
C867 C866 1.397 . S
C867 C868 1.334 . S
C868 H839 0.950 . S
C868 C867 1.334 . S
C868 C869 1.287 . S
C869 C868 1.287 . S
C869 C870 1.524 . S
C869 H872 0.999 . S
C870 H840 0.950 . S
C870 C869 1.524 . S
C870 C871 1.415 . S
C871 H841 0.950 . S
C871 C866 1.363 . S
C871 C870 1.415 . S
H872 C869 0.999 . S
H873 C854 0.913 . S
H874 C892 0.951 . S
H875 C894 0.951 . S
H876 C896 0.950 . S
H877 C897 0.950 . S
H878 C899 0.950 . S
H879 C902 0.950 . S
H880 C903 0.950 . S
H881 C905 0.950 . S
H882 C906 0.950 . S
H883 C907 0.951 . S
H884 C909 0.951 . S
H885 C911 0.950 . S
H886 C912 0.950 . S
H887 C914 0.950 . S
H888 C917 0.950 . S
H889 C918 0.950 . S
H890 C920 0.950 . S
H891 C921 0.950 . S
C892 H874 0.951 . S
C892 C893 1.366 . S
C892 C894 1.388 . S
C893 C892 1.366 . S
C893 C897 1.385 . S
C894 H875 0.951 . S
C894 C892 1.388 . S
C894 C895 1.366 . S
C895 C894 1.366 . S
C895 C896 1.414 . S
C895 C898 1.499 . S
C896 H876 0.950 . S
C896 C895 1.414 . S
C896 C897 1.374 . S
C897 H877 0.950 . S
C897 C893 1.385 . S
C897 C896 1.374 . S
C898 C895 1.499 . S
C898 C899 1.373 . S
C898 C900 1.389 . S
C899 H878 0.950 . S
C899 C898 1.373 . S
C899 C915 1.377 . S
C900 C898 1.389 . S
C900 C901 1.524 . S
C900 C914 1.377 . S
C901 C900 1.524 . S
C901 C902 1.397 . S
C901 C906 1.363 . S
C902 H879 0.950 . S
C902 C901 1.397 . S
C902 C903 1.334 . S
C903 H880 0.950 . S
C903 C902 1.334 . S
C903 C904 1.287 . S
C904 C903 1.287 . S
C904 C905 1.524 . S
C904 H923 0.913 . S
C905 H881 0.950 . S
C905 C904 1.524 . S
C905 C906 1.415 . S
C906 H882 0.950 . S
C906 C901 1.363 . S
C906 C905 1.415 . S
C907 H883 0.951 . S
C907 C908 1.366 . S
C907 C909 1.388 . S
C908 C907 1.366 . S
C908 C912 1.385 . S
C909 H884 0.951 . S
C909 C907 1.388 . S
C909 C910 1.366 . S
C910 C909 1.366 . S
C910 C911 1.414 . S
C910 C913 1.499 . S
C911 H885 0.950 . S
C911 C910 1.414 . S
C911 C912 1.374 . S
C912 H886 0.950 . S
C912 C908 1.385 . S
C912 C911 1.374 . S
C913 C910 1.499 . S
C913 C914 1.373 . S
C913 C915 1.389 . S
C914 H887 0.950 . S
C914 C900 1.377 . S
C914 C913 1.373 . S
C915 C899 1.377 . S
C915 C913 1.389 . S
C915 C916 1.524 . S
C916 C915 1.524 . S
C916 C917 1.397 . S
C916 C921 1.363 . S
C917 H888 0.950 . S
C917 C916 1.397 . S
C917 C918 1.334 . S
C918 H889 0.950 . S
C918 C917 1.334 . S
C918 C919 1.287 . S
C919 C918 1.287 . S
C919 C920 1.524 . S
C919 H922 0.999 . S
C920 H890 0.950 . S
C920 C919 1.524 . S
C920 C921 1.415 . S
C921 H891 0.950 . S
C921 C916 1.363 . S
C921 C920 1.415 . S
H922 C919 0.999 . S
H923 C904 0.913 . S
H924 C942 0.951 . S
H925 C944 0.951 . S
H926 C946 0.950 . S
H927 C947 0.950 . S
H928 C949 0.950 . S
H929 C952 0.950 . S
H930 C953 0.950 . S
H931 C955 0.950 . S
H932 C956 0.950 . S
H933 C957 0.951 . S
H934 C959 0.951 . S
H935 C961 0.950 . S
H936 C962 0.950 . S
H937 C964 0.950 . S
H938 C967 0.950 . S
H939 C968 0.950 . S
H940 C970 0.950 . S
H941 C971 0.950 . S
C942 H924 0.951 . S
C942 C943 1.366 . S
C942 C944 1.388 . S
C943 C942 1.366 . S
C943 C947 1.385 . S
C944 H925 0.951 . S
C944 C942 1.388 . S
C944 C945 1.366 . S
C945 C944 1.366 . S
C945 C946 1.414 . S
C945 C948 1.499 . S
C946 H926 0.950 . S
C946 C945 1.414 . S
C946 C947 1.374 . S
C947 H927 0.950 . S
C947 C943 1.385 . S
C947 C946 1.374 . S
C948 C945 1.499 . S
C948 C949 1.373 . S
C948 C950 1.389 . S
C949 H928 0.950 . S
C949 C948 1.373 . S
C949 C965 1.377 . S
C950 C948 1.389 . S
C950 C951 1.524 . S
C950 C964 1.377 . S
C951 C950 1.524 . S
C951 C952 1.397 . S
C951 C956 1.363 . S
C952 H929 0.950 . S
C952 C951 1.397 . S
C952 C953 1.334 . S
C953 H930 0.950 . S
C953 C952 1.334 . S
C953 C954 1.287 . S
C954 C953 1.287 . S
C954 C955 1.524 . S
C954 H973 0.913 . S
C955 H931 0.950 . S
C955 C954 1.524 . S
C955 C956 1.415 . S
C956 H932 0.950 . S
C956 C951 1.363 . S
C956 C955 1.415 . S
C957 H933 0.951 . S
C957 C958 1.366 . S
C957 C959 1.388 . S
C958 C957 1.366 . S
C958 C962 1.385 . S
C959 H934 0.951 . S
C959 C957 1.388 . S
C959 C960 1.366 . S
C960 C959 1.366 . S
C960 C961 1.414 . S
C960 C963 1.499 . S
C961 H935 0.950 . S
C961 C960 1.414 . S
C961 C962 1.374 . S
C962 H936 0.950 . S
C962 C958 1.385 . S
C962 C961 1.374 . S
C963 C960 1.499 . S
C963 C964 1.373 . S
C963 C965 1.389 . S
C964 H937 0.950 . S
C964 C950 1.377 . S
C964 C963 1.373 . S
C965 C949 1.377 . S
C965 C963 1.389 . S
C965 C966 1.524 . S
C966 C965 1.524 . S
C966 C967 1.397 . S
C966 C971 1.363 . S
C967 H938 0.950 . S
C967 C966 1.397 . S
C967 C968 1.334 . S
C968 H939 0.950 . S
C968 C967 1.334 . S
C968 C969 1.287 . S
C969 C968 1.287 . S
C969 C970 1.524 . S
C969 H972 0.999 . S
C970 H940 0.950 . S
C970 C969 1.524 . S
C970 C971 1.415 . S
C971 H941 0.950 . S
C971 C966 1.363 . S
C971 C970 1.415 . S
H972 C969 0.999 . S
H973 C954 0.913 . S
H974 C992 0.951 . S
H975 C994 0.951 . S
H976 C996 0.950 . S
H977 C997 0.950 . S
H978 C999 0.950 . S
H979 C1002 0.950 . S
H980 C1003 0.950 . S
H981 C1005 0.950 . S
H982 C1006 0.950 . S
H983 C1007 0.951 . S
H984 C1009 0.951 . S
H985 C1011 0.950 . S
H986 C1012 0.950 . S
H987 C1014 0.950 . S
H988 C1017 0.950 . S
H989 C1018 0.950 . S
H990 C1020 0.950 . S
H991 C1021 0.950 . S
C992 H974 0.951 . S
C992 C993 1.366 . S
C992 C994 1.388 . S
C993 C992 1.366 . S
C993 C997 1.385 . S
C994 H975 0.951 . S
C994 C992 1.388 . S
C994 C995 1.366 . S
C995 C994 1.366 . S
C995 C996 1.414 . S
C995 C998 1.499 . S
C996 H976 0.950 . S
C996 C995 1.414 . S
C996 C997 1.374 . S
C997 H977 0.950 . S
C997 C993 1.385 . S
C997 C996 1.374 . S
C998 C995 1.499 . S
C998 C999 1.373 . S
C998 C1000 1.389 . S
C999 H978 0.950 . S
C999 C998 1.373 . S
C999 C1015 1.377 . S
C1000 C998 1.389 . S
C1000 C1001 1.524 . S
C1000 C1014 1.377 . S
C1001 C1000 1.524 . S
C1001 C1002 1.397 . S
C1001 C1006 1.363 . S
C1002 H979 0.950 . S
C1002 C1001 1.397 . S
C1002 C1003 1.334 . S
C1003 H980 0.950 . S
C1003 C1002 1.334 . S
C1003 C1004 1.287 . S
C1004 C1003 1.287 . S
C1004 C1005 1.524 . S
C1004 H1023 0.913 . S
C1005 H981 0.950 . S
C1005 C1004 1.524 . S
C1005 C1006 1.415 . S
C1006 H982 0.950 . S
C1006 C1001 1.363 . S
C1006 C1005 1.415 . S
C1007 H983 0.951 . S
C1007 C1008 1.366 . S
C1007 C1009 1.388 . S
C1008 C1007 1.366 . S
C1008 C1012 1.385 . S
C1009 H984 0.951 . S
C1009 C1007 1.388 . S
C1009 C1010 1.366 . S
C1010 C1009 1.366 . S
C1010 C1011 1.414 . S
C1010 C1013 1.499 . S
C1011 H985 0.950 . S
C1011 C1010 1.414 . S
C1011 C1012 1.374 . S
C1012 H986 0.950 . S
C1012 C1008 1.385 . S
C1012 C1011 1.374 . S
C1013 C1010 1.499 . S
C1013 C1014 1.373 . S
C1013 C1015 1.389 . S
C1014 H987 0.950 . S
C1014 C1000 1.377 . S
C1014 C1013 1.373 . S
C1015 C999 1.377 . S
C1015 C1013 1.389 . S
C1015 C1016 1.524 . S
C1016 C1015 1.524 . S
C1016 C1017 1.397 . S
C1016 C1021 1.363 . S
C1017 H988 0.950 . S
C1017 C1016 1.397 . S
C1017 C1018 1.334 . S
C1018 H989 0.950 . S
C1018 C1017 1.334 . S
C1018 C1019 1.287 . S
C1019 C1018 1.287 . S
C1019 C1020 1.524 . S
C1019 H1022 0.999 . S
C1020 H990 0.950 . S
C1020 C1019 1.524 . S
C1020 C1021 1.415 . S
C1021 H991 0.950 . S
C1021 C1016 1.363 . S
C1021 C1020 1.415 . S
H1022 C1019 0.999 . S
H1023 C1004 0.913 . S
H1024 C1042 0.951 . S
H1025 C1044 0.951 . S
H1026 C1046 0.950 . S
H1027 C1047 0.950 . S
H1028 C1049 0.950 . S
H1029 C1052 0.950 . S
H1030 C1053 0.950 . S
H1031 C1055 0.950 . S
H1032 C1056 0.950 . S
H1033 C1057 0.951 . S
H1034 C1059 0.951 . S
H1035 C1061 0.950 . S
H1036 C1062 0.950 . S
H1037 C1064 0.950 . S
H1038 C1067 0.950 . S
H1039 C1068 0.950 . S
H1040 C1070 0.950 . S
H1041 C1071 0.950 . S
C1042 H1024 0.951 . S
C1042 C1043 1.366 . S
C1042 C1044 1.388 1_565 S
C1043 C1042 1.366 . S
C1043 C1047 1.385 . S
C1044 H1025 0.951 . S
C1044 C1042 1.388 1_545 S
C1044 C1045 1.366 . S
C1045 C1044 1.366 . S
C1045 C1046 1.414 1_545 S
C1045 C1048 1.499 . S
C1046 H1026 0.950 . S
C1046 C1045 1.414 1_565 S
C1046 C1047 1.374 . S
C1047 H1027 0.950 . S
C1047 C1043 1.385 . S
C1047 C1046 1.374 . S
C1048 C1045 1.499 . S
C1048 C1049 1.373 . S
C1048 C1050 1.389 . S
C1049 H1028 0.950 . S
C1049 C1048 1.373 . S
C1049 C1065 1.377 . S
C1050 C1048 1.389 . S
C1050 C1051 1.524 . S
C1050 C1064 1.377 . S
C1051 C1050 1.524 . S
C1051 C1052 1.397 . S
C1051 C1056 1.363 . S
C1052 H1029 0.950 . S
C1052 C1051 1.397 . S
C1052 C1053 1.334 . S
C1053 H1030 0.950 . S
C1053 C1052 1.334 . S
C1053 C1054 1.287 . S
C1054 C1053 1.287 . S
C1054 C1055 1.524 . S
C1054 H1073 0.913 . S
C1055 H1031 0.950 . S
C1055 C1054 1.524 . S
C1055 C1056 1.415 . S
C1056 H1032 0.950 . S
C1056 C1051 1.363 . S
C1056 C1055 1.415 . S
C1057 H1033 0.951 . S
C1057 C1058 1.366 . S
C1057 C1059 1.388 . S
C1058 C1057 1.366 . S
C1058 C1062 1.385 . S
C1059 H1034 0.951 . S
C1059 C1057 1.388 . S
C1059 C1060 1.366 . S
C1060 C1059 1.366 . S
C1060 C1061 1.414 . S
C1060 C1063 1.499 . S
C1061 H1035 0.950 . S
C1061 C1060 1.414 . S
C1061 C1062 1.374 . S
C1062 H1036 0.950 . S
C1062 C1058 1.385 . S
C1062 C1061 1.374 . S
C1063 C1060 1.499 . S
C1063 C1064 1.373 . S
C1063 C1065 1.389 . S
C1064 H1037 0.950 . S
C1064 C1050 1.377 . S
C1064 C1063 1.373 . S
C1065 C1049 1.377 . S
C1065 C1063 1.389 . S
C1065 C1066 1.524 . S
C1066 C1065 1.524 . S
C1066 C1067 1.397 . S
C1066 C1071 1.363 . S
C1067 H1038 0.950 . S
C1067 C1066 1.397 . S
C1067 C1068 1.334 . S
C1068 H1039 0.950 . S
C1068 C1067 1.334 . S
C1068 C1069 1.287 . S
C1069 C1068 1.287 . S
C1069 C1070 1.524 . S
C1069 H1072 0.999 . S
C1070 H1040 0.950 . S
C1070 C1069 1.524 . S
C1070 C1071 1.415 . S
C1071 H1041 0.950 . S
C1071 C1066 1.363 . S
C1071 C1070 1.415 . S
H1072 C1069 0.999 . S
H1073 C1054 0.913 . S
H1074 C1092 0.951 . S
H1075 C1094 0.951 . S
H1076 C1096 0.950 . S
H1077 C1097 0.950 . S
H1078 C1099 0.950 . S
H1079 C1102 0.950 . S
H1080 C1103 0.950 . S
H1081 C1105 0.950 . S
H1082 C1106 0.950 . S
H1083 C1107 0.951 . S
H1084 C1109 0.951 . S
H1085 C1111 0.950 . S
H1086 C1112 0.955 . S
H1087 C1114 0.950 . S
H1088 C1117 0.950 . S
H1089 C1118 0.950 . S
H1090 C1120 0.944 1_655 S
H1091 C1121 0.950 . S
C1092 H1074 0.951 . S
C1092 C1093 1.366 . S
C1092 C1094 1.388 . S
C1093 C1092 1.366 . S
C1093 C1097 1.385 . S
C1094 H1075 0.951 . S
C1094 C1092 1.388 . S
C1094 C1095 1.366 . S
C1095 C1094 1.366 . S
C1095 C1096 1.414 . S
C1095 C1098 1.499 . S
C1096 H1076 0.950 . S
C1096 C1095 1.414 . S
C1096 C1097 1.374 . S
C1097 H1077 0.950 . S
C1097 C1093 1.385 . S
C1097 C1096 1.374 . S
C1098 C1095 1.499 . S
C1098 C1099 1.373 . S
C1098 C1100 1.389 . S
C1099 H1078 0.950 . S
C1099 C1098 1.373 . S
C1099 C1115 1.377 . S
C1100 C1098 1.389 . S
C1100 C1101 1.524 . S
C1100 C1114 1.377 . S
C1101 C1100 1.524 . S
C1101 C1102 1.397 . S
C1101 C1106 1.363 . S
C1102 H1079 0.950 . S
C1102 C1101 1.397 . S
C1102 C1103 1.334 . S
C1103 H1080 0.950 . S
C1103 C1102 1.334 . S
C1103 C1104 1.287 . S
C1104 C1103 1.287 . S
C1104 C1105 1.524 . S
C1104 H1123 0.913 . S
C1105 H1081 0.950 . S
C1105 C1104 1.524 . S
C1105 C1106 1.415 . S
C1106 H1082 0.950 . S
C1106 C1101 1.363 . S
C1106 C1105 1.415 . S
C1107 H1083 0.951 . S
C1107 C1108 1.366 . S
C1107 C1109 1.388 . S
C1108 C1107 1.366 . S
C1108 C1112 1.385 . S
C1109 H1084 0.951 . S
C1109 C1107 1.388 . S
C1109 C1110 1.366 1_655 S
C1110 C1109 1.366 1_455 S
C1110 C1111 1.414 . S
C1110 C1113 1.499 . S
C1111 H1085 0.950 . S
C1111 C1110 1.414 . S
C1111 C1112 1.374 1_455 S
C1112 H1086 0.955 . S
C1112 C1108 1.385 . S
C1112 C1111 1.374 1_655 S
C1113 C1110 1.499 . S
C1113 C1114 1.373 . S
C1113 C1115 1.389 . S
C1114 H1087 0.950 . S
C1114 C1100 1.377 . S
C1114 C1113 1.373 . S
C1115 C1099 1.377 . S
C1115 C1113 1.389 . S
C1115 C1116 1.524 . S
C1116 C1115 1.524 . S
C1116 C1117 1.397 . S
C1116 C1121 1.363 . S
C1117 H1088 0.950 . S
C1117 C1116 1.397 . S
C1117 C1118 1.334 . S
C1118 H1089 0.950 . S
C1118 C1117 1.334 . S
C1118 C1119 1.286 . S
C1119 C1118 1.286 . S
C1119 C1120 1.524 . S
C1119 H1122 1.000 1_455 S
C1120 H1090 0.944 1_455 S
C1120 C1119 1.524 . S
C1120 C1121 1.421 . S
C1121 H1091 0.950 . S
C1121 C1116 1.363 . S
C1121 C1120 1.421 . S
H1122 C1119 1.000 1_655 S
H1123 C1104 0.913 . S
H1124 C1142 0.951 . S
H1125 C1144 0.951 . S
H1126 C1146 0.950 . S
H1127 C1147 0.950 . S
H1128 C1149 0.950 . S
H1129 C1152 0.950 . S
H1130 C1153 0.950 . S
H1131 C1155 0.950 . S
H1132 C1156 0.950 . S
H1133 C1157 0.951 . S
H1134 C1159 0.951 . S
H1135 C1161 0.950 . S
H1136 C1162 0.950 . S
H1137 C1164 0.950 . S
H1138 C1167 0.950 . S
H1139 C1168 0.950 . S
H1140 C1170 0.950 . S
H1141 C1171 0.950 . S
C1142 H1124 0.951 . S
C1142 C1143 1.366 . S
C1142 C1144 1.388 1_545 S
C1143 C1142 1.366 . S
C1143 C1147 1.385 . S
C1144 H1125 0.951 . S
C1144 C1142 1.388 1_565 S
C1144 C1145 1.366 . S
C1145 C1144 1.366 . S
C1145 C1146 1.414 . S
C1145 C1148 1.499 . S
C1146 H1126 0.950 . S
C1146 C1145 1.414 . S
C1146 C1147 1.374 1_565 S
C1147 H1127 0.950 . S
C1147 C1143 1.385 . S
C1147 C1146 1.374 1_545 S
C1148 C1145 1.499 . S
C1148 C1149 1.373 . S
C1148 C1150 1.389 . S
C1149 H1128 0.950 . S
C1149 C1148 1.373 . S
C1149 C1165 1.377 . S
C1150 C1148 1.389 . S
C1150 C1151 1.524 . S
C1150 C1164 1.377 . S
C1151 C1150 1.524 . S
C1151 C1152 1.397 . S
C1151 C1156 1.363 . S
C1152 H1129 0.950 . S
C1152 C1151 1.397 . S
C1152 C1153 1.334 . S
C1153 H1130 0.950 . S
C1153 C1152 1.334 . S
C1153 C1154 1.287 . S
C1154 C1153 1.287 . S
C1154 C1155 1.524 . S
C1154 H1173 0.913 . S
C1155 H1131 0.950 . S
C1155 C1154 1.524 . S
C1155 C1156 1.415 . S
C1156 H1132 0.950 . S
C1156 C1151 1.363 . S
C1156 C1155 1.415 . S
C1157 H1133 0.951 . S
C1157 C1158 1.366 . S
C1157 C1159 1.388 . S
C1158 C1157 1.366 . S
C1158 C1162 1.385 . S
C1159 H1134 0.951 . S
C1159 C1157 1.388 . S
C1159 C1160 1.366 . S
C1160 C1159 1.366 . S
C1160 C1161 1.414 . S
C1160 C1163 1.499 . S
C1161 H1135 0.950 . S
C1161 C1160 1.414 . S
C1161 C1162 1.374 . S
C1162 H1136 0.950 . S
C1162 C1158 1.385 . S
C1162 C1161 1.374 . S
C1163 C1160 1.499 . S
C1163 C1164 1.373 . S
C1163 C1165 1.389 . S
C1164 H1137 0.950 . S
C1164 C1150 1.377 . S
C1164 C1163 1.373 . S
C1165 C1149 1.377 . S
C1165 C1163 1.389 . S
C1165 C1166 1.524 . S
C1166 C1165 1.524 . S
C1166 C1167 1.397 . S
C1166 C1171 1.363 . S
C1167 H1138 0.950 . S
C1167 C1166 1.397 . S
C1167 C1168 1.334 . S
C1168 H1139 0.950 . S
C1168 C1167 1.334 . S
C1168 C1169 1.287 . S
C1169 C1168 1.287 . S
C1169 C1170 1.524 . S
C1169 H1172 0.999 . S
C1170 H1140 0.950 . S
C1170 C1169 1.524 . S
C1170 C1171 1.415 . S
C1171 H1141 0.950 . S
C1171 C1166 1.363 . S
C1171 C1170 1.415 . S
H1172 C1169 0.999 . S
H1173 C1154 0.913 . S
H1174 C1192 0.951 . S
H1175 C1194 0.951 . S
H1176 C1196 0.950 . S
H1177 C1197 0.950 . S
H1178 C1199 0.950 . S
H1179 C1202 0.950 . S
H1180 C1203 0.950 . S
H1181 C1205 0.950 . S
H1182 C1206 0.950 . S
H1183 C1207 0.951 . S
H1184 C1209 0.951 . S
H1185 C1211 0.950 . S
H1186 C1212 0.950 . S
H1187 C1214 0.950 . S
H1188 C1217 0.950 . S
H1189 C1218 0.950 . S
H1190 C1220 0.950 . S
H1191 C1221 0.950 . S
C1192 H1174 0.951 . S
C1192 C1193 1.366 . S
C1192 C1194 1.388 . S
C1193 C1192 1.366 . S
C1193 C1197 1.385 . S
C1194 H1175 0.951 . S
C1194 C1192 1.388 . S
C1194 C1195 1.366 . S
C1195 C1194 1.366 . S
C1195 C1196 1.414 . S
C1195 C1198 1.499 . S
C1196 H1176 0.950 . S
C1196 C1195 1.414 . S
C1196 C1197 1.374 . S
C1197 H1177 0.950 . S
C1197 C1193 1.385 . S
C1197 C1196 1.374 . S
C1198 C1195 1.499 . S
C1198 C1199 1.373 . S
C1198 C1200 1.389 . S
C1199 H1178 0.950 . S
C1199 C1198 1.373 . S
C1199 C1215 1.377 . S
C1200 C1198 1.389 . S
C1200 C1201 1.524 . S
C1200 C1214 1.377 . S
C1201 C1200 1.524 . S
C1201 C1202 1.397 . S
C1201 C1206 1.363 . S
C1202 H1179 0.950 . S
C1202 C1201 1.397 . S
C1202 C1203 1.334 . S
C1203 H1180 0.950 . S
C1203 C1202 1.334 . S
C1203 C1204 1.287 . S
C1204 C1203 1.287 . S
C1204 C1205 1.524 . S
C1204 H1223 0.913 . S
C1205 H1181 0.950 . S
C1205 C1204 1.524 . S
C1205 C1206 1.415 . S
C1206 H1182 0.950 . S
C1206 C1201 1.363 . S
C1206 C1205 1.415 . S
C1207 H1183 0.951 . S
C1207 C1208 1.366 . S
C1207 C1209 1.388 1_455 S
C1208 C1207 1.366 . S
C1208 C1212 1.385 . S
C1209 H1184 0.951 . S
C1209 C1207 1.388 1_655 S
C1209 C1210 1.366 . S
C1210 C1209 1.366 . S
C1210 C1211 1.414 1_655 S
C1210 C1213 1.499 . S
C1211 H1185 0.950 . S
C1211 C1210 1.414 1_455 S
C1211 C1212 1.374 . S
C1212 H1186 0.950 . S
C1212 C1208 1.385 . S
C1212 C1211 1.374 . S
C1213 C1210 1.499 . S
C1213 C1214 1.373 . S
C1213 C1215 1.389 . S
C1214 H1187 0.950 . S
C1214 C1200 1.377 . S
C1214 C1213 1.373 . S
C1215 C1199 1.377 . S
C1215 C1213 1.389 . S
C1215 C1216 1.524 . S
C1216 C1215 1.524 . S
C1216 C1217 1.397 . S
C1216 C1221 1.363 . S
C1217 H1188 0.950 . S
C1217 C1216 1.397 . S
C1217 C1218 1.334 . S
C1218 H1189 0.950 . S
C1218 C1217 1.334 . S
C1218 C1219 1.287 . S
C1219 C1218 1.287 . S
C1219 C1220 1.524 . S
C1219 H1222 0.999 . S
C1220 H1190 0.950 . S
C1220 C1219 1.524 . S
C1220 C1221 1.415 . S
C1221 H1191 0.950 . S
C1221 C1216 1.363 . S
C1221 C1220 1.415 . S
H1222 C1219 0.999 . S
H1223 C1204 0.913 . S
H1224 C1242 0.951 . S
H1225 C1244 0.951 . S
H1226 C1246 0.951 1_565 S
H1227 C1247 0.950 . S
H1228 C1249 0.950 . S
H1229 C1252 0.950 . S
H1230 C1253 0.950 . S
H1231 C1255 0.950 . S
H1232 C1256 0.950 . S
H1233 C1257 0.951 . S
H1234 C1259 0.951 . S
H1235 C1261 0.950 . S
H1236 C1262 0.950 . S
H1237 C1264 0.950 . S
H1238 C1267 0.950 . S
H1239 C1268 0.950 . S
H1240 C1270 0.950 . S
H1241 C1271 0.950 . S
C1242 H1224 0.951 . S
C1242 C1243 1.366 . S
C1242 C1244 1.388 1_545 S
C1243 C1242 1.366 . S
C1243 C1247 1.385 . S
C1244 H1225 0.951 . S
C1244 C1242 1.388 1_565 S
C1244 C1245 1.366 . S
C1245 C1244 1.366 . S
C1245 C1246 1.414 1_565 S
C1245 C1248 1.499 . S
C1246 H1226 0.951 1_545 S
C1246 C1245 1.414 1_545 S
C1246 C1247 1.373 . S
C1247 H1227 0.950 . S
C1247 C1243 1.385 . S
C1247 C1246 1.373 . S
C1248 C1245 1.499 . S
C1248 C1249 1.373 . S
C1248 C1250 1.389 . S
C1249 H1228 0.950 . S
C1249 C1248 1.373 . S
C1249 C1265 1.377 . S
C1250 C1248 1.389 . S
C1250 C1251 1.524 . S
C1250 C1264 1.377 . S
C1251 C1250 1.524 . S
C1251 C1252 1.397 1_565 S
C1251 C1256 1.363 . S
C1252 H1229 0.950 . S
C1252 C1251 1.397 1_545 S
C1252 C1253 1.334 . S
C1253 H1230 0.950 . S
C1253 C1252 1.334 . S
C1253 C1254 1.287 . S
C1254 C1253 1.287 . S
C1254 C1255 1.524 1_545 S
C1254 H1273 0.913 . S
C1255 H1231 0.950 . S
C1255 C1254 1.524 1_565 S
C1255 C1256 1.415 . S
C1256 H1232 0.950 . S
C1256 C1251 1.363 . S
C1256 C1255 1.415 . S
C1257 H1233 0.951 . S
C1257 C1258 1.366 . S
C1257 C1259 1.388 . S
C1258 C1257 1.366 . S
C1258 C1262 1.385 . S
C1259 H1234 0.951 . S
C1259 C1257 1.388 . S
C1259 C1260 1.366 . S
C1260 C1259 1.366 . S
C1260 C1261 1.414 . S
C1260 C1263 1.499 . S
C1261 H1235 0.950 . S
C1261 C1260 1.414 . S
C1261 C1262 1.374 . S
C1262 H1236 0.950 . S
C1262 C1258 1.385 . S
C1262 C1261 1.374 . S
C1263 C1260 1.499 . S
C1263 C1264 1.373 . S
C1263 C1265 1.389 . S
C1264 H1237 0.950 . S
C1264 C1250 1.377 . S
C1264 C1263 1.373 . S
C1265 C1249 1.377 . S
C1265 C1263 1.389 . S
C1265 C1266 1.524 . S
C1266 C1265 1.524 . S
C1266 C1267 1.397 . S
C1266 C1271 1.363 . S
C1267 H1238 0.950 . S
C1267 C1266 1.397 . S
C1267 C1268 1.334 . S
C1268 H1239 0.950 . S
C1268 C1267 1.334 . S
C1268 C1269 1.287 . S
C1269 C1268 1.287 . S
C1269 C1270 1.524 . S
C1269 H1272 0.999 . S
C1270 H1240 0.950 . S
C1270 C1269 1.524 . S
C1270 C1271 1.415 . S
C1271 H1241 0.950 . S
C1271 C1266 1.363 . S
C1271 C1270 1.415 . S
H1272 C1269 0.999 . S
H1273 C1254 0.913 . S
H1274 C1292 0.951 . S
H1275 C1294 0.951 . S
H1276 C1296 0.950 . S
H1277 C1297 0.950 . S
H1278 C1299 0.950 . S
H1279 C1302 0.950 . S
H1280 C1303 0.950 . S
H1281 C1305 0.950 . S
H1282 C1306 0.950 . S
H1283 C1307 0.951 . S
H1284 C1309 0.951 . S
H1285 C1311 0.950 . S
H1286 C1312 0.950 . S
H1287 C1314 0.950 . S
H1288 C1317 0.950 . S
H1289 C1318 0.950 . S
H1290 C1320 0.950 . S
H1291 C1321 0.950 . S
C1292 H1274 0.951 . S
C1292 C1293 1.366 . S
C1292 C1294 1.388 . S
C1293 C1292 1.366 . S
C1293 C1297 1.385 . S
C1294 H1275 0.951 . S
C1294 C1292 1.388 . S
C1294 C1295 1.366 . S
C1295 C1294 1.366 . S
C1295 C1296 1.414 . S
C1295 C1298 1.499 . S
C1296 H1276 0.950 . S
C1296 C1295 1.414 . S
C1296 C1297 1.374 . S
C1297 H1277 0.950 . S
C1297 C1293 1.385 . S
C1297 C1296 1.374 . S
C1298 C1295 1.499 . S
C1298 C1299 1.373 . S
C1298 C1300 1.389 . S
C1299 H1278 0.950 . S
C1299 C1298 1.373 . S
C1299 C1315 1.377 . S
C1300 C1298 1.389 . S
C1300 C1301 1.524 . S
C1300 C1314 1.377 . S
C1301 C1300 1.524 . S
C1301 C1302 1.397 . S
C1301 C1306 1.363 . S
C1302 H1279 0.950 . S
C1302 C1301 1.397 . S
C1302 C1303 1.334 . S
C1303 H1280 0.950 . S
C1303 C1302 1.334 . S
C1303 C1304 1.287 . S
C1304 C1303 1.287 . S
C1304 C1305 1.524 . S
C1304 H1323 0.913 . S
C1305 H1281 0.950 . S
C1305 C1304 1.524 . S
C1305 C1306 1.415 . S
C1306 H1282 0.950 . S
C1306 C1301 1.363 . S
C1306 C1305 1.415 . S
C1307 H1283 0.951 . S
C1307 C1308 1.366 . S
C1307 C1309 1.388 1_455 S
C1308 C1307 1.366 . S
C1308 C1312 1.385 . S
C1309 H1284 0.951 . S
C1309 C1307 1.388 1_655 S
C1309 C1310 1.366 . S
C1310 C1309 1.366 . S
C1310 C1311 1.414 . S
C1310 C1313 1.499 . S
C1311 H1285 0.950 . S
C1311 C1310 1.414 . S
C1311 C1312 1.374 1_655 S
C1312 H1286 0.950 . S
C1312 C1308 1.385 . S
C1312 C1311 1.374 1_455 S
C1313 C1310 1.499 . S
C1313 C1314 1.373 . S
C1313 C1315 1.389 . S
C1314 H1287 0.950 . S
C1314 C1300 1.377 . S
C1314 C1313 1.373 . S
C1315 C1299 1.377 . S
C1315 C1313 1.389 . S
C1315 C1316 1.524 . S
C1316 C1315 1.524 . S
C1316 C1317 1.397 . S
C1316 C1321 1.363 . S
C1317 H1288 0.950 . S
C1317 C1316 1.397 . S
C1317 C1318 1.334 . S
C1318 H1289 0.950 . S
C1318 C1317 1.334 . S
C1318 C1319 1.287 . S
C1319 C1318 1.287 . S
C1319 C1320 1.524 . S
C1319 H1322 0.999 . S
C1320 H1290 0.950 . S
C1320 C1319 1.524 . S
C1320 C1321 1.415 . S
C1321 H1291 0.950 . S
C1321 C1316 1.363 . S
C1321 C1320 1.415 . S
H1322 C1319 0.999 . S
H1323 C1304 0.913 . S
H1324 C1342 0.951 . S
H1325 C1344 0.951 . S
H1326 C1346 0.950 . S
H1327 C1347 0.950 . S
H1328 C1349 0.950 . S
H1329 C1352 0.950 . S
H1330 C1353 0.950 . S
H1331 C1355 0.950 . S
H1332 C1356 0.950 . S
H1333 C1357 0.951 . S
H1334 C1359 0.951 . S
H1335 C1361 0.943 1_545 S
H1336 C1362 0.950 . S
H1337 C1364 0.950 . S
H1338 C1367 0.950 . S
H1339 C1368 0.950 . S
H1340 C1370 0.950 . S
H1341 C1371 0.950 . S
C1342 H1324 0.951 . S
C1342 C1343 1.366 . S
C1342 C1344 1.388 . S
C1343 C1342 1.366 . S
C1343 C1347 1.385 . S
C1344 H1325 0.951 . S
C1344 C1342 1.388 . S
C1344 C1345 1.366 . S
C1345 C1344 1.366 . S
C1345 C1346 1.414 . S
C1345 C1348 1.499 . S
C1346 H1326 0.950 . S
C1346 C1345 1.414 . S
C1346 C1347 1.374 . S
C1347 H1327 0.950 . S
C1347 C1343 1.385 . S
C1347 C1346 1.374 . S
C1348 C1345 1.499 . S
C1348 C1349 1.373 . S
C1348 C1350 1.389 . S
C1349 H1328 0.950 . S
C1349 C1348 1.373 . S
C1349 C1365 1.377 . S
C1350 C1348 1.389 . S
C1350 C1351 1.524 . S
C1350 C1364 1.377 . S
C1351 C1350 1.524 . S
C1351 C1352 1.397 . S
C1351 C1356 1.363 . S
C1352 H1329 0.950 . S
C1352 C1351 1.397 . S
C1352 C1353 1.334 . S
C1353 H1330 0.950 . S
C1353 C1352 1.334 . S
C1353 C1354 1.287 . S
C1354 C1353 1.287 . S
C1354 C1355 1.524 . S
C1354 H1373 0.913 . S
C1355 H1331 0.950 . S
C1355 C1354 1.524 . S
C1355 C1356 1.415 . S
C1356 H1332 0.950 . S
C1356 C1351 1.363 . S
C1356 C1355 1.415 . S
C1357 H1333 0.951 . S
C1357 C1358 1.366 . S
C1357 C1359 1.388 1_565 S
C1358 C1357 1.366 . S
C1358 C1362 1.385 . S
C1359 H1334 0.951 . S
C1359 C1357 1.388 1_545 S
C1359 C1360 1.366 . S
C1360 C1359 1.366 . S
C1360 C1361 1.398 1_545 S
C1360 C1363 1.499 . S
C1361 H1335 0.943 1_565 S
C1361 C1360 1.398 1_565 S
C1361 C1362 1.398 . S
C1362 H1336 0.950 . S
C1362 C1358 1.385 . S
C1362 C1361 1.398 . S
C1363 C1360 1.499 . S
C1363 C1364 1.373 . S
C1363 C1365 1.389 . S
C1364 H1337 0.950 . S
C1364 C1350 1.377 . S
C1364 C1363 1.373 . S
C1365 C1349 1.377 . S
C1365 C1363 1.389 . S
C1365 C1366 1.524 . S
C1366 C1365 1.524 . S
C1366 C1367 1.397 1_545 S
C1366 C1371 1.363 . S
C1367 H1338 0.950 . S
C1367 C1366 1.397 1_565 S
C1367 C1368 1.334 . S
C1368 H1339 0.950 . S
C1368 C1367 1.334 . S
C1368 C1369 1.287 . S
C1369 C1368 1.287 . S
C1369 C1370 1.524 1_565 S
C1369 H1372 0.999 . S
C1370 H1340 0.950 . S
C1370 C1369 1.524 1_545 S
C1370 C1371 1.415 . S
C1371 H1341 0.950 . S
C1371 C1366 1.363 . S
C1371 C1370 1.415 . S
H1372 C1369 0.999 . S
H1373 C1354 0.913 . S
H1374 C1392 0.951 . S
H1375 C1394 0.951 . S
H1376 C1396 0.950 . S
H1377 C1397 0.950 . S
H1378 C1399 0.950 . S
H1379 C1402 0.950 . S
H1380 C1403 0.950 . S
H1381 C1405 0.950 . S
H1382 C1406 0.950 . S
H1383 C1407 0.951 . S
H1384 C1409 0.951 . S
H1385 C1411 0.950 . S
H1386 C1412 0.950 . S
H1387 C1414 0.950 . S
H1388 C1417 0.960 . S
H1389 C1418 0.950 . S
H1390 C1420 0.950 . S
H1391 C1421 0.955 . S
C1392 H1374 0.951 . S
C1392 C1393 1.366 . S
C1392 C1394 1.388 . S
C1393 C1392 1.366 . S
C1393 C1397 1.385 . S
C1394 H1375 0.951 . S
C1394 C1392 1.388 . S
C1394 C1395 1.366 . S
C1395 C1394 1.366 . S
C1395 C1396 1.414 . S
C1395 C1398 1.499 . S
C1396 H1376 0.950 . S
C1396 C1395 1.414 . S
C1396 C1397 1.374 . S
C1397 H1377 0.950 . S
C1397 C1393 1.385 . S
C1397 C1396 1.374 . S
C1398 C1395 1.499 . S
C1398 C1399 1.373 . S
C1398 C1400 1.389 . S
C1399 H1378 0.950 . S
C1399 C1398 1.373 . S
C1399 C1415 1.377 . S
C1400 C1398 1.389 . S
C1400 C1401 1.524 . S
C1400 C1414 1.377 . S
C1401 C1400 1.524 . S
C1401 C1402 1.397 . S
C1401 C1406 1.363 . S
C1402 H1379 0.950 . S
C1402 C1401 1.397 . S
C1402 C1403 1.334 . S
C1403 H1380 0.950 . S
C1403 C1402 1.334 . S
C1403 C1404 1.287 . S
C1404 C1403 1.287 . S
C1404 C1405 1.524 . S
C1404 H1423 0.913 . S
C1405 H1381 0.950 . S
C1405 C1404 1.524 . S
C1405 C1406 1.415 . S
C1406 H1382 0.950 . S
C1406 C1401 1.363 . S
C1406 C1405 1.415 . S
C1407 H1383 0.951 . S
C1407 C1408 1.366 . S
C1407 C1409 1.388 . S
C1408 C1407 1.366 . S
C1408 C1412 1.385 . S
C1409 H1384 0.951 . S
C1409 C1407 1.388 . S
C1409 C1410 1.366 1_655 S
C1410 C1409 1.366 1_455 S
C1410 C1411 1.414 . S
C1410 C1413 1.499 . S
C1411 H1385 0.950 . S
C1411 C1410 1.414 . S
C1411 C1412 1.374 1_455 S
C1412 H1386 0.950 . S
C1412 C1408 1.385 . S
C1412 C1411 1.374 1_655 S
C1413 C1410 1.499 . S
C1413 C1414 1.373 . S
C1413 C1415 1.389 . S
C1414 H1387 0.950 . S
C1414 C1400 1.377 . S
C1414 C1413 1.373 . S
C1415 C1399 1.377 . S
C1415 C1413 1.389 . S
C1415 C1416 1.524 . S
C1416 C1415 1.524 . S
C1416 C1417 1.397 1_455 S
C1416 C1421 1.365 . S
C1417 H1388 0.960 . S
C1417 C1416 1.397 1_655 S
C1417 C1418 1.334 . S
C1418 H1389 0.950 . S
C1418 C1417 1.334 . S
C1418 C1419 1.287 . S
C1419 C1418 1.287 . S
C1419 C1420 1.524 . S
C1419 H1422 0.999 . S
C1420 H1390 0.950 . S
C1420 C1419 1.524 . S
C1420 C1421 1.409 1_655 S
C1421 H1391 0.955 . S
C1421 C1416 1.365 . S
C1421 C1420 1.409 1_455 S
H1422 C1419 0.999 . S
H1423 C1404 0.913 . S
H1424 C1442 0.951 . S
H1425 C1444 0.951 . S
H1426 C1446 0.950 . S
H1427 C1447 0.950 . S
H1428 C1449 0.950 . S
H1429 C1452 0.950 . S
H1430 C1453 0.950 . S
H1431 C1455 0.950 . S
H1432 C1456 0.950 . S
H1433 C1457 0.951 . S
H1434 C1459 0.951 . S
H1435 C1461 0.950 . S
H1436 C1462 0.950 . S
H1437 C1464 0.950 . S
H1438 C1467 0.950 . S
H1439 C1468 0.950 . S
H1440 C1470 0.950 . S
H1441 C1471 0.950 . S
C1442 H1424 0.951 . S
C1442 C1443 1.366 . S
C1442 C1444 1.388 . S
C1443 C1442 1.366 . S
C1443 C1447 1.385 . S
C1444 H1425 0.951 . S
C1444 C1442 1.388 . S
C1444 C1445 1.366 . S
C1445 C1444 1.366 . S
C1445 C1446 1.414 . S
C1445 C1448 1.499 . S
C1446 H1426 0.950 . S
C1446 C1445 1.414 . S
C1446 C1447 1.374 . S
C1447 H1427 0.950 . S
C1447 C1443 1.385 . S
C1447 C1446 1.374 . S
C1448 C1445 1.499 . S
C1448 C1449 1.373 . S
C1448 C1450 1.389 . S
C1449 H1428 0.950 . S
C1449 C1448 1.373 . S
C1449 C1465 1.377 . S
C1450 C1448 1.389 . S
C1450 C1451 1.524 . S
C1450 C1464 1.377 . S
C1451 C1450 1.524 . S
C1451 C1452 1.397 . S
C1451 C1456 1.363 . S
C1452 H1429 0.950 . S
C1452 C1451 1.397 . S
C1452 C1453 1.334 . S
C1453 H1430 0.950 . S
C1453 C1452 1.334 . S
C1453 C1454 1.287 . S
C1454 C1453 1.287 . S
C1454 C1455 1.524 . S
C1454 H1473 0.913 . S
C1455 H1431 0.950 . S
C1455 C1454 1.524 . S
C1455 C1456 1.415 . S
C1456 H1432 0.950 . S
C1456 C1451 1.363 . S
C1456 C1455 1.415 . S
C1457 H1433 0.951 . S
C1457 C1458 1.366 . S
C1457 C1459 1.388 . S
C1458 C1457 1.366 . S
C1458 C1462 1.385 . S
C1459 H1434 0.951 . S
C1459 C1457 1.388 . S
C1459 C1460 1.366 . S
C1460 C1459 1.366 . S
C1460 C1461 1.414 . S
C1460 C1463 1.499 . S
C1461 H1435 0.950 . S
C1461 C1460 1.414 . S
C1461 C1462 1.374 . S
C1462 H1436 0.950 . S
C1462 C1458 1.385 . S
C1462 C1461 1.374 . S
C1463 C1460 1.499 . S
C1463 C1464 1.373 . S
C1463 C1465 1.389 . S
C1464 H1437 0.950 . S
C1464 C1450 1.377 . S
C1464 C1463 1.373 . S
C1465 C1449 1.377 . S
C1465 C1463 1.389 . S
C1465 C1466 1.524 . S
C1466 C1465 1.524 . S
C1466 C1467 1.397 . S
C1466 C1471 1.363 . S
C1467 H1438 0.950 . S
C1467 C1466 1.397 . S
C1467 C1468 1.334 . S
C1468 H1439 0.950 . S
C1468 C1467 1.334 . S
C1468 C1469 1.287 . S
C1469 C1468 1.287 . S
C1469 C1470 1.524 . S
C1469 H1472 0.999 . S
C1470 H1440 0.950 . S
C1470 C1469 1.524 . S
C1470 C1471 1.415 . S
C1471 H1441 0.950 . S
C1471 C1466 1.363 . S
C1471 C1470 1.415 . S
H1472 C1469 0.999 . S
H1473 C1454 0.913 . S
H1474 C1492 0.951 . S
H1475 C1494 0.951 . S
H1476 C1496 0.950 . S
H1477 C1497 0.950 . S
H1478 C1499 0.950 . S
H1479 C1502 0.950 . S
H1480 C1503 0.950 . S
H1481 C1505 0.950 . S
H1482 C1506 0.950 . S
H1483 C1507 0.951 . S
H1484 C1509 0.951 . S
H1485 C1511 0.950 . S
H1486 C1512 0.950 . S
H1487 C1514 0.950 . S
H1488 C1517 0.950 . S
H1489 C1518 0.950 . S
H1490 C1520 0.950 . S
H1491 C1521 0.950 . S
C1492 H1474 0.951 . S
C1492 C1493 1.366 . S
C1492 C1494 1.388 . S
C1493 C1492 1.366 . S
C1493 C1497 1.385 . S
C1494 H1475 0.951 . S
C1494 C1492 1.388 . S
C1494 C1495 1.366 . S
C1495 C1494 1.366 . S
C1495 C1496 1.414 . S
C1495 C1498 1.499 . S
C1496 H1476 0.950 . S
C1496 C1495 1.414 . S
C1496 C1497 1.374 . S
C1497 H1477 0.950 . S
C1497 C1493 1.385 . S
C1497 C1496 1.374 . S
C1498 C1495 1.499 . S
C1498 C1499 1.373 . S
C1498 C1500 1.389 . S
C1499 H1478 0.950 . S
C1499 C1498 1.373 . S
C1499 C1515 1.377 . S
C1500 C1498 1.389 . S
C1500 C1501 1.524 . S
C1500 C1514 1.377 . S
C1501 C1500 1.524 . S
C1501 C1502 1.397 . S
C1501 C1506 1.363 . S
C1502 H1479 0.950 . S
C1502 C1501 1.397 . S
C1502 C1503 1.334 . S
C1503 H1480 0.950 . S
C1503 C1502 1.334 . S
C1503 C1504 1.287 . S
C1504 C1503 1.287 . S
C1504 C1505 1.524 . S
C1504 H1523 0.913 . S
C1505 H1481 0.950 . S
C1505 C1504 1.524 . S
C1505 C1506 1.415 . S
C1506 H1482 0.950 . S
C1506 C1501 1.363 . S
C1506 C1505 1.415 . S
C1507 H1483 0.951 . S
C1507 C1508 1.366 . S
C1507 C1509 1.388 . S
C1508 C1507 1.366 . S
C1508 C1512 1.385 . S
C1509 H1484 0.951 . S
C1509 C1507 1.388 . S
C1509 C1510 1.366 . S
C1510 C1509 1.366 . S
C1510 C1511 1.414 . S
C1510 C1513 1.499 . S
C1511 H1485 0.950 . S
C1511 C1510 1.414 . S
C1511 C1512 1.374 . S
C1512 H1486 0.950 . S
C1512 C1508 1.385 . S
C1512 C1511 1.374 . S
C1513 C1510 1.499 . S
C1513 C1514 1.373 . S
C1513 C1515 1.389 . S
C1514 H1487 0.950 . S
C1514 C1500 1.377 . S
C1514 C1513 1.373 . S
C1515 C1499 1.377 . S
C1515 C1513 1.389 . S
C1515 C1516 1.524 . S
C1516 C1515 1.524 . S
C1516 C1517 1.397 . S
C1516 C1521 1.363 . S
C1517 H1488 0.950 . S
C1517 C1516 1.397 . S
C1517 C1518 1.334 . S
C1518 H1489 0.950 . S
C1518 C1517 1.334 . S
C1518 C1519 1.287 . S
C1519 C1518 1.287 . S
C1519 C1520 1.524 . S
C1519 H1522 0.999 . S
C1520 H1490 0.950 . S
C1520 C1519 1.524 . S
C1520 C1521 1.415 . S
C1521 H1491 0.950 . S
C1521 C1516 1.363 . S
C1521 C1520 1.415 . S
H1522 C1519 0.999 . S
H1523 C1504 0.913 . S
H1524 C1542 0.951 . S
H1525 C1544 0.951 . S
H1526 C1546 0.950 . S
H1527 C1547 0.950 . S
H1528 C1549 0.950 . S
H1529 C1552 0.950 . S
H1530 C1553 0.950 . S
H1531 C1555 0.950 . S
H1532 C1556 0.950 . S
H1533 C1557 0.951 . S
H1534 C1559 0.951 . S
H1535 C1561 0.950 . S
H1536 C1562 0.950 . S
H1537 C1564 0.950 . S
H1538 C1567 0.950 . S
H1539 C1568 0.950 . S
H1540 C1570 0.950 . S
H1541 C1571 0.950 . S
C1542 H1524 0.951 . S
C1542 C1543 1.366 . S
C1542 C1544 1.388 . S
C1543 C1542 1.366 . S
C1543 C1547 1.385 . S
C1544 H1525 0.951 . S
C1544 C1542 1.388 . S
C1544 C1545 1.366 . S
C1545 C1544 1.366 . S
C1545 C1546 1.414 . S
C1545 C1548 1.499 . S
C1546 H1526 0.950 . S
C1546 C1545 1.414 . S
C1546 C1547 1.374 . S
C1547 H1527 0.950 . S
C1547 C1543 1.385 . S
C1547 C1546 1.374 . S
C1548 C1545 1.499 . S
C1548 C1549 1.373 . S
C1548 C1550 1.389 . S
C1549 H1528 0.950 . S
C1549 C1548 1.373 . S
C1549 C1565 1.377 . S
C1550 C1548 1.389 . S
C1550 C1551 1.524 . S
C1550 C1564 1.377 . S
C1551 C1550 1.524 . S
C1551 C1552 1.397 . S
C1551 C1556 1.363 . S
C1552 H1529 0.950 . S
C1552 C1551 1.397 . S
C1552 C1553 1.334 . S
C1553 H1530 0.950 . S
C1553 C1552 1.334 . S
C1553 C1554 1.287 . S
C1554 C1553 1.287 . S
C1554 C1555 1.524 . S
C1554 H1573 0.913 . S
C1555 H1531 0.950 . S
C1555 C1554 1.524 . S
C1555 C1556 1.415 . S
C1556 H1532 0.950 . S
C1556 C1551 1.363 . S
C1556 C1555 1.415 . S
C1557 H1533 0.951 . S
C1557 C1558 1.366 . S
C1557 C1559 1.388 . S
C1558 C1557 1.366 . S
C1558 C1562 1.385 . S
C1559 H1534 0.951 . S
C1559 C1557 1.388 . S
C1559 C1560 1.366 . S
C1560 C1559 1.366 . S
C1560 C1561 1.414 . S
C1560 C1563 1.499 . S
C1561 H1535 0.950 . S
C1561 C1560 1.414 . S
C1561 C1562 1.374 . S
C1562 H1536 0.950 . S
C1562 C1558 1.385 . S
C1562 C1561 1.374 . S
C1563 C1560 1.499 . S
C1563 C1564 1.373 . S
C1563 C1565 1.389 . S
C1564 H1537 0.950 . S
C1564 C1550 1.377 . S
C1564 C1563 1.373 . S
C1565 C1549 1.377 . S
C1565 C1563 1.389 . S
C1565 C1566 1.524 . S
C1566 C1565 1.524 . S
C1566 C1567 1.397 . S
C1566 C1571 1.363 . S
C1567 H1538 0.950 . S
C1567 C1566 1.397 . S
C1567 C1568 1.334 . S
C1568 H1539 0.950 . S
C1568 C1567 1.334 . S
C1568 C1569 1.287 . S
C1569 C1568 1.287 . S
C1569 C1570 1.524 . S
C1569 H1572 0.999 . S
C1570 H1540 0.950 . S
C1570 C1569 1.524 . S
C1570 C1571 1.415 . S
C1571 H1541 0.950 . S
C1571 C1566 1.363 . S
C1571 C1570 1.415 . S
H1572 C1569 0.999 . S
H1573 C1554 0.913 . S
H1574 C1592 0.951 . S
H1575 C1594 0.951 . S
H1576 C1596 0.950 . S
H1577 C1597 0.950 . S
H1578 C1599 0.950 . S
H1579 C1602 0.950 . S
H1580 C1603 0.950 . S
H1581 C1605 0.950 . S
H1582 C1606 0.950 . S
H1583 C1607 0.951 . S
H1584 C1609 0.951 . S
H1585 C1611 0.950 . S
H1586 C1612 0.950 . S
H1587 C1614 0.950 . S
H1588 C1617 0.950 . S
H1589 C1618 0.950 . S
H1590 C1620 0.950 . S
H1591 C1621 0.950 . S
C1592 H1574 0.951 . S
C1592 C1593 1.366 . S
C1592 C1594 1.388 . S
C1593 C1592 1.366 . S
C1593 C1597 1.385 . S
C1594 H1575 0.951 . S
C1594 C1592 1.388 . S
C1594 C1595 1.366 . S
C1595 C1594 1.366 . S
C1595 C1596 1.414 . S
C1595 C1598 1.499 . S
C1596 H1576 0.950 . S
C1596 C1595 1.414 . S
C1596 C1597 1.374 . S
C1597 H1577 0.950 . S
C1597 C1593 1.385 . S
C1597 C1596 1.374 . S
C1598 C1595 1.499 . S
C1598 C1599 1.373 . S
C1598 C1600 1.389 . S
C1599 H1578 0.950 . S
C1599 C1598 1.373 . S
C1599 C1615 1.377 . S
C1600 C1598 1.389 . S
C1600 C1601 1.524 . S
C1600 C1614 1.377 . S
C1601 C1600 1.524 . S
C1601 C1602 1.397 . S
C1601 C1606 1.363 . S
C1602 H1579 0.950 . S
C1602 C1601 1.397 . S
C1602 C1603 1.334 . S
C1603 H1580 0.950 . S
C1603 C1602 1.334 . S
C1603 C1604 1.287 . S
C1604 C1603 1.287 . S
C1604 C1605 1.524 . S
C1604 H1623 0.913 . S
C1605 H1581 0.950 . S
C1605 C1604 1.524 . S
C1605 C1606 1.415 . S
C1606 H1582 0.950 . S
C1606 C1601 1.363 . S
C1606 C1605 1.415 . S
C1607 H1583 0.951 . S
C1607 C1608 1.366 . S
C1607 C1609 1.388 . S
C1608 C1607 1.366 . S
C1608 C1612 1.385 . S
C1609 H1584 0.951 . S
C1609 C1607 1.388 . S
C1609 C1610 1.366 . S
C1610 C1609 1.366 . S
C1610 C1611 1.414 . S
C1610 C1613 1.499 . S
C1611 H1585 0.950 . S
C1611 C1610 1.414 . S
C1611 C1612 1.374 . S
C1612 H1586 0.950 . S
C1612 C1608 1.385 . S
C1612 C1611 1.374 . S
C1613 C1610 1.499 . S
C1613 C1614 1.373 . S
C1613 C1615 1.389 . S
C1614 H1587 0.950 . S
C1614 C1600 1.377 . S
C1614 C1613 1.373 . S
C1615 C1599 1.377 . S
C1615 C1613 1.389 . S
C1615 C1616 1.524 . S
C1616 C1615 1.524 . S
C1616 C1617 1.397 . S
C1616 C1621 1.363 . S
C1617 H1588 0.950 . S
C1617 C1616 1.397 . S
C1617 C1618 1.334 . S
C1618 H1589 0.950 . S
C1618 C1617 1.334 . S
C1618 C1619 1.287 . S
C1619 C1618 1.287 . S
C1619 C1620 1.524 . S
C1619 H1622 0.999 . S
C1620 H1590 0.950 . S
C1620 C1619 1.524 . S
C1620 C1621 1.415 . S
C1621 H1591 0.950 . S
C1621 C1616 1.363 . S
C1621 C1620 1.415 . S
H1622 C1619 0.999 . S
H1623 C1604 0.913 . S
H1624 C1642 0.951 . S
H1625 C1644 0.951 1_565 S
H1626 C1646 0.950 . S
H1627 C1647 0.950 . S
H1628 C1649 0.950 . S
H1629 C1652 0.950 1_545 S
H1630 C1653 0.950 . S
H1631 C1655 0.950 . S
H1632 C1656 0.950 . S
H1633 C1657 0.951 . S
H1634 C1659 0.951 1_545 S
H1635 C1661 0.950 . S
H1636 C1662 0.950 . S
H1637 C1664 0.950 . S
H1638 C1667 0.950 1_565 S
H1639 C1668 0.950 . S
H1640 C1670 0.950 . S
H1641 C1671 0.950 . S
C1642 H1624 0.951 . S
C1642 C1643 1.366 . S
C1642 C1644 1.388 . S
C1643 C1642 1.366 . S
C1643 C1647 1.385 . S
C1644 H1625 0.951 1_545 S
C1644 C1642 1.388 . S
C1644 C1645 1.366 . S
C1645 C1644 1.366 . S
C1645 C1646 1.414 . S
C1645 C1648 1.499 . S
C1646 H1626 0.950 . S
C1646 C1645 1.414 . S
C1646 C1647 1.374 . S
C1647 H1627 0.950 . S
C1647 C1643 1.385 . S
C1647 C1646 1.374 . S
C1648 C1645 1.499 . S
C1648 C1649 1.373 . S
C1648 C1650 1.389 1_545 S
C1649 H1628 0.950 . S
C1649 C1648 1.373 . S
C1649 C1665 1.377 1_554 S
C1650 C1648 1.389 1_565 S
C1650 C1651 1.524 . S
C1650 C1664 1.377 1_554 S
C1651 C1650 1.524 . S
C1651 C1652 1.397 . S
C1651 C1656 1.363 . S
C1652 H1629 0.950 1_565 S
C1652 C1651 1.397 . S
C1652 C1653 1.334 . S
C1653 H1630 0.950 . S
C1653 C1652 1.334 . S
C1653 C1654 1.287 . S
C1654 C1653 1.287 . S
C1654 C1655 1.524 . S
C1654 H1673 0.913 . S
C1655 H1631 0.950 . S
C1655 C1654 1.524 . S
C1655 C1656 1.415 . S
C1656 H1632 0.950 . S
C1656 C1651 1.363 . S
C1656 C1655 1.415 . S
C1657 H1633 0.951 . S
C1657 C1658 1.366 . S
C1657 C1659 1.388 . S
C1658 C1657 1.366 . S
C1658 C1662 1.385 . S
C1659 H1634 0.951 1_565 S
C1659 C1657 1.388 . S
C1659 C1660 1.366 . S
C1660 C1659 1.366 . S
C1660 C1661 1.414 . S
C1660 C1663 1.499 . S
C1661 H1635 0.950 . S
C1661 C1660 1.414 . S
C1661 C1662 1.374 . S
C1662 H1636 0.950 . S
C1662 C1658 1.385 . S
C1662 C1661 1.374 . S
C1663 C1660 1.499 . S
C1663 C1664 1.373 . S
C1663 C1665 1.389 1_565 S
C1664 H1637 0.950 . S
C1664 C1650 1.377 1_556 S
C1664 C1663 1.373 . S
C1665 C1649 1.377 1_556 S
C1665 C1663 1.389 1_545 S
C1665 C1666 1.524 . S
C1666 C1665 1.524 . S
C1666 C1667 1.397 . S
C1666 C1671 1.363 . S
C1667 H1638 0.950 1_545 S
C1667 C1666 1.397 . S
C1667 C1668 1.334 . S
C1668 H1639 0.950 . S
C1668 C1667 1.334 . S
C1668 C1669 1.287 . S
C1669 C1668 1.287 . S
C1669 C1670 1.524 . S
C1669 H1672 0.999 . S
C1670 H1640 0.950 . S
C1670 C1669 1.524 . S
C1670 C1671 1.415 . S
C1671 H1641 0.950 . S
C1671 C1666 1.363 . S
C1671 C1670 1.415 . S
H1672 C1669 0.999 . S
H1673 C1654 0.913 . S
H1674 C1692 0.951 . S
H1675 C1694 0.951 . S
H1676 C1696 0.950 . S
H1677 C1697 0.950 . S
H1678 C1699 0.950 . S
H1679 C1702 0.950 . S
H1680 C1703 0.950 . S
H1681 C1705 0.950 . S
H1682 C1706 0.950 . S
H1683 C1707 0.951 . S
H1684 C1709 0.951 . S
H1685 C1711 0.950 . S
H1686 C1712 0.950 . S
H1687 C1714 0.950 . S
H1688 C1717 0.950 . S
H1689 C1718 0.950 . S
H1690 C1720 0.950 . S
H1691 C1721 0.950 . S
C1692 H1674 0.951 . S
C1692 C1693 1.366 . S
C1692 C1694 1.388 . S
C1693 C1692 1.366 . S
C1693 C1697 1.385 . S
C1694 H1675 0.951 . S
C1694 C1692 1.388 . S
C1694 C1695 1.366 . S
C1695 C1694 1.366 . S
C1695 C1696 1.414 . S
C1695 C1698 1.499 . S
C1696 H1676 0.950 . S
C1696 C1695 1.414 . S
C1696 C1697 1.374 . S
C1697 H1677 0.950 . S
C1697 C1693 1.385 . S
C1697 C1696 1.374 . S
C1698 C1695 1.499 . S
C1698 C1699 1.373 1_455 S
C1698 C1700 1.389 . S
C1699 H1678 0.950 . S
C1699 C1698 1.373 1_655 S
C1699 C1715 1.377 1_556 S
C1700 C1698 1.389 . S
C1700 C1701 1.524 . S
C1700 C1714 1.377 1_556 S
C1701 C1700 1.524 . S
C1701 C1702 1.397 . S
C1701 C1706 1.363 1_556 S
C1702 H1679 0.950 . S
C1702 C1701 1.397 . S
C1702 C1703 1.334 . S
C1703 H1680 0.950 . S
C1703 C1702 1.334 . S
C1703 C1704 1.272 1_556 S
C1704 C1703 1.272 1_554 S
C1704 C1705 1.537 . S
C1704 H1723 0.913 . S
C1705 H1681 0.950 . S
C1705 C1704 1.537 . S
C1705 C1706 1.415 . S
C1706 H1682 0.950 . S
C1706 C1701 1.363 1_554 S
C1706 C1705 1.415 . S
C1707 H1683 0.951 . S
C1707 C1708 1.366 . S
C1707 C1709 1.388 . S
C1708 C1707 1.366 . S
C1708 C1712 1.385 . S
C1709 H1684 0.951 . S
C1709 C1707 1.388 . S
C1709 C1710 1.366 . S
C1710 C1709 1.366 . S
C1710 C1711 1.414 . S
C1710 C1713 1.499 . S
C1711 H1685 0.950 . S
C1711 C1710 1.414 . S
C1711 C1712 1.374 . S
C1712 H1686 0.950 . S
C1712 C1708 1.385 . S
C1712 C1711 1.374 . S
C1713 C1710 1.499 . S
C1713 C1714 1.373 1_655 S
C1713 C1715 1.389 . S
C1714 H1687 0.950 . S
C1714 C1700 1.377 1_554 S
C1714 C1713 1.373 1_455 S
C1715 C1699 1.377 1_554 S
C1715 C1713 1.389 . S
C1715 C1716 1.524 . S
C1716 C1715 1.524 . S
C1716 C1717 1.397 . S
C1716 C1721 1.363 1_554 S
C1717 H1688 0.950 . S
C1717 C1716 1.397 . S
C1717 C1718 1.334 . S
C1718 H1689 0.950 . S
C1718 C1717 1.334 . S
C1718 C1719 1.272 1_554 S
C1719 C1718 1.272 1_556 S
C1719 C1720 1.537 . S
C1719 H1722 1.001 . S
C1720 H1690 0.950 . S
C1720 C1719 1.537 . S
C1720 C1721 1.415 . S
C1721 H1691 0.950 . S
C1721 C1716 1.363 1_556 S
C1721 C1720 1.415 . S
H1722 C1719 1.001 . S
H1723 C1704 0.913 . S
H1724 C1742 0.951 . S
H1725 C1744 0.951 . S
H1726 C1746 0.950 . S
H1727 C1747 0.950 . S
H1728 C1749 0.950 . S
H1729 C1752 0.950 . S
H1730 C1753 0.950 . S
H1731 C1755 0.950 . S
H1732 C1756 0.950 . S
H1733 C1757 0.951 . S
H1734 C1759 0.951 . S
H1735 C1761 0.950 . S
H1736 C1762 0.950 . S
H1737 C1764 0.950 . S
H1738 C1767 0.950 . S
H1739 C1768 0.950 . S
H1740 C1770 0.950 . S
H1741 C1771 0.950 . S
C1742 H1724 0.951 . S
C1742 C1743 1.366 . S
C1742 C1744 1.388 . S
C1743 C1742 1.366 . S
C1743 C1747 1.385 . S
C1744 H1725 0.951 . S
C1744 C1742 1.388 . S
C1744 C1745 1.366 . S
C1745 C1744 1.366 . S
C1745 C1746 1.414 . S
C1745 C1748 1.499 . S
C1746 H1726 0.950 . S
C1746 C1745 1.414 . S
C1746 C1747 1.374 . S
C1747 H1727 0.950 . S
C1747 C1743 1.385 . S
C1747 C1746 1.374 . S
C1748 C1745 1.499 . S
C1748 C1749 1.373 . S
C1748 C1750 1.389 1_545 S
C1749 H1728 0.950 . S
C1749 C1748 1.373 . S
C1749 C1765 1.377 1_556 S
C1750 C1748 1.389 1_565 S
C1750 C1751 1.524 . S
C1750 C1764 1.377 1_556 S
C1751 C1750 1.524 . S
C1751 C1752 1.397 . S
C1751 C1756 1.363 . S
C1752 H1729 0.950 . S
C1752 C1751 1.397 . S
C1752 C1753 1.334 . S
C1753 H1730 0.950 . S
C1753 C1752 1.334 . S
C1753 C1754 1.287 . S
C1754 C1753 1.287 . S
C1754 C1755 1.524 . S
C1754 H1773 0.913 . S
C1755 H1731 0.950 . S
C1755 C1754 1.524 . S
C1755 C1756 1.415 . S
C1756 H1732 0.950 . S
C1756 C1751 1.363 . S
C1756 C1755 1.415 . S
C1757 H1733 0.951 . S
C1757 C1758 1.366 . S
C1757 C1759 1.388 . S
C1758 C1757 1.366 . S
C1758 C1762 1.385 . S
C1759 H1734 0.951 . S
C1759 C1757 1.388 . S
C1759 C1760 1.366 . S
C1760 C1759 1.366 . S
C1760 C1761 1.414 . S
C1760 C1763 1.499 . S
C1761 H1735 0.950 . S
C1761 C1760 1.414 . S
C1761 C1762 1.374 . S
C1762 H1736 0.950 . S
C1762 C1758 1.385 . S
C1762 C1761 1.374 . S
C1763 C1760 1.499 . S
C1763 C1764 1.373 . S
C1763 C1765 1.389 1_565 S
C1764 H1737 0.950 . S
C1764 C1750 1.377 1_554 S
C1764 C1763 1.373 . S
C1765 C1749 1.377 1_554 S
C1765 C1763 1.389 1_545 S
C1765 C1766 1.524 . S
C1766 C1765 1.524 . S
C1766 C1767 1.397 . S
C1766 C1771 1.363 . S
C1767 H1738 0.950 . S
C1767 C1766 1.397 . S
C1767 C1768 1.334 . S
C1768 H1739 0.950 . S
C1768 C1767 1.334 . S
C1768 C1769 1.287 . S
C1769 C1768 1.287 . S
C1769 C1770 1.524 . S
C1769 H1772 0.999 . S
C1770 H1740 0.950 . S
C1770 C1769 1.524 . S
C1770 C1771 1.415 . S
C1771 H1741 0.950 . S
C1771 C1766 1.363 . S
C1771 C1770 1.415 . S
H1772 C1769 0.999 . S
H1773 C1754 0.913 . S
H1774 C1792 0.951 . S
H1775 C1794 0.951 . S
H1776 C1796 0.950 1_455 S
H1777 C1797 0.950 . S
H1778 C1799 0.950 . S
H1779 C1802 0.950 . S
H1780 C1803 0.950 . S
H1781 C1805 0.950 . S
H1782 C1806 0.950 . S
H1783 C1807 0.951 . S
H1784 C1809 0.951 . S
H1785 C1811 0.950 1_655 S
H1786 C1812 0.950 . S
H1787 C1814 0.950 . S
H1788 C1817 0.950 . S
H1789 C1818 0.950 . S
H1790 C1820 0.950 . S
H1791 C1821 0.950 . S
C1792 H1774 0.951 . S
C1792 C1793 1.366 . S
C1792 C1794 1.388 . S
C1793 C1792 1.366 . S
C1793 C1797 1.385 . S
C1794 H1775 0.951 . S
C1794 C1792 1.388 . S
C1794 C1795 1.366 . S
C1795 C1794 1.366 . S
C1795 C1796 1.414 . S
C1795 C1798 1.499 . S
C1796 H1776 0.950 1_655 S
C1796 C1795 1.414 . S
C1796 C1797 1.374 . S
C1797 H1777 0.950 . S
C1797 C1793 1.385 . S
C1797 C1796 1.374 . S
C1798 C1795 1.499 . S
C1798 C1799 1.373 1_655 S
C1798 C1800 1.389 . S
C1799 H1778 0.950 . S
C1799 C1798 1.373 1_455 S
C1799 C1815 1.377 1_556 S
C1800 C1798 1.389 . S
C1800 C1801 1.524 . S
C1800 C1814 1.377 1_556 S
C1801 C1800 1.524 . S
C1801 C1802 1.397 . S
C1801 C1806 1.363 1_556 S
C1802 H1779 0.950 . S
C1802 C1801 1.397 . S
C1802 C1803 1.334 . S
C1803 H1780 0.950 . S
C1803 C1802 1.334 . S
C1803 C1804 1.287 . S
C1804 C1803 1.287 . S
C1804 C1805 1.524 1_556 S
C1804 H1823 0.913 . S
C1805 H1781 0.950 . S
C1805 C1804 1.524 1_554 S
C1805 C1806 1.415 . S
C1806 H1782 0.950 . S
C1806 C1801 1.363 1_554 S
C1806 C1805 1.415 . S
C1807 H1783 0.951 . S
C1807 C1808 1.366 . S
C1807 C1809 1.388 . S
C1808 C1807 1.366 . S
C1808 C1812 1.385 . S
C1809 H1784 0.951 . S
C1809 C1807 1.388 . S
C1809 C1810 1.366 . S
C1810 C1809 1.366 . S
C1810 C1811 1.414 . S
C1810 C1813 1.499 . S
C1811 H1785 0.950 1_455 S
C1811 C1810 1.414 . S
C1811 C1812 1.374 . S
C1812 H1786 0.950 . S
C1812 C1808 1.385 . S
C1812 C1811 1.374 . S
C1813 C1810 1.499 . S
C1813 C1814 1.373 1_455 S
C1813 C1815 1.389 . S
C1814 H1787 0.950 . S
C1814 C1800 1.377 1_554 S
C1814 C1813 1.373 1_655 S
C1815 C1799 1.377 1_554 S
C1815 C1813 1.389 . S
C1815 C1816 1.524 . S
C1816 C1815 1.524 . S
C1816 C1817 1.397 . S
C1816 C1821 1.363 1_554 S
C1817 H1788 0.950 . S
C1817 C1816 1.397 . S
C1817 C1818 1.334 . S
C1818 H1789 0.950 . S
C1818 C1817 1.334 . S
C1818 C1819 1.287 . S
C1819 C1818 1.287 . S
C1819 C1820 1.524 1_554 S
C1819 H1822 0.999 . S
C1820 H1790 0.950 . S
C1820 C1819 1.524 1_556 S
C1820 C1821 1.415 . S
C1821 H1791 0.950 . S
C1821 C1816 1.363 1_556 S
C1821 C1820 1.415 . S
H1822 C1819 0.999 . S
H1823 C1804 0.913 . S
C243 C11 1.115 . S
C258 C109 1.115 . S
C293 C25 1.114 . S
C308 C67 1.115 . S
C343 C81 1.115 . S
C358 C39 1.114 . S
C393 C53 1.115 . S
C408 C95 1.115 . S
C443 C123 1.114 . S
C458 C221 1.115 . S
C493 C179 1.115 . S
C508 C137 1.114 . S
C543 C193 1.115 . S
C558 C151 1.115 . S
C593 C207 1.114 . S
C608 C165 1.115 . S
C643 C8 0.923 . S
C658 C161 0.959 . S
C693 C22 0.922 . S
C708 C119 0.959 . S
C743 C133 0.960 . S
C758 C36 0.923 . S
C793 C50 0.924 . S
C808 C147 0.959 . S
C843 C64 0.922 . S
C858 C189 0.960 . S
C893 C203 0.960 . S
C908 C78 0.922 . S
C943 C92 0.924 . S
C958 C217 0.959 . S
C993 C175 0.960 . S
C1008 C106 0.923 . S
C1043 C120 0.924 . S
C1058 C49 0.959 . S
C1093 C7 0.960 . S
C1108 C134 0.922 . S
C1143 C148 0.923 . S
C1158 C21 0.960 . S
C1193 C35 0.959 . S
C1208 C162 0.924 . S
C1243 C176 0.923 . S
C1258 C77 0.959 . S
C1293 C91 0.960 . S
C1308 C190 0.923 . S
C1343 C105 0.959 . S
C1358 C204 0.922 . S
C1393 C63 0.959 . S
C1408 C218 0.922 . S
C1443 C69 1.496 . S
C1458 C13 1.496 . S
C1493 C83 1.496 . S
C1508 C27 1.496 . S
C1543 C41 1.495 . S
C1558 C97 1.496 . S
C1593 C111 1.495 . S
C1608 C55 1.496 . S
C1643 C181 1.495 . S
C1658 C125 1.497 . S
C1693 C195 1.495 . S
C1708 C139 1.495 . S
C1743 C153 1.496 . S
C1758 C209 1.496 . S
C1793 C223 1.495 . S
C1808 C167 1.496 . S
