# Generated by pormake.
# Topology zft, (5)-cn, num edge types: 1
# Building blocks:
#     Node 0, Type 0, BuildingBlock: XOMCOT_clean_sbu_0, # of connection points: 5
#     Node 1, Type 0, BuildingBlock: XOMCOT_clean_sbu_0, # of connection points: 5
#     Node 2, Type 0, BuildingBlock: XOMCOT_clean_sbu_0, # of connection points: 5
#     Node 3, Type 0, BuildingBlock: XOMCOT_clean_sbu_0, # of connection points: 5
#     Node 4, Type 0, BuildingBlock: XOMCOT_clean_sbu_0, # of connection points: 5
#     Node 5, Type 0, BuildingBlock: XOMCOT_clean_sbu_0, # of connection points: 5
#     Node 6, Type 0, BuildingBlock: XOMCOT_clean_sbu_0, # of connection points: 5
#     Node 7, Type 0, BuildingBlock: XOMCOT_clean_sbu_0, # of connection points: 5
#     Edge 8, Type (0, 0), BuildingBlock: MIFKUJ_clean_linker_0, # of connection points: 2
#     Edge 9, Type (0, 0), BuildingBlock: MIFKUJ_clean_linker_0, # of connection points: 2
#     Edge 10, Type (0, 0), BuildingBlock: MIFKUJ_clean_linker_0, # of connection points: 2
#     Edge 11, Type (0, 0), BuildingBlock: MIFKUJ_clean_linker_0, # of connection points: 2
#     Edge 12, Type (0, 0), BuildingBlock: MIFKUJ_clean_linker_0, # of connection points: 2
#     Edge 13, Type (0, 0), BuildingBlock: MIFKUJ_clean_linker_0, # of connection points: 2
#     Edge 14, Type (0, 0), BuildingBlock: MIFKUJ_clean_linker_0, # of connection points: 2
#     Edge 15, Type (0, 0), BuildingBlock: MIFKUJ_clean_linker_0, # of connection points: 2
#     Edge 16, Type (0, 0), BuildingBlock: MIFKUJ_clean_linker_0, # of connection points: 2
#     Edge 17, Type (0, 0), BuildingBlock: MIFKUJ_clean_linker_0, # of connection points: 2
#     Edge 18, Type (0, 0), BuildingBlock: MIFKUJ_clean_linker_0, # of connection points: 2
#     Edge 19, Type (0, 0), BuildingBlock: MIFKUJ_clean_linker_0, # of connection points: 2
#     Edge 20, Type (0, 0), BuildingBlock: MIFKUJ_clean_linker_0, # of connection points: 2
#     Edge 21, Type (0, 0), BuildingBlock: MIFKUJ_clean_linker_0, # of connection points: 2
#     Edge 22, Type (0, 0), BuildingBlock: MIFKUJ_clean_linker_0, # of connection points: 2
#     Edge 23, Type (0, 0), BuildingBlock: MIFKUJ_clean_linker_0, # of connection points: 2
#     Edge 24, Type (0, 0), BuildingBlock: MIFKUJ_clean_linker_0, # of connection points: 2
#     Edge 25, Type (0, 0), BuildingBlock: MIFKUJ_clean_linker_0, # of connection points: 2
#     Edge 26, Type (0, 0), BuildingBlock: MIFKUJ_clean_linker_0, # of connection points: 2
#     Edge 27, Type (0, 0), BuildingBlock: MIFKUJ_clean_linker_0, # of connection points: 2
# Relax obj value: 0.077
# Max RMSD: 0.162
# Mean RMSD: 0.162
data_MOF--net-zft--node1-XOMCOT_clean_sbu_0--edge1-MIFKUJ_clean_linker_0
_symmetry_space_group_name_H-M    P1
_symmetry_Int_Tables_number       1
_symmetry_cell_setting            triclinic
loop_
_symmetry_equiv_pos_as_xyz
'x, y, z'
_cell_length_a     35.738634
_cell_length_b     35.738239
_cell_length_c     65.08369
_cell_angle_alpha  89.981203
_cell_angle_beta   90.097705
_cell_angle_gamma 90.037444
loop_
_atom_site_label
_atom_site_type_symbol
_atom_site_fract_x
_atom_site_fract_y
_atom_site_fract_z
_atom_type_partial_charge
Co0 Co 0.1395 0.27006 0.17047 0.0
C1 C 0.18575 0.32857 0.15081 0.0
C2 C 0.21581 0.27691 0.15407 0.0
C3 C 0.23981 0.30359 0.14639 0.0
N4 N 0.18196 0.2926 0.15682 0.0
N5 N 0.22098 0.33617 0.14448 0.0
H6 H 0.16371 0.34917 0.15209 0.0
H7 H 0.22306 0.24847 0.15812 0.0
C8 C 0.14028 0.1932 0.1517 0.0
O9 O 0.10499 0.19759 0.14655 0.0
N10 N 0.09727 0.24738 0.1851 0.0
C11 C 0.06768 0.26567 0.19324 0.0
C12 C 0.04473 0.24055 0.203 0.0
C13 C 0.09287 0.21147 0.19144 0.0
N14 N 0.06049 0.20649 0.20178 0.0
C15 C 0.07684 0.2954 0.14635 0.0
C16 C 0.10228 0.27013 0.10877 0.0
C17 C 0.06656 0.28614 0.10999 0.0
C18 C 0.05431 0.29959 0.12901 0.0
C19 C 0.12379 0.26603 0.12666 0.0
N20 N 0.11005 0.27672 0.14539 0.0
H21 H 0.06768 0.30802 0.1604 0.0
H22 H 0.15125 0.25358 0.1255 0.0
H23 H 0.06334 0.29555 0.19296 0.0
H24 H 0.11287 0.18934 0.18887 0.0
O25 O 0.12889 0.31742 0.18339 0.0
O26 O 0.16623 0.27371 0.1963 0.0
O27 O 0.15762 0.21893 0.16152 0.0
C28 C 0.15125 0.3068 0.19805 0.0
H29 H 0.26911 0.29942 0.14292 0.0
H30 H 0.01888 0.24698 0.21089 0.0
H31 H 0.11317 0.26024 0.09423 0.0
H32 H 0.0277 0.31388 0.13041 0.0
Co33 Co 0.25399 0.63707 0.42115 0.0
C34 C 0.19646 0.68545 0.40268 0.0
C35 C 0.24836 0.71488 0.40657 0.0
C36 C 0.2216 0.73977 0.3998 0.0
N37 N 0.23252 0.68088 0.40836 0.0
N38 N 0.18887 0.72129 0.39751 0.0
H39 H 0.17575 0.66341 0.40351 0.0
H40 H 0.27685 0.72158 0.41081 0.0
C41 C 0.33357 0.63507 0.40596 0.0
O42 O 0.33013 0.59882 0.4031 0.0
N43 N 0.27516 0.59318 0.43465 0.0
C44 C 0.25942 0.55903 0.43649 0.0
C45 C 0.28343 0.53595 0.447 0.0
C46 C 0.30789 0.59072 0.44512 0.0
N47 N 0.31411 0.5557 0.45224 0.0
C48 C 0.21687 0.58429 0.39484 0.0
C49 C 0.25892 0.5968 0.35996 0.0
C50 C 0.23182 0.56851 0.35974 0.0
C51 C 0.20987 0.56315 0.37724 0.0
C52 C 0.26436 0.61798 0.37783 0.0
N53 N 0.24552 0.6096 0.39553 0.0
H54 H 0.19875 0.58033 0.40787 0.0
H55 H 0.28349 0.64128 0.37718 0.0
H56 H 0.23213 0.55105 0.43105 0.0
H57 H 0.32733 0.61372 0.4469 0.0
O58 O 0.20668 0.62733 0.4343 0.0
O59 O 0.25187 0.66221 0.44755 0.0
O60 O 0.30577 0.65421 0.41251 0.0
C61 C 0.21816 0.64865 0.44918 0.0
H62 H 0.22582 0.7694 0.39728 0.0
H63 H 0.27854 0.50678 0.45061 0.0
H64 H 0.27524 0.60292 0.34636 0.0
H65 H 0.18778 0.54237 0.37745 0.0
Co66 Co 0.8834 0.7533 0.66858 0.0
C67 C 0.83313 0.70012 0.64792 0.0
C68 C 0.80555 0.75244 0.6535 0.0
C69 C 0.77978 0.72741 0.64573 0.0
N70 N 0.83893 0.73522 0.65487 0.0
N71 N 0.79711 0.69438 0.64238 0.0
H72 H 0.85437 0.67857 0.64823 0.0
H73 H 0.7998 0.78054 0.65877 0.0
C74 C 0.88819 0.8341 0.6551 0.0
O75 O 0.92428 0.83014 0.65191 0.0
N76 N 0.92812 0.77086 0.68301 0.0
C77 C 0.95949 0.75088 0.68662 0.0
C78 C 0.98438 0.77236 0.69749 0.0
C79 C 0.9338 0.80371 0.69301 0.0
N80 N 0.96849 0.80577 0.70131 0.0
C81 C 0.93688 0.71845 0.64201 0.0
C82 C 0.92341 0.76111 0.60742 0.0
C83 C 0.95221 0.73445 0.6069 0.0
C84 C 0.95823 0.71253 0.62443 0.0
C85 C 0.90252 0.76601 0.62545 0.0
N86 N 0.91107 0.74651 0.64294 0.0
H87 H 0.94081 0.69967 0.65472 0.0
H88 H 0.87922 0.78518 0.62514 0.0
H89 H 0.96402 0.72209 0.68249 0.0
H90 H 0.91331 0.82588 0.69397 0.0
O91 O 0.89051 0.70408 0.68014 0.0
O92 O 0.85785 0.74944 0.6948 0.0
O93 O 0.86853 0.80645 0.66137 0.0
C94 C 0.86971 0.71499 0.69533 0.0
H95 H 0.75031 0.73287 0.6434 0.0
H96 H 1.01193 0.76372 0.70254 0.0
H97 H 0.91664 0.77756 0.59394 0.0
H98 H 0.97956 0.69103 0.62473 0.0
Co99 Co 0.77046 0.38695 0.92069 0.0
C100 C 0.82805 0.33945 0.90152 0.0
C101 C 0.77593 0.31014 0.90464 0.0
C102 C 0.80272 0.28535 0.89786 0.0
N103 N 0.79188 0.34402 0.90695 0.0
N104 N 0.8356 0.30373 0.89609 0.0
H105 H 0.84893 0.36125 0.90284 0.0
H106 H 0.74737 0.30334 0.90864 0.0
C107 C 0.69157 0.38724 0.90421 0.0
O108 O 0.6952 0.42293 0.89977 0.0
N109 N 0.74928 0.42981 0.9353 0.0
C110 C 0.76837 0.45993 0.94222 0.0
C111 C 0.74527 0.48156 0.95409 0.0
C112 C 0.71492 0.43307 0.94397 0.0
N113 N 0.71165 0.46474 0.95519 0.0
C114 C 0.79999 0.44627 0.89585 0.0
C115 C 0.76582 0.42626 0.85939 0.0
C116 C 0.78678 0.4595 0.8601 0.0
C117 C 0.80486 0.46866 0.87854 0.0
C118 C 0.76187 0.40446 0.87718 0.0
N119 N 0.7768 0.41597 0.89549 0.0
H120 H 0.81581 0.45299 0.90938 0.0
H121 H 0.74647 0.3785 0.87623 0.0
H122 H 0.79782 0.46512 0.94012 0.0
H123 H 0.69334 0.41193 0.94306 0.0
O124 O 0.81852 0.39677 0.93309 0.0
O125 O 0.77454 0.36066 0.94663 0.0
O126 O 0.71862 0.36933 0.91253 0.0
C127 C 0.80811 0.37474 0.94791 0.0
H128 H 0.79847 0.2558 0.89511 0.0
H129 H 0.75295 0.50741 0.96168 0.0
H130 H 0.75215 0.41739 0.84536 0.0
H131 H 0.82324 0.4927 0.87956 0.0
Co132 Co 0.63704 0.25573 0.5846 0.0
C133 C 0.68177 0.19846 0.60616 0.0
C134 C 0.71255 0.24949 0.60208 0.0
C135 C 0.73615 0.2229 0.61024 0.0
N136 N 0.67851 0.23412 0.59955 0.0
N137 N 0.71692 0.19061 0.61271 0.0
H138 H 0.65913 0.17842 0.60539 0.0
H139 H 0.7203 0.27738 0.59724 0.0
C140 C 0.63343 0.33422 0.60083 0.0
O141 O 0.5972 0.32963 0.60326 0.0
N142 N 0.59582 0.27728 0.56874 0.0
C143 C 0.56529 0.25912 0.56161 0.0
C144 C 0.545 0.28272 0.54926 0.0
C145 C 0.59432 0.31138 0.55961 0.0
N146 N 0.56316 0.31566 0.54804 0.0
C147 C 0.57576 0.22513 0.60768 0.0
C148 C 0.59141 0.26046 0.64444 0.0
C149 C 0.55852 0.23915 0.64279 0.0
C150 C 0.5516 0.22041 0.62426 0.0
C151 C 0.61501 0.26421 0.62739 0.0
N152 N 0.60559 0.24886 0.60884 0.0
H153 H 0.57082 0.20881 0.5941 0.0
H154 H 0.6407 0.27985 0.62911 0.0
H155 H 0.55879 0.23003 0.56404 0.0
H156 H 0.61618 0.33222 0.56072 0.0
O157 O 0.62828 0.2081 0.5715 0.0
O158 O 0.66603 0.25228 0.55952 0.0
O159 O 0.65339 0.30747 0.59372 0.0
C160 C 0.65151 0.21905 0.55738 0.0
H161 H 0.76578 0.22669 0.61295 0.0
H162 H 0.51897 0.27592 0.5416 0.0
H163 H 0.59865 0.27456 0.65862 0.0
H164 H 0.52795 0.20167 0.62263 0.0
Co165 Co 0.27014 0.13772 0.83458 0.0
C166 C 0.32625 0.184 0.8557 0.0
C167 C 0.27807 0.21619 0.84692 0.0
C168 C 0.3057 0.24038 0.85348 0.0
N169 N 0.2911 0.18091 0.84822 0.0
N170 N 0.33591 0.22005 0.85894 0.0
H171 H 0.34547 0.1607 0.85696 0.0
H172 H 0.25153 0.22395 0.84015 0.0
C173 C 0.19156 0.13424 0.85118 0.0
O174 O 0.1958 0.0981 0.85413 0.0
N175 N 0.2496 0.09446 0.82 0.0
C176 C 0.26908 0.06425 0.81362 0.0
C177 C 0.24654 0.04211 0.80166 0.0
C178 C 0.21558 0.09073 0.8109 0.0
N179 N 0.21288 0.05866 0.79995 0.0
C180 C 0.30426 0.07998 0.85876 0.0
C181 C 0.26701 0.09412 0.89506 0.0
C182 C 0.29 0.06237 0.89377 0.0
C183 C 0.30978 0.05636 0.87551 0.0
C184 C 0.26243 0.11723 0.87782 0.0
N185 N 0.27875 0.1083 0.85947 0.0
H186 H 0.32118 0.07569 0.84535 0.0
H187 H 0.24544 0.14206 0.87924 0.0
H188 H 0.2984 0.05922 0.81624 0.0
H189 H 0.19374 0.11162 0.81152 0.0
O190 O 0.31784 0.13009 0.82134 0.0
O191 O 0.27153 0.1645 0.80873 0.0
O192 O 0.2184 0.15365 0.84373 0.0
C193 C 0.3055 0.15182 0.80683 0.0
H194 H 0.30441 0.27064 0.85326 0.0
H195 H 0.25454 0.01595 0.79454 0.0
H196 H 0.25216 0.10073 0.90909 0.0
H197 H 0.32976 0.0337 0.87419 0.0
Co198 Co 0.38952 0.77176 0.08521 0.0
C199 C 0.33958 0.82712 0.10405 0.0
C200 C 0.30898 0.77994 0.09237 0.0
C201 C 0.28381 0.80727 0.09808 0.0
N202 N 0.34386 0.79256 0.09605 0.0
N203 N 0.30319 0.83681 0.10539 0.0
H204 H 0.36262 0.84597 0.10719 0.0
H205 H 0.30243 0.75388 0.08472 0.0
C206 C 0.39049 0.69214 0.10025 0.0
O207 O 0.42628 0.6959 0.10446 0.0
N208 N 0.4353 0.75112 0.07358 0.0
C209 C 0.46983 0.76637 0.07364 0.0
C210 C 0.494 0.74279 0.0636 0.0
C211 C 0.4388 0.71915 0.06257 0.0
N212 N 0.47459 0.71291 0.0568 0.0
C213 C 0.43824 0.80967 0.11345 0.0
C214 C 0.42346 0.76627 0.1476 0.0
C215 C 0.4514 0.79368 0.14877 0.0
C216 C 0.45778 0.81637 0.13164 0.0
C217 C 0.40386 0.76115 0.12916 0.0
N218 N 0.41354 0.78062 0.11184 0.0
H219 H 0.44323 0.82804 0.10062 0.0
H220 H 0.3809 0.74158 0.12899 0.0
H221 H 0.47741 0.79309 0.08 0.0
H222 H 0.41579 0.70032 0.05936 0.0
O223 O 0.39991 0.81936 0.07238 0.0
O224 O 0.36809 0.77313 0.05786 0.0
O225 O 0.37186 0.71988 0.09317 0.0
C226 C 0.38092 0.80716 0.05672 0.0
H227 H 0.25374 0.80621 0.09616 0.0
H228 H 0.52361 0.74754 0.06129 0.0
H229 H 0.41659 0.74931 0.16086 0.0
H230 H 0.47839 0.8386 0.13212 0.0
Co231 Co 0.75508 0.88929 0.33376 0.0
C232 C 0.69511 0.84216 0.35119 0.0
C233 C 0.74822 0.81426 0.35239 0.0
C234 C 0.72101 0.79005 0.35932 0.0
N235 N 0.73194 0.84692 0.34729 0.0
N236 N 0.68748 0.80746 0.3584 0.0
H237 H 0.67417 0.86314 0.34789 0.0
H238 H 0.77758 0.80786 0.35058 0.0
C239 C 0.83402 0.89086 0.34973 0.0
O240 O 0.83077 0.92726 0.352 0.0
N241 N 0.77786 0.93157 0.31954 0.0
C242 C 0.76212 0.96516 0.31563 0.0
C243 C 0.78555 0.98561 0.30326 0.0
C244 C 0.81033 0.93181 0.30881 0.0
N245 N 0.8159 0.96472 0.29904 0.0
C246 C 0.71949 0.94538 0.35852 0.0
C247 C 0.75877 0.93217 0.39437 0.0
C248 C 0.73296 0.96162 0.39379 0.0
C249 C 0.71246 0.96745 0.37576 0.0
C250 C 0.76432 0.9102 0.37683 0.0
N251 N 0.74684 0.9187 0.35869 0.0
H252 H 0.7022 0.94951 0.34516 0.0
H253 H 0.78239 0.88616 0.37805 0.0
H254 H 0.7348 0.97412 0.32048 0.0
H255 H 0.82904 0.9081 0.30773 0.0
O256 O 0.70859 0.89974 0.31984 0.0
O257 O 0.75295 0.86235 0.30791 0.0
O258 O 0.80623 0.87162 0.34317 0.0
C259 C 0.72004 0.87736 0.30546 0.0
H260 H 0.72571 0.76157 0.36431 0.0
H261 H 0.78053 0.01373 0.29772 0.0
H262 H 0.77388 0.9257 0.40836 0.0
H263 H 0.69136 0.98914 0.3749 0.0
H264 H 0.21153 0.30404 0.22395 0.0
H265 H 0.22808 0.34895 0.25088 0.0
H266 H 0.12686 0.41086 0.23836 0.0
H267 H 0.11123 0.36705 0.21086 0.0
H268 H 0.17975 0.45773 0.24259 0.0
H269 H 0.1397 0.35209 0.28215 0.0
H270 H 0.13851 0.28625 0.29348 0.0
H271 H 0.25381 0.2939 0.31168 0.0
H272 H 0.25582 0.35969 0.3002 0.0
H273 H 0.16685 0.5557 0.33891 0.0
H274 H 0.15666 0.51196 0.31036 0.0
H275 H 0.27351 0.48209 0.31161 0.0
H276 H 0.28403 0.52656 0.33987 0.0
H277 H 0.21663 0.41972 0.31308 0.0
H278 H 0.2526 0.52898 0.27431 0.0
H279 H 0.24901 0.5954 0.26425 0.0
H280 H 0.13429 0.5808 0.24624 0.0
H281 H 0.13703 0.51438 0.25649 0.0
C282 C 0.19271 0.32708 0.22709 0.0
C283 C 0.16007 0.33204 0.21536 0.0
C284 C 0.20211 0.3527 0.24253 0.0
C285 C 0.17854 0.3832 0.24688 0.0
C286 C 0.14564 0.38773 0.2353 0.0
C287 C 0.13662 0.36257 0.21964 0.0
C288 C 0.18843 0.411 0.26306 0.0
C289 C 0.18737 0.44927 0.25805 0.0
C290 C 0.19912 0.40023 0.2832 0.0
C291 C 0.19802 0.36069 0.29011 0.0
C292 C 0.16488 0.33964 0.28842 0.0
C293 C 0.16405 0.30235 0.2949 0.0
C294 C 0.1961 0.28587 0.30324 0.0
C295 C 0.22903 0.30669 0.30518 0.0
C296 C 0.23002 0.34398 0.2987 0.0
C297 C 0.19039 0.54007 0.33291 0.0
C298 C 0.22623 0.54447 0.34148 0.0
C299 C 0.18456 0.51519 0.31665 0.0
C300 C 0.21435 0.49385 0.30895 0.0
C301 C 0.25023 0.49837 0.31738 0.0
C302 C 0.25623 0.52385 0.33337 0.0
C303 C 0.20755 0.46599 0.29253 0.0
C304 C 0.20916 0.42787 0.29755 0.0
C305 C 0.19663 0.47687 0.27254 0.0
C306 C 0.19492 0.5168 0.26637 0.0
C307 C 0.22649 0.54002 0.2684 0.0
C308 C 0.22464 0.57765 0.26262 0.0
C309 C 0.19141 0.59234 0.25467 0.0
C310 C 0.15999 0.5694 0.25243 0.0
C311 C 0.1617 0.53175 0.25821 0.0
H312 H 0.19004 0.62148 0.25019 0.0
H313 H 0.19539 0.257 0.30825 0.0
H314 H 0.97672 0.6685 0.59034 0.0
H315 H 0.02251 0.65994 0.56299 0.0
H316 H 0.02741 0.77932 0.5538 0.0
H317 H 0.98191 0.78828 0.58157 0.0
H318 H 0.02834 0.73811 0.51669 0.0
H319 H 0.09362 0.74245 0.58082 0.0
H320 H 0.10599 0.72534 0.6169 0.0
H321 H 0.12499 0.6113 0.599 0.0
H322 H 0.11213 0.62761 0.56284 0.0
H323 H 0.23328 0.69228 0.48289 0.0
H324 H 0.18883 0.71304 0.50926 0.0
H325 H 0.10099 0.65023 0.47958 0.0
H326 H 0.14492 0.62947 0.45333 0.0
H327 H 0.14586 0.67353 0.53675 0.0
H328 H 0.01987 0.70183 0.48207 0.0
H329 H 1.00931 0.72124 0.44612 0.0
H330 H 0.11598 0.7765 0.44536 0.0
H331 H 0.12684 0.7582 0.4814 0.0
C332 C 0.98746 0.69301 0.58253 0.0
C333 C 0.9761 0.72915 0.58841 0.0
C334 C 0.01352 0.68803 0.56683 0.0
C335 C 0.02878 0.71902 0.5566 0.0
C336 C 0.01601 0.75504 0.56156 0.0
C337 C 0.98994 0.76009 0.57739 0.0
C338 C 0.05953 0.71356 0.5416 0.0
C339 C 0.05408 0.72411 0.52104 0.0
C340 C 0.09348 0.69609 0.54743 0.0
C341 C 0.10163 0.68622 0.56913 0.0
C342 C 0.10017 0.71367 0.58459 0.0
C343 C 0.1073 0.70412 0.60506 0.0
C344 C 0.1162 0.66724 0.61024 0.0
C345 C 0.11807 0.63985 0.59496 0.0
C346 C 0.1109 0.64924 0.57447 0.0
C347 C 0.20455 0.68273 0.4821 0.0
C348 C 0.19261 0.65928 0.46603 0.0
C349 C 0.17922 0.69462 0.49714 0.0
C350 C 0.14151 0.68361 0.49618 0.0
C351 C 0.12981 0.65954 0.48042 0.0
C352 C 0.15506 0.64752 0.4655 0.0
C353 C 0.11418 0.69688 0.51168 0.0
C354 C 0.12027 0.6878 0.53237 0.0
C355 C 0.08111 0.71617 0.50597 0.0
C356 C 0.07429 0.72831 0.48444 0.0
C357 C 0.04096 0.71836 0.47429 0.0
C358 C 0.03493 0.72915 0.45389 0.0
C359 C 0.06201 0.74999 0.44347 0.0
C360 C 0.09508 0.76027 0.45344 0.0
C361 C 0.10118 0.74969 0.47386 0.0
H362 H 0.05734 0.75827 0.42769 0.0
H363 H 0.12172 0.6599 0.6261 0.0
H364 H 0.78722 0.53596 0.85952 0.0
H365 H 0.79774 0.57727 0.83035 0.0
H366 H 0.80389 0.48174 0.79001 0.0
H367 H 0.79508 0.43989 0.81943 0.0
H368 H 0.85913 0.52894 0.78213 0.0
H369 H 0.72674 0.5411 0.79043 0.0
H370 H 0.66802 0.5522 0.80931 0.0
H371 H 0.70458 0.66328 0.82452 0.0
H372 H 0.76375 0.65268 0.80597 0.0
H373 H 0.86507 0.63948 0.6923 0.0
H374 H 0.84645 0.59493 0.71875 0.0
H375 H 0.83148 0.6857 0.76171 0.0
H376 H 0.84828 0.73069 0.73477 0.0
H377 H 0.77817 0.63823 0.7669 0.0
H378 H 0.91257 0.62402 0.76117 0.0
H379 H 0.9714 0.61302 0.74232 0.0
H380 H 0.93073 0.50594 0.72231 0.0
H381 H 0.87155 0.51645 0.74091 0.0
C382 C 0.79099 0.5236 0.84448 0.0
C383 C 0.79053 0.4845 0.84189 0.0
C384 C 0.79652 0.54737 0.82773 0.0
C385 C 0.80114 0.53271 0.8079 0.0
C386 C 0.80023 0.49371 0.80516 0.0
C387 C 0.79487 0.46982 0.82197 0.0
C388 C 0.80859 0.55816 0.79027 0.0
C389 C 0.84106 0.55248 0.77859 0.0
C390 C 0.78553 0.58941 0.78589 0.0
C391 C 0.74981 0.59597 0.79693 0.0
C392 C 0.72237 0.56781 0.79791 0.0
C393 C 0.68898 0.57403 0.80854 0.0
C394 C 0.6826 0.6084 0.81814 0.0
C395 C 0.70956 0.63666 0.81708 0.0
C396 C 0.74301 0.63058 0.80649 0.0
C397 C 0.8579 0.64993 0.70741 0.0
C398 C 0.85855 0.68849 0.7116 0.0
C399 C 0.84736 0.62439 0.72257 0.0
C400 C 0.83839 0.63672 0.74245 0.0
C401 C 0.83844 0.67539 0.74654 0.0
C402 C 0.84816 0.70109 0.73119 0.0
C403 C 0.82901 0.60935 0.75895 0.0
C404 C 0.79616 0.61463 0.77039 0.0
C405 C 0.85176 0.57776 0.76316 0.0
C406 C 0.88761 0.57112 0.75233 0.0
C407 C 0.91618 0.59818 0.7527 0.0
C408 C 0.94957 0.59203 0.74207 0.0
C409 C 0.95478 0.55882 0.73111 0.0
C410 C 0.92667 0.53163 0.73082 0.0
C411 C 0.89323 0.53763 0.74144 0.0
H412 H 0.98063 0.55414 0.72286 0.0
H413 H 0.65675 0.61315 0.82637 0.0
H414 H 0.88205 0.39232 0.95073 0.0
H415 H 0.92635 0.3736 0.97742 0.0
H416 H 0.8382 0.31542 0.00943 0.0
H417 H 0.7935 0.33404 0.98266 0.0
H418 H 0.88239 0.35982 0.035 0.0
H419 H 0.8992 0.26707 0.98256 0.0
H420 H 0.91067 0.24541 0.94716 0.0
H421 H 0.01872 0.29794 0.94773 0.0
H422 H 1.00759 0.32067 0.98301 0.0
H423 H 0.99337 0.26627 0.10701 0.0
H424 H 0.95061 0.27724 0.07832 0.0
H425 H 0.04086 0.32554 0.04321 0.0
H426 H 0.08412 0.31362 0.07185 0.0
H427 H 0.99572 0.28538 0.01865 0.0
H428 H 0.97893 0.38098 0.06935 0.0
H429 H 0.96782 0.40626 0.10405 0.0
H430 H 0.86074 0.35183 0.10595 0.0
H431 H 0.87145 0.32575 0.07135 0.0
C432 C 0.87199 0.37566 0.96349 0.0
C433 C 0.83426 0.36463 0.96461 0.0
C434 C 0.89742 0.36482 0.97866 0.0
C435 C 0.88564 0.34277 0.99526 0.0
C436 C 0.84784 0.33232 0.99667 0.0
C437 C 0.82238 0.34295 0.98139 0.0
C438 C 0.91278 0.33107 0.01127 0.0
C439 C 0.90685 0.34303 0.0315 0.0
C440 C 0.94529 0.31016 0.0065 0.0
C441 C 0.9524 0.29589 0.9854 0.0
C442 C 0.9253 0.27428 0.9751 0.0
C443 C 0.93174 0.26179 0.95505 0.0
C444 C 0.96536 0.27036 0.9452 0.0
C445 C 0.99266 0.29137 0.95539 0.0
C446 C 0.9863 0.30406 0.97542 0.0
C447 C 1.00414 0.27897 0.0931 0.0
C448 C 0.04193 0.28954 0.09172 0.0
C449 C 0.97969 0.28527 0.07673 0.0
C450 C 0.9923 0.30301 0.05877 0.0
C451 C 0.03046 0.31197 0.05695 0.0
C452 C 0.05513 0.30519 0.07329 0.0
C453 C 0.96518 0.31392 0.04248 0.0
C454 C 0.97118 0.302 0.02218 0.0
C455 C 0.93282 0.33524 0.04709 0.0
C456 C 0.92616 0.35112 0.06784 0.0
C457 C 0.95313 0.37419 0.07722 0.0
C458 C 0.94689 0.38868 0.09687 0.0
C459 C 0.91364 0.38058 0.10722 0.0
C460 C 0.8865 0.35804 0.09792 0.0
C461 C 0.89263 0.34341 0.07829 0.0
H462 H 0.90886 0.39183 0.12243 0.0
H463 H 0.97028 0.26062 0.9297 0.0
H464 H 0.71535 0.21924 0.53429 0.0
H465 H 0.73246 0.17511 0.5071 0.0
H466 H 0.62563 0.11991 0.51381 0.0
H467 H 0.60952 0.16258 0.5417 0.0
H468 H 0.67423 0.06969 0.51024 0.0
H469 H 0.6499 0.18178 0.47204 0.0
H470 H 0.65641 0.24832 0.46262 0.0
H471 H 0.77297 0.23152 0.44968 0.0
H472 H 0.76726 0.16495 0.45927 0.0
H473 H 0.6667 0.97922 0.41208 0.0
H474 H 0.65638 0.02252 0.44075 0.0
H475 H 0.77505 0.04336 0.44443 0.0
H476 H 0.78561 0.99944 0.41595 0.0
H477 H 0.72478 0.10998 0.44283 0.0
H478 H 0.74423 0.99434 0.47973 0.0
H479 H 0.73251 0.92776 0.48732 0.0
H480 H 0.61743 0.95231 0.50049 0.0
H481 H 0.62834 0.01899 0.49268 0.0
C482 C 0.69551 0.19779 0.52982 0.0
C483 C 0.66112 0.19431 0.54004 0.0
C484 C 0.7052 0.17265 0.51422 0.0
C485 C 0.68017 0.14431 0.50812 0.0
C486 C 0.64557 0.14131 0.51821 0.0
C487 C 0.63629 0.16582 0.53411 0.0
C488 C 0.69013 0.11711 0.49165 0.0
C489 C 0.68486 0.07872 0.49545 0.0
C490 C 0.70473 0.1285 0.47238 0.0
C491 C 0.70824 0.16849 0.46659 0.0
C492 C 0.67699 0.19235 0.46733 0.0
C493 C 0.68052 0.23005 0.46194 0.0
C494 C 0.7151 0.24416 0.45561 0.0
C495 C 0.74621 0.22057 0.45461 0.0
C496 C 0.74284 0.18284 0.46001 0.0
C497 C 0.69057 0.99289 0.41911 0.0
C498 C 0.72694 0.98603 0.41188 0.0
C499 C 0.68466 0.01751 0.43546 0.0
C500 C 0.71497 0.03609 0.44464 0.0
C501 C 0.75135 0.02926 0.43749 0.0
C502 C 0.75734 1.00407 0.42137 0.0
C503 C 0.70837 0.0631 0.4615 0.0
C504 C 0.71429 0.10127 0.45773 0.0
C505 C 0.69357 0.05164 0.4806 0.0
C506 C 0.68703 1.0116 0.48543 0.0
C507 C 0.71635 0.98549 0.48407 0.0
C508 C 0.70986 0.94774 0.48845 0.0
C509 C 0.67422 0.93579 0.49434 0.0
C510 C 0.64501 0.9616 0.49591 0.0
C511 C 0.65134 0.99938 0.49153 0.0
H512 H 0.66926 0.90656 0.49772 0.0
H513 H 0.71778 0.27336 0.45144 0.0
H514 H 0.3812 0.15756 0.80715 0.0
H515 H 0.42198 0.17759 0.77898 0.0
H516 H 0.32573 0.1905 0.73955 0.0
H517 H 0.28455 0.17168 0.76797 0.0
H518 H 0.38981 0.14741 0.72294 0.0
H519 H 0.35725 0.26199 0.75451 0.0
H520 H 0.34856 0.30637 0.783 0.0
H521 H 0.46707 0.30921 0.79325 0.0
H522 H 0.47649 0.26322 0.76538 0.0
H523 H 0.48214 0.23785 0.64088 0.0
H524 H 0.43798 0.2271 0.66882 0.0
H525 H 0.52925 0.22287 0.71215 0.0
H526 H 0.57395 0.23274 0.68415 0.0
H527 H 0.46526 0.26397 0.72627 0.0
H528 H 0.49545 0.14404 0.69641 0.0
H529 H 0.50255 0.09928 0.66786 0.0
H530 H 0.38579 0.11015 0.65338 0.0
H531 H 0.37812 0.15544 0.68167 0.0
C532 C 0.36876 0.16461 0.79245 0.0
C533 C 0.3298 0.16303 0.78964 0.0
C534 C 0.39204 0.17616 0.77644 0.0
C535 C 0.37677 0.18555 0.75726 0.0
C536 C 0.33792 0.18337 0.75429 0.0
C537 C 0.31451 0.17275 0.77049 0.0
C538 C 0.40164 0.19728 0.7403 0.0
C539 C 0.4059 0.17315 0.72351 0.0
C540 C 0.42293 0.23066 0.74131 0.0
C541 C 0.41752 0.25834 0.75812 0.0
C542 C 0.38147 0.27132 0.76311 0.0
C543 C 0.37641 0.2968 0.77915 0.0
C544 C 0.40725 0.31017 0.79011 0.0
C545 C 0.44323 0.29828 0.78494 0.0
C546 C 0.44843 0.27242 0.76906 0.0
C547 C 0.49295 0.23448 0.65632 0.0
C548 C 0.53171 0.23562 0.66019 0.0
C549 C 0.46761 0.22861 0.67229 0.0
C550 C 0.48039 0.22384 0.6925 0.0
C551 C 0.51885 0.22655 0.69664 0.0
C552 C 0.54434 0.23225 0.68061 0.0
C553 C 0.45368 0.21387 0.70903 0.0
C554 C 0.44908 0.2383 0.72573 0.0
C555 C 0.43181 0.18088 0.70792 0.0
C556 C 0.4363 0.15342 0.69102 0.0
C557 C 0.47135 0.13712 0.68703 0.0
C558 C 0.47547 0.11162 0.67091 0.0
C559 C 0.44466 0.10196 0.65877 0.0
C560 C 0.40964 0.1177 0.66277 0.0
C561 C 0.40539 0.14327 0.67885 0.0
H562 H 0.4479 0.08221 0.6463 0.0
H563 H 0.40331 0.32999 0.80249 0.0
H564 H 0.376 0.88291 0.05749 0.0
H565 H 0.35646 0.92454 0.02958 0.0
H566 H 0.34527 0.82968 0.98909 0.0
H567 H 0.36368 0.7876 0.01724 0.0
H568 H 0.38657 0.89487 0.97295 0.0
H569 H 0.27319 0.85965 0.00522 0.0
H570 H 0.22966 0.84985 0.03398 0.0
H571 H 0.22552 0.96814 0.04471 0.0
H572 H 0.27059 0.97868 0.01654 0.0
H573 H 0.29339 0.9862 0.89174 0.0
H574 H 0.3055 0.94211 0.91958 0.0
H575 H 0.30699 0.03301 0.96311 0.0
H576 H 0.29544 0.07768 0.93517 0.0
H577 H 0.2688 0.96802 0.97742 0.0
H578 H 0.3871 1.00123 0.94679 0.0
H579 H 0.43101 1.00977 0.91798 0.0
H580 H 0.42256 0.89294 0.90328 0.0
H581 H 0.37812 0.88382 0.93183 0.0
C582 C 0.36964 0.87095 0.04259 0.0
C583 C 0.37147 0.83209 0.03944 0.0
C584 C 0.35832 0.89472 0.02673 0.0
C585 C 0.34933 0.88009 0.00735 0.0
C586 C 0.35208 0.84139 0.00398 0.0
C587 C 0.36252 0.81746 0.02002 0.0
C588 C 0.33693 0.90538 0.99068 0.0
C589 C 0.36059 0.91049 0.97377 0.0
C590 C 0.30324 0.92607 0.99204 0.0
C591 C 0.27609 0.91992 0.00903 0.0
C592 C 0.26375 0.8836 0.01397 0.0
C593 C 0.23875 0.8779 0.03017 0.0
C594 C 0.22522 0.90837 0.04132 0.0
C595 C 0.23652 0.9446 0.03623 0.0
C596 C 0.26188 0.95043 0.02018 0.0
C597 C 0.29638 0.99694 0.90722 0.0
C598 C 0.29405 0.03559 0.91116 0.0
C599 C 0.30308 0.97163 0.92313 0.0
C600 C 0.30761 0.98434 0.94336 0.0
C601 C 0.30359 0.02266 0.94758 0.0
C602 C 0.29695 0.04813 0.9316 0.0
C603 C 0.31865 0.95775 0.95979 0.0
C604 C 0.29476 0.95238 0.97664 0.0
C605 C 0.35202 0.93657 0.95838 0.0
C606 C 0.37901 0.94193 0.94132 0.0
C607 C 0.39438 0.97742 0.93732 0.0
C608 C 0.4194 0.98236 0.92105 0.0
C609 C 0.4295 0.95193 0.90878 0.0
C610 C 0.41467 0.91649 0.91279 0.0
C611 C 0.38959 0.91142 0.92902 0.0
H612 H 0.44887 0.95581 0.89619 0.0
H613 H 0.20574 0.90394 0.05381 0.0
H614 H 0.6609 0.91744 0.29139 0.0
H615 H 0.61573 0.89929 0.26507 0.0
H616 H 0.67706 0.79715 0.25441 0.0
H617 H 0.72332 0.816 0.28034 0.0
H618 H 0.65124 0.82297 0.21929 0.0
H619 H 0.6009 0.8006 0.28491 0.0
H620 H 0.5832 0.81462 0.32061 0.0
H621 H 0.50282 0.89509 0.29935 0.0
H622 H 0.52101 0.88258 0.26348 0.0
H623 H 0.49284 0.74064 0.16837 0.0
H624 H 0.53809 0.7504 0.19635 0.0
H625 H 0.50757 0.867 0.19901 0.0
H626 H 0.463 0.85756 0.17074 0.0
H627 H 0.51731 0.82607 0.23937 0.0
H628 H 0.57803 0.85148 0.17349 0.0
H629 H 0.59688 0.83378 0.13838 0.0
H630 H 0.657 0.73921 0.16222 0.0
H631 H 0.63795 0.75606 0.19747 0.0
C632 C 0.66501 0.89131 0.28327 0.0
C633 C 0.6954 0.86795 0.288 0.0
C634 C 0.63909 0.88088 0.26829 0.0
C635 C 0.64244 0.8464 0.25812 0.0
C636 C 0.67376 0.82377 0.26215 0.0
C637 C 0.70015 0.83454 0.27695 0.0
C638 C 0.61243 0.83362 0.24391 0.0
C639 C 0.62205 0.82313 0.22383 0.0
C640 C 0.57421 0.8336 0.24983 0.0
C641 C 0.56253 0.84077 0.27142 0.0
C642 C 0.57962 0.82149 0.2878 0.0
C643 C 0.56953 0.82919 0.3081 0.0
C644 C 0.54182 0.85565 0.31226 0.0
C645 C 0.52426 0.87456 0.29611 0.0
C646 C 0.53452 0.86722 0.27577 0.0
C647 C 0.49535 0.76815 0.17522 0.0
C648 C 0.47458 0.79839 0.16746 0.0
C649 C 0.52121 0.7737 0.19111 0.0
C650 C 0.52614 0.80942 0.19965 0.0
C651 C 0.50403 0.83922 0.19262 0.0
C652 C 0.47874 0.83385 0.17648 0.0
C653 C 0.55627 0.81652 0.2148 0.0
C654 C 0.5466 0.82573 0.23504 0.0
C655 C 0.59444 0.8146 0.20921 0.0
C656 C 0.6062 0.80476 0.18806 0.0
C657 C 0.59497 0.82672 0.17122 0.0
C658 C 0.60575 0.81688 0.1513 0.0
C659 C 0.62803 0.78532 0.14806 0.0
C660 C 0.63968 0.76361 0.16475 0.0
C661 C 0.62892 0.77329 0.18469 0.0
H662 H 0.63635 0.77775 0.13263 0.0
H663 H 0.53398 0.86149 0.32799 0.0
H664 H 0.24945 0.87506 0.08515 0.0
H665 H 0.22588 0.93782 0.0933 0.0
H666 H 0.30031 0.94328 0.14546 0.0
H667 H 0.32463 0.88079 0.13693 0.0
H668 H 0.22485 0.96494 0.15405 0.0
H669 H 0.32231 0.98718 0.10686 0.0
H670 H 0.35959 0.98343 0.0752 0.0
H671 H 0.27003 0.03401 0.0411 0.0
H672 H 0.23114 0.03577 0.07224 0.0
H673 H 0.20169 0.16328 0.17068 0.0
H674 H 0.2322 0.10334 0.1632 0.0
H675 H 0.15361 0.08346 0.11408 0.0
H676 H 0.12234 0.14284 0.12178 0.0
H677 H 0.23553 0.07108 0.10524 0.0
H678 H 0.13617 0.03972 0.1529 0.0
H679 H 0.10191 0.04762 0.18546 0.0
H680 H 0.20113 0.01975 0.21944 0.0
H681 H 0.23624 0.0125 0.18705 0.0
C682 C 0.26056 0.88965 0.0984 0.0
C683 C 0.28865 0.87316 0.11052 0.0
C684 C 0.24728 0.92549 0.10298 0.0
C685 C 0.26139 0.94519 0.11998 0.0
C686 C 0.28906 0.92852 0.13229 0.0
C687 C 0.30298 0.89301 0.12741 0.0
C688 C 0.24701 0.98308 0.12492 0.0
C689 C 0.22758 0.98821 0.14345 0.0
C690 C 0.25048 0.01344 0.11102 0.0
C691 C 0.27335 1.01089 0.09196 0.0
C692 C 0.31004 0.99655 0.09254 0.0
C693 C 0.33154 0.9948 0.07464 0.0
C694 C 0.31709 1.00818 0.0561 0.0
C695 C 0.28112 0.02337 0.05544 0.0
C696 C 0.25919 0.02445 0.07319 0.0
C697 C 0.19099 0.14619 0.15825 0.0
C698 C 0.15954 0.15766 0.14685 0.0
C699 C 0.20841 0.112 0.15402 0.0
C700 C 0.1951 0.08908 0.1381 0.0
C701 C 0.16429 0.10085 0.1264 0.0
C702 C 0.14637 0.13464 0.13089 0.0
C703 C 0.2127 0.05234 0.13396 0.0
C704 C 0.23285 0.04758 0.11568 0.0
C705 C 0.21023 0.02243 0.1481 0.0
C706 C 0.18895 0.02599 0.16756 0.0
C707 C 0.15078 0.0356 0.16731 0.0
C708 C 0.13118 0.03991 0.18573 0.0
C709 C 0.14934 0.03426 0.2045 0.0
C710 C 0.18711 0.02418 0.20488 0.0
C711 C 0.20688 0.01997 0.1865 0.0
H712 H 0.13411 0.03764 0.21875 0.0
H713 H 0.33383 1.00696 0.04227 0.0
H714 H 0.66911 0.73352 0.36022 0.0
H715 H 0.60817 0.70655 0.36759 0.0
H716 H 0.56081 0.8171 0.37259 0.0
H717 H 0.62228 0.84455 0.36613 0.0
H718 H 0.53661 0.77406 0.40308 0.0
H719 H 0.54112 0.76011 0.3294 0.0
H720 H 0.56875 0.74142 0.29617 0.0
H721 H 0.57534 0.62754 0.31678 0.0
H722 H 0.54783 0.64556 0.3501 0.0
H723 H 0.34769 0.71037 0.40374 0.0
H724 H 0.40672 0.74114 0.39512 0.0
H725 H 0.45984 0.63341 0.38869 0.0
H726 H 0.40071 0.60246 0.3968 0.0
H727 H 0.47982 0.67724 0.35817 0.0
H728 H 0.47369 0.69044 0.43152 0.0
H729 H 0.44512 0.70852 0.46451 0.0
H730 H 0.44177 0.82328 0.44504 0.0
H731 H 0.46987 0.8058 0.4118 0.0
C732 C 0.64601 0.75232 0.36307 0.0
C733 C 0.65103 0.79141 0.36261 0.0
C734 C 0.61087 0.73672 0.36701 0.0
C735 C 0.57963 0.75972 0.37035 0.0
C736 C 0.58442 0.79872 0.36997 0.0
C737 C 0.61967 0.8144 0.36612 0.0
C738 C 0.54237 0.74292 0.37493 0.0
C739 C 0.52389 0.75335 0.39307 0.0
C740 C 0.5261 0.71517 0.3622 0.0
C741 C 0.54289 0.70429 0.34228 0.0
C742 C 0.54886 0.73119 0.32688 0.0
C743 C 0.56438 0.72071 0.30804 0.0
C744 C 0.57402 0.68341 0.30443 0.0
C745 C 0.56796 0.65645 0.31962 0.0
C746 C 0.5523 0.66675 0.33846 0.0
C747 C 0.37194 0.6932 0.40053 0.0
C748 C 0.36943 0.65392 0.40097 0.0
C749 C 0.40577 0.71086 0.39568 0.0
C750 C 0.43796 0.68965 0.39148 0.0
C751 C 0.43545 0.65042 0.39185 0.0
C752 C 0.40158 0.63275 0.39653 0.0
C753 C 0.47413 0.7082 0.38639 0.0
C754 C 0.49242 0.69808 0.36815 0.0
C755 C 0.49023 0.73614 0.39907 0.0
C756 C 0.47353 0.74675 0.41909 0.0
C757 C 0.46661 0.71949 0.43421 0.0
C758 C 0.45054 0.72964 0.45297 0.0
C759 C 0.44155 0.76701 0.45685 0.0
C760 C 0.4487 0.79434 0.442 0.0
C761 C 0.46472 0.78433 0.42321 0.0
H762 H 0.42911 0.77481 0.47138 0.0
H763 H 0.58605 0.67537 0.28983 0.0
H764 H 0.68617 0.12137 0.60647 0.0
H765 H 0.71388 0.06095 0.61488 0.0
H766 H 0.81056 0.11641 0.64022 0.0
H767 H 0.78276 0.17705 0.63254 0.0
H768 H 0.82805 0.05884 0.6121 0.0
H769 H 0.75019 0.07819 0.67185 0.0
H770 H 0.69063 0.09098 0.68958 0.0
H771 H 0.64188 0.99292 0.66238 0.0
H772 H 0.70102 0.97983 0.64425 0.0
H773 H 0.92021 0.90347 0.65618 0.0
H774 H 0.88999 0.96383 0.6501 0.0
H775 H 0.78521 0.90752 0.63832 0.0
H776 H 0.815 0.8473 0.64542 0.0
H777 H 0.77073 0.9658 0.65906 0.0
H778 H 0.84382 0.9453 0.5988 0.0
H779 H 0.90047 0.93123 0.57865 0.0
H780 H 0.95446 0.02894 0.60313 0.0
H781 H 0.89828 0.04334 0.62363 0.0
C782 C 0.71301 0.12104 0.61414 0.0
C783 C 0.73214 0.15458 0.61867 0.0
C784 C 0.72892 0.08627 0.61886 0.0
C785 C 0.76432 0.08416 0.62815 0.0
C786 C 0.78331 0.11738 0.63292 0.0
C787 C 0.76732 0.15214 0.62841 0.0
C788 C 0.78206 0.04736 0.63244 0.0
C789 C 0.81583 0.03864 0.62258 0.0
C790 C 0.76539 0.02053 0.64553 0.0
C791 C 0.72992 0.02824 0.65654 0.0
C792 C 0.72668 0.05952 0.66952 0.0
C793 C 0.69301 0.0668 0.67966 0.0
C794 C 0.66246 0.04283 0.67706 0.0
C795 C 0.66555 1.01148 0.66436 0.0
C796 C 0.69915 1.0041 0.65416 0.0
C797 C 0.89075 0.904 0.65224 0.0
C798 C 0.87002 0.87065 0.65117 0.0
C799 C 0.87348 0.93855 0.64866 0.0
C800 C 0.83536 0.94041 0.6433 0.0
C801 C 0.81461 0.90702 0.64239 0.0
C802 C 0.83169 0.87255 0.64641 0.0
C803 C 0.81706 0.97708 0.63878 0.0
C804 C 0.78311 0.98584 0.64856 0.0
C805 C 0.83316 1.00369 0.62525 0.0
C806 C 0.86697 0.9952 0.6129 0.0
C807 C 0.86787 0.96365 0.59999 0.0
C808 C 0.89988 0.95563 0.58849 0.0
C809 C 0.93108 0.97913 0.58965 0.0
C810 C 0.93029 1.01074 0.60227 0.0
C811 C 0.89836 0.01887 0.61382 0.0
H812 H 0.95583 0.97288 0.58073 0.0
H813 H 0.63641 0.04852 0.68493 0.0
H814 H 0.37209 0.27697 0.84025 0.0
H815 H 0.43511 0.30035 0.84805 0.0
H816 H 0.44582 0.21839 0.89636 0.0
H817 H 0.38298 0.1943 0.88815 0.0
H818 H 0.46665 0.29227 0.9082 0.0
H819 H 0.48831 0.20392 0.8562 0.0
H820 H 0.48378 0.171 0.82311 0.0
H821 H 0.52885 0.26691 0.79211 0.0
H822 H 0.53116 0.3015 0.82477 0.0
H823 H 0.6653 0.3224 0.92128 0.0
H824 H 0.60595 0.29053 0.91394 0.0
H825 H 0.57865 0.37498 0.86907 0.0
H826 H 0.63747 0.40756 0.87667 0.0
H827 H 0.56881 0.29436 0.85668 0.0
H828 H 0.53751 0.38391 0.9101 0.0
H829 H 0.5464 0.41279 0.94417 0.0
H830 H 0.52596 0.30683 0.9732 0.0
H831 H 0.51765 0.27717 0.93925 0.0
C832 C 0.38789 0.2641 0.85258 0.0
C833 C 0.3727 0.23404 0.86374 0.0
C834 C 0.42391 0.27728 0.85694 0.0
C835 C 0.44516 0.26108 0.87278 0.0
C836 C 0.42988 0.23128 0.88409 0.0
C837 C 0.39416 0.2175 0.87939 0.0
C838 C 0.48306 0.27581 0.87767 0.0
C839 C 0.48907 0.29229 0.89699 0.0
C840 C 0.51237 0.27587 0.86301 0.0
C841 C 0.5092 0.25572 0.84304 0.0
C842 C 0.49624 0.21851 0.8423 0.0
C843 C 0.49407 0.19948 0.82356 0.0
C844 C 0.50569 0.21696 0.80548 0.0
C845 C 0.5195 0.2535 0.8061 0.0
C846 C 0.52091 0.27297 0.82471 0.0
C847 C 0.64667 0.33418 0.90983 0.0
C848 C 0.656 0.36759 0.8996 0.0
C849 C 0.61281 0.31594 0.90568 0.0
C850 C 0.58798 0.33042 0.89097 0.0
C851 C 0.59751 0.36335 0.88045 0.0
C852 C 0.631 0.38201 0.88489 0.0
C853 C 0.55167 0.31168 0.88682 0.0
C854 C 0.54614 0.2943 0.86774 0.0
C855 C 0.52297 0.3103 0.90172 0.0
C856 C 0.52738 0.32824 0.92213 0.0
C857 C 0.53525 0.3667 0.92374 0.0
C858 C 0.54013 0.38322 0.94303 0.0
C859 C 0.53684 0.36164 0.96083 0.0
C860 C 0.52856 0.3235 0.95939 0.0
C861 C 0.52375 0.30682 0.94013 0.0
H862 H 0.54063 0.37447 0.97575 0.0
H863 H 0.5042 0.20212 0.791 0.0
H864 H 0.59983 0.39591 0.61742 0.0
H865 H 0.62791 0.45683 0.62455 0.0
H866 H 0.73421 0.41694 0.60222 0.0
H867 H 0.70649 0.35554 0.59542 0.0
H868 H 0.74275 0.45802 0.63686 0.0
H869 H 0.67682 0.47203 0.57242 0.0
H870 H 0.6214 0.46809 0.54986 0.0
H871 H 0.56232 0.54434 0.58908 0.0
H872 H 0.61719 0.54832 0.61205 0.0
H873 H 0.8311 0.63414 0.62511 0.0
H874 H 0.80319 0.57308 0.61795 0.0
H875 H 0.69654 0.613 0.63968 0.0
H876 H 0.72423 0.67394 0.64708 0.0
H877 H 0.688 0.57202 0.60533 0.0
H878 H 0.74949 0.55806 0.66995 0.0
H879 H 0.80184 0.56197 0.69454 0.0
H880 H 0.86598 0.48615 0.65749 0.0
H881 H 0.81406 0.48214 0.63252 0.0
C882 C 0.62922 0.39998 0.61407 0.0
C883 C 0.65084 0.37085 0.60572 0.0
C884 C 0.64521 0.43493 0.61809 0.0
C885 C 0.68306 0.4417 0.61362 0.0
C886 C 0.70494 0.41243 0.60573 0.0
C887 C 0.689 0.37736 0.60179 0.0
C888 C 0.69964 0.47943 0.61691 0.0
C889 C 0.73114 0.48286 0.62971 0.0
C890 C 0.6838 0.51206 0.60809 0.0
C891 C 0.65106 0.51028 0.59403 0.0
C892 C 0.65195 0.48782 0.57629 0.0
C893 C 0.62064 0.48559 0.56343 0.0
C894 C 0.58838 0.50595 0.56805 0.0
C895 C 0.58735 0.52861 0.58552 0.0
C896 C 0.61856 0.5309 0.59845 0.0
C897 C 0.80174 0.62997 0.62845 0.0
C898 C 0.78007 0.65908 0.63681 0.0
C899 C 0.7858 0.59501 0.62431 0.0
C900 C 0.74785 0.58828 0.62851 0.0
C901 C 0.72586 0.61753 0.63629 0.0
C902 C 0.74178 0.65249 0.64045 0.0
C903 C 0.73126 0.55056 0.62517 0.0
C904 C 0.69974 0.54715 0.61239 0.0
C905 C 0.74678 0.51801 0.63422 0.0
C906 C 0.77803 0.52011 0.64924 0.0
C907 C 0.77487 0.54245 0.66695 0.0
C908 C 0.80445 0.54465 0.68098 0.0
C909 C 0.8373 0.52444 0.67755 0.0
C910 C 0.84054 0.50186 0.66011 0.0
C911 C 0.81102 0.49957 0.64602 0.0
H912 H 0.86018 0.5262 0.68844 0.0
H913 H 0.56421 0.5043 0.55806 0.0
H914 H 0.17315 0.20841 0.84749 0.0
H915 H 0.11355 0.2383 0.85576 0.0
H916 H 0.06907 0.13196 0.87544 0.0
H917 H 0.12837 0.10174 0.8669 0.0
H918 H 0.02003 0.16724 0.85177 0.0
H919 H 0.09507 0.20035 0.91013 0.0
H920 H 0.14973 0.22647 0.92832 0.0
H921 H 0.12754 0.33462 0.90227 0.0
H922 H 0.07302 0.30901 0.88368 0.0
H923 H 0.85767 0.23189 0.90236 0.0
H924 H 0.91881 0.20483 0.89506 0.0
H925 H 0.95797 0.31187 0.87333 0.0
H926 H 0.89654 0.33923 0.88049 0.0
H927 H 1.00991 0.27767 0.8976 0.0
H928 H 0.93464 0.24416 0.83942 0.0
H929 H 0.8796 0.21792 0.82163 0.0
H930 H 0.90215 0.11002 0.84789 0.0
H931 H 0.95706 0.13575 0.86608 0.0
C932 C 0.15074 0.19135 0.85362 0.0
C933 C 0.15562 0.15263 0.85654 0.0
C934 C 0.1167 0.20856 0.85846 0.0
C935 C 0.08686 0.18749 0.86644 0.0
C936 C 0.09166 0.14883 0.86932 0.0
C937 C 0.12566 0.1316 0.86447 0.0
C938 C 0.05031 0.20547 0.87124 0.0
C939 C 0.01781 0.19104 0.86204 0.0
C940 C 0.04739 0.2372 0.88421 0.0
C941 C 0.08021 0.25265 0.89533 0.0
C942 C 0.10204 0.22962 0.90813 0.0
C943 C 0.13296 0.24435 0.91854 0.0
C944 C 0.14217 0.28216 0.9164 0.0
C945 C 0.12041 0.30533 0.90388 0.0
C946 C 0.08948 0.29072 0.89342 0.0
C947 C 0.87901 0.24967 0.89578 0.0
C948 C 0.87188 0.28771 0.89176 0.0
C949 C 0.9141 0.23414 0.89169 0.0
C950 C 0.94286 0.25615 0.88336 0.0
C951 C 0.93618 0.2943 0.87972 0.0
C952 C 0.90104 0.30991 0.88383 0.0
C953 C 0.9797 0.23915 0.87828 0.0
C954 C 0.0122 0.25382 0.88737 0.0
C955 C 0.98266 0.20757 0.86526 0.0
C956 C 0.94976 0.19197 0.85426 0.0
C957 C 0.9277 0.2149 0.84153 0.0
C958 C 0.89655 0.20011 0.83135 0.0
C959 C 0.88733 0.16235 0.83367 0.0
C960 C 0.9093 0.13927 0.84613 0.0
C961 C 0.94046 0.15394 0.85636 0.0
H962 H 0.86321 0.15095 0.82577 0.0
H963 H 0.16611 0.29351 0.92448 0.0
H964 H 0.31651 0.67471 0.09437 0.0
H965 H 0.28549 0.61484 0.1008 0.0
H966 H 0.38997 0.56803 0.12186 0.0
H967 H 0.42132 0.62754 0.11517 0.0
H968 H 0.35504 0.52063 0.09669 0.0
H969 H 0.3204 0.59438 0.15558 0.0
H970 H 0.29379 0.64902 0.17348 0.0
H971 H 0.18696 0.62811 0.14544 0.0
H972 H 0.21309 0.57362 0.12715 0.0
H973 H 0.29304 0.35903 0.14848 0.0
H974 H 0.31901 0.41985 0.13949 0.0
H975 H 0.21018 0.45681 0.11924 0.0
H976 H 0.18385 0.39562 0.12821 0.0
H977 H 0.24415 0.50975 0.14207 0.0
H978 H 0.27794 0.43417 0.08447 0.0
H979 H 0.30448 0.37941 0.06668 0.0
H980 H 0.41275 0.40381 0.09207 0.0
H981 H 0.38674 0.45843 0.11027 0.0
C982 C 0.33291 0.6517 0.1004 0.0
C983 C 0.37142 0.656 0.10431 0.0
C984 C 0.31507 0.61751 0.10415 0.0
C985 C 0.33528 0.58699 0.11203 0.0
C986 C 0.37376 0.59116 0.1158 0.0
C987 C 0.39163 0.62529 0.11203 0.0
C988 C 0.31659 0.55053 0.11612 0.0
C989 C 0.33105 0.51821 0.10681 0.0
C990 C 0.28457 0.54746 0.12882 0.0
C991 C 0.26881 0.58017 0.13983 0.0
C992 C 0.29132 0.60162 0.1531 0.0
C993 C 0.2763 0.63253 0.16334 0.0
C994 C 0.23873 0.6421 0.16055 0.0
C995 C 0.21607 0.62071 0.14756 0.0
C996 C 0.23096 0.58979 0.13727 0.0
C997 C 0.27462 0.37979 0.14185 0.0
C998 C 0.23634 0.37218 0.1389 0.0
C999 C 0.28955 0.41469 0.13675 0.0
C1000 C 0.2667 0.44279 0.1284 0.0
C1001 C 0.22838 0.43554 0.12563 0.0
C1002 C 0.21335 0.40056 0.13079 0.0
C1003 C 0.28294 0.4798 0.12287 0.0
C1004 C 0.268 0.5122 0.13187 0.0
C1005 C 0.31453 0.48299 0.10987 0.0
C1006 C 0.3303 0.45022 0.09888 0.0
C1007 C 0.30735 0.4277 0.08639 0.0
C1008 C 0.32231 0.39671 0.07621 0.0
C1009 C 0.36026 0.38808 0.07828 0.0
C1010 C 0.38335 0.4105 0.0905 0.0
C1011 C 0.36852 0.4415 0.10074 0.0
H1012 H 0.37178 0.36408 0.07038 0.0
H1013 H 0.22716 0.66603 0.1685 0.0
H1014 H 0.85151 0.81636 0.34638 0.0
H1015 H 0.91094 0.78599 0.35468 0.0
H1016 H 0.95672 0.8922 0.37373 0.0
H1017 H 0.89769 0.92286 0.36513 0.0
H1018 H 1.0052 0.85633 0.35038 0.0
H1019 H 0.92984 0.82433 0.40875 0.0
H1020 H 0.87498 0.79864 0.42686 0.0
H1021 H 0.8968 0.69012 0.40126 0.0
H1022 H 0.95151 0.71529 0.38275 0.0
H1023 H 0.16633 0.79321 0.40302 0.0
H1024 H 0.10542 0.8199 0.39472 0.0
H1025 H 0.06739 0.7123 0.37321 0.0
H1026 H 0.12861 0.68532 0.38128 0.0
H1027 H 0.01473 0.74673 0.39689 0.0
H1028 H 0.09099 0.77913 0.33913 0.0
H1029 H 0.14624 0.80507 0.3215 0.0
H1030 H 0.12289 0.9136 0.34668 0.0
H1031 H 0.06777 0.88817 0.36471 0.0
C1032 C 0.87416 0.83327 0.35241 0.0
C1033 C 0.86974 0.87208 0.35513 0.0
C1034 C 0.90811 0.8158 0.35724 0.0
C1035 C 0.93826 0.8367 0.36506 0.0
C1036 C 0.9339 0.87544 0.36774 0.0
C1037 C 0.90004 0.89293 0.36286 0.0
C1038 C 0.97469 0.8185 0.36995 0.0
C1039 C 1.00729 0.8327 0.36079 0.0
C1040 C 0.97744 0.78699 0.38309 0.0
C1041 C 0.94452 0.7718 0.39417 0.0
C1042 C 0.92274 0.79506 0.40683 0.0
C1043 C 0.89171 0.78058 0.4172 0.0
C1044 C 0.88234 0.7428 0.41516 0.0
C1045 C 0.90405 0.7194 0.40279 0.0
C1046 C 0.93508 0.73375 0.39237 0.0
C1047 C 0.14531 0.77521 0.39627 0.0
C1048 C 0.1527 0.73711 0.39261 0.0
C1049 C 0.11035 0.79055 0.39161 0.0
C1050 C 0.08197 0.76825 0.38306 0.0
C1051 C 0.08889 0.73006 0.37975 0.0
C1052 C 0.12393 0.71467 0.38441 0.0
C1053 C 0.04518 0.78495 0.37755 0.0
C1054 C 0.01257 0.7704 0.38652 0.0
C1055 C 0.04239 0.81625 0.3643 0.0
C1056 C 0.07545 0.83166 0.35342 0.0
C1057 C 0.09781 0.80846 0.34104 0.0
C1058 C 0.12907 0.82308 0.33095 0.0
C1059 C 0.13813 0.86094 0.33301 0.0
C1060 C 0.11587 0.88427 0.34512 0.0
C1061 C 0.08459 0.86978 0.35526 0.0
H1062 H 0.16234 0.87221 0.32519 0.0
H1063 H 0.85832 0.73164 0.4232 0.0
H1064 H 0.88897 0.94749 0.30532 0.0
H1065 H 0.94298 0.97421 0.28703 0.0
H1066 H 0.8679 0.03521 0.24732 0.0
H1067 H 0.81435 1.00849 0.26534 0.0
H1068 H 0.92787 1.00757 0.22605 0.0
H1069 H 0.90444 0.0758 0.28984 0.0
H1070 H 0.89877 0.08063 0.32752 0.0
H1071 H 1.01144 0.04091 0.33461 0.0
H1072 H 0.01758 0.03542 0.29694 0.0
H1073 H 0.98818 0.18652 0.20028 0.0
H1074 H 0.95952 0.13058 0.21499 0.0
H1075 H 0.06776 0.09275 0.23572 0.0
H1076 H 0.09683 0.14902 0.22056 0.0
H1077 H 1.00708 0.09436 0.26678 0.0
H1078 H 0.03443 0.04216 0.20189 0.0
H1079 H 0.03938 0.04006 0.16413 0.0
H1080 H 0.92006 0.05028 0.15879 0.0
H1081 H 0.91441 0.05305 0.19652 0.0
C1082 C 0.88416 0.96599 0.29241 0.0
C1083 C 0.84752 0.97625 0.28686 0.0
C1084 C 0.91495 0.98138 0.28205 0.0
C1085 C 0.90948 1.007 0.26591 0.0
C1086 C 0.87286 0.01554 0.2597 0.0
C1087 C 0.84225 1.0005 0.27012 0.0
C1088 C 0.94122 0.02756 0.25639 0.0
C1089 C 0.94538 0.02636 0.23495 0.0
C1090 C 0.96493 0.05124 0.26805 0.0
C1091 C 0.96129 0.05473 0.29064 0.0
C1092 C 0.92789 0.06783 0.29946 0.0
C1093 C 0.92461 0.07073 0.3208 0.0
C1094 C 0.95468 0.06096 0.33345 0.0
C1095 C 0.98814 0.04838 0.32479 0.0
C1096 C 0.99154 0.04537 0.30345 0.0
C1097 C 1.00589 0.1662 0.20788 0.0
C1098 C 0.04462 0.17217 0.20943 0.0
C1099 C 0.98956 0.13416 0.21616 0.0
C1100 C 1.01152 0.10751 0.2264 0.0
C1101 C 0.05038 0.11301 0.22783 0.0
C1102 C 0.06692 0.14495 0.21914 0.0
C1103 C 0.99268 0.0753 0.2364 0.0
C1104 C 0.99068 0.07452 0.25792 0.0
C1105 C 0.97096 0.04981 0.22481 0.0
C1106 C 0.97403 0.04798 0.20207 0.0
C1107 C 1.00926 0.04425 0.19267 0.0
C1108 C 0.01219 0.04289 0.17127 0.0
C1109 C 0.98006 0.04508 0.15908 0.0
C1110 C 0.94492 0.04857 0.16826 0.0
C1111 C 0.94183 0.04997 0.18966 0.0
H1112 H 0.98238 0.04403 0.14251 0.0
H1113 H 0.9521 0.06323 0.34997 0.0
H1114 H 0.5762 0.38868 0.55753 0.0
H1115 H 0.54834 0.44355 0.54068 0.0
H1116 H 0.49355 0.37117 0.49696 0.0
H1117 H 0.52198 0.31682 0.51321 0.0
H1118 H 0.51804 0.43398 0.4785 0.0
H1119 H 0.44899 0.40303 0.54234 0.0
H1120 H 0.44698 0.3953 0.58002 0.0
H1121 H 0.48636 0.50796 0.58794 0.0
H1122 H 0.48868 0.51624 0.55029 0.0
H1123 H 0.34146 0.4859 0.44796 0.0
H1124 H 0.39681 0.45947 0.46415 0.0
H1125 H 0.41934 0.56505 0.49378 0.0
H1126 H 0.36299 0.59185 0.47757 0.0
H1127 H 0.42586 0.50395 0.52051 0.0
H1128 H 0.47593 0.54034 0.45694 0.0
H1129 H 0.47869 0.54921 0.41942 0.0
H1130 H 0.47938 0.43015 0.41062 0.0
H1131 H 0.47591 0.4205 0.44808 0.0
C1132 C 0.55885 0.38463 0.54406 0.0
C1133 C 0.55082 0.34833 0.53689 0.0
C1134 C 0.54274 0.41598 0.53454 0.0
C1135 C 0.51835 0.4115 0.51773 0.0
C1136 C 0.51212 0.37543 0.50993 0.0
C1137 C 0.52811 0.34427 0.51938 0.0
C1138 C 0.49673 0.44334 0.50897 0.0
C1139 C 0.49801 0.44944 0.48767 0.0
C1140 C 0.47174 0.46483 0.52104 0.0
C1141 C 0.46927 0.46014 0.54358 0.0
C1142 C 0.45722 0.42611 0.55215 0.0
C1143 C 0.45603 0.42163 0.57348 0.0
C1144 C 0.46659 0.4511 0.58636 0.0
C1145 C 0.47818 0.48517 0.57794 0.0
C1146 C 0.47936 0.48979 0.55662 0.0
C1147 C 0.35795 0.50355 0.458 0.0
C1148 C 0.34761 0.54091 0.46161 0.0
C1149 C 0.38989 0.48849 0.46709 0.0
C1150 C 0.41249 0.51036 0.48001 0.0
C1151 C 0.40239 0.54774 0.48376 0.0
C1152 C 0.37036 0.56304 0.47445 0.0
C1153 C 0.44575 0.49291 0.48988 0.0
C1154 C 0.44668 0.48952 0.51136 0.0
C1155 C 0.47311 0.47424 0.47798 0.0
C1156 C 0.47555 0.47971 0.45538 0.0
C1157 C 0.47643 0.51602 0.44702 0.0
C1158 C 0.47814 0.52119 0.42575 0.0
C1159 C 0.47921 0.49026 0.41265 0.0
C1160 C 0.4786 0.45409 0.4208 0.0
C1161 C 0.47681 0.44875 0.44206 0.0
H1162 H 0.48053 0.49432 0.39618 0.0
H1163 H 0.46574 0.44755 0.60287 0.0
H1164 H 0.9364 0.86002 0.72491 0.0
H1165 H 0.96916 0.9108 0.74316 0.0
H1166 H 0.07394 0.87342 0.71755 0.0
H1167 H 0.0417 0.82317 0.69963 0.0
H1168 H 0.08028 0.88266 0.75763 0.0
H1169 H 0.02755 0.95276 0.7007 0.0
H1170 H 0.97557 0.97652 0.67942 0.0
H1171 H 0.92906 0.03221 0.73194 0.0
H1172 H 0.98047 1.00824 0.75362 0.0
H1173 H 0.21486 0.01893 0.76479 0.0
H1174 H 0.16341 0.98406 0.74926 0.0
H1175 H 0.08724 0.02943 0.79407 0.0
H1176 H 0.13924 0.06452 0.80992 0.0
H1177 H 0.05755 0.01897 0.75013 0.0
H1178 H 0.11477 0.95203 0.80623 0.0
H1179 H 0.16851 0.92881 0.82633 0.0
H1180 H 0.20725 0.86686 0.77401 0.0
H1181 H 0.15407 0.89024 0.75349 0.0
C1182 C 0.96635 0.86299 0.72308 0.0
C1183 C 0.98655 0.83721 0.7111 0.0
C1184 C 0.98505 0.89198 0.73349 0.0
C1185 C 0.02412 0.89585 0.73183 0.0
C1186 C 0.04391 0.8708 0.71932 0.0
C1187 C 0.02542 0.84192 0.70912 0.0
C1188 C 0.04538 0.92466 0.74357 0.0
C1189 C 0.07519 0.91243 0.75593 0.0
C1190 C 0.0382 0.96356 0.74193 0.0
C1191 C 1.00759 0.97833 0.72884 0.0
C1192 C 1.00608 0.96983 0.70775 0.0
C1193 C 0.97674 0.98336 0.6956 0.0
C1194 C 0.94897 1.00576 0.70433 0.0
C1195 C 0.95055 0.01479 0.72521 0.0
C1196 C 0.97978 1.00124 0.73743 0.0
C1197 C 0.1871 0.02192 0.7712 0.0
C1198 C 0.18121 0.04391 0.7888 0.0
C1199 C 0.15767 1.00218 0.76223 0.0
C1200 C 0.12162 1.00382 0.77065 0.0
C1201 C 0.11487 0.02787 0.78732 0.0
C1202 C 0.14453 0.04785 0.79635 0.0
C1203 C 0.09296 0.97669 0.76346 0.0
C1204 C 0.06195 0.98915 0.75209 0.0
C1205 C 0.09895 0.93782 0.76588 0.0
C1206 C 0.13055 0.92307 0.7783 0.0
C1207 C 0.13488 0.93364 0.79898 0.0
C1208 C 0.16523 0.92044 0.81045 0.0
C1209 C 0.19131 0.89642 0.80145 0.0
C1210 C 0.18703 0.88547 0.78097 0.0
C1211 C 0.15676 0.89865 0.76942 0.0
H1212 H 0.2148 0.88624 0.81035 0.0
H1213 H 0.92627 0.0162 0.69491 0.0
H1214 H 0.63812 0.45673 0.94532 0.0
H1215 H 0.5848 0.48664 0.96268 0.0
H1216 H 0.66015 0.53351 0.00771 0.0
H1217 H 0.71283 0.50336 0.99078 0.0
H1218 H 0.59589 0.51016 0.02549 0.0
H1219 H 0.63237 0.5833 0.96495 0.0
H1220 H 0.64179 0.59153 0.92767 0.0
H1221 H 0.52654 0.56389 0.91664 0.0
H1222 H 0.51659 0.55509 0.95386 0.0
H1223 H 0.54387 0.6844 0.06195 0.0
H1224 H 0.57125 0.63084 0.04451 0.0
H1225 H 0.46794 0.61279 0.01162 0.0
H1226 H 0.44028 0.66732 0.02902 0.0
H1227 H 0.53014 0.60942 0.98622 0.0
H1228 H 0.49082 0.55199 0.04789 0.0
H1229 H 0.48152 0.54523 0.08522 0.0
H1230 H 0.60047 0.54241 0.09447 0.0
H1231 H 0.61054 0.54976 0.05722 0.0
C1232 C 0.64306 0.47285 0.95915 0.0
C1233 C 0.67971 0.47818 0.96653 0.0
C1234 C 0.61267 0.49009 0.96898 0.0
C1235 C 0.61853 0.51276 0.98637 0.0
C1236 C 0.65487 0.51629 0.99431 0.0
C1237 C 0.68506 0.49931 0.9845 0.0
C1238 C 0.58791 0.53519 0.99572 0.0
C1239 C 0.58137 0.53176 0.01691 0.0
C1240 C 0.56791 0.56254 0.98441 0.0
C1241 C 0.57386 0.56811 0.96211 0.0
C1242 C 0.60913 0.57875 0.95455 0.0
C1243 C 0.61455 0.58355 0.93344 0.0
C1244 C 0.58481 0.57812 0.91979 0.0
C1245 C 0.54956 0.568 0.92722 0.0
C1246 C 0.54401 0.56311 0.94832 0.0
C1247 C 0.52692 0.66925 0.05095 0.0
C1248 C 0.48995 0.68034 0.04677 0.0
C1249 C 0.54251 0.63831 0.04114 0.0
C1250 C 0.52155 0.61749 0.02692 0.0
C1251 C 0.48455 0.62834 0.02264 0.0
C1252 C 0.46874 0.65934 0.03264 0.0
C1253 C 0.53947 0.58546 0.01617 0.0
C1254 C 0.54366 0.58709 0.99475 0.0
C1255 C 0.55723 0.55635 0.02726 0.0
C1256 C 0.55143 0.55157 0.04972 0.0
C1257 C 0.51502 0.55016 0.05788 0.0
C1258 C 0.50961 0.54619 0.07904 0.0
C1259 C 0.54039 0.54341 0.09221 0.0
C1260 C 0.57665 0.54453 0.08424 0.0
C1261 C 0.58223 0.54853 0.06309 0.0
H1262 H 0.53614 0.54036 0.10859 0.0
H1263 H 0.58906 0.58184 0.90345 0.0
loop_
_geom_bond_atom_site_label_1
_geom_bond_atom_site_label_2
_geom_bond_distance
_geom_bond_site_symmetry_2
_ccdc_geom_bond_type
Co0 N4 2.148 . S
Co0 N10 2.128 . S
Co0 N20 2.194 . S
Co0 O25 2.351 . S
Co0 O26 2.155 . S
Co0 O27 2.096 . S
C1 N4 1.301 . S
C1 N5 1.328 . S
C1 H6 0.930 . S
C2 C3 1.333 . S
C2 N4 1.317 . S
C2 H7 0.930 . S
C3 C2 1.333 . S
C3 N5 1.350 . S
C3 H29 0.931 . S
N4 Co0 2.148 . S
N4 C1 1.301 . S
N4 C2 1.317 . S
N5 C1 1.328 . S
N5 C3 1.350 . S
H6 C1 0.930 . S
H7 C2 0.930 . S
C8 O9 1.224 . S
C8 O27 1.247 . S
O9 C8 1.224 . S
N10 Co0 2.128 . S
N10 C11 1.355 . S
N10 C13 1.311 . S
C11 N10 1.355 . S
C11 C12 1.363 . S
C11 H23 0.929 . S
C12 C11 1.363 . S
C12 N14 1.375 . S
C12 H30 0.931 1_455 S
C13 N10 1.311 . S
C13 N14 1.347 . S
C13 H24 0.929 . S
N14 C12 1.375 . S
N14 C13 1.347 . S
C15 C18 1.365 . S
C15 N20 1.328 . S
C15 H21 0.929 . S
C16 C17 1.362 . S
C16 C19 1.378 . S
C16 H31 0.929 . S
C17 C16 1.362 . S
C17 C18 1.366 . S
C18 C15 1.365 . S
C18 C17 1.366 . S
C18 H32 0.930 . S
C19 C16 1.378 . S
C19 N20 1.315 . S
C19 H22 0.930 . S
N20 Co0 2.194 . S
N20 C15 1.328 . S
N20 C19 1.315 . S
H21 C15 0.929 . S
H22 C19 0.930 . S
H23 C11 0.929 . S
H24 C13 0.929 . S
O25 Co0 2.351 . S
O25 C28 1.244 . S
O26 Co0 2.155 . S
O26 C28 1.240 . S
O27 Co0 2.096 . S
O27 C8 1.247 . S
C28 O25 1.244 . S
C28 O26 1.240 . S
H29 C3 0.931 . S
H30 C12 0.931 1_655 S
H31 C16 0.929 . S
H32 C18 0.930 . S
Co33 N37 2.148 . S
Co33 N43 2.128 . S
Co33 N53 2.194 . S
Co33 O58 2.351 . S
Co33 O59 2.155 . S
Co33 O60 2.096 . S
C34 N37 1.301 . S
C34 N38 1.328 . S
C34 H39 0.930 . S
C35 C36 1.333 . S
C35 N37 1.317 . S
C35 H40 0.930 . S
C36 C35 1.333 . S
C36 N38 1.350 . S
C36 H62 0.931 . S
N37 Co33 2.148 . S
N37 C34 1.301 . S
N37 C35 1.317 . S
N38 C34 1.328 . S
N38 C36 1.350 . S
H39 C34 0.930 . S
H40 C35 0.930 . S
C41 O42 1.224 . S
C41 O60 1.247 . S
O42 C41 1.224 . S
N43 Co33 2.128 . S
N43 C44 1.355 . S
N43 C46 1.311 . S
C44 N43 1.355 . S
C44 C45 1.363 . S
C44 H56 0.929 . S
C45 C44 1.363 . S
C45 N47 1.375 . S
C45 H63 0.931 . S
C46 N43 1.311 . S
C46 N47 1.347 . S
C46 H57 0.929 . S
N47 C45 1.375 . S
N47 C46 1.347 . S
C48 C51 1.365 . S
C48 N53 1.328 . S
C48 H54 0.929 . S
C49 C50 1.362 . S
C49 C52 1.378 . S
C49 H64 0.929 . S
C50 C49 1.362 . S
C50 C51 1.366 . S
C51 C48 1.365 . S
C51 C50 1.366 . S
C51 H65 0.930 . S
C52 C49 1.378 . S
C52 N53 1.315 . S
C52 H55 0.930 . S
N53 Co33 2.194 . S
N53 C48 1.328 . S
N53 C52 1.315 . S
H54 C48 0.929 . S
H55 C52 0.930 . S
H56 C44 0.929 . S
H57 C46 0.929 . S
O58 Co33 2.351 . S
O58 C61 1.244 . S
O59 Co33 2.155 . S
O59 C61 1.240 . S
O60 Co33 2.096 . S
O60 C41 1.247 . S
C61 O58 1.244 . S
C61 O59 1.240 . S
H62 C36 0.931 . S
H63 C45 0.931 . S
H64 C49 0.929 . S
H65 C51 0.930 . S
Co66 N70 2.148 . S
Co66 N76 2.128 . S
Co66 N86 2.194 . S
Co66 O91 2.351 . S
Co66 O92 2.155 . S
Co66 O93 2.096 . S
C67 N70 1.301 . S
C67 N71 1.328 . S
C67 H72 0.930 . S
C68 C69 1.333 . S
C68 N70 1.317 . S
C68 H73 0.930 . S
C69 C68 1.333 . S
C69 N71 1.350 . S
C69 H95 0.931 . S
N70 Co66 2.148 . S
N70 C67 1.301 . S
N70 C68 1.317 . S
N71 C67 1.328 . S
N71 C69 1.350 . S
H72 C67 0.930 . S
H73 C68 0.930 . S
C74 O75 1.224 . S
C74 O93 1.247 . S
O75 C74 1.224 . S
N76 Co66 2.128 . S
N76 C77 1.355 . S
N76 C79 1.311 . S
C77 N76 1.355 . S
C77 C78 1.363 . S
C77 H89 0.929 . S
C78 C77 1.363 . S
C78 N80 1.375 . S
C78 H96 0.931 1_655 S
C79 N76 1.311 . S
C79 N80 1.347 . S
C79 H90 0.929 . S
N80 C78 1.375 . S
N80 C79 1.347 . S
C81 C84 1.365 . S
C81 N86 1.328 . S
C81 H87 0.929 . S
C82 C83 1.362 . S
C82 C85 1.378 . S
C82 H97 0.929 . S
C83 C82 1.362 . S
C83 C84 1.366 . S
C84 C81 1.365 . S
C84 C83 1.366 . S
C84 H98 0.930 . S
C85 C82 1.378 . S
C85 N86 1.315 . S
C85 H88 0.930 . S
N86 Co66 2.194 . S
N86 C81 1.328 . S
N86 C85 1.315 . S
H87 C81 0.929 . S
H88 C85 0.930 . S
H89 C77 0.929 . S
H90 C79 0.929 . S
O91 Co66 2.351 . S
O91 C94 1.244 . S
O92 Co66 2.155 . S
O92 C94 1.240 . S
O93 Co66 2.096 . S
O93 C74 1.247 . S
C94 O91 1.244 . S
C94 O92 1.240 . S
H95 C69 0.931 . S
H96 C78 0.931 1_455 S
H97 C82 0.929 . S
H98 C84 0.930 . S
Co99 N103 2.148 . S
Co99 N109 2.128 . S
Co99 N119 2.194 . S
Co99 O124 2.351 . S
Co99 O125 2.155 . S
Co99 O126 2.096 . S
C100 N103 1.301 . S
C100 N104 1.328 . S
C100 H105 0.930 . S
C101 C102 1.333 . S
C101 N103 1.317 . S
C101 H106 0.930 . S
C102 C101 1.333 . S
C102 N104 1.350 . S
C102 H128 0.931 . S
N103 Co99 2.148 . S
N103 C100 1.301 . S
N103 C101 1.317 . S
N104 C100 1.328 . S
N104 C102 1.350 . S
H105 C100 0.930 . S
H106 C101 0.930 . S
C107 O108 1.224 . S
C107 O126 1.247 . S
O108 C107 1.224 . S
N109 Co99 2.128 . S
N109 C110 1.355 . S
N109 C112 1.311 . S
C110 N109 1.355 . S
C110 C111 1.363 . S
C110 H122 0.929 . S
C111 C110 1.363 . S
C111 N113 1.375 . S
C111 H129 0.931 . S
C112 N109 1.311 . S
C112 N113 1.347 . S
C112 H123 0.929 . S
N113 C111 1.375 . S
N113 C112 1.347 . S
C114 C117 1.365 . S
C114 N119 1.328 . S
C114 H120 0.929 . S
C115 C116 1.362 . S
C115 C118 1.378 . S
C115 H130 0.929 . S
C116 C115 1.362 . S
C116 C117 1.366 . S
C117 C114 1.365 . S
C117 C116 1.366 . S
C117 H131 0.930 . S
C118 C115 1.378 . S
C118 N119 1.315 . S
C118 H121 0.930 . S
N119 Co99 2.194 . S
N119 C114 1.328 . S
N119 C118 1.315 . S
H120 C114 0.929 . S
H121 C118 0.930 . S
H122 C110 0.929 . S
H123 C112 0.929 . S
O124 Co99 2.351 . S
O124 C127 1.244 . S
O125 Co99 2.155 . S
O125 C127 1.240 . S
O126 Co99 2.096 . S
O126 C107 1.247 . S
C127 O124 1.244 . S
C127 O125 1.240 . S
H128 C102 0.931 . S
H129 C111 0.931 . S
H130 C115 0.929 . S
H131 C117 0.930 . S
Co132 N136 2.148 . S
Co132 N142 2.128 . S
Co132 N152 2.194 . S
Co132 O157 2.351 . S
Co132 O158 2.155 . S
Co132 O159 2.096 . S
C133 N136 1.301 . S
C133 N137 1.328 . S
C133 H138 0.930 . S
C134 C135 1.333 . S
C134 N136 1.317 . S
C134 H139 0.930 . S
C135 C134 1.333 . S
C135 N137 1.350 . S
C135 H161 0.931 . S
N136 Co132 2.148 . S
N136 C133 1.301 . S
N136 C134 1.317 . S
N137 C133 1.328 . S
N137 C135 1.350 . S
H138 C133 0.930 . S
H139 C134 0.930 . S
C140 O141 1.224 . S
C140 O159 1.247 . S
O141 C140 1.224 . S
N142 Co132 2.128 . S
N142 C143 1.355 . S
N142 C145 1.311 . S
C143 N142 1.355 . S
C143 C144 1.363 . S
C143 H155 0.929 . S
C144 C143 1.363 . S
C144 N146 1.375 . S
C144 H162 0.931 . S
C145 N142 1.311 . S
C145 N146 1.347 . S
C145 H156 0.929 . S
N146 C144 1.375 . S
N146 C145 1.347 . S
C147 C150 1.365 . S
C147 N152 1.328 . S
C147 H153 0.929 . S
C148 C149 1.362 . S
C148 C151 1.378 . S
C148 H163 0.929 . S
C149 C148 1.362 . S
C149 C150 1.366 . S
C150 C147 1.365 . S
C150 C149 1.366 . S
C150 H164 0.930 . S
C151 C148 1.378 . S
C151 N152 1.315 . S
C151 H154 0.930 . S
N152 Co132 2.194 . S
N152 C147 1.328 . S
N152 C151 1.315 . S
H153 C147 0.929 . S
H154 C151 0.930 . S
H155 C143 0.929 . S
H156 C145 0.929 . S
O157 Co132 2.351 . S
O157 C160 1.244 . S
O158 Co132 2.155 . S
O158 C160 1.240 . S
O159 Co132 2.096 . S
O159 C140 1.247 . S
C160 O157 1.244 . S
C160 O158 1.240 . S
H161 C135 0.931 . S
H162 C144 0.931 . S
H163 C148 0.929 . S
H164 C150 0.930 . S
Co165 N169 2.148 . S
Co165 N175 2.128 . S
Co165 N185 2.194 . S
Co165 O190 2.351 . S
Co165 O191 2.155 . S
Co165 O192 2.096 . S
C166 N169 1.301 . S
C166 N170 1.328 . S
C166 H171 0.930 . S
C167 C168 1.333 . S
C167 N169 1.317 . S
C167 H172 0.930 . S
C168 C167 1.333 . S
C168 N170 1.350 . S
C168 H194 0.931 . S
N169 Co165 2.148 . S
N169 C166 1.301 . S
N169 C167 1.317 . S
N170 C166 1.328 . S
N170 C168 1.350 . S
H171 C166 0.930 . S
H172 C167 0.930 . S
C173 O174 1.224 . S
C173 O192 1.247 . S
O174 C173 1.224 . S
N175 Co165 2.128 . S
N175 C176 1.355 . S
N175 C178 1.311 . S
C176 N175 1.355 . S
C176 C177 1.363 . S
C176 H188 0.929 . S
C177 C176 1.363 . S
C177 N179 1.375 . S
C177 H195 0.931 1_545 S
C178 N175 1.311 . S
C178 N179 1.347 . S
C178 H189 0.929 . S
N179 C177 1.375 . S
N179 C178 1.347 . S
C180 C183 1.365 . S
C180 N185 1.328 . S
C180 H186 0.929 . S
C181 C182 1.362 . S
C181 C184 1.378 . S
C181 H196 0.929 . S
C182 C181 1.362 . S
C182 C183 1.366 . S
C183 C180 1.365 . S
C183 C182 1.366 . S
C183 H197 0.930 . S
C184 C181 1.378 . S
C184 N185 1.315 . S
C184 H187 0.930 . S
N185 Co165 2.194 . S
N185 C180 1.328 . S
N185 C184 1.315 . S
H186 C180 0.929 . S
H187 C184 0.930 . S
H188 C176 0.929 . S
H189 C178 0.929 . S
O190 Co165 2.351 . S
O190 C193 1.244 . S
O191 Co165 2.155 . S
O191 C193 1.240 . S
O192 Co165 2.096 . S
O192 C173 1.247 . S
C193 O190 1.244 . S
C193 O191 1.240 . S
H194 C168 0.931 . S
H195 C177 0.931 1_565 S
H196 C181 0.929 . S
H197 C183 0.930 . S
Co198 N202 2.148 . S
Co198 N208 2.128 . S
Co198 N218 2.194 . S
Co198 O223 2.351 . S
Co198 O224 2.155 . S
Co198 O225 2.096 . S
C199 N202 1.301 . S
C199 N203 1.328 . S
C199 H204 0.930 . S
C200 C201 1.333 . S
C200 N202 1.317 . S
C200 H205 0.930 . S
C201 C200 1.333 . S
C201 N203 1.350 . S
C201 H227 0.931 . S
N202 Co198 2.148 . S
N202 C199 1.301 . S
N202 C200 1.317 . S
N203 C199 1.328 . S
N203 C201 1.350 . S
H204 C199 0.930 . S
H205 C200 0.930 . S
C206 O207 1.224 . S
C206 O225 1.247 . S
O207 C206 1.224 . S
N208 Co198 2.128 . S
N208 C209 1.355 . S
N208 C211 1.311 . S
C209 N208 1.355 . S
C209 C210 1.363 . S
C209 H221 0.929 . S
C210 C209 1.363 . S
C210 N212 1.375 . S
C210 H228 0.931 . S
C211 N208 1.311 . S
C211 N212 1.347 . S
C211 H222 0.929 . S
N212 C210 1.375 . S
N212 C211 1.347 . S
C213 C216 1.365 . S
C213 N218 1.328 . S
C213 H219 0.929 . S
C214 C215 1.362 . S
C214 C217 1.378 . S
C214 H229 0.929 . S
C215 C214 1.362 . S
C215 C216 1.366 . S
C216 C213 1.365 . S
C216 C215 1.366 . S
C216 H230 0.930 . S
C217 C214 1.378 . S
C217 N218 1.315 . S
C217 H220 0.930 . S
N218 Co198 2.194 . S
N218 C213 1.328 . S
N218 C217 1.315 . S
H219 C213 0.929 . S
H220 C217 0.930 . S
H221 C209 0.929 . S
H222 C211 0.929 . S
O223 Co198 2.351 . S
O223 C226 1.244 . S
O224 Co198 2.155 . S
O224 C226 1.240 . S
O225 Co198 2.096 . S
O225 C206 1.247 . S
C226 O223 1.244 . S
C226 O224 1.240 . S
H227 C201 0.931 . S
H228 C210 0.931 . S
H229 C214 0.929 . S
H230 C216 0.930 . S
Co231 N235 2.148 . S
Co231 N241 2.128 . S
Co231 N251 2.194 . S
Co231 O256 2.351 . S
Co231 O257 2.155 . S
Co231 O258 2.096 . S
C232 N235 1.301 . S
C232 N236 1.328 . S
C232 H237 0.930 . S
C233 C234 1.333 . S
C233 N235 1.317 . S
C233 H238 0.930 . S
C234 C233 1.333 . S
C234 N236 1.350 . S
C234 H260 0.931 . S
N235 Co231 2.148 . S
N235 C232 1.301 . S
N235 C233 1.317 . S
N236 C232 1.328 . S
N236 C234 1.350 . S
H237 C232 0.930 . S
H238 C233 0.930 . S
C239 O240 1.224 . S
C239 O258 1.247 . S
O240 C239 1.224 . S
N241 Co231 2.128 . S
N241 C242 1.355 . S
N241 C244 1.311 . S
C242 N241 1.355 . S
C242 C243 1.363 . S
C242 H254 0.929 . S
C243 C242 1.363 . S
C243 N245 1.375 . S
C243 H261 0.931 1_565 S
C244 N241 1.311 . S
C244 N245 1.347 . S
C244 H255 0.929 . S
N245 C243 1.375 . S
N245 C244 1.347 . S
C246 C249 1.365 . S
C246 N251 1.328 . S
C246 H252 0.929 . S
C247 C248 1.362 . S
C247 C250 1.378 . S
C247 H262 0.929 . S
C248 C247 1.362 . S
C248 C249 1.366 . S
C249 C246 1.365 . S
C249 C248 1.366 . S
C249 H263 0.930 . S
C250 C247 1.378 . S
C250 N251 1.315 . S
C250 H253 0.930 . S
N251 Co231 2.194 . S
N251 C246 1.328 . S
N251 C250 1.315 . S
H252 C246 0.929 . S
H253 C250 0.930 . S
H254 C242 0.929 . S
H255 C244 0.929 . S
O256 Co231 2.351 . S
O256 C259 1.244 . S
O257 Co231 2.155 . S
O257 C259 1.240 . S
O258 Co231 2.096 . S
O258 C239 1.247 . S
C259 O256 1.244 . S
C259 O257 1.240 . S
H260 C234 0.931 . S
H261 C243 0.931 1_545 S
H262 C247 0.929 . S
H263 C249 0.930 . S
H264 C282 0.951 . S
H265 C284 0.951 . S
H266 C286 0.950 . S
H267 C287 0.950 . S
H268 C289 0.950 . S
H269 C292 0.950 . S
H270 C293 0.950 . S
H271 C295 0.950 . S
H272 C296 0.950 . S
H273 C297 0.951 . S
H274 C299 0.951 . S
H275 C301 0.950 . S
H276 C302 0.950 . S
H277 C304 0.950 . S
H278 C307 0.950 . S
H279 C308 0.950 . S
H280 C310 0.950 . S
H281 C311 0.950 . S
C282 H264 0.951 . S
C282 C283 1.366 . S
C282 C284 1.388 . S
C283 C282 1.366 . S
C283 C287 1.385 . S
C284 H265 0.951 . S
C284 C282 1.388 . S
C284 C285 1.366 . S
C285 C284 1.366 . S
C285 C286 1.414 . S
C285 C288 1.499 . S
C286 H266 0.950 . S
C286 C285 1.414 . S
C286 C287 1.374 . S
C287 H267 0.950 . S
C287 C283 1.385 . S
C287 C286 1.374 . S
C288 C285 1.499 . S
C288 C289 1.373 . S
C288 C290 1.389 . S
C289 H268 0.950 . S
C289 C288 1.373 . S
C289 C305 1.377 . S
C290 C288 1.389 . S
C290 C291 1.524 . S
C290 C304 1.377 . S
C291 C290 1.524 . S
C291 C292 1.397 . S
C291 C296 1.363 . S
C292 H269 0.950 . S
C292 C291 1.397 . S
C292 C293 1.334 . S
C293 H270 0.950 . S
C293 C292 1.334 . S
C293 C294 1.287 . S
C294 C293 1.287 . S
C294 C295 1.524 . S
C294 H313 0.913 . S
C295 H271 0.950 . S
C295 C294 1.524 . S
C295 C296 1.415 . S
C296 H272 0.950 . S
C296 C291 1.363 . S
C296 C295 1.415 . S
C297 H273 0.951 . S
C297 C298 1.366 . S
C297 C299 1.388 . S
C298 C297 1.366 . S
C298 C302 1.385 . S
C299 H274 0.951 . S
C299 C297 1.388 . S
C299 C300 1.366 . S
C300 C299 1.366 . S
C300 C301 1.414 . S
C300 C303 1.499 . S
C301 H275 0.950 . S
C301 C300 1.414 . S
C301 C302 1.374 . S
C302 H276 0.950 . S
C302 C298 1.385 . S
C302 C301 1.374 . S
C303 C300 1.499 . S
C303 C304 1.373 . S
C303 C305 1.389 . S
C304 H277 0.950 . S
C304 C290 1.377 . S
C304 C303 1.373 . S
C305 C289 1.377 . S
C305 C303 1.389 . S
C305 C306 1.524 . S
C306 C305 1.524 . S
C306 C307 1.397 . S
C306 C311 1.363 . S
C307 H278 0.950 . S
C307 C306 1.397 . S
C307 C308 1.334 . S
C308 H279 0.950 . S
C308 C307 1.334 . S
C308 C309 1.287 . S
C309 C308 1.287 . S
C309 C310 1.524 . S
C309 H312 0.999 . S
C310 H280 0.950 . S
C310 C309 1.524 . S
C310 C311 1.415 . S
C311 H281 0.950 . S
C311 C306 1.363 . S
C311 C310 1.415 . S
H312 C309 0.999 . S
H313 C294 0.913 . S
H314 C332 0.951 . S
H315 C334 0.951 . S
H316 C336 0.950 . S
H317 C337 0.950 1_655 S
H318 C339 0.950 . S
H319 C342 0.950 . S
H320 C343 0.950 . S
H321 C345 0.950 . S
H322 C346 0.950 . S
H323 C347 0.951 . S
H324 C349 0.951 . S
H325 C351 0.950 . S
H326 C352 0.950 . S
H327 C354 0.950 . S
H328 C357 0.950 . S
H329 C358 0.950 . S
H330 C360 0.949 . S
H331 C361 0.950 . S
C332 H314 0.951 . S
C332 C333 1.366 . S
C332 C334 1.388 . S
C333 C332 1.366 . S
C333 C337 1.385 . S
C334 H315 0.951 . S
C334 C332 1.388 . S
C334 C335 1.366 . S
C335 C334 1.366 . S
C335 C336 1.414 . S
C335 C338 1.499 . S
C336 H316 0.950 . S
C336 C335 1.414 . S
C336 C337 1.374 . S
C337 H317 0.950 1_455 S
C337 C333 1.385 . S
C337 C336 1.374 . S
C338 C335 1.499 . S
C338 C339 1.373 . S
C338 C340 1.389 . S
C339 H318 0.950 . S
C339 C338 1.373 . S
C339 C355 1.377 . S
C340 C338 1.389 . S
C340 C341 1.524 . S
C340 C354 1.377 . S
C341 C340 1.524 . S
C341 C342 1.397 . S
C341 C346 1.363 . S
C342 H319 0.950 . S
C342 C341 1.397 . S
C342 C343 1.334 . S
C343 H320 0.950 . S
C343 C342 1.334 . S
C343 C344 1.287 . S
C344 C343 1.287 . S
C344 C345 1.524 . S
C344 H363 0.913 . S
C345 H321 0.950 . S
C345 C344 1.524 . S
C345 C346 1.415 . S
C346 H322 0.950 . S
C346 C341 1.363 . S
C346 C345 1.415 . S
C347 H323 0.951 . S
C347 C348 1.366 . S
C347 C349 1.388 . S
C348 C347 1.366 . S
C348 C352 1.385 . S
C349 H324 0.951 . S
C349 C347 1.388 . S
C349 C350 1.366 . S
C350 C349 1.366 . S
C350 C351 1.414 . S
C350 C353 1.499 . S
C351 H325 0.950 . S
C351 C350 1.414 . S
C351 C352 1.374 . S
C352 H326 0.950 . S
C352 C348 1.385 . S
C352 C351 1.374 . S
C353 C350 1.499 . S
C353 C354 1.373 . S
C353 C355 1.389 . S
C354 H327 0.950 . S
C354 C340 1.377 . S
C354 C353 1.373 . S
C355 C339 1.377 . S
C355 C353 1.389 . S
C355 C356 1.524 . S
C356 C355 1.524 . S
C356 C357 1.397 . S
C356 C361 1.363 . S
C357 H328 0.950 . S
C357 C356 1.397 . S
C357 C358 1.334 . S
C358 H329 0.950 . S
C358 C357 1.334 . S
C358 C359 1.287 . S
C359 C358 1.287 . S
C359 C360 1.524 . S
C359 H362 0.999 1_455 S
C360 H330 0.949 . S
C360 C359 1.524 . S
C360 C361 1.415 . S
C361 H331 0.950 . S
C361 C356 1.363 . S
C361 C360 1.415 . S
H362 C359 0.999 1_655 S
H363 C344 0.913 . S
H364 C382 0.951 . S
H365 C384 0.951 . S
H366 C386 0.950 . S
H367 C387 0.950 . S
H368 C389 0.950 . S
H369 C392 0.950 . S
H370 C393 0.950 . S
H371 C395 0.950 . S
H372 C396 0.950 . S
H373 C397 0.951 . S
H374 C399 0.951 . S
H375 C401 0.950 . S
H376 C402 0.950 . S
H377 C404 0.950 . S
H378 C407 0.950 . S
H379 C408 0.950 . S
H380 C410 0.950 . S
H381 C411 0.950 . S
C382 H364 0.951 . S
C382 C383 1.366 . S
C382 C384 1.388 . S
C383 C382 1.366 . S
C383 C387 1.385 . S
C384 H365 0.951 . S
C384 C382 1.388 . S
C384 C385 1.366 . S
C385 C384 1.366 . S
C385 C386 1.414 . S
C385 C388 1.499 . S
C386 H366 0.950 . S
C386 C385 1.414 . S
C386 C387 1.374 . S
C387 H367 0.950 . S
C387 C383 1.385 . S
C387 C386 1.374 . S
C388 C385 1.499 . S
C388 C389 1.373 . S
C388 C390 1.389 . S
C389 H368 0.950 . S
C389 C388 1.373 . S
C389 C405 1.377 . S
C390 C388 1.389 . S
C390 C391 1.524 . S
C390 C404 1.377 . S
C391 C390 1.524 . S
C391 C392 1.397 . S
C391 C396 1.363 . S
C392 H369 0.950 . S
C392 C391 1.397 . S
C392 C393 1.334 . S
C393 H370 0.950 . S
C393 C392 1.334 . S
C393 C394 1.287 . S
C394 C393 1.287 . S
C394 C395 1.524 . S
C394 H413 0.913 . S
C395 H371 0.950 . S
C395 C394 1.524 . S
C395 C396 1.415 . S
C396 H372 0.950 . S
C396 C391 1.363 . S
C396 C395 1.415 . S
C397 H373 0.951 . S
C397 C398 1.366 . S
C397 C399 1.388 . S
C398 C397 1.366 . S
C398 C402 1.385 . S
C399 H374 0.951 . S
C399 C397 1.388 . S
C399 C400 1.366 . S
C400 C399 1.366 . S
C400 C401 1.414 . S
C400 C403 1.499 . S
C401 H375 0.950 . S
C401 C400 1.414 . S
C401 C402 1.374 . S
C402 H376 0.950 . S
C402 C398 1.385 . S
C402 C401 1.374 . S
C403 C400 1.499 . S
C403 C404 1.373 . S
C403 C405 1.389 . S
C404 H377 0.950 . S
C404 C390 1.377 . S
C404 C403 1.373 . S
C405 C389 1.377 . S
C405 C403 1.389 . S
C405 C406 1.524 . S
C406 C405 1.524 . S
C406 C407 1.397 . S
C406 C411 1.363 . S
C407 H378 0.950 . S
C407 C406 1.397 . S
C407 C408 1.334 . S
C408 H379 0.950 . S
C408 C407 1.334 . S
C408 C409 1.287 . S
C409 C408 1.287 . S
C409 C410 1.524 . S
C409 H412 0.999 . S
C410 H380 0.950 . S
C410 C409 1.524 . S
C410 C411 1.415 . S
C411 H381 0.950 . S
C411 C406 1.363 . S
C411 C410 1.415 . S
H412 C409 0.999 . S
H413 C394 0.913 . S
H414 C432 0.951 . S
H415 C434 0.951 . S
H416 C436 0.950 1_554 S
H417 C437 0.950 . S
H418 C439 0.950 . S
H419 C442 0.950 . S
H420 C443 0.950 . S
H421 C445 0.950 . S
H422 C446 0.950 . S
H423 C447 0.951 . S
H424 C449 0.951 . S
H425 C451 0.950 1_455 S
H426 C452 0.950 . S
H427 C454 0.950 . S
H428 C457 0.950 . S
H429 C458 0.950 . S
H430 C460 0.950 . S
H431 C461 0.950 . S
C432 H414 0.951 . S
C432 C433 1.366 . S
C432 C434 1.388 . S
C433 C432 1.366 . S
C433 C437 1.385 . S
C434 H415 0.951 . S
C434 C432 1.388 . S
C434 C435 1.366 . S
C435 C434 1.366 . S
C435 C436 1.414 . S
C435 C438 1.499 1_556 S
C436 H416 0.950 1_556 S
C436 C435 1.414 . S
C436 C437 1.374 . S
C437 H417 0.950 . S
C437 C433 1.385 . S
C437 C436 1.374 . S
C438 C435 1.499 1_554 S
C438 C439 1.373 . S
C438 C440 1.389 . S
C439 H418 0.950 . S
C439 C438 1.373 . S
C439 C455 1.377 . S
C440 C438 1.389 . S
C440 C441 1.524 1_554 S
C440 C454 1.377 . S
C441 C440 1.524 1_556 S
C441 C442 1.397 . S
C441 C446 1.363 . S
C442 H419 0.950 . S
C442 C441 1.397 . S
C442 C443 1.334 . S
C443 H420 0.950 . S
C443 C442 1.334 . S
C443 C444 1.287 . S
C444 C443 1.287 . S
C444 C445 1.524 . S
C444 H463 0.913 . S
C445 H421 0.950 . S
C445 C444 1.524 . S
C445 C446 1.415 . S
C446 H422 0.950 . S
C446 C441 1.363 . S
C446 C445 1.415 . S
C447 H423 0.951 . S
C447 C448 1.366 . S
C447 C449 1.388 . S
C448 C447 1.366 . S
C448 C452 1.385 1_655 S
C449 H424 0.951 . S
C449 C447 1.388 . S
C449 C450 1.366 . S
C450 C449 1.366 . S
C450 C451 1.414 . S
C450 C453 1.499 . S
C451 H425 0.950 1_655 S
C451 C450 1.414 . S
C451 C452 1.374 1_655 S
C452 H426 0.950 . S
C452 C448 1.385 1_455 S
C452 C451 1.374 1_455 S
C453 C450 1.499 . S
C453 C454 1.373 . S
C453 C455 1.389 . S
C454 H427 0.950 . S
C454 C440 1.377 . S
C454 C453 1.373 . S
C455 C439 1.377 . S
C455 C453 1.389 . S
C455 C456 1.524 . S
C456 C455 1.524 . S
C456 C457 1.397 . S
C456 C461 1.363 . S
C457 H428 0.950 . S
C457 C456 1.397 . S
C457 C458 1.334 . S
C458 H429 0.950 . S
C458 C457 1.334 . S
C458 C459 1.287 . S
C459 C458 1.287 . S
C459 C460 1.524 . S
C459 H462 0.999 . S
C460 H430 0.950 . S
C460 C459 1.524 . S
C460 C461 1.415 . S
C461 H431 0.950 . S
C461 C456 1.363 . S
C461 C460 1.415 . S
H462 C459 0.999 . S
H463 C444 0.913 . S
H464 C482 0.951 . S
H465 C484 0.951 . S
H466 C486 0.950 . S
H467 C487 0.950 . S
H468 C489 0.950 . S
H469 C492 0.950 . S
H470 C493 0.950 . S
H471 C495 0.950 . S
H472 C496 0.950 . S
H473 C497 0.952 . S
H474 C499 0.951 . S
H475 C501 0.950 . S
H476 C502 0.950 . S
H477 C504 0.950 . S
H478 C507 0.950 . S
H479 C508 0.950 . S
H480 C510 0.950 . S
H481 C511 0.950 . S
C482 H464 0.951 . S
C482 C483 1.366 . S
C482 C484 1.388 . S
C483 C482 1.366 . S
C483 C487 1.385 . S
C484 H465 0.951 . S
C484 C482 1.388 . S
C484 C485 1.366 . S
C485 C484 1.366 . S
C485 C486 1.414 . S
C485 C488 1.499 . S
C486 H466 0.950 . S
C486 C485 1.414 . S
C486 C487 1.374 . S
C487 H467 0.950 . S
C487 C483 1.385 . S
C487 C486 1.374 . S
C488 C485 1.499 . S
C488 C489 1.373 . S
C488 C490 1.389 . S
C489 H468 0.950 . S
C489 C488 1.373 . S
C489 C505 1.377 . S
C490 C488 1.389 . S
C490 C491 1.524 . S
C490 C504 1.377 . S
C491 C490 1.524 . S
C491 C492 1.397 . S
C491 C496 1.363 . S
C492 H469 0.950 . S
C492 C491 1.397 . S
C492 C493 1.334 . S
C493 H470 0.950 . S
C493 C492 1.334 . S
C493 C494 1.287 . S
C494 C493 1.287 . S
C494 C495 1.524 . S
C494 H513 0.913 . S
C495 H471 0.950 . S
C495 C494 1.524 . S
C495 C496 1.415 . S
C496 H472 0.950 . S
C496 C491 1.363 . S
C496 C495 1.415 . S
C497 H473 0.952 . S
C497 C498 1.366 . S
C497 C499 1.388 . S
C498 C497 1.366 . S
C498 C502 1.385 . S
C499 H474 0.951 . S
C499 C497 1.388 . S
C499 C500 1.366 . S
C500 C499 1.366 . S
C500 C501 1.414 . S
C500 C503 1.499 . S
C501 H475 0.950 . S
C501 C500 1.414 . S
C501 C502 1.374 . S
C502 H476 0.950 . S
C502 C498 1.385 . S
C502 C501 1.374 . S
C503 C500 1.499 . S
C503 C504 1.373 . S
C503 C505 1.389 . S
C504 H477 0.950 . S
C504 C490 1.377 . S
C504 C503 1.373 . S
C505 C489 1.377 . S
C505 C503 1.389 . S
C505 C506 1.524 . S
C506 C505 1.524 . S
C506 C507 1.397 1_545 S
C506 C511 1.363 . S
C507 H478 0.950 . S
C507 C506 1.397 1_565 S
C507 C508 1.334 . S
C508 H479 0.950 . S
C508 C507 1.334 . S
C508 C509 1.287 . S
C509 C508 1.287 . S
C509 C510 1.524 . S
C509 H512 0.999 . S
C510 H480 0.950 . S
C510 C509 1.524 . S
C510 C511 1.415 1_565 S
C511 H481 0.950 . S
C511 C506 1.363 . S
C511 C510 1.415 1_545 S
H512 C509 0.999 . S
H513 C494 0.913 . S
H514 C532 0.951 . S
H515 C534 0.951 . S
H516 C536 0.950 . S
H517 C537 0.950 . S
H518 C539 0.950 . S
H519 C542 0.950 . S
H520 C543 0.950 . S
H521 C545 0.950 . S
H522 C546 0.950 . S
H523 C547 0.951 . S
H524 C549 0.951 . S
H525 C551 0.950 . S
H526 C552 0.950 . S
H527 C554 0.950 . S
H528 C557 0.950 . S
H529 C558 0.950 . S
H530 C560 0.950 . S
H531 C561 0.950 . S
C532 H514 0.951 . S
C532 C533 1.366 . S
C532 C534 1.388 . S
C533 C532 1.366 . S
C533 C537 1.385 . S
C534 H515 0.951 . S
C534 C532 1.388 . S
C534 C535 1.366 . S
C535 C534 1.366 . S
C535 C536 1.414 . S
C535 C538 1.499 . S
C536 H516 0.950 . S
C536 C535 1.414 . S
C536 C537 1.374 . S
C537 H517 0.950 . S
C537 C533 1.385 . S
C537 C536 1.374 . S
C538 C535 1.499 . S
C538 C539 1.373 . S
C538 C540 1.389 . S
C539 H518 0.950 . S
C539 C538 1.373 . S
C539 C555 1.377 . S
C540 C538 1.389 . S
C540 C541 1.524 . S
C540 C554 1.377 . S
C541 C540 1.524 . S
C541 C542 1.397 . S
C541 C546 1.363 . S
C542 H519 0.950 . S
C542 C541 1.397 . S
C542 C543 1.334 . S
C543 H520 0.950 . S
C543 C542 1.334 . S
C543 C544 1.287 . S
C544 C543 1.287 . S
C544 C545 1.524 . S
C544 H563 0.913 . S
C545 H521 0.950 . S
C545 C544 1.524 . S
C545 C546 1.415 . S
C546 H522 0.950 . S
C546 C541 1.363 . S
C546 C545 1.415 . S
C547 H523 0.951 . S
C547 C548 1.366 . S
C547 C549 1.388 . S
C548 C547 1.366 . S
C548 C552 1.385 . S
C549 H524 0.951 . S
C549 C547 1.388 . S
C549 C550 1.366 . S
C550 C549 1.366 . S
C550 C551 1.414 . S
C550 C553 1.499 . S
C551 H525 0.950 . S
C551 C550 1.414 . S
C551 C552 1.374 . S
C552 H526 0.950 . S
C552 C548 1.385 . S
C552 C551 1.374 . S
C553 C550 1.499 . S
C553 C554 1.373 . S
C553 C555 1.389 . S
C554 H527 0.950 . S
C554 C540 1.377 . S
C554 C553 1.373 . S
C555 C539 1.377 . S
C555 C553 1.389 . S
C555 C556 1.524 . S
C556 C555 1.524 . S
C556 C557 1.397 . S
C556 C561 1.363 . S
C557 H528 0.950 . S
C557 C556 1.397 . S
C557 C558 1.334 . S
C558 H529 0.950 . S
C558 C557 1.334 . S
C558 C559 1.287 . S
C559 C558 1.287 . S
C559 C560 1.524 . S
C559 H562 0.999 . S
C560 H530 0.950 . S
C560 C559 1.524 . S
C560 C561 1.415 . S
C561 H531 0.950 . S
C561 C556 1.363 . S
C561 C560 1.415 . S
H562 C559 0.999 . S
H563 C544 0.913 . S
H564 C582 0.951 . S
H565 C584 0.951 . S
H566 C586 0.950 1_556 S
H567 C587 0.950 . S
H568 C589 0.950 . S
H569 C592 0.950 . S
H570 C593 0.950 . S
H571 C595 0.950 . S
H572 C596 0.950 . S
H573 C597 0.951 . S
H574 C599 0.951 . S
H575 C601 0.950 1_545 S
H576 C602 0.950 . S
H577 C604 0.950 . S
H578 C607 0.950 . S
H579 C608 0.950 . S
H580 C610 0.950 . S
H581 C611 0.950 . S
C582 H564 0.951 . S
C582 C583 1.366 . S
C582 C584 1.388 . S
C583 C582 1.366 . S
C583 C587 1.385 . S
C584 H565 0.951 . S
C584 C582 1.388 . S
C584 C585 1.366 . S
C585 C584 1.366 . S
C585 C586 1.414 . S
C585 C588 1.499 1_554 S
C586 H566 0.950 1_554 S
C586 C585 1.414 . S
C586 C587 1.374 . S
C587 H567 0.950 . S
C587 C583 1.385 . S
C587 C586 1.374 . S
C588 C585 1.499 1_556 S
C588 C589 1.373 . S
C588 C590 1.389 . S
C589 H568 0.950 . S
C589 C588 1.373 . S
C589 C605 1.377 . S
C590 C588 1.389 . S
C590 C591 1.524 1_556 S
C590 C604 1.377 . S
C591 C590 1.524 1_554 S
C591 C592 1.397 . S
C591 C596 1.363 . S
C592 H569 0.950 . S
C592 C591 1.397 . S
C592 C593 1.334 . S
C593 H570 0.950 . S
C593 C592 1.334 . S
C593 C594 1.287 . S
C594 C593 1.287 . S
C594 C595 1.524 . S
C594 H613 0.913 . S
C595 H571 0.950 . S
C595 C594 1.524 . S
C595 C596 1.415 . S
C596 H572 0.950 . S
C596 C591 1.363 . S
C596 C595 1.415 . S
C597 H573 0.951 . S
C597 C598 1.366 . S
C597 C599 1.388 . S
C598 C597 1.366 . S
C598 C602 1.385 1_565 S
C599 H574 0.951 . S
C599 C597 1.388 . S
C599 C600 1.366 . S
C600 C599 1.366 . S
C600 C601 1.414 . S
C600 C603 1.499 . S
C601 H575 0.950 1_565 S
C601 C600 1.414 . S
C601 C602 1.374 1_565 S
C602 H576 0.950 . S
C602 C598 1.385 1_545 S
C602 C601 1.374 1_545 S
C603 C600 1.499 . S
C603 C604 1.373 . S
C603 C605 1.389 . S
C604 H577 0.950 . S
C604 C590 1.377 . S
C604 C603 1.373 . S
C605 C589 1.377 . S
C605 C603 1.389 . S
C605 C606 1.524 . S
C606 C605 1.524 . S
C606 C607 1.397 . S
C606 C611 1.363 . S
C607 H578 0.950 . S
C607 C606 1.397 . S
C607 C608 1.334 . S
C608 H579 0.950 . S
C608 C607 1.334 . S
C608 C609 1.287 . S
C609 C608 1.287 . S
C609 C610 1.524 . S
C609 H612 0.999 . S
C610 H580 0.950 . S
C610 C609 1.524 . S
C610 C611 1.415 . S
C611 H581 0.950 . S
C611 C606 1.363 . S
C611 C610 1.415 . S
H612 C609 0.999 . S
H613 C594 0.913 . S
H614 C632 0.951 . S
H615 C634 0.951 . S
H616 C636 0.950 . S
H617 C637 0.950 . S
H618 C639 0.950 . S
H619 C642 0.950 . S
H620 C643 0.950 . S
H621 C645 0.932 1_545 S
H622 C646 0.950 . S
H623 C647 0.951 . S
H624 C649 0.951 . S
H625 C651 0.950 . S
H626 C652 0.950 . S
H627 C654 0.950 . S
H628 C657 0.950 . S
H629 C658 0.950 . S
H630 C660 0.950 . S
H631 C661 0.950 . S
C632 H614 0.951 . S
C632 C633 1.366 . S
C632 C634 1.388 . S
C633 C632 1.366 . S
C633 C637 1.385 . S
C634 H615 0.951 . S
C634 C632 1.388 . S
C634 C635 1.366 . S
C635 C634 1.366 . S
C635 C636 1.414 . S
C635 C638 1.499 . S
C636 H616 0.950 . S
C636 C635 1.414 . S
C636 C637 1.374 . S
C637 H617 0.950 . S
C637 C633 1.385 . S
C637 C636 1.374 . S
C638 C635 1.499 . S
C638 C639 1.373 . S
C638 C640 1.389 . S
C639 H618 0.950 . S
C639 C638 1.373 . S
C639 C655 1.377 . S
C640 C638 1.389 . S
C640 C641 1.524 . S
C640 C654 1.377 . S
C641 C640 1.524 . S
C641 C642 1.397 . S
C641 C646 1.363 . S
C642 H619 0.950 . S
C642 C641 1.397 . S
C642 C643 1.334 . S
C643 H620 0.950 . S
C643 C642 1.334 . S
C643 C644 1.287 . S
C644 C643 1.287 . S
C644 C645 1.524 . S
C644 H663 0.913 . S
C645 H621 0.932 1_565 S
C645 C644 1.524 . S
C645 C646 1.415 . S
C646 H622 0.950 . S
C646 C641 1.363 . S
C646 C645 1.415 . S
C647 H623 0.951 . S
C647 C648 1.366 . S
C647 C649 1.388 . S
C648 C647 1.366 . S
C648 C652 1.385 . S
C649 H624 0.951 . S
C649 C647 1.388 . S
C649 C650 1.366 . S
C650 C649 1.366 . S
C650 C651 1.414 . S
C650 C653 1.499 . S
C651 H625 0.950 . S
C651 C650 1.414 . S
C651 C652 1.374 . S
C652 H626 0.950 . S
C652 C648 1.385 . S
C652 C651 1.374 . S
C653 C650 1.499 . S
C653 C654 1.373 . S
C653 C655 1.389 . S
C654 H627 0.950 . S
C654 C640 1.377 . S
C654 C653 1.373 . S
C655 C639 1.377 . S
C655 C653 1.389 . S
C655 C656 1.524 . S
C656 C655 1.524 . S
C656 C657 1.397 . S
C656 C661 1.363 . S
C657 H628 0.950 . S
C657 C656 1.397 . S
C657 C658 1.334 . S
C658 H629 0.950 . S
C658 C657 1.334 . S
C658 C659 1.287 . S
C659 C658 1.287 . S
C659 C660 1.524 . S
C659 H662 0.999 . S
C660 H630 0.950 . S
C660 C659 1.524 . S
C660 C661 1.415 . S
C661 H631 0.950 . S
C661 C656 1.363 . S
C661 C660 1.415 . S
H662 C659 0.999 . S
H663 C644 0.913 . S
H664 C682 0.951 . S
H665 C684 0.951 . S
H666 C686 0.950 . S
H667 C687 0.950 . S
H668 C689 0.937 1_565 S
H669 C692 0.950 . S
H670 C693 0.950 . S
H671 C695 0.950 . S
H672 C696 0.950 . S
H673 C697 0.951 . S
H674 C699 0.951 . S
H675 C701 0.950 . S
H676 C702 0.950 . S
H677 C704 0.950 . S
H678 C707 0.950 . S
H679 C708 0.950 . S
H680 C710 0.950 . S
H681 C711 0.950 . S
C682 H664 0.951 . S
C682 C683 1.366 . S
C682 C684 1.388 . S
C683 C682 1.366 . S
C683 C687 1.385 . S
C684 H665 0.951 . S
C684 C682 1.388 . S
C684 C685 1.366 . S
C685 C684 1.366 . S
C685 C686 1.414 . S
C685 C688 1.499 . S
C686 H666 0.950 . S
C686 C685 1.414 . S
C686 C687 1.374 . S
C687 H667 0.950 . S
C687 C683 1.385 . S
C687 C686 1.374 . S
C688 C685 1.499 . S
C688 C689 1.371 1_565 S
C688 C690 1.389 1_565 S
C689 H668 0.937 1_545 S
C689 C688 1.371 1_545 S
C689 C705 1.392 . S
C690 C688 1.389 1_545 S
C690 C691 1.524 . S
C690 C704 1.377 . S
C691 C690 1.524 . S
C691 C692 1.397 . S
C691 C696 1.363 . S
C692 H669 0.950 . S
C692 C691 1.397 . S
C692 C693 1.334 . S
C693 H670 0.950 . S
C693 C692 1.334 . S
C693 C694 1.287 . S
C694 C693 1.287 . S
C694 C695 1.524 . S
C694 H713 0.913 . S
C695 H671 0.950 . S
C695 C694 1.524 . S
C695 C696 1.415 . S
C696 H672 0.950 . S
C696 C691 1.363 . S
C696 C695 1.415 . S
C697 H673 0.951 . S
C697 C698 1.366 . S
C697 C699 1.388 . S
C698 C697 1.366 . S
C698 C702 1.385 . S
C699 H674 0.951 . S
C699 C697 1.388 . S
C699 C700 1.366 . S
C700 C699 1.366 . S
C700 C701 1.414 . S
C700 C703 1.499 . S
C701 H675 0.950 . S
C701 C700 1.414 . S
C701 C702 1.374 . S
C702 H676 0.950 . S
C702 C698 1.385 . S
C702 C701 1.374 . S
C703 C700 1.499 . S
C703 C704 1.373 . S
C703 C705 1.389 . S
C704 H677 0.950 . S
C704 C690 1.377 . S
C704 C703 1.373 . S
C705 C689 1.392 . S
C705 C703 1.389 . S
C705 C706 1.524 . S
C706 C705 1.524 . S
C706 C707 1.397 . S
C706 C711 1.363 . S
C707 H678 0.950 . S
C707 C706 1.397 . S
C707 C708 1.334 . S
C708 H679 0.950 . S
C708 C707 1.334 . S
C708 C709 1.287 . S
C709 C708 1.287 . S
C709 C710 1.524 . S
C709 H712 0.999 . S
C710 H680 0.950 . S
C710 C709 1.524 . S
C710 C711 1.415 . S
C711 H681 0.950 . S
C711 C706 1.363 . S
C711 C710 1.415 . S
H712 C709 0.999 . S
H713 C694 0.913 . S
H714 C732 0.951 . S
H715 C734 0.951 . S
H716 C736 0.950 . S
H717 C737 0.950 . S
H718 C739 0.950 . S
H719 C742 0.950 . S
H720 C743 0.950 . S
H721 C745 0.950 . S
H722 C746 0.950 . S
H723 C747 0.951 . S
H724 C749 0.951 . S
H725 C751 0.950 . S
H726 C752 0.950 . S
H727 C754 0.950 . S
H728 C757 0.950 . S
H729 C758 0.950 . S
H730 C760 0.950 . S
H731 C761 0.950 . S
C732 H714 0.951 . S
C732 C733 1.366 . S
C732 C734 1.388 . S
C733 C732 1.366 . S
C733 C737 1.385 . S
C734 H715 0.951 . S
C734 C732 1.388 . S
C734 C735 1.366 . S
C735 C734 1.366 . S
C735 C736 1.414 . S
C735 C738 1.499 . S
C736 H716 0.950 . S
C736 C735 1.414 . S
C736 C737 1.374 . S
C737 H717 0.950 . S
C737 C733 1.385 . S
C737 C736 1.374 . S
C738 C735 1.499 . S
C738 C739 1.373 . S
C738 C740 1.389 . S
C739 H718 0.950 . S
C739 C738 1.373 . S
C739 C755 1.377 . S
C740 C738 1.389 . S
C740 C741 1.524 . S
C740 C754 1.377 . S
C741 C740 1.524 . S
C741 C742 1.397 . S
C741 C746 1.363 . S
C742 H719 0.950 . S
C742 C741 1.397 . S
C742 C743 1.334 . S
C743 H720 0.950 . S
C743 C742 1.334 . S
C743 C744 1.287 . S
C744 C743 1.287 . S
C744 C745 1.524 . S
C744 H763 0.913 . S
C745 H721 0.950 . S
C745 C744 1.524 . S
C745 C746 1.415 . S
C746 H722 0.950 . S
C746 C741 1.363 . S
C746 C745 1.415 . S
C747 H723 0.951 . S
C747 C748 1.366 . S
C747 C749 1.388 . S
C748 C747 1.366 . S
C748 C752 1.385 . S
C749 H724 0.951 . S
C749 C747 1.388 . S
C749 C750 1.366 . S
C750 C749 1.366 . S
C750 C751 1.414 . S
C750 C753 1.499 . S
C751 H725 0.950 . S
C751 C750 1.414 . S
C751 C752 1.374 . S
C752 H726 0.950 . S
C752 C748 1.385 . S
C752 C751 1.374 . S
C753 C750 1.499 . S
C753 C754 1.373 . S
C753 C755 1.389 . S
C754 H727 0.950 . S
C754 C740 1.377 . S
C754 C753 1.373 . S
C755 C739 1.377 . S
C755 C753 1.389 . S
C755 C756 1.524 . S
C756 C755 1.524 . S
C756 C757 1.397 . S
C756 C761 1.363 . S
C757 H728 0.950 . S
C757 C756 1.397 . S
C757 C758 1.334 . S
C758 H729 0.950 . S
C758 C757 1.334 . S
C758 C759 1.287 . S
C759 C758 1.287 . S
C759 C760 1.524 . S
C759 H762 0.999 . S
C760 H730 0.950 . S
C760 C759 1.524 . S
C760 C761 1.415 . S
C761 H731 0.950 . S
C761 C756 1.363 . S
C761 C760 1.415 . S
H762 C759 0.999 . S
H763 C744 0.913 . S
H764 C782 0.951 . S
H765 C784 0.951 . S
H766 C786 0.950 . S
H767 C787 0.950 . S
H768 C789 0.950 . S
H769 C792 0.950 . S
H770 C793 0.950 . S
H771 C795 0.950 . S
H772 C796 0.950 . S
H773 C797 0.951 . S
H774 C799 0.951 . S
H775 C801 0.950 . S
H776 C802 0.950 . S
H777 C804 0.950 . S
H778 C807 0.950 . S
H779 C808 0.950 . S
H780 C810 0.950 1_545 S
H781 C811 0.950 1_545 S
C782 H764 0.951 . S
C782 C783 1.366 . S
C782 C784 1.388 . S
C783 C782 1.366 . S
C783 C787 1.385 . S
C784 H765 0.951 . S
C784 C782 1.388 . S
C784 C785 1.366 . S
C785 C784 1.366 . S
C785 C786 1.414 . S
C785 C788 1.499 . S
C786 H766 0.950 . S
C786 C785 1.414 . S
C786 C787 1.374 . S
C787 H767 0.950 . S
C787 C783 1.385 . S
C787 C786 1.374 . S
C788 C785 1.499 . S
C788 C789 1.373 . S
C788 C790 1.389 1_545 S
C789 H768 0.950 . S
C789 C788 1.373 . S
C789 C805 1.377 1_545 S
C790 C788 1.389 1_565 S
C790 C791 1.524 . S
C790 C804 1.377 . S
C791 C790 1.524 . S
C791 C792 1.397 1_565 S
C791 C796 1.363 . S
C792 H769 0.950 . S
C792 C791 1.397 1_545 S
C792 C793 1.334 . S
C793 H770 0.950 . S
C793 C792 1.334 . S
C793 C794 1.287 1_545 S
C794 C793 1.287 1_565 S
C794 C795 1.524 . S
C794 H813 0.913 . S
C795 H771 0.950 . S
C795 C794 1.524 . S
C795 C796 1.415 . S
C796 H772 0.950 . S
C796 C791 1.363 . S
C796 C795 1.415 . S
C797 H773 0.951 . S
C797 C798 1.366 . S
C797 C799 1.388 . S
C798 C797 1.366 . S
C798 C802 1.385 . S
C799 H774 0.951 . S
C799 C797 1.388 . S
C799 C800 1.366 . S
C800 C799 1.366 . S
C800 C801 1.414 . S
C800 C803 1.499 . S
C801 H775 0.950 . S
C801 C800 1.414 . S
C801 C802 1.374 . S
C802 H776 0.950 . S
C802 C798 1.385 . S
C802 C801 1.374 . S
C803 C800 1.499 . S
C803 C804 1.373 . S
C803 C805 1.389 . S
C804 H777 0.950 . S
C804 C790 1.377 . S
C804 C803 1.373 . S
C805 C789 1.377 1_565 S
C805 C803 1.389 . S
C805 C806 1.524 . S
C806 C805 1.524 . S
C806 C807 1.397 . S
C806 C811 1.363 . S
C807 H778 0.950 . S
C807 C806 1.397 . S
C807 C808 1.334 . S
C808 H779 0.950 . S
C808 C807 1.334 . S
C808 C809 1.287 . S
C809 C808 1.287 . S
C809 C810 1.524 . S
C809 H812 0.999 . S
C810 H780 0.950 1_565 S
C810 C809 1.524 . S
C810 C811 1.415 . S
C811 H781 0.950 1_565 S
C811 C806 1.363 . S
C811 C810 1.415 . S
H812 C809 0.999 . S
H813 C794 0.913 . S
H814 C832 0.951 . S
H815 C834 0.951 . S
H816 C836 0.950 . S
H817 C837 0.950 . S
H818 C839 0.950 . S
H819 C842 0.950 . S
H820 C843 0.950 . S
H821 C845 0.950 . S
H822 C846 0.950 . S
H823 C847 0.951 . S
H824 C849 0.951 . S
H825 C851 0.950 . S
H826 C852 0.950 . S
H827 C854 0.950 . S
H828 C857 0.950 . S
H829 C858 0.950 . S
H830 C860 0.950 . S
H831 C861 0.950 . S
C832 H814 0.951 . S
C832 C833 1.366 . S
C832 C834 1.388 . S
C833 C832 1.366 . S
C833 C837 1.385 . S
C834 H815 0.951 . S
C834 C832 1.388 . S
C834 C835 1.366 . S
C835 C834 1.366 . S
C835 C836 1.414 . S
C835 C838 1.499 . S
C836 H816 0.950 . S
C836 C835 1.414 . S
C836 C837 1.374 . S
C837 H817 0.950 . S
C837 C833 1.385 . S
C837 C836 1.374 . S
C838 C835 1.499 . S
C838 C839 1.373 . S
C838 C840 1.389 . S
C839 H818 0.950 . S
C839 C838 1.373 . S
C839 C855 1.377 . S
C840 C838 1.389 . S
C840 C841 1.524 . S
C840 C854 1.377 . S
C841 C840 1.524 . S
C841 C842 1.397 . S
C841 C846 1.363 . S
C842 H819 0.950 . S
C842 C841 1.397 . S
C842 C843 1.334 . S
C843 H820 0.950 . S
C843 C842 1.334 . S
C843 C844 1.287 . S
C844 C843 1.287 . S
C844 C845 1.524 . S
C844 H863 0.913 . S
C845 H821 0.950 . S
C845 C844 1.524 . S
C845 C846 1.415 . S
C846 H822 0.950 . S
C846 C841 1.363 . S
C846 C845 1.415 . S
C847 H823 0.951 . S
C847 C848 1.366 . S
C847 C849 1.388 . S
C848 C847 1.366 . S
C848 C852 1.385 . S
C849 H824 0.951 . S
C849 C847 1.388 . S
C849 C850 1.366 . S
C850 C849 1.366 . S
C850 C851 1.414 . S
C850 C853 1.499 . S
C851 H825 0.950 . S
C851 C850 1.414 . S
C851 C852 1.374 . S
C852 H826 0.950 . S
C852 C848 1.385 . S
C852 C851 1.374 . S
C853 C850 1.499 . S
C853 C854 1.373 . S
C853 C855 1.389 . S
C854 H827 0.950 . S
C854 C840 1.377 . S
C854 C853 1.373 . S
C855 C839 1.377 . S
C855 C853 1.389 . S
C855 C856 1.524 . S
C856 C855 1.524 . S
C856 C857 1.397 . S
C856 C861 1.363 . S
C857 H828 0.950 . S
C857 C856 1.397 . S
C857 C858 1.334 . S
C858 H829 0.950 . S
C858 C857 1.334 . S
C858 C859 1.287 . S
C859 C858 1.287 . S
C859 C860 1.524 . S
C859 H862 0.999 . S
C860 H830 0.950 . S
C860 C859 1.524 . S
C860 C861 1.415 . S
C861 H831 0.950 . S
C861 C856 1.363 . S
C861 C860 1.415 . S
H862 C859 0.999 . S
H863 C844 0.913 . S
H864 C882 0.951 . S
H865 C884 0.951 . S
H866 C886 0.950 . S
H867 C887 0.950 . S
H868 C889 0.950 . S
H869 C892 0.950 . S
H870 C893 0.950 . S
H871 C895 0.950 . S
H872 C896 0.950 . S
H873 C897 0.951 . S
H874 C899 0.951 . S
H875 C901 0.950 . S
H876 C902 0.950 . S
H877 C904 0.950 . S
H878 C907 0.950 . S
H879 C908 0.950 . S
H880 C910 0.950 . S
H881 C911 0.950 . S
C882 H864 0.951 . S
C882 C883 1.366 . S
C882 C884 1.388 . S
C883 C882 1.366 . S
C883 C887 1.385 . S
C884 H865 0.951 . S
C884 C882 1.388 . S
C884 C885 1.366 . S
C885 C884 1.366 . S
C885 C886 1.414 . S
C885 C888 1.499 . S
C886 H866 0.950 . S
C886 C885 1.414 . S
C886 C887 1.374 . S
C887 H867 0.950 . S
C887 C883 1.385 . S
C887 C886 1.374 . S
C888 C885 1.499 . S
C888 C889 1.373 . S
C888 C890 1.389 . S
C889 H868 0.950 . S
C889 C888 1.373 . S
C889 C905 1.377 . S
C890 C888 1.389 . S
C890 C891 1.524 . S
C890 C904 1.377 . S
C891 C890 1.524 . S
C891 C892 1.397 . S
C891 C896 1.363 . S
C892 H869 0.950 . S
C892 C891 1.397 . S
C892 C893 1.334 . S
C893 H870 0.950 . S
C893 C892 1.334 . S
C893 C894 1.287 . S
C894 C893 1.287 . S
C894 C895 1.524 . S
C894 H913 0.913 . S
C895 H871 0.950 . S
C895 C894 1.524 . S
C895 C896 1.415 . S
C896 H872 0.950 . S
C896 C891 1.363 . S
C896 C895 1.415 . S
C897 H873 0.951 . S
C897 C898 1.366 . S
C897 C899 1.388 . S
C898 C897 1.366 . S
C898 C902 1.385 . S
C899 H874 0.951 . S
C899 C897 1.388 . S
C899 C900 1.366 . S
C900 C899 1.366 . S
C900 C901 1.414 . S
C900 C903 1.499 . S
C901 H875 0.950 . S
C901 C900 1.414 . S
C901 C902 1.374 . S
C902 H876 0.950 . S
C902 C898 1.385 . S
C902 C901 1.374 . S
C903 C900 1.499 . S
C903 C904 1.373 . S
C903 C905 1.389 . S
C904 H877 0.950 . S
C904 C890 1.377 . S
C904 C903 1.373 . S
C905 C889 1.377 . S
C905 C903 1.389 . S
C905 C906 1.524 . S
C906 C905 1.524 . S
C906 C907 1.397 . S
C906 C911 1.363 . S
C907 H878 0.950 . S
C907 C906 1.397 . S
C907 C908 1.334 . S
C908 H879 0.950 . S
C908 C907 1.334 . S
C908 C909 1.287 . S
C909 C908 1.287 . S
C909 C910 1.524 . S
C909 H912 0.999 . S
C910 H880 0.950 . S
C910 C909 1.524 . S
C910 C911 1.415 . S
C911 H881 0.950 . S
C911 C906 1.363 . S
C911 C910 1.415 . S
H912 C909 0.999 . S
H913 C894 0.913 . S
H914 C932 0.951 . S
H915 C934 0.951 . S
H916 C936 0.950 . S
H917 C937 0.950 . S
H918 C939 0.950 . S
H919 C942 0.950 . S
H920 C943 0.950 . S
H921 C945 0.950 . S
H922 C946 0.950 . S
H923 C947 0.951 . S
H924 C949 0.951 . S
H925 C951 0.950 . S
H926 C952 0.950 . S
H927 C954 0.950 . S
H928 C957 0.950 . S
H929 C958 0.950 . S
H930 C960 0.950 . S
H931 C961 0.950 . S
C932 H914 0.951 . S
C932 C933 1.366 . S
C932 C934 1.388 . S
C933 C932 1.366 . S
C933 C937 1.385 . S
C934 H915 0.951 . S
C934 C932 1.388 . S
C934 C935 1.366 . S
C935 C934 1.366 . S
C935 C936 1.414 . S
C935 C938 1.499 . S
C936 H916 0.950 . S
C936 C935 1.414 . S
C936 C937 1.374 . S
C937 H917 0.950 . S
C937 C933 1.385 . S
C937 C936 1.374 . S
C938 C935 1.499 . S
C938 C939 1.373 . S
C938 C940 1.389 . S
C939 H918 0.950 . S
C939 C938 1.373 . S
C939 C955 1.377 1_455 S
C940 C938 1.389 . S
C940 C941 1.524 . S
C940 C954 1.377 . S
C941 C940 1.524 . S
C941 C942 1.397 . S
C941 C946 1.363 . S
C942 H919 0.950 . S
C942 C941 1.397 . S
C942 C943 1.334 . S
C943 H920 0.950 . S
C943 C942 1.334 . S
C943 C944 1.287 . S
C944 C943 1.287 . S
C944 C945 1.524 . S
C944 H963 0.913 . S
C945 H921 0.950 . S
C945 C944 1.524 . S
C945 C946 1.415 . S
C946 H922 0.950 . S
C946 C941 1.363 . S
C946 C945 1.415 . S
C947 H923 0.951 . S
C947 C948 1.366 . S
C947 C949 1.388 . S
C948 C947 1.366 . S
C948 C952 1.385 . S
C949 H924 0.951 . S
C949 C947 1.388 . S
C949 C950 1.366 . S
C950 C949 1.366 . S
C950 C951 1.414 . S
C950 C953 1.499 . S
C951 H925 0.950 . S
C951 C950 1.414 . S
C951 C952 1.374 . S
C952 H926 0.950 . S
C952 C948 1.385 . S
C952 C951 1.374 . S
C953 C950 1.499 . S
C953 C954 1.373 1_655 S
C953 C955 1.389 . S
C954 H927 0.950 . S
C954 C940 1.377 . S
C954 C953 1.373 1_455 S
C955 C939 1.377 1_655 S
C955 C953 1.389 . S
C955 C956 1.524 . S
C956 C955 1.524 . S
C956 C957 1.397 . S
C956 C961 1.363 . S
C957 H928 0.950 . S
C957 C956 1.397 . S
C957 C958 1.334 . S
C958 H929 0.950 . S
C958 C957 1.334 . S
C958 C959 1.287 . S
C959 C958 1.287 . S
C959 C960 1.524 . S
C959 H962 0.999 . S
C960 H930 0.950 . S
C960 C959 1.524 . S
C960 C961 1.415 . S
C961 H931 0.950 . S
C961 C956 1.363 . S
C961 C960 1.415 . S
H962 C959 0.999 . S
H963 C944 0.913 . S
H964 C982 0.951 . S
H965 C984 0.951 . S
H966 C986 0.950 . S
H967 C987 0.950 . S
H968 C989 0.950 . S
H969 C992 0.950 . S
H970 C993 0.950 . S
H971 C995 0.950 . S
H972 C996 0.950 . S
H973 C997 0.951 . S
H974 C999 0.951 . S
H975 C1001 0.950 . S
H976 C1002 0.950 . S
H977 C1004 0.950 . S
H978 C1007 0.950 . S
H979 C1008 0.950 . S
H980 C1010 0.950 . S
H981 C1011 0.950 . S
C982 H964 0.951 . S
C982 C983 1.366 . S
C982 C984 1.388 . S
C983 C982 1.366 . S
C983 C987 1.385 . S
C984 H965 0.951 . S
C984 C982 1.388 . S
C984 C985 1.366 . S
C985 C984 1.366 . S
C985 C986 1.414 . S
C985 C988 1.499 . S
C986 H966 0.950 . S
C986 C985 1.414 . S
C986 C987 1.374 . S
C987 H967 0.950 . S
C987 C983 1.385 . S
C987 C986 1.374 . S
C988 C985 1.499 . S
C988 C989 1.373 . S
C988 C990 1.389 . S
C989 H968 0.950 . S
C989 C988 1.373 . S
C989 C1005 1.377 . S
C990 C988 1.389 . S
C990 C991 1.524 . S
C990 C1004 1.377 . S
C991 C990 1.524 . S
C991 C992 1.397 . S
C991 C996 1.363 . S
C992 H969 0.950 . S
C992 C991 1.397 . S
C992 C993 1.334 . S
C993 H970 0.950 . S
C993 C992 1.334 . S
C993 C994 1.287 . S
C994 C993 1.287 . S
C994 C995 1.524 . S
C994 H1013 0.913 . S
C995 H971 0.950 . S
C995 C994 1.524 . S
C995 C996 1.415 . S
C996 H972 0.950 . S
C996 C991 1.363 . S
C996 C995 1.415 . S
C997 H973 0.951 . S
C997 C998 1.366 . S
C997 C999 1.388 . S
C998 C997 1.366 . S
C998 C1002 1.385 . S
C999 H974 0.951 . S
C999 C997 1.388 . S
C999 C1000 1.366 . S
C1000 C999 1.366 . S
C1000 C1001 1.414 . S
C1000 C1003 1.499 . S
C1001 H975 0.950 . S
C1001 C1000 1.414 . S
C1001 C1002 1.374 . S
C1002 H976 0.950 . S
C1002 C998 1.385 . S
C1002 C1001 1.374 . S
C1003 C1000 1.499 . S
C1003 C1004 1.373 . S
C1003 C1005 1.389 . S
C1004 H977 0.950 . S
C1004 C990 1.377 . S
C1004 C1003 1.373 . S
C1005 C989 1.377 . S
C1005 C1003 1.389 . S
C1005 C1006 1.524 . S
C1006 C1005 1.524 . S
C1006 C1007 1.397 . S
C1006 C1011 1.363 . S
C1007 H978 0.950 . S
C1007 C1006 1.397 . S
C1007 C1008 1.334 . S
C1008 H979 0.950 . S
C1008 C1007 1.334 . S
C1008 C1009 1.287 . S
C1009 C1008 1.287 . S
C1009 C1010 1.524 . S
C1009 H1012 0.999 . S
C1010 H980 0.950 . S
C1010 C1009 1.524 . S
C1010 C1011 1.415 . S
C1011 H981 0.950 . S
C1011 C1006 1.363 . S
C1011 C1010 1.415 . S
H1012 C1009 0.999 . S
H1013 C994 0.913 . S
H1014 C1032 0.951 . S
H1015 C1034 0.951 . S
H1016 C1036 0.950 . S
H1017 C1037 0.950 . S
H1018 C1039 0.950 . S
H1019 C1042 0.950 . S
H1020 C1043 0.950 . S
H1021 C1045 0.950 . S
H1022 C1046 0.950 . S
H1023 C1047 0.951 . S
H1024 C1049 0.951 . S
H1025 C1051 0.950 . S
H1026 C1052 0.950 . S
H1027 C1054 0.950 . S
H1028 C1057 0.950 . S
H1029 C1058 0.950 . S
H1030 C1060 0.950 . S
H1031 C1061 0.950 . S
C1032 H1014 0.951 . S
C1032 C1033 1.366 . S
C1032 C1034 1.388 . S
C1033 C1032 1.366 . S
C1033 C1037 1.385 . S
C1034 H1015 0.951 . S
C1034 C1032 1.388 . S
C1034 C1035 1.366 . S
C1035 C1034 1.366 . S
C1035 C1036 1.414 . S
C1035 C1038 1.499 . S
C1036 H1016 0.950 . S
C1036 C1035 1.414 . S
C1036 C1037 1.374 . S
C1037 H1017 0.950 . S
C1037 C1033 1.385 . S
C1037 C1036 1.374 . S
C1038 C1035 1.499 . S
C1038 C1039 1.373 . S
C1038 C1040 1.389 . S
C1039 H1018 0.950 . S
C1039 C1038 1.373 . S
C1039 C1055 1.377 1_655 S
C1040 C1038 1.389 . S
C1040 C1041 1.524 . S
C1040 C1054 1.377 . S
C1041 C1040 1.524 . S
C1041 C1042 1.397 . S
C1041 C1046 1.363 . S
C1042 H1019 0.950 . S
C1042 C1041 1.397 . S
C1042 C1043 1.334 . S
C1043 H1020 0.950 . S
C1043 C1042 1.334 . S
C1043 C1044 1.287 . S
C1044 C1043 1.287 . S
C1044 C1045 1.524 . S
C1044 H1063 0.913 . S
C1045 H1021 0.950 . S
C1045 C1044 1.524 . S
C1045 C1046 1.415 . S
C1046 H1022 0.950 . S
C1046 C1041 1.363 . S
C1046 C1045 1.415 . S
C1047 H1023 0.951 . S
C1047 C1048 1.366 . S
C1047 C1049 1.388 . S
C1048 C1047 1.366 . S
C1048 C1052 1.385 . S
C1049 H1024 0.951 . S
C1049 C1047 1.388 . S
C1049 C1050 1.366 . S
C1050 C1049 1.366 . S
C1050 C1051 1.414 . S
C1050 C1053 1.499 . S
C1051 H1025 0.950 . S
C1051 C1050 1.414 . S
C1051 C1052 1.374 . S
C1052 H1026 0.950 . S
C1052 C1048 1.385 . S
C1052 C1051 1.374 . S
C1053 C1050 1.499 . S
C1053 C1054 1.373 1_455 S
C1053 C1055 1.389 . S
C1054 H1027 0.950 . S
C1054 C1040 1.377 . S
C1054 C1053 1.373 1_655 S
C1055 C1039 1.377 1_455 S
C1055 C1053 1.389 . S
C1055 C1056 1.524 . S
C1056 C1055 1.524 . S
C1056 C1057 1.397 . S
C1056 C1061 1.363 . S
C1057 H1028 0.950 . S
C1057 C1056 1.397 . S
C1057 C1058 1.334 . S
C1058 H1029 0.950 . S
C1058 C1057 1.334 . S
C1058 C1059 1.287 . S
C1059 C1058 1.287 . S
C1059 C1060 1.524 . S
C1059 H1062 0.999 . S
C1060 H1030 0.950 . S
C1060 C1059 1.524 . S
C1060 C1061 1.415 . S
C1061 H1031 0.950 . S
C1061 C1056 1.363 . S
C1061 C1060 1.415 . S
H1062 C1059 0.999 . S
H1063 C1044 0.913 . S
H1064 C1082 0.951 . S
H1065 C1084 0.951 . S
H1066 C1086 0.950 . S
H1067 C1087 0.955 . S
H1068 C1089 0.950 . S
H1069 C1092 0.950 . S
H1070 C1093 0.950 . S
H1071 C1095 0.950 . S
H1072 C1096 0.950 . S
H1073 C1097 0.951 . S
H1074 C1099 0.951 . S
H1075 C1101 0.950 . S
H1076 C1102 0.950 . S
H1077 C1104 0.950 . S
H1078 C1107 0.950 . S
H1079 C1108 0.950 . S
H1080 C1110 0.950 . S
H1081 C1111 0.950 . S
C1082 H1064 0.951 . S
C1082 C1083 1.366 . S
C1082 C1084 1.388 1_565 S
C1083 C1082 1.366 . S
C1083 C1087 1.385 1_565 S
C1084 H1065 0.951 . S
C1084 C1082 1.388 1_545 S
C1084 C1085 1.366 . S
C1085 C1084 1.366 . S
C1085 C1086 1.414 . S
C1085 C1088 1.499 . S
C1086 H1066 0.950 . S
C1086 C1085 1.414 . S
C1086 C1087 1.374 . S
C1087 H1067 0.955 . S
C1087 C1083 1.385 1_545 S
C1087 C1086 1.374 . S
C1088 C1085 1.499 . S
C1088 C1089 1.373 . S
C1088 C1090 1.389 . S
C1089 H1068 0.950 . S
C1089 C1088 1.373 . S
C1089 C1105 1.377 . S
C1090 C1088 1.389 . S
C1090 C1091 1.524 . S
C1090 C1104 1.377 . S
C1091 C1090 1.524 . S
C1091 C1092 1.397 . S
C1091 C1096 1.363 . S
C1092 H1069 0.950 . S
C1092 C1091 1.397 . S
C1092 C1093 1.334 . S
C1093 H1070 0.950 . S
C1093 C1092 1.334 . S
C1093 C1094 1.287 . S
C1094 C1093 1.287 . S
C1094 C1095 1.524 . S
C1094 H1113 0.913 . S
C1095 H1071 0.950 . S
C1095 C1094 1.524 . S
C1095 C1096 1.415 . S
C1096 H1072 0.950 . S
C1096 C1091 1.363 . S
C1096 C1095 1.415 . S
C1097 H1073 0.951 . S
C1097 C1098 1.366 1_655 S
C1097 C1099 1.388 . S
C1098 C1097 1.366 1_455 S
C1098 C1102 1.385 . S
C1099 H1074 0.951 . S
C1099 C1097 1.388 . S
C1099 C1100 1.366 . S
C1100 C1099 1.366 . S
C1100 C1101 1.414 1_655 S
C1100 C1103 1.499 . S
C1101 H1075 0.950 . S
C1101 C1100 1.414 1_455 S
C1101 C1102 1.374 . S
C1102 H1076 0.950 . S
C1102 C1098 1.385 . S
C1102 C1101 1.374 . S
C1103 C1100 1.499 . S
C1103 C1104 1.373 . S
C1103 C1105 1.389 . S
C1104 H1077 0.950 . S
C1104 C1090 1.377 . S
C1104 C1103 1.373 . S
C1105 C1089 1.377 . S
C1105 C1103 1.389 . S
C1105 C1106 1.524 . S
C1106 C1105 1.524 . S
C1106 C1107 1.397 . S
C1106 C1111 1.363 . S
C1107 H1078 0.950 . S
C1107 C1106 1.397 . S
C1107 C1108 1.334 . S
C1108 H1079 0.950 . S
C1108 C1107 1.334 . S
C1108 C1109 1.287 . S
C1109 C1108 1.287 . S
C1109 C1110 1.524 . S
C1109 H1112 0.999 . S
C1110 H1080 0.950 . S
C1110 C1109 1.524 . S
C1110 C1111 1.415 . S
C1111 H1081 0.950 . S
C1111 C1106 1.363 . S
C1111 C1110 1.415 . S
H1112 C1109 0.999 . S
H1113 C1094 0.913 . S
H1114 C1132 0.951 . S
H1115 C1134 0.951 . S
H1116 C1136 0.950 . S
H1117 C1137 0.950 . S
H1118 C1139 0.950 . S
H1119 C1142 0.950 . S
H1120 C1143 0.950 . S
H1121 C1145 0.950 . S
H1122 C1146 0.950 . S
H1123 C1147 0.951 . S
H1124 C1149 0.951 . S
H1125 C1151 0.950 . S
H1126 C1152 0.950 . S
H1127 C1154 0.950 . S
H1128 C1157 0.950 . S
H1129 C1158 0.950 . S
H1130 C1160 0.950 . S
H1131 C1161 0.950 . S
C1132 H1114 0.951 . S
C1132 C1133 1.366 . S
C1132 C1134 1.388 . S
C1133 C1132 1.366 . S
C1133 C1137 1.385 . S
C1134 H1115 0.951 . S
C1134 C1132 1.388 . S
C1134 C1135 1.366 . S
C1135 C1134 1.366 . S
C1135 C1136 1.414 . S
C1135 C1138 1.499 . S
C1136 H1116 0.950 . S
C1136 C1135 1.414 . S
C1136 C1137 1.374 . S
C1137 H1117 0.950 . S
C1137 C1133 1.385 . S
C1137 C1136 1.374 . S
C1138 C1135 1.499 . S
C1138 C1139 1.373 . S
C1138 C1140 1.389 . S
C1139 H1118 0.950 . S
C1139 C1138 1.373 . S
C1139 C1155 1.377 . S
C1140 C1138 1.389 . S
C1140 C1141 1.524 . S
C1140 C1154 1.377 . S
C1141 C1140 1.524 . S
C1141 C1142 1.397 . S
C1141 C1146 1.363 . S
C1142 H1119 0.950 . S
C1142 C1141 1.397 . S
C1142 C1143 1.334 . S
C1143 H1120 0.950 . S
C1143 C1142 1.334 . S
C1143 C1144 1.287 . S
C1144 C1143 1.287 . S
C1144 C1145 1.524 . S
C1144 H1163 0.913 . S
C1145 H1121 0.950 . S
C1145 C1144 1.524 . S
C1145 C1146 1.415 . S
C1146 H1122 0.950 . S
C1146 C1141 1.363 . S
C1146 C1145 1.415 . S
C1147 H1123 0.951 . S
C1147 C1148 1.366 . S
C1147 C1149 1.388 . S
C1148 C1147 1.366 . S
C1148 C1152 1.385 . S
C1149 H1124 0.951 . S
C1149 C1147 1.388 . S
C1149 C1150 1.366 . S
C1150 C1149 1.366 . S
C1150 C1151 1.414 . S
C1150 C1153 1.499 . S
C1151 H1125 0.950 . S
C1151 C1150 1.414 . S
C1151 C1152 1.374 . S
C1152 H1126 0.950 . S
C1152 C1148 1.385 . S
C1152 C1151 1.374 . S
C1153 C1150 1.499 . S
C1153 C1154 1.373 . S
C1153 C1155 1.389 . S
C1154 H1127 0.950 . S
C1154 C1140 1.377 . S
C1154 C1153 1.373 . S
C1155 C1139 1.377 . S
C1155 C1153 1.389 . S
C1155 C1156 1.524 . S
C1156 C1155 1.524 . S
C1156 C1157 1.397 . S
C1156 C1161 1.363 . S
C1157 H1128 0.950 . S
C1157 C1156 1.397 . S
C1157 C1158 1.334 . S
C1158 H1129 0.950 . S
C1158 C1157 1.334 . S
C1158 C1159 1.287 . S
C1159 C1158 1.287 . S
C1159 C1160 1.524 . S
C1159 H1162 0.999 . S
C1160 H1130 0.950 . S
C1160 C1159 1.524 . S
C1160 C1161 1.415 . S
C1161 H1131 0.950 . S
C1161 C1156 1.363 . S
C1161 C1160 1.415 . S
H1162 C1159 0.999 . S
H1163 C1144 0.913 . S
H1164 C1182 0.951 . S
H1165 C1184 0.951 . S
H1166 C1186 0.950 . S
H1167 C1187 0.950 . S
H1168 C1189 0.950 . S
H1169 C1192 0.950 . S
H1170 C1193 0.950 . S
H1171 C1195 0.950 1_545 S
H1172 C1196 0.950 . S
H1173 C1197 0.951 . S
H1174 C1199 0.951 . S
H1175 C1201 0.950 . S
H1176 C1202 0.950 . S
H1177 C1204 0.950 . S
H1178 C1207 0.950 . S
H1179 C1208 0.950 . S
H1180 C1210 0.950 . S
H1181 C1211 0.950 . S
C1182 H1164 0.951 . S
C1182 C1183 1.366 . S
C1182 C1184 1.388 . S
C1183 C1182 1.366 . S
C1183 C1187 1.385 1_655 S
C1184 H1165 0.951 . S
C1184 C1182 1.388 . S
C1184 C1185 1.366 1_655 S
C1185 C1184 1.366 1_455 S
C1185 C1186 1.414 . S
C1185 C1188 1.499 . S
C1186 H1166 0.950 . S
C1186 C1185 1.414 . S
C1186 C1187 1.374 . S
C1187 H1167 0.950 . S
C1187 C1183 1.385 1_455 S
C1187 C1186 1.374 . S
C1188 C1185 1.499 . S
C1188 C1189 1.373 . S
C1188 C1190 1.389 . S
C1189 H1168 0.950 . S
C1189 C1188 1.373 . S
C1189 C1205 1.377 . S
C1190 C1188 1.389 . S
C1190 C1191 1.524 . S
C1190 C1204 1.377 . S
C1191 C1190 1.524 . S
C1191 C1192 1.397 . S
C1191 C1196 1.363 1_455 S
C1192 H1169 0.950 . S
C1192 C1191 1.397 . S
C1192 C1193 1.334 1_455 S
C1193 H1170 0.950 . S
C1193 C1192 1.334 1_655 S
C1193 C1194 1.287 . S
C1194 C1193 1.287 . S
C1194 C1195 1.524 . S
C1194 H1213 0.913 1_565 S
C1195 H1171 0.950 1_565 S
C1195 C1194 1.524 . S
C1195 C1196 1.415 . S
C1196 H1172 0.950 . S
C1196 C1191 1.363 1_655 S
C1196 C1195 1.415 . S
C1197 H1173 0.951 . S
C1197 C1198 1.366 1_565 S
C1197 C1199 1.388 . S
C1198 C1197 1.366 1_545 S
C1198 C1202 1.385 . S
C1199 H1174 0.951 . S
C1199 C1197 1.388 . S
C1199 C1200 1.366 . S
C1200 C1199 1.366 . S
C1200 C1201 1.414 . S
C1200 C1203 1.499 . S
C1201 H1175 0.950 . S
C1201 C1200 1.414 . S
C1201 C1202 1.374 1_565 S
C1202 H1176 0.950 . S
C1202 C1198 1.385 . S
C1202 C1201 1.374 1_545 S
C1203 C1200 1.499 . S
C1203 C1204 1.373 . S
C1203 C1205 1.389 . S
C1204 H1177 0.950 . S
C1204 C1190 1.377 . S
C1204 C1203 1.373 . S
C1205 C1189 1.377 . S
C1205 C1203 1.389 . S
C1205 C1206 1.524 . S
C1206 C1205 1.524 . S
C1206 C1207 1.397 . S
C1206 C1211 1.363 . S
C1207 H1178 0.950 . S
C1207 C1206 1.397 . S
C1207 C1208 1.334 . S
C1208 H1179 0.950 . S
C1208 C1207 1.334 . S
C1208 C1209 1.287 . S
C1209 C1208 1.287 . S
C1209 C1210 1.524 . S
C1209 H1212 0.999 . S
C1210 H1180 0.950 . S
C1210 C1209 1.524 . S
C1210 C1211 1.415 . S
C1211 H1181 0.950 . S
C1211 C1206 1.363 . S
C1211 C1210 1.415 . S
H1212 C1209 0.999 . S
H1213 C1194 0.913 1_545 S
H1214 C1232 0.951 . S
H1215 C1234 0.951 . S
H1216 C1236 0.950 . S
H1217 C1237 0.950 . S
H1218 C1239 0.950 . S
H1219 C1242 0.950 . S
H1220 C1243 0.950 . S
H1221 C1245 0.950 . S
H1222 C1246 0.950 . S
H1223 C1247 0.951 . S
H1224 C1249 0.951 . S
H1225 C1251 0.950 . S
H1226 C1252 0.950 . S
H1227 C1254 0.950 . S
H1228 C1257 0.950 . S
H1229 C1258 0.950 . S
H1230 C1260 0.950 . S
H1231 C1261 0.950 . S
C1232 H1214 0.951 . S
C1232 C1233 1.366 . S
C1232 C1234 1.388 . S
C1233 C1232 1.366 . S
C1233 C1237 1.385 . S
C1234 H1215 0.951 . S
C1234 C1232 1.388 . S
C1234 C1235 1.366 . S
C1235 C1234 1.366 . S
C1235 C1236 1.414 . S
C1235 C1238 1.499 . S
C1236 H1216 0.950 . S
C1236 C1235 1.414 . S
C1236 C1237 1.374 . S
C1237 H1217 0.950 . S
C1237 C1233 1.385 . S
C1237 C1236 1.374 . S
C1238 C1235 1.499 . S
C1238 C1239 1.373 1_556 S
C1238 C1240 1.389 . S
C1239 H1218 0.950 . S
C1239 C1238 1.373 1_554 S
C1239 C1255 1.377 . S
C1240 C1238 1.389 . S
C1240 C1241 1.524 . S
C1240 C1254 1.377 . S
C1241 C1240 1.524 . S
C1241 C1242 1.397 . S
C1241 C1246 1.363 . S
C1242 H1219 0.950 . S
C1242 C1241 1.397 . S
C1242 C1243 1.334 . S
C1243 H1220 0.950 . S
C1243 C1242 1.334 . S
C1243 C1244 1.287 . S
C1244 C1243 1.287 . S
C1244 C1245 1.524 . S
C1244 H1263 0.913 . S
C1245 H1221 0.950 . S
C1245 C1244 1.524 . S
C1245 C1246 1.415 . S
C1246 H1222 0.950 . S
C1246 C1241 1.363 . S
C1246 C1245 1.415 . S
C1247 H1223 0.951 . S
C1247 C1248 1.366 . S
C1247 C1249 1.388 . S
C1248 C1247 1.366 . S
C1248 C1252 1.385 . S
C1249 H1224 0.951 . S
C1249 C1247 1.388 . S
C1249 C1250 1.366 . S
C1250 C1249 1.366 . S
C1250 C1251 1.414 . S
C1250 C1253 1.499 . S
C1251 H1225 0.950 . S
C1251 C1250 1.414 . S
C1251 C1252 1.374 . S
C1252 H1226 0.950 . S
C1252 C1248 1.385 . S
C1252 C1251 1.374 . S
C1253 C1250 1.499 . S
C1253 C1254 1.373 1_554 S
C1253 C1255 1.389 . S
C1254 H1227 0.950 . S
C1254 C1240 1.377 . S
C1254 C1253 1.373 1_556 S
C1255 C1239 1.377 . S
C1255 C1253 1.389 . S
C1255 C1256 1.524 . S
C1256 C1255 1.524 . S
C1256 C1257 1.397 . S
C1256 C1261 1.363 . S
C1257 H1228 0.950 . S
C1257 C1256 1.397 . S
C1257 C1258 1.334 . S
C1258 H1229 0.950 . S
C1258 C1257 1.334 . S
C1258 C1259 1.287 . S
C1259 C1258 1.287 . S
C1259 C1260 1.524 . S
C1259 H1262 0.999 . S
C1260 H1230 0.950 . S
C1260 C1259 1.524 . S
C1260 C1261 1.415 . S
C1261 H1231 0.950 . S
C1261 C1256 1.363 . S
C1261 C1260 1.415 . S
H1262 C1259 0.999 . S
H1263 C1244 0.913 . S
C283 C28 1.046 . S
C298 C50 1.041 . S
C333 C83 1.041 1_455 S
C348 C61 1.045 . S
C383 C116 1.041 . S
C398 C94 1.045 . S
C433 C127 1.046 . S
C448 C17 1.041 1_655 S
C483 C160 1.046 . S
C498 C248 1.042 1_545 S
C533 C193 1.046 . S
C548 C149 1.041 . S
C583 C226 1.046 . S
C598 C182 1.041 1_565 S
C633 C259 1.045 . S
C648 C215 1.041 . S
C683 N203 1.793 . S
C698 C8 1.791 . S
C733 N236 1.793 . S
C748 C41 1.791 . S
C783 N137 1.793 . S
C798 C74 1.791 . S
C833 N170 1.793 . S
C848 C107 1.791 . S
C883 C140 1.791 . S
C898 N71 1.793 . S
C933 C173 1.791 . S
C948 N104 1.793 . S
C983 C206 1.791 . S
C998 N5 1.793 . S
C1033 C239 1.791 . S
C1048 N38 1.793 . S
C1083 N245 1.462 . S
C1098 N14 1.462 . S
C1133 N146 1.462 . S
C1148 N47 1.462 . S
C1183 N80 1.462 . S
C1198 N179 1.463 . S
C1233 N113 1.462 . S
C1248 N212 1.462 . S
