# Generated by pormake.
# Topology upd, (4)-cn, num edge types: 1
# Building blocks:
#     Node 0, Type 0, BuildingBlock: MUDLON_clean_sbu_0, # of connection points: 4
#     Node 1, Type 0, BuildingBlock: MUDLON_clean_sbu_0, # of connection points: 4
#     Node 2, Type 0, BuildingBlock: MUDLON_clean_sbu_0, # of connection points: 4
#     Node 3, Type 0, BuildingBlock: MUDLON_clean_sbu_0, # of connection points: 4
#     Node 4, Type 0, BuildingBlock: MUDLON_clean_sbu_0, # of connection points: 4
#     Node 5, Type 0, BuildingBlock: MUDLON_clean_sbu_0, # of connection points: 4
#     Node 6, Type 0, BuildingBlock: MUDLON_clean_sbu_0, # of connection points: 4
#     Node 7, Type 0, BuildingBlock: MUDLON_clean_sbu_0, # of connection points: 4
#     Node 8, Type 0, BuildingBlock: MUDLON_clean_sbu_0, # of connection points: 4
#     Node 9, Type 0, BuildingBlock: MUDLON_clean_sbu_0, # of connection points: 4
#     Node 10, Type 0, BuildingBlock: MUDLON_clean_sbu_0, # of connection points: 4
#     Node 11, Type 0, BuildingBlock: MUDLON_clean_sbu_0, # of connection points: 4
#     Node 12, Type 0, BuildingBlock: MUDLON_clean_sbu_0, # of connection points: 4
#     Node 13, Type 0, BuildingBlock: MUDLON_clean_sbu_0, # of connection points: 4
#     Node 14, Type 0, BuildingBlock: MUDLON_clean_sbu_0, # of connection points: 4
#     Node 15, Type 0, BuildingBlock: MUDLON_clean_sbu_0, # of connection points: 4
#     Node 16, Type 0, BuildingBlock: MUDLON_clean_sbu_0, # of connection points: 4
#     Node 17, Type 0, BuildingBlock: MUDLON_clean_sbu_0, # of connection points: 4
#     Node 18, Type 0, BuildingBlock: MUDLON_clean_sbu_0, # of connection points: 4
#     Node 19, Type 0, BuildingBlock: MUDLON_clean_sbu_0, # of connection points: 4
#     Node 20, Type 0, BuildingBlock: MUDLON_clean_sbu_0, # of connection points: 4
#     Node 21, Type 0, BuildingBlock: MUDLON_clean_sbu_0, # of connection points: 4
#     Node 22, Type 0, BuildingBlock: MUDLON_clean_sbu_0, # of connection points: 4
#     Node 23, Type 0, BuildingBlock: MUDLON_clean_sbu_0, # of connection points: 4
#     Node 24, Type 0, BuildingBlock: MUDLON_clean_sbu_0, # of connection points: 4
#     Node 25, Type 0, BuildingBlock: MUDLON_clean_sbu_0, # of connection points: 4
#     Node 26, Type 0, BuildingBlock: MUDLON_clean_sbu_0, # of connection points: 4
#     Node 27, Type 0, BuildingBlock: MUDLON_clean_sbu_0, # of connection points: 4
#     Node 28, Type 0, BuildingBlock: MUDLON_clean_sbu_0, # of connection points: 4
#     Node 29, Type 0, BuildingBlock: MUDLON_clean_sbu_0, # of connection points: 4
#     Node 30, Type 0, BuildingBlock: MUDLON_clean_sbu_0, # of connection points: 4
#     Node 31, Type 0, BuildingBlock: MUDLON_clean_sbu_0, # of connection points: 4
#     Edge 32, Type (0, 0), BuildingBlock: TEMPAE_clean_linker_10, # of connection points: 2
#     Edge 33, Type (0, 0), BuildingBlock: TEMPAE_clean_linker_10, # of connection points: 2
#     Edge 34, Type (0, 0), BuildingBlock: TEMPAE_clean_linker_10, # of connection points: 2
#     Edge 35, Type (0, 0), BuildingBlock: TEMPAE_clean_linker_10, # of connection points: 2
#     Edge 36, Type (0, 0), BuildingBlock: TEMPAE_clean_linker_10, # of connection points: 2
#     Edge 37, Type (0, 0), BuildingBlock: TEMPAE_clean_linker_10, # of connection points: 2
#     Edge 38, Type (0, 0), BuildingBlock: TEMPAE_clean_linker_10, # of connection points: 2
#     Edge 39, Type (0, 0), BuildingBlock: TEMPAE_clean_linker_10, # of connection points: 2
#     Edge 40, Type (0, 0), BuildingBlock: TEMPAE_clean_linker_10, # of connection points: 2
#     Edge 41, Type (0, 0), BuildingBlock: TEMPAE_clean_linker_10, # of connection points: 2
#     Edge 42, Type (0, 0), BuildingBlock: TEMPAE_clean_linker_10, # of connection points: 2
#     Edge 43, Type (0, 0), BuildingBlock: TEMPAE_clean_linker_10, # of connection points: 2
#     Edge 44, Type (0, 0), BuildingBlock: TEMPAE_clean_linker_10, # of connection points: 2
#     Edge 45, Type (0, 0), BuildingBlock: TEMPAE_clean_linker_10, # of connection points: 2
#     Edge 46, Type (0, 0), BuildingBlock: TEMPAE_clean_linker_10, # of connection points: 2
#     Edge 47, Type (0, 0), BuildingBlock: TEMPAE_clean_linker_10, # of connection points: 2
#     Edge 48, Type (0, 0), BuildingBlock: TEMPAE_clean_linker_10, # of connection points: 2
#     Edge 49, Type (0, 0), BuildingBlock: TEMPAE_clean_linker_10, # of connection points: 2
#     Edge 50, Type (0, 0), BuildingBlock: TEMPAE_clean_linker_10, # of connection points: 2
#     Edge 51, Type (0, 0), BuildingBlock: TEMPAE_clean_linker_10, # of connection points: 2
#     Edge 52, Type (0, 0), BuildingBlock: TEMPAE_clean_linker_10, # of connection points: 2
#     Edge 53, Type (0, 0), BuildingBlock: TEMPAE_clean_linker_10, # of connection points: 2
#     Edge 54, Type (0, 0), BuildingBlock: TEMPAE_clean_linker_10, # of connection points: 2
#     Edge 55, Type (0, 0), BuildingBlock: TEMPAE_clean_linker_10, # of connection points: 2
#     Edge 56, Type (0, 0), BuildingBlock: TEMPAE_clean_linker_10, # of connection points: 2
#     Edge 57, Type (0, 0), BuildingBlock: TEMPAE_clean_linker_10, # of connection points: 2
#     Edge 58, Type (0, 0), BuildingBlock: TEMPAE_clean_linker_10, # of connection points: 2
#     Edge 59, Type (0, 0), BuildingBlock: TEMPAE_clean_linker_10, # of connection points: 2
#     Edge 60, Type (0, 0), BuildingBlock: TEMPAE_clean_linker_10, # of connection points: 2
#     Edge 61, Type (0, 0), BuildingBlock: TEMPAE_clean_linker_10, # of connection points: 2
#     Edge 62, Type (0, 0), BuildingBlock: TEMPAE_clean_linker_10, # of connection points: 2
#     Edge 63, Type (0, 0), BuildingBlock: TEMPAE_clean_linker_10, # of connection points: 2
#     Edge 64, Type (0, 0), BuildingBlock: TEMPAE_clean_linker_10, # of connection points: 2
#     Edge 65, Type (0, 0), BuildingBlock: TEMPAE_clean_linker_10, # of connection points: 2
#     Edge 66, Type (0, 0), BuildingBlock: TEMPAE_clean_linker_10, # of connection points: 2
#     Edge 67, Type (0, 0), BuildingBlock: TEMPAE_clean_linker_10, # of connection points: 2
#     Edge 68, Type (0, 0), BuildingBlock: TEMPAE_clean_linker_10, # of connection points: 2
#     Edge 69, Type (0, 0), BuildingBlock: TEMPAE_clean_linker_10, # of connection points: 2
#     Edge 70, Type (0, 0), BuildingBlock: TEMPAE_clean_linker_10, # of connection points: 2
#     Edge 71, Type (0, 0), BuildingBlock: TEMPAE_clean_linker_10, # of connection points: 2
#     Edge 72, Type (0, 0), BuildingBlock: TEMPAE_clean_linker_10, # of connection points: 2
#     Edge 73, Type (0, 0), BuildingBlock: TEMPAE_clean_linker_10, # of connection points: 2
#     Edge 74, Type (0, 0), BuildingBlock: TEMPAE_clean_linker_10, # of connection points: 2
#     Edge 75, Type (0, 0), BuildingBlock: TEMPAE_clean_linker_10, # of connection points: 2
#     Edge 76, Type (0, 0), BuildingBlock: TEMPAE_clean_linker_10, # of connection points: 2
#     Edge 77, Type (0, 0), BuildingBlock: TEMPAE_clean_linker_10, # of connection points: 2
#     Edge 78, Type (0, 0), BuildingBlock: TEMPAE_clean_linker_10, # of connection points: 2
#     Edge 79, Type (0, 0), BuildingBlock: TEMPAE_clean_linker_10, # of connection points: 2
#     Edge 80, Type (0, 0), BuildingBlock: TEMPAE_clean_linker_10, # of connection points: 2
#     Edge 81, Type (0, 0), BuildingBlock: TEMPAE_clean_linker_10, # of connection points: 2
#     Edge 82, Type (0, 0), BuildingBlock: TEMPAE_clean_linker_10, # of connection points: 2
#     Edge 83, Type (0, 0), BuildingBlock: TEMPAE_clean_linker_10, # of connection points: 2
#     Edge 84, Type (0, 0), BuildingBlock: TEMPAE_clean_linker_10, # of connection points: 2
#     Edge 85, Type (0, 0), BuildingBlock: TEMPAE_clean_linker_10, # of connection points: 2
#     Edge 86, Type (0, 0), BuildingBlock: TEMPAE_clean_linker_10, # of connection points: 2
#     Edge 87, Type (0, 0), BuildingBlock: TEMPAE_clean_linker_10, # of connection points: 2
#     Edge 88, Type (0, 0), BuildingBlock: TEMPAE_clean_linker_10, # of connection points: 2
#     Edge 89, Type (0, 0), BuildingBlock: TEMPAE_clean_linker_10, # of connection points: 2
#     Edge 90, Type (0, 0), BuildingBlock: TEMPAE_clean_linker_10, # of connection points: 2
#     Edge 91, Type (0, 0), BuildingBlock: TEMPAE_clean_linker_10, # of connection points: 2
#     Edge 92, Type (0, 0), BuildingBlock: TEMPAE_clean_linker_10, # of connection points: 2
#     Edge 93, Type (0, 0), BuildingBlock: TEMPAE_clean_linker_10, # of connection points: 2
#     Edge 94, Type (0, 0), BuildingBlock: TEMPAE_clean_linker_10, # of connection points: 2
#     Edge 95, Type (0, 0), BuildingBlock: TEMPAE_clean_linker_10, # of connection points: 2
# Relax obj value: 0.065
# Max RMSD: 0.095
# Mean RMSD: 0.095
data_MOF--net-upd--node1-MUDLON_clean_sbu_0--edge1-TEMPAE_clean_linker_10
_symmetry_space_group_name_H-M    P1
_symmetry_Int_Tables_number       1
_symmetry_cell_setting            triclinic
loop_
_symmetry_equiv_pos_as_xyz
'x, y, z'
_cell_length_a     45.855105
_cell_length_b     45.763826
_cell_length_c     69.137266
_cell_angle_alpha  90.109231
_cell_angle_beta   89.967102
_cell_angle_gamma 89.981004
loop_
_atom_site_label
_atom_site_type_symbol
_atom_site_fract_x
_atom_site_fract_y
_atom_site_fract_z
_atom_type_partial_charge
Mg0 Mg 0.13083 0.169 0.30606 0.0
C1 C 0.07172 0.19232 0.3169 0.0
O2 O 0.08788 0.21459 0.32232 0.0
C3 C 0.16544 0.22131 0.29238 0.0
O4 O 0.16169 0.22861 0.3106 0.0
C5 C 0.1237 0.11163 0.28655 0.0
O6 O 0.10036 0.12605 0.28108 0.0
O7 O 0.1416 0.1241 0.29797 0.0
O8 O 0.08352 0.17216 0.30691 0.0
O9 O 0.14256 0.18208 0.33536 0.0
C10 C 0.1267 0.175 0.34973 0.0
O11 O 0.10653 0.15492 0.34735 0.0
O12 O 0.15338 0.19812 0.28606 0.0
Mg13 Mg 0.10483 0.88519 0.55382 0.0
C14 C 0.12147 0.82152 0.55065 0.0
O15 O 0.14508 0.83288 0.54299 0.0
C16 C 0.07073 0.93757 0.54367 0.0
O17 O 0.08629 0.94589 0.55866 0.0
C18 C 0.17224 0.89301 0.55119 0.0
O19 O 0.17264 0.88393 0.56921 0.0
O20 O 0.14789 0.89624 0.54268 0.0
O21 O 0.09938 0.83793 0.55319 0.0
O22 O 0.09543 0.89268 0.58434 0.0
C23 C 0.06829 0.88905 0.58746 0.0
O24 O 0.05115 0.88392 0.57261 0.0
O25 O 0.07348 0.91142 0.53759 0.0
Mg26 Mg 0.37972 0.86479 0.80693 0.0
C27 C 0.44021 0.888 0.8116 0.0
O28 O 0.42496 0.91222 0.81052 0.0
C29 C 0.33393 0.84075 0.7807 0.0
O30 O 0.32356 0.86682 0.78474 0.0
C31 C 0.37655 0.91534 0.78117 0.0
O32 O 0.39164 0.8957 0.77154 0.0
O33 O 0.3669 0.90864 0.79786 0.0
O34 O 0.4273 0.86377 0.80856 0.0
O35 O 0.36879 0.85055 0.83611 0.0
C36 C 0.37436 0.82342 0.83789 0.0
O37 O 0.38325 0.80895 0.82254 0.0
O38 O 0.35872 0.83351 0.78747 0.0
Mg39 Mg 0.41963 0.13463 0.05538 0.0
C40 C 0.40557 0.20018 0.05278 0.0
O41 O 0.38475 0.19157 0.04105 0.0
C42 C 0.44433 0.08648 0.03132 0.0
O43 O 0.41759 0.07735 0.03446 0.0
C44 C 0.35251 0.1342 0.04944 0.0
O45 O 0.35196 0.15042 0.06514 0.0
O46 O 0.37679 0.12434 0.04338 0.0
O47 O 0.42485 0.18182 0.05801 0.0
O48 O 0.42782 0.12236 0.08534 0.0
C49 C 0.45492 0.11989 0.08901 0.0
O50 O 0.47349 0.12143 0.07458 0.0
O51 O 0.45187 0.11142 0.0378 0.0
Mg52 Mg 0.1384 0.85678 0.20669 0.0
C53 C 0.0741 0.8666 0.21154 0.0
O54 O 0.08315 0.89186 0.21826 0.0
C55 C 0.16636 0.80883 0.23307 0.0
O56 O 0.13976 0.79854 0.2349 0.0
C57 C 0.14505 0.90752 0.23256 0.0
O58 O 0.14257 0.88518 0.24437 0.0
O59 O 0.1447 0.90264 0.21441 0.0
O60 O 0.09247 0.8459 0.20989 0.0
O61 O 0.14187 0.84506 0.17621 0.0
C62 C 0.14093 0.81742 0.17415 0.0
O63 O 0.14209 0.8011 0.18974 0.0
O64 O 0.17065 0.83147 0.22282 0.0
Mg65 Mg 0.41524 0.88214 0.45502 0.0
C66 C 0.44077 0.8246 0.44299 0.0
O67 O 0.46037 0.84258 0.43593 0.0
C68 C 0.43617 0.93042 0.48031 0.0
O69 O 0.40895 0.93787 0.47706 0.0
C70 C 0.35528 0.87095 0.47173 0.0
O71 O 0.36483 0.84397 0.47034 0.0
O72 O 0.37118 0.89161 0.46539 0.0
O73 O 0.42098 0.83488 0.45397 0.0
O74 O 0.42406 0.89413 0.425 0.0
C75 C 0.44897 0.90514 0.42141 0.0
O76 O 0.46553 0.91292 0.43603 0.0
O77 O 0.44551 0.90633 0.47343 0.0
Mg78 Mg 0.38535 0.17172 0.70359 0.0
C79 C 0.45065 0.15739 0.70596 0.0
O80 O 0.44145 0.13354 0.71454 0.0
C81 C 0.34809 0.22282 0.7164 0.0
O82 O 0.34918 0.22796 0.69773 0.0
C83 C 0.3792 0.12153 0.73019 0.0
O84 O 0.38894 0.14243 0.74154 0.0
O85 O 0.37493 0.12722 0.7124 0.0
O86 O 0.43245 0.17752 0.70206 0.0
O87 O 0.3729 0.18315 0.67422 0.0
C88 C 0.3897 0.17684 0.66015 0.0
O89 O 0.41158 0.15886 0.66311 0.0
O90 O 0.36252 0.20141 0.7232 0.0
Mg91 Mg 0.10952 0.1412 0.9584 0.0
C92 C 0.12627 0.20621 0.9624 0.0
O93 O 0.14758 0.19644 0.9733 0.0
C94 C 0.07529 0.09098 0.97136 0.0
O95 O 0.08975 0.08162 0.95615 0.0
C96 C 0.17694 0.1383 0.96168 0.0
O97 O 0.17669 0.15666 0.94709 0.0
O98 O 0.15294 0.12794 0.96782 0.0
O99 O 0.10608 0.1887 0.95736 0.0
O100 O 0.09601 0.13082 0.92894 0.0
C101 C 0.06903 0.13681 0.92705 0.0
O102 O 0.05473 0.14641 0.94228 0.0
O103 O 0.07888 0.11738 0.97675 0.0
Mg104 Mg 0.88064 0.85232 0.70555 0.0
C105 C 0.94469 0.86624 0.70373 0.0
O106 O 0.93475 0.89112 0.71057 0.0
C107 C 0.82969 0.82764 0.72656 0.0
O108 O 0.819 0.85149 0.71875 0.0
C109 C 0.85419 0.9146 0.71407 0.0
O110 O 0.83292 0.90762 0.70221 0.0
O111 O 0.87483 0.89655 0.71695 0.0
O112 O 0.92743 0.84449 0.70296 0.0
O113 O 0.86779 0.84344 0.67582 0.0
C114 C 0.88468 0.85132 0.66216 0.0
O115 O 0.9051 0.87066 0.6659 0.0
O116 O 0.85649 0.82162 0.72378 0.0
Mg117 Mg 0.9089 0.12896 0.45594 0.0
C118 C 0.94639 0.12079 0.42242 0.0
O119 O 0.96417 0.11962 0.4373 0.0
C120 C 0.85821 0.1276 0.48209 0.0
O121 O 0.87713 0.14413 0.49128 0.0
C122 C 0.93231 0.08111 0.48102 0.0
O123 O 0.90503 0.07298 0.47888 0.0
O124 O 0.94061 0.10507 0.47348 0.0
O125 O 0.91908 0.1214 0.42563 0.0
O126 O 0.91239 0.17642 0.45526 0.0
C127 C 0.88898 0.18979 0.45082 0.0
O128 O 0.86435 0.17517 0.45121 0.0
O129 O 0.86528 0.11709 0.46569 0.0
Mg130 Mg 0.64167 0.16078 0.20177 0.0
C131 C 0.57789 0.14575 0.20438 0.0
O132 O 0.58881 0.12083 0.21038 0.0
C133 C 0.69251 0.19835 0.21169 0.0
O134 O 0.69888 0.18923 0.19416 0.0
C135 C 0.66854 0.1085 0.2224 0.0
O136 O 0.68471 0.12914 0.23012 0.0
O137 O 0.65022 0.11527 0.20933 0.0
O138 O 0.59475 0.16776 0.20315 0.0
O139 O 0.64871 0.17322 0.17173 0.0
C140 C 0.62997 0.16655 0.15888 0.0
O141 O 0.61016 0.14677 0.16295 0.0
O142 O 0.66862 0.19006 0.21933 0.0
Mg143 Mg 0.61803 0.89729 0.95163 0.0
C144 C 0.57717 0.90369 0.92056 0.0
O145 O 0.56248 0.89504 0.93584 0.0
C146 C 0.67018 0.89293 0.97549 0.0
O147 O 0.65103 0.87545 0.98361 0.0
C148 C 0.58508 0.94796 0.96555 0.0
O149 O 0.59935 0.95737 0.9503 0.0
O150 O 0.58862 0.92149 0.97074 0.0
O151 O 0.60429 0.9089 0.92244 0.0
O152 O 0.6142 0.84975 0.95001 0.0
C153 C 0.62615 0.84097 0.93441 0.0
O154 O 0.63944 0.86018 0.9234 0.0
O155 O 0.66266 0.90674 0.96032 0.0
Mg156 Mg 0.8692 0.15356 0.81484 0.0
C157 C 0.93176 0.13537 0.81656 0.0
O158 O 0.91893 0.11006 0.81372 0.0
C159 C 0.81997 0.19233 0.80423 0.0
O160 O 0.8112 0.18044 0.8205 0.0
C161 C 0.86308 0.10765 0.78541 0.0
O162 O 0.87306 0.13041 0.77592 0.0
O163 O 0.85827 0.11035 0.80347 0.0
O164 O 0.91648 0.15849 0.81515 0.0
O165 O 0.85862 0.16336 0.84494 0.0
C166 C 0.87599 0.15715 0.85871 0.0
O167 O 0.89787 0.13932 0.85535 0.0
O168 O 0.84506 0.18553 0.79769 0.0
Mg169 Mg 0.60843 0.11344 0.56778 0.0
C170 C 0.60917 0.12444 0.61083 0.0
O171 O 0.62637 0.14594 0.60554 0.0
C172 C 0.65644 0.11177 0.53898 0.0
O173 O 0.63432 0.12147 0.52877 0.0
C174 C 0.56657 0.08682 0.53679 0.0
O175 O 0.57235 0.11023 0.52652 0.0
O176 O 0.57789 0.08402 0.55346 0.0
O177 O 0.60215 0.10514 0.59839 0.0
O178 O 0.5981 0.15992 0.56723 0.0
C179 C 0.61863 0.17844 0.56549 0.0
O180 O 0.64406 0.16939 0.55911 0.0
O181 O 0.65234 0.10574 0.55674 0.0
Mg182 Mg 0.64157 0.85957 0.30989 0.0
C183 C 0.57794 0.87563 0.30837 0.0
O184 O 0.58908 0.90065 0.30274 0.0
C185 C 0.69459 0.83485 0.29115 0.0
O186 O 0.70458 0.85876 0.29935 0.0
C187 C 0.65769 0.90824 0.2832 0.0
O188 O 0.65808 0.88552 0.27156 0.0
O189 O 0.65185 0.90428 0.30102 0.0
O190 O 0.59454 0.85337 0.30913 0.0
O191 O 0.64935 0.84812 0.33998 0.0
C192 C 0.63081 0.85548 0.35283 0.0
O193 O 0.61137 0.87556 0.34859 0.0
O194 O 0.66756 0.82889 0.29278 0.0
Mg195 Mg 0.92074 0.89629 0.06167 0.0
C196 C 0.95298 0.91167 0.09762 0.0
O197 O 0.97094 0.92105 0.08418 0.0
C198 C 0.87152 0.8948 0.03441 0.0
O199 O 0.8925 0.88096 0.02523 0.0
C200 C 0.94213 0.94721 0.03863 0.0
O201 O 0.9146 0.9541 0.04128 0.0
O202 O 0.95145 0.92298 0.04522 0.0
O203 O 0.9278 0.9029 0.09254 0.0
O204 O 0.92652 0.84924 0.06011 0.0
C205 C 0.9473 0.83786 0.06966 0.0
O206 O 0.96878 0.8548 0.07535 0.0
O207 O 0.87672 0.9048 0.05125 0.0
Mg208 Mg 0.64791 0.65477 0.81493 0.0
C209 C 0.58415 0.63808 0.81405 0.0
O210 O 0.59562 0.61312 0.80853 0.0
C211 C 0.69424 0.69844 0.80434 0.0
O212 O 0.70063 0.6934 0.82254 0.0
C213 C 0.6547 0.60719 0.78657 0.0
O214 O 0.64733 0.62985 0.77599 0.0
O215 O 0.65784 0.61082 0.80471 0.0
O216 O 0.60061 0.66044 0.81511 0.0
O217 O 0.65816 0.66427 0.8451 0.0
C218 C 0.63899 0.65948 0.85805 0.0
O219 O 0.61633 0.64324 0.85365 0.0
O220 O 0.67215 0.68576 0.79696 0.0
Mg221 Mg 0.60267 0.39166 0.06196 0.0
C222 C 0.57807 0.33286 0.07291 0.0
O223 O 0.5578 0.34992 0.08017 0.0
C224 C 0.57557 0.44484 0.04585 0.0
O225 O 0.59445 0.45483 0.05854 0.0
C226 C 0.6561 0.38409 0.03872 0.0
O227 O 0.63807 0.36456 0.03156 0.0
O228 O 0.64738 0.40004 0.05269 0.0
O229 O 0.59758 0.34415 0.06217 0.0
O230 O 0.59271 0.40252 0.09209 0.0
C231 C 0.56672 0.41084 0.09555 0.0
O232 O 0.54934 0.41593 0.08085 0.0
O233 O 0.57381 0.4173 0.04332 0.0
Mg234 Mg 0.88424 0.35553 0.30325 0.0
C235 C 0.94752 0.37474 0.30283 0.0
O236 O 0.93559 0.39902 0.29657 0.0
C237 C 0.83424 0.33192 0.28093 0.0
O238 O 0.82427 0.35705 0.28736 0.0
C239 C 0.87735 0.40617 0.27721 0.0
O240 O 0.88817 0.38582 0.26585 0.0
O241 O 0.87231 0.39988 0.29482 0.0
O242 O 0.93172 0.35196 0.30417 0.0
O243 O 0.87448 0.34318 0.3329 0.0
C244 C 0.87862 0.31595 0.33543 0.0
O245 O 0.88529 0.29978 0.32033 0.0
O246 O 0.86047 0.32488 0.28479 0.0
Mg247 Mg 0.90982 0.63109 0.56066 0.0
C248 C 0.93376 0.69069 0.57077 0.0
O249 O 0.95531 0.67436 0.57703 0.0
C250 C 0.93731 0.57776 0.5451 0.0
O251 O 0.92132 0.56857 0.55965 0.0
C252 C 0.85827 0.63323 0.53585 0.0
O253 O 0.87861 0.64739 0.52629 0.0
O254 O 0.86477 0.62246 0.55226 0.0
O255 O 0.9138 0.67876 0.5607 0.0
O256 O 0.92191 0.62066 0.59051 0.0
C257 C 0.94861 0.61411 0.59314 0.0
O258 O 0.96539 0.61068 0.5779 0.0
O259 O 0.93732 0.60498 0.54121 0.0
Mg260 Mg 0.63443 0.35003 0.70835 0.0
C261 C 0.57432 0.32946 0.6977 0.0
O262 O 0.58951 0.30657 0.69217 0.0
C263 C 0.68206 0.32768 0.73347 0.0
O264 O 0.69155 0.35377 0.72867 0.0
C265 C 0.6311 0.40543 0.73012 0.0
O266 O 0.60958 0.38992 0.73731 0.0
O267 O 0.6465 0.39436 0.71665 0.0
O268 O 0.58697 0.34903 0.70773 0.0
O269 O 0.64412 0.33813 0.67853 0.0
C270 C 0.6525 0.31205 0.67541 0.0
O271 O 0.65942 0.29561 0.69027 0.0
O272 O 0.657 0.31965 0.72757 0.0
Mg273 Mg 0.90967 0.37958 0.95713 0.0
C274 C 0.89321 0.31511 0.9572 0.0
O275 O 0.86776 0.32574 0.96235 0.0
C276 C 0.9439 0.43076 0.96975 0.0
O277 O 0.93119 0.43941 0.95372 0.0
C278 C 0.85991 0.38636 0.98343 0.0
O279 O 0.88137 0.37745 0.99454 0.0
O280 O 0.86502 0.3902 0.9655 0.0
O281 O 0.91511 0.33218 0.95646 0.0
O282 O 0.92373 0.38939 0.92775 0.0
C283 C 0.95066 0.38291 0.92634 0.0
O284 O 0.96418 0.3733 0.94184 0.0
O285 O 0.93901 0.40489 0.97573 0.0
Mg286 Mg 0.88661 0.66765 0.20747 0.0
C287 C 0.95017 0.65074 0.20797 0.0
O288 O 0.93873 0.62478 0.21067 0.0
C289 C 0.83564 0.70488 0.2183 0.0
O290 O 0.82817 0.69538 0.20106 0.0
C291 C 0.8816 0.61534 0.23204 0.0
O292 O 0.89392 0.63473 0.24345 0.0
O293 O 0.87505 0.62284 0.21486 0.0
O294 O 0.93375 0.67311 0.20903 0.0
O295 O 0.882 0.68035 0.17733 0.0
C296 C 0.88658 0.7076 0.1753 0.0
O297 O 0.88977 0.72376 0.19089 0.0
O298 O 0.86015 0.69708 0.22526 0.0
Mg299 Mg 0.60368 0.634 0.4538 0.0
C300 C 0.57965 0.69197 0.44141 0.0
O301 O 0.55961 0.67431 0.4345 0.0
C302 C 0.58122 0.58704 0.47995 0.0
O303 O 0.60815 0.57836 0.47691 0.0
C304 C 0.65506 0.63797 0.47947 0.0
O305 O 0.63583 0.65516 0.48782 0.0
O306 O 0.64791 0.62502 0.46387 0.0
O307 O 0.59926 0.68142 0.4524 0.0
O308 O 0.59452 0.62179 0.42386 0.0
C309 C 0.56934 0.61144 0.42028 0.0
O310 O 0.55256 0.60418 0.43491 0.0
O311 O 0.57286 0.61112 0.47259 0.0
Mg312 Mg 0.36833 0.36092 0.19977 0.0
C313 C 0.43236 0.37505 0.20357 0.0
O314 O 0.42163 0.3995 0.21056 0.0
C315 C 0.31368 0.33445 0.21404 0.0
O316 O 0.30481 0.35396 0.20142 0.0
C317 C 0.35021 0.40966 0.22606 0.0
O318 O 0.34542 0.38669 0.23697 0.0
O319 O 0.35934 0.40579 0.20884 0.0
O320 O 0.41518 0.35363 0.20079 0.0
O321 O 0.36076 0.35106 0.16934 0.0
C322 C 0.35959 0.32374 0.16596 0.0
O323 O 0.35961 0.30572 0.18073 0.0
O324 O 0.34098 0.33158 0.21685 0.0
Mg325 Mg 0.40701 0.62699 0.95517 0.0
C326 C 0.44792 0.61669 0.9239 0.0
O327 O 0.46387 0.62158 0.93935 0.0
C328 C 0.35685 0.6244 0.98158 0.0
O329 O 0.37673 0.63932 0.99107 0.0
C330 C 0.43165 0.58272 0.98304 0.0
O331 O 0.40467 0.57334 0.98162 0.0
O332 O 0.43887 0.60613 0.97432 0.0
O333 O 0.42032 0.61547 0.92582 0.0
O334 O 0.40824 0.67457 0.95266 0.0
C335 C 0.38415 0.68696 0.94851 0.0
O336 O 0.36014 0.67138 0.94931 0.0
O337 O 0.36323 0.61476 0.9648 0.0
Mg338 Mg 0.14848 0.66414 0.7002 0.0
C339 C 0.08519 0.64598 0.7009 0.0
O340 O 0.09722 0.62104 0.70582 0.0
C341 C 0.19929 0.70016 0.71156 0.0
O342 O 0.20864 0.68603 0.69619 0.0
C343 C 0.15485 0.61674 0.72842 0.0
O344 O 0.14376 0.63847 0.73848 0.0
O345 O 0.1602 0.62076 0.71055 0.0
O346 O 0.10113 0.66872 0.70017 0.0
O347 O 0.15685 0.67373 0.66986 0.0
C348 C 0.15293 0.70079 0.66648 0.0
O349 O 0.14722 0.7182 0.68114 0.0
O350 O 0.17326 0.69574 0.71729 0.0
Mg351 Mg 0.10528 0.39876 0.44976 0.0
C352 C 0.07201 0.41705 0.415 0.0
O353 O 0.054 0.42363 0.4291 0.0
C354 C 0.15542 0.39718 0.47687 0.0
O355 O 0.13409 0.38615 0.48725 0.0
C356 C 0.05136 0.42284 0.47262 0.0
O357 O 0.03778 0.39942 0.46629 0.0
O358 O 0.07806 0.42663 0.46829 0.0
O359 O 0.09775 0.40902 0.41932 0.0
O360 O 0.09504 0.35217 0.44867 0.0
C361 C 0.11574 0.33361 0.44852 0.0
O362 O 0.14218 0.34239 0.45288 0.0
O363 O 0.15011 0.40496 0.45955 0.0
Mg364 Mg 0.37696 0.65977 0.3104 0.0
C365 C 0.44068 0.64459 0.30771 0.0
O366 O 0.42971 0.61982 0.30143 0.0
C367 C 0.3339 0.70794 0.30106 0.0
O368 O 0.33584 0.71123 0.31989 0.0
C369 C 0.34901 0.60877 0.28935 0.0
O370 O 0.33315 0.63011 0.28226 0.0
O371 O 0.36793 0.61459 0.30226 0.0
O372 O 0.42389 0.66663 0.30916 0.0
O373 O 0.37 0.67076 0.34068 0.0
C374 C 0.3887 0.66297 0.35326 0.0
O375 O 0.40797 0.6429 0.3486 0.0
O376 O 0.34999 0.68895 0.2928 0.0
Mg377 Mg 0.10083 0.62287 0.06142 0.0
C378 C 0.09967 0.62909 0.105 0.0
O379 O 0.1193 0.64919 0.10119 0.0
C380 C 0.15279 0.62639 0.03635 0.0
O381 O 0.13384 0.6437 0.02788 0.0
C382 C 0.07842 0.57305 0.03784 0.0
O383 O 0.10521 0.5647 0.04171 0.0
O384 O 0.06997 0.59802 0.04378 0.0
O385 O 0.09101 0.61245 0.09139 0.0
O386 O 0.09633 0.67026 0.06157 0.0
C387 C 0.07626 0.68176 0.07178 0.0
O388 O 0.05502 0.66494 0.07801 0.0
O389 O 0.14518 0.61341 0.05182 0.0
Mg390 Mg 0.15646 0.36766 0.8162 0.0
C391 C 0.09521 0.38655 0.82079 0.0
O392 O 0.10968 0.4113 0.82134 0.0
C393 C 0.20816 0.34166 0.798 0.0
O394 O 0.21848 0.36302 0.80873 0.0
C395 C 0.15656 0.41655 0.789 0.0
O396 O 0.14162 0.39591 0.78024 0.0
O397 O 0.16695 0.4113 0.80571 0.0
O398 O 0.10913 0.36326 0.81668 0.0
O399 O 0.16654 0.35787 0.84633 0.0
C400 C 0.16871 0.33062 0.84967 0.0
O401 O 0.16831 0.3125 0.83491 0.0
O402 O 0.18072 0.33737 0.79787 0.0
Mg403 Mg 0.41018 0.39374 0.5579 0.0
C404 C 0.44833 0.39507 0.5908 0.0
O405 O 0.46491 0.39222 0.5754 0.0
C406 C 0.35957 0.39488 0.53169 0.0
O407 O 0.38014 0.3822 0.52143 0.0
C408 C 0.44457 0.44667 0.54757 0.0
O409 O 0.43162 0.45461 0.56371 0.0
O410 O 0.43992 0.42105 0.54103 0.0
O411 O 0.42109 0.39902 0.58837 0.0
O412 O 0.41765 0.3468 0.55651 0.0
C413 C 0.39591 0.32973 0.55831 0.0
O414 O 0.36951 0.34047 0.55649 0.0
O415 O 0.36558 0.4032 0.54882 0.0
C416 C 0.13262 0.28277 0.44154 0.0
C417 C 0.11207 0.30504 0.43866 0.0
C418 C 0.13358 0.25821 0.42933 0.0
C419 C 0.11395 0.2562 0.41358 0.0
C420 C 0.0919 0.27766 0.41139 0.0
C421 C 0.09105 0.30169 0.42408 0.0
C422 C 0.15692 0.23545 0.43251 0.0
C423 C 0.0707 0.27657 0.39469 0.0
C424 C 0.14154 0.22037 0.36744 0.0
C425 C 0.12624 0.19383 0.36726 0.0
C426 C 0.13794 0.24057 0.38255 0.0
C427 C 0.11885 0.23401 0.39807 0.0
C428 C 0.10418 0.20678 0.39838 0.0
C429 C 0.108 0.18706 0.38294 0.0
C430 C 0.15381 0.26946 0.38152 0.0
C431 C 0.08392 0.1988 0.41474 0.0
H432 H 0.14883 0.28517 0.45285 0.0
H433 H 0.07522 0.31891 0.42166 0.0
H434 H 0.14765 0.21314 0.43122 0.0
H435 H 0.174 0.23769 0.42123 0.0
H436 H 0.16741 0.23772 0.44691 0.0
H437 H 0.05274 0.2927 0.39635 0.0
H438 H 0.08247 0.28136 0.38103 0.0
H439 H 0.0611 0.25444 0.39325 0.0
H440 H 0.15555 0.22594 0.35537 0.0
H441 H 0.0962 0.16657 0.38297 0.0
H442 H 0.16747 0.27253 0.3946 0.0
H443 H 0.13779 0.28764 0.38116 0.0
H444 H 0.16802 0.27111 0.36855 0.0
H445 H 0.09532 0.20112 0.42881 0.0
H446 H 0.07555 0.1761 0.41342 0.0
H447 H 0.06505 0.21397 0.41497 0.0
C448 C 0.02593 0.89327 0.60961 0.0
C449 C 0.05579 0.8879 0.60718 0.0
C450 C 0.01223 0.88892 0.62747 0.0
C451 C 0.0287 0.87862 0.64338 0.0
C452 C 0.05907 0.87378 0.64119 0.0
C453 C 0.07235 0.87868 0.62309 0.0
C454 C 0.97986 0.89463 0.62914 0.0
C455 C 0.07725 0.86237 0.65772 0.0
C456 C 0.98837 0.89192 0.69032 0.0
C457 C 0.9717 0.8663 0.69182 0.0
C458 C 1.0091 0.89535 0.67553 0.0
C459 C 0.01343 0.87251 0.66199 0.0
C460 C 0.99883 0.84552 0.66462 0.0
C461 C 0.97811 0.84273 0.6795 0.0
C462 C 0.02419 0.92446 0.67331 0.0
C463 C 1.00305 0.82048 0.65065 0.0
H464 H 0.01305 0.90048 0.59736 0.0
H465 H 0.09538 0.87411 0.62119 0.0
H466 H 0.96842 0.87414 0.63306 0.0
H467 H 0.97559 0.91073 0.64083 0.0
H468 H 0.97031 0.90305 0.61548 0.0
H469 H 0.1009 0.86222 0.65423 0.0
H470 H 0.07372 0.87579 0.67089 0.0
H471 H 0.07041 0.83973 0.6612 0.0
H472 H 0.98387 0.91017 0.69988 0.0
H473 H 0.96553 0.82274 0.68057 0.0
H474 H 0.0141 0.93661 0.66115 0.0
H475 H 0.0476 0.92143 0.66982 0.0
H476 H 0.02235 0.93803 0.6866 0.0
H477 H 0.99195 0.82563 0.63681 0.0
H478 H 0.9939 0.79972 0.65633 0.0
H479 H 0.02653 0.81724 0.64743 0.0
C480 C 0.40899 0.72727 0.93023 0.0
C481 C 0.38351 0.71543 0.93826 0.0
C482 C 0.40752 0.74971 0.91639 0.0
C483 C 0.37994 0.76047 0.91046 0.0
C484 C 0.35445 0.75065 0.91998 0.0
C485 C 0.35655 0.7283 0.93379 0.0
C486 C 0.4353 0.75988 0.90681 0.0
C487 C 0.32462 0.76158 0.91425 0.0
C488 C 0.37509 0.82348 0.87436 0.0
C489 C 0.37332 0.80819 0.85679 0.0
C490 C 0.37721 0.80839 0.89208 0.0
C491 C 0.37728 0.77741 0.89213 0.0
C492 C 0.37471 0.76202 0.87443 0.0
C493 C 0.37287 0.77757 0.85705 0.0
C494 C 0.38017 0.82552 0.91063 0.0
C495 C 0.37433 0.72899 0.87376 0.0
H496 H 0.42995 0.71763 0.93368 0.0
H497 H 0.33675 0.71961 0.94013 0.0
H498 H 0.43709 0.74973 0.89227 0.0
H499 H 0.43513 0.78392 0.90483 0.0
H500 H 0.4549 0.75371 0.91532 0.0
H501 H 0.30773 0.75571 0.9251 0.0
H502 H 0.3247 0.78565 0.91239 0.0
H503 H 0.31839 0.75173 0.90017 0.0
H504 H 0.37574 0.84715 0.87423 0.0
H505 H 0.37136 0.76559 0.84354 0.0
H506 H 0.40188 0.8213 0.91712 0.0
H507 H 0.36356 0.81833 0.92128 0.0
H508 H 0.37778 0.84942 0.9083 0.0
H509 H 0.39502 0.72023 0.8797 0.0
H510 H 0.37154 0.7204 0.85883 0.0
H511 H 0.3563 0.7205 0.88286 0.0
C512 C 0.45004 0.13183 0.12442 0.0
C513 C 0.46633 0.1201 0.10906 0.0
C514 C 0.46296 0.13666 0.14264 0.0
C515 C 0.49272 0.12948 0.14548 0.0
C516 C 0.50868 0.11623 0.13028 0.0
C517 C 0.49531 0.11173 0.11231 0.0
C518 C 0.44521 0.15074 0.1585 0.0
C519 C 0.54032 0.10776 0.13273 0.0
C520 C 0.54457 0.16771 0.17968 0.0
C521 C 0.55036 0.1454 0.19305 0.0
C522 C 0.52382 0.16384 0.16496 0.0
C523 C 0.50818 0.13719 0.16376 0.0
C524 C 0.51162 0.11601 0.17848 0.0
C525 C 0.53276 0.12031 0.19292 0.0
C526 C 0.52103 0.18702 0.14956 0.0
C527 C 0.49498 0.08757 0.178 0.0
H528 H 0.42768 0.13855 0.12195 0.0
H529 H 0.50794 0.10243 0.10055 0.0
H530 H 0.44816 0.13886 0.17233 0.0
H531 H 0.45289 0.17347 0.1608 0.0
H532 H 0.4216 0.15138 0.15493 0.0
H533 H 0.54984 0.09829 0.11933 0.0
H534 H 0.55335 0.12716 0.13692 0.0
H535 H 0.54245 0.09152 0.14453 0.0
H536 H 0.55791 0.18726 0.17966 0.0
H537 H 0.53679 0.10309 0.20333 0.0
H538 H 0.49787 0.19049 0.14558 0.0
H539 H 0.53278 0.17975 0.13636 0.0
H540 H 0.53049 0.20819 0.1543 0.0
H541 H 0.47188 0.09127 0.17391 0.0
H542 H 0.49565 0.07622 0.19218 0.0
H543 H 0.50476 0.07293 0.16694 0.0
C544 C 0.13909 0.77333 0.15321 0.0
C545 C 0.134 0.80336 0.15538 0.0
C546 C 0.12867 0.75797 0.1371 0.0
C547 C 0.11275 0.77296 0.12264 0.0
C548 C 0.10847 0.80355 0.12432 0.0
C549 C 0.11919 0.81845 0.14071 0.0
C550 C 0.13354 0.72534 0.13605 0.0
C551 C 0.09147 0.82028 0.1093 0.0
C552 C 0.10736 0.72602 0.07765 0.0
C553 C 0.08166 0.71033 0.08141 0.0
C554 C 0.11649 0.74868 0.09 0.0
C555 C 0.09958 0.75576 0.1065 0.0
C556 C 0.07223 0.74201 0.10923 0.0
C557 C 0.06356 0.71952 0.09664 0.0
C558 C 0.14555 0.76313 0.08636 0.0
C559 C 0.05336 0.74907 0.12651 0.0
H560 H 0.15052 0.76154 0.16449 0.0
H561 H 0.11481 0.84159 0.14244 0.0
H562 H 0.11221 0.71393 0.13632 0.0
H563 H 0.1445 0.71947 0.12227 0.0
H564 H 0.14697 0.71709 0.14825 0.0
H565 H 0.09357 0.84429 0.11125 0.0
H566 H 0.09891 0.81436 0.09453 0.0
H567 H 0.06805 0.81445 0.11034 0.0
H568 H 0.12137 0.71938 0.0658 0.0
H569 H 0.0435 0.7078 0.09959 0.0
H570 H 0.16194 0.7542 0.09657 0.0
H571 H 0.14414 0.78703 0.08892 0.0
H572 H 0.15342 0.75924 0.07137 0.0
H573 H 0.06379 0.74045 0.13981 0.0
H574 H 0.03127 0.73934 0.12521 0.0
H575 H 0.05113 0.77304 0.12829 0.0
C576 C 0.49055 0.91304 0.39876 0.0
C577 C 0.46191 0.90327 0.40175 0.0
C578 C 0.50525 0.90748 0.38137 0.0
C579 C 0.49088 0.89211 0.36635 0.0
C580 C 0.46148 0.88341 0.36885 0.0
C581 C 0.44735 0.88897 0.38658 0.0
C582 C 0.53665 0.91706 0.37939 0.0
C583 C 0.44534 0.86721 0.35313 0.0
C584 C 0.532 0.9003 0.31916 0.0
C585 C 0.55045 0.87584 0.31973 0.0
C586 C 0.51042 0.90459 0.33333 0.0
C587 C 0.50753 0.88416 0.34857 0.0
C588 C 0.5243 0.85816 0.34821 0.0
C589 C 0.54537 0.85418 0.33369 0.0
C590 C 0.49247 0.93222 0.33288 0.0
C591 C 0.52212 0.83583 0.3642 0.0
H592 H 0.50201 0.92417 0.41034 0.0
H593 H 0.42526 0.88122 0.38875 0.0
H594 H 0.5508 0.8977 0.37707 0.0
H595 H 0.53917 0.93143 0.3666 0.0
H596 H 0.54459 0.92901 0.39236 0.0
H597 H 0.42162 0.86555 0.35623 0.0
H598 H 0.44836 0.8782 0.33898 0.0
H599 H 0.45431 0.84479 0.35175 0.0
H600 H 0.53556 0.917 0.30831 0.0
H601 H 0.55945 0.83518 0.33429 0.0
H602 H 0.50083 0.94772 0.34392 0.0
H603 H 0.46935 0.92753 0.33645 0.0
H604 H 0.49344 0.94307 0.31853 0.0
H605 H 0.53267 0.84463 0.37742 0.0
H606 H 0.53306 0.81499 0.36026 0.0
H607 H 0.49902 0.83119 0.3678 0.0
C608 C 0.40537 0.18629 0.62596 0.0
C609 C 0.38858 0.1943 0.64211 0.0
C610 C 0.4077 0.20481 0.60981 0.0
C611 C 0.39343 0.23226 0.61003 0.0
C612 C 0.37579 0.24005 0.62606 0.0
C613 C 0.3733 0.22085 0.64177 0.0
C614 C 0.42618 0.19545 0.59283 0.0
C615 C 0.36056 0.2693 0.62704 0.0
C616 C 0.42147 0.29773 0.58204 0.0
C617 C 0.39945 0.30128 0.56817 0.0
C618 C 0.42073 0.27433 0.59515 0.0
C619 C 0.39779 0.25363 0.59404 0.0
C620 C 0.37705 0.25571 0.57893 0.0
C621 C 0.37787 0.27977 0.56635 0.0
C622 C 0.44304 0.27336 0.6112 0.0
C623 C 0.3528 0.23363 0.57687 0.0
H624 H 0.41723 0.1658 0.62609 0.0
H625 H 0.36046 0.22736 0.65422 0.0
H626 H 0.41396 0.19836 0.57911 0.0
H627 H 0.44592 0.2094 0.59199 0.0
H628 H 0.43319 0.17228 0.59396 0.0
H629 H 0.34731 0.27184 0.6404 0.0
H630 H 0.37694 0.28714 0.62659 0.0
H631 H 0.34605 0.27209 0.61435 0.0
H632 H 0.438 0.31449 0.5837 0.0
H633 H 0.36084 0.28243 0.55562 0.0
H634 H 0.45158 0.25089 0.61315 0.0
H635 H 0.43254 0.27999 0.625 0.0
H636 H 0.46166 0.2883 0.60841 0.0
H637 H 0.3614 0.21108 0.57836 0.0
H638 H 0.34149 0.23556 0.56272 0.0
H639 H 0.33652 0.23704 0.58853 0.0
C640 C 0.02299 0.1337 0.90826 0.0
C641 C 0.05356 0.13453 0.90831 0.0
C642 C 1.0072 0.13384 0.89094 0.0
C643 C 0.02228 0.13515 0.87309 0.0
C644 C 0.0532 0.13565 0.87296 0.0
C645 C 0.06854 0.13512 0.89062 0.0
C646 C 0.97425 0.13302 0.89182 0.0
C647 C 0.06997 0.13755 0.85422 0.0
C648 C 0.97389 0.10994 0.83209 0.0
C649 C 0.96018 0.1362 0.82686 0.0
C650 C 0.99611 0.10947 0.84604 0.0
C651 C 1.00513 0.13595 0.85479 0.0
C652 C 0.99357 0.16279 0.84806 0.0
C653 C 0.97113 0.1626 0.83422 0.0
C654 C 1.00771 0.08035 0.8528 0.0
C655 C 1.00298 0.19158 0.85672 0.0
H656 H 0.01125 0.13312 0.92187 0.0
H657 H 0.09216 0.13606 0.8906 0.0
H658 H 0.96516 0.15357 0.88583 0.0
H659 H 0.96579 0.11473 0.88289 0.0
H660 H 0.96598 0.13039 0.90682 0.0
H661 H 0.09392 0.13632 0.85651 0.0
H662 H 0.06334 0.11968 0.8443 0.0
H663 H 0.06481 0.15848 0.8469 0.0
H664 H 0.96587 0.08941 0.82634 0.0
H665 H 0.96094 0.18305 0.83014 0.0
H666 H 0.9981 0.07509 0.86711 0.0
H667 H 0.03173 0.08111 0.8546 0.0
H668 H 1.00218 0.06241 0.84259 0.0
H669 H 0.99253 0.19439 0.87109 0.0
H670 H 0.99656 0.21035 0.84748 0.0
H671 H 0.02694 0.19211 0.8589 0.0
C672 C 0.90594 0.73798 0.57338 0.0
C673 C 0.92882 0.71991 0.57962 0.0
C674 C 0.89795 0.76308 0.58395 0.0
C675 C 0.91274 0.76988 0.60138 0.0
C676 C 0.93686 0.75262 0.60713 0.0
C677 C 0.94478 0.7281 0.59609 0.0
C678 C 0.87279 0.78151 0.57697 0.0
C679 C 0.95318 0.75887 0.62566 0.0
C680 C 0.9061 0.8412 0.62945 0.0
C681 C 0.88695 0.83317 0.64437 0.0
C682 C 0.91337 0.8215 0.61456 0.0
C683 C 0.90141 0.79297 0.61471 0.0
C684 C 0.8806 0.78544 0.62902 0.0
C685 C 0.87345 0.80569 0.64356 0.0
C686 C 0.93525 0.83072 0.59944 0.0
C687 C 0.86744 0.75521 0.62985 0.0
H688 H 0.89362 0.73197 0.56061 0.0
H689 H 0.96249 0.71437 0.60109 0.0
H690 H 0.85368 0.77816 0.58656 0.0
H691 H 0.87853 0.80505 0.57761 0.0
H692 H 0.86633 0.77589 0.56194 0.0
H693 H 0.97262 0.74463 0.62743 0.0
H694 H 0.96035 0.78198 0.62604 0.0
H695 H 0.93847 0.75543 0.6382 0.0
H696 H 0.91637 0.86251 0.62982 0.0
H697 H 0.85862 0.79922 0.65499 0.0
H698 H 0.92908 0.8223 0.58495 0.0
H699 H 0.95694 0.82154 0.60311 0.0
H700 H 0.93736 0.85488 0.59869 0.0
H701 H 0.858 0.74917 0.61564 0.0
H702 H 0.85012 0.75345 0.64103 0.0
H703 H 0.88475 0.73903 0.63319 0.0
C704 C 0.02849 0.16029 0.32334 0.0
C705 C 0.04425 0.18586 0.32743 0.0
C706 C 1.00727 0.14977 0.33623 0.0
C707 C 1.00179 0.16513 0.35365 0.0
C708 C 0.01554 0.19243 0.35691 0.0
C709 C 0.03654 0.2025 0.34373 0.0
C710 C 0.99266 0.12092 0.33202 0.0
C711 C 0.0103 0.2097 0.37522 0.0
C712 C 0.9423 0.14322 0.38938 0.0
C713 C 0.95859 0.12766 0.40312 0.0
C714 C 0.9557 0.15472 0.37271 0.0
C715 C 0.98601 0.1505 0.36981 0.0
C716 C 1.0021 0.13349 0.38316 0.0
C717 C 0.9882 0.12229 0.39959 0.0
C718 C 0.93779 0.17278 0.35888 0.0
C719 C 0.03445 0.12842 0.38067 0.0
H720 H 0.03402 0.14743 0.31067 0.0
H721 H 0.04842 0.22237 0.34703 0.0
H722 H 1.00241 0.10372 0.34129 0.0
H723 H 0.96904 0.12201 0.33546 0.0
H724 H 0.99533 0.11429 0.31666 0.0
H725 H 0.01734 0.2328 0.37368 0.0
H726 H 0.98693 0.20933 0.37935 0.0
H727 H 0.02291 0.19972 0.38721 0.0
H728 H 0.91947 0.14778 0.39213 0.0
H729 H 1.00089 0.11022 0.41013 0.0
H730 H 0.94356 0.16772 0.34365 0.0
H731 H 0.94243 0.19629 0.36136 0.0
H732 H 0.91404 0.16915 0.36092 0.0
H733 H 0.03899 0.11883 0.36623 0.0
H734 H 0.04353 0.11367 0.3919 0.0
H735 H 0.04608 0.14962 0.38148 0.0
C736 C 0.56748 0.29511 0.09799 0.0
C737 C 0.58242 0.30318 0.0811 0.0
C738 C 0.57521 0.2699 0.10831 0.0
C739 C 0.59805 0.25185 0.10137 0.0
C740 C 0.61168 0.25862 0.08354 0.0
C741 C 0.60393 0.28438 0.0737 0.0
C742 C 0.56018 0.2637 0.12732 0.0
C743 C 0.63552 0.2395 0.07536 0.0
C744 C 0.64 0.21306 0.14108 0.0
C745 C 0.6258 0.18594 0.14188 0.0
C746 C 0.63199 0.23421 0.12739 0.0
C747 C 0.60957 0.22797 0.1139 0.0
C748 C 0.59659 0.1999 0.11375 0.0
C749 C 0.60475 0.17928 0.12781 0.0
C750 C 0.64621 0.26396 0.12824 0.0
C751 C 0.57311 0.19209 0.09935 0.0
H752 H 0.55081 0.30942 0.10386 0.0
H753 H 0.61546 0.29032 0.06059 0.0
H754 H 0.55156 0.24108 0.12743 0.0
H755 H 0.57615 0.2655 0.13932 0.0
H756 H 0.5419 0.27903 0.13022 0.0
H757 H 0.64057 0.24503 0.06008 0.0
H758 H 0.65566 0.24232 0.08405 0.0
H759 H 0.62925 0.21612 0.07617 0.0
H760 H 0.65627 0.21849 0.15187 0.0
H761 H 0.59387 0.15829 0.12819 0.0
H762 H 0.62974 0.28061 0.13241 0.0
H763 H 0.65478 0.27011 0.11382 0.0
H764 H 0.6644 0.2648 0.13884 0.0
H765 H 0.55303 0.20472 0.10258 0.0
H766 H 0.56763 0.16845 0.0997 0.0
H767 H 0.5801 0.198 0.08449 0.0
C768 C 0.57771 0.90048 0.88423 0.0
C769 C 0.56232 0.90439 0.90158 0.0
C770 C 0.56278 0.89746 0.86652 0.0
C771 C 0.53189 0.89858 0.86628 0.0
C772 C 0.51646 0.90352 0.88373 0.0
C773 C 0.53184 0.90627 0.90111 0.0
C774 C 0.57996 0.89206 0.84824 0.0
C775 C 0.48353 0.90526 0.88417 0.0
C776 C 0.48293 0.91598 0.82404 0.0
C777 C 0.46918 0.88893 0.8211 0.0
C778 C 0.50575 0.91897 0.83741 0.0
C779 C 0.51503 0.89431 0.84807 0.0
C780 C 0.5035 0.86638 0.84355 0.0
C781 C 0.48067 0.864 0.83008 0.0
C782 C 0.51768 0.94908 0.84155 0.0
C783 C 0.51312 0.83944 0.85437 0.0
H784 H 0.60127 0.89868 0.88457 0.0
H785 H 0.51985 0.90944 0.91447 0.0
H786 H 0.5763 0.86928 0.84329 0.0
H787 H 0.57246 0.90675 0.83651 0.0
H788 H 0.60374 0.89532 0.85044 0.0
H789 H 0.47495 0.90998 0.89888 0.0
H790 H 0.47582 0.9226 0.87422 0.0
H791 H 0.47406 0.88427 0.87913 0.0
H792 H 0.47452 0.9353 0.8169 0.0
H793 H 0.47037 0.84296 0.82778 0.0
H794 H 0.54169 0.9484 0.84345 0.0
H795 H 0.50808 0.95741 0.85523 0.0
H796 H 0.51236 0.96475 0.82981 0.0
H797 H 0.53715 0.83916 0.85617 0.0
H798 H 0.50629 0.81907 0.84687 0.0
H799 H 0.50324 0.83957 0.86903 0.0
C800 C 0.91482 0.28116 0.9327 0.0
C801 C 0.89444 0.2862 0.94748 0.0
C802 C 0.91223 0.2569 0.92033 0.0
C803 C 0.88912 0.23678 0.9231 0.0
C804 C 0.87008 0.24038 0.93907 0.0
C805 C 0.87268 0.26529 0.95089 0.0
C806 C 0.93293 0.25404 0.90343 0.0
C807 C 0.846 0.21874 0.94303 0.0
C808 C 0.86016 0.20138 0.87725 0.0
C809 C 0.87571 0.17498 0.87668 0.0
C810 C 0.86378 0.22123 0.89256 0.0
C811 C 0.88287 0.21428 0.908 0.0
C812 C 0.89718 0.18683 0.90814 0.0
C813 C 0.89373 0.16768 0.89236 0.0
C814 C 0.84839 0.25039 0.89163 0.0
C815 C 0.91722 0.17812 0.92445 0.0
H816 H 0.93163 0.29726 0.92989 0.0
H817 H 0.85701 0.26892 0.9624 0.0
H818 H 0.94273 0.23189 0.90311 0.0
H819 H 0.92072 0.25696 0.88971 0.0
H820 H 0.95077 0.27044 0.90396 0.0
H821 H 0.83593 0.2222 0.95748 0.0
H822 H 0.82876 0.22093 0.93188 0.0
H823 H 0.8545 0.19606 0.94221 0.0
H824 H 0.84631 0.20733 0.86518 0.0
H825 H 0.90578 0.1473 0.89209 0.0
H826 H 0.86475 0.26823 0.89088 0.0
H827 H 0.83526 0.25394 0.9049 0.0
H828 H 0.83375 0.25214 0.87888 0.0
H829 H 0.93903 0.18798 0.92206 0.0
H830 H 0.91999 0.15403 0.92516 0.0
H831 H 0.90892 0.18602 0.9386 0.0
C832 C 0.50156 0.13813 0.70255 0.0
C833 C 0.47967 0.15747 0.6965 0.0
C834 C 0.5269 0.1339 0.69143 0.0
C835 C 0.52992 0.14868 0.67356 0.0
C836 C 0.50871 0.16954 0.66799 0.0
C837 C 0.48407 0.17399 0.67968 0.0
C838 C 0.54951 0.11228 0.69822 0.0
C839 C 0.51082 0.18554 0.64895 0.0
C840 C 0.59852 0.14903 0.64254 0.0
C841 C 0.59207 0.12707 0.62899 0.0
C842 C 0.57933 0.15532 0.65787 0.0
C843 C 0.55283 0.13961 0.65946 0.0
C844 C 0.54694 0.11647 0.6464 0.0
C845 C 0.56677 0.11027 0.63149 0.0
C846 C 0.58683 0.17954 0.67185 0.0
C847 C 0.51875 0.09943 0.64735 0.0
H848 H 0.4984 0.12549 0.71563 0.0
H849 H 0.46726 0.18896 0.67486 0.0
H850 H 0.54757 0.09179 0.68972 0.0
H851 H 0.57182 0.12098 0.69591 0.0
H852 H 0.54679 0.10686 0.71378 0.0
H853 H 0.49332 0.20213 0.6472 0.0
H854 H 0.53222 0.19661 0.6477 0.0
H855 H 0.50923 0.16966 0.63684 0.0
H856 H 0.6181 0.16202 0.64079 0.0
H857 H 0.56151 0.09329 0.62112 0.0
H858 H 0.58373 0.17206 0.68697 0.0
H859 H 0.57201 0.19836 0.66955 0.0
H860 H 0.60965 0.18723 0.67005 0.0
H861 H 0.51579 0.08993 0.66196 0.0
H862 H 0.51794 0.08146 0.63654 0.0
H863 H 0.50008 0.11434 0.64469 0.0
C864 C 0.60496 0.84366 0.38386 0.0
C865 C 0.62624 0.83654 0.37 0.0
C866 C 0.59664 0.82352 0.39819 0.0
C867 C 0.60959 0.79543 0.39849 0.0
C868 C 0.63206 0.78866 0.38512 0.0
C869 C 0.6403 0.80938 0.3712 0.0
C870 C 0.57322 0.83191 0.41252 0.0
C871 C 0.64619 0.75884 0.38472 0.0
C872 C 0.60492 0.74064 0.43966 0.0
C873 C 0.5835 0.72138 0.43274 0.0
C874 C 0.61224 0.76611 0.42937 0.0
C875 C 0.59826 0.7721 0.41155 0.0
C876 C 0.57542 0.75365 0.40511 0.0
C877 C 0.56812 0.72875 0.41589 0.0
C878 C 0.63605 0.7857 0.43705 0.0
C879 C 0.55988 0.75912 0.3862 0.0
H880 H 0.59407 0.86464 0.38313 0.0
H881 H 0.6567 0.80358 0.36057 0.0
H882 H 0.5533 0.81878 0.40984 0.0
H883 H 0.58054 0.82708 0.42747 0.0
H884 H 0.56736 0.85542 0.41155 0.0
H885 H 0.66417 0.75746 0.37398 0.0
H886 H 0.65505 0.75333 0.39918 0.0
H887 H 0.62961 0.74206 0.38105 0.0
H888 H 0.61675 0.73528 0.45276 0.0
H889 H 0.55144 0.71412 0.41042 0.0
H890 H 0.62968 0.80901 0.43578 0.0
H891 H 0.65615 0.78254 0.42836 0.0
H892 H 0.64122 0.78093 0.45242 0.0
H893 H 0.55044 0.7814 0.38612 0.0
H894 H 0.54208 0.74315 0.38351 0.0
H895 H 0.57569 0.75781 0.37406 0.0
C896 C 0.02651 0.88843 0.20152 0.0
C897 C 0.04736 0.86619 0.19945 0.0
C898 C 1.00581 0.89377 0.18698 0.0
C899 C 1.00626 0.87676 0.16985 0.0
C900 C 0.02531 0.85245 0.16856 0.0
C901 C 0.0455 0.84731 0.18346 0.0
C902 C 0.98525 0.91932 0.1892 0.0
C903 C 0.0265 0.83361 0.15062 0.0
C904 C 0.9496 0.88671 0.12996 0.0
C905 C 0.96438 0.90557 0.11729 0.0
C906 C 0.9625 0.8776 0.14742 0.0
C907 C 0.9909 0.88742 0.15221 0.0
C908 C 1.00545 0.90716 0.13974 0.0
C909 C 0.99199 0.91605 0.12253 0.0
C910 C 0.94622 0.85656 0.16027 0.0
C911 C 0.03578 0.91819 0.14422 0.0
H912 H 0.02758 0.9029 0.21394 0.0
H913 H 0.06145 0.83002 0.18169 0.0
H914 H 0.99285 0.93764 0.18 0.0
H915 H 0.96298 0.91331 0.18432 0.0
H916 H 0.9841 0.92712 0.2044 0.0
H917 H 0.03861 0.81294 0.15316 0.0
H918 H 1.00422 0.82826 0.14549 0.0
H919 H 0.03768 0.84578 0.13889 0.0
H920 H 0.92839 0.8782 0.12594 0.0
H921 H 1.00358 0.9306 0.11286 0.0
H922 H 0.94886 0.86244 0.17575 0.0
H923 H 0.95521 0.83426 0.15824 0.0
H924 H 0.92258 0.85595 0.15678 0.0
H925 H 0.03604 0.92915 0.15854 0.0
H926 H 0.04386 0.93385 0.1332 0.0
H927 H 0.0512 0.89951 0.14494 0.0
C928 C 0.61143 0.68278 0.88524 0.0
C929 C 0.63795 0.67848 0.87545 0.0
C930 C 0.60797 0.70587 0.89847 0.0
C931 C 0.63168 0.7249 0.90214 0.0
C932 C 0.65928 0.71875 0.89383 0.0
C933 C 0.66204 0.69574 0.88048 0.0
C934 C 0.57811 0.71146 0.9069 0.0
C935 C 0.68531 0.7381 0.89764 0.0
C936 C 0.6188 0.80615 0.90755 0.0
C937 C 0.62354 0.81066 0.92733 0.0
C938 C 0.61988 0.77812 0.89947 0.0
C939 C 0.62658 0.75392 0.9114 0.0
C940 C 0.63021 0.75814 0.93159 0.0
C941 C 0.62837 0.78659 0.9394 0.0
C942 C 0.61499 0.77465 0.87797 0.0
C943 C 0.63737 0.73288 0.94474 0.0
H944 H 0.59264 0.66955 0.88153 0.0
H945 H 0.68269 0.69235 0.87317 0.0
H946 H 0.5795 0.72052 0.92175 0.0
H947 H 0.56655 0.72764 0.89775 0.0
H948 H 0.56483 0.69116 0.90725 0.0
H949 H 0.70601 0.72778 0.89279 0.0
H950 H 0.68259 0.75902 0.88976 0.0
H951 H 0.68706 0.74332 0.91328 0.0
H952 H 0.61472 0.82479 0.89826 0.0
H953 H 0.63218 0.79015 0.9547 0.0
H954 H 0.59829 0.75762 0.87518 0.0
H955 H 0.63552 0.76745 0.87091 0.0
H956 H 0.60777 0.79532 0.87105 0.0
H957 H 0.62207 0.71449 0.94221 0.0
H958 H 0.63645 0.73918 0.96025 0.0
H959 H 0.65964 0.72479 0.94144 0.0
C960 C 0.56807 0.3932 0.13002 0.0
C961 C 0.55393 0.40863 0.1152 0.0
C962 C 0.55353 0.38668 0.14744 0.0
C963 C 0.52417 0.3956 0.14995 0.0
C964 C 0.51044 0.4125 0.13543 0.0
C965 C 0.52552 0.41893 0.11834 0.0
C966 C 0.56912 0.369 0.16265 0.0
C967 C 0.47916 0.42253 0.13744 0.0
C968 C 0.46709 0.35524 0.17888 0.0
C969 C 0.46096 0.37569 0.19349 0.0
C970 C 0.48958 0.36014 0.16547 0.0
C971 C 0.50663 0.38586 0.16692 0.0
C972 C 0.50277 0.40474 0.18296 0.0
C973 C 0.47981 0.39956 0.19599 0.0
C974 C 0.49301 0.3393 0.14865 0.0
C975 C 0.52114 0.43183 0.18541 0.0
H976 H 0.58999 0.38505 0.12769 0.0
H977 H 0.5145 0.43106 0.10705 0.0
H978 H 0.56399 0.3772 0.17738 0.0
H979 H 0.56175 0.34594 0.16182 0.0
H980 H 0.59314 0.3694 0.16055 0.0
H981 H 0.47205 0.43636 0.12513 0.0
H982 H 0.46453 0.40326 0.13827 0.0
H983 H 0.47634 0.4352 0.15101 0.0
H984 H 0.45284 0.33658 0.17688 0.0
H985 H 0.47554 0.41524 0.20742 0.0
H986 H 0.51635 0.33422 0.14611 0.0
H987 H 0.48444 0.34972 0.13533 0.0
H988 H 0.48103 0.31851 0.15099 0.0
H989 H 0.54438 0.42711 0.18218 0.0
H990 H 0.51946 0.44091 0.20028 0.0
H991 H 0.5137 0.4488 0.17508 0.0
C992 C 0.8638 0.23231 0.43585 0.0
C993 C 0.88994 0.2176 0.43987 0.0
C994 C 0.86228 0.25331 0.42113 0.0
C995 C 0.88756 0.25982 0.4102 0.0
C996 C 0.91466 0.24731 0.41557 0.0
C997 C 0.91555 0.22633 0.43039 0.0
C998 C 0.83297 0.26616 0.41599 0.0
C999 C 0.94219 0.2538 0.40438 0.0
C1000 C 0.87636 0.27211 0.35653 0.0
C1001 C 0.87879 0.30253 0.3549 0.0
C1002 C 0.87904 0.25817 0.37445 0.0
C1003 C 0.88456 0.27501 0.39126 0.0
C1004 C 0.88676 0.30581 0.38981 0.0
C1005 C 0.88365 0.31928 0.37161 0.0
C1006 C 0.87605 0.2253 0.37535 0.0
C1007 C 0.89305 0.3244 0.40736 0.0
H1008 H 0.84397 0.22592 0.44327 0.0
H1009 H 0.93587 0.21512 0.43341 0.0
H1010 H 0.83482 0.28988 0.41301 0.0
H1011 H 0.82469 0.25549 0.40265 0.0
H1012 H 0.81667 0.26285 0.42768 0.0
H1013 H 0.962 0.24647 0.41224 0.0
H1014 H 0.94144 0.2423 0.39025 0.0
H1015 H 0.94406 0.27754 0.4014 0.0
H1016 H 0.8725 0.25904 0.34369 0.0
H1017 H 0.88592 0.34278 0.37039 0.0
H1018 H 0.85736 0.21938 0.38476 0.0
H1019 H 0.89589 0.2155 0.38181 0.0
H1020 H 0.87257 0.21536 0.36086 0.0
H1021 H 0.8767 0.32013 0.41884 0.0
H1022 H 0.89294 0.34811 0.40396 0.0
H1023 H 0.91472 0.31853 0.41334 0.0
C1024 C 0.03851 0.62086 0.69239 0.0
C1025 C 0.05652 0.64555 0.69095 0.0
C1026 C 0.01549 0.61632 0.67933 0.0
C1027 C 0.01067 0.63673 0.66431 0.0
C1028 C 0.02689 0.66309 0.664 0.0
C1029 C 0.04951 0.66728 0.67742 0.0
C1030 C 0.99816 0.58836 0.68054 0.0
C1031 C 0.02241 0.68554 0.6483 0.0
C1032 C 0.99146 0.60727 0.61469 0.0
C1033 C 0.96238 0.61613 0.6125 0.0
C1034 C 1.00699 0.61321 0.63168 0.0
C1035 C 0.99307 0.62817 0.64708 0.0
C1036 C 0.96323 0.63584 0.64542 0.0
C1037 C 0.94822 0.62982 0.62809 0.0
C1038 C 0.03876 0.60454 0.63277 0.0
C1039 C 0.94751 0.65152 0.66157 0.0
H1040 H 0.0435 0.60416 0.70299 0.0
H1041 H 0.06319 0.68651 0.67623 0.0
H1042 H 0.97468 0.59256 0.67782 0.0
H1043 H 1.00592 0.57291 0.66926 0.0
H1044 H 1.00055 0.57768 0.69487 0.0
H1045 H 0.03347 0.70653 0.6517 0.0
H1046 H 0.0314 0.67703 0.63448 0.0
H1047 H 0.99886 0.68982 0.64603 0.0
H1048 H 1.00254 0.59652 0.60279 0.0
H1049 H 0.92579 0.6369 0.62649 0.0
H1050 H 0.04262 0.59064 0.64564 0.0
H1051 H 0.05251 0.62436 0.63435 0.0
H1052 H 0.0461 0.59239 0.61972 0.0
H1053 H 0.95286 0.64166 0.67578 0.0
H1054 H 0.92348 0.65109 0.65955 0.0
H1055 H 0.95466 0.67467 0.66199 0.0
C1056 C 0.59709 0.20968 0.59157 0.0
C1057 C 0.61735 0.20626 0.5765 0.0
C1058 C 0.60088 0.23137 0.60575 0.0
C1059 C 0.62525 0.25033 0.60464 0.0
C1060 C 0.64385 0.24901 0.58831 0.0
C1061 C 0.63977 0.22688 0.57448 0.0
C1062 C 0.58049 0.23192 0.6229 0.0
C1063 C 0.66967 0.26923 0.58634 0.0
C1064 C 0.63126 0.31159 0.6419 0.0
C1065 C 0.64855 0.29829 0.65616 0.0
C1066 C 0.62389 0.2966 0.6248 0.0
C1067 C 0.63408 0.26769 0.62192 0.0
C1068 C 0.65233 0.25461 0.63599 0.0
C1069 C 0.65936 0.27007 0.65287 0.0
C1070 C 0.60425 0.31123 0.61022 0.0
C1071 C 0.6637 0.22382 0.63353 0.0
H1072 H 0.57966 0.1939 0.59329 0.0
H1073 H 0.65532 0.22459 0.56275 0.0
H1074 H 0.59139 0.22153 0.63545 0.0
H1075 H 0.57497 0.25467 0.62707 0.0
H1076 H 0.55996 0.21984 0.61991 0.0
H1077 H 0.67887 0.26886 0.57147 0.0
H1078 H 0.66346 0.292 0.59004 0.0
H1079 H 0.687 0.26241 0.59658 0.0
H1080 H 0.62251 0.33328 0.64442 0.0
H1081 H 0.67274 0.25965 0.66379 0.0
H1082 H 0.58254 0.30052 0.61037 0.0
H1083 H 0.61325 0.30881 0.59541 0.0
H1084 H 0.60119 0.33484 0.61338 0.0
H1085 H 0.64517 0.20834 0.63239 0.0
H1086 H 0.67778 0.2169 0.64577 0.0
H1087 H 0.67647 0.22208 0.61994 0.0
C1088 C 0.05174 0.41141 0.83493 0.0
C1089 C 0.06575 0.38532 0.82963 0.0
C1090 C 0.02813 0.41136 0.84783 0.0
C1091 C 0.0181 0.38453 0.85548 0.0
C1092 C 0.02996 0.35794 0.84846 0.0
C1093 C 0.05375 0.35863 0.83563 0.0
C1094 C 0.01614 0.44024 0.85484 0.0
C1095 C 0.01951 0.32882 0.85596 0.0
C1096 C 0.99757 0.38523 0.90852 0.0
C1097 C 0.96702 0.385 0.90793 0.0
C1098 C 0.0142 0.38517 0.89156 0.0
C1099 C 0.99999 0.38463 0.87338 0.0
C1100 C 0.9691 0.38466 0.87259 0.0
C1101 C 0.9529 0.38503 0.88993 0.0
C1102 C 0.0471 0.38552 0.89315 0.0
C1103 C 0.95325 0.38367 0.85349 0.0
H1104 H 0.06053 0.43215 0.83011 0.0
H1105 H 0.0642 0.33833 0.83146 0.0
H1106 H 0.99202 0.43952 0.85592 0.0
H1107 H 0.0248 0.44489 0.86951 0.0
H1108 H 0.02242 0.45855 0.84516 0.0
H1109 H 0.02637 0.31054 0.84638 0.0
H1110 H 0.02883 0.325 0.87055 0.0
H1111 H 0.99541 0.32853 0.85735 0.0
H1112 H 1.00865 0.38538 0.92237 0.0
H1113 H 0.92928 0.38456 0.88941 0.0
H1114 H 0.05608 0.40464 0.8853 0.0
H1115 H 0.05635 0.36558 0.88636 0.0
H1116 H 0.05468 0.38654 0.9084 0.0
H1117 H 0.96066 0.40176 0.84403 0.0
H1118 H 0.92922 0.38523 0.85529 0.0
H1119 H 0.95843 0.36292 0.8459 0.0
C1120 C 0.96112 0.8009 0.09461 0.0
C1121 C 0.94241 0.80954 0.07961 0.0
C1122 C 0.95276 0.77919 0.10782 0.0
C1123 C 0.92516 0.76564 0.10588 0.0
C1124 C 0.90766 0.77195 0.08955 0.0
C1125 C 0.91649 0.79385 0.07659 0.0
C1126 C 0.97224 0.77295 0.12492 0.0
C1127 C 0.87834 0.7576 0.08674 0.0
C1128 C 0.90611 0.70484 0.14142 0.0
C1129 C 0.8925 0.72084 0.15621 0.0
C1130 C 0.91632 0.71885 0.12461 0.0
C1131 C 0.9125 0.74943 0.12257 0.0
C1132 C 0.89759 0.76532 0.13713 0.0
C1133 C 0.88792 0.75086 0.15377 0.0
C1134 C 0.93247 0.70121 0.10958 0.0
C1135 C 0.89277 0.79791 0.1355 0.0
H1136 H 0.98137 0.81259 0.09698 0.0
H1137 H 0.90204 0.80005 0.06489 0.0
H1138 H 0.9625 0.7826 0.13818 0.0
H1139 H 0.97419 0.74906 0.12729 0.0
H1140 H 0.99439 0.7823 0.123 0.0
H1141 H 0.86983 0.76089 0.07186 0.0
H1142 H 0.87967 0.73382 0.08968 0.0
H1143 H 0.86248 0.76713 0.09712 0.0
H1144 H 0.91013 0.68169 0.14342 0.0
H1145 H 0.87738 0.76326 0.16519 0.0
H1146 H 0.95616 0.70582 0.11071 0.0
H1147 H 0.92547 0.70736 0.09478 0.0
H1148 H 0.92913 0.67735 0.11154 0.0
H1149 H 0.91406 0.80932 0.13448 0.0
H1150 H 0.88059 0.80697 0.14805 0.0
H1151 H 0.88044 0.8029 0.12211 0.0
C1152 C 0.52773 0.60425 0.39755 0.0
C1153 C 0.55644 0.61372 0.40064 0.0
C1154 C 0.51309 0.61031 0.38022 0.0
C1155 C 0.52759 0.62592 0.36539 0.0
C1156 C 0.55706 0.63431 0.36799 0.0
C1157 C 0.57113 0.62822 0.38563 0.0
C1158 C 0.48164 0.60096 0.37812 0.0
C1159 C 0.57333 0.65078 0.35248 0.0
C1160 C 0.48648 0.61935 0.3181 0.0
C1161 C 0.4682 0.64392 0.31903 0.0
C1162 C 0.50798 0.61449 0.33221 0.0
C1163 C 0.511 0.63447 0.34774 0.0
C1164 C 0.49446 0.66062 0.34774 0.0
C1165 C 0.47343 0.66515 0.3333 0.0
C1166 C 0.52572 0.58673 0.33136 0.0
C1167 C 0.49684 0.68253 0.36403 0.0
H1168 H 0.51618 0.59296 0.409 0.0
H1169 H 0.59328 0.63575 0.38788 0.0
H1170 H 0.46765 0.62042 0.3758 0.0
H1171 H 0.47916 0.58663 0.36527 0.0
H1172 H 0.4735 0.58905 0.39102 0.0
H1173 H 0.59708 0.65205 0.35554 0.0
H1174 H 0.57013 0.64025 0.33816 0.0
H1175 H 0.56464 0.67335 0.35147 0.0
H1176 H 0.48284 0.60298 0.307 0.0
H1177 H 0.45949 0.68425 0.33418 0.0
H1178 H 0.51721 0.571 0.34217 0.0
H1179 H 0.54887 0.59113 0.335 0.0
H1180 H 0.52469 0.57628 0.31686 0.0
H1181 H 0.48611 0.67353 0.37711 0.0
H1182 H 0.48617 0.70358 0.36034 0.0
H1183 H 0.51997 0.6868 0.36772 0.0
C1184 C 0.42203 0.23461 0.07878 0.0
C1185 C 0.40185 0.22743 0.06427 0.0
C1186 C 0.41531 0.25541 0.09307 0.0
C1187 C 0.38778 0.26946 0.09282 0.0
C1188 C 0.36861 0.26454 0.0771 0.0
C1189 C 0.37587 0.24359 0.06299 0.0
C1190 C 0.43662 0.26026 0.10941 0.0
C1191 C 0.33927 0.2794 0.07609 0.0
C1192 C 0.3565 0.28211 0.14288 0.0
C1193 C 0.36275 0.31168 0.14615 0.0
C1194 C 0.36352 0.26856 0.12529 0.0
C1195 C 0.37725 0.28494 0.1105 0.0
C1196 C 0.38234 0.3152 0.11331 0.0
C1197 C 0.37498 0.32827 0.13113 0.0
C1198 C 0.35743 0.23629 0.12292 0.0
C1199 C 0.39685 0.33344 0.09791 0.0
H1200 H 0.44234 0.22257 0.07978 0.0
H1201 H 0.36021 0.23849 0.05174 0.0
H1202 H 0.43881 0.28389 0.11269 0.0
H1203 H 0.42836 0.24937 0.12265 0.0
H1204 H 0.45856 0.25126 0.10604 0.0
H1205 H 0.32938 0.27752 0.06147 0.0
H1206 H 0.32426 0.26912 0.08667 0.0
H1207 H 0.34115 0.30287 0.07994 0.0
H1208 H 0.34686 0.2692 0.15436 0.0
H1209 H 0.38006 0.3511 0.1336 0.0
H1210 H 0.37831 0.22421 0.12146 0.0
H1211 H 0.34466 0.23234 0.10955 0.0
H1212 H 0.3452 0.2271 0.13537 0.0
H1213 H 0.42034 0.32774 0.09715 0.0
H1214 H 0.39495 0.3572 0.10098 0.0
H1215 H 0.38724 0.32885 0.0835 0.0
C1216 C 0.44774 0.62604 0.88805 0.0
C1217 C 0.46233 0.61658 0.90473 0.0
C1218 C 0.46301 0.63038 0.87058 0.0
C1219 C 0.49342 0.62483 0.86984 0.0
C1220 C 0.50785 0.61401 0.88646 0.0
C1221 C 0.49217 0.61015 0.90366 0.0
C1222 C 0.44691 0.64213 0.85324 0.0
C1223 C 0.54018 0.6075 0.88633 0.0
C1224 C 0.539 0.61222 0.82496 0.0
C1225 C 0.55583 0.63784 0.8245 0.0
C1226 C 0.51661 0.60861 0.83862 0.0
C1227 C 0.51088 0.63116 0.85214 0.0
C1228 C 0.52585 0.65814 0.85051 0.0
C1229 C 0.54809 0.6612 0.83666 0.0
C1230 C 0.50107 0.57959 0.83973 0.0
C1231 C 0.52029 0.68285 0.86453 0.0
H1232 H 0.42474 0.63138 0.88887 0.0
H1233 H 0.50354 0.60271 0.91649 0.0
H1234 H 0.45399 0.66491 0.85043 0.0
H1235 H 0.45216 0.62911 0.84014 0.0
H1236 H 0.42291 0.64205 0.85542 0.0
H1237 H 0.54776 0.59786 0.90017 0.0
H1238 H 0.54552 0.59212 0.87442 0.0
H1239 H 0.55259 0.62792 0.88371 0.0
H1240 H 0.54456 0.59416 0.81548 0.0
H1241 H 0.5608 0.68116 0.83639 0.0
H1242 H 0.47735 0.58277 0.84213 0.0
H1243 H 0.50968 0.56699 0.85219 0.0
H1244 H 0.50425 0.56638 0.8264 0.0
H1245 H 0.49654 0.6866 0.86629 0.0
H1246 H 0.53073 0.70354 0.8598 0.0
H1247 H 0.52918 0.67698 0.87894 0.0
C1248 C 0.14421 0.695 0.63075 0.0
C1249 C 0.15162 0.71267 0.64661 0.0
C1250 C 0.13891 0.7074 0.61244 0.0
C1251 C 0.14134 0.73805 0.61001 0.0
C1252 C 0.15005 0.7557 0.62583 0.0
C1253 C 0.15496 0.74282 0.64389 0.0
C1254 C 0.12948 0.68791 0.59597 0.0
C1255 C 0.15326 0.78845 0.6239 0.0
C1256 C 0.1508 0.7795 0.5632 0.0
C1257 C 0.12385 0.79397 0.5619 0.0
C1258 C 0.15607 0.75888 0.57781 0.0
C1259 C 0.13382 0.75243 0.59134 0.0
C1260 C 0.10561 0.76444 0.58872 0.0
C1261 C 0.10096 0.78508 0.57403 0.0
C1262 C 0.18636 0.74635 0.57992 0.0
C1263 C 0.08109 0.7578 0.60261 0.0
H1264 H 0.14132 0.67171 0.63283 0.0
H1265 H 0.16085 0.75656 0.65607 0.0
H1266 H 0.1061 0.69186 0.59278 0.0
H1267 H 0.14195 0.69302 0.58265 0.0
H1268 H 0.13237 0.66438 0.59943 0.0
H1269 H 0.16161 0.7988 0.63735 0.0
H1270 H 0.1684 0.79375 0.61189 0.0
H1271 H 0.13182 0.79836 0.6204 0.0
H1272 H 0.16856 0.78586 0.55375 0.0
H1273 H 0.07993 0.79579 0.57301 0.0
H1274 H 0.18545 0.72281 0.58364 0.0
H1275 H 0.19781 0.75779 0.59187 0.0
H1276 H 0.19942 0.74904 0.5665 0.0
H1277 H 0.08042 0.73415 0.60607 0.0
H1278 H 0.05956 0.76446 0.59672 0.0
H1279 H 0.08477 0.76983 0.61635 0.0
C1280 C 0.07671 0.39964 0.38051 0.0
C1281 C 0.06031 0.4133 0.39512 0.0
C1282 C 0.06388 0.39214 0.36265 0.0
C1283 C 0.03393 0.39811 0.35951 0.0
C1284 C 0.01769 0.41292 0.37395 0.0
C1285 C 0.03112 0.4205 0.39143 0.0
C1286 C 0.08207 0.37679 0.34755 0.0
C1287 C 0.98568 0.41973 0.37128 0.0
C1288 C 0.99262 0.40182 0.31237 0.0
C1289 C 0.97549 0.37648 0.31357 0.0
C1290 C 0.01427 0.40778 0.32619 0.0
C1291 C 0.01864 0.38807 0.34167 0.0
C1292 C 1.00369 0.36097 0.34171 0.0
C1293 C 0.98238 0.35542 0.32758 0.0
C1294 C 0.03038 0.43649 0.32525 0.0
C1295 C 1.00789 0.33915 0.35783 0.0
H1296 H 0.09927 0.39389 0.38322 0.0
H1297 H 0.01825 0.43115 0.40256 0.0
H1298 H 0.07647 0.35321 0.34737 0.0
H1299 H 0.07749 0.3856 0.33292 0.0
H1300 H 0.10578 0.37889 0.35053 0.0
H1301 H 0.97631 0.43178 0.38379 0.0
H1302 H 0.98244 0.43306 0.35807 0.0
H1303 H 0.97324 0.39913 0.36935 0.0
H1304 H 0.98782 0.41801 0.30139 0.0
H1305 H 0.96948 0.33563 0.32855 0.0
H1306 H 0.0537 0.43353 0.32905 0.0
H1307 H 0.02078 0.45193 0.33589 0.0
H1308 H 0.02893 0.44654 0.31067 0.0
H1309 H 0.03137 0.33627 0.36114 0.0
H1310 H 0.99838 0.31749 0.35419 0.0
H1311 H 0.9971 0.34742 0.37113 0.0
C1312 C 0.41486 0.67373 0.38435 0.0
C1313 C 0.3936 0.68143 0.37065 0.0
C1314 C 0.4235 0.69345 0.39889 0.0
C1315 C 0.41088 0.72168 0.39956 0.0
C1316 C 0.38841 0.72901 0.38636 0.0
C1317 C 0.37985 0.70871 0.37222 0.0
C1318 C 0.44687 0.68447 0.41305 0.0
C1319 C 0.37461 0.759 0.38637 0.0
C1320 C 0.41589 0.77576 0.44118 0.0
C1321 C 0.43727 0.7951 0.43432 0.0
C1322 C 0.40856 0.75039 0.43075 0.0
C1323 C 0.4225 0.74458 0.41286 0.0
C1324 C 0.44542 0.76301 0.40654 0.0
C1325 C 0.45273 0.78782 0.41746 0.0
C1326 C 0.38467 0.73081 0.4383 0.0
C1327 C 0.46096 0.75767 0.38759 0.0
H1328 H 0.42546 0.65263 0.38333 0.0
H1329 H 0.36346 0.71494 0.36172 0.0
H1330 H 0.46689 0.69752 0.41055 0.0
H1331 H 0.4396 0.68893 0.42808 0.0
H1332 H 0.45254 0.66094 0.41172 0.0
H1333 H 0.35663 0.76084 0.37567 0.0
H1334 H 0.36582 0.76425 0.40091 0.0
H1335 H 0.39137 0.77568 0.3829 0.0
H1336 H 0.40402 0.78105 0.45429 0.0
H1337 H 0.46941 0.80249 0.41207 0.0
H1338 H 0.39079 0.70748 0.43665 0.0
H1339 H 0.36449 0.73443 0.4298 0.0
H1340 H 0.37975 0.73523 0.45377 0.0
H1341 H 0.47052 0.73544 0.38745 0.0
H1342 H 0.47868 0.77373 0.38494 0.0
H1343 H 0.44515 0.75891 0.37547 0.0
C1344 C 0.05568 0.61667 0.1247 0.0
C1345 C 0.08285 0.63058 0.12333 0.0
C1346 C 0.03718 0.62161 0.14054 0.0
C1347 C 0.04622 0.64056 0.15562 0.0
C1348 C 0.07419 0.65361 0.15479 0.0
C1349 C 0.0921 0.64859 0.13859 0.0
C1350 C 1.00739 0.6075 0.1407 0.0
C1351 C 0.08478 0.67377 0.17059 0.0
C1352 C 0.98245 0.67332 0.18311 0.0
C1353 C 0.97856 0.65268 0.19786 0.0
C1354 C 1.00555 0.67071 0.16986 0.0
C1355 C 0.02561 0.64732 0.17172 0.0
C1356 C 0.02331 0.62811 0.18769 0.0
C1357 C 0.99954 0.63075 0.20041 0.0
C1358 C 1.00684 0.69145 0.15293 0.0
C1359 C 0.04477 0.60349 0.19055 0.0
H1360 H 0.0482 0.60286 0.11296 0.0
H1361 H 0.11311 0.65934 0.13767 0.0
H1362 H 1.00452 0.59442 0.15405 0.0
H1363 H 0.99026 0.62465 0.1407 0.0
H1364 H 1.00385 0.59302 0.12801 0.0
H1365 H 0.1086 0.6779 0.16954 0.0
H1366 H 0.0733 0.69504 0.16946 0.0
H1367 H 0.07987 0.66456 0.18507 0.0
H1368 H 0.96612 0.69014 0.1809 0.0
H1369 H 0.99662 0.6148 0.21183 0.0
H1370 H 0.99922 0.68 0.13969 0.0
H1371 H 0.02954 0.69866 0.15028 0.0
H1372 H 0.9929 0.71103 0.1552 0.0
H1373 H 0.04092 0.58631 0.1795 0.0
H1374 H 0.0427 0.59344 0.2051 0.0
H1375 H 0.06745 0.61145 0.18865 0.0
C1376 C 0.17327 0.28907 0.87263 0.0
C1377 C 0.1668 0.31864 0.86956 0.0
C1378 C 0.16706 0.27551 0.89031 0.0
C1379 C 0.15406 0.29189 0.90543 0.0
C1380 C 0.14899 0.32219 0.90285 0.0
C1381 C 0.15542 0.33525 0.8849 0.0
C1382 C 0.17305 0.24319 0.8924 0.0
C1383 C 0.13534 0.3405 0.91861 0.0
C1384 C 0.10951 0.24176 0.93726 0.0
C1385 C 0.13009 0.23377 0.95132 0.0
C1386 C 0.1161 0.26276 0.92314 0.0
C1387 C 0.14388 0.27628 0.92313 0.0
C1388 C 0.16349 0.27065 0.93849 0.0
C1389 C 0.1564 0.24941 0.9524 0.0
C1390 C 0.09434 0.26835 0.90718 0.0
C1391 C 0.19302 0.28513 0.9393 0.0
H1392 H 0.18228 0.27614 0.86091 0.0
H1393 H 0.15022 0.35809 0.88262 0.0
H1394 H 0.18638 0.23906 0.9055 0.0
H1395 H 0.15216 0.23124 0.8942 0.0
H1396 H 0.18467 0.23398 0.87967 0.0
H1397 H 0.13843 0.36424 0.91598 0.0
H1398 H 0.11158 0.33602 0.91919 0.0
H1399 H 0.14463 0.33492 0.93295 0.0
H1400 H 0.08894 0.23016 0.93642 0.0
H1401 H 0.17236 0.24372 0.96332 0.0
H1402 H 0.10218 0.25799 0.89361 0.0
H1403 H 0.09215 0.29211 0.90442 0.0
H1404 H 0.07247 0.25931 0.91063 0.0
H1405 H 0.20761 0.27492 0.9284 0.0
H1406 H 0.20331 0.28279 0.95376 0.0
H1407 H 0.19128 0.3087 0.93577 0.0
C1408 C 0.49148 0.39167 0.61234 0.0
C1409 C 0.46121 0.3893 0.61006 0.0
C1410 C 0.50536 0.38186 0.62916 0.0
C1411 C 0.48859 0.36927 0.6442 0.0
C1412 C 0.45781 0.36797 0.6424 0.0
C1413 C 0.44443 0.37805 0.62531 0.0
C1414 C 0.53822 0.38382 0.63042 0.0
C1415 C 0.43914 0.3546 0.65801 0.0
C1416 C 0.53605 0.31783 0.67309 0.0
C1417 C 0.54665 0.33658 0.68756 0.0
C1418 C 0.5149 0.32732 0.65982 0.0
C1419 C 0.50399 0.35623 0.66111 0.0
C1420 C 0.51228 0.37411 0.6769 0.0
C1421 C 0.53353 0.36409 0.68995 0.0
C1422 C 0.5063 0.30731 0.6434 0.0
C1423 C 0.50075 0.40484 0.67902 0.0
H1424 H 0.50456 0.40044 0.60064 0.0
H1425 H 0.42105 0.37583 0.62353 0.0
H1426 H 0.54475 0.39532 0.64388 0.0
H1427 H 0.5477 0.36151 0.63098 0.0
H1428 H 0.54789 0.39551 0.61789 0.0
H1429 H 0.41577 0.36046 0.65627 0.0
H1430 H 0.44107 0.33045 0.65732 0.0
H1431 H 0.44653 0.36163 0.67257 0.0
H1432 H 0.5457 0.29637 0.67123 0.0
H1433 H 0.54125 0.37864 0.70123 0.0
H1434 H 0.51638 0.31516 0.62977 0.0
H1435 H 0.48233 0.30754 0.64137 0.0
H1436 H 0.51348 0.28443 0.64589 0.0
H1437 H 0.51137 0.41912 0.66815 0.0
H1438 H 0.50517 0.41396 0.69363 0.0
H1439 H 0.47691 0.40549 0.67631 0.0
C1440 C 0.30078 0.29527 0.23805 0.0
C1441 C 0.29197 0.31701 0.22503 0.0
C1442 C 0.28014 0.27913 0.24866 0.0
C1443 C 0.25 0.28496 0.24626 0.0
C1444 C 0.24101 0.30675 0.23304 0.0
C1445 C 0.26205 0.32242 0.22258 0.0
C1446 C 0.29059 0.25598 0.26256 0.0
C1447 C 0.20912 0.31376 0.23012 0.0
C1448 C 0.19436 0.22781 0.2618 0.0
C1449 C 0.18584 0.23829 0.28005 0.0
C1450 C 0.21527 0.2427 0.25067 0.0
C1451 C 0.22783 0.26882 0.25787 0.0
C1452 C 0.21896 0.27975 0.27613 0.0
C1453 C 0.19816 0.26434 0.28699 0.0
C1454 C 0.22417 0.23032 0.23129 0.0
C1455 C 0.23161 0.30766 0.28425 0.0
H1456 H 0.32382 0.29089 0.24001 0.0
H1457 H 0.25496 0.33917 0.21257 0.0
H1458 H 0.28363 0.2616 0.27748 0.0
H1459 H 0.28058 0.23461 0.25888 0.0
H1460 H 0.31469 0.25353 0.26238 0.0
H1461 H 0.2057 0.331 0.21906 0.0
H1462 H 0.19714 0.29385 0.22557 0.0
H1463 H 0.19937 0.32124 0.24396 0.0
H1464 H 0.18508 0.20763 0.25634 0.0
H1465 H 0.19173 0.27266 0.30105 0.0
H1466 H 0.24793 0.22575 0.23121 0.0
H1467 H 0.21991 0.24654 0.21972 0.0
H1468 H 0.21233 0.20983 0.22773 0.0
H1469 H 0.25559 0.30546 0.28581 0.0
H1470 H 0.22221 0.31338 0.29858 0.0
H1471 H 0.22755 0.32601 0.27414 0.0
C1472 C 0.04375 0.98501 0.54364 0.0
C1473 C 0.05052 0.95858 0.53432 0.0
C1474 C 0.02493 1.00548 0.53515 0.0
C1475 C 0.01277 0.99961 0.51674 0.0
C1476 C 0.01965 0.97305 0.50717 0.0
C1477 C 0.03829 0.95275 0.51614 0.0
C1478 C 0.01782 0.03329 0.54598 0.0
C1479 C 1.00734 0.96613 0.48744 0.0
C1480 C 0.94278 0.03858 0.50253 0.0
C1481 C 0.9532 0.06135 0.49086 0.0
C1482 C 0.96193 0.01852 0.51114 0.0
C1483 C 0.99229 0.02097 0.50777 0.0
C1484 C 1.00299 0.044 0.49607 0.0
C1485 C 0.98333 0.06407 0.48788 0.0
C1486 C 0.94965 0.99464 0.5238 0.0
C1487 C 0.03518 0.04718 0.492 0.0
H1488 H 0.05298 0.98968 0.55774 0.0
H1489 H 0.04353 0.93245 0.50881 0.0
H1490 H 0.02416 0.05255 0.53721 0.0
H1491 H 0.99397 0.03474 0.54849 0.0
H1492 H 0.02912 0.03458 0.56016 0.0
H1493 H 0.01547 0.94497 0.48168 0.0
H1494 H 0.98319 0.96524 0.48818 0.0
H1495 H 0.01316 0.98371 0.4771 0.0
H1496 H 0.91953 0.0364 0.50498 0.0
H1497 H 0.99152 0.08147 0.47875 0.0
H1498 H 0.9595 0.99587 0.53844 0.0
H1499 H 0.95528 0.97293 0.51769 0.0
H1500 H 0.92557 0.99608 0.52527 0.0
H1501 H 0.04731 0.05001 0.50575 0.0
H1502 H 0.03998 0.06609 0.48246 0.0
H1503 H 0.04356 0.02702 0.48499 0.0
C1504 C 0.21279 0.73058 0.74052 0.0
C1505 C 0.21906 0.72071 0.72176 0.0
C1506 C 0.23199 0.74947 0.75032 0.0
C1507 C 0.25782 0.75908 0.74101 0.0
C1508 C 0.2641 0.74934 0.72203 0.0
C1509 C 0.24479 0.73015 0.7127 0.0
C1510 C 0.22469 0.75911 0.77065 0.0
C1511 C 0.29111 0.75944 0.71146 0.0
C1512 C 0.29214 0.82988 0.75869 0.0
C1513 C 0.31571 0.81972 0.76972 0.0
C1514 C 0.27336 0.81041 0.74914 0.0
C1515 C 0.27792 0.77994 0.7509 0.0
C1516 C 0.3018 0.7695 0.76192 0.0
C1517 C 0.32057 0.78953 0.77107 0.0
C1518 C 0.24854 0.82247 0.73722 0.0
C1519 C 0.3072 0.73717 0.76432 0.0
H1520 H 0.19305 0.72324 0.74765 0.0
H1521 H 0.24976 0.72276 0.69817 0.0
H1522 H 0.24279 0.75333 0.78058 0.0
H1523 H 0.22217 0.78321 0.77114 0.0
H1524 H 0.20428 0.74895 0.77609 0.0
H1525 H 0.29285 0.74983 0.69673 0.0
H1526 H 0.29095 0.7836 0.71016 0.0
H1527 H 0.31088 0.7534 0.71978 0.0
H1528 H 0.28831 0.85319 0.75751 0.0
H1529 H 0.33858 0.78153 0.77972 0.0
H1530 H 0.2274 0.81483 0.74316 0.0
H1531 H 0.25008 0.81427 0.72214 0.0
H1532 H 0.2484 0.84674 0.73692 0.0
H1533 H 0.28785 0.7267 0.77101 0.0
H1534 H 0.32658 0.73259 0.77347 0.0
H1535 H 0.31048 0.72678 0.74998 0.0
C1536 C 0.49565 0.07112 0.02365 0.0
C1537 C 0.46552 0.06692 0.02152 0.0
C1538 C 0.51573 0.0515 0.01533 0.0
C1539 C 0.50543 0.02744 1.00436 0.0
C1540 C 0.47504 0.02336 1.00197 0.0
C1541 C 0.45549 0.04298 0.01071 0.0
C1542 C 0.54795 0.05641 0.01839 0.0
C1543 C 0.46313 0.99835 0.99007 0.0
C1544 C 0.55583 0.99391 0.96675 0.0
C1545 C 0.56478 0.96797 0.97579 0.0
C1546 C 0.53662 0.01339 0.9759 0.0
C1547 C 0.52635 1.00709 0.99473 0.0
C1548 C 0.53549 0.98108 1.00406 0.0
C1549 C 0.55441 0.96167 0.9944 0.0
C1550 C 0.52704 0.04057 0.96528 0.0
C1551 C 0.52529 0.97378 0.02424 0.0
H1552 H 0.50355 0.08939 0.03215 0.0
H1553 H 0.43224 0.03963 0.00895 0.0
H1554 H 0.55792 0.03675 0.02502 0.0
H1555 H 0.55888 0.05991 1.00426 0.0
H1556 H 0.5524 0.07557 0.02783 0.0
H1557 H 0.43892 0.99825 0.98961 0.0
H1558 H 0.47151 0.99976 0.97504 0.0
H1559 H 0.47068 0.97722 0.99611 0.0
H1560 H 0.56355 0.9989 0.95231 0.0
H1561 H 0.56134 0.94175 1.00151 0.0
H1562 H 0.53299 0.06031 0.97373 0.0
H1563 H 0.50296 0.04061 0.96367 0.0
H1564 H 0.53702 0.04227 0.95068 0.0
H1565 H 0.53088 0.99187 0.03429 0.0
H1566 H 0.53517 0.95326 0.02975 0.0
H1567 H 0.50122 0.97142 0.02442 0.0
C1568 C 0.30463 0.71678 0.27087 0.0
C1569 C 0.31117 0.72412 0.2901 0.0
C1570 C 0.28154 0.73045 0.26099 0.0
C1571 C 0.26466 0.75206 0.27052 0.0
C1572 C 0.2716 0.76001 0.28978 0.0
C1573 C 0.29468 0.74593 0.29932 0.0
C1574 C 0.27484 0.72136 0.24046 0.0
C1575 C 0.25433 0.78309 0.30043 0.0
C1576 C 0.2197 0.80572 0.2409 0.0
C1577 C 0.19147 0.79406 0.24254 0.0
C1578 C 0.24371 0.79214 0.24975 0.0
C1579 C 0.23951 0.76619 0.26051 0.0
C1580 C 0.21113 0.75418 0.26212 0.0
C1581 C 0.18746 0.76826 0.25315 0.0
C1582 C 0.27357 0.80572 0.24772 0.0
C1583 C 0.20573 0.72653 0.27345 0.0
H1584 H 0.31715 0.69988 0.26364 0.0
H1585 H 0.29957 0.75184 0.31416 0.0
H1586 H 0.25247 0.71219 0.23968 0.0
H1587 H 0.27547 0.74066 0.23079 0.0
H1588 H 0.29043 0.70474 0.23492 0.0
H1589 H 0.26298 0.78732 0.31518 0.0
H1590 H 0.25459 0.80386 0.29219 0.0
H1591 H 0.23122 0.77615 0.3017 0.0
H1592 H 0.2231 0.82562 0.23274 0.0
H1593 H 0.1658 0.75902 0.25448 0.0
H1594 H 0.28896 0.78973 0.24128 0.0
H1595 H 0.28217 0.81167 0.2622 0.0
H1596 H 0.27328 0.82563 0.23856 0.0
H1597 H 0.21946 0.70855 0.26767 0.0
H1598 H 0.18253 0.7196 0.27295 0.0
H1599 H 0.21204 0.72986 0.28879 0.0
C1600 C 0.44434 0.97557 0.49992 0.0
C1601 C 0.45597 0.95128 0.49019 0.0
C1602 C 0.46251 0.99701 0.50801 0.0
C1603 C 0.49314 0.99429 0.50621 0.0
C1604 C 0.50508 0.96952 0.49675 0.0
C1605 C 0.48635 0.94822 0.48892 0.0
C1606 C 0.44889 0.02287 0.51818 0.0
C1607 C 0.53763 0.96589 0.49447 0.0
C1608 C 0.5374 0.06446 0.50983 0.0
C1609 C 0.54773 0.06323 0.52891 0.0
C1610 C 0.51996 0.04197 0.50218 0.0
C1611 C 0.51253 0.01772 0.5139 0.0
C1612 C 0.5229 0.01633 0.53316 0.0
C1613 C 0.5404 0.03903 0.5404 0.0
C1614 C 0.50938 0.04422 0.48156 0.0
C1615 C 0.51531 0.99097 0.54616 0.0
H1616 H 0.42089 0.97805 0.50106 0.0
H1617 H 0.4955 0.92961 0.48133 0.0
H1618 H 0.45766 0.02482 0.53308 0.0
H1619 H 0.45457 0.0433 0.51044 0.0
H1620 H 0.42476 0.02117 0.51901 0.0
H1621 H 0.54349 0.94498 0.48726 0.0
H1622 H 0.54653 0.9842 0.48579 0.0
H1623 H 0.5484 0.9667 0.50882 0.0
H1624 H 0.54302 0.08296 0.50081 0.0
H1625 H 0.54825 0.03783 0.55516 0.0
H1626 H 0.4852 0.04477 0.48129 0.0
H1627 H 0.51636 0.0247 0.47322 0.0
H1628 H 0.51774 0.06407 0.47417 0.0
H1629 H 0.49131 0.98964 0.54801 0.0
H1630 H 0.52553 0.99291 0.56067 0.0
H1631 H 0.52252 0.97015 0.53944 0.0
C1632 C 0.21828 0.29954 0.77551 0.0
C1633 C 0.22843 0.32335 0.7864 0.0
C1634 C 0.23759 0.28242 0.76444 0.0
C1635 C 0.26771 0.28935 0.76418 0.0
C1636 C 0.27806 0.31324 0.77523 0.0
C1637 C 0.25835 0.32988 0.78619 0.0
C1638 C 0.22574 0.25704 0.75289 0.0
C1639 C 0.30997 0.32146 0.7753 0.0
C1640 C 0.3231 0.23211 0.74818 0.0
C1641 C 0.32839 0.24032 0.72894 0.0
C1642 C 0.30321 0.24768 0.75977 0.0
C1643 C 0.2884 0.27216 0.75199 0.0
C1644 C 0.29388 0.28071 0.73266 0.0
C1645 C 0.31372 0.26468 0.72138 0.0
C1646 C 0.29793 0.23786 0.78031 0.0
C1647 C 0.27875 0.30683 0.72387 0.0
H1648 H 0.19523 0.29429 0.77562 0.0
H1649 H 0.26647 0.34822 0.79454 0.0
H1650 H 0.22998 0.26055 0.73727 0.0
H1651 H 0.23708 0.23658 0.75708 0.0
H1652 H 0.20192 0.25402 0.75503 0.0
H1653 H 0.31459 0.34037 0.78492 0.0
H1654 H 0.32334 0.30263 0.78012 0.0
H1655 H 0.31709 0.32705 0.76042 0.0
H1656 H 0.33419 0.21324 0.75412 0.0
H1657 H 0.31765 0.27123 0.70655 0.0
H1658 H 0.27447 0.23286 0.78242 0.0
H1659 H 0.30361 0.25571 0.79052 0.0
H1660 H 0.3109 0.21819 0.78411 0.0
H1661 H 0.25477 0.30374 0.7244 0.0
H1662 H 0.28532 0.31055 0.70861 0.0
H1663 H 0.28384 0.32677 0.73238 0.0
C1664 C 0.04708 0.04443 0.9728 0.0
C1665 C 0.0554 0.07075 0.98169 0.0
C1666 C 0.02878 0.02444 0.98222 0.0
C1667 C 0.01877 0.03065 1.00115 0.0
C1668 C 0.02709 0.05715 0.01026 0.0
C1669 C 0.04515 0.07702 1.00035 0.0
C1670 C 0.02006 0.9967 0.97185 0.0
C1671 C 0.01708 0.0644 0.0305 0.0
C1672 C 0.95035 0.99142 0.01816 0.0
C1673 C 0.96194 0.96814 0.02888 0.0
C1674 C 0.96857 0.01198 0.00918 0.0
C1675 C 0.99919 1.00951 0.01118 0.0
C1676 C 0.01106 0.98619 0.02211 0.0
C1677 C 0.9923 0.96565 0.03071 0.0
C1678 C 0.95504 0.03616 0.99736 0.0
C1679 C 0.04359 0.98298 0.02474 0.0
H1680 H 0.05473 0.03945 0.95833 0.0
H1681 H 0.0516 0.09723 1.00733 0.0
H1682 H 0.02733 0.97739 0.98023 0.0
H1683 H 0.99596 0.99547 0.9707 0.0
H1684 H 0.02949 0.99528 0.95708 0.0
H1685 H 0.02591 0.08561 0.0357 0.0
H1686 H 0.99292 0.06535 0.03101 0.0
H1687 H 0.02405 0.04694 0.04062 0.0
H1688 H 0.92691 0.99346 0.01663 0.0
H1689 H 1.00141 0.94787 0.03911 0.0
H1690 H 0.96282 0.03478 0.98219 0.0
H1691 H 0.96188 0.05775 1.0031 0.0
H1692 H 0.93083 0.03518 0.99737 0.0
H1693 H 0.0542 0.9796 0.01049 0.0
H1694 H 0.0493 0.96434 0.03429 0.0
H1695 H 0.05279 1.0033 0.03103 0.0
C1696 C 0.78262 0.81818 0.7437 0.0
C1697 C 0.81031 0.80823 0.73801 0.0
C1698 C 0.76353 0.80026 0.75422 0.0
C1699 C 0.7721 0.77148 0.75905 0.0
C1700 C 0.79997 0.7612 0.75328 0.0
C1701 C 0.81883 0.77977 0.74294 0.0
C1702 C 0.73422 0.81226 0.76031 0.0
C1703 C 0.80981 0.73056 0.758 0.0
C1704 C 0.73451 0.73509 0.80174 0.0
C1705 C 0.7135 0.71755 0.79259 0.0
C1706 C 0.75368 0.75265 0.791 0.0
C1707 C 0.75212 0.75249 0.77056 0.0
C1708 C 0.73101 0.73481 0.7612 0.0
C1709 C 0.71182 0.7177 0.77233 0.0
C1710 C 0.77553 0.77151 0.80157 0.0
C1711 C 0.7288 0.73388 0.73942 0.0
H1712 H 0.77585 0.84017 0.74003 0.0
H1713 H 0.84009 0.77185 0.73851 0.0
H1714 H 0.71649 0.79847 0.75433 0.0
H1715 H 0.73224 0.81164 0.7763 0.0
H1716 H 0.73083 0.83511 0.7554 0.0
H1717 H 0.83178 0.72561 0.75207 0.0
H1718 H 0.81035 0.7275 0.77391 0.0
H1719 H 0.79403 0.71449 0.75208 0.0
H1720 H 0.73593 0.73522 0.81739 0.0
H1721 H 0.6958 0.70408 0.76514 0.0
H1722 H 0.77208 0.79481 0.7978 0.0
H1723 H 0.79799 0.76567 0.79702 0.0
H1724 H 0.77392 0.76916 0.81753 0.0
H1725 H 0.72374 0.75598 0.73378 0.0
H1726 H 0.71169 0.71849 0.73435 0.0
H1727 H 0.75002 0.72718 0.7331 0.0
C1728 C 0.73621 0.23098 0.21203 0.0
C1729 C 0.71326 0.21762 0.22215 0.0
C1730 C 0.75638 0.24911 0.2215 0.0
C1731 C 0.75385 0.25379 0.24167 0.0
C1732 C 0.73089 0.24018 0.25203 0.0
C1733 C 0.71074 0.22242 0.24212 0.0
C1734 C 0.78022 0.26353 0.20984 0.0
C1735 C 0.72763 0.2444 0.27358 0.0
C1736 C 0.82103 0.28209 0.26829 0.0
C1737 C 0.81443 0.31187 0.27032 0.0
C1738 C 0.80138 0.26283 0.25921 0.0
C1739 C 0.77472 0.27369 0.25174 0.0
C1740 C 0.76819 0.30381 0.25351 0.0
C1741 C 0.788 0.32245 0.26287 0.0
C1742 C 0.80901 0.23081 0.25777 0.0
C1743 C 0.74028 0.3164 0.24546 0.0
H1744 H 0.73831 0.22752 0.19658 0.0
H1745 H 0.6932 0.21203 0.25007 0.0
H1746 H 0.77842 0.28764 0.21111 0.0
H1747 H 0.8019 0.25725 0.21561 0.0
H1748 H 0.7793 0.25751 0.19428 0.0
H1749 H 0.70924 0.23152 0.27963 0.0
H1750 H 0.74803 0.23786 0.28103 0.0
H1751 H 0.72388 0.26784 0.27688 0.0
H1752 H 0.8413 0.27371 0.27414 0.0
H1753 H 0.78276 0.34545 0.2643 0.0
H1754 H 0.80988 0.22403 0.24237 0.0
H1755 H 0.79183 0.21751 0.26485 0.0
H1756 H 0.83031 0.22572 0.26462 0.0
H1757 H 0.73897 0.31206 0.22969 0.0
H1758 H 0.73857 0.34035 0.24788 0.0
H1759 H 0.7212 0.30566 0.25229 0.0
C1760 C 0.8053 0.21984 0.7743 0.0
C1761 C 0.8003 0.21259 0.79372 0.0
C1762 C 0.78587 0.23808 0.76419 0.0
C1763 C 0.7611 0.24966 0.77381 0.0
C1764 C 0.75619 0.24268 0.79347 0.0
C1765 C 0.7757 0.22412 0.80312 0.0
C1766 C 0.79172 0.24482 0.74318 0.0
C1767 C 0.73034 0.25491 0.80436 0.0
C1768 C 0.72616 0.31866 0.75383 0.0
C1769 C 0.7014 0.30762 0.7444 0.0
C1770 C 0.74568 0.30007 0.76347 0.0
C1771 C 0.74058 0.26957 0.76349 0.0
C1772 C 0.71558 0.25825 0.75403 0.0
C1773 C 0.69617 0.27743 0.74471 0.0
C1774 C 0.77177 0.3131 0.77364 0.0
C1775 C 0.70952 0.22583 0.7536 0.0
H1776 H 0.82415 0.21088 0.7669 0.0
H1777 H 0.77171 0.21877 0.81816 0.0
H1778 H 0.77282 0.238 0.73423 0.0
H1779 H 0.79443 0.26872 0.74121 0.0
H1780 H 0.81158 0.23364 0.73768 0.0
H1781 H 0.72972 0.24751 0.81965 0.0
H1782 H 0.73104 0.27915 0.80417 0.0
H1783 H 0.70977 0.24817 0.7972 0.0
H1784 H 0.73033 0.34198 0.75372 0.0
H1785 H 0.67722 0.26871 0.73732 0.0
H1786 H 0.79218 0.30401 0.76746 0.0
H1787 H 0.77133 0.3072 0.7892 0.0
H1788 H 0.77248 0.33729 0.77241 0.0
H1789 H 0.7282 0.21412 0.74695 0.0
H1790 H 0.68944 0.22046 0.74534 0.0
H1791 H 0.70708 0.21746 0.76856 0.0
C1792 C 0.70776 0.78615 0.27674 0.0
C1793 C 0.71481 0.81547 0.28034 0.0
C1794 C 0.72748 0.76753 0.26713 0.0
C1795 C 0.75461 0.77867 0.26063 0.0
C1796 C 0.76162 0.80836 0.26402 0.0
C1797 C 0.74178 0.82629 0.27398 0.0
C1798 C 0.71938 0.73589 0.26405 0.0
C1799 C 0.79 0.82129 0.25698 0.0
C1800 C 0.81776 0.72707 0.2494 0.0
C1801 C 0.81545 0.72408 0.22927 0.0
C1802 C 0.79783 0.74439 0.25985 0.0
C1803 C 0.77545 0.75952 0.24989 0.0
C1804 C 0.77331 0.75686 0.22953 0.0
C1805 C 0.79313 0.73899 0.21952 0.0
C1806 C 0.80058 0.74632 0.28157 0.0
C1807 C 0.75019 0.77309 0.21829 0.0
H1808 H 0.68705 0.7776 0.28174 0.0
H1809 H 0.74732 0.84898 0.2766 0.0
H1810 H 0.71866 0.73091 0.24835 0.0
H1811 H 0.73622 0.72152 0.27054 0.0
H1812 H 0.69787 0.7304 0.27049 0.0
H1813 H 0.79203 0.84486 0.2606 0.0
H1814 H 0.80867 0.80945 0.26348 0.0
H1815 H 0.79173 0.81872 0.24105 0.0
H1816 H 0.83482 0.71545 0.25704 0.0
H1817 H 0.79129 0.73693 0.20395 0.0
H1818 H 0.7799 0.73931 0.28849 0.0
H1819 H 0.80453 0.7693 0.28598 0.0
H1820 H 0.81863 0.73257 0.28721 0.0
H1821 H 0.7282 0.7665 0.22334 0.0
H1822 H 0.75168 0.76895 0.20248 0.0
H1823 H 0.7523 0.79694 0.22088 0.0
C1824 C 0.53965 0.45713 0.01959 0.0
C1825 C 0.55533 0.46542 0.03611 0.0
C1826 C 0.52031 0.47673 0.01054 0.0
C1827 C 0.51612 0.50504 0.01845 0.0
C1828 C 0.53186 0.51343 0.03516 0.0
C1829 C 0.55143 0.49367 0.04365 0.0
C1830 C 0.50431 0.46712 0.99255 0.0
C1831 C 0.52763 0.54314 0.04431 0.0
C1832 C 0.4832 0.56568 0.98762 0.0
C1833 C 0.45371 0.56441 0.99296 0.0
C1834 C 0.50372 0.5463 0.99563 0.0
C1835 C 0.49465 0.52563 0.00965 0.0
C1836 C 0.46504 0.52484 0.01546 0.0
C1837 C 0.4449 0.54399 1.00689 0.0
C1838 C 0.53497 0.54754 0.98882 0.0
C1839 C 0.45458 0.50367 0.03069 0.0
H1840 H 0.54265 0.43541 0.01364 0.0
H1841 H 0.56329 0.50022 0.0565 0.0
H1842 H 0.48047 0.46699 0.99531 0.0
H1843 H 0.50837 0.48283 0.98064 0.0
H1844 H 0.51101 0.44496 0.98769 0.0
H1845 H 0.54161 0.54634 0.05726 0.0
H1846 H 0.53267 0.56056 0.0337 0.0
H1847 H 0.50449 0.54592 0.04866 0.0
H1848 H 0.49007 0.58117 0.97669 0.0
H1849 H 0.42215 0.54296 0.01111 0.0
H1850 H 0.54143 0.52607 0.98268 0.0
H1851 H 0.54966 0.55202 1.00122 0.0
H1852 H 0.53846 0.56463 0.97767 0.0
H1853 H 0.45823 0.4809 0.02574 0.0
H1854 H 0.43104 0.50646 0.03404 0.0
H1855 H 0.46725 0.5067 0.04421 0.0
C1856 C 0.05035 0.46834 0.49296 0.0
C1857 C 0.03522 0.44595 0.48334 0.0
C1858 C 0.03539 0.49074 0.50278 0.0
C1859 C 1.0045 0.49107 0.50275 0.0
C1860 C 0.9891 0.46869 0.49292 0.0
C1861 C 1.00462 0.4463 0.48348 0.0
C1862 C 0.05264 0.51385 0.51338 0.0
C1863 C 0.95619 0.46838 0.49237 0.0
C1864 C 0.96342 0.53004 0.54304 0.0
C1865 C 0.95561 0.55654 0.53428 0.0
C1866 C 0.97985 0.50893 0.53309 0.0
C1867 C 0.98823 0.51409 0.5137 0.0
C1868 C 0.98059 0.54091 0.50477 0.0
C1869 C 0.96463 0.56198 0.51525 0.0
C1870 C 0.98805 0.48098 0.54334 0.0
C1871 C 0.98874 0.54706 0.48402 0.0
H1872 H 0.07399 0.46824 0.49297 0.0
H1873 H 0.99273 0.42926 0.47596 0.0
H1874 H 0.04691 0.53584 0.50783 0.0
H1875 H 0.047 0.5135 0.52899 0.0
H1876 H 0.07655 0.51067 0.51185 0.0
H1877 H 0.9475 0.45021 0.48339 0.0
H1878 H 0.94741 0.46614 0.50725 0.0
H1879 H 0.94794 0.48936 0.48651 0.0
H1880 H 0.95679 0.52578 0.55783 0.0
H1881 H 0.95854 0.58236 0.50838 0.0
H1882 H 0.01202 0.47778 0.5428 0.0
H1883 H 0.9779 0.46205 0.5359 0.0
H1884 H 0.981 0.48091 0.55871 0.0
H1885 H 0.01272 0.54554 0.48216 0.0
H1886 H 0.98144 0.56903 0.47923 0.0
H1887 H 0.97878 0.53036 0.47442 0.0
C1888 C 0.02802 0.55731 0.02794 0.0
C1889 C 0.05828 0.55272 0.02771 0.0
C1890 C 1.00887 0.53722 0.01919 0.0
C1891 C 0.02026 0.51217 0.00974 0.0
C1892 C 0.05079 0.50763 0.00929 0.0
C1893 C 0.06936 0.52782 0.01838 0.0
C1894 C 0.97644 0.54272 0.02012 0.0
C1895 C 0.06389 0.48152 0.9991 0.0
C1896 C 0.97153 0.44628 0.99952 0.0
C1897 C 0.96365 0.45109 0.98019 0.0
C1898 C 0.98958 0.46619 0.00945 0.0
C1899 C 1.00039 0.4912 0.9997 0.0
C1900 C 0.99273 0.49592 0.98013 0.0
C1901 C 0.97433 0.47598 0.97069 0.0
C1902 C 0.99699 0.46057 0.03038 0.0
C1903 C 1.00417 0.52196 0.96907 0.0
H1904 H 0.01925 0.57636 0.03524 0.0
H1905 H 0.09271 0.52411 0.01807 0.0
H1906 H 0.96754 0.5451 1.00529 0.0
H1907 H 0.96531 0.52376 0.02685 0.0
H1908 H 0.97101 0.5627 0.02853 0.0
H1909 H 0.08806 0.4811 1.0001 0.0
H1910 H 0.05521 0.46102 1.00541 0.0
H1911 H 0.05764 0.48173 0.98359 0.0
H1912 H 0.96323 0.4272 1.00698 0.0
H1913 H 0.96853 0.4798 0.95571 0.0
H1914 H 0.9902 0.47949 0.03938 0.0
H1915 H 0.02092 0.45815 0.03205 0.0
H1916 H 0.98625 0.44058 0.03603 0.0
H1917 H 0.99736 0.5425 0.97633 0.0
H1918 H 0.99628 0.5224 0.95389 0.0
H1919 H 0.02836 0.52161 0.96894 0.0
C1920 C 0.53039 0.5718 0.48909 0.0
C1921 C 0.56064 0.56776 0.49052 0.0
C1922 C 0.51085 0.55231 0.49802 0.0
C1923 C 0.52183 0.52845 0.50885 0.0
C1924 C 0.55235 0.52462 0.51063 0.0
C1925 C 0.57134 0.54418 0.50135 0.0
C1926 C 0.47847 0.55701 0.49565 0.0
C1927 C 0.56498 0.49977 0.52228 0.0
C1928 C 0.47316 0.49321 0.54678 0.0
C1929 C 0.46427 0.46741 0.53747 0.0
C1930 C 0.49174 0.51326 0.53761 0.0
C1931 C 0.50149 0.50763 0.51854 0.0
C1932 C 0.49241 0.48177 0.50897 0.0
C1933 C 0.47406 0.46187 0.51859 0.0
C1934 C 0.5012 0.54033 0.54844 0.0
C1935 C 0.50212 0.47511 0.48856 0.0
H1936 H 0.52195 0.58982 0.48062 0.0
H1937 H 0.59468 0.54093 0.5026 0.0
H1938 H 0.46845 0.5375 0.4888 0.0
H1939 H 0.46806 0.55983 0.51002 0.0
H1940 H 0.47343 0.57647 0.48666 0.0
H1941 H 0.5892 0.50012 0.52252 0.0
H1942 H 0.55689 0.50088 0.53739 0.0
H1943 H 0.55772 0.47856 0.51617 0.0
H1944 H 0.46582 0.49766 0.5614 0.0
H1945 H 0.46719 0.44209 0.51125 0.0
H1946 H 0.4948 0.56016 0.54028 0.0
H1947 H 0.52531 0.54065 0.5498 0.0
H1948 H 0.49154 0.5416 0.56316 0.0
H1949 H 0.49595 0.49333 0.47882 0.0
H1950 H 0.4924 0.45456 0.48291 0.0
H1951 H 0.52621 0.47311 0.48805 0.0
C1952 C 0.10618 0.06643 0.26996 0.0
C1953 C 0.12896 0.08171 0.27899 0.0
C1954 C 0.1105 0.03836 0.26228 0.0
C1955 C 0.13842 0.02527 0.26338 0.0
C1956 C 0.16162 0.04062 0.27236 0.0
C1957 C 0.15656 0.06859 0.2802 0.0
C1958 C 0.08503 0.0226 0.25315 0.0
C1959 C 0.19176 0.02752 0.27361 0.0
C1960 C 0.13968 0.94243 0.26017 0.0
C1961 C 0.14554 0.93771 0.24048 0.0
C1962 C 0.13807 0.97076 0.26789 0.0
C1963 C 0.14282 0.9951 0.2557 0.0
C1964 C 0.14975 0.99052 0.23594 0.0
C1965 C 0.15082 0.96187 0.22852 0.0
C1966 C 0.13022 0.97464 0.28896 0.0
C1967 C 0.15535 0.0159 0.22254 0.0
H1968 H 0.08475 0.07632 0.26902 0.0
H1969 H 0.17431 0.08035 0.28702 0.0
H1970 H 0.09016 0.01703 0.2379 0.0
H1971 H 0.08093 1.00176 0.26087 0.0
H1972 H 0.06472 0.03583 0.25343 0.0
H1973 H 0.20767 0.04262 0.28048 0.0
H1974 H 0.19106 1.007 0.28211 0.0
H1975 H 0.19971 0.0218 0.25892 0.0
H1976 H 0.13554 0.92394 0.26955 0.0
H1977 H 0.15553 0.95842 0.21332 0.0
H1978 H 0.10899 0.98616 0.29017 0.0
H1979 H 0.14676 0.98837 0.29635 0.0
H1980 H 0.12854 0.95347 0.29671 0.0
H1981 H 0.13506 0.02884 0.22077 0.0
H1982 H 0.16286 1.00866 0.20802 0.0
H1983 H 0.17203 0.03067 0.22884 0.0
C1984 C 0.22682 0.89013 0.54854 0.0
C1985 C 0.19968 0.89525 0.53983 0.0
C1986 C 0.25251 0.88891 0.53744 0.0
C1987 C 0.251 0.89269 0.51712 0.0
C1988 C 0.22386 0.89906 0.50837 0.0
C1989 C 0.19859 0.90038 0.51982 0.0
C1990 C 0.2811 0.88242 0.54736 0.0
C1991 C 0.22125 0.90313 0.48676 0.0
C1992 C 0.32101 0.90552 0.48858 0.0
C1993 C 0.32772 0.87714 0.48225 0.0
C1994 C 0.2961 0.91101 0.49992 0.0
C1995 C 0.27731 0.88761 0.50486 0.0
C1996 C 0.28364 0.85906 0.49812 0.0
C1997 C 0.30879 0.85417 0.48699 0.0
C1998 C 0.29018 0.94171 0.50692 0.0
C1999 C 0.264 0.83356 0.50285 0.0
H2000 H 0.22795 0.88628 0.56399 0.0
H2001 H 0.17777 0.90445 0.5129 0.0
H2002 H 0.28902 0.86052 0.54287 0.0
H2003 H 0.29789 0.89855 0.54297 0.0
H2004 H 0.27908 0.88277 0.56337 0.0
H2005 H 0.19905 0.91024 0.48239 0.0
H2006 H 0.23726 0.91954 0.48163 0.0
H2007 H 0.2263 0.88223 0.47932 0.0
H2008 H 0.33561 0.92337 0.48509 0.0
H2009 H 0.31373 0.83219 0.48212 0.0
H2010 H 0.29033 0.94223 0.52297 0.0
H2011 H 0.26821 0.94888 0.50219 0.0
H2012 H 0.30656 0.95759 0.5015 0.0
H2013 H 0.26299 0.83045 0.51875 0.0
H2014 H 0.27161 0.81286 0.49611 0.0
H2015 H 0.24149 0.83808 0.4978 0.0
C2016 C 0.35862 0.07075 0.72801 0.0
C2017 C 0.37541 0.09157 0.7379 0.0
C2018 C 0.35574 0.04211 0.73514 0.0
C2019 C 0.37059 0.03398 0.75228 0.0
C2020 C 0.38729 0.05504 0.7624 0.0
C2021 C 0.38924 0.08361 0.7552 0.0
C2022 C 0.33726 0.02043 0.72416 0.0
C2023 C 0.40399 0.04715 0.78049 0.0
C2024 C 0.35243 0.96469 0.78034 0.0
C2025 C 0.37367 0.94532 0.77334 0.0
C2026 C 0.3504 0.99336 0.77311 0.0
C2027 C 0.37054 1.00301 0.75894 0.0
C2028 C 0.39189 0.98343 0.75178 0.0
C2029 C 0.39297 0.9548 0.75891 0.0
C2030 C 0.32695 0.01342 0.78079 0.0
C2031 C 0.4142 0.99297 0.73699 0.0
H2032 H 0.34769 0.07685 0.71472 0.0
H2033 H 0.40236 0.09954 0.76289 0.0
H2034 H 0.35131 1.00294 0.71807 0.0
H2035 H 0.32145 1.00982 0.73406 0.0
H2036 H 0.32507 0.03082 0.71211 0.0
H2037 H 0.41524 0.0663 0.78698 0.0
H2038 H 0.38906 0.03772 0.79144 0.0
H2039 H 0.42056 0.03024 0.77703 0.0
H2040 H 0.33734 0.9574 0.7914 0.0
H2041 H 0.40958 0.94003 0.75351 0.0
H2042 H 0.31435 0.02292 0.76863 0.0
H2043 H 0.33706 0.03185 0.78878 0.0
H2044 H 0.31164 1.00196 0.79066 0.0
H2045 H 0.40315 1.00129 0.72385 0.0
H2046 H 0.42909 0.97494 0.7327 0.0
H2047 H 0.42748 0.01115 0.74295 0.0
C2048 C 0.30103 0.14763 0.04103 0.0
C2049 C 0.326 0.13081 0.03729 0.0
C2050 C 0.27693 0.14691 0.02847 0.0
C2051 C 0.27767 0.12874 0.01186 0.0
C2052 C 0.30238 0.11095 0.00837 0.0
C2053 C 0.32627 0.11228 0.02107 0.0
C2054 C 0.25102 0.16628 0.03269 0.0
C2055 C 0.30389 0.09102 0.99097 0.0
C2056 C 0.20455 0.11283 0.98804 0.0
C2057 C 0.20402 0.13347 0.97303 0.0
C2058 C 0.22874 0.11039 1.00041 0.0
C2059 C 0.25294 0.12919 0.99783 0.0
C2060 C 0.25297 0.14937 0.98231 0.0
C2061 C 0.22858 0.15117 0.97005 0.0
C2062 C 0.228 0.08833 0.01661 0.0
C2063 C 0.27831 0.16985 0.97908 0.0
H2064 H 0.30061 0.16208 0.05346 0.0
H2065 H 0.34541 0.0991 0.01809 0.0
H2066 H 0.24818 0.18228 0.0208 0.0
H2067 H 0.23082 0.153 0.03341 0.0
H2068 H 0.25345 0.17846 0.04651 0.0
H2069 H 0.32386 0.07728 0.99095 0.0
H2070 H 0.28453 0.07651 0.99056 0.0
H2071 H 0.30361 0.10424 0.97754 0.0
H2072 H 0.18574 0.09895 0.99042 0.0
H2073 H 0.22838 0.16724 0.95855 0.0
H2074 H 0.22772 0.09984 0.03074 0.0
H2075 H 0.24791 0.07456 0.01626 0.0
H2076 H 0.20858 0.07388 0.01579 0.0
H2077 H 0.28062 0.18466 0.99171 0.0
H2078 H 0.27555 0.18335 0.96587 0.0
H2079 H 0.29891 0.15728 0.97779 0.0
C2080 C 0.84804 0.0547 0.78473 0.0
C2081 C 0.85918 0.07932 0.77518 0.0
C2082 C 0.84542 0.02767 0.7751 0.0
C2083 C 0.85436 0.02518 0.75553 0.0
C2084 C 0.86521 0.05006 0.74578 0.0
C2085 C 0.86738 0.07677 0.75568 0.0
C2086 C 0.83355 1.00167 0.78595 0.0
C2087 C 0.87516 0.04836 0.72497 0.0
C2088 C 0.87812 0.95126 0.73585 0.0
C2089 C 0.85394 0.9429 0.72467 0.0
C2090 C 0.87832 0.97772 0.74615 0.0
C2091 C 0.85369 0.99634 0.74541 0.0
C2092 C 0.82909 0.98796 0.73432 0.0
C2093 C 0.82954 0.9614 0.72403 0.0
C2094 C 0.90512 0.98594 0.75764 0.0
C2095 C 0.80236 1.00716 0.73322 0.0
H2096 H 0.84156 0.05646 0.79976 0.0
H2097 H 0.87601 0.09561 0.74813 0.0
H2098 H 0.81496 0.99198 0.77792 0.0
H2099 H 0.85062 0.98458 0.78709 0.0
H2100 H 0.82612 1.00753 0.80075 0.0
H2101 H 0.88223 0.06991 0.71928 0.0
H2102 H 0.89366 0.03283 0.7237 0.0
H2103 H 0.85729 0.03994 0.71571 0.0
H2104 H 0.8971 0.93717 0.73646 0.0
H2105 H 0.8107 0.95508 0.71554 0.0
H2106 H 0.89917 0.9899 0.77297 0.0
H2107 H 0.91447 1.00656 0.75193 0.0
H2108 H 0.92221 0.96875 0.7571 0.0
H2109 H 0.79407 0.01181 0.74799 0.0
H2110 H 0.78459 0.997 0.72462 0.0
H2111 H 0.80811 0.02842 0.72656 0.0
C2112 C 0.69123 0.12486 0.51262 0.0
C2113 C 0.68593 0.11062 0.53023 0.0
C2114 C 0.71926 0.12573 0.50454 0.0
C2115 C 0.74257 0.11157 0.51411 0.0
C2116 C 0.73722 0.09627 0.53156 0.0
C2117 C 0.70898 0.09621 0.53952 0.0
C2118 C 0.72411 0.1427 0.4861 0.0
C2119 C 0.76143 0.08049 0.542 0.0
C2120 C 0.81137 0.09941 0.48427 0.0
C2121 C 0.82891 0.1227 0.49047 0.0
C2122 C 0.78352 0.0949 0.49227 0.0
C2123 C 0.7728 0.11453 0.50647 0.0
C2124 C 0.79049 0.13803 0.51277 0.0
C2125 C 0.8184 0.14164 0.50485 0.0
C2126 C 0.7655 0.06929 0.48545 0.0
C2127 C 0.77968 0.1598 0.52759 0.0
H2128 H 0.67357 0.13614 0.50536 0.0
H2129 H 0.705 0.08499 0.55306 0.0
H2130 H 0.73925 0.16115 0.4889 0.0
H2131 H 0.73444 0.12855 0.475 0.0
H2132 H 0.7035 0.15163 0.48009 0.0
H2133 H 0.75325 0.0676 0.55447 0.0
H2134 H 0.773 0.06557 0.53191 0.0
H2135 H 0.77765 0.09653 0.5474 0.0
H2136 H 0.81951 0.08457 0.47328 0.0
H2137 H 0.83178 0.15978 0.50964 0.0
H2138 H 0.74549 0.07728 0.47815 0.0
H2139 H 0.75843 0.05598 0.498 0.0
H2140 H 0.77765 0.05504 0.47522 0.0
H2141 H 0.75984 0.17093 0.52208 0.0
H2142 H 0.79628 0.17667 0.5311 0.0
H2143 H 0.77349 0.14839 0.54112 0.0
C2144 C 0.69195 0.06981 0.24281 0.0
C2145 C 0.66926 0.07846 0.23047 0.0
C2146 C 0.69182 0.04218 0.25167 0.0
C2147 C 0.6682 0.02288 0.24836 0.0
C2148 C 0.64538 0.03138 0.23577 0.0
C2149 C 0.64629 0.05894 0.22686 0.0
C2150 C 0.71684 0.03374 0.26471 0.0
C2151 C 0.61966 0.01157 0.23198 0.0
C2152 C 0.67592 0.94125 0.25714 0.0
C2153 C 0.66232 0.93791 0.27519 0.0
C2154 C 0.67877 0.96887 0.24853 0.0
C2155 C 0.66727 0.99377 0.25803 0.0
C2156 C 0.65398 0.99062 0.27643 0.0
C2157 C 0.65188 0.96274 0.28487 0.0
C2158 C 0.69359 0.97131 0.22909 0.0
C2159 C 0.64116 0.01658 0.28693 0.0
H2160 H 0.70981 0.08473 0.24564 0.0
H2161 H 0.62855 0.0655 0.21746 0.0
H2162 H 0.7087 0.0299 0.2796 0.0
H2163 H 0.72679 0.013 0.2596 0.0
H2164 H 0.73404 0.05081 0.26527 0.0
H2165 H 0.60361 0.02149 0.22191 0.0
H2166 H 0.62725 0.99056 0.22574 0.0
H2167 H 0.60845 1.00649 0.2458 0.0
H2168 H 0.68425 0.92217 0.24963 0.0
H2169 H 0.64121 0.96028 0.29877 0.0
H2170 H 0.7113 0.9878 0.22974 0.0
H2171 H 0.67769 0.97885 0.21809 0.0
H2172 H 0.70299 0.95018 0.2242 0.0
H2173 H 0.65797 0.03376 0.28887 0.0
H2174 H 0.63229 1.01063 0.30135 0.0
H2175 H 0.62333 0.0262 0.27815 0.0
C2176 C 0.71944 0.91707 0.97741 0.0
C2177 C 0.69976 0.89581 0.98397 0.0
C2178 C 0.74748 0.91953 0.98553 0.0
C2179 C 0.75611 0.90006 1.00039 0.0
C2180 C 0.73625 0.87872 1.00712 0.0
C2181 C 0.70835 0.87696 0.99892 0.0
C2182 C 0.76798 0.94274 0.9781 0.0
C2183 C 0.74464 0.85731 0.02277 0.0
C2184 C 0.8361 0.88233 0.00822 0.0
C2185 C 0.84234 0.89767 0.02533 0.0
C2186 C 0.80838 0.88358 0.9997 0.0
C2187 C 0.78631 0.90084 0.00835 0.0
C2188 C 0.79266 0.91709 0.0253 0.0
C2189 C 0.82057 0.91517 0.03367 0.0
C2190 C 0.80245 0.86564 0.98176 0.0
C2191 C 0.76979 0.93598 0.03483 0.0
H2192 H 0.71292 0.93182 0.96595 0.0
H2193 H 0.69336 0.86042 1.00409 0.0
H2194 H 0.77593 0.95641 0.99028 0.0
H2195 H 0.78735 0.93232 0.97138 0.0
H2196 H 0.75747 0.95716 0.96723 0.0
H2197 H 0.72643 0.84244 0.02668 0.0
H2198 H 0.76341 0.84388 0.01787 0.0
H2199 H 0.75164 0.86923 0.03596 0.0
H2200 H 0.85276 0.86875 1.00164 0.0
H2201 H 0.82527 0.92726 0.0468 0.0
H2202 H 0.79371 0.87976 0.9701 0.0
H2203 H 0.78565 0.84888 0.98496 0.0
H2204 H 0.82232 0.85443 0.97631 0.0
H2205 H 0.76006 0.95111 0.0241 0.0
H2206 H 0.7788 0.94901 0.04701 0.0
H2207 H 0.75191 0.92205 0.04045 0.0
C2208 C 0.6162 0.44899 0.74949 0.0
C2209 C 0.63713 0.43502 0.73792 0.0
C2210 C 0.62127 0.47684 0.75727 0.0
C2211 C 0.64814 0.49103 0.75363 0.0
C2212 C 0.66954 0.47696 0.74212 0.0
C2213 C 0.6637 0.44918 0.73426 0.0
C2214 C 0.59766 0.49124 0.76921 0.0
C2215 C 0.69858 0.49125 0.73813 0.0
C2216 C 0.64627 0.57359 0.75861 0.0
C2217 C 0.65592 0.57767 0.77769 0.0
C2218 C 0.64458 0.54559 0.75039 0.0
C2219 C 0.65313 0.52101 0.7614 0.0
C2220 C 0.66415 0.52506 0.78036 0.0
C2221 C 0.66522 0.55334 0.78835 0.0
C2222 C 0.63238 0.54224 0.73021 0.0
C2223 C 0.67389 0.49942 0.79245 0.0
H2224 H 0.59557 0.43826 0.75234 0.0
H2225 H 0.68006 0.43841 0.72545 0.0
H2226 H 0.60605 0.49643 0.78386 0.0
H2227 H 0.59107 0.51218 0.76242 0.0
H2228 H 0.57801 0.47723 0.77072 0.0
H2229 H 0.71329 0.47701 0.72949 0.0
H2230 H 0.69523 0.51201 0.73017 0.0
H2231 H 0.70954 0.49681 0.75196 0.0
H2232 H 0.63904 0.59222 0.75023 0.0
H2233 H 0.67289 0.55631 0.80305 0.0
H2234 H 0.61145 0.53012 0.73083 0.0
H2235 H 0.64752 0.52933 0.72106 0.0
H2236 H 0.62843 0.56364 0.72312 0.0
H2237 H 0.65477 0.48568 0.79616 0.0
H2238 H 0.68463 0.50644 0.80609 0.0
H2239 H 0.68929 0.48552 0.78413 0.0
C2240 C 0.82421 0.37914 0.01029 0.0
C2241 C 0.83014 0.38958 0.99162 0.0
C2242 C 0.79599 0.3803 0.0181 0.0
C2243 C 0.77306 0.39257 1.00709 0.0
C2244 C 0.77902 0.40403 0.98847 0.0
C2245 C 0.80746 0.4022 0.98088 0.0
C2246 C 0.79055 0.36743 0.03788 0.0
C2247 C 0.75522 0.41766 0.97641 0.0
C2248 C 0.6968 0.36502 0.01829 0.0
C2249 C 0.6859 0.38693 0.03055 0.0
C2250 C 0.72492 0.36683 0.0104 0.0
C2251 C 0.74258 0.3914 0.01461 0.0
C2252 C 0.73157 0.41389 0.0267 0.0
C2253 C 0.70342 0.41128 0.03467 0.0
C2254 C 0.73595 0.34212 0.99784 0.0
C2255 C 0.7496 0.44058 0.03132 0.0
H2256 H 0.84154 0.36931 0.01872 0.0
H2257 H 0.81189 0.41048 0.9665 0.0
H2258 H 0.78001 0.38382 0.04743 0.0
H2259 H 0.7754 0.34862 0.03663 0.0
H2260 H 0.81096 0.3598 0.04491 0.0
H2261 H 0.76383 0.42776 0.96297 0.0
H2262 H 0.73897 0.40077 0.97236 0.0
H2263 H 0.74356 0.43463 0.98491 0.0
H2264 H 0.68347 0.34607 0.01506 0.0
H2265 H 0.69507 0.4284 0.044 0.0
H2266 H 0.75555 0.33216 1.00455 0.0
H2267 H 0.74256 0.35058 0.98347 0.0
H2268 H 0.71931 0.32478 0.9957 0.0
H2269 H 0.76942 0.4341 0.03944 0.0
H2270 H 0.73733 0.45686 0.04006 0.0
H2271 H 0.75699 0.45116 0.01774 0.0
C2272 C 0.89039 0.44539 0.25377 0.0
C2273 C 0.87436 0.43649 0.27001 0.0
C2274 C 0.88959 0.47442 0.24732 0.0
C2275 C 0.87176 0.49498 0.25706 0.0
C2276 C 0.85465 0.48589 0.27303 0.0
C2277 C 0.85645 0.45681 0.27949 0.0
C2278 C 0.90871 0.4833 0.23053 0.0
C2279 C 0.83487 0.50702 0.2835 0.0
C2280 C 0.89513 0.5744 0.25399 0.0
C2281 C 0.8779 0.58486 0.23875 0.0
C2282 C 0.89306 0.54533 0.26021 0.0
C2283 C 0.87274 0.52633 0.25129 0.0
C2284 C 0.85465 0.53697 0.23625 0.0
C2285 C 0.85772 0.56604 0.22996 0.0
C2286 C 0.91327 0.53473 0.27596 0.0
C2287 C 0.83227 0.51756 0.22669 0.0
H2288 H 0.90442 0.42985 0.24643 0.0
H2289 H 0.84385 0.44997 0.29196 0.0
H2290 H 0.89537 0.49356 0.21902 0.0
H2291 H 0.92482 0.49983 0.23542 0.0
H2292 H 0.9207 0.46449 0.22419 0.0
H2293 H 0.82099 0.49595 0.29444 0.0
H2294 H 0.84813 0.52392 0.29093 0.0
H2295 H 0.82056 0.51846 0.27302 0.0
H2296 H 0.91091 0.58878 0.26077 0.0
H2297 H 0.8442 0.5741 0.21827 0.0
H2298 H 0.92718 0.51677 0.27033 0.0
H2299 H 0.90046 0.52577 0.2882 0.0
H2300 H 0.92764 0.55236 0.28155 0.0
H2301 H 0.84335 0.49954 0.21885 0.0
H2302 H 0.81841 0.52972 0.21627 0.0
H2303 H 0.81802 0.50745 0.23779 0.0
C2304 C 0.69321 0.6528 0.50336 0.0
C2305 C 0.68451 0.63448 0.48812 0.0
C2306 C 0.72115 0.65066 0.5115 0.0
C2307 C 0.74093 0.62942 0.50441 0.0
C2308 C 0.73208 0.61033 0.48935 0.0
C2309 C 0.70403 0.6132 0.48129 0.0
C2310 C 0.72978 0.6717 0.52736 0.0
C2311 C 0.75242 0.58721 0.48154 0.0
C2312 C 0.82129 0.64686 0.51093 0.0
C2313 C 0.82841 0.63099 0.52763 0.0
C2314 C 0.79312 0.64604 0.50306 0.0
C2315 C 0.77141 0.62867 0.51195 0.0
C2316 C 0.77856 0.61202 0.52857 0.0
C2317 C 0.80695 0.6135 0.53628 0.0
C2318 C 0.7864 0.66439 0.48547 0.0
C2319 C 0.75609 0.593 0.53834 0.0
H2320 H 0.67833 0.66933 0.50875 0.0
H2321 H 0.69742 0.59881 0.46962 0.0
H2322 H 0.73737 0.65951 0.54026 0.0
H2323 H 0.7482 0.6855 0.52238 0.0
H2324 H 0.71151 0.68623 0.53174 0.0
H2325 H 0.74159 0.57276 0.4708 0.0
H2326 H 0.77146 0.59774 0.47452 0.0
H2327 H 0.76091 0.57358 0.49354 0.0
H2328 H 0.83767 0.66046 0.5041 0.0
H2329 H 0.81229 0.60103 0.54912 0.0
H2330 H 0.76945 0.68082 0.48911 0.0
H2331 H 0.77754 0.65046 0.47372 0.0
H2332 H 0.80594 0.67604 0.47992 0.0
H2333 H 0.73829 0.60681 0.54424 0.0
H2334 H 0.76554 0.57997 0.55034 0.0
H2335 H 0.74614 0.57785 0.52767 0.0
C2336 C 0.36839 0.55794 0.2849 0.0
C2337 C 0.34699 0.579 0.28089 0.0
C2338 C 0.36802 0.53051 0.27574 0.0
C2339 C 0.34554 0.52381 0.2624 0.0
C2340 C 0.3235 0.5447 0.25864 0.0
C2341 C 0.32456 0.57207 0.26785 0.0
C2342 C 0.392 0.50888 0.28008 0.0
C2343 C 0.29895 0.53825 0.24472 0.0
C2344 C 0.36031 0.46357 0.22558 0.0
C2345 C 0.34719 0.43936 0.23444 0.0
C2346 C 0.35964 0.49128 0.2344 0.0
C2347 C 0.3452 0.49493 0.25237 0.0
C2348 C 0.33113 0.47076 0.26106 0.0
C2349 C 0.33245 0.44327 0.25205 0.0
C2350 C 0.37506 0.51648 0.22474 0.0
C2351 C 0.31515 0.4738 0.28006 0.0
H2352 H 0.38588 0.56313 0.29486 0.0
H2353 H 0.30789 0.58817 0.2647 0.0
H2354 H 0.38253 0.48827 0.28571 0.0
H2355 H 0.40394 0.50339 0.26659 0.0
H2356 H 0.40786 0.5174 0.29085 0.0
H2357 H 0.28302 0.55649 0.24382 0.0
H2358 H 0.3079 0.5341 0.23006 0.0
H2359 H 0.28723 0.51818 0.24925 0.0
H2360 H 0.37186 0.4607 0.21202 0.0
H2361 H 0.32209 0.42472 0.25894 0.0
H2362 H 0.39282 0.52458 0.23423 0.0
H2363 H 0.35968 0.53488 0.22251 0.0
H2364 H 0.38459 0.51026 0.21054 0.0
H2365 H 0.33072 0.48006 0.29163 0.0
H2366 H 0.30407 0.45324 0.2844 0.0
H2367 H 0.29861 0.49143 0.27909 0.0
C2368 C 0.31976 0.63618 1.00688 0.0
C2369 C 0.32722 0.62092 0.98995 0.0
C2370 C 0.29151 0.63482 0.01461 0.0
C2371 C 0.2701 0.61747 1.00535 0.0
C2372 C 0.27768 0.60123 0.9886 0.0
C2373 C 0.30612 0.60329 0.98102 0.0
C2374 C 0.28432 0.65277 0.03235 0.0
C2375 C 0.25557 0.5822 0.97846 0.0
C2376 C 0.20178 0.6016 0.035 0.0
C2377 C 0.18248 0.62295 0.02807 0.0
C2378 C 0.23009 0.59883 0.02729 0.0
C2379 C 0.23941 0.61812 0.01251 0.0
C2380 C 0.21986 0.63943 1.00532 0.0
C2381 C 0.19167 0.64147 0.01309 0.0
C2382 C 0.25018 0.57561 0.03518 0.0
C2383 C 0.22899 0.66069 0.98976 0.0
H2384 H 0.33586 0.64988 0.01393 0.0
H2385 H 0.31173 0.59129 0.96801 0.0
H2386 H 0.26759 0.66939 0.02868 0.0
H2387 H 0.27498 0.63863 0.0438 0.0
H2388 H 0.30373 0.66417 0.03831 0.0
H2389 H 0.26547 0.5691 0.96661 0.0
H2390 H 0.24514 0.56712 0.98894 0.0
H2391 H 0.23806 0.59604 0.97226 0.0
H2392 H 0.1948 0.58707 0.04646 0.0
H2393 H 0.17696 0.65805 0.00763 0.0
H2394 H 0.26898 0.58604 0.04254 0.0
H2395 H 0.25905 0.56214 0.02318 0.0
H2396 H 0.239 0.56101 0.04564 0.0
H2397 H 0.24731 0.67436 0.99507 0.0
H2398 H 0.21089 0.67534 0.98529 0.0
H2399 H 0.23691 0.64867 0.97684 0.0
C2400 C 0.14028 0.45357 0.7649 0.0
C2401 C 0.15932 0.44571 0.7799 0.0
C2402 C 0.14156 0.48132 0.75639 0.0
C2403 C 0.16279 0.50162 0.76274 0.0
C2404 C 0.18262 0.49358 0.77752 0.0
C2405 C 0.18044 0.46579 0.78609 0.0
C2406 C 0.1196 0.48917 0.74096 0.0
C2407 C 0.20589 0.51445 0.78441 0.0
C2408 C 0.1756 0.56589 0.72885 0.0
C2409 C 0.15854 0.58769 0.73755 0.0
C2410 C 0.17822 0.53806 0.7373 0.0
C2411 C 0.1629 0.53176 0.75461 0.0
C2412 C 0.14596 0.55384 0.76355 0.0
C2413 C 0.14423 0.58157 0.75502 0.0
C2414 C 0.19693 0.51524 0.72754 0.0
C2415 C 0.1288 0.54791 0.78179 0.0
H2416 H 0.1238 0.43823 0.76009 0.0
H2417 H 0.19535 0.45975 0.79757 0.0
H2418 H 0.10616 0.50793 0.7459 0.0
H2419 H 0.13097 0.49604 0.72756 0.0
H2420 H 0.10484 0.47069 0.7374 0.0
H2421 H 0.22094 0.50415 0.79499 0.0
H2422 H 0.21881 0.52252 0.77194 0.0
H2423 H 0.1956 0.53375 0.79134 0.0
H2424 H 0.18689 0.57056 0.71543 0.0
H2425 H 0.1309 0.59824 0.76182 0.0
H2426 H 0.183 0.49715 0.72218 0.0
H2427 H 0.21251 0.50572 0.73807 0.0
H2428 H 0.2094 0.5243 0.71515 0.0
H2429 H 0.1123 0.53069 0.77896 0.0
H2430 H 0.11741 0.5677 0.78726 0.0
H2431 H 0.14345 0.53966 0.79331 0.0
C2432 C 0.20641 0.41728 0.47688 0.0
C2433 C 0.18523 0.39902 0.48509 0.0
C2434 C 0.23471 0.41886 0.48468 0.0
C2435 C 0.24214 0.40127 0.50079 0.0
C2436 C 0.22078 0.38287 0.50915 0.0
C2437 C 0.19256 0.3822 0.50133 0.0
C2438 C 0.25672 0.43915 0.47559 0.0
C2439 C 0.22794 0.36329 0.52606 0.0
C2440 C 0.32145 0.37988 0.50793 0.0
C2441 C 0.32969 0.39741 0.52368 0.0
C2442 C 0.29314 0.38111 0.5003 0.0
C2443 C 0.27262 0.40081 0.50833 0.0
C2444 C 0.28094 0.41904 0.52398 0.0
C2445 C 0.30931 0.41689 0.53162 0.0
C2446 C 0.28503 0.36084 0.48389 0.0
C2447 C 0.25983 0.44069 0.53269 0.0
H2448 H 0.20081 0.4305 0.46443 0.0
H2449 H 0.17635 0.36791 0.50771 0.0
H2450 H 0.2662 0.45377 0.48676 0.0
H2451 H 0.27492 0.42627 0.46931 0.0
H2452 H 0.247 0.45278 0.46398 0.0
H2453 H 0.20872 0.35061 0.53109 0.0
H2454 H 0.24542 0.34773 0.5219 0.0
H2455 H 0.23628 0.37649 0.53834 0.0
H2456 H 0.337 0.36462 0.50178 0.0
H2457 H 0.31561 0.43062 0.54371 0.0
H2458 H 0.27731 0.37365 0.47129 0.0
H2459 H 0.26683 0.34642 0.48842 0.0
H2460 H 0.3036 0.34694 0.47919 0.0
H2461 H 0.25098 0.45516 0.52125 0.0
H2462 H 0.27015 0.45443 0.54404 0.0
H2463 H 0.2411 0.42893 0.53919 0.0
loop_
_geom_bond_atom_site_label_1
_geom_bond_atom_site_label_2
_geom_bond_distance
_geom_bond_site_symmetry_2
_ccdc_geom_bond_type
Mg0 O7 2.141 . S
Mg0 O8 2.048 . S
Mg0 O9 2.048 . S
Mg0 O12 2.141 . S
C1 O2 1.313 . S
C1 O8 1.195 . S
O2 C1 1.313 . S
C3 O4 1.245 . S
C3 O12 1.289 . S
O4 C3 1.245 . S
C5 O6 1.245 . S
C5 O7 1.289 . S
O6 C5 1.245 . S
O7 Mg0 2.141 . S
O7 C5 1.289 . S
O8 Mg0 2.048 . S
O8 C1 1.195 . S
O9 Mg0 2.048 . S
O9 C10 1.195 . S
C10 O9 1.195 . S
C10 O11 1.313 . S
O11 C10 1.313 . S
O12 Mg0 2.141 . S
O12 C3 1.289 . S
Mg13 O20 2.141 . S
Mg13 O21 2.048 . S
Mg13 O22 2.048 . S
Mg13 O25 2.141 . S
C14 O15 1.313 . S
C14 O21 1.195 . S
O15 C14 1.313 . S
C16 O17 1.245 . S
C16 O25 1.289 . S
O17 C16 1.245 . S
C18 O19 1.245 . S
C18 O20 1.289 . S
O19 C18 1.245 . S
O20 Mg13 2.141 . S
O20 C18 1.289 . S
O21 Mg13 2.048 . S
O21 C14 1.195 . S
O22 Mg13 2.048 . S
O22 C23 1.195 . S
C23 O22 1.195 . S
C23 O24 1.313 . S
O24 C23 1.313 . S
O25 Mg13 2.141 . S
O25 C16 1.289 . S
Mg26 O33 2.141 . S
Mg26 O34 2.048 . S
Mg26 O35 2.048 . S
Mg26 O38 2.141 . S
C27 O28 1.313 . S
C27 O34 1.195 . S
O28 C27 1.313 . S
C29 O30 1.245 . S
C29 O38 1.289 . S
O30 C29 1.245 . S
C31 O32 1.245 . S
C31 O33 1.289 . S
O32 C31 1.245 . S
O33 Mg26 2.141 . S
O33 C31 1.289 . S
O34 Mg26 2.048 . S
O34 C27 1.195 . S
O35 Mg26 2.048 . S
O35 C36 1.195 . S
C36 O35 1.195 . S
C36 O37 1.313 . S
O37 C36 1.313 . S
O38 Mg26 2.141 . S
O38 C29 1.289 . S
Mg39 O46 2.141 . S
Mg39 O47 2.048 . S
Mg39 O48 2.048 . S
Mg39 O51 2.141 . S
C40 O41 1.313 . S
C40 O47 1.195 . S
O41 C40 1.313 . S
C42 O43 1.245 . S
C42 O51 1.289 . S
O43 C42 1.245 . S
C44 O45 1.245 . S
C44 O46 1.289 . S
O45 C44 1.245 . S
O46 Mg39 2.141 . S
O46 C44 1.289 . S
O47 Mg39 2.048 . S
O47 C40 1.195 . S
O48 Mg39 2.048 . S
O48 C49 1.195 . S
C49 O48 1.195 . S
C49 O50 1.313 . S
O50 C49 1.313 . S
O51 Mg39 2.141 . S
O51 C42 1.289 . S
Mg52 O59 2.141 . S
Mg52 O60 2.048 . S
Mg52 O61 2.048 . S
Mg52 O64 2.141 . S
C53 O54 1.313 . S
C53 O60 1.195 . S
O54 C53 1.313 . S
C55 O56 1.245 . S
C55 O64 1.289 . S
O56 C55 1.245 . S
C57 O58 1.245 . S
C57 O59 1.289 . S
O58 C57 1.245 . S
O59 Mg52 2.141 . S
O59 C57 1.289 . S
O60 Mg52 2.048 . S
O60 C53 1.195 . S
O61 Mg52 2.048 . S
O61 C62 1.195 . S
C62 O61 1.195 . S
C62 O63 1.313 . S
O63 C62 1.313 . S
O64 Mg52 2.141 . S
O64 C55 1.289 . S
Mg65 O72 2.141 . S
Mg65 O73 2.048 . S
Mg65 O74 2.048 . S
Mg65 O77 2.141 . S
C66 O67 1.313 . S
C66 O73 1.195 . S
O67 C66 1.313 . S
C68 O69 1.245 . S
C68 O77 1.289 . S
O69 C68 1.245 . S
C70 O71 1.245 . S
C70 O72 1.289 . S
O71 C70 1.245 . S
O72 Mg65 2.141 . S
O72 C70 1.289 . S
O73 Mg65 2.048 . S
O73 C66 1.195 . S
O74 Mg65 2.048 . S
O74 C75 1.195 . S
C75 O74 1.195 . S
C75 O76 1.313 . S
O76 C75 1.313 . S
O77 Mg65 2.141 . S
O77 C68 1.289 . S
Mg78 O85 2.141 . S
Mg78 O86 2.048 . S
Mg78 O87 2.048 . S
Mg78 O90 2.141 . S
C79 O80 1.313 . S
C79 O86 1.195 . S
O80 C79 1.313 . S
C81 O82 1.245 . S
C81 O90 1.289 . S
O82 C81 1.245 . S
C83 O84 1.245 . S
C83 O85 1.289 . S
O84 C83 1.245 . S
O85 Mg78 2.141 . S
O85 C83 1.289 . S
O86 Mg78 2.048 . S
O86 C79 1.195 . S
O87 Mg78 2.048 . S
O87 C88 1.195 . S
C88 O87 1.195 . S
C88 O89 1.313 . S
O89 C88 1.313 . S
O90 Mg78 2.141 . S
O90 C81 1.289 . S
Mg91 O98 2.141 . S
Mg91 O99 2.048 . S
Mg91 O100 2.048 . S
Mg91 O103 2.141 . S
C92 O93 1.313 . S
C92 O99 1.195 . S
O93 C92 1.313 . S
C94 O95 1.245 . S
C94 O103 1.289 . S
O95 C94 1.245 . S
C96 O97 1.245 . S
C96 O98 1.289 . S
O97 C96 1.245 . S
O98 Mg91 2.141 . S
O98 C96 1.289 . S
O99 Mg91 2.048 . S
O99 C92 1.195 . S
O100 Mg91 2.048 . S
O100 C101 1.195 . S
C101 O100 1.195 . S
C101 O102 1.313 . S
O102 C101 1.313 . S
O103 Mg91 2.141 . S
O103 C94 1.289 . S
Mg104 O111 2.141 . S
Mg104 O112 2.048 . S
Mg104 O113 2.048 . S
Mg104 O116 2.141 . S
C105 O106 1.313 . S
C105 O112 1.195 . S
O106 C105 1.313 . S
C107 O108 1.245 . S
C107 O116 1.289 . S
O108 C107 1.245 . S
C109 O110 1.245 . S
C109 O111 1.289 . S
O110 C109 1.245 . S
O111 Mg104 2.141 . S
O111 C109 1.289 . S
O112 Mg104 2.048 . S
O112 C105 1.195 . S
O113 Mg104 2.048 . S
O113 C114 1.195 . S
C114 O113 1.195 . S
C114 O115 1.313 . S
O115 C114 1.313 . S
O116 Mg104 2.141 . S
O116 C107 1.289 . S
Mg117 O124 2.141 . S
Mg117 O125 2.048 . S
Mg117 O126 2.048 . S
Mg117 O129 2.141 . S
C118 O119 1.313 . S
C118 O125 1.195 . S
O119 C118 1.313 . S
C120 O121 1.245 . S
C120 O129 1.289 . S
O121 C120 1.245 . S
C122 O123 1.245 . S
C122 O124 1.289 . S
O123 C122 1.245 . S
O124 Mg117 2.141 . S
O124 C122 1.289 . S
O125 Mg117 2.048 . S
O125 C118 1.195 . S
O126 Mg117 2.048 . S
O126 C127 1.195 . S
C127 O126 1.195 . S
C127 O128 1.313 . S
O128 C127 1.313 . S
O129 Mg117 2.141 . S
O129 C120 1.289 . S
Mg130 O137 2.141 . S
Mg130 O138 2.048 . S
Mg130 O139 2.048 . S
Mg130 O142 2.141 . S
C131 O132 1.313 . S
C131 O138 1.195 . S
O132 C131 1.313 . S
C133 O134 1.245 . S
C133 O142 1.289 . S
O134 C133 1.245 . S
C135 O136 1.245 . S
C135 O137 1.289 . S
O136 C135 1.245 . S
O137 Mg130 2.141 . S
O137 C135 1.289 . S
O138 Mg130 2.048 . S
O138 C131 1.195 . S
O139 Mg130 2.048 . S
O139 C140 1.195 . S
C140 O139 1.195 . S
C140 O141 1.313 . S
O141 C140 1.313 . S
O142 Mg130 2.141 . S
O142 C133 1.289 . S
Mg143 O150 2.141 . S
Mg143 O151 2.048 . S
Mg143 O152 2.048 . S
Mg143 O155 2.141 . S
C144 O145 1.313 . S
C144 O151 1.195 . S
O145 C144 1.313 . S
C146 O147 1.245 . S
C146 O155 1.289 . S
O147 C146 1.245 . S
C148 O149 1.245 . S
C148 O150 1.289 . S
O149 C148 1.245 . S
O150 Mg143 2.141 . S
O150 C148 1.289 . S
O151 Mg143 2.048 . S
O151 C144 1.195 . S
O152 Mg143 2.048 . S
O152 C153 1.195 . S
C153 O152 1.195 . S
C153 O154 1.313 . S
O154 C153 1.313 . S
O155 Mg143 2.141 . S
O155 C146 1.289 . S
Mg156 O163 2.141 . S
Mg156 O164 2.048 . S
Mg156 O165 2.048 . S
Mg156 O168 2.141 . S
C157 O158 1.313 . S
C157 O164 1.195 . S
O158 C157 1.313 . S
C159 O160 1.245 . S
C159 O168 1.289 . S
O160 C159 1.245 . S
C161 O162 1.245 . S
C161 O163 1.289 . S
O162 C161 1.245 . S
O163 Mg156 2.141 . S
O163 C161 1.289 . S
O164 Mg156 2.048 . S
O164 C157 1.195 . S
O165 Mg156 2.048 . S
O165 C166 1.195 . S
C166 O165 1.195 . S
C166 O167 1.313 . S
O167 C166 1.313 . S
O168 Mg156 2.141 . S
O168 C159 1.289 . S
Mg169 O176 2.141 . S
Mg169 O177 2.048 . S
Mg169 O178 2.048 . S
Mg169 O181 2.141 . S
C170 O171 1.313 . S
C170 O177 1.195 . S
O171 C170 1.313 . S
C172 O173 1.245 . S
C172 O181 1.289 . S
O173 C172 1.245 . S
C174 O175 1.245 . S
C174 O176 1.289 . S
O175 C174 1.245 . S
O176 Mg169 2.141 . S
O176 C174 1.289 . S
O177 Mg169 2.048 . S
O177 C170 1.195 . S
O178 Mg169 2.048 . S
O178 C179 1.195 . S
C179 O178 1.195 . S
C179 O180 1.313 . S
O180 C179 1.313 . S
O181 Mg169 2.141 . S
O181 C172 1.289 . S
Mg182 O189 2.141 . S
Mg182 O190 2.048 . S
Mg182 O191 2.048 . S
Mg182 O194 2.141 . S
C183 O184 1.313 . S
C183 O190 1.195 . S
O184 C183 1.313 . S
C185 O186 1.245 . S
C185 O194 1.289 . S
O186 C185 1.245 . S
C187 O188 1.245 . S
C187 O189 1.289 . S
O188 C187 1.245 . S
O189 Mg182 2.141 . S
O189 C187 1.289 . S
O190 Mg182 2.048 . S
O190 C183 1.195 . S
O191 Mg182 2.048 . S
O191 C192 1.195 . S
C192 O191 1.195 . S
C192 O193 1.313 . S
O193 C192 1.313 . S
O194 Mg182 2.141 . S
O194 C185 1.289 . S
Mg195 O202 2.141 . S
Mg195 O203 2.048 . S
Mg195 O204 2.048 . S
Mg195 O207 2.141 . S
C196 O197 1.313 . S
C196 O203 1.195 . S
O197 C196 1.313 . S
C198 O199 1.245 . S
C198 O207 1.289 . S
O199 C198 1.245 . S
C200 O201 1.245 . S
C200 O202 1.289 . S
O201 C200 1.245 . S
O202 Mg195 2.141 . S
O202 C200 1.289 . S
O203 Mg195 2.048 . S
O203 C196 1.195 . S
O204 Mg195 2.048 . S
O204 C205 1.195 . S
C205 O204 1.195 . S
C205 O206 1.313 . S
O206 C205 1.313 . S
O207 Mg195 2.141 . S
O207 C198 1.289 . S
Mg208 O215 2.141 . S
Mg208 O216 2.048 . S
Mg208 O217 2.048 . S
Mg208 O220 2.141 . S
C209 O210 1.313 . S
C209 O216 1.195 . S
O210 C209 1.313 . S
C211 O212 1.245 . S
C211 O220 1.289 . S
O212 C211 1.245 . S
C213 O214 1.245 . S
C213 O215 1.289 . S
O214 C213 1.245 . S
O215 Mg208 2.141 . S
O215 C213 1.289 . S
O216 Mg208 2.048 . S
O216 C209 1.195 . S
O217 Mg208 2.048 . S
O217 C218 1.195 . S
C218 O217 1.195 . S
C218 O219 1.313 . S
O219 C218 1.313 . S
O220 Mg208 2.141 . S
O220 C211 1.289 . S
Mg221 O228 2.141 . S
Mg221 O229 2.048 . S
Mg221 O230 2.048 . S
Mg221 O233 2.141 . S
C222 O223 1.313 . S
C222 O229 1.195 . S
O223 C222 1.313 . S
C224 O225 1.245 . S
C224 O233 1.289 . S
O225 C224 1.245 . S
C226 O227 1.245 . S
C226 O228 1.289 . S
O227 C226 1.245 . S
O228 Mg221 2.141 . S
O228 C226 1.289 . S
O229 Mg221 2.048 . S
O229 C222 1.195 . S
O230 Mg221 2.048 . S
O230 C231 1.195 . S
C231 O230 1.195 . S
C231 O232 1.313 . S
O232 C231 1.313 . S
O233 Mg221 2.141 . S
O233 C224 1.289 . S
Mg234 O241 2.141 . S
Mg234 O242 2.048 . S
Mg234 O243 2.048 . S
Mg234 O246 2.141 . S
C235 O236 1.313 . S
C235 O242 1.195 . S
O236 C235 1.313 . S
C237 O238 1.245 . S
C237 O246 1.289 . S
O238 C237 1.245 . S
C239 O240 1.245 . S
C239 O241 1.289 . S
O240 C239 1.245 . S
O241 Mg234 2.141 . S
O241 C239 1.289 . S
O242 Mg234 2.048 . S
O242 C235 1.195 . S
O243 Mg234 2.048 . S
O243 C244 1.195 . S
C244 O243 1.195 . S
C244 O245 1.313 . S
O245 C244 1.313 . S
O246 Mg234 2.141 . S
O246 C237 1.289 . S
Mg247 O254 2.141 . S
Mg247 O255 2.048 . S
Mg247 O256 2.048 . S
Mg247 O259 2.141 . S
C248 O249 1.313 . S
C248 O255 1.195 . S
O249 C248 1.313 . S
C250 O251 1.245 . S
C250 O259 1.289 . S
O251 C250 1.245 . S
C252 O253 1.245 . S
C252 O254 1.289 . S
O253 C252 1.245 . S
O254 Mg247 2.141 . S
O254 C252 1.289 . S
O255 Mg247 2.048 . S
O255 C248 1.195 . S
O256 Mg247 2.048 . S
O256 C257 1.195 . S
C257 O256 1.195 . S
C257 O258 1.313 . S
O258 C257 1.313 . S
O259 Mg247 2.141 . S
O259 C250 1.289 . S
Mg260 O267 2.141 . S
Mg260 O268 2.048 . S
Mg260 O269 2.048 . S
Mg260 O272 2.141 . S
C261 O262 1.313 . S
C261 O268 1.195 . S
O262 C261 1.313 . S
C263 O264 1.245 . S
C263 O272 1.289 . S
O264 C263 1.245 . S
C265 O266 1.245 . S
C265 O267 1.289 . S
O266 C265 1.245 . S
O267 Mg260 2.141 . S
O267 C265 1.289 . S
O268 Mg260 2.048 . S
O268 C261 1.195 . S
O269 Mg260 2.048 . S
O269 C270 1.195 . S
C270 O269 1.195 . S
C270 O271 1.313 . S
O271 C270 1.313 . S
O272 Mg260 2.141 . S
O272 C263 1.289 . S
Mg273 O280 2.141 . S
Mg273 O281 2.048 . S
Mg273 O282 2.048 . S
Mg273 O285 2.141 . S
C274 O275 1.313 . S
C274 O281 1.195 . S
O275 C274 1.313 . S
C276 O277 1.245 . S
C276 O285 1.289 . S
O277 C276 1.245 . S
C278 O279 1.245 . S
C278 O280 1.289 . S
O279 C278 1.245 . S
O280 Mg273 2.141 . S
O280 C278 1.289 . S
O281 Mg273 2.048 . S
O281 C274 1.195 . S
O282 Mg273 2.048 . S
O282 C283 1.195 . S
C283 O282 1.195 . S
C283 O284 1.313 . S
O284 C283 1.313 . S
O285 Mg273 2.141 . S
O285 C276 1.289 . S
Mg286 O293 2.141 . S
Mg286 O294 2.048 . S
Mg286 O295 2.048 . S
Mg286 O298 2.141 . S
C287 O288 1.313 . S
C287 O294 1.195 . S
O288 C287 1.313 . S
C289 O290 1.245 . S
C289 O298 1.289 . S
O290 C289 1.245 . S
C291 O292 1.245 . S
C291 O293 1.289 . S
O292 C291 1.245 . S
O293 Mg286 2.141 . S
O293 C291 1.289 . S
O294 Mg286 2.048 . S
O294 C287 1.195 . S
O295 Mg286 2.048 . S
O295 C296 1.195 . S
C296 O295 1.195 . S
C296 O297 1.313 . S
O297 C296 1.313 . S
O298 Mg286 2.141 . S
O298 C289 1.289 . S
Mg299 O306 2.141 . S
Mg299 O307 2.048 . S
Mg299 O308 2.048 . S
Mg299 O311 2.141 . S
C300 O301 1.313 . S
C300 O307 1.195 . S
O301 C300 1.313 . S
C302 O303 1.245 . S
C302 O311 1.289 . S
O303 C302 1.245 . S
C304 O305 1.245 . S
C304 O306 1.289 . S
O305 C304 1.245 . S
O306 Mg299 2.141 . S
O306 C304 1.289 . S
O307 Mg299 2.048 . S
O307 C300 1.195 . S
O308 Mg299 2.048 . S
O308 C309 1.195 . S
C309 O308 1.195 . S
C309 O310 1.313 . S
O310 C309 1.313 . S
O311 Mg299 2.141 . S
O311 C302 1.289 . S
Mg312 O319 2.141 . S
Mg312 O320 2.048 . S
Mg312 O321 2.048 . S
Mg312 O324 2.141 . S
C313 O314 1.313 . S
C313 O320 1.195 . S
O314 C313 1.313 . S
C315 O316 1.245 . S
C315 O324 1.289 . S
O316 C315 1.245 . S
C317 O318 1.245 . S
C317 O319 1.289 . S
O318 C317 1.245 . S
O319 Mg312 2.141 . S
O319 C317 1.289 . S
O320 Mg312 2.048 . S
O320 C313 1.195 . S
O321 Mg312 2.048 . S
O321 C322 1.195 . S
C322 O321 1.195 . S
C322 O323 1.313 . S
O323 C322 1.313 . S
O324 Mg312 2.141 . S
O324 C315 1.289 . S
Mg325 O332 2.141 . S
Mg325 O333 2.048 . S
Mg325 O334 2.048 . S
Mg325 O337 2.141 . S
C326 O327 1.313 . S
C326 O333 1.195 . S
O327 C326 1.313 . S
C328 O329 1.245 . S
C328 O337 1.289 . S
O329 C328 1.245 . S
C330 O331 1.245 . S
C330 O332 1.289 . S
O331 C330 1.245 . S
O332 Mg325 2.141 . S
O332 C330 1.289 . S
O333 Mg325 2.048 . S
O333 C326 1.195 . S
O334 Mg325 2.048 . S
O334 C335 1.195 . S
C335 O334 1.195 . S
C335 O336 1.313 . S
O336 C335 1.313 . S
O337 Mg325 2.141 . S
O337 C328 1.289 . S
Mg338 O345 2.141 . S
Mg338 O346 2.048 . S
Mg338 O347 2.048 . S
Mg338 O350 2.141 . S
C339 O340 1.313 . S
C339 O346 1.195 . S
O340 C339 1.313 . S
C341 O342 1.245 . S
C341 O350 1.289 . S
O342 C341 1.245 . S
C343 O344 1.245 . S
C343 O345 1.289 . S
O344 C343 1.245 . S
O345 Mg338 2.141 . S
O345 C343 1.289 . S
O346 Mg338 2.048 . S
O346 C339 1.195 . S
O347 Mg338 2.048 . S
O347 C348 1.195 . S
C348 O347 1.195 . S
C348 O349 1.313 . S
O349 C348 1.313 . S
O350 Mg338 2.141 . S
O350 C341 1.289 . S
Mg351 O358 2.141 . S
Mg351 O359 2.048 . S
Mg351 O360 2.048 . S
Mg351 O363 2.141 . S
C352 O353 1.313 . S
C352 O359 1.195 . S
O353 C352 1.313 . S
C354 O355 1.245 . S
C354 O363 1.289 . S
O355 C354 1.245 . S
C356 O357 1.245 . S
C356 O358 1.289 . S
O357 C356 1.245 . S
O358 Mg351 2.141 . S
O358 C356 1.289 . S
O359 Mg351 2.048 . S
O359 C352 1.195 . S
O360 Mg351 2.048 . S
O360 C361 1.195 . S
C361 O360 1.195 . S
C361 O362 1.313 . S
O362 C361 1.313 . S
O363 Mg351 2.141 . S
O363 C354 1.289 . S
Mg364 O371 2.141 . S
Mg364 O372 2.048 . S
Mg364 O373 2.048 . S
Mg364 O376 2.141 . S
C365 O366 1.313 . S
C365 O372 1.195 . S
O366 C365 1.313 . S
C367 O368 1.245 . S
C367 O376 1.289 . S
O368 C367 1.245 . S
C369 O370 1.245 . S
C369 O371 1.289 . S
O370 C369 1.245 . S
O371 Mg364 2.141 . S
O371 C369 1.289 . S
O372 Mg364 2.048 . S
O372 C365 1.195 . S
O373 Mg364 2.048 . S
O373 C374 1.195 . S
C374 O373 1.195 . S
C374 O375 1.313 . S
O375 C374 1.313 . S
O376 Mg364 2.141 . S
O376 C367 1.289 . S
Mg377 O384 2.141 . S
Mg377 O385 2.048 . S
Mg377 O386 2.048 . S
Mg377 O389 2.141 . S
C378 O379 1.313 . S
C378 O385 1.195 . S
O379 C378 1.313 . S
C380 O381 1.245 . S
C380 O389 1.289 . S
O381 C380 1.245 . S
C382 O383 1.245 . S
C382 O384 1.289 . S
O383 C382 1.245 . S
O384 Mg377 2.141 . S
O384 C382 1.289 . S
O385 Mg377 2.048 . S
O385 C378 1.195 . S
O386 Mg377 2.048 . S
O386 C387 1.195 . S
C387 O386 1.195 . S
C387 O388 1.313 . S
O388 C387 1.313 . S
O389 Mg377 2.141 . S
O389 C380 1.289 . S
Mg390 O397 2.141 . S
Mg390 O398 2.048 . S
Mg390 O399 2.048 . S
Mg390 O402 2.141 . S
C391 O392 1.313 . S
C391 O398 1.195 . S
O392 C391 1.313 . S
C393 O394 1.245 . S
C393 O402 1.289 . S
O394 C393 1.245 . S
C395 O396 1.245 . S
C395 O397 1.289 . S
O396 C395 1.245 . S
O397 Mg390 2.141 . S
O397 C395 1.289 . S
O398 Mg390 2.048 . S
O398 C391 1.195 . S
O399 Mg390 2.048 . S
O399 C400 1.195 . S
C400 O399 1.195 . S
C400 O401 1.313 . S
O401 C400 1.313 . S
O402 Mg390 2.141 . S
O402 C393 1.289 . S
Mg403 O410 2.141 . S
Mg403 O411 2.048 . S
Mg403 O412 2.048 . S
Mg403 O415 2.141 . S
C404 O405 1.313 . S
C404 O411 1.195 . S
O405 C404 1.313 . S
C406 O407 1.245 . S
C406 O415 1.289 . S
O407 C406 1.245 . S
C408 O409 1.245 . S
C408 O410 1.289 . S
O409 C408 1.245 . S
O410 Mg403 2.141 . S
O410 C408 1.289 . S
O411 Mg403 2.048 . S
O411 C404 1.195 . S
O412 Mg403 2.048 . S
O412 C413 1.195 . S
C413 O412 1.195 . S
C413 O414 1.313 . S
O414 C413 1.313 . S
O415 Mg403 2.141 . S
O415 C406 1.289 . S
C416 C417 1.391 . S
C416 C418 1.394 . S
C416 H432 0.931 . S
C417 C416 1.391 . S
C417 C421 1.376 . S
C418 C416 1.394 . S
C418 C419 1.369 . S
C418 C422 1.531 . S
C419 C418 1.369 . S
C419 C420 1.410 . S
C419 C427 1.503 . S
C420 C419 1.410 . S
C420 C421 1.392 . S
C420 C423 1.511 . S
C421 C417 1.376 . S
C421 C420 1.392 . S
C421 H433 0.929 . S
C422 C418 1.531 . S
C422 H434 0.960 . S
C422 H435 0.962 . S
C422 H436 0.960 . S
C423 C420 1.511 . S
C423 H437 0.961 . S
C423 H438 0.961 . S
C423 H439 0.961 . S
C424 C425 1.370 . S
C424 C426 1.363 . S
C424 H440 0.931 . S
C425 C424 1.370 . S
C425 C429 1.408 . S
C426 C424 1.363 . S
C426 C427 1.370 . S
C426 C430 1.524 . S
C427 C419 1.503 . S
C427 C426 1.370 . S
C427 C428 1.403 . S
C428 C427 1.403 . S
C428 C429 1.404 . S
C428 C431 1.539 . S
C429 C425 1.408 . S
C429 C428 1.404 . S
C429 H441 0.930 . S
C430 C426 1.524 . S
C430 H442 0.956 . S
C430 H443 0.961 . S
C430 H444 0.961 . S
C431 C428 1.539 . S
C431 H445 0.958 . S
C431 H446 0.961 . S
C431 H447 0.960 . S
H432 C416 0.931 . S
H433 C421 0.929 . S
H434 C422 0.960 . S
H435 C422 0.962 . S
H436 C422 0.960 . S
H437 C423 0.961 . S
H438 C423 0.961 . S
H439 C423 0.961 . S
H440 C424 0.931 . S
H441 C429 0.930 . S
H442 C430 0.956 . S
H443 C430 0.961 . S
H444 C430 0.961 . S
H445 C431 0.958 . S
H446 C431 0.961 . S
H447 C431 0.960 . S
C448 C449 1.391 . S
C448 C450 1.394 1_455 S
C448 H464 0.931 . S
C449 C448 1.391 . S
C449 C453 1.376 . S
C450 C448 1.394 1_655 S
C450 C451 1.369 . S
C450 C454 1.531 . S
C451 C450 1.369 . S
C451 C452 1.410 . S
C451 C459 1.503 . S
C452 C451 1.410 . S
C452 C453 1.392 1_655 S
C452 C455 1.511 . S
C453 C449 1.376 . S
C453 C452 1.392 1_455 S
C453 H465 0.929 . S
C454 C450 1.531 . S
C454 H466 0.960 . S
C454 H467 0.962 . S
C454 H468 0.960 . S
C455 C452 1.511 . S
C455 H469 0.961 1_655 S
C455 H470 0.961 . S
C455 H471 0.961 . S
C456 C457 1.370 . S
C456 C458 1.363 . S
C456 H472 0.931 . S
C457 C456 1.370 . S
C457 C461 1.408 . S
C458 C456 1.363 . S
C458 C459 1.370 . S
C458 C462 1.524 . S
C459 C451 1.503 . S
C459 C458 1.370 . S
C459 C460 1.403 . S
C460 C459 1.403 . S
C460 C461 1.404 . S
C460 C463 1.539 . S
C461 C457 1.408 . S
C461 C460 1.404 . S
C461 H473 0.930 . S
C462 C458 1.524 . S
C462 H474 0.956 . S
C462 H475 0.961 . S
C462 H476 0.961 . S
C463 C460 1.539 . S
C463 H477 0.958 . S
C463 H478 0.961 . S
C463 H479 0.960 . S
H464 C448 0.931 . S
H465 C453 0.929 . S
H466 C454 0.960 . S
H467 C454 0.962 . S
H468 C454 0.960 . S
H469 C455 0.961 1_455 S
H470 C455 0.961 . S
H471 C455 0.961 . S
H472 C456 0.931 . S
H473 C461 0.930 . S
H474 C462 0.956 . S
H475 C462 0.961 . S
H476 C462 0.961 . S
H477 C463 0.958 . S
H478 C463 0.961 . S
H479 C463 0.960 . S
C480 C481 1.391 . S
C480 C482 1.394 . S
C480 H496 0.931 . S
C481 C480 1.391 . S
C481 C485 1.376 . S
C482 C480 1.394 . S
C482 C483 1.369 . S
C482 C486 1.531 . S
C483 C482 1.369 . S
C483 C484 1.410 . S
C483 C491 1.503 . S
C484 C483 1.410 . S
C484 C485 1.392 . S
C484 C487 1.511 . S
C485 C481 1.376 . S
C485 C484 1.392 . S
C485 H497 0.929 . S
C486 C482 1.531 . S
C486 H498 0.960 . S
C486 H499 0.962 . S
C486 H500 0.960 . S
C487 C484 1.511 . S
C487 H501 0.961 . S
C487 H502 0.961 . S
C487 H503 0.961 . S
C488 C489 1.370 . S
C488 C490 1.363 . S
C488 H504 0.931 . S
C489 C488 1.370 . S
C489 C493 1.408 . S
C490 C488 1.363 . S
C490 C491 1.370 . S
C490 C494 1.524 . S
C491 C483 1.503 . S
C491 C490 1.370 . S
C491 C492 1.403 . S
C492 C491 1.403 . S
C492 C493 1.404 . S
C492 C495 1.539 . S
C493 C489 1.408 . S
C493 C492 1.404 . S
C493 H505 0.930 . S
C494 C490 1.524 . S
C494 H506 0.956 . S
C494 H507 0.961 . S
C494 H508 0.961 . S
C495 C492 1.539 . S
C495 H509 0.958 . S
C495 H510 0.961 . S
C495 H511 0.960 . S
H496 C480 0.931 . S
H497 C485 0.929 . S
H498 C486 0.960 . S
H499 C486 0.962 . S
H500 C486 0.960 . S
H501 C487 0.961 . S
H502 C487 0.961 . S
H503 C487 0.961 . S
H504 C488 0.931 . S
H505 C493 0.930 . S
H506 C494 0.956 . S
H507 C494 0.961 . S
H508 C494 0.961 . S
H509 C495 0.958 . S
H510 C495 0.961 . S
H511 C495 0.960 . S
C512 C513 1.391 . S
C512 C514 1.394 . S
C512 H528 0.931 . S
C513 C512 1.391 . S
C513 C517 1.376 . S
C514 C512 1.394 . S
C514 C515 1.369 . S
C514 C518 1.531 . S
C515 C514 1.369 . S
C515 C516 1.410 . S
C515 C523 1.503 . S
C516 C515 1.410 . S
C516 C517 1.392 . S
C516 C519 1.511 . S
C517 C513 1.376 . S
C517 C516 1.392 . S
C517 H529 0.929 . S
C518 C514 1.531 . S
C518 H530 0.960 . S
C518 H531 0.962 . S
C518 H532 0.960 . S
C519 C516 1.511 . S
C519 H533 0.961 . S
C519 H534 0.961 . S
C519 H535 0.961 . S
C520 C521 1.370 . S
C520 C522 1.363 . S
C520 H536 0.931 . S
C521 C520 1.370 . S
C521 C525 1.408 . S
C522 C520 1.363 . S
C522 C523 1.370 . S
C522 C526 1.524 . S
C523 C515 1.503 . S
C523 C522 1.370 . S
C523 C524 1.403 . S
C524 C523 1.403 . S
C524 C525 1.404 . S
C524 C527 1.539 . S
C525 C521 1.408 . S
C525 C524 1.404 . S
C525 H537 0.930 . S
C526 C522 1.524 . S
C526 H538 0.956 . S
C526 H539 0.961 . S
C526 H540 0.961 . S
C527 C524 1.539 . S
C527 H541 0.958 . S
C527 H542 0.961 . S
C527 H543 0.960 . S
H528 C512 0.931 . S
H529 C517 0.929 . S
H530 C518 0.960 . S
H531 C518 0.962 . S
H532 C518 0.960 . S
H533 C519 0.961 . S
H534 C519 0.961 . S
H535 C519 0.961 . S
H536 C520 0.931 . S
H537 C525 0.930 . S
H538 C526 0.956 . S
H539 C526 0.961 . S
H540 C526 0.961 . S
H541 C527 0.958 . S
H542 C527 0.961 . S
H543 C527 0.960 . S
C544 C545 1.391 . S
C544 C546 1.394 . S
C544 H560 0.931 . S
C545 C544 1.391 . S
C545 C549 1.376 . S
C546 C544 1.394 . S
C546 C547 1.369 . S
C546 C550 1.531 . S
C547 C546 1.369 . S
C547 C548 1.410 . S
C547 C555 1.503 . S
C548 C547 1.410 . S
C548 C549 1.392 . S
C548 C551 1.511 . S
C549 C545 1.376 . S
C549 C548 1.392 . S
C549 H561 0.929 . S
C550 C546 1.531 . S
C550 H562 0.960 . S
C550 H563 0.962 . S
C550 H564 0.960 . S
C551 C548 1.511 . S
C551 H565 0.961 . S
C551 H566 0.961 . S
C551 H567 0.961 . S
C552 C553 1.370 . S
C552 C554 1.363 . S
C552 H568 0.931 . S
C553 C552 1.370 . S
C553 C557 1.408 . S
C554 C552 1.363 . S
C554 C555 1.370 . S
C554 C558 1.524 . S
C555 C547 1.503 . S
C555 C554 1.370 . S
C555 C556 1.403 . S
C556 C555 1.403 . S
C556 C557 1.404 . S
C556 C559 1.539 . S
C557 C553 1.408 . S
C557 C556 1.404 . S
C557 H569 0.930 . S
C558 C554 1.524 . S
C558 H570 0.956 . S
C558 H571 0.961 . S
C558 H572 0.961 . S
C559 C556 1.539 . S
C559 H573 0.958 . S
C559 H574 0.961 . S
C559 H575 0.960 . S
H560 C544 0.931 . S
H561 C549 0.929 . S
H562 C550 0.960 . S
H563 C550 0.962 . S
H564 C550 0.960 . S
H565 C551 0.961 . S
H566 C551 0.961 . S
H567 C551 0.961 . S
H568 C552 0.931 . S
H569 C557 0.930 . S
H570 C558 0.956 . S
H571 C558 0.961 . S
H572 C558 0.961 . S
H573 C559 0.958 . S
H574 C559 0.961 . S
H575 C559 0.960 . S
C576 C577 1.391 . S
C576 C578 1.394 . S
C576 H592 0.931 . S
C577 C576 1.391 . S
C577 C581 1.376 . S
C578 C576 1.394 . S
C578 C579 1.369 . S
C578 C582 1.531 . S
C579 C578 1.369 . S
C579 C580 1.410 . S
C579 C587 1.503 . S
C580 C579 1.410 . S
C580 C581 1.392 . S
C580 C583 1.511 . S
C581 C577 1.376 . S
C581 C580 1.392 . S
C581 H593 0.929 . S
C582 C578 1.531 . S
C582 H594 0.960 . S
C582 H595 0.962 . S
C582 H596 0.960 . S
C583 C580 1.511 . S
C583 H597 0.961 . S
C583 H598 0.961 . S
C583 H599 0.961 . S
C584 C585 1.370 . S
C584 C586 1.363 . S
C584 H600 0.931 . S
C585 C584 1.370 . S
C585 C589 1.408 . S
C586 C584 1.363 . S
C586 C587 1.370 . S
C586 C590 1.524 . S
C587 C579 1.503 . S
C587 C586 1.370 . S
C587 C588 1.403 . S
C588 C587 1.403 . S
C588 C589 1.404 . S
C588 C591 1.539 . S
C589 C585 1.408 . S
C589 C588 1.404 . S
C589 H601 0.930 . S
C590 C586 1.524 . S
C590 H602 0.956 . S
C590 H603 0.961 . S
C590 H604 0.961 . S
C591 C588 1.539 . S
C591 H605 0.958 . S
C591 H606 0.961 . S
C591 H607 0.960 . S
H592 C576 0.931 . S
H593 C581 0.929 . S
H594 C582 0.960 . S
H595 C582 0.962 . S
H596 C582 0.960 . S
H597 C583 0.961 . S
H598 C583 0.961 . S
H599 C583 0.961 . S
H600 C584 0.931 . S
H601 C589 0.930 . S
H602 C590 0.956 . S
H603 C590 0.961 . S
H604 C590 0.961 . S
H605 C591 0.958 . S
H606 C591 0.961 . S
H607 C591 0.960 . S
C608 C609 1.391 . S
C608 C610 1.394 . S
C608 H624 0.931 . S
C609 C608 1.391 . S
C609 C613 1.376 . S
C610 C608 1.394 . S
C610 C611 1.369 . S
C610 C614 1.531 . S
C611 C610 1.369 . S
C611 C612 1.410 . S
C611 C619 1.503 . S
C612 C611 1.410 . S
C612 C613 1.392 . S
C612 C615 1.511 . S
C613 C609 1.376 . S
C613 C612 1.392 . S
C613 H625 0.929 . S
C614 C610 1.531 . S
C614 H626 0.960 . S
C614 H627 0.962 . S
C614 H628 0.960 . S
C615 C612 1.511 . S
C615 H629 0.961 . S
C615 H630 0.961 . S
C615 H631 0.961 . S
C616 C617 1.370 . S
C616 C618 1.363 . S
C616 H632 0.931 . S
C617 C616 1.370 . S
C617 C621 1.408 . S
C618 C616 1.363 . S
C618 C619 1.370 . S
C618 C622 1.524 . S
C619 C611 1.503 . S
C619 C618 1.370 . S
C619 C620 1.403 . S
C620 C619 1.403 . S
C620 C621 1.404 . S
C620 C623 1.539 . S
C621 C617 1.408 . S
C621 C620 1.404 . S
C621 H633 0.930 . S
C622 C618 1.524 . S
C622 H634 0.956 . S
C622 H635 0.961 . S
C622 H636 0.961 . S
C623 C620 1.539 . S
C623 H637 0.958 . S
C623 H638 0.961 . S
C623 H639 0.960 . S
H624 C608 0.931 . S
H625 C613 0.929 . S
H626 C614 0.960 . S
H627 C614 0.962 . S
H628 C614 0.960 . S
H629 C615 0.961 . S
H630 C615 0.961 . S
H631 C615 0.961 . S
H632 C616 0.931 . S
H633 C621 0.930 . S
H634 C622 0.956 . S
H635 C622 0.961 . S
H636 C622 0.961 . S
H637 C623 0.958 . S
H638 C623 0.961 . S
H639 C623 0.960 . S
C640 C641 1.391 . S
C640 C642 1.394 1_455 S
C640 H656 0.931 . S
C641 C640 1.391 . S
C641 C645 1.376 . S
C642 C640 1.394 1_655 S
C642 C643 1.369 . S
C642 C646 1.531 . S
C643 C642 1.369 . S
C643 C644 1.410 . S
C643 C651 1.503 . S
C644 C643 1.410 . S
C644 C645 1.392 1_655 S
C644 C647 1.511 . S
C645 C641 1.376 . S
C645 C644 1.392 1_455 S
C645 H657 0.929 . S
C646 C642 1.531 . S
C646 H658 0.960 . S
C646 H659 0.962 . S
C646 H660 0.960 . S
C647 C644 1.511 . S
C647 H661 0.961 1_655 S
C647 H662 0.961 . S
C647 H663 0.961 . S
C648 C649 1.370 . S
C648 C650 1.363 . S
C648 H664 0.931 . S
C649 C648 1.370 . S
C649 C653 1.408 . S
C650 C648 1.363 . S
C650 C651 1.370 . S
C650 C654 1.524 . S
C651 C643 1.503 . S
C651 C650 1.370 . S
C651 C652 1.403 . S
C652 C651 1.403 . S
C652 C653 1.404 . S
C652 C655 1.539 . S
C653 C649 1.408 . S
C653 C652 1.404 . S
C653 H665 0.930 . S
C654 C650 1.524 . S
C654 H666 0.956 . S
C654 H667 0.961 . S
C654 H668 0.961 . S
C655 C652 1.539 . S
C655 H669 0.958 . S
C655 H670 0.961 . S
C655 H671 0.960 . S
H656 C640 0.931 . S
H657 C645 0.929 . S
H658 C646 0.960 . S
H659 C646 0.962 . S
H660 C646 0.960 . S
H661 C647 0.961 1_455 S
H662 C647 0.961 . S
H663 C647 0.961 . S
H664 C648 0.931 . S
H665 C653 0.930 . S
H666 C654 0.956 . S
H667 C654 0.961 . S
H668 C654 0.961 . S
H669 C655 0.958 . S
H670 C655 0.961 . S
H671 C655 0.960 . S
C672 C673 1.391 . S
C672 C674 1.394 . S
C672 H688 0.931 . S
C673 C672 1.391 . S
C673 C677 1.376 . S
C674 C672 1.394 . S
C674 C675 1.369 . S
C674 C678 1.531 . S
C675 C674 1.369 . S
C675 C676 1.410 . S
C675 C683 1.503 . S
C676 C675 1.410 . S
C676 C677 1.392 . S
C676 C679 1.511 . S
C677 C673 1.376 . S
C677 C676 1.392 . S
C677 H689 0.929 . S
C678 C674 1.531 . S
C678 H690 0.960 . S
C678 H691 0.962 . S
C678 H692 0.960 . S
C679 C676 1.511 . S
C679 H693 0.961 . S
C679 H694 0.961 . S
C679 H695 0.961 . S
C680 C681 1.370 . S
C680 C682 1.363 . S
C680 H696 0.931 . S
C681 C680 1.370 . S
C681 C685 1.408 . S
C682 C680 1.363 . S
C682 C683 1.370 . S
C682 C686 1.524 . S
C683 C675 1.503 . S
C683 C682 1.370 . S
C683 C684 1.403 . S
C684 C683 1.403 . S
C684 C685 1.404 . S
C684 C687 1.539 . S
C685 C681 1.408 . S
C685 C684 1.404 . S
C685 H697 0.930 . S
C686 C682 1.524 . S
C686 H698 0.956 . S
C686 H699 0.961 . S
C686 H700 0.961 . S
C687 C684 1.539 . S
C687 H701 0.958 . S
C687 H702 0.961 . S
C687 H703 0.960 . S
H688 C672 0.931 . S
H689 C677 0.929 . S
H690 C678 0.960 . S
H691 C678 0.962 . S
H692 C678 0.960 . S
H693 C679 0.961 . S
H694 C679 0.961 . S
H695 C679 0.961 . S
H696 C680 0.931 . S
H697 C685 0.930 . S
H698 C686 0.956 . S
H699 C686 0.961 . S
H700 C686 0.961 . S
H701 C687 0.958 . S
H702 C687 0.961 . S
H703 C687 0.960 . S
C704 C705 1.391 . S
C704 C706 1.394 . S
C704 H720 0.931 . S
C705 C704 1.391 . S
C705 C709 1.376 . S
C706 C704 1.394 . S
C706 C707 1.369 . S
C706 C710 1.531 . S
C707 C706 1.369 . S
C707 C708 1.410 . S
C707 C715 1.503 . S
C708 C707 1.410 . S
C708 C709 1.392 . S
C708 C711 1.511 . S
C709 C705 1.376 . S
C709 C708 1.392 . S
C709 H721 0.929 . S
C710 C706 1.531 . S
C710 H722 0.960 . S
C710 H723 0.962 . S
C710 H724 0.960 . S
C711 C708 1.511 . S
C711 H725 0.961 . S
C711 H726 0.961 . S
C711 H727 0.961 . S
C712 C713 1.370 . S
C712 C714 1.363 1_655 S
C712 H728 0.931 . S
C713 C712 1.370 . S
C713 C717 1.408 . S
C714 C712 1.363 1_455 S
C714 C715 1.370 . S
C714 C718 1.524 . S
C715 C707 1.503 . S
C715 C714 1.370 . S
C715 C716 1.403 . S
C716 C715 1.403 . S
C716 C717 1.404 1_455 S
C716 C719 1.539 . S
C717 C713 1.408 . S
C717 C716 1.404 1_655 S
C717 H729 0.930 . S
C718 C714 1.524 . S
C718 H730 0.956 . S
C718 H731 0.961 . S
C718 H732 0.961 . S
C719 C716 1.539 . S
C719 H733 0.958 . S
C719 H734 0.961 . S
C719 H735 0.960 . S
H720 C704 0.931 . S
H721 C709 0.929 . S
H722 C710 0.960 . S
H723 C710 0.962 . S
H724 C710 0.960 . S
H725 C711 0.961 . S
H726 C711 0.961 . S
H727 C711 0.961 . S
H728 C712 0.931 . S
H729 C717 0.930 . S
H730 C718 0.956 . S
H731 C718 0.961 . S
H732 C718 0.961 . S
H733 C719 0.958 . S
H734 C719 0.961 . S
H735 C719 0.960 . S
C736 C737 1.391 . S
C736 C738 1.394 . S
C736 H752 0.931 . S
C737 C736 1.391 . S
C737 C741 1.376 . S
C738 C736 1.394 . S
C738 C739 1.369 . S
C738 C742 1.531 . S
C739 C738 1.369 . S
C739 C740 1.410 . S
C739 C747 1.503 . S
C740 C739 1.410 . S
C740 C741 1.392 . S
C740 C743 1.511 . S
C741 C737 1.376 . S
C741 C740 1.392 . S
C741 H753 0.929 . S
C742 C738 1.531 . S
C742 H754 0.960 . S
C742 H755 0.962 . S
C742 H756 0.960 . S
C743 C740 1.511 . S
C743 H757 0.961 . S
C743 H758 0.961 . S
C743 H759 0.961 . S
C744 C745 1.370 . S
C744 C746 1.363 . S
C744 H760 0.931 . S
C745 C744 1.370 . S
C745 C749 1.408 . S
C746 C744 1.363 . S
C746 C747 1.370 . S
C746 C750 1.524 . S
C747 C739 1.503 . S
C747 C746 1.370 . S
C747 C748 1.403 . S
C748 C747 1.403 . S
C748 C749 1.404 . S
C748 C751 1.539 . S
C749 C745 1.408 . S
C749 C748 1.404 . S
C749 H761 0.930 . S
C750 C746 1.524 . S
C750 H762 0.956 . S
C750 H763 0.961 . S
C750 H764 0.961 . S
C751 C748 1.539 . S
C751 H765 0.958 . S
C751 H766 0.961 . S
C751 H767 0.960 . S
H752 C736 0.931 . S
H753 C741 0.929 . S
H754 C742 0.960 . S
H755 C742 0.962 . S
H756 C742 0.960 . S
H757 C743 0.961 . S
H758 C743 0.961 . S
H759 C743 0.961 . S
H760 C744 0.931 . S
H761 C749 0.930 . S
H762 C750 0.956 . S
H763 C750 0.961 . S
H764 C750 0.961 . S
H765 C751 0.958 . S
H766 C751 0.961 . S
H767 C751 0.960 . S
C768 C769 1.391 . S
C768 C770 1.394 . S
C768 H784 0.931 . S
C769 C768 1.391 . S
C769 C773 1.376 . S
C770 C768 1.394 . S
C770 C771 1.369 . S
C770 C774 1.531 . S
C771 C770 1.369 . S
C771 C772 1.410 . S
C771 C779 1.503 . S
C772 C771 1.410 . S
C772 C773 1.392 . S
C772 C775 1.511 . S
C773 C769 1.376 . S
C773 C772 1.392 . S
C773 H785 0.929 . S
C774 C770 1.531 . S
C774 H786 0.960 . S
C774 H787 0.962 . S
C774 H788 0.960 . S
C775 C772 1.511 . S
C775 H789 0.961 . S
C775 H790 0.961 . S
C775 H791 0.961 . S
C776 C777 1.370 . S
C776 C778 1.363 . S
C776 H792 0.931 . S
C777 C776 1.370 . S
C777 C781 1.408 . S
C778 C776 1.363 . S
C778 C779 1.370 . S
C778 C782 1.524 . S
C779 C771 1.503 . S
C779 C778 1.370 . S
C779 C780 1.403 . S
C780 C779 1.403 . S
C780 C781 1.404 . S
C780 C783 1.539 . S
C781 C777 1.408 . S
C781 C780 1.404 . S
C781 H793 0.930 . S
C782 C778 1.524 . S
C782 H794 0.956 . S
C782 H795 0.961 . S
C782 H796 0.961 . S
C783 C780 1.539 . S
C783 H797 0.958 . S
C783 H798 0.961 . S
C783 H799 0.960 . S
H784 C768 0.931 . S
H785 C773 0.929 . S
H786 C774 0.960 . S
H787 C774 0.962 . S
H788 C774 0.960 . S
H789 C775 0.961 . S
H790 C775 0.961 . S
H791 C775 0.961 . S
H792 C776 0.931 . S
H793 C781 0.930 . S
H794 C782 0.956 . S
H795 C782 0.961 . S
H796 C782 0.961 . S
H797 C783 0.958 . S
H798 C783 0.961 . S
H799 C783 0.960 . S
C800 C801 1.391 . S
C800 C802 1.394 . S
C800 H816 0.931 . S
C801 C800 1.391 . S
C801 C805 1.376 . S
C802 C800 1.394 . S
C802 C803 1.369 . S
C802 C806 1.531 . S
C803 C802 1.369 . S
C803 C804 1.410 . S
C803 C811 1.503 . S
C804 C803 1.410 . S
C804 C805 1.392 . S
C804 C807 1.511 . S
C805 C801 1.376 . S
C805 C804 1.392 . S
C805 H817 0.929 . S
C806 C802 1.531 . S
C806 H818 0.960 . S
C806 H819 0.962 . S
C806 H820 0.960 . S
C807 C804 1.511 . S
C807 H821 0.961 . S
C807 H822 0.961 . S
C807 H823 0.961 . S
C808 C809 1.370 . S
C808 C810 1.363 . S
C808 H824 0.931 . S
C809 C808 1.370 . S
C809 C813 1.408 . S
C810 C808 1.363 . S
C810 C811 1.370 . S
C810 C814 1.524 . S
C811 C803 1.503 . S
C811 C810 1.370 . S
C811 C812 1.403 . S
C812 C811 1.403 . S
C812 C813 1.404 . S
C812 C815 1.539 . S
C813 C809 1.408 . S
C813 C812 1.404 . S
C813 H825 0.930 . S
C814 C810 1.524 . S
C814 H826 0.956 . S
C814 H827 0.961 . S
C814 H828 0.961 . S
C815 C812 1.539 . S
C815 H829 0.958 . S
C815 H830 0.961 . S
C815 H831 0.960 . S
H816 C800 0.931 . S
H817 C805 0.929 . S
H818 C806 0.960 . S
H819 C806 0.962 . S
H820 C806 0.960 . S
H821 C807 0.961 . S
H822 C807 0.961 . S
H823 C807 0.961 . S
H824 C808 0.931 . S
H825 C813 0.930 . S
H826 C814 0.956 . S
H827 C814 0.961 . S
H828 C814 0.961 . S
H829 C815 0.958 . S
H830 C815 0.961 . S
H831 C815 0.960 . S
C832 C833 1.391 . S
C832 C834 1.394 . S
C832 H848 0.931 . S
C833 C832 1.391 . S
C833 C837 1.376 . S
C834 C832 1.394 . S
C834 C835 1.369 . S
C834 C838 1.531 . S
C835 C834 1.369 . S
C835 C836 1.410 . S
C835 C843 1.503 . S
C836 C835 1.410 . S
C836 C837 1.392 . S
C836 C839 1.511 . S
C837 C833 1.376 . S
C837 C836 1.392 . S
C837 H849 0.929 . S
C838 C834 1.531 . S
C838 H850 0.960 . S
C838 H851 0.962 . S
C838 H852 0.960 . S
C839 C836 1.511 . S
C839 H853 0.961 . S
C839 H854 0.961 . S
C839 H855 0.961 . S
C840 C841 1.370 . S
C840 C842 1.363 . S
C840 H856 0.931 . S
C841 C840 1.370 . S
C841 C845 1.408 . S
C842 C840 1.363 . S
C842 C843 1.370 . S
C842 C846 1.524 . S
C843 C835 1.503 . S
C843 C842 1.370 . S
C843 C844 1.403 . S
C844 C843 1.403 . S
C844 C845 1.404 . S
C844 C847 1.539 . S
C845 C841 1.408 . S
C845 C844 1.404 . S
C845 H857 0.930 . S
C846 C842 1.524 . S
C846 H858 0.956 . S
C846 H859 0.961 . S
C846 H860 0.961 . S
C847 C844 1.539 . S
C847 H861 0.958 . S
C847 H862 0.961 . S
C847 H863 0.960 . S
H848 C832 0.931 . S
H849 C837 0.929 . S
H850 C838 0.960 . S
H851 C838 0.962 . S
H852 C838 0.960 . S
H853 C839 0.961 . S
H854 C839 0.961 . S
H855 C839 0.961 . S
H856 C840 0.931 . S
H857 C845 0.930 . S
H858 C846 0.956 . S
H859 C846 0.961 . S
H860 C846 0.961 . S
H861 C847 0.958 . S
H862 C847 0.961 . S
H863 C847 0.960 . S
C864 C865 1.391 . S
C864 C866 1.394 . S
C864 H880 0.931 . S
C865 C864 1.391 . S
C865 C869 1.376 . S
C866 C864 1.394 . S
C866 C867 1.369 . S
C866 C870 1.531 . S
C867 C866 1.369 . S
C867 C868 1.410 . S
C867 C875 1.503 . S
C868 C867 1.410 . S
C868 C869 1.392 . S
C868 C871 1.511 . S
C869 C865 1.376 . S
C869 C868 1.392 . S
C869 H881 0.929 . S
C870 C866 1.531 . S
C870 H882 0.960 . S
C870 H883 0.962 . S
C870 H884 0.960 . S
C871 C868 1.511 . S
C871 H885 0.961 . S
C871 H886 0.961 . S
C871 H887 0.961 . S
C872 C873 1.370 . S
C872 C874 1.363 . S
C872 H888 0.931 . S
C873 C872 1.370 . S
C873 C877 1.408 . S
C874 C872 1.363 . S
C874 C875 1.370 . S
C874 C878 1.524 . S
C875 C867 1.503 . S
C875 C874 1.370 . S
C875 C876 1.403 . S
C876 C875 1.403 . S
C876 C877 1.404 . S
C876 C879 1.539 . S
C877 C873 1.408 . S
C877 C876 1.404 . S
C877 H889 0.930 . S
C878 C874 1.524 . S
C878 H890 0.956 . S
C878 H891 0.961 . S
C878 H892 0.961 . S
C879 C876 1.539 . S
C879 H893 0.958 . S
C879 H894 0.961 . S
C879 H895 0.960 . S
H880 C864 0.931 . S
H881 C869 0.929 . S
H882 C870 0.960 . S
H883 C870 0.962 . S
H884 C870 0.960 . S
H885 C871 0.961 . S
H886 C871 0.961 . S
H887 C871 0.961 . S
H888 C872 0.931 . S
H889 C877 0.930 . S
H890 C878 0.956 . S
H891 C878 0.961 . S
H892 C878 0.961 . S
H893 C879 0.958 . S
H894 C879 0.961 . S
H895 C879 0.960 . S
C896 C897 1.391 . S
C896 C898 1.394 . S
C896 H912 0.931 . S
C897 C896 1.391 . S
C897 C901 1.376 . S
C898 C896 1.394 . S
C898 C899 1.369 . S
C898 C902 1.531 . S
C899 C898 1.369 . S
C899 C900 1.410 . S
C899 C907 1.503 . S
C900 C899 1.410 . S
C900 C901 1.392 . S
C900 C903 1.511 . S
C901 C897 1.376 . S
C901 C900 1.392 . S
C901 H913 0.929 . S
C902 C898 1.531 . S
C902 H914 0.960 . S
C902 H915 0.962 . S
C902 H916 0.960 . S
C903 C900 1.511 . S
C903 H917 0.961 . S
C903 H918 0.961 . S
C903 H919 0.961 . S
C904 C905 1.370 . S
C904 C906 1.363 1_655 S
C904 H920 0.931 . S
C905 C904 1.370 . S
C905 C909 1.408 . S
C906 C904 1.363 1_455 S
C906 C907 1.370 . S
C906 C910 1.524 . S
C907 C899 1.503 . S
C907 C906 1.370 . S
C907 C908 1.403 . S
C908 C907 1.403 . S
C908 C909 1.404 1_455 S
C908 C911 1.539 . S
C909 C905 1.408 . S
C909 C908 1.404 1_655 S
C909 H921 0.930 . S
C910 C906 1.524 . S
C910 H922 0.956 . S
C910 H923 0.961 . S
C910 H924 0.961 1_455 S
C911 C908 1.539 . S
C911 H925 0.958 . S
C911 H926 0.961 . S
C911 H927 0.960 . S
H912 C896 0.931 . S
H913 C901 0.929 . S
H914 C902 0.960 . S
H915 C902 0.962 . S
H916 C902 0.960 . S
H917 C903 0.961 . S
H918 C903 0.961 . S
H919 C903 0.961 . S
H920 C904 0.931 . S
H921 C909 0.930 . S
H922 C910 0.956 . S
H923 C910 0.961 . S
H924 C910 0.961 1_655 S
H925 C911 0.958 . S
H926 C911 0.961 . S
H927 C911 0.960 . S
C928 C929 1.391 . S
C928 C930 1.394 . S
C928 H944 0.931 . S
C929 C928 1.391 . S
C929 C933 1.376 . S
C930 C928 1.394 . S
C930 C931 1.369 . S
C930 C934 1.531 . S
C931 C930 1.369 . S
C931 C932 1.410 . S
C931 C939 1.503 . S
C932 C931 1.410 . S
C932 C933 1.392 . S
C932 C935 1.511 . S
C933 C929 1.376 . S
C933 C932 1.392 . S
C933 H945 0.929 . S
C934 C930 1.531 . S
C934 H946 0.960 . S
C934 H947 0.962 . S
C934 H948 0.960 . S
C935 C932 1.511 . S
C935 H949 0.961 . S
C935 H950 0.961 . S
C935 H951 0.961 . S
C936 C937 1.370 . S
C936 C938 1.363 . S
C936 H952 0.931 . S
C937 C936 1.370 . S
C937 C941 1.408 . S
C938 C936 1.363 . S
C938 C939 1.370 . S
C938 C942 1.524 . S
C939 C931 1.503 . S
C939 C938 1.370 . S
C939 C940 1.403 . S
C940 C939 1.403 . S
C940 C941 1.404 . S
C940 C943 1.539 . S
C941 C937 1.408 . S
C941 C940 1.404 . S
C941 H953 0.930 . S
C942 C938 1.524 . S
C942 H954 0.956 . S
C942 H955 0.961 . S
C942 H956 0.961 . S
C943 C940 1.539 . S
C943 H957 0.958 . S
C943 H958 0.961 . S
C943 H959 0.960 . S
H944 C928 0.931 . S
H945 C933 0.929 . S
H946 C934 0.960 . S
H947 C934 0.962 . S
H948 C934 0.960 . S
H949 C935 0.961 . S
H950 C935 0.961 . S
H951 C935 0.961 . S
H952 C936 0.931 . S
H953 C941 0.930 . S
H954 C942 0.956 . S
H955 C942 0.961 . S
H956 C942 0.961 . S
H957 C943 0.958 . S
H958 C943 0.961 . S
H959 C943 0.960 . S
C960 C961 1.391 . S
C960 C962 1.394 . S
C960 H976 0.931 . S
C961 C960 1.391 . S
C961 C965 1.376 . S
C962 C960 1.394 . S
C962 C963 1.369 . S
C962 C966 1.531 . S
C963 C962 1.369 . S
C963 C964 1.410 . S
C963 C971 1.503 . S
C964 C963 1.410 . S
C964 C965 1.392 . S
C964 C967 1.511 . S
C965 C961 1.376 . S
C965 C964 1.392 . S
C965 H977 0.929 . S
C966 C962 1.531 . S
C966 H978 0.960 . S
C966 H979 0.962 . S
C966 H980 0.960 . S
C967 C964 1.511 . S
C967 H981 0.961 . S
C967 H982 0.961 . S
C967 H983 0.961 . S
C968 C969 1.370 . S
C968 C970 1.363 . S
C968 H984 0.931 . S
C969 C968 1.370 . S
C969 C973 1.408 . S
C970 C968 1.363 . S
C970 C971 1.370 . S
C970 C974 1.524 . S
C971 C963 1.503 . S
C971 C970 1.370 . S
C971 C972 1.403 . S
C972 C971 1.403 . S
C972 C973 1.404 . S
C972 C975 1.539 . S
C973 C969 1.408 . S
C973 C972 1.404 . S
C973 H985 0.930 . S
C974 C970 1.524 . S
C974 H986 0.956 . S
C974 H987 0.961 . S
C974 H988 0.961 . S
C975 C972 1.539 . S
C975 H989 0.958 . S
C975 H990 0.961 . S
C975 H991 0.960 . S
H976 C960 0.931 . S
H977 C965 0.929 . S
H978 C966 0.960 . S
H979 C966 0.962 . S
H980 C966 0.960 . S
H981 C967 0.961 . S
H982 C967 0.961 . S
H983 C967 0.961 . S
H984 C968 0.931 . S
H985 C973 0.930 . S
H986 C974 0.956 . S
H987 C974 0.961 . S
H988 C974 0.961 . S
H989 C975 0.958 . S
H990 C975 0.961 . S
H991 C975 0.960 . S
C992 C993 1.391 . S
C992 C994 1.394 . S
C992 H1008 0.931 . S
C993 C992 1.391 . S
C993 C997 1.376 . S
C994 C992 1.394 . S
C994 C995 1.369 . S
C994 C998 1.531 . S
C995 C994 1.369 . S
C995 C996 1.410 . S
C995 C1003 1.503 . S
C996 C995 1.410 . S
C996 C997 1.392 . S
C996 C999 1.511 . S
C997 C993 1.376 . S
C997 C996 1.392 . S
C997 H1009 0.929 . S
C998 C994 1.531 . S
C998 H1010 0.960 . S
C998 H1011 0.962 . S
C998 H1012 0.960 . S
C999 C996 1.511 . S
C999 H1013 0.961 . S
C999 H1014 0.961 . S
C999 H1015 0.961 . S
C1000 C1001 1.370 . S
C1000 C1002 1.363 . S
C1000 H1016 0.931 . S
C1001 C1000 1.370 . S
C1001 C1005 1.408 . S
C1002 C1000 1.363 . S
C1002 C1003 1.370 . S
C1002 C1006 1.524 . S
C1003 C995 1.503 . S
C1003 C1002 1.370 . S
C1003 C1004 1.403 . S
C1004 C1003 1.403 . S
C1004 C1005 1.404 . S
C1004 C1007 1.539 . S
C1005 C1001 1.408 . S
C1005 C1004 1.404 . S
C1005 H1017 0.930 . S
C1006 C1002 1.524 . S
C1006 H1018 0.956 . S
C1006 H1019 0.961 . S
C1006 H1020 0.961 . S
C1007 C1004 1.539 . S
C1007 H1021 0.958 . S
C1007 H1022 0.961 . S
C1007 H1023 0.960 . S
H1008 C992 0.931 . S
H1009 C997 0.929 . S
H1010 C998 0.960 . S
H1011 C998 0.962 . S
H1012 C998 0.960 . S
H1013 C999 0.961 . S
H1014 C999 0.961 . S
H1015 C999 0.961 . S
H1016 C1000 0.931 . S
H1017 C1005 0.930 . S
H1018 C1006 0.956 . S
H1019 C1006 0.961 . S
H1020 C1006 0.961 . S
H1021 C1007 0.958 . S
H1022 C1007 0.961 . S
H1023 C1007 0.960 . S
C1024 C1025 1.391 . S
C1024 C1026 1.394 . S
C1024 H1040 0.931 . S
C1025 C1024 1.391 . S
C1025 C1029 1.376 . S
C1026 C1024 1.394 . S
C1026 C1027 1.369 . S
C1026 C1030 1.531 . S
C1027 C1026 1.369 . S
C1027 C1028 1.410 . S
C1027 C1035 1.503 . S
C1028 C1027 1.410 . S
C1028 C1029 1.392 . S
C1028 C1031 1.511 . S
C1029 C1025 1.376 . S
C1029 C1028 1.392 . S
C1029 H1041 0.929 . S
C1030 C1026 1.531 . S
C1030 H1042 0.960 . S
C1030 H1043 0.962 . S
C1030 H1044 0.960 . S
C1031 C1028 1.511 . S
C1031 H1045 0.961 . S
C1031 H1046 0.961 . S
C1031 H1047 0.961 . S
C1032 C1033 1.370 . S
C1032 C1034 1.363 1_655 S
C1032 H1048 0.931 . S
C1033 C1032 1.370 . S
C1033 C1037 1.408 . S
C1034 C1032 1.363 1_455 S
C1034 C1035 1.370 . S
C1034 C1038 1.524 . S
C1035 C1027 1.503 . S
C1035 C1034 1.370 . S
C1035 C1036 1.403 . S
C1036 C1035 1.403 . S
C1036 C1037 1.404 1_455 S
C1036 C1039 1.539 . S
C1037 C1033 1.408 . S
C1037 C1036 1.404 1_655 S
C1037 H1049 0.930 . S
C1038 C1034 1.524 . S
C1038 H1050 0.956 . S
C1038 H1051 0.961 . S
C1038 H1052 0.961 . S
C1039 C1036 1.539 . S
C1039 H1053 0.958 . S
C1039 H1054 0.961 . S
C1039 H1055 0.960 . S
H1040 C1024 0.931 . S
H1041 C1029 0.929 . S
H1042 C1030 0.960 . S
H1043 C1030 0.962 . S
H1044 C1030 0.960 . S
H1045 C1031 0.961 . S
H1046 C1031 0.961 . S
H1047 C1031 0.961 . S
H1048 C1032 0.931 . S
H1049 C1037 0.930 . S
H1050 C1038 0.956 . S
H1051 C1038 0.961 . S
H1052 C1038 0.961 . S
H1053 C1039 0.958 . S
H1054 C1039 0.961 . S
H1055 C1039 0.960 . S
C1056 C1057 1.391 . S
C1056 C1058 1.394 . S
C1056 H1072 0.931 . S
C1057 C1056 1.391 . S
C1057 C1061 1.376 . S
C1058 C1056 1.394 . S
C1058 C1059 1.369 . S
C1058 C1062 1.531 . S
C1059 C1058 1.369 . S
C1059 C1060 1.410 . S
C1059 C1067 1.503 . S
C1060 C1059 1.410 . S
C1060 C1061 1.392 . S
C1060 C1063 1.511 . S
C1061 C1057 1.376 . S
C1061 C1060 1.392 . S
C1061 H1073 0.929 . S
C1062 C1058 1.531 . S
C1062 H1074 0.960 . S
C1062 H1075 0.962 . S
C1062 H1076 0.960 . S
C1063 C1060 1.511 . S
C1063 H1077 0.961 . S
C1063 H1078 0.961 . S
C1063 H1079 0.961 . S
C1064 C1065 1.370 . S
C1064 C1066 1.363 . S
C1064 H1080 0.931 . S
C1065 C1064 1.370 . S
C1065 C1069 1.408 . S
C1066 C1064 1.363 . S
C1066 C1067 1.370 . S
C1066 C1070 1.524 . S
C1067 C1059 1.503 . S
C1067 C1066 1.370 . S
C1067 C1068 1.403 . S
C1068 C1067 1.403 . S
C1068 C1069 1.404 . S
C1068 C1071 1.539 . S
C1069 C1065 1.408 . S
C1069 C1068 1.404 . S
C1069 H1081 0.930 . S
C1070 C1066 1.524 . S
C1070 H1082 0.956 . S
C1070 H1083 0.961 . S
C1070 H1084 0.961 . S
C1071 C1068 1.539 . S
C1071 H1085 0.958 . S
C1071 H1086 0.961 . S
C1071 H1087 0.960 . S
H1072 C1056 0.931 . S
H1073 C1061 0.929 . S
H1074 C1062 0.960 . S
H1075 C1062 0.962 . S
H1076 C1062 0.960 . S
H1077 C1063 0.961 . S
H1078 C1063 0.961 . S
H1079 C1063 0.961 . S
H1080 C1064 0.931 . S
H1081 C1069 0.930 . S
H1082 C1070 0.956 . S
H1083 C1070 0.961 . S
H1084 C1070 0.961 . S
H1085 C1071 0.958 . S
H1086 C1071 0.961 . S
H1087 C1071 0.960 . S
C1088 C1089 1.391 . S
C1088 C1090 1.394 . S
C1088 H1104 0.931 . S
C1089 C1088 1.391 . S
C1089 C1093 1.376 . S
C1090 C1088 1.394 . S
C1090 C1091 1.369 . S
C1090 C1094 1.531 . S
C1091 C1090 1.369 . S
C1091 C1092 1.410 . S
C1091 C1099 1.503 . S
C1092 C1091 1.410 . S
C1092 C1093 1.392 . S
C1092 C1095 1.511 . S
C1093 C1089 1.376 . S
C1093 C1092 1.392 . S
C1093 H1105 0.929 . S
C1094 C1090 1.531 . S
C1094 H1106 0.960 . S
C1094 H1107 0.962 . S
C1094 H1108 0.960 . S
C1095 C1092 1.511 . S
C1095 H1109 0.961 . S
C1095 H1110 0.961 . S
C1095 H1111 0.961 . S
C1096 C1097 1.370 . S
C1096 C1098 1.363 1_655 S
C1096 H1112 0.931 . S
C1097 C1096 1.370 . S
C1097 C1101 1.408 . S
C1098 C1096 1.363 1_455 S
C1098 C1099 1.370 . S
C1098 C1102 1.524 . S
C1099 C1091 1.503 . S
C1099 C1098 1.370 . S
C1099 C1100 1.403 . S
C1100 C1099 1.403 . S
C1100 C1101 1.404 1_455 S
C1100 C1103 1.539 . S
C1101 C1097 1.408 . S
C1101 C1100 1.404 1_655 S
C1101 H1113 0.930 . S
C1102 C1098 1.524 . S
C1102 H1114 0.956 . S
C1102 H1115 0.961 . S
C1102 H1116 0.961 . S
C1103 C1100 1.539 . S
C1103 H1117 0.958 . S
C1103 H1118 0.961 . S
C1103 H1119 0.960 . S
H1104 C1088 0.931 . S
H1105 C1093 0.929 . S
H1106 C1094 0.960 . S
H1107 C1094 0.962 . S
H1108 C1094 0.960 . S
H1109 C1095 0.961 . S
H1110 C1095 0.961 . S
H1111 C1095 0.961 . S
H1112 C1096 0.931 . S
H1113 C1101 0.930 . S
H1114 C1102 0.956 . S
H1115 C1102 0.961 . S
H1116 C1102 0.961 . S
H1117 C1103 0.958 . S
H1118 C1103 0.961 . S
H1119 C1103 0.960 . S
C1120 C1121 1.391 . S
C1120 C1122 1.394 . S
C1120 H1136 0.931 . S
C1121 C1120 1.391 . S
C1121 C1125 1.376 . S
C1122 C1120 1.394 . S
C1122 C1123 1.369 . S
C1122 C1126 1.531 . S
C1123 C1122 1.369 . S
C1123 C1124 1.410 . S
C1123 C1131 1.503 . S
C1124 C1123 1.410 . S
C1124 C1125 1.392 . S
C1124 C1127 1.511 . S
C1125 C1121 1.376 . S
C1125 C1124 1.392 . S
C1125 H1137 0.929 . S
C1126 C1122 1.531 . S
C1126 H1138 0.960 . S
C1126 H1139 0.962 . S
C1126 H1140 0.960 . S
C1127 C1124 1.511 . S
C1127 H1141 0.961 . S
C1127 H1142 0.961 . S
C1127 H1143 0.961 . S
C1128 C1129 1.370 . S
C1128 C1130 1.363 . S
C1128 H1144 0.931 . S
C1129 C1128 1.370 . S
C1129 C1133 1.408 . S
C1130 C1128 1.363 . S
C1130 C1131 1.370 . S
C1130 C1134 1.524 . S
C1131 C1123 1.503 . S
C1131 C1130 1.370 . S
C1131 C1132 1.403 . S
C1132 C1131 1.403 . S
C1132 C1133 1.404 . S
C1132 C1135 1.539 . S
C1133 C1129 1.408 . S
C1133 C1132 1.404 . S
C1133 H1145 0.930 . S
C1134 C1130 1.524 . S
C1134 H1146 0.956 . S
C1134 H1147 0.961 . S
C1134 H1148 0.961 . S
C1135 C1132 1.539 . S
C1135 H1149 0.958 . S
C1135 H1150 0.961 . S
C1135 H1151 0.960 . S
H1136 C1120 0.931 . S
H1137 C1125 0.929 . S
H1138 C1126 0.960 . S
H1139 C1126 0.962 . S
H1140 C1126 0.960 . S
H1141 C1127 0.961 . S
H1142 C1127 0.961 . S
H1143 C1127 0.961 . S
H1144 C1128 0.931 . S
H1145 C1133 0.930 . S
H1146 C1134 0.956 . S
H1147 C1134 0.961 . S
H1148 C1134 0.961 . S
H1149 C1135 0.958 . S
H1150 C1135 0.961 . S
H1151 C1135 0.960 . S
C1152 C1153 1.391 . S
C1152 C1154 1.394 . S
C1152 H1168 0.931 . S
C1153 C1152 1.391 . S
C1153 C1157 1.376 . S
C1154 C1152 1.394 . S
C1154 C1155 1.369 . S
C1154 C1158 1.531 . S
C1155 C1154 1.369 . S
C1155 C1156 1.410 . S
C1155 C1163 1.503 . S
C1156 C1155 1.410 . S
C1156 C1157 1.392 . S
C1156 C1159 1.511 . S
C1157 C1153 1.376 . S
C1157 C1156 1.392 . S
C1157 H1169 0.929 . S
C1158 C1154 1.531 . S
C1158 H1170 0.960 . S
C1158 H1171 0.962 . S
C1158 H1172 0.960 . S
C1159 C1156 1.511 . S
C1159 H1173 0.961 . S
C1159 H1174 0.961 . S
C1159 H1175 0.961 . S
C1160 C1161 1.370 . S
C1160 C1162 1.363 . S
C1160 H1176 0.931 . S
C1161 C1160 1.370 . S
C1161 C1165 1.408 . S
C1162 C1160 1.363 . S
C1162 C1163 1.370 . S
C1162 C1166 1.524 . S
C1163 C1155 1.503 . S
C1163 C1162 1.370 . S
C1163 C1164 1.403 . S
C1164 C1163 1.403 . S
C1164 C1165 1.404 . S
C1164 C1167 1.539 . S
C1165 C1161 1.408 . S
C1165 C1164 1.404 . S
C1165 H1177 0.930 . S
C1166 C1162 1.524 . S
C1166 H1178 0.956 . S
C1166 H1179 0.961 . S
C1166 H1180 0.961 . S
C1167 C1164 1.539 . S
C1167 H1181 0.958 . S
C1167 H1182 0.961 . S
C1167 H1183 0.960 . S
H1168 C1152 0.931 . S
H1169 C1157 0.929 . S
H1170 C1158 0.960 . S
H1171 C1158 0.962 . S
H1172 C1158 0.960 . S
H1173 C1159 0.961 . S
H1174 C1159 0.961 . S
H1175 C1159 0.961 . S
H1176 C1160 0.931 . S
H1177 C1165 0.930 . S
H1178 C1166 0.956 . S
H1179 C1166 0.961 . S
H1180 C1166 0.961 . S
H1181 C1167 0.958 . S
H1182 C1167 0.961 . S
H1183 C1167 0.960 . S
C1184 C1185 1.391 . S
C1184 C1186 1.394 . S
C1184 H1200 0.931 . S
C1185 C1184 1.391 . S
C1185 C1189 1.376 . S
C1186 C1184 1.394 . S
C1186 C1187 1.369 . S
C1186 C1190 1.531 . S
C1187 C1186 1.369 . S
C1187 C1188 1.410 . S
C1187 C1195 1.503 . S
C1188 C1187 1.410 . S
C1188 C1189 1.392 . S
C1188 C1191 1.511 . S
C1189 C1185 1.376 . S
C1189 C1188 1.392 . S
C1189 H1201 0.929 . S
C1190 C1186 1.531 . S
C1190 H1202 0.960 . S
C1190 H1203 0.962 . S
C1190 H1204 0.960 . S
C1191 C1188 1.511 . S
C1191 H1205 0.961 . S
C1191 H1206 0.961 . S
C1191 H1207 0.961 . S
C1192 C1193 1.370 . S
C1192 C1194 1.363 . S
C1192 H1208 0.931 . S
C1193 C1192 1.370 . S
C1193 C1197 1.408 . S
C1194 C1192 1.363 . S
C1194 C1195 1.370 . S
C1194 C1198 1.524 . S
C1195 C1187 1.503 . S
C1195 C1194 1.370 . S
C1195 C1196 1.403 . S
C1196 C1195 1.403 . S
C1196 C1197 1.404 . S
C1196 C1199 1.539 . S
C1197 C1193 1.408 . S
C1197 C1196 1.404 . S
C1197 H1209 0.930 . S
C1198 C1194 1.524 . S
C1198 H1210 0.956 . S
C1198 H1211 0.961 . S
C1198 H1212 0.961 . S
C1199 C1196 1.539 . S
C1199 H1213 0.958 . S
C1199 H1214 0.961 . S
C1199 H1215 0.960 . S
H1200 C1184 0.931 . S
H1201 C1189 0.929 . S
H1202 C1190 0.960 . S
H1203 C1190 0.962 . S
H1204 C1190 0.960 . S
H1205 C1191 0.961 . S
H1206 C1191 0.961 . S
H1207 C1191 0.961 . S
H1208 C1192 0.931 . S
H1209 C1197 0.930 . S
H1210 C1198 0.956 . S
H1211 C1198 0.961 . S
H1212 C1198 0.961 . S
H1213 C1199 0.958 . S
H1214 C1199 0.961 . S
H1215 C1199 0.960 . S
C1216 C1217 1.391 . S
C1216 C1218 1.394 . S
C1216 H1232 0.931 . S
C1217 C1216 1.391 . S
C1217 C1221 1.376 . S
C1218 C1216 1.394 . S
C1218 C1219 1.369 . S
C1218 C1222 1.531 . S
C1219 C1218 1.369 . S
C1219 C1220 1.410 . S
C1219 C1227 1.503 . S
C1220 C1219 1.410 . S
C1220 C1221 1.392 . S
C1220 C1223 1.511 . S
C1221 C1217 1.376 . S
C1221 C1220 1.392 . S
C1221 H1233 0.929 . S
C1222 C1218 1.531 . S
C1222 H1234 0.960 . S
C1222 H1235 0.962 . S
C1222 H1236 0.960 . S
C1223 C1220 1.511 . S
C1223 H1237 0.961 . S
C1223 H1238 0.961 . S
C1223 H1239 0.961 . S
C1224 C1225 1.370 . S
C1224 C1226 1.363 . S
C1224 H1240 0.931 . S
C1225 C1224 1.370 . S
C1225 C1229 1.408 . S
C1226 C1224 1.363 . S
C1226 C1227 1.370 . S
C1226 C1230 1.524 . S
C1227 C1219 1.503 . S
C1227 C1226 1.370 . S
C1227 C1228 1.403 . S
C1228 C1227 1.403 . S
C1228 C1229 1.404 . S
C1228 C1231 1.539 . S
C1229 C1225 1.408 . S
C1229 C1228 1.404 . S
C1229 H1241 0.930 . S
C1230 C1226 1.524 . S
C1230 H1242 0.956 . S
C1230 H1243 0.961 . S
C1230 H1244 0.961 . S
C1231 C1228 1.539 . S
C1231 H1245 0.958 . S
C1231 H1246 0.961 . S
C1231 H1247 0.960 . S
H1232 C1216 0.931 . S
H1233 C1221 0.929 . S
H1234 C1222 0.960 . S
H1235 C1222 0.962 . S
H1236 C1222 0.960 . S
H1237 C1223 0.961 . S
H1238 C1223 0.961 . S
H1239 C1223 0.961 . S
H1240 C1224 0.931 . S
H1241 C1229 0.930 . S
H1242 C1230 0.956 . S
H1243 C1230 0.961 . S
H1244 C1230 0.961 . S
H1245 C1231 0.958 . S
H1246 C1231 0.961 . S
H1247 C1231 0.960 . S
C1248 C1249 1.391 . S
C1248 C1250 1.394 . S
C1248 H1264 0.931 . S
C1249 C1248 1.391 . S
C1249 C1253 1.376 . S
C1250 C1248 1.394 . S
C1250 C1251 1.369 . S
C1250 C1254 1.531 . S
C1251 C1250 1.369 . S
C1251 C1252 1.410 . S
C1251 C1259 1.503 . S
C1252 C1251 1.410 . S
C1252 C1253 1.392 . S
C1252 C1255 1.511 . S
C1253 C1249 1.376 . S
C1253 C1252 1.392 . S
C1253 H1265 0.929 . S
C1254 C1250 1.531 . S
C1254 H1266 0.960 . S
C1254 H1267 0.962 . S
C1254 H1268 0.960 . S
C1255 C1252 1.511 . S
C1255 H1269 0.961 . S
C1255 H1270 0.961 . S
C1255 H1271 0.961 . S
C1256 C1257 1.370 . S
C1256 C1258 1.363 . S
C1256 H1272 0.931 . S
C1257 C1256 1.370 . S
C1257 C1261 1.408 . S
C1258 C1256 1.363 . S
C1258 C1259 1.370 . S
C1258 C1262 1.524 . S
C1259 C1251 1.503 . S
C1259 C1258 1.370 . S
C1259 C1260 1.403 . S
C1260 C1259 1.403 . S
C1260 C1261 1.404 . S
C1260 C1263 1.539 . S
C1261 C1257 1.408 . S
C1261 C1260 1.404 . S
C1261 H1273 0.930 . S
C1262 C1258 1.524 . S
C1262 H1274 0.956 . S
C1262 H1275 0.961 . S
C1262 H1276 0.961 . S
C1263 C1260 1.539 . S
C1263 H1277 0.958 . S
C1263 H1278 0.961 . S
C1263 H1279 0.960 . S
H1264 C1248 0.931 . S
H1265 C1253 0.929 . S
H1266 C1254 0.960 . S
H1267 C1254 0.962 . S
H1268 C1254 0.960 . S
H1269 C1255 0.961 . S
H1270 C1255 0.961 . S
H1271 C1255 0.961 . S
H1272 C1256 0.931 . S
H1273 C1261 0.930 . S
H1274 C1262 0.956 . S
H1275 C1262 0.961 . S
H1276 C1262 0.961 . S
H1277 C1263 0.958 . S
H1278 C1263 0.961 . S
H1279 C1263 0.960 . S
C1280 C1281 1.391 . S
C1280 C1282 1.394 1_455 S
C1280 H1296 0.931 . S
C1281 C1280 1.391 . S
C1281 C1285 1.376 . S
C1282 C1280 1.394 1_655 S
C1282 C1283 1.369 . S
C1282 C1286 1.531 . S
C1283 C1282 1.369 . S
C1283 C1284 1.410 . S
C1283 C1291 1.503 . S
C1284 C1283 1.410 . S
C1284 C1285 1.392 1_655 S
C1284 C1287 1.511 . S
C1285 C1281 1.376 . S
C1285 C1284 1.392 1_455 S
C1285 H1297 0.929 . S
C1286 C1282 1.531 . S
C1286 H1298 0.960 . S
C1286 H1299 0.962 . S
C1286 H1300 0.960 . S
C1287 C1284 1.511 . S
C1287 H1301 0.961 . S
C1287 H1302 0.961 . S
C1287 H1303 0.961 . S
C1288 C1289 1.370 . S
C1288 C1290 1.363 . S
C1288 H1304 0.931 . S
C1289 C1288 1.370 . S
C1289 C1293 1.408 . S
C1290 C1288 1.363 . S
C1290 C1291 1.370 . S
C1290 C1294 1.524 . S
C1291 C1283 1.503 . S
C1291 C1290 1.370 . S
C1291 C1292 1.403 . S
C1292 C1291 1.403 . S
C1292 C1293 1.404 . S
C1292 C1295 1.539 . S
C1293 C1289 1.408 . S
C1293 C1292 1.404 . S
C1293 H1305 0.930 . S
C1294 C1290 1.524 . S
C1294 H1306 0.956 . S
C1294 H1307 0.961 . S
C1294 H1308 0.961 . S
C1295 C1292 1.539 . S
C1295 H1309 0.958 . S
C1295 H1310 0.961 . S
C1295 H1311 0.960 . S
H1296 C1280 0.931 . S
H1297 C1285 0.929 . S
H1298 C1286 0.960 . S
H1299 C1286 0.962 . S
H1300 C1286 0.960 . S
H1301 C1287 0.961 . S
H1302 C1287 0.961 . S
H1303 C1287 0.961 . S
H1304 C1288 0.931 . S
H1305 C1293 0.930 . S
H1306 C1294 0.956 . S
H1307 C1294 0.961 . S
H1308 C1294 0.961 . S
H1309 C1295 0.958 . S
H1310 C1295 0.961 . S
H1311 C1295 0.960 . S
C1312 C1313 1.391 . S
C1312 C1314 1.394 . S
C1312 H1328 0.931 . S
C1313 C1312 1.391 . S
C1313 C1317 1.376 . S
C1314 C1312 1.394 . S
C1314 C1315 1.369 . S
C1314 C1318 1.531 . S
C1315 C1314 1.369 . S
C1315 C1316 1.410 . S
C1315 C1323 1.503 . S
C1316 C1315 1.410 . S
C1316 C1317 1.392 . S
C1316 C1319 1.511 . S
C1317 C1313 1.376 . S
C1317 C1316 1.392 . S
C1317 H1329 0.929 . S
C1318 C1314 1.531 . S
C1318 H1330 0.960 . S
C1318 H1331 0.962 . S
C1318 H1332 0.960 . S
C1319 C1316 1.511 . S
C1319 H1333 0.961 . S
C1319 H1334 0.961 . S
C1319 H1335 0.961 . S
C1320 C1321 1.370 . S
C1320 C1322 1.363 . S
C1320 H1336 0.931 . S
C1321 C1320 1.370 . S
C1321 C1325 1.408 . S
C1322 C1320 1.363 . S
C1322 C1323 1.370 . S
C1322 C1326 1.524 . S
C1323 C1315 1.503 . S
C1323 C1322 1.370 . S
C1323 C1324 1.403 . S
C1324 C1323 1.403 . S
C1324 C1325 1.404 . S
C1324 C1327 1.539 . S
C1325 C1321 1.408 . S
C1325 C1324 1.404 . S
C1325 H1337 0.930 . S
C1326 C1322 1.524 . S
C1326 H1338 0.956 . S
C1326 H1339 0.961 . S
C1326 H1340 0.961 . S
C1327 C1324 1.539 . S
C1327 H1341 0.958 . S
C1327 H1342 0.961 . S
C1327 H1343 0.960 . S
H1328 C1312 0.931 . S
H1329 C1317 0.929 . S
H1330 C1318 0.960 . S
H1331 C1318 0.962 . S
H1332 C1318 0.960 . S
H1333 C1319 0.961 . S
H1334 C1319 0.961 . S
H1335 C1319 0.961 . S
H1336 C1320 0.931 . S
H1337 C1325 0.930 . S
H1338 C1326 0.956 . S
H1339 C1326 0.961 . S
H1340 C1326 0.961 . S
H1341 C1327 0.958 . S
H1342 C1327 0.961 . S
H1343 C1327 0.960 . S
C1344 C1345 1.391 . S
C1344 C1346 1.394 1_455 S
C1344 H1360 0.931 . S
C1345 C1344 1.391 . S
C1345 C1349 1.376 . S
C1346 C1344 1.394 1_655 S
C1346 C1347 1.369 . S
C1346 C1350 1.531 . S
C1347 C1346 1.369 . S
C1347 C1348 1.410 . S
C1347 C1355 1.503 . S
C1348 C1347 1.410 . S
C1348 C1349 1.392 1_655 S
C1348 C1351 1.511 . S
C1349 C1345 1.376 . S
C1349 C1348 1.392 1_455 S
C1349 H1361 0.929 . S
C1350 C1346 1.531 . S
C1350 H1362 0.960 . S
C1350 H1363 0.962 . S
C1350 H1364 0.960 . S
C1351 C1348 1.511 . S
C1351 H1365 0.961 1_655 S
C1351 H1366 0.961 . S
C1351 H1367 0.961 . S
C1352 C1353 1.370 . S
C1352 C1354 1.363 . S
C1352 H1368 0.931 . S
C1353 C1352 1.370 . S
C1353 C1357 1.408 . S
C1354 C1352 1.363 . S
C1354 C1355 1.370 . S
C1354 C1358 1.524 . S
C1355 C1347 1.503 . S
C1355 C1354 1.370 . S
C1355 C1356 1.403 . S
C1356 C1355 1.403 . S
C1356 C1357 1.404 . S
C1356 C1359 1.539 . S
C1357 C1353 1.408 . S
C1357 C1356 1.404 . S
C1357 H1369 0.930 . S
C1358 C1354 1.524 . S
C1358 H1370 0.956 . S
C1358 H1371 0.961 . S
C1358 H1372 0.961 . S
C1359 C1356 1.539 . S
C1359 H1373 0.958 . S
C1359 H1374 0.961 . S
C1359 H1375 0.960 . S
H1360 C1344 0.931 . S
H1361 C1349 0.929 . S
H1362 C1350 0.960 . S
H1363 C1350 0.962 . S
H1364 C1350 0.960 . S
H1365 C1351 0.961 1_455 S
H1366 C1351 0.961 . S
H1367 C1351 0.961 . S
H1368 C1352 0.931 . S
H1369 C1357 0.930 . S
H1370 C1358 0.956 . S
H1371 C1358 0.961 . S
H1372 C1358 0.961 . S
H1373 C1359 0.958 . S
H1374 C1359 0.961 . S
H1375 C1359 0.960 . S
C1376 C1377 1.391 . S
C1376 C1378 1.394 . S
C1376 H1392 0.931 . S
C1377 C1376 1.391 . S
C1377 C1381 1.376 . S
C1378 C1376 1.394 . S
C1378 C1379 1.369 . S
C1378 C1382 1.531 . S
C1379 C1378 1.369 . S
C1379 C1380 1.410 . S
C1379 C1387 1.503 . S
C1380 C1379 1.410 . S
C1380 C1381 1.392 . S
C1380 C1383 1.511 . S
C1381 C1377 1.376 . S
C1381 C1380 1.392 . S
C1381 H1393 0.929 . S
C1382 C1378 1.531 . S
C1382 H1394 0.960 . S
C1382 H1395 0.962 . S
C1382 H1396 0.960 . S
C1383 C1380 1.511 . S
C1383 H1397 0.961 . S
C1383 H1398 0.961 . S
C1383 H1399 0.961 . S
C1384 C1385 1.370 . S
C1384 C1386 1.363 . S
C1384 H1400 0.931 . S
C1385 C1384 1.370 . S
C1385 C1389 1.408 . S
C1386 C1384 1.363 . S
C1386 C1387 1.370 . S
C1386 C1390 1.524 . S
C1387 C1379 1.503 . S
C1387 C1386 1.370 . S
C1387 C1388 1.403 . S
C1388 C1387 1.403 . S
C1388 C1389 1.404 . S
C1388 C1391 1.539 . S
C1389 C1385 1.408 . S
C1389 C1388 1.404 . S
C1389 H1401 0.930 . S
C1390 C1386 1.524 . S
C1390 H1402 0.956 . S
C1390 H1403 0.961 . S
C1390 H1404 0.961 . S
C1391 C1388 1.539 . S
C1391 H1405 0.958 . S
C1391 H1406 0.961 . S
C1391 H1407 0.960 . S
H1392 C1376 0.931 . S
H1393 C1381 0.929 . S
H1394 C1382 0.960 . S
H1395 C1382 0.962 . S
H1396 C1382 0.960 . S
H1397 C1383 0.961 . S
H1398 C1383 0.961 . S
H1399 C1383 0.961 . S
H1400 C1384 0.931 . S
H1401 C1389 0.930 . S
H1402 C1390 0.956 . S
H1403 C1390 0.961 . S
H1404 C1390 0.961 . S
H1405 C1391 0.958 . S
H1406 C1391 0.961 . S
H1407 C1391 0.960 . S
C1408 C1409 1.391 . S
C1408 C1410 1.394 . S
C1408 H1424 0.931 . S
C1409 C1408 1.391 . S
C1409 C1413 1.376 . S
C1410 C1408 1.394 . S
C1410 C1411 1.369 . S
C1410 C1414 1.531 . S
C1411 C1410 1.369 . S
C1411 C1412 1.410 . S
C1411 C1419 1.503 . S
C1412 C1411 1.410 . S
C1412 C1413 1.392 . S
C1412 C1415 1.511 . S
C1413 C1409 1.376 . S
C1413 C1412 1.392 . S
C1413 H1425 0.929 . S
C1414 C1410 1.531 . S
C1414 H1426 0.960 . S
C1414 H1427 0.962 . S
C1414 H1428 0.960 . S
C1415 C1412 1.511 . S
C1415 H1429 0.961 . S
C1415 H1430 0.961 . S
C1415 H1431 0.961 . S
C1416 C1417 1.370 . S
C1416 C1418 1.363 . S
C1416 H1432 0.931 . S
C1417 C1416 1.370 . S
C1417 C1421 1.408 . S
C1418 C1416 1.363 . S
C1418 C1419 1.370 . S
C1418 C1422 1.524 . S
C1419 C1411 1.503 . S
C1419 C1418 1.370 . S
C1419 C1420 1.403 . S
C1420 C1419 1.403 . S
C1420 C1421 1.404 . S
C1420 C1423 1.539 . S
C1421 C1417 1.408 . S
C1421 C1420 1.404 . S
C1421 H1433 0.930 . S
C1422 C1418 1.524 . S
C1422 H1434 0.956 . S
C1422 H1435 0.961 . S
C1422 H1436 0.961 . S
C1423 C1420 1.539 . S
C1423 H1437 0.958 . S
C1423 H1438 0.961 . S
C1423 H1439 0.960 . S
H1424 C1408 0.931 . S
H1425 C1413 0.929 . S
H1426 C1414 0.960 . S
H1427 C1414 0.962 . S
H1428 C1414 0.960 . S
H1429 C1415 0.961 . S
H1430 C1415 0.961 . S
H1431 C1415 0.961 . S
H1432 C1416 0.931 . S
H1433 C1421 0.930 . S
H1434 C1422 0.956 . S
H1435 C1422 0.961 . S
H1436 C1422 0.961 . S
H1437 C1423 0.958 . S
H1438 C1423 0.961 . S
H1439 C1423 0.960 . S
C1440 C1441 1.391 . S
C1440 C1442 1.394 . S
C1440 H1456 0.931 . S
C1441 C1440 1.391 . S
C1441 C1445 1.376 . S
C1442 C1440 1.394 . S
C1442 C1443 1.369 . S
C1442 C1446 1.531 . S
C1443 C1442 1.369 . S
C1443 C1444 1.410 . S
C1443 C1451 1.503 . S
C1444 C1443 1.410 . S
C1444 C1445 1.392 . S
C1444 C1447 1.511 . S
C1445 C1441 1.376 . S
C1445 C1444 1.392 . S
C1445 H1457 0.929 . S
C1446 C1442 1.531 . S
C1446 H1458 0.960 . S
C1446 H1459 0.962 . S
C1446 H1460 0.960 . S
C1447 C1444 1.511 . S
C1447 H1461 0.961 . S
C1447 H1462 0.961 . S
C1447 H1463 0.961 . S
C1448 C1449 1.370 . S
C1448 C1450 1.363 . S
C1448 H1464 0.931 . S
C1449 C1448 1.370 . S
C1449 C1453 1.408 . S
C1450 C1448 1.363 . S
C1450 C1451 1.370 . S
C1450 C1454 1.524 . S
C1451 C1443 1.503 . S
C1451 C1450 1.370 . S
C1451 C1452 1.403 . S
C1452 C1451 1.403 . S
C1452 C1453 1.404 . S
C1452 C1455 1.539 . S
C1453 C1449 1.408 . S
C1453 C1452 1.404 . S
C1453 H1465 0.930 . S
C1454 C1450 1.524 . S
C1454 H1466 0.956 . S
C1454 H1467 0.961 . S
C1454 H1468 0.961 . S
C1455 C1452 1.539 . S
C1455 H1469 0.958 . S
C1455 H1470 0.961 . S
C1455 H1471 0.960 . S
H1456 C1440 0.931 . S
H1457 C1445 0.929 . S
H1458 C1446 0.960 . S
H1459 C1446 0.962 . S
H1460 C1446 0.960 . S
H1461 C1447 0.961 . S
H1462 C1447 0.961 . S
H1463 C1447 0.961 . S
H1464 C1448 0.931 . S
H1465 C1453 0.930 . S
H1466 C1454 0.956 . S
H1467 C1454 0.961 . S
H1468 C1454 0.961 . S
H1469 C1455 0.958 . S
H1470 C1455 0.961 . S
H1471 C1455 0.960 . S
C1472 C1473 1.391 . S
C1472 C1474 1.394 . S
C1472 H1488 0.931 . S
C1473 C1472 1.391 . S
C1473 C1477 1.376 . S
C1474 C1472 1.394 . S
C1474 C1475 1.369 . S
C1474 C1478 1.531 1_565 S
C1475 C1474 1.369 . S
C1475 C1476 1.410 . S
C1475 C1483 1.503 1_455 S
C1476 C1475 1.410 . S
C1476 C1477 1.392 . S
C1476 C1479 1.511 1_455 S
C1477 C1473 1.376 . S
C1477 C1476 1.392 . S
C1477 H1489 0.929 . S
C1478 C1474 1.531 1_545 S
C1478 H1490 0.960 . S
C1478 H1491 0.962 . S
C1478 H1492 0.960 . S
C1479 C1476 1.511 1_655 S
C1479 H1493 0.961 . S
C1479 H1494 0.961 . S
C1479 H1495 0.961 . S
C1480 C1481 1.370 . S
C1480 C1482 1.363 . S
C1480 H1496 0.931 . S
C1481 C1480 1.370 . S
C1481 C1485 1.408 1_545 S
C1482 C1480 1.363 . S
C1482 C1483 1.370 1_545 S
C1482 C1486 1.524 . S
C1483 C1475 1.503 1_655 S
C1483 C1482 1.370 1_565 S
C1483 C1484 1.403 . S
C1484 C1483 1.403 . S
C1484 C1485 1.404 . S
C1484 C1487 1.539 . S
C1485 C1481 1.408 1_565 S
C1485 C1484 1.404 . S
C1485 H1497 0.930 . S
C1486 C1482 1.524 . S
C1486 H1498 0.956 1_655 S
C1486 H1499 0.961 . S
C1486 H1500 0.961 . S
C1487 C1484 1.539 . S
C1487 H1501 0.958 1_655 S
C1487 H1502 0.961 . S
C1487 H1503 0.971 . S
H1488 C1472 0.931 . S
H1489 C1477 0.929 . S
H1490 C1478 0.960 . S
H1491 C1478 0.962 . S
H1492 C1478 0.960 . S
H1493 C1479 0.961 . S
H1494 C1479 0.961 . S
H1495 C1479 0.961 . S
H1496 C1480 0.931 . S
H1497 C1485 0.930 . S
H1498 C1486 0.956 1_455 S
H1499 C1486 0.961 . S
H1500 C1486 0.961 . S
H1501 C1487 0.958 1_455 S
H1502 C1487 0.961 . S
H1503 C1487 0.971 . S
C1504 C1505 1.391 . S
C1504 C1506 1.394 . S
C1504 H1520 0.931 . S
C1505 C1504 1.391 . S
C1505 C1509 1.376 . S
C1506 C1504 1.394 . S
C1506 C1507 1.369 . S
C1506 C1510 1.531 . S
C1507 C1506 1.369 . S
C1507 C1508 1.410 . S
C1507 C1515 1.503 . S
C1508 C1507 1.410 . S
C1508 C1509 1.392 . S
C1508 C1511 1.511 . S
C1509 C1505 1.376 . S
C1509 C1508 1.392 . S
C1509 H1521 0.929 . S
C1510 C1506 1.531 . S
C1510 H1522 0.960 . S
C1510 H1523 0.962 . S
C1510 H1524 0.960 . S
C1511 C1508 1.511 . S
C1511 H1525 0.961 . S
C1511 H1526 0.961 . S
C1511 H1527 0.961 . S
C1512 C1513 1.370 . S
C1512 C1514 1.363 . S
C1512 H1528 0.931 . S
C1513 C1512 1.370 . S
C1513 C1517 1.408 . S
C1514 C1512 1.363 . S
C1514 C1515 1.370 . S
C1514 C1518 1.524 . S
C1515 C1507 1.503 . S
C1515 C1514 1.370 . S
C1515 C1516 1.403 . S
C1516 C1515 1.403 . S
C1516 C1517 1.404 . S
C1516 C1519 1.539 . S
C1517 C1513 1.408 . S
C1517 C1516 1.404 . S
C1517 H1529 0.930 . S
C1518 C1514 1.524 . S
C1518 H1530 0.956 . S
C1518 H1531 0.961 . S
C1518 H1532 0.961 . S
C1519 C1516 1.539 . S
C1519 H1533 0.958 . S
C1519 H1534 0.961 . S
C1519 H1535 0.960 . S
H1520 C1504 0.931 . S
H1521 C1509 0.929 . S
H1522 C1510 0.960 . S
H1523 C1510 0.962 . S
H1524 C1510 0.960 . S
H1525 C1511 0.961 . S
H1526 C1511 0.961 . S
H1527 C1511 0.961 . S
H1528 C1512 0.931 . S
H1529 C1517 0.930 . S
H1530 C1518 0.956 . S
H1531 C1518 0.961 . S
H1532 C1518 0.961 . S
H1533 C1519 0.958 . S
H1534 C1519 0.961 . S
H1535 C1519 0.960 . S
C1536 C1537 1.391 1_565 S
C1536 C1538 1.394 . S
C1536 H1552 0.931 . S
C1537 C1536 1.391 1_545 S
C1537 C1541 1.376 . S
C1538 C1536 1.394 . S
C1538 C1539 1.369 1_565 S
C1538 C1542 1.531 1_554 S
C1539 C1538 1.369 1_545 S
C1539 C1540 1.410 . S
C1539 C1547 1.495 1_544 S
C1540 C1539 1.410 . S
C1540 C1541 1.392 . S
C1540 C1543 1.511 . S
C1541 C1537 1.376 . S
C1541 C1540 1.392 . S
C1541 H1553 0.929 . S
C1542 C1538 1.531 1_556 S
C1542 H1554 0.960 . S
C1542 H1555 0.941 1_556 S
C1542 H1556 0.960 . S
C1543 C1540 1.511 . S
C1543 H1557 0.961 . S
C1543 H1558 0.961 . S
C1543 H1559 0.961 . S
C1544 C1545 1.370 . S
C1544 C1546 1.363 . S
C1544 H1560 0.931 . S
C1545 C1544 1.370 . S
C1545 C1549 1.408 1_565 S
C1546 C1544 1.363 . S
C1546 C1547 1.391 . S
C1546 C1550 1.524 1_556 S
C1547 C1539 1.495 1_566 S
C1547 C1546 1.391 . S
C1547 C1548 1.392 1_565 S
C1548 C1547 1.392 1_545 S
C1548 C1549 1.404 . S
C1548 C1551 1.539 . S
C1549 C1545 1.408 1_545 S
C1549 C1548 1.404 . S
C1549 H1561 0.930 . S
C1550 C1546 1.524 1_554 S
C1550 H1562 0.956 . S
C1550 H1563 0.961 . S
C1550 H1564 0.961 . S
C1551 C1548 1.539 . S
C1551 H1565 0.958 . S
C1551 H1566 0.961 . S
C1551 H1567 0.960 . S
H1552 C1536 0.931 . S
H1553 C1541 0.929 . S
H1554 C1542 0.960 . S
H1555 C1542 0.941 1_554 S
H1556 C1542 0.960 . S
H1557 C1543 0.961 . S
H1558 C1543 0.961 . S
H1559 C1543 0.961 . S
H1560 C1544 0.931 . S
H1561 C1549 0.930 . S
H1562 C1550 0.956 . S
H1563 C1550 0.961 . S
H1564 C1550 0.961 . S
H1565 C1551 0.958 . S
H1566 C1551 0.961 . S
H1567 C1551 0.960 . S
C1568 C1569 1.391 . S
C1568 C1570 1.394 . S
C1568 H1584 0.931 . S
C1569 C1568 1.391 . S
C1569 C1573 1.376 . S
C1570 C1568 1.394 . S
C1570 C1571 1.369 . S
C1570 C1574 1.531 . S
C1571 C1570 1.369 . S
C1571 C1572 1.410 . S
C1571 C1579 1.503 . S
C1572 C1571 1.410 . S
C1572 C1573 1.392 . S
C1572 C1575 1.511 . S
C1573 C1569 1.376 . S
C1573 C1572 1.392 . S
C1573 H1585 0.929 . S
C1574 C1570 1.531 . S
C1574 H1586 0.960 . S
C1574 H1587 0.962 . S
C1574 H1588 0.960 . S
C1575 C1572 1.511 . S
C1575 H1589 0.961 . S
C1575 H1590 0.961 . S
C1575 H1591 0.961 . S
C1576 C1577 1.370 . S
C1576 C1578 1.363 . S
C1576 H1592 0.931 . S
C1577 C1576 1.370 . S
C1577 C1581 1.408 . S
C1578 C1576 1.363 . S
C1578 C1579 1.370 . S
C1578 C1582 1.524 . S
C1579 C1571 1.503 . S
C1579 C1578 1.370 . S
C1579 C1580 1.403 . S
C1580 C1579 1.403 . S
C1580 C1581 1.404 . S
C1580 C1583 1.539 . S
C1581 C1577 1.408 . S
C1581 C1580 1.404 . S
C1581 H1593 0.930 . S
C1582 C1578 1.524 . S
C1582 H1594 0.956 . S
C1582 H1595 0.961 . S
C1582 H1596 0.961 . S
C1583 C1580 1.539 . S
C1583 H1597 0.958 . S
C1583 H1598 0.961 . S
C1583 H1599 0.960 . S
H1584 C1568 0.931 . S
H1585 C1573 0.929 . S
H1586 C1574 0.960 . S
H1587 C1574 0.962 . S
H1588 C1574 0.960 . S
H1589 C1575 0.961 . S
H1590 C1575 0.961 . S
H1591 C1575 0.961 . S
H1592 C1576 0.931 . S
H1593 C1581 0.930 . S
H1594 C1582 0.956 . S
H1595 C1582 0.961 . S
H1596 C1582 0.961 . S
H1597 C1583 0.958 . S
H1598 C1583 0.961 . S
H1599 C1583 0.960 . S
C1600 C1601 1.391 . S
C1600 C1602 1.394 . S
C1600 H1616 0.931 . S
C1601 C1600 1.391 . S
C1601 C1605 1.376 . S
C1602 C1600 1.394 . S
C1602 C1603 1.369 . S
C1602 C1606 1.531 . S
C1603 C1602 1.369 . S
C1603 C1604 1.410 . S
C1603 C1611 1.503 . S
C1604 C1603 1.410 . S
C1604 C1605 1.392 . S
C1604 C1607 1.511 1_565 S
C1605 C1601 1.376 . S
C1605 C1604 1.392 . S
C1605 H1617 0.929 . S
C1606 C1602 1.531 . S
C1606 H1618 0.960 . S
C1606 H1619 0.962 . S
C1606 H1620 0.960 . S
C1607 C1604 1.511 1_545 S
C1607 H1621 0.961 . S
C1607 H1622 0.961 . S
C1607 H1623 0.961 1_545 S
C1608 C1609 1.370 . S
C1608 C1610 1.363 . S
C1608 H1624 0.931 . S
C1609 C1608 1.370 . S
C1609 C1613 1.408 1_545 S
C1610 C1608 1.363 . S
C1610 C1611 1.370 1_545 S
C1610 C1614 1.524 . S
C1611 C1603 1.503 . S
C1611 C1610 1.370 1_565 S
C1611 C1612 1.403 . S
C1612 C1611 1.403 . S
C1612 C1613 1.404 . S
C1612 C1615 1.539 . S
C1613 C1609 1.408 1_565 S
C1613 C1612 1.404 . S
C1613 H1625 0.930 . S
C1614 C1610 1.524 . S
C1614 H1626 0.956 . S
C1614 H1627 0.961 . S
C1614 H1628 0.961 . S
C1615 C1612 1.539 . S
C1615 H1629 0.958 . S
C1615 H1630 0.961 . S
C1615 H1631 0.960 . S
H1616 C1600 0.931 . S
H1617 C1605 0.929 . S
H1618 C1606 0.960 . S
H1619 C1606 0.962 . S
H1620 C1606 0.960 . S
H1621 C1607 0.961 . S
H1622 C1607 0.961 . S
H1623 C1607 0.961 1_565 S
H1624 C1608 0.931 . S
H1625 C1613 0.930 . S
H1626 C1614 0.956 . S
H1627 C1614 0.961 . S
H1628 C1614 0.961 . S
H1629 C1615 0.958 . S
H1630 C1615 0.961 . S
H1631 C1615 0.960 . S
C1632 C1633 1.391 . S
C1632 C1634 1.394 . S
C1632 H1648 0.931 . S
C1633 C1632 1.391 . S
C1633 C1637 1.376 . S
C1634 C1632 1.394 . S
C1634 C1635 1.369 . S
C1634 C1638 1.531 . S
C1635 C1634 1.369 . S
C1635 C1636 1.410 . S
C1635 C1643 1.503 . S
C1636 C1635 1.410 . S
C1636 C1637 1.392 . S
C1636 C1639 1.511 . S
C1637 C1633 1.376 . S
C1637 C1636 1.392 . S
C1637 H1649 0.929 . S
C1638 C1634 1.531 . S
C1638 H1650 0.960 . S
C1638 H1651 0.962 . S
C1638 H1652 0.960 . S
C1639 C1636 1.511 . S
C1639 H1653 0.961 . S
C1639 H1654 0.961 . S
C1639 H1655 0.961 . S
C1640 C1641 1.370 . S
C1640 C1642 1.363 . S
C1640 H1656 0.931 . S
C1641 C1640 1.370 . S
C1641 C1645 1.408 . S
C1642 C1640 1.363 . S
C1642 C1643 1.370 . S
C1642 C1646 1.524 . S
C1643 C1635 1.503 . S
C1643 C1642 1.370 . S
C1643 C1644 1.403 . S
C1644 C1643 1.403 . S
C1644 C1645 1.404 . S
C1644 C1647 1.539 . S
C1645 C1641 1.408 . S
C1645 C1644 1.404 . S
C1645 H1657 0.930 . S
C1646 C1642 1.524 . S
C1646 H1658 0.956 . S
C1646 H1659 0.961 . S
C1646 H1660 0.961 . S
C1647 C1644 1.539 . S
C1647 H1661 0.958 . S
C1647 H1662 0.961 . S
C1647 H1663 0.960 . S
H1648 C1632 0.931 . S
H1649 C1637 0.929 . S
H1650 C1638 0.960 . S
H1651 C1638 0.962 . S
H1652 C1638 0.960 . S
H1653 C1639 0.961 . S
H1654 C1639 0.961 . S
H1655 C1639 0.961 . S
H1656 C1640 0.931 . S
H1657 C1645 0.930 . S
H1658 C1646 0.956 . S
H1659 C1646 0.961 . S
H1660 C1646 0.961 . S
H1661 C1647 0.958 . S
H1662 C1647 0.961 . S
H1663 C1647 0.960 . S
C1664 C1665 1.391 . S
C1664 C1666 1.394 . S
C1664 H1680 0.931 . S
C1665 C1664 1.391 . S
C1665 C1669 1.376 . S
C1666 C1664 1.394 . S
C1666 C1667 1.369 . S
C1666 C1670 1.531 1_556 S
C1667 C1666 1.369 . S
C1667 C1668 1.410 . S
C1667 C1675 1.503 1_456 S
C1668 C1667 1.410 . S
C1668 C1669 1.392 . S
C1668 C1671 1.511 1_455 S
C1669 C1665 1.376 . S
C1669 C1668 1.392 . S
C1669 H1681 0.929 . S
C1670 C1666 1.531 1_554 S
C1670 H1682 0.960 . S
C1670 H1683 0.941 1_545 S
C1670 H1684 0.960 . S
C1671 C1668 1.511 1_655 S
C1671 H1685 0.961 1_545 S
C1671 H1686 0.961 1_545 S
C1671 H1687 0.961 . S
C1672 C1673 1.370 . S
C1672 C1674 1.363 . S
C1672 H1688 0.931 . S
C1673 C1672 1.370 . S
C1673 C1677 1.408 1_565 S
C1674 C1672 1.363 . S
C1674 C1675 1.370 1_565 S
C1674 C1678 1.524 1_655 S
C1675 C1667 1.503 1_654 S
C1675 C1674 1.370 1_545 S
C1675 C1676 1.403 . S
C1676 C1675 1.403 . S
C1676 C1677 1.404 . S
C1676 C1679 1.539 . S
C1677 C1673 1.408 1_545 S
C1677 C1676 1.404 . S
C1677 H1689 0.930 . S
C1678 C1674 1.524 1_455 S
C1678 H1690 0.956 . S
C1678 H1691 0.961 1_554 S
C1678 H1692 0.961 1_455 S
C1679 C1676 1.539 . S
C1679 H1693 0.958 . S
C1679 H1694 0.961 . S
C1679 H1695 0.960 1_554 S
H1680 C1664 0.931 . S
H1681 C1669 0.929 . S
H1682 C1670 0.960 . S
H1683 C1670 0.941 1_565 S
H1684 C1670 0.960 . S
H1685 C1671 0.961 1_565 S
H1686 C1671 0.961 1_565 S
H1687 C1671 0.961 . S
H1688 C1672 0.931 . S
H1689 C1677 0.930 . S
H1690 C1678 0.956 . S
H1691 C1678 0.961 1_556 S
H1692 C1678 0.961 1_655 S
H1693 C1679 0.958 . S
H1694 C1679 0.961 . S
H1695 C1679 0.960 1_556 S
C1696 C1697 1.391 . S
C1696 C1698 1.394 . S
C1696 H1712 0.931 . S
C1697 C1696 1.391 . S
C1697 C1701 1.376 . S
C1698 C1696 1.394 . S
C1698 C1699 1.369 . S
C1698 C1702 1.531 . S
C1699 C1698 1.369 . S
C1699 C1700 1.410 . S
C1699 C1707 1.503 . S
C1700 C1699 1.410 . S
C1700 C1701 1.392 . S
C1700 C1703 1.511 . S
C1701 C1697 1.376 . S
C1701 C1700 1.392 . S
C1701 H1713 0.929 . S
C1702 C1698 1.531 . S
C1702 H1714 0.960 . S
C1702 H1715 0.962 . S
C1702 H1716 0.960 . S
C1703 C1700 1.511 . S
C1703 H1717 0.961 . S
C1703 H1718 0.961 . S
C1703 H1719 0.961 . S
C1704 C1705 1.370 . S
C1704 C1706 1.363 . S
C1704 H1720 0.931 . S
C1705 C1704 1.370 . S
C1705 C1709 1.408 . S
C1706 C1704 1.363 . S
C1706 C1707 1.370 . S
C1706 C1710 1.524 . S
C1707 C1699 1.503 . S
C1707 C1706 1.370 . S
C1707 C1708 1.403 . S
C1708 C1707 1.403 . S
C1708 C1709 1.404 . S
C1708 C1711 1.539 . S
C1709 C1705 1.408 . S
C1709 C1708 1.404 . S
C1709 H1721 0.930 . S
C1710 C1706 1.524 . S
C1710 H1722 0.956 . S
C1710 H1723 0.961 . S
C1710 H1724 0.961 . S
C1711 C1708 1.539 . S
C1711 H1725 0.958 . S
C1711 H1726 0.961 . S
C1711 H1727 0.960 . S
H1712 C1696 0.931 . S
H1713 C1701 0.929 . S
H1714 C1702 0.960 . S
H1715 C1702 0.962 . S
H1716 C1702 0.960 . S
H1717 C1703 0.961 . S
H1718 C1703 0.961 . S
H1719 C1703 0.961 . S
H1720 C1704 0.931 . S
H1721 C1709 0.930 . S
H1722 C1710 0.956 . S
H1723 C1710 0.961 . S
H1724 C1710 0.961 . S
H1725 C1711 0.958 . S
H1726 C1711 0.961 . S
H1727 C1711 0.960 . S
C1728 C1729 1.391 . S
C1728 C1730 1.394 . S
C1728 H1744 0.931 . S
C1729 C1728 1.391 . S
C1729 C1733 1.376 . S
C1730 C1728 1.394 . S
C1730 C1731 1.369 . S
C1730 C1734 1.531 . S
C1731 C1730 1.369 . S
C1731 C1732 1.410 . S
C1731 C1739 1.503 . S
C1732 C1731 1.410 . S
C1732 C1733 1.392 . S
C1732 C1735 1.511 . S
C1733 C1729 1.376 . S
C1733 C1732 1.392 . S
C1733 H1745 0.929 . S
C1734 C1730 1.531 . S
C1734 H1746 0.960 . S
C1734 H1747 0.962 . S
C1734 H1748 0.960 . S
C1735 C1732 1.511 . S
C1735 H1749 0.961 . S
C1735 H1750 0.961 . S
C1735 H1751 0.961 . S
C1736 C1737 1.370 . S
C1736 C1738 1.363 . S
C1736 H1752 0.931 . S
C1737 C1736 1.370 . S
C1737 C1741 1.408 . S
C1738 C1736 1.363 . S
C1738 C1739 1.370 . S
C1738 C1742 1.524 . S
C1739 C1731 1.503 . S
C1739 C1738 1.370 . S
C1739 C1740 1.403 . S
C1740 C1739 1.403 . S
C1740 C1741 1.404 . S
C1740 C1743 1.539 . S
C1741 C1737 1.408 . S
C1741 C1740 1.404 . S
C1741 H1753 0.930 . S
C1742 C1738 1.524 . S
C1742 H1754 0.956 . S
C1742 H1755 0.961 . S
C1742 H1756 0.961 . S
C1743 C1740 1.539 . S
C1743 H1757 0.958 . S
C1743 H1758 0.961 . S
C1743 H1759 0.960 . S
H1744 C1728 0.931 . S
H1745 C1733 0.929 . S
H1746 C1734 0.960 . S
H1747 C1734 0.962 . S
H1748 C1734 0.960 . S
H1749 C1735 0.961 . S
H1750 C1735 0.961 . S
H1751 C1735 0.961 . S
H1752 C1736 0.931 . S
H1753 C1741 0.930 . S
H1754 C1742 0.956 . S
H1755 C1742 0.961 . S
H1756 C1742 0.961 . S
H1757 C1743 0.958 . S
H1758 C1743 0.961 . S
H1759 C1743 0.960 . S
C1760 C1761 1.391 . S
C1760 C1762 1.394 . S
C1760 H1776 0.931 . S
C1761 C1760 1.391 . S
C1761 C1765 1.376 . S
C1762 C1760 1.394 . S
C1762 C1763 1.369 . S
C1762 C1766 1.531 . S
C1763 C1762 1.369 . S
C1763 C1764 1.410 . S
C1763 C1771 1.503 . S
C1764 C1763 1.410 . S
C1764 C1765 1.392 . S
C1764 C1767 1.511 . S
C1765 C1761 1.376 . S
C1765 C1764 1.392 . S
C1765 H1777 0.929 . S
C1766 C1762 1.531 . S
C1766 H1778 0.960 . S
C1766 H1779 0.962 . S
C1766 H1780 0.960 . S
C1767 C1764 1.511 . S
C1767 H1781 0.961 . S
C1767 H1782 0.961 . S
C1767 H1783 0.961 . S
C1768 C1769 1.370 . S
C1768 C1770 1.363 . S
C1768 H1784 0.931 . S
C1769 C1768 1.370 . S
C1769 C1773 1.408 . S
C1770 C1768 1.363 . S
C1770 C1771 1.370 . S
C1770 C1774 1.524 . S
C1771 C1763 1.503 . S
C1771 C1770 1.370 . S
C1771 C1772 1.403 . S
C1772 C1771 1.403 . S
C1772 C1773 1.404 . S
C1772 C1775 1.539 . S
C1773 C1769 1.408 . S
C1773 C1772 1.404 . S
C1773 H1785 0.930 . S
C1774 C1770 1.524 . S
C1774 H1786 0.956 . S
C1774 H1787 0.961 . S
C1774 H1788 0.961 . S
C1775 C1772 1.539 . S
C1775 H1789 0.958 . S
C1775 H1790 0.961 . S
C1775 H1791 0.960 . S
H1776 C1760 0.931 . S
H1777 C1765 0.929 . S
H1778 C1766 0.960 . S
H1779 C1766 0.962 . S
H1780 C1766 0.960 . S
H1781 C1767 0.961 . S
H1782 C1767 0.961 . S
H1783 C1767 0.961 . S
H1784 C1768 0.931 . S
H1785 C1773 0.930 . S
H1786 C1774 0.956 . S
H1787 C1774 0.961 . S
H1788 C1774 0.961 . S
H1789 C1775 0.958 . S
H1790 C1775 0.961 . S
H1791 C1775 0.960 . S
C1792 C1793 1.391 . S
C1792 C1794 1.394 . S
C1792 H1808 0.931 . S
C1793 C1792 1.391 . S
C1793 C1797 1.376 . S
C1794 C1792 1.394 . S
C1794 C1795 1.369 . S
C1794 C1798 1.531 . S
C1795 C1794 1.369 . S
C1795 C1796 1.410 . S
C1795 C1803 1.503 . S
C1796 C1795 1.410 . S
C1796 C1797 1.392 . S
C1796 C1799 1.511 . S
C1797 C1793 1.376 . S
C1797 C1796 1.392 . S
C1797 H1809 0.929 . S
C1798 C1794 1.531 . S
C1798 H1810 0.960 . S
C1798 H1811 0.962 . S
C1798 H1812 0.960 . S
C1799 C1796 1.511 . S
C1799 H1813 0.961 . S
C1799 H1814 0.961 . S
C1799 H1815 0.961 . S
C1800 C1801 1.370 . S
C1800 C1802 1.363 . S
C1800 H1816 0.931 . S
C1801 C1800 1.370 . S
C1801 C1805 1.408 . S
C1802 C1800 1.363 . S
C1802 C1803 1.370 . S
C1802 C1806 1.524 . S
C1803 C1795 1.503 . S
C1803 C1802 1.370 . S
C1803 C1804 1.403 . S
C1804 C1803 1.403 . S
C1804 C1805 1.404 . S
C1804 C1807 1.539 . S
C1805 C1801 1.408 . S
C1805 C1804 1.404 . S
C1805 H1817 0.930 . S
C1806 C1802 1.524 . S
C1806 H1818 0.956 . S
C1806 H1819 0.961 . S
C1806 H1820 0.961 . S
C1807 C1804 1.539 . S
C1807 H1821 0.958 . S
C1807 H1822 0.961 . S
C1807 H1823 0.960 . S
H1808 C1792 0.931 . S
H1809 C1797 0.929 . S
H1810 C1798 0.960 . S
H1811 C1798 0.962 . S
H1812 C1798 0.960 . S
H1813 C1799 0.961 . S
H1814 C1799 0.961 . S
H1815 C1799 0.961 . S
H1816 C1800 0.931 . S
H1817 C1805 0.930 . S
H1818 C1806 0.956 . S
H1819 C1806 0.961 . S
H1820 C1806 0.961 . S
H1821 C1807 0.958 . S
H1822 C1807 0.961 . S
H1823 C1807 0.960 . S
C1824 C1825 1.391 . S
C1824 C1826 1.394 . S
C1824 H1840 0.931 . S
C1825 C1824 1.391 . S
C1825 C1829 1.376 . S
C1826 C1824 1.394 . S
C1826 C1827 1.369 . S
C1826 C1830 1.531 . S
C1827 C1826 1.369 . S
C1827 C1828 1.410 . S
C1827 C1835 1.503 1_554 S
C1828 C1827 1.410 . S
C1828 C1829 1.392 . S
C1828 C1831 1.511 1_554 S
C1829 C1825 1.376 . S
C1829 C1828 1.392 . S
C1829 H1841 0.929 . S
C1830 C1826 1.531 . S
C1830 H1842 0.960 . S
C1830 H1843 0.962 . S
C1830 H1844 0.960 . S
C1831 C1828 1.511 1_556 S
C1831 H1845 0.961 . S
C1831 H1846 0.961 . S
C1831 H1847 0.961 . S
C1832 C1833 1.370 . S
C1832 C1834 1.363 . S
C1832 H1848 0.931 . S
C1833 C1832 1.370 . S
C1833 C1837 1.408 . S
C1834 C1832 1.363 . S
C1834 C1835 1.370 . S
C1834 C1838 1.524 . S
C1835 C1827 1.503 1_556 S
C1835 C1834 1.370 . S
C1835 C1836 1.403 . S
C1836 C1835 1.403 . S
C1836 C1837 1.404 . S
C1836 C1839 1.539 . S
C1837 C1833 1.408 . S
C1837 C1836 1.404 . S
C1837 H1849 0.930 . S
C1838 C1834 1.524 . S
C1838 H1850 0.956 1_556 S
C1838 H1851 0.961 . S
C1838 H1852 0.961 . S
C1839 C1836 1.539 . S
C1839 H1853 0.958 1_556 S
C1839 H1854 0.961 . S
C1839 H1855 0.960 . S
H1840 C1824 0.931 . S
H1841 C1829 0.929 . S
H1842 C1830 0.960 . S
H1843 C1830 0.962 . S
H1844 C1830 0.960 . S
H1845 C1831 0.961 . S
H1846 C1831 0.961 . S
H1847 C1831 0.961 . S
H1848 C1832 0.931 . S
H1849 C1837 0.930 . S
H1850 C1838 0.956 1_554 S
H1851 C1838 0.961 . S
H1852 C1838 0.961 . S
H1853 C1839 0.958 1_554 S
H1854 C1839 0.961 . S
H1855 C1839 0.960 . S
C1856 C1857 1.391 . S
C1856 C1858 1.394 . S
C1856 H1872 0.931 . S
C1857 C1856 1.391 . S
C1857 C1861 1.376 . S
C1858 C1856 1.394 . S
C1858 C1859 1.369 . S
C1858 C1862 1.531 1_455 S
C1859 C1858 1.369 . S
C1859 C1860 1.410 . S
C1859 C1867 1.503 1_455 S
C1860 C1859 1.410 . S
C1860 C1861 1.392 . S
C1860 C1863 1.511 . S
C1861 C1857 1.376 . S
C1861 C1860 1.392 . S
C1861 H1873 0.929 . S
C1862 C1858 1.531 1_655 S
C1862 H1874 0.960 . S
C1862 H1875 0.962 . S
C1862 H1876 0.960 . S
C1863 C1860 1.511 . S
C1863 H1877 0.961 . S
C1863 H1878 0.961 . S
C1863 H1879 0.961 . S
C1864 C1865 1.370 . S
C1864 C1866 1.363 . S
C1864 H1880 0.931 . S
C1865 C1864 1.370 . S
C1865 C1869 1.408 . S
C1866 C1864 1.363 . S
C1866 C1867 1.370 . S
C1866 C1870 1.524 1_655 S
C1867 C1859 1.503 1_655 S
C1867 C1866 1.370 . S
C1867 C1868 1.403 . S
C1868 C1867 1.403 . S
C1868 C1869 1.404 . S
C1868 C1871 1.539 . S
C1869 C1865 1.408 . S
C1869 C1868 1.404 . S
C1869 H1881 0.930 . S
C1870 C1866 1.524 1_455 S
C1870 H1882 0.956 . S
C1870 H1883 0.961 . S
C1870 H1884 0.961 . S
C1871 C1868 1.539 . S
C1871 H1885 0.958 . S
C1871 H1886 0.961 . S
C1871 H1887 0.960 . S
H1872 C1856 0.931 . S
H1873 C1861 0.929 . S
H1874 C1862 0.960 . S
H1875 C1862 0.962 . S
H1876 C1862 0.960 . S
H1877 C1863 0.961 . S
H1878 C1863 0.961 . S
H1879 C1863 0.961 . S
H1880 C1864 0.931 . S
H1881 C1869 0.930 . S
H1882 C1870 0.956 . S
H1883 C1870 0.961 . S
H1884 C1870 0.961 . S
H1885 C1871 0.958 . S
H1886 C1871 0.961 . S
H1887 C1871 0.960 . S
C1888 C1889 1.391 . S
C1888 C1890 1.394 . S
C1888 H1904 0.931 . S
C1889 C1888 1.391 . S
C1889 C1893 1.376 . S
C1890 C1888 1.394 . S
C1890 C1891 1.369 . S
C1890 C1894 1.531 1_554 S
C1891 C1890 1.369 . S
C1891 C1892 1.410 . S
C1891 C1899 1.503 1_454 S
C1892 C1891 1.410 . S
C1892 C1893 1.392 . S
C1892 C1895 1.511 1_455 S
C1893 C1889 1.376 . S
C1893 C1892 1.392 . S
C1893 H1905 0.929 . S
C1894 C1890 1.531 1_556 S
C1894 H1906 0.960 . S
C1894 H1907 0.962 . S
C1894 H1908 0.960 . S
C1895 C1892 1.511 1_655 S
C1895 H1909 0.961 . S
C1895 H1910 0.961 . S
C1895 H1911 0.961 . S
C1896 C1897 1.370 . S
C1896 C1898 1.363 . S
C1896 H1912 0.931 . S
C1897 C1896 1.370 . S
C1897 C1901 1.408 . S
C1898 C1896 1.363 . S
C1898 C1899 1.370 . S
C1898 C1902 1.524 . S
C1899 C1891 1.503 1_656 S
C1899 C1898 1.370 . S
C1899 C1900 1.403 . S
C1900 C1899 1.403 . S
C1900 C1901 1.404 . S
C1900 C1903 1.556 . S
C1901 C1897 1.408 . S
C1901 C1900 1.404 . S
C1901 H1913 0.930 . S
C1902 C1898 1.524 . S
C1902 H1914 0.956 1_655 S
C1902 H1915 0.961 1_556 S
C1902 H1916 0.961 . S
C1903 C1900 1.556 . S
C1903 H1917 0.976 1_655 S
C1903 H1918 0.958 1_556 S
C1903 H1919 0.928 1_556 S
H1904 C1888 0.931 . S
H1905 C1893 0.929 . S
H1906 C1894 0.960 . S
H1907 C1894 0.962 . S
H1908 C1894 0.960 . S
H1909 C1895 0.961 . S
H1910 C1895 0.961 . S
H1911 C1895 0.961 . S
H1912 C1896 0.931 . S
H1913 C1901 0.930 . S
H1914 C1902 0.956 1_455 S
H1915 C1902 0.961 1_554 S
H1916 C1902 0.961 . S
H1917 C1903 0.976 1_455 S
H1918 C1903 0.958 1_554 S
H1919 C1903 0.928 1_554 S
C1920 C1921 1.391 . S
C1920 C1922 1.394 . S
C1920 H1936 0.931 . S
C1921 C1920 1.391 . S
C1921 C1925 1.376 . S
C1922 C1920 1.394 . S
C1922 C1923 1.369 . S
C1922 C1926 1.531 . S
C1923 C1922 1.369 . S
C1923 C1924 1.410 . S
C1923 C1931 1.503 . S
C1924 C1923 1.410 . S
C1924 C1925 1.392 . S
C1924 C1927 1.511 . S
C1925 C1921 1.376 . S
C1925 C1924 1.392 . S
C1925 H1937 0.929 . S
C1926 C1922 1.531 . S
C1926 H1938 0.960 . S
C1926 H1939 0.962 . S
C1926 H1940 0.960 . S
C1927 C1924 1.511 . S
C1927 H1941 0.961 . S
C1927 H1942 0.961 . S
C1927 H1943 0.961 . S
C1928 C1929 1.370 . S
C1928 C1930 1.363 . S
C1928 H1944 0.931 . S
C1929 C1928 1.370 . S
C1929 C1933 1.408 . S
C1930 C1928 1.363 . S
C1930 C1931 1.370 . S
C1930 C1934 1.524 . S
C1931 C1923 1.503 . S
C1931 C1930 1.370 . S
C1931 C1932 1.403 . S
C1932 C1931 1.403 . S
C1932 C1933 1.404 . S
C1932 C1935 1.539 . S
C1933 C1929 1.408 . S
C1933 C1932 1.404 . S
C1933 H1945 0.930 . S
C1934 C1930 1.524 . S
C1934 H1946 0.956 . S
C1934 H1947 0.961 . S
C1934 H1948 0.961 . S
C1935 C1932 1.539 . S
C1935 H1949 0.958 . S
C1935 H1950 0.961 . S
C1935 H1951 0.960 . S
H1936 C1920 0.931 . S
H1937 C1925 0.929 . S
H1938 C1926 0.960 . S
H1939 C1926 0.962 . S
H1940 C1926 0.960 . S
H1941 C1927 0.961 . S
H1942 C1927 0.961 . S
H1943 C1927 0.961 . S
H1944 C1928 0.931 . S
H1945 C1933 0.930 . S
H1946 C1934 0.956 . S
H1947 C1934 0.961 . S
H1948 C1934 0.961 . S
H1949 C1935 0.958 . S
H1950 C1935 0.961 . S
H1951 C1935 0.960 . S
C1952 C1953 1.391 . S
C1952 C1954 1.394 . S
C1952 H1968 0.931 . S
C1953 C1952 1.391 . S
C1953 C1957 1.376 . S
C1954 C1952 1.394 . S
C1954 C1955 1.369 . S
C1954 C1958 1.531 . S
C1955 C1954 1.369 . S
C1955 C1956 1.410 . S
C1955 C1963 1.503 1_545 S
C1956 C1955 1.410 . S
C1956 C1957 1.392 . S
C1956 C1959 1.511 1_545 S
C1957 C1953 1.376 . S
C1957 C1956 1.392 . S
C1957 H1969 0.929 . S
C1958 C1954 1.531 . S
C1958 H1970 0.960 . S
C1958 H1971 0.962 . S
C1958 H1972 0.960 . S
C1959 C1956 1.511 1_565 S
C1959 H1973 0.961 . S
C1959 H1974 0.961 . S
C1959 H1975 0.961 . S
C1960 C1961 1.370 . S
C1960 C1962 1.363 . S
C1960 H1976 0.931 . S
C1961 C1960 1.370 . S
C1961 C1965 1.408 . S
C1962 C1960 1.363 . S
C1962 C1963 1.370 . S
C1962 C1966 1.524 . S
C1963 C1955 1.503 1_565 S
C1963 C1962 1.370 . S
C1963 C1964 1.403 . S
C1964 C1963 1.403 . S
C1964 C1965 1.404 . S
C1964 C1967 1.539 1_565 S
C1965 C1961 1.408 . S
C1965 C1964 1.404 . S
C1965 H1977 0.930 . S
C1966 C1962 1.524 . S
C1966 H1978 0.956 . S
C1966 H1979 0.961 . S
C1966 H1980 0.961 . S
C1967 C1964 1.539 1_545 S
C1967 H1981 0.958 . S
C1967 H1982 0.961 1_545 S
C1967 H1983 0.960 . S
H1968 C1952 0.931 . S
H1969 C1957 0.929 . S
H1970 C1958 0.960 . S
H1971 C1958 0.962 . S
H1972 C1958 0.960 . S
H1973 C1959 0.961 . S
H1974 C1959 0.961 . S
H1975 C1959 0.961 . S
H1976 C1960 0.931 . S
H1977 C1965 0.930 . S
H1978 C1966 0.956 . S
H1979 C1966 0.961 . S
H1980 C1966 0.961 . S
H1981 C1967 0.958 . S
H1982 C1967 0.961 1_565 S
H1983 C1967 0.960 . S
C1984 C1985 1.391 . S
C1984 C1986 1.394 . S
C1984 H2000 0.931 . S
C1985 C1984 1.391 . S
C1985 C1989 1.376 . S
C1986 C1984 1.394 . S
C1986 C1987 1.369 . S
C1986 C1990 1.531 . S
C1987 C1986 1.369 . S
C1987 C1988 1.410 . S
C1987 C1995 1.503 . S
C1988 C1987 1.410 . S
C1988 C1989 1.392 . S
C1988 C1991 1.511 . S
C1989 C1985 1.376 . S
C1989 C1988 1.392 . S
C1989 H2001 0.929 . S
C1990 C1986 1.531 . S
C1990 H2002 0.960 . S
C1990 H2003 0.962 . S
C1990 H2004 0.960 . S
C1991 C1988 1.511 . S
C1991 H2005 0.961 . S
C1991 H2006 0.961 . S
C1991 H2007 0.961 . S
C1992 C1993 1.370 . S
C1992 C1994 1.363 . S
C1992 H2008 0.931 . S
C1993 C1992 1.370 . S
C1993 C1997 1.408 . S
C1994 C1992 1.363 . S
C1994 C1995 1.370 . S
C1994 C1998 1.524 . S
C1995 C1987 1.503 . S
C1995 C1994 1.370 . S
C1995 C1996 1.403 . S
C1996 C1995 1.403 . S
C1996 C1997 1.404 . S
C1996 C1999 1.539 . S
C1997 C1993 1.408 . S
C1997 C1996 1.404 . S
C1997 H2009 0.930 . S
C1998 C1994 1.524 . S
C1998 H2010 0.956 . S
C1998 H2011 0.961 . S
C1998 H2012 0.961 . S
C1999 C1996 1.539 . S
C1999 H2013 0.958 . S
C1999 H2014 0.961 . S
C1999 H2015 0.960 . S
H2000 C1984 0.931 . S
H2001 C1989 0.929 . S
H2002 C1990 0.960 . S
H2003 C1990 0.962 . S
H2004 C1990 0.960 . S
H2005 C1991 0.961 . S
H2006 C1991 0.961 . S
H2007 C1991 0.961 . S
H2008 C1992 0.931 . S
H2009 C1997 0.930 . S
H2010 C1998 0.956 . S
H2011 C1998 0.961 . S
H2012 C1998 0.961 . S
H2013 C1999 0.958 . S
H2014 C1999 0.961 . S
H2015 C1999 0.960 . S
C2016 C2017 1.391 . S
C2016 C2018 1.394 . S
C2016 H2032 0.931 . S
C2017 C2016 1.391 . S
C2017 C2021 1.376 . S
C2018 C2016 1.394 . S
C2018 C2019 1.369 . S
C2018 C2022 1.531 1_545 S
C2019 C2018 1.369 . S
C2019 C2020 1.410 . S
C2019 C2027 1.503 1_545 S
C2020 C2019 1.410 . S
C2020 C2021 1.392 . S
C2020 C2023 1.511 . S
C2021 C2017 1.376 . S
C2021 C2020 1.392 . S
C2021 H2033 0.929 . S
C2022 C2018 1.531 1_565 S
C2022 H2034 0.960 . S
C2022 H2035 0.962 . S
C2022 H2036 0.960 . S
C2023 C2020 1.511 . S
C2023 H2037 0.961 . S
C2023 H2038 0.961 . S
C2023 H2039 0.961 . S
C2024 C2025 1.370 . S
C2024 C2026 1.363 . S
C2024 H2040 0.931 . S
C2025 C2024 1.370 . S
C2025 C2029 1.408 . S
C2026 C2024 1.363 . S
C2026 C2027 1.370 . S
C2026 C2030 1.524 1_565 S
C2027 C2019 1.503 1_565 S
C2027 C2026 1.370 . S
C2027 C2028 1.403 . S
C2028 C2027 1.403 . S
C2028 C2029 1.404 . S
C2028 C2031 1.539 . S
C2029 C2025 1.408 . S
C2029 C2028 1.404 . S
C2029 H2041 0.930 . S
C2030 C2026 1.524 1_545 S
C2030 H2042 0.956 . S
C2030 H2043 0.961 . S
C2030 H2044 0.961 . S
C2031 C2028 1.539 . S
C2031 H2045 0.958 . S
C2031 H2046 0.961 . S
C2031 H2047 0.960 . S
H2032 C2016 0.931 . S
H2033 C2021 0.929 . S
H2034 C2022 0.960 . S
H2035 C2022 0.962 . S
H2036 C2022 0.960 . S
H2037 C2023 0.961 . S
H2038 C2023 0.961 . S
H2039 C2023 0.961 . S
H2040 C2024 0.931 . S
H2041 C2029 0.930 . S
H2042 C2030 0.956 . S
H2043 C2030 0.961 . S
H2044 C2030 0.961 . S
H2045 C2031 0.958 . S
H2046 C2031 0.961 . S
H2047 C2031 0.960 . S
C2048 C2049 1.391 . S
C2048 C2050 1.394 . S
C2048 H2064 0.931 . S
C2049 C2048 1.391 . S
C2049 C2053 1.376 . S
C2050 C2048 1.394 . S
C2050 C2051 1.369 . S
C2050 C2054 1.531 . S
C2051 C2050 1.369 . S
C2051 C2052 1.410 . S
C2051 C2059 1.503 1_554 S
C2052 C2051 1.410 . S
C2052 C2053 1.392 . S
C2052 C2055 1.511 1_554 S
C2053 C2049 1.376 . S
C2053 C2052 1.392 . S
C2053 H2065 0.929 . S
C2054 C2050 1.531 . S
C2054 H2066 0.960 . S
C2054 H2067 0.962 . S
C2054 H2068 0.960 . S
C2055 C2052 1.511 1_556 S
C2055 H2069 0.961 . S
C2055 H2070 0.961 . S
C2055 H2071 0.961 . S
C2056 C2057 1.370 . S
C2056 C2058 1.363 . S
C2056 H2072 0.931 . S
C2057 C2056 1.370 . S
C2057 C2061 1.408 . S
C2058 C2056 1.363 . S
C2058 C2059 1.370 . S
C2058 C2062 1.524 1_556 S
C2059 C2051 1.503 1_556 S
C2059 C2058 1.370 . S
C2059 C2060 1.403 . S
C2060 C2059 1.403 . S
C2060 C2061 1.404 . S
C2060 C2063 1.539 . S
C2061 C2057 1.408 . S
C2061 C2060 1.404 . S
C2061 H2073 0.930 . S
C2062 C2058 1.524 1_554 S
C2062 H2074 0.956 . S
C2062 H2075 0.961 . S
C2062 H2076 0.961 . S
C2063 C2060 1.539 . S
C2063 H2077 0.958 . S
C2063 H2078 0.961 . S
C2063 H2079 0.960 . S
H2064 C2048 0.931 . S
H2065 C2053 0.929 . S
H2066 C2054 0.960 . S
H2067 C2054 0.962 . S
H2068 C2054 0.960 . S
H2069 C2055 0.961 . S
H2070 C2055 0.961 . S
H2071 C2055 0.961 . S
H2072 C2056 0.931 . S
H2073 C2061 0.930 . S
H2074 C2062 0.956 . S
H2075 C2062 0.961 . S
H2076 C2062 0.961 . S
H2077 C2063 0.958 . S
H2078 C2063 0.961 . S
H2079 C2063 0.960 . S
C2080 C2081 1.391 . S
C2080 C2082 1.394 . S
C2080 H2096 0.931 . S
C2081 C2080 1.391 . S
C2081 C2085 1.376 . S
C2082 C2080 1.394 . S
C2082 C2083 1.369 . S
C2082 C2086 1.531 . S
C2083 C2082 1.369 . S
C2083 C2084 1.410 . S
C2083 C2091 1.503 1_545 S
C2084 C2083 1.410 . S
C2084 C2085 1.392 . S
C2084 C2087 1.511 1_545 S
C2085 C2081 1.376 . S
C2085 C2084 1.392 . S
C2085 H2097 0.929 . S
C2086 C2082 1.531 . S
C2086 H2098 0.960 . S
C2086 H2099 0.962 . S
C2086 H2100 0.960 . S
C2087 C2084 1.511 1_565 S
C2087 H2101 0.961 . S
C2087 H2102 0.961 . S
C2087 H2103 0.953 1_565 S
C2088 C2089 1.370 . S
C2088 C2090 1.363 . S
C2088 H2104 0.931 . S
C2089 C2088 1.370 . S
C2089 C2093 1.408 . S
C2090 C2088 1.363 . S
C2090 C2091 1.370 . S
C2090 C2094 1.524 . S
C2091 C2083 1.503 1_565 S
C2091 C2090 1.370 . S
C2091 C2092 1.403 . S
C2092 C2091 1.403 . S
C2092 C2093 1.404 . S
C2092 C2095 1.539 1_565 S
C2093 C2089 1.408 . S
C2093 C2092 1.404 . S
C2093 H2105 0.930 . S
C2094 C2090 1.524 . S
C2094 H2106 0.956 . S
C2094 H2107 0.961 . S
C2094 H2108 0.961 . S
C2095 C2092 1.539 1_545 S
C2095 H2109 0.958 . S
C2095 H2110 0.961 . S
C2095 H2111 0.960 . S
H2096 C2080 0.931 . S
H2097 C2085 0.929 . S
H2098 C2086 0.960 . S
H2099 C2086 0.962 . S
H2100 C2086 0.960 . S
H2101 C2087 0.961 . S
H2102 C2087 0.961 . S
H2103 C2087 0.953 1_545 S
H2104 C2088 0.931 . S
H2105 C2093 0.930 . S
H2106 C2094 0.956 . S
H2107 C2094 0.961 . S
H2108 C2094 0.961 . S
H2109 C2095 0.958 . S
H2110 C2095 0.961 . S
H2111 C2095 0.960 . S
C2112 C2113 1.391 . S
C2112 C2114 1.394 . S
C2112 H2128 0.931 . S
C2113 C2112 1.391 . S
C2113 C2117 1.376 . S
C2114 C2112 1.394 . S
C2114 C2115 1.369 . S
C2114 C2118 1.531 . S
C2115 C2114 1.369 . S
C2115 C2116 1.410 . S
C2115 C2123 1.503 . S
C2116 C2115 1.410 . S
C2116 C2117 1.392 . S
C2116 C2119 1.511 . S
C2117 C2113 1.376 . S
C2117 C2116 1.392 . S
C2117 H2129 0.929 . S
C2118 C2114 1.531 . S
C2118 H2130 0.960 . S
C2118 H2131 0.962 . S
C2118 H2132 0.960 . S
C2119 C2116 1.511 . S
C2119 H2133 0.961 . S
C2119 H2134 0.961 . S
C2119 H2135 0.961 . S
C2120 C2121 1.370 . S
C2120 C2122 1.363 . S
C2120 H2136 0.931 . S
C2121 C2120 1.370 . S
C2121 C2125 1.408 . S
C2122 C2120 1.363 . S
C2122 C2123 1.370 . S
C2122 C2126 1.524 . S
C2123 C2115 1.503 . S
C2123 C2122 1.370 . S
C2123 C2124 1.403 . S
C2124 C2123 1.403 . S
C2124 C2125 1.404 . S
C2124 C2127 1.539 . S
C2125 C2121 1.408 . S
C2125 C2124 1.404 . S
C2125 H2137 0.930 . S
C2126 C2122 1.524 . S
C2126 H2138 0.956 . S
C2126 H2139 0.961 . S
C2126 H2140 0.961 . S
C2127 C2124 1.539 . S
C2127 H2141 0.958 . S
C2127 H2142 0.961 . S
C2127 H2143 0.960 . S
H2128 C2112 0.931 . S
H2129 C2117 0.929 . S
H2130 C2118 0.960 . S
H2131 C2118 0.962 . S
H2132 C2118 0.960 . S
H2133 C2119 0.961 . S
H2134 C2119 0.961 . S
H2135 C2119 0.961 . S
H2136 C2120 0.931 . S
H2137 C2125 0.930 . S
H2138 C2126 0.956 . S
H2139 C2126 0.961 . S
H2140 C2126 0.961 . S
H2141 C2127 0.958 . S
H2142 C2127 0.961 . S
H2143 C2127 0.960 . S
C2144 C2145 1.391 . S
C2144 C2146 1.394 . S
C2144 H2160 0.931 . S
C2145 C2144 1.391 . S
C2145 C2149 1.376 . S
C2146 C2144 1.394 . S
C2146 C2147 1.369 . S
C2146 C2150 1.531 . S
C2147 C2146 1.369 . S
C2147 C2148 1.410 . S
C2147 C2155 1.503 1_545 S
C2148 C2147 1.410 . S
C2148 C2149 1.392 . S
C2148 C2151 1.511 1_545 S
C2149 C2145 1.376 . S
C2149 C2148 1.392 . S
C2149 H2161 0.929 . S
C2150 C2146 1.531 . S
C2150 H2162 0.960 . S
C2150 H2163 0.962 . S
C2150 H2164 0.960 . S
C2151 C2148 1.511 1_565 S
C2151 H2165 0.961 . S
C2151 H2166 0.961 . S
C2151 H2167 0.961 . S
C2152 C2153 1.370 . S
C2152 C2154 1.363 . S
C2152 H2168 0.931 . S
C2153 C2152 1.370 . S
C2153 C2157 1.408 . S
C2154 C2152 1.363 . S
C2154 C2155 1.370 . S
C2154 C2158 1.524 . S
C2155 C2147 1.503 1_565 S
C2155 C2154 1.370 . S
C2155 C2156 1.403 . S
C2156 C2155 1.403 . S
C2156 C2157 1.404 . S
C2156 C2159 1.539 1_565 S
C2157 C2153 1.408 . S
C2157 C2156 1.404 . S
C2157 H2169 0.930 . S
C2158 C2154 1.524 . S
C2158 H2170 0.956 . S
C2158 H2171 0.961 . S
C2158 H2172 0.961 . S
C2159 C2156 1.539 1_545 S
C2159 H2173 0.958 . S
C2159 H2174 0.961 1_545 S
C2159 H2175 0.960 . S
H2160 C2144 0.931 . S
H2161 C2149 0.929 . S
H2162 C2150 0.960 . S
H2163 C2150 0.962 . S
H2164 C2150 0.960 . S
H2165 C2151 0.961 . S
H2166 C2151 0.961 . S
H2167 C2151 0.961 . S
H2168 C2152 0.931 . S
H2169 C2157 0.930 . S
H2170 C2158 0.956 . S
H2171 C2158 0.961 . S
H2172 C2158 0.961 . S
H2173 C2159 0.958 . S
H2174 C2159 0.961 1_565 S
H2175 C2159 0.960 . S
C2176 C2177 1.391 . S
C2176 C2178 1.394 . S
C2176 H2192 0.931 . S
C2177 C2176 1.391 . S
C2177 C2181 1.376 . S
C2178 C2176 1.394 . S
C2178 C2179 1.369 . S
C2178 C2182 1.531 . S
C2179 C2178 1.369 . S
C2179 C2180 1.426 . S
C2179 C2187 1.503 1_556 S
C2180 C2179 1.426 . S
C2180 C2181 1.436 . S
C2180 C2183 1.455 1_556 S
C2181 C2177 1.376 . S
C2181 C2180 1.436 . S
C2181 H2193 0.929 . S
C2182 C2178 1.531 . S
C2182 H2194 0.960 . S
C2182 H2195 0.962 . S
C2182 H2196 0.960 . S
C2183 C2180 1.455 1_554 S
C2183 H2197 0.961 . S
C2183 H2198 0.961 . S
C2183 H2199 0.961 . S
C2184 C2185 1.370 . S
C2184 C2186 1.363 . S
C2184 H2200 0.931 . S
C2185 C2184 1.370 . S
C2185 C2189 1.408 . S
C2186 C2184 1.363 . S
C2186 C2187 1.370 . S
C2186 C2190 1.524 1_554 S
C2187 C2179 1.503 1_554 S
C2187 C2186 1.370 . S
C2187 C2188 1.403 . S
C2188 C2187 1.403 . S
C2188 C2189 1.404 . S
C2188 C2191 1.539 . S
C2189 C2185 1.408 . S
C2189 C2188 1.404 . S
C2189 H2201 0.930 . S
C2190 C2186 1.524 1_556 S
C2190 H2202 0.956 . S
C2190 H2203 0.961 . S
C2190 H2204 0.961 . S
C2191 C2188 1.539 . S
C2191 H2205 0.958 1_565 S
C2191 H2206 0.961 . S
C2191 H2207 0.960 . S
H2192 C2176 0.931 . S
H2193 C2181 0.929 . S
H2194 C2182 0.960 . S
H2195 C2182 0.962 . S
H2196 C2182 0.960 . S
H2197 C2183 0.961 . S
H2198 C2183 0.961 . S
H2199 C2183 0.961 . S
H2200 C2184 0.931 . S
H2201 C2189 0.930 . S
H2202 C2190 0.956 . S
H2203 C2190 0.961 . S
H2204 C2190 0.961 . S
H2205 C2191 0.958 1_545 S
H2206 C2191 0.961 . S
H2207 C2191 0.960 . S
C2208 C2209 1.391 . S
C2208 C2210 1.394 . S
C2208 H2224 0.931 . S
C2209 C2208 1.391 . S
C2209 C2213 1.376 . S
C2210 C2208 1.394 . S
C2210 C2211 1.369 . S
C2210 C2214 1.531 . S
C2211 C2210 1.369 . S
C2211 C2212 1.410 . S
C2211 C2219 1.503 . S
C2212 C2211 1.410 . S
C2212 C2213 1.392 . S
C2212 C2215 1.511 . S
C2213 C2209 1.376 . S
C2213 C2212 1.392 . S
C2213 H2225 0.929 . S
C2214 C2210 1.531 . S
C2214 H2226 0.960 . S
C2214 H2227 0.962 . S
C2214 H2228 0.960 . S
C2215 C2212 1.511 . S
C2215 H2229 0.961 . S
C2215 H2230 0.961 . S
C2215 H2231 0.961 . S
C2216 C2217 1.370 . S
C2216 C2218 1.363 . S
C2216 H2232 0.931 . S
C2217 C2216 1.370 . S
C2217 C2221 1.408 . S
C2218 C2216 1.363 . S
C2218 C2219 1.370 . S
C2218 C2222 1.524 . S
C2219 C2211 1.503 . S
C2219 C2218 1.370 . S
C2219 C2220 1.403 . S
C2220 C2219 1.403 . S
C2220 C2221 1.404 . S
C2220 C2223 1.539 . S
C2221 C2217 1.408 . S
C2221 C2220 1.404 . S
C2221 H2233 0.930 . S
C2222 C2218 1.524 . S
C2222 H2234 0.956 . S
C2222 H2235 0.961 . S
C2222 H2236 0.961 . S
C2223 C2220 1.539 . S
C2223 H2237 0.958 . S
C2223 H2238 0.961 . S
C2223 H2239 0.960 . S
H2224 C2208 0.931 . S
H2225 C2213 0.929 . S
H2226 C2214 0.960 . S
H2227 C2214 0.962 . S
H2228 C2214 0.960 . S
H2229 C2215 0.961 . S
H2230 C2215 0.961 . S
H2231 C2215 0.961 . S
H2232 C2216 0.931 . S
H2233 C2221 0.930 . S
H2234 C2222 0.956 . S
H2235 C2222 0.961 . S
H2236 C2222 0.961 . S
H2237 C2223 0.958 . S
H2238 C2223 0.961 . S
H2239 C2223 0.960 . S
C2240 C2241 1.391 . S
C2240 C2242 1.394 . S
C2240 H2256 0.931 . S
C2241 C2240 1.391 . S
C2241 C2245 1.376 . S
C2242 C2240 1.394 . S
C2242 C2243 1.369 . S
C2242 C2246 1.531 1_556 S
C2243 C2242 1.369 . S
C2243 C2244 1.410 . S
C2243 C2251 1.503 1_556 S
C2244 C2243 1.410 . S
C2244 C2245 1.392 . S
C2244 C2247 1.511 . S
C2245 C2241 1.376 . S
C2245 C2244 1.392 . S
C2245 H2257 0.929 . S
C2246 C2242 1.531 1_554 S
C2246 H2258 0.960 . S
C2246 H2259 0.962 . S
C2246 H2260 0.960 . S
C2247 C2244 1.511 . S
C2247 H2261 0.961 . S
C2247 H2262 0.961 . S
C2247 H2263 0.961 . S
C2248 C2249 1.370 . S
C2248 C2250 1.363 . S
C2248 H2264 0.931 . S
C2249 C2248 1.370 . S
C2249 C2253 1.408 . S
C2250 C2248 1.363 . S
C2250 C2251 1.370 . S
C2250 C2254 1.524 1_554 S
C2251 C2243 1.503 1_554 S
C2251 C2250 1.370 . S
C2251 C2252 1.403 . S
C2252 C2251 1.403 . S
C2252 C2253 1.404 . S
C2252 C2255 1.539 . S
C2253 C2249 1.408 . S
C2253 C2252 1.404 . S
C2253 H2265 0.930 . S
C2254 C2250 1.524 1_556 S
C2254 H2266 0.956 . S
C2254 H2267 0.961 . S
C2254 H2268 0.961 . S
C2255 C2252 1.539 . S
C2255 H2269 0.958 . S
C2255 H2270 0.961 . S
C2255 H2271 0.960 . S
H2256 C2240 0.931 . S
H2257 C2245 0.929 . S
H2258 C2246 0.960 . S
H2259 C2246 0.962 . S
H2260 C2246 0.960 . S
H2261 C2247 0.961 . S
H2262 C2247 0.961 . S
H2263 C2247 0.961 . S
H2264 C2248 0.931 . S
H2265 C2253 0.930 . S
H2266 C2254 0.956 . S
H2267 C2254 0.961 . S
H2268 C2254 0.961 . S
H2269 C2255 0.958 . S
H2270 C2255 0.961 . S
H2271 C2255 0.960 . S
C2272 C2273 1.391 . S
C2272 C2274 1.394 . S
C2272 H2288 0.931 . S
C2273 C2272 1.391 . S
C2273 C2277 1.376 . S
C2274 C2272 1.394 . S
C2274 C2275 1.369 . S
C2274 C2278 1.531 . S
C2275 C2274 1.369 . S
C2275 C2276 1.410 . S
C2275 C2283 1.503 . S
C2276 C2275 1.410 . S
C2276 C2277 1.392 . S
C2276 C2279 1.511 . S
C2277 C2273 1.376 . S
C2277 C2276 1.392 . S
C2277 H2289 0.929 . S
C2278 C2274 1.531 . S
C2278 H2290 0.960 . S
C2278 H2291 0.962 . S
C2278 H2292 0.960 . S
C2279 C2276 1.511 . S
C2279 H2293 0.961 . S
C2279 H2294 0.961 . S
C2279 H2295 0.961 . S
C2280 C2281 1.370 . S
C2280 C2282 1.363 . S
C2280 H2296 0.931 . S
C2281 C2280 1.370 . S
C2281 C2285 1.408 . S
C2282 C2280 1.363 . S
C2282 C2283 1.370 . S
C2282 C2286 1.524 . S
C2283 C2275 1.503 . S
C2283 C2282 1.370 . S
C2283 C2284 1.403 . S
C2284 C2283 1.403 . S
C2284 C2285 1.404 . S
C2284 C2287 1.539 . S
C2285 C2281 1.408 . S
C2285 C2284 1.404 . S
C2285 H2297 0.930 . S
C2286 C2282 1.524 . S
C2286 H2298 0.956 . S
C2286 H2299 0.961 . S
C2286 H2300 0.961 . S
C2287 C2284 1.539 . S
C2287 H2301 0.958 . S
C2287 H2302 0.961 . S
C2287 H2303 0.960 . S
H2288 C2272 0.931 . S
H2289 C2277 0.929 . S
H2290 C2278 0.960 . S
H2291 C2278 0.962 . S
H2292 C2278 0.960 . S
H2293 C2279 0.961 . S
H2294 C2279 0.961 . S
H2295 C2279 0.961 . S
H2296 C2280 0.931 . S
H2297 C2285 0.930 . S
H2298 C2286 0.956 . S
H2299 C2286 0.961 . S
H2300 C2286 0.961 . S
H2301 C2287 0.958 . S
H2302 C2287 0.961 . S
H2303 C2287 0.960 . S
C2304 C2305 1.391 . S
C2304 C2306 1.394 . S
C2304 H2320 0.931 . S
C2305 C2304 1.391 . S
C2305 C2309 1.376 . S
C2306 C2304 1.394 . S
C2306 C2307 1.369 . S
C2306 C2310 1.531 . S
C2307 C2306 1.369 . S
C2307 C2308 1.410 . S
C2307 C2315 1.503 . S
C2308 C2307 1.410 . S
C2308 C2309 1.392 . S
C2308 C2311 1.511 . S
C2309 C2305 1.376 . S
C2309 C2308 1.392 . S
C2309 H2321 0.929 . S
C2310 C2306 1.531 . S
C2310 H2322 0.960 . S
C2310 H2323 0.962 . S
C2310 H2324 0.960 . S
C2311 C2308 1.511 . S
C2311 H2325 0.961 . S
C2311 H2326 0.961 . S
C2311 H2327 0.961 . S
C2312 C2313 1.370 . S
C2312 C2314 1.363 . S
C2312 H2328 0.931 . S
C2313 C2312 1.370 . S
C2313 C2317 1.408 . S
C2314 C2312 1.363 . S
C2314 C2315 1.370 . S
C2314 C2318 1.524 . S
C2315 C2307 1.503 . S
C2315 C2314 1.370 . S
C2315 C2316 1.403 . S
C2316 C2315 1.403 . S
C2316 C2317 1.404 . S
C2316 C2319 1.539 . S
C2317 C2313 1.408 . S
C2317 C2316 1.404 . S
C2317 H2329 0.930 . S
C2318 C2314 1.524 . S
C2318 H2330 0.956 . S
C2318 H2331 0.961 . S
C2318 H2332 0.961 . S
C2319 C2316 1.539 . S
C2319 H2333 0.958 . S
C2319 H2334 0.961 . S
C2319 H2335 0.960 . S
H2320 C2304 0.931 . S
H2321 C2309 0.929 . S
H2322 C2310 0.960 . S
H2323 C2310 0.962 . S
H2324 C2310 0.960 . S
H2325 C2311 0.961 . S
H2326 C2311 0.961 . S
H2327 C2311 0.961 . S
H2328 C2312 0.931 . S
H2329 C2317 0.930 . S
H2330 C2318 0.956 . S
H2331 C2318 0.961 . S
H2332 C2318 0.961 . S
H2333 C2319 0.958 . S
H2334 C2319 0.961 . S
H2335 C2319 0.960 . S
C2336 C2337 1.391 . S
C2336 C2338 1.394 . S
C2336 H2352 0.931 . S
C2337 C2336 1.391 . S
C2337 C2341 1.376 . S
C2338 C2336 1.394 . S
C2338 C2339 1.369 . S
C2338 C2342 1.531 . S
C2339 C2338 1.369 . S
C2339 C2340 1.410 . S
C2339 C2347 1.503 . S
C2340 C2339 1.410 . S
C2340 C2341 1.392 . S
C2340 C2343 1.511 . S
C2341 C2337 1.376 . S
C2341 C2340 1.392 . S
C2341 H2353 0.929 . S
C2342 C2338 1.531 . S
C2342 H2354 0.960 . S
C2342 H2355 0.962 . S
C2342 H2356 0.960 . S
C2343 C2340 1.511 . S
C2343 H2357 0.961 . S
C2343 H2358 0.961 . S
C2343 H2359 0.961 . S
C2344 C2345 1.370 . S
C2344 C2346 1.363 . S
C2344 H2360 0.931 . S
C2345 C2344 1.370 . S
C2345 C2349 1.408 . S
C2346 C2344 1.363 . S
C2346 C2347 1.370 . S
C2346 C2350 1.524 . S
C2347 C2339 1.503 . S
C2347 C2346 1.370 . S
C2347 C2348 1.403 . S
C2348 C2347 1.403 . S
C2348 C2349 1.404 . S
C2348 C2351 1.539 . S
C2349 C2345 1.408 . S
C2349 C2348 1.404 . S
C2349 H2361 0.930 . S
C2350 C2346 1.524 . S
C2350 H2362 0.956 . S
C2350 H2363 0.961 . S
C2350 H2364 0.961 . S
C2351 C2348 1.539 . S
C2351 H2365 0.958 . S
C2351 H2366 0.961 . S
C2351 H2367 0.960 . S
H2352 C2336 0.931 . S
H2353 C2341 0.929 . S
H2354 C2342 0.960 . S
H2355 C2342 0.962 . S
H2356 C2342 0.960 . S
H2357 C2343 0.961 . S
H2358 C2343 0.961 . S
H2359 C2343 0.961 . S
H2360 C2344 0.931 . S
H2361 C2349 0.930 . S
H2362 C2350 0.956 . S
H2363 C2350 0.961 . S
H2364 C2350 0.961 . S
H2365 C2351 0.958 . S
H2366 C2351 0.961 . S
H2367 C2351 0.960 . S
C2368 C2369 1.391 . S
C2368 C2370 1.394 . S
C2368 H2384 0.931 . S
C2369 C2368 1.391 . S
C2369 C2373 1.376 . S
C2370 C2368 1.394 . S
C2370 C2371 1.369 . S
C2370 C2374 1.531 1_556 S
C2371 C2370 1.369 . S
C2371 C2372 1.410 . S
C2371 C2379 1.503 1_556 S
C2372 C2371 1.410 . S
C2372 C2373 1.392 . S
C2372 C2375 1.511 . S
C2373 C2369 1.376 . S
C2373 C2372 1.392 . S
C2373 H2385 0.929 . S
C2374 C2370 1.531 1_554 S
C2374 H2386 0.960 . S
C2374 H2387 0.962 . S
C2374 H2388 0.960 . S
C2375 C2372 1.511 . S
C2375 H2389 0.961 . S
C2375 H2390 0.961 . S
C2375 H2391 0.961 . S
C2376 C2377 1.370 . S
C2376 C2378 1.363 . S
C2376 H2392 0.931 . S
C2377 C2376 1.370 . S
C2377 C2381 1.408 . S
C2378 C2376 1.363 . S
C2378 C2379 1.370 . S
C2378 C2382 1.524 1_554 S
C2379 C2371 1.503 1_554 S
C2379 C2378 1.370 . S
C2379 C2380 1.403 . S
C2380 C2379 1.403 . S
C2380 C2381 1.404 . S
C2380 C2383 1.539 . S
C2381 C2377 1.408 . S
C2381 C2380 1.404 . S
C2381 H2393 0.930 . S
C2382 C2378 1.524 1_556 S
C2382 H2394 0.956 . S
C2382 H2395 0.961 . S
C2382 H2396 0.961 . S
C2383 C2380 1.539 . S
C2383 H2397 0.958 . S
C2383 H2398 0.961 . S
C2383 H2399 0.960 . S
H2384 C2368 0.931 . S
H2385 C2373 0.929 . S
H2386 C2374 0.960 . S
H2387 C2374 0.962 . S
H2388 C2374 0.960 . S
H2389 C2375 0.961 . S
H2390 C2375 0.961 . S
H2391 C2375 0.961 . S
H2392 C2376 0.931 . S
H2393 C2381 0.930 . S
H2394 C2382 0.956 . S
H2395 C2382 0.961 . S
H2396 C2382 0.961 . S
H2397 C2383 0.958 . S
H2398 C2383 0.961 . S
H2399 C2383 0.960 . S
C2400 C2401 1.391 . S
C2400 C2402 1.394 . S
C2400 H2416 0.931 . S
C2401 C2400 1.391 . S
C2401 C2405 1.376 . S
C2402 C2400 1.394 . S
C2402 C2403 1.369 . S
C2402 C2406 1.531 . S
C2403 C2402 1.369 . S
C2403 C2404 1.410 . S
C2403 C2411 1.503 . S
C2404 C2403 1.410 . S
C2404 C2405 1.392 . S
C2404 C2407 1.511 . S
C2405 C2401 1.376 . S
C2405 C2404 1.392 . S
C2405 H2417 0.929 . S
C2406 C2402 1.531 . S
C2406 H2418 0.960 . S
C2406 H2419 0.962 . S
C2406 H2420 0.960 . S
C2407 C2404 1.511 . S
C2407 H2421 0.961 . S
C2407 H2422 0.961 . S
C2407 H2423 0.961 . S
C2408 C2409 1.370 . S
C2408 C2410 1.363 . S
C2408 H2424 0.931 . S
C2409 C2408 1.370 . S
C2409 C2413 1.408 . S
C2410 C2408 1.363 . S
C2410 C2411 1.370 . S
C2410 C2414 1.524 . S
C2411 C2403 1.503 . S
C2411 C2410 1.370 . S
C2411 C2412 1.403 . S
C2412 C2411 1.403 . S
C2412 C2413 1.404 . S
C2412 C2415 1.539 . S
C2413 C2409 1.408 . S
C2413 C2412 1.404 . S
C2413 H2425 0.930 . S
C2414 C2410 1.524 . S
C2414 H2426 0.956 . S
C2414 H2427 0.961 . S
C2414 H2428 0.961 . S
C2415 C2412 1.539 . S
C2415 H2429 0.958 . S
C2415 H2430 0.961 . S
C2415 H2431 0.960 . S
H2416 C2400 0.931 . S
H2417 C2405 0.929 . S
H2418 C2406 0.960 . S
H2419 C2406 0.962 . S
H2420 C2406 0.960 . S
H2421 C2407 0.961 . S
H2422 C2407 0.961 . S
H2423 C2407 0.961 . S
H2424 C2408 0.931 . S
H2425 C2413 0.930 . S
H2426 C2414 0.956 . S
H2427 C2414 0.961 . S
H2428 C2414 0.961 . S
H2429 C2415 0.958 . S
H2430 C2415 0.961 . S
H2431 C2415 0.960 . S
C2432 C2433 1.391 . S
C2432 C2434 1.394 . S
C2432 H2448 0.931 . S
C2433 C2432 1.391 . S
C2433 C2437 1.376 . S
C2434 C2432 1.394 . S
C2434 C2435 1.369 . S
C2434 C2438 1.531 . S
C2435 C2434 1.369 . S
C2435 C2436 1.410 . S
C2435 C2443 1.503 . S
C2436 C2435 1.410 . S
C2436 C2437 1.392 . S
C2436 C2439 1.511 . S
C2437 C2433 1.376 . S
C2437 C2436 1.392 . S
C2437 H2449 0.929 . S
C2438 C2434 1.531 . S
C2438 H2450 0.960 . S
C2438 H2451 0.962 . S
C2438 H2452 0.960 . S
C2439 C2436 1.511 . S
C2439 H2453 0.961 . S
C2439 H2454 0.961 . S
C2439 H2455 0.961 . S
C2440 C2441 1.370 . S
C2440 C2442 1.363 . S
C2440 H2456 0.931 . S
C2441 C2440 1.370 . S
C2441 C2445 1.408 . S
C2442 C2440 1.363 . S
C2442 C2443 1.370 . S
C2442 C2446 1.524 . S
C2443 C2435 1.503 . S
C2443 C2442 1.370 . S
C2443 C2444 1.403 . S
C2444 C2443 1.403 . S
C2444 C2445 1.404 . S
C2444 C2447 1.539 . S
C2445 C2441 1.408 . S
C2445 C2444 1.404 . S
C2445 H2457 0.930 . S
C2446 C2442 1.524 . S
C2446 H2458 0.956 . S
C2446 H2459 0.961 . S
C2446 H2460 0.961 . S
C2447 C2444 1.539 . S
C2447 H2461 0.958 . S
C2447 H2462 0.961 . S
C2447 H2463 0.960 . S
H2448 C2432 0.931 . S
H2449 C2437 0.929 . S
H2450 C2438 0.960 . S
H2451 C2438 0.962 . S
H2452 C2438 0.960 . S
H2453 C2439 0.961 . S
H2454 C2439 0.961 . S
H2455 C2439 0.961 . S
H2456 C2440 0.931 . S
H2457 C2445 0.930 . S
H2458 C2446 0.956 . S
H2459 C2446 0.961 . S
H2460 C2446 0.961 . S
H2461 C2447 0.958 . S
H2462 C2447 0.961 . S
H2463 C2447 0.960 . S
C417 C361 1.427 . S
C425 C10 1.521 . S
C449 C23 1.499 . S
C457 C105 1.518 . S
C481 C335 1.499 . S
C489 C36 1.520 . S
C513 C49 1.532 . S
C521 C131 1.533 . S
C545 C62 1.505 . S
C553 C387 1.453 . S
C577 C75 1.501 . S
C585 C183 1.518 . S
C609 C88 1.535 . S
C617 C413 1.461 . S
C641 C101 1.505 . S
C649 C157 1.517 . S
C673 C248 1.461 . S
C681 C114 1.546 . S
C705 C1 1.452 . S
C713 C118 1.513 . S
C737 C222 1.457 . S
C745 C140 1.546 . S
C769 C144 1.499 . S
C777 C27 1.462 . S
C801 C274 1.427 . S
C809 C166 1.547 . S
C833 C79 1.500 . S
C841 C170 1.519 . S
C865 C192 1.544 . S
C873 C300 1.456 . S
C897 C53 1.494 . S
C905 C196 1.515 . S
C929 C218 1.535 . S
C937 C153 1.462 . S
C961 C231 1.527 . S
C969 C313 1.533 . S
C993 C127 1.428 . S
C1001 C244 1.522 . S
C1025 C339 1.535 . S
C1033 C257 1.529 . S
C1057 C179 1.500 . S
C1065 C270 1.522 . S
C1089 C391 1.540 . S
C1097 C283 1.526 . S
C1121 C205 1.468 . S
C1129 C296 1.512 . S
C1153 C309 1.498 . S
C1161 C365 1.519 . S
C1185 C40 1.450 . S
C1193 C322 1.546 . S
C1217 C326 1.498 . S
C1225 C209 1.463 . S
C1249 C348 1.540 . S
C1257 C14 1.480 . S
C1281 C352 1.500 . S
C1289 C235 1.478 . S
C1313 C374 1.544 . S
C1321 C66 1.454 . S
C1345 C378 1.537 . S
C1353 C287 1.461 . S
C1377 C400 1.544 . S
C1385 C92 1.455 . S
C1409 C404 1.526 . S
C1417 C261 1.479 . S
C1441 C315 1.767 . S
C1449 C3 1.636 . S
C1473 C16 1.612 . S
C1481 C122 1.667 . S
C1505 C341 1.736 . S
C1513 C29 1.667 . S
C1537 C42 1.629 . S
C1545 C148 1.661 . S
C1569 C367 1.764 . S
C1577 C55 1.637 . S
C1601 C68 1.611 . S
C1609 C174 1.666 . S
C1633 C393 1.761 . S
C1641 C81 1.644 . S
C1665 C94 1.610 . S
C1673 C200 1.666 . S
C1697 C107 1.736 . S
C1705 C211 1.665 . S
C1729 C133 1.750 . S
C1737 C237 1.650 . S
C1761 C159 1.758 . S
C1769 C263 1.648 . S
C1793 C185 1.762 . S
C1801 C289 1.643 . S
C1825 C224 1.684 . S
C1833 C330 1.637 . S
C1857 C356 1.625 . S
C1865 C250 1.663 . S
C1889 C382 1.685 . S
C1897 C276 1.636 . S
C1921 C302 1.659 . S
C1929 C408 1.649 . S
C1953 C5 1.963 . S
C1961 C57 1.972 . S
C1985 C18 1.945 . S
C1993 C70 1.966 . S
C2017 C83 1.971 . S
C2025 C31 1.958 . S
C2049 C44 1.942 . S
C2057 C96 1.971 . S
C2081 C161 2.002 . S
C2089 C109 2.008 . S
C2113 C172 1.956 . S
C2121 C120 1.959 . S
C2145 C135 2.005 . S
C2153 C187 2.008 . S
C2177 C146 1.963 . S
C2185 C198 1.973 . S
C2209 C265 1.947 . S
C2217 C213 1.974 . S
C2241 C278 1.953 . S
C2249 C226 1.974 . S
C2273 C239 1.947 . S
C2281 C291 1.974 . S
C2305 C304 1.958 . S
C2313 C252 1.973 . S
C2337 C369 2.002 . S
C2345 C317 2.004 . S
C2369 C328 1.945 . S
C2377 C380 1.963 . S
C2401 C395 2.001 . S
C2409 C343 2.007 . S
C2433 C354 1.964 . S
C2441 C406 1.973 . S
