# Generated by pormake.
# Topology lhb, (8)-cn, num edge types: 1
# Building blocks:
#     Node 0, Type 0, BuildingBlock: GIZVER_clean_sbu_0, # of connection points: 8
#     Node 1, Type 0, BuildingBlock: GIZVER_clean_sbu_0, # of connection points: 8
#     Node 2, Type 0, BuildingBlock: GIZVER_clean_sbu_0, # of connection points: 8
#     Node 3, Type 0, BuildingBlock: GIZVER_clean_sbu_0, # of connection points: 8
#     Node 4, Type 0, BuildingBlock: GIZVER_clean_sbu_0, # of connection points: 8
#     Node 5, Type 0, BuildingBlock: GIZVER_clean_sbu_0, # of connection points: 8
#     Node 6, Type 0, BuildingBlock: GIZVER_clean_sbu_0, # of connection points: 8
#     Node 7, Type 0, BuildingBlock: GIZVER_clean_sbu_0, # of connection points: 8
#     Edge 8, Type (0, 0), BuildingBlock: OJICUG_clean_linker_0, # of connection points: 2
#     Edge 9, Type (0, 0), BuildingBlock: OJICUG_clean_linker_0, # of connection points: 2
#     Edge 10, Type (0, 0), BuildingBlock: OJICUG_clean_linker_0, # of connection points: 2
#     Edge 11, Type (0, 0), BuildingBlock: OJICUG_clean_linker_0, # of connection points: 2
#     Edge 12, Type (0, 0), BuildingBlock: OJICUG_clean_linker_0, # of connection points: 2
#     Edge 13, Type (0, 0), BuildingBlock: OJICUG_clean_linker_0, # of connection points: 2
#     Edge 14, Type (0, 0), BuildingBlock: OJICUG_clean_linker_0, # of connection points: 2
#     Edge 15, Type (0, 0), BuildingBlock: OJICUG_clean_linker_0, # of connection points: 2
#     Edge 16, Type (0, 0), BuildingBlock: OJICUG_clean_linker_0, # of connection points: 2
#     Edge 17, Type (0, 0), BuildingBlock: OJICUG_clean_linker_0, # of connection points: 2
#     Edge 18, Type (0, 0), BuildingBlock: OJICUG_clean_linker_0, # of connection points: 2
#     Edge 19, Type (0, 0), BuildingBlock: OJICUG_clean_linker_0, # of connection points: 2
#     Edge 20, Type (0, 0), BuildingBlock: OJICUG_clean_linker_0, # of connection points: 2
#     Edge 21, Type (0, 0), BuildingBlock: OJICUG_clean_linker_0, # of connection points: 2
#     Edge 22, Type (0, 0), BuildingBlock: OJICUG_clean_linker_0, # of connection points: 2
#     Edge 23, Type (0, 0), BuildingBlock: OJICUG_clean_linker_0, # of connection points: 2
#     Edge 24, Type (0, 0), BuildingBlock: OJICUG_clean_linker_0, # of connection points: 2
#     Edge 25, Type (0, 0), BuildingBlock: OJICUG_clean_linker_0, # of connection points: 2
#     Edge 26, Type (0, 0), BuildingBlock: OJICUG_clean_linker_0, # of connection points: 2
#     Edge 27, Type (0, 0), BuildingBlock: OJICUG_clean_linker_0, # of connection points: 2
#     Edge 28, Type (0, 0), BuildingBlock: OJICUG_clean_linker_0, # of connection points: 2
#     Edge 29, Type (0, 0), BuildingBlock: OJICUG_clean_linker_0, # of connection points: 2
#     Edge 30, Type (0, 0), BuildingBlock: OJICUG_clean_linker_0, # of connection points: 2
#     Edge 31, Type (0, 0), BuildingBlock: OJICUG_clean_linker_0, # of connection points: 2
#     Edge 32, Type (0, 0), BuildingBlock: OJICUG_clean_linker_0, # of connection points: 2
#     Edge 33, Type (0, 0), BuildingBlock: OJICUG_clean_linker_0, # of connection points: 2
#     Edge 34, Type (0, 0), BuildingBlock: OJICUG_clean_linker_0, # of connection points: 2
#     Edge 35, Type (0, 0), BuildingBlock: OJICUG_clean_linker_0, # of connection points: 2
#     Edge 36, Type (0, 0), BuildingBlock: OJICUG_clean_linker_0, # of connection points: 2
#     Edge 37, Type (0, 0), BuildingBlock: OJICUG_clean_linker_0, # of connection points: 2
#     Edge 38, Type (0, 0), BuildingBlock: OJICUG_clean_linker_0, # of connection points: 2
#     Edge 39, Type (0, 0), BuildingBlock: OJICUG_clean_linker_0, # of connection points: 2
# Relax obj value: 0.082
# Max RMSD: 0.172
# Mean RMSD: 0.172
data_MOF--net-lhb--node1-GIZVER_clean_sbu_0--edge1-OJICUG_clean_linker_0
_symmetry_space_group_name_H-M    P1
_symmetry_Int_Tables_number       1
_symmetry_cell_setting            triclinic
loop_
_symmetry_equiv_pos_as_xyz
'x, y, z'
_cell_length_a     17.990055
_cell_length_b     11.377999
_cell_length_c     59.262517
_cell_angle_alpha  94.548896
_cell_angle_beta   89.988467
_cell_angle_gamma 89.982617
loop_
_atom_site_label
_atom_site_type_symbol
_atom_site_fract_x
_atom_site_fract_y
_atom_site_fract_z
_atom_type_partial_charge
Co0 Co 0.07333 0.99451 0.9928 0.0
Co1 Co 0.94938 0.08839 1.0038 0.0
Co2 Co 0.02274 -0.00126 0.04847 0.0
O3 O 1.00149 0.96969 1.01553 0.0
H4 H 0.97476 0.8966 1.01232 0.0
O5 O 0.04065 0.02963 0.08172 0.0
Co6 Co 0.96961 0.9719 0.10296 0.0
Co7 Co 0.10442 0.91214 0.09039 0.0
H8 H 0.0598 0.10747 0.0861 0.0
O9 O 0.88586 0.06561 0.98038 0.0
O10 O 1.00841 0.11692 0.9793 0.0
O11 O 0.94016 0.23211 1.02194 0.0
O12 O 0.01405 0.17634 0.04917 0.0
O13 O 0.91575 0.97716 0.05478 0.0
O14 O 0.90678 0.92136 0.12236 0.0
O15 O 0.97914 0.0821 0.12747 0.0
O16 O 0.94084 0.85235 0.08056 0.0
O17 O 0.03366 0.82086 0.04717 0.0
O18 O 0.11392 0.76638 0.07277 0.0
O19 O 0.05581 0.8858 0.11651 0.0
O20 O 0.1729 0.95651 0.11071 0.0
C21 C 0.09813 0.9127 0.96167 0.0
C22 C 0.15495 0.09418 1.03033 0.0
C23 C 0.98037 0.25625 1.03915 0.0
C24 C 0.94154 0.11296 0.97039 0.0
C25 C 0.92863 0.01174 0.1351 0.0
C26 C 0.89767 0.88757 0.06524 0.0
C27 C 0.07084 0.74141 0.05626 0.0
C28 C 0.11868 0.93438 0.12425 0.0
O29 O 0.13744 0.00198 0.96997 0.0
O30 O 0.03976 0.87961 0.97259 0.0
O31 O 0.13047 0.01621 1.04265 0.0
O32 O 0.12195 0.11482 1.01198 0.0
Co33 Co 0.31984 0.22239 0.35294 0.0
Co34 Co 0.18509 0.1621 0.34049 0.0
Co35 Co 0.26647 0.24838 0.29846 0.0
O36 O 0.24858 0.27959 0.33171 0.0
H37 H 0.22934 0.35741 0.33606 0.0
O38 O 0.28768 0.21907 0.26552 0.0
Co39 Co 0.2158 0.24367 0.24279 0.0
Co40 Co 0.33967 0.33773 0.25375 0.0
H41 H 0.31447 0.14599 0.26233 0.0
O42 O 0.11665 0.20663 0.36084 0.0
O43 O 0.23387 0.13636 0.36662 0.0
O44 O 0.17575 0.01613 0.32294 0.0
O45 O 0.25562 0.07052 0.29722 0.0
O46 O 0.15873 0.26571 0.29267 0.0
O47 O 0.15167 0.25094 0.21996 0.0
O48 O 0.24944 0.12869 0.2226 0.0
O49 O 0.16709 0.36403 0.26195 0.0
O50 O 0.27506 0.42594 0.29912 0.0
O51 O 0.34885 0.48158 0.27185 0.0
O52 O 0.28062 0.36605 0.22925 0.0
O53 O 0.4032 0.3148 0.23033 0.0
C54 C 0.36101 0.26291 0.38503 0.0
C55 C 0.39161 0.13745 0.31525 0.0
C56 C 0.21863 0.99111 0.30638 0.0
C57 C 0.17098 0.1849 0.37436 0.0
C58 C 0.19105 0.16165 0.21167 0.0
C59 C 0.13414 0.3435 0.28032 0.0
C60 C 0.3087 0.50579 0.28907 0.0
C61 C 0.3475 0.36209 0.22034 0.0
O62 O 0.38287 0.17234 0.37233 0.0
O63 O 0.31035 0.33301 0.37739 0.0
O64 O 0.37348 0.2269 0.30475 0.0
O65 O 0.34851 0.10248 0.33061 0.0
Co66 Co 0.81956 0.72183 0.35291 0.0
Co67 Co 0.6848 0.6615 0.34048 0.0
Co68 Co 0.76616 0.74785 0.29844 0.0
O69 O 0.74827 0.77901 0.33169 0.0
H70 H 0.72902 0.85683 0.33604 0.0
O71 O 0.7874 0.71855 0.26551 0.0
Co72 Co 0.71556 0.74324 0.24277 0.0
Co73 Co 0.83944 0.83718 0.25374 0.0
H74 H 0.81417 0.64545 0.26231 0.0
O75 O 0.61639 0.70598 0.36084 0.0
O76 O 0.73364 0.63576 0.36659 0.0
O77 O 0.67545 0.51556 0.32292 0.0
O78 O 0.75531 0.56998 0.2972 0.0
O79 O 0.65842 0.76522 0.29263 0.0
O80 O 0.65146 0.7506 0.21995 0.0
O81 O 0.74917 0.62824 0.22258 0.0
O82 O 0.66691 0.86363 0.26193 0.0
O83 O 0.77476 0.9254 0.2991 0.0
O84 O 0.84862 0.98103 0.27185 0.0
O85 O 0.78045 0.86556 0.22924 0.0
O86 O 0.90301 0.8142 0.23034 0.0
C87 C 0.86076 0.7624 0.38499 0.0
C88 C 0.89133 0.63694 0.31522 0.0
C89 C 0.71832 0.49056 0.30635 0.0
C90 C 0.67076 0.68427 0.37435 0.0
C91 C 0.69081 0.66128 0.21165 0.0
C92 C 0.63392 0.84311 0.2803 0.0
C93 C 0.80842 0.00525 0.28906 0.0
C94 C 0.84736 0.86158 0.22034 0.0
O95 O 0.88263 0.67183 0.3723 0.0
O96 O 0.81008 0.83246 0.37736 0.0
O97 O 0.87316 0.7264 0.30473 0.0
O98 O 0.84826 0.60191 0.33058 0.0
Co99 Co 0.07421 0.49597 0.49279 0.0
Co100 Co 0.95042 0.59028 0.50375 0.0
Co101 Co 0.02353 0.50078 0.54846 0.0
O102 O 1.00233 0.4716 0.51553 0.0
H103 H 0.9755 0.3986 0.51234 0.0
O104 O 0.04141 0.53175 0.58171 0.0
Co105 Co 0.97032 0.47411 0.60296 0.0
Co106 Co 0.10514 0.41425 0.5904 0.0
H107 H 0.06056 0.60958 0.58609 0.0
O108 O 0.88676 0.56726 0.48039 0.0
O109 O 1.00936 0.61825 0.47921 0.0
O110 O 0.94137 0.73419 0.52182 0.0
O111 O 0.01485 0.67838 0.54915 0.0
O112 O 0.91653 0.4792 0.55476 0.0
O113 O 0.90746 0.42365 0.62235 0.0
O114 O 0.97985 0.58436 0.62746 0.0
O115 O 0.94157 0.35449 0.58056 0.0
O116 O 0.03446 0.32292 0.54718 0.0
O117 O 0.11469 0.26848 0.57279 0.0
O118 O 0.05648 0.38798 0.61652 0.0
O119 O 0.17359 0.45866 0.61073 0.0
C120 C 0.09897 0.41364 0.4617 0.0
C121 C 0.15582 0.59604 0.53031 0.0
C122 C 0.98136 0.7583 0.53908 0.0
C123 C 0.94242 0.61432 0.47034 0.0
C124 C 0.92932 0.51405 0.63509 0.0
C125 C 0.89844 0.38964 0.56523 0.0
C126 C 0.07163 0.24348 0.55628 0.0
C127 C 0.11934 0.43657 0.62426 0.0
O128 O 0.13836 0.50296 0.46995 0.0
O129 O 0.04058 0.38087 0.47265 0.0
O130 O 0.13128 0.51823 0.54266 0.0
O131 O 0.12292 0.61646 0.51193 0.0
Co132 Co 0.31977 0.72349 0.85296 0.0
Co133 Co 0.18501 0.66374 0.84035 0.0
Co134 Co 0.26679 0.7503 0.79845 0.0
O135 O 0.24877 0.78123 0.8317 0.0
H136 H 0.22959 0.85907 0.83607 0.0
O137 O 0.28813 0.72119 0.76552 0.0
Co138 Co 0.21631 0.74594 0.74278 0.0
Co139 Co 0.34019 0.83984 0.75379 0.0
H140 H 0.3149 0.6481 0.76232 0.0
O141 O 0.11649 0.7081 0.86067 0.0
O142 O 0.23358 0.63728 0.86648 0.0
O143 O 0.17551 0.51804 0.82272 0.0
O144 O 0.25596 0.57242 0.79717 0.0
O145 O 0.15907 0.76767 0.79262 0.0
O146 O 0.15224 0.75333 0.71995 0.0
O147 O 0.24997 0.631 0.72259 0.0
O148 O 0.1676 0.86628 0.76195 0.0
O149 O 0.27539 0.92789 0.79914 0.0
O150 O 0.34937 0.98356 0.77192 0.0
O151 O 0.28122 0.86832 0.72928 0.0
O152 O 0.40378 0.817 0.73037 0.0
C153 C 0.36062 0.76329 0.8851 0.0
C154 C 0.39187 0.63922 0.81525 0.0
C155 C 0.21871 0.49302 0.80624 0.0
C156 C 0.17067 0.68582 0.87422 0.0
C157 C 0.19161 0.66401 0.71166 0.0
C158 C 0.13457 0.84563 0.7803 0.0
C159 C 0.3091 0.00775 0.78912 0.0
C160 C 0.34812 0.86433 0.72037 0.0
O161 O 0.38256 0.67294 0.87236 0.0
O162 O 0.31009 0.83364 0.87747 0.0
O163 O 0.37377 0.7288 0.80478 0.0
O164 O 0.34868 0.60398 0.83056 0.0
Co165 Co 0.81975 0.22341 0.85296 0.0
Co166 Co 0.68498 0.16374 0.84034 0.0
Co167 Co 0.7668 0.25031 0.79845 0.0
O168 O 0.74878 0.28122 0.8317 0.0
H169 H 0.72961 0.35906 0.83608 0.0
O170 O 0.78813 0.22121 0.76552 0.0
Co171 Co 0.71632 0.24595 0.74278 0.0
Co172 Co 0.8402 0.33987 0.75378 0.0
H173 H 0.81491 0.14813 0.76232 0.0
O174 O 0.61645 0.20809 0.86065 0.0
O175 O 0.73352 0.13722 0.86646 0.0
O176 O 0.67546 0.01806 0.8227 0.0
O177 O 0.75597 0.07243 0.79716 0.0
O178 O 0.65907 0.26768 0.79262 0.0
O179 O 0.65225 0.25332 0.71995 0.0
O180 O 0.74999 0.13101 0.72259 0.0
O181 O 0.66759 0.36628 0.76195 0.0
O182 O 0.77539 0.4279 0.79914 0.0
O183 O 0.84937 0.48358 0.77192 0.0
O184 O 0.78121 0.36834 0.72928 0.0
O185 O 0.90378 0.31704 0.73037 0.0
C186 C 0.86057 0.26312 0.88511 0.0
C187 C 0.89187 0.13922 0.81524 0.0
C188 C 0.71869 0.99303 0.80622 0.0
C189 C 0.67062 0.18579 0.8742 0.0
C190 C 0.69163 0.16401 0.71166 0.0
C191 C 0.63457 0.34563 0.7803 0.0
C192 C 0.80911 0.50776 0.78912 0.0
C193 C 0.84811 0.36437 0.72037 0.0
O194 O 0.88251 0.17278 0.87237 0.0
O195 O 0.81007 0.33351 0.87748 0.0
O196 O 0.87377 0.2288 0.80478 0.0
O197 O 0.84866 0.10395 0.83055 0.0
Co198 Co 0.5743 0.99567 0.49278 0.0
Co199 Co 0.45055 0.09011 0.50374 0.0
Co200 Co 0.52362 0.00064 0.54846 0.0
O201 O 0.50242 0.97144 0.51553 0.0
H202 H 0.47556 0.89845 0.51234 0.0
O203 O 0.54148 0.03163 0.58171 0.0
Co204 Co 0.47038 0.974 0.60295 0.0
Co205 Co 0.6052 0.91413 0.5904 0.0
H206 H 0.56064 0.10946 0.58608 0.0
O207 O 0.38689 0.06712 0.48037 0.0
O208 O 0.50951 0.11802 0.4792 0.0
O209 O 0.44152 0.23404 0.5218 0.0
O210 O 0.51496 0.17824 0.54914 0.0
O211 O 0.41661 0.97911 0.55476 0.0
O212 O 0.40751 0.92356 0.62235 0.0
O213 O 0.4799 0.08426 0.62745 0.0
O214 O 0.44162 0.85439 0.58056 0.0
O215 O 0.53453 0.82278 0.54719 0.0
O216 O 0.61475 0.76835 0.57279 0.0
O217 O 0.55654 0.88788 0.61652 0.0
O218 O 0.67365 0.95854 0.61073 0.0
C219 C 0.59899 0.91325 0.46169 0.0
C220 C 0.65593 0.09581 0.5303 0.0
C221 C 0.48149 0.25816 0.53907 0.0
C222 C 0.44256 0.1142 0.47033 0.0
C223 C 0.42937 0.01395 0.63508 0.0
C224 C 0.39849 0.88957 0.56522 0.0
C225 C 0.5717 0.74335 0.55628 0.0
C226 C 0.6194 0.93647 0.62426 0.0
O227 O 0.63843 0.00254 0.46993 0.0
O228 O 0.54059 0.88058 0.47264 0.0
O229 O 0.63137 0.01805 0.54265 0.0
O230 O 0.62306 0.11614 0.5119 0.0
Co231 Co 0.57336 0.4946 0.99277 0.0
Co232 Co 0.4494 0.58845 1.00377 0.0
Co233 Co 0.52274 0.49877 0.04843 0.0
O234 O 0.50152 0.46975 1.0155 0.0
H235 H 0.47479 0.39666 1.01228 0.0
O236 O 0.54065 0.52966 0.08168 0.0
Co237 Co 0.46958 0.47199 0.10292 0.0
Co238 Co 0.60438 0.41212 0.09035 0.0
H239 H 0.55981 0.60748 0.08606 0.0
O240 O 0.38592 0.56571 0.98034 0.0
O241 O 0.50846 0.61709 0.97929 0.0
O242 O 0.44009 0.73212 1.02193 0.0
O243 O 0.5141 0.67637 0.04913 0.0
O244 O 0.41574 0.47724 0.05474 0.0
O245 O 0.40672 0.4215 0.12231 0.0
O246 O 0.47914 0.58217 0.12743 0.0
O247 O 0.4408 0.35246 0.08052 0.0
O248 O 0.53362 0.32089 0.04714 0.0
O249 O 0.61392 0.26641 0.07272 0.0
O250 O 0.55572 0.38575 0.11647 0.0
O251 O 0.67283 0.45642 0.11068 0.0
C252 C 0.59812 0.41283 0.96163 0.0
C253 C 0.65501 0.59414 1.03031 0.0
C254 C 0.48036 0.75627 1.03912 0.0
C255 C 0.4416 0.61313 0.97036 0.0
C256 C 0.42859 0.51187 0.13505 0.0
C257 C 0.39763 0.3877 0.06521 0.0
C258 C 0.57081 0.24144 0.05622 0.0
C259 C 0.61859 0.43427 0.12421 0.0
O260 O 0.63746 0.50208 0.96994 0.0
O261 O 0.53975 0.37978 0.97256 0.0
O262 O 0.63049 0.51617 1.04262 0.0
O263 O 0.62202 0.61483 1.01196 0.0
C264 C 0.14693 0.92033 0.16547 0.0
C265 C 0.1267 0.98755 0.14758 0.0
H266 H 0.18511 0.92366 0.19997 0.0
C267 C 0.12944 0.11123 0.15086 0.0
H268 H 0.14821 0.825 0.16303 0.0
C269 C 0.14883 0.16713 0.17183 0.0
C270 C 0.16998 0.10064 0.18967 0.0
H271 H 0.11725 0.16495 0.13701 0.0
H272 H 0.14921 0.26256 0.1739 0.0
C273 C 0.16908 0.97669 0.18637 0.0
C274 C 0.82849 0.97786 0.16254 0.0
C275 C 0.90132 0.01774 0.15871 0.0
H276 H 0.75414 0.89703 0.18506 0.0
C277 C 0.95184 0.0234 0.17671 0.0
H278 H 0.78811 0.97224 0.14892 0.0
C279 C 0.93346 0.97528 0.19701 0.0
C280 C 0.86306 0.9245 0.19994 0.0
H281 H 1.00746 0.05495 0.17453 0.0
H282 H 0.9754 0.97404 0.2101 0.0
C283 C 0.80928 0.9328 0.18305 0.0
C284 C 0.14083 0.4185 0.42181 0.0
C285 C 0.12002 0.35232 0.43973 0.0
H286 H 0.17204 0.4157 0.38694 0.0
C287 C 0.12116 0.22834 0.43652 0.0
H288 H 0.14027 0.51394 0.42381 0.0
C289 C 0.14321 0.17165 0.41563 0.0
C290 C 0.16306 0.23855 0.39767 0.0
H291 H 0.1054 0.17556 0.45018 0.0
H292 H 0.14213 0.07629 0.41327 0.0
C293 C 0.16011 0.36225 0.40085 0.0
C294 C 0.96106 0.72889 0.41239 0.0
C295 C 0.88825 0.76894 0.40858 0.0
H296 H 0.03547 0.64841 0.43495 0.0
C297 C 0.83788 0.77545 0.42663 0.0
H298 H 1.00133 0.72267 0.39874 0.0
C299 C 0.85635 0.72787 0.44697 0.0
C300 C 0.92669 0.67685 0.44989 0.0
H301 H 0.7823 0.80722 0.42446 0.0
H302 H 0.81451 0.72723 0.46011 0.0
C303 C 0.98036 0.68438 0.43295 0.0
C304 C 0.13017 0.61348 0.65084 0.0
C305 C 0.12731 0.48981 0.64759 0.0
H306 H 0.15002 0.76487 0.67386 0.0
C307 C 0.14739 0.42262 0.66549 0.0
H308 H 0.11809 0.66716 0.63698 0.0
C309 C 0.16952 0.47902 0.68639 0.0
C310 C 0.17054 0.60298 0.68967 0.0
H311 H 0.14857 0.32728 0.66307 0.0
H312 H 0.18544 0.42603 0.7 0.0
C313 C 0.14954 0.66944 0.67181 0.0
C314 C 0.93413 0.4781 0.69701 0.0
C315 C 0.86377 0.42719 0.69995 0.0
H316 H 1.00807 0.55775 0.67452 0.0
C317 C 0.81 0.43522 0.68306 0.0
H318 H 0.97605 0.47707 0.71012 0.0
C319 C 0.82919 0.48014 0.66253 0.0
C320 C 0.90199 0.52014 0.6587 0.0
H321 H 0.75489 0.39934 0.68507 0.0
H322 H 0.78882 0.4743 0.64891 0.0
C323 C 0.95248 0.52609 0.67671 0.0
C324 C 0.14254 0.6716 0.91544 0.0
C325 C 0.16259 0.73893 0.89755 0.0
H326 H 0.10445 0.67475 0.94995 0.0
C327 C 0.15967 0.86259 0.90083 0.0
H328 H 0.14143 0.57626 0.913 0.0
C329 C 0.14023 0.91839 0.92182 0.0
C330 C 0.11924 0.8518 0.93966 0.0
H331 H 0.17174 0.91638 0.88699 0.0
H332 H 0.1397 0.01382 0.9239 0.0
C333 C 0.12034 0.72785 0.93635 0.0
C334 C 0.96059 0.22907 0.91257 0.0
C335 C 0.88778 0.26904 0.90873 0.0
H336 H 0.03486 0.1482 0.93512 0.0
C337 C 0.83721 0.27482 0.92673 0.0
H338 H 1.00102 0.22337 0.89897 0.0
C339 C 0.85551 0.22671 0.94703 0.0
C340 C 0.92589 0.17586 0.94997 0.0
H341 H 0.78161 0.30647 0.92454 0.0
H342 H 0.81353 0.22557 0.96012 0.0
C343 C 0.97973 0.18404 0.9331 0.0
C344 C 0.64956 0.1694 0.6718 0.0
C345 C 0.67057 0.10296 0.68967 0.0
H346 H 0.61812 0.16709 0.63697 0.0
C347 C 0.66955 0.979 0.6864 0.0
H348 H 0.65003 0.26483 0.67386 0.0
C349 C 0.64743 0.92258 0.66549 0.0
C350 C 0.62736 0.98975 0.64758 0.0
H351 H 0.68547 0.92602 0.70001 0.0
H352 H 0.64862 0.82724 0.66308 0.0
C353 C 0.6302 0.11343 0.65083 0.0
C354 C 0.32923 0.98005 0.66252 0.0
C355 C 0.40204 0.02004 0.65869 0.0
H356 H 0.25491 0.89929 0.68507 0.0
C357 C 0.45252 0.02599 0.6767 0.0
H358 H 0.28887 0.97422 0.6489 0.0
C359 C 0.43415 0.97802 0.69701 0.0
C360 C 0.36379 0.92713 0.69995 0.0
H361 H 0.50811 0.05765 0.67452 0.0
H362 H 0.47607 0.977 0.71012 0.0
C363 C 0.31003 0.93516 0.68305 0.0
C364 C 0.64025 0.41845 0.92178 0.0
C365 C 0.61922 0.3519 0.93963 0.0
H366 H 0.67177 0.41636 0.88696 0.0
C367 C 0.62027 0.22795 0.93633 0.0
H368 H 0.63976 0.51388 0.92386 0.0
C369 C 0.64245 0.17165 0.91542 0.0
C370 C 0.66254 0.23894 0.89753 0.0
H371 H 0.60434 0.17488 0.94993 0.0
H372 H 0.64129 0.07631 0.91298 0.0
C373 C 0.65967 0.3626 0.90081 0.0
C374 C 0.47982 0.6843 0.93308 0.0
C375 C 0.42598 0.67609 0.94996 0.0
H376 H 0.50112 0.72363 0.89896 0.0
C377 C 0.3556 0.72695 0.94701 0.0
H378 H 0.53495 0.64846 0.93511 0.0
C379 C 0.3373 0.77507 0.92671 0.0
C380 C 0.38787 0.76928 0.90872 0.0
H381 H 0.31362 0.72579 0.9601 0.0
H382 H 0.2817 0.80669 0.92452 0.0
C383 C 0.46069 0.72935 0.91256 0.0
C384 C 0.64649 0.42012 0.16545 0.0
C385 C 0.62657 0.48742 0.14755 0.0
H386 H 0.68442 0.42332 0.19997 0.0
C387 C 0.62952 0.61108 0.15081 0.0
H388 H 0.64757 0.32478 0.16302 0.0
C389 C 0.64888 0.66692 0.1718 0.0
C390 C 0.66975 0.60035 0.18965 0.0
H391 H 0.61753 0.66484 0.13696 0.0
H392 H 0.64944 0.76235 0.17386 0.0
C393 C 0.66861 0.4764 0.18636 0.0
C394 C 0.30933 0.43288 0.18303 0.0
C395 C 0.36312 0.42493 0.19992 0.0
H396 H 0.2881 0.47194 0.14888 0.0
C397 C 0.43345 0.47592 0.19698 0.0
H398 H 0.25424 0.39693 0.18505 0.0
C399 C 0.45176 0.52394 0.17667 0.0
C400 C 0.40126 0.5179 0.15866 0.0
H401 H 0.47538 0.47495 0.21008 0.0
H402 H 0.50733 0.55569 0.17448 0.0
C403 C 0.32847 0.47784 0.1625 0.0
C404 C 0.62122 0.72789 0.43654 0.0
C405 C 0.61998 0.85187 0.43972 0.0
H406 H 0.6422 0.57577 0.4133 0.0
C407 C 0.64063 0.918 0.42177 0.0
H408 H 0.60557 0.67514 0.45021 0.0
C409 C 0.65985 0.86168 0.40082 0.0
C410 C 0.66291 0.73799 0.39766 0.0
H411 H 0.63999 0.01344 0.42376 0.0
H412 H 0.67166 0.91509 0.38689 0.0
C413 C 0.64321 0.67114 0.41565 0.0
C414 C 0.35648 0.22785 0.44698 0.0
C415 C 0.42684 0.17689 0.4499 0.0
H416 H 0.28244 0.3073 0.42449 0.0
C417 C 0.48055 0.18469 0.43298 0.0
H418 H 0.31461 0.22701 0.46011 0.0
C419 C 0.46128 0.22939 0.41243 0.0
C420 C 0.38845 0.26937 0.40862 0.0
H421 H 0.53567 0.14878 0.43498 0.0
H422 H 0.50159 0.22336 0.3988 0.0
C423 C 0.33804 0.27562 0.42666 0.0
C424 C 0.98874 0.58702 1.03707 0.0
C425 C 0.05101 0.61637 0.05071 0.0
H426 H 0.91582 0.45134 1.02345 0.0
C427 C 0.08775 0.52658 0.06133 0.0
H428 H 0.9583 0.65408 1.02892 0.0
C429 C 0.06265 0.41028 0.05844 0.0
C430 C 1.00033 0.38107 0.04482 0.0
H431 H 0.13552 0.54618 0.0721 0.0
H432 H 0.09318 0.34302 0.06651 0.0
C433 C 0.96361 0.47086 1.03421 0.0
C434 C 0.32548 0.72039 0.28415 0.0
C435 C 0.28882 0.63063 0.29478 0.0
H436 H 0.33086 0.90365 0.27891 0.0
C437 C 0.22667 0.65994 0.30848 0.0
H438 H 0.37315 0.7008 0.27332 0.0
C439 C 0.20168 0.7763 0.31142 0.0
C440 C 0.23837 0.86605 0.30079 0.0
H441 H 0.19619 0.5927 0.31656 0.0
H442 H 0.15404 0.79597 0.32225 0.0
C443 C 0.30046 0.83662 0.28707 0.0
C444 C 0.8252 0.21984 0.28414 0.0
C445 C 0.78852 0.13008 0.29476 0.0
H446 H 0.83059 0.40311 0.27889 0.0
C447 C 0.72635 0.15939 0.30845 0.0
H448 H 0.87289 0.20026 0.27332 0.0
C449 C 0.70135 0.27574 0.31139 0.0
C450 C 0.73806 0.3655 0.30076 0.0
H451 H 0.69586 0.09215 0.31653 0.0
H452 H 0.65369 0.29541 0.32221 0.0
C453 C 0.80017 0.33607 0.28705 0.0
C454 C 0.06351 0.91234 0.55843 0.0
C455 C 1.00127 0.88311 0.54478 0.0
H456 H 0.13627 0.04827 0.57214 0.0
C457 C 0.96457 0.97291 0.53416 0.0
H458 H 0.09401 0.84507 0.5665 0.0
C459 C 0.98965 0.08908 0.53705 0.0
C460 C 0.05184 0.11844 0.55072 0.0
H461 H 0.91683 0.95338 0.52337 0.0
H462 H 0.95923 0.15614 0.52889 0.0
C463 C 0.08856 0.02866 0.56134 0.0
C464 C 0.22678 0.16188 0.8084 0.0
C465 C 0.28914 0.13259 0.7948 0.0
H466 H 0.1539 0.29788 0.82205 0.0
C467 C 0.32594 0.22234 0.7842 0.0
H468 H 0.1962 0.09465 0.81646 0.0
C469 C 0.30084 0.33853 0.78707 0.0
C470 C 0.23853 0.36796 0.80069 0.0
H471 H 0.37378 0.20275 0.77345 0.0
H472 H 0.33135 0.40555 0.77893 0.0
C473 C 0.2017 0.27822 0.81129 0.0
C474 C 0.82596 0.72234 0.78421 0.0
C475 C 0.78914 0.6326 0.7948 0.0
H476 H 0.83137 0.90556 0.77893 0.0
C477 C 0.72676 0.6619 0.80839 0.0
H478 H 0.87381 0.70276 0.77346 0.0
C479 C 0.70169 0.77823 0.81128 0.0
C480 C 0.73853 0.86797 0.80068 0.0
H481 H 0.69617 0.59467 0.81645 0.0
H482 H 0.65387 0.7979 0.82203 0.0
C483 C 0.80086 0.83854 0.78707 0.0
C484 C 0.58865 0.52853 0.56134 0.0
C485 C 0.55192 0.61831 0.55072 0.0
H486 H 0.59412 0.34493 0.5665 0.0
C487 C 0.48975 0.58894 0.53704 0.0
H488 H 0.63635 0.54815 0.57214 0.0
C489 C 0.46469 0.47276 0.53415 0.0
C490 C 0.50139 0.38297 0.54477 0.0
H491 H 0.45932 0.65599 0.52889 0.0
H492 H 0.41696 0.45322 0.52336 0.0
C493 C 0.56361 0.4122 0.55842 0.0
C494 C 0.56268 0.91031 0.05839 0.0
C495 C 0.50033 0.88109 0.04479 0.0
H496 H 0.63557 0.04622 0.07203 0.0
C497 C 0.46356 0.97088 1.03419 0.0
H498 H 0.59324 0.84305 0.06645 0.0
C499 C 0.48868 0.08705 1.03705 0.0
C500 C 0.55098 0.1164 0.05067 0.0
H501 H 0.41574 0.95135 1.02344 0.0
H502 H 0.4582 0.1541 1.02891 0.0
C503 C 0.58777 0.02661 0.06127 0.0
C504 C 0.31722 0.20878 0.06631 0.0
C505 C 0.33553 0.31262 0.05628 0.0
H506 H 0.24623 0.05818 0.0659 0.0
C507 C 0.29458 0.34337 1.03738 0.0
H508 H 0.34775 0.18242 0.08083 0.0
C509 C 0.2366 0.27174 1.0287 0.0
C510 C 0.21808 0.16821 1.03881 0.0
H511 H 0.30726 0.42286 1.02922 0.0
H512 H 0.20578 0.29832 1.01425 0.0
C513 C 0.25905 0.13749 0.0577 0.0
C514 C 0.79467 0.84328 1.0374 0.0
C515 C 0.83559 0.81248 0.0563 0.0
H516 H 0.70589 0.79829 1.01425 0.0
C517 C 0.81726 0.7086 0.06632 0.0
H518 H 0.80736 0.92278 1.02924 0.0
C519 C 0.7591 0.63734 0.05769 0.0
C520 C 0.71815 0.66812 1.0388 0.0
H521 H 0.84778 0.6822 0.08084 0.0
H522 H 0.74626 0.558 0.06589 0.0
C523 C 0.73669 0.77167 1.0287 0.0
C524 C 0.05226 0.52082 0.27865 0.0
C525 C 0.07095 0.41746 0.2888 0.0
H526 H 0.98144 0.67179 0.27915 0.0
C527 C 0.03008 0.38685 0.30772 0.0
H528 H 0.08299 0.54729 0.26417 0.0
C529 C 0.97187 0.45811 0.31633 0.0
C530 C 0.95342 0.56181 0.30628 0.0
H531 H 0.04303 0.30766 0.31595 0.0
H532 H 0.94144 0.43187 0.33089 0.0
C533 C 0.99424 0.59242 0.28734 0.0
C534 C 0.31804 0.71067 0.56632 0.0
C535 C 0.33642 0.81445 0.55628 0.0
H536 H 0.247 0.56014 0.56591 0.0
C537 C 0.29556 0.84513 0.53735 0.0
H538 H 0.3485 0.68436 0.58086 0.0
C539 C 0.23758 0.7735 0.52866 0.0
C540 C 0.21897 0.67005 0.53879 0.0
H541 H 0.3083 0.92456 0.52918 0.0
H542 H 0.20682 0.80003 0.5142 0.0
C543 C 0.25988 0.6394 0.5577 0.0
C544 C 0.81804 0.21069 0.56632 0.0
C545 C 0.83641 0.31445 0.55628 0.0
H546 H 0.74704 0.0601 0.56593 0.0
C547 C 0.79558 0.34502 0.53734 0.0
H548 H 0.84847 0.18446 0.58088 0.0
C549 C 0.73764 0.27332 0.52864 0.0
C550 C 0.71905 0.16989 0.53878 0.0
H551 H 0.80831 0.42444 0.52916 0.0
H552 H 0.7069 0.29977 0.51417 0.0
C553 C 0.75992 0.13934 0.5577 0.0
C554 C 0.99495 0.09494 0.78741 0.0
C555 C 0.95397 0.06411 0.8063 0.0
H556 H 0.08378 0.04993 0.76427 0.0
C557 C 0.97224 0.96015 0.8163 0.0
H558 H 0.9823 0.17451 0.77927 0.0
C559 C 0.03041 0.88885 0.80767 0.0
C560 C 0.07142 0.91966 0.78879 0.0
H561 H 0.94168 0.93373 0.83081 0.0
H562 H 0.0432 0.80945 0.81585 0.0
C563 C 0.05293 0.02329 0.77871 0.0
C564 C 0.55291 0.52327 0.7787 0.0
C565 C 0.57142 0.41966 0.78879 0.0
H566 H 0.48226 0.67448 0.77926 0.0
C567 C 0.53042 0.38887 0.80768 0.0
H568 H 0.58375 0.5499 0.76426 0.0
C569 C 0.47225 0.46017 0.8163 0.0
C570 C 0.45396 0.56411 0.8063 0.0
H571 H 0.54323 0.30948 0.81586 0.0
H572 H 0.44171 0.43376 0.83082 0.0
C573 C 0.49493 0.59492 0.7874 0.0
C574 C 0.55238 0.02084 0.27867 0.0
C575 C 0.57086 0.91732 0.28879 0.0
H576 H 0.48184 0.17216 0.2792 0.0
C577 C 0.52993 0.8868 0.30771 0.0
H578 H 0.58317 0.04726 0.2642 0.0
C579 C 0.47186 0.95829 0.31634 0.0
C580 C 0.4536 0.06214 0.3063 0.0
H581 H 0.54273 0.80749 0.31592 0.0
H582 H 0.44137 0.93209 0.33088 0.0
C583 C 0.49449 0.09268 0.28737 0.0
loop_
_geom_bond_atom_site_label_1
_geom_bond_atom_site_label_2
_geom_bond_distance
_geom_bond_site_symmetry_2
_ccdc_geom_bond_type
Co0 O3 2.044 1_455 S
Co0 O10 2.264 1_455 S
Co0 O29 2.286 . S
Co0 O30 2.069 1_545 S
Co0 O32 2.015 . S
Co1 O3 2.129 . S
Co1 O9 2.073 . S
Co1 O10 2.327 . S
Co1 O11 1.976 . S
Co2 O3 2.086 1_454 S
Co2 O5 2.086 . S
Co2 O12 2.116 1_455 S
Co2 O13 2.141 1_445 S
Co2 O17 2.106 1_544 S
Co2 O31 2.146 . S
O3 Co0 2.044 1_655 S
O3 Co1 2.129 . S
O3 Co2 2.086 1_656 S
O3 H4 0.972 1_545 S
H4 O3 0.972 1_565 S
O5 Co2 2.086 . S
O5 Co6 2.042 1_445 S
O5 Co7 2.121 1_545 S
O5 H8 0.981 . S
Co6 O5 2.042 1_665 S
Co6 O14 2.286 . S
Co6 O15 2.069 1_565 S
Co6 O16 2.015 . S
Co6 O19 2.264 1_655 S
Co7 O5 2.121 1_565 S
Co7 O18 1.976 . S
Co7 O19 2.327 . S
Co7 O20 2.073 . S
H8 O5 0.981 . S
O9 Co1 2.073 . S
O9 C24 1.245 . S
O10 Co0 2.264 1_655 S
O10 Co1 2.327 . S
O10 C24 1.257 . S
O11 Co1 1.976 . S
O11 C23 1.251 1_556 S
O12 Co2 2.116 1_655 S
O12 C23 1.274 . S
O13 Co2 2.141 1_665 S
O13 C26 1.246 . S
O14 Co6 2.286 . S
O14 C25 1.259 1_565 S
O15 Co6 2.069 1_545 S
O15 C25 1.289 . S
O16 Co6 2.015 . S
O16 C26 1.257 . S
O17 Co2 2.106 1_566 S
O17 C27 1.274 1_556 S
O18 Co7 1.976 . S
O18 C27 1.251 . S
O19 Co6 2.264 1_455 S
O19 Co7 2.327 . S
O19 C28 1.257 . S
O20 Co7 2.073 . S
O20 C28 1.245 . S
C21 O29 1.259 1_565 S
C21 O30 1.289 . S
C22 O31 1.246 1_556 S
C22 O32 1.257 . S
C23 O11 1.251 1_554 S
C23 O12 1.274 . S
C24 O9 1.245 . S
C24 O10 1.257 . S
C25 O14 1.259 1_545 S
C25 O15 1.289 . S
C26 O13 1.246 . S
C26 O16 1.257 . S
C27 O17 1.274 1_554 S
C27 O18 1.251 . S
C28 O19 1.257 . S
C28 O20 1.245 . S
O29 Co0 2.286 . S
O29 C21 1.259 1_545 S
O30 Co0 2.069 1_565 S
O30 C21 1.289 . S
O31 Co2 2.146 . S
O31 C22 1.246 1_554 S
O32 Co0 2.015 . S
O32 C22 1.257 . S
Co33 O36 2.042 . S
Co33 O43 2.264 . S
Co33 O62 2.286 . S
Co33 O63 2.069 . S
Co33 O65 2.015 . S
Co34 O36 2.122 . S
Co34 O42 2.073 . S
Co34 O43 2.327 . S
Co34 O44 1.976 1_545 S
Co35 O36 2.087 . S
Co35 O38 2.087 . S
Co35 O45 2.111 . S
Co35 O46 2.143 . S
Co35 O50 2.111 . S
Co35 O64 2.143 . S
O36 Co33 2.042 . S
O36 Co34 2.122 . S
O36 Co35 2.087 . S
O36 H37 0.980 . S
H37 O36 0.980 . S
O38 Co35 2.087 . S
O38 Co39 2.042 . S
O38 Co40 2.122 . S
O38 H41 0.980 . S
Co39 O38 2.042 . S
Co39 O47 2.286 . S
Co39 O48 2.069 . S
Co39 O49 2.015 . S
Co39 O52 2.264 . S
Co40 O38 2.122 . S
Co40 O51 1.976 . S
Co40 O52 2.327 . S
Co40 O53 2.073 . S
H41 O38 0.980 . S
O42 Co34 2.073 . S
O42 C57 1.245 . S
O43 Co33 2.264 . S
O43 Co34 2.327 . S
O43 C57 1.257 . S
O44 Co34 1.976 1_565 S
O44 C56 1.251 . S
O45 Co35 2.111 . S
O45 C56 1.274 1_545 S
O46 Co35 2.143 . S
O46 C59 1.246 . S
O47 Co39 2.286 . S
O47 C58 1.259 . S
O48 Co39 2.069 . S
O48 C58 1.289 . S
O49 Co39 2.015 . S
O49 C59 1.257 . S
O50 Co35 2.111 . S
O50 C60 1.274 . S
O51 Co40 1.976 . S
O51 C60 1.251 . S
O52 Co39 2.264 . S
O52 Co40 2.327 . S
O52 C61 1.257 . S
O53 Co40 2.073 . S
O53 C61 1.245 . S
C54 O62 1.259 . S
C54 O63 1.289 . S
C55 O64 1.246 . S
C55 O65 1.257 . S
C56 O44 1.251 . S
C56 O45 1.274 1_565 S
C57 O42 1.245 . S
C57 O43 1.257 . S
C58 O47 1.259 . S
C58 O48 1.289 . S
C59 O46 1.246 . S
C59 O49 1.257 . S
C60 O50 1.274 . S
C60 O51 1.251 . S
C61 O52 1.257 . S
C61 O53 1.245 . S
O62 Co33 2.286 . S
O62 C54 1.259 . S
O63 Co33 2.069 . S
O63 C54 1.289 . S
O64 Co35 2.143 . S
O64 C55 1.246 . S
O65 Co33 2.015 . S
O65 C55 1.257 . S
Co66 O69 2.042 . S
Co66 O76 2.264 . S
Co66 O95 2.286 . S
Co66 O96 2.069 . S
Co66 O98 2.015 . S
Co67 O69 2.122 . S
Co67 O75 2.073 . S
Co67 O76 2.327 . S
Co67 O77 1.976 . S
Co68 O69 2.087 . S
Co68 O71 2.087 . S
Co68 O78 2.111 . S
Co68 O79 2.143 . S
Co68 O83 2.111 . S
Co68 O97 2.143 . S
O69 Co66 2.042 . S
O69 Co67 2.122 . S
O69 Co68 2.087 . S
O69 H70 0.980 . S
H70 O69 0.980 . S
O71 Co68 2.087 . S
O71 Co72 2.042 . S
O71 Co73 2.122 . S
O71 H74 0.980 . S
Co72 O71 2.042 . S
Co72 O80 2.286 . S
Co72 O81 2.069 . S
Co72 O82 2.015 . S
Co72 O85 2.264 . S
Co73 O71 2.122 . S
Co73 O84 1.976 1_565 S
Co73 O85 2.327 . S
Co73 O86 2.073 . S
H74 O71 0.980 . S
O75 Co67 2.073 . S
O75 C90 1.245 . S
O76 Co66 2.264 . S
O76 Co67 2.327 . S
O76 C90 1.257 . S
O77 Co67 1.976 . S
O77 C89 1.251 . S
O78 Co68 2.111 . S
O78 C89 1.274 . S
O79 Co68 2.143 . S
O79 C92 1.246 . S
O80 Co72 2.286 . S
O80 C91 1.259 . S
O81 Co72 2.069 . S
O81 C91 1.289 . S
O82 Co72 2.015 . S
O82 C92 1.257 . S
O83 Co68 2.111 . S
O83 C93 1.274 1_565 S
O84 Co73 1.976 1_545 S
O84 C93 1.251 . S
O85 Co72 2.264 . S
O85 Co73 2.327 . S
O85 C94 1.257 . S
O86 Co73 2.073 . S
O86 C94 1.245 . S
C87 O95 1.259 . S
C87 O96 1.289 . S
C88 O97 1.246 . S
C88 O98 1.257 . S
C89 O77 1.251 . S
C89 O78 1.274 . S
C90 O75 1.245 . S
C90 O76 1.257 . S
C91 O80 1.259 . S
C91 O81 1.289 . S
C92 O79 1.246 . S
C92 O82 1.257 . S
C93 O83 1.274 1_545 S
C93 O84 1.251 . S
C94 O85 1.257 . S
C94 O86 1.245 . S
O95 Co66 2.286 . S
O95 C87 1.259 . S
O96 Co66 2.069 . S
O96 C87 1.289 . S
O97 Co68 2.143 . S
O97 C88 1.246 . S
O98 Co66 2.015 . S
O98 C88 1.257 . S
Co99 O102 2.042 1_455 S
Co99 O109 2.264 1_455 S
Co99 O128 2.286 . S
Co99 O129 2.069 . S
Co99 O131 2.015 . S
Co100 O102 2.122 . S
Co100 O108 2.073 . S
Co100 O109 2.327 . S
Co100 O110 1.976 . S
Co101 O102 2.087 1_455 S
Co101 O104 2.087 . S
Co101 O111 2.111 1_455 S
Co101 O112 2.143 1_455 S
Co101 O116 2.111 . S
Co101 O130 2.143 . S
O102 Co99 2.042 1_655 S
O102 Co100 2.122 . S
O102 Co101 2.087 1_655 S
O102 H103 0.980 . S
H103 O102 0.980 . S
O104 Co101 2.087 . S
O104 Co105 2.042 1_455 S
O104 Co106 2.122 . S
O104 H107 0.980 . S
Co105 O104 2.042 1_655 S
Co105 O113 2.286 . S
Co105 O114 2.069 . S
Co105 O115 2.015 . S
Co105 O118 2.264 1_655 S
Co106 O104 2.122 . S
Co106 O117 1.976 . S
Co106 O118 2.327 . S
Co106 O119 2.073 . S
H107 O104 0.980 . S
O108 Co100 2.073 . S
O108 C123 1.245 . S
O109 Co99 2.264 1_655 S
O109 Co100 2.327 . S
O109 C123 1.257 . S
O110 Co100 1.976 . S
O110 C122 1.251 . S
O111 Co101 2.111 1_655 S
O111 C122 1.274 . S
O112 Co101 2.143 1_655 S
O112 C125 1.246 . S
O113 Co105 2.286 . S
O113 C124 1.259 . S
O114 Co105 2.069 . S
O114 C124 1.289 . S
O115 Co105 2.015 . S
O115 C125 1.257 . S
O116 Co101 2.111 . S
O116 C126 1.274 . S
O117 Co106 1.976 . S
O117 C126 1.251 . S
O118 Co105 2.264 1_455 S
O118 Co106 2.327 . S
O118 C127 1.257 . S
O119 Co106 2.073 . S
O119 C127 1.245 . S
C120 O128 1.259 . S
C120 O129 1.289 . S
C121 O130 1.246 . S
C121 O131 1.257 . S
C122 O110 1.251 . S
C122 O111 1.274 . S
C123 O108 1.245 . S
C123 O109 1.257 . S
C124 O113 1.259 . S
C124 O114 1.289 . S
C125 O112 1.246 . S
C125 O115 1.257 . S
C126 O116 1.274 . S
C126 O117 1.251 . S
C127 O118 1.257 . S
C127 O119 1.245 . S
O128 Co99 2.286 . S
O128 C120 1.259 . S
O129 Co99 2.069 . S
O129 C120 1.289 . S
O130 Co101 2.143 . S
O130 C121 1.246 . S
O131 Co99 2.015 . S
O131 C121 1.257 . S
Co132 O135 2.042 . S
Co132 O142 2.264 . S
Co132 O161 2.286 . S
Co132 O162 2.069 . S
Co132 O164 2.015 . S
Co133 O135 2.122 . S
Co133 O141 2.073 . S
Co133 O142 2.327 . S
Co133 O143 1.976 . S
Co134 O135 2.087 . S
Co134 O137 2.087 . S
Co134 O144 2.111 . S
Co134 O145 2.143 . S
Co134 O149 2.111 . S
Co134 O163 2.143 . S
O135 Co132 2.042 . S
O135 Co133 2.122 . S
O135 Co134 2.087 . S
O135 H136 0.980 . S
H136 O135 0.980 . S
O137 Co134 2.087 . S
O137 Co138 2.042 . S
O137 Co139 2.122 . S
O137 H140 0.980 . S
Co138 O137 2.042 . S
Co138 O146 2.286 . S
Co138 O147 2.069 . S
Co138 O148 2.015 . S
Co138 O151 2.264 . S
Co139 O137 2.122 . S
Co139 O150 1.976 1_565 S
Co139 O151 2.327 . S
Co139 O152 2.073 . S
H140 O137 0.980 . S
O141 Co133 2.073 . S
O141 C156 1.245 . S
O142 Co132 2.264 . S
O142 Co133 2.327 . S
O142 C156 1.257 . S
O143 Co133 1.976 . S
O143 C155 1.251 . S
O144 Co134 2.111 . S
O144 C155 1.274 . S
O145 Co134 2.143 . S
O145 C158 1.246 . S
O146 Co138 2.286 . S
O146 C157 1.259 . S
O147 Co138 2.069 . S
O147 C157 1.289 . S
O148 Co138 2.015 . S
O148 C158 1.257 . S
O149 Co134 2.111 . S
O149 C159 1.274 1_565 S
O150 Co139 1.976 1_545 S
O150 C159 1.251 . S
O151 Co138 2.264 . S
O151 Co139 2.327 . S
O151 C160 1.257 . S
O152 Co139 2.073 . S
O152 C160 1.245 . S
C153 O161 1.259 . S
C153 O162 1.289 . S
C154 O163 1.246 . S
C154 O164 1.257 . S
C155 O143 1.251 . S
C155 O144 1.274 . S
C156 O141 1.245 . S
C156 O142 1.257 . S
C157 O146 1.259 . S
C157 O147 1.289 . S
C158 O145 1.246 . S
C158 O148 1.257 . S
C159 O149 1.274 1_545 S
C159 O150 1.251 . S
C160 O151 1.257 . S
C160 O152 1.245 . S
O161 Co132 2.286 . S
O161 C153 1.259 . S
O162 Co132 2.069 . S
O162 C153 1.289 . S
O163 Co134 2.143 . S
O163 C154 1.246 . S
O164 Co132 2.015 . S
O164 C154 1.257 . S
Co165 O168 2.042 . S
Co165 O175 2.264 . S
Co165 O194 2.286 . S
Co165 O195 2.069 . S
Co165 O197 2.015 . S
Co166 O168 2.122 . S
Co166 O174 2.073 . S
Co166 O175 2.327 . S
Co166 O176 1.976 1_545 S
Co167 O168 2.087 . S
Co167 O170 2.087 . S
Co167 O177 2.111 . S
Co167 O178 2.143 . S
Co167 O182 2.111 . S
Co167 O196 2.143 . S
O168 Co165 2.042 . S
O168 Co166 2.122 . S
O168 Co167 2.087 . S
O168 H169 0.980 . S
H169 O168 0.980 . S
O170 Co167 2.087 . S
O170 Co171 2.042 . S
O170 Co172 2.122 . S
O170 H173 0.980 . S
Co171 O170 2.042 . S
Co171 O179 2.286 . S
Co171 O180 2.069 . S
Co171 O181 2.015 . S
Co171 O184 2.264 . S
Co172 O170 2.122 . S
Co172 O183 1.976 . S
Co172 O184 2.327 . S
Co172 O185 2.073 . S
H173 O170 0.980 . S
O174 Co166 2.073 . S
O174 C189 1.245 . S
O175 Co165 2.264 . S
O175 Co166 2.327 . S
O175 C189 1.257 . S
O176 Co166 1.976 1_565 S
O176 C188 1.251 . S
O177 Co167 2.111 . S
O177 C188 1.274 1_545 S
O178 Co167 2.143 . S
O178 C191 1.246 . S
O179 Co171 2.286 . S
O179 C190 1.259 . S
O180 Co171 2.069 . S
O180 C190 1.289 . S
O181 Co171 2.015 . S
O181 C191 1.257 . S
O182 Co167 2.111 . S
O182 C192 1.274 . S
O183 Co172 1.976 . S
O183 C192 1.251 . S
O184 Co171 2.264 . S
O184 Co172 2.327 . S
O184 C193 1.257 . S
O185 Co172 2.073 . S
O185 C193 1.245 . S
C186 O194 1.259 . S
C186 O195 1.289 . S
C187 O196 1.246 . S
C187 O197 1.257 . S
C188 O176 1.251 . S
C188 O177 1.274 1_565 S
C189 O174 1.245 . S
C189 O175 1.257 . S
C190 O179 1.259 . S
C190 O180 1.289 . S
C191 O178 1.246 . S
C191 O181 1.257 . S
C192 O182 1.274 . S
C192 O183 1.251 . S
C193 O184 1.257 . S
C193 O185 1.245 . S
O194 Co165 2.286 . S
O194 C186 1.259 . S
O195 Co165 2.069 . S
O195 C186 1.289 . S
O196 Co167 2.143 . S
O196 C187 1.246 . S
O197 Co165 2.015 . S
O197 C187 1.257 . S
Co198 O201 2.044 . S
Co198 O208 2.264 . S
Co198 O227 2.286 . S
Co198 O228 2.069 1_545 S
Co198 O230 2.015 . S
Co199 O201 2.128 . S
Co199 O207 2.073 . S
Co199 O208 2.327 . S
Co199 O209 1.976 . S
Co200 O201 2.086 . S
Co200 O203 2.086 . S
Co200 O210 2.115 . S
Co200 O211 2.142 1_545 S
Co200 O215 2.108 1_545 S
Co200 O229 2.145 . S
O201 Co198 2.044 . S
O201 Co199 2.128 . S
O201 Co200 2.086 . S
O201 H202 0.974 1_545 S
H202 O201 0.974 1_565 S
O203 Co200 2.086 . S
O203 Co204 2.042 1_545 S
O203 Co205 2.122 1_545 S
O203 H206 0.980 . S
Co204 O203 2.042 1_565 S
Co204 O212 2.286 . S
Co204 O213 2.069 1_565 S
Co204 O214 2.015 . S
Co204 O217 2.264 . S
Co205 O203 2.122 1_565 S
Co205 O216 1.976 . S
Co205 O217 2.327 . S
Co205 O218 2.073 . S
H206 O203 0.980 . S
O207 Co199 2.073 . S
O207 C222 1.245 . S
O208 Co198 2.264 . S
O208 Co199 2.327 . S
O208 C222 1.257 . S
O209 Co199 1.976 . S
O209 C221 1.251 . S
O210 Co200 2.115 . S
O210 C221 1.274 . S
O211 Co200 2.142 1_565 S
O211 C224 1.246 . S
O212 Co204 2.286 . S
O212 C223 1.259 1_565 S
O213 Co204 2.069 1_545 S
O213 C223 1.289 . S
O214 Co204 2.015 . S
O214 C224 1.257 . S
O215 Co200 2.108 1_565 S
O215 C225 1.274 . S
O216 Co205 1.976 . S
O216 C225 1.251 . S
O217 Co204 2.264 . S
O217 Co205 2.327 . S
O217 C226 1.257 . S
O218 Co205 2.073 . S
O218 C226 1.245 . S
C219 O227 1.259 1_565 S
C219 O228 1.289 . S
C220 O229 1.246 . S
C220 O230 1.257 . S
C221 O209 1.251 . S
C221 O210 1.274 . S
C222 O207 1.245 . S
C222 O208 1.257 . S
C223 O212 1.259 1_545 S
C223 O213 1.289 . S
C224 O211 1.246 . S
C224 O214 1.257 . S
C225 O215 1.274 . S
C225 O216 1.251 . S
C226 O217 1.257 . S
C226 O218 1.245 . S
O227 Co198 2.286 . S
O227 C219 1.259 1_545 S
O228 Co198 2.069 1_565 S
O228 C219 1.289 . S
O229 Co200 2.145 . S
O229 C220 1.246 . S
O230 Co198 2.015 . S
O230 C220 1.257 . S
Co231 O234 2.042 . S
Co231 O241 2.264 . S
Co231 O260 2.286 . S
Co231 O261 2.069 . S
Co231 O263 2.015 . S
Co232 O234 2.122 . S
Co232 O240 2.073 . S
Co232 O241 2.327 . S
Co232 O242 1.976 . S
Co233 O234 2.087 1_554 S
Co233 O236 2.087 . S
Co233 O243 2.111 . S
Co233 O244 2.143 . S
Co233 O248 2.111 1_554 S
Co233 O262 2.143 . S
O234 Co231 2.042 . S
O234 Co232 2.122 . S
O234 Co233 2.087 1_556 S
O234 H235 0.980 . S
H235 O234 0.980 . S
O236 Co233 2.087 . S
O236 Co237 2.042 . S
O236 Co238 2.122 . S
O236 H239 0.980 . S
Co237 O236 2.042 . S
Co237 O245 2.286 . S
Co237 O246 2.069 . S
Co237 O247 2.015 . S
Co237 O250 2.264 . S
Co238 O236 2.122 . S
Co238 O249 1.976 . S
Co238 O250 2.327 . S
Co238 O251 2.073 . S
H239 O236 0.980 . S
O240 Co232 2.073 . S
O240 C255 1.245 . S
O241 Co231 2.264 . S
O241 Co232 2.327 . S
O241 C255 1.257 . S
O242 Co232 1.976 . S
O242 C254 1.251 1_556 S
O243 Co233 2.111 . S
O243 C254 1.274 . S
O244 Co233 2.143 . S
O244 C257 1.246 . S
O245 Co237 2.286 . S
O245 C256 1.259 . S
O246 Co237 2.069 . S
O246 C256 1.289 . S
O247 Co237 2.015 . S
O247 C257 1.257 . S
O248 Co233 2.111 1_556 S
O248 C258 1.274 1_556 S
O249 Co238 1.976 . S
O249 C258 1.251 . S
O250 Co237 2.264 . S
O250 Co238 2.327 . S
O250 C259 1.257 . S
O251 Co238 2.073 . S
O251 C259 1.245 . S
C252 O260 1.259 . S
C252 O261 1.289 . S
C253 O262 1.246 1_556 S
C253 O263 1.257 . S
C254 O242 1.251 1_554 S
C254 O243 1.274 . S
C255 O240 1.245 . S
C255 O241 1.257 . S
C256 O245 1.259 . S
C256 O246 1.289 . S
C257 O244 1.246 . S
C257 O247 1.257 . S
C258 O248 1.274 1_554 S
C258 O249 1.251 . S
C259 O250 1.257 . S
C259 O251 1.245 . S
O260 Co231 2.286 . S
O260 C252 1.259 . S
O261 Co231 2.069 . S
O261 C252 1.289 . S
O262 Co233 2.143 . S
O262 C253 1.246 1_554 S
O263 Co231 2.015 . S
O263 C253 1.257 . S
C264 C265 1.387 . S
C264 H268 0.950 . S
C264 C273 1.390 1_565 S
C265 C264 1.387 . S
C265 C267 1.387 1_565 S
H266 C273 0.950 . S
C267 C265 1.387 1_545 S
C267 C269 1.390 . S
C267 H271 0.950 . S
H268 C264 0.950 . S
C269 C267 1.390 . S
C269 C270 1.387 . S
C269 H272 0.950 . S
C270 C269 1.387 . S
C270 C273 1.387 . S
H271 C267 0.950 . S
H272 C269 0.950 . S
C273 C264 1.390 1_545 S
C273 H266 0.950 . S
C273 C270 1.387 . S
C274 C275 1.387 . S
C274 H278 0.950 . S
C274 C283 1.390 1_545 S
C275 C274 1.387 . S
C275 C277 1.387 1_545 S
H276 C283 0.950 . S
C277 C275 1.387 1_565 S
C277 C279 1.390 . S
C277 H281 0.950 . S
H278 C274 0.950 . S
C279 C277 1.390 . S
C279 C280 1.387 . S
C279 H282 0.950 . S
C280 C279 1.387 . S
C280 C283 1.387 . S
H281 C277 0.950 . S
H282 C279 0.950 . S
C283 C274 1.390 1_565 S
C283 H276 0.950 . S
C283 C280 1.387 . S
C284 C285 1.387 . S
C284 H288 0.950 . S
C284 C293 1.390 . S
C285 C284 1.387 . S
C285 C287 1.387 . S
H286 C293 0.950 . S
C287 C285 1.387 . S
C287 C289 1.390 . S
C287 H291 0.950 . S
H288 C284 0.950 . S
C289 C287 1.390 . S
C289 C290 1.387 . S
C289 H292 0.950 . S
C290 C289 1.387 . S
C290 C293 1.387 . S
H291 C287 0.950 . S
H292 C289 0.950 . S
C293 C284 1.390 . S
C293 H286 0.950 . S
C293 C290 1.387 . S
C294 C295 1.387 . S
C294 H298 0.950 . S
C294 C303 1.390 . S
C295 C294 1.387 . S
C295 C297 1.387 . S
H296 C303 0.950 . S
C297 C295 1.387 . S
C297 C299 1.390 . S
C297 H301 0.950 . S
H298 C294 0.950 . S
C299 C297 1.390 . S
C299 C300 1.387 . S
C299 H302 0.950 . S
C300 C299 1.387 . S
C300 C303 1.387 . S
H301 C297 0.950 . S
H302 C299 0.950 . S
C303 C294 1.390 . S
C303 H296 0.950 . S
C303 C300 1.387 . S
C304 C305 1.387 . S
C304 H308 0.950 . S
C304 C313 1.390 . S
C305 C304 1.387 . S
C305 C307 1.387 . S
H306 C313 0.950 . S
C307 C305 1.387 . S
C307 C309 1.390 . S
C307 H311 0.950 . S
H308 C304 0.950 . S
C309 C307 1.390 . S
C309 C310 1.387 . S
C309 H312 0.950 . S
C310 C309 1.387 . S
C310 C313 1.387 . S
H311 C307 0.950 . S
H312 C309 0.950 . S
C313 C304 1.390 . S
C313 H306 0.950 . S
C313 C310 1.387 . S
C314 C315 1.387 . S
C314 H318 0.950 . S
C314 C323 1.390 . S
C315 C314 1.387 . S
C315 C317 1.387 . S
H316 C323 0.950 . S
C317 C315 1.387 . S
C317 C319 1.390 . S
C317 H321 0.950 . S
H318 C314 0.950 . S
C319 C317 1.390 . S
C319 C320 1.387 . S
C319 H322 0.950 . S
C320 C319 1.387 . S
C320 C323 1.387 . S
H321 C317 0.950 . S
H322 C319 0.950 . S
C323 C314 1.390 . S
C323 H316 0.950 . S
C323 C320 1.387 . S
C324 C325 1.387 . S
C324 H328 0.950 . S
C324 C333 1.390 . S
C325 C324 1.387 . S
C325 C327 1.387 . S
H326 C333 0.950 . S
C327 C325 1.387 . S
C327 C329 1.390 . S
C327 H331 0.950 . S
H328 C324 0.950 . S
C329 C327 1.390 . S
C329 C330 1.387 . S
C329 H332 0.950 . S
C330 C329 1.387 . S
C330 C333 1.387 . S
H331 C327 0.950 . S
H332 C329 0.950 . S
C333 C324 1.390 . S
C333 H326 0.950 . S
C333 C330 1.387 . S
C334 C335 1.387 . S
C334 H338 0.950 . S
C334 C343 1.390 . S
C335 C334 1.387 . S
C335 C337 1.387 . S
H336 C343 0.950 1_455 S
C337 C335 1.387 . S
C337 C339 1.390 . S
C337 H341 0.950 . S
H338 C334 0.950 . S
C339 C337 1.390 . S
C339 C340 1.387 . S
C339 H342 0.950 . S
C340 C339 1.387 . S
C340 C343 1.387 . S
H341 C337 0.950 . S
H342 C339 0.950 . S
C343 C334 1.390 . S
C343 H336 0.950 1_655 S
C343 C340 1.387 . S
C344 C345 1.387 . S
C344 H348 0.950 . S
C344 C353 1.390 . S
C345 C344 1.387 . S
C345 C347 1.387 . S
H346 C353 0.950 . S
C347 C345 1.387 . S
C347 C349 1.390 1_545 S
C347 H351 0.950 . S
H348 C344 0.950 . S
C349 C347 1.390 1_565 S
C349 C350 1.387 . S
C349 H352 0.950 . S
C350 C349 1.387 . S
C350 C353 1.387 1_565 S
H351 C347 0.950 . S
H352 C349 0.950 . S
C353 C344 1.390 . S
C353 H346 0.950 . S
C353 C350 1.387 1_545 S
C354 C355 1.387 . S
C354 H358 0.950 . S
C354 C363 1.390 1_545 S
C355 C354 1.387 . S
C355 C357 1.387 1_545 S
H356 C363 0.950 1_545 S
C357 C355 1.387 1_565 S
C357 C359 1.390 . S
C357 H361 0.950 . S
H358 C354 0.950 . S
C359 C357 1.390 . S
C359 C360 1.387 . S
C359 H362 0.950 . S
C360 C359 1.387 . S
C360 C363 1.387 . S
H361 C357 0.950 . S
H362 C359 0.950 . S
C363 C354 1.390 1_565 S
C363 H356 0.950 1_565 S
C363 C360 1.387 . S
C364 C365 1.387 . S
C364 H368 0.950 . S
C364 C373 1.390 . S
C365 C364 1.387 . S
C365 C367 1.387 . S
H366 C373 0.950 . S
C367 C365 1.387 . S
C367 C369 1.390 . S
C367 H371 0.950 . S
H368 C364 0.950 . S
C369 C367 1.390 . S
C369 C370 1.387 . S
C369 H372 0.950 . S
C370 C369 1.387 . S
C370 C373 1.387 . S
H371 C367 0.950 . S
H372 C369 0.950 . S
C373 C364 1.390 . S
C373 H366 0.950 . S
C373 C370 1.387 . S
C374 C375 1.387 . S
C374 H378 0.950 . S
C374 C383 1.390 . S
C375 C374 1.387 . S
C375 C377 1.387 . S
H376 C383 0.950 . S
C377 C375 1.387 . S
C377 C379 1.390 . S
C377 H381 0.950 . S
H378 C374 0.950 . S
C379 C377 1.390 . S
C379 C380 1.387 . S
C379 H382 0.950 . S
C380 C379 1.387 . S
C380 C383 1.387 . S
H381 C377 0.950 . S
H382 C379 0.950 . S
C383 C374 1.390 . S
C383 H376 0.950 . S
C383 C380 1.387 . S
C384 C385 1.387 . S
C384 H388 0.950 . S
C384 C393 1.390 . S
C385 C384 1.387 . S
C385 C387 1.387 . S
H386 C393 0.950 . S
C387 C385 1.387 . S
C387 C389 1.390 . S
C387 H391 0.950 . S
H388 C384 0.950 . S
C389 C387 1.390 . S
C389 C390 1.387 . S
C389 H392 0.950 . S
C390 C389 1.387 . S
C390 C393 1.387 . S
H391 C387 0.950 . S
H392 C389 0.950 . S
C393 C384 1.390 . S
C393 H386 0.950 . S
C393 C390 1.387 . S
C394 C395 1.387 . S
C394 H398 0.950 . S
C394 C403 1.390 . S
C395 C394 1.387 . S
C395 C397 1.387 . S
H396 C403 0.950 . S
C397 C395 1.387 . S
C397 C399 1.390 . S
C397 H401 0.950 . S
H398 C394 0.950 . S
C399 C397 1.390 . S
C399 C400 1.387 . S
C399 H402 0.950 . S
C400 C399 1.387 . S
C400 C403 1.387 . S
H401 C397 0.950 . S
H402 C399 0.950 . S
C403 C394 1.390 . S
C403 H396 0.950 . S
C403 C400 1.387 . S
C404 C405 1.387 . S
C404 H408 0.950 . S
C404 C413 1.390 . S
C405 C404 1.387 . S
C405 C407 1.387 . S
H406 C413 0.950 . S
C407 C405 1.387 . S
C407 C409 1.390 . S
C407 H411 0.950 1_565 S
H408 C404 0.950 . S
C409 C407 1.390 . S
C409 C410 1.387 . S
C409 H412 0.950 . S
C410 C409 1.387 . S
C410 C413 1.387 . S
H411 C407 0.950 1_545 S
H412 C409 0.950 . S
C413 C404 1.390 . S
C413 H406 0.950 . S
C413 C410 1.387 . S
C414 C415 1.387 . S
C414 H418 0.950 . S
C414 C423 1.390 . S
C415 C414 1.387 . S
C415 C417 1.387 . S
H416 C423 0.950 . S
C417 C415 1.387 . S
C417 C419 1.390 . S
C417 H421 0.950 . S
H418 C414 0.950 . S
C419 C417 1.390 . S
C419 C420 1.387 . S
C419 H422 0.950 . S
C420 C419 1.387 . S
C420 C423 1.387 . S
H421 C417 0.950 . S
H422 C419 0.950 . S
C423 C414 1.390 . S
C423 H416 0.950 . S
C423 C420 1.387 . S
C424 C425 1.387 1_655 S
C424 H428 0.950 . S
C424 C433 1.390 . S
C425 C424 1.387 1_455 S
C425 C427 1.387 . S
H426 C433 0.950 . S
C427 C425 1.387 . S
C427 C429 1.390 . S
C427 H431 0.950 . S
H428 C424 0.950 . S
C429 C427 1.390 . S
C429 C430 1.387 . S
C429 H432 0.950 . S
C430 C429 1.387 . S
C430 C433 1.387 1_455 S
H431 C427 0.950 . S
H432 C429 0.950 . S
C433 C424 1.390 . S
C433 H426 0.950 . S
C433 C430 1.387 1_655 S
C434 C435 1.387 . S
C434 H438 0.950 . S
C434 C443 1.390 . S
C435 C434 1.387 . S
C435 C437 1.387 . S
H436 C443 0.950 . S
C437 C435 1.387 . S
C437 C439 1.390 . S
C437 H441 0.950 . S
H438 C434 0.950 . S
C439 C437 1.390 . S
C439 C440 1.387 . S
C439 H442 0.950 . S
C440 C439 1.387 . S
C440 C443 1.387 . S
H441 C437 0.950 . S
H442 C439 0.950 . S
C443 C434 1.390 . S
C443 H436 0.950 . S
C443 C440 1.387 . S
C444 C445 1.387 . S
C444 H448 0.950 . S
C444 C453 1.390 . S
C445 C444 1.387 . S
C445 C447 1.387 . S
H446 C453 0.950 . S
C447 C445 1.387 . S
C447 C449 1.390 . S
C447 H451 0.950 . S
H448 C444 0.950 . S
C449 C447 1.390 . S
C449 C450 1.387 . S
C449 H452 0.950 . S
C450 C449 1.387 . S
C450 C453 1.387 . S
H451 C447 0.950 . S
H452 C449 0.950 . S
C453 C444 1.390 . S
C453 H446 0.950 . S
C453 C450 1.387 . S
C454 C455 1.387 . S
C454 H458 0.950 . S
C454 C463 1.390 1_565 S
C455 C454 1.387 . S
C455 C457 1.387 1_455 S
H456 C463 0.950 . S
C457 C455 1.387 1_655 S
C457 C459 1.390 1_565 S
C457 H461 0.950 . S
H458 C454 0.950 . S
C459 C457 1.390 1_545 S
C459 C460 1.387 1_655 S
C459 H462 0.950 . S
C460 C459 1.387 1_455 S
C460 C463 1.387 . S
H461 C457 0.950 . S
H462 C459 0.950 . S
C463 C454 1.390 1_545 S
C463 H456 0.950 . S
C463 C460 1.387 . S
C464 C465 1.387 . S
C464 H468 0.950 . S
C464 C473 1.390 . S
C465 C464 1.387 . S
C465 C467 1.387 . S
H466 C473 0.950 . S
C467 C465 1.387 . S
C467 C469 1.390 . S
C467 H471 0.950 . S
H468 C464 0.950 . S
C469 C467 1.390 . S
C469 C470 1.387 . S
C469 H472 0.950 . S
C470 C469 1.387 . S
C470 C473 1.387 . S
H471 C467 0.950 . S
H472 C469 0.950 . S
C473 C464 1.390 . S
C473 H466 0.950 . S
C473 C470 1.387 . S
C474 C475 1.387 . S
C474 H478 0.950 . S
C474 C483 1.390 . S
C475 C474 1.387 . S
C475 C477 1.387 . S
H476 C483 0.950 . S
C477 C475 1.387 . S
C477 C479 1.390 . S
C477 H481 0.950 . S
H478 C474 0.950 . S
C479 C477 1.390 . S
C479 C480 1.387 . S
C479 H482 0.950 . S
C480 C479 1.387 . S
C480 C483 1.387 . S
H481 C477 0.950 . S
H482 C479 0.950 . S
C483 C474 1.390 . S
C483 H476 0.950 . S
C483 C480 1.387 . S
C484 C485 1.387 . S
C484 H488 0.950 . S
C484 C493 1.390 . S
C485 C484 1.387 . S
C485 C487 1.387 . S
H486 C493 0.950 . S
C487 C485 1.387 . S
C487 C489 1.390 . S
C487 H491 0.950 . S
H488 C484 0.950 . S
C489 C487 1.390 . S
C489 C490 1.387 . S
C489 H492 0.950 . S
C490 C489 1.387 . S
C490 C493 1.387 . S
H491 C487 0.950 . S
H492 C489 0.950 . S
C493 C484 1.390 . S
C493 H486 0.950 . S
C493 C490 1.387 . S
C494 C495 1.387 . S
C494 H498 0.950 . S
C494 C503 1.390 1_565 S
C495 C494 1.387 . S
C495 C497 1.387 . S
H496 C503 0.950 . S
C497 C495 1.387 . S
C497 C499 1.390 1_565 S
C497 H501 0.950 . S
H498 C494 0.950 . S
C499 C497 1.390 1_545 S
C499 C500 1.387 . S
C499 H502 0.950 . S
C500 C499 1.387 . S
C500 C503 1.387 . S
H501 C497 0.950 . S
H502 C499 0.950 . S
C503 C494 1.390 1_545 S
C503 H496 0.950 . S
C503 C500 1.387 . S
C504 C505 1.387 . S
C504 H508 0.950 . S
C504 C513 1.390 . S
C505 C504 1.387 . S
C505 C507 1.387 1_554 S
H506 C513 0.950 . S
C507 C505 1.387 1_556 S
C507 C509 1.390 . S
C507 H511 0.950 . S
H508 C504 0.950 . S
C509 C507 1.390 . S
C509 C510 1.408 . S
C509 H512 0.950 . S
C510 C509 1.408 . S
C510 C513 1.361 1_556 S
H511 C507 0.950 . S
H512 C509 0.950 . S
C513 C504 1.390 . S
C513 H506 0.950 . S
C513 C510 1.361 1_554 S
C514 C515 1.387 1_556 S
C514 H518 0.950 . S
C514 C523 1.390 . S
C515 C514 1.387 1_554 S
C515 C517 1.387 . S
H516 C523 0.950 . S
C517 C515 1.387 . S
C517 C519 1.390 . S
C517 H521 0.950 . S
H518 C514 0.950 . S
C519 C517 1.390 . S
C519 C520 1.357 1_554 S
C519 H522 0.950 . S
C520 C519 1.357 1_556 S
C520 C523 1.411 . S
H521 C517 0.950 . S
H522 C519 0.950 . S
C523 C514 1.390 . S
C523 H516 0.950 . S
C523 C520 1.411 . S
C524 C525 1.387 . S
C524 H528 0.950 . S
C524 C533 1.390 1_455 S
C525 C524 1.387 . S
C525 C527 1.387 . S
H526 C533 0.950 . S
C527 C525 1.387 . S
C527 C529 1.390 1_455 S
C527 H531 0.950 . S
H528 C524 0.950 . S
C529 C527 1.390 1_655 S
C529 C530 1.387 . S
C529 H532 0.950 . S
C530 C529 1.387 . S
C530 C533 1.387 . S
H531 C527 0.950 . S
H532 C529 0.950 . S
C533 C524 1.390 1_655 S
C533 H526 0.950 . S
C533 C530 1.387 . S
C534 C535 1.387 . S
C534 H538 0.950 . S
C534 C543 1.390 . S
C535 C534 1.387 . S
C535 C537 1.387 . S
H536 C543 0.950 . S
C537 C535 1.387 . S
C537 C539 1.390 . S
C537 H541 0.950 . S
H538 C534 0.950 . S
C539 C537 1.390 . S
C539 C540 1.387 . S
C539 H542 0.950 . S
C540 C539 1.387 . S
C540 C543 1.387 . S
H541 C537 0.950 . S
H542 C539 0.950 . S
C543 C534 1.390 . S
C543 H536 0.950 . S
C543 C540 1.387 . S
C544 C545 1.387 . S
C544 H548 0.950 . S
C544 C553 1.390 . S
C545 C544 1.387 . S
C545 C547 1.387 . S
H546 C553 0.950 . S
C547 C545 1.387 . S
C547 C549 1.390 . S
C547 H551 0.950 . S
H548 C544 0.950 . S
C549 C547 1.390 . S
C549 C550 1.387 . S
C549 H552 0.950 . S
C550 C549 1.387 . S
C550 C553 1.387 . S
H551 C547 0.950 . S
H552 C549 0.950 . S
C553 C544 1.390 . S
C553 H546 0.950 . S
C553 C550 1.387 . S
C554 C555 1.387 . S
C554 H558 0.950 . S
C554 C563 1.390 1_655 S
C555 C554 1.387 . S
C555 C557 1.387 1_545 S
H556 C563 0.950 . S
C557 C555 1.387 1_565 S
C557 C559 1.390 1_655 S
C557 H561 0.950 . S
H558 C554 0.950 . S
C559 C557 1.390 1_455 S
C559 C560 1.387 . S
C559 H562 0.950 . S
C560 C559 1.387 . S
C560 C563 1.387 1_565 S
H561 C557 0.950 . S
H562 C559 0.950 . S
C563 C554 1.390 1_455 S
C563 H556 0.950 . S
C563 C560 1.387 1_545 S
C564 C565 1.387 . S
C564 H568 0.950 . S
C564 C573 1.390 . S
C565 C564 1.387 . S
C565 C567 1.387 . S
H566 C573 0.950 . S
C567 C565 1.387 . S
C567 C569 1.390 . S
C567 H571 0.950 . S
H568 C564 0.950 . S
C569 C567 1.390 . S
C569 C570 1.387 . S
C569 H572 0.950 . S
C570 C569 1.387 . S
C570 C573 1.387 . S
H571 C567 0.950 . S
H572 C569 0.950 . S
C573 C564 1.390 . S
C573 H566 0.950 . S
C573 C570 1.387 . S
C574 C575 1.387 . S
C574 H578 0.950 . S
C574 C583 1.390 1_565 S
C575 C574 1.387 . S
C575 C577 1.387 . S
H576 C583 0.950 . S
C577 C575 1.387 . S
C577 C579 1.390 1_565 S
C577 H581 0.950 . S
H578 C574 0.950 . S
C579 C577 1.390 1_545 S
C579 C580 1.387 . S
C579 H582 0.950 . S
C580 C579 1.387 . S
C580 C583 1.387 . S
H581 C577 0.950 . S
H582 C579 0.950 . S
C583 C574 1.390 1_545 S
C583 H576 0.950 . S
C583 C580 1.387 . S
C265 C28 1.672 . S
C270 C58 1.714 . S
C275 C25 1.913 . S
C280 C94 1.939 . S
C285 C120 1.714 . S
C290 C57 1.672 . S
C295 C87 1.910 . S
C300 C123 1.938 . S
C305 C127 1.671 . S
C310 C157 1.714 . S
C315 C193 1.936 . S
C320 C124 1.909 . S
C325 C156 1.672 . S
C330 C21 1.715 . S
C335 C186 1.909 . S
C340 C24 1.936 . S
C345 C190 1.714 . S
C350 C226 1.672 . S
C355 C223 1.912 . S
C360 C160 1.939 . S
C365 C252 1.715 . S
C370 C189 1.674 . S
C375 C255 1.936 . S
C380 C153 1.909 . S
C385 C259 1.674 . S
C390 C91 1.715 . S
C395 C61 1.937 . S
C400 C256 1.911 . S
C405 C219 1.714 . S
C410 C90 1.672 . S
C415 C222 1.938 . S
C420 C54 1.912 . S
C425 C27 1.182 . S
C430 C23 1.182 1_455 S
C435 C60 1.187 . S
C440 C56 1.187 . S
C445 C93 1.187 . S
C450 C89 1.187 . S
C455 C122 1.187 1_455 S
C460 C126 1.187 . S
C465 C159 1.182 . S
C470 C155 1.182 . S
C475 C192 1.187 . S
C480 C188 1.187 . S
C485 C225 1.187 . S
C490 C221 1.187 . S
C495 C254 1.187 . S
C500 C258 1.187 . S
C505 C257 1.117 . S
C510 C22 1.127 . S
C515 C26 1.115 . S
C520 C253 1.127 . S
C525 C59 1.117 . S
C530 C88 1.117 . S
C535 C224 1.117 . S
C540 C121 1.117 . S
C545 C125 1.118 . S
C550 C220 1.118 . S
C555 C187 1.117 . S
C560 C158 1.117 . S
C565 C191 1.117 . S
C570 C154 1.117 . S
C575 C92 1.117 . S
C580 C55 1.117 . S
