# Generated by pormake.
# Topology lcy-e, (6)-cn, num edge types: 1
# Building blocks:
#     Node 0, Type 0, BuildingBlock: BETDAH_clean_sbu_0, # of connection points: 6
#     Node 1, Type 0, BuildingBlock: BETDAH_clean_sbu_0, # of connection points: 6
#     Node 2, Type 0, BuildingBlock: BETDAH_clean_sbu_0, # of connection points: 6
#     Node 3, Type 0, BuildingBlock: BETDAH_clean_sbu_0, # of connection points: 6
#     Node 4, Type 0, BuildingBlock: BETDAH_clean_sbu_0, # of connection points: 6
#     Node 5, Type 0, BuildingBlock: BETDAH_clean_sbu_0, # of connection points: 6
#     Node 6, Type 0, BuildingBlock: BETDAH_clean_sbu_0, # of connection points: 6
#     Node 7, Type 0, BuildingBlock: BETDAH_clean_sbu_0, # of connection points: 6
#     Node 8, Type 0, BuildingBlock: BETDAH_clean_sbu_0, # of connection points: 6
#     Node 9, Type 0, BuildingBlock: BETDAH_clean_sbu_0, # of connection points: 6
#     Node 10, Type 0, BuildingBlock: BETDAH_clean_sbu_0, # of connection points: 6
#     Node 11, Type 0, BuildingBlock: BETDAH_clean_sbu_0, # of connection points: 6
#     Edge 12, Type (0, 0), BuildingBlock: OJICUG_clean_linker_0, # of connection points: 2
#     Edge 13, Type (0, 0), BuildingBlock: OJICUG_clean_linker_0, # of connection points: 2
#     Edge 14, Type (0, 0), BuildingBlock: OJICUG_clean_linker_0, # of connection points: 2
#     Edge 15, Type (0, 0), BuildingBlock: OJICUG_clean_linker_0, # of connection points: 2
#     Edge 16, Type (0, 0), BuildingBlock: OJICUG_clean_linker_0, # of connection points: 2
#     Edge 17, Type (0, 0), BuildingBlock: OJICUG_clean_linker_0, # of connection points: 2
#     Edge 18, Type (0, 0), BuildingBlock: OJICUG_clean_linker_0, # of connection points: 2
#     Edge 19, Type (0, 0), BuildingBlock: OJICUG_clean_linker_0, # of connection points: 2
#     Edge 20, Type (0, 0), BuildingBlock: OJICUG_clean_linker_0, # of connection points: 2
#     Edge 21, Type (0, 0), BuildingBlock: OJICUG_clean_linker_0, # of connection points: 2
#     Edge 22, Type (0, 0), BuildingBlock: OJICUG_clean_linker_0, # of connection points: 2
#     Edge 23, Type (0, 0), BuildingBlock: OJICUG_clean_linker_0, # of connection points: 2
#     Edge 24, Type (0, 0), BuildingBlock: OJICUG_clean_linker_0, # of connection points: 2
#     Edge 25, Type (0, 0), BuildingBlock: OJICUG_clean_linker_0, # of connection points: 2
#     Edge 26, Type (0, 0), BuildingBlock: OJICUG_clean_linker_0, # of connection points: 2
#     Edge 27, Type (0, 0), BuildingBlock: OJICUG_clean_linker_0, # of connection points: 2
#     Edge 28, Type (0, 0), BuildingBlock: OJICUG_clean_linker_0, # of connection points: 2
#     Edge 29, Type (0, 0), BuildingBlock: OJICUG_clean_linker_0, # of connection points: 2
#     Edge 30, Type (0, 0), BuildingBlock: OJICUG_clean_linker_0, # of connection points: 2
#     Edge 31, Type (0, 0), BuildingBlock: OJICUG_clean_linker_0, # of connection points: 2
#     Edge 32, Type (0, 0), BuildingBlock: OJICUG_clean_linker_0, # of connection points: 2
#     Edge 33, Type (0, 0), BuildingBlock: OJICUG_clean_linker_0, # of connection points: 2
#     Edge 34, Type (0, 0), BuildingBlock: OJICUG_clean_linker_0, # of connection points: 2
#     Edge 35, Type (0, 0), BuildingBlock: OJICUG_clean_linker_0, # of connection points: 2
#     Edge 36, Type (0, 0), BuildingBlock: OJICUG_clean_linker_0, # of connection points: 2
#     Edge 37, Type (0, 0), BuildingBlock: OJICUG_clean_linker_0, # of connection points: 2
#     Edge 38, Type (0, 0), BuildingBlock: OJICUG_clean_linker_0, # of connection points: 2
#     Edge 39, Type (0, 0), BuildingBlock: OJICUG_clean_linker_0, # of connection points: 2
#     Edge 40, Type (0, 0), BuildingBlock: OJICUG_clean_linker_0, # of connection points: 2
#     Edge 41, Type (0, 0), BuildingBlock: OJICUG_clean_linker_0, # of connection points: 2
#     Edge 42, Type (0, 0), BuildingBlock: OJICUG_clean_linker_0, # of connection points: 2
#     Edge 43, Type (0, 0), BuildingBlock: OJICUG_clean_linker_0, # of connection points: 2
#     Edge 44, Type (0, 0), BuildingBlock: OJICUG_clean_linker_0, # of connection points: 2
#     Edge 45, Type (0, 0), BuildingBlock: OJICUG_clean_linker_0, # of connection points: 2
#     Edge 46, Type (0, 0), BuildingBlock: OJICUG_clean_linker_0, # of connection points: 2
#     Edge 47, Type (0, 0), BuildingBlock: OJICUG_clean_linker_0, # of connection points: 2
# Relax obj value: 0.196
# Max RMSD: 0.322
# Mean RMSD: 0.299
data_MOF--net-lcy-e--node1-BETDAH_clean_sbu_0--edge1-OJICUG_clean_linker_0
_symmetry_space_group_name_H-M    P1
_symmetry_Int_Tables_number       1
_symmetry_cell_setting            triclinic
loop_
_symmetry_equiv_pos_as_xyz
'x, y, z'
_cell_length_a     34.976662
_cell_length_b     32.519261
_cell_length_c     35.078789
_cell_angle_alpha  89.072554
_cell_angle_beta   91.094322
_cell_angle_gamma 88.082459
loop_
_atom_site_label
_atom_site_type_symbol
_atom_site_fract_x
_atom_site_fract_y
_atom_site_fract_z
_atom_type_partial_charge
Ho0 Ho 0.14625 0.29554 0.48577 0.0
Ho1 Ho 0.16382 0.23103 0.54627 0.0
C2 C 0.21538 0.232 0.4701 0.0
C3 C 0.1331 0.35728 0.43913 0.0
C4 C 0.13893 0.36343 0.39802 0.0
C5 C 0.16406 0.33699 0.3784 0.0
C6 C 0.17465 0.34661 0.34114 0.0
C7 C 0.15989 0.38255 0.32269 0.0
C8 C 0.13321 0.4078 0.34179 0.0
C9 C 0.12299 0.3984 0.37922 0.0
C10 C 0.1095 0.22376 0.4764 0.0
C11 C 0.10342 0.29604 0.56679 0.0
C12 C 0.17319 0.16202 0.58324 0.0
C13 C 0.15055 0.13021 0.60117 0.0
C14 C 0.11271 0.13804 0.61238 0.0
C15 C 0.09265 0.10718 0.63088 0.0
C16 C 0.11029 0.06828 0.63832 0.0
C17 C 0.14765 0.06037 0.62557 0.0
C18 C 0.16757 0.09108 0.60726 0.0
C19 C 0.19942 0.30258 0.55845 0.0
O20 O 0.19925 0.2678 0.45959 0.0
O21 O 0.20395 0.2116 0.50035 0.0
O22 O 0.10663 0.3321 0.44928 0.0
O23 O 0.16464 0.35134 0.45905 0.0
O24 O 0.12541 0.24412 0.44932 0.0
O25 O 0.11436 0.24228 0.50727 0.0
O26 O 0.10775 0.25584 0.56521 0.0
O27 O 0.12015 0.31956 0.54105 0.0
O28 O 0.17338 0.19788 0.59965 0.0
O29 O 0.17048 0.16482 0.54606 0.0
O30 O 0.18979 0.27756 0.58545 0.0
O31 O 0.19388 0.28607 0.52659 0.0
H32 H 0.17672 0.30978 0.39246 0.0
H33 H 0.19498 0.32642 0.32706 0.0
H34 H 0.12166 0.43595 0.32847 0.0
H35 H 0.10382 0.41931 0.39397 0.0
H36 H 0.09903 0.1681 0.60745 0.0
H37 H 0.06396 0.11416 0.64051 0.0
H38 H 0.16173 0.03048 0.63026 0.0
H39 H 0.19659 0.08443 0.5983 0.0
Ho40 Ho 0.97839 0.87885 0.7541 0.0
Ho41 Ho 0.04706 0.88615 0.80787 0.0
C42 C 0.04036 0.94373 0.73092 0.0
C43 C 0.91524 0.87834 0.71478 0.0
C44 C 0.90564 0.89147 0.6749 0.0
C45 C 0.87799 0.92313 0.66783 0.0
C46 C 0.86948 0.93707 0.63054 0.0
C47 C 0.88826 0.91946 0.59933 0.0
C48 C 0.9162 0.88798 0.60645 0.0
C49 C 0.92494 0.87429 0.64378 0.0
C50 C 0.04151 0.83425 0.73509 0.0
C51 C 0.98669 0.82684 0.83441 0.0
C52 C 0.11545 0.88693 0.83737 0.0
C53 C 0.14601 0.85926 0.85367 0.0
C54 C 0.18417 0.86761 0.84579 0.0
C55 C 0.21419 0.84489 0.86377 0.0
C56 C 0.20664 0.81335 0.89017 0.0
C57 C 0.16826 0.80344 0.89628 0.0
C58 C 0.13819 0.82619 0.87819 0.0
C59 C 0.98341 0.93287 0.82462 0.0
O60 O 1.00479 0.93262 0.72492 0.0
O61 O 0.06181 0.92789 0.75921 0.0
O62 O 0.93781 0.84567 0.71988 0.0
O63 O 0.92379 0.90791 0.73789 0.0
O64 O 1.01869 0.85361 0.71094 0.0
O65 O 0.02914 0.8382 0.76841 0.0
O66 O 1.02385 0.82822 0.82977 0.0
O67 O 0.96267 0.84772 0.81066 0.0
O68 O 0.08439 0.8927 0.85716 0.0
O69 O 0.10838 0.88374 0.80084 0.0
O70 O 1.00671 0.91625 0.85016 0.0
O71 O 0.99708 0.92619 0.79246 0.0
H72 H 0.86286 0.93711 0.69126 0.0
H73 H 0.84735 0.96085 0.62608 0.0
H74 H 0.93128 0.87387 0.58308 0.0
H75 H 0.94684 0.85025 0.64819 0.0
H76 H 0.19079 0.89286 0.82676 0.0
H77 H 0.24325 0.85376 0.85868 0.0
H78 H 0.16146 0.779 0.91612 0.0
H79 H 0.10893 0.81878 0.88428 0.0
Ho80 Ho 0.38805 0.77531 0.04938 0.0
Ho81 Ho 0.41008 0.71646 0.97974 0.0
C82 C 0.45022 0.80471 0.98639 0.0
C83 C 0.38817 0.81528 0.11217 0.0
C84 C 0.4159 0.84015 0.13285 0.0
C85 C 0.40965 0.84944 0.17106 0.0
C86 C 0.43049 0.87995 0.18877 0.0
C87 C 0.4577 0.902 0.16839 0.0
C88 C 0.4661 0.89021 0.13103 0.0
C89 C 0.44535 0.85948 0.1134 0.0
C90 C 0.33259 0.77929 0.99362 0.0
C91 C 0.35227 0.68454 0.03913 0.0
C92 C 0.41842 0.68617 0.9125 0.0
C93 C 0.39822 0.66703 0.88011 0.0
C94 C 0.36695 0.68688 0.86065 0.0
C95 C 0.35268 0.67116 0.8263 0.0
C96 C 0.3697 0.63563 0.81066 0.0
C97 C 0.39962 0.61486 0.83128 0.0
C98 C 0.41373 0.63042 0.86546 0.0
C99 C 0.45062 0.70595 0.0471 0.0
O100 O 0.43375 0.81178 1.01966 0.0
O101 O 0.44428 0.77137 0.9664 0.0
O102 O 0.37613 0.83113 0.07936 0.0
O103 O 0.39495 0.77539 0.1111 0.0
O104 O 0.33051 0.79858 0.02548 0.0
O105 O 0.36407 0.75959 0.99402 0.0
O106 O 0.3585 0.68752 1.00219 0.0
O107 O 0.36483 0.71221 0.06382 0.0
O108 O 0.42434 0.66436 0.94397 0.0
O109 O 0.41048 0.72507 0.91875 0.0
O110 O 0.44433 0.67648 0.0233 0.0
O111 O 0.438 0.73904 0.03196 0.0
H112 H 0.38722 0.83472 0.18659 0.0
H113 H 0.42401 0.88763 0.21793 0.0
H114 H 0.48685 0.90651 0.11457 0.0
H115 H 0.45074 0.85261 0.08387 0.0
H116 H 0.35439 0.71528 0.87116 0.0
H117 H 0.32952 0.68775 0.8112 0.0
H118 H 0.4128 0.58687 0.82052 0.0
H119 H 0.43784 0.61457 0.87975 0.0
Ho120 Ho 0.57075 0.1215 0.25677 0.0
Ho121 Ho 0.50784 0.10543 0.31253 0.0
C122 C 0.51608 0.04838 0.23754 0.0
C123 C 0.62963 0.13374 0.21499 0.0
C124 C 0.64127 0.11796 0.17737 0.0
C125 C 0.64679 0.07552 0.17117 0.0
C126 C 0.65765 0.06119 0.1354 0.0
C127 C 0.66307 0.08889 0.10489 0.0
C128 C 0.65677 0.13127 0.11106 0.0
C129 C 0.6462 0.1456 0.14688 0.0
C130 C 0.50246 0.16004 0.24043 0.0
C131 C 0.56401 0.17134 0.33639 0.0
C132 C 0.4422 0.09541 0.34377 0.0
C133 C 0.40972 0.11808 0.3605 0.0
C134 C 0.40821 0.16118 0.36296 0.0
C135 C 0.37635 0.18138 0.37898 0.0
C136 C 0.34573 0.15868 0.39275 0.0
C137 C 0.34732 0.11561 0.38924 0.0
C138 C 0.37898 0.09561 0.37341 0.0
C139 C 0.57594 0.06496 0.32882 0.0
O140 O 0.55053 0.06252 0.23158 0.0
O141 O 0.49395 0.06363 0.26428 0.0
O142 O 0.59964 0.15876 0.21498 0.0
O143 O 0.6297 0.10722 0.24328 0.0
O144 O 0.52385 0.14194 0.21564 0.0
O145 O 0.51818 0.1568 0.273 0.0
O146 O 0.52708 0.16496 0.33452 0.0
O147 O 0.58771 0.15368 0.31183 0.0
O148 O 0.47467 0.09405 0.36296 0.0
O149 O 0.44659 0.10057 0.30711 0.0
O150 O 0.55186 0.07742 0.3542 0.0
O151 O 0.56068 0.07115 0.29643 0.0
H152 H 0.64297 0.05328 0.19398 0.0
H153 H 0.66269 0.02844 0.13198 0.0
H154 H 0.65998 0.15354 0.08816 0.0
H155 H 0.64181 0.17839 0.15076 0.0
H156 H 0.43165 0.17904 0.35276 0.0
H157 H 0.37609 0.21455 0.3814 0.0
H158 H 0.32399 0.0972 0.39879 0.0
H159 H 0.37944 0.06239 0.37126 0.0
Ho160 Ho 0.66057 0.23035 0.56356 0.0
Ho161 Ho 0.66817 0.30207 0.5075 0.0
C162 C 0.72046 0.29796 0.58579 0.0
C163 C 0.65637 0.16258 0.60313 0.0
C164 C 0.66738 0.14909 0.64239 0.0
C165 C 0.69884 0.16556 0.66167 0.0
C166 C 0.70937 0.15157 0.69855 0.0
C167 C 0.68844 0.12111 0.71702 0.0
C168 C 0.65669 0.10514 0.69765 0.0
C169 C 0.64634 0.11896 0.66077 0.0
C170 C 0.61499 0.2975 0.57672 0.0
C171 C 0.61605 0.23358 0.48087 0.0
C172 C 0.66897 0.37476 0.47601 0.0
C173 C 0.64533 0.40824 0.45735 0.0
C174 C 0.62011 0.40138 0.4266 0.0
C175 C 0.60152 0.43474 0.40722 0.0
C176 C 0.60798 0.47553 0.41809 0.0
C177 C 0.63207 0.48196 0.44983 0.0
C178 C 0.65049 0.44874 0.46916 0.0
C179 C 0.71451 0.23466 0.49485 0.0
O180 O 0.71043 0.25965 0.5924 0.0
O181 O 0.70512 0.32037 0.55729 0.0
O182 O 0.6282 0.18985 0.59968 0.0
O183 O 0.68434 0.17042 0.5803 0.0
O184 O 0.63322 0.27586 0.60301 0.0
O185 O 0.62184 0.28239 0.54458 0.0
O186 O 0.61673 0.27394 0.4826 0.0
O187 O 0.63519 0.20986 0.50652 0.0
O188 O 0.67535 0.34069 0.45738 0.0
O189 O 0.66399 0.36833 0.51245 0.0
O190 O 0.7003 0.25891 0.46803 0.0
O191 O 0.70589 0.2497 0.52638 0.0
H192 H 0.71541 0.18908 0.64817 0.0
H193 H 0.73373 0.1648 0.7127 0.0
H194 H 0.64026 0.08122 0.71068 0.0
H195 H 0.62203 0.10581 0.64642 0.0
H196 H 0.61558 0.37044 0.41689 0.0
H197 H 0.58339 0.42867 0.38272 0.0
H198 H 0.63729 0.51283 0.45934 0.0
H199 H 0.66975 0.45482 0.49282 0.0
Ho200 Ho 1.01484 0.38511 0.73909 0.0
Ho201 Ho 0.07367 0.35758 0.79683 0.0
C202 C 0.99468 0.3086 0.79131 0.0
C203 C 0.97179 0.40368 0.68037 0.0
C204 C 0.93392 0.38879 0.66834 0.0
C205 C 0.9293 0.34749 0.6583 0.0
C206 C 0.89314 0.33332 0.64868 0.0
C207 C 0.86065 0.35999 0.64899 0.0
C208 C 0.86534 0.40126 0.65915 0.0
C209 C 0.90156 0.4155 0.66856 0.0
C210 C 1.00301 0.41588 0.80933 0.0
C211 C 0.09516 0.43165 0.74943 0.0
C212 C 0.11293 0.33797 0.85787 0.0
C213 C 0.12782 0.36127 0.89 0.0
C214 C 0.11343 0.40116 0.89739 0.0
C215 C 0.12588 0.42182 0.9298 0.0
C216 C 0.15283 0.40279 0.95519 0.0
C217 C 0.16805 0.3634 0.94674 0.0
C218 C 0.15555 0.34281 0.9145 0.0
C219 C 0.08287 0.32659 0.72567 0.0
O220 O 0.98653 0.32729 0.75826 0.0
O221 O 0.02462 0.31851 0.81218 0.0
O222 O 0.97243 0.42596 0.71104 0.0
O223 O 1.00061 0.37708 0.67953 0.0
O224 O 0.9765 0.40237 0.78702 0.0
O225 O 0.03497 0.4128 0.79325 0.0
O226 O 0.09381 0.41983 0.7852 0.0
O227 O 0.06966 0.41837 0.72433 0.0
O228 O 0.12858 0.34458 0.8249 0.0
O229 O 0.07567 0.33669 0.85544 0.0
O230 O 0.1108 0.33675 0.74784 0.0
O231 O 0.05232 0.33071 0.74347 0.0
H232 H 0.95357 0.32593 0.65792 0.0
H233 H 0.89082 0.30158 0.64031 0.0
H234 H 0.84095 0.42259 0.6601 0.0
H235 H 0.90424 0.44738 0.6764 0.0
H236 H 0.092 0.41588 0.87857 0.0
H237 H 0.11362 0.45206 0.93556 0.0
H238 H 0.18951 0.34831 0.96528 0.0
H239 H 0.16711 0.31218 0.90901 0.0
Ho240 Ho 0.89115 0.7822 0.06289 0.0
Ho241 Ho 0.88823 0.7084 1.00266 0.0
C242 C 0.83262 0.70782 0.07598 0.0
C243 C 0.87351 0.84716 0.10113 0.0
C244 C 0.8684 0.85817 0.14139 0.0
C245 C 0.8783 0.89731 0.15346 0.0
C246 C 0.87002 0.91002 0.19037 0.0
C247 C 0.85141 0.88387 0.21588 0.0
C248 C 0.84228 0.84425 0.20399 0.0
C249 C 0.85089 0.83141 0.16714 0.0
C250 C 0.94432 0.72226 0.08191 0.0
C251 C 0.94249 0.77813 0.9861 0.0
C252 C 0.89168 0.6371 0.97092 0.0
C253 C 0.91721 0.60536 0.95407 0.0
C254 C 0.94123 0.61414 0.92349 0.0
C255 C 0.96032 0.5821 0.90444 0.0
C256 C 0.9555 0.54078 0.91547 0.0
C257 C 0.93312 0.53245 0.94738 0.0
C258 C 0.9142 0.56436 0.96639 0.0
C259 C 0.84719 0.77939 0.98418 0.0
O260 O 0.84933 0.74019 0.09071 0.0
O261 O 0.84139 0.69262 0.04234 0.0
O262 O 0.90843 0.83855 0.08996 0.0
O263 O 0.84823 0.82249 0.08698 0.0
O264 O 0.93806 0.75503 0.10171 0.0
O265 O 0.92112 0.7234 0.05395 0.0
O266 O 0.94281 0.73777 0.99002 0.0
O267 O 0.92133 0.80232 1.00842 0.0
O268 O 0.88527 0.67176 0.95191 0.0
O269 O 0.89421 0.64201 1.00786 0.0
O270 O 0.86027 0.75374 0.95908 0.0
O271 O 0.85359 0.76338 1.01667 0.0
H272 H 0.89154 0.9185 0.13398 0.0
H273 H 0.87704 0.9409 0.1985 0.0
H274 H 0.8283 0.82329 0.22311 0.0
H275 H 0.84304 0.80093 0.15853 0.0
H276 H 0.9441 0.64549 0.91334 0.0
H277 H 0.97714 0.58955 0.87982 0.0
H278 H 0.92922 0.50105 0.95692 0.0
H279 H 0.89585 0.55679 0.98986 0.0
Ho280 Ho 0.54411 0.62288 0.2369 0.0
Ho281 Ho 0.47994 0.65405 0.28565 0.0
C282 C 0.55374 0.70579 0.28347 0.0
C283 C 0.5907 0.60186 0.1841 0.0
C284 C 0.6304 0.6126 0.17596 0.0
C285 C 0.64403 0.65108 0.18641 0.0
C286 C 0.67951 0.66384 0.17392 0.0
C287 C 0.70243 0.63818 0.15111 0.0
C288 C 0.68962 0.59854 0.14284 0.0
C289 C 0.65382 0.58604 0.15491 0.0
C290 C 0.5557 0.60458 0.3124 0.0
C291 C 0.46846 0.56949 0.24919 0.0
C292 C 0.42683 0.66775 0.33442 0.0
C293 C 0.4117 0.64619 0.36789 0.0
C294 C 0.41136 0.60301 0.37067 0.0
C295 C 0.39778 0.58371 0.40361 0.0
C296 C 0.38446 0.60734 0.43422 0.0
C297 C 0.38584 0.6505 0.43141 0.0
C298 C 0.39917 0.66964 0.39861 0.0
C299 C 0.47928 0.68148 0.21051 0.0
O300 O 0.56096 0.68831 0.25032 0.0
O301 O 0.52769 0.6913 0.30601 0.0
O302 O 0.58531 0.57853 0.21426 0.0
O303 O 0.56569 0.63267 0.1807 0.0
O304 O 0.58184 0.61602 0.28927 0.0
O305 O 0.52434 0.60377 0.29408 0.0
O306 O 0.46626 0.58808 0.28194 0.0
O307 O 0.49472 0.58034 0.22436 0.0
O308 O 0.42025 0.65219 0.30079 0.0
O309 O 0.46177 0.68032 0.33866 0.0
O310 O 0.46898 0.70441 0.23862 0.0
O311 O 0.48696 0.64671 0.22412 0.0
H312 H 0.62651 0.67207 0.20288 0.0
H313 H 0.68799 0.69463 0.18068 0.0
H314 H 0.70683 0.57745 0.12621 0.0
H315 H 0.64397 0.55611 0.14682 0.0
H316 H 0.42145 0.58425 0.34745 0.0
H317 H 0.39697 0.55046 0.40479 0.0
H318 H 0.37661 0.66966 0.45471 0.0
H319 H 0.39987 0.70293 0.39732 0.0
Ho320 Ho 0.23881 0.53233 0.15702 0.0
Ho321 Ho 0.29216 0.45895 0.14102 0.0
C322 C 0.21809 0.47139 0.09041 0.0
C323 C 0.20007 0.60083 0.16102 0.0
C324 C 0.1602 0.61344 0.14949 0.0
C325 C 0.15378 0.63924 0.11726 0.0
C326 C 0.11658 0.6501 0.10458 0.0
C327 C 0.08475 0.63584 0.12407 0.0
C328 C 0.09111 0.61005 0.15636 0.0
C329 C 0.12839 0.59881 0.16885 0.0
C330 C 0.21625 0.46 0.18771 0.0
C331 C 0.31869 0.51769 0.20597 0.0
C332 C 0.3354 0.3933 0.13648 0.0
C333 C 0.35938 0.3624 0.15783 0.0
C334 C 0.34703 0.34268 0.19117 0.0
C335 C 0.36876 0.30963 0.20751 0.0
C336 C 0.40282 0.29573 0.19048 0.0
C337 C 0.41572 0.31686 0.15817 0.0
C338 C 0.39422 0.34976 0.14205 0.0
C339 C 0.30099 0.52945 0.0987 0.0
O340 O 0.21902 0.51076 0.09908 0.0
O341 O 0.2393 0.44356 0.1093 0.0
O342 O 0.20522 0.57545 0.19039 0.0
O343 O 0.22254 0.59173 0.13269 0.0
O344 O 0.19369 0.48795 0.172 0.0
O345 O 0.25021 0.47191 0.18648 0.0
O346 O 0.31878 0.47898 0.19548 0.0
O347 O 0.29183 0.54491 0.19331 0.0
O348 O 0.34829 0.4305 0.13337 0.0
O349 O 0.29827 0.39272 0.14065 0.0
O350 O 0.30441 0.49302 0.08445 0.0
O351 O 0.29459 0.52542 0.13309 0.0
H352 H 0.17767 0.65105 0.10174 0.0
H353 H 0.11275 0.67064 0.08009 0.0
H354 H 0.06719 0.59854 0.17201 0.0
H355 H 0.1322 0.57863 0.19359 0.0
H356 H 0.32018 0.35197 0.20388 0.0
H357 H 0.35821 0.29395 0.23246 0.0
H358 H 0.44224 0.30742 0.14487 0.0
H359 H 0.40427 0.36456 0.11638 0.0
Ho360 Ho 0.74379 0.96524 0.89674 0.0
Ho361 Ho 0.80333 0.02763 0.91239 0.0
C362 C 0.72815 0.02752 0.96479 0.0
C363 C 0.69931 0.90363 0.88949 0.0
C364 C 0.66051 0.89513 0.90388 0.0
C365 C 0.65628 0.8767 0.9401 0.0
C366 C 0.62 0.8687 0.95399 0.0
C367 C 0.58685 0.87857 0.93198 0.0
C368 C 0.59102 0.89722 0.89583 0.0
C369 C 0.62738 0.90535 0.88193 0.0
C370 C 0.7307 0.03862 0.85975 0.0
C371 C 0.8235 0.96865 0.84965 0.0
C372 C 0.84144 0.09358 0.92201 0.0
C373 C 0.86068 0.125 0.89966 0.0
C374 C 0.86377 0.12279 0.85986 0.0
C375 C 0.88352 0.15284 0.83976 0.0
C376 C 0.90049 0.18519 0.85935 0.0
C377 C 0.8961 0.18771 0.89903 0.0
C378 C 0.87645 0.15789 0.91893 0.0
C379 C 0.81619 0.95276 0.94769 0.0
O380 O 0.71905 0.99175 0.95036 0.0
O381 O 0.75702 0.04819 0.95169 0.0
O382 O 0.702 0.93242 0.86328 0.0
O383 O 0.72652 0.90518 0.91533 0.0
O384 O 0.70479 0.01763 0.87643 0.0
O385 O 0.76267 0.01978 0.86411 0.0
O386 O 0.82058 1.00838 0.85502 0.0
O387 O 0.79876 0.94413 0.86622 0.0
O388 O 0.85725 0.05653 0.92272 0.0
O389 O 0.80415 0.09356 0.91853 0.0
O390 O 0.84309 0.97608 0.93613 0.0
O391 O 0.78466 0.97206 0.94315 0.0
H392 H 0.6811 0.86806 0.95776 0.0
H393 H 0.61805 0.85354 0.98157 0.0
H394 H 0.56613 0.90542 0.87813 0.0
H395 H 0.62951 0.91949 0.85392 0.0
H396 H 0.85146 0.0976 0.84454 0.0
H397 H 0.88657 0.15008 0.80923 0.0
H398 H 0.9083 0.21262 0.91482 0.0
H399 H 0.87396 0.16027 0.94958 0.0
Ho400 Ho 0.74223 0.98087 0.4226 0.0
Ho401 Ho 0.809 0.04273 0.40058 0.0
C402 C 0.80412 0.95923 0.35629 0.0
C403 C 0.67885 0.9437 0.41223 0.0
C404 C 0.66677 0.90524 0.39386 0.0
C405 C 0.67671 0.89626 0.35603 0.0
C406 C 0.66087 0.86302 0.33708 0.0
C407 C 0.63474 0.83787 0.35547 0.0
C408 C 0.62649 0.84567 0.39398 0.0
C409 C 0.64213 0.87905 0.41282 0.0
C410 C 0.80794 0.95854 0.4608 0.0
C411 C 0.75699 0.06354 0.47076 0.0
C412 C 0.86664 0.09065 0.39577 0.0
C413 C 0.90296 0.10237 0.41488 0.0
C414 C 0.90356 0.1337 0.44207 0.0
C415 C 0.93841 0.14878 0.45542 0.0
C416 C 0.97347 0.1332 0.4416 0.0
C417 C 0.9728 0.1008 0.41555 0.0
C418 C 0.93807 0.0857 0.40231 0.0
C419 C 0.73822 0.052 0.36575 0.0
O420 O 0.76885 0.95529 0.36893 0.0
O421 O 0.82749 0.98658 0.37 0.0
O422 O 0.69855 0.94082 0.44453 0.0
O423 O 0.69144 0.97181 0.38901 0.0
O424 O 0.77588 0.93986 0.46425 0.0
O425 O 0.80293 0.98753 0.43657 0.0
O426 O 0.79302 0.05924 0.46027 0.0
O427 O 0.73058 0.03788 0.45826 0.0
O428 O 0.83399 0.10194 0.4108 0.0
O429 O 0.86589 0.05395 0.38104 0.0
O430 O 0.7694 0.06098 0.34838 0.0
O431 O 0.74728 0.04186 0.39886 0.0
H432 H 0.69569 0.91579 0.34048 0.0
H433 H 0.66786 0.8582 0.30751 0.0
H434 H 0.60726 0.82639 0.40948 0.0
H435 H 0.63406 0.88511 0.44191 0.0
H436 H 0.87711 0.14767 0.45201 0.0
H437 H 0.93778 0.17403 0.47517 0.0
H438 H 0.9992 0.08769 0.40465 0.0
H439 H 0.93878 0.06186 0.38109 0.0
Ho440 Ho 0.31247 0.47465 0.64363 0.0
Ho441 Ho 0.24741 0.54417 0.62649 0.0
C442 C 0.31772 0.53936 0.57094 0.0
C443 C 0.35222 0.40683 0.63919 0.0
C444 C 0.39217 0.3945 0.63089 0.0
C445 C 0.39905 0.36378 0.60404 0.0
C446 C 0.43642 0.3523 0.59437 0.0
C447 C 0.46783 0.37116 0.61153 0.0
C448 C 0.46094 0.40188 0.63861 0.0
C449 C 0.42342 0.41365 0.64804 0.0
C450 C 0.33155 0.5452 0.67832 0.0
C451 C 0.2401 0.48889 0.69883 0.0
C452 C 0.19584 0.60275 0.62515 0.0
C453 C 0.17465 0.63265 0.64835 0.0
C454 C 0.19192 0.65355 0.67858 0.0
C455 C 0.17192 0.68588 0.69631 0.0
C456 C 0.13471 0.69774 0.68368 0.0
C457 C 0.11705 0.67522 0.65482 0.0
C458 C 0.13683 0.64301 0.63738 0.0
C459 C 0.24059 0.469 0.59336 0.0
O460 O 0.32848 0.50297 0.58631 0.0
O461 O 0.29043 0.56306 0.58519 0.0
O462 O 0.34564 0.4252 0.67165 0.0
O463 O 0.33257 0.42345 0.61031 0.0
O464 O 0.35246 0.51149 0.67948 0.0
O465 O 0.30248 0.53941 0.65747 0.0
O466 O 0.24093 0.52767 0.6877 0.0
O467 O 0.26365 0.46072 0.68364 0.0
O468 O 0.18785 0.56391 0.62948 0.0
O469 O 0.23229 0.60871 0.62001 0.0
O470 O 0.22825 0.50323 0.57721 0.0
O471 O 0.25299 0.47711 0.62568 0.0
H472 H 0.37539 0.34868 0.59039 0.0
H473 H 0.44074 0.32809 0.57388 0.0
H474 H 0.48454 0.41711 0.65216 0.0
H475 H 0.4189 0.43781 0.66853 0.0
H476 H 0.22113 0.64586 0.68755 0.0
H477 H 0.18608 0.70276 0.71856 0.0
H478 H 0.08816 0.68328 0.645 0.0
H479 H 0.12301 0.62714 0.61423 0.0
C480 C 0.19892 0.37831 0.54208 0.0
C481 C 0.21246 0.34488 0.56498 0.0
H482 H 0.19748 0.44382 0.53229 0.0
C483 C 0.23582 0.35274 0.59673 0.0
H484 H 0.17845 0.37373 0.51965 0.0
C485 C 0.24572 0.393 0.60504 0.0
C486 C 0.23248 0.42647 0.58179 0.0
H487 H 0.24599 0.32778 0.61552 0.0
H488 H 0.26307 0.39794 0.63032 0.0
C489 C 0.20914 0.41867 0.55002 0.0
C490 C 0.88051 0.97103 0.80795 0.0
C491 C 0.862 0.95309 0.83899 0.0
H492 H 0.93352 0.97862 0.77905 0.0
C493 C 0.88402 0.92926 0.86562 0.0
H494 H 0.86454 0.99088 0.78781 0.0
C495 C 0.92376 0.92472 0.86206 0.0
C496 C 0.94208 0.94165 0.83055 0.0
H497 H 0.87098 0.91623 0.89056 0.0
H498 H 0.94018 0.9078 0.88394 0.0
C499 C 0.92004 0.96474 0.80341 0.0
C500 C 0.32411 0.64201 0.09112 0.0
C501 C 0.33506 0.64613 0.05311 0.0
H502 H 0.30409 0.60221 0.13472 0.0
C503 C 0.33244 0.61177 0.0291 0.0
H504 H 0.32568 0.66765 0.11034 0.0
C505 C 0.32064 0.57375 0.04326 0.0
C506 C 0.3108 0.56954 0.08156 0.0
H507 H 0.34083 0.61372 0.99958 0.0
H508 H 0.31998 0.5476 0.02455 0.0
C509 C 0.31184 0.6043 0.10504 0.0
C510 C 0.64423 0.04923 0.30833 0.0
C511 C 0.61764 0.05894 0.33685 0.0
H512 H 0.70394 0.04104 0.2942 0.0
C513 C 0.63136 0.06545 0.37388 0.0
H514 H 0.63428 0.04164 0.28001 0.0
C515 C 0.67044 0.06467 0.38194 0.0
C516 C 0.69741 0.05688 0.35344 0.0
H517 H 0.61186 0.07224 0.39675 0.0
H518 H 0.67939 0.06994 0.41106 0.0
C519 C 0.68399 0.04886 0.31638 0.0
C520 C 0.74302 0.16662 0.51947 0.0
C521 C 0.72738 0.19122 0.48922 0.0
H522 H 0.76417 0.10622 0.53785 0.0
C523 C 0.72236 0.17335 0.45348 0.0
H524 H 0.74873 0.18003 0.54697 0.0
C525 C 0.73047 0.13146 0.44858 0.0
C526 C 0.74439 0.1063 0.47907 0.0
H527 H 0.71147 0.19161 0.4293 0.0
H528 H 0.72685 0.11904 0.4204 0.0
C529 C 0.75166 0.12446 0.5144 0.0
C530 C 0.13532 0.48793 0.72444 0.0
C531 C 0.13188 0.44724 0.73684 0.0
H532 H 0.17275 0.53371 0.70448 0.0
C533 C 0.16484 0.42131 0.7402 0.0
H534 H 0.11041 0.50863 0.72249 0.0
C535 C 0.20053 0.43516 0.72948 0.0
C536 C 0.20416 0.47571 0.71634 0.0
H537 H 0.163 0.39 0.75069 0.0
H538 H 0.22509 0.41396 0.73088 0.0
C539 C 0.17122 0.50222 0.7147 0.0
C540 C 0.84198 0.89649 0.99124 0.0
C541 C 0.82161 0.90831 0.95793 0.0
H542 H 0.86621 0.84718 0.02509 0.0
C543 C 0.80912 0.87723 0.93354 0.0
H544 H 0.85286 0.91957 1.01017 0.0
C545 C 0.81681 0.83543 0.94234 0.0
C546 C 0.83672 0.8236 0.97603 0.0
H547 H 0.79453 0.88476 0.90697 0.0
H548 H 0.80752 0.81237 0.92257 0.0
C549 C 0.84909 0.85475 1.00023 0.0
C550 C 0.41794 0.51686 0.2513 0.0
C551 C 0.43217 0.55305 0.23553 0.0
H552 H 0.3702 0.47705 0.25435 0.0
C553 C 0.40756 0.57921 0.21342 0.0
H554 H 0.43596 0.49715 0.26981 0.0
C555 C 0.3696 0.56915 0.20652 0.0
C556 C 0.35551 0.53227 0.22103 0.0
H557 H 0.41732 0.6083 0.20252 0.0
H558 H 0.35173 0.58963 0.1886 0.0
C559 C 0.38013 0.50603 0.24333 0.0
C560 C 0.61129 0.17225 0.39048 0.0
C561 C 0.57894 0.19006 0.37159 0.0
H562 H 0.64577 0.16904 0.44158 0.0
C563 C 0.55772 0.22124 0.38981 0.0
H564 H 0.62813 0.14824 0.3772 0.0
C565 C 0.56921 0.23488 0.42584 0.0
C566 C 0.60086 0.21602 0.44523 0.0
H567 H 0.53231 0.23512 0.37613 0.0
H568 H 0.55318 0.25996 0.4387 0.0
C569 C 0.62134 0.18411 0.4274 0.0
C570 C 0.11661 0.33826 0.62395 0.0
C571 C 0.09202 0.31232 0.60421 0.0
H572 H 0.13387 0.36187 0.67823 0.0
C573 C 0.06257 0.2937 0.6243 0.0
H574 H 0.14004 0.35234 0.60947 0.0
C575 C 0.0587 0.29963 0.66355 0.0
C576 C 0.08508 0.32305 0.68372 0.0
H577 H 0.04369 0.27293 0.60995 0.0
H578 H 0.03625 0.28426 0.67847 0.0
C579 C 0.11354 0.34308 0.66344 0.0
C580 C 0.93799 0.82313 0.88608 0.0
C581 C 0.97378 0.8109 0.87185 0.0
H582 H 0.90171 0.82594 0.93439 0.0
C583 C 0.99968 0.78858 0.8963 0.0
H584 H 0.91703 0.83952 0.86797 0.0
C585 C 0.99021 0.77939 0.93405 0.0
C586 C 0.9553 0.7937 0.94876 0.0
H587 H 0.02752 0.77842 0.88638 0.0
H588 H 1.01019 0.76107 0.95179 0.0
C589 C 0.92934 0.81571 0.92436 0.0
C590 C 0.47321 0.72865 0.15185 0.0
C591 C 0.47305 0.68914 0.16867 0.0
H592 H 0.46872 0.76467 0.09974 0.0
C593 C 0.46805 0.65528 0.14464 0.0
H594 H 0.47777 0.75528 0.16931 0.0
C595 C 0.46159 0.66072 0.1053 0.0
C596 C 0.4608 0.70017 0.08848 0.0
H597 H 0.46839 0.62426 0.15636 0.0
H598 H 0.45657 0.63397 0.08813 0.0
C599 C 0.46801 0.73395 0.11204 0.0
C600 C 0.14885 0.41202 0.25675 0.0
C601 C 0.17428 0.39562 0.28494 0.0
H602 H 0.14234 0.44418 0.20325 0.0
C603 C 0.21383 0.39534 0.27814 0.0
H604 H 0.11824 0.41206 0.26091 0.0
C605 C 0.22772 0.41384 0.24506 0.0
C606 C 0.20226 0.43277 0.2182 0.0
H607 H 0.23416 0.38303 0.29941 0.0
H608 H 0.25836 0.41529 0.24156 0.0
C609 C 0.16269 0.43019 0.22364 0.0
C610 C 0.86769 0.97279 0.54905 0.0
C611 C 0.87618 0.9314 0.55953 0.0
H612 H 0.84065 0.01448 0.50785 0.0
C613 C 0.86906 0.90072 0.53281 0.0
H614 H 0.87322 0.99718 0.56887 0.0
C615 C 0.85057 0.9107 0.49807 0.0
C616 C 0.83944 0.95158 0.48886 0.0
H617 H 0.87493 0.86856 0.53994 0.0
H618 H 0.84229 0.88597 0.47961 0.0
C619 C 0.84966 0.98283 0.51384 0.0
C620 C 0.3769 0.58695 0.71388 0.0
C621 C 0.33865 0.57892 0.70494 0.0
H622 H 0.41647 0.61179 0.7537 0.0
C623 C 0.3097 0.59521 0.72812 0.0
H624 H 0.39975 0.57465 0.69652 0.0
C625 C 0.31939 0.616 0.7617 0.0
C626 C 0.35808 0.62061 0.77233 0.0
H627 H 0.28 0.58897 0.72213 0.0
H628 H 0.29683 0.6259 0.78053 0.0
C629 C 0.38649 0.60769 0.74698 0.0
C630 C 0.66544 0.03646 0.05215 0.0
C631 C 0.67719 0.07395 0.06747 0.0
H632 H 0.67189 0.99237 1.00753 0.0
C633 C 0.70394 0.09666 0.04736 0.0
H634 H 0.64448 0.01838 0.06656 0.0
C635 C 0.71915 0.08208 1.01349 0.0
C636 C 0.70837 0.04411 0.99868 0.0
H637 H 0.71426 0.12525 0.05839 0.0
H638 H 0.74024 0.10035 0.99947 0.0
C639 C 0.68088 0.02168 1.01812 0.0
C640 C 0.73877 0.09621 0.76543 0.0
C641 C 0.70003 0.10497 0.7558 0.0
H642 H 0.779 0.06878 0.80611 0.0
C643 C 0.67218 0.09596 0.78283 0.0
H644 H 0.76099 0.10261 0.7453 0.0
C645 C 0.68251 0.07663 0.81762 0.0
C646 C 0.72095 0.06567 0.82625 0.0
H647 H 0.64219 0.10306 0.77676 0.0
H648 H 0.66015 0.06881 0.83713 0.0
C649 C 0.74911 0.07675 0.80028 0.0
C650 C 0.18408 0.41614 0.05762 0.0
C651 C 0.19534 0.45716 0.05771 0.0
H652 H 0.16107 0.36728 0.02552 0.0
C653 C 0.18872 0.4819 0.02491 0.0
H654 H 0.1883 0.39652 0.08272 0.0
C655 C 0.17348 0.46482 0.99167 0.0
C656 C 0.16459 0.42291 0.99101 0.0
H657 H 0.1973 0.5136 0.02426 0.0
H658 H 0.17043 0.48382 0.96608 0.0
C659 C 0.16875 0.39928 0.02476 0.0
C660 C 0.85474 0.93938 0.30991 0.0
C661 C 0.8173 0.93509 0.32315 0.0
H662 H 0.89486 0.92627 0.2661 0.0
C663 C 0.79215 0.91061 0.30242 0.0
H664 H 0.87512 0.95763 0.32523 0.0
C665 C 0.80366 0.89255 0.26827 0.0
C666 C 0.84047 0.89876 0.25416 0.0
H667 H 0.76316 0.90662 0.31173 0.0
H668 H 0.78318 0.87526 0.2521 0.0
C669 C 0.86611 0.92155 0.27585 0.0
C670 C 0.36776 0.5356 0.51942 0.0
C671 C 0.33534 0.55483 0.53544 0.0
H672 H 0.40912 0.5372 0.47479 0.0
C673 C 0.31884 0.59003 0.51693 0.0
H674 H 0.38105 0.50833 0.53279 0.0
C675 C 0.33451 0.60613 0.484 0.0
C676 C 0.36743 0.58787 0.4684 0.0
H677 H 0.29349 0.6055 0.52776 0.0
H678 H 0.32059 0.63307 0.47064 0.0
C679 C 0.38368 0.55201 0.48613 0.0
C680 C 0.26672 0.1776 0.46329 0.0
C681 C 0.2486 0.21426 0.44939 0.0
H682 H 0.3116 0.13237 0.45716 0.0
C683 C 0.26328 0.23343 0.41678 0.0
H684 H 0.25669 0.16202 0.48853 0.0
C685 C 0.29517 0.21593 0.39841 0.0
C686 C 0.31281 0.17892 0.41228 0.0
H687 H 0.25013 0.26178 0.4054 0.0
H688 H 0.30557 0.23093 0.37304 0.0
C689 C 0.29831 0.16034 0.44514 0.0
C690 C 0.11251 0.01539 0.69046 0.0
C691 C 0.09135 0.03672 0.66161 0.0
H692 H 0.11327 0.96967 0.73446 0.0
C693 C 0.05269 0.02756 0.65559 0.0
H694 H 0.14212 0.02226 0.69632 0.0
C695 C 0.03578 0.99711 0.6778 0.0
C696 C 0.05725 0.97568 0.70654 0.0
H697 H 0.03575 0.04351 0.63343 0.0
H698 H 1.00603 0.99045 0.67253 0.0
C699 C 0.09576 0.98531 0.71255 0.0
C700 C 0.27512 0.78699 0.90116 0.0
C701 C 0.23816 0.79556 0.91515 0.0
H702 H 0.33464 0.77404 0.91529 0.0
C703 C 0.23251 0.79232 0.95459 0.0
H704 H 0.28035 0.78891 0.87086 0.0
C705 C 0.26331 0.78401 0.97957 0.0
C706 C 0.3005 0.77823 0.96588 0.0
H707 H 0.20474 0.79915 0.96654 0.0
H708 H 0.25824 0.78421 1.00995 0.0
C709 C 0.30612 0.7781 0.92641 0.0
C710 C 0.52627 0.98593 0.1964 0.0
C711 C 0.50182 0.01255 0.21663 0.0
H712 H 0.53173 0.9294 0.16563 0.0
C713 C 0.46303 1.00312 0.21945 0.0
H714 H 0.55631 0.99231 0.19381 0.0
C715 C 0.44918 0.96745 0.20371 0.0
C716 C 0.47362 0.93995 0.18463 0.0
H717 H 0.44315 0.02314 0.23432 0.0
H718 H 0.41904 0.96154 0.20639 0.0
C719 C 0.51224 0.94989 0.18044 0.0
C720 C 0.81123 0.30514 0.64602 0.0
C721 C 0.82247 0.34526 0.63684 0.0
H722 H 0.76987 0.2587 0.63759 0.0
C723 C 0.79775 0.37067 0.61406 0.0
H724 H 0.82923 0.28498 0.6641 0.0
C725 C 0.76362 0.35584 0.59939 0.0
C726 C 0.75331 0.31508 0.60685 0.0
H727 H 0.80549 0.40154 0.60605 0.0
H728 H 0.74606 0.37604 0.5809 0.0
C729 C 0.77699 0.29019 0.63116 0.0
C730 C 1.01891 0.47561 0.85093 0.0
C731 C 0.99383 0.4447 0.8403 0.0
H732 H 0.02642 0.53063 0.88305 0.0
C733 C 0.9576 0.44395 0.85674 0.0
H734 H 0.04699 0.47699 0.83857 0.0
C735 C 0.94596 0.47429 0.88213 0.0
C736 C 0.97016 0.50643 0.89156 0.0
H737 H 0.93769 0.42052 0.84902 0.0
H738 H 0.91725 0.47353 0.89309 0.0
C739 C 1.00703 0.50645 0.87612 0.0
C740 C 0.77829 0.65977 0.07811 0.0
C741 C 0.80096 0.68856 0.09667 0.0
H742 H 0.72953 0.6223 0.08004 0.0
C743 C 0.79218 0.69926 0.13425 0.0
H744 H 0.78393 0.65086 0.04908 0.0
C745 C 0.76104 0.68198 0.15251 0.0
C746 C 0.73774 0.65395 0.13347 0.0
H747 H 0.80916 0.72113 0.14949 0.0
H748 H 0.75513 0.69083 0.18149 0.0
C749 C 0.74708 0.64295 0.09611 0.0
C750 C 0.55471 0.51194 0.37951 0.0
C751 C 0.59226 0.51127 0.39476 0.0
H752 H 0.51308 0.54277 0.34234 0.0
C753 C 0.61577 0.54425 0.38588 0.0
H754 H 0.53572 0.4873 0.38613 0.0
C755 C 0.60284 0.57592 0.36092 0.0
C756 C 0.566 0.57563 0.34434 0.0
H757 H 0.64493 0.54466 0.39677 0.0
H758 H 0.62232 0.59981 0.35333 0.0
C759 C 0.54161 0.54395 0.35476 0.0
C760 C 0.43777 0.2291 0.17873 0.0
C761 C 0.42443 0.25836 0.2048 0.0
H762 H 0.47232 0.17483 0.16979 0.0
C763 C 0.43362 0.25248 0.24376 0.0
H764 H 0.43044 0.23228 0.14865 0.0
C765 C 0.45768 0.21926 0.25597 0.0
C766 C 0.47269 0.19146 0.22937 0.0
H767 H 0.42361 0.27449 0.26449 0.0
H768 H 0.4657 0.21628 0.2859 0.0
C769 C 0.46157 0.19605 0.19087 0.0
C770 C 0.98268 0.25424 0.83995 0.0
C771 C 0.97068 0.27549 0.80634 0.0
H772 H 0.9704 0.209 0.88223 0.0
C773 C 0.93589 0.26519 0.78872 0.0
H774 H 1.0095 0.26075 0.8542 0.0
C775 C 0.91316 0.23503 0.80519 0.0
C776 C 0.92487 0.21502 0.83957 0.0
H777 H 0.92592 0.28086 0.76274 0.0
H778 H 0.88604 0.22823 0.79171 0.0
C779 C 0.96017 0.22451 0.85624 0.0
C780 C 1.02051 0.66582 0.1406 0.0
C781 C 0.04538 0.65095 0.11268 0.0
H782 H 0.96873 0.69965 0.1523 0.0
C783 C 0.03357 0.65432 0.07402 0.0
H784 H 0.02873 0.66408 0.17053 0.0
C785 C 0.99855 0.67427 0.06354 0.0
C786 C 0.97529 0.69173 0.09158 0.0
H787 H 0.05201 0.64283 0.05186 0.0
H788 H 0.99105 0.67853 0.0336 0.0
C789 C 0.98609 0.68624 0.13013 0.0
C790 C 0.57542 0.79922 0.3414 0.0
C791 C 0.6142 0.80535 0.33426 0.0
H792 H 0.52628 0.76393 0.3305 0.0
C793 C 0.63242 0.78049 0.30685 0.0
H794 H 0.55992 0.81849 0.36116 0.0
C795 C 0.61261 0.74911 0.28847 0.0
C796 C 0.57435 0.74203 0.29733 0.0
H797 H 0.66226 0.78439 0.30049 0.0
H798 H 0.62761 0.72944 0.26866 0.0
C799 C 0.55594 0.76805 0.3234 0.0
C800 C 0.55321 0.33248 0.55545 0.0
C801 C 0.57992 0.32225 0.58477 0.0
H802 H 0.49682 0.35623 0.54093 0.0
C803 C 0.57093 0.33199 0.62251 0.0
H804 H 0.55942 0.32552 0.52606 0.0
C805 C 0.53511 0.34957 0.63104 0.0
C806 C 0.50748 0.35754 0.602 0.0
H807 H 0.59102 0.32452 0.64568 0.0
H808 H 0.52841 0.35506 0.66058 0.0
C809 C 0.51729 0.34978 0.564 0.0
C810 C 0.11021 0.74139 0.73735 0.0
C811 C 0.11477 0.73507 0.69812 0.0
H812 H 0.08307 0.77821 0.78018 0.0
C813 C 0.09829 0.76385 0.67188 0.0
H814 H 0.1228 0.71967 0.75811 0.0
C815 C 0.076 0.79706 0.68434 0.0
C816 C 0.06946 0.80218 0.72333 0.0
H817 H 0.102 0.76015 0.64152 0.0
H818 H 0.06285 0.81799 0.66322 0.0
C819 C 0.08751 0.77472 0.74991 0.0
C820 C 0.48923 0.83132 0.93324 0.0
C821 C 0.48063 0.83146 0.97226 0.0
H822 H 0.52918 0.84566 0.89012 0.0
C823 C 0.50502 0.85173 0.99748 0.0
H824 H 0.47096 0.81605 0.913 0.0
C825 C 0.53876 0.86884 0.98424 0.0
C826 C 0.54855 0.86628 0.94549 0.0
H827 H 0.49933 0.85216 0.02772 0.0
H828 H 0.5578 0.88288 1.00455 0.0
C829 C 0.52263 0.84853 0.92003 0.0
C830 C 1.01803 0.16569 0.48925 0.0
C831 C 1.01028 0.15272 0.45187 0.0
H832 H 0.05594 0.19745 0.52661 0.0
C833 C 0.03728 0.16047 0.42359 0.0
H834 H 0.99812 0.15982 0.51182 0.0
C835 C 0.07031 0.18196 0.43205 0.0
C836 C 0.07732 0.19617 0.46903 0.0
H837 H 0.03217 0.15139 0.39441 0.0
H838 H 0.08978 0.18859 0.40927 0.0
C839 C 0.05129 0.18698 0.49779 0.0
loop_
_geom_bond_atom_site_label_1
_geom_bond_atom_site_label_2
_geom_bond_distance
_geom_bond_site_symmetry_2
_ccdc_geom_bond_type
Ho0 C3 2.811 . S
Ho0 O20 2.322 . S
Ho0 O22 2.378 . S
Ho0 O23 2.524 . S
Ho0 O24 2.381 . S
Ho0 O25 2.669 . S
Ho0 O27 2.346 . S
Ho0 O31 2.305 . S
Ho1 C12 2.811 . S
Ho1 O21 2.346 . S
Ho1 O25 2.305 . S
Ho1 O26 2.322 . S
Ho1 O28 2.378 . S
Ho1 O29 2.524 . S
Ho1 O30 2.381 . S
Ho1 O31 2.669 . S
C2 O20 1.259 . S
C2 O21 1.268 . S
C3 Ho0 2.811 . S
C3 C4 1.488 . S
C3 O22 1.215 . S
C3 O23 1.289 . S
C4 C3 1.488 . S
C4 C5 1.348 . S
C4 C9 1.413 . S
C5 C4 1.348 . S
C5 C6 1.442 . S
C5 H32 0.930 . S
C6 C5 1.442 . S
C6 C7 1.381 . S
C6 H33 0.931 . S
C7 C6 1.381 . S
C7 C8 1.321 . S
C8 C7 1.321 . S
C8 C9 1.403 . S
C8 H34 0.934 . S
C9 C4 1.413 . S
C9 C8 1.403 . S
C9 H35 0.930 . S
C10 O24 1.275 . S
C10 O25 1.256 . S
C11 O26 1.259 . S
C11 O27 1.268 . S
C12 Ho1 2.811 . S
C12 C13 1.488 . S
C12 O28 1.215 . S
C12 O29 1.289 . S
C13 C12 1.488 . S
C13 C14 1.348 . S
C13 C18 1.413 . S
C14 C13 1.348 . S
C14 C15 1.442 . S
C14 H36 0.930 . S
C15 C14 1.442 . S
C15 C16 1.381 . S
C15 H37 0.931 . S
C16 C15 1.381 . S
C16 C17 1.321 . S
C17 C16 1.321 . S
C17 C18 1.403 . S
C17 H38 0.934 . S
C18 C13 1.413 . S
C18 C17 1.403 . S
C18 H39 0.930 . S
C19 O30 1.275 . S
C19 O31 1.256 . S
O20 Ho0 2.322 . S
O20 C2 1.259 . S
O21 Ho1 2.346 . S
O21 C2 1.268 . S
O22 Ho0 2.378 . S
O22 C3 1.215 . S
O23 Ho0 2.524 . S
O23 C3 1.289 . S
O24 Ho0 2.381 . S
O24 C10 1.275 . S
O25 Ho0 2.669 . S
O25 Ho1 2.305 . S
O25 C10 1.256 . S
O26 Ho1 2.322 . S
O26 C11 1.259 . S
O27 Ho0 2.346 . S
O27 C11 1.268 . S
O28 Ho1 2.378 . S
O28 C12 1.215 . S
O29 Ho1 2.524 . S
O29 C12 1.289 . S
O30 Ho1 2.381 . S
O30 C19 1.275 . S
O31 Ho0 2.305 . S
O31 Ho1 2.669 . S
O31 C19 1.256 . S
H32 C5 0.930 . S
H33 C6 0.931 . S
H34 C8 0.934 . S
H35 C9 0.930 . S
H36 C14 0.930 . S
H37 C15 0.931 . S
H38 C17 0.934 . S
H39 C18 0.930 . S
Ho40 C43 2.811 . S
Ho40 O60 2.316 1_655 S
Ho40 O62 2.378 . S
Ho40 O63 2.524 . S
Ho40 O64 2.381 1_655 S
Ho40 O65 2.669 1_655 S
Ho40 O67 2.346 . S
Ho40 O71 2.305 . S
Ho41 C52 2.811 . S
Ho41 O61 2.346 . S
Ho41 O65 2.305 . S
Ho41 O66 2.320 1_455 S
Ho41 O68 2.378 . S
Ho41 O69 2.524 . S
Ho41 O70 2.381 1_455 S
Ho41 O71 2.669 1_455 S
C42 O60 1.264 . S
C42 O61 1.268 . S
C43 Ho40 2.811 . S
C43 C44 1.488 . S
C43 O62 1.215 . S
C43 O63 1.289 . S
C44 C43 1.488 . S
C44 C45 1.348 . S
C44 C49 1.413 . S
C45 C44 1.348 . S
C45 C46 1.442 . S
C45 H72 0.930 . S
C46 C45 1.442 . S
C46 C47 1.381 . S
C46 H73 0.931 . S
C47 C46 1.381 . S
C47 C48 1.321 . S
C48 C47 1.321 . S
C48 C49 1.403 . S
C48 H74 0.934 . S
C49 C44 1.413 . S
C49 C48 1.403 . S
C49 H75 0.930 . S
C50 O64 1.275 . S
C50 O65 1.256 . S
C51 O66 1.260 . S
C51 O67 1.268 . S
C52 Ho41 2.811 . S
C52 C53 1.488 . S
C52 O68 1.215 . S
C52 O69 1.289 . S
C53 C52 1.488 . S
C53 C54 1.348 . S
C53 C58 1.413 . S
C54 C53 1.348 . S
C54 C55 1.442 . S
C54 H76 0.930 . S
C55 C54 1.442 . S
C55 C56 1.381 . S
C55 H77 0.931 . S
C56 C55 1.381 . S
C56 C57 1.321 . S
C57 C56 1.321 . S
C57 C58 1.403 . S
C57 H78 0.934 . S
C58 C53 1.413 . S
C58 C57 1.403 . S
C58 H79 0.930 . S
C59 O70 1.275 . S
C59 O71 1.256 . S
O60 Ho40 2.316 1_455 S
O60 C42 1.264 . S
O61 Ho41 2.346 . S
O61 C42 1.268 . S
O62 Ho40 2.378 . S
O62 C43 1.215 . S
O63 Ho40 2.524 . S
O63 C43 1.289 . S
O64 Ho40 2.381 1_455 S
O64 C50 1.275 . S
O65 Ho40 2.669 1_455 S
O65 Ho41 2.305 . S
O65 C50 1.256 . S
O66 Ho41 2.320 1_655 S
O66 C51 1.260 . S
O67 Ho40 2.346 . S
O67 C51 1.268 . S
O68 Ho41 2.378 . S
O68 C52 1.215 . S
O69 Ho41 2.524 . S
O69 C52 1.289 . S
O70 Ho41 2.381 1_655 S
O70 C59 1.275 . S
O71 Ho40 2.305 . S
O71 Ho41 2.669 1_655 S
O71 C59 1.256 . S
H72 C45 0.930 . S
H73 C46 0.931 . S
H74 C48 0.934 . S
H75 C49 0.930 . S
H76 C54 0.930 . S
H77 C55 0.931 . S
H78 C57 0.934 . S
H79 C58 0.930 . S
Ho80 C83 2.811 . S
Ho80 O100 2.313 1_554 S
Ho80 O102 2.378 . S
Ho80 O103 2.524 . S
Ho80 O104 2.381 1_554 S
Ho80 O105 2.669 1_554 S
Ho80 O107 2.346 . S
Ho80 O111 2.305 . S
Ho81 C92 2.811 . S
Ho81 O101 2.346 . S
Ho81 O105 2.305 . S
Ho81 O106 2.318 1_556 S
Ho81 O108 2.378 . S
Ho81 O109 2.524 . S
Ho81 O110 2.381 1_556 S
Ho81 O111 2.669 1_556 S
C82 O100 1.266 . S
C82 O101 1.268 . S
C83 Ho80 2.811 . S
C83 C84 1.488 . S
C83 O102 1.215 . S
C83 O103 1.289 . S
C84 C83 1.488 . S
C84 C85 1.348 . S
C84 C89 1.413 . S
C85 C84 1.348 . S
C85 C86 1.442 . S
C85 H112 0.930 . S
C86 C85 1.442 . S
C86 C87 1.381 . S
C86 H113 0.931 . S
C87 C86 1.381 . S
C87 C88 1.321 . S
C88 C87 1.321 . S
C88 C89 1.403 . S
C88 H114 0.934 . S
C89 C84 1.413 . S
C89 C88 1.403 . S
C89 H115 0.930 . S
C90 O104 1.275 . S
C90 O105 1.256 . S
C91 O106 1.262 . S
C91 O107 1.268 . S
C92 Ho81 2.811 . S
C92 C93 1.488 . S
C92 O108 1.215 . S
C92 O109 1.289 . S
C93 C92 1.488 . S
C93 C94 1.348 . S
C93 C98 1.413 . S
C94 C93 1.348 . S
C94 C95 1.442 . S
C94 H116 0.930 . S
C95 C94 1.442 . S
C95 C96 1.381 . S
C95 H117 0.931 . S
C96 C95 1.381 . S
C96 C97 1.321 . S
C97 C96 1.321 . S
C97 C98 1.403 . S
C97 H118 0.934 . S
C98 C93 1.413 . S
C98 C97 1.403 . S
C98 H119 0.930 . S
C99 O110 1.275 . S
C99 O111 1.256 . S
O100 Ho80 2.313 1_556 S
O100 C82 1.266 . S
O101 Ho81 2.346 . S
O101 C82 1.268 . S
O102 Ho80 2.378 . S
O102 C83 1.215 . S
O103 Ho80 2.524 . S
O103 C83 1.289 . S
O104 Ho80 2.381 1_556 S
O104 C90 1.275 . S
O105 Ho80 2.669 1_556 S
O105 Ho81 2.305 . S
O105 C90 1.256 . S
O106 Ho81 2.318 1_554 S
O106 C91 1.262 . S
O107 Ho80 2.346 . S
O107 C91 1.268 . S
O108 Ho81 2.378 . S
O108 C92 1.215 . S
O109 Ho81 2.524 . S
O109 C92 1.289 . S
O110 Ho81 2.381 1_554 S
O110 C99 1.275 . S
O111 Ho80 2.305 . S
O111 Ho81 2.669 1_554 S
O111 C99 1.256 . S
H112 C85 0.930 . S
H113 C86 0.931 . S
H114 C88 0.934 . S
H115 C89 0.930 . S
H116 C94 0.930 . S
H117 C95 0.931 . S
H118 C97 0.934 . S
H119 C98 0.930 . S
Ho120 C123 2.811 . S
Ho120 O140 2.322 . S
Ho120 O142 2.378 . S
Ho120 O143 2.524 . S
Ho120 O144 2.381 . S
Ho120 O145 2.669 . S
Ho120 O147 2.346 . S
Ho120 O151 2.305 . S
Ho121 C132 2.811 . S
Ho121 O141 2.346 . S
Ho121 O145 2.305 . S
Ho121 O146 2.322 . S
Ho121 O148 2.378 . S
Ho121 O149 2.524 . S
Ho121 O150 2.381 . S
Ho121 O151 2.669 . S
C122 O140 1.259 . S
C122 O141 1.268 . S
C123 Ho120 2.811 . S
C123 C124 1.488 . S
C123 O142 1.215 . S
C123 O143 1.289 . S
C124 C123 1.488 . S
C124 C125 1.348 . S
C124 C129 1.413 . S
C125 C124 1.348 . S
C125 C126 1.442 . S
C125 H152 0.930 . S
C126 C125 1.442 . S
C126 C127 1.381 . S
C126 H153 0.931 . S
C127 C126 1.381 . S
C127 C128 1.321 . S
C128 C127 1.321 . S
C128 C129 1.403 . S
C128 H154 0.934 . S
C129 C124 1.413 . S
C129 C128 1.403 . S
C129 H155 0.930 . S
C130 O144 1.275 . S
C130 O145 1.256 . S
C131 O146 1.259 . S
C131 O147 1.268 . S
C132 Ho121 2.811 . S
C132 C133 1.488 . S
C132 O148 1.215 . S
C132 O149 1.289 . S
C133 C132 1.488 . S
C133 C134 1.348 . S
C133 C138 1.413 . S
C134 C133 1.348 . S
C134 C135 1.442 . S
C134 H156 0.930 . S
C135 C134 1.442 . S
C135 C136 1.381 . S
C135 H157 0.931 . S
C136 C135 1.381 . S
C136 C137 1.321 . S
C137 C136 1.321 . S
C137 C138 1.403 . S
C137 H158 0.934 . S
C138 C133 1.413 . S
C138 C137 1.403 . S
C138 H159 0.930 . S
C139 O150 1.275 . S
C139 O151 1.256 . S
O140 Ho120 2.322 . S
O140 C122 1.259 . S
O141 Ho121 2.346 . S
O141 C122 1.268 . S
O142 Ho120 2.378 . S
O142 C123 1.215 . S
O143 Ho120 2.524 . S
O143 C123 1.289 . S
O144 Ho120 2.381 . S
O144 C130 1.275 . S
O145 Ho120 2.669 . S
O145 Ho121 2.305 . S
O145 C130 1.256 . S
O146 Ho121 2.322 . S
O146 C131 1.259 . S
O147 Ho120 2.346 . S
O147 C131 1.268 . S
O148 Ho121 2.378 . S
O148 C132 1.215 . S
O149 Ho121 2.524 . S
O149 C132 1.289 . S
O150 Ho121 2.381 . S
O150 C139 1.275 . S
O151 Ho120 2.305 . S
O151 Ho121 2.669 . S
O151 C139 1.256 . S
H152 C125 0.930 . S
H153 C126 0.931 . S
H154 C128 0.934 . S
H155 C129 0.930 . S
H156 C134 0.930 . S
H157 C135 0.931 . S
H158 C137 0.934 . S
H159 C138 0.930 . S
Ho160 C163 2.811 . S
Ho160 O180 2.322 . S
Ho160 O182 2.378 . S
Ho160 O183 2.524 . S
Ho160 O184 2.381 . S
Ho160 O185 2.669 . S
Ho160 O187 2.346 . S
Ho160 O191 2.305 . S
Ho161 C172 2.811 . S
Ho161 O181 2.346 . S
Ho161 O185 2.305 . S
Ho161 O186 2.322 . S
Ho161 O188 2.378 . S
Ho161 O189 2.524 . S
Ho161 O190 2.381 . S
Ho161 O191 2.669 . S
C162 O180 1.259 . S
C162 O181 1.268 . S
C163 Ho160 2.811 . S
C163 C164 1.488 . S
C163 O182 1.215 . S
C163 O183 1.289 . S
C164 C163 1.488 . S
C164 C165 1.348 . S
C164 C169 1.413 . S
C165 C164 1.348 . S
C165 C166 1.442 . S
C165 H192 0.930 . S
C166 C165 1.442 . S
C166 C167 1.381 . S
C166 H193 0.931 . S
C167 C166 1.381 . S
C167 C168 1.321 . S
C168 C167 1.321 . S
C168 C169 1.403 . S
C168 H194 0.934 . S
C169 C164 1.413 . S
C169 C168 1.403 . S
C169 H195 0.930 . S
C170 O184 1.275 . S
C170 O185 1.256 . S
C171 O186 1.259 . S
C171 O187 1.268 . S
C172 Ho161 2.811 . S
C172 C173 1.488 . S
C172 O188 1.215 . S
C172 O189 1.289 . S
C173 C172 1.488 . S
C173 C174 1.348 . S
C173 C178 1.413 . S
C174 C173 1.348 . S
C174 C175 1.442 . S
C174 H196 0.930 . S
C175 C174 1.442 . S
C175 C176 1.381 . S
C175 H197 0.931 . S
C176 C175 1.381 . S
C176 C177 1.321 . S
C177 C176 1.321 . S
C177 C178 1.403 . S
C177 H198 0.934 . S
C178 C173 1.413 . S
C178 C177 1.403 . S
C178 H199 0.930 . S
C179 O190 1.275 . S
C179 O191 1.256 . S
O180 Ho160 2.322 . S
O180 C162 1.259 . S
O181 Ho161 2.346 . S
O181 C162 1.268 . S
O182 Ho160 2.378 . S
O182 C163 1.215 . S
O183 Ho160 2.524 . S
O183 C163 1.289 . S
O184 Ho160 2.381 . S
O184 C170 1.275 . S
O185 Ho160 2.669 . S
O185 Ho161 2.305 . S
O185 C170 1.256 . S
O186 Ho161 2.322 . S
O186 C171 1.259 . S
O187 Ho160 2.346 . S
O187 C171 1.268 . S
O188 Ho161 2.378 . S
O188 C172 1.215 . S
O189 Ho161 2.524 . S
O189 C172 1.289 . S
O190 Ho161 2.381 . S
O190 C179 1.275 . S
O191 Ho160 2.305 . S
O191 Ho161 2.669 . S
O191 C179 1.256 . S
H192 C165 0.930 . S
H193 C166 0.931 . S
H194 C168 0.934 . S
H195 C169 0.930 . S
H196 C174 0.930 . S
H197 C175 0.931 . S
H198 C177 0.934 . S
H199 C178 0.930 . S
Ho200 C203 2.811 . S
Ho200 O220 2.322 . S
Ho200 O222 2.378 . S
Ho200 O223 2.524 . S
Ho200 O224 2.381 . S
Ho200 O225 2.669 . S
Ho200 O227 2.346 1_655 S
Ho200 O231 2.305 1_655 S
Ho201 C212 2.811 . S
Ho201 O221 2.346 1_455 S
Ho201 O225 2.305 1_455 S
Ho201 O226 2.322 . S
Ho201 O228 2.378 . S
Ho201 O229 2.524 . S
Ho201 O230 2.381 . S
Ho201 O231 2.669 . S
C202 O220 1.259 . S
C202 O221 1.268 . S
C203 Ho200 2.811 . S
C203 C204 1.488 . S
C203 O222 1.215 . S
C203 O223 1.289 . S
C204 C203 1.488 . S
C204 C205 1.348 . S
C204 C209 1.413 . S
C205 C204 1.348 . S
C205 C206 1.442 . S
C205 H232 0.930 . S
C206 C205 1.442 . S
C206 C207 1.381 . S
C206 H233 0.931 . S
C207 C206 1.381 . S
C207 C208 1.321 . S
C208 C207 1.321 . S
C208 C209 1.403 . S
C208 H234 0.934 . S
C209 C204 1.413 . S
C209 C208 1.403 . S
C209 H235 0.930 . S
C210 O224 1.275 . S
C210 O225 1.256 . S
C211 O226 1.259 . S
C211 O227 1.268 . S
C212 Ho201 2.811 . S
C212 C213 1.488 . S
C212 O228 1.215 . S
C212 O229 1.289 . S
C213 C212 1.488 . S
C213 C214 1.348 . S
C213 C218 1.413 . S
C214 C213 1.348 . S
C214 C215 1.442 . S
C214 H236 0.930 . S
C215 C214 1.442 . S
C215 C216 1.381 . S
C215 H237 0.931 . S
C216 C215 1.381 . S
C216 C217 1.321 . S
C217 C216 1.321 . S
C217 C218 1.403 . S
C217 H238 0.934 . S
C218 C213 1.413 . S
C218 C217 1.403 . S
C218 H239 0.930 . S
C219 O230 1.275 . S
C219 O231 1.256 . S
O220 Ho200 2.322 . S
O220 C202 1.259 . S
O221 Ho201 2.346 1_655 S
O221 C202 1.268 . S
O222 Ho200 2.378 . S
O222 C203 1.215 . S
O223 Ho200 2.524 . S
O223 C203 1.289 . S
O224 Ho200 2.381 . S
O224 C210 1.275 . S
O225 Ho200 2.669 . S
O225 Ho201 2.305 1_655 S
O225 C210 1.256 . S
O226 Ho201 2.322 . S
O226 C211 1.259 . S
O227 Ho200 2.346 1_455 S
O227 C211 1.268 . S
O228 Ho201 2.378 . S
O228 C212 1.215 . S
O229 Ho201 2.524 . S
O229 C212 1.289 . S
O230 Ho201 2.381 . S
O230 C219 1.275 . S
O231 Ho200 2.305 1_455 S
O231 Ho201 2.669 . S
O231 C219 1.256 . S
H232 C205 0.930 . S
H233 C206 0.931 . S
H234 C208 0.934 . S
H235 C209 0.930 . S
H236 C214 0.930 . S
H237 C215 0.931 . S
H238 C217 0.934 . S
H239 C218 0.930 . S
Ho240 C243 2.811 . S
Ho240 O260 2.322 . S
Ho240 O262 2.378 . S
Ho240 O263 2.524 . S
Ho240 O264 2.381 . S
Ho240 O265 2.669 . S
Ho240 O267 2.346 1_554 S
Ho240 O271 2.305 1_554 S
Ho241 C252 2.811 . S
Ho241 O261 2.346 1_556 S
Ho241 O265 2.305 1_556 S
Ho241 O266 2.322 . S
Ho241 O268 2.378 . S
Ho241 O269 2.524 . S
Ho241 O270 2.381 . S
Ho241 O271 2.669 . S
C242 O260 1.259 . S
C242 O261 1.268 . S
C243 Ho240 2.811 . S
C243 C244 1.488 . S
C243 O262 1.215 . S
C243 O263 1.289 . S
C244 C243 1.488 . S
C244 C245 1.348 . S
C244 C249 1.413 . S
C245 C244 1.348 . S
C245 C246 1.442 . S
C245 H272 0.930 . S
C246 C245 1.442 . S
C246 C247 1.381 . S
C246 H273 0.931 . S
C247 C246 1.381 . S
C247 C248 1.321 . S
C248 C247 1.321 . S
C248 C249 1.403 . S
C248 H274 0.934 . S
C249 C244 1.413 . S
C249 C248 1.403 . S
C249 H275 0.930 . S
C250 O264 1.275 . S
C250 O265 1.256 . S
C251 O266 1.259 . S
C251 O267 1.268 . S
C252 Ho241 2.811 . S
C252 C253 1.488 . S
C252 O268 1.215 . S
C252 O269 1.289 . S
C253 C252 1.488 . S
C253 C254 1.348 . S
C253 C258 1.413 . S
C254 C253 1.348 . S
C254 C255 1.442 . S
C254 H276 0.930 . S
C255 C254 1.442 . S
C255 C256 1.381 . S
C255 H277 0.931 . S
C256 C255 1.381 . S
C256 C257 1.321 . S
C257 C256 1.321 . S
C257 C258 1.403 . S
C257 H278 0.934 . S
C258 C253 1.413 . S
C258 C257 1.403 . S
C258 H279 0.930 . S
C259 O270 1.275 . S
C259 O271 1.256 . S
O260 Ho240 2.322 . S
O260 C242 1.259 . S
O261 Ho241 2.346 1_554 S
O261 C242 1.268 . S
O262 Ho240 2.378 . S
O262 C243 1.215 . S
O263 Ho240 2.524 . S
O263 C243 1.289 . S
O264 Ho240 2.381 . S
O264 C250 1.275 . S
O265 Ho240 2.669 . S
O265 Ho241 2.305 1_554 S
O265 C250 1.256 . S
O266 Ho241 2.322 . S
O266 C251 1.259 . S
O267 Ho240 2.346 1_556 S
O267 C251 1.268 . S
O268 Ho241 2.378 . S
O268 C252 1.215 . S
O269 Ho241 2.524 . S
O269 C252 1.289 . S
O270 Ho241 2.381 . S
O270 C259 1.275 . S
O271 Ho240 2.305 1_556 S
O271 Ho241 2.669 . S
O271 C259 1.256 . S
H272 C245 0.930 . S
H273 C246 0.931 . S
H274 C248 0.934 . S
H275 C249 0.930 . S
H276 C254 0.930 . S
H277 C255 0.931 . S
H278 C257 0.934 . S
H279 C258 0.930 . S
Ho280 C283 2.811 . S
Ho280 O300 2.322 . S
Ho280 O302 2.378 . S
Ho280 O303 2.524 . S
Ho280 O304 2.381 . S
Ho280 O305 2.669 . S
Ho280 O307 2.346 . S
Ho280 O311 2.305 . S
Ho281 C292 2.811 . S
Ho281 O301 2.346 . S
Ho281 O305 2.305 . S
Ho281 O306 2.322 . S
Ho281 O308 2.378 . S
Ho281 O309 2.524 . S
Ho281 O310 2.381 . S
Ho281 O311 2.669 . S
C282 O300 1.259 . S
C282 O301 1.268 . S
C283 Ho280 2.811 . S
C283 C284 1.488 . S
C283 O302 1.215 . S
C283 O303 1.289 . S
C284 C283 1.488 . S
C284 C285 1.348 . S
C284 C289 1.413 . S
C285 C284 1.348 . S
C285 C286 1.442 . S
C285 H312 0.930 . S
C286 C285 1.442 . S
C286 C287 1.381 . S
C286 H313 0.931 . S
C287 C286 1.381 . S
C287 C288 1.321 . S
C288 C287 1.321 . S
C288 C289 1.403 . S
C288 H314 0.934 . S
C289 C284 1.413 . S
C289 C288 1.403 . S
C289 H315 0.930 . S
C290 O304 1.275 . S
C290 O305 1.256 . S
C291 O306 1.259 . S
C291 O307 1.268 . S
C292 Ho281 2.811 . S
C292 C293 1.488 . S
C292 O308 1.215 . S
C292 O309 1.289 . S
C293 C292 1.488 . S
C293 C294 1.348 . S
C293 C298 1.413 . S
C294 C293 1.348 . S
C294 C295 1.442 . S
C294 H316 0.930 . S
C295 C294 1.442 . S
C295 C296 1.381 . S
C295 H317 0.931 . S
C296 C295 1.381 . S
C296 C297 1.321 . S
C297 C296 1.321 . S
C297 C298 1.403 . S
C297 H318 0.934 . S
C298 C293 1.413 . S
C298 C297 1.403 . S
C298 H319 0.930 . S
C299 O310 1.275 . S
C299 O311 1.256 . S
O300 Ho280 2.322 . S
O300 C282 1.259 . S
O301 Ho281 2.346 . S
O301 C282 1.268 . S
O302 Ho280 2.378 . S
O302 C283 1.215 . S
O303 Ho280 2.524 . S
O303 C283 1.289 . S
O304 Ho280 2.381 . S
O304 C290 1.275 . S
O305 Ho280 2.669 . S
O305 Ho281 2.305 . S
O305 C290 1.256 . S
O306 Ho281 2.322 . S
O306 C291 1.259 . S
O307 Ho280 2.346 . S
O307 C291 1.268 . S
O308 Ho281 2.378 . S
O308 C292 1.215 . S
O309 Ho281 2.524 . S
O309 C292 1.289 . S
O310 Ho281 2.381 . S
O310 C299 1.275 . S
O311 Ho280 2.305 . S
O311 Ho281 2.669 . S
O311 C299 1.256 . S
H312 C285 0.930 . S
H313 C286 0.931 . S
H314 C288 0.934 . S
H315 C289 0.930 . S
H316 C294 0.930 . S
H317 C295 0.931 . S
H318 C297 0.934 . S
H319 C298 0.930 . S
Ho320 C323 2.811 . S
Ho320 O340 2.322 . S
Ho320 O342 2.378 . S
Ho320 O343 2.524 . S
Ho320 O344 2.381 . S
Ho320 O345 2.669 . S
Ho320 O347 2.346 . S
Ho320 O351 2.305 . S
Ho321 C332 2.811 . S
Ho321 O341 2.346 . S
Ho321 O345 2.305 . S
Ho321 O346 2.322 . S
Ho321 O348 2.378 . S
Ho321 O349 2.524 . S
Ho321 O350 2.381 . S
Ho321 O351 2.669 . S
C322 O340 1.259 . S
C322 O341 1.268 . S
C323 Ho320 2.811 . S
C323 C324 1.488 . S
C323 O342 1.215 . S
C323 O343 1.289 . S
C324 C323 1.488 . S
C324 C325 1.348 . S
C324 C329 1.413 . S
C325 C324 1.348 . S
C325 C326 1.442 . S
C325 H352 0.930 . S
C326 C325 1.442 . S
C326 C327 1.381 . S
C326 H353 0.931 . S
C327 C326 1.381 . S
C327 C328 1.321 . S
C328 C327 1.321 . S
C328 C329 1.403 . S
C328 H354 0.934 . S
C329 C324 1.413 . S
C329 C328 1.403 . S
C329 H355 0.930 . S
C330 O344 1.275 . S
C330 O345 1.256 . S
C331 O346 1.259 . S
C331 O347 1.268 . S
C332 Ho321 2.811 . S
C332 C333 1.488 . S
C332 O348 1.215 . S
C332 O349 1.289 . S
C333 C332 1.488 . S
C333 C334 1.348 . S
C333 C338 1.413 . S
C334 C333 1.348 . S
C334 C335 1.442 . S
C334 H356 0.930 . S
C335 C334 1.442 . S
C335 C336 1.381 . S
C335 H357 0.931 . S
C336 C335 1.381 . S
C336 C337 1.321 . S
C337 C336 1.321 . S
C337 C338 1.403 . S
C337 H358 0.934 . S
C338 C333 1.413 . S
C338 C337 1.403 . S
C338 H359 0.930 . S
C339 O350 1.275 . S
C339 O351 1.256 . S
O340 Ho320 2.322 . S
O340 C322 1.259 . S
O341 Ho321 2.346 . S
O341 C322 1.268 . S
O342 Ho320 2.378 . S
O342 C323 1.215 . S
O343 Ho320 2.524 . S
O343 C323 1.289 . S
O344 Ho320 2.381 . S
O344 C330 1.275 . S
O345 Ho320 2.669 . S
O345 Ho321 2.305 . S
O345 C330 1.256 . S
O346 Ho321 2.322 . S
O346 C331 1.259 . S
O347 Ho320 2.346 . S
O347 C331 1.268 . S
O348 Ho321 2.378 . S
O348 C332 1.215 . S
O349 Ho321 2.524 . S
O349 C332 1.289 . S
O350 Ho321 2.381 . S
O350 C339 1.275 . S
O351 Ho320 2.305 . S
O351 Ho321 2.669 . S
O351 C339 1.256 . S
H352 C325 0.930 . S
H353 C326 0.931 . S
H354 C328 0.934 . S
H355 C329 0.930 . S
H356 C334 0.930 . S
H357 C335 0.931 . S
H358 C337 0.934 . S
H359 C338 0.930 . S
Ho360 C363 2.811 . S
Ho360 O380 2.322 1_565 S
Ho360 O382 2.378 . S
Ho360 O383 2.524 . S
Ho360 O384 2.381 1_565 S
Ho360 O385 2.669 1_565 S
Ho360 O387 2.346 . S
Ho360 O391 2.305 . S
Ho361 C372 2.811 . S
Ho361 O381 2.346 . S
Ho361 O385 2.305 . S
Ho361 O386 2.322 1_545 S
Ho361 O388 2.378 . S
Ho361 O389 2.524 . S
Ho361 O390 2.381 1_545 S
Ho361 O391 2.669 1_545 S
C362 O380 1.259 . S
C362 O381 1.268 . S
C363 Ho360 2.811 . S
C363 C364 1.488 . S
C363 O382 1.215 . S
C363 O383 1.289 . S
C364 C363 1.488 . S
C364 C365 1.348 . S
C364 C369 1.413 . S
C365 C364 1.348 . S
C365 C366 1.442 . S
C365 H392 0.930 . S
C366 C365 1.442 . S
C366 C367 1.381 . S
C366 H393 0.931 . S
C367 C366 1.381 . S
C367 C368 1.321 . S
C368 C367 1.321 . S
C368 C369 1.403 . S
C368 H394 0.934 . S
C369 C364 1.413 . S
C369 C368 1.403 . S
C369 H395 0.930 . S
C370 O384 1.275 . S
C370 O385 1.256 . S
C371 O386 1.259 . S
C371 O387 1.268 . S
C372 Ho361 2.811 . S
C372 C373 1.488 . S
C372 O388 1.215 . S
C372 O389 1.289 . S
C373 C372 1.488 . S
C373 C374 1.348 . S
C373 C378 1.413 . S
C374 C373 1.348 . S
C374 C375 1.442 . S
C374 H396 0.930 . S
C375 C374 1.442 . S
C375 C376 1.381 . S
C375 H397 0.931 . S
C376 C375 1.381 . S
C376 C377 1.321 . S
C377 C376 1.321 . S
C377 C378 1.403 . S
C377 H398 0.934 . S
C378 C373 1.413 . S
C378 C377 1.403 . S
C378 H399 0.930 . S
C379 O390 1.275 . S
C379 O391 1.256 . S
O380 Ho360 2.322 1_545 S
O380 C362 1.259 . S
O381 Ho361 2.346 . S
O381 C362 1.268 . S
O382 Ho360 2.378 . S
O382 C363 1.215 . S
O383 Ho360 2.524 . S
O383 C363 1.289 . S
O384 Ho360 2.381 1_545 S
O384 C370 1.275 . S
O385 Ho360 2.669 1_545 S
O385 Ho361 2.305 . S
O385 C370 1.256 . S
O386 Ho361 2.322 1_565 S
O386 C371 1.259 . S
O387 Ho360 2.346 . S
O387 C371 1.268 . S
O388 Ho361 2.378 . S
O388 C372 1.215 . S
O389 Ho361 2.524 . S
O389 C372 1.289 . S
O390 Ho361 2.381 1_565 S
O390 C379 1.275 . S
O391 Ho360 2.305 . S
O391 Ho361 2.669 1_565 S
O391 C379 1.256 . S
H392 C365 0.930 . S
H393 C366 0.931 . S
H394 C368 0.934 . S
H395 C369 0.930 . S
H396 C374 0.930 . S
H397 C375 0.931 . S
H398 C377 0.934 . S
H399 C378 0.930 . S
Ho400 C403 2.811 . S
Ho400 O420 2.322 . S
Ho400 O422 2.378 . S
Ho400 O423 2.524 . S
Ho400 O424 2.381 . S
Ho400 O425 2.669 . S
Ho400 O427 2.346 1_565 S
Ho400 O431 2.305 1_565 S
Ho401 C412 2.811 . S
Ho401 O421 2.346 1_545 S
Ho401 O425 2.305 1_545 S
Ho401 O426 2.322 . S
Ho401 O428 2.378 . S
Ho401 O429 2.524 . S
Ho401 O430 2.381 . S
Ho401 O431 2.669 . S
C402 O420 1.259 . S
C402 O421 1.268 . S
C403 Ho400 2.811 . S
C403 C404 1.488 . S
C403 O422 1.215 . S
C403 O423 1.289 . S
C404 C403 1.488 . S
C404 C405 1.348 . S
C404 C409 1.413 . S
C405 C404 1.348 . S
C405 C406 1.442 . S
C405 H432 0.930 . S
C406 C405 1.442 . S
C406 C407 1.381 . S
C406 H433 0.931 . S
C407 C406 1.381 . S
C407 C408 1.321 . S
C408 C407 1.321 . S
C408 C409 1.403 . S
C408 H434 0.934 . S
C409 C404 1.413 . S
C409 C408 1.403 . S
C409 H435 0.930 . S
C410 O424 1.275 . S
C410 O425 1.256 . S
C411 O426 1.259 . S
C411 O427 1.268 . S
C412 Ho401 2.811 . S
C412 C413 1.488 . S
C412 O428 1.215 . S
C412 O429 1.289 . S
C413 C412 1.488 . S
C413 C414 1.348 . S
C413 C418 1.413 . S
C414 C413 1.348 . S
C414 C415 1.442 . S
C414 H436 0.930 . S
C415 C414 1.442 . S
C415 C416 1.381 . S
C415 H437 0.931 . S
C416 C415 1.381 . S
C416 C417 1.321 . S
C417 C416 1.321 . S
C417 C418 1.403 . S
C417 H438 0.934 . S
C418 C413 1.413 . S
C418 C417 1.403 . S
C418 H439 0.930 . S
C419 O430 1.275 . S
C419 O431 1.256 . S
O420 Ho400 2.322 . S
O420 C402 1.259 . S
O421 Ho401 2.346 1_565 S
O421 C402 1.268 . S
O422 Ho400 2.378 . S
O422 C403 1.215 . S
O423 Ho400 2.524 . S
O423 C403 1.289 . S
O424 Ho400 2.381 . S
O424 C410 1.275 . S
O425 Ho400 2.669 . S
O425 Ho401 2.305 1_565 S
O425 C410 1.256 . S
O426 Ho401 2.322 . S
O426 C411 1.259 . S
O427 Ho400 2.346 1_545 S
O427 C411 1.268 . S
O428 Ho401 2.378 . S
O428 C412 1.215 . S
O429 Ho401 2.524 . S
O429 C412 1.289 . S
O430 Ho401 2.381 . S
O430 C419 1.275 . S
O431 Ho400 2.305 1_545 S
O431 Ho401 2.669 . S
O431 C419 1.256 . S
H432 C405 0.930 . S
H433 C406 0.931 . S
H434 C408 0.934 . S
H435 C409 0.930 . S
H436 C414 0.930 . S
H437 C415 0.931 . S
H438 C417 0.934 . S
H439 C418 0.930 . S
Ho440 C443 2.811 . S
Ho440 O460 2.322 . S
Ho440 O462 2.378 . S
Ho440 O463 2.524 . S
Ho440 O464 2.381 . S
Ho440 O465 2.669 . S
Ho440 O467 2.346 . S
Ho440 O471 2.305 . S
Ho441 C452 2.811 . S
Ho441 O461 2.346 . S
Ho441 O465 2.305 . S
Ho441 O466 2.322 . S
Ho441 O468 2.378 . S
Ho441 O469 2.524 . S
Ho441 O470 2.381 . S
Ho441 O471 2.669 . S
C442 O460 1.259 . S
C442 O461 1.268 . S
C443 Ho440 2.811 . S
C443 C444 1.488 . S
C443 O462 1.215 . S
C443 O463 1.289 . S
C444 C443 1.488 . S
C444 C445 1.348 . S
C444 C449 1.413 . S
C445 C444 1.348 . S
C445 C446 1.442 . S
C445 H472 0.930 . S
C446 C445 1.442 . S
C446 C447 1.381 . S
C446 H473 0.931 . S
C447 C446 1.381 . S
C447 C448 1.321 . S
C448 C447 1.321 . S
C448 C449 1.403 . S
C448 H474 0.934 . S
C449 C444 1.413 . S
C449 C448 1.403 . S
C449 H475 0.930 . S
C450 O464 1.275 . S
C450 O465 1.256 . S
C451 O466 1.259 . S
C451 O467 1.268 . S
C452 Ho441 2.811 . S
C452 C453 1.488 . S
C452 O468 1.215 . S
C452 O469 1.289 . S
C453 C452 1.488 . S
C453 C454 1.348 . S
C453 C458 1.413 . S
C454 C453 1.348 . S
C454 C455 1.442 . S
C454 H476 0.930 . S
C455 C454 1.442 . S
C455 C456 1.381 . S
C455 H477 0.931 . S
C456 C455 1.381 . S
C456 C457 1.321 . S
C457 C456 1.321 . S
C457 C458 1.403 . S
C457 H478 0.934 . S
C458 C453 1.413 . S
C458 C457 1.403 . S
C458 H479 0.930 . S
C459 O470 1.275 . S
C459 O471 1.256 . S
O460 Ho440 2.322 . S
O460 C442 1.259 . S
O461 Ho441 2.346 . S
O461 C442 1.268 . S
O462 Ho440 2.378 . S
O462 C443 1.215 . S
O463 Ho440 2.524 . S
O463 C443 1.289 . S
O464 Ho440 2.381 . S
O464 C450 1.275 . S
O465 Ho440 2.669 . S
O465 Ho441 2.305 . S
O465 C450 1.256 . S
O466 Ho441 2.322 . S
O466 C451 1.259 . S
O467 Ho440 2.346 . S
O467 C451 1.268 . S
O468 Ho441 2.378 . S
O468 C452 1.215 . S
O469 Ho441 2.524 . S
O469 C452 1.289 . S
O470 Ho441 2.381 . S
O470 C459 1.275 . S
O471 Ho440 2.305 . S
O471 Ho441 2.669 . S
O471 C459 1.256 . S
H472 C445 0.930 . S
H473 C446 0.931 . S
H474 C448 0.934 . S
H475 C449 0.930 . S
H476 C454 0.930 . S
H477 C455 0.931 . S
H478 C457 0.934 . S
H479 C458 0.930 . S
C480 C481 1.387 . S
C480 H484 0.950 . S
C480 C489 1.390 . S
C481 C480 1.387 . S
C481 C483 1.387 . S
H482 C489 0.950 . S
C483 C481 1.387 . S
C483 C485 1.390 . S
C483 H487 0.950 . S
H484 C480 0.950 . S
C485 C483 1.390 . S
C485 C486 1.387 . S
C485 H488 0.950 . S
C486 C485 1.387 . S
C486 C489 1.387 . S
H487 C483 0.950 . S
H488 C485 0.950 . S
C489 C480 1.390 . S
C489 H482 0.950 . S
C489 C486 1.387 . S
C490 C491 1.387 . S
C490 H494 0.950 . S
C490 C499 1.390 . S
C491 C490 1.387 . S
C491 C493 1.387 . S
H492 C499 0.950 . S
C493 C491 1.387 . S
C493 C495 1.390 . S
C493 H497 0.950 . S
H494 C490 0.950 . S
C495 C493 1.390 . S
C495 C496 1.387 . S
C495 H498 0.950 . S
C496 C495 1.387 . S
C496 C499 1.387 . S
H497 C493 0.950 . S
H498 C495 0.950 . S
C499 C490 1.390 . S
C499 H492 0.950 . S
C499 C496 1.387 . S
C500 C501 1.387 . S
C500 H504 0.950 . S
C500 C509 1.390 . S
C501 C500 1.387 . S
C501 C503 1.387 . S
H502 C509 0.950 . S
C503 C501 1.387 . S
C503 C505 1.390 . S
C503 H507 0.950 1_554 S
H504 C500 0.950 . S
C505 C503 1.390 . S
C505 C506 1.387 . S
C505 H508 0.950 . S
C506 C505 1.387 . S
C506 C509 1.387 . S
H507 C503 0.950 1_556 S
H508 C505 0.950 . S
C509 C500 1.390 . S
C509 H502 0.950 . S
C509 C506 1.387 . S
C510 C511 1.387 . S
C510 H514 0.950 . S
C510 C519 1.390 . S
C511 C510 1.387 . S
C511 C513 1.387 . S
H512 C519 0.950 . S
C513 C511 1.387 . S
C513 C515 1.390 . S
C513 H517 0.950 . S
H514 C510 0.950 . S
C515 C513 1.390 . S
C515 C516 1.387 . S
C515 H518 0.950 . S
C516 C515 1.387 . S
C516 C519 1.387 . S
H517 C513 0.950 . S
H518 C515 0.950 . S
C519 C510 1.390 . S
C519 H512 0.950 . S
C519 C516 1.387 . S
C520 C521 1.387 . S
C520 H524 0.950 . S
C520 C529 1.390 . S
C521 C520 1.387 . S
C521 C523 1.387 . S
H522 C529 0.950 . S
C523 C521 1.387 . S
C523 C525 1.390 . S
C523 H527 0.950 . S
H524 C520 0.950 . S
C525 C523 1.390 . S
C525 C526 1.387 . S
C525 H528 0.950 . S
C526 C525 1.387 . S
C526 C529 1.387 . S
H527 C523 0.950 . S
H528 C525 0.950 . S
C529 C520 1.390 . S
C529 H522 0.950 . S
C529 C526 1.387 . S
C530 C531 1.387 . S
C530 H534 0.950 . S
C530 C539 1.390 . S
C531 C530 1.387 . S
C531 C533 1.387 . S
H532 C539 0.950 . S
C533 C531 1.387 . S
C533 C535 1.390 . S
C533 H537 0.950 . S
H534 C530 0.950 . S
C535 C533 1.390 . S
C535 C536 1.387 . S
C535 H538 0.950 . S
C536 C535 1.387 . S
C536 C539 1.387 . S
H537 C533 0.950 . S
H538 C535 0.950 . S
C539 C530 1.390 . S
C539 H532 0.950 . S
C539 C536 1.387 . S
C540 C541 1.387 . S
C540 H544 0.950 1_556 S
C540 C549 1.390 . S
C541 C540 1.387 . S
C541 C543 1.387 . S
H542 C549 0.950 1_554 S
C543 C541 1.387 . S
C543 C545 1.390 . S
C543 H547 0.950 . S
H544 C540 0.950 1_554 S
C545 C543 1.390 . S
C545 C546 1.387 . S
C545 H548 0.950 . S
C546 C545 1.387 . S
C546 C549 1.387 . S
H547 C543 0.950 . S
H548 C545 0.950 . S
C549 C540 1.390 . S
C549 H542 0.950 1_556 S
C549 C546 1.387 . S
C550 C551 1.387 . S
C550 H554 0.950 . S
C550 C559 1.390 . S
C551 C550 1.387 . S
C551 C553 1.387 . S
H552 C559 0.950 . S
C553 C551 1.387 . S
C553 C555 1.390 . S
C553 H557 0.950 . S
H554 C550 0.950 . S
C555 C553 1.390 . S
C555 C556 1.387 . S
C555 H558 0.950 . S
C556 C555 1.387 . S
C556 C559 1.387 . S
H557 C553 0.950 . S
H558 C555 0.950 . S
C559 C550 1.390 . S
C559 H552 0.950 . S
C559 C556 1.387 . S
C560 C561 1.387 . S
C560 H564 0.950 . S
C560 C569 1.390 . S
C561 C560 1.387 . S
C561 C563 1.387 . S
H562 C569 0.950 . S
C563 C561 1.387 . S
C563 C565 1.390 . S
C563 H567 0.950 . S
H564 C560 0.950 . S
C565 C563 1.390 . S
C565 C566 1.387 . S
C565 H568 0.950 . S
C566 C565 1.387 . S
C566 C569 1.387 . S
H567 C563 0.950 . S
H568 C565 0.950 . S
C569 C560 1.390 . S
C569 H562 0.950 . S
C569 C566 1.387 . S
C570 C571 1.387 . S
C570 H574 0.950 . S
C570 C579 1.390 . S
C571 C570 1.387 . S
C571 C573 1.387 . S
H572 C579 0.950 . S
C573 C571 1.387 . S
C573 C575 1.390 . S
C573 H577 0.950 . S
H574 C570 0.950 . S
C575 C573 1.390 . S
C575 C576 1.387 . S
C575 H578 0.950 . S
C576 C575 1.387 . S
C576 C579 1.387 . S
H577 C573 0.950 . S
H578 C575 0.950 . S
C579 C570 1.390 . S
C579 H572 0.950 . S
C579 C576 1.387 . S
C580 C581 1.387 . S
C580 H584 0.950 . S
C580 C589 1.390 . S
C581 C580 1.387 . S
C581 C583 1.387 . S
H582 C589 0.950 . S
C583 C581 1.387 . S
C583 C585 1.390 . S
C583 H587 0.950 1_655 S
H584 C580 0.950 . S
C585 C583 1.390 . S
C585 C586 1.387 . S
C585 H588 0.950 . S
C586 C585 1.387 . S
C586 C589 1.387 . S
H587 C583 0.950 1_455 S
H588 C585 0.950 . S
C589 C580 1.390 . S
C589 H582 0.950 . S
C589 C586 1.387 . S
C590 C591 1.387 . S
C590 H594 0.950 . S
C590 C599 1.390 . S
C591 C590 1.387 . S
C591 C593 1.387 . S
H592 C599 0.950 . S
C593 C591 1.387 . S
C593 C595 1.390 . S
C593 H597 0.950 . S
H594 C590 0.950 . S
C595 C593 1.390 . S
C595 C596 1.387 . S
C595 H598 0.950 . S
C596 C595 1.387 . S
C596 C599 1.387 . S
H597 C593 0.950 . S
H598 C595 0.950 . S
C599 C590 1.390 . S
C599 H592 0.950 . S
C599 C596 1.387 . S
C600 C601 1.387 . S
C600 H604 0.950 . S
C600 C609 1.390 . S
C601 C600 1.387 . S
C601 C603 1.387 . S
H602 C609 0.950 . S
C603 C601 1.387 . S
C603 C605 1.390 . S
C603 H607 0.950 . S
H604 C600 0.950 . S
C605 C603 1.390 . S
C605 C606 1.387 . S
C605 H608 0.950 . S
C606 C605 1.387 . S
C606 C609 1.387 . S
H607 C603 0.950 . S
H608 C605 0.950 . S
C609 C600 1.390 . S
C609 H602 0.950 . S
C609 C606 1.387 . S
C610 C611 1.387 . S
C610 H614 0.950 . S
C610 C619 1.390 . S
C611 C610 1.387 . S
C611 C613 1.387 . S
H612 C619 0.950 1_545 S
C613 C611 1.387 . S
C613 C615 1.390 . S
C613 H617 0.950 . S
H614 C610 0.950 . S
C615 C613 1.390 . S
C615 C616 1.387 . S
C615 H618 0.950 . S
C616 C615 1.387 . S
C616 C619 1.387 . S
H617 C613 0.950 . S
H618 C615 0.950 . S
C619 C610 1.390 . S
C619 H612 0.950 1_565 S
C619 C616 1.387 . S
C620 C621 1.387 . S
C620 H624 0.950 . S
C620 C629 1.390 . S
C621 C620 1.387 . S
C621 C623 1.387 . S
H622 C629 0.950 . S
C623 C621 1.387 . S
C623 C625 1.390 . S
C623 H627 0.950 . S
H624 C620 0.950 . S
C625 C623 1.390 . S
C625 C626 1.387 . S
C625 H628 0.950 . S
C626 C625 1.387 . S
C626 C629 1.387 . S
H627 C623 0.950 . S
H628 C625 0.950 . S
C629 C620 1.390 . S
C629 H622 0.950 . S
C629 C626 1.387 . S
C630 C631 1.387 . S
C630 H634 0.950 . S
C630 C639 1.390 1_554 S
C631 C630 1.387 . S
C631 C633 1.387 . S
H632 C639 0.950 1_565 S
C633 C631 1.387 . S
C633 C635 1.390 1_554 S
C633 H637 0.950 . S
H634 C630 0.950 . S
C635 C633 1.390 1_556 S
C635 C636 1.387 . S
C635 H638 0.950 . S
C636 C635 1.387 . S
C636 C639 1.387 . S
H637 C633 0.950 . S
H638 C635 0.950 . S
C639 C630 1.390 1_556 S
C639 H632 0.950 1_545 S
C639 C636 1.387 . S
C640 C641 1.387 . S
C640 H644 0.950 . S
C640 C649 1.390 . S
C641 C640 1.387 . S
C641 C643 1.387 . S
H642 C649 0.950 . S
C643 C641 1.387 . S
C643 C645 1.390 . S
C643 H647 0.950 . S
H644 C640 0.950 . S
C645 C643 1.390 . S
C645 C646 1.387 . S
C645 H648 0.950 . S
C646 C645 1.387 . S
C646 C649 1.387 . S
H647 C643 0.950 . S
H648 C645 0.950 . S
C649 C640 1.390 . S
C649 H642 0.950 . S
C649 C646 1.387 . S
C650 C651 1.387 1_556 S
C650 H654 0.950 1_556 S
C650 C659 1.390 . S
C651 C650 1.387 1_554 S
C651 C653 1.387 1_554 S
H652 C659 0.950 . S
C653 C651 1.387 1_556 S
C653 C655 1.390 . S
C653 H657 0.950 . S
H654 C650 0.950 1_554 S
C655 C653 1.390 . S
C655 C656 1.387 . S
C655 H658 0.950 . S
C656 C655 1.387 . S
C656 C659 1.387 . S
H657 C653 0.950 . S
H658 C655 0.950 . S
C659 C650 1.390 . S
C659 H652 0.950 . S
C659 C656 1.387 . S
C660 C661 1.387 . S
C660 H664 0.950 . S
C660 C669 1.390 . S
C661 C660 1.387 . S
C661 C663 1.387 . S
H662 C669 0.950 . S
C663 C661 1.387 . S
C663 C665 1.390 . S
C663 H667 0.950 . S
H664 C660 0.950 . S
C665 C663 1.390 . S
C665 C666 1.387 . S
C665 H668 0.950 . S
C666 C665 1.387 . S
C666 C669 1.387 . S
H667 C663 0.950 . S
H668 C665 0.950 . S
C669 C660 1.390 . S
C669 H662 0.950 . S
C669 C666 1.387 . S
C670 C671 1.387 . S
C670 H674 0.950 . S
C670 C679 1.390 . S
C671 C670 1.387 . S
C671 C673 1.387 . S
H672 C679 0.950 . S
C673 C671 1.387 . S
C673 C675 1.390 . S
C673 H677 0.950 . S
H674 C670 0.950 . S
C675 C673 1.390 . S
C675 C676 1.387 . S
C675 H678 0.950 . S
C676 C675 1.387 . S
C676 C679 1.387 . S
H677 C673 0.950 . S
H678 C675 0.950 . S
C679 C670 1.390 . S
C679 H672 0.950 . S
C679 C676 1.387 . S
C680 C681 1.387 . S
C680 H684 0.950 . S
C680 C689 1.390 . S
C681 C680 1.387 . S
C681 C683 1.387 . S
H682 C689 0.950 . S
C683 C681 1.387 . S
C683 C685 1.390 . S
C683 H687 0.950 . S
H684 C680 0.950 . S
C685 C683 1.390 . S
C685 C686 1.387 . S
C685 H688 0.950 . S
C686 C685 1.387 . S
C686 C689 1.387 . S
H687 C683 0.950 . S
H688 C685 0.950 . S
C689 C680 1.390 . S
C689 H682 0.950 . S
C689 C686 1.387 . S
C690 C691 1.387 . S
C690 H694 0.950 . S
C690 C699 1.390 . S
C691 C690 1.387 . S
C691 C693 1.387 . S
H692 C699 0.950 1_565 S
C693 C691 1.387 . S
C693 C695 1.390 . S
C693 H697 0.950 . S
H694 C690 0.950 . S
C695 C693 1.390 . S
C695 C696 1.387 1_545 S
C695 H698 0.953 . S
C696 C695 1.387 1_565 S
C696 C699 1.387 1_565 S
H697 C693 0.950 . S
H698 C695 0.953 . S
C699 C690 1.390 . S
C699 H692 0.950 1_545 S
C699 C696 1.387 1_545 S
C700 C701 1.387 . S
C700 H704 0.950 1_556 S
C700 C709 1.390 . S
C701 C700 1.387 . S
C701 C703 1.387 . S
H702 C709 0.950 . S
C703 C701 1.387 . S
C703 C705 1.390 . S
C703 H707 0.950 . S
H704 C700 0.950 1_554 S
C705 C703 1.390 . S
C705 C706 1.387 . S
C705 H708 0.950 . S
C706 C705 1.387 . S
C706 C709 1.387 . S
H707 C703 0.950 . S
H708 C705 0.950 . S
C709 C700 1.390 . S
C709 H702 0.950 . S
C709 C706 1.387 . S
C710 C711 1.387 . S
C710 H714 0.950 . S
C710 C719 1.390 . S
C711 C710 1.387 . S
C711 C713 1.387 . S
H712 C719 0.950 . S
C713 C711 1.387 . S
C713 C715 1.390 1_545 S
C713 H717 0.950 . S
H714 C710 0.950 . S
C715 C713 1.390 1_565 S
C715 C716 1.387 . S
C715 H718 0.950 . S
C716 C715 1.387 . S
C716 C719 1.387 1_565 S
H717 C713 0.950 . S
H718 C715 0.950 . S
C719 C710 1.390 . S
C719 H712 0.950 . S
C719 C716 1.387 1_545 S
C720 C721 1.387 . S
C720 H724 0.950 . S
C720 C729 1.390 . S
C721 C720 1.387 . S
C721 C723 1.387 . S
H722 C729 0.950 . S
C723 C721 1.387 . S
C723 C725 1.390 . S
C723 H727 0.950 . S
H724 C720 0.950 . S
C725 C723 1.390 . S
C725 C726 1.387 . S
C725 H728 0.950 . S
C726 C725 1.387 . S
C726 C729 1.387 . S
H727 C723 0.950 . S
H728 C725 0.950 . S
C729 C720 1.390 . S
C729 H722 0.950 . S
C729 C726 1.387 . S
C730 C731 1.387 . S
C730 H734 0.950 . S
C730 C739 1.390 . S
C731 C730 1.387 . S
C731 C733 1.387 . S
H732 C739 0.950 . S
C733 C731 1.387 . S
C733 C735 1.390 . S
C733 H737 0.950 . S
H734 C730 0.950 . S
C735 C733 1.390 . S
C735 C736 1.387 . S
C735 H738 0.950 . S
C736 C735 1.387 . S
C736 C739 1.387 . S
H737 C733 0.950 . S
H738 C735 0.950 . S
C739 C730 1.390 . S
C739 H732 0.950 . S
C739 C736 1.387 . S
C740 C741 1.387 . S
C740 H744 0.950 . S
C740 C749 1.390 . S
C741 C740 1.387 . S
C741 C743 1.387 . S
H742 C749 0.950 . S
C743 C741 1.387 . S
C743 C745 1.390 . S
C743 H747 0.950 . S
H744 C740 0.950 . S
C745 C743 1.390 . S
C745 C746 1.387 . S
C745 H748 0.950 . S
C746 C745 1.387 . S
C746 C749 1.387 . S
H747 C743 0.950 . S
H748 C745 0.950 . S
C749 C740 1.390 . S
C749 H742 0.950 . S
C749 C746 1.387 . S
C750 C751 1.387 . S
C750 H754 0.950 . S
C750 C759 1.390 . S
C751 C750 1.387 . S
C751 C753 1.387 . S
H752 C759 0.950 . S
C753 C751 1.387 . S
C753 C755 1.390 . S
C753 H757 0.950 . S
H754 C750 0.950 . S
C755 C753 1.390 . S
C755 C756 1.387 . S
C755 H758 0.950 . S
C756 C755 1.387 . S
C756 C759 1.387 . S
H757 C753 0.950 . S
H758 C755 0.950 . S
C759 C750 1.390 . S
C759 H752 0.950 . S
C759 C756 1.387 . S
C760 C761 1.387 . S
C760 H764 0.950 . S
C760 C769 1.390 . S
C761 C760 1.387 . S
C761 C763 1.387 . S
H762 C769 0.950 . S
C763 C761 1.387 . S
C763 C765 1.390 . S
C763 H767 0.950 . S
H764 C760 0.950 . S
C765 C763 1.390 . S
C765 C766 1.387 . S
C765 H768 0.950 . S
C766 C765 1.387 . S
C766 C769 1.387 . S
H767 C763 0.950 . S
H768 C765 0.950 . S
C769 C760 1.390 . S
C769 H762 0.950 . S
C769 C766 1.387 . S
C770 C771 1.387 . S
C770 H774 0.950 . S
C770 C779 1.390 . S
C771 C770 1.387 . S
C771 C773 1.387 . S
H772 C779 0.950 . S
C773 C771 1.387 . S
C773 C775 1.390 . S
C773 H777 0.950 . S
H774 C770 0.950 . S
C775 C773 1.390 . S
C775 C776 1.387 . S
C775 H778 0.950 . S
C776 C775 1.387 . S
C776 C779 1.387 . S
H777 C773 0.950 . S
H778 C775 0.950 . S
C779 C770 1.390 . S
C779 H772 0.950 . S
C779 C776 1.387 . S
C780 C781 1.387 . S
C780 H784 0.950 . S
C780 C789 1.390 1_455 S
C781 C780 1.387 . S
C781 C783 1.387 . S
H782 C789 0.950 . S
C783 C781 1.387 . S
C783 C785 1.390 1_455 S
C783 H787 0.950 . S
H784 C780 0.950 . S
C785 C783 1.390 1_655 S
C785 C786 1.387 . S
C785 H788 0.950 . S
C786 C785 1.387 . S
C786 C789 1.387 . S
H787 C783 0.950 . S
H788 C785 0.950 . S
C789 C780 1.390 1_655 S
C789 H782 0.950 . S
C789 C786 1.387 . S
C790 C791 1.387 . S
C790 H794 0.950 . S
C790 C799 1.390 . S
C791 C790 1.387 . S
C791 C793 1.387 . S
H792 C799 0.950 . S
C793 C791 1.387 . S
C793 C795 1.390 . S
C793 H797 0.950 . S
H794 C790 0.950 . S
C795 C793 1.390 . S
C795 C796 1.387 . S
C795 H798 0.950 . S
C796 C795 1.387 . S
C796 C799 1.387 . S
H797 C793 0.950 . S
H798 C795 0.950 . S
C799 C790 1.390 . S
C799 H792 0.950 . S
C799 C796 1.387 . S
C800 C801 1.387 . S
C800 H804 0.950 . S
C800 C809 1.390 . S
C801 C800 1.387 . S
C801 C803 1.387 . S
H802 C809 0.950 . S
C803 C801 1.387 . S
C803 C805 1.390 . S
C803 H807 0.950 . S
H804 C800 0.950 . S
C805 C803 1.390 . S
C805 C806 1.387 . S
C805 H808 0.950 . S
C806 C805 1.387 . S
C806 C809 1.387 . S
H807 C803 0.950 . S
H808 C805 0.950 . S
C809 C800 1.390 . S
C809 H802 0.950 . S
C809 C806 1.387 . S
C810 C811 1.387 . S
C810 H814 0.950 . S
C810 C819 1.390 . S
C811 C810 1.387 . S
C811 C813 1.387 . S
H812 C819 0.950 . S
C813 C811 1.387 . S
C813 C815 1.390 . S
C813 H817 0.950 . S
H814 C810 0.950 . S
C815 C813 1.390 . S
C815 C816 1.387 . S
C815 H818 0.950 . S
C816 C815 1.387 . S
C816 C819 1.387 . S
H817 C813 0.950 . S
H818 C815 0.950 . S
C819 C810 1.390 . S
C819 H812 0.950 . S
C819 C816 1.387 . S
C820 C821 1.387 . S
C820 H824 0.950 . S
C820 C829 1.390 . S
C821 C820 1.387 . S
C821 C823 1.387 . S
H822 C829 0.950 . S
C823 C821 1.387 . S
C823 C825 1.390 . S
C823 H827 0.950 1_556 S
H824 C820 0.950 . S
C825 C823 1.390 . S
C825 C826 1.387 . S
C825 H828 0.950 . S
C826 C825 1.387 . S
C826 C829 1.387 . S
H827 C823 0.950 1_554 S
H828 C825 0.950 . S
C829 C820 1.390 . S
C829 H822 0.950 . S
C829 C826 1.387 . S
C830 C831 1.387 . S
C830 H834 0.950 . S
C830 C839 1.390 . S
C831 C830 1.387 . S
C831 C833 1.387 . S
H832 C839 0.950 1_455 S
C833 C831 1.387 . S
C833 C835 1.390 . S
C833 H837 0.950 . S
H834 C830 0.950 . S
C835 C833 1.390 . S
C835 C836 1.387 1_655 S
C835 H838 0.950 1_655 S
C836 C835 1.387 1_455 S
C836 C839 1.387 1_455 S
H837 C833 0.950 . S
H838 C835 0.950 1_455 S
C839 C830 1.390 . S
C839 H832 0.950 1_655 S
C839 C836 1.387 1_655 S
C481 C19 1.330 . S
C486 C459 1.324 . S
C491 C371 1.845 . S
C496 C59 1.979 . S
C501 C91 1.463 . S
C506 C339 1.556 . S
C511 C139 2.236 . S
C516 C419 2.217 . S
C521 C179 1.855 . S
C526 C411 1.768 . S
C531 C211 1.545 . S
C536 C451 1.590 . S
C541 C379 2.112 . S
C546 C259 2.115 . S
C551 C291 1.696 . S
C556 C331 1.780 . S
C561 C131 1.760 . S
C566 C171 1.811 . S
C571 C11 1.733 . S
C576 C219 1.855 . S
C581 C51 1.661 . S
C586 C251 1.680 . S
C591 C299 2.043 . S
C596 C99 2.046 . S
C601 C7 1.714 . S
C606 C330 1.579 . S
C611 C47 1.781 . S
C616 C410 1.691 . S
C621 C450 2.181 . S
C626 C96 2.188 . S
C631 C127 1.549 . S
C636 C362 1.509 . S
C641 C167 1.315 . S
C646 C370 1.243 . S
C651 C322 2.246 . S
C656 C216 2.105 . S
C661 C402 1.379 . S
C666 C247 1.386 . S
C671 C442 2.727 . S
C676 C296 2.587 . S
C681 C2 2.825 . S
C686 C136 2.685 . S
C691 C16 2.142 . S
C696 C42 2.260 . S
C701 C56 2.423 . S
C706 C90 2.407 . S
C711 C122 1.683 . S
C716 C87 1.729 . S
C721 C207 1.533 . S
C726 C162 1.497 . S
C731 C210 1.583 . S
C736 C256 1.627 . S
C741 C242 1.548 . S
C746 C287 1.580 . S
C751 C176 1.235 . S
C756 C290 1.204 . S
C761 C336 1.242 . S
C766 C130 1.194 . S
C771 C202 1.872 . S
C776 C376 1.784 . S
C781 C327 1.486 . S
C786 C250 1.403 . S
C791 C407 1.716 . S
C796 C282 1.687 . S
C801 C170 1.382 . S
C806 C447 1.478 . S
C811 C456 1.922 . S
C816 C50 1.878 . S
C821 C82 1.586 . S
C826 C367 1.616 . S
C831 C416 1.975 . S
C836 C10 1.960 . S
