# Generated by pormake.
# Topology smd, (6)-cn, num edge types: 1
# Building blocks:
#     Node 0, Type 0, BuildingBlock: OJICUG_clean_sbu_0, # of connection points: 6
#     Node 1, Type 0, BuildingBlock: OJICUG_clean_sbu_0, # of connection points: 6
#     Node 2, Type 0, BuildingBlock: OJICUG_clean_sbu_0, # of connection points: 6
#     Node 3, Type 0, BuildingBlock: OJICUG_clean_sbu_0, # of connection points: 6
#     Node 4, Type 0, BuildingBlock: OJICUG_clean_sbu_0, # of connection points: 6
#     Node 5, Type 0, BuildingBlock: OJICUG_clean_sbu_0, # of connection points: 6
#     Node 6, Type 0, BuildingBlock: OJICUG_clean_sbu_0, # of connection points: 6
#     Node 7, Type 0, BuildingBlock: OJICUG_clean_sbu_0, # of connection points: 6
#     Node 8, Type 0, BuildingBlock: OJICUG_clean_sbu_0, # of connection points: 6
#     Node 9, Type 0, BuildingBlock: OJICUG_clean_sbu_0, # of connection points: 6
#     Node 10, Type 0, BuildingBlock: OJICUG_clean_sbu_0, # of connection points: 6
#     Node 11, Type 0, BuildingBlock: OJICUG_clean_sbu_0, # of connection points: 6
#     Node 12, Type 0, BuildingBlock: OJICUG_clean_sbu_0, # of connection points: 6
#     Node 13, Type 0, BuildingBlock: OJICUG_clean_sbu_0, # of connection points: 6
#     Node 14, Type 0, BuildingBlock: OJICUG_clean_sbu_0, # of connection points: 6
#     Node 15, Type 0, BuildingBlock: OJICUG_clean_sbu_0, # of connection points: 6
#     Node 16, Type 0, BuildingBlock: OJICUG_clean_sbu_0, # of connection points: 6
#     Node 17, Type 0, BuildingBlock: OJICUG_clean_sbu_0, # of connection points: 6
#     Edge 18, Type (0, 0), BuildingBlock: OJICUG_clean_linker_0, # of connection points: 2
#     Edge 19, Type (0, 0), BuildingBlock: OJICUG_clean_linker_0, # of connection points: 2
#     Edge 20, Type (0, 0), BuildingBlock: OJICUG_clean_linker_0, # of connection points: 2
#     Edge 21, Type (0, 0), BuildingBlock: OJICUG_clean_linker_0, # of connection points: 2
#     Edge 22, Type (0, 0), BuildingBlock: OJICUG_clean_linker_0, # of connection points: 2
#     Edge 23, Type (0, 0), BuildingBlock: OJICUG_clean_linker_0, # of connection points: 2
#     Edge 24, Type (0, 0), BuildingBlock: OJICUG_clean_linker_0, # of connection points: 2
#     Edge 25, Type (0, 0), BuildingBlock: OJICUG_clean_linker_0, # of connection points: 2
#     Edge 26, Type (0, 0), BuildingBlock: OJICUG_clean_linker_0, # of connection points: 2
#     Edge 27, Type (0, 0), BuildingBlock: OJICUG_clean_linker_0, # of connection points: 2
#     Edge 28, Type (0, 0), BuildingBlock: OJICUG_clean_linker_0, # of connection points: 2
#     Edge 29, Type (0, 0), BuildingBlock: OJICUG_clean_linker_0, # of connection points: 2
#     Edge 30, Type (0, 0), BuildingBlock: OJICUG_clean_linker_0, # of connection points: 2
#     Edge 31, Type (0, 0), BuildingBlock: OJICUG_clean_linker_0, # of connection points: 2
#     Edge 32, Type (0, 0), BuildingBlock: OJICUG_clean_linker_0, # of connection points: 2
#     Edge 33, Type (0, 0), BuildingBlock: OJICUG_clean_linker_0, # of connection points: 2
#     Edge 34, Type (0, 0), BuildingBlock: OJICUG_clean_linker_0, # of connection points: 2
#     Edge 35, Type (0, 0), BuildingBlock: OJICUG_clean_linker_0, # of connection points: 2
#     Edge 36, Type (0, 0), BuildingBlock: OJICUG_clean_linker_0, # of connection points: 2
#     Edge 37, Type (0, 0), BuildingBlock: OJICUG_clean_linker_0, # of connection points: 2
#     Edge 38, Type (0, 0), BuildingBlock: OJICUG_clean_linker_0, # of connection points: 2
#     Edge 39, Type (0, 0), BuildingBlock: OJICUG_clean_linker_0, # of connection points: 2
#     Edge 40, Type (0, 0), BuildingBlock: OJICUG_clean_linker_0, # of connection points: 2
#     Edge 41, Type (0, 0), BuildingBlock: OJICUG_clean_linker_0, # of connection points: 2
#     Edge 42, Type (0, 0), BuildingBlock: OJICUG_clean_linker_0, # of connection points: 2
#     Edge 43, Type (0, 0), BuildingBlock: OJICUG_clean_linker_0, # of connection points: 2
#     Edge 44, Type (0, 0), BuildingBlock: OJICUG_clean_linker_0, # of connection points: 2
#     Edge 45, Type (0, 0), BuildingBlock: OJICUG_clean_linker_0, # of connection points: 2
#     Edge 46, Type (0, 0), BuildingBlock: OJICUG_clean_linker_0, # of connection points: 2
#     Edge 47, Type (0, 0), BuildingBlock: OJICUG_clean_linker_0, # of connection points: 2
#     Edge 48, Type (0, 0), BuildingBlock: OJICUG_clean_linker_0, # of connection points: 2
#     Edge 49, Type (0, 0), BuildingBlock: OJICUG_clean_linker_0, # of connection points: 2
#     Edge 50, Type (0, 0), BuildingBlock: OJICUG_clean_linker_0, # of connection points: 2
#     Edge 51, Type (0, 0), BuildingBlock: OJICUG_clean_linker_0, # of connection points: 2
#     Edge 52, Type (0, 0), BuildingBlock: OJICUG_clean_linker_0, # of connection points: 2
#     Edge 53, Type (0, 0), BuildingBlock: OJICUG_clean_linker_0, # of connection points: 2
#     Edge 54, Type (0, 0), BuildingBlock: OJICUG_clean_linker_0, # of connection points: 2
#     Edge 55, Type (0, 0), BuildingBlock: OJICUG_clean_linker_0, # of connection points: 2
#     Edge 56, Type (0, 0), BuildingBlock: OJICUG_clean_linker_0, # of connection points: 2
#     Edge 57, Type (0, 0), BuildingBlock: OJICUG_clean_linker_0, # of connection points: 2
#     Edge 58, Type (0, 0), BuildingBlock: OJICUG_clean_linker_0, # of connection points: 2
#     Edge 59, Type (0, 0), BuildingBlock: OJICUG_clean_linker_0, # of connection points: 2
#     Edge 60, Type (0, 0), BuildingBlock: OJICUG_clean_linker_0, # of connection points: 2
#     Edge 61, Type (0, 0), BuildingBlock: OJICUG_clean_linker_0, # of connection points: 2
#     Edge 62, Type (0, 0), BuildingBlock: OJICUG_clean_linker_0, # of connection points: 2
#     Edge 63, Type (0, 0), BuildingBlock: OJICUG_clean_linker_0, # of connection points: 2
#     Edge 64, Type (0, 0), BuildingBlock: OJICUG_clean_linker_0, # of connection points: 2
#     Edge 65, Type (0, 0), BuildingBlock: OJICUG_clean_linker_0, # of connection points: 2
#     Edge 66, Type (0, 0), BuildingBlock: OJICUG_clean_linker_0, # of connection points: 2
#     Edge 67, Type (0, 0), BuildingBlock: OJICUG_clean_linker_0, # of connection points: 2
#     Edge 68, Type (0, 0), BuildingBlock: OJICUG_clean_linker_0, # of connection points: 2
#     Edge 69, Type (0, 0), BuildingBlock: OJICUG_clean_linker_0, # of connection points: 2
#     Edge 70, Type (0, 0), BuildingBlock: OJICUG_clean_linker_0, # of connection points: 2
#     Edge 71, Type (0, 0), BuildingBlock: OJICUG_clean_linker_0, # of connection points: 2
# Relax obj value: 0.160
# Max RMSD: 0.216
# Mean RMSD: 0.216
data_MOF--net-smd--node1-OJICUG_clean_sbu_0--edge1-OJICUG_clean_linker_0
_symmetry_space_group_name_H-M    P1
_symmetry_Int_Tables_number       1
_symmetry_cell_setting            triclinic
loop_
_symmetry_equiv_pos_as_xyz
'x, y, z'
_cell_length_a     57.590776
_cell_length_b     57.671961
_cell_length_c     11.854994
_cell_angle_alpha  89.829866
_cell_angle_beta   90.037498
_cell_angle_gamma 119.94016
loop_
_atom_site_label
_atom_site_type_symbol
_atom_site_fract_x
_atom_site_fract_y
_atom_site_fract_z
_atom_type_partial_charge
Sc0 Sc 0.97911 0.22536 0.39149 0.0
Sc1 Sc 0.00304 0.18555 0.50571 0.0
Sc2 Sc 0.02611 0.24989 0.60897 0.0
O3 O 0.00264 0.22023 0.50287 0.0
C4 C 0.03136 0.28394 0.39875 0.0
C5 C 0.00017 0.19586 0.24094 0.0
C6 C 0.06394 0.22692 0.53283 0.0
C7 C 0.94238 0.1645 0.47139 0.0
C8 C 0.97143 0.25245 0.60032 0.0
C9 C 0.00837 0.201 0.76924 0.0
O10 O 0.00757 0.26783 0.36567 0.0
O11 O -0.00037 0.18089 0.32163 0.0
O12 O 0.05968 0.24289 0.59167 0.0
O13 O 0.94671 0.18392 0.40631 0.0
O14 O -0.00481 0.26061 0.63617 0.0
O15 O 0.00674 0.18534 0.68992 0.0
O16 O 0.96073 0.23586 0.52058 0.0
O17 O 0.96087 0.16364 0.52607 0.0
O18 O 0.01184 0.22422 0.75188 0.0
O19 O -0.0033 0.2157 0.25502 0.0
O20 O 0.0429 0.27802 0.47507 0.0
O21 O 0.04535 0.20622 0.48569 0.0
Sc22 Sc 0.78478 0.76598 0.46775 0.0
Sc23 Sc 0.82213 0.83081 0.56891 0.0
Sc24 Sc 0.7593 0.78751 0.6823 0.0
O25 O 0.78875 0.79487 0.572 0.0
C26 C 0.72549 0.75919 0.47548 0.0
C27 C 0.81248 0.81482 0.3058 0.0
C28 C 0.77912 0.84727 0.60446 0.0
C29 C 0.84658 0.79366 0.53931 0.0
C30 C 0.75666 0.7307 0.67034 0.0
C31 C 0.80909 0.81885 0.83332 0.0
O32 O 0.74209 0.75189 0.44337 0.0
O33 O 0.82608 0.83102 0.38454 0.0
O34 O 0.76615 0.82825 0.67424 0.0
O35 O 0.82653 0.77661 0.48237 0.0
O36 O 0.74677 0.74519 0.69992 0.0
O37 O 0.82248 0.835 0.75357 0.0
O38 O 0.77652 0.73915 0.6046 0.0
O39 O 0.84701 0.81339 0.58863 0.0
O40 O 0.7868 0.79761 0.81815 0.0
O41 O 0.7937 0.79111 0.32409 0.0
O42 O 0.73085 0.7767 0.55093 0.0
O43 O 0.7986 0.84937 0.5468 0.0
Sc44 Sc 0.24275 0.0253 0.39205 0.0
Sc45 Sc 0.18053 0.00277 0.51756 0.0
Sc46 Sc 0.22573 0.98622 0.63783 0.0
O47 O 0.21658 0.00485 0.51621 0.0
C48 C 0.25151 0.97505 0.4263 0.0
C49 C 0.1905 0.00285 0.25245 0.0
C50 C 0.16541 0.94383 0.56642 0.0
C51 C 0.2191 0.06301 0.46696 0.0
C52 C 0.28169 0.0402 0.59861 0.0
C53 C 0.19156 0.00258 0.7827 0.0
O54 O 0.25433 -0.00478 0.37063 0.0
O55 O 0.17725 0.00462 0.33434 0.0
O56 O 0.18601 0.95078 0.62833 0.0
O57 O 0.23405 0.05798 0.40391 0.0
O58 O 0.26625 0.01935 0.65583 0.0
O59 O 0.17624 0.0002 0.70095 0.0
O60 O 0.27513 0.0462 0.50562 0.0
O61 O 0.19993 0.04525 0.52578 0.0
O62 O 0.21341 0.00271 0.76949 0.0
O63 O 0.21356 0.00566 0.26416 0.0
O64 O 0.23983 0.96807 0.52108 0.0
O65 O 0.16155 0.96031 0.50902 0.0
Sc66 Sc 0.02729 0.78532 0.66581 0.0
Sc67 Sc 0.00836 0.8294 0.55369 0.0
Sc68 Sc 0.97911 0.76413 0.45468 0.0
O69 O 0.00502 0.79305 0.55705 0.0
C70 C 0.03105 0.75635 0.45637 0.0
C71 C 0.06776 0.84494 0.58652 0.0
C72 C 0.0007 0.81302 0.29083 0.0
C73 C 0.01007 0.81765 0.81835 0.0
C74 C 0.97252 0.72901 0.65872 0.0
C75 C 0.94628 0.7929 0.52977 0.0
O76 O 0.04361 0.77333 0.53323 0.0
O77 O 0.05034 0.84742 0.53086 0.0
O78 O -0.00564 0.78891 0.30953 0.0
O79 O 0.01123 0.79646 0.80336 0.0
O80 O 0.96117 0.73741 0.59223 0.0
O81 O 0.96624 0.81294 0.57434 0.0
O82 O -0.003 0.74332 0.68722 0.0
O83 O 0.01229 0.83355 0.7383 0.0
O84 O 0.94837 0.77511 0.47449 0.0
O85 O 0.06176 0.82565 0.65476 0.0
O86 O 0.00725 0.74971 0.42521 0.0
O87 O 0.00471 0.82974 0.36931 0.0
Sc88 Sc 0.22334 0.24813 0.60083 0.0
Sc89 Sc 0.18165 0.18463 0.49479 0.0
Sc90 Sc 0.24513 0.22429 0.38044 0.0
O91 O 0.21681 0.21892 0.49299 0.0
C92 C 0.2515 0.28281 0.39442 0.0
C93 C 0.16256 0.22587 0.52742 0.0
C94 C 0.19464 0.19568 0.2308 0.0
C95 C 0.1925 0.19943 0.75868 0.0
C96 C 0.2807 0.25084 0.58562 0.0
C97 C 0.22061 0.16323 0.45729 0.0
O98 O 0.23316 0.27602 0.46716 0.0
O99 O 0.16061 0.20592 0.47405 0.0
O100 O 0.21764 0.21597 0.24585 0.0
O101 O 0.21324 0.22198 0.7415 0.0
O102 O 0.27401 0.23343 0.5087 0.0
O103 O 0.20188 0.1627 0.51552 0.0
O104 O 0.26534 0.25933 0.6213 0.0
O105 O 0.17753 0.18461 0.67914 0.0
O106 O 0.23516 0.18242 0.39007 0.0
O107 O 0.18248 0.24069 0.59023 0.0
O108 O 0.25979 0.26715 0.36155 0.0
O109 O 0.18071 0.17998 0.3106 0.0
Sc110 Sc 0.76017 0.98741 0.65326 0.0
Sc111 Sc 0.82151 0.00403 0.52931 0.0
Sc112 Sc 0.78174 0.02748 0.4099 0.0
O113 O 0.78762 0.00629 0.5306 0.0
C114 C 0.72283 0.97666 0.44315 0.0
C115 C 0.77816 0.94517 0.57948 0.0
C116 C 0.81181 0.00618 0.2641 0.0
C117 C 0.81154 0.00479 0.79447 0.0
C118 C 0.75775 0.04125 0.61989 0.0
C119 C 0.84326 0.06473 0.48312 0.0
O120 O 0.72772 0.96933 0.53691 0.0
O121 O 0.79809 0.96164 0.52043 0.0
O122 O 0.79191 0.00953 0.27691 0.0
O123 O 0.78953 0.0044 0.78268 0.0
O124 O 0.77018 0.04762 0.52682 0.0
O125 O 0.8449 0.04655 0.53774 0.0
O126 O 0.75236 0.02015 0.67486 0.0
O127 O 0.82399 0.00172 0.7126 0.0
O128 O 0.82294 0.06023 0.42342 0.0
O129 O 0.7647 0.95209 0.64265 0.0
O130 O 0.74009 -0.0029 0.38824 0.0
O131 O 0.82597 0.00604 0.34609 0.0
Sc132 Sc 0.6433 0.56038 0.71202 0.0
Sc133 Sc 0.66161 0.51603 0.82502 0.0
Sc134 Sc 0.69059 0.58106 0.92574 0.0
O135 O 0.66507 0.55239 0.82191 0.0
C136 C 0.69818 0.61652 0.72253 0.0
C137 C 0.66055 0.52807 0.56052 0.0
C138 C 0.7235 0.55236 0.85196 0.0
C139 C 0.6024 0.50083 0.79024 0.0
C140 C 0.6388 0.58897 0.92042 0.0
C141 C 0.66868 0.5321 0.08811 0.0
O142 O 0.67374 0.60244 0.6932 0.0
O143 O 0.65765 0.51189 0.64038 0.0
O144 O 0.72113 0.5698 0.90874 0.0
O145 O 0.60881 0.52005 0.72108 0.0
O146 O 0.66259 0.59574 0.95226 0.0
O147 O 0.66531 0.51564 1.00938 0.0
O148 O 0.62642 0.57186 0.84382 0.0
O149 O 0.61959 0.49824 0.84729 0.0
O150 O 0.67449 0.55608 0.06979 0.0
O151 O 0.65992 0.54954 0.5756 0.0
O152 O 0.70927 0.60785 0.78898 0.0
O153 O 0.70377 0.53258 0.80481 0.0
Sc154 Sc 0.44879 0.09698 0.71049 0.0
Sc155 Sc 0.49094 0.16039 0.81821 0.0
Sc156 Sc 0.42789 0.12086 0.93413 0.0
O157 O 0.45577 0.1261 0.81993 0.0
C158 C 0.39211 0.09551 0.72788 0.0
C159 C 0.48032 0.14593 0.55418 0.0
C160 C 0.45233 0.18195 0.85819 0.0
C161 C 0.50926 0.11848 0.78662 0.0
C162 C 0.42049 0.06197 0.91727 0.0
C163 C 0.47843 0.1492 0.08224 0.0
O164 O 0.40698 0.08667 0.68968 0.0
O165 O 0.49527 0.16058 0.63406 0.0
O166 O 0.43812 0.16274 0.92583 0.0
O167 O 0.48948 0.10381 0.72271 0.0
O168 O 0.41287 0.07799 0.95234 0.0
O169 O 0.492 0.16514 1.00244 0.0
O170 O 0.43817 0.06828 0.84179 0.0
O171 O 0.51149 0.1387 0.8388 0.0
O172 O 0.45559 0.12871 0.06731 0.0
O173 O 0.45942 0.12351 0.57087 0.0
O174 O 0.39906 0.11236 0.80711 0.0
O175 O 0.47081 0.18247 0.79808 0.0
Sc176 Sc 0.91381 0.361 0.73005 0.0
Sc177 Sc 0.85022 0.33955 0.8382 0.0
Sc178 Sc 0.88997 0.31588 0.95415 0.0
O179 O 0.88462 0.33864 0.83993 0.0
C180 C 0.91638 0.3065 0.74755 0.0
C181 C 0.86472 0.3432 0.574 0.0
C182 C 0.82864 0.27932 0.88022 0.0
C183 C 0.89173 0.39974 0.80203 0.0
C184 C 0.94859 0.36773 0.93839 0.0
C185 C 0.8611 0.3378 0.10245 0.0
O186 O 0.92453 0.33002 0.70896 0.0
O187 O 0.84989 0.34321 0.65391 0.0
O188 O 0.84818 0.28401 0.94519 0.0
O189 O 0.90673 0.39459 0.74053 0.0
O190 O 0.93259 0.34415 0.97422 0.0
O191 O 0.8456 0.33629 0.02235 0.0
O192 O 0.94238 0.37891 0.86142 0.0
O193 O 0.87165 0.38188 0.85578 0.0
O194 O 0.88131 0.3349 0.08796 0.0
O195 O 0.88738 0.34517 0.59046 0.0
O196 O 0.89966 0.29622 0.82762 0.0
O197 O 0.828 0.29735 0.82086 0.0
Sc198 Sc 0.69109 0.12032 0.96557 0.0
Sc199 Sc 0.66701 0.15988 0.85273 0.0
Sc200 Sc 0.64839 0.09834 0.73443 0.0
O201 O 0.66884 0.1261 0.85121 0.0
C202 C 0.70282 0.09601 0.75829 0.0
C203 C 0.72749 0.18168 0.89367 0.0
C204 C 0.66748 0.14882 0.58855 0.0
C205 C 0.66969 0.14879 0.11684 0.0
C206 C 0.63933 0.06164 0.93804 0.0
C207 C 0.60791 0.11826 0.80749 0.0
O208 O 0.71205 0.11214 0.84012 0.0
O209 O 0.70935 0.18263 0.83612 0.0
O210 O 0.66717 0.12692 0.60332 0.0
O211 O 0.6717 0.12815 0.10074 0.0
O212 O 0.62881 0.06827 0.85962 0.0
O213 O 0.6247 0.13713 0.86951 0.0
O214 O 0.66247 0.07751 0.97888 0.0
O215 O 0.67053 0.16399 0.03671 0.0
O216 O 0.61456 0.10536 0.73996 0.0
O217 O 0.7228 0.16216 0.959 0.0
O218 O 0.67952 0.08767 0.71695 0.0
O219 O 0.66356 0.16126 0.66838 0.0
Sc220 Sc 0.88561 0.5812 0.91609 0.0
Sc221 Sc 0.84828 0.51573 0.82173 0.0
Sc222 Sc 0.91174 0.55796 0.71368 0.0
O223 O 0.88169 0.5514 0.81807 0.0
C224 C 0.91453 0.61485 0.71482 0.0
C225 C 0.82383 0.55298 0.84601 0.0
C226 C 0.86268 0.52777 0.5574 0.0
C227 C 0.85836 0.53332 0.08381 0.0
C228 C 0.94429 0.58694 0.91869 0.0
C229 C 0.89038 0.49795 0.79009 0.0
O230 O 0.89337 0.60606 0.77269 0.0
O231 O 0.82354 0.53313 0.79882 0.0
O232 O 0.88542 0.54843 0.57381 0.0
O233 O 0.87681 0.55713 0.0634 0.0
O234 O 0.93798 0.56736 0.85307 0.0
O235 O 0.87107 0.49646 0.84687 0.0
O236 O 0.92864 0.5962 0.93933 0.0
O237 O 0.84482 0.51649 1.00649 0.0
O238 O 0.90396 0.51701 0.72148 0.0
O239 O 0.84383 0.57034 0.90207 0.0
O240 O 0.92531 0.60063 0.69479 0.0
O241 O 0.84845 0.51177 0.63651 0.0
Sc242 Sc 0.42679 0.31685 0.94903 0.0
Sc243 Sc 0.49107 0.34289 0.83154 0.0
Sc244 Sc 0.44536 0.36008 0.71518 0.0
O245 O 0.4545 0.33993 0.83173 0.0
C246 C 0.39025 0.30722 0.73201 0.0
C247 C 0.45052 0.28045 0.86836 0.0
C248 C 0.48249 0.34585 0.56666 0.0
C249 C 0.47966 0.33772 0.09611 0.0
C250 C 0.41721 0.3656 0.93741 0.0
C251 C 0.50418 0.40298 0.79255 0.0
O252 O 0.39426 0.30384 0.8342 0.0
O253 O 0.47323 0.30031 0.84207 0.0
O254 O 0.46556 0.35352 0.57913 0.0
O255 O 0.45456 0.32623 0.08357 0.0
O256 O 0.42368 0.36964 0.83408 0.0
O257 O 0.51041 0.38552 0.82143 0.0
O258 O 0.42059 0.34943 0.99935 0.0
O259 O 0.49603 0.34686 0.01402 0.0
O260 O 0.48136 0.39736 0.75325 0.0
O261 O 0.431 0.28273 0.90585 0.0
O262 O 0.40838 0.32461 0.66809 0.0
O263 O 0.49251 0.3396 0.64884 0.0
Sc264 Sc 0.3111 0.89332 0.04037 0.0
Sc265 Sc 0.33445 0.85214 0.1537 0.0
Sc266 Sc 0.35935 0.91734 0.25835 0.0
O267 O 0.335 0.88765 0.15079 0.0
C268 C 0.36412 0.95104 0.04019 0.0
C269 C 0.32998 0.86088 0.88827 0.0
C270 C 0.39658 0.89378 0.18016 0.0
C271 C 0.27283 0.8331 0.12375 0.0
C272 C 0.306 0.92184 0.2575 0.0
C273 C 0.34045 0.86676 0.41708 0.0
O274 O 0.3418 0.93382 0.99753 0.0
O275 O 0.33437 0.84925 0.9702 0.0
O276 O 0.39339 0.91203 0.22509 0.0
O277 O 0.27671 0.85418 0.07272 0.0
O278 O 0.32801 0.92636 0.30238 0.0
O279 O 0.33449 0.84996 0.33745 0.0
O280 O 0.29694 0.90905 0.16645 0.0
O281 O 0.29178 0.82998 0.16086 0.0
O282 O 0.3486 0.89135 0.40071 0.0
O283 O 0.32292 0.8783 0.90088 0.0
O284 O 0.37359 0.9471 0.12986 0.0
O285 O 0.37718 0.87154 0.1477 0.0
Sc286 Sc 0.1177 0.42807 0.07531 0.0
Sc287 Sc 0.15557 0.49423 0.16587 0.0
Sc288 Sc 0.09132 0.45306 0.27084 0.0
O289 O 0.12174 0.45865 0.16997 0.0
C290 C 0.05959 0.42354 0.0634 0.0
C291 C 0.1459 0.4759 0.90448 0.0
C292 C 0.11414 0.51353 0.19283 0.0
C293 C 0.17909 0.45554 0.15009 0.0
C294 C 0.08742 0.39558 0.2803 0.0
C295 C 0.14034 0.48299 0.43036 0.0
O296 O 0.07513 0.41405 0.04513 0.0
O297 O 0.15868 0.49332 0.981 0.0
O298 O 0.09918 0.49396 0.25684 0.0
O299 O 0.15894 0.43759 0.09685 0.0
O300 O 0.07732 0.41052 0.29745 0.0
O301 O 0.15555 0.4981 0.35109 0.0
O302 O 0.10793 0.4029 0.21925 0.0
O303 O 0.1799 0.47636 0.18935 0.0
O304 O 0.11696 0.46328 0.41373 0.0
O305 O 0.12826 0.45182 0.92609 0.0
O306 O 0.06564 0.44302 0.12925 0.0
O307 O 0.134 0.51489 0.14092 0.0
Sc308 Sc 0.58303 0.69712 0.08999 0.0
Sc309 Sc 0.51887 0.67431 0.20377 0.0
Sc310 Sc 0.56039 0.65152 0.31683 0.0
O311 O 0.55404 0.67433 0.20363 0.0
C312 C 0.5887 0.64595 0.0952 0.0
C313 C 0.531 0.67946 0.93979 0.0
C314 C 0.50075 0.6125 0.23675 0.0
C315 C 0.56254 0.73614 0.17027 0.0
C316 C 0.61739 0.70251 0.31012 0.0
C317 C 0.52618 0.66925 0.46771 0.0
O318 O 0.58704 0.66352 0.03594 0.0
O319 O 0.5143 0.67054 0.02093 0.0
O320 O 0.52319 0.61603 0.272 0.0
O321 O 0.58148 0.73261 0.13541 0.0
O322 O 0.59827 0.68504 0.3701 0.0
O323 O 0.51821 0.67804 0.38665 0.0
O324 O 0.61459 0.7074 0.20831 0.0
O325 O 0.53915 0.71705 0.19336 0.0
O326 O 0.54069 0.65872 0.45353 0.0
O327 O 0.55604 0.69009 0.95382 0.0
O328 O 0.58131 0.64108 0.19737 0.0
O329 O 0.49642 0.63159 0.21376 0.0
Sc330 Sc 0.36351 0.45276 0.31086 0.0
Sc331 Sc 0.34015 0.49456 0.21022 0.0
Sc332 Sc 0.31532 0.43081 0.09932 0.0
O333 O 0.33968 0.45945 0.20727 0.0
C334 C 0.36742 0.42379 0.10212 0.0
C335 C 0.40129 0.51377 0.23681 0.0
C336 C 0.33689 0.48107 0.9455 0.0
C337 C 0.34554 0.48346 0.47319 0.0
C338 C 0.3088 0.39571 0.30442 0.0
C339 C 0.2792 0.45599 0.17389 0.0
O340 O 0.37987 0.44149 0.17612 0.0
O341 O 0.38256 0.51605 0.19146 0.0
O342 O 0.33249 0.45743 0.96053 0.0
O343 O 0.34936 0.46394 0.45488 0.0
O344 O 0.29721 0.40303 0.2336 0.0
O345 O 0.29772 0.47517 0.22873 0.0
O346 O 0.33316 0.41067 0.33449 0.0
O347 O 0.34351 0.49756 0.39463 0.0
O348 O 0.28339 0.44034 0.11274 0.0
O349 O 0.39712 0.49333 0.2943 0.0
O350 O 0.34351 0.41658 0.07193 0.0
O351 O 0.33723 0.49602 0.02562 0.0
Sc352 Sc 0.55651 0.91722 0.27402 0.0
Sc353 Sc 0.51671 0.85205 0.16795 0.0
Sc354 Sc 0.58155 0.89336 0.05797 0.0
O355 O 0.55163 0.88761 0.16657 0.0
C356 C 0.58524 0.95049 0.05353 0.0
C357 C 0.49604 0.89365 0.19131 0.0
C358 C 0.53048 0.86012 0.90339 0.0
C359 C 0.5247 0.86631 0.43169 0.0
C360 C 0.61476 0.92295 0.27603 0.0
C361 C 0.5601 0.83364 0.14498 0.0
O362 O 0.57287 0.947 0.14583 0.0
O363 O 0.49323 0.87122 0.16223 0.0
O364 O 0.55517 0.87661 0.91752 0.0
O365 O 0.54051 0.89108 0.416 0.0
O366 O 0.61153 0.91096 0.18321 0.0
O367 O 0.53735 0.83004 0.17448 0.0
O368 O 0.59665 0.9262 0.32287 0.0
O369 O 0.5146 0.84951 0.3516 0.0
O370 O 0.57795 0.85503 0.09808 0.0
O371 O 0.51742 0.91215 0.2356 0.0
O372 O 0.58984 0.93307 1.00926 0.0
O373 O 0.51392 0.84961 0.98444 0.0
Sc374 Sc 0.08825 0.6488 0.27092 0.0
Sc375 Sc 0.15298 0.67366 0.159 0.0
Sc376 Sc 0.11164 0.69791 0.05489 0.0
O377 O 0.11758 0.67346 0.16152 0.0
C378 C 0.05452 0.6443 0.05235 0.0
C379 C 0.11161 0.61168 0.18978 0.0
C380 C 0.14419 0.67985 0.89591 0.0
C381 C 0.13978 0.66845 0.42417 0.0
C382 C 0.08208 0.70099 0.27412 0.0
C383 C 0.17215 0.73561 0.13339 0.0
O384 O 0.0583 0.63506 0.14334 0.0
O385 O 0.1337 0.63108 0.15588 0.0
O386 O 0.12817 0.68855 0.91273 0.0
O387 O 0.11497 0.6598 0.41086 0.0
O388 O 0.0942 0.7103 0.18164 0.0
O389 O 0.17554 0.71627 0.1618 0.0
O390 O 0.07889 0.67952 0.31917 0.0
O391 O 0.15621 0.67445 0.34258 0.0
O392 O 0.15038 0.73242 0.09162 0.0
O393 O 0.09342 0.61479 0.23596 0.0
O394 O 0.07176 0.66654 1.00873 0.0
O395 O 0.15451 0.67303 0.97525 0.0
C396 C 0.04475 0.35293 0.31784 0.0
C397 C 0.07291 0.36737 0.31639 0.0
H398 H 0.00934 0.31468 0.34095 0.0
C399 C 0.08711 0.3538 0.33574 0.0
H400 H 0.03334 0.36284 0.30059 0.0
C401 C 0.07347 0.32642 0.35811 0.0
C402 C 0.04533 0.31191 0.35931 0.0
H403 H 0.10881 0.36441 0.33367 0.0
H404 H 0.08496 0.31659 0.37528 0.0
C405 C 0.03105 0.32533 0.33822 0.0
C406 C 0.69256 0.73518 0.32218 0.0
C407 C 0.69789 0.7449 0.43267 0.0
H408 H 0.66262 0.71432 0.19689 0.0
C409 C 0.67643 0.74003 0.50459 0.0
H410 H 0.70873 0.73852 0.26565 0.0
C411 C 0.65001 0.72563 0.46639 0.0
C412 C 0.64479 0.71656 0.35492 0.0
H413 H 0.68007 0.74699 0.59105 0.0
H414 H 0.63378 0.72207 0.52293 0.0
C415 C 0.66624 0.72142 0.28318 0.0
C416 C 0.2664 0.9575 0.26779 0.0
C417 C 0.26429 0.96026 0.38388 0.0
H418 H 0.28106 0.94276 0.13757 0.0
C419 C 0.27578 0.94999 0.45975 0.0
H420 H 0.25782 0.96536 0.20791 0.0
C421 C 0.28966 0.93756 0.41967 0.0
C422 C 0.2915 0.93461 0.30342 0.0
H423 H 0.27468 0.95223 0.54997 0.0
H424 H 0.29872 0.93012 0.47909 0.0
C425 C 0.27961 0.94451 0.22796 0.0
C426 C 0.32993 0.06447 0.54871 0.0
C427 C 0.30985 0.05615 0.63184 0.0
H428 H 0.37209 0.08306 0.51442 0.0
C429 C 0.31705 0.06148 0.74543 0.0
H430 H 0.32472 0.06013 0.46042 0.0
C431 C 0.34403 0.07511 0.77549 0.0
C432 C 0.36407 0.08281 0.69266 0.0
H433 H 0.30187 0.05503 0.8106 0.0
H434 H 0.34923 0.07889 0.86402 0.0
C435 C 0.3569 0.07736 0.57914 0.0
C436 C 0.93406 0.29028 0.59417 0.0
C437 C 0.92952 0.29183 0.70903 0.0
H438 H 0.9506 0.27575 0.47016 0.0
C439 C 0.93885 0.28032 0.78905 0.0
H440 H 0.92718 0.29922 0.53158 0.0
C441 C 0.95292 0.26769 0.75452 0.0
C442 C 0.95697 0.26571 0.63953 0.0
H443 H 0.93586 0.28173 0.87846 0.0
H444 H 0.96032 0.25924 0.81707 0.0
C445 C 0.94733 0.2769 0.55951 0.0
C446 C 0.7136 0.68791 0.69484 0.0
C447 C 0.74175 0.70173 0.6924 0.0
H448 H 0.67759 0.64977 0.70131 0.0
C449 C 0.75531 0.68715 0.69291 0.0
H450 H 0.70265 0.69866 0.69162 0.0
C451 C 0.74102 0.65929 0.69733 0.0
C452 C 0.71289 0.64543 0.69904 0.0
H453 H 0.77699 0.69733 0.68928 0.0
H454 H 0.75199 0.64855 0.70041 0.0
C455 C 0.69927 0.65996 0.69722 0.0
C456 C 0.92983 0.68605 0.68201 0.0
C457 C 0.95797 0.70017 0.68412 0.0
H458 H 0.89406 0.64787 0.68724 0.0
C459 C 0.9718 0.6859 0.69168 0.0
H460 H 0.91868 0.69654 0.67476 0.0
C461 C 0.95769 0.65794 0.69546 0.0
C462 C 0.92953 0.64387 0.69336 0.0
H463 H -0.00649 0.69628 0.69088 0.0
H464 H 0.96879 0.64739 0.70277 0.0
C465 C 0.91577 0.65821 0.68737 0.0
C466 C 0.32923 0.26842 0.54869 0.0
C467 C 0.30858 0.26398 0.62464 0.0
H468 H 0.37167 0.28632 0.52232 0.0
C469 C 0.31503 0.27368 0.73484 0.0
H470 H 0.32469 0.26145 0.46239 0.0
C471 C 0.34169 0.28737 0.76912 0.0
C472 C 0.36239 0.29219 0.69295 0.0
H473 H 0.29949 0.27065 0.79439 0.0
H474 H 0.34617 0.29473 0.85493 0.0
C475 C 0.35603 0.28279 0.58222 0.0
C476 C 0.73062 0.0755 0.80271 0.0
C477 C 0.71846 0.08379 0.72137 0.0
H478 H 0.75239 0.05491 0.83421 0.0
C479 C 0.72032 0.07906 0.60708 0.0
H480 H 0.72909 0.07873 0.89175 0.0
C481 C 0.73425 0.0662 0.57439 0.0
C482 C 0.74572 0.05717 0.65592 0.0
H483 H 0.71097 0.08523 0.54346 0.0
H484 H 0.73517 0.0624 0.4855 0.0
C485 C 0.74382 0.06187 0.77028 0.0
C486 C 0.64707 0.93802 0.4379 0.0
C487 C 0.64211 0.93627 0.32176 0.0
H488 H 0.67692 0.95172 0.5675 0.0
C489 C 0.66383 0.94751 0.24589 0.0
H490 H 0.63064 0.92952 0.49767 0.0
C491 C 0.69009 0.96048 0.28518 0.0
C492 C 0.69515 0.96194 0.40108 0.0
H493 H 0.66051 0.9467 0.15563 0.0
H494 H 0.70642 0.96927 0.22493 0.0
C495 C 0.67346 0.95048 0.47732 0.0
C496 C 0.05834 0.73422 0.4811 0.0
C497 C 0.04388 0.742 0.40959 0.0
H498 H 0.08137 0.71432 0.49445 0.0
C499 C 0.0415 0.73555 0.29495 0.0
H500 H 0.06007 0.7387 0.57044 0.0
C501 C 0.05415 0.72224 0.25165 0.0
C502 C 0.06864 0.71451 0.32299 0.0
H503 H 0.03034 0.74123 0.2387 0.0
H504 H 0.05241 0.71776 0.16229 0.0
C505 C 0.07033 0.72018 0.4383 0.0
C506 C 0.3083 0.35291 0.34229 0.0
C507 C 0.29451 0.36725 0.33623 0.0
H508 H 0.30522 0.31445 0.36071 0.0
C509 C 0.26643 0.35335 0.34318 0.0
H510 H 0.32992 0.36312 0.33434 0.0
C511 C 0.25239 0.32566 0.3575 0.0
C512 C 0.2661 0.31126 0.36249 0.0
H513 H 0.25532 0.36391 0.337 0.0
H514 H 0.23076 0.31549 0.36525 0.0
C515 C 0.29417 0.32507 0.35434 0.0
C516 C -0.01016 0.36745 1.0007 0.0
C517 C 0.97662 0.38178 0.97621 0.0
H518 H 0.02709 0.36966 0.04344 0.0
C519 C -0.00874 0.40986 0.97465 0.0
H520 H 0.97907 0.34577 1.00018 0.0
C521 C 0.01855 0.42342 0.99885 0.0
C522 C 0.03185 0.40916 0.02256 0.0
H523 H 0.98156 0.42135 0.95487 0.0
H524 H 0.02927 0.44511 0.99975 0.0
C525 C 0.01735 0.38107 0.02275 0.0
C526 C 0.63024 0.61233 0.07731 0.0
C527 C 0.62583 0.60332 0.96572 0.0
H528 H 0.62144 0.6327 0.20579 0.0
C529 C 0.60947 0.60886 0.89532 0.0
H530 H 0.64288 0.60843 0.1327 0.0
C531 C 0.5977 0.62326 0.93605 0.0
C532 C 0.6016 0.63167 0.04849 0.0
H533 H 0.60613 0.60242 0.80812 0.0
H534 H 0.58523 0.62739 0.88059 0.0
C535 C 0.61793 0.6261 0.1188 0.0
C536 C 0.42008 0.01983 0.96647 0.0
C537 C 0.40609 0.0338 0.95286 0.0
H538 H 0.41747 0.98225 1.00438 0.0
C539 C 0.378 0.01983 0.95919 0.0
H540 H 0.44173 0.03017 0.9602 0.0
C541 C 0.3641 -0.00775 0.97928 0.0
C542 C 0.37816 0.97845 0.99573 0.0
H543 H 0.36679 0.03013 0.94626 0.0
H544 H 0.34245 0.98193 0.98658 0.0
C545 C 0.40624 -0.00754 0.98972 0.0
C546 C 0.59741 0.01891 0.9785 0.0
C547 C 0.62546 0.03326 0.97008 0.0
H548 H 0.56247 0.9809 1.01123 0.0
C549 C 0.63986 0.01958 0.97859 0.0
H550 H 0.58591 0.02903 0.97039 0.0
C551 C 0.62637 -0.00806 0.99636 0.0
C552 C 0.59839 0.97777 1.0083 0.0
H553 H 0.66147 0.03019 0.96955 0.0
H554 H 0.63787 0.98186 1.00604 0.0
C555 C 0.58401 -0.00857 0.99964 0.0
C556 C 0.01393 0.6438 0.97777 0.0
C557 C 0.02732 0.62984 1.00595 0.0
H558 H 0.97653 0.64093 0.93242 0.0
C559 C 0.01307 0.60177 1.00794 0.0
H560 H 0.02443 0.66548 0.97834 0.0
C561 C 0.98586 0.58781 0.9817 0.0
C562 C 0.97228 0.60171 0.95642 0.0
H563 H 0.02296 0.59065 0.03117 0.0
H564 H 0.97535 0.56613 0.9822 0.0
C565 C 0.9865 0.62981 0.95431 0.0
C566 C 0.37423 0.39767 0.95178 0.0
C567 C 0.38032 0.40911 0.05934 0.0
H568 H 0.38148 0.37496 0.82909 0.0
C569 C 0.398 0.40534 0.12907 0.0
H570 H 0.36052 0.4001 0.89704 0.0
C571 C 0.40948 0.3904 0.0915 0.0
C572 C 0.40392 0.37963 0.98277 0.0
H573 H 0.40264 0.4136 0.21343 0.0
H574 H 0.42313 0.38783 0.14609 0.0
C575 C 0.3862 0.38332 0.9133 0.0
C576 C 0.11053 0.24466 0.60734 0.0
C577 C 0.09127 0.23122 0.52305 0.0
H578 H 0.14862 0.25352 0.67523 0.0
C579 C 0.09734 0.21933 0.4333 0.0
H580 H 0.10634 0.25407 0.67727 0.0
C581 C 0.12128 0.21901 0.4321 0.0
C582 C 0.13969 0.23055 0.52072 0.0
H583 H 0.08311 0.20931 0.36583 0.0
H584 H 0.12487 0.20878 0.36363 0.0
C585 C 0.13466 0.24432 0.60621 0.0
C586 C 0.77942 0.9076 0.48561 0.0
C587 C 0.77223 0.91724 0.57995 0.0
H588 H 0.78669 0.87752 0.41943 0.0
C589 C 0.76295 0.90136 0.67782 0.0
H590 H 0.78615 0.91922 0.40837 0.0
C591 C 0.76331 0.87727 0.68434 0.0
C592 C 0.77296 0.86904 0.59302 0.0
H593 H 0.75726 0.9084 0.75164 0.0
H594 H 0.75783 0.86615 0.7629 0.0
C595 C 0.77977 0.88376 0.49205 0.0
C596 C 0.11339 0.87512 0.66741 0.0
C597 C 0.09563 0.8668 0.57555 0.0
H598 H 0.15007 0.90664 0.73659 0.0
C599 C 0.10339 0.88183 0.47537 0.0
H600 H 0.10783 0.86379 0.74545 0.0
C601 C 0.12721 0.90607 0.47044 0.0
C602 C 0.14382 0.91575 0.56545 0.0
H603 H 0.09031 0.87556 0.40243 0.0
H604 H 0.13195 0.91791 0.39389 0.0
C605 C 0.13747 0.89957 0.66234 0.0
C606 C 0.23659 0.13313 0.37875 0.0
C607 C 0.22403 0.13958 0.4649 0.0
H608 H 0.2449 0.10351 0.31146 0.0
C609 C 0.2126 0.12195 0.55654 0.0
H610 H 0.24564 0.1464 0.30733 0.0
C611 C 0.21211 0.09765 0.55875 0.0
C612 C 0.22311 0.09033 0.46955 0.0
H613 H 0.20324 0.12654 0.62553 0.0
H614 H 0.20241 0.08426 0.62932 0.0
C615 C 0.23614 0.10861 0.38111 0.0
C616 C 0.88565 0.09867 0.57271 0.0
C617 C 0.86671 0.09195 0.4863 0.0
H618 H 0.92401 0.12698 0.63663 0.0
C619 C 0.87149 0.11073 0.40049 0.0
H620 H 0.88235 0.08489 0.64128 0.0
C621 C 0.89566 0.13512 0.39761 0.0
C622 C 0.91526 0.14097 0.4806 0.0
H623 H 0.85716 0.10609 0.33299 0.0
H624 H 0.89947 0.14876 0.32796 0.0
C625 C 0.90958 0.12286 0.57 0.0
C626 C 0.89788 0.7726 0.47479 0.0
C627 C 0.91985 0.79112 0.53907 0.0
H628 H 0.85735 0.7588 0.42432 0.0
C629 C 0.91677 0.809 0.60923 0.0
H630 H 0.89957 0.75849 0.42019 0.0
C631 C 0.89271 0.80917 0.61166 0.0
C632 C 0.87106 0.79146 0.54394 0.0
H633 H 0.93315 0.82332 0.66103 0.0
H634 H 0.89133 0.82363 0.66516 0.0
C635 C 0.87369 0.77278 0.47716 0.0
C636 C 0.79621 0.57337 0.90654 0.0
C637 C 0.7992 0.55485 0.84026 0.0
H638 H 0.76987 0.58716 0.96245 0.0
C639 C 0.77774 0.53691 0.77227 0.0
H640 H 0.8124 0.58751 0.95956 0.0
C641 C 0.75348 0.53668 0.77404 0.0
C642 C 0.75004 0.5544 0.84376 0.0
H643 H 0.77942 0.52257 0.71912 0.0
H644 H 0.73725 0.5222 0.72209 0.0
C645 C 0.77183 0.57314 0.90827 0.0
C646 C 0.43102 0.23269 0.93022 0.0
C647 C 0.44753 0.25372 0.85695 0.0
H648 H 0.41967 0.19322 0.98909 0.0
C649 C 0.46336 0.2499 0.77768 0.0
H650 H 0.41863 0.2352 0.99212 0.0
C651 C 0.4639 0.22612 0.77554 0.0
C652 C 0.44879 0.20559 0.85335 0.0
H653 H 0.47595 0.26563 0.71891 0.0
H654 H 0.47692 0.22425 0.71478 0.0
C655 C 0.43172 0.20876 0.92874 0.0
C656 C 0.77403 0.21033 0.9702 0.0
C657 C 0.75483 0.20483 0.88574 0.0
H658 H 0.81285 0.2385 0.03498 0.0
C659 C 0.76141 0.22256 0.79433 0.0
H660 H 0.76952 0.1969 0.0413 0.0
C661 C 0.78598 0.24604 0.79049 0.0
C662 C 0.80462 0.25248 0.8781 0.0
H663 H 0.7473 0.21864 0.72655 0.0
H664 H 0.79002 0.25956 0.72006 0.0
C665 C 0.79881 0.23406 0.96645 0.0
C666 C 0.90781 0.4691 0.71243 0.0
C667 C 0.89548 0.47543 0.79989 0.0
H668 H 0.9164 0.43974 0.64445 0.0
C669 C 0.88559 0.45851 0.89437 0.0
H670 H 0.91573 0.48191 0.63894 0.0
C671 C 0.88595 0.43464 0.89745 0.0
C672 C 0.89626 0.42717 0.80627 0.0
H673 H 0.87653 0.46317 0.96434 0.0
H674 H 0.87712 0.4215 0.96952 0.0
C675 C 0.90822 0.44504 0.71565 0.0
C676 C 0.53162 0.44889 0.71177 0.0
C677 C 0.52537 0.43098 0.80232 0.0
H678 H 0.56155 0.48566 0.63627 0.0
C679 C 0.54243 0.43846 0.8959 0.0
H680 H 0.51867 0.44335 0.63859 0.0
C681 C 0.56662 0.46238 0.89489 0.0
C682 C 0.57435 0.47915 0.79965 0.0
H683 H 0.53777 0.42503 0.9672 0.0
H684 H 0.57997 0.46694 0.96625 0.0
C685 C 0.55612 0.47296 0.71034 0.0
C686 C 0.56341 0.10232 0.71396 0.0
C687 C 0.58018 0.11307 0.80847 0.0
H688 H 0.52722 0.09554 0.63257 0.0
C689 C 0.57131 0.12163 0.90118 0.0
H690 H 0.56975 0.09547 0.64156 0.0
C691 C 0.54729 0.1217 0.89594 0.0
C692 C 0.53157 0.11316 0.79801 0.0
H693 H 0.58353 0.12944 0.97621 0.0
H694 H 0.54158 0.12957 0.96701 0.0
C695 C 0.53913 0.10235 0.70879 0.0
C696 C 0.46923 0.91569 0.24224 0.0
C697 C 0.47262 0.89733 0.1766 0.0
H698 H 0.44223 0.92907 0.29499 0.0
C699 C 0.45215 0.88049 0.10219 0.0
H700 H 0.48474 0.92899 0.29996 0.0
C701 C 0.42805 0.88054 0.09928 0.0
C702 C 0.42378 0.89743 0.17072 0.0
H703 H 0.45434 0.8665 0.04864 0.0
H704 H 0.41238 0.86658 0.04369 0.0
C705 C 0.44492 0.91573 0.23934 0.0
C706 C 0.09225 0.56422 0.25691 0.0
C707 C 0.10816 0.58466 0.18004 0.0
H708 H 0.08168 0.52541 0.32198 0.0
C709 C 0.12331 0.58008 0.09976 0.0
H710 H 0.08036 0.56723 0.31965 0.0
C711 C 0.12406 0.55637 0.10093 0.0
C712 C 0.10977 0.53663 0.18282 0.0
H713 H 0.13541 0.59527 0.03812 0.0
H714 H 0.13668 0.55398 0.0398 0.0
C715 C 0.09309 0.54034 0.25844 0.0
C716 C 0.45807 0.58055 0.14474 0.0
C717 C 0.47785 0.58521 0.22483 0.0
H718 H 0.41871 0.55417 0.08444 0.0
C719 C 0.47379 0.56466 0.30016 0.0
H720 H 0.46089 0.59589 0.08431 0.0
C721 C 0.44929 0.54055 0.30098 0.0
C722 C 0.42873 0.53681 0.22615 0.0
H723 H 0.48881 0.56782 0.36269 0.0
H724 H 0.44597 0.52553 0.36383 0.0
C725 C 0.43385 0.55663 0.14511 0.0
C726 C 0.58391 0.78378 0.10384 0.0
C727 C 0.5667 0.76342 0.17843 0.0
H728 H 0.59533 0.82243 0.03404 0.0
C729 C 0.5505 0.76814 0.25224 0.0
H730 H 0.59662 0.78059 0.04612 0.0
C731 C 0.54971 0.79177 0.24524 0.0
C732 C 0.56509 0.81123 0.16413 0.0
H733 H 0.53742 0.75299 0.31212 0.0
H734 H 0.53613 0.79427 0.30045 0.0
C735 C 0.58311 0.80763 0.0967 0.0
C736 C 0.2404 0.79052 0.2177 0.0
C737 C 0.2453 0.81044 0.13759 0.0
H738 H 0.21317 0.75155 0.28053 0.0
C739 C 0.22433 0.8072 0.06647 0.0
H740 H 0.25591 0.79266 0.27556 0.0
C741 C 0.19955 0.78342 0.06961 0.0
C742 C 0.19556 0.7627 0.14386 0.0
H743 H 0.2275 0.82234 1.00442 0.0
H744 H 0.18419 0.78065 1.00954 0.0
C745 C 0.21585 0.76696 0.22078 0.0
C746 C 0.2319 0.43564 0.10226 0.0
C747 C 0.25224 0.45321 0.1759 0.0
H748 H 0.19259 0.42247 0.03625 0.0
C749 C 0.24723 0.46961 0.24737 0.0
H750 H 0.23508 0.42265 0.04644 0.0
C751 C 0.22308 0.46955 0.24129 0.0
C752 C 0.20324 0.45303 0.16385 0.0
H753 H 0.26225 0.48314 0.30628 0.0
H754 H 0.22024 0.48297 0.29588 0.0
C755 C 0.20756 0.43552 0.09643 0.0
C756 C 0.9848 0.1712 0.05871 0.0
C757 C 0.00544 0.19099 0.12474 0.0
H758 H 0.96966 0.15854 0.89042 0.0
C759 C 0.02876 0.21071 0.07202 0.0
H760 H 0.96638 0.15619 0.09801 0.0
C761 C 0.03055 0.21211 0.9548 0.0
C762 C 0.00902 0.19387 0.88809 0.0
H763 H 0.0447 0.22638 0.12134 0.0
H764 H 0.04798 0.22874 0.91608 0.0
C765 C 0.98662 0.17258 0.94038 0.0
C766 C 0.8241 0.80408 0.12087 0.0
C767 C 0.81993 0.82188 0.18666 0.0
H768 H 0.8246 0.7898 0.95511 0.0
C769 C 0.81785 0.84254 0.13336 0.0
H770 H 0.82571 0.78796 0.16036 0.0
C771 C 0.81736 0.84366 0.01493 0.0
C772 C 0.81906 0.8242 0.94986 0.0
H773 H 0.81427 0.85624 0.18263 0.0
H774 H 0.81324 0.85813 0.97483 0.0
C775 C 0.82361 0.80519 1.00364 0.0
C776 C 0.18373 0.02207 0.07628 0.0
C777 C 0.18052 -0.00041 0.13636 0.0
H778 H 0.18957 0.04069 0.91311 0.0
C779 C 0.17567 0.97662 0.07713 0.0
H780 H 0.18825 0.04024 0.12069 0.0
C781 C 0.17635 0.97688 0.95954 0.0
C782 C 0.18212 0.00016 0.89949 0.0
H783 H 0.17376 0.95933 0.12184 0.0
H784 H 0.1747 0.95963 0.91578 0.0
C785 C 0.18461 0.02239 0.95795 0.0
C786 C 0.02639 0.84192 1.0014 0.0
C787 C 0.00526 0.82293 0.93473 0.0
H788 H 0.04144 0.85402 0.17026 0.0
C789 C 0.98129 0.80423 0.98671 0.0
H790 H 0.04528 0.85614 0.96272 0.0
C791 C 0.97917 0.80297 0.10383 0.0
C792 C 0.00102 0.82031 0.17137 0.0
H793 H 0.96492 0.7892 0.93694 0.0
H794 H 0.96106 0.78708 0.14193 0.0
C795 C 0.02424 0.84069 0.11971 0.0
C796 C 0.18194 0.21072 0.0592 0.0
C797 C 0.1847 0.19071 0.11422 0.0
H798 H 0.18157 0.22851 0.90137 0.0
C799 C 0.18481 0.17025 0.05033 0.0
H800 H 0.18221 0.22686 0.10685 0.0
C801 C 0.18461 0.17126 0.93185 0.0
C802 C 0.18434 0.19277 0.87735 0.0
H803 H 0.18753 0.15497 0.09142 0.0
H804 H 0.18704 0.1567 0.88354 0.0
C805 C 0.18169 0.2117 0.94186 0.0
C806 C 0.81449 0.98351 0.08947 0.0
C807 C 0.8207 0.00708 0.14735 0.0
H808 H 0.80756 0.9646 0.92736 0.0
C809 C 0.82953 0.03096 0.08651 0.0
H810 H 0.80709 0.9648 0.13493 0.0
C811 C 0.82968 0.03084 0.96888 0.0
C812 C 0.82123 0.00688 0.91049 0.0
H813 H 0.83402 0.04926 0.12985 0.0
H814 H 0.83411 0.04896 0.92369 0.0
C815 C 0.81482 0.98344 0.97115 0.0
C816 C 0.69075 0.54226 0.2738 0.0
C817 C 0.66869 0.52487 0.20735 0.0
H818 H 0.70545 0.55626 0.43996 0.0
C819 C 0.64558 0.5046 0.26005 0.0
H820 H 0.70875 0.55808 0.23481 0.0
C821 C 0.64376 0.5035 0.37844 0.0
C822 C 0.66508 0.52259 0.44408 0.0
H823 H 0.62824 0.49123 0.21029 0.0
H824 H 0.62496 0.48937 0.41799 0.0
C825 C 0.68894 0.54117 0.39099 0.0
C826 C 0.48835 0.17398 0.38055 0.0
C827 C 0.48869 0.15258 0.43573 0.0
H828 H 0.48541 0.19004 0.22045 0.0
C829 C 0.49148 0.13365 0.37187 0.0
H830 H 0.48579 0.18853 0.42834 0.0
C831 C 0.49126 0.13449 0.2545 0.0
C832 C 0.4884 0.15436 0.19878 0.0
H833 H 0.49165 0.11691 0.41291 0.0
H834 H 0.49107 0.11832 0.20737 0.0
C835 C 0.48821 0.17486 0.26204 0.0
C836 C 0.83566 0.32171 0.28296 0.0
C837 C 0.85589 0.34257 0.21885 0.0
H838 H 0.82233 0.3056 0.44981 0.0
C839 C 0.8756 0.36544 0.27364 0.0
H840 H 0.82064 0.30363 0.24201 0.0
C841 C 0.87656 0.36653 0.39098 0.0
C842 C 0.85792 0.34471 0.45563 0.0
H843 H 0.89158 0.38153 0.2258 0.0
H844 H 0.89319 0.38358 0.43133 0.0
C845 C 0.83666 0.32278 0.40139 0.0
C846 C 0.64907 0.15522 0.29167 0.0
C847 C 0.67139 0.1573 0.23474 0.0
H848 H 0.63061 0.15167 0.45339 0.0
C849 C 0.69428 0.16245 0.29636 0.0
H850 H 0.6311 0.15086 0.24551 0.0
C851 C 0.69404 0.16297 0.41379 0.0
C852 C 0.67095 0.15847 0.47163 0.0
H853 H 0.71164 0.16396 0.25382 0.0
H854 H 0.71108 0.16458 0.45957 0.0
C855 C 0.64887 0.15584 0.41013 0.0
C856 C 0.85208 0.50482 0.25522 0.0
C857 C 0.85161 0.52658 0.2039 0.0
H858 H 0.8556 0.48782 0.412 0.0
C859 C 0.84925 0.5452 0.27182 0.0
H860 H 0.85417 0.4904 0.20438 0.0
C861 C 0.84987 0.54365 0.38886 0.0
C862 C 0.8528 0.5234 0.4406 0.0
H863 H 0.84877 0.56211 0.23408 0.0
H864 H 0.85016 0.5595 0.43885 0.0
C865 C 0.85278 0.5033 0.37358 0.0
C866 C 0.48032 0.31769 0.2805 0.0
C867 C 0.48925 0.34073 0.2131 0.0
H868 H 0.47211 0.3014 0.44842 0.0
C869 C 0.50094 0.36587 0.26478 0.0
H870 H 0.47079 0.29805 0.24202 0.0
C871 C 0.5012 0.3677 0.38253 0.0
C872 C 0.49028 0.34447 0.4498 0.0
H873 H 0.50738 0.38379 0.21456 0.0
H874 H 0.50802 0.38708 0.42086 0.0
C875 C 0.48108 0.31957 0.39829 0.0
C876 C 0.31381 0.84124 0.5852 0.0
C877 C 0.33874 0.85831 0.53539 0.0
H878 H 0.29155 0.82854 0.74023 0.0
C879 C 0.36149 0.87192 0.60428 0.0
H880 H 0.29598 0.83098 0.5336 0.0
C881 C 0.35906 0.87016 0.72164 0.0
C882 C 0.3338 0.85502 0.7716 0.0
H883 H 0.38086 0.88544 0.5673 0.0
H884 H 0.37651 0.88249 0.77302 0.0
C885 C 0.31131 0.83983 0.70298 0.0
C886 C 0.15342 0.46382 0.71345 0.0
C887 C 0.15199 0.48264 0.78371 0.0
H888 H 0.15158 0.44985 0.545 0.0
C889 C 0.15205 0.50489 0.7345 0.0
H890 H 0.15352 0.44656 0.74925 0.0
C891 C 0.15098 0.50677 0.61636 0.0
C892 C 0.15018 0.4866 0.54721 0.0
H893 H 0.15069 0.51951 0.78698 0.0
H894 H 0.14864 0.52273 0.57982 0.0
C895 C 0.15249 0.46577 0.59662 0.0
C896 C 0.53221 0.69959 0.75284 0.0
C897 C 0.5218 0.6767 0.82208 0.0
H898 H 0.54076 0.71509 0.58362 0.0
C899 C 0.50828 0.65134 0.77226 0.0
H900 H 0.54312 0.71937 0.78974 0.0
C901 C 0.50748 0.64893 0.65462 0.0
C902 C 0.51962 0.67184 0.58542 0.0
H903 H 0.50062 0.63346 0.82385 0.0
H904 H 0.49908 0.62918 0.61778 0.0
C905 C 0.53083 0.69718 0.63517 0.0
C906 C 0.32246 0.49111 0.76183 0.0
C907 C 0.34258 0.49103 0.8289 0.0
H908 H 0.30773 0.48917 0.5929 0.0
C909 C 0.36544 0.49325 0.77706 0.0
H910 H 0.30436 0.48874 0.80045 0.0
C911 C 0.36721 0.4932 0.65995 0.0
C912 C 0.34615 0.49092 0.59235 0.0
H913 H 0.38094 0.49276 0.82718 0.0
H914 H 0.38427 0.49304 0.62215 0.0
C915 C 0.32431 0.49121 0.64354 0.0
C916 C 0.50826 0.86681 0.73735 0.0
C917 C 0.52125 0.85418 0.78589 0.0
H918 H 0.49914 0.88045 0.58399 0.0
C919 C 0.53108 0.84138 0.71582 0.0
H920 H 0.50111 0.87731 0.78982 0.0
C921 C 0.52949 0.8427 0.59829 0.0
C922 C 0.51864 0.8574 0.54979 0.0
H923 H 0.54166 0.832 0.75186 0.0
H924 H 0.53889 0.83436 0.54576 0.0
C925 C 0.50721 0.86865 0.61994 0.0
C926 C 0.1424 0.65042 0.61137 0.0
C927 C 0.14933 0.67265 0.54128 0.0
H928 H 0.13622 0.63547 0.78158 0.0
C929 C 0.15891 0.69791 0.58986 0.0
H930 H 0.13435 0.63064 0.57523 0.0
C931 C 0.1594 0.70054 0.70711 0.0
C932 C 0.15072 0.67802 0.77737 0.0
H933 H 0.16373 0.71516 0.53738 0.0
H934 H 0.16486 0.71988 0.74286 0.0
C935 C 0.14342 0.65314 0.72902 0.0
loop_
_geom_bond_atom_site_label_1
_geom_bond_atom_site_label_2
_geom_bond_distance
_geom_bond_site_symmetry_2
_ccdc_geom_bond_type
Sc0 O3 2.025 1_655 S
Sc0 O10 2.105 1_655 S
Sc0 O13 2.105 . S
Sc0 O16 2.105 . S
Sc0 O19 2.105 1_655 S
Sc1 O3 2.025 . S
Sc1 O11 2.105 . S
Sc1 O15 2.105 . S
Sc1 O17 2.105 1_455 S
Sc1 O21 2.105 . S
Sc2 O3 2.025 . S
Sc2 O12 2.105 . S
Sc2 O14 2.105 . S
Sc2 O18 2.105 . S
Sc2 O20 2.105 . S
O3 Sc0 2.025 1_455 S
O3 Sc1 2.025 . S
O3 Sc2 2.025 . S
C4 O10 1.268 . S
C4 O20 1.268 . S
C5 O11 1.268 . S
C5 O19 1.268 . S
C6 O12 1.268 . S
C6 O21 1.268 . S
C7 O13 1.268 . S
C7 O17 1.268 . S
C8 O14 1.268 1_655 S
C8 O16 1.268 . S
C9 O15 1.268 . S
C9 O18 1.268 . S
O10 Sc0 2.105 1_455 S
O10 C4 1.268 . S
O11 Sc1 2.105 . S
O11 C5 1.268 . S
O12 Sc2 2.105 . S
O12 C6 1.268 . S
O13 Sc0 2.105 . S
O13 C7 1.268 . S
O14 Sc2 2.105 . S
O14 C8 1.268 1_455 S
O15 Sc1 2.105 . S
O15 C9 1.268 . S
O16 Sc0 2.105 . S
O16 C8 1.268 . S
O17 Sc1 2.105 1_655 S
O17 C7 1.268 . S
O18 Sc2 2.105 . S
O18 C9 1.268 . S
O19 Sc0 2.105 1_455 S
O19 C5 1.268 . S
O20 Sc2 2.105 . S
O20 C4 1.268 . S
O21 Sc1 2.105 . S
O21 C6 1.268 . S
Sc22 O25 2.025 . S
Sc22 O32 2.105 . S
Sc22 O35 2.105 . S
Sc22 O38 2.105 . S
Sc22 O41 2.105 . S
Sc23 O25 2.025 . S
Sc23 O33 2.105 . S
Sc23 O37 2.105 . S
Sc23 O39 2.105 . S
Sc23 O43 2.105 . S
Sc24 O25 2.025 . S
Sc24 O34 2.105 . S
Sc24 O36 2.105 . S
Sc24 O40 2.105 . S
Sc24 O42 2.105 . S
O25 Sc22 2.025 . S
O25 Sc23 2.025 . S
O25 Sc24 2.025 . S
C26 O32 1.268 . S
C26 O42 1.268 . S
C27 O33 1.268 . S
C27 O41 1.268 . S
C28 O34 1.268 . S
C28 O43 1.268 . S
C29 O35 1.268 . S
C29 O39 1.268 . S
C30 O36 1.268 . S
C30 O38 1.268 . S
C31 O37 1.268 . S
C31 O40 1.268 . S
O32 Sc22 2.105 . S
O32 C26 1.268 . S
O33 Sc23 2.105 . S
O33 C27 1.268 . S
O34 Sc24 2.105 . S
O34 C28 1.268 . S
O35 Sc22 2.105 . S
O35 C29 1.268 . S
O36 Sc24 2.105 . S
O36 C30 1.268 . S
O37 Sc23 2.105 . S
O37 C31 1.268 . S
O38 Sc22 2.105 . S
O38 C30 1.268 . S
O39 Sc23 2.105 . S
O39 C29 1.268 . S
O40 Sc24 2.105 . S
O40 C31 1.268 . S
O41 Sc22 2.105 . S
O41 C27 1.268 . S
O42 Sc24 2.105 . S
O42 C26 1.268 . S
O43 Sc23 2.105 . S
O43 C28 1.268 . S
Sc44 O47 2.025 . S
Sc44 O54 2.105 . S
Sc44 O57 2.105 . S
Sc44 O60 2.105 . S
Sc44 O63 2.105 . S
Sc45 O47 2.025 . S
Sc45 O55 2.105 . S
Sc45 O59 2.105 . S
Sc45 O61 2.105 . S
Sc45 O65 2.105 1_545 S
Sc46 O47 2.025 1_565 S
Sc46 O56 2.105 . S
Sc46 O58 2.105 1_565 S
Sc46 O62 2.105 1_565 S
Sc46 O64 2.105 . S
O47 Sc44 2.025 . S
O47 Sc45 2.025 . S
O47 Sc46 2.025 1_545 S
C48 O54 1.268 1_565 S
C48 O64 1.268 . S
C49 O55 1.268 . S
C49 O63 1.268 . S
C50 O56 1.268 . S
C50 O65 1.268 . S
C51 O57 1.268 . S
C51 O61 1.268 . S
C52 O58 1.268 . S
C52 O60 1.268 . S
C53 O59 1.268 . S
C53 O62 1.268 . S
O54 Sc44 2.105 . S
O54 C48 1.268 1_545 S
O55 Sc45 2.105 . S
O55 C49 1.268 . S
O56 Sc46 2.105 . S
O56 C50 1.268 . S
O57 Sc44 2.105 . S
O57 C51 1.268 . S
O58 Sc46 2.105 1_545 S
O58 C52 1.268 . S
O59 Sc45 2.105 . S
O59 C53 1.268 . S
O60 Sc44 2.105 . S
O60 C52 1.268 . S
O61 Sc45 2.105 . S
O61 C51 1.268 . S
O62 Sc46 2.105 1_545 S
O62 C53 1.268 . S
O63 Sc44 2.105 . S
O63 C49 1.268 . S
O64 Sc46 2.105 . S
O64 C48 1.268 . S
O65 Sc45 2.105 1_565 S
O65 C50 1.268 . S
Sc66 O69 2.025 . S
Sc66 O76 2.105 . S
Sc66 O79 2.105 . S
Sc66 O82 2.105 . S
Sc66 O85 2.105 . S
Sc67 O69 2.025 . S
Sc67 O77 2.105 . S
Sc67 O81 2.105 1_455 S
Sc67 O83 2.105 . S
Sc67 O87 2.105 . S
Sc68 O69 2.025 1_655 S
Sc68 O78 2.105 1_655 S
Sc68 O80 2.105 . S
Sc68 O84 2.105 . S
Sc68 O86 2.105 1_655 S
O69 Sc66 2.025 . S
O69 Sc67 2.025 . S
O69 Sc68 2.025 1_455 S
C70 O76 1.268 . S
C70 O86 1.268 . S
C71 O77 1.268 . S
C71 O85 1.268 . S
C72 O78 1.268 . S
C72 O87 1.268 . S
C73 O79 1.268 . S
C73 O83 1.268 . S
C74 O80 1.268 . S
C74 O82 1.268 1_655 S
C75 O81 1.268 . S
C75 O84 1.268 . S
O76 Sc66 2.105 . S
O76 C70 1.268 . S
O77 Sc67 2.105 . S
O77 C71 1.268 . S
O78 Sc68 2.105 1_455 S
O78 C72 1.268 . S
O79 Sc66 2.105 . S
O79 C73 1.268 . S
O80 Sc68 2.105 . S
O80 C74 1.268 . S
O81 Sc67 2.105 1_655 S
O81 C75 1.268 . S
O82 Sc66 2.105 . S
O82 C74 1.268 1_455 S
O83 Sc67 2.105 . S
O83 C73 1.268 . S
O84 Sc68 2.105 . S
O84 C75 1.268 . S
O85 Sc66 2.105 . S
O85 C71 1.268 . S
O86 Sc68 2.105 1_455 S
O86 C70 1.268 . S
O87 Sc67 2.105 . S
O87 C72 1.268 . S
Sc88 O91 2.025 . S
Sc88 O98 2.105 . S
Sc88 O101 2.105 . S
Sc88 O104 2.105 . S
Sc88 O107 2.105 . S
Sc89 O91 2.025 . S
Sc89 O99 2.105 . S
Sc89 O103 2.105 . S
Sc89 O105 2.105 . S
Sc89 O109 2.105 . S
Sc90 O91 2.025 . S
Sc90 O100 2.105 . S
Sc90 O102 2.105 . S
Sc90 O106 2.105 . S
Sc90 O108 2.105 . S
O91 Sc88 2.025 . S
O91 Sc89 2.025 . S
O91 Sc90 2.025 . S
C92 O98 1.268 . S
C92 O108 1.268 . S
C93 O99 1.268 . S
C93 O107 1.268 . S
C94 O100 1.268 . S
C94 O109 1.268 . S
C95 O101 1.268 . S
C95 O105 1.268 . S
C96 O102 1.268 . S
C96 O104 1.268 . S
C97 O103 1.268 . S
C97 O106 1.268 . S
O98 Sc88 2.105 . S
O98 C92 1.268 . S
O99 Sc89 2.105 . S
O99 C93 1.268 . S
O100 Sc90 2.105 . S
O100 C94 1.268 . S
O101 Sc88 2.105 . S
O101 C95 1.268 . S
O102 Sc90 2.105 . S
O102 C96 1.268 . S
O103 Sc89 2.105 . S
O103 C97 1.268 . S
O104 Sc88 2.105 . S
O104 C96 1.268 . S
O105 Sc89 2.105 . S
O105 C95 1.268 . S
O106 Sc90 2.105 . S
O106 C97 1.268 . S
O107 Sc88 2.105 . S
O107 C93 1.268 . S
O108 Sc90 2.105 . S
O108 C92 1.268 . S
O109 Sc89 2.105 . S
O109 C94 1.268 . S
Sc110 O113 2.025 1_565 S
Sc110 O120 2.105 . S
Sc110 O123 2.105 1_565 S
Sc110 O126 2.105 1_565 S
Sc110 O129 2.105 . S
Sc111 O113 2.025 . S
Sc111 O121 2.105 1_545 S
Sc111 O125 2.105 . S
Sc111 O127 2.105 . S
Sc111 O131 2.105 . S
Sc112 O113 2.025 . S
Sc112 O122 2.105 . S
Sc112 O124 2.105 . S
Sc112 O128 2.105 . S
Sc112 O130 2.105 . S
O113 Sc110 2.025 1_545 S
O113 Sc111 2.025 . S
O113 Sc112 2.025 . S
C114 O120 1.268 . S
C114 O130 1.268 1_565 S
C115 O121 1.268 . S
C115 O129 1.268 . S
C116 O122 1.268 . S
C116 O131 1.268 . S
C117 O123 1.268 . S
C117 O127 1.268 . S
C118 O124 1.268 . S
C118 O126 1.268 . S
C119 O125 1.268 . S
C119 O128 1.268 . S
O120 Sc110 2.105 . S
O120 C114 1.268 . S
O121 Sc111 2.105 1_565 S
O121 C115 1.268 . S
O122 Sc112 2.105 . S
O122 C116 1.268 . S
O123 Sc110 2.105 1_545 S
O123 C117 1.268 . S
O124 Sc112 2.105 . S
O124 C118 1.268 . S
O125 Sc111 2.105 . S
O125 C119 1.268 . S
O126 Sc110 2.105 1_545 S
O126 C118 1.268 . S
O127 Sc111 2.105 . S
O127 C117 1.268 . S
O128 Sc112 2.105 . S
O128 C119 1.268 . S
O129 Sc110 2.105 . S
O129 C115 1.268 . S
O130 Sc112 2.105 . S
O130 C114 1.268 1_545 S
O131 Sc111 2.105 . S
O131 C116 1.268 . S
Sc132 O135 2.025 . S
Sc132 O142 2.105 . S
Sc132 O145 2.105 . S
Sc132 O148 2.105 . S
Sc132 O151 2.105 . S
Sc133 O135 2.025 . S
Sc133 O143 2.105 . S
Sc133 O147 2.105 1_556 S
Sc133 O149 2.105 . S
Sc133 O153 2.105 . S
Sc134 O135 2.025 . S
Sc134 O144 2.105 . S
Sc134 O146 2.105 . S
Sc134 O150 2.105 1_556 S
Sc134 O152 2.105 . S
O135 Sc132 2.025 . S
O135 Sc133 2.025 . S
O135 Sc134 2.025 . S
C136 O142 1.268 . S
C136 O152 1.268 . S
C137 O143 1.268 . S
C137 O151 1.268 . S
C138 O144 1.268 . S
C138 O153 1.268 . S
C139 O145 1.268 . S
C139 O149 1.268 . S
C140 O146 1.268 . S
C140 O148 1.268 . S
C141 O147 1.268 . S
C141 O150 1.268 . S
O142 Sc132 2.105 . S
O142 C136 1.268 . S
O143 Sc133 2.105 . S
O143 C137 1.268 . S
O144 Sc134 2.105 . S
O144 C138 1.268 . S
O145 Sc132 2.105 . S
O145 C139 1.268 . S
O146 Sc134 2.105 . S
O146 C140 1.268 . S
O147 Sc133 2.105 1_554 S
O147 C141 1.268 . S
O148 Sc132 2.105 . S
O148 C140 1.268 . S
O149 Sc133 2.105 . S
O149 C139 1.268 . S
O150 Sc134 2.105 1_554 S
O150 C141 1.268 . S
O151 Sc132 2.105 . S
O151 C137 1.268 . S
O152 Sc134 2.105 . S
O152 C136 1.268 . S
O153 Sc133 2.105 . S
O153 C138 1.268 . S
Sc154 O157 2.025 . S
Sc154 O164 2.105 . S
Sc154 O167 2.105 . S
Sc154 O170 2.105 . S
Sc154 O173 2.105 . S
Sc155 O157 2.025 . S
Sc155 O165 2.105 . S
Sc155 O169 2.105 1_556 S
Sc155 O171 2.105 . S
Sc155 O175 2.105 . S
Sc156 O157 2.025 . S
Sc156 O166 2.105 . S
Sc156 O168 2.105 . S
Sc156 O172 2.105 1_556 S
Sc156 O174 2.105 . S
O157 Sc154 2.025 . S
O157 Sc155 2.025 . S
O157 Sc156 2.025 . S
C158 O164 1.268 . S
C158 O174 1.268 . S
C159 O165 1.268 . S
C159 O173 1.268 . S
C160 O166 1.268 . S
C160 O175 1.268 . S
C161 O167 1.268 . S
C161 O171 1.268 . S
C162 O168 1.268 . S
C162 O170 1.268 . S
C163 O169 1.268 . S
C163 O172 1.268 . S
O164 Sc154 2.105 . S
O164 C158 1.268 . S
O165 Sc155 2.105 . S
O165 C159 1.268 . S
O166 Sc156 2.105 . S
O166 C160 1.268 . S
O167 Sc154 2.105 . S
O167 C161 1.268 . S
O168 Sc156 2.105 . S
O168 C162 1.268 . S
O169 Sc155 2.105 1_554 S
O169 C163 1.268 . S
O170 Sc154 2.105 . S
O170 C162 1.268 . S
O171 Sc155 2.105 . S
O171 C161 1.268 . S
O172 Sc156 2.105 1_554 S
O172 C163 1.268 . S
O173 Sc154 2.105 . S
O173 C159 1.268 . S
O174 Sc156 2.105 . S
O174 C158 1.268 . S
O175 Sc155 2.105 . S
O175 C160 1.268 . S
Sc176 O179 2.025 . S
Sc176 O186 2.105 . S
Sc176 O189 2.105 . S
Sc176 O192 2.105 . S
Sc176 O195 2.105 . S
Sc177 O179 2.025 . S
Sc177 O187 2.105 . S
Sc177 O191 2.105 1_556 S
Sc177 O193 2.105 . S
Sc177 O197 2.105 . S
Sc178 O179 2.025 . S
Sc178 O188 2.105 . S
Sc178 O190 2.105 . S
Sc178 O194 2.105 1_556 S
Sc178 O196 2.105 . S
O179 Sc176 2.025 . S
O179 Sc177 2.025 . S
O179 Sc178 2.025 . S
C180 O186 1.268 . S
C180 O196 1.268 . S
C181 O187 1.268 . S
C181 O195 1.268 . S
C182 O188 1.268 . S
C182 O197 1.268 . S
C183 O189 1.268 . S
C183 O193 1.268 . S
C184 O190 1.268 . S
C184 O192 1.268 . S
C185 O191 1.268 . S
C185 O194 1.268 . S
O186 Sc176 2.105 . S
O186 C180 1.268 . S
O187 Sc177 2.105 . S
O187 C181 1.268 . S
O188 Sc178 2.105 . S
O188 C182 1.268 . S
O189 Sc176 2.105 . S
O189 C183 1.268 . S
O190 Sc178 2.105 . S
O190 C184 1.268 . S
O191 Sc177 2.105 1_554 S
O191 C185 1.268 . S
O192 Sc176 2.105 . S
O192 C184 1.268 . S
O193 Sc177 2.105 . S
O193 C183 1.268 . S
O194 Sc178 2.105 1_554 S
O194 C185 1.268 . S
O195 Sc176 2.105 . S
O195 C181 1.268 . S
O196 Sc178 2.105 . S
O196 C180 1.268 . S
O197 Sc177 2.105 . S
O197 C182 1.268 . S
Sc198 O201 2.025 . S
Sc198 O208 2.105 . S
Sc198 O211 2.105 1_556 S
Sc198 O214 2.105 . S
Sc198 O217 2.105 . S
Sc199 O201 2.025 . S
Sc199 O209 2.105 . S
Sc199 O213 2.105 . S
Sc199 O215 2.105 1_556 S
Sc199 O219 2.105 . S
Sc200 O201 2.025 . S
Sc200 O210 2.105 . S
Sc200 O212 2.105 . S
Sc200 O216 2.105 . S
Sc200 O218 2.105 . S
O201 Sc198 2.025 . S
O201 Sc199 2.025 . S
O201 Sc200 2.025 . S
C202 O208 1.268 . S
C202 O218 1.268 . S
C203 O209 1.268 . S
C203 O217 1.268 . S
C204 O210 1.268 . S
C204 O219 1.268 . S
C205 O211 1.268 . S
C205 O215 1.268 . S
C206 O212 1.268 . S
C206 O214 1.268 . S
C207 O213 1.268 . S
C207 O216 1.268 . S
O208 Sc198 2.105 . S
O208 C202 1.268 . S
O209 Sc199 2.105 . S
O209 C203 1.268 . S
O210 Sc200 2.105 . S
O210 C204 1.268 . S
O211 Sc198 2.105 1_554 S
O211 C205 1.268 . S
O212 Sc200 2.105 . S
O212 C206 1.268 . S
O213 Sc199 2.105 . S
O213 C207 1.268 . S
O214 Sc198 2.105 . S
O214 C206 1.268 . S
O215 Sc199 2.105 1_554 S
O215 C205 1.268 . S
O216 Sc200 2.105 . S
O216 C207 1.268 . S
O217 Sc198 2.105 . S
O217 C203 1.268 . S
O218 Sc200 2.105 . S
O218 C202 1.268 . S
O219 Sc199 2.105 . S
O219 C204 1.268 . S
Sc220 O223 2.025 . S
Sc220 O230 2.105 . S
Sc220 O233 2.105 1_556 S
Sc220 O236 2.105 . S
Sc220 O239 2.105 . S
Sc221 O223 2.025 . S
Sc221 O231 2.105 . S
Sc221 O235 2.105 . S
Sc221 O237 2.105 1_556 S
Sc221 O241 2.105 . S
Sc222 O223 2.025 . S
Sc222 O232 2.105 . S
Sc222 O234 2.105 . S
Sc222 O238 2.105 . S
Sc222 O240 2.105 . S
O223 Sc220 2.025 . S
O223 Sc221 2.025 . S
O223 Sc222 2.025 . S
C224 O230 1.268 . S
C224 O240 1.268 . S
C225 O231 1.268 . S
C225 O239 1.268 . S
C226 O232 1.268 . S
C226 O241 1.268 . S
C227 O233 1.268 . S
C227 O237 1.268 . S
C228 O234 1.268 . S
C228 O236 1.268 . S
C229 O235 1.268 . S
C229 O238 1.268 . S
O230 Sc220 2.105 . S
O230 C224 1.268 . S
O231 Sc221 2.105 . S
O231 C225 1.268 . S
O232 Sc222 2.105 . S
O232 C226 1.268 . S
O233 Sc220 2.105 1_554 S
O233 C227 1.268 . S
O234 Sc222 2.105 . S
O234 C228 1.268 . S
O235 Sc221 2.105 . S
O235 C229 1.268 . S
O236 Sc220 2.105 . S
O236 C228 1.268 . S
O237 Sc221 2.105 1_554 S
O237 C227 1.268 . S
O238 Sc222 2.105 . S
O238 C229 1.268 . S
O239 Sc220 2.105 . S
O239 C225 1.268 . S
O240 Sc222 2.105 . S
O240 C224 1.268 . S
O241 Sc221 2.105 . S
O241 C226 1.268 . S
Sc242 O245 2.025 . S
Sc242 O252 2.105 . S
Sc242 O255 2.105 1_556 S
Sc242 O258 2.105 . S
Sc242 O261 2.105 . S
Sc243 O245 2.025 . S
Sc243 O253 2.105 . S
Sc243 O257 2.105 . S
Sc243 O259 2.105 1_556 S
Sc243 O263 2.105 . S
Sc244 O245 2.025 . S
Sc244 O254 2.105 . S
Sc244 O256 2.105 . S
Sc244 O260 2.105 . S
Sc244 O262 2.105 . S
O245 Sc242 2.025 . S
O245 Sc243 2.025 . S
O245 Sc244 2.025 . S
C246 O252 1.268 . S
C246 O262 1.268 . S
C247 O253 1.268 . S
C247 O261 1.268 . S
C248 O254 1.268 . S
C248 O263 1.268 . S
C249 O255 1.268 . S
C249 O259 1.268 . S
C250 O256 1.268 . S
C250 O258 1.268 . S
C251 O257 1.268 . S
C251 O260 1.268 . S
O252 Sc242 2.105 . S
O252 C246 1.268 . S
O253 Sc243 2.105 . S
O253 C247 1.268 . S
O254 Sc244 2.105 . S
O254 C248 1.268 . S
O255 Sc242 2.105 1_554 S
O255 C249 1.268 . S
O256 Sc244 2.105 . S
O256 C250 1.268 . S
O257 Sc243 2.105 . S
O257 C251 1.268 . S
O258 Sc242 2.105 . S
O258 C250 1.268 . S
O259 Sc243 2.105 1_554 S
O259 C249 1.268 . S
O260 Sc244 2.105 . S
O260 C251 1.268 . S
O261 Sc242 2.105 . S
O261 C247 1.268 . S
O262 Sc244 2.105 . S
O262 C246 1.268 . S
O263 Sc243 2.105 . S
O263 C248 1.268 . S
Sc264 O267 2.025 . S
Sc264 O274 2.105 . S
Sc264 O277 2.105 . S
Sc264 O280 2.105 . S
Sc264 O283 2.105 1_554 S
Sc265 O267 2.025 . S
Sc265 O275 2.105 1_554 S
Sc265 O279 2.105 . S
Sc265 O281 2.105 . S
Sc265 O285 2.105 . S
Sc266 O267 2.025 . S
Sc266 O276 2.105 . S
Sc266 O278 2.105 . S
Sc266 O282 2.105 . S
Sc266 O284 2.105 . S
O267 Sc264 2.025 . S
O267 Sc265 2.025 . S
O267 Sc266 2.025 . S
C268 O274 1.268 . S
C268 O284 1.268 . S
C269 O275 1.268 . S
C269 O283 1.268 . S
C270 O276 1.268 . S
C270 O285 1.268 . S
C271 O277 1.268 . S
C271 O281 1.268 . S
C272 O278 1.268 . S
C272 O280 1.268 . S
C273 O279 1.268 . S
C273 O282 1.268 . S
O274 Sc264 2.105 . S
O274 C268 1.268 . S
O275 Sc265 2.105 1_556 S
O275 C269 1.268 . S
O276 Sc266 2.105 . S
O276 C270 1.268 . S
O277 Sc264 2.105 . S
O277 C271 1.268 . S
O278 Sc266 2.105 . S
O278 C272 1.268 . S
O279 Sc265 2.105 . S
O279 C273 1.268 . S
O280 Sc264 2.105 . S
O280 C272 1.268 . S
O281 Sc265 2.105 . S
O281 C271 1.268 . S
O282 Sc266 2.105 . S
O282 C273 1.268 . S
O283 Sc264 2.105 1_556 S
O283 C269 1.268 . S
O284 Sc266 2.105 . S
O284 C268 1.268 . S
O285 Sc265 2.105 . S
O285 C270 1.268 . S
Sc286 O289 2.025 . S
Sc286 O296 2.105 . S
Sc286 O299 2.105 . S
Sc286 O302 2.105 . S
Sc286 O305 2.105 1_554 S
Sc287 O289 2.025 . S
Sc287 O297 2.105 1_554 S
Sc287 O301 2.105 . S
Sc287 O303 2.105 . S
Sc287 O307 2.105 . S
Sc288 O289 2.025 . S
Sc288 O298 2.105 . S
Sc288 O300 2.105 . S
Sc288 O304 2.105 . S
Sc288 O306 2.105 . S
O289 Sc286 2.025 . S
O289 Sc287 2.025 . S
O289 Sc288 2.025 . S
C290 O296 1.268 . S
C290 O306 1.268 . S
C291 O297 1.268 . S
C291 O305 1.268 . S
C292 O298 1.268 . S
C292 O307 1.268 . S
C293 O299 1.268 . S
C293 O303 1.268 . S
C294 O300 1.268 . S
C294 O302 1.268 . S
C295 O301 1.268 . S
C295 O304 1.268 . S
O296 Sc286 2.105 . S
O296 C290 1.268 . S
O297 Sc287 2.105 1_556 S
O297 C291 1.268 . S
O298 Sc288 2.105 . S
O298 C292 1.268 . S
O299 Sc286 2.105 . S
O299 C293 1.268 . S
O300 Sc288 2.105 . S
O300 C294 1.268 . S
O301 Sc287 2.105 . S
O301 C295 1.268 . S
O302 Sc286 2.105 . S
O302 C294 1.268 . S
O303 Sc287 2.105 . S
O303 C293 1.268 . S
O304 Sc288 2.105 . S
O304 C295 1.268 . S
O305 Sc286 2.105 1_556 S
O305 C291 1.268 . S
O306 Sc288 2.105 . S
O306 C290 1.268 . S
O307 Sc287 2.105 . S
O307 C292 1.268 . S
Sc308 O311 2.025 . S
Sc308 O318 2.105 . S
Sc308 O321 2.105 . S
Sc308 O324 2.105 . S
Sc308 O327 2.105 1_554 S
Sc309 O311 2.025 . S
Sc309 O319 2.105 1_554 S
Sc309 O323 2.105 . S
Sc309 O325 2.105 . S
Sc309 O329 2.105 . S
Sc310 O311 2.025 . S
Sc310 O320 2.105 . S
Sc310 O322 2.105 . S
Sc310 O326 2.105 . S
Sc310 O328 2.105 . S
O311 Sc308 2.025 . S
O311 Sc309 2.025 . S
O311 Sc310 2.025 . S
C312 O318 1.268 . S
C312 O328 1.268 . S
C313 O319 1.268 . S
C313 O327 1.268 . S
C314 O320 1.268 . S
C314 O329 1.268 . S
C315 O321 1.268 . S
C315 O325 1.268 . S
C316 O322 1.268 . S
C316 O324 1.268 . S
C317 O323 1.268 . S
C317 O326 1.268 . S
O318 Sc308 2.105 . S
O318 C312 1.268 . S
O319 Sc309 2.105 1_556 S
O319 C313 1.268 . S
O320 Sc310 2.105 . S
O320 C314 1.268 . S
O321 Sc308 2.105 . S
O321 C315 1.268 . S
O322 Sc310 2.105 . S
O322 C316 1.268 . S
O323 Sc309 2.105 . S
O323 C317 1.268 . S
O324 Sc308 2.105 . S
O324 C316 1.268 . S
O325 Sc309 2.105 . S
O325 C315 1.268 . S
O326 Sc310 2.105 . S
O326 C317 1.268 . S
O327 Sc308 2.105 1_556 S
O327 C313 1.268 . S
O328 Sc310 2.105 . S
O328 C312 1.268 . S
O329 Sc309 2.105 . S
O329 C314 1.268 . S
Sc330 O333 2.025 . S
Sc330 O340 2.105 . S
Sc330 O343 2.105 . S
Sc330 O346 2.105 . S
Sc330 O349 2.105 . S
Sc331 O333 2.025 . S
Sc331 O341 2.105 . S
Sc331 O345 2.105 . S
Sc331 O347 2.105 . S
Sc331 O351 2.105 1_554 S
Sc332 O333 2.025 . S
Sc332 O342 2.105 1_554 S
Sc332 O344 2.105 . S
Sc332 O348 2.105 . S
Sc332 O350 2.105 . S
O333 Sc330 2.025 . S
O333 Sc331 2.025 . S
O333 Sc332 2.025 . S
C334 O340 1.268 . S
C334 O350 1.268 . S
C335 O341 1.268 . S
C335 O349 1.268 . S
C336 O342 1.268 . S
C336 O351 1.268 . S
C337 O343 1.268 . S
C337 O347 1.268 . S
C338 O344 1.268 . S
C338 O346 1.268 . S
C339 O345 1.268 . S
C339 O348 1.268 . S
O340 Sc330 2.105 . S
O340 C334 1.268 . S
O341 Sc331 2.105 . S
O341 C335 1.268 . S
O342 Sc332 2.105 1_556 S
O342 C336 1.268 . S
O343 Sc330 2.105 . S
O343 C337 1.268 . S
O344 Sc332 2.105 . S
O344 C338 1.268 . S
O345 Sc331 2.105 . S
O345 C339 1.268 . S
O346 Sc330 2.105 . S
O346 C338 1.268 . S
O347 Sc331 2.105 . S
O347 C337 1.268 . S
O348 Sc332 2.105 . S
O348 C339 1.268 . S
O349 Sc330 2.105 . S
O349 C335 1.268 . S
O350 Sc332 2.105 . S
O350 C334 1.268 . S
O351 Sc331 2.105 1_556 S
O351 C336 1.268 . S
Sc352 O355 2.025 . S
Sc352 O362 2.105 . S
Sc352 O365 2.105 . S
Sc352 O368 2.105 . S
Sc352 O371 2.105 . S
Sc353 O355 2.025 . S
Sc353 O363 2.105 . S
Sc353 O367 2.105 . S
Sc353 O369 2.105 . S
Sc353 O373 2.105 1_554 S
Sc354 O355 2.025 . S
Sc354 O364 2.105 1_554 S
Sc354 O366 2.105 . S
Sc354 O370 2.105 . S
Sc354 O372 2.105 . S
O355 Sc352 2.025 . S
O355 Sc353 2.025 . S
O355 Sc354 2.025 . S
C356 O362 1.268 . S
C356 O372 1.268 . S
C357 O363 1.268 . S
C357 O371 1.268 . S
C358 O364 1.268 . S
C358 O373 1.268 . S
C359 O365 1.268 . S
C359 O369 1.268 . S
C360 O366 1.268 . S
C360 O368 1.268 . S
C361 O367 1.268 . S
C361 O370 1.268 . S
O362 Sc352 2.105 . S
O362 C356 1.268 . S
O363 Sc353 2.105 . S
O363 C357 1.268 . S
O364 Sc354 2.105 1_556 S
O364 C358 1.268 . S
O365 Sc352 2.105 . S
O365 C359 1.268 . S
O366 Sc354 2.105 . S
O366 C360 1.268 . S
O367 Sc353 2.105 . S
O367 C361 1.268 . S
O368 Sc352 2.105 . S
O368 C360 1.268 . S
O369 Sc353 2.105 . S
O369 C359 1.268 . S
O370 Sc354 2.105 . S
O370 C361 1.268 . S
O371 Sc352 2.105 . S
O371 C357 1.268 . S
O372 Sc354 2.105 . S
O372 C356 1.268 . S
O373 Sc353 2.105 1_556 S
O373 C358 1.268 . S
Sc374 O377 2.025 . S
Sc374 O384 2.105 . S
Sc374 O387 2.105 . S
Sc374 O390 2.105 . S
Sc374 O393 2.105 . S
Sc375 O377 2.025 . S
Sc375 O385 2.105 . S
Sc375 O389 2.105 . S
Sc375 O391 2.105 . S
Sc375 O395 2.105 1_554 S
Sc376 O377 2.025 . S
Sc376 O386 2.105 1_554 S
Sc376 O388 2.105 . S
Sc376 O392 2.105 . S
Sc376 O394 2.105 . S
O377 Sc374 2.025 . S
O377 Sc375 2.025 . S
O377 Sc376 2.025 . S
C378 O384 1.268 . S
C378 O394 1.268 . S
C379 O385 1.268 . S
C379 O393 1.268 . S
C380 O386 1.268 . S
C380 O395 1.268 . S
C381 O387 1.268 . S
C381 O391 1.268 . S
C382 O388 1.268 . S
C382 O390 1.268 . S
C383 O389 1.268 . S
C383 O392 1.268 . S
O384 Sc374 2.105 . S
O384 C378 1.268 . S
O385 Sc375 2.105 . S
O385 C379 1.268 . S
O386 Sc376 2.105 1_556 S
O386 C380 1.268 . S
O387 Sc374 2.105 . S
O387 C381 1.268 . S
O388 Sc376 2.105 . S
O388 C382 1.268 . S
O389 Sc375 2.105 . S
O389 C383 1.268 . S
O390 Sc374 2.105 . S
O390 C382 1.268 . S
O391 Sc375 2.105 . S
O391 C381 1.268 . S
O392 Sc376 2.105 . S
O392 C383 1.268 . S
O393 Sc374 2.105 . S
O393 C379 1.268 . S
O394 Sc376 2.105 . S
O394 C378 1.268 . S
O395 Sc375 2.105 1_556 S
O395 C380 1.268 . S
C396 C397 1.387 . S
C396 H400 0.950 . S
C396 C405 1.390 . S
C397 C396 1.387 . S
C397 C399 1.387 . S
H398 C405 0.950 . S
C399 C397 1.387 . S
C399 C401 1.390 . S
C399 H403 0.950 . S
H400 C396 0.950 . S
C401 C399 1.390 . S
C401 C402 1.387 . S
C401 H404 0.950 . S
C402 C401 1.387 . S
C402 C405 1.387 . S
H403 C399 0.950 . S
H404 C401 0.950 . S
C405 C396 1.390 . S
C405 H398 0.950 . S
C405 C402 1.387 . S
C406 C407 1.387 . S
C406 H410 0.950 . S
C406 C415 1.390 . S
C407 C406 1.387 . S
C407 C409 1.387 . S
H408 C415 0.950 . S
C409 C407 1.387 . S
C409 C411 1.390 . S
C409 H413 0.950 . S
H410 C406 0.950 . S
C411 C409 1.390 . S
C411 C412 1.387 . S
C411 H414 0.950 . S
C412 C411 1.387 . S
C412 C415 1.387 . S
H413 C409 0.950 . S
H414 C411 0.950 . S
C415 C406 1.390 . S
C415 H408 0.950 . S
C415 C412 1.387 . S
C416 C417 1.387 . S
C416 H420 0.950 . S
C416 C425 1.390 . S
C417 C416 1.387 . S
C417 C419 1.387 . S
H418 C425 0.950 . S
C419 C417 1.387 . S
C419 C421 1.390 . S
C419 H423 0.950 . S
H420 C416 0.950 . S
C421 C419 1.390 . S
C421 C422 1.387 . S
C421 H424 0.950 . S
C422 C421 1.387 . S
C422 C425 1.387 . S
H423 C419 0.950 . S
H424 C421 0.950 . S
C425 C416 1.390 . S
C425 H418 0.950 . S
C425 C422 1.387 . S
C426 C427 1.387 . S
C426 H430 0.950 . S
C426 C435 1.390 . S
C427 C426 1.387 . S
C427 C429 1.387 . S
H428 C435 0.950 . S
C429 C427 1.387 . S
C429 C431 1.390 . S
C429 H433 0.950 . S
H430 C426 0.950 . S
C431 C429 1.390 . S
C431 C432 1.387 . S
C431 H434 0.950 . S
C432 C431 1.387 . S
C432 C435 1.387 . S
H433 C429 0.950 . S
H434 C431 0.950 . S
C435 C426 1.390 . S
C435 H428 0.950 . S
C435 C432 1.387 . S
C436 C437 1.387 . S
C436 H440 0.950 . S
C436 C445 1.390 . S
C437 C436 1.387 . S
C437 C439 1.387 . S
H438 C445 0.950 . S
C439 C437 1.387 . S
C439 C441 1.390 . S
C439 H443 0.950 . S
H440 C436 0.950 . S
C441 C439 1.390 . S
C441 C442 1.387 . S
C441 H444 0.950 . S
C442 C441 1.387 . S
C442 C445 1.387 . S
H443 C439 0.950 . S
H444 C441 0.950 . S
C445 C436 1.390 . S
C445 H438 0.950 . S
C445 C442 1.387 . S
C446 C447 1.387 . S
C446 H450 0.950 . S
C446 C455 1.390 . S
C447 C446 1.387 . S
C447 C449 1.387 . S
H448 C455 0.950 . S
C449 C447 1.387 . S
C449 C451 1.390 . S
C449 H453 0.950 . S
H450 C446 0.950 . S
C451 C449 1.390 . S
C451 C452 1.387 . S
C451 H454 0.950 . S
C452 C451 1.387 . S
C452 C455 1.387 . S
H453 C449 0.950 . S
H454 C451 0.950 . S
C455 C446 1.390 . S
C455 H448 0.950 . S
C455 C452 1.387 . S
C456 C457 1.387 . S
C456 H460 0.950 . S
C456 C465 1.390 . S
C457 C456 1.387 . S
C457 C459 1.387 . S
H458 C465 0.950 . S
C459 C457 1.387 . S
C459 C461 1.390 . S
C459 H463 0.950 1_655 S
H460 C456 0.950 . S
C461 C459 1.390 . S
C461 C462 1.387 . S
C461 H464 0.950 . S
C462 C461 1.387 . S
C462 C465 1.387 . S
H463 C459 0.950 1_455 S
H464 C461 0.950 . S
C465 C456 1.390 . S
C465 H458 0.950 . S
C465 C462 1.387 . S
C466 C467 1.387 . S
C466 H470 0.950 . S
C466 C475 1.390 . S
C467 C466 1.387 . S
C467 C469 1.387 . S
H468 C475 0.950 . S
C469 C467 1.387 . S
C469 C471 1.390 . S
C469 H473 0.950 . S
H470 C466 0.950 . S
C471 C469 1.390 . S
C471 C472 1.387 . S
C471 H474 0.950 . S
C472 C471 1.387 . S
C472 C475 1.387 . S
H473 C469 0.950 . S
H474 C471 0.950 . S
C475 C466 1.390 . S
C475 H468 0.950 . S
C475 C472 1.387 . S
C476 C477 1.387 . S
C476 H480 0.950 . S
C476 C485 1.390 . S
C477 C476 1.387 . S
C477 C479 1.387 . S
H478 C485 0.950 . S
C479 C477 1.387 . S
C479 C481 1.390 . S
C479 H483 0.950 . S
H480 C476 0.950 . S
C481 C479 1.390 . S
C481 C482 1.387 . S
C481 H484 0.950 . S
C482 C481 1.387 . S
C482 C485 1.387 . S
H483 C479 0.950 . S
H484 C481 0.950 . S
C485 C476 1.390 . S
C485 H478 0.950 . S
C485 C482 1.387 . S
C486 C487 1.387 . S
C486 H490 0.950 . S
C486 C495 1.390 . S
C487 C486 1.387 . S
C487 C489 1.387 . S
H488 C495 0.950 . S
C489 C487 1.387 . S
C489 C491 1.390 . S
C489 H493 0.950 . S
H490 C486 0.950 . S
C491 C489 1.390 . S
C491 C492 1.387 . S
C491 H494 0.950 . S
C492 C491 1.387 . S
C492 C495 1.387 . S
H493 C489 0.950 . S
H494 C491 0.950 . S
C495 C486 1.390 . S
C495 H488 0.950 . S
C495 C492 1.387 . S
C496 C497 1.387 . S
C496 H500 0.950 . S
C496 C505 1.390 . S
C497 C496 1.387 . S
C497 C499 1.387 . S
H498 C505 0.950 . S
C499 C497 1.387 . S
C499 C501 1.390 . S
C499 H503 0.950 . S
H500 C496 0.950 . S
C501 C499 1.390 . S
C501 C502 1.387 . S
C501 H504 0.950 . S
C502 C501 1.387 . S
C502 C505 1.387 . S
H503 C499 0.950 . S
H504 C501 0.950 . S
C505 C496 1.390 . S
C505 H498 0.950 . S
C505 C502 1.387 . S
C506 C507 1.387 . S
C506 H510 0.950 . S
C506 C515 1.390 . S
C507 C506 1.387 . S
C507 C509 1.387 . S
H508 C515 0.950 . S
C509 C507 1.387 . S
C509 C511 1.390 . S
C509 H513 0.950 . S
H510 C506 0.950 . S
C511 C509 1.390 . S
C511 C512 1.387 . S
C511 H514 0.950 . S
C512 C511 1.387 . S
C512 C515 1.387 . S
H513 C509 0.950 . S
H514 C511 0.950 . S
C515 C506 1.390 . S
C515 H508 0.950 . S
C515 C512 1.387 . S
C516 C517 1.387 1_455 S
C516 H520 0.950 1_455 S
C516 C525 1.390 . S
C517 C516 1.387 1_655 S
C517 C519 1.388 1_556 S
H518 C525 0.950 . S
C519 C517 1.388 1_554 S
C519 C521 1.382 1_655 S
C519 H523 0.957 . S
H520 C516 0.950 1_655 S
C521 C519 1.382 1_455 S
C521 C522 1.387 . S
C521 H524 0.950 . S
C522 C521 1.387 . S
C522 C525 1.387 1_554 S
H523 C519 0.957 . S
H524 C521 0.950 . S
C525 C516 1.390 . S
C525 H518 0.950 . S
C525 C522 1.387 1_556 S
C526 C527 1.387 1_554 S
C526 H530 0.950 . S
C526 C535 1.390 . S
C527 C526 1.387 1_556 S
C527 C529 1.387 . S
H528 C535 0.950 . S
C529 C527 1.387 . S
C529 C531 1.390 . S
C529 H533 0.950 . S
H530 C526 0.950 . S
C531 C529 1.390 . S
C531 C532 1.387 1_556 S
C531 H534 0.950 . S
C532 C531 1.387 1_554 S
C532 C535 1.387 . S
H533 C529 0.950 . S
H534 C531 0.950 . S
C535 C526 1.390 . S
C535 H528 0.950 . S
C535 C532 1.387 . S
C536 C537 1.387 . S
C536 H540 0.950 . S
C536 C545 1.390 1_556 S
C537 C536 1.387 . S
C537 C539 1.387 . S
H538 C545 0.950 1_565 S
C539 C537 1.387 . S
C539 C541 1.390 1_556 S
C539 H543 0.950 . S
H540 C536 0.950 . S
C541 C539 1.390 1_554 S
C541 C542 1.387 1_545 S
C541 H544 0.950 1_545 S
C542 C541 1.387 1_565 S
C542 C545 1.387 1_565 S
H543 C539 0.950 . S
H544 C541 0.950 1_565 S
C545 C536 1.390 1_554 S
C545 H538 0.950 1_545 S
C545 C542 1.387 1_545 S
C546 C547 1.387 . S
C546 H550 0.950 . S
C546 C555 1.390 1_556 S
C547 C546 1.387 . S
C547 C549 1.387 . S
H548 C555 0.950 1_565 S
C549 C547 1.387 . S
C549 C551 1.390 1_556 S
C549 H553 0.950 . S
H550 C546 0.950 . S
C551 C549 1.390 1_554 S
C551 C552 1.387 1_545 S
C551 H554 0.950 1_545 S
C552 C551 1.387 1_565 S
C552 C555 1.387 1_565 S
H553 C549 0.950 . S
H554 C551 0.950 1_565 S
C555 C546 1.390 1_554 S
C555 H548 0.950 1_545 S
C555 C552 1.387 1_545 S
C556 C557 1.387 1_556 S
C556 H560 0.950 . S
C556 C565 1.390 . S
C557 C556 1.387 1_554 S
C557 C559 1.387 . S
H558 C565 0.950 1_655 S
C559 C557 1.387 . S
C559 C561 1.360 1_455 S
C559 H563 0.950 . S
H560 C556 0.950 . S
C561 C559 1.360 1_655 S
C561 C562 1.407 1_554 S
C561 H564 0.961 . S
C562 C561 1.407 1_556 S
C562 C565 1.387 1_655 S
H563 C559 0.950 . S
H564 C561 0.961 . S
C565 C556 1.390 . S
C565 H558 0.950 1_455 S
C565 C562 1.387 1_455 S
C566 C567 1.387 1_556 S
C566 H570 0.950 . S
C566 C575 1.390 . S
C567 C566 1.387 1_554 S
C567 C569 1.387 . S
H568 C575 0.950 . S
C569 C567 1.387 . S
C569 C571 1.390 . S
C569 H573 0.950 . S
H570 C566 0.950 . S
C571 C569 1.390 . S
C571 C572 1.387 1_554 S
C571 H574 0.950 . S
C572 C571 1.387 1_556 S
C572 C575 1.387 . S
H573 C569 0.950 . S
H574 C571 0.950 . S
C575 C566 1.390 . S
C575 H568 0.950 . S
C575 C572 1.387 . S
C576 C577 1.387 . S
C576 H580 0.950 . S
C576 C585 1.390 . S
C577 C576 1.387 . S
C577 C579 1.387 . S
H578 C585 0.950 . S
C579 C577 1.387 . S
C579 C581 1.390 . S
C579 H583 0.950 . S
H580 C576 0.950 . S
C581 C579 1.390 . S
C581 C582 1.387 . S
C581 H584 0.950 . S
C582 C581 1.387 . S
C582 C585 1.387 . S
H583 C579 0.950 . S
H584 C581 0.950 . S
C585 C576 1.390 . S
C585 H578 0.950 . S
C585 C582 1.387 . S
C586 C587 1.387 . S
C586 H590 0.950 . S
C586 C595 1.390 . S
C587 C586 1.387 . S
C587 C589 1.387 . S
H588 C595 0.950 . S
C589 C587 1.387 . S
C589 C591 1.390 . S
C589 H593 0.950 . S
H590 C586 0.950 . S
C591 C589 1.390 . S
C591 C592 1.387 . S
C591 H594 0.950 . S
C592 C591 1.387 . S
C592 C595 1.387 . S
H593 C589 0.950 . S
H594 C591 0.950 . S
C595 C586 1.390 . S
C595 H588 0.950 . S
C595 C592 1.387 . S
C596 C597 1.387 . S
C596 H600 0.950 . S
C596 C605 1.390 . S
C597 C596 1.387 . S
C597 C599 1.387 . S
H598 C605 0.950 . S
C599 C597 1.387 . S
C599 C601 1.390 . S
C599 H603 0.950 . S
H600 C596 0.950 . S
C601 C599 1.390 . S
C601 C602 1.387 . S
C601 H604 0.950 . S
C602 C601 1.387 . S
C602 C605 1.387 . S
H603 C599 0.950 . S
H604 C601 0.950 . S
C605 C596 1.390 . S
C605 H598 0.950 . S
C605 C602 1.387 . S
C606 C607 1.387 . S
C606 H610 0.950 . S
C606 C615 1.390 . S
C607 C606 1.387 . S
C607 C609 1.387 . S
H608 C615 0.950 . S
C609 C607 1.387 . S
C609 C611 1.390 . S
C609 H613 0.950 . S
H610 C606 0.950 . S
C611 C609 1.390 . S
C611 C612 1.387 . S
C611 H614 0.950 . S
C612 C611 1.387 . S
C612 C615 1.387 . S
H613 C609 0.950 . S
H614 C611 0.950 . S
C615 C606 1.390 . S
C615 H608 0.950 . S
C615 C612 1.387 . S
C616 C617 1.387 . S
C616 H620 0.950 . S
C616 C625 1.390 . S
C617 C616 1.387 . S
C617 C619 1.387 . S
H618 C625 0.950 . S
C619 C617 1.387 . S
C619 C621 1.390 . S
C619 H623 0.950 . S
H620 C616 0.950 . S
C621 C619 1.390 . S
C621 C622 1.387 . S
C621 H624 0.950 . S
C622 C621 1.387 . S
C622 C625 1.387 . S
H623 C619 0.950 . S
H624 C621 0.950 . S
C625 C616 1.390 . S
C625 H618 0.950 . S
C625 C622 1.387 . S
C626 C627 1.387 . S
C626 H630 0.950 . S
C626 C635 1.390 . S
C627 C626 1.387 . S
C627 C629 1.387 . S
H628 C635 0.950 . S
C629 C627 1.387 . S
C629 C631 1.390 . S
C629 H633 0.950 . S
H630 C626 0.950 . S
C631 C629 1.390 . S
C631 C632 1.387 . S
C631 H634 0.950 . S
C632 C631 1.387 . S
C632 C635 1.387 . S
H633 C629 0.950 . S
H634 C631 0.950 . S
C635 C626 1.390 . S
C635 H628 0.950 . S
C635 C632 1.387 . S
C636 C637 1.387 . S
C636 H640 0.950 . S
C636 C645 1.390 . S
C637 C636 1.387 . S
C637 C639 1.387 . S
H638 C645 0.950 . S
C639 C637 1.387 . S
C639 C641 1.390 . S
C639 H643 0.950 . S
H640 C636 0.950 . S
C641 C639 1.390 . S
C641 C642 1.387 . S
C641 H644 0.950 . S
C642 C641 1.387 . S
C642 C645 1.387 . S
H643 C639 0.950 . S
H644 C641 0.950 . S
C645 C636 1.390 . S
C645 H638 0.950 . S
C645 C642 1.387 . S
C646 C647 1.387 . S
C646 H650 0.950 1_556 S
C646 C655 1.390 . S
C647 C646 1.387 . S
C647 C649 1.387 . S
H648 C655 0.950 1_554 S
C649 C647 1.387 . S
C649 C651 1.390 . S
C649 H653 0.950 . S
H650 C646 0.950 1_554 S
C651 C649 1.390 . S
C651 C652 1.387 . S
C651 H654 0.950 . S
C652 C651 1.387 . S
C652 C655 1.387 . S
H653 C649 0.950 . S
H654 C651 0.950 . S
C655 C646 1.390 . S
C655 H648 0.950 1_556 S
C655 C652 1.387 . S
C656 C657 1.387 . S
C656 H660 0.950 1_556 S
C656 C665 1.390 . S
C657 C656 1.387 . S
C657 C659 1.387 . S
H658 C665 0.950 1_554 S
C659 C657 1.387 . S
C659 C661 1.390 . S
C659 H663 0.950 . S
H660 C656 0.950 1_554 S
C661 C659 1.390 . S
C661 C662 1.387 . S
C661 H664 0.950 . S
C662 C661 1.387 . S
C662 C665 1.387 . S
H663 C659 0.950 . S
H664 C661 0.950 . S
C665 C656 1.390 . S
C665 H658 0.950 1_556 S
C665 C662 1.387 . S
C666 C667 1.387 . S
C666 H670 0.950 . S
C666 C675 1.390 . S
C667 C666 1.387 . S
C667 C669 1.387 . S
H668 C675 0.950 . S
C669 C667 1.387 . S
C669 C671 1.390 . S
C669 H673 0.950 . S
H670 C666 0.950 . S
C671 C669 1.390 . S
C671 C672 1.387 . S
C671 H674 0.950 . S
C672 C671 1.387 . S
C672 C675 1.387 . S
H673 C669 0.950 . S
H674 C671 0.950 . S
C675 C666 1.390 . S
C675 H668 0.950 . S
C675 C672 1.387 . S
C676 C677 1.387 . S
C676 H680 0.950 . S
C676 C685 1.390 . S
C677 C676 1.387 . S
C677 C679 1.387 . S
H678 C685 0.950 . S
C679 C677 1.387 . S
C679 C681 1.390 . S
C679 H683 0.950 . S
H680 C676 0.950 . S
C681 C679 1.390 . S
C681 C682 1.387 . S
C681 H684 0.950 . S
C682 C681 1.387 . S
C682 C685 1.387 . S
H683 C679 0.950 . S
H684 C681 0.950 . S
C685 C676 1.390 . S
C685 H678 0.950 . S
C685 C682 1.387 . S
C686 C687 1.387 . S
C686 H690 0.950 . S
C686 C695 1.390 . S
C687 C686 1.387 . S
C687 C689 1.387 . S
H688 C695 0.950 . S
C689 C687 1.387 . S
C689 C691 1.390 . S
C689 H693 0.950 . S
H690 C686 0.950 . S
C691 C689 1.390 . S
C691 C692 1.387 . S
C691 H694 0.950 . S
C692 C691 1.387 . S
C692 C695 1.387 . S
H693 C689 0.950 . S
H694 C691 0.950 . S
C695 C686 1.390 . S
C695 H688 0.950 . S
C695 C692 1.387 . S
C696 C697 1.387 . S
C696 H700 0.950 . S
C696 C705 1.390 . S
C697 C696 1.387 . S
C697 C699 1.387 . S
H698 C705 0.950 . S
C699 C697 1.387 . S
C699 C701 1.390 . S
C699 H703 0.950 . S
H700 C696 0.950 . S
C701 C699 1.390 . S
C701 C702 1.387 . S
C701 H704 0.950 . S
C702 C701 1.387 . S
C702 C705 1.387 . S
H703 C699 0.950 . S
H704 C701 0.950 . S
C705 C696 1.390 . S
C705 H698 0.950 . S
C705 C702 1.387 . S
C706 C707 1.387 . S
C706 H710 0.950 . S
C706 C715 1.390 . S
C707 C706 1.387 . S
C707 C709 1.387 . S
H708 C715 0.950 . S
C709 C707 1.387 . S
C709 C711 1.390 . S
C709 H713 0.950 . S
H710 C706 0.950 . S
C711 C709 1.390 . S
C711 C712 1.387 . S
C711 H714 0.950 . S
C712 C711 1.387 . S
C712 C715 1.387 . S
H713 C709 0.950 . S
H714 C711 0.950 . S
C715 C706 1.390 . S
C715 H708 0.950 . S
C715 C712 1.387 . S
C716 C717 1.387 . S
C716 H720 0.950 . S
C716 C725 1.390 . S
C717 C716 1.387 . S
C717 C719 1.387 . S
H718 C725 0.950 . S
C719 C717 1.387 . S
C719 C721 1.390 . S
C719 H723 0.950 . S
H720 C716 0.950 . S
C721 C719 1.390 . S
C721 C722 1.387 . S
C721 H724 0.950 . S
C722 C721 1.387 . S
C722 C725 1.387 . S
H723 C719 0.950 . S
H724 C721 0.950 . S
C725 C716 1.390 . S
C725 H718 0.950 . S
C725 C722 1.387 . S
C726 C727 1.387 . S
C726 H730 0.950 . S
C726 C735 1.390 . S
C727 C726 1.387 . S
C727 C729 1.387 . S
H728 C735 0.950 . S
C729 C727 1.387 . S
C729 C731 1.390 . S
C729 H733 0.950 . S
H730 C726 0.950 . S
C731 C729 1.390 . S
C731 C732 1.387 . S
C731 H734 0.950 . S
C732 C731 1.387 . S
C732 C735 1.387 . S
H733 C729 0.950 . S
H734 C731 0.950 . S
C735 C726 1.390 . S
C735 H728 0.950 . S
C735 C732 1.387 . S
C736 C737 1.387 . S
C736 H740 0.950 . S
C736 C745 1.390 . S
C737 C736 1.387 . S
C737 C739 1.387 . S
H738 C745 0.950 . S
C739 C737 1.387 . S
C739 C741 1.390 . S
C739 H743 0.950 1_554 S
H740 C736 0.950 . S
C741 C739 1.390 . S
C741 C742 1.387 . S
C741 H744 0.950 1_554 S
C742 C741 1.387 . S
C742 C745 1.387 . S
H743 C739 0.950 1_556 S
H744 C741 0.950 1_556 S
C745 C736 1.390 . S
C745 H738 0.950 . S
C745 C742 1.387 . S
C746 C747 1.387 . S
C746 H750 0.950 . S
C746 C755 1.390 . S
C747 C746 1.387 . S
C747 C749 1.387 . S
H748 C755 0.950 . S
C749 C747 1.387 . S
C749 C751 1.390 . S
C749 H753 0.950 . S
H750 C746 0.950 . S
C751 C749 1.390 . S
C751 C752 1.387 . S
C751 H754 0.950 . S
C752 C751 1.387 . S
C752 C755 1.387 . S
H753 C749 0.950 . S
H754 C751 0.950 . S
C755 C746 1.390 . S
C755 H748 0.950 . S
C755 C752 1.387 . S
C756 C757 1.393 . S
C756 H760 0.946 1_455 S
C756 C765 1.389 1_454 S
C757 C756 1.393 . S
C757 C759 1.387 . S
H758 C765 0.950 . S
C759 C757 1.387 . S
C759 C761 1.390 1_554 S
C759 H763 0.950 . S
H760 C756 0.946 1_655 S
C761 C759 1.390 1_556 S
C761 C762 1.387 . S
C761 H764 0.950 . S
C762 C761 1.387 . S
C762 C765 1.387 1_455 S
H763 C759 0.950 . S
H764 C761 0.950 . S
C765 C756 1.389 1_656 S
C765 H758 0.950 . S
C765 C762 1.387 1_655 S
C766 C767 1.387 . S
C766 H770 0.950 . S
C766 C775 1.390 1_554 S
C767 C766 1.387 . S
C767 C769 1.387 . S
H768 C775 0.950 . S
C769 C767 1.387 . S
C769 C771 1.390 1_554 S
C769 H773 0.950 . S
H770 C766 0.950 . S
C771 C769 1.390 1_556 S
C771 C772 1.387 . S
C771 H774 0.950 . S
C772 C771 1.387 . S
C772 C775 1.387 . S
H773 C769 0.950 . S
H774 C771 0.950 . S
C775 C766 1.390 1_556 S
C775 H768 0.950 . S
C775 C772 1.387 . S
C776 C777 1.387 . S
C776 H780 0.950 . S
C776 C785 1.390 1_554 S
C777 C776 1.387 . S
C777 C779 1.387 . S
H778 C785 0.950 . S
C779 C777 1.387 . S
C779 C781 1.390 1_554 S
C779 H783 0.950 . S
H780 C776 0.950 . S
C781 C779 1.390 1_556 S
C781 C782 1.387 . S
C781 H784 0.950 . S
C782 C781 1.387 . S
C782 C785 1.387 . S
H783 C779 0.950 . S
H784 C781 0.950 . S
C785 C776 1.390 1_556 S
C785 H778 0.950 . S
C785 C782 1.387 . S
C786 C787 1.387 . S
C786 H790 0.950 . S
C786 C795 1.390 1_556 S
C787 C786 1.387 . S
C787 C789 1.387 . S
H788 C795 0.950 . S
C789 C787 1.387 . S
C789 C791 1.390 1_556 S
C789 H793 0.950 1_455 S
H790 C786 0.950 . S
C791 C789 1.390 1_554 S
C791 C792 1.387 . S
C791 H794 0.950 1_455 S
C792 C791 1.387 . S
C792 C795 1.387 . S
H793 C789 0.950 1_655 S
H794 C791 0.950 1_655 S
C795 C786 1.390 1_554 S
C795 H788 0.950 . S
C795 C792 1.387 . S
C796 C797 1.387 . S
C796 H800 0.950 . S
C796 C805 1.390 1_554 S
C797 C796 1.387 . S
C797 C799 1.387 . S
H798 C805 0.950 . S
C799 C797 1.387 . S
C799 C801 1.390 1_554 S
C799 H803 0.950 . S
H800 C796 0.950 . S
C801 C799 1.390 1_556 S
C801 C802 1.387 . S
C801 H804 0.950 . S
C802 C801 1.387 . S
C802 C805 1.387 . S
H803 C799 0.950 . S
H804 C801 0.950 . S
C805 C796 1.390 1_556 S
C805 H798 0.950 . S
C805 C802 1.387 . S
C806 C807 1.387 . S
C806 H810 0.950 . S
C806 C815 1.390 1_554 S
C807 C806 1.387 . S
C807 C809 1.387 . S
H808 C815 0.950 . S
C809 C807 1.387 . S
C809 C811 1.390 1_554 S
C809 H813 0.950 . S
H810 C806 0.950 . S
C811 C809 1.390 1_556 S
C811 C812 1.387 . S
C811 H814 0.950 . S
C812 C811 1.387 . S
C812 C815 1.387 . S
H813 C809 0.950 . S
H814 C811 0.950 . S
C815 C806 1.390 1_556 S
C815 H808 0.950 . S
C815 C812 1.387 . S
C816 C817 1.387 . S
C816 H820 0.950 . S
C816 C825 1.390 . S
C817 C816 1.387 . S
C817 C819 1.387 . S
H818 C825 0.950 . S
C819 C817 1.387 . S
C819 C821 1.390 . S
C819 H823 0.950 . S
H820 C816 0.950 . S
C821 C819 1.390 . S
C821 C822 1.387 . S
C821 H824 0.950 . S
C822 C821 1.387 . S
C822 C825 1.387 . S
H823 C819 0.950 . S
H824 C821 0.950 . S
C825 C816 1.390 . S
C825 H818 0.950 . S
C825 C822 1.387 . S
C826 C827 1.387 . S
C826 H830 0.950 . S
C826 C835 1.390 . S
C827 C826 1.387 . S
C827 C829 1.387 . S
H828 C835 0.950 . S
C829 C827 1.387 . S
C829 C831 1.390 . S
C829 H833 0.950 . S
H830 C826 0.950 . S
C831 C829 1.390 . S
C831 C832 1.387 . S
C831 H834 0.950 . S
C832 C831 1.387 . S
C832 C835 1.387 . S
H833 C829 0.950 . S
H834 C831 0.950 . S
C835 C826 1.390 . S
C835 H828 0.950 . S
C835 C832 1.387 . S
C836 C837 1.387 . S
C836 H840 0.950 . S
C836 C845 1.390 . S
C837 C836 1.387 . S
C837 C839 1.387 . S
H838 C845 0.950 . S
C839 C837 1.387 . S
C839 C841 1.390 . S
C839 H843 0.950 . S
H840 C836 0.950 . S
C841 C839 1.390 . S
C841 C842 1.387 . S
C841 H844 0.950 . S
C842 C841 1.387 . S
C842 C845 1.387 . S
H843 C839 0.950 . S
H844 C841 0.950 . S
C845 C836 1.390 . S
C845 H838 0.950 . S
C845 C842 1.387 . S
C846 C847 1.387 . S
C846 H850 0.950 . S
C846 C855 1.390 . S
C847 C846 1.387 . S
C847 C849 1.387 . S
H848 C855 0.950 . S
C849 C847 1.387 . S
C849 C851 1.390 . S
C849 H853 0.950 . S
H850 C846 0.950 . S
C851 C849 1.390 . S
C851 C852 1.387 . S
C851 H854 0.950 . S
C852 C851 1.387 . S
C852 C855 1.387 . S
H853 C849 0.950 . S
H854 C851 0.950 . S
C855 C846 1.390 . S
C855 H848 0.950 . S
C855 C852 1.387 . S
C856 C857 1.387 . S
C856 H860 0.950 . S
C856 C865 1.390 . S
C857 C856 1.387 . S
C857 C859 1.387 . S
H858 C865 0.950 . S
C859 C857 1.387 . S
C859 C861 1.390 . S
C859 H863 0.950 . S
H860 C856 0.950 . S
C861 C859 1.390 . S
C861 C862 1.387 . S
C861 H864 0.950 . S
C862 C861 1.387 . S
C862 C865 1.387 . S
H863 C859 0.950 . S
H864 C861 0.950 . S
C865 C856 1.390 . S
C865 H858 0.950 . S
C865 C862 1.387 . S
C866 C867 1.387 . S
C866 H870 0.950 . S
C866 C875 1.390 . S
C867 C866 1.387 . S
C867 C869 1.387 . S
H868 C875 0.950 . S
C869 C867 1.387 . S
C869 C871 1.390 . S
C869 H873 0.950 . S
H870 C866 0.950 . S
C871 C869 1.390 . S
C871 C872 1.387 . S
C871 H874 0.950 . S
C872 C871 1.387 . S
C872 C875 1.387 . S
H873 C869 0.950 . S
H874 C871 0.950 . S
C875 C866 1.390 . S
C875 H868 0.950 . S
C875 C872 1.387 . S
C876 C877 1.387 . S
C876 H880 0.950 . S
C876 C885 1.390 . S
C877 C876 1.387 . S
C877 C879 1.387 . S
H878 C885 0.950 . S
C879 C877 1.387 . S
C879 C881 1.390 . S
C879 H883 0.950 . S
H880 C876 0.950 . S
C881 C879 1.390 . S
C881 C882 1.387 . S
C881 H884 0.950 . S
C882 C881 1.387 . S
C882 C885 1.387 . S
H883 C879 0.950 . S
H884 C881 0.950 . S
C885 C876 1.390 . S
C885 H878 0.950 . S
C885 C882 1.387 . S
C886 C887 1.387 . S
C886 H890 0.950 . S
C886 C895 1.390 . S
C887 C886 1.387 . S
C887 C889 1.387 . S
H888 C895 0.950 . S
C889 C887 1.387 . S
C889 C891 1.390 . S
C889 H893 0.950 . S
H890 C886 0.950 . S
C891 C889 1.390 . S
C891 C892 1.387 . S
C891 H894 0.950 . S
C892 C891 1.387 . S
C892 C895 1.387 . S
H893 C889 0.950 . S
H894 C891 0.950 . S
C895 C886 1.390 . S
C895 H888 0.950 . S
C895 C892 1.387 . S
C896 C897 1.387 . S
C896 H900 0.950 . S
C896 C905 1.390 . S
C897 C896 1.387 . S
C897 C899 1.387 . S
H898 C905 0.950 . S
C899 C897 1.387 . S
C899 C901 1.390 . S
C899 H903 0.950 . S
H900 C896 0.950 . S
C901 C899 1.390 . S
C901 C902 1.387 . S
C901 H904 0.950 . S
C902 C901 1.387 . S
C902 C905 1.387 . S
H903 C899 0.950 . S
H904 C901 0.950 . S
C905 C896 1.390 . S
C905 H898 0.950 . S
C905 C902 1.387 . S
C906 C907 1.387 . S
C906 H910 0.950 . S
C906 C915 1.390 . S
C907 C906 1.387 . S
C907 C909 1.387 . S
H908 C915 0.950 . S
C909 C907 1.387 . S
C909 C911 1.390 . S
C909 H913 0.950 . S
H910 C906 0.950 . S
C911 C909 1.390 . S
C911 C912 1.387 . S
C911 H914 0.950 . S
C912 C911 1.387 . S
C912 C915 1.387 . S
H913 C909 0.950 . S
H914 C911 0.950 . S
C915 C906 1.390 . S
C915 H908 0.950 . S
C915 C912 1.387 . S
C916 C917 1.387 . S
C916 H920 0.950 . S
C916 C925 1.390 . S
C917 C916 1.387 . S
C917 C919 1.387 . S
H918 C925 0.950 . S
C919 C917 1.387 . S
C919 C921 1.390 . S
C919 H923 0.950 . S
H920 C916 0.950 . S
C921 C919 1.390 . S
C921 C922 1.387 . S
C921 H924 0.950 . S
C922 C921 1.387 . S
C922 C925 1.387 . S
H923 C919 0.950 . S
H924 C921 0.950 . S
C925 C916 1.390 . S
C925 H918 0.950 . S
C925 C922 1.387 . S
C926 C927 1.387 . S
C926 H930 0.950 . S
C926 C935 1.390 . S
C927 C926 1.387 . S
C927 C929 1.387 . S
H928 C935 0.950 . S
C929 C927 1.387 . S
C929 C931 1.390 . S
C929 H933 0.950 . S
H930 C926 0.950 . S
C931 C929 1.390 . S
C931 C932 1.387 . S
C931 H934 0.950 . S
C932 C931 1.387 . S
C932 C935 1.387 . S
H933 C929 0.950 . S
H934 C931 0.950 . S
C935 C926 1.390 . S
C935 H928 0.950 . S
C935 C932 1.387 . S
C397 C294 1.282 . S
C402 C4 1.282 . S
C407 C26 1.281 . S
C412 C316 1.279 . S
C417 C48 1.281 . S
C422 C272 1.279 . S
C427 C52 1.279 . S
C432 C158 1.281 . S
C437 C180 1.282 . S
C442 C8 1.279 . S
C447 C30 1.282 . S
C452 C136 1.282 . S
C457 C74 1.282 . S
C462 C224 1.282 . S
C467 C96 1.282 . S
C472 C246 1.279 . S
C477 C202 1.282 . S
C482 C118 1.279 . S
C487 C360 1.280 . S
C492 C114 1.282 . S
C497 C70 1.281 . S
C502 C382 1.279 . S
C507 C338 1.279 . S
C512 C92 1.279 . S
C517 C184 1.281 . S
C522 C290 1.283 . S
C527 C140 1.281 . S
C532 C312 1.279 . S
C537 C162 1.279 . S
C542 C268 1.279 . S
C547 C206 1.282 . S
C552 C356 1.282 . S
C557 C378 1.279 . S
C562 C228 1.281 . S
C567 C334 1.280 . S
C572 C250 1.282 . S
C577 C6 1.585 . S
C582 C93 1.584 . S
C587 C115 1.585 . S
C592 C28 1.584 . S
C597 C71 1.584 . S
C602 C50 1.585 . S
C607 C97 1.584 . S
C612 C51 1.585 . S
C617 C119 1.585 . S
C622 C7 1.584 . S
C627 C75 1.584 . S
C632 C29 1.585 . S
C637 C225 1.584 . S
C642 C138 1.585 . S
C647 C247 1.584 . S
C652 C160 1.585 . S
C657 C203 1.584 . S
C662 C182 1.585 . S
C667 C229 1.584 . S
C672 C183 1.585 . S
C677 C251 1.584 . S
C682 C139 1.585 . S
C687 C207 1.584 . S
C692 C161 1.585 . S
C697 C357 1.584 . S
C702 C270 1.585 . S
C707 C379 1.584 . S
C712 C292 1.585 . S
C717 C314 1.584 . S
C722 C335 1.585 . S
C727 C315 1.585 . S
C732 C361 1.584 . S
C737 C271 1.584 . S
C742 C383 1.585 . S
C747 C339 1.584 . S
C752 C293 1.585 . S
C757 C5 1.660 . S
C762 C9 1.659 . S
C767 C27 1.658 . S
C772 C31 1.657 . S
C777 C49 1.660 . S
C782 C53 1.660 . S
C787 C73 1.657 . S
C792 C72 1.658 . S
C797 C94 1.660 . S
C802 C95 1.659 . S
C807 C116 1.660 . S
C812 C117 1.660 . S
C817 C141 1.658 . S
C822 C137 1.657 . S
C827 C159 1.659 . S
C832 C163 1.660 . S
C837 C185 1.660 . S
C842 C181 1.660 . S
C847 C205 1.659 . S
C852 C204 1.658 . S
C857 C227 1.658 . S
C862 C226 1.657 . S
C867 C249 1.657 . S
C872 C248 1.657 . S
C877 C273 1.659 . S
C882 C269 1.660 . S
C887 C291 1.659 . S
C892 C295 1.657 . S
C897 C313 1.657 . S
C902 C317 1.657 . S
C907 C336 1.657 . S
C912 C337 1.658 . S
C917 C358 1.660 . S
C922 C359 1.659 . S
C927 C381 1.657 . S
C932 C380 1.657 . S
