# Generated by pormake.
# Topology vby, (6)-cn, num edge types: 1
# Building blocks:
#     Node 0, Type 0, BuildingBlock: KUMBOL_clean_sbu_0, # of connection points: 6
#     Node 1, Type 0, BuildingBlock: KUMBOL_clean_sbu_0, # of connection points: 6
#     Node 2, Type 0, BuildingBlock: KUMBOL_clean_sbu_0, # of connection points: 6
#     Node 3, Type 0, BuildingBlock: KUMBOL_clean_sbu_0, # of connection points: 6
#     Node 4, Type 0, BuildingBlock: KUMBOL_clean_sbu_0, # of connection points: 6
#     Node 5, Type 0, BuildingBlock: KUMBOL_clean_sbu_0, # of connection points: 6
#     Node 6, Type 0, BuildingBlock: KUMBOL_clean_sbu_0, # of connection points: 6
#     Node 7, Type 0, BuildingBlock: KUMBOL_clean_sbu_0, # of connection points: 6
#     Edge 8, Type (0, 0), BuildingBlock: UVAHIK_clean_linker_0, # of connection points: 2
#     Edge 9, Type (0, 0), BuildingBlock: UVAHIK_clean_linker_0, # of connection points: 2
#     Edge 10, Type (0, 0), BuildingBlock: UVAHIK_clean_linker_0, # of connection points: 2
#     Edge 11, Type (0, 0), BuildingBlock: UVAHIK_clean_linker_0, # of connection points: 2
#     Edge 12, Type (0, 0), BuildingBlock: UVAHIK_clean_linker_0, # of connection points: 2
#     Edge 13, Type (0, 0), BuildingBlock: UVAHIK_clean_linker_0, # of connection points: 2
#     Edge 14, Type (0, 0), BuildingBlock: UVAHIK_clean_linker_0, # of connection points: 2
#     Edge 15, Type (0, 0), BuildingBlock: UVAHIK_clean_linker_0, # of connection points: 2
#     Edge 16, Type (0, 0), BuildingBlock: UVAHIK_clean_linker_0, # of connection points: 2
#     Edge 17, Type (0, 0), BuildingBlock: UVAHIK_clean_linker_0, # of connection points: 2
#     Edge 18, Type (0, 0), BuildingBlock: UVAHIK_clean_linker_0, # of connection points: 2
#     Edge 19, Type (0, 0), BuildingBlock: UVAHIK_clean_linker_0, # of connection points: 2
#     Edge 20, Type (0, 0), BuildingBlock: UVAHIK_clean_linker_0, # of connection points: 2
#     Edge 21, Type (0, 0), BuildingBlock: UVAHIK_clean_linker_0, # of connection points: 2
#     Edge 22, Type (0, 0), BuildingBlock: UVAHIK_clean_linker_0, # of connection points: 2
#     Edge 23, Type (0, 0), BuildingBlock: UVAHIK_clean_linker_0, # of connection points: 2
#     Edge 24, Type (0, 0), BuildingBlock: UVAHIK_clean_linker_0, # of connection points: 2
#     Edge 25, Type (0, 0), BuildingBlock: UVAHIK_clean_linker_0, # of connection points: 2
#     Edge 26, Type (0, 0), BuildingBlock: UVAHIK_clean_linker_0, # of connection points: 2
#     Edge 27, Type (0, 0), BuildingBlock: UVAHIK_clean_linker_0, # of connection points: 2
#     Edge 28, Type (0, 0), BuildingBlock: UVAHIK_clean_linker_0, # of connection points: 2
#     Edge 29, Type (0, 0), BuildingBlock: UVAHIK_clean_linker_0, # of connection points: 2
#     Edge 30, Type (0, 0), BuildingBlock: UVAHIK_clean_linker_0, # of connection points: 2
#     Edge 31, Type (0, 0), BuildingBlock: UVAHIK_clean_linker_0, # of connection points: 2
# Relax obj value: 0.108
# Max RMSD: 0.192
# Mean RMSD: 0.192
data_MOF--net-vby--node1-KUMBOL_clean_sbu_0--edge1-UVAHIK_clean_linker_0
_symmetry_space_group_name_H-M    P1
_symmetry_Int_Tables_number       1
_symmetry_cell_setting            triclinic
loop_
_symmetry_equiv_pos_as_xyz
'x, y, z'
_cell_length_a     19.025406
_cell_length_b     115.76647
_cell_length_c     39.111775
_cell_angle_alpha  115.65031
_cell_angle_beta   90.03623
_cell_angle_gamma 90.104889
loop_
_atom_site_label
_atom_site_type_symbol
_atom_site_fract_x
_atom_site_fract_y
_atom_site_fract_z
_atom_type_partial_charge
Gd0 Gd 0.08907 0.36191 0.98785 0.0
Gd1 Gd 0.11767 0.39681 0.02881 0.0
C2 C 0.34377 0.40484 0.00385 0.0
C3 C 0.39989 0.41197 0.06529 0.0
C4 C 0.27618 0.4057 0.05748 0.0
C5 C 0.2798 0.40302 0.0194 0.0
C6 C 0.3362 0.41044 0.0809 0.0
C7 C 0.40365 0.40918 0.02687 0.0
C8 C 0.34604 0.40219 0.9655 0.0
C9 C 0.28549 0.398 0.94362 0.0
N10 N 0.22146 0.39852 -0.00259 0.0
C11 C 0.22348 0.39634 0.96008 0.0
H12 H 0.17784 0.39356 0.94233 0.0
C13 C 0.20688 0.40868 0.1106 0.0
N14 N 0.21378 0.40417 0.07201 0.0
C15 C 0.26501 0.41314 0.13463 0.0
C16 C 0.33028 0.41381 0.11964 0.0
H17 H 0.15635 0.40939 0.12381 0.0
H18 H 0.45312 0.41048 0.01524 0.0
H19 H 0.98198 0.3639 0.05931 0.0
H20 H 0.39408 0.40343 0.9526 0.0
H21 H 0.2863 0.39613 0.91401 0.0
H22 H 0.44639 0.41547 0.08282 0.0
H23 H 0.11825 0.34386 0.89505 0.0
H24 H 0.77896 0.35003 0.01368 0.0
H25 H 0.85987 0.35923 0.06845 0.0
H26 H 0.81252 0.33406 0.87979 0.0
H27 H 0.25893 0.4164 0.1649 0.0
H28 H 0.3751 0.41745 0.13843 0.0
H29 H 0.7611 0.34112 0.94335 0.0
H30 H 0.04978 0.33196 0.83636 0.0
N31 N 0.97197 0.35773 -0.00042 0.0
C32 C 0.83302 0.35204 0.00935 0.0
C33 C 0.87853 0.35721 0.0403 0.0
C34 C 0.85845 0.34914 0.97302 0.0
C35 C 0.92931 0.35199 0.96895 0.0
C36 C 0.9482 0.35992 0.03488 0.0
N37 N 1.02806 0.34969 0.93065 0.0
C38 C 0.958 0.34809 0.93328 0.0
C39 C 1.02315 0.33655 0.86337 0.0
C40 C 0.95018 0.33573 0.86529 0.0
C41 C 0.06168 0.34326 0.89662 0.0
C42 C 0.91695 0.34115 0.90065 0.0
H43 H 0.92049 0.33036 0.83956 0.0
O44 O 0.14904 0.34415 0.96273 0.0
O45 O 0.17052 0.37767 0.01242 0.0
O46 O 0.07617 0.39009 0.96883 0.0
O47 O 0.07791 0.36769 0.9399 0.0
O48 O 0.19551 0.36179 0.96248 0.0
O49 O 0.09786 0.34949 0.01647 0.0
O50 O 0.09065 0.41609 0.06937 0.0
O51 O 0.03749 0.38108 0.00659 0.0
O52 O 0.09743 0.37002 0.05182 0.0
O53 O 0.09859 0.39238 0.07817 0.0
O54 O 1.00664 0.39785 0.05136 0.0
O55 O 0.09535 0.41153 0.00965 0.0
C56 C 0.21907 0.37248 0.9881 0.0
C57 C 0.84514 0.33917 0.90454 0.0
C58 C 0.81593 0.34315 0.94071 0.0
C59 C 0.13276 0.34061 0.98912 0.0
C60 C 0.10638 0.32735 0.97637 0.0
C61 C 0.04548 0.32342 0.95406 0.0
C62 C 0.14071 0.31862 0.98708 0.0
C63 C 0.1136 0.3061 0.97571 0.0
C64 C 1.01902 0.31107 0.94238 0.0
C65 C 0.05267 0.30247 0.95304 0.0
C66 C 0.07033 0.37887 0.93883 0.0
C67 C 0.98557 0.38655 0.02805 0.0
C68 C 0.08899 0.42057 0.04401 0.0
C69 C 0.12861 0.43255 0.05293 0.0
C70 C 0.19041 0.43528 0.07471 0.0
C71 C 0.10426 0.44143 0.03994 0.0
C72 C 0.14176 0.45289 0.04837 0.0
C73 C 0.22802 0.4465 0.0828 0.0
C74 C 0.20405 0.45525 0.06978 0.0
C75 C 0.09602 0.38146 0.081 0.0
H76 H 1.01809 0.32986 0.94564 0.0
H77 H 0.18738 0.32163 0.00469 0.0
H78 H 0.97212 0.30817 0.92499 0.0
H79 H 0.03125 0.29289 0.94318 0.0
H80 H 0.20944 0.42886 0.08594 0.0
H81 H 0.05647 0.4394 0.02322 0.0
H82 H 0.27556 0.44849 0.09964 0.0
H83 H 0.23352 0.46403 0.07728 0.0
Gd84 Gd 0.93479 0.61359 0.9884 0.0
Gd85 Gd 0.96574 0.64855 0.03104 0.0
C86 C 0.19124 0.66331 0.06176 0.0
C87 C 0.18782 0.6734 0.13062 0.0
C88 C 0.08273 0.66349 0.09422 0.0
C89 C 0.1199 0.65982 0.06086 0.0
C90 C 0.11554 0.67076 0.12944 0.0
C91 C 0.22563 0.66969 0.0968 0.0
C92 C 0.22504 0.66078 0.02751 0.0
C93 C 0.187 0.65537 0.9937 0.0
N94 N 0.08469 0.65383 0.02753 0.0
C95 C 0.11637 0.65208 0.99425 0.0
H96 H 0.08827 0.64786 0.96774 0.0
C97 C 0.97092 0.66707 0.12327 0.0
N98 N 1.01254 0.66121 0.09189 0.0
C99 C 1.00114 0.67417 0.15893 0.0
C100 C 0.07398 0.6758 0.16214 0.0
H101 H 0.91456 0.66575 0.12087 0.0
H102 H 0.28069 0.67225 0.09802 0.0
H103 H 0.87089 0.61837 0.07572 0.0
H104 H 0.27978 0.6633 0.02697 0.0
H105 H 0.21217 0.65364 0.96711 0.0
H106 H 0.21422 0.67881 0.15744 0.0
H107 H 0.89914 0.60046 0.89323 0.0
H108 H 0.65626 0.60734 0.06363 0.0
H109 H 0.76206 0.61558 0.10336 0.0
H110 H 0.60828 0.59392 0.93226 0.0
H111 H 0.96825 0.67838 0.18387 0.0
H112 H 0.0972 0.68142 0.18974 0.0
H113 H 0.59945 0.59949 0.00018 0.0
H114 H 0.79789 0.59283 0.85114 0.0
N115 N 0.83005 0.61211 0.01946 0.0
C116 C 0.70465 0.60854 0.05091 0.0
C117 C 0.76411 0.61324 0.07342 0.0
C118 C 0.70824 0.60546 0.01229 0.0
C119 C 0.77259 0.60724 -0.00299 0.0
C120 C 0.82648 0.6149 0.05725 0.0
N121 N 0.84001 0.60581 0.94452 0.0
C122 C 0.77735 0.60424 0.95873 0.0
C123 C 0.79088 0.59628 0.88143 0.0
C124 C 0.72527 0.59554 0.89601 0.0
C125 C 0.84814 0.60107 0.90593 0.0
C126 C 0.71817 0.5992 0.93485 0.0
H127 H 0.68113 0.59166 0.87686 0.0
O128 O 0.96385 0.59437 0.94806 0.0
O129 O 1.0154 0.62919 0.01055 0.0
O130 O 0.97092 0.64057 0.96705 0.0
O131 O 0.9498 0.61851 0.93947 0.0
O132 O 0.04612 0.61239 0.9659 0.0
O133 O 0.9554 0.59883 0.00763 0.0
O134 O 0.9 0.66563 0.051 0.0
O135 O 0.88393 0.63289 0.00547 0.0
O136 O 0.97567 0.61996 0.0485 0.0
O137 O 0.98449 0.64236 0.07771 0.0
O138 O 0.85774 0.6487 0.05506 0.0
O139 O 0.96585 0.66092 0.00205 0.0
C140 C 0.06739 0.62368 0.98921 0.0
C141 C 0.65414 0.59766 0.95016 0.0
C142 C 0.64921 0.60077 0.98877 0.0
C143 C 0.96393 0.58985 0.97335 0.0
C144 C 0.92509 0.57774 0.96364 0.0
C145 C 0.86445 0.57484 0.94092 0.0
C146 C 0.94896 0.56891 0.97694 0.0
C147 C 0.91205 0.55735 0.96794 0.0
C148 C 0.8274 0.56353 0.93227 0.0
C149 C 0.85083 0.55484 0.94565 0.0
C150 C 0.96343 0.62935 0.9374 0.0
C151 C 0.83447 0.63806 0.02916 0.0
C152 C 0.92389 0.66938 0.02625 0.0
C153 C 0.94711 0.68289 0.04107 0.0
C154 C 1.00428 0.68717 0.06609 0.0
C155 C 0.9137 0.69154 0.02965 0.0
C156 C 0.93818 0.7043 0.04302 0.0
C157 C 1.02799 0.69976 0.07976 0.0
C158 C 0.99535 0.70827 0.06837 0.0
C159 C 0.98743 0.63104 0.07836 0.0
H160 H 0.84587 0.5812 0.9294 0.0
H161 H 0.9959 0.57105 0.99435 0.0
H162 H 0.78073 0.56141 0.91474 0.0
H163 H 0.82186 0.54598 0.93774 0.0
H164 H 0.03094 0.68079 0.07503 0.0
H165 H 0.86994 0.68828 0.00998 0.0
H166 H 0.07203 0.70292 0.09922 0.0
H167 H 1.01459 0.71804 0.07972 0.0
Gd168 Gd 0.10205 0.64778 0.53216 0.0
Gd169 Gd 0.13559 0.61301 0.48543 0.0
C170 C 0.35341 0.59658 0.44354 0.0
C171 C 0.33732 0.58649 0.37513 0.0
C172 C 0.23972 0.59736 0.41669 0.0
C173 C 0.28277 0.60066 0.44805 0.0
C174 C 0.26605 0.58998 0.37992 0.0
C175 C 0.38093 0.58978 0.4069 0.0
C176 C 0.39351 0.59904 0.47599 0.0
C177 C 0.36223 0.60501 0.5117 0.0
N178 N 0.25445 0.60717 0.48304 0.0
C179 C 0.29195 0.60887 0.51469 0.0
H180 H 0.26826 0.61351 0.54244 0.0
C181 C 0.12444 0.59625 0.39273 0.0
N182 N 0.17101 0.60077 0.42233 0.0
C183 C 0.14809 0.58894 0.35571 0.0
C184 C 0.21941 0.58595 0.34919 0.0
H185 H 0.06931 0.59859 0.39761 0.0
H186 H 0.43528 0.5867 0.40286 0.0
H187 H 0.97012 0.64873 0.47632 0.0
H188 H 0.44798 0.59609 0.47375 0.0
H189 H 0.39228 0.60672 0.53695 0.0
H190 H 0.35871 0.58093 0.34708 0.0
H191 H 0.16739 0.66074 0.6206 0.0
H192 H 0.79162 0.6661 0.54579 0.0
H193 H 0.84722 0.65592 0.4825 0.0
H194 H 0.87963 0.67925 0.67199 0.0
H195 H 0.11137 0.58566 0.33224 0.0
H196 H 0.23757 0.58026 0.3205 0.0
H197 H 0.80385 0.67457 0.61649 0.0
H198 H 0.12527 0.67288 0.68618 0.0
N199 N 0.9843 0.65446 0.53544 0.0
C200 C 0.84578 0.66296 0.54326 0.0
C201 C 0.87704 0.65726 0.50752 0.0
C202 C 0.88544 0.66487 0.57541 0.0
C203 C 0.95563 0.66054 0.57052 0.0
C204 C 0.94695 0.65319 0.50415 0.0
N205 N 0.06656 0.6596 0.59568 0.0
C206 C 0.99811 0.66319 0.60169 0.0
C207 C 0.0889 0.67019 0.66268 0.0
C208 C 1.01803 0.67352 0.66938 0.0
C209 C 0.11261 0.66332 0.62544 0.0
C210 C 0.97182 0.6702 0.63869 0.0
H211 H 0.99988 0.67889 0.69825 0.0
O212 O 0.16861 0.66472 0.55004 0.0
O213 O 0.18474 0.63251 0.50683 0.0
O214 O 0.14234 0.62133 0.55 0.0
O215 O 0.07066 0.63934 0.57193 0.0
O216 O 0.21164 0.6482 0.55577 0.0
O217 O 0.09739 0.66008 0.50293 0.0
O218 O 0.07166 0.59576 0.46805 0.0
O219 O 0.05419 0.62827 0.50966 0.0
O220 O 0.08674 0.63921 0.46841 0.0
O221 O 0.15598 0.62085 0.44255 0.0
O222 O 1.02297 0.61189 0.46411 0.0
O223 O 0.15104 0.60003 0.5115 0.0
C224 C 0.23485 0.63755 0.5301 0.0
C225 C 0.90101 0.67397 0.64378 0.0
C226 C 0.85787 0.67131 0.61218 0.0
C227 C 0.14172 0.66846 0.52583 0.0
C228 C 0.12001 0.68206 0.54125 0.0
C229 C 0.06818 0.68667 0.56939 0.0
C230 C 0.1504 0.69052 0.52802 0.0
C231 C 0.12791 0.70343 0.54259 0.0
C232 C 0.04606 0.69936 0.58395 0.0
C233 C 0.07548 0.70768 0.57069 0.0
C234 C 0.10149 0.62985 0.57632 0.0
C235 C 1.00187 0.62298 0.48841 0.0
C236 C 0.10107 0.59223 0.49215 0.0
C237 C 0.05425 0.58764 0.51363 0.0
C238 C 1.00614 0.59595 0.53977 0.0
C239 C 0.05942 0.57487 0.50876 0.0
C240 C 1.01682 0.57036 0.53 0.0
C241 C 0.96366 0.59158 0.56084 0.0
C242 C 0.96878 0.57891 0.55606 0.0
C243 C 0.12135 0.63031 0.43972 0.0
H244 H 0.04489 0.6805 0.58029 0.0
H245 H 0.19053 0.68705 0.50626 0.0
H246 H 1.00608 0.70278 0.60575 0.0
H247 H 0.05788 0.71754 0.58295 0.0
H248 H 1.00171 0.6058 0.54395 0.0
H249 H 0.09761 0.56855 0.48895 0.0
H250 H 0.92651 0.59803 0.58099 0.0
H251 H 0.93442 0.57579 0.5725 0.0
Gd252 Gd 0.92941 0.39658 0.53156 0.0
Gd253 Gd 0.96305 0.36181 0.48407 0.0
C254 C 0.17949 0.34475 0.44036 0.0
C255 C 0.16391 0.33593 0.37203 0.0
C256 C 0.06685 0.34658 0.41432 0.0
C257 C 0.10933 0.34909 0.4454 0.0
C258 C 0.09315 0.33973 0.37725 0.0
C259 C 0.20703 0.33844 0.40354 0.0
C260 C 0.21917 0.34653 0.47239 0.0
C261 C 0.188 0.35215 0.50817 0.0
N262 N 0.08072 0.35508 0.48053 0.0
C263 C 0.11812 0.35624 0.51169 0.0
H264 H 0.09499 0.36063 0.53955 0.0
C265 C 0.95248 0.34668 0.39071 0.0
N266 N 0.99846 0.35021 0.42045 0.0
C267 C 0.97623 0.33998 0.35341 0.0
C268 C 0.04703 0.3366 0.34661 0.0
H269 H 0.89777 0.34931 0.39563 0.0
H270 H 0.26103 0.33516 0.39912 0.0
H271 H 0.79543 0.39638 0.47572 0.0
H272 H 0.27332 0.34338 0.46975 0.0
H273 H 0.21785 0.35339 0.5331 0.0
H274 H 0.1853 0.33077 0.34377 0.0
H275 H 0.99759 0.41059 0.61909 0.0
H276 H 0.61725 0.41379 0.54584 0.0
H277 H 0.67147 0.40329 0.48223 0.0
H278 H 0.70944 0.42847 0.6718 0.0
H279 H 0.93992 0.33744 0.32993 0.0
H280 H 0.0652 0.33137 0.31769 0.0
H281 H 0.63161 0.42296 0.61661 0.0
H282 H 0.95697 0.42333 0.68481 0.0
N283 N 0.8106 0.40254 0.53494 0.0
C284 C 0.67168 0.41079 0.54315 0.0
C285 C 0.70213 0.40489 0.50721 0.0
C286 C 0.71255 0.41312 0.57526 0.0
C287 C 0.7831 0.40898 0.57017 0.0
C288 C 0.77235 0.40097 0.50364 0.0
N289 N 0.89545 0.40867 0.59501 0.0
C290 C 0.82687 0.41215 0.60119 0.0
C291 C 0.91977 0.4202 0.66158 0.0
C292 C 0.84863 0.42327 0.66862 0.0
C293 C 0.94261 0.413 0.62433 0.0
C294 C 0.80136 0.41943 0.63821 0.0
H295 H 0.8311 0.42888 0.69748 0.0
O296 O 0.99357 0.41379 0.54859 0.0
O297 O 1.01091 0.38133 0.50703 0.0
O298 O 0.97844 0.37025 0.54775 0.0
O299 O 0.9085 0.38852 0.57383 0.0
O300 O 0.04213 0.39767 0.55272 0.0
O301 O 0.91297 0.40962 0.5058 0.0
O302 O 0.89697 0.34481 0.46569 0.0
O303 O 0.88046 0.37705 0.50954 0.0
O304 O 0.92189 0.38833 0.46705 0.0
O305 O 0.99476 0.37049 0.44504 0.0
O306 O 0.85325 0.36142 0.46063 0.0
O307 O 0.96751 0.34946 0.51312 0.0
C308 C 0.06321 0.3866 0.52832 0.0
C309 C 0.7302 0.42298 0.64356 0.0
C310 C 0.68588 0.41984 0.61213 0.0
C311 C 0.96344 0.41736 0.52476 0.0
C312 C 1.00958 0.42192 0.50289 0.0
C313 C 0.05736 0.41358 0.47656 0.0
C314 C 1.004 0.43465 0.50755 0.0
C315 C 0.04591 0.43912 0.48592 0.0
C316 C 0.09908 0.4179 0.45508 0.0
C317 C 0.09358 0.43054 0.45967 0.0
C318 C 0.94325 0.37903 0.57643 0.0
C319 C 0.83016 0.37207 0.48638 0.0
C320 C 0.92361 0.34105 0.48993 0.0
C321 C 0.94568 0.32748 0.47449 0.0
C322 C 0.99727 0.32289 0.44622 0.0
C323 C 0.91581 0.31903 0.48789 0.0
C324 C 0.93855 0.30615 0.47336 0.0
C325 C 1.01972 0.31022 0.43173 0.0
C326 C 0.99081 0.30191 0.44517 0.0
C327 C 0.96335 0.37996 0.44078 0.0
H328 H 0.06211 0.40375 0.47256 0.0
H329 H 0.96606 0.44099 0.5275 0.0
H330 H 0.13595 0.41142 0.43478 0.0
H331 H 0.12742 0.43362 0.44293 0.0
H332 H 1.0201 0.32906 0.43516 0.0
H333 H 0.87584 0.3225 0.50973 0.0
H334 H 0.05954 0.30681 0.40984 0.0
H335 H 1.00861 0.29206 0.43296 0.0
Gd336 Gd 0.60527 0.86157 0.98113 0.0
Gd337 Gd 0.63516 0.89669 0.02155 0.0
C338 C 0.85883 0.90454 0.99355 0.0
C339 C 0.91786 0.91135 0.0541 0.0
C340 C 0.79445 0.90486 0.04761 0.0
C341 C 0.79579 0.90256 0.00959 0.0
C342 C 0.85591 0.9093 0.07007 0.0
C343 C 0.91934 0.90897 0.01598 0.0
C344 C 0.86003 0.90179 0.95513 0.0
C345 C 0.79974 0.89714 0.93341 0.0
N346 N 0.73709 0.89786 0.98788 0.0
C347 C 0.73863 0.8953 0.95018 0.0
H348 H 0.69369 0.89195 0.93206 0.0
C349 C 0.73166 0.90543 0.10043 0.0
N350 N 0.73429 0.90253 0.06249 0.0
C351 C 0.79132 0.90966 0.12334 0.0
C352 C 0.85385 0.9115 0.10807 0.0
H353 H 0.68362 0.90513 0.11444 0.0
H354 H 0.96791 0.91046 0.00397 0.0
H355 H 0.48111 0.86272 0.04358 0.0
H356 H 0.90739 0.90314 0.9419 0.0
H357 H 0.80008 0.89501 0.9036 0.0
H358 H 0.96522 0.91471 0.07098 0.0
H359 H 0.6595 0.845 0.89156 0.0
H360 H 0.29253 0.84595 0.9828 0.0
H361 H 0.35749 0.85647 0.04338 0.0
H362 H 0.36238 0.83002 0.85273 0.0
H363 H 0.7885 0.91177 0.15311 0.0
H364 H 0.89993 0.91485 0.12604 0.0
H365 H 0.29421 0.83648 0.91161 0.0
H366 H 0.60816 0.83209 0.82815 0.0
N367 N 0.48676 0.85602 0.98362 0.0
C368 C 0.34708 0.84864 0.98266 0.0
C369 C 0.38361 0.85454 0.01689 0.0
C370 C 0.38201 0.84593 0.94858 0.0
C371 C 0.45299 0.84967 0.95001 0.0
C372 C 0.45393 0.8581 0.01684 0.0
N373 N 0.56081 0.84879 0.91985 0.0
C374 C 0.49109 0.84605 0.91696 0.0
C375 C 0.57455 0.83604 0.85286 0.0
C376 C 0.5021 0.83387 0.84911 0.0
C377 C 0.60345 0.84331 0.88875 0.0
C378 C 0.45963 0.8386 0.8815 0.0
H379 H 0.47993 0.82812 0.82132 0.0
O380 O 0.67406 0.84493 0.96367 0.0
O381 O 0.68679 0.87743 0.00563 0.0
O382 O 0.59466 0.89017 0.96155 0.0
O383 O 0.57975 0.86781 0.93511 0.0
O384 O 0.71162 0.86149 0.95586 0.0
O385 O 0.60315 0.84932 0.01046 0.0
O386 O 0.61891 0.9157 0.06684 0.0
O387 O 0.55747 0.88082 0.00484 0.0
O388 O 0.6005 0.87028 0.04541 0.0
O389 O 0.60445 0.89269 0.07098 0.0
O390 O 0.51611 0.89886 0.02855 0.0
O391 O 0.62381 0.91302 0.00835 0.0
C392 C 0.73527 0.87219 0.98131 0.0
C393 C 0.38777 0.83559 0.87974 0.0
C394 C 0.349 0.83924 0.91326 0.0
C395 C 0.64803 0.8411 0.98781 0.0
C396 C 0.62714 0.82747 0.97259 0.0
C397 C 0.57249 0.82281 0.94601 0.0
C398 C 0.66002 0.81908 0.98521 0.0
C399 C 0.63737 0.80621 0.97156 0.0
C400 C 0.55055 0.81011 0.93212 0.0
C401 C 0.58254 0.80186 0.94477 0.0
C402 C 0.57854 0.87895 0.93322 0.0
C403 C 0.49957 0.88691 0.01362 0.0
C404 C 0.61249 0.92105 0.04364 0.0
C405 C 0.55428 0.93026 0.05072 0.0
C406 C 0.49196 0.92921 0.06839 0.0
C407 C 0.5617 0.94041 0.04019 0.0
C408 C 0.50715 0.9494 0.04695 0.0
C409 C 0.43767 0.93799 0.07491 0.0
C410 C 0.44501 0.94799 0.06431 0.0
C411 C 0.5981 0.88183 0.07428 0.0
H412 H 0.54643 0.82898 0.93603 0.0
H413 H 0.70192 0.82262 0.00602 0.0
H414 H 0.50841 0.80665 0.9115 0.0
H415 H 0.56477 0.792 0.93325 0.0
H416 H 0.48519 0.92167 0.07747 0.0
H417 H 0.60978 0.94126 0.02658 0.0
H418 H 0.38984 0.93711 0.08858 0.0
H419 H 0.40247 0.9548 0.07048 0.0
Gd420 Gd 0.4272 0.11402 0.99502 0.0
Gd421 Gd 0.45791 0.14919 0.03706 0.0
C422 C 0.6786 0.166 0.07017 0.0
C423 C 0.67094 0.17688 0.13892 0.0
C424 C 0.56977 0.16544 0.10147 0.0
C425 C 0.60834 0.16187 0.06853 0.0
C426 C 0.59989 0.17334 0.13695 0.0
C427 C 0.71027 0.1732 0.10557 0.0
C428 C 0.71415 0.16315 0.03617 0.0
C429 C 0.67883 0.15674 0.00175 0.0
N430 N 0.57571 0.1551 0.03478 0.0
C431 C 0.60903 0.15289 0.00158 0.0
H432 H 0.58274 0.14791 0.97471 0.0
C433 C 0.45775 0.16706 0.12944 0.0
N434 N 0.50084 0.16208 0.09844 0.0
C435 C 0.48532 0.17486 0.16528 0.0
C436 C 0.55692 0.17787 0.16915 0.0
H437 H 0.40236 0.16478 0.12658 0.0
H438 H 0.76444 0.17633 0.1074 0.0
H439 H 0.3603 0.11902 0.08264 0.0
H440 H 0.76822 0.16612 0.0362 0.0
H441 H 0.70543 0.15469 0.9753 0.0
H442 H 0.6953 0.18281 0.16595 0.0
H443 H 0.39002 0.10348 0.89988 0.0
H444 H 0.14666 0.10746 0.0679 0.0
H445 H 0.25103 0.11575 0.1087 0.0
H446 H 0.10065 0.09547 0.93723 0.0
H447 H 0.45135 0.17856 0.18987 0.0
H448 H 0.57805 0.18397 0.19691 0.0
H449 H 0.09132 0.10008 0.0044 0.0
H450 H 0.28858 0.09667 0.85829 0.0
N451 N 0.32187 0.11263 0.02573 0.0
C452 C 0.19546 0.10877 0.05573 0.0
C453 C 0.25413 0.11349 0.07884 0.0
C454 C 0.20009 0.10594 0.01731 0.0
C455 C 0.26493 0.10786 0.00268 0.0
C456 C 0.31694 0.11536 0.06346 0.0
N457 N 0.33252 0.10734 0.95097 0.0
C458 C 0.27012 0.10533 0.96461 0.0
C459 C 0.2822 0.09932 0.88826 0.0
C460 C 0.21715 0.098 0.90231 0.0
C461 C 0.33975 0.10367 0.91273 0.0
C462 C 0.21067 0.10074 0.9406 0.0
H463 H 0.17275 0.0945 0.88314 0.0
O464 O 0.44475 0.09462 0.95223 0.0
O465 O 0.50506 0.12989 0.01305 0.0
O466 O 0.46247 0.14088 0.97288 0.0
O467 O 0.45594 0.11846 0.94624 0.0
O468 O 0.54567 0.11194 0.98457 0.0
O469 O 0.44236 0.09854 0.01178 0.0
O470 O 0.38895 0.16581 0.05506 0.0
O471 O 0.3761 0.1334 0.01239 0.0
O472 O 0.4632 0.12063 0.05582 0.0
O473 O 0.49081 0.14255 0.08143 0.0
O474 O 0.35192 0.14912 0.0627 0.0
O475 O 0.4589 0.16145 0.00777 0.0
C476 C 0.56266 0.12386 0.00189 0.0
C477 C 0.14658 0.09891 0.95527 0.0
C478 C 0.14133 0.10149 0.99347 0.0
C479 C 0.45281 0.08996 0.97703 0.0
C480 C 0.51137 0.08088 0.9708 0.0
C481 C 0.57363 0.08178 0.95283 0.0
C482 C 0.50397 0.07088 0.982 0.0
C483 C 0.55847 0.06191 0.97561 0.0
C484 C 0.62797 0.07305 0.94682 0.0
C485 C 0.62064 0.0632 0.95808 0.0
C486 C 0.46314 0.12942 0.94365 0.0
C487 C 0.32774 0.13856 0.03682 0.0
C488 C 0.41393 0.16961 0.0306 0.0
C489 C 0.4337 0.18329 0.04534 0.0
C490 C 0.48798 0.18823 0.07203 0.0
C491 C 0.40003 0.19145 0.03212 0.0
C492 C 0.42174 0.20436 0.04521 0.0
C493 C 0.50913 0.20095 0.08529 0.0
C494 C 0.4765 0.20896 0.07197 0.0
C495 C 0.48591 0.13146 0.08371 0.0
H496 H 0.58027 0.08912 0.94298 0.0
H497 H 0.45582 0.07011 -0.00431 0.0
H498 H 0.67575 0.07382 0.93292 0.0
H499 H 0.66314 0.0564 0.95218 0.0
H500 H 0.51434 0.18226 0.08262 0.0
H501 H 0.35822 0.18772 0.01133 0.0
H502 H 0.5511 0.20461 0.10596 0.0
H503 H 0.49361 0.21885 0.08298 0.0
Gd504 Gd 0.61815 0.14828 0.537 0.0
Gd505 Gd 0.6488 0.1134 0.49329 0.0
C506 C 0.87798 0.10317 0.50251 0.0
C507 C 0.91298 0.09249 0.43641 0.0
C508 C 0.79396 0.10072 0.45318 0.0
C509 C 0.81019 0.10517 0.49132 0.0
C510 C 0.84476 0.09402 0.42532 0.0
C511 C 0.92952 0.09704 0.47492 0.0
C512 C 0.89197 0.10731 0.54112 0.0
C513 C 0.83896 0.11317 0.56752 0.0
N514 N 0.75971 0.11133 0.51745 0.0
C515 C 0.77291 0.1151 0.55521 0.0
H516 H 0.73356 0.11982 0.57634 0.0
C517 C 0.70625 0.09589 0.40629 0.0
N518 N 0.72755 0.10228 0.44324 0.0
C519 C 0.75475 0.08931 0.37763 0.0
C520 C 0.82475 0.0886 0.38712 0.0
H521 H 0.65156 0.09594 0.39895 0.0
H522 H 0.98205 0.0956 0.48307 0.0
H523 H 0.48921 0.14809 0.47784 0.0
H524 H 0.94332 0.10595 0.55081 0.0
H525 H 0.84913 0.11635 0.59747 0.0
H526 H 0.95283 0.08751 0.41541 0.0
H527 H 0.67899 0.16517 0.62535 0.0
H528 H 0.30342 0.16372 0.5427 0.0
H529 H 0.36467 0.1541 0.48092 0.0
H530 H 0.38338 0.1789 0.67098 0.0
H531 H 0.73787 0.08464 0.34832 0.0
H532 H 0.86217 0.08338 0.36492 0.0
H533 H 0.3103 0.17254 0.61369 0.0
H534 H 0.6321 0.17776 0.68991 0.0
N535 N 0.49881 0.15386 0.53729 0.0
C536 C 0.3583 0.16109 0.54157 0.0
C537 C 0.39275 0.15571 0.50667 0.0
C538 C 0.39586 0.16348 0.57472 0.0
C539 C 0.4672 0.15984 0.57163 0.0
C540 C 0.46361 0.1523 0.50509 0.0
N541 N 0.57806 0.16101 0.59927 0.0
C542 C 0.50813 0.16346 0.60377 0.0
C543 C 0.59658 0.17372 0.66597 0.0
C544 C 0.52416 0.17556 0.67138 0.0
C545 C 0.62297 0.16664 0.62941 0.0
C546 C 0.4791 0.17072 0.63997 0.0
H547 H 0.50392 0.18117 0.69968 0.0
O548 O 0.68466 0.16525 0.55431 0.0
O549 O 0.69953 0.13274 0.51121 0.0
O550 O 0.61761 0.1199 0.55486 0.0
O551 O 0.60152 0.14212 0.58381 0.0
O552 O 0.72808 0.14876 0.55952 0.0
O553 O 0.61283 0.16051 0.50764 0.0
O554 O 0.59487 0.09528 0.46119 0.0
O555 O 0.56756 0.12884 0.51658 0.0
O556 O 0.60781 0.13999 0.473 0.0
O557 O 0.65627 0.11941 0.44568 0.0
O558 O 0.54073 0.11272 0.46804 0.0
O559 O 0.64769 0.09874 0.51379 0.0
C560 C 0.75038 0.13801 0.53387 0.0
C561 C 0.40689 0.17349 0.64338 0.0
C562 C 0.36531 0.16988 0.61077 0.0
C563 C 0.6572 0.16894 0.53017 0.0
C564 C 0.63484 0.1825 0.54541 0.0
C565 C 0.57936 0.18683 0.57143 0.0
C566 C 0.66748 0.19113 0.5336 0.0
C567 C 0.6439 0.20396 0.54758 0.0
C568 C 0.55653 0.19947 0.58568 0.0
C569 C 0.5884 0.20798 0.57392 0.0
C570 C 0.60391 0.13084 0.58463 0.0
C571 C 0.51777 0.1236 0.49306 0.0
C572 C 0.60818 0.09094 0.48624 0.0
C573 C 0.54943 0.08509 0.49764 0.0
C574 C 0.48754 0.09199 0.51249 0.0
C575 C 0.55676 0.07268 0.49539 0.0
C576 C 0.50258 0.06713 0.50801 0.0
C577 C 0.4334 0.08654 0.52472 0.0
C578 C 0.44071 0.07422 0.52256 0.0
C579 C 0.63083 0.1297 0.44351 0.0
H580 H 0.55339 0.18046 0.58073 0.0
H581 H 0.70996 0.18783 0.51319 0.0
H582 H 0.51382 0.20268 0.60591 0.0
H583 H 0.56991 0.21778 0.58581 0.0
H584 H 0.48138 0.10162 0.51492 0.0
H585 H 0.60534 0.0675 0.48465 0.0
H586 H 0.38564 0.0919 0.53607 0.0
H587 H 0.3976 0.07021 0.53202 0.0
Gd588 Gd 0.41406 0.89648 0.5243 0.0
Gd589 Gd 0.44629 0.86166 0.47922 0.0
C590 C 0.66437 0.84461 0.44002 0.0
C591 C 0.65214 0.83499 0.3714 0.0
C592 C 0.55335 0.84598 0.4117 0.0
C593 C 0.59417 0.84889 0.44365 0.0
C594 C 0.58128 0.83871 0.37524 0.0
C595 C 0.69364 0.83795 0.40375 0.0
C596 C 0.70233 0.8468 0.47292 0.0
C597 C 0.6694 0.8527 0.50816 0.0
N598 N 0.56388 0.85517 0.47826 0.0
C599 C 0.59951 0.85669 0.5103 0.0
H600 H 0.57503 0.86127 0.53779 0.0
C601 C 0.44001 0.84544 0.38609 0.0
N602 N 0.48473 0.84952 0.41648 0.0
C603 C 0.4654 0.8383 0.34934 0.0
C604 C 0.53652 0.83505 0.34383 0.0
H605 H 0.38504 0.84796 0.39012 0.0
H606 H 0.7477 0.83471 0.40041 0.0
H607 H 0.29582 0.89456 0.45768 0.0
H608 H 0.75644 0.84371 0.47136 0.0
H609 H 0.69788 0.85424 0.53374 0.0
H610 H 0.67479 0.82952 0.34361 0.0
H611 H 0.45848 0.9135 0.61517 0.0
H612 H 0.10125 0.91018 0.5124 0.0
H613 H 0.17232 0.90005 0.45399 0.0
H614 H 0.15764 0.92656 0.64444 0.0
H615 H 0.43012 0.83532 0.3253 0.0
H616 H 0.55596 0.82946 0.31535 0.0
H617 H 0.09575 0.91973 0.58349 0.0
H618 H 0.40035 0.92587 0.67701 0.0
N619 N 0.2955 0.90122 0.51777 0.0
C620 C 0.15578 0.90783 0.51428 0.0
C621 C 0.19575 0.90214 0.48127 0.0
C622 C 0.18733 0.91079 0.54941 0.0
C623 C 0.2585 0.90749 0.55025 0.0
C624 C 0.26607 0.89902 0.48356 0.0
N625 N 0.3629 0.9089 0.58393 0.0
C626 C 0.29317 0.91133 0.58446 0.0
C627 C 0.36939 0.92171 0.65126 0.0
C628 C 0.29667 0.92346 0.65263 0.0
C629 C 0.40206 0.91466 0.61635 0.0
C630 C 0.25786 0.91856 0.61886 0.0
H631 H 0.2715 0.92905 0.67964 0.0
O632 O 0.47548 0.91407 0.5467 0.0
O633 O 0.49517 0.8811 0.501 0.0
O634 O 0.45756 0.86977 0.54319 0.0
O635 O 0.40154 0.88972 0.57004 0.0
O636 O 0.52498 0.89741 0.54741 0.0
O637 O 0.41 0.90937 0.49723 0.0
O638 O 0.37932 0.84474 0.4602 0.0
O639 O 0.36411 0.87706 0.50441 0.0
O640 O 0.41515 0.88828 0.45972 0.0
O641 O 0.48027 0.86947 0.43803 0.0
O642 O 0.33778 0.8615 0.45489 0.0
O643 O 0.44863 0.84922 0.50802 0.0
C644 C 0.54651 0.88633 0.52316 0.0
C645 C 0.18589 0.92116 0.61829 0.0
C646 C 0.15069 0.91729 0.58359 0.0
C647 C 0.45525 0.9174 0.52041 0.0
C648 C 0.50991 0.92216 0.50315 0.0
C649 C 0.56714 0.91445 0.48429 0.0
C650 C 0.50425 0.93459 0.50538 0.0
C651 C 0.55582 0.93943 0.48905 0.0
C652 C 0.6186 0.91914 0.46816 0.0
C653 C 0.61325 0.93152 0.47055 0.0
C654 C 0.43053 0.8797 0.57234 0.0
C655 C 0.31434 0.87208 0.48084 0.0
C656 C 0.4046 0.84091 0.48458 0.0
C657 C 0.42558 0.82727 0.46932 0.0
C658 C 0.47724 0.82251 0.44114 0.0
C659 C 0.39482 0.81894 0.48291 0.0
C660 C 0.41677 0.80601 0.46863 0.0
C661 C 0.49877 0.8098 0.42683 0.0
C662 C 0.46898 0.8016 0.44042 0.0
C663 C 0.45352 0.87924 0.43343 0.0
H664 H 0.57198 0.90483 0.48213 0.0
H665 H 0.45904 0.94039 0.51938 0.0
H666 H 0.66299 0.91318 0.45382 0.0
H667 H 0.65463 0.93494 0.45824 0.0
H668 H 0.50091 0.82858 0.43001 0.0
H669 H 0.35487 0.82253 0.50475 0.0
H670 H 0.53863 0.80626 0.40498 0.0
H671 H 0.48617 0.79172 0.42837 0.0
C672 C 0.33039 0.37779 0.02869 0.0
C673 C 0.29717 0.37457 0.99354 0.0
C674 C 0.40441 0.37889 0.03217 0.0
C675 C 0.56755 0.38185 0.98062 0.0
H676 H 0.66492 0.37283 0.0526 0.0
C677 C 0.87663 0.37933 0.98568 0.0
C678 C 0.90834 0.38363 0.02166 0.0
C679 C 0.80272 0.37797 0.98149 0.0
C680 C 0.63887 0.37552 0.03251 0.0
H681 H 0.31678 0.36904 0.93407 0.0
H682 H 0.44442 0.37086 0.93981 0.0
H683 H 0.53718 0.37118 0.0478 0.0
H684 H 0.88629 0.39071 0.08154 0.0
H685 H 0.75895 0.3882 0.07444 0.0
H686 H 0.66957 0.38609 0.9652 0.0
C687 C 0.41397 0.37304 0.96521 0.0
C688 C 0.5649 0.3746 0.02981 0.0
C689 C 0.3403 0.37192 0.9618 0.0
C690 C 0.86394 0.38697 0.05328 0.0
C691 C 0.79055 0.38549 0.04914 0.0
C692 C 0.64159 0.3827 0.98321 0.0
C693 C 0.44781 0.37661 0.00048 0.0
C694 C 0.52752 0.37775 0.00382 0.0
C695 C 0.75823 0.38096 0.0132 0.0
C696 C 0.6788 0.37961 0.00932 0.0
H697 H 0.29913 0.37949 0.05354 0.0
H698 H 0.42742 0.38172 0.05995 0.0
H699 H 0.54167 0.38463 0.96068 0.0
H700 H 0.90888 0.37711 0.96082 0.0
H701 H 0.78054 0.37445 0.95327 0.0
C702 C 0.18866 0.62333 0.96349 0.0
C703 C 0.14461 0.62668 -0.00473 0.0
C704 C 0.26214 0.62481 0.96739 0.0
C705 C 0.41167 0.62784 0.03358 0.0
H706 H 0.51661 0.63849 0.96719 0.0
C707 C 0.71271 0.6388 0.05505 0.0
C708 C 0.75639 0.63588 0.02333 0.0
C709 C 0.6391 0.6376 0.05139 0.0
C710 C 0.48873 0.63532 0.98571 0.0
H711 H 0.14484 0.6334 0.05618 0.0
H712 H 0.27313 0.63609 0.0633 0.0
H713 H 0.38883 0.6369 0.96246 0.0
H714 H 0.75524 0.63038 0.96299 0.0
H715 H 0.62694 0.62802 0.95617 0.0
H716 H 0.51147 0.62613 0.05662 0.0
C717 C 0.25071 0.63249 0.03512 0.0
C718 C 0.4147 0.63443 0.98304 0.0
C719 C 0.17675 0.63113 0.03118 0.0
C720 C 0.72363 0.63229 0.98788 0.0
C721 C 0.64959 0.63112 0.98415 0.0
C722 C 0.48573 0.62868 0.03616 0.0
C723 C 0.29493 0.62939 0.00324 0.0
C724 C 0.37453 0.63066 0.00689 0.0
C725 C 0.60571 0.63368 0.01587 0.0
C726 C 0.52597 0.63248 0.01236 0.0
H727 H 0.166 0.61952 0.93529 0.0
H728 H 0.29342 0.62202 0.94195 0.0
H729 H 0.38362 0.62469 0.05211 0.0
H730 H 0.73577 0.64197 0.083 0.0
H731 H 0.60831 0.64002 0.07682 0.0
C732 C 0.88068 0.62278 0.46265 0.0
C733 C 0.92487 0.62617 0.49445 0.0
C734 C 0.8072 0.62422 0.46648 0.0
C735 C 0.66202 0.64002 0.53703 0.0
H736 H 0.54442 0.61489 0.45918 0.0
C737 C 0.35748 0.639 0.55574 0.0
C738 C 0.31286 0.63531 0.52397 0.0
C739 C 0.43106 0.63786 0.55182 0.0
C740 C 0.576 0.62214 0.48104 0.0
H741 H 0.92477 0.63316 0.55546 0.0
H742 H 0.79662 0.63579 0.56245 0.0
H743 H 0.67204 0.6131 0.45383 0.0
H744 H 0.31231 0.6281 0.46289 0.0
H745 H 0.44072 0.62606 0.45577 0.0
H746 H 0.566 0.64905 0.56424 0.0
C747 C 0.81894 0.63231 0.53431 0.0
C748 C 0.64997 0.62111 0.47799 0.0
C749 C 0.89286 0.63086 0.53041 0.0
C750 C 0.34462 0.63071 0.48796 0.0
C751 C 0.41867 0.62956 0.48397 0.0
C752 C 0.58805 0.64105 0.54007 0.0
C753 C 0.77445 0.62891 0.50232 0.0
C754 C 0.6947 0.63002 0.5059 0.0
C755 C 0.46353 0.63316 0.51591 0.0
C756 C 0.54331 0.63213 0.51218 0.0
H757 H 0.9032 0.61892 0.43446 0.0
H758 H 0.77604 0.62165 0.44105 0.0
H759 H 0.69364 0.64725 0.55892 0.0
H760 H 0.33519 0.64273 0.58397 0.0
H761 H 0.46246 0.64057 0.57723 0.0
C762 C 0.72048 0.37881 0.5286 0.0
C763 C 0.7522 0.37433 0.49259 0.0
C764 C 0.64644 0.37995 0.53263 0.0
C765 C 0.47706 0.3686 0.47645 0.0
H766 H 0.393 0.39635 0.56319 0.0
C767 C 0.17224 0.37878 0.48632 0.0
C768 C 0.14019 0.3834 0.52226 0.0
C769 C 0.24616 0.37733 0.48243 0.0
C770 C 0.41508 0.38841 0.53889 0.0
H771 H 0.72982 0.36713 0.43266 0.0
H772 H 0.60255 0.36927 0.43948 0.0
H773 H 0.52062 0.39459 0.55782 0.0
H774 H 0.16178 0.39048 0.58222 0.0
H775 H 0.28894 0.38775 0.57562 0.0
H776 H 0.37149 0.36244 0.45749 0.0
C777 C 0.63399 0.3719 0.46484 0.0
C778 C 0.48905 0.38739 0.53582 0.0
C779 C 0.70755 0.37077 0.46088 0.0
C780 C 0.18434 0.38669 0.55404 0.0
C781 C 0.25782 0.38525 0.55021 0.0
C782 C 0.40308 0.36962 0.47951 0.0
C783 C 0.60155 0.37647 0.50074 0.0
C784 C 0.52177 0.37748 0.5045 0.0
C785 C 0.29062 0.38065 0.5144 0.0
C786 C 0.37038 0.37955 0.51081 0.0
H787 H 0.75282 0.38132 0.55361 0.0
H788 H 0.62441 0.38335 0.56081 0.0
H789 H 0.49912 0.36066 0.45213 0.0
H790 H 0.14038 0.37656 0.4613 0.0
H791 H 0.26851 0.37392 0.45431 0.0
C792 C 0.84698 0.87723 0.0215 0.0
C793 C 0.81337 0.87419 0.98656 0.0
C794 C 0.92104 0.87817 0.02467 0.0
C795 C 0.08674 0.86792 0.96669 0.0
H796 H 0.17417 0.89503 0.05406 0.0
C797 C 0.39075 0.87782 0.97345 0.0
C798 C 0.4246 0.8826 0.00892 0.0
C799 C 0.31693 0.87625 0.97057 0.0
C800 C 0.15122 0.88723 0.02961 0.0
H801 H 0.83224 0.86883 0.92709 0.0
H802 H 0.96016 0.87053 0.93245 0.0
H803 H 0.04649 0.89329 0.05005 0.0
H804 H 0.40659 0.89017 0.06927 0.0
H805 H 0.2795 0.88698 0.0645 0.0
H806 H 0.1913 0.86174 0.9464 0.0
C807 C 0.92986 0.87238 0.95771 0.0
C808 C 0.07727 0.88626 0.02729 0.0
C809 C 0.85612 0.87152 0.95465 0.0
C810 C 0.38249 0.88604 0.0414 0.0
C811 C 0.30905 0.8844 0.03861 0.0
C812 C 0.16073 0.86882 0.96913 0.0
C813 C 0.96394 0.87575 0.99277 0.0
C814 C 0.04349 0.87662 -0.00428 0.0
C815 C 0.27439 0.87962 0.00319 0.0
C816 C 0.19467 0.87852 0.0006 0.0
H817 H 0.81602 0.87884 0.04638 0.0
H818 H 0.94474 0.88058 0.0521 0.0
H819 H 0.06341 0.86022 0.94212 0.0
H820 H 0.42112 0.87566 0.948 0.0
H821 H 0.29317 0.87277 0.94274 0.0
C822 C 0.2161 0.13341 -0.00368 0.0
C823 C 0.24945 0.13668 0.03147 0.0
C824 C 0.14199 0.13247 0.99301 0.0
C825 C 0.97855 0.13046 0.04609 0.0
H826 H 0.88131 0.13854 0.97217 0.0
C827 C 0.67052 0.13334 0.0429 0.0
C828 C 0.63784 0.12816 0.00706 0.0
C829 C 0.74428 0.13501 0.04638 0.0
C830 C 0.90736 0.13615 0.99288 0.0
H831 H 0.22993 0.14257 0.09113 0.0
H832 H 0.10236 0.14112 0.08576 0.0
H833 H 1.0093 0.13989 0.97628 0.0
H834 H 0.65805 0.12007 0.94679 0.0
H835 H 0.78536 0.12323 0.95264 0.0
H836 H 0.87639 0.12683 0.06286 0.0
C837 C 0.13264 0.13869 0.06016 0.0
C838 C 0.98146 0.13688 0.99516 0.0
C839 C 0.20635 0.13961 0.06337 0.0
C840 C 0.68111 0.12453 0.9749 0.0
C841 C 0.75446 0.12633 0.97831 0.0
C842 C 0.90448 0.12982 0.04398 0.0
C843 C 0.09861 0.13502 0.02489 0.0
C844 C 1.01878 0.13405 0.02184 0.0
C845 C 0.78778 0.13147 0.01408 0.0
C846 C 0.86732 0.13262 0.01728 0.0
H847 H 0.24732 0.13154 0.97134 0.0
H848 H 0.11891 0.12957 0.9652 0.0
H849 H 1.00423 0.1279 0.06653 0.0
H850 H 0.63934 0.13576 0.06823 0.0
H851 H 0.76726 0.13904 0.07448 0.0
C852 C 0.40756 0.13045 0.53452 0.0
C853 C 0.43991 0.12597 0.4987 0.0
C854 C 0.33354 0.13165 0.53817 0.0
C855 C 0.16476 0.12046 0.48196 0.0
H856 H 0.082 0.14911 0.56671 0.0
C857 C 0.85976 0.13058 0.4914 0.0
C858 C 0.82832 0.13562 0.52754 0.0
C859 C 0.93376 0.12925 0.4873 0.0
C860 C 0.10363 0.14091 0.543 0.0
H861 H 0.41877 0.11865 0.43861 0.0
H862 H 0.29128 0.12089 0.4448 0.0
H863 H 0.20943 0.14697 0.56167 0.0
H864 H 0.85126 0.14386 0.58761 0.0
H865 H 0.97813 0.14136 0.58075 0.0
H866 H 0.05897 0.11436 0.46336 0.0
C867 C 0.32233 0.12354 0.4703 0.0
C868 C 0.1775 0.13968 0.54012 0.0
C869 C 0.39594 0.12236 0.46672 0.0
C870 C 0.87325 0.13972 0.55928 0.0
C871 C 0.94667 0.13838 0.55528 0.0
C872 C 0.09082 0.12166 0.4849 0.0
C873 C 0.28936 0.12822 0.50606 0.0
C874 C 0.20973 0.12944 0.50953 0.0
C875 C 0.97883 0.13315 0.51926 0.0
C876 C 0.05854 0.13191 0.51552 0.0
H877 H 0.4394 0.13291 0.55969 0.0
H878 H 0.31093 0.13511 0.56624 0.0
H879 H 0.18662 0.1123 0.45819 0.0
H880 H 0.82723 0.12772 0.46631 0.0
H881 H 0.95559 0.12536 0.45899 0.0
C882 C 0.65565 0.87855 0.48117 0.0
C883 C 0.6238 0.88332 0.51718 0.0
C884 C 0.72955 0.87711 0.47717 0.0
C885 C 0.89534 0.87638 0.53065 0.0
H886 H 0.9894 0.88245 0.45217 0.0
C887 C 0.20461 0.87883 0.52316 0.0
C888 C 0.23613 0.87416 0.48707 0.0
C889 C 0.13057 0.87998 0.52731 0.0
C890 C 0.96444 0.88055 0.47408 0.0
H891 H 0.64589 0.89082 0.5772 0.0
H892 H 0.77313 0.88834 0.57051 0.0
H893 H 0.86176 0.88387 0.45723 0.0
H894 H 0.21319 0.86642 0.42707 0.0
H895 H 0.08591 0.86836 0.43403 0.0
H896 H 0.99813 0.87309 0.54754 0.0
C897 C 0.7417 0.88533 0.54501 0.0
C898 C 0.89039 0.88136 0.47697 0.0
C899 C 0.66821 0.88681 0.54894 0.0
C900 C 0.19119 0.87033 0.45538 0.0
C901 C 0.11764 0.87153 0.45946 0.0
C902 C 0.96942 0.87558 0.52777 0.0
C903 C 0.77427 0.88049 0.50908 0.0
C904 C 0.85407 0.8793 0.50533 0.0
C905 C 0.08546 0.87643 0.49548 0.0
C906 C 1.0057 0.87761 0.49936 0.0
H907 H 0.62358 0.87611 0.4561 0.0
H908 H 0.7515 0.87326 0.44889 0.0
H909 H 0.87038 0.8745 0.55258 0.0
H910 H 0.23716 0.88156 0.5482 0.0
H911 H 0.10884 0.88385 0.55564 0.0
C912 C 1.00892 0.54414 0.97693 0.0
C913 C 0.93765 0.54764 0.98041 0.0
C914 C 0.03138 0.53404 0.9849 0.0
C915 C 0.97915 0.51398 0.03346 0.0
H916 H 0.10924 0.48948 0.96301 0.0
C917 C 0.04459 0.46622 0.04015 0.0
C918 C 0.11578 0.46265 0.03616 0.0
C919 C 1.02184 0.47631 0.03222 0.0
C920 C 0.07339 0.49629 0.98317 0.0
H921 H 0.83476 0.54369 -0.00323 0.0
H922 H 0.87368 0.52606 0.01031 0.0
H923 H 0.07395 0.50816 0.95374 0.0
H924 H 0.21819 0.46649 0.01897 0.0
H925 H 0.17888 0.48413 0.00568 0.0
H926 H 0.97866 0.50212 0.06293 0.0
C927 C 0.91235 0.53109 0.00148 0.0
C928 C 0.0533 0.50703 0.97791 0.0
C929 C 0.88991 0.54114 0.9934 0.0
C930 C 0.16313 0.4691 0.02278 0.0
C931 C 0.14043 0.47914 0.01481 0.0
C932 C 0.99929 0.50325 0.03874 0.0
C933 C 0.98316 0.52727 -0.00325 0.0
C934 C 1.00593 0.51602 0.003 0.0
C935 C 0.0697 0.48302 0.01997 0.0
C936 C 0.0467 0.49426 0.01367 0.0
H937 H 0.04694 0.5489 0.96678 0.0
H938 H 0.08649 0.53147 0.98148 0.0
H939 H 0.94325 0.52079 0.0536 0.0
H940 H 1.00684 0.46151 0.05061 0.0
H941 H 0.96679 0.47892 0.03598 0.0
C942 C 0.03186 0.46293 0.52656 0.0
C943 C 0.04027 0.45263 0.49051 0.0
C944 C 1.02895 0.4756 0.53081 0.0
C945 C 0.99746 0.49499 0.47699 0.0
H946 H 0.09243 0.52175 0.56234 0.0
C947 C 0.03091 0.54655 0.48922 0.0
C948 C 1.02219 0.55683 0.52529 0.0
C949 C 0.03371 0.53387 0.48486 0.0
C950 C 0.06492 0.51444 0.53853 0.0
H951 H 0.05026 0.4477 0.43053 0.0
H952 H 0.04654 0.46969 0.43799 0.0
H953 H 0.09452 0.49977 0.55525 0.0
H954 H 1.01143 0.5617 0.58519 0.0
H955 H 1.01505 0.53969 0.57756 0.0
H956 H 0.96792 0.50966 0.46026 0.0
C957 C 0.04169 0.46801 0.46306 0.0
C958 C 0.06606 0.5018 0.53448 0.0
C959 C 0.0447 0.45536 0.45882 0.0
C960 C 1.01727 0.55406 0.5569 0.0
C961 C 1.02021 0.5414 0.55256 0.0
C962 C 0.99635 0.50764 0.48103 0.0
C963 C 0.03413 0.47834 0.49913 0.0
C964 C 0.03233 0.49187 0.50365 0.0
C965 C 1.02815 0.5311 0.51647 0.0
C966 C 1.03003 0.51756 0.51188 0.0
H967 H 1.02882 0.46125 0.55168 0.0
H968 H 1.0222 0.48326 0.55901 0.0
H969 H 0.96993 0.48769 0.45319 0.0
H970 H 0.03434 0.54827 0.46416 0.0
H971 H 0.04071 0.52623 0.45666 0.0
C972 C 0.57778 0.96747 0.04432 0.0
C973 C 0.51484 0.9604 0.03691 0.0
C974 C 0.58295 0.97836 0.03742 0.0
C975 C 0.49843 0.99485 0.98488 0.0
H976 H 0.59277 0.02491 0.05954 0.0
C977 C 0.4876 0.04392 0.97858 0.0
C978 C 0.55055 0.05099 0.98599 0.0
C979 C 0.48237 0.03305 0.98558 0.0
C980 C 0.56682 0.01657 0.03819 0.0
H981 H 0.40887 0.95901 0.01498 0.0
H982 H 0.41752 0.97802 0.00344 0.0
H983 H 0.5875 0.00538 0.06863 0.0
H984 H 0.65645 0.0524 0.00803 0.0
H985 H 0.64768 0.03342 0.01973 0.0
H986 H 0.47777 0.00604 0.95444 0.0
C987 C 0.4631 0.97515 0.01448 0.0
C988 C 0.56393 0.00534 0.04338 0.0
C989 C 0.45789 0.96431 0.02147 0.0
C990 C 0.60742 0.04711 0.00155 0.0
C991 C 0.60214 0.03628 0.00863 0.0
C992 C 0.50133 0.00608 0.9797 0.0
C993 C 0.52542 0.98242 0.02274 0.0
C994 C 0.52968 0.99432 0.0168 0.0
C995 C 0.53984 0.029 0.00033 0.0
C996 C 0.53556 0.0171 0.00628 0.0
H997 H 0.62253 0.9648 0.05646 0.0
H998 H 0.63209 0.98361 0.04365 0.0
H999 H 0.47248 0.98651 0.96353 0.0
H1000 H 0.44293 0.04657 0.96633 0.0
H1001 H 0.43324 0.02779 0.97931 0.0
C1002 C 0.48679 0.0515 0.53655 0.0
C1003 C 0.51046 0.05407 0.50643 0.0
C1004 C 0.49273 0.03921 0.53489 0.0
C1005 C 0.51212 0.00509 0.46705 0.0
H1006 H 0.56727 1.00078 0.55627 0.0
C1007 C 0.57059 0.95508 0.46039 0.0
C1008 C 0.54991 0.95262 0.49116 0.0
C1009 C 0.566 0.96743 0.4624 0.0
C1010 C 0.55088 1.00179 0.53118 0.0
H1011 H 0.55909 0.0456 0.45088 0.0
H1012 H 0.57012 0.0242 0.44813 0.0
H1013 H 0.5597 0.02225 0.55949 0.0
H1014 H 0.50833 0.96143 0.54841 0.0
H1015 H 0.49842 0.98285 0.55149 0.0
H1016 H 0.50263 0.98466 0.43879 0.0
C1017 C 0.54639 0.03169 0.47296 0.0
C1018 C 0.54668 0.01413 0.53303 0.0
C1019 C 0.54076 0.04401 0.47471 0.0
C1020 C 0.52407 0.96288 0.52395 0.0
C1021 C 0.51928 0.97524 0.52592 0.0
C1022 C 0.51605 0.99275 0.46524 0.0
C1023 C 0.52229 0.02912 0.503 0.0
C1024 C 0.52731 0.01595 0.50098 0.0
C1025 C 0.54029 0.97771 0.49518 0.0
C1026 C 0.53558 0.99091 0.49726 0.0
H1027 H 0.46393 0.05903 0.56163 0.0
H1028 H 0.47305 0.03758 0.55841 0.0
H1029 H 0.49591 0.00612 0.44198 0.0
H1030 H 0.58989 0.94743 0.43445 0.0
H1031 H 0.58352 0.96894 0.43829 0.0
C1032 C 0.10606 0.28877 -0.00216 0.0
C1033 C 0.14766 0.29663 0.98681 0.0
C1034 C 0.13614 0.27887 0.00423 0.0
C1035 C 0.29301 0.25796 0.97992 0.0
H1036 H 0.22256 0.24906 0.05848 0.0
C1037 C 0.4301 0.22135 0.02188 0.0
C1038 C 0.38812 0.21328 0.03188 0.0
C1039 C 0.39982 0.23097 0.01419 0.0
C1040 C 0.24217 0.2513 0.03604 0.0
H1041 H 0.2542 0.30052 0.97523 0.0
H1042 H 0.3073 0.28336 0.98717 0.0
H1043 H 0.17471 0.26759 0.05237 0.0
H1044 H 0.28109 0.20867 0.04024 0.0
H1045 H 0.22773 0.22547 0.02649 0.0
H1046 H 0.36094 0.2417 0.96387 0.0
C1047 C 0.25096 0.28472 0.99018 0.0
C1048 C 0.21486 0.26196 0.03259 0.0
C1049 C 0.22072 0.29467 0.98381 0.0
C1050 C 0.31475 0.2147 0.03246 0.0
C1051 C 0.28434 0.22442 0.02502 0.0
C1052 C 0.32049 0.24731 0.98346 0.0
C1053 C 0.20886 0.27656 -8e-05 0.0
C1054 C 0.23981 0.26545 0.00446 0.0
C1055 C 0.32667 0.23282 0.01645 0.0
C1056 C 0.29542 0.24383 0.01157 0.0
H1057 H 0.04969 0.29012 0.0009 0.0
H1058 H 0.10184 0.27277 0.01138 0.0
H1059 H 0.31264 0.26018 0.95747 0.0
H1060 H 0.48681 0.22043 0.02092 0.0
H1061 H 0.43411 0.23728 0.00792 0.0
C1062 C 0.74325 0.79573 0.98493 0.0
C1063 C 0.66992 0.79707 0.98445 0.0
C1064 C 0.77284 0.78594 0.99232 0.0
C1065 C 0.73266 0.76258 0.03178 0.0
H1066 H 0.88449 0.74306 0.96636 0.0
C1067 C 0.83203 0.71522 0.03165 0.0
C1068 C 0.90532 0.71368 0.03118 0.0
C1069 C 0.80242 0.72513 0.02481 0.0
C1070 C 0.84254 0.74847 0.98514 0.0
H1071 H 0.57037 0.78969 0.99347 0.0
H1072 H 0.6216 0.77267 0.00612 0.0
H1073 H 0.83731 0.76157 0.95986 0.0
H1074 H 1.00468 0.72088 0.02111 0.0
H1075 H 0.9535 0.73811 0.00964 0.0
H1076 H 0.73793 0.74948 0.0571 0.0
C1077 C 0.65652 0.77911 0.00079 0.0
C1078 C 0.81563 0.75913 0.98149 0.0
C1079 C 0.62707 0.78882 0.99324 0.0
C1080 C 0.94803 0.7219 0.02213 0.0
C1081 C 0.91858 0.73173 0.01521 0.0
C1082 C 0.75963 0.75192 0.03547 0.0
C1083 C 0.72972 0.77737 -0.00029 0.0
C1084 C 0.76029 0.76633 0.00473 0.0
C1085 C 0.84546 0.73363 0.01707 0.0
C1086 C 0.81496 0.74471 0.0122 0.0
H1087 H 0.77761 0.8019 0.97813 0.0
H1088 H 0.82949 0.78499 0.99179 0.0
H1089 H 0.69059 0.76797 0.05048 0.0
H1090 H 0.79774 0.70909 0.03866 0.0
H1091 H 0.74582 0.72619 0.02592 0.0
C1092 C 0.23174 0.71399 0.5273 0.0
C1093 C 0.15862 0.71273 0.52964 0.0
C1094 C 0.26002 0.72394 0.52011 0.0
C1095 C 0.21397 0.74819 0.48462 0.0
H1096 H 0.37409 0.76665 0.545 0.0
C1097 C 0.31264 0.79562 0.48434 0.0
C1098 C 0.38579 0.79683 0.48198 0.0
C1099 C 0.28413 0.78573 0.49177 0.0
C1100 C 0.32972 0.76155 0.52764 0.0
H1101 H 0.05794 0.7205 0.52411 0.0
H1102 H 0.10684 0.73778 0.51187 0.0
H1103 H 0.32825 0.74802 0.55153 0.0
H1104 H 0.48629 0.78905 0.48777 0.0
H1105 H 0.437 0.77189 0.50041 0.0
H1106 H 0.21547 0.7617 0.4607 0.0
C1107 C 0.14266 0.73115 0.51556 0.0
C1108 C 0.30355 0.75081 0.53128 0.0
C1109 C 0.11454 0.72128 0.52288 0.0
C1110 C 0.42966 0.78831 0.48901 0.0
C1111 C 0.40132 0.77851 0.49656 0.0
C1112 C 0.24014 0.75892 0.48096 0.0
C1113 C 0.2158 0.73279 0.51478 0.0
C1114 C 0.24529 0.74397 0.50983 0.0
C1115 C 0.32815 0.7769 0.49732 0.0
C1116 C 0.29845 0.76576 0.50239 0.0
H1117 H 0.26713 0.70761 0.53253 0.0
H1118 H 0.3166 0.72479 0.51914 0.0
H1119 H 0.16961 0.74308 0.46725 0.0
H1120 H 0.27741 0.80197 0.47891 0.0
H1121 H 0.22753 0.78492 0.49272 0.0
C1122 C 0.83503 0.29564 0.48905 0.0
C1123 C 0.9081 0.29687 0.48644 0.0
C1124 C 0.80687 0.28575 0.49654 0.0
C1125 C 0.85396 0.25367 0.49017 0.0
H1126 H 0.68692 0.25823 0.55123 0.0
C1127 C 0.74934 0.2147 0.53429 0.0
C1128 C 0.67603 0.21338 0.5355 0.0
C1129 C 0.77856 0.22465 0.5274 0.0
C1130 C 0.73319 0.25673 0.53372 0.0
H1131 H 1.00891 0.28916 0.49209 0.0
H1132 H 0.9602 0.27214 0.50571 0.0
H1133 H 0.7352 0.27639 0.54306 0.0
H1134 H 0.57613 0.22096 0.52791 0.0
H1135 H 0.62673 0.23813 0.51567 0.0
H1136 H 0.85195 0.23401 0.48091 0.0
C1137 C 0.92432 0.27853 0.50084 0.0
C1138 C 0.76092 0.26718 0.52904 0.0
C1139 C 0.95232 0.28835 0.49324 0.0
C1140 C 0.63282 0.22186 0.52796 0.0
C1141 C 0.66187 0.23175 0.52109 0.0
C1142 C 0.82628 0.24323 0.4949 0.0
C1143 C 0.8512 0.2769 0.50179 0.0
C1144 C 0.82169 0.2658 0.50718 0.0
C1145 C 0.73508 0.23347 0.52148 0.0
C1146 C 0.76535 0.2446 0.51663 0.0
H1147 H 0.79954 0.30197 0.48364 0.0
H1148 H 0.7503 0.28477 0.49682 0.0
H1149 H 0.90009 0.25216 0.47255 0.0
H1150 H 0.78408 0.20839 0.54022 0.0
H1151 H 0.83518 0.22569 0.52806 0.0
C1152 C 0.05595 0.39297 0.14819 0.0
C1153 C 0.08637 0.38209 0.11921 0.0
C1154 C 0.04227 0.39331 0.18367 0.0
C1155 C 1.02061 0.37169 0.23062 0.0
H1156 H 0.03823 0.40321 0.32299 0.0
C1157 C 1.02404 0.37285 0.37844 0.0
C1158 C 0.97626 0.38116 0.40515 0.0
C1159 C 0.03546 0.37352 0.34422 0.0
C1160 C 0.03248 0.39439 0.29733 0.0
H1161 H 0.12817 0.36316 0.10493 0.0
H1162 H 0.10691 0.36389 0.16725 0.0
H1163 H 0.06562 0.40318 0.2619 0.0
H1164 H 0.90607 0.39725 0.41767 0.0
H1165 H 0.92777 0.39862 0.3577 0.0
H1166 H 0.98991 0.36284 0.26636 0.0
C1167 C 0.09151 0.37205 0.16232 0.0
C1168 C 0.048 0.39435 0.26232 0.0
C1169 C 0.10425 0.37165 0.12666 0.0
C1170 C 0.94241 0.39058 0.39747 0.0
C1171 C 0.95493 0.3914 0.3633 0.0
C1172 C 1.00615 0.3717 0.26559 0.0
C1173 C 0.05944 0.38281 0.19115 0.0
C1174 C 0.04261 0.38297 0.22851 0.0
C1175 C 1.0007 0.38272 0.33618 0.0
C1176 C 1.0123 0.38302 0.29923 0.0
H1177 H 0.04062 0.40112 0.14316 0.0
H1178 H 1.01649 0.40167 0.20485 0.0
H1179 H 1.01406 0.36282 0.20523 0.0
H1180 H 0.05303 0.36579 0.38383 0.0
H1181 H 0.07208 0.36689 0.32408 0.0
C1182 C 0.98439 0.64058 0.14905 0.0
C1183 C 1.00615 0.6307 0.11453 0.0
C1184 C 1.00027 0.64017 0.18335 0.0
C1185 C 0.1211 0.62664 0.22922 0.0
H1186 H 0.96982 0.6336 0.30179 0.0
C1187 C 0.15276 0.62178 0.37046 0.0
C1188 C 0.11572 0.63053 0.40216 0.0
C1189 C 0.14237 0.62146 0.33459 0.0
C1190 C 1.01304 0.63182 0.28216 0.0
H1191 H 0.06182 0.61264 0.08867 0.0
H1192 H 0.09031 0.61197 0.14896 0.0
H1193 H 0.94639 0.63376 0.24086 0.0
H1194 H 0.04258 0.64649 0.42127 0.0
H1195 H 1.02666 0.64624 0.35963 0.0
H1196 H 0.18822 0.62499 0.27089 0.0
C1197 C 0.06112 0.62005 0.14936 0.0
C1198 C 0.99942 0.63186 0.24715 0.0
C1199 C 0.04446 0.62039 0.11494 0.0
C1200 C 0.07105 0.63941 0.39751 0.0
C1201 C 0.06136 0.63921 0.36191 0.0
C1202 C 0.135 0.62674 0.26452 0.0
C1203 C 0.03862 0.62989 0.18388 0.0
C1204 C 0.05334 0.62938 0.22044 0.0
C1205 C 0.09559 0.63005 0.32979 0.0
C1206 C 0.08121 0.62946 0.2916 0.0
H1207 H 0.95334 0.64847 0.14955 0.0
H1208 H 0.98249 0.64792 0.20953 0.0
H1209 H 0.16373 0.62477 0.20917 0.0
H1210 H 0.18929 0.61508 0.3732 0.0
H1211 H 0.16982 0.61429 0.31055 0.0
C1212 C 0.96498 0.63956 0.89262 0.0
C1213 C 0.9759 0.62875 0.8994 0.0
C1214 C 0.97917 0.63908 0.85698 0.0
C1215 C 1.01395 0.61626 0.75605 0.0
H1216 H 0.08382 0.64703 0.75138 0.0
C1217 C 0.12118 0.61917 0.61964 0.0
C1218 C 0.0889 0.62878 0.61223 0.0
C1219 C 0.10896 0.61844 0.654 0.0
C1220 C 0.06437 0.63837 0.75234 0.0
H1221 H 1.0114 0.60902 0.87446 0.0
H1222 H 0.03853 0.6083 0.81281 0.0
H1223 H 0.06003 0.64725 0.8128 0.0
H1224 H 1.01512 0.64462 0.63435 0.0
H1225 H 0.99702 0.64372 0.69451 0.0
H1226 H 1.02041 0.60739 0.69523 0.0
C1227 C 1.01675 0.61704 0.83444 0.0
C1228 C 0.05005 0.63851 0.7875 0.0
C1229 C 1.00137 0.61746 0.86989 0.0
C1230 C 0.04301 0.6374 0.63949 0.0
C1231 C 0.03208 0.63684 0.67394 0.0
C1232 C 1.02952 0.61608 0.72085 0.0
C1233 C 1.00606 0.62786 0.82748 0.0
C1234 C 1.02362 0.62752 0.78988 0.0
C1235 C 0.0652 0.62742 0.68164 0.0
C1236 C 0.05391 0.62719 0.71874 0.0
H1237 H 0.94495 0.64837 0.91479 0.0
H1238 H 0.96863 0.64753 0.85258 0.0
H1239 H 0.9928 0.60766 0.75659 0.0
H1240 H 0.15599 0.61225 0.59905 0.0
H1241 H 0.13479 0.61104 0.65932 0.0
C1242 C 0.91084 0.38729 0.64541 0.0
C1243 C 0.94827 0.37863 0.61373 0.0
C1244 C 0.92054 0.38744 0.68108 0.0
C1245 C 0.04854 0.37685 0.73343 0.0
H1246 H 0.89649 0.38379 0.80559 0.0
C1247 C 0.07522 0.36883 0.86806 0.0
C1248 C 0.05258 0.37886 0.90209 0.0
C1249 C 0.05999 0.36894 0.8333 0.0
C1250 C 0.93947 0.38193 0.78575 0.0
H1251 H 1.02143 0.36267 0.59437 0.0
H1252 H 0.03614 0.36262 0.65572 0.0
H1253 H 0.87311 0.38352 0.74376 0.0
H1254 H 0.99575 0.39683 0.92655 0.0
H1255 H 0.96855 0.39698 0.86555 0.0
H1256 H 0.11447 0.375 0.77512 0.0
C1257 C 1.00164 0.36971 0.65356 0.0
C1258 C 0.92621 0.38181 0.7504 0.0
C1259 C 0.99266 0.36967 0.61816 0.0
C1260 C 1.01393 0.38898 0.90071 0.0
C1261 C 0.99795 0.38903 0.86587 0.0
C1262 C 0.06154 0.37683 0.7685 0.0
C1263 C 0.96697 0.37876 0.68567 0.0
C1264 C 0.98056 0.37919 0.7237 0.0
C1265 C 1.02135 0.37906 0.83186 0.0
C1266 C 1.00714 0.3793 0.79494 0.0
H1267 H 0.87458 0.39405 0.64281 0.0
H1268 H 0.89284 0.39454 0.70515 0.0
H1269 H 0.09212 0.37512 0.71403 0.0
H1270 H 0.10618 0.36103 0.86829 0.0
H1271 H 0.07838 0.36111 0.80749 0.0
C1272 C 0.5994 0.87185 0.11979 0.0
C1273 C 0.58548 0.88252 0.11255 0.0
C1274 C 0.58709 0.87237 0.15566 0.0
C1275 C 0.48053 0.88817 0.24098 0.0
H1276 H 0.62316 0.87607 0.28843 0.0
C1277 C 0.44148 0.89044 0.39098 0.0
C1278 C 0.46892 0.88032 0.39764 0.0
C1279 C 0.45715 0.89148 0.3574 0.0
C1280 C 0.58218 0.87931 0.27545 0.0
H1281 H 0.54692 0.90206 0.13737 0.0
H1282 H 0.5242 0.90286 0.19999 0.0
H1283 H 0.6471 0.87628 0.22755 0.0
H1284 H 0.53642 0.86363 0.37441 0.0
H1285 H 0.56014 0.86494 0.31545 0.0
H1286 H 0.41449 0.89078 0.28803 0.0
C1287 C 0.54516 0.89414 0.17782 0.0
C1288 C 0.59622 0.8795 0.2406 0.0
C1289 C 0.55856 0.8937 0.14205 0.0
C1290 C 0.51288 0.87137 0.37004 0.0
C1291 C 0.52765 0.87228 0.33631 0.0
C1292 C 0.46602 0.88781 0.27563 0.0
C1293 C 0.55954 0.88349 0.18502 0.0
C1294 C 0.54543 0.88385 0.22286 0.0
C1295 C 0.50025 0.88237 0.32946 0.0
C1296 C 0.51646 0.88328 0.29326 0.0
H1297 H 0.62028 0.86309 0.09777 0.0
H1298 H 0.59811 0.86397 0.16027 0.0
H1299 H 0.44016 0.89147 0.22779 0.0
H1300 H 0.40818 0.89763 0.41178 0.0
H1301 H 0.43606 0.89953 0.35363 0.0
C1302 C 0.49751 0.11988 0.12503 0.0
C1303 C 0.5082 0.13101 0.11958 0.0
C1304 C 0.51595 0.11961 0.15933 0.0
C1305 C 0.54114 0.14071 0.26019 0.0
H1306 H 0.63996 0.11187 0.26296 0.0
C1307 C 0.62871 0.14119 0.40209 0.0
C1308 C 0.62439 0.12966 0.40572 0.0
C1309 C 0.6192 0.14132 0.3668 0.0
C1310 C 0.61151 0.11993 0.26278 0.0
H1311 H 0.5507 0.15027 0.14553 0.0
H1312 H 0.58077 0.14995 0.20558 0.0
H1313 H 0.61403 0.11202 0.20204 0.0
H1314 H 0.60481 0.10929 0.37529 0.0
H1315 H 0.58705 0.10947 0.31396 0.0
H1316 H 0.53644 0.1485 0.32063 0.0
C1317 C 0.55719 0.1415 0.18342 0.0
C1318 C 0.59693 0.12002 0.22781 0.0
C1319 C 0.53955 0.14171 0.14899 0.0
C1320 C 0.61046 0.11826 0.37328 0.0
C1321 C 0.6001 0.11839 0.33804 0.0
C1322 C 0.55494 0.14056 0.29512 0.0
C1323 C 0.54512 0.13048 0.18908 0.0
C1324 C 0.56161 0.13042 0.22615 0.0
C1325 C 0.60397 0.12994 0.3343 0.0
C1326 C 0.59037 0.13017 0.29696 0.0
H1327 H 0.47403 0.11138 0.10302 0.0
H1328 H 0.50577 0.11099 0.1629 0.0
H1329 H 0.51296 0.14877 0.25978 0.0
H1330 H 0.63969 0.15014 0.42657 0.0
H1331 H 0.62396 0.15037 0.36506 0.0
C1332 C 0.51097 0.11852 0.8776 0.0
C1333 C 0.47506 0.12889 0.90566 0.0
C1334 C 0.52428 0.11829 0.84211 0.0
C1335 C 0.58459 0.12772 0.78403 0.0
H1336 H 0.43034 0.12922 0.72107 0.0
C1337 C 0.61466 0.1397 0.65507 0.0
C1338 C 0.58796 0.13031 0.62082 0.0
C1339 C 0.60064 0.13907 0.68933 0.0
C1340 C 0.47376 0.12878 0.73841 0.0
H1341 H 0.42355 0.14698 0.91838 0.0
H1342 H 0.44468 0.14631 0.85575 0.0
H1343 H 0.40564 0.12899 0.78245 0.0
H1344 H 0.52527 0.113 0.59529 0.0
H1345 H 0.49866 0.11216 0.65562 0.0
H1346 H 0.6528 0.12796 0.74064 0.0
C1347 C 0.46333 0.1385 0.86154 0.0
C1348 C 0.4597 0.12869 0.77342 0.0
C1349 C 0.45157 0.13889 0.89733 0.0
C1350 C 0.54651 0.12034 0.62138 0.0
C1351 C 0.5311 0.11989 0.65577 0.0
C1352 C 0.5987 0.12812 0.74946 0.0
C1353 C 0.50034 0.12825 0.83377 0.0
C1354 C 0.51501 0.12812 0.79645 0.0
C1355 C 0.55848 0.1292 0.68998 0.0
C1356 C 0.5434 0.12863 0.72635 0.0
H1357 H 0.53004 0.11072 0.88335 0.0
H1358 H 0.5529 0.11029 0.82106 0.0
H1359 H 0.62803 0.12734 0.80144 0.0
H1360 H 0.64772 0.14734 0.65528 0.0
H1361 H 0.62224 0.14637 0.7154 0.0
C1362 C 0.41355 0.86946 0.61633 0.0
C1363 C 0.43728 0.87985 0.61006 0.0
C1364 C 0.42261 0.86941 0.65181 0.0
C1365 C 0.47183 0.8908 0.75277 0.0
H1366 H 0.50493 0.85838 0.75662 0.0
C1367 C 0.51139 0.88819 0.89598 0.0
C1368 C 0.55745 0.87888 0.89683 0.0
C1369 C 0.49177 0.88811 0.86136 0.0
C1370 C 0.49672 0.86757 0.75619 0.0
H1371 H 0.49242 0.89796 0.63491 0.0
H1372 H 0.51031 0.89782 0.69624 0.0
H1373 H 0.48263 0.85873 0.69609 0.0
H1374 H 0.62137 0.86251 0.86264 0.0
H1375 H 0.5898 0.86258 0.80248 0.0
H1376 H 0.49049 0.89971 0.8125 0.0
C1377 C 0.48152 0.88995 0.67474 0.0
C1378 C 0.48248 0.86775 0.72131 0.0
C1379 C 0.47122 0.89009 0.63952 0.0
C1380 C 0.5843 0.86959 0.86262 0.0
C1381 C 0.56591 0.86964 0.82808 0.0
C1382 C 0.48738 0.89064 0.78754 0.0
C1383 C 0.45732 0.87962 0.68152 0.0
C1384 C 0.47009 0.87937 0.719 0.0
C1385 C 0.51915 0.87889 0.82683 0.0
C1386 C 0.50038 0.87903 0.78982 0.0
H1387 H 0.38755 0.86142 0.59384 0.0
H1388 H 0.40213 0.86136 0.65586 0.0
H1389 H 0.46129 0.89995 0.75253 0.0
H1390 H 0.48971 0.89542 0.92207 0.0
H1391 H 0.45466 0.89525 0.86179 0.0
loop_
_geom_bond_atom_site_label_1
_geom_bond_atom_site_label_2
_geom_bond_distance
_geom_bond_site_symmetry_2
_ccdc_geom_bond_type
Gd0 N31 2.661 1_456 S
Gd0 N37 2.601 1_455 S
Gd0 O44 2.545 . S
Gd0 O45 2.606 1_556 S
Gd0 O47 2.429 . S
Gd0 O48 2.545 . S
Gd0 O49 2.412 1_556 S
Gd0 O51 2.362 1_456 S
Gd0 O52 2.324 1_556 S
Gd0 C59 2.828 . S
Gd1 N10 2.661 . S
Gd1 N14 2.601 . S
Gd1 O45 2.362 . S
Gd1 O46 2.324 1_554 S
Gd1 O50 2.545 . S
Gd1 O51 2.606 1_455 S
Gd1 O53 2.429 . S
Gd1 O54 2.545 1_455 S
Gd1 O55 2.412 . S
Gd1 C68 2.828 . S
C2 C5 1.417 . S
C2 C7 1.431 . S
C2 C8 1.412 1_554 S
C3 C6 1.437 . S
C3 C7 1.317 . S
C3 H22 0.929 . S
C4 C5 1.426 . S
C4 C6 1.413 . S
C4 N14 1.359 . S
C5 C2 1.417 . S
C5 C4 1.426 . S
C5 N10 1.350 . S
C6 C3 1.437 . S
C6 C4 1.413 . S
C6 C16 1.391 . S
C7 C2 1.431 . S
C7 C3 1.317 . S
C7 H18 0.930 . S
C8 C2 1.412 1_556 S
C8 C9 1.355 . S
C8 H20 0.930 . S
C9 C8 1.355 . S
C9 C11 1.402 . S
C9 H21 0.930 . S
N10 Gd1 2.661 . S
N10 C5 1.350 . S
N10 C11 1.307 1_554 S
C11 C9 1.402 . S
C11 N10 1.307 1_556 S
C11 H12 0.930 . S
H12 C11 0.930 . S
C13 N14 1.334 . S
C13 C15 1.394 . S
C13 H17 0.930 . S
N14 Gd1 2.601 . S
N14 C4 1.359 . S
N14 C13 1.334 . S
C15 C13 1.394 . S
C15 C16 1.359 . S
C15 H27 0.930 . S
C16 C6 1.391 . S
C16 C15 1.359 . S
C16 H28 0.929 . S
H17 C13 0.930 . S
H18 C7 0.930 . S
H19 C36 0.930 . S
H20 C8 0.930 . S
H21 C9 0.930 . S
H22 C3 0.929 . S
H23 C41 0.930 1_455 S
H24 C32 0.930 . S
H25 C33 0.930 . S
H26 C57 0.929 . S
H27 C15 0.930 . S
H28 C16 0.929 . S
H29 C58 0.930 . S
H30 C39 0.930 . S
N31 Gd0 2.661 1_654 S
N31 C35 1.350 1_554 S
N31 C36 1.307 . S
C32 H24 0.930 . S
C32 C33 1.355 . S
C32 C34 1.412 1_554 S
C33 H25 0.930 . S
C33 C32 1.355 . S
C33 C36 1.402 . S
C34 C32 1.412 1_556 S
C34 C35 1.417 . S
C34 C58 1.431 . S
C35 N31 1.350 1_556 S
C35 C34 1.417 . S
C35 C38 1.426 . S
C36 H19 0.930 . S
C36 N31 1.307 . S
C36 C33 1.402 . S
N37 Gd0 2.601 1_655 S
N37 C38 1.359 . S
N37 C41 1.334 . S
C38 C35 1.426 . S
C38 N37 1.359 . S
C38 C42 1.413 . S
C39 H30 0.930 . S
C39 C40 1.359 . S
C39 C41 1.394 . S
C40 C39 1.359 . S
C40 C42 1.391 . S
C40 H43 0.929 . S
C41 H23 0.930 1_655 S
C41 N37 1.334 . S
C41 C39 1.394 . S
C42 C38 1.413 . S
C42 C40 1.391 . S
C42 C57 1.437 . S
H43 C40 0.929 . S
O44 Gd0 2.545 . S
O44 C59 1.258 . S
O45 Gd0 2.606 1_554 S
O45 Gd1 2.362 . S
O45 C56 1.284 . S
O46 Gd1 2.324 1_556 S
O46 C66 1.254 . S
O47 Gd0 2.429 . S
O47 C66 1.268 . S
O48 Gd0 2.545 . S
O48 C56 1.250 1_556 S
O49 Gd0 2.412 1_554 S
O49 C59 1.252 1_554 S
O50 Gd1 2.545 . S
O50 C68 1.258 . S
O51 Gd0 2.362 1_654 S
O51 Gd1 2.606 1_655 S
O51 C67 1.284 . S
O52 Gd0 2.324 1_554 S
O52 C75 1.254 . S
O53 Gd1 2.429 . S
O53 C75 1.268 . S
O54 Gd1 2.545 1_655 S
O54 C67 1.250 . S
O55 Gd1 2.412 . S
O55 C68 1.252 . S
C56 O45 1.284 . S
C56 O48 1.250 1_554 S
C57 H26 0.929 . S
C57 C42 1.437 . S
C57 C58 1.317 . S
C58 H29 0.930 . S
C58 C34 1.431 . S
C58 C57 1.317 . S
C59 Gd0 2.828 . S
C59 O44 1.258 . S
C59 O49 1.252 1_556 S
C59 C60 1.497 . S
C60 C59 1.497 . S
C60 C61 1.395 . S
C60 C62 1.380 . S
C61 C60 1.395 . S
C61 C64 1.398 . S
C61 H76 0.930 . S
C62 C60 1.380 . S
C62 C63 1.391 . S
C62 H77 0.930 1_556 S
C63 C62 1.391 . S
C63 C65 1.387 . S
C64 C61 1.398 . S
C64 C65 1.380 . S
C64 H78 0.930 . S
C65 C63 1.387 . S
C65 C64 1.380 . S
C65 H79 0.930 . S
C66 O46 1.254 . S
C66 O47 1.268 . S
C67 O51 1.284 . S
C67 O54 1.250 . S
C68 Gd1 2.828 . S
C68 O50 1.258 . S
C68 O55 1.252 . S
C68 C69 1.497 . S
C69 C68 1.497 . S
C69 C70 1.395 . S
C69 C71 1.380 1_455 S
C70 C69 1.395 . S
C70 C73 1.398 1_455 S
C70 H80 0.930 . S
C71 C69 1.380 1_655 S
C71 C72 1.391 . S
C71 H81 0.948 . S
C72 C71 1.391 . S
C72 C74 1.387 . S
C73 C70 1.398 1_655 S
C73 C74 1.380 . S
C73 H82 0.930 . S
C74 C72 1.387 . S
C74 C73 1.380 . S
C74 H83 0.930 . S
C75 O52 1.254 . S
C75 O53 1.268 . S
H76 C61 0.930 . S
H77 C62 0.930 1_554 S
H78 C64 0.930 . S
H79 C65 0.930 . S
H80 C70 0.930 . S
H81 C71 0.948 . S
H82 C73 0.930 . S
H83 C74 0.930 . S
Gd84 N115 2.661 1_556 S
Gd84 N121 2.601 . S
Gd84 O128 2.545 . S
Gd84 O129 2.606 1_656 S
Gd84 O131 2.429 . S
Gd84 O132 2.545 1_655 S
Gd84 O133 2.412 1_556 S
Gd84 O135 2.362 1_556 S
Gd84 O136 2.324 1_556 S
Gd84 C143 2.828 . S
Gd85 N94 2.661 1_655 S
Gd85 N98 2.601 1_655 S
Gd85 O129 2.362 1_655 S
Gd85 O130 2.324 1_554 S
Gd85 O134 2.545 . S
Gd85 O135 2.606 . S
Gd85 O137 2.429 . S
Gd85 O138 2.545 . S
Gd85 O139 2.412 . S
Gd85 C152 2.828 . S
C86 C89 1.417 . S
C86 C91 1.431 . S
C86 C92 1.412 . S
C87 C90 1.437 . S
C87 C91 1.317 . S
C87 H106 0.929 . S
C88 C89 1.426 . S
C88 C90 1.413 . S
C88 N98 1.359 . S
C89 C86 1.417 . S
C89 C88 1.426 . S
C89 N94 1.350 . S
C90 C87 1.437 . S
C90 C88 1.413 . S
C90 C100 1.391 . S
C91 C86 1.431 . S
C91 C87 1.317 . S
C91 H102 0.930 . S
C92 C86 1.412 . S
C92 C93 1.355 1_554 S
C92 H104 0.930 1_554 S
C93 C92 1.355 1_556 S
C93 C95 1.402 . S
C93 H105 0.930 . S
N94 Gd85 2.661 1_455 S
N94 C89 1.350 . S
N94 C95 1.307 1_554 S
C95 C93 1.402 . S
C95 N94 1.307 1_556 S
C95 H96 0.930 . S
H96 C95 0.930 . S
C97 N98 1.334 . S
C97 C99 1.394 . S
C97 H101 0.930 1_455 S
N98 Gd85 2.601 1_455 S
N98 C88 1.359 . S
N98 C97 1.334 . S
C99 C97 1.394 . S
C99 C100 1.359 . S
C99 H111 0.930 . S
C100 C90 1.391 . S
C100 C99 1.359 . S
C100 H112 0.929 . S
H101 C97 0.930 1_655 S
H102 C91 0.930 . S
H103 C120 0.930 . S
H104 C92 0.930 1_556 S
H105 C93 0.930 . S
H106 C87 0.929 . S
H107 C125 0.930 . S
H108 C116 0.930 . S
H109 C117 0.930 . S
H110 C141 0.929 . S
H111 C99 0.930 . S
H112 C100 0.929 . S
H113 C142 0.930 . S
H114 C123 0.930 . S
N115 Gd84 2.661 1_554 S
N115 C119 1.350 1_554 S
N115 C120 1.307 . S
C116 H108 0.930 . S
C116 C117 1.355 . S
C116 C118 1.412 1_554 S
C117 H109 0.930 . S
C117 C116 1.355 . S
C117 C120 1.402 . S
C118 C116 1.412 1_556 S
C118 C119 1.417 . S
C118 C142 1.431 . S
C119 N115 1.350 1_556 S
C119 C118 1.417 . S
C119 C122 1.426 . S
C120 H103 0.930 . S
C120 N115 1.307 . S
C120 C117 1.402 . S
N121 Gd84 2.601 . S
N121 C122 1.359 . S
N121 C125 1.334 . S
C122 C119 1.426 . S
C122 N121 1.359 . S
C122 C126 1.413 . S
C123 H114 0.930 . S
C123 C124 1.359 . S
C123 C125 1.394 . S
C124 C123 1.359 . S
C124 C126 1.391 . S
C124 H127 0.929 . S
C125 H107 0.930 . S
C125 N121 1.334 . S
C125 C123 1.394 . S
C126 C122 1.413 . S
C126 C124 1.391 . S
C126 C141 1.437 . S
H127 C124 0.929 . S
O128 Gd84 2.545 . S
O128 C143 1.258 . S
O129 Gd84 2.606 1_454 S
O129 Gd85 2.362 1_455 S
O129 C140 1.284 . S
O130 Gd85 2.324 1_556 S
O130 C150 1.254 . S
O131 Gd84 2.429 . S
O131 C150 1.268 . S
O132 Gd84 2.545 1_455 S
O132 C140 1.250 1_556 S
O133 Gd84 2.412 1_554 S
O133 C143 1.252 1_554 S
O134 Gd85 2.545 . S
O134 C152 1.258 . S
O135 Gd84 2.362 1_554 S
O135 Gd85 2.606 . S
O135 C151 1.284 . S
O136 Gd84 2.324 1_554 S
O136 C159 1.254 . S
O137 Gd85 2.429 . S
O137 C159 1.268 . S
O138 Gd85 2.545 . S
O138 C151 1.250 . S
O139 Gd85 2.412 . S
O139 C152 1.252 . S
C140 O129 1.284 . S
C140 O132 1.250 1_554 S
C141 H110 0.929 . S
C141 C126 1.437 . S
C141 C142 1.317 . S
C142 H113 0.930 . S
C142 C118 1.431 . S
C142 C141 1.317 . S
C143 Gd84 2.828 . S
C143 O128 1.258 . S
C143 O133 1.252 1_556 S
C143 C144 1.497 . S
C144 C143 1.497 . S
C144 C145 1.395 . S
C144 C146 1.380 1_656 S
C145 C144 1.395 . S
C145 C148 1.398 1_655 S
C145 H160 0.930 . S
C146 C144 1.380 1_454 S
C146 C147 1.391 1_554 S
C146 H161 0.930 . S
C147 C146 1.391 1_556 S
C147 C149 1.387 . S
C148 C145 1.398 1_455 S
C148 C149 1.380 . S
C148 H162 0.930 . S
C149 C147 1.387 . S
C149 C148 1.380 . S
C149 H163 0.930 . S
C150 O130 1.254 . S
C150 O131 1.268 . S
C151 O135 1.284 . S
C151 O138 1.250 . S
C152 Gd85 2.828 . S
C152 O134 1.258 . S
C152 O139 1.252 . S
C152 C153 1.497 . S
C153 C152 1.497 . S
C153 C154 1.395 . S
C153 C155 1.380 . S
C154 C153 1.395 . S
C154 C157 1.398 . S
C154 H164 0.930 . S
C155 C153 1.380 . S
C155 C156 1.391 . S
C155 H165 0.930 . S
C156 C155 1.391 . S
C156 C158 1.387 . S
C157 C154 1.398 . S
C157 C158 1.380 . S
C157 H166 0.930 . S
C158 C156 1.387 . S
C158 C157 1.380 . S
C158 H167 0.930 . S
C159 O136 1.254 . S
C159 O137 1.268 . S
H160 C145 0.930 . S
H161 C146 0.930 . S
H162 C148 0.930 . S
H163 C149 0.930 . S
H164 C154 0.930 . S
H165 C155 0.930 . S
H166 C157 0.930 . S
H167 C158 0.930 . S
Gd168 N199 2.661 1_455 S
Gd168 N205 2.601 1_455 S
Gd168 O212 2.545 . S
Gd168 O213 2.606 . S
Gd168 O215 2.429 . S
Gd168 O216 2.545 . S
Gd168 O217 2.412 . S
Gd168 O219 2.362 1_455 S
Gd168 O220 2.324 . S
Gd168 C227 2.828 . S
Gd169 N178 2.661 . S
Gd169 N182 2.601 . S
Gd169 O213 2.362 . S
Gd169 O214 2.324 . S
Gd169 O218 2.545 . S
Gd169 O219 2.606 1_455 S
Gd169 O221 2.429 . S
Gd169 O222 2.545 1_455 S
Gd169 O223 2.412 . S
Gd169 C236 2.828 . S
C170 C173 1.417 . S
C170 C175 1.431 . S
C170 C176 1.412 . S
C171 C174 1.437 . S
C171 C175 1.317 . S
C171 H190 0.929 . S
C172 C173 1.426 . S
C172 C174 1.413 . S
C172 N182 1.359 . S
C173 C170 1.417 . S
C173 C172 1.426 . S
C173 N178 1.350 . S
C174 C171 1.437 . S
C174 C172 1.413 . S
C174 C184 1.391 . S
C175 C170 1.431 . S
C175 C171 1.317 . S
C175 H186 0.930 . S
C176 C170 1.412 . S
C176 C177 1.355 . S
C176 H188 0.930 . S
C177 C176 1.355 . S
C177 C179 1.402 . S
C177 H189 0.930 . S
N178 Gd169 2.661 . S
N178 C173 1.350 . S
N178 C179 1.307 . S
C179 C177 1.402 . S
C179 N178 1.307 . S
C179 H180 0.930 . S
H180 C179 0.930 . S
C181 N182 1.334 . S
C181 C183 1.394 . S
C181 H185 0.930 . S
N182 Gd169 2.601 . S
N182 C172 1.359 . S
N182 C181 1.334 . S
C183 C181 1.394 . S
C183 C184 1.359 . S
C183 H195 0.930 . S
C184 C174 1.391 . S
C184 C183 1.359 . S
C184 H196 0.929 . S
H185 C181 0.930 . S
H186 C175 0.930 . S
H187 C204 0.930 . S
H188 C176 0.930 . S
H189 C177 0.930 . S
H190 C171 0.929 . S
H191 C209 0.930 1_455 S
H192 C200 0.930 . S
H193 C201 0.930 . S
H194 C225 0.929 . S
H195 C183 0.930 . S
H196 C184 0.929 . S
H197 C226 0.930 . S
H198 C207 0.930 . S
N199 Gd168 2.661 1_655 S
N199 C203 1.350 . S
N199 C204 1.307 . S
C200 H192 0.930 . S
C200 C201 1.355 . S
C200 C202 1.412 . S
C201 H193 0.930 . S
C201 C200 1.355 . S
C201 C204 1.402 . S
C202 C200 1.412 . S
C202 C203 1.417 . S
C202 C226 1.431 . S
C203 N199 1.350 . S
C203 C202 1.417 . S
C203 C206 1.426 . S
C204 H187 0.930 . S
C204 N199 1.307 . S
C204 C201 1.402 . S
N205 Gd168 2.601 1_655 S
N205 C206 1.359 . S
N205 C209 1.334 . S
C206 C203 1.426 . S
C206 N205 1.359 . S
C206 C210 1.413 . S
C207 H198 0.930 . S
C207 C208 1.359 . S
C207 C209 1.394 . S
C208 C207 1.359 . S
C208 C210 1.391 . S
C208 H211 0.929 . S
C209 H191 0.930 1_655 S
C209 N205 1.334 . S
C209 C207 1.394 . S
C210 C206 1.413 . S
C210 C208 1.391 . S
C210 C225 1.437 . S
H211 C208 0.929 . S
O212 Gd168 2.545 . S
O212 C227 1.258 . S
O213 Gd168 2.606 . S
O213 Gd169 2.362 . S
O213 C224 1.284 . S
O214 Gd169 2.324 . S
O214 C234 1.254 . S
O215 Gd168 2.429 . S
O215 C234 1.268 . S
O216 Gd168 2.545 . S
O216 C224 1.250 . S
O217 Gd168 2.412 . S
O217 C227 1.252 . S
O218 Gd169 2.545 . S
O218 C236 1.258 . S
O219 Gd168 2.362 1_655 S
O219 Gd169 2.606 1_655 S
O219 C235 1.284 . S
O220 Gd168 2.324 . S
O220 C243 1.254 . S
O221 Gd169 2.429 . S
O221 C243 1.268 . S
O222 Gd169 2.545 1_655 S
O222 C235 1.250 . S
O223 Gd169 2.412 . S
O223 C236 1.252 . S
C224 O213 1.284 . S
C224 O216 1.250 . S
C225 H194 0.929 . S
C225 C210 1.437 . S
C225 C226 1.317 . S
C226 H197 0.930 . S
C226 C202 1.431 . S
C226 C225 1.317 . S
C227 Gd168 2.828 . S
C227 O212 1.258 . S
C227 O217 1.252 . S
C227 C228 1.497 . S
C228 C227 1.497 . S
C228 C229 1.395 . S
C228 C230 1.380 . S
C229 C228 1.395 . S
C229 C232 1.398 . S
C229 H244 0.930 . S
C230 C228 1.380 . S
C230 C231 1.391 . S
C230 H245 0.930 . S
C231 C230 1.391 . S
C231 C233 1.387 . S
C232 C229 1.398 . S
C232 C233 1.380 . S
C232 H246 0.930 . S
C233 C231 1.387 . S
C233 C232 1.380 . S
C233 H247 0.930 . S
C234 O214 1.254 . S
C234 O215 1.268 . S
C235 O219 1.284 . S
C235 O222 1.250 . S
C236 Gd169 2.828 . S
C236 O218 1.258 . S
C236 O223 1.252 . S
C236 C237 1.497 . S
C237 C236 1.497 . S
C237 C238 1.395 . S
C237 C239 1.380 1_455 S
C238 C237 1.395 . S
C238 C241 1.398 1_455 S
C238 H248 0.930 . S
C239 C237 1.380 1_655 S
C239 C240 1.391 . S
C239 H249 0.930 . S
C240 C239 1.391 . S
C240 C242 1.387 . S
C241 C238 1.398 1_655 S
C241 C242 1.380 . S
C241 H250 0.930 . S
C242 C240 1.387 . S
C242 C241 1.380 . S
C242 H251 0.930 . S
C243 O220 1.254 . S
C243 O221 1.268 . S
H244 C229 0.930 . S
H245 C230 0.930 . S
H246 C232 0.930 . S
H247 C233 0.930 . S
H248 C238 0.930 . S
H249 C239 0.930 . S
H250 C241 0.930 . S
H251 C242 0.930 . S
Gd252 N283 2.661 . S
Gd252 N289 2.601 . S
Gd252 O296 2.545 . S
Gd252 O297 2.606 1_655 S
Gd252 O299 2.429 . S
Gd252 O300 2.545 1_655 S
Gd252 O301 2.412 . S
Gd252 O303 2.362 . S
Gd252 O304 2.324 . S
Gd252 C311 2.828 . S
Gd253 N262 2.661 1_655 S
Gd253 N266 2.601 1_655 S
Gd253 O297 2.362 1_655 S
Gd253 O298 2.324 . S
Gd253 O302 2.545 . S
Gd253 O303 2.606 . S
Gd253 O305 2.429 . S
Gd253 O306 2.545 . S
Gd253 O307 2.412 . S
Gd253 C320 2.828 . S
C254 C257 1.417 . S
C254 C259 1.431 . S
C254 C260 1.412 . S
C255 C258 1.437 . S
C255 C259 1.317 . S
C255 H274 0.929 . S
C256 C257 1.426 . S
C256 C258 1.413 . S
C256 N266 1.359 . S
C257 C254 1.417 . S
C257 C256 1.426 . S
C257 N262 1.350 . S
C258 C255 1.437 . S
C258 C256 1.413 . S
C258 C268 1.391 . S
C259 C254 1.431 . S
C259 C255 1.317 . S
C259 H270 0.930 . S
C260 C254 1.412 . S
C260 C261 1.355 . S
C260 H272 0.930 . S
C261 C260 1.355 . S
C261 C263 1.402 . S
C261 H273 0.930 . S
N262 Gd253 2.661 1_455 S
N262 C257 1.350 . S
N262 C263 1.307 . S
C263 C261 1.402 . S
C263 N262 1.307 . S
C263 H264 0.930 . S
H264 C263 0.930 . S
C265 N266 1.334 . S
C265 C267 1.394 . S
C265 H269 0.930 1_455 S
N266 Gd253 2.601 1_455 S
N266 C256 1.359 . S
N266 C265 1.334 . S
C267 C265 1.394 . S
C267 C268 1.359 . S
C267 H279 0.930 . S
C268 C258 1.391 . S
C268 C267 1.359 . S
C268 H280 0.929 . S
H269 C265 0.930 1_655 S
H270 C259 0.930 . S
H271 C288 0.930 . S
H272 C260 0.930 . S
H273 C261 0.930 . S
H274 C255 0.929 . S
H275 C293 0.930 . S
H276 C284 0.930 . S
H277 C285 0.930 . S
H278 C309 0.929 . S
H279 C267 0.930 . S
H280 C268 0.929 . S
H281 C310 0.930 . S
H282 C291 0.930 . S
N283 Gd252 2.661 . S
N283 C287 1.350 . S
N283 C288 1.307 . S
C284 H276 0.930 . S
C284 C285 1.355 . S
C284 C286 1.412 . S
C285 H277 0.930 . S
C285 C284 1.355 . S
C285 C288 1.402 . S
C286 C284 1.412 . S
C286 C287 1.417 . S
C286 C310 1.431 . S
C287 N283 1.350 . S
C287 C286 1.417 . S
C287 C290 1.426 . S
C288 H271 0.930 . S
C288 N283 1.307 . S
C288 C285 1.402 . S
N289 Gd252 2.601 . S
N289 C290 1.359 . S
N289 C293 1.334 . S
C290 C287 1.426 . S
C290 N289 1.359 . S
C290 C294 1.413 . S
C291 H282 0.930 . S
C291 C292 1.359 . S
C291 C293 1.394 . S
C292 C291 1.359 . S
C292 C294 1.391 . S
C292 H295 0.929 . S
C293 H275 0.930 . S
C293 N289 1.334 . S
C293 C291 1.394 . S
C294 C290 1.413 . S
C294 C292 1.391 . S
C294 C309 1.437 . S
H295 C292 0.929 . S
O296 Gd252 2.545 . S
O296 C311 1.258 . S
O297 Gd252 2.606 1_455 S
O297 Gd253 2.362 1_455 S
O297 C308 1.284 . S
O298 Gd253 2.324 . S
O298 C318 1.254 . S
O299 Gd252 2.429 . S
O299 C318 1.268 . S
O300 Gd252 2.545 1_455 S
O300 C308 1.250 . S
O301 Gd252 2.412 . S
O301 C311 1.252 . S
O302 Gd253 2.545 . S
O302 C320 1.258 . S
O303 Gd252 2.362 . S
O303 Gd253 2.606 . S
O303 C319 1.284 . S
O304 Gd252 2.324 . S
O304 C327 1.254 . S
O305 Gd253 2.429 . S
O305 C327 1.268 . S
O306 Gd253 2.545 . S
O306 C319 1.250 . S
O307 Gd253 2.412 . S
O307 C320 1.252 . S
C308 O297 1.284 . S
C308 O300 1.250 . S
C309 H278 0.929 . S
C309 C294 1.437 . S
C309 C310 1.317 . S
C310 H281 0.930 . S
C310 C286 1.431 . S
C310 C309 1.317 . S
C311 Gd252 2.828 . S
C311 O296 1.258 . S
C311 O301 1.252 . S
C311 C312 1.497 . S
C312 C311 1.497 . S
C312 C313 1.395 . S
C312 C314 1.380 1_655 S
C313 C312 1.395 . S
C313 C316 1.398 1_655 S
C313 H328 0.930 . S
C314 C312 1.380 1_455 S
C314 C315 1.391 . S
C314 H329 0.930 . S
C315 C314 1.391 . S
C315 C317 1.387 . S
C316 C313 1.398 1_455 S
C316 C317 1.380 . S
C316 H330 0.930 . S
C317 C315 1.387 . S
C317 C316 1.380 . S
C317 H331 0.930 . S
C318 O298 1.254 . S
C318 O299 1.268 . S
C319 O303 1.284 . S
C319 O306 1.250 . S
C320 Gd253 2.828 . S
C320 O302 1.258 . S
C320 O307 1.252 . S
C320 C321 1.497 . S
C321 C320 1.497 . S
C321 C322 1.395 . S
C321 C323 1.380 . S
C322 C321 1.395 . S
C322 C325 1.398 . S
C322 H332 0.930 . S
C323 C321 1.380 . S
C323 C324 1.391 . S
C323 H333 0.930 . S
C324 C323 1.391 . S
C324 C326 1.387 . S
C325 C322 1.398 . S
C325 C326 1.380 . S
C325 H334 0.930 . S
C326 C324 1.387 . S
C326 C325 1.380 . S
C326 H335 0.930 . S
C327 O304 1.254 . S
C327 O305 1.268 . S
H328 C313 0.930 . S
H329 C314 0.930 . S
H330 C316 0.930 . S
H331 C317 0.930 . S
H332 C322 0.930 . S
H333 C323 0.930 . S
H334 C325 0.930 . S
H335 C326 0.930 . S
Gd336 N367 2.661 1_556 S
Gd336 N373 2.601 . S
Gd336 O380 2.545 . S
Gd336 O381 2.606 1_556 S
Gd336 O383 2.429 . S
Gd336 O384 2.545 . S
Gd336 O385 2.412 1_556 S
Gd336 O387 2.362 1_556 S
Gd336 O388 2.324 1_556 S
Gd336 C395 2.828 . S
Gd337 N346 2.661 . S
Gd337 N350 2.601 . S
Gd337 O381 2.362 . S
Gd337 O382 2.324 1_554 S
Gd337 O386 2.545 . S
Gd337 O387 2.606 . S
Gd337 O389 2.429 . S
Gd337 O390 2.545 . S
Gd337 O391 2.412 . S
Gd337 C404 2.828 . S
C338 C341 1.417 . S
C338 C343 1.431 . S
C338 C344 1.412 1_554 S
C339 C342 1.437 . S
C339 C343 1.317 . S
C339 H358 0.929 . S
C340 C341 1.426 . S
C340 C342 1.413 . S
C340 N350 1.359 . S
C341 C338 1.417 . S
C341 C340 1.426 . S
C341 N346 1.350 . S
C342 C339 1.437 . S
C342 C340 1.413 . S
C342 C352 1.391 . S
C343 C338 1.431 . S
C343 C339 1.317 . S
C343 H354 0.930 . S
C344 C338 1.412 1_556 S
C344 C345 1.355 . S
C344 H356 0.930 . S
C345 C344 1.355 . S
C345 C347 1.402 . S
C345 H357 0.930 . S
N346 Gd337 2.661 . S
N346 C341 1.350 . S
N346 C347 1.307 1_554 S
C347 C345 1.402 . S
C347 N346 1.307 1_556 S
C347 H348 0.930 . S
H348 C347 0.930 . S
C349 N350 1.334 . S
C349 C351 1.394 . S
C349 H353 0.930 . S
N350 Gd337 2.601 . S
N350 C340 1.359 . S
N350 C349 1.334 . S
C351 C349 1.394 . S
C351 C352 1.359 . S
C351 H363 0.930 . S
C352 C342 1.391 . S
C352 C351 1.359 . S
C352 H364 0.929 . S
H353 C349 0.930 . S
H354 C343 0.930 . S
H355 C372 0.930 . S
H356 C344 0.930 . S
H357 C345 0.930 . S
H358 C339 0.929 . S
H359 C377 0.930 . S
H360 C368 0.930 . S
H361 C369 0.930 . S
H362 C393 0.929 . S
H363 C351 0.930 . S
H364 C352 0.929 . S
H365 C394 0.930 . S
H366 C375 0.930 . S
N367 Gd336 2.661 1_554 S
N367 C371 1.350 1_554 S
N367 C372 1.307 . S
C368 H360 0.930 . S
C368 C369 1.355 . S
C368 C370 1.412 1_554 S
C369 H361 0.930 . S
C369 C368 1.355 . S
C369 C372 1.402 . S
C370 C368 1.412 1_556 S
C370 C371 1.417 . S
C370 C394 1.431 . S
C371 N367 1.350 1_556 S
C371 C370 1.417 . S
C371 C374 1.426 . S
C372 H355 0.930 . S
C372 N367 1.307 . S
C372 C369 1.402 . S
N373 Gd336 2.601 . S
N373 C374 1.359 . S
N373 C377 1.334 . S
C374 C371 1.426 . S
C374 N373 1.359 . S
C374 C378 1.413 . S
C375 H366 0.930 . S
C375 C376 1.359 . S
C375 C377 1.394 . S
C376 C375 1.359 . S
C376 C378 1.391 . S
C376 H379 0.929 . S
C377 H359 0.930 . S
C377 N373 1.334 . S
C377 C375 1.394 . S
C378 C374 1.413 . S
C378 C376 1.391 . S
C378 C393 1.437 . S
H379 C376 0.929 . S
O380 Gd336 2.545 . S
O380 C395 1.258 . S
O381 Gd336 2.606 1_554 S
O381 Gd337 2.362 . S
O381 C392 1.284 . S
O382 Gd337 2.324 1_556 S
O382 C402 1.254 . S
O383 Gd336 2.429 . S
O383 C402 1.268 . S
O384 Gd336 2.545 . S
O384 C392 1.250 1_556 S
O385 Gd336 2.412 1_554 S
O385 C395 1.252 1_554 S
O386 Gd337 2.545 . S
O386 C404 1.258 . S
O387 Gd336 2.362 1_554 S
O387 Gd337 2.606 . S
O387 C403 1.284 . S
O388 Gd336 2.324 1_554 S
O388 C411 1.254 . S
O389 Gd337 2.429 . S
O389 C411 1.268 . S
O390 Gd337 2.545 . S
O390 C403 1.250 . S
O391 Gd337 2.412 . S
O391 C404 1.252 . S
C392 O381 1.284 . S
C392 O384 1.250 1_554 S
C393 H362 0.929 . S
C393 C378 1.437 . S
C393 C394 1.317 . S
C394 H365 0.930 . S
C394 C370 1.431 . S
C394 C393 1.317 . S
C395 Gd336 2.828 . S
C395 O380 1.258 . S
C395 O385 1.252 1_556 S
C395 C396 1.497 . S
C396 C395 1.497 . S
C396 C397 1.395 . S
C396 C398 1.380 . S
C397 C396 1.395 . S
C397 C400 1.398 . S
C397 H412 0.930 . S
C398 C396 1.380 . S
C398 C399 1.391 . S
C398 H413 0.930 1_556 S
C399 C398 1.391 . S
C399 C401 1.387 . S
C400 C397 1.398 . S
C400 C401 1.380 . S
C400 H414 0.930 . S
C401 C399 1.387 . S
C401 C400 1.380 . S
C401 H415 0.930 . S
C402 O382 1.254 . S
C402 O383 1.268 . S
C403 O387 1.284 . S
C403 O390 1.250 . S
C404 Gd337 2.828 . S
C404 O386 1.258 . S
C404 O391 1.252 . S
C404 C405 1.497 . S
C405 C404 1.497 . S
C405 C406 1.395 . S
C405 C407 1.380 . S
C406 C405 1.395 . S
C406 C409 1.398 . S
C406 H416 0.930 . S
C407 C405 1.380 . S
C407 C408 1.391 . S
C407 H417 0.949 . S
C408 C407 1.391 . S
C408 C410 1.387 . S
C409 C406 1.398 . S
C409 C410 1.380 . S
C409 H418 0.930 . S
C410 C408 1.387 . S
C410 C409 1.380 . S
C410 H419 0.930 . S
C411 O388 1.254 . S
C411 O389 1.268 . S
H412 C397 0.930 . S
H413 C398 0.930 1_554 S
H414 C400 0.930 . S
H415 C401 0.930 . S
H416 C406 0.930 . S
H417 C407 0.949 . S
H418 C409 0.930 . S
H419 C410 0.930 . S
Gd420 N451 2.661 1_556 S
Gd420 N457 2.601 . S
Gd420 O464 2.545 . S
Gd420 O465 2.606 1_556 S
Gd420 O467 2.429 . S
Gd420 O468 2.545 . S
Gd420 O469 2.412 1_556 S
Gd420 O471 2.362 1_556 S
Gd420 O472 2.324 1_556 S
Gd420 C479 2.828 . S
Gd421 N430 2.661 . S
Gd421 N434 2.601 . S
Gd421 O465 2.362 . S
Gd421 O466 2.324 1_554 S
Gd421 O470 2.545 . S
Gd421 O471 2.606 . S
Gd421 O473 2.429 . S
Gd421 O474 2.545 . S
Gd421 O475 2.412 . S
Gd421 C488 2.828 . S
C422 C425 1.417 . S
C422 C427 1.431 . S
C422 C428 1.412 . S
C423 C426 1.437 . S
C423 C427 1.317 . S
C423 H442 0.929 . S
C424 C425 1.426 . S
C424 C426 1.413 . S
C424 N434 1.359 . S
C425 C422 1.417 . S
C425 C424 1.426 . S
C425 N430 1.350 . S
C426 C423 1.437 . S
C426 C424 1.413 . S
C426 C436 1.391 . S
C427 C422 1.431 . S
C427 C423 1.317 . S
C427 H438 0.930 . S
C428 C422 1.412 . S
C428 C429 1.355 1_554 S
C428 H440 0.930 1_554 S
C429 C428 1.355 1_556 S
C429 C431 1.402 . S
C429 H441 0.930 . S
N430 Gd421 2.661 . S
N430 C425 1.350 . S
N430 C431 1.307 1_554 S
C431 C429 1.402 . S
C431 N430 1.307 1_556 S
C431 H432 0.930 . S
H432 C431 0.930 . S
C433 N434 1.334 . S
C433 C435 1.394 . S
C433 H437 0.930 . S
N434 Gd421 2.601 . S
N434 C424 1.359 . S
N434 C433 1.334 . S
C435 C433 1.394 . S
C435 C436 1.359 . S
C435 H447 0.930 . S
C436 C426 1.391 . S
C436 C435 1.359 . S
C436 H448 0.929 . S
H437 C433 0.930 . S
H438 C427 0.930 . S
H439 C456 0.930 . S
H440 C428 0.930 1_556 S
H441 C429 0.930 . S
H442 C423 0.929 . S
H443 C461 0.930 . S
H444 C452 0.930 . S
H445 C453 0.930 . S
H446 C477 0.929 . S
H447 C435 0.930 . S
H448 C436 0.929 . S
H449 C478 0.930 . S
H450 C459 0.930 . S
N451 Gd420 2.661 1_554 S
N451 C455 1.350 1_554 S
N451 C456 1.307 . S
C452 H444 0.930 . S
C452 C453 1.355 . S
C452 C454 1.412 1_554 S
C453 H445 0.930 . S
C453 C452 1.355 . S
C453 C456 1.402 . S
C454 C452 1.412 1_556 S
C454 C455 1.417 . S
C454 C478 1.431 . S
C455 N451 1.350 1_556 S
C455 C454 1.417 . S
C455 C458 1.426 . S
C456 H439 0.930 . S
C456 N451 1.307 . S
C456 C453 1.402 . S
N457 Gd420 2.601 . S
N457 C458 1.359 . S
N457 C461 1.334 . S
C458 C455 1.426 . S
C458 N457 1.359 . S
C458 C462 1.413 . S
C459 H450 0.930 . S
C459 C460 1.359 . S
C459 C461 1.394 . S
C460 C459 1.359 . S
C460 C462 1.391 . S
C460 H463 0.929 . S
C461 H443 0.930 . S
C461 N457 1.334 . S
C461 C459 1.394 . S
C462 C458 1.413 . S
C462 C460 1.391 . S
C462 C477 1.437 . S
H463 C460 0.929 . S
O464 Gd420 2.545 . S
O464 C479 1.258 . S
O465 Gd420 2.606 1_554 S
O465 Gd421 2.362 . S
O465 C476 1.284 . S
O466 Gd421 2.324 1_556 S
O466 C486 1.254 . S
O467 Gd420 2.429 . S
O467 C486 1.268 . S
O468 Gd420 2.545 . S
O468 C476 1.250 1_556 S
O469 Gd420 2.412 1_554 S
O469 C479 1.252 1_554 S
O470 Gd421 2.545 . S
O470 C488 1.258 . S
O471 Gd420 2.362 1_554 S
O471 Gd421 2.606 . S
O471 C487 1.284 . S
O472 Gd420 2.324 1_554 S
O472 C495 1.254 . S
O473 Gd421 2.429 . S
O473 C495 1.268 . S
O474 Gd421 2.545 . S
O474 C487 1.250 . S
O475 Gd421 2.412 . S
O475 C488 1.252 . S
C476 O465 1.284 . S
C476 O468 1.250 1_554 S
C477 H446 0.929 . S
C477 C462 1.437 . S
C477 C478 1.317 . S
C478 H449 0.930 . S
C478 C454 1.431 . S
C478 C477 1.317 . S
C479 Gd420 2.828 . S
C479 O464 1.258 . S
C479 O469 1.252 1_556 S
C479 C480 1.497 . S
C480 C479 1.497 . S
C480 C481 1.395 . S
C480 C482 1.380 1_556 S
C481 C480 1.395 . S
C481 C484 1.398 . S
C481 H496 0.930 . S
C482 C480 1.380 1_554 S
C482 C483 1.391 1_554 S
C482 H497 0.930 . S
C483 C482 1.391 1_556 S
C483 C485 1.387 . S
C484 C481 1.398 . S
C484 C485 1.380 . S
C484 H498 0.930 . S
C485 C483 1.387 . S
C485 C484 1.380 . S
C485 H499 0.930 . S
C486 O466 1.254 . S
C486 O467 1.268 . S
C487 O471 1.284 . S
C487 O474 1.250 . S
C488 Gd421 2.828 . S
C488 O470 1.258 . S
C488 O475 1.252 . S
C488 C489 1.497 . S
C489 C488 1.497 . S
C489 C490 1.395 . S
C489 C491 1.380 . S
C490 C489 1.395 . S
C490 C493 1.398 . S
C490 H500 0.930 . S
C491 C489 1.380 . S
C491 C492 1.391 . S
C491 H501 0.930 . S
C492 C491 1.391 . S
C492 C494 1.387 . S
C493 C490 1.398 . S
C493 C494 1.380 . S
C493 H502 0.930 . S
C494 C492 1.387 . S
C494 C493 1.380 . S
C494 H503 0.930 . S
C495 O472 1.254 . S
C495 O473 1.268 . S
H496 C481 0.930 . S
H497 C482 0.930 . S
H498 C484 0.930 . S
H499 C485 0.930 . S
H500 C490 0.930 . S
H501 C491 0.930 . S
H502 C493 0.930 . S
H503 C494 0.930 . S
Gd504 N535 2.661 . S
Gd504 N541 2.601 . S
Gd504 O548 2.545 . S
Gd504 O549 2.606 . S
Gd504 O551 2.429 . S
Gd504 O552 2.545 . S
Gd504 O553 2.412 . S
Gd504 O555 2.362 . S
Gd504 O556 2.324 . S
Gd504 C563 2.828 . S
Gd505 N514 2.661 . S
Gd505 N518 2.601 . S
Gd505 O549 2.362 . S
Gd505 O550 2.324 . S
Gd505 O554 2.545 . S
Gd505 O555 2.606 . S
Gd505 O557 2.429 . S
Gd505 O558 2.545 . S
Gd505 O559 2.412 . S
Gd505 C572 2.828 . S
C506 C509 1.417 . S
C506 C511 1.431 . S
C506 C512 1.412 . S
C507 C510 1.437 . S
C507 C511 1.317 . S
C507 H526 0.929 . S
C508 C509 1.426 . S
C508 C510 1.413 . S
C508 N518 1.359 . S
C509 C506 1.417 . S
C509 C508 1.426 . S
C509 N514 1.350 . S
C510 C507 1.437 . S
C510 C508 1.413 . S
C510 C520 1.391 . S
C511 C506 1.431 . S
C511 C507 1.317 . S
C511 H522 0.930 . S
C512 C506 1.412 . S
C512 C513 1.355 . S
C512 H524 0.930 . S
C513 C512 1.355 . S
C513 C515 1.402 . S
C513 H525 0.930 . S
N514 Gd505 2.661 . S
N514 C509 1.350 . S
N514 C515 1.307 . S
C515 C513 1.402 . S
C515 N514 1.307 . S
C515 H516 0.930 . S
H516 C515 0.930 . S
C517 N518 1.334 . S
C517 C519 1.394 . S
C517 H521 0.930 . S
N518 Gd505 2.601 . S
N518 C508 1.359 . S
N518 C517 1.334 . S
C519 C517 1.394 . S
C519 C520 1.359 . S
C519 H531 0.930 . S
C520 C510 1.391 . S
C520 C519 1.359 . S
C520 H532 0.929 . S
H521 C517 0.930 . S
H522 C511 0.930 . S
H523 C540 0.930 . S
H524 C512 0.930 . S
H525 C513 0.930 . S
H526 C507 0.929 . S
H527 C545 0.930 . S
H528 C536 0.930 . S
H529 C537 0.930 . S
H530 C561 0.929 . S
H531 C519 0.930 . S
H532 C520 0.929 . S
H533 C562 0.930 . S
H534 C543 0.930 . S
N535 Gd504 2.661 . S
N535 C539 1.350 . S
N535 C540 1.307 . S
C536 H528 0.930 . S
C536 C537 1.355 . S
C536 C538 1.412 . S
C537 H529 0.930 . S
C537 C536 1.355 . S
C537 C540 1.402 . S
C538 C536 1.412 . S
C538 C539 1.417 . S
C538 C562 1.431 . S
C539 N535 1.350 . S
C539 C538 1.417 . S
C539 C542 1.426 . S
C540 H523 0.930 . S
C540 N535 1.307 . S
C540 C537 1.402 . S
N541 Gd504 2.601 . S
N541 C542 1.359 . S
N541 C545 1.334 . S
C542 C539 1.426 . S
C542 N541 1.359 . S
C542 C546 1.413 . S
C543 H534 0.930 . S
C543 C544 1.359 . S
C543 C545 1.394 . S
C544 C543 1.359 . S
C544 C546 1.391 . S
C544 H547 0.929 . S
C545 H527 0.930 . S
C545 N541 1.334 . S
C545 C543 1.394 . S
C546 C542 1.413 . S
C546 C544 1.391 . S
C546 C561 1.437 . S
H547 C544 0.929 . S
O548 Gd504 2.545 . S
O548 C563 1.258 . S
O549 Gd504 2.606 . S
O549 Gd505 2.362 . S
O549 C560 1.284 . S
O550 Gd505 2.324 . S
O550 C570 1.254 . S
O551 Gd504 2.429 . S
O551 C570 1.268 . S
O552 Gd504 2.545 . S
O552 C560 1.250 . S
O553 Gd504 2.412 . S
O553 C563 1.252 . S
O554 Gd505 2.545 . S
O554 C572 1.258 . S
O555 Gd504 2.362 . S
O555 Gd505 2.606 . S
O555 C571 1.284 . S
O556 Gd504 2.324 . S
O556 C579 1.254 . S
O557 Gd505 2.429 . S
O557 C579 1.268 . S
O558 Gd505 2.545 . S
O558 C571 1.250 . S
O559 Gd505 2.412 . S
O559 C572 1.252 . S
C560 O549 1.284 . S
C560 O552 1.250 . S
C561 H530 0.929 . S
C561 C546 1.437 . S
C561 C562 1.317 . S
C562 H533 0.930 . S
C562 C538 1.431 . S
C562 C561 1.317 . S
C563 Gd504 2.828 . S
C563 O548 1.258 . S
C563 O553 1.252 . S
C563 C564 1.497 . S
C564 C563 1.497 . S
C564 C565 1.395 . S
C564 C566 1.380 . S
C565 C564 1.395 . S
C565 C568 1.398 . S
C565 H580 0.930 . S
C566 C564 1.380 . S
C566 C567 1.391 . S
C566 H581 0.930 . S
C567 C566 1.391 . S
C567 C569 1.387 . S
C568 C565 1.398 . S
C568 C569 1.380 . S
C568 H582 0.930 . S
C569 C567 1.387 . S
C569 C568 1.380 . S
C569 H583 0.930 . S
C570 O550 1.254 . S
C570 O551 1.268 . S
C571 O555 1.284 . S
C571 O558 1.250 . S
C572 Gd505 2.828 . S
C572 O554 1.258 . S
C572 O559 1.252 . S
C572 C573 1.497 . S
C573 C572 1.497 . S
C573 C574 1.395 . S
C573 C575 1.380 . S
C574 C573 1.395 . S
C574 C577 1.398 . S
C574 H584 0.930 . S
C575 C573 1.380 . S
C575 C576 1.391 . S
C575 H585 0.930 . S
C576 C575 1.391 . S
C576 C578 1.387 . S
C577 C574 1.398 . S
C577 C578 1.380 . S
C577 H586 0.930 . S
C578 C576 1.387 . S
C578 C577 1.380 . S
C578 H587 0.930 . S
C579 O556 1.254 . S
C579 O557 1.268 . S
H580 C565 0.930 . S
H581 C566 0.930 . S
H582 C568 0.930 . S
H583 C569 0.930 . S
H584 C574 0.930 . S
H585 C575 0.930 . S
H586 C577 0.930 . S
H587 C578 0.930 . S
Gd588 N619 2.661 . S
Gd588 N625 2.601 . S
Gd588 O632 2.545 . S
Gd588 O633 2.606 . S
Gd588 O635 2.429 . S
Gd588 O636 2.545 . S
Gd588 O637 2.412 . S
Gd588 O639 2.362 . S
Gd588 O640 2.324 . S
Gd588 C647 2.828 . S
Gd589 N598 2.661 . S
Gd589 N602 2.601 . S
Gd589 O633 2.362 . S
Gd589 O634 2.324 . S
Gd589 O638 2.545 . S
Gd589 O639 2.606 . S
Gd589 O641 2.429 . S
Gd589 O642 2.545 . S
Gd589 O643 2.412 . S
Gd589 C656 2.828 . S
C590 C593 1.417 . S
C590 C595 1.431 . S
C590 C596 1.412 . S
C591 C594 1.437 . S
C591 C595 1.317 . S
C591 H610 0.929 . S
C592 C593 1.426 . S
C592 C594 1.413 . S
C592 N602 1.359 . S
C593 C590 1.417 . S
C593 C592 1.426 . S
C593 N598 1.350 . S
C594 C591 1.437 . S
C594 C592 1.413 . S
C594 C604 1.391 . S
C595 C590 1.431 . S
C595 C591 1.317 . S
C595 H606 0.930 . S
C596 C590 1.412 . S
C596 C597 1.355 . S
C596 H608 0.930 . S
C597 C596 1.355 . S
C597 C599 1.402 . S
C597 H609 0.930 . S
N598 Gd589 2.661 . S
N598 C593 1.350 . S
N598 C599 1.307 . S
C599 C597 1.402 . S
C599 N598 1.307 . S
C599 H600 0.930 . S
H600 C599 0.930 . S
C601 N602 1.334 . S
C601 C603 1.394 . S
C601 H605 0.930 . S
N602 Gd589 2.601 . S
N602 C592 1.359 . S
N602 C601 1.334 . S
C603 C601 1.394 . S
C603 C604 1.359 . S
C603 H615 0.930 . S
C604 C594 1.391 . S
C604 C603 1.359 . S
C604 H616 0.929 . S
H605 C601 0.930 . S
H606 C595 0.930 . S
H607 C624 0.930 . S
H608 C596 0.930 . S
H609 C597 0.930 . S
H610 C591 0.929 . S
H611 C629 0.930 . S
H612 C620 0.930 . S
H613 C621 0.930 . S
H614 C645 0.929 . S
H615 C603 0.930 . S
H616 C604 0.929 . S
H617 C646 0.930 . S
H618 C627 0.930 . S
N619 Gd588 2.661 . S
N619 C623 1.350 . S
N619 C624 1.307 . S
C620 H612 0.930 . S
C620 C621 1.355 . S
C620 C622 1.412 . S
C621 H613 0.930 . S
C621 C620 1.355 . S
C621 C624 1.402 . S
C622 C620 1.412 . S
C622 C623 1.417 . S
C622 C646 1.431 . S
C623 N619 1.350 . S
C623 C622 1.417 . S
C623 C626 1.426 . S
C624 H607 0.930 . S
C624 N619 1.307 . S
C624 C621 1.402 . S
N625 Gd588 2.601 . S
N625 C626 1.359 . S
N625 C629 1.334 . S
C626 C623 1.426 . S
C626 N625 1.359 . S
C626 C630 1.413 . S
C627 H618 0.930 . S
C627 C628 1.359 . S
C627 C629 1.394 . S
C628 C627 1.359 . S
C628 C630 1.391 . S
C628 H631 0.929 . S
C629 H611 0.930 . S
C629 N625 1.334 . S
C629 C627 1.394 . S
C630 C626 1.413 . S
C630 C628 1.391 . S
C630 C645 1.437 . S
H631 C628 0.929 . S
O632 Gd588 2.545 . S
O632 C647 1.258 . S
O633 Gd588 2.606 . S
O633 Gd589 2.362 . S
O633 C644 1.284 . S
O634 Gd589 2.324 . S
O634 C654 1.254 . S
O635 Gd588 2.429 . S
O635 C654 1.268 . S
O636 Gd588 2.545 . S
O636 C644 1.250 . S
O637 Gd588 2.412 . S
O637 C647 1.252 . S
O638 Gd589 2.545 . S
O638 C656 1.258 . S
O639 Gd588 2.362 . S
O639 Gd589 2.606 . S
O639 C655 1.284 . S
O640 Gd588 2.324 . S
O640 C663 1.254 . S
O641 Gd589 2.429 . S
O641 C663 1.268 . S
O642 Gd589 2.545 . S
O642 C655 1.250 . S
O643 Gd589 2.412 . S
O643 C656 1.252 . S
C644 O633 1.284 . S
C644 O636 1.250 . S
C645 H614 0.929 . S
C645 C630 1.437 . S
C645 C646 1.317 . S
C646 H617 0.930 . S
C646 C622 1.431 . S
C646 C645 1.317 . S
C647 Gd588 2.828 . S
C647 O632 1.258 . S
C647 O637 1.252 . S
C647 C648 1.497 . S
C648 C647 1.497 . S
C648 C649 1.395 . S
C648 C650 1.380 . S
C649 C648 1.395 . S
C649 C652 1.398 . S
C649 H664 0.930 . S
C650 C648 1.380 . S
C650 C651 1.391 . S
C650 H665 0.930 . S
C651 C650 1.391 . S
C651 C653 1.387 . S
C652 C649 1.398 . S
C652 C653 1.380 . S
C652 H666 0.930 . S
C653 C651 1.387 . S
C653 C652 1.380 . S
C653 H667 0.930 . S
C654 O634 1.254 . S
C654 O635 1.268 . S
C655 O639 1.284 . S
C655 O642 1.250 . S
C656 Gd589 2.828 . S
C656 O638 1.258 . S
C656 O643 1.252 . S
C656 C657 1.497 . S
C657 C656 1.497 . S
C657 C658 1.395 . S
C657 C659 1.380 . S
C658 C657 1.395 . S
C658 C661 1.398 . S
C658 H668 0.930 . S
C659 C657 1.380 . S
C659 C660 1.391 . S
C659 H669 0.930 . S
C660 C659 1.391 . S
C660 C662 1.387 . S
C661 C658 1.398 . S
C661 C662 1.380 . S
C661 H670 0.930 . S
C662 C660 1.387 . S
C662 C661 1.380 . S
C662 H671 0.930 . S
C663 O640 1.254 . S
C663 O641 1.268 . S
H664 C649 0.930 . S
H665 C650 0.930 . S
H666 C652 0.930 . S
H667 C653 0.930 . S
H668 C658 0.930 . S
H669 C659 0.930 . S
H670 C661 0.930 . S
H671 C662 0.930 . S
C672 C673 1.349 . S
C672 C674 1.327 . S
C672 H697 0.950 . S
C673 C672 1.349 . S
C673 C689 1.349 1_554 S
C674 C672 1.327 . S
C674 C693 1.429 . S
C674 H698 0.950 . S
C675 C692 1.574 . S
C675 C694 1.368 1_556 S
C675 H699 0.949 . S
H676 C680 0.949 . S
C677 C678 1.349 1_556 S
C677 C679 1.327 . S
C677 H700 0.950 . S
C678 C677 1.349 1_554 S
C678 C690 1.349 . S
C679 C677 1.327 . S
C679 C695 1.429 1_556 S
C679 H701 0.950 . S
C680 H676 0.949 . S
C680 C688 1.574 . S
C680 C696 1.368 . S
H681 C689 0.950 . S
H682 C687 0.950 . S
H683 C688 0.949 . S
H684 C690 0.950 . S
H685 C691 0.950 . S
H686 C692 0.949 . S
C687 H682 0.950 . S
C687 C689 1.327 . S
C687 C693 1.429 1_556 S
C688 C680 1.574 . S
C688 H683 0.949 . S
C688 C694 1.368 . S
C689 C673 1.349 1_556 S
C689 H681 0.950 . S
C689 C687 1.327 . S
C690 C678 1.349 . S
C690 H684 0.950 . S
C690 C691 1.327 . S
C691 H685 0.950 . S
C691 C690 1.327 . S
C691 C695 1.429 . S
C692 C675 1.574 . S
C692 H686 0.949 . S
C692 C696 1.368 1_556 S
C693 C674 1.429 . S
C693 C687 1.429 1_554 S
C693 C694 1.523 . S
C694 C675 1.368 1_554 S
C694 C688 1.368 . S
C694 C693 1.523 . S
C695 C679 1.429 1_554 S
C695 C691 1.429 . S
C695 C696 1.523 . S
C696 C680 1.368 . S
C696 C692 1.368 1_554 S
C696 C695 1.523 . S
H697 C672 0.950 . S
H698 C674 0.950 . S
H699 C675 0.949 . S
H700 C677 0.950 . S
H701 C679 0.950 . S
C702 C703 1.349 1_556 S
C702 C704 1.327 . S
C702 H727 0.950 . S
C703 C702 1.349 1_554 S
C703 C719 1.349 . S
C704 C702 1.327 . S
C704 C723 1.429 1_556 S
C704 H728 0.950 . S
C705 C722 1.574 . S
C705 C724 1.368 . S
C705 H729 0.949 . S
H706 C710 0.949 . S
C707 C708 1.349 . S
C707 C709 1.327 . S
C707 H730 0.950 . S
C708 C707 1.349 . S
C708 C720 1.349 1_554 S
C709 C707 1.327 . S
C709 C725 1.429 . S
C709 H731 0.950 . S
C710 H706 0.949 . S
C710 C718 1.574 . S
C710 C726 1.368 1_556 S
H711 C719 0.950 . S
H712 C717 0.950 . S
H713 C718 0.949 . S
H714 C720 0.950 . S
H715 C721 0.950 . S
H716 C722 0.949 . S
C717 H712 0.950 . S
C717 C719 1.327 . S
C717 C723 1.429 . S
C718 C710 1.574 . S
C718 H713 0.949 . S
C718 C724 1.368 1_556 S
C719 C703 1.349 . S
C719 H711 0.950 . S
C719 C717 1.327 . S
C720 C708 1.349 1_556 S
C720 H714 0.950 . S
C720 C721 1.327 . S
C721 H715 0.950 . S
C721 C720 1.327 . S
C721 C725 1.429 1_556 S
C722 C705 1.574 . S
C722 H716 0.949 . S
C722 C726 1.368 . S
C723 C704 1.429 1_554 S
C723 C717 1.429 . S
C723 C724 1.523 . S
C724 C705 1.368 . S
C724 C718 1.368 1_554 S
C724 C723 1.523 . S
C725 C709 1.429 . S
C725 C721 1.429 1_554 S
C725 C726 1.523 . S
C726 C710 1.368 1_554 S
C726 C722 1.368 . S
C726 C725 1.523 . S
H727 C702 0.950 . S
H728 C704 0.950 . S
H729 C705 0.949 . S
H730 C707 0.950 . S
H731 C709 0.950 . S
C732 C733 1.349 . S
C732 C734 1.327 . S
C732 H757 0.950 . S
C733 C732 1.349 . S
C733 C749 1.349 . S
C734 C732 1.327 . S
C734 C753 1.429 . S
C734 H758 0.950 . S
C735 C752 1.574 . S
C735 C754 1.368 . S
C735 H759 0.949 . S
H736 C740 0.949 . S
C737 C738 1.349 . S
C737 C739 1.327 . S
C737 H760 0.950 . S
C738 C737 1.349 . S
C738 C750 1.349 . S
C739 C737 1.327 . S
C739 C755 1.429 . S
C739 H761 0.950 . S
C740 H736 0.949 . S
C740 C748 1.574 . S
C740 C756 1.368 . S
H741 C749 0.950 . S
H742 C747 0.950 . S
H743 C748 0.949 . S
H744 C750 0.950 . S
H745 C751 0.950 . S
H746 C752 0.949 . S
C747 H742 0.950 . S
C747 C749 1.327 . S
C747 C753 1.429 . S
C748 C740 1.574 . S
C748 H743 0.949 . S
C748 C754 1.368 . S
C749 C733 1.349 . S
C749 H741 0.950 . S
C749 C747 1.327 . S
C750 C738 1.349 . S
C750 H744 0.950 . S
C750 C751 1.327 . S
C751 H745 0.950 . S
C751 C750 1.327 . S
C751 C755 1.429 . S
C752 C735 1.574 . S
C752 H746 0.949 . S
C752 C756 1.368 . S
C753 C734 1.429 . S
C753 C747 1.429 . S
C753 C754 1.523 . S
C754 C735 1.368 . S
C754 C748 1.368 . S
C754 C753 1.523 . S
C755 C739 1.429 . S
C755 C751 1.429 . S
C755 C756 1.523 . S
C756 C740 1.368 . S
C756 C752 1.368 . S
C756 C755 1.523 . S
H757 C732 0.950 . S
H758 C734 0.950 . S
H759 C735 0.949 . S
H760 C737 0.950 . S
H761 C739 0.950 . S
C762 C763 1.349 . S
C762 C764 1.327 . S
C762 H787 0.950 . S
C763 C762 1.349 . S
C763 C779 1.349 . S
C764 C762 1.327 . S
C764 C783 1.429 . S
C764 H788 0.950 . S
C765 C782 1.574 . S
C765 C784 1.368 . S
C765 H789 0.949 . S
H766 C770 0.949 . S
C767 C768 1.349 . S
C767 C769 1.327 . S
C767 H790 0.950 . S
C768 C767 1.349 . S
C768 C780 1.349 . S
C769 C767 1.327 . S
C769 C785 1.429 . S
C769 H791 0.950 . S
C770 H766 0.949 . S
C770 C778 1.574 . S
C770 C786 1.368 . S
H771 C779 0.950 . S
H772 C777 0.950 . S
H773 C778 0.949 . S
H774 C780 0.950 . S
H775 C781 0.950 . S
H776 C782 0.949 . S
C777 H772 0.950 . S
C777 C779 1.327 . S
C777 C783 1.429 . S
C778 C770 1.574 . S
C778 H773 0.949 . S
C778 C784 1.368 . S
C779 C763 1.349 . S
C779 H771 0.950 . S
C779 C777 1.327 . S
C780 C768 1.349 . S
C780 H774 0.950 . S
C780 C781 1.327 . S
C781 H775 0.950 . S
C781 C780 1.327 . S
C781 C785 1.429 . S
C782 C765 1.574 . S
C782 H776 0.949 . S
C782 C786 1.368 . S
C783 C764 1.429 . S
C783 C777 1.429 . S
C783 C784 1.523 . S
C784 C765 1.368 . S
C784 C778 1.368 . S
C784 C783 1.523 . S
C785 C769 1.429 . S
C785 C781 1.429 . S
C785 C786 1.523 . S
C786 C770 1.368 . S
C786 C782 1.368 . S
C786 C785 1.523 . S
H787 C762 0.950 . S
H788 C764 0.950 . S
H789 C765 0.949 . S
H790 C767 0.950 . S
H791 C769 0.950 . S
C792 C793 1.349 . S
C792 C794 1.327 . S
C792 H817 0.950 . S
C793 C792 1.349 . S
C793 C809 1.349 1_554 S
C794 C792 1.327 . S
C794 C813 1.429 . S
C794 H818 0.950 . S
C795 C812 1.574 . S
C795 C814 1.368 1_456 S
C795 H819 0.949 1_455 S
H796 C800 0.949 . S
C797 C798 1.349 1_556 S
C797 C799 1.327 . S
C797 H820 0.950 . S
C798 C797 1.349 1_554 S
C798 C810 1.349 . S
C799 C797 1.327 . S
C799 C815 1.429 1_556 S
C799 H821 0.950 . S
C800 H796 0.949 . S
C800 C808 1.574 . S
C800 C816 1.368 . S
H801 C809 0.950 . S
H802 C807 0.950 . S
H803 C808 0.950 . S
H804 C810 0.950 . S
H805 C811 0.950 . S
H806 C812 0.949 . S
C807 H802 0.950 . S
C807 C809 1.327 . S
C807 C813 1.429 1_556 S
C808 C800 1.574 . S
C808 H803 0.950 . S
C808 C814 1.368 1_455 S
C809 C793 1.349 1_556 S
C809 H801 0.950 . S
C809 C807 1.327 . S
C810 C798 1.349 . S
C810 H804 0.950 . S
C810 C811 1.327 . S
C811 H805 0.950 . S
C811 C810 1.327 . S
C811 C815 1.429 . S
C812 C795 1.574 . S
C812 H806 0.949 . S
C812 C816 1.368 1_556 S
C813 C794 1.429 . S
C813 C807 1.429 1_554 S
C813 C814 1.523 . S
C814 C795 1.368 1_654 S
C814 C808 1.368 1_655 S
C814 C813 1.523 . S
C815 C799 1.429 1_554 S
C815 C811 1.429 . S
C815 C816 1.523 . S
C816 C800 1.368 . S
C816 C812 1.368 1_554 S
C816 C815 1.523 . S
H817 C792 0.950 . S
H818 C794 0.950 . S
H819 C795 0.949 1_655 S
H820 C797 0.950 . S
H821 C799 0.950 . S
C822 C823 1.349 . S
C822 C824 1.327 . S
C822 H847 0.950 1_554 S
C823 C822 1.349 . S
C823 C839 1.349 . S
C824 C822 1.327 . S
C824 C843 1.429 . S
C824 H848 0.950 1_554 S
C825 C842 1.574 . S
C825 C844 1.368 1_655 S
C825 H849 0.949 1_655 S
H826 C830 0.949 . S
C827 C828 1.349 . S
C827 C829 1.327 . S
C827 H850 0.950 . S
C828 C827 1.349 . S
C828 C840 1.349 . S
C829 C827 1.327 . S
C829 C845 1.429 . S
C829 H851 0.950 . S
C830 H826 0.949 . S
C830 C838 1.574 . S
C830 C846 1.368 . S
H831 C839 0.950 . S
H832 C837 0.950 . S
H833 C838 0.951 . S
H834 C840 0.950 . S
H835 C841 0.950 . S
H836 C842 0.949 . S
C837 H832 0.950 . S
C837 C839 1.327 . S
C837 C843 1.429 . S
C838 C830 1.574 . S
C838 H833 0.951 . S
C838 C844 1.368 1_655 S
C839 C823 1.349 . S
C839 H831 0.950 . S
C839 C837 1.327 . S
C840 C828 1.349 . S
C840 H834 0.950 . S
C840 C841 1.327 . S
C841 H835 0.950 . S
C841 C840 1.327 . S
C841 C845 1.429 . S
C842 C825 1.574 . S
C842 H836 0.949 . S
C842 C846 1.368 . S
C843 C824 1.429 . S
C843 C837 1.429 . S
C843 C844 1.523 . S
C844 C825 1.368 1_455 S
C844 C838 1.368 1_455 S
C844 C843 1.523 . S
C845 C829 1.429 . S
C845 C841 1.429 . S
C845 C846 1.523 . S
C846 C830 1.368 . S
C846 C842 1.368 . S
C846 C845 1.523 . S
H847 C822 0.950 1_556 S
H848 C824 0.950 1_556 S
H849 C825 0.949 1_455 S
H850 C827 0.950 . S
H851 C829 0.950 . S
C852 C853 1.349 . S
C852 C854 1.327 . S
C852 H877 0.950 . S
C853 C852 1.349 . S
C853 C869 1.349 . S
C854 C852 1.327 . S
C854 C873 1.429 . S
C854 H878 0.950 . S
C855 C872 1.574 . S
C855 C874 1.368 . S
C855 H879 0.949 . S
H856 C860 0.949 . S
C857 C858 1.349 . S
C857 C859 1.327 . S
C857 H880 0.950 . S
C858 C857 1.349 . S
C858 C870 1.349 . S
C859 C857 1.327 . S
C859 C875 1.429 . S
C859 H881 0.950 . S
C860 H856 0.949 . S
C860 C868 1.574 . S
C860 C876 1.368 1_455 S
H861 C869 0.950 . S
H862 C867 0.950 . S
H863 C868 0.949 . S
H864 C870 0.950 . S
H865 C871 0.950 . S
H866 C872 0.949 1_655 S
C867 H862 0.950 . S
C867 C869 1.327 . S
C867 C873 1.429 . S
C868 C860 1.574 . S
C868 H863 0.949 . S
C868 C874 1.368 . S
C869 C853 1.349 . S
C869 H861 0.950 . S
C869 C867 1.327 . S
C870 C858 1.349 . S
C870 H864 0.950 . S
C870 C871 1.327 . S
C871 H865 0.950 . S
C871 C870 1.327 . S
C871 C875 1.429 . S
C872 C855 1.574 . S
C872 H866 0.949 1_455 S
C872 C876 1.368 1_455 S
C873 C854 1.429 . S
C873 C867 1.429 . S
C873 C874 1.523 . S
C874 C855 1.368 . S
C874 C868 1.368 . S
C874 C873 1.523 . S
C875 C859 1.429 . S
C875 C871 1.429 . S
C875 C876 1.523 . S
C876 C860 1.368 1_655 S
C876 C872 1.368 1_655 S
C876 C875 1.523 . S
H877 C852 0.950 . S
H878 C854 0.950 . S
H879 C855 0.949 . S
H880 C857 0.950 . S
H881 C859 0.950 . S
C882 C883 1.349 . S
C882 C884 1.327 . S
C882 H907 0.950 . S
C883 C882 1.349 . S
C883 C899 1.349 . S
C884 C882 1.327 . S
C884 C903 1.429 . S
C884 H908 0.950 . S
C885 C902 1.574 . S
C885 C904 1.368 . S
C885 H909 0.949 . S
H886 C890 0.949 1_455 S
C887 C888 1.349 . S
C887 C889 1.327 . S
C887 H910 0.950 . S
C888 C887 1.349 . S
C888 C900 1.349 . S
C889 C887 1.327 . S
C889 C905 1.429 . S
C889 H911 0.950 . S
C890 H886 0.949 1_655 S
C890 C898 1.574 . S
C890 C906 1.368 1_655 S
H891 C899 0.950 . S
H892 C897 0.950 . S
H893 C898 0.949 . S
H894 C900 0.950 . S
H895 C901 0.950 . S
H896 C902 0.949 . S
C897 H892 0.950 . S
C897 C899 1.327 . S
C897 C903 1.429 . S
C898 C890 1.574 . S
C898 H893 0.949 . S
C898 C904 1.368 . S
C899 C883 1.349 . S
C899 H891 0.950 . S
C899 C897 1.327 . S
C900 C888 1.349 . S
C900 H894 0.950 . S
C900 C901 1.327 . S
C901 H895 0.950 . S
C901 C900 1.327 . S
C901 C905 1.429 . S
C902 C885 1.574 . S
C902 H896 0.949 . S
C902 C906 1.368 1_655 S
C903 C884 1.429 . S
C903 C897 1.429 . S
C903 C904 1.523 . S
C904 C885 1.368 . S
C904 C898 1.368 . S
C904 C903 1.523 . S
C905 C889 1.429 . S
C905 C901 1.429 . S
C905 C906 1.523 . S
C906 C890 1.368 1_455 S
C906 C902 1.368 1_455 S
C906 C905 1.523 . S
H907 C882 0.950 . S
H908 C884 0.950 . S
H909 C885 0.949 . S
H910 C887 0.950 . S
H911 C889 0.950 . S
C912 C913 1.349 1_556 S
C912 C914 1.327 . S
C912 H937 0.950 . S
C913 C912 1.349 1_554 S
C913 C929 1.349 . S
C914 C912 1.327 . S
C914 C933 1.429 1_556 S
C914 H938 0.950 . S
C915 C932 1.574 . S
C915 C934 1.368 1_655 S
C915 H939 0.949 . S
H916 C920 0.949 . S
C917 C918 1.349 . S
C917 C919 1.327 . S
C917 H940 0.950 . S
C918 C917 1.349 . S
C918 C930 1.349 1_554 S
C919 C917 1.327 . S
C919 C935 1.429 . S
C919 H941 0.950 . S
C920 H916 0.949 . S
C920 C928 1.574 . S
C920 C936 1.368 1_456 S
H921 C929 0.950 1_655 S
H922 C927 0.950 1_655 S
H923 C928 0.949 . S
H924 C930 0.950 1_455 S
H925 C931 0.950 1_455 S
H926 C932 0.949 . S
C927 H922 0.950 1_455 S
C927 C929 1.327 . S
C927 C933 1.429 . S
C928 C920 1.574 . S
C928 H923 0.949 . S
C928 C934 1.368 1_556 S
C929 C913 1.349 . S
C929 H921 0.950 1_455 S
C929 C927 1.327 . S
C930 C918 1.349 1_556 S
C930 H924 0.950 1_655 S
C930 C931 1.327 . S
C931 H925 0.950 1_655 S
C931 C930 1.327 . S
C931 C935 1.429 1_556 S
C932 C915 1.574 . S
C932 H926 0.949 . S
C932 C936 1.368 . S
C933 C914 1.429 1_554 S
C933 C927 1.429 . S
C933 C934 1.523 . S
C934 C915 1.368 1_455 S
C934 C928 1.368 1_554 S
C934 C933 1.523 . S
C935 C919 1.429 . S
C935 C931 1.429 1_554 S
C935 C936 1.523 . S
C936 C920 1.368 1_654 S
C936 C932 1.368 . S
C936 C935 1.523 . S
H937 C912 0.950 . S
H938 C914 0.950 . S
H939 C915 0.949 . S
H940 C917 0.950 . S
H941 C919 0.950 . S
C942 C943 1.349 . S
C942 C944 1.327 . S
C942 H967 0.950 . S
C943 C942 1.349 . S
C943 C959 1.349 . S
C944 C942 1.327 . S
C944 C963 1.429 . S
C944 H968 0.950 . S
C945 C962 1.574 1_455 S
C945 C964 1.368 . S
C945 H969 0.949 . S
H946 C950 0.949 . S
C947 C948 1.349 . S
C947 C949 1.327 . S
C947 H970 0.950 . S
C948 C947 1.349 . S
C948 C960 1.349 . S
C949 C947 1.327 . S
C949 C965 1.429 . S
C949 H971 0.950 . S
C950 H946 0.949 . S
C950 C958 1.574 1_655 S
C950 C966 1.368 . S
H951 C959 0.950 . S
H952 C957 0.950 . S
H953 C958 0.949 . S
H954 C960 0.950 . S
H955 C961 0.950 . S
H956 C962 0.949 . S
C957 H952 0.950 . S
C957 C959 1.327 . S
C957 C963 1.429 . S
C958 C950 1.574 1_455 S
C958 H953 0.949 . S
C958 C964 1.368 . S
C959 C943 1.349 . S
C959 H951 0.950 . S
C959 C957 1.327 . S
C960 C948 1.349 . S
C960 H954 0.950 . S
C960 C961 1.327 . S
C961 H955 0.950 . S
C961 C960 1.327 . S
C961 C965 1.429 . S
C962 C945 1.574 1_655 S
C962 H956 0.949 . S
C962 C966 1.368 . S
C963 C944 1.429 . S
C963 C957 1.429 . S
C963 C964 1.523 . S
C964 C945 1.368 . S
C964 C958 1.368 . S
C964 C963 1.523 . S
C965 C949 1.429 . S
C965 C961 1.429 . S
C965 C966 1.523 . S
C966 C950 1.368 . S
C966 C962 1.368 . S
C966 C965 1.523 . S
H967 C942 0.950 . S
H968 C944 0.950 . S
H969 C945 0.949 . S
H970 C947 0.950 . S
H971 C949 0.950 . S
C972 C973 1.349 . S
C972 C974 1.327 . S
C972 H997 0.950 . S
C973 C972 1.349 . S
C973 C989 1.349 1_554 S
C974 C972 1.327 . S
C974 C993 1.429 . S
C974 H998 0.950 . S
C975 C992 1.574 1_565 S
C975 C994 1.368 1_556 S
C975 H999 0.949 . S
H976 C980 0.949 . S
C977 C978 1.349 1_556 S
C977 C979 1.327 . S
C977 H1000 0.950 . S
C978 C977 1.349 1_554 S
C978 C990 1.349 . S
C979 C977 1.327 . S
C979 C995 1.429 1_556 S
C979 H1001 0.950 . S
C980 H976 0.949 . S
C980 C988 1.574 1_545 S
C980 C996 1.368 . S
H981 C989 0.950 . S
H982 C987 0.950 . S
H983 C988 0.949 . S
H984 C990 0.950 . S
H985 C991 0.950 . S
H986 C992 0.949 . S
C987 H982 0.950 . S
C987 C989 1.327 . S
C987 C993 1.429 1_556 S
C988 C980 1.574 1_565 S
C988 H983 0.949 . S
C988 C994 1.368 . S
C989 C973 1.349 1_556 S
C989 H981 0.950 . S
C989 C987 1.327 . S
C990 C978 1.349 . S
C990 H984 0.950 . S
C990 C991 1.327 . S
C991 H985 0.950 . S
C991 C990 1.327 . S
C991 C995 1.429 . S
C992 C975 1.574 1_545 S
C992 H986 0.949 . S
C992 C996 1.368 1_556 S
C993 C974 1.429 . S
C993 C987 1.429 1_554 S
C993 C994 1.523 . S
C994 C975 1.368 1_554 S
C994 C988 1.368 . S
C994 C993 1.523 . S
C995 C979 1.429 1_554 S
C995 C991 1.429 . S
C995 C996 1.523 . S
C996 C980 1.368 . S
C996 C992 1.368 1_554 S
C996 C995 1.523 . S
H997 C972 0.950 . S
H998 C974 0.950 . S
H999 C975 0.949 . S
H1000 C977 0.950 . S
H1001 C979 0.950 . S
C1002 C1003 1.349 . S
C1002 C1004 1.327 . S
C1002 H1027 0.950 . S
C1003 C1002 1.349 . S
C1003 C1019 1.349 . S
C1004 C1002 1.327 . S
C1004 C1023 1.429 . S
C1004 H1028 0.950 . S
C1005 C1022 1.574 1_545 S
C1005 C1024 1.368 . S
C1005 H1029 0.949 . S
H1006 C1010 0.949 . S
C1007 C1008 1.349 . S
C1007 C1009 1.327 . S
C1007 H1030 0.950 . S
C1008 C1007 1.349 . S
C1008 C1020 1.349 . S
C1009 C1007 1.327 . S
C1009 C1025 1.429 . S
C1009 H1031 0.950 . S
C1010 H1006 0.949 . S
C1010 C1018 1.574 1_565 S
C1010 C1026 1.368 . S
H1011 C1019 0.950 . S
H1012 C1017 0.950 . S
H1013 C1018 0.949 . S
H1014 C1020 0.950 . S
H1015 C1021 0.950 . S
H1016 C1022 0.949 . S
C1017 H1012 0.950 . S
C1017 C1019 1.327 . S
C1017 C1023 1.429 . S
C1018 C1010 1.574 1_545 S
C1018 H1013 0.949 . S
C1018 C1024 1.368 . S
C1019 C1003 1.349 . S
C1019 H1011 0.950 . S
C1019 C1017 1.327 . S
C1020 C1008 1.349 . S
C1020 H1014 0.950 . S
C1020 C1021 1.327 . S
C1021 H1015 0.950 . S
C1021 C1020 1.327 . S
C1021 C1025 1.429 . S
C1022 C1005 1.574 1_565 S
C1022 H1016 0.949 . S
C1022 C1026 1.368 . S
C1023 C1004 1.429 . S
C1023 C1017 1.429 . S
C1023 C1024 1.523 . S
C1024 C1005 1.368 . S
C1024 C1018 1.368 . S
C1024 C1023 1.523 . S
C1025 C1009 1.429 . S
C1025 C1021 1.429 . S
C1025 C1026 1.523 . S
C1026 C1010 1.368 . S
C1026 C1022 1.368 . S
C1026 C1025 1.523 . S
H1027 C1002 0.950 . S
H1028 C1004 0.950 . S
H1029 C1005 0.949 . S
H1030 C1007 0.950 . S
H1031 C1009 0.950 . S
C1032 C1033 1.349 . S
C1032 C1034 1.327 . S
C1032 H1057 0.950 . S
C1033 C1032 1.349 . S
C1033 C1049 1.349 1_554 S
C1034 C1032 1.327 . S
C1034 C1053 1.429 . S
C1034 H1058 0.950 . S
C1035 C1052 1.574 . S
C1035 C1054 1.368 1_556 S
C1035 H1059 0.949 . S
H1036 C1040 0.949 . S
C1037 C1038 1.349 1_556 S
C1037 C1039 1.327 . S
C1037 H1060 0.950 . S
C1038 C1037 1.349 1_554 S
C1038 C1050 1.349 . S
C1039 C1037 1.327 . S
C1039 C1055 1.429 1_556 S
C1039 H1061 0.950 . S
C1040 H1036 0.949 . S
C1040 C1048 1.574 . S
C1040 C1056 1.368 . S
H1041 C1049 0.950 . S
H1042 C1047 0.950 . S
H1043 C1048 0.949 . S
H1044 C1050 0.950 . S
H1045 C1051 0.950 . S
H1046 C1052 0.949 . S
C1047 H1042 0.950 . S
C1047 C1049 1.327 . S
C1047 C1053 1.429 1_556 S
C1048 C1040 1.574 . S
C1048 H1043 0.949 . S
C1048 C1054 1.368 . S
C1049 C1033 1.349 1_556 S
C1049 H1041 0.950 . S
C1049 C1047 1.327 . S
C1050 C1038 1.349 . S
C1050 H1044 0.950 . S
C1050 C1051 1.327 . S
C1051 H1045 0.950 . S
C1051 C1050 1.327 . S
C1051 C1055 1.429 . S
C1052 C1035 1.574 . S
C1052 H1046 0.949 . S
C1052 C1056 1.368 1_556 S
C1053 C1034 1.429 . S
C1053 C1047 1.429 1_554 S
C1053 C1054 1.523 . S
C1054 C1035 1.368 1_554 S
C1054 C1048 1.368 . S
C1054 C1053 1.523 . S
C1055 C1039 1.429 1_554 S
C1055 C1051 1.429 . S
C1055 C1056 1.523 . S
C1056 C1040 1.368 . S
C1056 C1052 1.368 1_554 S
C1056 C1055 1.523 . S
H1057 C1032 0.950 . S
H1058 C1034 0.950 . S
H1059 C1035 0.949 . S
H1060 C1037 0.950 . S
H1061 C1039 0.950 . S
C1062 C1063 1.349 1_556 S
C1062 C1064 1.327 . S
C1062 H1087 0.950 . S
C1063 C1062 1.349 1_554 S
C1063 C1079 1.349 . S
C1064 C1062 1.327 . S
C1064 C1083 1.429 1_556 S
C1064 H1088 0.950 . S
C1065 C1082 1.574 . S
C1065 C1084 1.368 . S
C1065 H1089 0.949 . S
H1066 C1070 0.949 . S
C1067 C1068 1.349 . S
C1067 C1069 1.327 . S
C1067 H1090 0.950 . S
C1068 C1067 1.349 . S
C1068 C1080 1.349 1_554 S
C1069 C1067 1.327 . S
C1069 C1085 1.429 . S
C1069 H1091 0.950 . S
C1070 H1066 0.949 . S
C1070 C1078 1.574 . S
C1070 C1086 1.368 1_556 S
H1071 C1079 0.950 . S
H1072 C1077 0.950 . S
H1073 C1078 0.949 . S
H1074 C1080 0.950 . S
H1075 C1081 0.950 . S
H1076 C1082 0.949 . S
C1077 H1072 0.950 . S
C1077 C1079 1.327 . S
C1077 C1083 1.429 . S
C1078 C1070 1.574 . S
C1078 H1073 0.949 . S
C1078 C1084 1.368 1_556 S
C1079 C1063 1.349 . S
C1079 H1071 0.950 . S
C1079 C1077 1.327 . S
C1080 C1068 1.349 1_556 S
C1080 H1074 0.950 . S
C1080 C1081 1.327 . S
C1081 H1075 0.950 . S
C1081 C1080 1.327 . S
C1081 C1085 1.429 1_556 S
C1082 C1065 1.574 . S
C1082 H1076 0.949 . S
C1082 C1086 1.368 . S
C1083 C1064 1.429 1_554 S
C1083 C1077 1.429 . S
C1083 C1084 1.523 . S
C1084 C1065 1.368 . S
C1084 C1078 1.368 1_554 S
C1084 C1083 1.523 . S
C1085 C1069 1.429 . S
C1085 C1081 1.429 1_554 S
C1085 C1086 1.523 . S
C1086 C1070 1.368 1_554 S
C1086 C1082 1.368 . S
C1086 C1085 1.523 . S
H1087 C1062 0.950 . S
H1088 C1064 0.950 . S
H1089 C1065 0.949 . S
H1090 C1067 0.950 . S
H1091 C1069 0.950 . S
C1092 C1093 1.349 . S
C1092 C1094 1.327 . S
C1092 H1117 0.950 . S
C1093 C1092 1.349 . S
C1093 C1109 1.349 . S
C1094 C1092 1.327 . S
C1094 C1113 1.429 . S
C1094 H1118 0.950 . S
C1095 C1112 1.574 . S
C1095 C1114 1.368 . S
C1095 H1119 0.949 . S
H1096 C1100 0.949 . S
C1097 C1098 1.349 . S
C1097 C1099 1.327 . S
C1097 H1120 0.950 . S
C1098 C1097 1.349 . S
C1098 C1110 1.349 . S
C1099 C1097 1.327 . S
C1099 C1115 1.429 . S
C1099 H1121 0.950 . S
C1100 H1096 0.949 . S
C1100 C1108 1.574 . S
C1100 C1116 1.368 . S
H1101 C1109 0.950 . S
H1102 C1107 0.950 . S
H1103 C1108 0.949 . S
H1104 C1110 0.950 . S
H1105 C1111 0.950 . S
H1106 C1112 0.949 . S
C1107 H1102 0.950 . S
C1107 C1109 1.327 . S
C1107 C1113 1.429 . S
C1108 C1100 1.574 . S
C1108 H1103 0.949 . S
C1108 C1114 1.368 . S
C1109 C1093 1.349 . S
C1109 H1101 0.950 . S
C1109 C1107 1.327 . S
C1110 C1098 1.349 . S
C1110 H1104 0.950 . S
C1110 C1111 1.327 . S
C1111 H1105 0.950 . S
C1111 C1110 1.327 . S
C1111 C1115 1.429 . S
C1112 C1095 1.574 . S
C1112 H1106 0.949 . S
C1112 C1116 1.368 . S
C1113 C1094 1.429 . S
C1113 C1107 1.429 . S
C1113 C1114 1.523 . S
C1114 C1095 1.368 . S
C1114 C1108 1.368 . S
C1114 C1113 1.523 . S
C1115 C1099 1.429 . S
C1115 C1111 1.429 . S
C1115 C1116 1.523 . S
C1116 C1100 1.368 . S
C1116 C1112 1.368 . S
C1116 C1115 1.523 . S
H1117 C1092 0.950 . S
H1118 C1094 0.950 . S
H1119 C1095 0.949 . S
H1120 C1097 0.950 . S
H1121 C1099 0.950 . S
C1122 C1123 1.349 . S
C1122 C1124 1.327 . S
C1122 H1147 0.950 . S
C1123 C1122 1.349 . S
C1123 C1139 1.349 . S
C1124 C1122 1.327 . S
C1124 C1143 1.429 . S
C1124 H1148 0.950 . S
C1125 C1142 1.574 . S
C1125 C1144 1.368 . S
C1125 H1149 0.949 . S
H1126 C1130 0.949 . S
C1127 C1128 1.349 . S
C1127 C1129 1.327 . S
C1127 H1150 0.950 . S
C1128 C1127 1.349 . S
C1128 C1140 1.349 . S
C1129 C1127 1.327 . S
C1129 C1145 1.429 . S
C1129 H1151 0.950 . S
C1130 H1126 0.949 . S
C1130 C1138 1.574 . S
C1130 C1146 1.368 . S
H1131 C1139 0.950 . S
H1132 C1137 0.950 . S
H1133 C1138 0.949 . S
H1134 C1140 0.950 . S
H1135 C1141 0.950 . S
H1136 C1142 0.949 . S
C1137 H1132 0.950 . S
C1137 C1139 1.327 . S
C1137 C1143 1.429 . S
C1138 C1130 1.574 . S
C1138 H1133 0.949 . S
C1138 C1144 1.368 . S
C1139 C1123 1.349 . S
C1139 H1131 0.950 . S
C1139 C1137 1.327 . S
C1140 C1128 1.349 . S
C1140 H1134 0.950 . S
C1140 C1141 1.327 . S
C1141 H1135 0.950 . S
C1141 C1140 1.327 . S
C1141 C1145 1.429 . S
C1142 C1125 1.574 . S
C1142 H1136 0.949 . S
C1142 C1146 1.368 . S
C1143 C1124 1.429 . S
C1143 C1137 1.429 . S
C1143 C1144 1.523 . S
C1144 C1125 1.368 . S
C1144 C1138 1.368 . S
C1144 C1143 1.523 . S
C1145 C1129 1.429 . S
C1145 C1141 1.429 . S
C1145 C1146 1.523 . S
C1146 C1130 1.368 . S
C1146 C1142 1.368 . S
C1146 C1145 1.523 . S
H1147 C1122 0.950 . S
H1148 C1124 0.950 . S
H1149 C1125 0.949 . S
H1150 C1127 0.950 . S
H1151 C1129 0.950 . S
C1152 C1153 1.349 . S
C1152 C1154 1.327 . S
C1152 H1177 0.950 . S
C1153 C1152 1.349 . S
C1153 C1169 1.349 . S
C1154 C1152 1.327 . S
C1154 C1173 1.429 . S
C1154 H1178 0.950 . S
C1155 C1172 1.574 . S
C1155 C1174 1.368 . S
C1155 H1179 0.949 . S
H1156 C1160 0.949 . S
C1157 C1158 1.349 . S
C1157 C1159 1.327 1_655 S
C1157 H1180 0.950 . S
C1158 C1157 1.349 . S
C1158 C1170 1.349 . S
C1159 C1157 1.327 1_455 S
C1159 C1175 1.429 1_455 S
C1159 H1181 0.950 . S
C1160 H1156 0.949 . S
C1160 C1168 1.574 1_655 S
C1160 C1176 1.368 1_655 S
H1161 C1169 0.950 . S
H1162 C1167 0.950 . S
H1163 C1168 0.949 . S
H1164 C1170 0.950 . S
H1165 C1171 0.950 . S
H1166 C1172 0.949 . S
C1167 H1162 0.950 . S
C1167 C1169 1.327 . S
C1167 C1173 1.429 . S
C1168 C1160 1.574 1_455 S
C1168 H1163 0.949 . S
C1168 C1174 1.368 . S
C1169 C1153 1.349 . S
C1169 H1161 0.950 . S
C1169 C1167 1.327 . S
C1170 C1158 1.349 . S
C1170 H1164 0.950 . S
C1170 C1171 1.327 . S
C1171 H1165 0.950 . S
C1171 C1170 1.327 . S
C1171 C1175 1.429 . S
C1172 C1155 1.574 . S
C1172 H1166 0.949 . S
C1172 C1176 1.368 . S
C1173 C1154 1.429 . S
C1173 C1167 1.429 . S
C1173 C1174 1.523 . S
C1174 C1155 1.368 . S
C1174 C1168 1.368 . S
C1174 C1173 1.523 . S
C1175 C1159 1.429 1_655 S
C1175 C1171 1.429 . S
C1175 C1176 1.523 1_655 S
C1176 C1160 1.368 1_455 S
C1176 C1172 1.368 . S
C1176 C1175 1.523 1_455 S
H1177 C1152 0.950 . S
H1178 C1154 0.950 . S
H1179 C1155 0.949 . S
H1180 C1157 0.950 . S
H1181 C1159 0.950 . S
C1182 C1183 1.349 . S
C1182 C1184 1.327 . S
C1182 H1207 0.950 . S
C1183 C1182 1.349 . S
C1183 C1199 1.349 1_655 S
C1184 C1182 1.327 . S
C1184 C1203 1.429 . S
C1184 H1208 0.950 . S
C1185 C1202 1.574 . S
C1185 C1204 1.368 . S
C1185 H1209 0.949 . S
H1186 C1190 0.949 . S
C1187 C1188 1.349 . S
C1187 C1189 1.327 . S
C1187 H1210 0.950 . S
C1188 C1187 1.349 . S
C1188 C1200 1.349 . S
C1189 C1187 1.327 . S
C1189 C1205 1.429 . S
C1189 H1211 0.950 . S
C1190 H1186 0.949 . S
C1190 C1198 1.574 . S
C1190 C1206 1.368 1_655 S
H1191 C1199 0.950 . S
H1192 C1197 0.950 . S
H1193 C1198 0.949 . S
H1194 C1200 0.950 1_655 S
H1195 C1201 0.950 1_655 S
H1196 C1202 0.949 . S
C1197 H1192 0.950 . S
C1197 C1199 1.327 . S
C1197 C1203 1.429 1_455 S
C1198 C1190 1.574 . S
C1198 H1193 0.949 . S
C1198 C1204 1.368 1_655 S
C1199 C1183 1.349 1_455 S
C1199 H1191 0.950 . S
C1199 C1197 1.327 . S
C1200 C1188 1.349 . S
C1200 H1194 0.950 1_455 S
C1200 C1201 1.327 . S
C1201 H1195 0.950 1_455 S
C1201 C1200 1.327 . S
C1201 C1205 1.429 . S
C1202 C1185 1.574 . S
C1202 H1196 0.949 . S
C1202 C1206 1.368 . S
C1203 C1184 1.429 . S
C1203 C1197 1.429 1_655 S
C1203 C1204 1.523 1_655 S
C1204 C1185 1.368 . S
C1204 C1198 1.368 1_455 S
C1204 C1203 1.523 1_455 S
C1205 C1189 1.429 . S
C1205 C1201 1.429 . S
C1205 C1206 1.523 . S
C1206 C1190 1.368 1_455 S
C1206 C1202 1.368 . S
C1206 C1205 1.523 . S
H1207 C1182 0.950 . S
H1208 C1184 0.950 . S
H1209 C1185 0.949 . S
H1210 C1187 0.950 . S
H1211 C1189 0.950 . S
C1212 C1213 1.349 . S
C1212 C1214 1.327 . S
C1212 H1237 0.950 . S
C1213 C1212 1.349 . S
C1213 C1229 1.349 . S
C1214 C1212 1.327 . S
C1214 C1233 1.429 . S
C1214 H1238 0.950 . S
C1215 C1232 1.574 . S
C1215 C1234 1.368 . S
C1215 H1239 0.949 . S
H1216 C1220 0.949 . S
C1217 C1218 1.349 . S
C1217 C1219 1.327 1_455 S
C1217 H1240 0.950 1_455 S
C1218 C1217 1.349 . S
C1218 C1230 1.349 . S
C1219 C1217 1.327 1_655 S
C1219 C1235 1.429 1_655 S
C1219 H1241 0.950 . S
C1220 H1216 0.949 . S
C1220 C1228 1.574 1_455 S
C1220 C1236 1.368 1_455 S
H1221 C1229 0.950 . S
H1222 C1227 0.950 . S
H1223 C1228 0.949 1_455 S
H1224 C1230 0.950 . S
H1225 C1231 0.950 . S
H1226 C1232 0.949 . S
C1227 H1222 0.950 . S
C1227 C1229 1.327 . S
C1227 C1233 1.429 . S
C1228 C1220 1.574 1_655 S
C1228 H1223 0.949 1_655 S
C1228 C1234 1.368 . S
C1229 C1213 1.349 . S
C1229 H1221 0.950 . S
C1229 C1227 1.327 . S
C1230 C1218 1.349 . S
C1230 H1224 0.950 . S
C1230 C1231 1.327 . S
C1231 H1225 0.950 . S
C1231 C1230 1.327 . S
C1231 C1235 1.429 . S
C1232 C1215 1.574 . S
C1232 H1226 0.949 . S
C1232 C1236 1.368 . S
C1233 C1214 1.429 . S
C1233 C1227 1.429 . S
C1233 C1234 1.523 . S
C1234 C1215 1.368 . S
C1234 C1228 1.368 . S
C1234 C1233 1.523 . S
C1235 C1219 1.429 1_455 S
C1235 C1231 1.429 . S
C1235 C1236 1.523 1_455 S
C1236 C1220 1.368 1_655 S
C1236 C1232 1.368 . S
C1236 C1235 1.523 1_655 S
H1237 C1212 0.950 . S
H1238 C1214 0.950 . S
H1239 C1215 0.949 . S
H1240 C1217 0.950 1_655 S
H1241 C1219 0.950 . S
C1242 C1243 1.349 . S
C1242 C1244 1.327 . S
C1242 H1267 0.950 . S
C1243 C1242 1.349 . S
C1243 C1259 1.349 . S
C1244 C1242 1.327 . S
C1244 C1263 1.429 . S
C1244 H1268 0.950 . S
C1245 C1262 1.574 . S
C1245 C1264 1.368 1_455 S
C1245 H1269 0.949 . S
H1246 C1250 0.949 . S
C1247 C1248 1.349 . S
C1247 C1249 1.327 . S
C1247 H1270 0.950 . S
C1248 C1247 1.349 . S
C1248 C1260 1.349 1_455 S
C1249 C1247 1.327 . S
C1249 C1265 1.429 . S
C1249 H1271 0.950 . S
C1250 H1246 0.949 . S
C1250 C1258 1.574 . S
C1250 C1266 1.368 . S
H1251 C1259 0.950 . S
H1252 C1257 0.950 1_455 S
H1253 C1258 0.949 . S
H1254 C1260 0.950 . S
H1255 C1261 0.950 . S
H1256 C1262 0.949 . S
C1257 H1252 0.950 1_655 S
C1257 C1259 1.327 . S
C1257 C1263 1.429 . S
C1258 C1250 1.574 . S
C1258 H1253 0.949 . S
C1258 C1264 1.368 . S
C1259 C1243 1.349 . S
C1259 H1251 0.950 . S
C1259 C1257 1.327 . S
C1260 C1248 1.349 1_655 S
C1260 H1254 0.950 . S
C1260 C1261 1.327 . S
C1261 H1255 0.950 . S
C1261 C1260 1.327 . S
C1261 C1265 1.429 1_655 S
C1262 C1245 1.574 . S
C1262 H1256 0.949 . S
C1262 C1266 1.368 1_455 S
C1263 C1244 1.429 . S
C1263 C1257 1.429 . S
C1263 C1264 1.523 . S
C1264 C1245 1.368 1_655 S
C1264 C1258 1.368 . S
C1264 C1263 1.523 . S
C1265 C1249 1.429 . S
C1265 C1261 1.429 1_455 S
C1265 C1266 1.523 1_455 S
C1266 C1250 1.368 . S
C1266 C1262 1.368 1_655 S
C1266 C1265 1.523 1_655 S
H1267 C1242 0.950 . S
H1268 C1244 0.950 . S
H1269 C1245 0.949 . S
H1270 C1247 0.950 . S
H1271 C1249 0.950 . S
C1272 C1273 1.349 . S
C1272 C1274 1.327 . S
C1272 H1297 0.950 . S
C1273 C1272 1.349 . S
C1273 C1289 1.349 . S
C1274 C1272 1.327 . S
C1274 C1293 1.429 . S
C1274 H1298 0.950 . S
C1275 C1292 1.574 . S
C1275 C1294 1.368 . S
C1275 H1299 0.949 . S
H1276 C1280 0.949 . S
C1277 C1278 1.349 . S
C1277 C1279 1.327 . S
C1277 H1300 0.950 . S
C1278 C1277 1.349 . S
C1278 C1290 1.349 . S
C1279 C1277 1.327 . S
C1279 C1295 1.429 . S
C1279 H1301 0.950 . S
C1280 H1276 0.949 . S
C1280 C1288 1.574 . S
C1280 C1296 1.368 . S
H1281 C1289 0.950 . S
H1282 C1287 0.950 . S
H1283 C1288 0.949 . S
H1284 C1290 0.950 . S
H1285 C1291 0.950 . S
H1286 C1292 0.949 . S
C1287 H1282 0.950 . S
C1287 C1289 1.327 . S
C1287 C1293 1.429 . S
C1288 C1280 1.574 . S
C1288 H1283 0.949 . S
C1288 C1294 1.368 . S
C1289 C1273 1.349 . S
C1289 H1281 0.950 . S
C1289 C1287 1.327 . S
C1290 C1278 1.349 . S
C1290 H1284 0.950 . S
C1290 C1291 1.327 . S
C1291 H1285 0.950 . S
C1291 C1290 1.327 . S
C1291 C1295 1.429 . S
C1292 C1275 1.574 . S
C1292 H1286 0.949 . S
C1292 C1296 1.368 . S
C1293 C1274 1.429 . S
C1293 C1287 1.429 . S
C1293 C1294 1.523 . S
C1294 C1275 1.368 . S
C1294 C1288 1.368 . S
C1294 C1293 1.523 . S
C1295 C1279 1.429 . S
C1295 C1291 1.429 . S
C1295 C1296 1.523 . S
C1296 C1280 1.368 . S
C1296 C1292 1.368 . S
C1296 C1295 1.523 . S
H1297 C1272 0.950 . S
H1298 C1274 0.950 . S
H1299 C1275 0.949 . S
H1300 C1277 0.950 . S
H1301 C1279 0.950 . S
C1302 C1303 1.349 . S
C1302 C1304 1.327 . S
C1302 H1327 0.950 . S
C1303 C1302 1.349 . S
C1303 C1319 1.349 . S
C1304 C1302 1.327 . S
C1304 C1323 1.429 . S
C1304 H1328 0.950 . S
C1305 C1322 1.574 . S
C1305 C1324 1.368 . S
C1305 H1329 0.949 . S
H1306 C1310 0.949 . S
C1307 C1308 1.349 . S
C1307 C1309 1.327 . S
C1307 H1330 0.950 . S
C1308 C1307 1.349 . S
C1308 C1320 1.349 . S
C1309 C1307 1.327 . S
C1309 C1325 1.429 . S
C1309 H1331 0.950 . S
C1310 H1306 0.949 . S
C1310 C1318 1.574 . S
C1310 C1326 1.368 . S
H1311 C1319 0.950 . S
H1312 C1317 0.950 . S
H1313 C1318 0.949 . S
H1314 C1320 0.950 . S
H1315 C1321 0.950 . S
H1316 C1322 0.949 . S
C1317 H1312 0.950 . S
C1317 C1319 1.327 . S
C1317 C1323 1.429 . S
C1318 C1310 1.574 . S
C1318 H1313 0.949 . S
C1318 C1324 1.368 . S
C1319 C1303 1.349 . S
C1319 H1311 0.950 . S
C1319 C1317 1.327 . S
C1320 C1308 1.349 . S
C1320 H1314 0.950 . S
C1320 C1321 1.327 . S
C1321 H1315 0.950 . S
C1321 C1320 1.327 . S
C1321 C1325 1.429 . S
C1322 C1305 1.574 . S
C1322 H1316 0.949 . S
C1322 C1326 1.368 . S
C1323 C1304 1.429 . S
C1323 C1317 1.429 . S
C1323 C1324 1.523 . S
C1324 C1305 1.368 . S
C1324 C1318 1.368 . S
C1324 C1323 1.523 . S
C1325 C1309 1.429 . S
C1325 C1321 1.429 . S
C1325 C1326 1.523 . S
C1326 C1310 1.368 . S
C1326 C1322 1.368 . S
C1326 C1325 1.523 . S
H1327 C1302 0.950 . S
H1328 C1304 0.950 . S
H1329 C1305 0.949 . S
H1330 C1307 0.950 . S
H1331 C1309 0.950 . S
C1332 C1333 1.349 . S
C1332 C1334 1.327 . S
C1332 H1357 0.950 . S
C1333 C1332 1.349 . S
C1333 C1349 1.349 . S
C1334 C1332 1.327 . S
C1334 C1353 1.429 . S
C1334 H1358 0.950 . S
C1335 C1352 1.574 . S
C1335 C1354 1.368 . S
C1335 H1359 0.949 . S
H1336 C1340 0.949 . S
C1337 C1338 1.349 . S
C1337 C1339 1.327 . S
C1337 H1360 0.950 . S
C1338 C1337 1.349 . S
C1338 C1350 1.349 . S
C1339 C1337 1.327 . S
C1339 C1355 1.429 . S
C1339 H1361 0.950 . S
C1340 H1336 0.949 . S
C1340 C1348 1.574 . S
C1340 C1356 1.368 . S
H1341 C1349 0.950 . S
H1342 C1347 0.950 . S
H1343 C1348 0.949 . S
H1344 C1350 0.950 . S
H1345 C1351 0.950 . S
H1346 C1352 0.949 . S
C1347 H1342 0.950 . S
C1347 C1349 1.327 . S
C1347 C1353 1.429 . S
C1348 C1340 1.574 . S
C1348 H1343 0.949 . S
C1348 C1354 1.368 . S
C1349 C1333 1.349 . S
C1349 H1341 0.950 . S
C1349 C1347 1.327 . S
C1350 C1338 1.349 . S
C1350 H1344 0.950 . S
C1350 C1351 1.327 . S
C1351 H1345 0.950 . S
C1351 C1350 1.327 . S
C1351 C1355 1.429 . S
C1352 C1335 1.574 . S
C1352 H1346 0.949 . S
C1352 C1356 1.368 . S
C1353 C1334 1.429 . S
C1353 C1347 1.429 . S
C1353 C1354 1.523 . S
C1354 C1335 1.368 . S
C1354 C1348 1.368 . S
C1354 C1353 1.523 . S
C1355 C1339 1.429 . S
C1355 C1351 1.429 . S
C1355 C1356 1.523 . S
C1356 C1340 1.368 . S
C1356 C1352 1.368 . S
C1356 C1355 1.523 . S
H1357 C1332 0.950 . S
H1358 C1334 0.950 . S
H1359 C1335 0.949 . S
H1360 C1337 0.950 . S
H1361 C1339 0.950 . S
C1362 C1363 1.349 . S
C1362 C1364 1.327 . S
C1362 H1387 0.950 . S
C1363 C1362 1.349 . S
C1363 C1379 1.349 . S
C1364 C1362 1.327 . S
C1364 C1383 1.429 . S
C1364 H1388 0.950 . S
C1365 C1382 1.574 . S
C1365 C1384 1.368 . S
C1365 H1389 0.949 . S
H1366 C1370 0.949 . S
C1367 C1368 1.349 . S
C1367 C1369 1.327 . S
C1367 H1390 0.950 . S
C1368 C1367 1.349 . S
C1368 C1380 1.349 . S
C1369 C1367 1.327 . S
C1369 C1385 1.429 . S
C1369 H1391 0.950 . S
C1370 H1366 0.949 . S
C1370 C1378 1.574 . S
C1370 C1386 1.368 . S
H1371 C1379 0.950 . S
H1372 C1377 0.950 . S
H1373 C1378 0.949 . S
H1374 C1380 0.950 . S
H1375 C1381 0.950 . S
H1376 C1382 0.949 . S
C1377 H1372 0.950 . S
C1377 C1379 1.327 . S
C1377 C1383 1.429 . S
C1378 C1370 1.574 . S
C1378 H1373 0.949 . S
C1378 C1384 1.368 . S
C1379 C1363 1.349 . S
C1379 H1371 0.950 . S
C1379 C1377 1.327 . S
C1380 C1368 1.349 . S
C1380 H1374 0.950 . S
C1380 C1381 1.327 . S
C1381 H1375 0.950 . S
C1381 C1380 1.327 . S
C1381 C1385 1.429 . S
C1382 C1365 1.574 . S
C1382 H1376 0.949 . S
C1382 C1386 1.368 . S
C1383 C1364 1.429 . S
C1383 C1377 1.429 . S
C1383 C1384 1.523 . S
C1384 C1365 1.368 . S
C1384 C1378 1.368 . S
C1384 C1383 1.523 . S
C1385 C1369 1.429 . S
C1385 C1381 1.429 . S
C1385 C1386 1.523 . S
C1386 C1370 1.368 . S
C1386 C1382 1.368 . S
C1386 C1385 1.523 . S
H1387 C1362 0.950 . S
H1388 C1364 0.950 . S
H1389 C1365 0.949 . S
H1390 C1367 0.950 . S
H1391 C1369 0.950 . S
C673 C56 2.091 . S
C678 C67 2.091 . S
C703 C140 2.091 . S
C708 C151 2.091 . S
C733 C235 2.091 . S
C738 C224 2.091 . S
C763 C319 2.091 . S
C768 C308 2.091 . S
C793 C392 2.091 . S
C798 C403 2.091 . S
C823 C487 2.091 . S
C828 C476 2.091 . S
C853 C571 2.091 . S
C858 C560 2.091 . S
C883 C644 2.091 . S
C888 C655 2.091 . S
C913 C147 1.726 1_554 S
C918 C72 1.726 . S
C943 C315 1.726 . S
C948 C240 1.726 . S
C973 C408 1.726 . S
C978 C483 1.726 1_554 S
C1003 C576 1.726 . S
C1008 C651 1.726 . S
C1033 C63 1.388 1_554 S
C1038 C492 1.388 . S
C1063 C399 1.388 1_554 S
C1068 C156 1.388 . S
C1093 C231 1.387 . S
C1098 C660 1.387 . S
C1123 C324 1.388 . S
C1128 C567 1.388 . S
C1153 C75 1.521 . S
C1158 C327 1.594 . S
C1183 C159 1.595 . S
C1188 C243 1.522 . S
C1213 C150 1.522 . S
C1218 C234 1.594 . S
C1243 C318 1.522 . S
C1248 C66 1.595 . S
C1273 C411 1.521 . S
C1278 C663 1.594 . S
C1303 C495 1.595 . S
C1308 C579 1.522 . S
C1333 C486 1.522 . S
C1338 C570 1.594 . S
C1363 C654 1.522 . S
C1368 C402 1.595 . S
