# Generated by pormake.
# Topology wkt, (7)-cn, num edge types: 1
# Building blocks:
#     Node 0, Type 0, BuildingBlock: NUHQUE_clean_sbu_2, # of connection points: 7
#     Node 1, Type 0, BuildingBlock: NUHQUE_clean_sbu_2, # of connection points: 7
#     Node 2, Type 0, BuildingBlock: NUHQUE_clean_sbu_2, # of connection points: 7
#     Node 3, Type 0, BuildingBlock: NUHQUE_clean_sbu_2, # of connection points: 7
#     Node 4, Type 0, BuildingBlock: NUHQUE_clean_sbu_2, # of connection points: 7
#     Node 5, Type 0, BuildingBlock: NUHQUE_clean_sbu_2, # of connection points: 7
#     Node 6, Type 0, BuildingBlock: NUHQUE_clean_sbu_2, # of connection points: 7
#     Node 7, Type 0, BuildingBlock: NUHQUE_clean_sbu_2, # of connection points: 7
#     Node 8, Type 0, BuildingBlock: NUHQUE_clean_sbu_2, # of connection points: 7
#     Node 9, Type 0, BuildingBlock: NUHQUE_clean_sbu_2, # of connection points: 7
#     Node 10, Type 0, BuildingBlock: NUHQUE_clean_sbu_2, # of connection points: 7
#     Node 11, Type 0, BuildingBlock: NUHQUE_clean_sbu_2, # of connection points: 7
#     Edge 12, Type (0, 0), BuildingBlock: CIFDUS_clean_linker_0, # of connection points: 2
#     Edge 13, Type (0, 0), BuildingBlock: CIFDUS_clean_linker_0, # of connection points: 2
#     Edge 14, Type (0, 0), BuildingBlock: CIFDUS_clean_linker_0, # of connection points: 2
#     Edge 15, Type (0, 0), BuildingBlock: CIFDUS_clean_linker_0, # of connection points: 2
#     Edge 16, Type (0, 0), BuildingBlock: CIFDUS_clean_linker_0, # of connection points: 2
#     Edge 17, Type (0, 0), BuildingBlock: CIFDUS_clean_linker_0, # of connection points: 2
#     Edge 18, Type (0, 0), BuildingBlock: CIFDUS_clean_linker_0, # of connection points: 2
#     Edge 19, Type (0, 0), BuildingBlock: CIFDUS_clean_linker_0, # of connection points: 2
#     Edge 20, Type (0, 0), BuildingBlock: CIFDUS_clean_linker_0, # of connection points: 2
#     Edge 21, Type (0, 0), BuildingBlock: CIFDUS_clean_linker_0, # of connection points: 2
#     Edge 22, Type (0, 0), BuildingBlock: CIFDUS_clean_linker_0, # of connection points: 2
#     Edge 23, Type (0, 0), BuildingBlock: CIFDUS_clean_linker_0, # of connection points: 2
#     Edge 24, Type (0, 0), BuildingBlock: CIFDUS_clean_linker_0, # of connection points: 2
#     Edge 25, Type (0, 0), BuildingBlock: CIFDUS_clean_linker_0, # of connection points: 2
#     Edge 26, Type (0, 0), BuildingBlock: CIFDUS_clean_linker_0, # of connection points: 2
#     Edge 27, Type (0, 0), BuildingBlock: CIFDUS_clean_linker_0, # of connection points: 2
#     Edge 28, Type (0, 0), BuildingBlock: CIFDUS_clean_linker_0, # of connection points: 2
#     Edge 29, Type (0, 0), BuildingBlock: CIFDUS_clean_linker_0, # of connection points: 2
#     Edge 30, Type (0, 0), BuildingBlock: CIFDUS_clean_linker_0, # of connection points: 2
#     Edge 31, Type (0, 0), BuildingBlock: CIFDUS_clean_linker_0, # of connection points: 2
#     Edge 32, Type (0, 0), BuildingBlock: CIFDUS_clean_linker_0, # of connection points: 2
#     Edge 33, Type (0, 0), BuildingBlock: CIFDUS_clean_linker_0, # of connection points: 2
#     Edge 34, Type (0, 0), BuildingBlock: CIFDUS_clean_linker_0, # of connection points: 2
#     Edge 35, Type (0, 0), BuildingBlock: CIFDUS_clean_linker_0, # of connection points: 2
#     Edge 36, Type (0, 0), BuildingBlock: CIFDUS_clean_linker_0, # of connection points: 2
#     Edge 37, Type (0, 0), BuildingBlock: CIFDUS_clean_linker_0, # of connection points: 2
#     Edge 38, Type (0, 0), BuildingBlock: CIFDUS_clean_linker_0, # of connection points: 2
#     Edge 39, Type (0, 0), BuildingBlock: CIFDUS_clean_linker_0, # of connection points: 2
#     Edge 40, Type (0, 0), BuildingBlock: CIFDUS_clean_linker_0, # of connection points: 2
#     Edge 41, Type (0, 0), BuildingBlock: CIFDUS_clean_linker_0, # of connection points: 2
#     Edge 42, Type (0, 0), BuildingBlock: CIFDUS_clean_linker_0, # of connection points: 2
#     Edge 43, Type (0, 0), BuildingBlock: CIFDUS_clean_linker_0, # of connection points: 2
#     Edge 44, Type (0, 0), BuildingBlock: CIFDUS_clean_linker_0, # of connection points: 2
#     Edge 45, Type (0, 0), BuildingBlock: CIFDUS_clean_linker_0, # of connection points: 2
#     Edge 46, Type (0, 0), BuildingBlock: CIFDUS_clean_linker_0, # of connection points: 2
#     Edge 47, Type (0, 0), BuildingBlock: CIFDUS_clean_linker_0, # of connection points: 2
#     Edge 48, Type (0, 0), BuildingBlock: CIFDUS_clean_linker_0, # of connection points: 2
#     Edge 49, Type (0, 0), BuildingBlock: CIFDUS_clean_linker_0, # of connection points: 2
#     Edge 50, Type (0, 0), BuildingBlock: CIFDUS_clean_linker_0, # of connection points: 2
#     Edge 51, Type (0, 0), BuildingBlock: CIFDUS_clean_linker_0, # of connection points: 2
#     Edge 52, Type (0, 0), BuildingBlock: CIFDUS_clean_linker_0, # of connection points: 2
#     Edge 53, Type (0, 0), BuildingBlock: CIFDUS_clean_linker_0, # of connection points: 2
# Relax obj value: 0.284
# Max RMSD: 0.282
# Mean RMSD: 0.282
data_MOF--net-wkt--node1-NUHQUE_clean_sbu_2--edge1-CIFDUS_clean_linker_0
_symmetry_space_group_name_H-M    P1
_symmetry_Int_Tables_number       1
_symmetry_cell_setting            triclinic
loop_
_symmetry_equiv_pos_as_xyz
'x, y, z'
_cell_length_a     26.612248
_cell_length_b     26.538851
_cell_length_c     67.954714
_cell_angle_alpha  89.941554
_cell_angle_beta   89.777072
_cell_angle_gamma 119.9566
loop_
_atom_site_label
_atom_site_type_symbol
_atom_site_fract_x
_atom_site_fract_y
_atom_site_fract_z
_atom_type_partial_charge
O0 O 0.48528 0.54699 0.01283 0.0
Tb1 Tb 0.5376 0.61561 -0.00818 0.0
Eu2 Eu 0.47121 0.49234 0.96902 0.0
C3 C 0.46358 0.56289 0.02743 0.0
O4 O 0.47253 0.61627 0.02745 0.0
C5 C 0.4143 0.57703 -0.02472 0.0
O6 O 0.49266 0.52804 0.93822 0.0
C7 C 0.41716 0.37992 -0.02981 0.0
C8 C 0.51935 0.5846 0.9356 0.0
O9 O 0.53033 0.61875 0.95076 0.0
C10 C 0.6097 0.56589 -0.02629 0.0
C11 C 0.43663 0.33665 -0.0275 0.0
C12 C 0.43609 0.31415 -0.00874 0.0
C13 C 0.46278 0.28067 -0.00524 0.0
C14 C 0.48786 0.26748 -0.02139 0.0
C15 C 0.48526 0.28634 0.95942 0.0
C16 C 0.45965 0.32093 0.95654 0.0
O17 O 0.46607 0.62151 -0.02112 0.0
O18 O 0.40561 0.52337 -0.02544 0.0
O19 O 0.58939 0.66111 0.01745 0.0
O20 O 0.57517 0.70916 -0.00471 0.0
C21 C 0.60034 0.71254 0.01197 0.0
O22 O 0.56398 0.51418 -0.02341 0.0
O23 O 0.6032 0.61151 -0.02599 0.0
O24 O 0.43081 0.40956 0.95358 0.0
O25 O 0.42378 0.41231 -0.01425 0.0
H26 H 0.41531 0.32377 0.00325 0.0
H27 H 0.50998 0.24304 -0.01915 0.0
H28 H 0.46001 0.3376 0.94194 0.0
O29 O 1.00768 0.43615 0.18714 0.0
Tb30 Tb 0.98875 0.46634 0.15961 0.0
Eu31 Eu 1.05966 0.41105 0.1338 0.0
C32 C 1.0123 0.38934 0.18917 0.0
O33 O 1.01318 0.36118 0.17348 0.0
C34 C 0.91713 0.33892 0.14142 0.0
O35 O 1.04103 0.43574 0.10425 0.0
C36 C 0.12431 0.36405 0.13118 0.0
C37 C 1.00485 0.45558 0.10251 0.0
O38 O 0.978 0.45971 0.11809 0.0
C39 C 1.11319 0.54453 0.14337 0.0
C40 C 0.1855 0.38378 0.13624 0.0
C41 C 0.20272 0.38966 0.15602 0.0
C42 C 0.26111 0.4117 0.1612 0.0
C43 C 0.30276 0.42913 0.14596 0.0
C44 C 0.28653 0.4252 0.12607 0.0
C45 C 0.22762 0.40094 0.12135 0.0
O46 O 0.91687 0.38547 0.14805 0.0
O47 O 0.96571 0.33863 0.13756 0.0
O48 O 0.98097 0.52124 0.18161 0.0
O49 O 0.926 0.49623 0.15667 0.0
C50 C 0.94034 0.52604 0.17288 0.0
O51 O 0.12195 0.50062 0.14633 0.0
O52 O 1.05978 0.53422 0.14243 0.0
O53 O 1.11565 0.39035 0.11624 0.0
O54 O 1.08892 0.35481 0.14607 0.0
H55 H 0.17057 0.37906 0.16746 0.0
H56 H 0.34814 0.44663 0.14943 0.0
H57 H 0.21492 0.39871 0.10609 0.0
O58 O 0.65138 0.98444 0.35682 0.0
Tb59 Tb 0.58325 0.96651 0.33536 0.0
Eu60 Eu 0.70068 1.02619 0.30754 0.0
C61 C 0.65501 0.94084 0.36466 0.0
O62 O 0.62122 0.88802 0.35804 0.0
C63 C 0.6206 0.88633 0.3137 0.0
O64 O 0.65659 1.00497 0.27824 0.0
C65 C 0.81216 0.0853 0.30406 0.0
C66 C 0.60012 0.98186 0.27687 0.0
O67 O 0.56829 0.9689 0.29284 0.0
C68 C 0.62893 0.0916 0.31836 0.0
C69 C 0.85408 0.14739 0.30792 0.0
C70 C 0.86208 0.16866 0.32715 0.0
C71 C 0.89426 0.22838 0.33114 0.0
C72 C 0.92215 0.26747 0.31538 0.0
C73 C 0.91668 0.24665 0.29588 0.0
C74 C 0.8821 0.18646 0.2924 0.0
O75 O 0.57702 0.89403 0.31839 0.0
O76 O 0.67399 0.93093 0.31315 0.0
O77 O 0.53415 0.95382 0.36243 0.0
O78 O 0.48947 0.9104 0.33648 0.0
C79 C 0.48365 0.91918 0.3549 0.0
O80 O 0.6809 0.09708 0.31753 0.0
O81 O 0.58339 1.04056 0.32169 0.0
O82 O 0.77731 1.07467 0.28902 0.0
O83 O 0.78549 1.05308 0.31961 0.0
H84 H 0.84226 0.13832 0.33924 0.0
H85 H 0.94754 0.3137 0.31824 0.0
H86 H 0.87516 0.17007 0.27746 0.0
O87 O 0.76681 0.61033 0.52368 0.0
Tb88 Tb 0.7098 0.53821 0.50449 0.0
Eu89 Eu 0.7714 0.64977 0.47727 0.0
C90 C 0.79159 0.5962 0.53778 0.0
O91 O 0.78335 0.5431 0.53789 0.0
C92 C 0.82627 0.56378 0.48564 0.0
O93 O 0.74829 0.61204 0.44696 0.0
C94 C 0.82827 0.7622 0.47563 0.0
C95 C 0.7231 0.55578 0.44389 0.0
O96 O 0.71273 0.52012 0.45869 0.0
C97 C 0.63449 0.57694 0.48317 0.0
C98 C 0.8152 0.81052 0.47595 0.0
C99 C 0.81416 0.83576 0.49387 0.0
C100 C 0.80526 0.88365 0.49481 0.0
C101 C 0.79575 0.90561 0.47705 0.0
C102 C 0.7952 0.88002 0.4587 0.0
C103 C 0.80507 0.8324 0.45851 0.0
O104 O 0.775 0.5221 0.49146 0.0
O105 O 0.83602 0.6174 0.48289 0.0
O106 O 0.65644 0.50927 0.53098 0.0
O107 O 0.66836 0.44818 0.51423 0.0
C108 C 0.64266 0.45517 0.52945 0.0
O109 O 0.67901 0.62982 0.48477 0.0
O110 O 0.64408 0.53356 0.48473 0.0
O111 O 0.81303 0.72925 0.45985 0.0
O112 O 0.81964 0.73267 0.49214 0.0
H113 H 0.81955 0.81703 0.50729 0.0
H114 H 0.78991 0.94313 0.47747 0.0
H115 H 0.80388 0.8113 0.44477 0.0
O116 O 0.24336 0.72532 0.68518 0.0
Tb117 Tb 0.25418 0.67808 0.6609 0.0
Eu118 Eu 0.20368 0.75581 0.64184 0.0
C119 C 0.28204 0.73839 0.69919 0.0
O120 O 0.32316 0.72545 0.69633 0.0
C121 C 0.3436 0.80518 0.64918 0.0
O122 O 0.21767 0.74309 0.6101 0.0
C123 C 0.14972 0.81405 0.64369 0.0
C124 C 0.25075 0.72148 0.60529 0.0
O125 O 0.27631 0.7082 0.61908 0.0
C126 C 0.13624 0.61764 0.64153 0.0
C127 C 1.08824 0.7996 0.64408 0.0
C128 C 1.06289 0.79968 0.6621 0.0
C129 C 1.00454 0.78451 0.66339 0.0
C130 C 0.971 0.77038 0.64612 0.0
C131 C 0.9956 0.77016 0.62764 0.0
C132 C 1.05445 0.78495 0.62689 0.0
O133 O 0.33461 0.75179 0.65048 0.0
O134 O 0.29982 0.81567 0.64973 0.0
O135 O 0.23159 0.6116 0.68336 0.0
O136 O 0.30342 0.6333 0.66444 0.0
C137 C 0.27238 0.60019 0.67898 0.0
O138 O 0.13101 0.66191 0.64753 0.0
O139 O 0.18843 0.62544 0.63967 0.0
O140 O 0.1695 0.80498 0.62711 0.0
O141 O 0.16841 0.79923 0.6594 0.0
H142 H 1.0889 0.81189 0.67536 0.0
H143 H 0.926 0.75935 0.64713 0.0
H144 H 1.07361 0.78366 0.61294 0.0
O145 O 0.58299 0.20214 0.84238 0.0
Tb146 Tb 0.64171 0.21341 0.81795 0.0
Eu147 Eu 0.51358 0.14796 0.80608 0.0
C148 C 0.6053 0.23914 0.85713 0.0
O149 O 0.65987 0.28041 0.8559 0.0
C150 C 0.59073 0.28929 0.80593 0.0
O151 O 0.55245 0.15926 0.77611 0.0
C152 C 0.40166 0.0873 0.80644 0.0
C153 C 0.55527 0.19729 0.76321 0.0
O154 O 0.53085 0.22867 0.76709 0.0
C155 C 0.58967 0.08803 0.80488 0.0
C156 C 0.35929 1.02427 0.80795 0.0
C157 C 0.34128 0.99846 0.82654 0.0
C158 C 0.30993 0.9377 0.82889 0.0
C159 C 0.29227 0.9028 0.81182 0.0
C160 C 0.30579 0.92833 0.79291 0.0
C161 C 0.33988 0.98906 0.79116 0.0
O162 O 0.63694 0.28406 0.80342 0.0
O163 O 0.54146 0.24354 0.81167 0.0
O164 O 0.69502 0.20379 0.84013 0.0
O165 O 0.73473 0.27438 0.81994 0.0
C166 C 0.74361 0.2488 0.83479 0.0
O167 O 0.54228 0.08172 0.81343 0.0
O168 O 0.62948 0.14083 0.79983 0.0
O169 O 0.43212 0.1056 0.79003 0.0
O170 O 0.43285 0.11132 0.82233 0.0
H171 H 0.35294 1.02637 0.8393 0.0
H172 H 0.26837 0.85587 0.8131 0.0
H173 H 0.35305 1.00869 0.77669 0.0
O174 O 0.65273 0.73551 0.74813 0.0
Tb175 Tb 0.58699 0.67802 0.7693 0.0
Eu176 Eu 0.70298 0.7498 0.79377 0.0
C177 C 0.63317 0.75607 0.73429 0.0
O178 O 0.57915 0.74448 0.73559 0.0
C179 C 0.61303 0.79805 0.78614 0.0
O180 O 0.65757 0.71838 0.82292 0.0
C181 C 0.81358 0.81291 0.79907 0.0
C182 C 0.601 0.68608 0.82483 0.0
O183 O 0.56734 0.67309 0.80947 0.0
C184 C 0.64681 0.61478 0.78616 0.0
C185 C 0.86349 0.80279 0.79773 0.0
C186 C 0.88411 0.7975 0.77934 0.0
C187 C 0.93151 0.78833 0.77753 0.0
C188 C 0.95746 0.78245 0.79488 0.0
C189 C 0.9363 0.78592 0.81369 0.0
C190 C 0.88955 0.79676 0.81478 0.0
O191 O 0.57153 0.74445 0.78251 0.0
O192 O 0.66775 0.81076 0.78671 0.0
O193 O 0.55333 0.62572 0.74289 0.0
O194 O 0.49432 0.63029 0.76298 0.0
C195 C 0.49912 0.60771 0.74657 0.0
O196 O 0.69455 0.66445 0.78283 0.0
O197 O 0.59783 0.61492 0.78662 0.0
O198 O 0.77684 0.78707 0.81364 0.0
O199 O 0.78792 0.81192 0.7824 0.0
H200 H 0.86189 0.79909 0.76627 0.0
H201 H 0.99428 0.77574 0.79377 0.0
H202 H 0.8717 0.79853 0.82894 0.0
O203 O 1.02728 0.63403 0.91607 0.0
Tb204 Tb 1.00461 0.55406 0.93211 0.0
Eu205 Eu 1.05437 0.6604 0.9632 0.0
C206 C 0.98546 0.63592 0.90635 0.0
O207 O 0.93198 0.5935 0.90899 0.0
C208 C 0.91623 0.57857 0.95395 0.0
O209 O 1.03133 0.61332 -0.00786 0.0
C210 C 1.10945 0.77213 0.96738 0.0
C211 C 1.00763 0.55649 -0.00732 0.0
O212 O 0.99496 0.52709 -0.02379 0.0
C213 C 0.12168 0.59017 0.95286 0.0
C214 C 0.1715 0.81722 0.96563 0.0
C215 C 0.19595 0.8375 0.94698 0.0
C216 C 0.25629 0.87119 0.94425 0.0
C217 C 0.29209 0.88881 0.96108 0.0
C218 C 0.26768 0.87319 -0.01989 0.0
C219 C 0.20743 0.83685 -0.01779 0.0
O220 O 0.92585 0.53728 0.94767 0.0
O221 O 0.9598 0.63189 0.95648 0.0
O222 O 1.01191 0.53105 0.90186 0.0
O223 O 0.95295 0.46526 0.92133 0.0
C224 C 0.97409 0.47625 0.90357 0.0
O225 O 0.12741 0.64218 0.95483 0.0
O226 O 1.07159 0.54621 0.94764 0.0
O227 O 1.09514 0.73605 -0.01762 0.0
O228 O 1.08381 0.7459 0.95088 0.0
H229 H 0.16737 0.82587 0.93445 0.0
H230 H 0.33876 0.91449 0.95951 0.0
H231 H 0.18883 0.82221 -0.00325 0.0
O232 O 0.48028 0.9468 0.08578 0.0
Tb233 Tb 0.53029 0.94177 0.11029 0.0
Eu234 Eu 0.45438 0.99536 0.13075 0.0
C235 C 0.46224 0.90369 0.0731 0.0
O236 O 0.47228 0.86102 0.07701 0.0
C237 C 0.40439 0.85609 0.12548 0.0
O238 O 0.47928 0.98521 0.16152 0.0
C239 C 0.39837 1.05173 0.13117 0.0
C240 C 0.51029 0.96014 0.16488 0.0
O241 O 0.52532 0.93838 0.15028 0.0
C242 C 0.59247 1.06878 0.12497 0.0
C243 C 0.4186 0.11503 0.13033 0.0
C244 C 0.41888 0.14077 0.11227 0.0
C245 C 0.44766 0.20167 0.10994 0.0
C246 C 0.47199 0.23693 0.12676 0.0
C247 C 0.46945 0.2116 0.14525 0.0
C248 C 0.44322 0.15083 0.14682 0.0
O249 O 0.45803 0.86611 0.12438 0.0
O250 O 0.39313 0.89914 0.12374 0.0
O251 O 0.58831 0.94549 0.08701 0.0
O252 O 0.56976 0.88675 0.11079 0.0
C253 C 0.59848 0.90634 0.0944 0.0
O254 O 0.54377 1.06813 0.1211 0.0
O255 O 0.59244 1.01957 0.12601 0.0
O256 O 0.41026 1.03224 0.14728 0.0
O257 O 0.40649 1.02916 0.11502 0.0
H258 H 0.39809 0.11282 0.09977 0.0
H259 H 0.49543 0.28387 0.1254 0.0
H260 H 0.44369 0.13174 0.16088 0.0
O261 O 0.58397 0.43972 0.25237 0.0
Tb262 Tb 0.6508 0.49984 0.27255 0.0
Eu263 Eu 0.53303 0.44093 0.30029 0.0
C264 C 0.5975 0.40549 0.24234 0.0
O265 O 0.64619 0.40687 0.24679 0.0
C266 C 0.61685 0.38502 0.29464 0.0
O267 O 0.57344 0.46011 0.33028 0.0
C268 C 0.42079 0.38352 0.30174 0.0
C269 C 0.62957 0.49507 0.33201 0.0
O270 O 0.66142 0.51734 0.3162 0.0
C271 C 0.60572 0.57949 0.29039 0.0
C272 C 0.37236 0.39551 0.29915 0.0
C273 C 0.35187 0.39613 0.28023 0.0
C274 C 0.30579 0.40657 0.27739 0.0
C275 C 0.27935 0.41641 0.29374 0.0
C276 C 0.29934 0.4163 0.31293 0.0
C277 C 0.34563 0.40532 0.31544 0.0
O278 O 0.6602 0.43717 0.29057 0.0
O279 O 0.56302 0.37503 0.29427 0.0
O280 O 0.69367 0.53909 0.24478 0.0
O281 O 0.74381 0.5361 0.26854 0.0
C282 C 0.74547 0.553 0.25049 0.0
O283 O 0.55371 0.53328 0.29219 0.0
O284 O 0.65065 0.57381 0.2861 0.0
O285 O 0.45316 0.40484 0.31751 0.0
O286 O 0.45092 0.38706 0.28582 0.0
H287 H 0.37123 0.38765 0.26751 0.0
H288 H 0.24353 0.42427 0.29151 0.0
H289 H 0.36162 0.40552 0.3301 0.0
O290 O 0.21132 0.52613 0.42033 0.0
Tb291 Tb 0.23538 0.58625 0.44526 0.0
Eu292 Eu 0.17941 0.46709 0.47361 0.0
C293 C 0.22238 0.48304 0.41951 0.0
O294 O 0.2418 0.46987 0.4352 0.0
C295 C 0.32082 0.55002 0.46586 0.0
O296 O 0.1979 0.5049 0.50369 0.0
C297 C 1.1185 0.35538 0.47399 0.0
C298 C 0.22868 0.56148 0.50548 0.0
O299 O 0.24697 0.59453 0.48973 0.0
C300 C 1.11598 0.54189 0.46568 0.0
C301 C 1.05611 0.31961 0.46904 0.0
C302 C 1.03974 0.31185 0.44923 0.0
C303 C 0.98362 0.29793 0.44351 0.0
C304 C 0.94121 0.28408 0.45834 0.0
C305 C 0.95543 0.28565 0.47846 0.0
C306 C 1.01322 0.30406 0.48358 0.0
O307 O 0.31295 0.58984 0.45714 0.0
O308 O 0.27693 0.49908 0.4714 0.0
O309 O 0.24135 0.64291 0.42105 0.0
O310 O 0.29263 0.68006 0.44649 0.0
C311 C 0.27879 0.69112 0.42941 0.0
O312 O 1.10897 0.4892 0.46528 0.0
O313 O 0.16786 0.58661 0.46316 0.0
O314 O 0.13019 0.38651 0.49016 0.0
O315 O 0.15304 0.3848 0.45919 0.0
H316 H 1.07231 0.32036 0.43812 0.0
H317 H 0.89762 0.2733 0.45435 0.0
H318 H 1.02557 0.31019 0.49896 0.0
O319 O 0.76259 0.20588 0.59337 0.0
Tb320 Tb 0.7136 0.2191 0.61668 0.0
Eu321 Eu 0.78799 0.16808 0.63514 0.0
C322 C 0.77493 0.24009 0.57783 0.0
O323 O 0.7581 0.27897 0.57798 0.0
C324 C 0.83884 0.31007 0.62866 0.0
O325 O 0.76331 0.16891 0.66685 0.0
C326 C 0.8466 0.11532 0.63036 0.0
C327 C 0.75054 0.20834 0.67272 0.0
O328 O 0.75758 0.24932 0.66043 0.0
C329 C 0.65204 0.10214 0.63617 0.0
C330 C 0.83358 1.05428 0.62886 0.0
C331 C 0.83307 1.03114 0.61028 0.0
C332 C 0.81926 0.97313 0.60817 0.0
C333 C 0.8061 0.93765 0.62503 0.0
C334 C 0.80663 0.96018 0.64388 0.0
C335 C 0.82088 1.01869 0.64561 0.0
O336 O 0.78596 0.30114 0.62622 0.0
O337 O 0.84902 0.26603 0.62956 0.0
O338 O 0.6466 0.19447 0.59453 0.0
O339 O 0.66781 0.26709 0.61296 0.0
C340 C 0.63424 0.23471 0.59887 0.0
O341 O 0.69473 0.09646 0.6289 0.0
O342 O 0.66204 0.15502 0.63878 0.0
O343 O 0.8394 0.1332 0.64766 0.0
O344 O 0.82892 0.13469 0.61557 0.0
H345 H 0.84394 1.0586 0.59732 0.0
H346 H 0.79512 0.89266 0.62346 0.0
H347 H 0.82034 1.03592 0.66001 0.0
H348 H 0.62141 0.7153 0.05077 0.0
H349 H 0.63295 0.82345 0.00158 0.0
H350 H 0.64892 0.90192 0.02401 0.0
H351 H 0.63767 0.92994 0.05719 0.0
H352 H 0.61341 0.81659 0.10624 0.0
H353 H 0.62606 0.75049 0.08442 0.0
C354 C 0.62922 0.75674 0.045 0.0
C355 C 0.62507 0.76369 0.02471 0.0
C356 C 0.63541 0.80031 0.05799 0.0
C357 C 0.63532 0.81729 0.01724 0.0
C358 C 0.64421 0.86195 0.03004 0.0
C359 C 0.63695 0.89165 0.06318 0.0
C360 C 0.6235 0.87718 0.0831 0.0
C361 C 0.64103 0.85258 0.05042 0.0
C362 C 0.62311 0.82798 0.09083 0.0
C363 C 0.62991 0.79006 0.07835 0.0
H364 H 0.96246 0.57862 0.20794 0.0
H365 H 0.84525 0.52744 0.15877 0.0
H366 H 0.77791 0.54501 0.1782 0.0
H367 H 0.74454 0.55458 0.21093 0.0
H368 H 0.85744 0.59377 0.2609 0.0
H369 H 0.93515 0.60244 0.23937 0.0
C370 C 0.92281 0.57274 0.20135 0.0
C371 C 0.90783 0.55064 0.18222 0.0
C372 C 0.88344 0.58014 0.21286 0.0
C373 C 0.857 0.54382 0.17362 0.0
C374 C 0.81848 0.55353 0.18475 0.0
C375 C 0.78675 0.56665 0.21697 0.0
C376 C 0.79545 0.57259 0.23737 0.0
C377 C 0.82994 0.5686 0.20467 0.0
C378 C 0.85 0.58835 0.24518 0.0
C379 C 0.8942 0.59307 0.23292 0.0
H380 H 0.26408 0.71505 0.3921 0.0
H381 H 0.36217 0.79308 0.44478 0.0
H382 H 0.4297 0.87967 0.42615 0.0
H383 H 0.47118 0.92248 0.39408 0.0
H384 H 0.37748 0.84016 0.34109 0.0
H385 H 0.29699 0.76643 0.36062 0.0
C386 C 0.2994 0.75172 0.39954 0.0
C387 C 0.30938 0.74763 0.41955 0.0
C388 C 0.33907 0.80013 0.38863 0.0
C389 C 0.35452 0.79531 0.42924 0.0
C390 C 0.39318 0.84462 0.4186 0.0
C391 C 0.43241 0.88926 0.38688 0.0
C392 C 0.43037 0.88547 0.36631 0.0
C393 C 0.38759 0.84597 0.39815 0.0
C394 C 0.37998 0.84303 0.35699 0.0
C395 C 0.33417 0.80083 0.36813 0.0
H396 H 0.5955 0.33975 0.52549 0.0
H397 H 0.62415 0.4732 0.56742 0.0
H398 H 0.60535 0.40561 0.59457 0.0
H399 H 0.60912 0.3196 0.60549 0.0
H400 H 0.58781 0.18922 0.56329 0.0
H401 H 0.57273 0.2432 0.53714 0.0
C402 C 0.5956 0.35318 0.54058 0.0
C403 C 0.61301 0.41126 0.54469 0.0
C404 C 0.58656 0.31474 0.55601 0.0
C405 C 0.61175 0.42856 0.56409 0.0
C406 C 0.60134 0.39009 0.57959 0.0
C407 C 0.59887 0.30203 0.5907 0.0
C408 C 0.60181 0.25221 0.58599 0.0
C409 C 0.59295 0.33458 0.57567 0.0
C410 C 0.58699 0.22848 0.56704 0.0
C411 C 0.57892 0.25956 0.55206 0.0
H412 H 0.35671 0.57435 0.67218 0.0
H413 H 0.23267 0.56091 0.71589 0.0
H414 H 0.28864 0.54782 0.74167 0.0
H415 H 0.38478 0.56701 0.75214 0.0
H416 H 0.51091 0.58543 0.70845 0.0
H417 H 0.44186 0.56838 0.68227 0.0
C418 C 0.34095 0.56632 0.68725 0.0
C419 C 0.29211 0.57044 0.69235 0.0
C420 C 0.37435 0.56087 0.70203 0.0
C421 C 0.27096 0.55884 0.71176 0.0
C422 C 0.30319 0.55188 0.72653 0.0
C423 C 0.39627 0.56531 0.73691 0.0
C424 C 0.45295 0.57921 0.73205 0.0
C425 C 0.35694 0.55703 0.72195 0.0
C426 C 0.46752 0.5758 0.71241 0.0
C427 C 0.42821 0.56636 0.69744 0.0
H428 H 0.84369 0.349 0.82785 0.0
H429 H 0.75885 0.20775 0.86943 0.0
H430 H 0.83137 0.26415 0.89421 0.0
H431 H 0.90588 0.36005 0.90578 0.0
H432 H 0.98926 0.50242 0.86459 0.0
H433 H 0.93104 0.43902 0.83779 0.0
C434 C 0.84224 0.33008 0.84215 0.0
C435 C 0.79559 0.27521 0.84708 0.0
C436 C 0.88319 0.36328 0.85646 0.0
C437 C 0.79419 0.25045 0.86548 0.0
C438 C 0.83537 0.28276 0.87969 0.0
C439 C 0.91218 0.37663 0.89083 0.0
C440 C 0.95038 0.43567 0.8871 0.0
C441 C 0.87805 0.34027 0.87564 0.0
C442 C 0.95935 0.45696 0.86773 0.0
C443 C 0.92595 0.42087 0.85245 0.0
H444 H 0.64733 0.27533 0.89359 0.0
H445 H 0.48784 0.19659 0.86077 0.0
H446 H 0.43572 0.20262 0.8898 0.0
H447 H 0.43739 0.23623 0.92412 0.0
H448 H 0.59706 0.31089 0.95681 0.0
H449 H 0.64735 0.30048 0.92827 0.0
C450 C 0.60102 0.2591 0.8928 0.0
C451 C 0.57155 0.2361 0.87498 0.0
C452 C 0.57155 0.26224 0.90954 0.0
C453 C 0.51146 0.21443 0.8743 0.0
C454 C 0.4818 0.21818 0.89088 0.0
C455 C 0.48307 0.24965 0.92498 0.0
C456 C 0.51359 0.27442 0.94254 0.0
C457 C 0.51161 0.24288 0.9085 0.0
C458 C 0.57262 0.29134 0.94354 0.0
C459 C 0.60141 0.28566 0.92719 0.0
H460 H 0.29291 0.38177 0.09006 0.0
H461 H 0.37935 0.53404 0.12677 0.0
H462 H 0.44455 0.58842 0.09975 0.0
H463 H 0.47077 0.59585 0.065 0.0
H464 H 0.38808 0.44481 0.02778 0.0
H465 H 0.32789 0.38642 0.05569 0.0
C466 C 0.32662 0.4266 0.09216 0.0
C467 C 0.33118 0.45389 0.1104 0.0
C468 C 0.36418 0.45785 0.07646 0.0
C469 C 0.37529 0.51185 0.11299 0.0
C470 C 0.4123 0.54316 0.09749 0.0
C471 C 0.43993 0.54994 0.06304 0.0
C472 C 0.43302 0.52469 0.04437 0.0
C473 C 0.40617 0.51705 0.07907 0.0
C474 C 0.39389 0.46507 0.04206 0.0
C475 C 0.35937 0.43189 0.05798 0.0
H476 H 0.9722 0.2333 0.26422 0.0
H477 H 0.92027 0.35022 0.2888 0.0
H478 H 0.95128 0.40857 0.25864 0.0
H479 H 0.98344 0.42032 0.22399 0.0
H480 H 1.03128 0.30046 0.1991 0.0
H481 H 1.01164 0.24956 0.23059 0.0
C482 C 0.96796 0.27177 0.26303 0.0
C483 C 0.94332 0.28691 0.27874 0.0
C484 C 0.98472 0.30439 0.24548 0.0
C485 C 0.93931 0.3376 0.27706 0.0
C486 C 0.95661 0.37076 0.25971 0.0
C487 C 0.99045 0.38362 0.22551 0.0
C488 C 1.00833 0.364 0.20906 0.0
C489 C 0.97801 0.35373 0.24364 0.0
C490 C 1.01711 0.3163 0.2114 0.0
C491 C 1.00578 0.28703 0.22943 0.0
H492 H 0.74324 0.91955 0.37084 0.0
H493 H 0.63446 0.97352 0.40021 0.0
H494 H 0.67014 0.96268 0.43228 0.0
H495 H 0.72419 0.92687 0.45193 0.0
H496 H 0.84079 0.88301 0.42199 0.0
H497 H 0.81011 0.90069 0.3904 0.0
C498 C 0.72868 0.93048 0.38427 0.0
C499 C 0.68667 0.94766 0.38322 0.0
C500 C 0.74989 0.92473 0.40262 0.0
C501 C 0.66755 0.96113 0.40068 0.0
C502 C 0.68753 0.95434 0.41903 0.0
C503 C 0.74408 0.9224 0.43859 0.0
C504 C 0.78329 0.90116 0.43963 0.0
C505 C 0.72764 0.93464 0.42022 0.0
C506 C 0.80846 0.89638 0.42191 0.0
C507 C 0.79142 0.90716 0.4037 0.0
H508 H 0.89071 0.70248 0.54152 0.0
H509 H 0.74894 0.56661 0.57437 0.0
H510 H 0.79679 0.61115 0.60531 0.0
H511 H 0.8838 0.68182 0.62299 0.0
H512 H 1.02747 0.81733 0.59052 0.0
H513 H 0.97462 0.78007 0.55974 0.0
C514 C 0.86978 0.68381 0.55549 0.0
C515 C 0.81613 0.6317 0.55571 0.0
C516 C 0.89852 0.70893 0.57336 0.0
C517 C 0.79001 0.60704 0.57388 0.0
C518 C 0.81755 0.63225 0.59159 0.0
C519 C 0.90317 0.70411 0.60926 0.0
C520 C 0.96004 0.75197 0.6092 0.0
C521 C 0.87259 0.68223 0.59153 0.0
C522 C 0.98432 0.77966 0.5911 0.0
C523 C 0.95396 0.75852 0.57342 0.0
H524 H 0.24681 0.81725 0.70772 0.0
H525 H 0.31104 0.71251 0.73404 0.0
H526 H 0.31888 0.75803 0.76581 0.0
H527 H 0.3164 0.83366 0.78553 0.0
H528 H 0.25719 0.94281 0.75951 0.0
H529 H 0.23851 0.88993 0.72841 0.0
C530 C 0.26151 0.8039 0.72052 0.0
C531 C 0.27862 0.7619 0.71853 0.0
C532 C 0.26746 0.83153 0.73881 0.0
C533 C 0.29815 0.74523 0.73518 0.0
C534 C 0.30268 0.7712 0.75338 0.0
C535 C 0.29829 0.84508 0.77318 0.0
C536 C 0.28827 0.89205 0.77482 0.0
C537 C 0.28878 0.81532 0.75528 0.0
C538 C 0.26571 0.90701 0.75855 0.0
C539 C 0.25497 0.87677 0.74077 0.0
H540 H 0.97721 0.71018 0.8199 0.0
H541 H 0.94936 0.83774 0.84985 0.0
H542 H 0.96783 0.80664 0.88136 0.0
H543 H 0.97953 0.7344 0.90092 0.0
H544 H 1.01411 0.61199 0.87099 0.0
H545 H 1.00722 0.65095 0.83909 0.0
C546 C 0.97673 0.73249 0.83319 0.0
C547 C 0.95972 0.77502 0.83232 0.0
C548 C 0.98868 0.71522 0.85141 0.0
C549 C 0.95976 0.80318 0.84993 0.0
C550 C 0.97084 0.78576 0.86806 0.0
C551 C 0.98761 0.71786 0.88739 0.0
C552 C 0.99795 0.67094 0.88823 0.0
C553 C 0.98339 0.74047 0.86906 0.0
C554 C 1.00715 0.64887 0.87065 0.0
C555 C 1.00256 0.67073 0.85241 0.0
H556 H 0.38438 0.93961 0.0643 0.0
H557 H 0.48305 0.86739 0.03868 0.0
H558 H 0.43578 0.8568 0.0071 0.0
H559 H 0.36079 0.86035 -0.01267 0.0
H560 H 0.25617 0.92532 0.01308 0.0
H561 H 0.31095 0.94659 0.04381 0.0
C562 C 0.39596 0.92245 0.05168 0.0
C563 C 0.437 0.90423 0.0538 0.0
C564 C 0.36712 0.91469 0.03358 0.0
C565 C 0.45124 0.88135 0.03743 0.0
C566 C 0.42426 0.87526 0.01935 0.0
C567 C 0.35075 0.8801 -0.00043 0.0
C568 C 0.30475 0.89143 -0.00205 0.0
C569 C 0.3813 0.89064 0.01733 0.0
C570 C 0.29141 0.91609 0.01404 0.0
C571 C 0.32268 0.92822 0.0316 0.0
H572 H 0.61869 0.33323 0.22038 0.0
H573 H 0.50203 0.40143 0.22469 0.0
H574 H 0.45334 0.34976 0.19443 0.0
H575 H 0.44474 0.28493 0.16637 0.0
H576 H 0.56219 0.21757 0.16328 0.0
H577 H 0.61039 0.26992 0.19323 0.0
C578 C 0.58246 0.33684 0.21483 0.0
C579 C 0.56412 0.37129 0.22489 0.0
C580 C 0.55522 0.30753 0.19744 0.0
C581 C 0.51697 0.37509 0.21735 0.0
C582 C 0.48933 0.34575 0.19997 0.0
C583 C 0.48125 0.28239 0.17224 0.0
C584 C 0.50024 0.24777 0.16262 0.0
C585 C 0.50832 0.31206 0.18978 0.0
C586 C 0.54704 0.24406 0.17043 0.0
C587 C 0.57443 0.2738 0.18758 0.0
H588 H 0.22362 0.52334 0.3823 0.0
H589 H 0.22385 0.38236 0.41392 0.0
H590 H 0.24292 0.34642 0.3834 0.0
H591 H 0.26942 0.36051 0.34837 0.0
H592 H 0.27251 0.50291 0.3167 0.0
H593 H 0.24151 0.53215 0.3464 0.0
C594 C 0.22663 0.48408 0.38244 0.0
C595 C 0.22285 0.45596 0.40044 0.0
C596 C 0.23885 0.46417 0.36481 0.0
C597 C 0.22709 0.40521 0.40033 0.0
C598 C 0.23819 0.38467 0.38287 0.0
C599 C 0.26304 0.39779 0.34795 0.0
C600 C 0.27394 0.42981 0.33037 0.0
C601 C 0.24595 0.41481 0.36514 0.0
C602 C 0.26428 0.47732 0.32999 0.0
C603 C 0.24686 0.49429 0.34702 0.0
H604 H 0.78263 0.28756 0.54193 0.0
H605 H 0.83922 0.18514 0.57436 0.0
H606 H 0.89744 0.18714 0.54594 0.0
H607 H 0.93639 0.223 0.51244 0.0
H608 H 0.87889 0.32567 0.48059 0.0
H609 H 0.81636 0.31797 0.50816 0.0
C610 C 0.80752 0.26542 0.54283 0.0
C611 C 0.80703 0.23674 0.56038 0.0
C612 C 0.84065 0.26676 0.52649 0.0
C613 C 0.83891 0.20764 0.5611 0.0
C614 C 0.87231 0.20893 0.54485 0.0
C615 C 0.9098 0.24331 0.51151 0.0
C616 C 0.9124 0.27489 0.49441 0.0
C617 C 0.87414 0.23908 0.52756 0.0
C618 C 0.87728 0.30049 0.49338 0.0
C619 C 0.84184 0.29652 0.50924 0.0
H620 H 0.7106 0.85422 0.64863 0.0
H621 H 0.86161 0.98259 0.67948 0.0
H622 H 0.82506 0.92714 0.71015 0.0
H623 H 0.74456 0.84658 0.72899 0.0
H624 H 0.59135 0.723 0.69787 0.0
H625 H 0.63433 0.77112 0.66669 0.0
C626 C 0.73608 0.86937 0.66197 0.0
C627 C 0.78865 0.92245 0.66177 0.0
C628 C 0.71403 0.83811 0.67964 0.0
C629 C 0.82075 0.94199 0.67928 0.0
C630 C 0.79984 0.91031 0.69684 0.0
C631 C 0.72138 0.82973 0.71529 0.0
C632 C 0.66495 0.78139 0.71568 0.0
C633 C 0.74574 0.85897 0.69734 0.0
C634 C 0.63482 0.76034 0.6979 0.0
C635 C 0.65929 0.78787 0.68006 0.0
H636 H 0.47122 0.5409 0.9002 0.0
H637 H 0.61629 0.6867 0.92806 0.0
H638 H 0.65437 0.73146 0.89605 0.0
H639 H 0.6469 0.72873 0.86026 0.0
H640 H 0.49928 0.58639 0.83213 0.0
H641 H 0.46114 0.54078 0.86416 0.0
C642 C 0.51117 0.58236 0.89914 0.0
C643 C 0.54119 0.61052 0.91625 0.0
C644 C 0.53205 0.6085 0.88075 0.0
C645 C 0.59248 0.66454 0.91495 0.0
C646 C 0.6143 0.69007 0.89671 0.0
C647 C 0.60632 0.68781 0.86119 0.0
C648 C 0.57598 0.66071 0.84403 0.0
C649 C 0.58446 0.66242 0.87954 0.0
C650 C 0.52313 0.60809 0.84529 0.0
C651 C 0.5015 0.58188 0.86353 0.0
H652 H 1.01135 0.41628 0.06656 0.0
H653 H 0.98309 0.54378 0.09613 0.0
H654 H 0.97956 0.58568 0.06446 0.0
H655 H 0.98985 0.58904 0.02846 0.0
H656 H 1.01224 0.45785 -0.00117 0.0
H657 H 1.01218 0.41384 0.03044 0.0
C658 C 1.00412 0.45303 0.06599 0.0
C659 C 0.99808 0.47745 0.08348 0.0
C660 C 1.00111 0.4761 0.04778 0.0
C661 C 0.98779 0.5244 0.08273 0.0
C662 C 0.98598 0.54844 0.06468 0.0
C663 C 0.99427 0.55056 0.02899 0.0
C664 C 1.00155 0.52689 0.01151 0.0
C665 C 0.99338 0.52511 0.04714 0.0
C666 C 1.00644 0.47663 0.0122 0.0
C667 C 1.00671 0.45166 0.03023 0.0
H668 H 0.46362 0.96596 0.19968 0.0
H669 H 0.60631 0.95463 0.17408 0.0
H670 H 0.64626 0.95926 0.20668 0.0
H671 H 0.64229 0.96959 0.24227 0.0
H672 H 0.49766 0.97634 0.2683 0.0
H673 H 0.45636 0.96992 0.23569 0.0
C674 C 0.50336 0.96441 0.20132 0.0
C675 C 0.53225 0.96034 0.18463 0.0
C676 C 0.52561 0.96618 0.2201 0.0
C677 C 0.58329 0.95759 0.18681 0.0
C678 C 0.60625 0.9604 0.2054 0.0
C679 C 0.60166 0.96948 0.24077 0.0
C680 C 0.57321 0.97389 0.2575 0.0
C681 C 0.57801 0.96514 0.22211 0.0
C682 C 0.5202 0.97287 0.25552 0.0
C683 C 0.49673 0.96946 0.23692 0.0
H684 H 0.59136 0.4344 0.36611 0.0
H685 H 0.72812 0.59442 0.3413 0.0
H686 H 0.77058 0.62649 0.37384 0.0
H687 H 0.76623 0.61103 0.40943 0.0
H688 H 0.63259 0.44945 0.43432 0.0
H689 H 0.59169 0.41554 0.40159 0.0
C690 C 0.63052 0.47617 0.36789 0.0
C691 C 0.65634 0.51231 0.35149 0.0
C692 C 0.6552 0.49393 0.38657 0.0
C693 C 0.70755 0.56592 0.3538 0.0
C694 C 0.73176 0.58435 0.37236 0.0
C695 C 0.72837 0.56826 0.40763 0.0
C696 C 0.70205 0.53292 0.42414 0.0
C697 C 0.70558 0.54899 0.38885 0.0
C698 C 0.65357 0.47728 0.42172 0.0
C699 C 0.63002 0.45804 0.40306 0.0
H700 H 0.26419 0.63239 0.5941 0.0
H701 H 0.23845 0.76982 0.57156 0.0
H702 H 0.23461 0.73482 0.53792 0.0
H703 H 0.23302 0.66154 0.51543 0.0
H704 H 0.24834 0.51868 0.53883 0.0
H705 H 0.26229 0.55962 0.5719 0.0
C706 C 0.25853 0.65512 0.58178 0.0
C707 C 0.25202 0.70364 0.58507 0.0
C708 C 0.25427 0.63361 0.5628 0.0
C709 C 0.24353 0.73224 0.56918 0.0
C710 C 0.24135 0.71231 0.55004 0.0
C711 C 0.24008 0.63996 0.5278 0.0
C712 C 0.23999 0.58763 0.52496 0.0
C713 C 0.24587 0.66255 0.54674 0.0
C714 C 0.24814 0.55906 0.54092 0.0
C715 C 0.25614 0.58239 0.55972 0.0
H716 H 0.61019 0.13931 0.75217 0.0
H717 H 0.57864 0.27708 0.73394 0.0
H718 H 0.63942 0.2945 0.7048 0.0
H719 H 0.70024 0.26994 0.6846 0.0
H720 H 0.7301 0.13086 0.70248 0.0
H721 H 0.67147 0.11517 0.73209 0.0
C722 C 0.61638 0.17313 0.74182 0.0
C723 C 0.58977 0.20679 0.74516 0.0
C724 C 0.65134 0.18294 0.72523 0.0
C725 C 0.59841 0.25042 0.73164 0.0
C726 C 0.63331 0.26053 0.71504 0.0
C727 C 0.69443 0.23647 0.69503 0.0
C728 C 0.7196 0.20167 0.6914 0.0
C729 C 0.65996 0.22707 0.71174 0.0
C730 C 0.71127 0.15827 0.70499 0.0
C731 C 0.6776 0.14916 0.72185 0.0
H732 H 0.4608 0.15787 0.07497 0.0
H733 H 0.45181 0.30402 0.09891 0.0
H734 H 0.461 0.34344 0.06575 0.0
H735 H 0.46829 0.33479 0.03003 0.0
H736 H 0.46146 0.18033 0.00623 0.0
H737 H 0.46188 0.14618 0.03941 0.0
C738 C 0.45941 0.1977 0.0731 0.0
C739 C 0.45466 0.2272 0.0897 0.0
C740 C 0.46219 0.21892 0.05394 0.0
C741 C 0.4558 0.28024 0.08664 0.0
C742 C 0.4606 0.30267 0.0676 0.0
C743 C 0.46568 0.29301 0.03191 0.0
C744 C 0.46457 0.26037 0.01527 0.0
C745 C 0.46314 0.272 0.05113 0.0
C746 C 0.46341 0.20735 0.01846 0.0
C747 C 0.46302 0.1873 0.03753 0.0
H748 H 0.36802 0.47578 0.24705 0.0
H749 H 0.19913 0.33333 0.26231 0.0
H750 H 0.17102 0.32074 0.22755 0.0
H751 H 0.19752 0.34574 0.19293 0.0
H752 H 0.36321 0.49557 0.178 0.0
H753 H 0.39052 0.5078 0.21249 0.0
C754 C 0.32476 0.44265 0.24271 0.0
C755 C 0.28553 0.40552 0.25708 0.0
C756 C 0.30903 0.4359 0.22278 0.0
C757 C 0.22966 0.36268 0.25145 0.0
C758 C 0.21392 0.35515 0.23159 0.0
C759 C 0.23916 0.38209 0.19706 0.0
C760 C 0.27816 0.41926 0.18248 0.0
C761 C 0.25367 0.39092 0.21711 0.0
C762 C 0.33256 0.46491 0.18853 0.0
C763 C 0.34806 0.47265 0.20839 0.0
H764 H 0.88159 0.23343 0.42314 0.0
H765 H 1.05857 0.37222 0.41516 0.0
H766 H 1.0463 0.36596 0.37978 0.0
H767 H 0.98853 0.31356 0.35074 0.0
H768 H 0.80751 0.18644 0.35877 0.0
H769 H 0.81801 0.19745 0.39429 0.0
C770 C 0.91725 0.26334 0.41381 0.0
C771 C 0.97185 0.30083 0.42207 0.0
C772 C 0.90937 0.26167 0.39328 0.0
C773 C 1.01688 0.33995 0.40942 0.0
C774 C 1.00981 0.33722 0.38904 0.0
C775 C 0.95098 0.28945 0.36019 0.0
C776 C 0.89804 0.24737 0.35204 0.0
C777 C 0.95677 0.29691 0.38074 0.0
C778 C 0.84963 0.21735 0.36463 0.0
C779 C 0.85541 0.22369 0.38501 0.0
H780 H 0.86958 0.89145 0.52731 0.0
H781 H 0.74022 0.93265 0.50732 0.0
H782 H 0.73366 0.96442 0.54049 0.0
H783 H 0.76135 0.97609 0.57568 0.0
H784 H 0.88124 0.92289 0.59587 0.0
H785 H 0.89196 0.89652 0.56223 0.0
C786 C 0.83873 0.90599 0.5301 0.0
C787 C 0.80477 0.90852 0.5146 0.0
C788 C 0.83256 0.92084 0.54941 0.0
C789 C 0.76744 0.93051 0.5187 0.0
C790 C 0.76303 0.94799 0.53779 0.0
C791 C 0.78941 0.95823 0.57266 0.0
C792 C 0.8204 0.9512 0.58819 0.0
C793 C 0.79473 0.9425 0.55332 0.0
C794 C 0.85652 0.92799 0.58419 0.0
C795 C 0.86304 0.9135 0.56495 0.0
H796 H 0.93133 0.84524 0.74384 0.0
H797 H 0.97595 0.71916 0.76525 0.0
H798 H 1.00003 0.70519 0.73172 0.0
H799 H 1.00642 0.72732 0.69618 0.0
H800 H 0.95239 0.84577 0.6748 0.0
H801 H 0.92969 0.86094 0.7085 0.0
C802 C 0.94497 0.81353 0.74131 0.0
C803 C 0.95105 0.78289 0.75731 0.0
C804 C 0.95561 0.80326 0.72191 0.0
C805 C 0.97145 0.7441 0.75347 0.0
C806 C 0.98443 0.73538 0.73421 0.0
C807 C 0.98882 0.75577 0.69894 0.0
C808 C 0.98086 0.78536 0.68309 0.0
C809 C 0.97611 0.7643 0.71832 0.0
C810 C 0.95811 0.82206 0.68674 0.0
C811 C 0.94591 0.83125 0.70601 0.0
H812 H 0.21156 0.80909 0.91016 0.0
H813 H 0.35641 0.96915 0.9316 0.0
H814 H 0.38997 0.99825 0.89792 0.0
H815 H 0.37402 0.98241 0.86259 0.0
H816 H 0.21618 0.83404 0.84153 0.0
H817 H 0.1921 0.79644 0.87496 0.0
C818 C 0.2497 0.8512 0.90769 0.0
C819 C 0.28035 0.88724 0.92376 0.0
C820 C 0.26648 0.86987 0.88823 0.0
C821 C 0.3317 0.93992 0.91983 0.0
C822 C 0.3507 0.95704 0.90046 0.0
C823 C 0.33344 0.94254 0.86513 0.0
C824 C 0.29663 0.91205 0.84921 0.0
C825 C 0.31754 0.92308 0.88457 0.0
C826 C 0.24602 0.85869 0.85316 0.0
C827 C 0.23176 0.83729 0.8724 0.0
H828 H 0.87847 0.65491 0.96275 0.0
H829 H 0.81518 0.47255 0.95278 0.0
H830 H 0.7155 0.45141 0.95827 0.0
H831 H 0.64499 0.48508 0.96584 0.0
H832 H 0.71104 0.66859 -0.02508 0.0
H833 H 0.80951 0.68819 0.96993 0.0
C834 C 0.84305 0.61043 0.9618 0.0
C835 C 0.85502 0.56556 0.95736 0.0
C836 C 0.78554 0.59852 0.96485 0.0
C837 C 0.80786 0.50826 0.95614 0.0
C838 C 0.75054 0.49603 0.95931 0.0
C839 C 0.68092 0.52929 0.96678 0.0
C840 C 0.66976 0.57511 -0.02921 0.0
C841 C 0.73862 0.54083 0.96368 0.0
C842 C 0.71743 0.63215 -0.02819 0.0
C843 C 0.77426 0.64364 0.96897 0.0
H844 H 0.28682 0.81503 0.12917 0.0
H845 H 0.41242 0.75739 0.12922 0.0
H846 H 0.33537 0.65744 0.13491 0.0
H847 H 0.23122 0.5848 0.13999 0.0
H848 H 1.10615 0.64317 0.13967 0.0
H849 H 0.18328 0.74285 0.1341 0.0
C850 C 0.29751 0.78073 0.1304 0.0
C851 C 0.35597 0.79459 0.12873 0.0
C852 C 0.25263 0.72266 0.13371 0.0
C853 C 0.36824 0.74882 0.13041 0.0
C854 C 0.32397 0.69123 0.1337 0.0
C855 C 0.2208 0.61929 0.13876 0.0
C856 C 0.16235 0.60569 0.14032 0.0
C857 C 0.26585 0.67741 0.13542 0.0
C858 C 0.15029 0.65155 0.13856 0.0
C859 C 0.1946 0.70901 0.13535 0.0
H860 H 0.54003 0.27181 0.30522 0.0
H861 H 0.72173 0.3883 0.29358 0.0
H862 H 0.74241 0.30989 0.30007 0.0
H863 H 0.70888 0.2066 0.30881 0.0
H864 H 0.52663 0.09158 0.32051 0.0
H865 H 0.50702 0.17022 0.31435 0.0
C866 C 0.58423 0.28025 0.3041 0.0
C867 C 0.62903 0.33644 0.29885 0.0
C868 C 0.59607 0.23472 0.30792 0.0
C869 C 0.68604 0.34588 0.29757 0.0
C870 C 0.69804 0.30082 0.30129 0.0
C871 C 0.66493 0.19876 0.3101 0.0
C872 C 0.61953 0.1425 0.31518 0.0
C873 C 0.65343 0.24482 0.30647 0.0
C874 C 0.56284 0.13385 0.31667 0.0
C875 C 0.55131 0.17906 0.31311 0.0
H876 H 0.36224 0.4761 0.47526 0.0
H877 H 0.41927 0.65676 0.46383 0.0
H878 H 0.51993 0.68176 0.46829 0.0
H879 H 0.59362 0.65274 0.47515 0.0
H880 H 0.53593 0.4714 0.48559 0.0
H881 H 0.43548 0.44709 0.48184 0.0
C882 C 0.39657 0.52098 0.47383 0.0
C883 C 0.38237 0.5642 0.46919 0.0
C884 C 0.45516 0.53533 0.47619 0.0
C885 C 0.42817 0.62214 0.46729 0.0
C886 C 0.48617 0.6367 0.46987 0.0
C887 C 0.55911 0.60794 0.47662 0.0
C888 C 0.57314 0.56423 0.48066 0.0
C889 C 0.50047 0.59371 0.47426 0.0
C890 C 0.52724 0.50632 0.48242 0.0
C891 C 0.4693 0.49214 0.48031 0.0
H892 H 0.95587 0.34937 0.6285 0.0
H893 H 0.83309 0.40977 0.63386 0.0
H894 H 0.91252 0.50941 0.63828 0.0
H895 H 1.01824 0.58063 0.64111 0.0
H896 H 0.13956 0.51846 0.6347 0.0
H897 H 1.06014 0.41984 0.63027 0.0
C898 C 0.94629 0.3842 0.63062 0.0
C899 C 0.88807 0.37136 0.63088 0.0
C900 C 0.99241 0.44188 0.63302 0.0
C901 C 0.87717 0.41775 0.63354 0.0
C902 C 0.92277 0.47507 0.63612 0.0
C903 C 1.02728 0.54555 0.63871 0.0
C904 C 1.08541 0.55777 0.63833 0.0
C905 C 0.98078 0.48787 0.63596 0.0
C906 C 1.09574 0.5112 0.63509 0.0
C907 C 1.05011 0.45429 0.63256 0.0
H908 H 0.68685 0.91616 0.78814 0.0
H909 H 0.50547 0.78705 0.7922 0.0
H910 H 0.48149 0.86334 0.79887 0.0
H911 H 0.5122 0.96836 0.80374 0.0
H912 H 0.69393 0.09597 0.79819 0.0
H913 H 0.71692 1.01946 0.79209 0.0
C914 C 0.64197 0.90444 0.79047 0.0
C915 C 0.59824 0.84531 0.78967 0.0
C916 C 0.62829 0.9488 0.79414 0.0
C917 C 0.54034 0.83182 0.79265 0.0
C918 C 0.5265 0.87565 0.79653 0.0
C919 C 0.55681 0.97937 0.80127 0.0
C920 C 0.60113 1.0385 0.80154 0.0
C921 C 0.57011 0.93453 0.79738 0.0
C922 C 0.65861 1.05137 0.79807 0.0
C923 C 0.67202 1.0074 0.79457 0.0
H924 H 0.55506 0.50767 0.79532 0.0
H925 H 0.73927 0.5951 0.78419 0.0
H926 H 0.73883 0.50332 0.78917 0.0
H927 H 0.68558 0.39697 0.79666 0.0
H928 H 0.50138 0.31177 0.80806 0.0
H929 H 0.50269 0.40324 0.80302 0.0
C930 C 0.59529 0.50692 0.79394 0.0
C931 C 0.64715 0.55881 0.78929 0.0
C932 C 0.59475 0.45388 0.7969 0.0
C933 C 0.69863 0.55627 0.78771 0.0
C934 C 0.69838 0.50356 0.79056 0.0
C935 C 0.64569 0.39834 0.79805 0.0
C936 C 0.59337 0.34675 0.80278 0.0
C937 C 0.64664 0.45187 0.79515 0.0
C938 C 0.54236 0.35012 0.8045 0.0
C939 C 0.543 0.40271 0.80159 0.0
H940 H 0.23502 0.66846 0.96362 0.0
H941 H 1.12089 0.48704 0.95044 0.0
H942 H 0.19918 0.46675 0.95632 0.0
H943 H 0.3009 0.49957 0.96508 0.0
H944 H 0.41571 0.68084 -0.02186 0.0
H945 H 0.33722 0.70137 -0.02748 0.0
C946 C 0.2272 0.62449 0.962 0.0
C947 C 0.17149 0.57959 0.95649 0.0
C948 C 0.27298 0.6127 0.96543 0.0
C949 C 0.16286 0.52287 0.95457 0.0
C950 C 0.20785 0.51099 0.95797 0.0
C951 C 0.30889 0.54359 0.96675 0.0
C952 C 0.3648 0.58836 -0.02793 0.0
C953 C 0.26321 0.55545 0.96339 0.0
C954 C 0.3736 0.64515 -0.02593 0.0
C955 C 0.32849 0.65711 -0.02917 0.0
H956 H 0.80625 0.32334 0.14032 0.0
H957 H 0.89948 0.2295 0.13519 0.0
H958 H 0.8087 0.1393 0.12982 0.0
H959 H 0.70262 0.08594 0.1265 0.0
H960 H 0.60814 0.17854 0.13058 0.0
H961 H 0.69897 0.26948 0.13638 0.0
C962 C 0.8068 0.28318 0.13808 0.0
C963 C 0.86036 0.28387 0.13824 0.0
C964 C 0.75389 0.23082 0.13474 0.0
C965 C 0.85955 0.231 0.13514 0.0
C966 C 0.80738 0.17905 0.13206 0.0
C967 C 0.70167 0.12594 0.12864 0.0
C968 C 0.64809 0.1249 0.12808 0.0
C969 C 0.75428 0.17832 0.13181 0.0
C970 C 0.64838 0.17763 0.13082 0.0
C971 C 0.70051 0.22982 0.1342 0.0
H972 H 0.69689 0.84974 0.30235 0.0
H973 H 0.5164 0.78467 0.31618 0.0
H974 H 0.49514 0.68538 0.31012 0.0
H975 H 0.52748 0.61531 0.30106 0.0
H976 H 0.70825 0.68161 0.28712 0.0
H977 H 0.72885 0.78037 0.29297 0.0
C978 C 0.65286 0.81396 0.30405 0.0
C979 C 0.60857 0.8255 0.30977 0.0
C980 C 0.64059 0.75629 0.30047 0.0
C981 C 0.55175 0.77788 0.3118 0.0
C982 C 0.53936 0.72065 0.30833 0.0
C983 C 0.57133 0.6513 0.29923 0.0
C984 C 0.61598 0.64005 0.2936 0.0
C985 C 0.58338 0.70908 0.30266 0.0
C986 C 0.67258 0.68797 0.2914 0.0
C987 C 0.68468 0.745 0.29478 0.0
H988 H 1.00032 0.46445 0.47543 0.0
H989 H 1.11907 0.64569 0.46276 0.0
H990 H 1.04201 0.66818 0.4676 0.0
H991 H 0.94053 0.63799 0.47553 0.0
H992 H 0.82068 0.4577 0.48876 0.0
H993 H 0.89754 0.4341 0.48371 0.0
C994 C 1.00935 0.50883 0.4737 0.0
C995 C 1.06619 0.55306 0.46869 0.0
C996 C 0.96422 0.5221 0.47665 0.0
C997 C 1.07636 0.61035 0.46662 0.0
C998 C 1.03203 0.62353 0.46939 0.0
C999 C 0.93099 0.59346 0.47732 0.0
C1000 C 0.87425 0.54994 0.48254 0.0
C1001 C 0.97574 0.57995 0.47443 0.0
C1002 C 0.86354 0.4925 0.48477 0.0
C1003 C 0.90771 0.47878 0.48185 0.0
H1004 H 0.38442 0.92301 0.65136 0.0
H1005 H 0.44172 0.79891 0.64175 0.0
H1006 H 0.54113 0.87806 0.63696 0.0
H1007 H 0.61302 0.98377 0.63488 0.0
H1008 H 0.55496 0.10691 0.64552 0.0
H1009 H 0.45617 1.02773 0.65046 0.0
C1010 C 0.41856 0.91311 0.64825 0.0
C1011 C 0.40483 0.85454 0.6469 0.0
C1012 C 0.47626 0.95914 0.64562 0.0
C1013 C 0.45034 0.84322 0.64295 0.0
C1014 C 0.50755 0.88867 0.64014 0.0
C1015 C 0.5788 0.99327 0.63832 0.0
C1016 C 0.5921 1.05176 0.63971 0.0
C1017 C 0.52122 0.94699 0.64136 0.0
C1018 C 0.54672 1.06273 0.6443 0.0
C1019 C 0.48977 1.01726 0.64713 0.0
loop_
_geom_bond_atom_site_label_1
_geom_bond_atom_site_label_2
_geom_bond_distance
_geom_bond_site_symmetry_2
_ccdc_geom_bond_type
O0 Tb1 2.292 . S
O0 C3 1.255 . S
Tb1 O0 2.292 . S
Tb1 O17 2.326 . S
Tb1 O19 2.500 . S
Tb1 O20 2.473 . S
Tb1 O23 2.324 . S
Eu2 O6 2.292 . S
Eu2 C7 2.852 . S
Eu2 O18 2.324 1_556 S
Eu2 O22 2.326 1_556 S
Eu2 O24 2.500 . S
Eu2 O25 2.473 1_556 S
C3 O0 1.255 . S
C3 O4 1.247 . S
O4 C3 1.247 . S
C5 O17 1.242 . S
C5 O18 1.258 . S
O6 Eu2 2.292 . S
O6 C8 1.255 . S
C7 Eu2 2.852 . S
C7 C11 1.503 1_556 S
C7 O24 1.273 . S
C7 O25 1.257 1_556 S
C8 O6 1.255 . S
C8 O9 1.247 . S
O9 C8 1.247 . S
C10 O22 1.242 . S
C10 O23 1.258 . S
C11 C7 1.503 1_554 S
C11 C12 1.379 . S
C11 C16 1.392 1_554 S
C12 C11 1.379 . S
C12 C13 1.404 . S
C12 H26 0.929 . S
C13 C12 1.404 . S
C13 C14 1.389 . S
C14 C13 1.389 . S
C14 C15 1.399 1_554 S
C14 H27 0.931 . S
C15 C14 1.399 1_556 S
C15 C16 1.390 . S
C16 C11 1.392 1_556 S
C16 C15 1.390 . S
C16 H28 0.929 . S
O17 Tb1 2.326 . S
O17 C5 1.242 . S
O18 Eu2 2.324 1_554 S
O18 C5 1.258 . S
O19 Tb1 2.500 . S
O19 C21 1.273 . S
O20 Tb1 2.473 . S
O20 C21 1.257 . S
C21 O19 1.273 . S
C21 O20 1.257 . S
O22 Eu2 2.326 1_554 S
O22 C10 1.242 . S
O23 Tb1 2.324 . S
O23 C10 1.258 . S
O24 Eu2 2.500 . S
O24 C7 1.273 . S
O25 Eu2 2.473 1_554 S
O25 C7 1.257 1_554 S
H26 C12 0.929 . S
H27 C14 0.931 . S
H28 C16 0.929 . S
O29 Tb30 2.292 . S
O29 C32 1.255 . S
Tb30 O29 2.292 . S
Tb30 O46 2.326 . S
Tb30 O48 2.500 . S
Tb30 O49 2.473 . S
Tb30 O52 2.324 . S
Eu31 O35 2.292 . S
Eu31 C36 2.852 . S
Eu31 O47 2.324 . S
Eu31 O51 2.326 . S
Eu31 O53 2.500 . S
Eu31 O54 2.473 . S
C32 O29 1.255 . S
C32 O33 1.247 . S
O33 C32 1.247 . S
C34 O46 1.242 . S
C34 O47 1.258 . S
O35 Eu31 2.292 . S
O35 C37 1.255 . S
C36 Eu31 2.852 . S
C36 C40 1.503 1_655 S
C36 O53 1.273 . S
C36 O54 1.257 . S
C37 O35 1.255 . S
C37 O38 1.247 . S
O38 C37 1.247 . S
C39 O51 1.242 . S
C39 O52 1.258 . S
C40 C36 1.503 1_455 S
C40 C41 1.379 . S
C40 C45 1.392 . S
C41 C40 1.379 . S
C41 C42 1.404 . S
C41 H55 0.929 . S
C42 C41 1.404 . S
C42 C43 1.389 . S
C43 C42 1.389 . S
C43 C44 1.399 . S
C43 H56 0.931 . S
C44 C43 1.399 . S
C44 C45 1.390 . S
C45 C40 1.392 . S
C45 C44 1.390 . S
C45 H57 0.929 . S
O46 Tb30 2.326 . S
O46 C34 1.242 . S
O47 Eu31 2.324 . S
O47 C34 1.258 . S
O48 Tb30 2.500 . S
O48 C50 1.273 . S
O49 Tb30 2.473 . S
O49 C50 1.257 . S
C50 O48 1.273 . S
C50 O49 1.257 . S
O51 Eu31 2.326 . S
O51 C39 1.242 . S
O52 Tb30 2.324 . S
O52 C39 1.258 . S
O53 Eu31 2.500 . S
O53 C36 1.273 . S
O54 Eu31 2.473 . S
O54 C36 1.257 . S
H55 C41 0.929 . S
H56 C43 0.931 . S
H57 C45 0.929 . S
O58 Tb59 2.292 . S
O58 C61 1.255 . S
Tb59 O58 2.292 . S
Tb59 O75 2.326 . S
Tb59 O77 2.500 . S
Tb59 O78 2.473 . S
Tb59 O81 2.324 . S
Eu60 O64 2.292 . S
Eu60 C65 2.852 . S
Eu60 O76 2.324 . S
Eu60 O80 2.326 . S
Eu60 O82 2.500 . S
Eu60 O83 2.473 . S
C61 O58 1.255 . S
C61 O62 1.247 . S
O62 C61 1.247 . S
C63 O75 1.242 . S
C63 O76 1.258 . S
O64 Eu60 2.292 . S
O64 C66 1.255 . S
C65 Eu60 2.852 . S
C65 C69 1.503 1_565 S
C65 O82 1.273 . S
C65 O83 1.257 . S
C66 O64 1.255 . S
C66 O67 1.247 . S
O67 C66 1.247 . S
C68 O80 1.242 . S
C68 O81 1.258 . S
C69 C65 1.503 1_545 S
C69 C70 1.379 . S
C69 C74 1.392 . S
C70 C69 1.379 . S
C70 C71 1.404 . S
C70 H84 0.929 . S
C71 C70 1.404 . S
C71 C72 1.389 . S
C72 C71 1.389 . S
C72 C73 1.399 . S
C72 H85 0.931 . S
C73 C72 1.399 . S
C73 C74 1.390 . S
C74 C69 1.392 . S
C74 C73 1.390 . S
C74 H86 0.929 . S
O75 Tb59 2.326 . S
O75 C63 1.242 . S
O76 Eu60 2.324 . S
O76 C63 1.258 . S
O77 Tb59 2.500 . S
O77 C79 1.273 . S
O78 Tb59 2.473 . S
O78 C79 1.257 . S
C79 O77 1.273 . S
C79 O78 1.257 . S
O80 Eu60 2.326 . S
O80 C68 1.242 . S
O81 Tb59 2.324 . S
O81 C68 1.258 . S
O82 Eu60 2.500 . S
O82 C65 1.273 . S
O83 Eu60 2.473 . S
O83 C65 1.257 . S
H84 C70 0.929 . S
H85 C72 0.931 . S
H86 C74 0.929 . S
O87 Tb88 2.292 . S
O87 C90 1.255 . S
Tb88 O87 2.292 . S
Tb88 O104 2.326 . S
Tb88 O106 2.500 . S
Tb88 O107 2.473 . S
Tb88 O110 2.324 . S
Eu89 O93 2.292 . S
Eu89 C94 2.852 . S
Eu89 O105 2.324 . S
Eu89 O109 2.326 . S
Eu89 O111 2.500 . S
Eu89 O112 2.473 . S
C90 O87 1.255 . S
C90 O91 1.247 . S
O91 C90 1.247 . S
C92 O104 1.242 . S
C92 O105 1.258 . S
O93 Eu89 2.292 . S
O93 C95 1.255 . S
C94 Eu89 2.852 . S
C94 C98 1.503 . S
C94 O111 1.273 . S
C94 O112 1.257 . S
C95 O93 1.255 . S
C95 O96 1.247 . S
O96 C95 1.247 . S
C97 O109 1.242 . S
C97 O110 1.258 . S
C98 C94 1.503 . S
C98 C99 1.379 . S
C98 C103 1.392 . S
C99 C98 1.379 . S
C99 C100 1.404 . S
C99 H113 0.929 . S
C100 C99 1.404 . S
C100 C101 1.389 . S
C101 C100 1.389 . S
C101 C102 1.399 . S
C101 H114 0.931 . S
C102 C101 1.399 . S
C102 C103 1.390 . S
C103 C98 1.392 . S
C103 C102 1.390 . S
C103 H115 0.929 . S
O104 Tb88 2.326 . S
O104 C92 1.242 . S
O105 Eu89 2.324 . S
O105 C92 1.258 . S
O106 Tb88 2.500 . S
O106 C108 1.273 . S
O107 Tb88 2.473 . S
O107 C108 1.257 . S
C108 O106 1.273 . S
C108 O107 1.257 . S
O109 Eu89 2.326 . S
O109 C97 1.242 . S
O110 Tb88 2.324 . S
O110 C97 1.258 . S
O111 Eu89 2.500 . S
O111 C94 1.273 . S
O112 Eu89 2.473 . S
O112 C94 1.257 . S
H113 C99 0.929 . S
H114 C101 0.931 . S
H115 C103 0.929 . S
O116 Tb117 2.292 . S
O116 C119 1.255 . S
Tb117 O116 2.292 . S
Tb117 O133 2.326 . S
Tb117 O135 2.500 . S
Tb117 O136 2.473 . S
Tb117 O139 2.324 . S
Eu118 O122 2.292 . S
Eu118 C123 2.852 . S
Eu118 O134 2.324 . S
Eu118 O138 2.326 . S
Eu118 O140 2.500 . S
Eu118 O141 2.473 . S
C119 O116 1.255 . S
C119 O120 1.247 . S
O120 C119 1.247 . S
C121 O133 1.242 . S
C121 O134 1.258 . S
O122 Eu118 2.292 . S
O122 C124 1.255 . S
C123 Eu118 2.852 . S
C123 C127 1.503 1_455 S
C123 O140 1.273 . S
C123 O141 1.257 . S
C124 O122 1.255 . S
C124 O125 1.247 . S
O125 C124 1.247 . S
C126 O138 1.242 . S
C126 O139 1.258 . S
C127 C123 1.503 1_655 S
C127 C128 1.379 . S
C127 C132 1.392 . S
C128 C127 1.379 . S
C128 C129 1.404 . S
C128 H142 0.929 . S
C129 C128 1.404 . S
C129 C130 1.389 . S
C130 C129 1.389 . S
C130 C131 1.399 . S
C130 H143 0.931 . S
C131 C130 1.399 . S
C131 C132 1.390 . S
C132 C127 1.392 . S
C132 C131 1.390 . S
C132 H144 0.929 . S
O133 Tb117 2.326 . S
O133 C121 1.242 . S
O134 Eu118 2.324 . S
O134 C121 1.258 . S
O135 Tb117 2.500 . S
O135 C137 1.273 . S
O136 Tb117 2.473 . S
O136 C137 1.257 . S
C137 O135 1.273 . S
C137 O136 1.257 . S
O138 Eu118 2.326 . S
O138 C126 1.242 . S
O139 Tb117 2.324 . S
O139 C126 1.258 . S
O140 Eu118 2.500 . S
O140 C123 1.273 . S
O141 Eu118 2.473 . S
O141 C123 1.257 . S
H142 C128 0.929 . S
H143 C130 0.931 . S
H144 C132 0.929 . S
O145 Tb146 2.292 . S
O145 C148 1.255 . S
Tb146 O145 2.292 . S
Tb146 O162 2.326 . S
Tb146 O164 2.500 . S
Tb146 O165 2.473 . S
Tb146 O168 2.324 . S
Eu147 O151 2.292 . S
Eu147 C152 2.852 . S
Eu147 O163 2.324 . S
Eu147 O167 2.326 . S
Eu147 O169 2.500 . S
Eu147 O170 2.473 . S
C148 O145 1.255 . S
C148 O149 1.247 . S
O149 C148 1.247 . S
C150 O162 1.242 . S
C150 O163 1.258 . S
O151 Eu147 2.292 . S
O151 C153 1.255 . S
C152 Eu147 2.852 . S
C152 C156 1.503 1_545 S
C152 O169 1.273 . S
C152 O170 1.257 . S
C153 O151 1.255 . S
C153 O154 1.247 . S
O154 C153 1.247 . S
C155 O167 1.242 . S
C155 O168 1.258 . S
C156 C152 1.503 1_565 S
C156 C157 1.379 . S
C156 C161 1.392 . S
C157 C156 1.379 . S
C157 C158 1.404 . S
C157 H171 0.929 . S
C158 C157 1.404 . S
C158 C159 1.389 . S
C159 C158 1.389 . S
C159 C160 1.399 . S
C159 H172 0.931 . S
C160 C159 1.399 . S
C160 C161 1.390 . S
C161 C156 1.392 . S
C161 C160 1.390 . S
C161 H173 0.929 . S
O162 Tb146 2.326 . S
O162 C150 1.242 . S
O163 Eu147 2.324 . S
O163 C150 1.258 . S
O164 Tb146 2.500 . S
O164 C166 1.273 . S
O165 Tb146 2.473 . S
O165 C166 1.257 . S
C166 O164 1.273 . S
C166 O165 1.257 . S
O167 Eu147 2.326 . S
O167 C155 1.242 . S
O168 Tb146 2.324 . S
O168 C155 1.258 . S
O169 Eu147 2.500 . S
O169 C152 1.273 . S
O170 Eu147 2.473 . S
O170 C152 1.257 . S
H171 C157 0.929 . S
H172 C159 0.931 . S
H173 C161 0.929 . S
O174 Tb175 2.292 . S
O174 C177 1.255 . S
Tb175 O174 2.292 . S
Tb175 O191 2.326 . S
Tb175 O193 2.500 . S
Tb175 O194 2.473 . S
Tb175 O197 2.324 . S
Eu176 O180 2.292 . S
Eu176 C181 2.852 . S
Eu176 O192 2.324 . S
Eu176 O196 2.326 . S
Eu176 O198 2.500 . S
Eu176 O199 2.473 . S
C177 O174 1.255 . S
C177 O178 1.247 . S
O178 C177 1.247 . S
C179 O191 1.242 . S
C179 O192 1.258 . S
O180 Eu176 2.292 . S
O180 C182 1.255 . S
C181 Eu176 2.852 . S
C181 C185 1.503 . S
C181 O198 1.273 . S
C181 O199 1.257 . S
C182 O180 1.255 . S
C182 O183 1.247 . S
O183 C182 1.247 . S
C184 O196 1.242 . S
C184 O197 1.258 . S
C185 C181 1.503 . S
C185 C186 1.379 . S
C185 C190 1.392 . S
C186 C185 1.379 . S
C186 C187 1.404 . S
C186 H200 0.929 . S
C187 C186 1.404 . S
C187 C188 1.389 . S
C188 C187 1.389 . S
C188 C189 1.399 . S
C188 H201 0.931 . S
C189 C188 1.399 . S
C189 C190 1.390 . S
C190 C185 1.392 . S
C190 C189 1.390 . S
C190 H202 0.929 . S
O191 Tb175 2.326 . S
O191 C179 1.242 . S
O192 Eu176 2.324 . S
O192 C179 1.258 . S
O193 Tb175 2.500 . S
O193 C195 1.273 . S
O194 Tb175 2.473 . S
O194 C195 1.257 . S
C195 O193 1.273 . S
C195 O194 1.257 . S
O196 Eu176 2.326 . S
O196 C184 1.242 . S
O197 Tb175 2.324 . S
O197 C184 1.258 . S
O198 Eu176 2.500 . S
O198 C181 1.273 . S
O199 Eu176 2.473 . S
O199 C181 1.257 . S
H200 C186 0.929 . S
H201 C188 0.931 . S
H202 C190 0.929 . S
O203 Tb204 2.292 . S
O203 C206 1.255 . S
Tb204 O203 2.292 . S
Tb204 O220 2.326 . S
Tb204 O222 2.500 . S
Tb204 O223 2.473 . S
Tb204 O226 2.324 . S
Eu205 O209 2.292 . S
Eu205 C210 2.863 . S
Eu205 O221 2.324 1_554 S
Eu205 O225 2.326 1_554 S
Eu205 O227 2.500 . S
Eu205 O228 2.473 1_554 S
C206 O203 1.255 . S
C206 O207 1.247 . S
O207 C206 1.247 . S
C208 O220 1.242 . S
C208 O221 1.258 . S
O209 Eu205 2.292 . S
O209 C211 1.255 . S
C210 Eu205 2.863 . S
C210 C214 1.489 1_654 S
C210 O227 1.315 . S
C210 O228 1.231 1_554 S
C211 O209 1.255 . S
C211 O212 1.247 . S
O212 C211 1.247 . S
C213 O225 1.242 . S
C213 O226 1.258 . S
C214 C210 1.489 1_456 S
C214 C215 1.379 . S
C214 C219 1.392 1_556 S
C215 C214 1.379 . S
C215 C216 1.404 . S
C215 H229 0.929 . S
C216 C215 1.404 . S
C216 C217 1.389 . S
C217 C216 1.389 . S
C217 C218 1.360 1_556 S
C217 H230 0.931 . S
C218 C217 1.360 1_554 S
C218 C219 1.402 . S
C219 C214 1.392 1_554 S
C219 C218 1.402 . S
C219 H231 0.929 . S
O220 Tb204 2.326 . S
O220 C208 1.242 . S
O221 Eu205 2.324 1_556 S
O221 C208 1.258 . S
O222 Tb204 2.500 . S
O222 C224 1.273 . S
O223 Tb204 2.473 . S
O223 C224 1.257 . S
C224 O222 1.273 . S
C224 O223 1.257 . S
O225 Eu205 2.326 1_556 S
O225 C213 1.242 . S
O226 Tb204 2.324 . S
O226 C213 1.258 . S
O227 Eu205 2.500 . S
O227 C210 1.315 . S
O228 Eu205 2.473 1_556 S
O228 C210 1.231 1_556 S
H229 C215 0.929 . S
H230 C217 0.931 . S
H231 C219 0.929 . S
O232 Tb233 2.292 . S
O232 C235 1.255 . S
Tb233 O232 2.292 . S
Tb233 O249 2.326 . S
Tb233 O251 2.500 . S
Tb233 O252 2.473 . S
Tb233 O255 2.324 . S
Eu234 O238 2.292 . S
Eu234 C239 2.852 . S
Eu234 O250 2.324 . S
Eu234 O254 2.326 . S
Eu234 O256 2.500 . S
Eu234 O257 2.473 . S
C235 O232 1.255 . S
C235 O236 1.247 . S
O236 C235 1.247 . S
C237 O249 1.242 . S
C237 O250 1.258 . S
O238 Eu234 2.292 . S
O238 C240 1.255 . S
C239 Eu234 2.852 . S
C239 C243 1.503 1_565 S
C239 O256 1.273 . S
C239 O257 1.257 . S
C240 O238 1.255 . S
C240 O241 1.247 . S
O241 C240 1.247 . S
C242 O254 1.242 . S
C242 O255 1.258 . S
C243 C239 1.503 1_545 S
C243 C244 1.379 . S
C243 C248 1.392 . S
C244 C243 1.379 . S
C244 C245 1.404 . S
C244 H258 0.929 . S
C245 C244 1.404 . S
C245 C246 1.389 . S
C246 C245 1.389 . S
C246 C247 1.399 . S
C246 H259 0.931 . S
C247 C246 1.399 . S
C247 C248 1.390 . S
C248 C243 1.392 . S
C248 C247 1.390 . S
C248 H260 0.929 . S
O249 Tb233 2.326 . S
O249 C237 1.242 . S
O250 Eu234 2.324 . S
O250 C237 1.258 . S
O251 Tb233 2.500 . S
O251 C253 1.273 . S
O252 Tb233 2.473 . S
O252 C253 1.257 . S
C253 O251 1.273 . S
C253 O252 1.257 . S
O254 Eu234 2.326 . S
O254 C242 1.242 . S
O255 Tb233 2.324 . S
O255 C242 1.258 . S
O256 Eu234 2.500 . S
O256 C239 1.273 . S
O257 Eu234 2.473 . S
O257 C239 1.257 . S
H258 C244 0.929 . S
H259 C246 0.931 . S
H260 C248 0.929 . S
O261 Tb262 2.292 . S
O261 C264 1.255 . S
Tb262 O261 2.292 . S
Tb262 O278 2.326 . S
Tb262 O280 2.500 . S
Tb262 O281 2.473 . S
Tb262 O284 2.324 . S
Eu263 O267 2.292 . S
Eu263 C268 2.852 . S
Eu263 O279 2.324 . S
Eu263 O283 2.326 . S
Eu263 O285 2.500 . S
Eu263 O286 2.473 . S
C264 O261 1.255 . S
C264 O265 1.247 . S
O265 C264 1.247 . S
C266 O278 1.242 . S
C266 O279 1.258 . S
O267 Eu263 2.292 . S
O267 C269 1.255 . S
C268 Eu263 2.852 . S
C268 C272 1.503 . S
C268 O285 1.273 . S
C268 O286 1.257 . S
C269 O267 1.255 . S
C269 O270 1.247 . S
O270 C269 1.247 . S
C271 O283 1.242 . S
C271 O284 1.258 . S
C272 C268 1.503 . S
C272 C273 1.379 . S
C272 C277 1.392 . S
C273 C272 1.379 . S
C273 C274 1.404 . S
C273 H287 0.929 . S
C274 C273 1.404 . S
C274 C275 1.389 . S
C275 C274 1.389 . S
C275 C276 1.399 . S
C275 H288 0.931 . S
C276 C275 1.399 . S
C276 C277 1.390 . S
C277 C272 1.392 . S
C277 C276 1.390 . S
C277 H289 0.929 . S
O278 Tb262 2.326 . S
O278 C266 1.242 . S
O279 Eu263 2.324 . S
O279 C266 1.258 . S
O280 Tb262 2.500 . S
O280 C282 1.273 . S
O281 Tb262 2.473 . S
O281 C282 1.257 . S
C282 O280 1.273 . S
C282 O281 1.257 . S
O283 Eu263 2.326 . S
O283 C271 1.242 . S
O284 Tb262 2.324 . S
O284 C271 1.258 . S
O285 Eu263 2.500 . S
O285 C268 1.273 . S
O286 Eu263 2.473 . S
O286 C268 1.257 . S
H287 C273 0.929 . S
H288 C275 0.931 . S
H289 C277 0.929 . S
O290 Tb291 2.292 . S
O290 C293 1.255 . S
Tb291 O290 2.292 . S
Tb291 O307 2.326 . S
Tb291 O309 2.500 . S
Tb291 O310 2.473 . S
Tb291 O313 2.324 . S
Eu292 O296 2.292 . S
Eu292 C297 2.852 . S
Eu292 O308 2.324 . S
Eu292 O312 2.326 . S
Eu292 O314 2.500 . S
Eu292 O315 2.473 . S
C293 O290 1.255 . S
C293 O294 1.247 . S
O294 C293 1.247 . S
C295 O307 1.242 . S
C295 O308 1.258 . S
O296 Eu292 2.292 . S
O296 C298 1.255 . S
C297 Eu292 2.852 . S
C297 C301 1.503 1_455 S
C297 O314 1.273 . S
C297 O315 1.257 . S
C298 O296 1.255 . S
C298 O299 1.247 . S
O299 C298 1.247 . S
C300 O312 1.242 . S
C300 O313 1.258 . S
C301 C297 1.503 1_655 S
C301 C302 1.379 . S
C301 C306 1.392 . S
C302 C301 1.379 . S
C302 C303 1.404 . S
C302 H316 0.929 . S
C303 C302 1.404 . S
C303 C304 1.389 . S
C304 C303 1.389 . S
C304 C305 1.399 . S
C304 H317 0.931 . S
C305 C304 1.399 . S
C305 C306 1.390 . S
C306 C301 1.392 . S
C306 C305 1.390 . S
C306 H318 0.929 . S
O307 Tb291 2.326 . S
O307 C295 1.242 . S
O308 Eu292 2.324 . S
O308 C295 1.258 . S
O309 Tb291 2.500 . S
O309 C311 1.273 . S
O310 Tb291 2.473 . S
O310 C311 1.257 . S
C311 O309 1.273 . S
C311 O310 1.257 . S
O312 Eu292 2.326 . S
O312 C300 1.242 . S
O313 Tb291 2.324 . S
O313 C300 1.258 . S
O314 Eu292 2.500 . S
O314 C297 1.273 . S
O315 Eu292 2.473 . S
O315 C297 1.257 . S
H316 C302 0.929 . S
H317 C304 0.931 . S
H318 C306 0.929 . S
O319 Tb320 2.292 . S
O319 C322 1.255 . S
Tb320 O319 2.292 . S
Tb320 O336 2.326 . S
Tb320 O338 2.500 . S
Tb320 O339 2.473 . S
Tb320 O342 2.324 . S
Eu321 O325 2.292 . S
Eu321 C326 2.852 . S
Eu321 O337 2.324 . S
Eu321 O341 2.326 . S
Eu321 O343 2.500 . S
Eu321 O344 2.473 . S
C322 O319 1.255 . S
C322 O323 1.247 . S
O323 C322 1.247 . S
C324 O336 1.242 . S
C324 O337 1.258 . S
O325 Eu321 2.292 . S
O325 C327 1.255 . S
C326 Eu321 2.852 . S
C326 C330 1.503 1_545 S
C326 O343 1.273 . S
C326 O344 1.257 . S
C327 O325 1.255 . S
C327 O328 1.247 . S
O328 C327 1.247 . S
C329 O341 1.242 . S
C329 O342 1.258 . S
C330 C326 1.503 1_565 S
C330 C331 1.379 . S
C330 C335 1.392 . S
C331 C330 1.379 . S
C331 C332 1.404 . S
C331 H345 0.929 . S
C332 C331 1.404 . S
C332 C333 1.389 . S
C333 C332 1.389 . S
C333 C334 1.399 . S
C333 H346 0.931 . S
C334 C333 1.399 . S
C334 C335 1.390 . S
C335 C330 1.392 . S
C335 C334 1.390 . S
C335 H347 0.929 . S
O336 Tb320 2.326 . S
O336 C324 1.242 . S
O337 Eu321 2.324 . S
O337 C324 1.258 . S
O338 Tb320 2.500 . S
O338 C340 1.273 . S
O339 Tb320 2.473 . S
O339 C340 1.257 . S
C340 O338 1.273 . S
C340 O339 1.257 . S
O341 Eu321 2.326 . S
O341 C329 1.242 . S
O342 Tb320 2.324 . S
O342 C329 1.258 . S
O343 Eu321 2.500 . S
O343 C326 1.273 . S
O344 Eu321 2.473 . S
O344 C326 1.257 . S
H345 C331 0.929 . S
H346 C333 0.931 . S
H347 C335 0.929 . S
H348 C354 0.930 . S
H349 C357 0.930 . S
H350 C358 0.930 . S
H351 C359 0.930 . S
H352 C362 0.930 . S
H353 C363 0.930 . S
C354 H348 0.930 . S
C354 C355 1.355 . S
C354 C356 1.415 . S
C355 C354 1.355 . S
C355 C357 1.419 . S
C356 C354 1.415 . S
C356 C361 1.425 . S
C356 C363 1.409 . S
C357 H349 0.930 . S
C357 C355 1.419 . S
C357 C358 1.362 . S
C358 H350 0.930 . S
C358 C357 1.362 . S
C358 C361 1.409 . S
C359 H351 0.930 . S
C359 C360 1.355 . S
C359 C361 1.415 . S
C360 C359 1.355 . S
C360 C362 1.419 . S
C361 C356 1.425 . S
C361 C358 1.409 . S
C361 C359 1.415 . S
C362 H352 0.930 . S
C362 C360 1.419 . S
C362 C363 1.362 . S
C363 H353 0.930 . S
C363 C356 1.409 . S
C363 C362 1.362 . S
H364 C370 0.930 . S
H365 C373 0.930 . S
H366 C374 0.930 . S
H367 C375 0.930 . S
H368 C378 0.930 . S
H369 C379 0.930 . S
C370 H364 0.930 . S
C370 C371 1.355 . S
C370 C372 1.415 . S
C371 C370 1.355 . S
C371 C373 1.419 . S
C372 C370 1.415 . S
C372 C377 1.425 . S
C372 C379 1.409 . S
C373 H365 0.930 . S
C373 C371 1.419 . S
C373 C374 1.362 . S
C374 H366 0.930 . S
C374 C373 1.362 . S
C374 C377 1.409 . S
C375 H367 0.930 . S
C375 C376 1.355 . S
C375 C377 1.415 . S
C376 C375 1.355 . S
C376 C378 1.419 . S
C377 C372 1.425 . S
C377 C374 1.409 . S
C377 C375 1.415 . S
C378 H368 0.930 . S
C378 C376 1.419 . S
C378 C379 1.362 . S
C379 H369 0.930 . S
C379 C372 1.409 . S
C379 C378 1.362 . S
H380 C386 0.930 . S
H381 C389 0.930 . S
H382 C390 0.930 . S
H383 C391 0.930 . S
H384 C394 0.930 . S
H385 C395 0.930 . S
C386 H380 0.930 . S
C386 C387 1.355 . S
C386 C388 1.415 . S
C387 C386 1.355 . S
C387 C389 1.419 . S
C388 C386 1.415 . S
C388 C393 1.425 . S
C388 C395 1.409 . S
C389 H381 0.930 . S
C389 C387 1.419 . S
C389 C390 1.362 . S
C390 H382 0.930 . S
C390 C389 1.362 . S
C390 C393 1.409 . S
C391 H383 0.930 . S
C391 C392 1.355 . S
C391 C393 1.415 . S
C392 C391 1.355 . S
C392 C394 1.419 . S
C393 C388 1.425 . S
C393 C390 1.409 . S
C393 C391 1.415 . S
C394 H384 0.930 . S
C394 C392 1.419 . S
C394 C395 1.362 . S
C395 H385 0.930 . S
C395 C388 1.409 . S
C395 C394 1.362 . S
H396 C402 0.930 . S
H397 C405 0.930 . S
H398 C406 0.930 . S
H399 C407 0.930 . S
H400 C410 0.930 . S
H401 C411 0.930 . S
C402 H396 0.930 . S
C402 C403 1.355 . S
C402 C404 1.415 . S
C403 C402 1.355 . S
C403 C405 1.419 . S
C404 C402 1.415 . S
C404 C409 1.425 . S
C404 C411 1.409 . S
C405 H397 0.930 . S
C405 C403 1.419 . S
C405 C406 1.362 . S
C406 H398 0.930 . S
C406 C405 1.362 . S
C406 C409 1.409 . S
C407 H399 0.930 . S
C407 C408 1.355 . S
C407 C409 1.415 . S
C408 C407 1.355 . S
C408 C410 1.419 . S
C409 C404 1.425 . S
C409 C406 1.409 . S
C409 C407 1.415 . S
C410 H400 0.930 . S
C410 C408 1.419 . S
C410 C411 1.362 . S
C411 H401 0.930 . S
C411 C404 1.409 . S
C411 C410 1.362 . S
H412 C418 0.930 . S
H413 C421 0.930 . S
H414 C422 0.930 . S
H415 C423 0.930 . S
H416 C426 0.930 . S
H417 C427 0.930 . S
C418 H412 0.930 . S
C418 C419 1.355 . S
C418 C420 1.415 . S
C419 C418 1.355 . S
C419 C421 1.419 . S
C420 C418 1.415 . S
C420 C425 1.425 . S
C420 C427 1.409 . S
C421 H413 0.930 . S
C421 C419 1.419 . S
C421 C422 1.362 . S
C422 H414 0.930 . S
C422 C421 1.362 . S
C422 C425 1.409 . S
C423 H415 0.930 . S
C423 C424 1.355 . S
C423 C425 1.415 . S
C424 C423 1.355 . S
C424 C426 1.419 . S
C425 C420 1.425 . S
C425 C422 1.409 . S
C425 C423 1.415 . S
C426 H416 0.930 . S
C426 C424 1.419 . S
C426 C427 1.362 . S
C427 H417 0.930 . S
C427 C420 1.409 . S
C427 C426 1.362 . S
H428 C434 0.930 . S
H429 C437 0.930 . S
H430 C438 0.930 . S
H431 C439 0.930 . S
H432 C442 0.930 . S
H433 C443 0.930 . S
C434 H428 0.930 . S
C434 C435 1.355 . S
C434 C436 1.415 . S
C435 C434 1.355 . S
C435 C437 1.419 . S
C436 C434 1.415 . S
C436 C441 1.425 . S
C436 C443 1.409 . S
C437 H429 0.930 . S
C437 C435 1.419 . S
C437 C438 1.362 . S
C438 H430 0.930 . S
C438 C437 1.362 . S
C438 C441 1.409 . S
C439 H431 0.930 . S
C439 C440 1.355 . S
C439 C441 1.415 . S
C440 C439 1.355 . S
C440 C442 1.419 . S
C441 C436 1.425 . S
C441 C438 1.409 . S
C441 C439 1.415 . S
C442 H432 0.930 . S
C442 C440 1.419 . S
C442 C443 1.362 . S
C443 H433 0.930 . S
C443 C436 1.409 . S
C443 C442 1.362 . S
H444 C450 0.930 . S
H445 C453 0.930 . S
H446 C454 0.930 . S
H447 C455 0.930 . S
H448 C458 0.930 1_554 S
H449 C459 0.930 . S
C450 H444 0.930 . S
C450 C451 1.355 . S
C450 C452 1.415 . S
C451 C450 1.355 . S
C451 C453 1.419 . S
C452 C450 1.415 . S
C452 C457 1.425 . S
C452 C459 1.409 . S
C453 H445 0.930 . S
C453 C451 1.419 . S
C453 C454 1.362 . S
C454 H446 0.930 . S
C454 C453 1.362 . S
C454 C457 1.409 . S
C455 H447 0.930 . S
C455 C456 1.355 . S
C455 C457 1.415 . S
C456 C455 1.355 . S
C456 C458 1.419 . S
C457 C452 1.425 . S
C457 C454 1.409 . S
C457 C455 1.415 . S
C458 H448 0.930 1_556 S
C458 C456 1.419 . S
C458 C459 1.362 . S
C459 H449 0.930 . S
C459 C452 1.409 . S
C459 C458 1.362 . S
H460 C466 0.930 . S
H461 C469 0.930 . S
H462 C470 0.930 . S
H463 C471 0.930 . S
H464 C474 0.930 . S
H465 C475 0.930 . S
C466 H460 0.930 . S
C466 C467 1.355 . S
C466 C468 1.415 . S
C467 C466 1.355 . S
C467 C469 1.419 . S
C468 C466 1.415 . S
C468 C473 1.425 . S
C468 C475 1.409 . S
C469 H461 0.930 . S
C469 C467 1.419 . S
C469 C470 1.362 . S
C470 H462 0.930 . S
C470 C469 1.362 . S
C470 C473 1.409 . S
C471 H463 0.930 . S
C471 C472 1.355 . S
C471 C473 1.415 . S
C472 C471 1.355 . S
C472 C474 1.419 . S
C473 C468 1.425 . S
C473 C470 1.409 . S
C473 C471 1.415 . S
C474 H464 0.930 . S
C474 C472 1.419 . S
C474 C475 1.362 . S
C475 H465 0.930 . S
C475 C468 1.409 . S
C475 C474 1.362 . S
H476 C482 0.930 . S
H477 C485 0.930 . S
H478 C486 0.930 . S
H479 C487 0.930 . S
H480 C490 0.930 . S
H481 C491 0.930 . S
C482 H476 0.930 . S
C482 C483 1.355 . S
C482 C484 1.415 . S
C483 C482 1.355 . S
C483 C485 1.419 . S
C484 C482 1.415 . S
C484 C489 1.425 . S
C484 C491 1.409 . S
C485 H477 0.930 . S
C485 C483 1.419 . S
C485 C486 1.362 . S
C486 H478 0.930 . S
C486 C485 1.362 . S
C486 C489 1.409 . S
C487 H479 0.930 . S
C487 C488 1.355 . S
C487 C489 1.415 . S
C488 C487 1.355 . S
C488 C490 1.419 . S
C489 C484 1.425 . S
C489 C486 1.409 . S
C489 C487 1.415 . S
C490 H480 0.930 . S
C490 C488 1.419 . S
C490 C491 1.362 . S
C491 H481 0.930 . S
C491 C484 1.409 . S
C491 C490 1.362 . S
H492 C498 0.930 . S
H493 C501 0.930 . S
H494 C502 0.930 . S
H495 C503 0.930 . S
H496 C506 0.930 . S
H497 C507 0.930 . S
C498 H492 0.930 . S
C498 C499 1.355 . S
C498 C500 1.415 . S
C499 C498 1.355 . S
C499 C501 1.419 . S
C500 C498 1.415 . S
C500 C505 1.425 . S
C500 C507 1.409 . S
C501 H493 0.930 . S
C501 C499 1.419 . S
C501 C502 1.362 . S
C502 H494 0.930 . S
C502 C501 1.362 . S
C502 C505 1.409 . S
C503 H495 0.930 . S
C503 C504 1.355 . S
C503 C505 1.415 . S
C504 C503 1.355 . S
C504 C506 1.419 . S
C505 C500 1.425 . S
C505 C502 1.409 . S
C505 C503 1.415 . S
C506 H496 0.930 . S
C506 C504 1.419 . S
C506 C507 1.362 . S
C507 H497 0.930 . S
C507 C500 1.409 . S
C507 C506 1.362 . S
H508 C514 0.930 . S
H509 C517 0.930 . S
H510 C518 0.930 . S
H511 C519 0.930 . S
H512 C522 0.930 . S
H513 C523 0.930 . S
C514 H508 0.930 . S
C514 C515 1.355 . S
C514 C516 1.415 . S
C515 C514 1.355 . S
C515 C517 1.419 . S
C516 C514 1.415 . S
C516 C521 1.425 . S
C516 C523 1.409 . S
C517 H509 0.930 . S
C517 C515 1.419 . S
C517 C518 1.362 . S
C518 H510 0.930 . S
C518 C517 1.362 . S
C518 C521 1.409 . S
C519 H511 0.930 . S
C519 C520 1.355 . S
C519 C521 1.415 . S
C520 C519 1.355 . S
C520 C522 1.419 . S
C521 C516 1.425 . S
C521 C518 1.409 . S
C521 C519 1.415 . S
C522 H512 0.930 . S
C522 C520 1.419 . S
C522 C523 1.362 . S
C523 H513 0.930 . S
C523 C516 1.409 . S
C523 C522 1.362 . S
H524 C530 0.930 . S
H525 C533 0.930 . S
H526 C534 0.930 . S
H527 C535 0.930 . S
H528 C538 0.930 . S
H529 C539 0.930 . S
C530 H524 0.930 . S
C530 C531 1.355 . S
C530 C532 1.415 . S
C531 C530 1.355 . S
C531 C533 1.419 . S
C532 C530 1.415 . S
C532 C537 1.425 . S
C532 C539 1.409 . S
C533 H525 0.930 . S
C533 C531 1.419 . S
C533 C534 1.362 . S
C534 H526 0.930 . S
C534 C533 1.362 . S
C534 C537 1.409 . S
C535 H527 0.930 . S
C535 C536 1.355 . S
C535 C537 1.415 . S
C536 C535 1.355 . S
C536 C538 1.419 . S
C537 C532 1.425 . S
C537 C534 1.409 . S
C537 C535 1.415 . S
C538 H528 0.930 . S
C538 C536 1.419 . S
C538 C539 1.362 . S
C539 H529 0.930 . S
C539 C532 1.409 . S
C539 C538 1.362 . S
H540 C546 0.930 . S
H541 C549 0.930 . S
H542 C550 0.930 . S
H543 C551 0.930 . S
H544 C554 0.930 . S
H545 C555 0.930 . S
C546 H540 0.930 . S
C546 C547 1.355 . S
C546 C548 1.415 . S
C547 C546 1.355 . S
C547 C549 1.419 . S
C548 C546 1.415 . S
C548 C553 1.425 . S
C548 C555 1.409 . S
C549 H541 0.930 . S
C549 C547 1.419 . S
C549 C550 1.362 . S
C550 H542 0.930 . S
C550 C549 1.362 . S
C550 C553 1.409 . S
C551 H543 0.930 . S
C551 C552 1.355 . S
C551 C553 1.415 . S
C552 C551 1.355 . S
C552 C554 1.419 . S
C553 C548 1.425 . S
C553 C550 1.409 . S
C553 C551 1.415 . S
C554 H544 0.930 . S
C554 C552 1.419 . S
C554 C555 1.362 . S
C555 H545 0.930 . S
C555 C548 1.409 . S
C555 C554 1.362 . S
H556 C562 0.930 . S
H557 C565 0.930 . S
H558 C566 0.930 . S
H559 C567 0.930 . S
H560 C570 0.930 . S
H561 C571 0.930 . S
C562 H556 0.930 . S
C562 C563 1.355 . S
C562 C564 1.415 . S
C563 C562 1.355 . S
C563 C565 1.419 . S
C564 C562 1.415 . S
C564 C569 1.425 . S
C564 C571 1.409 . S
C565 H557 0.930 . S
C565 C563 1.419 . S
C565 C566 1.362 . S
C566 H558 0.930 . S
C566 C565 1.362 . S
C566 C569 1.409 . S
C567 H559 0.930 . S
C567 C568 1.355 . S
C567 C569 1.415 . S
C568 C567 1.355 . S
C568 C570 1.419 . S
C569 C564 1.425 . S
C569 C566 1.409 . S
C569 C567 1.415 . S
C570 H560 0.930 . S
C570 C568 1.419 . S
C570 C571 1.362 . S
C571 H561 0.930 . S
C571 C564 1.409 . S
C571 C570 1.362 . S
H572 C578 0.930 . S
H573 C581 0.930 . S
H574 C582 0.930 . S
H575 C583 0.930 . S
H576 C586 0.930 . S
H577 C587 0.930 . S
C578 H572 0.930 . S
C578 C579 1.355 . S
C578 C580 1.415 . S
C579 C578 1.355 . S
C579 C581 1.419 . S
C580 C578 1.415 . S
C580 C585 1.425 . S
C580 C587 1.409 . S
C581 H573 0.930 . S
C581 C579 1.419 . S
C581 C582 1.362 . S
C582 H574 0.930 . S
C582 C581 1.362 . S
C582 C585 1.409 . S
C583 H575 0.930 . S
C583 C584 1.355 . S
C583 C585 1.415 . S
C584 C583 1.355 . S
C584 C586 1.419 . S
C585 C580 1.425 . S
C585 C582 1.409 . S
C585 C583 1.415 . S
C586 H576 0.930 . S
C586 C584 1.419 . S
C586 C587 1.362 . S
C587 H577 0.930 . S
C587 C580 1.409 . S
C587 C586 1.362 . S
H588 C594 0.930 . S
H589 C597 0.930 . S
H590 C598 0.930 . S
H591 C599 0.930 . S
H592 C602 0.930 . S
H593 C603 0.930 . S
C594 H588 0.930 . S
C594 C595 1.355 . S
C594 C596 1.415 . S
C595 C594 1.355 . S
C595 C597 1.419 . S
C596 C594 1.415 . S
C596 C601 1.425 . S
C596 C603 1.409 . S
C597 H589 0.930 . S
C597 C595 1.419 . S
C597 C598 1.362 . S
C598 H590 0.930 . S
C598 C597 1.362 . S
C598 C601 1.409 . S
C599 H591 0.930 . S
C599 C600 1.355 . S
C599 C601 1.415 . S
C600 C599 1.355 . S
C600 C602 1.419 . S
C601 C596 1.425 . S
C601 C598 1.409 . S
C601 C599 1.415 . S
C602 H592 0.930 . S
C602 C600 1.419 . S
C602 C603 1.362 . S
C603 H593 0.930 . S
C603 C596 1.409 . S
C603 C602 1.362 . S
H604 C610 0.930 . S
H605 C613 0.930 . S
H606 C614 0.930 . S
H607 C615 0.930 . S
H608 C618 0.930 . S
H609 C619 0.930 . S
C610 H604 0.930 . S
C610 C611 1.355 . S
C610 C612 1.415 . S
C611 C610 1.355 . S
C611 C613 1.419 . S
C612 C610 1.415 . S
C612 C617 1.425 . S
C612 C619 1.409 . S
C613 H605 0.930 . S
C613 C611 1.419 . S
C613 C614 1.362 . S
C614 H606 0.930 . S
C614 C613 1.362 . S
C614 C617 1.409 . S
C615 H607 0.930 . S
C615 C616 1.355 . S
C615 C617 1.415 . S
C616 C615 1.355 . S
C616 C618 1.419 . S
C617 C612 1.425 . S
C617 C614 1.409 . S
C617 C615 1.415 . S
C618 H608 0.930 . S
C618 C616 1.419 . S
C618 C619 1.362 . S
C619 H609 0.930 . S
C619 C612 1.409 . S
C619 C618 1.362 . S
H620 C626 0.930 . S
H621 C629 0.930 . S
H622 C630 0.930 . S
H623 C631 0.930 . S
H624 C634 0.930 . S
H625 C635 0.930 . S
C626 H620 0.930 . S
C626 C627 1.355 . S
C626 C628 1.415 . S
C627 C626 1.355 . S
C627 C629 1.419 . S
C628 C626 1.415 . S
C628 C633 1.425 . S
C628 C635 1.409 . S
C629 H621 0.930 . S
C629 C627 1.419 . S
C629 C630 1.362 . S
C630 H622 0.930 . S
C630 C629 1.362 . S
C630 C633 1.409 . S
C631 H623 0.930 . S
C631 C632 1.355 . S
C631 C633 1.415 . S
C632 C631 1.355 . S
C632 C634 1.419 . S
C633 C628 1.425 . S
C633 C630 1.409 . S
C633 C631 1.415 . S
C634 H624 0.930 . S
C634 C632 1.419 . S
C634 C635 1.362 . S
C635 H625 0.930 . S
C635 C628 1.409 . S
C635 C634 1.362 . S
H636 C642 0.930 . S
H637 C645 0.930 . S
H638 C646 0.930 . S
H639 C647 0.930 . S
H640 C650 0.930 . S
H641 C651 0.930 . S
C642 H636 0.930 . S
C642 C643 1.355 . S
C642 C644 1.415 . S
C643 C642 1.355 . S
C643 C645 1.419 . S
C644 C642 1.415 . S
C644 C649 1.425 . S
C644 C651 1.409 . S
C645 H637 0.930 . S
C645 C643 1.419 . S
C645 C646 1.362 . S
C646 H638 0.930 . S
C646 C645 1.362 . S
C646 C649 1.409 . S
C647 H639 0.930 . S
C647 C648 1.355 . S
C647 C649 1.415 . S
C648 C647 1.355 . S
C648 C650 1.419 . S
C649 C644 1.425 . S
C649 C646 1.409 . S
C649 C647 1.415 . S
C650 H640 0.930 . S
C650 C648 1.419 . S
C650 C651 1.362 . S
C651 H641 0.930 . S
C651 C644 1.409 . S
C651 C650 1.362 . S
H652 C658 0.930 . S
H653 C661 0.930 . S
H654 C662 0.930 . S
H655 C663 0.930 . S
H656 C666 0.946 . S
H657 C667 0.930 1_455 S
C658 H652 0.930 . S
C658 C659 1.355 . S
C658 C660 1.415 . S
C659 C658 1.355 . S
C659 C661 1.419 . S
C660 C658 1.415 . S
C660 C665 1.425 . S
C660 C667 1.409 . S
C661 H653 0.930 . S
C661 C659 1.419 . S
C661 C662 1.362 . S
C662 H654 0.930 . S
C662 C661 1.362 . S
C662 C665 1.409 . S
C663 H655 0.930 . S
C663 C664 1.355 . S
C663 C665 1.415 . S
C664 C663 1.355 . S
C664 C666 1.419 . S
C665 C660 1.425 . S
C665 C662 1.409 . S
C665 C663 1.415 . S
C666 H656 0.946 . S
C666 C664 1.419 . S
C666 C667 1.362 . S
C667 H657 0.930 1_655 S
C667 C660 1.409 . S
C667 C666 1.362 . S
H668 C674 0.930 . S
H669 C677 0.930 . S
H670 C678 0.930 . S
H671 C679 0.930 . S
H672 C682 0.930 . S
H673 C683 0.930 1_545 S
C674 H668 0.930 . S
C674 C675 1.355 . S
C674 C676 1.415 . S
C675 C674 1.355 . S
C675 C677 1.419 . S
C676 C674 1.415 . S
C676 C681 1.425 . S
C676 C683 1.409 . S
C677 H669 0.930 . S
C677 C675 1.419 . S
C677 C678 1.362 . S
C678 H670 0.930 . S
C678 C677 1.362 . S
C678 C681 1.409 . S
C679 H671 0.930 . S
C679 C680 1.355 . S
C679 C681 1.415 . S
C680 C679 1.355 . S
C680 C682 1.419 . S
C681 C676 1.425 . S
C681 C678 1.409 . S
C681 C679 1.415 . S
C682 H672 0.930 . S
C682 C680 1.419 . S
C682 C683 1.362 . S
C683 H673 0.930 1_565 S
C683 C676 1.409 . S
C683 C682 1.362 . S
H684 C690 0.930 . S
H685 C693 0.930 . S
H686 C694 0.930 . S
H687 C695 0.930 . S
H688 C698 0.930 . S
H689 C699 0.930 . S
C690 H684 0.930 . S
C690 C691 1.355 . S
C690 C692 1.415 . S
C691 C690 1.355 . S
C691 C693 1.419 . S
C692 C690 1.415 . S
C692 C697 1.425 . S
C692 C699 1.409 . S
C693 H685 0.930 . S
C693 C691 1.419 . S
C693 C694 1.362 . S
C694 H686 0.930 . S
C694 C693 1.362 . S
C694 C697 1.409 . S
C695 H687 0.930 . S
C695 C696 1.355 . S
C695 C697 1.415 . S
C696 C695 1.355 . S
C696 C698 1.419 . S
C697 C692 1.425 . S
C697 C694 1.409 . S
C697 C695 1.415 . S
C698 H688 0.930 . S
C698 C696 1.419 . S
C698 C699 1.362 . S
C699 H689 0.930 . S
C699 C692 1.409 . S
C699 C698 1.362 . S
H700 C706 0.930 . S
H701 C709 0.930 . S
H702 C710 0.930 . S
H703 C711 0.930 . S
H704 C714 0.930 . S
H705 C715 0.930 . S
C706 H700 0.930 . S
C706 C707 1.355 . S
C706 C708 1.415 . S
C707 C706 1.355 . S
C707 C709 1.419 . S
C708 C706 1.415 . S
C708 C713 1.425 . S
C708 C715 1.409 . S
C709 H701 0.930 . S
C709 C707 1.419 . S
C709 C710 1.362 . S
C710 H702 0.930 . S
C710 C709 1.362 . S
C710 C713 1.409 . S
C711 H703 0.930 . S
C711 C712 1.355 . S
C711 C713 1.415 . S
C712 C711 1.355 . S
C712 C714 1.419 . S
C713 C708 1.425 . S
C713 C710 1.409 . S
C713 C711 1.415 . S
C714 H704 0.930 . S
C714 C712 1.419 . S
C714 C715 1.362 . S
C715 H705 0.930 . S
C715 C708 1.409 . S
C715 C714 1.362 . S
H716 C722 0.930 . S
H717 C725 0.930 . S
H718 C726 0.930 . S
H719 C727 0.930 . S
H720 C730 0.930 1_565 S
H721 C731 0.930 1_565 S
C722 H716 0.930 . S
C722 C723 1.355 . S
C722 C724 1.415 . S
C723 C722 1.355 . S
C723 C725 1.419 . S
C724 C722 1.415 . S
C724 C729 1.425 . S
C724 C731 1.409 . S
C725 H717 0.930 . S
C725 C723 1.419 . S
C725 C726 1.362 . S
C726 H718 0.930 . S
C726 C725 1.362 . S
C726 C729 1.409 . S
C727 H719 0.930 . S
C727 C728 1.355 . S
C727 C729 1.415 . S
C728 C727 1.355 . S
C728 C730 1.419 . S
C729 C724 1.425 . S
C729 C726 1.409 . S
C729 C727 1.415 . S
C730 H720 0.930 1_545 S
C730 C728 1.419 . S
C730 C731 1.362 . S
C731 H721 0.930 1_545 S
C731 C724 1.409 . S
C731 C730 1.362 . S
H732 C738 0.930 . S
H733 C741 0.930 . S
H734 C742 0.930 . S
H735 C743 0.930 . S
H736 C746 0.930 . S
H737 C747 0.930 . S
C738 H732 0.930 . S
C738 C739 1.355 . S
C738 C740 1.415 . S
C739 C738 1.355 . S
C739 C741 1.419 . S
C740 C738 1.415 . S
C740 C745 1.425 . S
C740 C747 1.409 . S
C741 H733 0.930 . S
C741 C739 1.419 . S
C741 C742 1.362 . S
C742 H734 0.930 . S
C742 C741 1.362 . S
C742 C745 1.409 . S
C743 H735 0.930 . S
C743 C744 1.355 . S
C743 C745 1.415 . S
C744 C743 1.355 . S
C744 C746 1.419 . S
C745 C740 1.425 . S
C745 C742 1.409 . S
C745 C743 1.415 . S
C746 H736 0.930 . S
C746 C744 1.419 . S
C746 C747 1.362 . S
C747 H737 0.930 . S
C747 C740 1.409 . S
C747 C746 1.362 . S
H748 C754 0.930 . S
H749 C757 0.930 . S
H750 C758 0.930 . S
H751 C759 0.930 . S
H752 C762 0.930 . S
H753 C763 0.930 . S
C754 H748 0.930 . S
C754 C755 1.355 . S
C754 C756 1.415 . S
C755 C754 1.355 . S
C755 C757 1.419 . S
C756 C754 1.415 . S
C756 C761 1.425 . S
C756 C763 1.409 . S
C757 H749 0.930 . S
C757 C755 1.419 . S
C757 C758 1.362 . S
C758 H750 0.930 . S
C758 C757 1.362 . S
C758 C761 1.409 . S
C759 H751 0.930 . S
C759 C760 1.355 . S
C759 C761 1.415 . S
C760 C759 1.355 . S
C760 C762 1.419 . S
C761 C756 1.425 . S
C761 C758 1.409 . S
C761 C759 1.415 . S
C762 H752 0.930 . S
C762 C760 1.419 . S
C762 C763 1.362 . S
C763 H753 0.930 . S
C763 C756 1.409 . S
C763 C762 1.362 . S
H764 C770 0.930 . S
H765 C773 0.930 . S
H766 C774 0.930 . S
H767 C775 0.930 . S
H768 C778 0.930 . S
H769 C779 0.930 . S
C770 H764 0.930 . S
C770 C771 1.355 . S
C770 C772 1.415 . S
C771 C770 1.355 . S
C771 C773 1.419 . S
C772 C770 1.415 . S
C772 C777 1.425 . S
C772 C779 1.409 . S
C773 H765 0.930 . S
C773 C771 1.419 . S
C773 C774 1.362 . S
C774 H766 0.930 . S
C774 C773 1.362 . S
C774 C777 1.409 . S
C775 H767 0.930 . S
C775 C776 1.355 . S
C775 C777 1.415 . S
C776 C775 1.355 . S
C776 C778 1.419 . S
C777 C772 1.425 . S
C777 C774 1.409 . S
C777 C775 1.415 . S
C778 H768 0.930 . S
C778 C776 1.419 . S
C778 C779 1.362 . S
C779 H769 0.930 . S
C779 C772 1.409 . S
C779 C778 1.362 . S
H780 C786 0.930 . S
H781 C789 0.930 . S
H782 C790 0.930 . S
H783 C791 0.930 . S
H784 C794 0.930 . S
H785 C795 0.930 . S
C786 H780 0.930 . S
C786 C787 1.355 . S
C786 C788 1.415 . S
C787 C786 1.355 . S
C787 C789 1.419 . S
C788 C786 1.415 . S
C788 C793 1.425 . S
C788 C795 1.409 . S
C789 H781 0.930 . S
C789 C787 1.419 . S
C789 C790 1.362 . S
C790 H782 0.930 . S
C790 C789 1.362 . S
C790 C793 1.409 . S
C791 H783 0.930 . S
C791 C792 1.355 . S
C791 C793 1.415 . S
C792 C791 1.355 . S
C792 C794 1.419 . S
C793 C788 1.425 . S
C793 C790 1.409 . S
C793 C791 1.415 . S
C794 H784 0.930 . S
C794 C792 1.419 . S
C794 C795 1.362 . S
C795 H785 0.930 . S
C795 C788 1.409 . S
C795 C794 1.362 . S
H796 C802 0.930 . S
H797 C805 0.930 . S
H798 C806 0.930 . S
H799 C807 0.930 . S
H800 C810 0.930 . S
H801 C811 0.930 . S
C802 H796 0.930 . S
C802 C803 1.355 . S
C802 C804 1.415 . S
C803 C802 1.355 . S
C803 C805 1.419 . S
C804 C802 1.415 . S
C804 C809 1.425 . S
C804 C811 1.409 . S
C805 H797 0.930 . S
C805 C803 1.419 . S
C805 C806 1.362 . S
C806 H798 0.930 . S
C806 C805 1.362 . S
C806 C809 1.409 . S
C807 H799 0.930 . S
C807 C808 1.355 . S
C807 C809 1.415 . S
C808 C807 1.355 . S
C808 C810 1.419 . S
C809 C804 1.425 . S
C809 C806 1.409 . S
C809 C807 1.415 . S
C810 H800 0.930 . S
C810 C808 1.419 . S
C810 C811 1.362 . S
C811 H801 0.930 . S
C811 C804 1.409 . S
C811 C810 1.362 . S
H812 C818 0.930 . S
H813 C821 0.930 . S
H814 C822 0.930 . S
H815 C823 0.930 . S
H816 C826 0.930 . S
H817 C827 0.930 . S
C818 H812 0.930 . S
C818 C819 1.355 . S
C818 C820 1.415 . S
C819 C818 1.355 . S
C819 C821 1.419 . S
C820 C818 1.415 . S
C820 C825 1.425 . S
C820 C827 1.409 . S
C821 H813 0.930 . S
C821 C819 1.419 . S
C821 C822 1.362 . S
C822 H814 0.930 . S
C822 C821 1.362 . S
C822 C825 1.409 . S
C823 H815 0.930 . S
C823 C824 1.355 . S
C823 C825 1.415 . S
C824 C823 1.355 . S
C824 C826 1.419 . S
C825 C820 1.425 . S
C825 C822 1.409 . S
C825 C823 1.415 . S
C826 H816 0.930 . S
C826 C824 1.419 . S
C826 C827 1.362 . S
C827 H817 0.930 . S
C827 C820 1.409 . S
C827 C826 1.362 . S
H828 C834 0.929 . S
H829 C837 0.930 . S
H830 C838 0.930 . S
H831 C839 0.930 . S
H832 C842 0.930 . S
H833 C843 0.930 . S
C834 H828 0.929 . S
C834 C835 1.355 1_554 S
C834 C836 1.415 . S
C835 C834 1.355 1_556 S
C835 C837 1.419 . S
C836 C834 1.415 . S
C836 C841 1.425 1_554 S
C836 C843 1.409 . S
C837 H829 0.930 . S
C837 C835 1.419 . S
C837 C838 1.362 . S
C838 H830 0.930 . S
C838 C837 1.362 . S
C838 C841 1.409 . S
C839 H831 0.930 . S
C839 C840 1.355 1_556 S
C839 C841 1.415 . S
C840 C839 1.355 1_554 S
C840 C842 1.419 . S
C841 C836 1.425 1_556 S
C841 C838 1.409 . S
C841 C839 1.415 . S
C842 H832 0.930 . S
C842 C840 1.419 . S
C842 C843 1.362 . S
C843 H833 0.930 . S
C843 C836 1.409 . S
C843 C842 1.362 . S
H844 C850 0.930 . S
H845 C853 0.930 . S
H846 C854 0.930 . S
H847 C855 0.930 . S
H848 C858 0.930 . S
H849 C859 0.930 . S
C850 H844 0.930 . S
C850 C851 1.355 . S
C850 C852 1.415 . S
C851 C850 1.355 . S
C851 C853 1.419 . S
C852 C850 1.415 . S
C852 C857 1.425 . S
C852 C859 1.409 . S
C853 H845 0.930 . S
C853 C851 1.419 . S
C853 C854 1.362 . S
C854 H846 0.930 . S
C854 C853 1.362 . S
C854 C857 1.409 . S
C855 H847 0.930 . S
C855 C856 1.355 . S
C855 C857 1.415 . S
C856 C855 1.355 . S
C856 C858 1.419 . S
C857 C852 1.425 . S
C857 C854 1.409 . S
C857 C855 1.415 . S
C858 H848 0.930 . S
C858 C856 1.419 . S
C858 C859 1.362 . S
C859 H849 0.930 . S
C859 C852 1.409 . S
C859 C858 1.362 . S
H860 C866 0.930 . S
H861 C869 0.930 . S
H862 C870 0.930 . S
H863 C871 0.930 . S
H864 C874 0.930 . S
H865 C875 0.930 . S
C866 H860 0.930 . S
C866 C867 1.355 . S
C866 C868 1.415 . S
C867 C866 1.355 . S
C867 C869 1.419 . S
C868 C866 1.415 . S
C868 C873 1.425 . S
C868 C875 1.409 . S
C869 H861 0.930 . S
C869 C867 1.419 . S
C869 C870 1.362 . S
C870 H862 0.930 . S
C870 C869 1.362 . S
C870 C873 1.409 . S
C871 H863 0.930 . S
C871 C872 1.355 . S
C871 C873 1.415 . S
C872 C871 1.355 . S
C872 C874 1.419 . S
C873 C868 1.425 . S
C873 C870 1.409 . S
C873 C871 1.415 . S
C874 H864 0.930 . S
C874 C872 1.419 . S
C874 C875 1.362 . S
C875 H865 0.930 . S
C875 C868 1.409 . S
C875 C874 1.362 . S
H876 C882 0.930 . S
H877 C885 0.930 . S
H878 C886 0.930 . S
H879 C887 0.930 . S
H880 C890 0.930 . S
H881 C891 0.930 . S
C882 H876 0.930 . S
C882 C883 1.355 . S
C882 C884 1.415 . S
C883 C882 1.355 . S
C883 C885 1.419 . S
C884 C882 1.415 . S
C884 C889 1.425 . S
C884 C891 1.409 . S
C885 H877 0.930 . S
C885 C883 1.419 . S
C885 C886 1.362 . S
C886 H878 0.930 . S
C886 C885 1.362 . S
C886 C889 1.409 . S
C887 H879 0.930 . S
C887 C888 1.355 . S
C887 C889 1.415 . S
C888 C887 1.355 . S
C888 C890 1.419 . S
C889 C884 1.425 . S
C889 C886 1.409 . S
C889 C887 1.415 . S
C890 H880 0.930 . S
C890 C888 1.419 . S
C890 C891 1.362 . S
C891 H881 0.930 . S
C891 C884 1.409 . S
C891 C890 1.362 . S
H892 C898 0.930 . S
H893 C901 0.930 . S
H894 C902 0.930 . S
H895 C903 0.930 . S
H896 C906 0.930 . S
H897 C907 0.930 . S
C898 H892 0.930 . S
C898 C899 1.355 . S
C898 C900 1.415 . S
C899 C898 1.355 . S
C899 C901 1.419 . S
C900 C898 1.415 . S
C900 C905 1.425 . S
C900 C907 1.409 . S
C901 H893 0.930 . S
C901 C899 1.419 . S
C901 C902 1.362 . S
C902 H894 0.930 . S
C902 C901 1.362 . S
C902 C905 1.409 . S
C903 H895 0.930 . S
C903 C904 1.355 . S
C903 C905 1.415 . S
C904 C903 1.355 . S
C904 C906 1.419 . S
C905 C900 1.425 . S
C905 C902 1.409 . S
C905 C903 1.415 . S
C906 H896 0.930 . S
C906 C904 1.419 . S
C906 C907 1.362 . S
C907 H897 0.930 . S
C907 C900 1.409 . S
C907 C906 1.362 . S
H908 C914 0.930 . S
H909 C917 0.930 . S
H910 C918 0.930 . S
H911 C919 0.930 . S
H912 C922 0.930 1_545 S
H913 C923 0.930 . S
C914 H908 0.930 . S
C914 C915 1.355 . S
C914 C916 1.415 . S
C915 C914 1.355 . S
C915 C917 1.419 . S
C916 C914 1.415 . S
C916 C921 1.425 . S
C916 C923 1.409 . S
C917 H909 0.930 . S
C917 C915 1.419 . S
C917 C918 1.362 . S
C918 H910 0.930 . S
C918 C917 1.362 . S
C918 C921 1.409 . S
C919 H911 0.930 . S
C919 C920 1.355 . S
C919 C921 1.415 . S
C920 C919 1.355 . S
C920 C922 1.419 . S
C921 C916 1.425 . S
C921 C918 1.409 . S
C921 C919 1.415 . S
C922 H912 0.930 1_565 S
C922 C920 1.419 . S
C922 C923 1.362 . S
C923 H913 0.930 . S
C923 C916 1.409 . S
C923 C922 1.362 . S
H924 C930 0.930 . S
H925 C933 0.930 . S
H926 C934 0.930 . S
H927 C935 0.930 . S
H928 C938 0.930 . S
H929 C939 0.930 . S
C930 H924 0.930 . S
C930 C931 1.355 . S
C930 C932 1.415 . S
C931 C930 1.355 . S
C931 C933 1.419 . S
C932 C930 1.415 . S
C932 C937 1.425 . S
C932 C939 1.409 . S
C933 H925 0.930 . S
C933 C931 1.419 . S
C933 C934 1.362 . S
C934 H926 0.930 . S
C934 C933 1.362 . S
C934 C937 1.409 . S
C935 H927 0.930 . S
C935 C936 1.355 . S
C935 C937 1.415 . S
C936 C935 1.355 . S
C936 C938 1.419 . S
C937 C932 1.425 . S
C937 C934 1.409 . S
C937 C935 1.415 . S
C938 H928 0.930 . S
C938 C936 1.419 . S
C938 C939 1.362 . S
C939 H929 0.930 . S
C939 C932 1.409 . S
C939 C938 1.362 . S
H940 C946 0.930 . S
H941 C949 0.930 1_655 S
H942 C950 0.930 . S
H943 C951 0.930 . S
H944 C954 0.930 . S
H945 C955 0.930 . S
C946 H940 0.930 . S
C946 C947 1.355 . S
C946 C948 1.415 . S
C947 C946 1.355 . S
C947 C949 1.419 1_556 S
C948 C946 1.415 . S
C948 C953 1.425 1_556 S
C948 C955 1.409 . S
C949 H941 0.930 1_455 S
C949 C947 1.419 1_554 S
C949 C950 1.362 . S
C950 H942 0.930 . S
C950 C949 1.362 . S
C950 C953 1.409 . S
C951 H943 0.930 . S
C951 C952 1.355 . S
C951 C953 1.415 . S
C952 C951 1.355 . S
C952 C954 1.419 1_554 S
C953 C948 1.425 1_554 S
C953 C950 1.409 . S
C953 C951 1.415 . S
C954 H944 0.930 . S
C954 C952 1.419 1_556 S
C954 C955 1.362 . S
C955 H945 0.930 . S
C955 C948 1.409 . S
C955 C954 1.362 . S
H956 C962 0.930 . S
H957 C965 0.930 . S
H958 C966 0.930 . S
H959 C967 0.930 . S
H960 C970 0.930 . S
H961 C971 0.930 . S
C962 H956 0.930 . S
C962 C963 1.355 . S
C962 C964 1.415 . S
C963 C962 1.355 . S
C963 C965 1.419 . S
C964 C962 1.415 . S
C964 C969 1.425 . S
C964 C971 1.409 . S
C965 H957 0.930 . S
C965 C963 1.419 . S
C965 C966 1.362 . S
C966 H958 0.930 . S
C966 C965 1.362 . S
C966 C969 1.409 . S
C967 H959 0.930 . S
C967 C968 1.355 . S
C967 C969 1.415 . S
C968 C967 1.355 . S
C968 C970 1.419 . S
C969 C964 1.425 . S
C969 C966 1.409 . S
C969 C967 1.415 . S
C970 H960 0.930 . S
C970 C968 1.419 . S
C970 C971 1.362 . S
C971 H961 0.930 . S
C971 C964 1.409 . S
C971 C970 1.362 . S
H972 C978 0.930 . S
H973 C981 0.930 . S
H974 C982 0.930 . S
H975 C983 0.930 . S
H976 C986 0.930 . S
H977 C987 0.930 . S
C978 H972 0.930 . S
C978 C979 1.355 . S
C978 C980 1.415 . S
C979 C978 1.355 . S
C979 C981 1.419 . S
C980 C978 1.415 . S
C980 C985 1.425 . S
C980 C987 1.409 . S
C981 H973 0.930 . S
C981 C979 1.419 . S
C981 C982 1.362 . S
C982 H974 0.930 . S
C982 C981 1.362 . S
C982 C985 1.409 . S
C983 H975 0.930 . S
C983 C984 1.355 . S
C983 C985 1.415 . S
C984 C983 1.355 . S
C984 C986 1.419 . S
C985 C980 1.425 . S
C985 C982 1.409 . S
C985 C983 1.415 . S
C986 H976 0.930 . S
C986 C984 1.419 . S
C986 C987 1.362 . S
C987 H977 0.930 . S
C987 C980 1.409 . S
C987 C986 1.362 . S
H988 C994 0.930 . S
H989 C997 0.930 . S
H990 C998 0.930 . S
H991 C999 0.930 . S
H992 C1002 0.930 . S
H993 C1003 0.930 . S
C994 H988 0.930 . S
C994 C995 1.355 . S
C994 C996 1.415 . S
C995 C994 1.355 . S
C995 C997 1.419 . S
C996 C994 1.415 . S
C996 C1001 1.425 . S
C996 C1003 1.409 . S
C997 H989 0.930 . S
C997 C995 1.419 . S
C997 C998 1.362 . S
C998 H990 0.930 . S
C998 C997 1.362 . S
C998 C1001 1.409 . S
C999 H991 0.930 . S
C999 C1000 1.355 . S
C999 C1001 1.415 . S
C1000 C999 1.355 . S
C1000 C1002 1.419 . S
C1001 C996 1.425 . S
C1001 C998 1.409 . S
C1001 C999 1.415 . S
C1002 H992 0.930 . S
C1002 C1000 1.419 . S
C1002 C1003 1.362 . S
C1003 H993 0.930 . S
C1003 C996 1.409 . S
C1003 C1002 1.362 . S
H1004 C1010 0.930 . S
H1005 C1013 0.930 . S
H1006 C1014 0.930 . S
H1007 C1015 0.930 . S
H1008 C1018 0.930 . S
H1009 C1019 0.930 . S
C1010 H1004 0.930 . S
C1010 C1011 1.355 . S
C1010 C1012 1.415 . S
C1011 C1010 1.355 . S
C1011 C1013 1.419 . S
C1012 C1010 1.415 . S
C1012 C1017 1.425 . S
C1012 C1019 1.409 . S
C1013 H1005 0.930 . S
C1013 C1011 1.419 . S
C1013 C1014 1.362 . S
C1014 H1006 0.930 . S
C1014 C1013 1.362 . S
C1014 C1017 1.409 . S
C1015 H1007 0.930 . S
C1015 C1016 1.355 . S
C1015 C1017 1.415 . S
C1016 C1015 1.355 . S
C1016 C1018 1.419 . S
C1017 C1012 1.425 . S
C1017 C1014 1.409 . S
C1017 C1015 1.415 . S
C1018 H1008 0.930 . S
C1018 C1016 1.419 . S
C1018 C1019 1.362 . S
C1019 H1009 0.930 . S
C1019 C1012 1.409 . S
C1019 C1018 1.362 . S
C355 C21 1.485 . S
C360 C253 1.485 . S
C371 C50 1.484 . S
C376 C282 1.484 . S
C387 C311 1.415 . S
C392 C79 1.413 . S
C403 C108 1.385 . S
C408 C340 1.387 . S
C419 C137 1.368 . S
C424 C195 1.368 . S
C435 C166 1.394 . S
C440 C224 1.393 . S
C451 C148 0.597 . S
C456 C15 0.701 . S
C467 C44 0.646 . S
C472 C3 0.566 . S
C483 C73 0.698 . S
C488 C32 0.590 . S
C499 C61 0.638 . S
C504 C102 0.564 . S
C515 C90 0.632 . S
C520 C131 0.553 . S
C531 C119 0.606 . S
C536 C160 0.544 . S
C547 C189 0.563 . S
C552 C206 0.587 . S
C563 C235 0.636 . S
C568 C218 0.584 . S
C579 C264 0.586 . S
C584 C247 0.563 . S
C595 C293 0.612 . S
C600 C276 0.699 . S
C611 C322 0.585 . S
C616 C305 0.566 . S
C627 C334 0.565 . S
C632 C177 0.638 . S
C643 C8 0.634 . S
C648 C182 0.732 . S
C659 C37 0.650 . S
C664 C211 0.723 . S
C675 C240 0.656 . S
C680 C66 0.719 . S
C691 C269 0.716 . S
C696 C95 0.661 . S
C707 C124 0.604 . S
C712 C298 0.639 . S
C723 C153 0.554 . S
C728 C327 0.733 . S
C739 C245 1.732 . S
C744 C13 1.733 . S
C755 C274 1.742 . S
C760 C42 1.725 . S
C771 C303 1.779 . S
C776 C71 1.746 . S
C787 C100 1.724 . S
C792 C332 1.771 . S
C803 C187 1.721 . S
C808 C129 1.766 . S
C819 C216 1.723 . S
C824 C158 1.745 . S
C835 C208 3.145 . S
C840 C10 3.258 . S
C851 C237 3.119 . S
C856 C39 3.253 1_455 S
C867 C266 3.127 . S
C872 C68 3.254 1_545 S
C883 C295 3.142 . S
C888 C97 3.257 . S
C899 C324 3.127 . S
C904 C126 3.254 1_655 S
C915 C179 3.108 . S
C920 C155 3.253 1_565 S
C931 C184 3.253 . S
C936 C150 3.105 . S
C947 C213 3.252 1_455 S
C952 C5 3.111 . S
C963 C34 3.113 . S
C968 C242 3.256 1_545 S
C979 C63 3.108 . S
C984 C271 3.252 . S
C995 C300 3.257 1_655 S
C1000 C92 3.142 . S
C1011 C121 3.144 . S
C1016 C329 3.258 1_565 S
