# Generated by pormake.
# Topology smm, (6)-cn, num edge types: 1
# Building blocks:
#     Node 0, Type 0, BuildingBlock: VOLQOD_clean_sbu_1, # of connection points: 6
#     Node 1, Type 0, BuildingBlock: VOLQOD_clean_sbu_1, # of connection points: 6
#     Node 2, Type 0, BuildingBlock: VOLQOD_clean_sbu_1, # of connection points: 6
#     Node 3, Type 0, BuildingBlock: VOLQOD_clean_sbu_1, # of connection points: 6
#     Node 4, Type 0, BuildingBlock: VOLQOD_clean_sbu_1, # of connection points: 6
#     Node 5, Type 0, BuildingBlock: VOLQOD_clean_sbu_1, # of connection points: 6
#     Node 6, Type 0, BuildingBlock: VOLQOD_clean_sbu_1, # of connection points: 6
#     Node 7, Type 0, BuildingBlock: VOLQOD_clean_sbu_1, # of connection points: 6
#     Node 8, Type 0, BuildingBlock: VOLQOD_clean_sbu_1, # of connection points: 6
#     Edge 9, Type (0, 0), BuildingBlock: ZUJKAS_clean_linker_0, # of connection points: 2
#     Edge 10, Type (0, 0), BuildingBlock: ZUJKAS_clean_linker_0, # of connection points: 2
#     Edge 11, Type (0, 0), BuildingBlock: ZUJKAS_clean_linker_0, # of connection points: 2
#     Edge 12, Type (0, 0), BuildingBlock: ZUJKAS_clean_linker_0, # of connection points: 2
#     Edge 13, Type (0, 0), BuildingBlock: ZUJKAS_clean_linker_0, # of connection points: 2
#     Edge 14, Type (0, 0), BuildingBlock: ZUJKAS_clean_linker_0, # of connection points: 2
#     Edge 15, Type (0, 0), BuildingBlock: ZUJKAS_clean_linker_0, # of connection points: 2
#     Edge 16, Type (0, 0), BuildingBlock: ZUJKAS_clean_linker_0, # of connection points: 2
#     Edge 17, Type (0, 0), BuildingBlock: ZUJKAS_clean_linker_0, # of connection points: 2
#     Edge 18, Type (0, 0), BuildingBlock: ZUJKAS_clean_linker_0, # of connection points: 2
#     Edge 19, Type (0, 0), BuildingBlock: ZUJKAS_clean_linker_0, # of connection points: 2
#     Edge 20, Type (0, 0), BuildingBlock: ZUJKAS_clean_linker_0, # of connection points: 2
#     Edge 21, Type (0, 0), BuildingBlock: ZUJKAS_clean_linker_0, # of connection points: 2
#     Edge 22, Type (0, 0), BuildingBlock: ZUJKAS_clean_linker_0, # of connection points: 2
#     Edge 23, Type (0, 0), BuildingBlock: ZUJKAS_clean_linker_0, # of connection points: 2
#     Edge 24, Type (0, 0), BuildingBlock: ZUJKAS_clean_linker_0, # of connection points: 2
#     Edge 25, Type (0, 0), BuildingBlock: ZUJKAS_clean_linker_0, # of connection points: 2
#     Edge 26, Type (0, 0), BuildingBlock: ZUJKAS_clean_linker_0, # of connection points: 2
#     Edge 27, Type (0, 0), BuildingBlock: ZUJKAS_clean_linker_0, # of connection points: 2
#     Edge 28, Type (0, 0), BuildingBlock: ZUJKAS_clean_linker_0, # of connection points: 2
#     Edge 29, Type (0, 0), BuildingBlock: ZUJKAS_clean_linker_0, # of connection points: 2
#     Edge 30, Type (0, 0), BuildingBlock: ZUJKAS_clean_linker_0, # of connection points: 2
#     Edge 31, Type (0, 0), BuildingBlock: ZUJKAS_clean_linker_0, # of connection points: 2
#     Edge 32, Type (0, 0), BuildingBlock: ZUJKAS_clean_linker_0, # of connection points: 2
#     Edge 33, Type (0, 0), BuildingBlock: ZUJKAS_clean_linker_0, # of connection points: 2
#     Edge 34, Type (0, 0), BuildingBlock: ZUJKAS_clean_linker_0, # of connection points: 2
#     Edge 35, Type (0, 0), BuildingBlock: ZUJKAS_clean_linker_0, # of connection points: 2
# Relax obj value: 0.260
# Max RMSD: 0.218
# Mean RMSD: 0.216
data_MOF--net-smm--node1-VOLQOD_clean_sbu_1--edge1-ZUJKAS_clean_linker_0
_symmetry_space_group_name_H-M    P1
_symmetry_Int_Tables_number       1
_symmetry_cell_setting            triclinic
loop_
_symmetry_equiv_pos_as_xyz
'x, y, z'
_cell_length_a     67.734442
_cell_length_b     67.572172
_cell_length_c     21.385079
_cell_angle_alpha  90.22049
_cell_angle_beta   89.973239
_cell_angle_gamma 120.09047
loop_
_atom_site_label
_atom_site_type_symbol
_atom_site_fract_x
_atom_site_fract_y
_atom_site_fract_z
_atom_type_partial_charge
O0 O 0.98582 0.17519 0.82975 0.0
Zn1 Zn 0.98207 0.17296 0.92326 0.0
O2 O 0.00984 0.17716 0.96395 0.0
Zn3 Zn 0.02485 0.20602 0.009 0.0
Zn4 Zn 0.03056 0.17734 0.90156 0.0
Zn5 Zn 0.00258 0.15248 0.02201 0.0
O6 O 0.02547 0.20142 0.10102 0.0
O7 O 0.00711 0.16366 0.11003 0.0
O8 O 0.9749 0.19715 0.95205 0.0
O9 O 0.00678 0.22167 0.00156 0.0
O10 O 0.05656 0.22706 0.97819 0.0
O11 O 0.06023 0.20695 0.90165 0.0
O12 O 0.03865 0.15334 0.91688 0.0
O13 O 0.95519 0.14185 0.94325 0.0
O14 O 0.02239 0.13841 0.00792 0.0
O15 O 0.96973 0.12858 0.01404 0.0
C16 C 0.00051 0.17439 0.79426 0.0
C17 C 0.0168 0.18351 0.13448 0.0
C18 C 0.06828 0.22502 0.93479 0.0
C19 C 0.98699 0.21596 0.98117 0.0
C20 C 0.03526 0.14 0.96247 0.0
C21 C 0.95306 0.12653 0.98158 0.0
O22 O 0.01765 0.17385 0.81636 0.0
O23 O 0.82241 0.8451 0.15825 0.0
Zn24 Zn 0.82096 0.84831 0.06524 0.0
O25 O 0.84228 0.84131 0.02277 0.0
Zn26 Zn 0.82551 0.81266 0.97721 0.0
Zn27 Zn 0.86186 0.83836 0.08333 0.0
Zn28 Zn 0.86089 0.86571 0.96548 0.0
O29 O 0.83374 0.81653 0.88645 0.0
O30 O 0.85457 0.8543 0.87771 0.0
O31 O 0.7889 0.82791 0.03459 0.0
O32 O 0.79225 0.80221 0.9777 0.0
O33 O 0.82942 0.78778 0.01503 0.0
O34 O 0.85512 0.8059 0.08945 0.0
O35 O 0.89503 0.85888 0.0643 0.0
O36 O 0.82841 0.88054 0.04783 0.0
O37 O 0.89426 0.8782 0.98157 0.0
O38 O 0.85455 0.89157 0.97312 0.0
C39 C 0.83822 0.8458 0.19213 0.0
C40 C 0.84433 0.83443 0.85323 0.0
C41 C 0.84167 0.78764 0.05994 0.0
C42 C 0.78017 0.81002 0.00048 0.0
C43 C 0.90529 0.87388 0.02224 0.0
C44 C 0.84163 0.89532 0.00838 0.0
O45 O 0.85527 0.84546 0.16838 0.0
O46 O 0.23098 0.05027 0.86348 0.0
Zn47 Zn 0.22929 0.05507 0.95628 0.0
O48 O 0.21286 0.02612 -0.00074 0.0
Zn49 Zn 0.23421 0.01794 0.03527 0.0
Zn50 Zn 0.19307 0.00358 0.93997 0.0
Zn51 Zn 0.19425 0.02841 0.06345 0.0
O52 O 0.22963 0.01376 0.12939 0.0
O53 O 0.20388 0.02428 0.14753 0.0
O54 O 0.26084 0.07252 -0.00805 0.0
O55 O 0.26629 0.0447 0.02753 0.0
O56 O 0.23032 0.98875 -0.0051 0.0
O57 O 0.19774 0.977 0.94344 0.0
O58 O 0.16001 0.99232 0.95577 0.0
O59 O 0.2135 0.0733 0.9699 0.0
O60 O 0.16108 0.00536 0.05168 0.0
O61 O 0.1955 0.05841 0.05926 0.0
C62 C 0.21758 0.03336 0.82909 0.0
C63 C 0.21756 0.01794 0.1671 0.0
C64 C 0.21362 0.97369 0.96259 0.0
C65 C 0.27367 0.06577 0.01576 0.0
C66 C 0.14989 0.99344 0.00462 0.0
C67 C 0.20176 0.07337 0.01642 0.0
O68 O 0.2014 0.01517 0.85264 0.0
O69 O 0.66326 0.52498 0.42751 0.0
Zn70 Zn 0.6721 0.5263 0.33742 0.0
O71 O 0.64547 0.51409 0.28377 0.0
Zn72 Zn 0.64351 0.53873 0.2437 0.0
Zn73 Zn 0.61825 0.4964 0.33241 0.0
Zn74 Zn 0.64777 0.49436 0.22269 0.0
O75 O 0.64005 0.53345 0.15094 0.0
O76 O 0.6443 0.5032 0.13667 0.0
O77 O 0.69348 0.55903 0.31613 0.0
O78 O 0.67264 0.5688 0.25757 0.0
O79 O 0.61591 0.53995 0.27433 0.0
O80 O 0.59489 0.50535 0.31529 0.0
O81 O 0.60502 0.46269 0.32006 0.0
O82 O 0.68922 0.50944 0.32497 0.0
O83 O 0.62419 0.4616 0.23735 0.0
O84 O 0.67728 0.49464 0.23031 0.0
C85 C 0.64377 0.51533 0.45368 0.0
C86 C 0.64109 0.5189 0.11516 0.0
C87 C 0.59724 0.52439 0.29785 0.0
C88 C 0.69126 0.57388 0.28539 0.0
C89 C 0.60899 0.45146 0.27899 0.0
C90 C 0.69062 0.49909 0.27675 0.0
O91 O 0.6255 0.50369 0.4225 0.0
O92 O 0.50282 0.16978 0.55369 0.0
Zn93 Zn 0.50306 0.17412 0.46116 0.0
O94 O 0.51376 0.15566 0.41892 0.0
Zn95 Zn 0.48816 0.13106 0.37484 0.0
Zn96 Zn 0.52578 0.14261 0.47825 0.0
Zn97 Zn 0.53767 0.17471 0.36086 0.0
O98 O 0.49357 0.13369 0.28284 0.0
O99 O 0.52725 0.16532 0.27331 0.0
O100 O 0.47163 0.1662 0.43203 0.0
O101 O 0.45977 0.13274 0.38528 0.0
O102 O 0.48197 0.1004 0.40259 0.0
O103 O 0.5079 0.10825 0.47632 0.0
O104 O 0.55848 0.15176 0.46074 0.0
O105 O 0.52323 0.20738 0.44262 0.0
O106 O 0.5654 0.17201 0.37386 0.0
O107 O 0.54657 0.20776 0.36926 0.0
C108 C 0.51222 0.16142 0.58785 0.0
C109 C 0.50957 0.14858 0.24924 0.0
C110 C 0.49108 0.0939 0.44353 0.0
C111 C 0.45612 0.1484 0.40482 0.0
C112 C 0.57157 0.16284 0.41556 0.0
C113 C 0.53942 0.21818 0.40402 0.0
O114 O 0.52263 0.15182 0.56451 0.0
O115 O 0.84969 0.32808 0.46281 0.0
Zn116 Zn 0.84412 0.32208 0.36966 0.0
O117 O 0.84294 0.34712 0.32935 0.0
Zn118 Zn 0.86993 0.36512 0.2805 0.0
Zn119 Zn 0.84114 0.36566 0.39367 0.0
Zn120 Zn 0.81694 0.33654 0.27554 0.0
O121 O 0.86246 0.37066 0.1936 0.0
O122 O 0.82731 0.34075 0.18646 0.0
O123 O 0.86747 0.3162 0.32759 0.0
O124 O 0.88424 0.34623 0.26452 0.0
O125 O 0.8928 0.39344 0.32724 0.0
O126 O 0.87178 0.3929 0.40749 0.0
O127 O 0.81911 0.3759 0.37278 0.0
O128 O 0.81353 0.29364 0.36035 0.0
O129 O 0.80167 0.35535 0.28829 0.0
O130 O 0.79476 0.30343 0.29348 0.0
C131 C 0.84133 0.33738 0.49784 0.0
C132 C 0.84535 0.35655 0.16094 0.0
C133 C 0.89074 0.40182 0.3787 0.0
C134 C 0.88186 0.32751 0.28487 0.0
C135 C 0.80453 0.37037 0.32907 0.0
C136 C 0.79574 0.2887 0.32847 0.0
O137 O 0.83336 0.34931 0.47499 0.0
O138 O 0.25976 0.79461 0.42017 0.0
Zn139 Zn 0.25786 0.79429 0.51522 0.0
O140 O 0.28756 0.80281 0.55168 0.0
Zn141 Zn 0.29688 0.82729 0.61129 0.0
Zn142 Zn 0.31078 0.81379 0.48832 0.0
Zn143 Zn 0.286 0.77665 0.59327 0.0
O144 O 0.29403 0.81608 0.69879 0.0
O145 O 0.28506 0.77992 0.68673 0.0
O146 O 0.24686 0.81562 0.54567 0.0
O147 O 0.27614 0.83991 0.60495 0.0
O148 O 0.32849 0.8532 0.59678 0.0
O149 O 0.33351 0.84717 0.49766 0.0
O150 O 0.32943 0.79867 0.49579 0.0
O151 O 0.23467 0.76223 0.54118 0.0
O152 O 0.31331 0.77341 0.57215 0.0
O153 O 0.25657 0.74828 0.57281 0.0
C154 C 0.27662 0.80041 0.38338 0.0
C155 C 0.2887 0.7967 0.72169 0.0
C156 C 0.33992 0.85971 0.54639 0.0
C157 C 0.25685 0.83351 0.57981 0.0
C158 C 0.32906 0.78355 0.53173 0.0
C159 C 0.23707 0.74557 0.55893 0.0
O160 O 0.29675 0.80788 0.40409 0.0
O161 O 0.12865 0.48055 0.86977 0.0
Zn162 Zn 0.12326 0.48499 0.78015 0.0
O163 O 0.1408 0.47666 0.72528 0.0
Zn164 Zn 0.12096 0.4477 0.68374 0.0
Zn165 Zn 0.16322 0.47336 0.77199 0.0
Zn166 Zn 0.15633 0.50073 0.66556 0.0
O167 O 0.12632 0.45119 0.59139 0.0
O168 O 0.15088 0.48823 0.57931 0.0
O169 O 0.0902 0.46505 0.76124 0.0
O170 O 0.08787 0.43822 0.69641 0.0
O171 O 0.12823 0.42336 0.70926 0.0
O172 O 0.16303 0.44459 0.74885 0.0
O173 O 0.19475 0.49989 0.75999 0.0
O174 O 0.12901 0.51696 0.76414 0.0
O175 O 0.19 0.51829 0.68111 0.0
O176 O 0.14554 0.5231 0.67113 0.0
C177 C 0.14168 0.47424 0.8946 0.0
C178 C 0.1386 0.46827 0.55671 0.0
C179 C 0.14698 0.4255 0.72892 0.0
C180 C 0.07847 0.44741 0.72748 0.0
C181 C 0.20279 0.51623 0.72094 0.0
C182 C 0.13629 0.52867 0.71422 0.0
O183 O 0.15545 0.47082 0.86222 0.0
O184 O 0.52913 0.71036 0.52665 0.0
Zn185 Zn 0.52867 0.71675 0.61831 0.0
O186 O 0.50672 0.6891 0.66045 0.0
Zn187 Zn 0.52224 0.67553 0.7025 0.0
Zn188 Zn 0.48564 0.66834 0.5993 0.0
Zn189 Zn 0.49023 0.69638 0.72049 0.0
O190 O 0.51631 0.67336 0.79521 0.0
O191 O 0.50001 0.69466 0.80703 0.0
O192 O 0.56003 0.72848 0.65455 0.0
O193 O 0.55594 0.69656 0.69642 0.0
O194 O 0.5143 0.64502 0.66478 0.0
O195 O 0.48846 0.64042 0.5937 0.0
O196 O 0.45323 0.65831 0.62069 0.0
O197 O 0.51912 0.74047 0.62494 0.0
O198 O 0.45661 0.6744 0.71369 0.0
O199 O 0.49426 0.72721 0.7031 0.0
C200 C 0.5127 0.69682 0.49126 0.0
C201 C 0.509 0.68366 0.83 0.0
C202 C 0.50044 0.6334 0.62115 0.0
C203 C 0.56838 0.71745 0.68107 0.0
C204 C 0.44433 0.66123 0.66972 0.0
C205 C 0.50543 0.74235 0.66204 0.0
O206 O 0.49364 0.68167 0.51363 0.0
H207 H 0.09979 0.22647 0.85156 0.0
H208 H 0.1324 0.26078 0.80858 0.0
H209 H 0.11866 0.30252 0.93455 0.0
H210 H 0.08699 0.2686 0.97902 0.0
H211 H 0.12709 0.28884 0.74412 0.0
H212 H 0.18531 0.34107 0.92947 0.0
H213 H 0.16566 0.31092 0.94082 0.0
H214 H 0.15742 0.33192 0.9595 0.0
C215 C 0.10425 0.24296 0.87146 0.0
C216 C 0.09058 0.24486 0.91798 0.0
C217 C 0.12295 0.26254 0.84699 0.0
C218 C 0.12822 0.28431 0.86851 0.0
C219 C 0.11555 0.28601 0.91821 0.0
H220 H 0.11413 0.38074 0.71552 0.0
H221 H 0.11799 0.34737 0.73302 0.0
C222 C 0.0971 0.2665 0.94315 0.0
C223 C 0.14311 0.30508 0.83162 0.0
H224 H 0.17345 0.3626 0.85507 0.0
C225 C 0.13802 0.30492 0.76786 0.0
C226 C 0.15826 0.32613 0.8609 0.0
C227 C 0.16713 0.32737 0.9263 0.0
C228 C 0.14454 0.32535 0.73604 0.0
C229 C 0.15567 0.34622 0.76956 0.0
C230 C 0.16405 0.34654 0.82985 0.0
C231 C 0.15456 0.36652 0.7488 0.0
C232 C 0.13798 0.3242 0.66819 0.0
C233 C 0.17372 0.38852 0.75276 0.0
C234 C 0.17142 0.40776 0.74425 0.0
C235 C 0.14989 0.40529 0.73157 0.0
C236 C 0.13095 0.38324 0.72492 0.0
C237 C 0.13322 0.36409 0.73411 0.0
H238 H 0.13995 0.31083 0.6433 0.0
H239 H 0.11973 0.31929 0.66486 0.0
H240 H 0.14849 0.34082 0.64422 0.0
H241 H 0.1903 0.39083 0.76461 0.0
H242 H 0.1864 0.42455 0.74923 0.0
H243 H 0.75339 0.82965 0.0005 0.0
H244 H 0.71698 0.81552 0.94626 0.0
H245 H 0.71667 0.75326 0.89858 0.0
H246 H 0.75333 0.7675 0.95121 0.0
H247 H 0.71166 0.77429 0.79692 0.0
H248 H 0.65165 0.76749 0.98394 0.0
H249 H 0.67713 0.79497 0.97985 0.0
H250 H 0.67902 0.77022 0.00072 0.0
C251 C 0.74527 0.81269 0.97991 0.0
C252 C 0.75626 0.79972 0.97974 0.0
C253 C 0.72444 0.80463 0.94902 0.0
C254 C 0.71414 0.78333 0.9186 0.0
C255 C 0.72443 0.76979 0.92164 0.0
H256 H 0.59461 0.69859 0.70801 0.0
H257 H 0.63191 0.71728 0.75907 0.0
C258 C 0.74532 0.77792 0.95185 0.0
C259 C 0.69386 0.77601 0.87856 0.0
H260 H 0.63826 0.763 0.87935 0.0
C261 C 0.6956 0.7718 0.81498 0.0
C262 C 0.67304 0.77299 0.90222 0.0
C263 C 0.66996 0.77645 0.97052 0.0
C264 C 0.67694 0.76434 0.77452 0.0
C265 C 0.65611 0.76107 0.79835 0.0
C266 C 0.65444 0.76577 0.86144 0.0
C267 C 0.63527 0.75084 0.75998 0.0
C268 C 0.67946 0.75978 0.70672 0.0
C269 C 0.62519 0.76375 0.74262 0.0
C270 C 0.60396 0.75317 0.71283 0.0
C271 C 0.59241 0.72948 0.7013 0.0
C272 C 0.60308 0.71685 0.7165 0.0
C273 C 0.62437 0.72748 0.7455 0.0
H274 H 0.69765 0.76738 0.69296 0.0
H275 H 0.67085 0.74104 0.69869 0.0
H276 H 0.67118 0.76674 0.676 0.0
H277 H 0.63344 0.78181 0.75384 0.0
H278 H 0.59606 0.76327 0.70202 0.0
H279 H 0.17727 0.93489 0.91769 0.0
H280 H 0.17835 0.90552 0.8538 0.0
H281 H 0.25063 0.93649 0.88742 0.0
H282 H 0.24983 0.96633 0.95131 0.0
H283 H 0.21001 0.92256 0.74387 0.0
H284 H 0.22157 0.86381 0.90178 0.0
H285 H 0.20822 0.87987 0.92724 0.0
H286 H 0.23859 0.89402 0.91769 0.0
C287 C 0.19334 0.93519 0.9129 0.0
C288 C 0.21357 0.95313 0.93877 0.0
C289 C 0.19387 0.91836 0.87642 0.0
C290 C 0.21454 0.91899 0.86585 0.0
C291 C 0.23448 0.93573 0.89562 0.0
H292 H 0.27515 0.87923 0.59071 0.0
H293 H 0.25967 0.89877 0.65267 0.0
C294 C 0.23399 0.95271 0.93217 0.0
C295 C 0.21577 0.90419 0.81707 0.0
H296 H 0.22641 0.86054 0.79294 0.0
C297 C 0.21331 0.9088 0.75448 0.0
C298 C 0.2199 0.88624 0.83145 0.0
C299 C 0.2221 0.88047 0.89816 0.0
C300 C 0.21586 0.89644 0.70549 0.0
C301 C 0.22087 0.87908 0.71975 0.0
C302 C 0.22239 0.87383 0.78241 0.0
C303 C 0.22745 0.8681 0.67084 0.0
C304 C 0.21378 0.90235 0.6388 0.0
C305 C 0.21398 0.84459 0.65858 0.0
C306 C 0.22264 0.83346 0.62206 0.0
C307 C 0.24502 0.84572 0.599 0.0
C308 C 0.25778 0.86951 0.6077 0.0
C309 C 0.24899 0.88064 0.64311 0.0
H310 H 0.20508 0.91255 0.63572 0.0
H311 H 0.2311 0.91257 0.61844 0.0
H312 H 0.20423 0.88658 0.61014 0.0
H313 H 0.19736 0.83469 0.68013 0.0
H314 H 0.21267 0.81505 0.61674 0.0
H315 H 0.45072 0.18388 0.36776 0.0
H316 H 0.41914 0.18069 0.30404 0.0
H317 H 0.38266 0.1076 0.33026 0.0
H318 H 0.4143 0.1106 0.39248 0.0
H319 H 0.40844 0.15028 0.19173 0.0
H320 H 0.33307 0.12831 0.34044 0.0
H321 H 0.36207 0.14453 0.36919 0.0
H322 H 0.3485 0.114 0.36092 0.0
C323 C 0.43554 0.16727 0.36209 0.0
C324 C 0.4349 0.14744 0.38469 0.0
C325 C 0.41761 0.16548 0.3255 0.0
C326 C 0.39865 0.14394 0.31277 0.0
C327 C 0.39707 0.1244 0.34029 0.0
H328 H 0.30919 0.05944 0.04712 0.0
H329 H 0.34237 0.08509 0.11058 0.0
C330 C 0.41514 0.12611 0.3757 0.0
C331 C 0.38256 0.14098 0.26233 0.0
H332 H 0.32564 0.11643 0.23267 0.0
C333 C 0.3904 0.14352 0.20046 0.0
C334 C 0.35914 0.13216 0.27411 0.0
C335 C 0.35014 0.12974 0.33978 0.0
C336 C 0.37507 0.13569 0.1501 0.0
C337 C 0.35149 0.12526 0.16226 0.0
C338 C 0.34381 0.12442 0.22371 0.0
C339 C 0.33436 0.1123 0.11364 0.0
C340 C 0.38398 0.13745 0.08455 0.0
C341 C 0.3194 0.11953 0.09293 0.0
C342 C 0.3006 0.10505 0.05593 0.0
C343 C 0.29623 0.08292 0.04055 0.0
C344 C 0.31208 0.07635 0.05831 0.0
C345 C 0.33104 0.09097 0.09443 0.0
H346 H 0.40244 0.15034 0.08136 0.0
H347 H 0.38162 0.1206 0.07012 0.0
H348 H 0.37437 0.14205 0.0512 0.0
H349 H 0.3217 0.1359 0.10777 0.0
H350 H 0.28864 0.11058 0.04329 0.0
H351 H 0.90002 0.33814 0.16858 0.0
H352 H 0.91682 0.31973 0.10866 0.0
H353 H 0.90885 0.27657 0.26617 0.0
H354 H 0.89077 0.29428 0.32589 0.0
H355 H 0.95338 0.31773 0.12203 0.0
H356 H 0.87991 0.22946 0.13198 0.0
H357 H 0.87807 0.25382 0.15867 0.0
H358 H 0.88998 0.24101 0.20855 0.0
C359 C 0.90192 0.3248 0.19082 0.0
C360 C 0.89404 0.3176 0.25203 0.0
C361 C 0.91148 0.31424 0.1563 0.0
C362 C 0.91368 0.29645 0.18239 0.0
C363 C 0.90665 0.28978 0.2444 0.0
H364 H 0.0047 0.25192 0.06215 0.0
H365 H 0.98647 0.27232 0.10257 0.0
C366 C 0.89658 0.30006 0.27873 0.0
C367 C 0.92373 0.28535 0.14452 0.0
H368 H 0.91512 0.23356 0.09515 0.0
C369 C 0.94489 0.29932 0.1157 0.0
C370 C 0.91238 0.26141 0.13473 0.0
C371 C 0.88872 0.24559 0.15954 0.0
C372 C 0.95534 0.28998 0.07902 0.0
C373 C 0.9448 0.26594 0.07318 0.0
C374 C 0.92329 0.25199 0.10016 0.0
C375 C 0.95652 0.25483 0.04364 0.0
C376 C 0.97748 0.30604 0.04664 0.0
C377 C 0.94557 0.23786 -0.00239 0.0
C378 C 0.9558 0.2257 0.97509 0.0
C379 C 0.97716 0.23041 -0.00177 0.0
C380 C 0.98835 0.24796 0.04275 0.0
C381 C 0.97801 0.25982 0.06572 0.0
H382 H 0.9785 0.32259 0.03572 0.0
H383 H 0.99196 0.30976 0.07819 0.0
H384 H 0.97953 0.29854 0.00251 0.0
H385 H 0.92889 0.23367 0.98022 0.0
H386 H 0.94675 0.21226 0.94087 0.0
H387 H 0.85593 0.77941 0.17155 0.0
H388 H 0.84001 0.74249 0.22398 0.0
H389 H 0.80071 0.7088 0.05892 0.0
H390 H 0.81657 0.74547 0.00603 0.0
H391 H 0.7937 0.71907 0.24399 0.0
H392 H 0.81901 0.66324 0.12071 0.0
H393 H 0.83493 0.69405 0.11414 0.0
H394 H 0.80982 0.67738 0.06713 0.0
C395 C 0.84454 0.76407 0.14554 0.0
C396 C 0.83722 0.76541 0.0849 0.0
C397 C 0.83546 0.74299 0.17568 0.0
C398 C 0.81923 0.72294 0.14531 0.0
C399 C 0.81349 0.72401 0.08289 0.0
H400 H 0.69266 0.61142 0.23289 0.0
H401 H 0.72648 0.64839 0.21147 0.0
C402 C 0.82246 0.74506 0.05284 0.0
C403 C 0.80516 0.70182 0.18133 0.0
H404 H 0.78239 0.644 0.17415 0.0
C405 C 0.79164 0.7027 0.22984 0.0
C406 C 0.80261 0.68054 0.16317 0.0
C407 C 0.81756 0.67875 0.11383 0.0
C408 C 0.77442 0.68267 0.25735 0.0
C409 C 0.77057 0.66131 0.23531 0.0
C410 C 0.78522 0.66046 0.1903 0.0
C411 C 0.75017 0.63973 0.25383 0.0
C412 C 0.75991 0.68447 0.30808 0.0
C413 C 0.75238 0.62272 0.28476 0.0
C414 C 0.73309 0.60159 0.29726 0.0
C415 C 0.7113 0.59704 0.27811 0.0
C416 C 0.70916 0.61436 0.24828 0.0
C417 C 0.72844 0.63553 0.23626 0.0
H418 H 0.76887 0.70142 0.33176 0.0
H419 H 0.744 0.68239 0.287 0.0
H420 H 0.75512 0.67087 0.34362 0.0
H421 H 0.76906 0.62567 0.29828 0.0
H422 H 0.73536 0.5886 0.32016 0.0
H423 H 0.05471 0.46728 0.77233 0.0
H424 H 0.01979 0.46346 0.7281 0.0
H425 H 0.01291 0.40892 0.60825 0.0
H426 H 0.04805 0.41271 0.65144 0.0
H427 H 0.02031 0.46972 0.58883 0.0
H428 H 0.94649 0.3893 0.67727 0.0
H429 H 0.97295 0.40498 0.72031 0.0
H430 H 0.97122 0.38766 0.65443 0.0
C431 C 0.04547 0.45396 0.73792 0.0
C432 C 0.05441 0.44054 0.7146 0.0
C433 C 0.02553 0.45188 0.7127 0.0
C434 C 0.01399 0.43605 0.66485 0.0
C435 C 0.02162 0.42118 0.6455 0.0
H436 H 0.93545 0.41768 0.34776 0.0
H437 H 0.96712 0.43287 0.42182 0.0
C438 C 0.0417 0.42337 0.67025 0.0
C439 C -0.00391 0.43723 0.62887 0.0
H440 H 0.94013 0.406 0.5873 0.0
C441 C 0.00266 0.45601 0.58913 0.0
C442 C 0.9732 0.41936 0.62987 0.0
C443 C 0.96538 0.39921 0.67305 0.0
C444 C 0.98702 0.4568 0.54777 0.0
C445 C 0.96439 0.43836 0.5465 0.0
C446 C 0.95756 0.42015 0.58856 0.0
C447 C 0.94795 0.43621 0.49804 0.0
C448 C -0.00512 0.47698 0.50469 0.0
C449 C 0.92716 0.43433 0.51557 0.0
C450 C 0.90905 0.42577 0.47327 0.0
C451 C 0.91137 0.41851 0.41326 0.0
C452 C 0.93303 0.42296 0.39366 0.0
C453 C 0.95119 0.43167 0.43598 0.0
H454 H 0.01075 0.49211 0.52207 0.0
H455 H -0.00156 0.47236 0.45784 0.0
H456 H 0.98144 0.48168 0.49925 0.0
H457 H 0.92443 0.43783 0.5633 0.0
H458 H 0.89268 0.42286 0.48968 0.0
H459 H 0.52315 0.61229 0.66578 0.0
H460 H 0.53179 0.58646 0.60693 0.0
H461 H 0.48861 0.58452 0.45611 0.0
H462 H 0.47923 0.60958 0.51507 0.0
H463 H 0.48876 0.54373 0.4677 0.0
H464 H 0.57637 0.61898 0.46387 0.0
H465 H 0.56592 0.60905 0.54123 0.0
H466 H 0.55224 0.62053 0.49329 0.0
C467 C 0.51496 0.60584 0.62091 0.0
C468 C 0.501 0.61348 0.59442 0.0
C469 C 0.51998 0.59116 0.58727 0.0
C470 C 0.51141 0.58426 0.52645 0.0
C471 C 0.49559 0.58988 0.50273 0.0
H472 H 0.59265 0.56033 0.25781 0.0
H473 H 0.56735 0.57282 0.30188 0.0
C474 C 0.49031 0.60429 0.53657 0.0
C475 C 0.52123 0.57404 0.4845 0.0
H476 H 0.57146 0.5849 0.41874 0.0
C477 C 0.50682 0.55267 0.45677 0.0
C478 C 0.54465 0.58617 0.46869 0.0
C479 C 0.56067 0.61005 0.49274 0.0
C480 C 0.51544 0.54275 0.41508 0.0
C481 C 0.53911 0.55436 0.40207 0.0
C482 C 0.55331 0.57598 0.42866 0.0
C483 C 0.55013 0.54407 0.36482 0.0
C484 C 0.49908 0.52011 0.38498 0.0
C485 C 0.54817 0.52332 0.38369 0.0
C486 C 0.56234 0.516 0.35795 0.0
C487 C 0.57911 0.52959 0.3139 0.0
C488 C 0.58003 0.5496 0.29201 0.0
C489 C 0.56557 0.55673 0.31712 0.0
H490 H 0.48171 0.51785 0.381 0.0
H491 H 0.50492 0.51852 0.33767 0.0
H492 H 0.49779 0.50605 0.41455 0.0
H493 H 0.53683 0.51354 0.42141 0.0
H494 H 0.5612 0.50051 0.37601 0.0
H495 H 0.50226 0.07313 0.53584 0.0
H496 H 0.48216 0.03232 0.56174 0.0
H497 H 0.43708 0.01825 0.40466 0.0
H498 H 0.45683 0.05874 0.37834 0.0
H499 H 0.417 0.00445 0.53312 0.0
H500 H 0.47671 0.97404 0.46348 0.0
H501 H 0.48765 0.00084 0.50492 0.0
H502 H 0.47737 -0.00163 0.42649 0.0
C503 C 0.48831 0.06129 0.5062 0.0
C504 C 0.48098 0.06919 0.45539 0.0
C505 C 0.47695 0.03803 0.52097 0.0
C506 C 0.45828 0.02247 0.4849 0.0
C507 C 0.45154 0.03014 0.4328 0.0
H508 H 0.36591 0.88138 0.44408 0.0
H509 H 0.39744 0.92075 0.43813 0.0
C510 C 0.46282 0.05328 0.41801 0.0
C511 C 0.44408 -0.00145 0.50455 0.0
H512 H 0.44064 0.94646 0.50202 0.0
C513 C 0.4222 0.99175 0.52721 0.0
C514 C 0.45111 0.98228 0.49634 0.0
C515 C 0.47446 0.98906 0.4713 0.0
C516 C 0.40669 0.96879 0.53989 0.0
C517 C 0.4135 0.95234 0.53055 0.0
C518 C 0.43565 0.95924 0.50954 0.0
C519 C 0.39699 0.92775 0.53676 0.0
C520 C 0.38281 0.96219 0.56019 0.0
C521 C 0.38684 0.91859 0.59458 0.0
C522 C 0.36865 0.8962 0.59809 0.0
C523 C 0.36049 0.8826 0.54383 0.0
C524 C 0.37165 0.89146 0.48663 0.0
C525 C 0.38975 0.91389 0.48316 0.0
H526 H 0.37917 0.97637 0.55386 0.0
H527 H 0.36996 0.94708 0.5334 0.0
H528 H 0.3807 0.9576 0.61048 0.0
H529 H 0.39247 0.92903 0.63653 0.0
H530 H 0.36063 0.88977 0.64303 0.0
H531 H 0.1831 0.08388 0.11476 0.0
H532 H 0.15624 0.0979 0.10809 0.0
H533 H 0.16909 0.10908 0.91027 0.0
H534 H 0.19615 0.09517 0.91635 0.0
H535 H 0.1617 0.1429 0.97992 0.0
H536 H 0.09494 0.05199 0.01708 0.0
H537 H 0.11722 0.06417 0.07489 0.0
H538 H 0.12392 0.06044 -0.00396 0.0
C539 C 0.18073 0.08994 0.07013 0.0
C540 C 0.19138 0.08801 0.01581 0.0
C541 C 0.16533 0.09784 0.06643 0.0
C542 C 0.16034 0.10386 0.00845 0.0
C543 C 0.17265 0.10425 0.9553 0.0
H544 H 0.05981 0.1351 0.86888 0.0
H545 H 0.08936 0.12478 0.88013 0.0
C546 C 0.18817 0.09641 0.95895 0.0
C547 C 0.14061 0.10726 0.00211 0.0
H548 H 0.08243 0.07884 0.00949 0.0
C549 C 0.14436 0.12896 0.98632 0.0
C550 C 0.11807 0.08888 0.01034 0.0
C551 C 0.11316 0.06499 0.02503 0.0
C552 C 0.12604 0.1329 0.9794 0.0
C553 C 0.10351 0.1145 0.98737 0.0
C554 C 0.09977 0.09282 0.00341 0.0
C555 C 0.08361 0.11755 0.97898 0.0
C556 C 0.13094 0.15676 0.96454 0.0
C557 C 0.06974 0.11544 0.03013 0.0
C558 C 0.05266 0.12113 0.02384 0.0
C559 C 0.04933 0.12902 0.96627 0.0
C560 C 0.06216 0.12937 0.91407 0.0
C561 C 0.07913 0.12363 0.92041 0.0
H562 H 0.14898 0.16981 0.97457 0.0
H563 H 0.1277 0.15775 0.9141 0.0
H564 H 0.11963 0.16106 -0.00821 0.0
H565 H 0.07286 0.11048 0.07555 0.0
H566 H 0.04304 0.12064 0.06487 0.0
H567 H 0.86143 0.92758 0.91742 0.0
H568 H 0.86826 0.96664 0.91939 0.0
H569 H 0.83194 0.9532 0.09386 0.0
H570 H 0.82481 0.91388 0.09236 0.0
H571 H 0.83464 0.98725 0.94987 0.0
H572 H 0.90518 0.00315 0.11427 0.0
H573 H 0.89409 0.97958 0.05957 0.0
H574 H 0.87715 0.97867 0.12508 0.0
C575 C 0.8545 0.93275 0.95569 0.0
C576 C 0.84291 0.91776 0.00528 0.0
C577 C 0.85823 0.95499 0.95635 0.0
C578 C 0.85054 0.96263 0.00666 0.0
C579 C 0.83781 0.94742 0.05445 0.0
H580 H 0.93099 0.10676 0.08876 0.0
H581 H 0.89892 0.06785 0.10095 0.0
C582 C 0.83389 0.92505 0.05362 0.0
C583 C 0.85924 0.98731 0.01365 0.0
H584 H 0.90488 0.03489 0.07363 0.0
C585 C 0.84972 -0.00222 0.97784 0.0
C586 C 0.87877 0.00078 0.05052 0.0
C587 C 0.88955 0.99014 0.08964 0.0
C588 C 0.85987 0.02172 0.97631 0.0
C589 C 0.88039 0.0353 0.00987 0.0
C590 C 0.88912 0.02459 0.04802 0.0
C591 C 0.89469 0.0604 0.00162 0.0
C592 C 0.84864 0.0321 0.93827 0.0
C593 C 0.90221 0.0696 0.94164 0.0
C594 C 0.9201 0.09208 0.93469 0.0
C595 C 0.9311 0.10532 0.98766 0.0
C596 C 0.92271 0.0967 0.04735 0.0
C597 C 0.90442 0.07453 0.05425 0.0
H598 H 0.8298 0.02076 0.93778 0.0
H599 H 0.85275 0.04914 0.95665 0.0
H600 H 0.85462 0.03405 0.88916 0.0
H601 H 0.89552 0.05895 0.90035 0.0
H602 H 0.92653 0.09841 0.88828 0.0
H603 H 0.93301 0.90588 0.93694 0.0
H604 H 0.97466 0.92613 0.93301 0.0
H605 H 0.9763 0.89108 0.0993 0.0
H606 H 0.93466 0.87048 0.10336 0.0
H607 H 0.00615 0.9549 0.023 0.0
H608 H 0.01495 0.87894 0.97369 0.0
H609 H 0.98823 0.87854 0.96534 0.0
H610 H -0.00191 0.87616 0.04145 0.0
C611 C 0.9422 0.90241 0.97266 0.0
C612 C 0.93049 0.88644 0.02027 0.0
C613 C 0.96598 0.91402 0.97032 0.0
C614 C 0.97845 0.90982 0.01532 0.0
C615 C 0.9669 0.8942 0.06345 0.0
H616 H 0.1224 0.99207 0.10024 0.0
H617 H 0.08075 0.9721 0.10195 0.0
C618 C 0.94312 0.88253 0.06582 0.0
C619 C 0.0036 0.92199 0.01228 0.0
H620 H 0.04901 0.91359 -0.00245 0.0
C621 C 0.01556 0.94592 0.01725 0.0
C622 C 0.0157 0.91017 0.00394 0.0
C623 C 0.00362 0.88455 -0.00481 0.0
C624 C 0.03946 0.95838 0.01519 0.0
C625 C 0.05158 0.94648 0.00897 0.0
C626 C 0.0396 0.92259 0.00291 0.0
C627 C 0.07674 0.95852 0.00807 0.0
C628 C 0.05152 0.98416 0.01878 0.0
C629 C 0.08817 0.95697 0.95528 0.0
C630 C 0.11195 0.9682 0.95427 0.0
C631 C 0.1247 0.9811 0.00622 0.0
C632 C 0.11312 0.98237 0.05936 0.0
C633 C 0.08933 0.9711 0.0603 0.0
H634 H 0.03987 0.99076 0.0074 0.0
H635 H 0.05801 0.98975 0.06702 0.0
H636 H 0.06629 0.99201 0.98634 0.0
H637 H 0.07867 0.9472 0.91468 0.0
H638 H 0.12032 0.96684 0.91261 0.0
H639 H 0.6982 0.47657 0.18186 0.0
H640 H 0.71935 0.45616 0.18745 0.0
H641 H 0.73923 0.47963 0.37707 0.0
H642 H 0.71817 0.50027 0.37217 0.0
H643 H 0.77472 0.48045 0.29448 0.0
H644 H 0.69324 0.39719 0.29816 0.0
H645 H 0.69637 0.41626 0.23562 0.0
H646 H 0.69461 0.42407 0.3149 0.0
C647 C 0.7073 0.47769 0.22456 0.0
C648 C 0.70624 0.4898 0.27693 0.0
C649 C 0.7193 0.46596 0.22763 0.0
C650 C 0.73039 0.46611 0.28301 0.0
C651 C 0.73058 0.47925 0.3341 0.0
H652 H 0.80307 0.39988 0.41378 0.0
H653 H 0.7849 0.42296 0.40142 0.0
C654 C 0.71856 0.49102 0.33115 0.0
C655 C 0.7407 0.45152 0.28872 0.0
H656 H 0.72733 0.39573 0.29518 0.0
C657 C 0.76443 0.46194 0.29471 0.0
C658 C 0.72708 0.42741 0.28888 0.0
C659 C 0.70139 0.41548 0.28454 0.0
C660 C 0.77503 0.44876 0.30013 0.0
C661 C 0.7614 0.42463 0.30086 0.0
C662 C 0.73766 0.41424 0.29453 0.0
C663 C 0.77143 0.40986 0.30925 0.0
C664 C 0.80073 0.46076 0.30402 0.0
C665 C 0.76896 0.39414 0.26256 0.0
C666 C 0.77912 0.38069 0.26968 0.0
C667 C 0.79187 0.3828 0.32369 0.0
C668 C 0.79357 0.39801 0.37129 0.0
C669 C 0.78334 0.41133 0.36421 0.0
H670 H 0.80876 0.47853 0.286 0.0
H671 H 0.80591 0.46163 0.35363 0.0
H672 H 0.80747 0.45132 0.27721 0.0
H673 H 0.75959 0.39264 0.22007 0.0
H674 H 0.77747 0.36912 0.23222 0.0
H675 H 0.61548 0.42225 0.20458 0.0
H676 H 0.60202 0.38186 0.22356 0.0
H677 H 0.56463 0.38346 0.3849 0.0
H678 H 0.57784 0.42384 0.36628 0.0
H679 H 0.61213 0.36692 0.33696 0.0
H680 H 0.51883 0.32426 0.29195 0.0
H681 H 0.53871 0.35237 0.26242 0.0
H682 H 0.52999 0.34876 0.34288 0.0
C683 C 0.604 0.41394 0.24337 0.0
C684 C 0.59784 0.42632 0.28415 0.0
C685 C 0.59639 0.39088 0.25416 0.0
C686 C 0.58232 0.37976 0.30543 0.0
C687 C 0.57525 0.39171 0.34456 0.0
H688 H 0.52928 0.24629 0.47189 0.0
H689 H 0.54129 0.28624 0.45053 0.0
C690 C 0.58288 0.41481 0.33391 0.0
C691 C 0.57677 0.3563 0.32123 0.0
H692 H 0.53259 0.30187 0.33974 0.0
C693 C 0.59476 0.35263 0.33727 0.0
C694 C 0.55409 0.33787 0.32197 0.0
C695 C 0.53427 0.34087 0.30341 0.0
C696 C 0.59064 0.33094 0.35496 0.0
C697 C 0.56796 0.31246 0.35548 0.0
C698 C 0.54996 0.31615 0.33945 0.0
C699 C 0.56245 0.28901 0.37148 0.0
C700 C 0.61051 0.32811 0.3742 0.0
C701 C 0.57065 0.27751 0.33448 0.0
C702 C 0.56394 0.25472 0.34669 0.0
C703 C 0.5487 0.24299 0.39574 0.0
C704 C 0.54101 0.2548 0.43371 0.0
C705 C 0.5478 0.2776 0.42155 0.0
H706 H 0.62562 0.34471 0.38757 0.0
H707 H 0.60588 0.31612 0.41412 0.0
H708 H 0.61547 0.32098 0.3343 0.0
H709 H 0.58166 0.28592 0.29492 0.0
H710 H 0.57008 0.2461 0.31633 0.0
H711 H 0.60123 0.18038 0.31827 0.0
H712 H 0.64002 0.18748 0.31285 0.0
H713 H 0.63292 0.15797 0.49582 0.0
H714 H 0.59376 0.15096 0.50214 0.0
H715 H 0.66961 0.2003 0.48712 0.0
H716 H 0.67057 0.15004 0.28559 0.0
H717 H 0.656 0.16504 0.26457 0.0
H718 H 0.64446 0.1437 0.32522 0.0
C719 C 0.60771 0.17506 0.35715 0.0
C720 C 0.59446 0.1653 0.41092 0.0
C721 C 0.62983 0.17882 0.35353 0.0
C722 C 0.63919 0.17276 0.4033 0.0
C723 C 0.62586 0.16243 0.4565 0.0
H724 H 0.78906 0.25492 0.41103 0.0
H725 H 0.75298 0.22011 0.43425 0.0
C726 C 0.60357 0.15856 0.46013 0.0
C727 C 0.66387 0.18072 0.40262 0.0
H728 H 0.70554 0.18769 0.3006 0.0
C729 C 0.6776 0.19694 0.44771 0.0
C730 C 0.67422 0.1761 0.35153 0.0
C731 C 0.66046 0.15755 0.30445 0.0
C732 C 0.70118 0.2107 0.43888 0.0
C733 C 0.71113 0.20786 0.38389 0.0
C734 C 0.69778 0.18995 0.34236 0.0
C735 C 0.73382 0.22596 0.36313 0.0
C736 C 0.71485 0.22967 0.48514 0.0
C737 C 0.73507 0.24012 0.31372 0.0
C738 C 0.75554 0.25997 0.30034 0.0
C739 C 0.77514 0.26598 0.33618 0.0
C740 C 0.77421 0.25088 0.38288 0.0
C741 C 0.75364 0.231 0.3963 0.0
H742 H 0.70409 0.23054 0.52306 0.0
H743 H 0.72816 0.22691 0.50679 0.0
H744 H 0.72359 0.24643 0.46087 0.0
H745 H 0.71989 0.23647 0.28765 0.0
H746 H 0.7557 0.27106 0.26365 0.0
H747 H 0.48261 0.75619 0.73933 0.0
H748 H 0.45877 0.77169 0.70491 0.0
H749 H 0.48707 0.78129 0.51954 0.0
H750 H 0.51106 0.76579 0.5534 0.0
H751 H 0.46318 0.81175 0.62923 0.0
H752 H 0.41826 0.72576 0.51525 0.0
H753 H 0.43944 0.73282 0.57547 0.0
H754 H 0.44806 0.74411 0.49816 0.0
C755 C 0.48447 0.76246 0.69189 0.0
C756 C 0.49826 0.75923 0.64866 0.0
C757 C 0.47086 0.77135 0.67236 0.0
C758 C 0.47089 0.77709 0.60948 0.0
C759 C 0.48676 0.7767 0.56817 0.0
H760 H 0.36744 0.8055 0.45986 0.0
H761 H 0.40279 0.80455 0.47172 0.0
C762 C 0.50051 0.76792 0.58775 0.0
C763 C 0.45152 0.779 0.58559 0.0
H764 H 0.39991 0.74734 0.51339 0.0
C765 C 0.44951 0.79793 0.6029 0.0
C766 C 0.43361 0.76062 0.55226 0.0
C767 C 0.43472 0.73956 0.53432 0.0
C768 C 0.42974 0.79877 0.58852 0.0
C769 C 0.4117 0.7802 0.55633 0.0
C770 C 0.41391 0.76152 0.53787 0.0
C771 C 0.3898 0.77924 0.54503 0.0
C772 C 0.42779 0.81903 0.60992 0.0
C773 C 0.37064 0.76463 0.58087 0.0
C774 C 0.35036 0.76509 0.5744 0.0
C775 C 0.34896 0.78011 0.53168 0.0
C776 C 0.36791 0.79378 0.49342 0.0
C777 C 0.38818 0.79339 0.50022 0.0
H778 H 0.4423 0.83085 0.64027 0.0
H779 H 0.42738 0.82867 0.56852 0.0
H780 H 0.41162 0.81313 0.63602 0.0
H781 H 0.37165 0.75348 0.6154 0.0
H782 H 0.33611 0.75432 0.60445 0.0
H783 H 0.15063 0.55691 0.6139 0.0
H784 H 0.15161 0.59293 0.60168 0.0
H785 H 0.11842 0.58377 0.78019 0.0
H786 H 0.11795 0.54744 0.79397 0.0
H787 H 0.1201 0.60746 0.60013 0.0
H788 H 0.17854 0.64269 0.80607 0.0
H789 H 0.17098 0.61508 0.77406 0.0
H790 H 0.15025 0.61881 0.81688 0.0
C791 C 0.14336 0.56233 0.65065 0.0
C792 C 0.13465 0.54949 0.70558 0.0
C793 C 0.14371 0.58289 0.64322 0.0
C794 C 0.13528 0.59115 0.69024 0.0
C795 C 0.12531 0.57784 0.74374 0.0
H796 H 0.19314 0.73589 0.57953 0.0
H797 H 0.16126 0.69957 0.61748 0.0
C798 C 0.12509 0.55713 0.75152 0.0
C799 C 0.13996 0.61492 0.6846 0.0
H800 H 0.18145 0.66823 0.72912 0.0
C801 C 0.13286 0.6209 0.62957 0.0
C802 C 0.15645 0.63238 0.72347 0.0
C803 C 0.16463 0.62709 0.78341 0.0
C804 C 0.14413 0.64353 0.60803 0.0
C805 C 0.16254 0.66038 0.64312 0.0
C806 C 0.16741 0.655 0.70226 0.0
C807 C 0.1802 0.68165 0.61391 0.0
C808 C 0.13813 0.64884 0.54482 0.0
C809 C 0.20101 0.68322 0.59805 0.0
C810 C 0.21913 0.70374 0.57684 0.0
C811 C 0.21673 0.7231 0.57082 0.0
C812 C 0.19542 0.72118 0.58342 0.0
C813 C 0.17724 0.70054 0.60527 0.0
H814 H 0.12241 0.63414 0.52513 0.0
H815 H 0.13561 0.66382 0.54845 0.0
H816 H 0.15245 0.65337 0.51188 0.0
H817 H 0.20347 0.66867 0.60408 0.0
H818 H 0.23526 0.70464 0.56714 0.0
H819 H 0.41925 0.66045 0.77102 0.0
H820 H 0.37793 0.63721 0.78446 0.0
H821 H 0.37141 0.61026 0.59773 0.0
H822 H 0.41267 0.63313 0.58391 0.0
H823 H 0.34163 0.6354 0.71411 0.0
H824 H 0.34127 0.55306 0.70945 0.0
H825 H 0.36706 0.58029 0.71956 0.0
H826 H 0.35484 0.57097 0.64301 0.0
C827 C 0.40904 0.64965 0.73267 0.0
C828 C 0.41927 0.64844 0.67662 0.0
C829 C 0.38546 0.63643 0.74047 0.0
C830 C 0.3718 0.6218 0.69247 0.0
C831 C 0.38181 0.62115 0.63572 0.0
H832 H 0.22642 0.55155 0.63977 0.0
H833 H 0.26746 0.57821 0.63781 0.0
C834 C 0.40537 0.6343 0.62788 0.0
C835 C 0.34708 0.60684 0.70205 0.0
H836 H 0.30517 0.55084 0.70488 0.0
C837 C 0.33361 0.61691 0.71248 0.0
C838 C 0.33686 0.58276 0.70089 0.0
C839 C 0.35075 0.57108 0.69323 0.0
C840 C 0.30992 0.60342 0.72007 0.0
C841 C 0.2996 0.57936 0.71615 0.0
C842 C 0.31318 0.56932 0.70739 0.0
C843 C 0.27466 0.56416 0.7197 0.0
C844 C 0.29621 0.61502 0.7326 0.0
C845 C 0.26524 0.54721 0.76579 0.0
C846 C 0.24182 0.53178 0.76669 0.0
C847 C 0.22746 0.53301 0.72131 0.0
C848 C 0.23698 0.55019 0.67555 0.0
C849 C 0.26041 0.56556 0.67461 0.0
H850 H 0.30706 0.63257 0.75164 0.0
H851 H 0.28858 0.61642 0.68813 0.0
H852 H 0.28216 0.60502 0.76607 0.0
H853 H 0.27605 0.54582 0.80073 0.0
H854 H 0.23504 0.51878 0.80263 0.0
H855 H 0.0246 0.1665 0.70593 0.0
H856 H 0.02497 0.1725 0.59379 0.0
H857 H 0.97345 0.19171 0.61496 0.0
H858 H 0.97273 0.1855 0.72813 0.0
H859 H 0.96604 0.16184 0.51387 0.0
H860 H 0.05383 0.23595 0.51234 0.0
H861 H 0.05231 0.21183 0.5518 0.0
H862 H 0.03726 0.22531 0.5831 0.0
C863 C 0.01326 0.17192 0.68694 0.0
C864 C -0.00119 0.17578 0.72595 0.0
C865 C 0.01362 0.17549 0.62292 0.0
C866 C -0.00028 0.18316 0.59674 0.0
C867 C 0.98452 0.18609 0.63482 0.0
H868 H 0.02633 0.22177 0.20187 0.0
H869 H 0.02043 0.22401 0.31391 0.0
C870 C 0.98407 0.18244 0.69921 0.0
C871 C 0.00112 0.18768 0.5292 0.0
H872 H 0.03986 0.21594 0.41406 0.0
C873 C 0.98202 0.17397 0.49191 0.0
C874 C 0.02186 0.20391 0.50104 0.0
C875 C 0.0424 0.22026 0.53924 0.0
C876 C 0.98364 0.17486 0.42661 0.0
C877 C 0.00501 0.18947 0.39857 0.0
C878 C 0.02362 0.20443 0.43584 0.0
C879 C 0.00885 0.18831 0.3312 0.0
C880 C 0.96259 0.15979 0.38836 0.0
C881 C 0.00506 0.16769 0.30467 0.0
C882 C 0.00839 0.16632 0.24093 0.0
C883 C 0.01587 0.18566 0.20281 0.0
C884 C 0.0206 0.20657 0.23006 0.0
C885 C 0.0171 0.20787 0.29388 0.0
H886 H 0.94681 0.15585 0.41424 0.0
H887 H 0.96275 0.16796 0.34325 0.0
H888 H 0.96193 0.14335 0.37825 0.0
H889 H -0.0006 0.1526 0.33327 0.0
H890 H 0.0048 0.15002 0.22144 0.0
H891 H 0.86842 0.86788 0.76808 0.0
H892 H 0.86214 0.86605 0.65548 0.0
H893 H 0.81003 0.79506 0.67028 0.0
H894 H 0.81636 0.79656 0.78329 0.0
H895 H 0.83942 0.80418 0.57008 0.0
H896 H 0.80618 0.86413 0.57559 0.0
H897 H 0.83341 0.8757 0.6135 0.0
H898 H 0.8091 0.8507 0.6451 0.0
C899 C 0.85574 0.8518 0.74744 0.0
C900 C 0.84272 0.83242 0.78462 0.0
C901 C 0.85206 0.85086 0.68324 0.0
C902 C 0.83517 0.83062 0.65527 0.0
C903 C 0.82291 0.8109 0.69151 0.0
H904 H 0.80014 0.83485 0.26182 0.0
H905 H 0.79593 0.82879 0.37518 0.0
C906 C 0.82665 0.81179 0.75587 0.0
C907 C 0.83063 0.83021 0.5879 0.0
H908 H 0.81896 0.8585 0.4754 0.0
C909 C 0.83459 0.81577 0.54933 0.0
C910 C 0.82376 0.84495 0.56135 0.0
C911 C 0.81762 0.85956 0.60112 0.0
C912 C 0.83339 0.81683 0.48423 0.0
C913 C 0.82856 0.83306 0.4576 0.0
C914 C 0.82303 0.84636 0.49621 0.0
C915 C 0.83105 0.83775 0.39011 0.0
C916 C 0.83782 0.80095 0.44453 0.0
C917 C 0.85239 0.84568 0.36208 0.0
C918 C 0.85486 0.84915 0.29788 0.0
C919 C 0.83605 0.84497 0.26067 0.0
C920 C 0.81492 0.83818 0.28936 0.0
C921 C 0.81245 0.8346 0.35386 0.0
H922 H 0.83404 0.78523 0.47055 0.0
H923 H 0.8274 0.79592 0.40112 0.0
H924 H 0.8561 0.80979 0.43113 0.0
H925 H 0.86708 0.84884 0.38983 0.0
H926 H 0.87143 0.85468 0.2773 0.0
H927 H 0.25428 0.0653 0.76168 0.0
H928 H 0.26099 0.06451 0.6492 0.0
H929 H 0.19622 0.00221 0.63034 0.0
H930 H 0.18952 0.0026 0.74201 0.0
H931 H 0.23215 0.00062 0.57022 0.0
H932 H 0.22877 0.07895 0.50916 0.0
H933 H 0.249 0.08206 0.5683 0.0
H934 H 0.21899 0.06485 0.58355 0.0
C935 C 0.2414 0.05154 0.73344 0.0
C936 C 0.22134 0.03405 0.76081 0.0
C937 C 0.24528 0.05112 0.66927 0.0
C938 C 0.22905 0.03334 0.63158 0.0
C939 C 0.209 0.01601 0.65874 0.0
H940 H 0.18839 0.01572 0.25747 0.0
H941 H 0.19484 0.01965 0.3699 0.0
C942 C 0.20517 0.01634 0.72261 0.0
C943 C 0.23246 0.03257 0.56353 0.0
H944 H 0.23262 0.05825 0.42648 0.0
C945 C 0.23259 0.01336 0.53865 0.0
C946 C 0.23298 0.04923 0.52278 0.0
C947 C 0.23228 0.06989 0.54695 0.0
C948 C 0.23216 0.00983 0.47384 0.0
C949 C 0.23187 0.0261 0.43322 0.0
C950 C 0.23287 0.04585 0.45805 0.0
C951 C 0.22777 0.02182 0.36539 0.0
C952 C 0.23073 0.98819 0.44931 0.0
C953 C 0.24397 0.02118 0.32578 0.0
C954 C 0.24025 0.01875 0.26106 0.0
C955 C 0.22039 0.01717 0.23537 0.0
C956 C 0.20393 0.01705 0.27568 0.0
C957 C 0.2076 0.01935 0.33995 0.0
H958 H 0.22804 0.97592 0.4873 0.0
H959 H 0.21657 0.97968 0.415 0.0
H960 H 0.24684 0.9925 0.42483 0.0
H961 H 0.25975 0.02327 0.34464 0.0
H962 H 0.25331 0.01908 0.2311 0.0
H963 H 0.60603 0.50806 0.51776 0.0
H964 H 0.60282 0.51309 0.62951 0.0
H965 H 0.67391 0.53408 0.65411 0.0
H966 H 0.67748 0.52978 0.54178 0.0
H967 H 0.60833 0.49026 0.7208 0.0
H968 H 0.66954 0.58246 0.75357 0.0
H969 H 0.6597 0.56976 0.67726 0.0
H970 H 0.68265 0.56831 0.71537 0.0
C971 C 0.62104 0.51387 0.54688 0.0
C972 C 0.64202 0.51845 0.52117 0.0
C973 C 0.61918 0.51685 0.6106 0.0
C974 C 0.63821 0.52434 0.64976 0.0
C975 C 0.65919 0.52893 0.62431 0.0
H976 H 0.64652 0.49346 0.0251 0.0
H977 H 0.64323 0.49584 0.91252 0.0
C978 C 0.66115 0.52623 0.56032 0.0
C979 C 0.63561 0.52538 0.71793 0.0
H980 H 0.65968 0.55905 0.84637 0.0
C981 C 0.6193 0.50544 0.74816 0.0
C982 C 0.6496 0.54531 0.75336 0.0
C983 C 0.66617 0.56773 0.72309 0.0
C984 C 0.61749 0.50449 0.8133 0.0
C985 C 0.63281 0.5238 0.84889 0.0
C986 C 0.64819 0.54418 0.81872 0.0
C987 C 0.63443 0.5225 0.91719 0.0
C988 C 0.59947 0.48268 0.84339 0.0
C989 C 0.63123 0.53722 0.95677 0.0
C990 C 0.63332 0.53609 0.02141 0.0
C991 C 0.63874 0.52025 0.04708 0.0
C992 C 0.64212 0.5057 0.00696 0.0
C993 C 0.64012 0.50693 0.9426 0.0
H994 H 0.5848 0.47281 0.81132 0.0
H995 H 0.60692 0.47176 0.85464 0.0
H996 H 0.59306 0.48624 0.88736 0.0
H997 H 0.62704 0.54949 0.93766 0.0
H998 H 0.63068 0.54757 0.05115 0.0
H999 H 0.48342 0.17064 0.65536 0.0
H1000 H 0.47768 0.16745 0.76877 0.0
H1001 H 0.53012 0.1494 0.78737 0.0
H1002 H 0.53574 0.15214 0.6746 0.0
H1003 H 0.48882 0.11956 0.84822 0.0
H1004 H 0.5206 0.21124 0.90519 0.0
H1005 H 0.49874 0.19835 0.84634 0.0
H1006 H 0.52655 0.20227 0.83139 0.0
C1007 C 0.49389 0.16625 0.68375 0.0
C1008 C 0.50999 0.16159 0.65619 0.0
C1009 C 0.49059 0.16445 0.74834 0.0
C1010 C 0.50353 0.15825 0.78595 0.0
C1011 C 0.51992 0.1541 0.75874 0.0
H1012 H 0.54255 0.17193 0.1626 0.0
H1013 H 0.53761 0.17254 0.04984 0.0
C1014 C 0.52313 0.15573 0.6944 0.0
C1015 C 0.4999 0.15547 0.85378 0.0
H1016 H 0.50924 0.18554 0.98922 0.0
C1017 C 0.493 0.13388 0.87927 0.0
C1018 C 0.50543 0.17429 0.89346 0.0
C1019 C 0.51339 0.19792 0.86804 0.0
C1020 C 0.49253 0.13078 0.94398 0.0
C1021 C 0.4987 0.14975 0.98367 0.0
C1022 C 0.50455 0.1711 0.9582 0.0
C1023 C 0.50132 0.1484 0.05142 0.0
C1024 C 0.48663 0.10762 0.96919 0.0
C1025 C 0.48253 0.13436 0.08906 0.0
C1026 C 0.48534 0.13375 0.15347 0.0
C1027 C 0.50692 0.14743 0.18093 0.0
C1028 C 0.52572 0.16124 0.14278 0.0
C1029 C 0.52292 0.16169 0.0785 0.0
H1030 H 0.48648 0.09605 0.93191 0.0
H1031 H 0.49898 0.10934 0.00592 0.0
H1032 H 0.46941 0.09947 0.99061 0.0
H1033 H 0.46568 0.12425 0.06882 0.0
H1034 H 0.4705 0.12312 0.18186 0.0
H1035 H 0.81842 0.34804 0.5833 0.0
H1036 H 0.82382 0.35132 0.69612 0.0
H1037 H 0.87249 0.32813 0.68176 0.0
H1038 H 0.8671 0.3246 0.5678 0.0
H1039 H 0.84023 0.30858 0.78257 0.0
H1040 H 0.88263 0.40311 0.77793 0.0
H1041 H 0.85598 0.38947 0.73643 0.0
H1042 H 0.87928 0.38617 0.70897 0.0
C1043 C 0.83018 0.34346 0.60394 0.0
C1044 C 0.84254 0.33631 0.56655 0.0
C1045 C 0.83332 0.34547 0.6684 0.0
C1046 C 0.84897 0.34054 0.69675 0.0
C1047 C 0.86053 0.33226 0.6603 0.0
H1048 H 0.8838 0.38049 0.08978 0.0
H1049 H 0.88745 0.37673 0.97708 0.0
C1050 C 0.85735 0.33017 0.59542 0.0
C1051 C 0.85312 0.34432 0.76457 0.0
H1052 H 0.86748 0.38524 0.877 0.0
C1053 C 0.84653 0.32536 0.80336 0.0
C1054 C 0.86181 0.36632 0.79126 0.0
C1055 C 0.87056 0.38747 0.75146 0.0
C1056 C 0.84702 0.32766 0.8686 0.0
C1057 C 0.85386 0.34938 0.89519 0.0
C1058 C 0.86186 0.36855 0.8564 0.0
C1059 C 0.85164 0.35232 0.9628 0.0
C1060 C 0.83991 0.30676 0.9084 0.0
C1061 C 0.83017 0.34051 -0.00864 0.0
C1062 C 0.82799 0.34262 0.05548 0.0
C1063 C 0.84726 0.35679 0.09213 0.0
C1064 C 0.86862 0.36946 0.06284 0.0
C1065 C 0.87078 0.36724 -0.00141 0.0
H1066 H 0.84223 0.29368 0.88314 0.0
H1067 H 0.8498 0.31124 0.9527 0.0
H1068 H 0.82154 0.29898 0.92014 0.0
H1069 H 0.81509 0.32945 0.96409 0.0
H1070 H 0.81127 0.33278 0.07646 0.0
H1071 H 0.30914 0.81939 0.29371 0.0
H1072 H 0.3046 0.81296 0.18149 0.0
H1073 H 0.23207 0.76871 0.20484 0.0
H1074 H 0.23641 0.77531 0.31841 0.0
H1075 H 0.28663 0.76986 0.12227 0.0
H1076 H 0.238 0.81396 0.06539 0.0
H1077 H 0.25321 0.81876 0.1383 0.0
H1078 H 0.22687 0.79258 0.1257 0.0
C1079 C 0.29215 0.8084 0.27524 0.0
C1080 C 0.27312 0.79778 0.31503 0.0
C1081 C 0.28962 0.80472 0.21103 0.0
C1082 C 0.26804 0.79036 0.18506 0.0
C1083 C 0.24884 0.78003 0.22415 0.0
H1084 H 0.26834 0.7563 0.78628 0.0
H1085 H 0.25997 0.75108 0.89838 0.0
C1086 C 0.25135 0.78381 0.28886 0.0
C1087 C 0.2663 0.78612 0.11698 0.0
H1088 H 0.25019 0.80036 0.98125 0.0
C1089 C 0.27836 0.77617 0.09124 0.0
C1090 C 0.25554 0.79447 0.07711 0.0
C1091 C 0.24274 0.80567 0.10263 0.0
C1092 C 0.28104 0.77546 0.02645 0.0
C1093 C 0.27096 0.78456 0.98656 0.0
C1094 C 0.25788 0.79342 0.0122 0.0
C1095 C 0.27574 0.78726 0.91877 0.0
C1096 C 0.29574 0.76628 0.00151 0.0
C1097 C 0.28718 0.8093 0.89326 0.0
C1098 C 0.29185 0.81235 0.82946 0.0
C1099 C 0.28519 0.79338 0.78987 0.0
C1100 C 0.27392 0.77128 0.81566 0.0
C1101 C 0.26911 0.76824 0.87963 0.0
H1102 H 0.30572 0.76397 0.03911 0.0
H1103 H 0.28471 0.7494 0.97909 0.0
H1104 H 0.30779 0.77793 0.96567 0.0
H1105 H 0.29252 0.8242 0.92284 0.0
H1106 H 0.30055 0.8296 0.81115 0.0
H1107 H 0.1225 0.48834 0.98364 0.0
H1108 H 0.12112 0.48171 0.09628 0.0
H1109 H 0.1555 0.44311 0.07017 0.0
H1110 H 0.15755 0.45016 0.95789 0.0
H1111 H 0.10186 0.44142 0.16386 0.0
H1112 H 0.19605 0.49188 0.1961 0.0
H1113 H 0.18227 0.49271 0.12481 0.0
H1114 H 0.18622 0.46881 0.14069 0.0
C1115 C 0.12979 0.47848 0.00193 0.0
C1116 C 0.14041 0.47004 0.96223 0.0
C1117 C 0.12891 0.47464 0.06608 0.0
C1118 C 0.1385 0.4622 0.09122 0.0
C1119 C 0.14846 0.45315 0.05156 0.0
H1120 H 0.12005 0.42792 0.49141 0.0
H1121 H 0.11979 0.42315 0.37775 0.0
C1122 C 0.1496 0.45721 0.98754 0.0
C1123 C 0.13856 0.45934 0.15929 0.0
H1124 H 0.17392 0.47462 0.28554 0.0
C1125 C 0.11757 0.44849 0.19065 0.0
C1126 C 0.15917 0.46869 0.19354 0.0
C1127 C 0.18223 0.48135 0.16228 0.0
C1128 C 0.11663 0.44746 0.25601 0.0
C1129 C 0.13725 0.45711 0.29022 0.0
C1130 C 0.1582 0.46715 0.25873 0.0
C1131 C 0.13768 0.45946 0.3586 0.0
C1132 C 0.09371 0.43711 0.28791 0.0
C1133 C 0.14827 0.48143 0.3849 0.0
C1134 C 0.14869 0.48423 0.44935 0.0
C1135 C 0.13841 0.46506 0.48864 0.0
C1136 C 0.12794 0.443 0.46219 0.0
C1137 C 0.1277 0.44023 0.39745 0.0
H1138 H 0.07984 0.43422 0.25489 0.0
H1139 H 0.08951 0.42037 0.30828 0.0
H1140 H 0.0941 0.44833 0.32654 0.0
H1141 H 0.15604 0.49646 0.35539 0.0
H1142 H 0.15685 0.50145 0.46823 0.0
H1143 H 0.48036 0.67412 0.40187 0.0
H1144 H 0.48619 0.67258 0.29004 0.0
H1145 H 0.55843 0.71862 0.31383 0.0
H1146 H 0.55276 0.72061 0.42634 0.0
H1147 H 0.54047 0.72984 0.21434 0.0
H1148 H 0.5137 0.638 0.20503 0.0
H1149 H 0.49263 0.64256 0.24264 0.0
H1150 H 0.52045 0.6539 0.27754 0.0
C1151 C 0.49752 0.68397 0.3835 0.0
C1152 C 0.51613 0.69737 0.42305 0.0
C1153 C 0.50083 0.68289 0.31965 0.0
C1154 C 0.52281 0.69496 0.29419 0.0
C1155 C 0.54138 0.70893 0.33299 0.0
H1156 H 0.53419 0.66933 0.89607 0.0
H1157 H 0.54162 0.67312 0.00887 0.0
C1158 C 0.53808 0.71012 0.39707 0.0
C1159 C 0.52598 0.69352 0.22647 0.0
H1160 H 0.51171 0.65498 0.10748 0.0
C1161 C 0.5346 0.71355 0.19096 0.0
C1162 C 0.51883 0.67232 0.19632 0.0
C1163 C 0.51113 0.65052 0.23249 0.0
C1164 C 0.53466 0.71268 0.12555 0.0
C1165 C 0.5254 0.69118 0.09536 0.0
C1166 C 0.5184 0.67138 0.13089 0.0
C1167 C 0.52102 0.6887 0.02748 0.0
C1168 C 0.54412 0.73471 0.08942 0.0
C1169 C 0.50645 0.69556 0.00134 0.0
C1170 C 0.50216 0.69343 0.93733 0.0
C1171 C 0.5122 0.68415 0.8983 0.0
C1172 C 0.52621 0.67655 0.92493 0.0
C1173 C 0.53056 0.67879 0.98918 0.0
H1174 H 0.55707 0.74943 0.11726 0.0
H1175 H 0.55202 0.73376 0.04482 0.0
H1176 H 0.53006 0.73807 0.07839 0.0
H1177 H 0.49837 0.7026 0.03054 0.0
H1178 H 0.49111 0.69923 0.91845 0.0
loop_
_geom_bond_atom_site_label_1
_geom_bond_atom_site_label_2
_geom_bond_distance
_geom_bond_site_symmetry_2
_ccdc_geom_bond_type
O0 Zn1 1.953 . S
O0 C16 1.225 . S
Zn1 O0 1.953 . S
Zn1 O2 1.949 1_656 S
Zn1 O8 1.919 1_556 S
Zn1 O13 1.924 . S
O2 Zn1 1.949 1_454 S
O2 Zn3 1.923 . S
O2 Zn4 1.950 1_554 S
O2 Zn5 1.945 . S
Zn3 O2 1.923 . S
Zn3 O6 1.933 . S
Zn3 O9 1.941 1_455 S
Zn3 O10 1.965 . S
Zn4 O2 1.950 1_556 S
Zn4 O11 1.938 . S
Zn4 O12 1.906 . S
Zn4 O22 1.953 . S
Zn5 O2 1.945 . S
Zn5 O7 1.932 . S
Zn5 O14 1.977 . S
Zn5 O15 1.910 1_455 S
O6 Zn3 1.933 . S
O6 C17 1.226 . S
O7 Zn5 1.932 . S
O7 C17 1.307 . S
O8 Zn1 1.919 1_554 S
O8 C19 1.253 . S
O9 Zn3 1.941 1_655 S
O9 C19 1.283 . S
O10 Zn3 1.965 . S
O10 C18 1.303 1_554 S
O11 Zn4 1.938 . S
O11 C18 1.247 . S
O12 Zn4 1.906 . S
O12 C20 1.304 1_556 S
O13 Zn1 1.924 . S
O13 C21 1.311 1_556 S
O14 Zn5 1.977 . S
O14 C20 1.272 . S
O15 Zn5 1.910 1_655 S
O15 C21 1.231 . S
C16 O0 1.225 . S
C16 O22 1.298 1_655 S
C17 O6 1.226 . S
C17 O7 1.307 . S
C18 O10 1.303 1_556 S
C18 O11 1.247 . S
C19 O8 1.253 . S
C19 O9 1.283 . S
C20 O12 1.304 1_554 S
C20 O14 1.272 . S
C21 O13 1.311 1_554 S
C21 O15 1.231 . S
O22 Zn4 1.953 . S
O22 C16 1.298 1_455 S
O23 Zn24 1.953 . S
O23 C39 1.225 . S
Zn24 O23 1.953 . S
Zn24 O25 1.949 . S
Zn24 O31 1.919 . S
Zn24 O36 1.924 . S
O25 Zn24 1.949 . S
O25 Zn26 1.923 1_554 S
O25 Zn27 1.950 . S
O25 Zn28 1.945 1_554 S
Zn26 O25 1.923 1_556 S
Zn26 O29 1.933 . S
Zn26 O32 1.941 . S
Zn26 O33 1.965 . S
Zn27 O25 1.950 . S
Zn27 O34 1.938 . S
Zn27 O35 1.906 . S
Zn27 O45 1.953 . S
Zn28 O25 1.945 1_556 S
Zn28 O30 1.932 . S
Zn28 O37 1.977 . S
Zn28 O38 1.910 . S
O29 Zn26 1.933 . S
O29 C40 1.226 . S
O30 Zn28 1.932 . S
O30 C40 1.307 . S
O31 Zn24 1.919 . S
O31 C42 1.253 1_554 S
O32 Zn26 1.941 . S
O32 C42 1.283 . S
O33 Zn26 1.965 . S
O33 C41 1.303 1_556 S
O34 Zn27 1.938 . S
O34 C41 1.247 . S
O35 Zn27 1.906 . S
O35 C43 1.295 1_554 S
O36 Zn24 1.924 . S
O36 C44 1.311 . S
O37 Zn28 1.977 . S
O37 C43 1.277 . S
O38 Zn28 1.910 . S
O38 C44 1.231 1_556 S
C39 O23 1.225 . S
C39 O45 1.298 . S
C40 O29 1.226 . S
C40 O30 1.307 . S
C41 O33 1.303 1_554 S
C41 O34 1.247 . S
C42 O31 1.253 1_556 S
C42 O32 1.283 . S
C43 O35 1.295 1_556 S
C43 O37 1.277 . S
C44 O36 1.311 . S
C44 O38 1.231 1_554 S
O45 Zn27 1.953 . S
O45 C39 1.298 . S
O46 Zn47 1.953 . S
O46 C62 1.225 . S
Zn47 O46 1.953 . S
Zn47 O48 1.949 1_556 S
Zn47 O54 1.922 . S
Zn47 O59 1.924 . S
O48 Zn47 1.949 1_554 S
O48 Zn49 1.931 . S
O48 Zn50 1.950 1_544 S
O48 Zn51 1.945 . S
Zn49 O48 1.931 . S
Zn49 O52 1.934 1_545 S
Zn49 O55 1.946 . S
Zn49 O56 1.953 1_545 S
Zn50 O48 1.950 1_566 S
Zn50 O57 1.938 . S
Zn50 O58 1.906 . S
Zn50 O68 1.953 . S
Zn51 O48 1.945 . S
Zn51 O53 1.932 . S
Zn51 O60 1.977 1_545 S
Zn51 O61 1.910 . S
O52 Zn49 1.934 1_565 S
O52 C63 1.213 1_565 S
O53 Zn51 1.932 . S
O53 C63 1.322 . S
O54 Zn47 1.922 . S
O54 C65 1.248 1_556 S
O55 Zn49 1.946 . S
O55 C65 1.283 . S
O56 Zn49 1.953 1_565 S
O56 C64 1.303 1_554 S
O57 Zn50 1.938 . S
O57 C64 1.247 . S
O58 Zn50 1.906 . S
O58 C66 1.304 1_556 S
O59 Zn47 1.924 . S
O59 C67 1.311 1_556 S
O60 Zn51 1.977 1_565 S
O60 C66 1.272 . S
O61 Zn51 1.910 . S
O61 C67 1.231 . S
C62 O46 1.225 . S
C62 O68 1.298 1_545 S
C63 O52 1.213 1_545 S
C63 O53 1.322 . S
C64 O56 1.303 1_556 S
C64 O57 1.247 . S
C65 O54 1.248 1_554 S
C65 O55 1.283 . S
C66 O58 1.304 1_554 S
C66 O60 1.272 . S
C67 O59 1.311 1_554 S
C67 O61 1.231 . S
O68 Zn50 1.953 . S
O68 C62 1.298 1_565 S
O69 Zn70 1.953 . S
O69 C85 1.225 . S
Zn70 O69 1.953 . S
Zn70 O71 1.949 . S
Zn70 O77 1.919 . S
Zn70 O82 1.924 . S
O71 Zn70 1.949 . S
O71 Zn72 1.923 . S
O71 Zn73 1.950 . S
O71 Zn74 1.945 . S
Zn72 O71 1.923 . S
Zn72 O75 1.933 . S
Zn72 O78 1.941 . S
Zn72 O79 1.965 . S
Zn73 O71 1.950 . S
Zn73 O80 1.938 . S
Zn73 O81 1.906 . S
Zn73 O91 1.953 . S
Zn74 O71 1.945 . S
Zn74 O76 1.932 . S
Zn74 O83 1.977 . S
Zn74 O84 1.910 . S
O75 Zn72 1.933 . S
O75 C86 1.226 . S
O76 Zn74 1.932 . S
O76 C86 1.307 . S
O77 Zn70 1.919 . S
O77 C88 1.253 . S
O78 Zn72 1.941 . S
O78 C88 1.283 . S
O79 Zn72 1.965 . S
O79 C87 1.303 . S
O80 Zn73 1.938 . S
O80 C87 1.247 . S
O81 Zn73 1.906 . S
O81 C89 1.304 . S
O82 Zn70 1.924 . S
O82 C90 1.311 . S
O83 Zn74 1.977 . S
O83 C89 1.272 . S
O84 Zn74 1.910 . S
O84 C90 1.231 . S
C85 O69 1.225 . S
C85 O91 1.298 . S
C86 O75 1.226 . S
C86 O76 1.307 . S
C87 O79 1.303 . S
C87 O80 1.247 . S
C88 O77 1.253 . S
C88 O78 1.283 . S
C89 O81 1.304 . S
C89 O83 1.272 . S
C90 O82 1.311 . S
C90 O84 1.231 . S
O91 Zn73 1.953 . S
O91 C85 1.298 . S
O92 Zn93 1.953 . S
O92 C108 1.225 . S
Zn93 O92 1.953 . S
Zn93 O94 1.949 . S
Zn93 O100 1.919 . S
Zn93 O105 1.924 . S
O94 Zn93 1.949 . S
O94 Zn95 1.923 . S
O94 Zn96 1.950 . S
O94 Zn97 1.945 . S
Zn95 O94 1.923 . S
Zn95 O98 1.933 . S
Zn95 O101 1.941 . S
Zn95 O102 1.965 . S
Zn96 O94 1.950 . S
Zn96 O103 1.938 . S
Zn96 O104 1.906 . S
Zn96 O114 1.953 . S
Zn97 O94 1.945 . S
Zn97 O99 1.932 . S
Zn97 O106 1.977 . S
Zn97 O107 1.910 . S
O98 Zn95 1.933 . S
O98 C109 1.226 . S
O99 Zn97 1.932 . S
O99 C109 1.307 . S
O100 Zn93 1.919 . S
O100 C111 1.253 . S
O101 Zn95 1.941 . S
O101 C111 1.283 . S
O102 Zn95 1.965 . S
O102 C110 1.303 . S
O103 Zn96 1.938 . S
O103 C110 1.247 . S
O104 Zn96 1.906 . S
O104 C112 1.304 . S
O105 Zn93 1.924 . S
O105 C113 1.311 . S
O106 Zn97 1.977 . S
O106 C112 1.272 . S
O107 Zn97 1.910 . S
O107 C113 1.231 . S
C108 O92 1.225 . S
C108 O114 1.298 . S
C109 O98 1.226 . S
C109 O99 1.307 . S
C110 O102 1.303 . S
C110 O103 1.247 . S
C111 O100 1.253 . S
C111 O101 1.283 . S
C112 O104 1.304 . S
C112 O106 1.272 . S
C113 O105 1.311 . S
C113 O107 1.231 . S
O114 Zn96 1.953 . S
O114 C108 1.298 . S
O115 Zn116 1.953 . S
O115 C131 1.225 . S
Zn116 O115 1.953 . S
Zn116 O117 1.949 . S
Zn116 O123 1.919 . S
Zn116 O128 1.924 . S
O117 Zn116 1.949 . S
O117 Zn118 1.923 . S
O117 Zn119 1.950 . S
O117 Zn120 1.945 . S
Zn118 O117 1.923 . S
Zn118 O121 1.933 . S
Zn118 O124 1.941 . S
Zn118 O125 1.965 . S
Zn119 O117 1.950 . S
Zn119 O126 1.938 . S
Zn119 O127 1.906 . S
Zn119 O137 1.953 . S
Zn120 O117 1.945 . S
Zn120 O122 1.932 . S
Zn120 O129 1.977 . S
Zn120 O130 1.910 . S
O121 Zn118 1.933 . S
O121 C132 1.226 . S
O122 Zn120 1.932 . S
O122 C132 1.307 . S
O123 Zn116 1.919 . S
O123 C134 1.253 . S
O124 Zn118 1.941 . S
O124 C134 1.283 . S
O125 Zn118 1.965 . S
O125 C133 1.303 . S
O126 Zn119 1.938 . S
O126 C133 1.247 . S
O127 Zn119 1.906 . S
O127 C135 1.304 . S
O128 Zn116 1.924 . S
O128 C136 1.311 . S
O129 Zn120 1.977 . S
O129 C135 1.272 . S
O130 Zn120 1.910 . S
O130 C136 1.231 . S
C131 O115 1.225 . S
C131 O137 1.298 . S
C132 O121 1.226 . S
C132 O122 1.307 . S
C133 O125 1.303 . S
C133 O126 1.247 . S
C134 O123 1.253 . S
C134 O124 1.283 . S
C135 O127 1.304 . S
C135 O129 1.272 . S
C136 O128 1.311 . S
C136 O130 1.231 . S
O137 Zn119 1.953 . S
O137 C131 1.298 . S
O138 Zn139 1.953 . S
O138 C154 1.225 . S
Zn139 O138 1.953 . S
Zn139 O140 1.949 . S
Zn139 O146 1.919 . S
Zn139 O151 1.924 . S
O140 Zn139 1.949 . S
O140 Zn141 1.923 . S
O140 Zn142 1.950 . S
O140 Zn143 1.945 . S
Zn141 O140 1.923 . S
Zn141 O144 1.933 . S
Zn141 O147 1.941 . S
Zn141 O148 1.965 . S
Zn142 O140 1.950 . S
Zn142 O149 1.938 . S
Zn142 O150 1.906 . S
Zn142 O160 1.953 . S
Zn143 O140 1.945 . S
Zn143 O145 1.932 . S
Zn143 O152 1.977 . S
Zn143 O153 1.910 . S
O144 Zn141 1.933 . S
O144 C155 1.226 . S
O145 Zn143 1.932 . S
O145 C155 1.307 . S
O146 Zn139 1.919 . S
O146 C157 1.253 . S
O147 Zn141 1.941 . S
O147 C157 1.283 . S
O148 Zn141 1.965 . S
O148 C156 1.303 . S
O149 Zn142 1.938 . S
O149 C156 1.247 . S
O150 Zn142 1.906 . S
O150 C158 1.304 . S
O151 Zn139 1.924 . S
O151 C159 1.311 . S
O152 Zn143 1.977 . S
O152 C158 1.272 . S
O153 Zn143 1.910 . S
O153 C159 1.231 . S
C154 O138 1.225 . S
C154 O160 1.298 . S
C155 O144 1.226 . S
C155 O145 1.307 . S
C156 O148 1.303 . S
C156 O149 1.247 . S
C157 O146 1.253 . S
C157 O147 1.283 . S
C158 O150 1.304 . S
C158 O152 1.272 . S
C159 O151 1.311 . S
C159 O153 1.231 . S
O160 Zn142 1.953 . S
O160 C154 1.298 . S
O161 Zn162 1.953 . S
O161 C177 1.225 . S
Zn162 O161 1.953 . S
Zn162 O163 1.949 . S
Zn162 O169 1.919 . S
Zn162 O174 1.924 . S
O163 Zn162 1.949 . S
O163 Zn164 1.923 . S
O163 Zn165 1.950 . S
O163 Zn166 1.945 . S
Zn164 O163 1.923 . S
Zn164 O167 1.933 . S
Zn164 O170 1.941 . S
Zn164 O171 1.965 . S
Zn165 O163 1.950 . S
Zn165 O172 1.938 . S
Zn165 O173 1.906 . S
Zn165 O183 1.953 . S
Zn166 O163 1.945 . S
Zn166 O168 1.932 . S
Zn166 O175 1.977 . S
Zn166 O176 1.910 . S
O167 Zn164 1.933 . S
O167 C178 1.226 . S
O168 Zn166 1.932 . S
O168 C178 1.307 . S
O169 Zn162 1.919 . S
O169 C180 1.253 . S
O170 Zn164 1.941 . S
O170 C180 1.283 . S
O171 Zn164 1.965 . S
O171 C179 1.303 . S
O172 Zn165 1.938 . S
O172 C179 1.247 . S
O173 Zn165 1.906 . S
O173 C181 1.304 . S
O174 Zn162 1.924 . S
O174 C182 1.311 . S
O175 Zn166 1.977 . S
O175 C181 1.272 . S
O176 Zn166 1.910 . S
O176 C182 1.231 . S
C177 O161 1.225 . S
C177 O183 1.298 . S
C178 O167 1.226 . S
C178 O168 1.307 . S
C179 O171 1.303 . S
C179 O172 1.247 . S
C180 O169 1.253 . S
C180 O170 1.283 . S
C181 O173 1.304 . S
C181 O175 1.272 . S
C182 O174 1.311 . S
C182 O176 1.231 . S
O183 Zn165 1.953 . S
O183 C177 1.298 . S
O184 Zn185 1.953 . S
O184 C200 1.225 . S
Zn185 O184 1.953 . S
Zn185 O186 1.949 . S
Zn185 O192 1.919 . S
Zn185 O197 1.924 . S
O186 Zn185 1.949 . S
O186 Zn187 1.923 . S
O186 Zn188 1.950 . S
O186 Zn189 1.945 . S
Zn187 O186 1.923 . S
Zn187 O190 1.933 . S
Zn187 O193 1.941 . S
Zn187 O194 1.965 . S
Zn188 O186 1.950 . S
Zn188 O195 1.938 . S
Zn188 O196 1.906 . S
Zn188 O206 1.953 . S
Zn189 O186 1.945 . S
Zn189 O191 1.932 . S
Zn189 O198 1.977 . S
Zn189 O199 1.910 . S
O190 Zn187 1.933 . S
O190 C201 1.226 . S
O191 Zn189 1.932 . S
O191 C201 1.307 . S
O192 Zn185 1.919 . S
O192 C203 1.253 . S
O193 Zn187 1.941 . S
O193 C203 1.283 . S
O194 Zn187 1.965 . S
O194 C202 1.303 . S
O195 Zn188 1.938 . S
O195 C202 1.247 . S
O196 Zn188 1.906 . S
O196 C204 1.304 . S
O197 Zn185 1.924 . S
O197 C205 1.311 . S
O198 Zn189 1.977 . S
O198 C204 1.272 . S
O199 Zn189 1.910 . S
O199 C205 1.231 . S
C200 O184 1.225 . S
C200 O206 1.298 . S
C201 O190 1.226 . S
C201 O191 1.307 . S
C202 O194 1.303 . S
C202 O195 1.247 . S
C203 O192 1.253 . S
C203 O193 1.283 . S
C204 O196 1.304 . S
C204 O198 1.272 . S
C205 O197 1.311 . S
C205 O199 1.231 . S
O206 Zn188 1.953 . S
O206 C200 1.298 . S
H207 C215 0.929 . S
H208 C217 0.930 . S
H209 C219 0.930 . S
H210 C222 0.929 . S
H211 C225 0.930 . S
H212 C227 0.960 . S
H213 C227 0.960 . S
H214 C227 0.960 . S
C215 H207 0.929 . S
C215 C216 1.377 . S
C215 C217 1.384 . S
C216 C215 1.377 . S
C216 C222 1.390 . S
C217 H208 0.930 . S
C217 C215 1.384 . S
C217 C218 1.372 . S
C218 C217 1.372 . S
C218 C219 1.400 . S
C218 C223 1.490 . S
C219 H209 0.930 . S
C219 C218 1.400 . S
C219 C222 1.386 . S
H220 C236 0.930 . S
H221 C237 0.931 . S
C222 H210 0.929 . S
C222 C216 1.390 . S
C222 C219 1.386 . S
C223 C218 1.490 . S
C223 C225 1.395 . S
C223 C226 1.403 . S
H224 C230 0.930 . S
C225 H211 0.930 . S
C225 C223 1.395 . S
C225 C228 1.403 . S
C226 C223 1.403 . S
C226 C227 1.524 . S
C226 C230 1.400 . S
C227 H212 0.960 . S
C227 H213 0.960 . S
C227 H214 0.960 . S
C227 C226 1.524 . S
C228 C225 1.403 . S
C228 C229 1.392 . S
C228 C232 1.495 . S
C229 C228 1.392 . S
C229 C230 1.385 . S
C229 C231 1.478 . S
C230 H224 0.930 . S
C230 C226 1.400 . S
C230 C229 1.385 . S
C231 C229 1.478 . S
C231 C233 1.381 . S
C231 C237 1.383 . S
C232 C228 1.495 . S
C232 H238 0.959 . S
C232 H239 0.961 . S
C232 H240 0.960 . S
C233 C231 1.381 . S
C233 C234 1.394 . S
C233 H241 0.930 . S
C234 C233 1.394 . S
C234 C235 1.383 . S
C234 H242 0.929 . S
C235 C234 1.383 . S
C235 C236 1.377 . S
C236 H220 0.930 . S
C236 C235 1.377 . S
C236 C237 1.379 . S
C237 H221 0.931 . S
C237 C231 1.383 . S
C237 C236 1.379 . S
H238 C232 0.959 . S
H239 C232 0.961 . S
H240 C232 0.960 . S
H241 C233 0.930 . S
H242 C234 0.929 . S
H243 C251 0.929 . S
H244 C253 0.930 . S
H245 C255 0.930 . S
H246 C258 0.929 1_554 S
H247 C261 0.930 . S
H248 C263 0.960 . S
H249 C263 0.960 . S
H250 C263 0.960 . S
C251 H243 0.929 . S
C251 C252 1.377 . S
C251 C253 1.384 . S
C252 C251 1.377 . S
C252 C258 1.390 . S
C253 H244 0.930 . S
C253 C251 1.384 . S
C253 C254 1.372 . S
C254 C253 1.372 . S
C254 C255 1.400 . S
C254 C259 1.490 . S
C255 H245 0.930 . S
C255 C254 1.400 . S
C255 C258 1.386 . S
H256 C272 0.930 . S
H257 C273 0.931 . S
C258 H246 0.929 1_556 S
C258 C252 1.390 . S
C258 C255 1.386 . S
C259 C254 1.490 . S
C259 C261 1.395 . S
C259 C262 1.403 . S
H260 C266 0.930 . S
C261 H247 0.930 . S
C261 C259 1.395 . S
C261 C264 1.403 . S
C262 C259 1.403 . S
C262 C263 1.524 . S
C262 C266 1.400 . S
C263 H248 0.960 . S
C263 H249 0.960 . S
C263 H250 0.960 . S
C263 C262 1.524 . S
C264 C261 1.403 . S
C264 C265 1.392 . S
C264 C268 1.495 . S
C265 C264 1.392 . S
C265 C266 1.385 . S
C265 C267 1.478 . S
C266 H260 0.930 . S
C266 C262 1.400 . S
C266 C265 1.385 . S
C267 C265 1.478 . S
C267 C269 1.381 . S
C267 C273 1.383 . S
C268 C264 1.495 . S
C268 H274 0.959 . S
C268 H275 0.961 . S
C268 H276 0.960 . S
C269 C267 1.381 . S
C269 C270 1.394 . S
C269 H277 0.930 . S
C270 C269 1.394 . S
C270 C271 1.383 . S
C270 H278 0.929 . S
C271 C270 1.383 . S
C271 C272 1.377 . S
C272 H256 0.930 . S
C272 C271 1.377 . S
C272 C273 1.379 . S
C273 H257 0.931 . S
C273 C267 1.383 . S
C273 C272 1.379 . S
H274 C268 0.959 . S
H275 C268 0.961 . S
H276 C268 0.960 . S
H277 C269 0.930 . S
H278 C270 0.929 . S
H279 C287 0.929 . S
H280 C289 0.930 . S
H281 C291 0.930 . S
H282 C294 0.929 . S
H283 C297 0.930 . S
H284 C299 0.960 . S
H285 C299 0.960 . S
H286 C299 0.960 . S
C287 H279 0.929 . S
C287 C288 1.377 . S
C287 C289 1.384 . S
C288 C287 1.377 . S
C288 C294 1.390 . S
C289 H280 0.930 . S
C289 C287 1.384 . S
C289 C290 1.372 . S
C290 C289 1.372 . S
C290 C291 1.400 . S
C290 C295 1.490 . S
C291 H281 0.930 . S
C291 C290 1.400 . S
C291 C294 1.386 . S
H292 C308 0.930 . S
H293 C309 0.931 . S
C294 H282 0.929 . S
C294 C288 1.390 . S
C294 C291 1.386 . S
C295 C290 1.490 . S
C295 C297 1.395 . S
C295 C298 1.403 . S
H296 C302 0.930 . S
C297 H283 0.930 . S
C297 C295 1.395 . S
C297 C300 1.403 . S
C298 C295 1.403 . S
C298 C299 1.524 . S
C298 C302 1.400 . S
C299 H284 0.960 . S
C299 H285 0.960 . S
C299 H286 0.960 . S
C299 C298 1.524 . S
C300 C297 1.403 . S
C300 C301 1.392 . S
C300 C304 1.495 . S
C301 C300 1.392 . S
C301 C302 1.385 . S
C301 C303 1.478 . S
C302 H296 0.930 . S
C302 C298 1.400 . S
C302 C301 1.385 . S
C303 C301 1.478 . S
C303 C305 1.381 . S
C303 C309 1.383 . S
C304 C300 1.495 . S
C304 H310 0.959 . S
C304 H311 0.961 . S
C304 H312 0.960 . S
C305 C303 1.381 . S
C305 C306 1.394 . S
C305 H313 0.930 . S
C306 C305 1.394 . S
C306 C307 1.383 . S
C306 H314 0.929 . S
C307 C306 1.383 . S
C307 C308 1.377 . S
C308 H292 0.930 . S
C308 C307 1.377 . S
C308 C309 1.379 . S
C309 H293 0.931 . S
C309 C303 1.383 . S
C309 C308 1.379 . S
H310 C304 0.959 . S
H311 C304 0.961 . S
H312 C304 0.960 . S
H313 C305 0.930 . S
H314 C306 0.929 . S
H315 C323 0.929 . S
H316 C325 0.930 . S
H317 C327 0.930 . S
H318 C330 0.929 . S
H319 C333 0.930 . S
H320 C335 0.960 . S
H321 C335 0.960 . S
H322 C335 0.960 . S
C323 H315 0.929 . S
C323 C324 1.377 . S
C323 C325 1.384 . S
C324 C323 1.377 . S
C324 C330 1.390 . S
C325 H316 0.930 . S
C325 C323 1.384 . S
C325 C326 1.372 . S
C326 C325 1.372 . S
C326 C327 1.400 . S
C326 C331 1.490 . S
C327 H317 0.930 . S
C327 C326 1.400 . S
C327 C330 1.386 . S
H328 C344 0.930 . S
H329 C345 0.931 . S
C330 H318 0.929 . S
C330 C324 1.390 . S
C330 C327 1.386 . S
C331 C326 1.490 . S
C331 C333 1.395 . S
C331 C334 1.403 . S
H332 C338 0.930 . S
C333 H319 0.930 . S
C333 C331 1.395 . S
C333 C336 1.403 . S
C334 C331 1.403 . S
C334 C335 1.524 . S
C334 C338 1.400 . S
C335 H320 0.960 . S
C335 H321 0.960 . S
C335 H322 0.960 . S
C335 C334 1.524 . S
C336 C333 1.403 . S
C336 C337 1.392 . S
C336 C340 1.495 . S
C337 C336 1.392 . S
C337 C338 1.385 . S
C337 C339 1.478 . S
C338 H332 0.930 . S
C338 C334 1.400 . S
C338 C337 1.385 . S
C339 C337 1.478 . S
C339 C341 1.381 . S
C339 C345 1.383 . S
C340 C336 1.495 . S
C340 H346 0.959 . S
C340 H347 0.961 . S
C340 H348 0.960 . S
C341 C339 1.381 . S
C341 C342 1.394 . S
C341 H349 0.930 . S
C342 C341 1.394 . S
C342 C343 1.383 . S
C342 H350 0.929 . S
C343 C342 1.383 . S
C343 C344 1.377 . S
C344 H328 0.930 . S
C344 C343 1.377 . S
C344 C345 1.379 . S
C345 H329 0.931 . S
C345 C339 1.383 . S
C345 C344 1.379 . S
H346 C340 0.959 . S
H347 C340 0.961 . S
H348 C340 0.960 . S
H349 C341 0.930 . S
H350 C342 0.929 . S
H351 C359 0.929 . S
H352 C361 0.930 . S
H353 C363 0.930 . S
H354 C366 0.929 . S
H355 C369 0.930 . S
H356 C371 0.960 . S
H357 C371 0.960 . S
H358 C371 0.960 . S
C359 H351 0.929 . S
C359 C360 1.377 . S
C359 C361 1.384 . S
C360 C359 1.377 . S
C360 C366 1.390 . S
C361 H352 0.930 . S
C361 C359 1.384 . S
C361 C362 1.372 . S
C362 C361 1.372 . S
C362 C363 1.400 . S
C362 C367 1.490 . S
C363 H353 0.930 . S
C363 C362 1.400 . S
C363 C366 1.386 . S
H364 C380 0.930 . S
H365 C381 0.931 . S
C366 H354 0.929 . S
C366 C360 1.390 . S
C366 C363 1.386 . S
C367 C362 1.490 . S
C367 C369 1.395 . S
C367 C370 1.403 . S
H368 C374 0.930 . S
C369 H355 0.930 . S
C369 C367 1.395 . S
C369 C372 1.403 . S
C370 C367 1.403 . S
C370 C371 1.524 . S
C370 C374 1.400 . S
C371 H356 0.960 . S
C371 H357 0.960 . S
C371 H358 0.960 . S
C371 C370 1.524 . S
C372 C369 1.403 . S
C372 C373 1.392 . S
C372 C376 1.495 . S
C373 C372 1.392 . S
C373 C374 1.385 . S
C373 C375 1.478 . S
C374 H368 0.930 . S
C374 C370 1.400 . S
C374 C373 1.385 . S
C375 C373 1.478 . S
C375 C377 1.381 . S
C375 C381 1.383 . S
C376 C372 1.495 . S
C376 H382 0.959 . S
C376 H383 0.961 . S
C376 H384 0.960 . S
C377 C375 1.381 . S
C377 C378 1.394 . S
C377 H385 0.930 . S
C378 C377 1.394 . S
C378 C379 1.383 . S
C378 H386 0.929 1_554 S
C379 C378 1.383 . S
C379 C380 1.377 . S
C380 H364 0.930 . S
C380 C379 1.377 . S
C380 C381 1.379 . S
C381 H365 0.931 . S
C381 C375 1.383 . S
C381 C380 1.379 . S
H382 C376 0.959 . S
H383 C376 0.961 . S
H384 C376 0.960 . S
H385 C377 0.930 . S
H386 C378 0.929 1_556 S
H387 C395 0.929 . S
H388 C397 0.930 . S
H389 C399 0.930 . S
H390 C402 0.929 . S
H391 C405 0.930 . S
H392 C407 0.960 . S
H393 C407 0.960 . S
H394 C407 0.960 . S
C395 H387 0.929 . S
C395 C396 1.377 . S
C395 C397 1.384 . S
C396 C395 1.377 . S
C396 C402 1.390 . S
C397 H388 0.930 . S
C397 C395 1.384 . S
C397 C398 1.372 . S
C398 C397 1.372 . S
C398 C399 1.400 . S
C398 C403 1.490 . S
C399 H389 0.930 . S
C399 C398 1.400 . S
C399 C402 1.386 . S
H400 C416 0.930 . S
H401 C417 0.931 . S
C402 H390 0.929 . S
C402 C396 1.390 . S
C402 C399 1.386 . S
C403 C398 1.490 . S
C403 C405 1.395 . S
C403 C406 1.403 . S
H404 C410 0.930 . S
C405 H391 0.930 . S
C405 C403 1.395 . S
C405 C408 1.403 . S
C406 C403 1.403 . S
C406 C407 1.524 . S
C406 C410 1.400 . S
C407 H392 0.960 . S
C407 H393 0.960 . S
C407 H394 0.960 . S
C407 C406 1.524 . S
C408 C405 1.403 . S
C408 C409 1.392 . S
C408 C412 1.495 . S
C409 C408 1.392 . S
C409 C410 1.385 . S
C409 C411 1.478 . S
C410 H404 0.930 . S
C410 C406 1.400 . S
C410 C409 1.385 . S
C411 C409 1.478 . S
C411 C413 1.381 . S
C411 C417 1.383 . S
C412 C408 1.495 . S
C412 H418 0.959 . S
C412 H419 0.961 . S
C412 H420 0.960 . S
C413 C411 1.381 . S
C413 C414 1.394 . S
C413 H421 0.930 . S
C414 C413 1.394 . S
C414 C415 1.383 . S
C414 H422 0.929 . S
C415 C414 1.383 . S
C415 C416 1.377 . S
C416 H400 0.930 . S
C416 C415 1.377 . S
C416 C417 1.379 . S
C417 H401 0.931 . S
C417 C411 1.383 . S
C417 C416 1.379 . S
H418 C412 0.959 . S
H419 C412 0.961 . S
H420 C412 0.960 . S
H421 C413 0.930 . S
H422 C414 0.929 . S
H423 C431 0.929 . S
H424 C433 0.930 . S
H425 C435 0.930 . S
H426 C438 0.929 . S
H427 C441 0.930 . S
H428 C443 0.960 . S
H429 C443 0.960 . S
H430 C443 0.960 . S
C431 H423 0.929 . S
C431 C432 1.377 . S
C431 C433 1.384 . S
C432 C431 1.377 . S
C432 C438 1.390 . S
C433 H424 0.930 . S
C433 C431 1.384 . S
C433 C434 1.372 . S
C434 C433 1.372 . S
C434 C435 1.400 . S
C434 C439 1.490 . S
C435 H425 0.930 . S
C435 C434 1.400 . S
C435 C438 1.386 . S
H436 C452 0.930 . S
H437 C453 0.931 . S
C438 H426 0.929 . S
C438 C432 1.390 . S
C438 C435 1.386 . S
C439 C434 1.490 . S
C439 C441 1.395 . S
C439 C442 1.403 . S
H440 C446 0.930 . S
C441 H427 0.930 . S
C441 C439 1.395 . S
C441 C444 1.403 1_455 S
C442 C439 1.403 . S
C442 C443 1.524 . S
C442 C446 1.400 1_455 S
C443 H428 0.960 . S
C443 H429 0.960 . S
C443 H430 0.960 . S
C443 C442 1.524 . S
C444 C441 1.403 1_655 S
C444 C445 1.392 . S
C444 C448 1.495 . S
C445 C444 1.392 . S
C445 C446 1.385 . S
C445 C447 1.478 . S
C446 H440 0.930 . S
C446 C442 1.400 1_655 S
C446 C445 1.385 . S
C447 C445 1.478 . S
C447 C449 1.381 . S
C447 C453 1.383 . S
C448 C444 1.495 . S
C448 H454 0.959 . S
C448 H455 0.961 . S
C448 H456 0.960 . S
C449 C447 1.381 . S
C449 C450 1.394 . S
C449 H457 0.930 . S
C450 C449 1.394 . S
C450 C451 1.383 . S
C450 H458 0.929 . S
C451 C450 1.383 . S
C451 C452 1.377 . S
C452 H436 0.930 . S
C452 C451 1.377 . S
C452 C453 1.379 . S
C453 H437 0.931 . S
C453 C447 1.383 . S
C453 C452 1.379 . S
H454 C448 0.959 . S
H455 C448 0.961 . S
H456 C448 0.960 . S
H457 C449 0.930 . S
H458 C450 0.929 . S
H459 C467 0.929 . S
H460 C469 0.930 . S
H461 C471 0.930 . S
H462 C474 0.929 . S
H463 C477 0.930 . S
H464 C479 0.960 . S
H465 C479 0.960 . S
H466 C479 0.960 . S
C467 H459 0.929 . S
C467 C468 1.377 . S
C467 C469 1.384 . S
C468 C467 1.377 . S
C468 C474 1.390 . S
C469 H460 0.930 . S
C469 C467 1.384 . S
C469 C470 1.372 . S
C470 C469 1.372 . S
C470 C471 1.400 . S
C470 C475 1.490 . S
C471 H461 0.930 . S
C471 C470 1.400 . S
C471 C474 1.386 . S
H472 C488 0.930 . S
H473 C489 0.931 . S
C474 H462 0.929 . S
C474 C468 1.390 . S
C474 C471 1.386 . S
C475 C470 1.490 . S
C475 C477 1.395 . S
C475 C478 1.403 . S
H476 C482 0.930 . S
C477 H463 0.930 . S
C477 C475 1.395 . S
C477 C480 1.403 . S
C478 C475 1.403 . S
C478 C479 1.524 . S
C478 C482 1.400 . S
C479 H464 0.960 . S
C479 H465 0.960 . S
C479 H466 0.960 . S
C479 C478 1.524 . S
C480 C477 1.403 . S
C480 C481 1.392 . S
C480 C484 1.495 . S
C481 C480 1.392 . S
C481 C482 1.385 . S
C481 C483 1.478 . S
C482 H476 0.930 . S
C482 C478 1.400 . S
C482 C481 1.385 . S
C483 C481 1.478 . S
C483 C485 1.381 . S
C483 C489 1.383 . S
C484 C480 1.495 . S
C484 H490 0.959 . S
C484 H491 0.961 . S
C484 H492 0.960 . S
C485 C483 1.381 . S
C485 C486 1.394 . S
C485 H493 0.930 . S
C486 C485 1.394 . S
C486 C487 1.383 . S
C486 H494 0.929 . S
C487 C486 1.383 . S
C487 C488 1.377 . S
C488 H472 0.930 . S
C488 C487 1.377 . S
C488 C489 1.379 . S
C489 H473 0.931 . S
C489 C483 1.383 . S
C489 C488 1.379 . S
H490 C484 0.959 . S
H491 C484 0.961 . S
H492 C484 0.960 . S
H493 C485 0.930 . S
H494 C486 0.929 . S
H495 C503 0.929 . S
H496 C505 0.930 . S
H497 C507 0.930 . S
H498 C510 0.929 . S
H499 C513 0.930 . S
H500 C515 0.960 . S
H501 C515 0.960 . S
H502 C515 0.960 . S
C503 H495 0.929 . S
C503 C504 1.377 . S
C503 C505 1.384 . S
C504 C503 1.377 . S
C504 C510 1.390 . S
C505 H496 0.930 . S
C505 C503 1.384 . S
C505 C506 1.372 . S
C506 C505 1.372 . S
C506 C507 1.400 . S
C506 C511 1.490 . S
C507 H497 0.930 . S
C507 C506 1.400 . S
C507 C510 1.386 . S
H508 C524 0.930 . S
H509 C525 0.931 . S
C510 H498 0.929 . S
C510 C504 1.390 . S
C510 C507 1.386 . S
C511 C506 1.490 . S
C511 C513 1.395 . S
C511 C514 1.403 . S
H512 C518 0.930 . S
C513 H499 0.930 . S
C513 C511 1.395 . S
C513 C516 1.403 1_545 S
C514 C511 1.403 . S
C514 C515 1.524 . S
C514 C518 1.400 1_545 S
C515 H500 0.960 . S
C515 H501 0.960 . S
C515 H502 0.960 . S
C515 C514 1.524 . S
C516 C513 1.403 1_565 S
C516 C517 1.393 . S
C516 C520 1.495 . S
C517 C516 1.393 . S
C517 C518 1.385 . S
C517 C519 1.478 . S
C518 H512 0.930 . S
C518 C514 1.400 1_565 S
C518 C517 1.385 . S
C519 C517 1.478 . S
C519 C521 1.381 . S
C519 C525 1.383 . S
C520 C516 1.495 . S
C520 H526 0.959 1_565 S
C520 H527 0.961 . S
C520 H528 0.960 . S
C521 C519 1.381 . S
C521 C522 1.394 . S
C521 H529 0.930 . S
C522 C521 1.394 . S
C522 C523 1.383 . S
C522 H530 0.929 . S
C523 C522 1.383 . S
C523 C524 1.377 . S
C524 H508 0.930 . S
C524 C523 1.377 . S
C524 C525 1.379 . S
C525 H509 0.931 . S
C525 C519 1.383 . S
C525 C524 1.379 . S
H526 C520 0.959 1_545 S
H527 C520 0.961 . S
H528 C520 0.960 . S
H529 C521 0.930 . S
H530 C522 0.929 . S
H531 C539 0.929 . S
H532 C541 0.930 . S
H533 C543 0.930 . S
H534 C546 0.929 . S
H535 C549 0.930 . S
H536 C551 0.960 . S
H537 C551 0.960 . S
H538 C551 0.960 . S
C539 H531 0.929 . S
C539 C540 1.377 1_554 S
C539 C541 1.384 . S
C540 C539 1.377 1_556 S
C540 C546 1.390 . S
C541 H532 0.930 . S
C541 C539 1.384 . S
C541 C542 1.372 . S
C542 C541 1.372 . S
C542 C543 1.400 1_554 S
C542 C547 1.490 . S
C543 H533 0.930 . S
C543 C542 1.400 1_556 S
C543 C546 1.386 . S
H544 C560 0.930 . S
H545 C561 0.931 . S
C546 H534 0.929 . S
C546 C540 1.390 . S
C546 C543 1.386 . S
C547 C542 1.490 . S
C547 C549 1.395 1_554 S
C547 C550 1.403 . S
H548 C554 0.930 . S
C549 H535 0.930 . S
C549 C547 1.395 1_556 S
C549 C552 1.403 . S
C550 C547 1.403 . S
C550 C551 1.524 . S
C550 C554 1.400 . S
C551 H536 0.960 . S
C551 H537 0.960 . S
C551 H538 0.960 . S
C551 C550 1.524 . S
C552 C549 1.403 . S
C552 C553 1.392 1_556 S
C552 C556 1.495 . S
C553 C552 1.392 1_554 S
C553 C554 1.385 . S
C553 C555 1.478 . S
C554 H548 0.930 . S
C554 C550 1.400 . S
C554 C553 1.385 . S
C555 C553 1.478 . S
C555 C557 1.381 . S
C555 C561 1.383 1_554 S
C556 C552 1.495 . S
C556 H562 0.959 . S
C556 H563 0.961 . S
C556 H564 0.960 1_556 S
C557 C555 1.381 . S
C557 C558 1.394 . S
C557 H565 0.930 . S
C558 C557 1.394 . S
C558 C559 1.383 . S
C558 H566 0.929 . S
C559 C558 1.383 . S
C559 C560 1.377 1_554 S
C560 H544 0.930 . S
C560 C559 1.377 1_556 S
C560 C561 1.379 . S
C561 H545 0.931 . S
C561 C555 1.383 1_556 S
C561 C560 1.379 . S
H562 C556 0.959 . S
H563 C556 0.961 . S
H564 C556 0.960 1_554 S
H565 C557 0.930 . S
H566 C558 0.929 . S
H567 C575 0.929 . S
H568 C577 0.930 . S
H569 C579 0.930 . S
H570 C582 0.929 . S
H571 C585 0.930 . S
H572 C587 0.950 1_545 S
H573 C587 0.960 . S
H574 C587 0.960 . S
C575 H567 0.929 . S
C575 C576 1.377 1_556 S
C575 C577 1.384 . S
C576 C575 1.377 1_554 S
C576 C582 1.390 . S
C577 H568 0.930 . S
C577 C575 1.384 . S
C577 C578 1.372 1_556 S
C578 C577 1.372 1_554 S
C578 C579 1.400 . S
C578 C583 1.490 . S
C579 H569 0.930 . S
C579 C578 1.400 . S
C579 C582 1.386 . S
H580 C596 0.930 . S
H581 C597 0.931 . S
C582 H570 0.929 . S
C582 C576 1.390 . S
C582 C579 1.386 . S
C583 C578 1.490 . S
C583 C585 1.395 1_554 S
C583 C586 1.403 . S
H584 C590 0.930 . S
C585 H571 0.930 . S
C585 C583 1.395 1_556 S
C585 C588 1.403 1_565 S
C586 C583 1.403 . S
C586 C587 1.524 . S
C586 C590 1.400 1_565 S
C587 H572 0.950 1_565 S
C587 H573 0.960 . S
C587 H574 0.960 . S
C587 C586 1.524 . S
C588 C585 1.403 1_545 S
C588 C589 1.392 . S
C588 C592 1.495 . S
C589 C588 1.392 . S
C589 C590 1.385 1_556 S
C589 C591 1.478 . S
C590 H584 0.930 . S
C590 C586 1.400 1_545 S
C590 C589 1.385 1_554 S
C591 C589 1.478 . S
C591 C593 1.381 . S
C591 C597 1.383 1_556 S
C592 C588 1.495 . S
C592 H598 0.959 . S
C592 H599 0.961 . S
C592 H600 0.960 . S
C593 C591 1.381 . S
C593 C594 1.394 . S
C593 H601 0.930 . S
C594 C593 1.394 . S
C594 C595 1.383 . S
C594 H602 0.929 . S
C595 C594 1.383 . S
C595 C596 1.377 1_556 S
C596 H580 0.930 . S
C596 C595 1.377 1_554 S
C596 C597 1.379 . S
C597 H581 0.931 . S
C597 C591 1.383 1_554 S
C597 C596 1.379 . S
H598 C592 0.959 . S
H599 C592 0.961 . S
H600 C592 0.960 . S
H601 C593 0.930 . S
H602 C594 0.929 . S
H603 C611 0.929 . S
H604 C613 0.930 . S
H605 C615 0.930 . S
H606 C618 0.929 . S
H607 C621 0.930 . S
H608 C623 1.003 . S
H609 C623 0.960 . S
H610 C623 0.960 . S
C611 H603 0.929 . S
C611 C612 1.377 . S
C611 C613 1.384 . S
C612 C611 1.377 . S
C612 C618 1.390 1_556 S
C613 H604 0.930 . S
C613 C611 1.384 . S
C613 C614 1.372 . S
C614 C613 1.372 . S
C614 C615 1.400 1_556 S
C614 C619 1.489 1_556 S
C615 H605 0.930 . S
C615 C614 1.400 1_554 S
C615 C618 1.386 . S
H616 C632 0.930 . S
H617 C633 0.931 . S
C618 H606 0.929 . S
C618 C612 1.390 1_554 S
C618 C615 1.386 . S
C619 C614 1.489 1_554 S
C619 C621 1.398 . S
C619 C622 1.400 1_554 S
H620 C626 0.930 . S
C621 H607 0.930 . S
C621 C619 1.398 . S
C621 C624 1.403 1_655 S
C622 C619 1.400 1_556 S
C622 C623 1.524 . S
C622 C626 1.400 1_655 S
C623 H608 1.003 . S
C623 H609 0.960 . S
C623 H610 0.960 . S
C623 C622 1.524 . S
C624 C621 1.403 1_455 S
C624 C625 1.392 . S
C624 C628 1.495 . S
C625 C624 1.392 . S
C625 C626 1.385 1_554 S
C625 C627 1.478 . S
C626 H620 0.930 . S
C626 C622 1.400 1_455 S
C626 C625 1.385 1_556 S
C627 C625 1.478 . S
C627 C629 1.381 1_554 S
C627 C633 1.383 . S
C628 C624 1.495 . S
C628 H634 0.959 . S
C628 H635 0.961 . S
C628 H636 0.960 . S
C629 C627 1.381 1_556 S
C629 C630 1.394 . S
C629 H637 0.930 . S
C630 C629 1.394 . S
C630 C631 1.383 1_556 S
C630 H638 0.929 . S
C631 C630 1.383 1_554 S
C631 C632 1.377 . S
C632 H616 0.930 . S
C632 C631 1.377 . S
C632 C633 1.379 . S
C633 H617 0.931 . S
C633 C627 1.383 . S
C633 C632 1.379 . S
H634 C628 0.959 . S
H635 C628 0.961 . S
H636 C628 0.960 . S
H637 C629 0.930 . S
H638 C630 0.929 . S
H639 C647 0.929 . S
H640 C649 0.930 . S
H641 C651 0.930 . S
H642 C654 0.929 . S
H643 C657 0.930 . S
H644 C659 0.960 . S
H645 C659 0.960 . S
H646 C659 0.960 . S
C647 H639 0.929 . S
C647 C648 1.377 . S
C647 C649 1.384 . S
C648 C647 1.377 . S
C648 C654 1.390 . S
C649 H640 0.930 . S
C649 C647 1.384 . S
C649 C650 1.372 . S
C650 C649 1.372 . S
C650 C651 1.400 . S
C650 C655 1.490 . S
C651 H641 0.930 . S
C651 C650 1.400 . S
C651 C654 1.386 . S
H652 C668 0.930 . S
H653 C669 0.931 . S
C654 H642 0.929 . S
C654 C648 1.390 . S
C654 C651 1.386 . S
C655 C650 1.490 . S
C655 C657 1.395 . S
C655 C658 1.403 . S
H656 C662 0.930 . S
C657 H643 0.930 . S
C657 C655 1.395 . S
C657 C660 1.403 . S
C658 C655 1.403 . S
C658 C659 1.524 . S
C658 C662 1.400 . S
C659 H644 0.960 . S
C659 H645 0.960 . S
C659 H646 0.960 . S
C659 C658 1.524 . S
C660 C657 1.403 . S
C660 C661 1.392 . S
C660 C664 1.495 . S
C661 C660 1.392 . S
C661 C662 1.385 . S
C661 C663 1.478 . S
C662 H656 0.930 . S
C662 C658 1.400 . S
C662 C661 1.385 . S
C663 C661 1.478 . S
C663 C665 1.381 . S
C663 C669 1.383 . S
C664 C660 1.495 . S
C664 H670 0.959 . S
C664 H671 0.961 . S
C664 H672 0.960 . S
C665 C663 1.381 . S
C665 C666 1.394 . S
C665 H673 0.930 . S
C666 C665 1.394 . S
C666 C667 1.383 . S
C666 H674 0.929 . S
C667 C666 1.383 . S
C667 C668 1.377 . S
C668 H652 0.930 . S
C668 C667 1.377 . S
C668 C669 1.379 . S
C669 H653 0.931 . S
C669 C663 1.383 . S
C669 C668 1.379 . S
H670 C664 0.959 . S
H671 C664 0.961 . S
H672 C664 0.960 . S
H673 C665 0.930 . S
H674 C666 0.929 . S
H675 C683 0.929 . S
H676 C685 0.930 . S
H677 C687 0.930 . S
H678 C690 0.929 . S
H679 C693 0.930 . S
H680 C695 0.960 . S
H681 C695 0.960 . S
H682 C695 0.960 . S
C683 H675 0.929 . S
C683 C684 1.377 . S
C683 C685 1.384 . S
C684 C683 1.377 . S
C684 C690 1.390 . S
C685 H676 0.930 . S
C685 C683 1.384 . S
C685 C686 1.372 . S
C686 C685 1.372 . S
C686 C687 1.400 . S
C686 C691 1.490 . S
C687 H677 0.930 . S
C687 C686 1.400 . S
C687 C690 1.386 . S
H688 C704 0.930 . S
H689 C705 0.931 . S
C690 H678 0.929 . S
C690 C684 1.390 . S
C690 C687 1.386 . S
C691 C686 1.490 . S
C691 C693 1.395 . S
C691 C694 1.403 . S
H692 C698 0.930 . S
C693 H679 0.930 . S
C693 C691 1.395 . S
C693 C696 1.403 . S
C694 C691 1.403 . S
C694 C695 1.524 . S
C694 C698 1.400 . S
C695 H680 0.960 . S
C695 H681 0.960 . S
C695 H682 0.960 . S
C695 C694 1.524 . S
C696 C693 1.403 . S
C696 C697 1.392 . S
C696 C700 1.495 . S
C697 C696 1.392 . S
C697 C698 1.385 . S
C697 C699 1.478 . S
C698 H692 0.930 . S
C698 C694 1.400 . S
C698 C697 1.385 . S
C699 C697 1.478 . S
C699 C701 1.381 . S
C699 C705 1.383 . S
C700 C696 1.495 . S
C700 H706 0.959 . S
C700 H707 0.961 . S
C700 H708 0.960 . S
C701 C699 1.381 . S
C701 C702 1.394 . S
C701 H709 0.930 . S
C702 C701 1.394 . S
C702 C703 1.383 . S
C702 H710 0.929 . S
C703 C702 1.383 . S
C703 C704 1.377 . S
C704 H688 0.930 . S
C704 C703 1.377 . S
C704 C705 1.379 . S
C705 H689 0.931 . S
C705 C699 1.383 . S
C705 C704 1.379 . S
H706 C700 0.959 . S
H707 C700 0.961 . S
H708 C700 0.960 . S
H709 C701 0.930 . S
H710 C702 0.929 . S
H711 C719 0.929 . S
H712 C721 0.930 . S
H713 C723 0.930 . S
H714 C726 0.929 . S
H715 C729 0.930 . S
H716 C731 0.960 . S
H717 C731 0.960 . S
H718 C731 0.960 . S
C719 H711 0.929 . S
C719 C720 1.377 . S
C719 C721 1.384 . S
C720 C719 1.377 . S
C720 C726 1.390 . S
C721 H712 0.930 . S
C721 C719 1.384 . S
C721 C722 1.372 . S
C722 C721 1.372 . S
C722 C723 1.400 . S
C722 C727 1.490 . S
C723 H713 0.930 . S
C723 C722 1.400 . S
C723 C726 1.386 . S
H724 C740 0.930 . S
H725 C741 0.931 . S
C726 H714 0.929 . S
C726 C720 1.390 . S
C726 C723 1.386 . S
C727 C722 1.490 . S
C727 C729 1.395 . S
C727 C730 1.403 . S
H728 C734 0.930 . S
C729 H715 0.930 . S
C729 C727 1.395 . S
C729 C732 1.403 . S
C730 C727 1.403 . S
C730 C731 1.524 . S
C730 C734 1.400 . S
C731 H716 0.960 . S
C731 H717 0.960 . S
C731 H718 0.960 . S
C731 C730 1.524 . S
C732 C729 1.403 . S
C732 C733 1.392 . S
C732 C736 1.495 . S
C733 C732 1.392 . S
C733 C734 1.385 . S
C733 C735 1.478 . S
C734 H728 0.930 . S
C734 C730 1.400 . S
C734 C733 1.385 . S
C735 C733 1.478 . S
C735 C737 1.381 . S
C735 C741 1.383 . S
C736 C732 1.495 . S
C736 H742 0.959 . S
C736 H743 0.961 . S
C736 H744 0.960 . S
C737 C735 1.381 . S
C737 C738 1.394 . S
C737 H745 0.930 . S
C738 C737 1.394 . S
C738 C739 1.383 . S
C738 H746 0.929 . S
C739 C738 1.383 . S
C739 C740 1.377 . S
C740 H724 0.930 . S
C740 C739 1.377 . S
C740 C741 1.379 . S
C741 H725 0.931 . S
C741 C735 1.383 . S
C741 C740 1.379 . S
H742 C736 0.959 . S
H743 C736 0.961 . S
H744 C736 0.960 . S
H745 C737 0.930 . S
H746 C738 0.929 . S
H747 C755 0.929 . S
H748 C757 0.930 . S
H749 C759 0.930 . S
H750 C762 0.929 . S
H751 C765 0.930 . S
H752 C767 0.960 . S
H753 C767 0.960 . S
H754 C767 0.960 . S
C755 H747 0.929 . S
C755 C756 1.377 . S
C755 C757 1.384 . S
C756 C755 1.377 . S
C756 C762 1.390 . S
C757 H748 0.930 . S
C757 C755 1.384 . S
C757 C758 1.372 . S
C758 C757 1.372 . S
C758 C759 1.400 . S
C758 C763 1.490 . S
C759 H749 0.930 . S
C759 C758 1.400 . S
C759 C762 1.386 . S
H760 C776 0.930 . S
H761 C777 0.931 . S
C762 H750 0.929 . S
C762 C756 1.390 . S
C762 C759 1.386 . S
C763 C758 1.490 . S
C763 C765 1.395 . S
C763 C766 1.403 . S
H764 C770 0.930 . S
C765 H751 0.930 . S
C765 C763 1.395 . S
C765 C768 1.403 . S
C766 C763 1.403 . S
C766 C767 1.524 . S
C766 C770 1.400 . S
C767 H752 0.960 . S
C767 H753 0.960 . S
C767 H754 0.960 . S
C767 C766 1.524 . S
C768 C765 1.403 . S
C768 C769 1.392 . S
C768 C772 1.495 . S
C769 C768 1.392 . S
C769 C770 1.385 . S
C769 C771 1.478 . S
C770 H764 0.930 . S
C770 C766 1.400 . S
C770 C769 1.385 . S
C771 C769 1.478 . S
C771 C773 1.381 . S
C771 C777 1.383 . S
C772 C768 1.495 . S
C772 H778 0.959 . S
C772 H779 0.961 . S
C772 H780 0.960 . S
C773 C771 1.381 . S
C773 C774 1.394 . S
C773 H781 0.930 . S
C774 C773 1.394 . S
C774 C775 1.383 . S
C774 H782 0.929 . S
C775 C774 1.383 . S
C775 C776 1.377 . S
C776 H760 0.930 . S
C776 C775 1.377 . S
C776 C777 1.379 . S
C777 H761 0.931 . S
C777 C771 1.383 . S
C777 C776 1.379 . S
H778 C772 0.959 . S
H779 C772 0.961 . S
H780 C772 0.960 . S
H781 C773 0.930 . S
H782 C774 0.929 . S
H783 C791 0.929 . S
H784 C793 0.930 . S
H785 C795 0.930 . S
H786 C798 0.929 . S
H787 C801 0.930 . S
H788 C803 0.960 . S
H789 C803 0.960 . S
H790 C803 0.960 . S
C791 H783 0.929 . S
C791 C792 1.377 . S
C791 C793 1.384 . S
C792 C791 1.377 . S
C792 C798 1.390 . S
C793 H784 0.930 . S
C793 C791 1.384 . S
C793 C794 1.372 . S
C794 C793 1.372 . S
C794 C795 1.400 . S
C794 C799 1.490 . S
C795 H785 0.930 . S
C795 C794 1.400 . S
C795 C798 1.386 . S
H796 C812 0.930 . S
H797 C813 0.931 . S
C798 H786 0.929 . S
C798 C792 1.390 . S
C798 C795 1.386 . S
C799 C794 1.490 . S
C799 C801 1.395 . S
C799 C802 1.403 . S
H800 C806 0.930 . S
C801 H787 0.930 . S
C801 C799 1.395 . S
C801 C804 1.403 . S
C802 C799 1.403 . S
C802 C803 1.524 . S
C802 C806 1.400 . S
C803 H788 0.960 . S
C803 H789 0.960 . S
C803 H790 0.960 . S
C803 C802 1.524 . S
C804 C801 1.403 . S
C804 C805 1.392 . S
C804 C808 1.495 . S
C805 C804 1.392 . S
C805 C806 1.385 . S
C805 C807 1.478 . S
C806 H800 0.930 . S
C806 C802 1.400 . S
C806 C805 1.385 . S
C807 C805 1.478 . S
C807 C809 1.381 . S
C807 C813 1.383 . S
C808 C804 1.495 . S
C808 H814 0.959 . S
C808 H815 0.961 . S
C808 H816 0.960 . S
C809 C807 1.381 . S
C809 C810 1.394 . S
C809 H817 0.930 . S
C810 C809 1.394 . S
C810 C811 1.383 . S
C810 H818 0.929 . S
C811 C810 1.383 . S
C811 C812 1.377 . S
C812 H796 0.930 . S
C812 C811 1.377 . S
C812 C813 1.379 . S
C813 H797 0.931 . S
C813 C807 1.383 . S
C813 C812 1.379 . S
H814 C808 0.959 . S
H815 C808 0.961 . S
H816 C808 0.960 . S
H817 C809 0.930 . S
H818 C810 0.929 . S
H819 C827 0.929 . S
H820 C829 0.930 . S
H821 C831 0.930 . S
H822 C834 0.929 . S
H823 C837 0.930 . S
H824 C839 0.960 . S
H825 C839 0.960 . S
H826 C839 0.960 . S
C827 H819 0.929 . S
C827 C828 1.377 . S
C827 C829 1.384 . S
C828 C827 1.377 . S
C828 C834 1.390 . S
C829 H820 0.930 . S
C829 C827 1.384 . S
C829 C830 1.372 . S
C830 C829 1.372 . S
C830 C831 1.400 . S
C830 C835 1.490 . S
C831 H821 0.930 . S
C831 C830 1.400 . S
C831 C834 1.386 . S
H832 C848 0.930 . S
H833 C849 0.931 . S
C834 H822 0.929 . S
C834 C828 1.390 . S
C834 C831 1.386 . S
C835 C830 1.490 . S
C835 C837 1.395 . S
C835 C838 1.403 . S
H836 C842 0.930 . S
C837 H823 0.930 . S
C837 C835 1.395 . S
C837 C840 1.403 . S
C838 C835 1.403 . S
C838 C839 1.524 . S
C838 C842 1.400 . S
C839 H824 0.960 . S
C839 H825 0.960 . S
C839 H826 0.960 . S
C839 C838 1.524 . S
C840 C837 1.403 . S
C840 C841 1.392 . S
C840 C844 1.495 . S
C841 C840 1.392 . S
C841 C842 1.385 . S
C841 C843 1.478 . S
C842 H836 0.930 . S
C842 C838 1.400 . S
C842 C841 1.385 . S
C843 C841 1.478 . S
C843 C845 1.381 . S
C843 C849 1.383 . S
C844 C840 1.495 . S
C844 H850 0.959 . S
C844 H851 0.961 . S
C844 H852 0.960 . S
C845 C843 1.381 . S
C845 C846 1.394 . S
C845 H853 0.930 . S
C846 C845 1.394 . S
C846 C847 1.383 . S
C846 H854 0.929 . S
C847 C846 1.383 . S
C847 C848 1.377 . S
C848 H832 0.930 . S
C848 C847 1.377 . S
C848 C849 1.379 . S
C849 H833 0.931 . S
C849 C843 1.383 . S
C849 C848 1.379 . S
H850 C844 0.959 . S
H851 C844 0.961 . S
H852 C844 0.960 . S
H853 C845 0.930 . S
H854 C846 0.929 . S
H855 C863 0.929 . S
H856 C865 0.930 . S
H857 C867 0.930 . S
H858 C870 0.929 . S
H859 C873 0.930 . S
H860 C875 0.960 . S
H861 C875 0.960 . S
H862 C875 0.960 . S
C863 H855 0.929 . S
C863 C864 1.377 1_455 S
C863 C865 1.384 . S
C864 C863 1.377 1_655 S
C864 C870 1.390 . S
C865 H856 0.930 . S
C865 C863 1.384 . S
C865 C866 1.372 . S
C866 C865 1.372 . S
C866 C867 1.400 1_455 S
C866 C871 1.490 . S
C867 H857 0.930 . S
C867 C866 1.400 1_655 S
C867 C870 1.386 . S
H868 C884 0.904 1_655 S
H869 C885 0.931 . S
C870 H858 0.929 . S
C870 C864 1.390 . S
C870 C867 1.386 . S
C871 C866 1.490 . S
C871 C873 1.395 1_455 S
C871 C874 1.403 . S
H872 C878 0.930 . S
C873 H859 0.930 . S
C873 C871 1.395 1_655 S
C873 C876 1.403 . S
C874 C871 1.403 . S
C874 C875 1.524 . S
C874 C878 1.400 . S
C875 H860 0.960 . S
C875 H861 0.960 . S
C875 H862 0.960 . S
C875 C874 1.524 . S
C876 C873 1.403 . S
C876 C877 1.392 1_655 S
C876 C880 1.495 . S
C877 C876 1.392 1_455 S
C877 C878 1.385 . S
C877 C879 1.478 . S
C878 H872 0.930 . S
C878 C874 1.400 . S
C878 C877 1.385 . S
C879 C877 1.478 . S
C879 C881 1.381 . S
C879 C885 1.383 1_455 S
C880 C876 1.495 . S
C880 H886 0.959 . S
C880 H887 0.961 . S
C880 H888 0.960 . S
C881 C879 1.381 . S
C881 C882 1.394 . S
C881 H889 0.930 . S
C882 C881 1.394 . S
C882 C883 1.383 . S
C882 H890 0.929 . S
C883 C882 1.383 . S
C883 C884 1.405 . S
C884 H868 0.904 1_455 S
C884 C883 1.405 . S
C884 C885 1.377 1_455 S
C885 H869 0.931 . S
C885 C879 1.383 1_655 S
C885 C884 1.377 1_655 S
H886 C880 0.959 . S
H887 C880 0.961 . S
H888 C880 0.960 . S
H889 C881 0.930 . S
H890 C882 0.929 . S
H891 C899 0.929 . S
H892 C901 0.930 . S
H893 C903 0.930 . S
H894 C906 0.929 . S
H895 C909 0.930 . S
H896 C911 0.960 . S
H897 C911 0.960 . S
H898 C911 0.960 . S
C899 H891 0.929 . S
C899 C900 1.377 . S
C899 C901 1.384 . S
C900 C899 1.377 . S
C900 C906 1.390 . S
C901 H892 0.930 . S
C901 C899 1.384 . S
C901 C902 1.372 . S
C902 C901 1.372 . S
C902 C903 1.400 . S
C902 C907 1.490 . S
C903 H893 0.930 . S
C903 C902 1.400 . S
C903 C906 1.386 . S
H904 C920 0.930 . S
H905 C921 0.931 . S
C906 H894 0.929 . S
C906 C900 1.390 . S
C906 C903 1.386 . S
C907 C902 1.490 . S
C907 C909 1.395 . S
C907 C910 1.403 . S
H908 C914 0.930 . S
C909 H895 0.930 . S
C909 C907 1.395 . S
C909 C912 1.403 . S
C910 C907 1.403 . S
C910 C911 1.524 . S
C910 C914 1.400 . S
C911 H896 0.960 . S
C911 H897 0.960 . S
C911 H898 0.960 . S
C911 C910 1.524 . S
C912 C909 1.403 . S
C912 C913 1.392 . S
C912 C916 1.495 . S
C913 C912 1.392 . S
C913 C914 1.385 . S
C913 C915 1.478 . S
C914 H908 0.930 . S
C914 C910 1.400 . S
C914 C913 1.385 . S
C915 C913 1.478 . S
C915 C917 1.381 . S
C915 C921 1.383 . S
C916 C912 1.495 . S
C916 H922 0.959 . S
C916 H923 0.961 . S
C916 H924 0.960 . S
C917 C915 1.381 . S
C917 C918 1.394 . S
C917 H925 0.930 . S
C918 C917 1.394 . S
C918 C919 1.383 . S
C918 H926 0.929 . S
C919 C918 1.383 . S
C919 C920 1.377 . S
C920 H904 0.930 . S
C920 C919 1.377 . S
C920 C921 1.379 . S
C921 H905 0.931 . S
C921 C915 1.383 . S
C921 C920 1.379 . S
H922 C916 0.959 . S
H923 C916 0.961 . S
H924 C916 0.960 . S
H925 C917 0.930 . S
H926 C918 0.929 . S
H927 C935 0.929 . S
H928 C937 0.930 . S
H929 C939 0.930 . S
H930 C942 0.929 . S
H931 C945 0.930 . S
H932 C947 0.960 . S
H933 C947 0.960 . S
H934 C947 0.960 . S
C935 H927 0.929 . S
C935 C936 1.377 . S
C935 C937 1.384 . S
C936 C935 1.377 . S
C936 C942 1.390 . S
C937 H928 0.930 . S
C937 C935 1.384 . S
C937 C938 1.372 . S
C938 C937 1.372 . S
C938 C939 1.400 . S
C938 C943 1.490 . S
C939 H929 0.930 . S
C939 C938 1.400 . S
C939 C942 1.386 . S
H940 C956 0.930 . S
H941 C957 0.931 . S
C942 H930 0.929 . S
C942 C936 1.390 . S
C942 C939 1.386 . S
C943 C938 1.490 . S
C943 C945 1.395 1_545 S
C943 C946 1.403 . S
H944 C950 0.930 . S
C945 H931 0.930 . S
C945 C943 1.395 1_565 S
C945 C948 1.403 . S
C946 C943 1.403 . S
C946 C947 1.524 . S
C946 C950 1.400 . S
C947 H932 0.960 . S
C947 H933 0.960 . S
C947 H934 0.960 . S
C947 C946 1.524 . S
C948 C945 1.403 . S
C948 C949 1.392 1_565 S
C948 C952 1.495 . S
C949 C948 1.392 1_545 S
C949 C950 1.385 . S
C949 C951 1.478 . S
C950 H944 0.930 . S
C950 C946 1.400 . S
C950 C949 1.385 . S
C951 C949 1.478 . S
C951 C953 1.375 1_545 S
C951 C957 1.389 . S
C952 C948 1.495 . S
C952 H958 0.959 . S
C952 H959 0.961 . S
C952 H960 0.960 . S
C953 C951 1.375 1_565 S
C953 C954 1.394 . S
C953 H961 0.930 . S
C954 C953 1.394 . S
C954 C955 1.383 . S
C954 H962 0.929 . S
C955 C954 1.383 . S
C955 C956 1.377 1_565 S
C956 H940 0.930 . S
C956 C955 1.377 1_545 S
C956 C957 1.379 . S
C957 H941 0.931 . S
C957 C951 1.389 . S
C957 C956 1.379 . S
H958 C952 0.959 . S
H959 C952 0.961 . S
H960 C952 0.960 . S
H961 C953 0.930 . S
H962 C954 0.929 . S
H963 C971 0.929 . S
H964 C973 0.930 . S
H965 C975 0.930 . S
H966 C978 0.929 . S
H967 C981 0.930 . S
H968 C983 0.960 . S
H969 C983 0.960 . S
H970 C983 0.960 . S
C971 H963 0.929 . S
C971 C972 1.377 . S
C971 C973 1.384 . S
C972 C971 1.377 . S
C972 C978 1.390 . S
C973 H964 0.930 . S
C973 C971 1.384 . S
C973 C974 1.372 . S
C974 C973 1.372 . S
C974 C975 1.400 . S
C974 C979 1.490 . S
C975 H965 0.930 . S
C975 C974 1.400 . S
C975 C978 1.386 . S
H976 C992 0.930 . S
H977 C993 0.931 1_556 S
C978 H966 0.929 . S
C978 C972 1.390 . S
C978 C975 1.386 . S
C979 C974 1.490 . S
C979 C981 1.395 . S
C979 C982 1.403 . S
H980 C986 0.930 . S
C981 H967 0.930 . S
C981 C979 1.395 . S
C981 C984 1.403 . S
C982 C979 1.403 . S
C982 C983 1.524 . S
C982 C986 1.400 . S
C983 H968 0.960 . S
C983 H969 0.960 . S
C983 H970 0.960 . S
C983 C982 1.524 . S
C984 C981 1.403 . S
C984 C985 1.392 . S
C984 C988 1.495 . S
C985 C984 1.392 . S
C985 C986 1.385 . S
C985 C987 1.478 . S
C986 H980 0.930 . S
C986 C982 1.400 . S
C986 C985 1.385 . S
C987 C985 1.478 . S
C987 C989 1.378 1_556 S
C987 C993 1.383 1_556 S
C988 C984 1.495 . S
C988 H994 0.959 . S
C988 H995 0.961 . S
C988 H996 0.960 . S
C989 C987 1.378 1_554 S
C989 C990 1.400 . S
C989 H997 0.927 1_554 S
C990 C989 1.400 . S
C990 C991 1.383 . S
C990 H998 0.929 . S
C991 C990 1.383 . S
C991 C992 1.377 . S
C992 H976 0.930 . S
C992 C991 1.377 . S
C992 C993 1.379 . S
C993 H977 0.931 1_554 S
C993 C987 1.383 1_554 S
C993 C992 1.379 . S
H994 C988 0.959 . S
H995 C988 0.961 . S
H996 C988 0.960 . S
H997 C989 0.927 1_556 S
H998 C990 0.929 . S
H999 C1007 0.929 . S
H1000 C1009 0.930 . S
H1001 C1011 0.930 . S
H1002 C1014 0.929 . S
H1003 C1017 0.930 . S
H1004 C1019 0.960 . S
H1005 C1019 0.960 . S
H1006 C1019 0.960 . S
C1007 H999 0.929 . S
C1007 C1008 1.377 . S
C1007 C1009 1.384 . S
C1008 C1007 1.377 . S
C1008 C1014 1.390 . S
C1009 H1000 0.930 . S
C1009 C1007 1.384 . S
C1009 C1010 1.372 . S
C1010 C1009 1.372 . S
C1010 C1011 1.400 . S
C1010 C1015 1.490 . S
C1011 H1001 0.930 . S
C1011 C1010 1.400 . S
C1011 C1014 1.386 . S
H1012 C1028 0.930 . S
H1013 C1029 0.931 . S
C1014 H1002 0.929 . S
C1014 C1008 1.390 . S
C1014 C1011 1.386 . S
C1015 C1010 1.490 . S
C1015 C1017 1.395 . S
C1015 C1018 1.403 . S
H1016 C1022 0.930 . S
C1017 H1003 0.930 . S
C1017 C1015 1.395 . S
C1017 C1020 1.403 . S
C1018 C1015 1.403 . S
C1018 C1019 1.524 . S
C1018 C1022 1.400 . S
C1019 H1004 0.960 . S
C1019 H1005 0.960 . S
C1019 H1006 0.960 . S
C1019 C1018 1.524 . S
C1020 C1017 1.403 . S
C1020 C1021 1.392 . S
C1020 C1024 1.495 . S
C1021 C1020 1.392 . S
C1021 C1022 1.385 . S
C1021 C1023 1.478 . S
C1022 H1016 0.930 . S
C1022 C1018 1.400 . S
C1022 C1021 1.385 . S
C1023 C1021 1.478 . S
C1023 C1025 1.381 1_556 S
C1023 C1029 1.383 . S
C1024 C1020 1.495 . S
C1024 H1030 0.959 . S
C1024 H1031 0.961 . S
C1024 H1032 0.960 . S
C1025 C1023 1.381 1_554 S
C1025 C1026 1.394 . S
C1025 H1033 0.930 1_554 S
C1026 C1025 1.394 . S
C1026 C1027 1.383 . S
C1026 H1034 0.929 . S
C1027 C1026 1.383 . S
C1027 C1028 1.377 . S
C1028 H1012 0.930 . S
C1028 C1027 1.377 . S
C1028 C1029 1.379 1_554 S
C1029 H1013 0.931 . S
C1029 C1023 1.383 . S
C1029 C1028 1.379 1_556 S
H1030 C1024 0.959 . S
H1031 C1024 0.961 . S
H1032 C1024 0.960 . S
H1033 C1025 0.930 1_556 S
H1034 C1026 0.929 . S
H1035 C1043 0.929 . S
H1036 C1045 0.930 . S
H1037 C1047 0.930 . S
H1038 C1050 0.929 . S
H1039 C1053 0.930 . S
H1040 C1055 0.960 . S
H1041 C1055 0.960 . S
H1042 C1055 0.960 . S
C1043 H1035 0.929 . S
C1043 C1044 1.377 . S
C1043 C1045 1.384 . S
C1044 C1043 1.377 . S
C1044 C1050 1.390 . S
C1045 H1036 0.930 . S
C1045 C1043 1.384 . S
C1045 C1046 1.372 . S
C1046 C1045 1.372 . S
C1046 C1047 1.400 . S
C1046 C1051 1.490 . S
C1047 H1037 0.930 . S
C1047 C1046 1.400 . S
C1047 C1050 1.386 . S
H1048 C1064 0.930 . S
H1049 C1065 0.921 1_556 S
C1050 H1038 0.929 . S
C1050 C1044 1.390 . S
C1050 C1047 1.386 . S
C1051 C1046 1.490 . S
C1051 C1053 1.395 . S
C1051 C1054 1.403 . S
H1052 C1058 0.930 . S
C1053 H1039 0.930 . S
C1053 C1051 1.395 . S
C1053 C1056 1.403 . S
C1054 C1051 1.403 . S
C1054 C1055 1.524 . S
C1054 C1058 1.400 . S
C1055 H1040 0.960 . S
C1055 H1041 0.960 . S
C1055 H1042 0.960 . S
C1055 C1054 1.524 . S
C1056 C1053 1.403 . S
C1056 C1057 1.392 . S
C1056 C1060 1.495 . S
C1057 C1056 1.392 . S
C1057 C1058 1.385 . S
C1057 C1059 1.478 . S
C1058 H1052 0.930 . S
C1058 C1054 1.400 . S
C1058 C1057 1.385 . S
C1059 C1057 1.478 . S
C1059 C1061 1.381 1_556 S
C1059 C1065 1.375 1_556 S
C1060 C1056 1.495 . S
C1060 H1066 0.959 . S
C1060 H1067 0.961 . S
C1060 H1068 0.960 . S
C1061 C1059 1.381 1_554 S
C1061 C1062 1.394 . S
C1061 H1069 0.930 1_554 S
C1062 C1061 1.394 . S
C1062 C1063 1.383 . S
C1062 H1070 0.929 . S
C1063 C1062 1.383 . S
C1063 C1064 1.377 . S
C1064 H1048 0.930 . S
C1064 C1063 1.377 . S
C1064 C1065 1.397 . S
C1065 H1049 0.921 1_554 S
C1065 C1059 1.375 1_554 S
C1065 C1064 1.397 . S
H1066 C1060 0.959 . S
H1067 C1060 0.961 . S
H1068 C1060 0.960 . S
H1069 C1061 0.930 1_556 S
H1070 C1062 0.929 . S
H1071 C1079 0.929 . S
H1072 C1081 0.930 . S
H1073 C1083 0.930 . S
H1074 C1086 0.929 . S
H1075 C1089 0.930 . S
H1076 C1091 0.960 . S
H1077 C1091 0.960 . S
H1078 C1091 0.960 . S
C1079 H1071 0.929 . S
C1079 C1080 1.377 . S
C1079 C1081 1.384 . S
C1080 C1079 1.377 . S
C1080 C1086 1.390 . S
C1081 H1072 0.930 . S
C1081 C1079 1.384 . S
C1081 C1082 1.372 . S
C1082 C1081 1.372 . S
C1082 C1083 1.400 . S
C1082 C1087 1.490 . S
C1083 H1073 0.930 . S
C1083 C1082 1.400 . S
C1083 C1086 1.386 . S
H1084 C1100 0.930 . S
H1085 C1101 0.931 . S
C1086 H1074 0.929 . S
C1086 C1080 1.390 . S
C1086 C1083 1.386 . S
C1087 C1082 1.490 . S
C1087 C1089 1.395 . S
C1087 C1090 1.403 . S
H1088 C1094 0.930 . S
C1089 H1075 0.930 . S
C1089 C1087 1.395 . S
C1089 C1092 1.403 . S
C1090 C1087 1.403 . S
C1090 C1091 1.524 . S
C1090 C1094 1.400 . S
C1091 H1076 0.960 . S
C1091 H1077 0.960 . S
C1091 H1078 0.960 . S
C1091 C1090 1.524 . S
C1092 C1089 1.403 . S
C1092 C1093 1.392 . S
C1092 C1096 1.495 . S
C1093 C1092 1.392 . S
C1093 C1094 1.385 . S
C1093 C1095 1.478 . S
C1094 H1088 0.930 . S
C1094 C1090 1.400 . S
C1094 C1093 1.385 . S
C1095 C1093 1.478 . S
C1095 C1097 1.381 . S
C1095 C1101 1.383 . S
C1096 C1092 1.495 . S
C1096 H1102 0.959 . S
C1096 H1103 0.961 . S
C1096 H1104 0.960 . S
C1097 C1095 1.381 . S
C1097 C1098 1.394 1_554 S
C1097 H1105 0.930 . S
C1098 C1097 1.394 1_556 S
C1098 C1099 1.383 . S
C1098 H1106 0.929 . S
C1099 C1098 1.383 . S
C1099 C1100 1.377 . S
C1100 H1084 0.930 . S
C1100 C1099 1.377 . S
C1100 C1101 1.379 1_556 S
C1101 H1085 0.931 . S
C1101 C1095 1.383 . S
C1101 C1100 1.379 1_554 S
H1102 C1096 0.959 . S
H1103 C1096 0.961 . S
H1104 C1096 0.960 . S
H1105 C1097 0.930 . S
H1106 C1098 0.929 . S
H1107 C1115 0.929 . S
H1108 C1117 0.930 . S
H1109 C1119 0.930 1_554 S
H1110 C1122 0.929 . S
H1111 C1125 0.930 . S
H1112 C1127 0.960 . S
H1113 C1127 0.960 . S
H1114 C1127 0.960 . S
C1115 H1107 0.929 . S
C1115 C1116 1.377 . S
C1115 C1117 1.384 1_556 S
C1116 C1115 1.377 . S
C1116 C1122 1.390 . S
C1117 H1108 0.930 . S
C1117 C1115 1.384 1_554 S
C1117 C1118 1.372 . S
C1118 C1117 1.372 . S
C1118 C1119 1.400 1_554 S
C1118 C1123 1.490 . S
C1119 H1109 0.930 1_556 S
C1119 C1118 1.400 1_556 S
C1119 C1122 1.386 . S
H1120 C1136 0.930 . S
H1121 C1137 0.931 . S
C1122 H1110 0.929 . S
C1122 C1116 1.390 . S
C1122 C1119 1.386 . S
C1123 C1118 1.490 . S
C1123 C1125 1.395 . S
C1123 C1126 1.403 . S
H1124 C1130 0.930 . S
C1125 H1111 0.930 . S
C1125 C1123 1.395 . S
C1125 C1128 1.403 . S
C1126 C1123 1.403 . S
C1126 C1127 1.524 . S
C1126 C1130 1.400 . S
C1127 H1112 0.960 . S
C1127 H1113 0.960 . S
C1127 H1114 0.960 . S
C1127 C1126 1.524 . S
C1128 C1125 1.403 . S
C1128 C1129 1.392 . S
C1128 C1132 1.495 . S
C1129 C1128 1.392 . S
C1129 C1130 1.385 . S
C1129 C1131 1.478 . S
C1130 H1124 0.930 . S
C1130 C1126 1.400 . S
C1130 C1129 1.385 . S
C1131 C1129 1.478 . S
C1131 C1133 1.381 . S
C1131 C1137 1.383 . S
C1132 C1128 1.495 . S
C1132 H1138 0.959 . S
C1132 H1139 0.961 . S
C1132 H1140 0.960 . S
C1133 C1131 1.381 . S
C1133 C1134 1.394 . S
C1133 H1141 0.930 . S
C1134 C1133 1.394 . S
C1134 C1135 1.383 . S
C1134 H1142 0.929 . S
C1135 C1134 1.383 . S
C1135 C1136 1.377 . S
C1136 H1120 0.930 . S
C1136 C1135 1.377 . S
C1136 C1137 1.379 . S
C1137 H1121 0.931 . S
C1137 C1131 1.383 . S
C1137 C1136 1.379 . S
H1138 C1132 0.959 . S
H1139 C1132 0.961 . S
H1140 C1132 0.960 . S
H1141 C1133 0.930 . S
H1142 C1134 0.929 . S
H1143 C1151 0.929 . S
H1144 C1153 0.930 . S
H1145 C1155 0.930 . S
H1146 C1158 0.929 . S
H1147 C1161 0.930 . S
H1148 C1163 0.960 . S
H1149 C1163 0.960 . S
H1150 C1163 0.960 . S
C1151 H1143 0.929 . S
C1151 C1152 1.377 . S
C1151 C1153 1.384 . S
C1152 C1151 1.377 . S
C1152 C1158 1.390 . S
C1153 H1144 0.930 . S
C1153 C1151 1.384 . S
C1153 C1154 1.372 . S
C1154 C1153 1.372 . S
C1154 C1155 1.400 . S
C1154 C1159 1.490 . S
C1155 H1145 0.930 . S
C1155 C1154 1.400 . S
C1155 C1158 1.386 . S
H1156 C1172 0.930 . S
H1157 C1173 0.931 . S
C1158 H1146 0.929 . S
C1158 C1152 1.390 . S
C1158 C1155 1.386 . S
C1159 C1154 1.490 . S
C1159 C1161 1.395 . S
C1159 C1162 1.403 . S
H1160 C1166 0.930 . S
C1161 H1147 0.930 . S
C1161 C1159 1.395 . S
C1161 C1164 1.403 . S
C1162 C1159 1.403 . S
C1162 C1163 1.524 . S
C1162 C1166 1.400 . S
C1163 H1148 0.960 . S
C1163 H1149 0.960 . S
C1163 H1150 0.960 . S
C1163 C1162 1.524 . S
C1164 C1161 1.403 . S
C1164 C1165 1.392 . S
C1164 C1168 1.495 . S
C1165 C1164 1.392 . S
C1165 C1166 1.385 . S
C1165 C1167 1.478 . S
C1166 H1160 0.930 . S
C1166 C1162 1.400 . S
C1166 C1165 1.385 . S
C1167 C1165 1.478 . S
C1167 C1169 1.381 . S
C1167 C1173 1.383 . S
C1168 C1164 1.495 . S
C1168 H1174 0.959 . S
C1168 H1175 0.961 . S
C1168 H1176 0.960 . S
C1169 C1167 1.381 . S
C1169 C1170 1.394 1_554 S
C1169 H1177 0.930 . S
C1170 C1169 1.394 1_556 S
C1170 C1171 1.383 . S
C1170 H1178 0.929 . S
C1171 C1170 1.383 . S
C1171 C1172 1.377 . S
C1172 H1156 0.930 . S
C1172 C1171 1.377 . S
C1172 C1173 1.379 1_556 S
C1173 H1157 0.931 . S
C1173 C1167 1.383 . S
C1173 C1172 1.379 1_554 S
H1174 C1168 0.959 . S
H1175 C1168 0.961 . S
H1176 C1168 0.960 . S
H1177 C1169 0.930 . S
H1178 C1170 0.929 . S
C216 C18 1.082 . S
C235 C179 1.075 . S
C252 C42 1.046 . S
C271 C203 1.013 . S
C288 C64 1.069 . S
C307 C157 1.044 . S
C324 C111 1.019 . S
C343 C65 1.020 . S
C360 C134 1.031 . S
C379 C19 1.000 . S
C396 C41 1.057 . S
C415 C88 1.038 . S
C432 C180 1.060 . S
C451 C133 1.071 . S
C468 C202 1.099 . S
C487 C87 1.090 . S
C504 C110 1.104 . S
C523 C156 1.111 . S
C540 C67 0.859 1_556 S
C559 C20 0.887 . S
C576 C44 0.866 . S
C595 C21 0.899 1_556 S
C612 C43 0.875 . S
C631 C66 0.843 . S
C648 C90 0.872 . S
C667 C135 0.894 . S
C684 C89 0.887 . S
C703 C113 0.860 . S
C720 C112 0.873 . S
C739 C136 0.858 . S
C756 C205 0.885 . S
C775 C158 0.913 . S
C792 C182 0.880 . S
C811 C159 0.916 . S
C828 C204 0.887 . S
C847 C181 0.837 . S
C864 C16 1.310 . S
C883 C17 1.307 . S
C900 C40 1.311 . S
C919 C39 1.297 . S
C936 C62 1.312 . S
C955 C63 1.317 1_565 S
C972 C85 1.313 . S
C991 C86 1.320 . S
C1008 C108 1.314 . S
C1027 C109 1.317 . S
C1044 C131 1.310 . S
C1063 C132 1.301 . S
C1080 C154 1.311 . S
C1099 C155 1.311 . S
C1116 C177 1.314 . S
C1135 C178 1.305 . S
C1152 C200 1.309 . S
C1171 C201 1.306 . S
